# Generated by pormake.
# Topology wse, (4)-cn, num edge types: 1
# Building blocks:
#     Node 0, Type 0, BuildingBlock: GALJAG_clean_sbu_0, # of connection points: 4
#     Node 1, Type 0, BuildingBlock: GALJAG_clean_sbu_0, # of connection points: 4
#     Node 2, Type 0, BuildingBlock: GALJAG_clean_sbu_0, # of connection points: 4
#     Node 3, Type 0, BuildingBlock: GALJAG_clean_sbu_0, # of connection points: 4
#     Node 4, Type 0, BuildingBlock: GALJAG_clean_sbu_0, # of connection points: 4
#     Node 5, Type 0, BuildingBlock: GALJAG_clean_sbu_0, # of connection points: 4
#     Node 6, Type 0, BuildingBlock: GALJAG_clean_sbu_0, # of connection points: 4
#     Node 7, Type 0, BuildingBlock: GALJAG_clean_sbu_0, # of connection points: 4
#     Node 8, Type 0, BuildingBlock: GALJAG_clean_sbu_0, # of connection points: 4
#     Node 9, Type 0, BuildingBlock: GALJAG_clean_sbu_0, # of connection points: 4
#     Node 10, Type 0, BuildingBlock: GALJAG_clean_sbu_0, # of connection points: 4
#     Node 11, Type 0, BuildingBlock: GALJAG_clean_sbu_0, # of connection points: 4
#     Node 12, Type 0, BuildingBlock: GALJAG_clean_sbu_0, # of connection points: 4
#     Node 13, Type 0, BuildingBlock: GALJAG_clean_sbu_0, # of connection points: 4
#     Node 14, Type 0, BuildingBlock: GALJAG_clean_sbu_0, # of connection points: 4
#     Node 15, Type 0, BuildingBlock: GALJAG_clean_sbu_0, # of connection points: 4
#     Node 16, Type 0, BuildingBlock: GALJAG_clean_sbu_0, # of connection points: 4
#     Node 17, Type 0, BuildingBlock: GALJAG_clean_sbu_0, # of connection points: 4
#     Node 18, Type 0, BuildingBlock: GALJAG_clean_sbu_0, # of connection points: 4
#     Node 19, Type 0, BuildingBlock: GALJAG_clean_sbu_0, # of connection points: 4
#     Node 20, Type 0, BuildingBlock: GALJAG_clean_sbu_0, # of connection points: 4
#     Node 21, Type 0, BuildingBlock: GALJAG_clean_sbu_0, # of connection points: 4
#     Node 22, Type 0, BuildingBlock: GALJAG_clean_sbu_0, # of connection points: 4
#     Node 23, Type 0, BuildingBlock: GALJAG_clean_sbu_0, # of connection points: 4
#     Node 24, Type 0, BuildingBlock: GALJAG_clean_sbu_0, # of connection points: 4
#     Node 25, Type 0, BuildingBlock: GALJAG_clean_sbu_0, # of connection points: 4
#     Node 26, Type 0, BuildingBlock: GALJAG_clean_sbu_0, # of connection points: 4
#     Node 27, Type 0, BuildingBlock: GALJAG_clean_sbu_0, # of connection points: 4
#     Node 28, Type 0, BuildingBlock: GALJAG_clean_sbu_0, # of connection points: 4
#     Node 29, Type 0, BuildingBlock: GALJAG_clean_sbu_0, # of connection points: 4
#     Node 30, Type 0, BuildingBlock: GALJAG_clean_sbu_0, # of connection points: 4
#     Node 31, Type 0, BuildingBlock: GALJAG_clean_sbu_0, # of connection points: 4
#     Node 32, Type 0, BuildingBlock: GALJAG_clean_sbu_0, # of connection points: 4
#     Node 33, Type 0, BuildingBlock: GALJAG_clean_sbu_0, # of connection points: 4
#     Node 34, Type 0, BuildingBlock: GALJAG_clean_sbu_0, # of connection points: 4
#     Node 35, Type 0, BuildingBlock: GALJAG_clean_sbu_0, # of connection points: 4
#     Node 36, Type 0, BuildingBlock: GALJAG_clean_sbu_0, # of connection points: 4
#     Node 37, Type 0, BuildingBlock: GALJAG_clean_sbu_0, # of connection points: 4
#     Node 38, Type 0, BuildingBlock: GALJAG_clean_sbu_0, # of connection points: 4
#     Node 39, Type 0, BuildingBlock: GALJAG_clean_sbu_0, # of connection points: 4
#     Node 40, Type 0, BuildingBlock: GALJAG_clean_sbu_0, # of connection points: 4
#     Node 41, Type 0, BuildingBlock: GALJAG_clean_sbu_0, # of connection points: 4
#     Node 42, Type 0, BuildingBlock: GALJAG_clean_sbu_0, # of connection points: 4
#     Node 43, Type 0, BuildingBlock: GALJAG_clean_sbu_0, # of connection points: 4
#     Node 44, Type 0, BuildingBlock: GALJAG_clean_sbu_0, # of connection points: 4
#     Node 45, Type 0, BuildingBlock: GALJAG_clean_sbu_0, # of connection points: 4
#     Node 46, Type 0, BuildingBlock: GALJAG_clean_sbu_0, # of connection points: 4
#     Node 47, Type 0, BuildingBlock: GALJAG_clean_sbu_0, # of connection points: 4
#     Node 48, Type 0, BuildingBlock: GALJAG_clean_sbu_0, # of connection points: 4
#     Node 49, Type 0, BuildingBlock: GALJAG_clean_sbu_0, # of connection points: 4
#     Node 50, Type 0, BuildingBlock: GALJAG_clean_sbu_0, # of connection points: 4
#     Node 51, Type 0, BuildingBlock: GALJAG_clean_sbu_0, # of connection points: 4
#     Node 52, Type 0, BuildingBlock: GALJAG_clean_sbu_0, # of connection points: 4
#     Node 53, Type 0, BuildingBlock: GALJAG_clean_sbu_0, # of connection points: 4
#     Node 54, Type 0, BuildingBlock: GALJAG_clean_sbu_0, # of connection points: 4
#     Node 55, Type 0, BuildingBlock: GALJAG_clean_sbu_0, # of connection points: 4
#     Node 56, Type 0, BuildingBlock: GALJAG_clean_sbu_0, # of connection points: 4
#     Node 57, Type 0, BuildingBlock: GALJAG_clean_sbu_0, # of connection points: 4
#     Node 58, Type 0, BuildingBlock: GALJAG_clean_sbu_0, # of connection points: 4
#     Node 59, Type 0, BuildingBlock: GALJAG_clean_sbu_0, # of connection points: 4
#     Node 60, Type 0, BuildingBlock: GALJAG_clean_sbu_0, # of connection points: 4
#     Node 61, Type 0, BuildingBlock: GALJAG_clean_sbu_0, # of connection points: 4
#     Node 62, Type 0, BuildingBlock: GALJAG_clean_sbu_0, # of connection points: 4
#     Node 63, Type 0, BuildingBlock: GALJAG_clean_sbu_0, # of connection points: 4
#     Node 64, Type 0, BuildingBlock: GALJAG_clean_sbu_0, # of connection points: 4
#     Node 65, Type 0, BuildingBlock: GALJAG_clean_sbu_0, # of connection points: 4
#     Node 66, Type 0, BuildingBlock: GALJAG_clean_sbu_0, # of connection points: 4
#     Node 67, Type 0, BuildingBlock: GALJAG_clean_sbu_0, # of connection points: 4
#     Node 68, Type 0, BuildingBlock: GALJAG_clean_sbu_0, # of connection points: 4
#     Node 69, Type 0, BuildingBlock: GALJAG_clean_sbu_0, # of connection points: 4
#     Node 70, Type 0, BuildingBlock: GALJAG_clean_sbu_0, # of connection points: 4
#     Node 71, Type 0, BuildingBlock: GALJAG_clean_sbu_0, # of connection points: 4
#     Node 72, Type 0, BuildingBlock: GALJAG_clean_sbu_0, # of connection points: 4
#     Node 73, Type 0, BuildingBlock: GALJAG_clean_sbu_0, # of connection points: 4
#     Node 74, Type 0, BuildingBlock: GALJAG_clean_sbu_0, # of connection points: 4
#     Node 75, Type 0, BuildingBlock: GALJAG_clean_sbu_0, # of connection points: 4
#     Node 76, Type 0, BuildingBlock: GALJAG_clean_sbu_0, # of connection points: 4
#     Node 77, Type 0, BuildingBlock: GALJAG_clean_sbu_0, # of connection points: 4
#     Node 78, Type 0, BuildingBlock: GALJAG_clean_sbu_0, # of connection points: 4
#     Node 79, Type 0, BuildingBlock: GALJAG_clean_sbu_0, # of connection points: 4
#     Node 80, Type 0, BuildingBlock: GALJAG_clean_sbu_0, # of connection points: 4
#     Node 81, Type 0, BuildingBlock: GALJAG_clean_sbu_0, # of connection points: 4
#     Node 82, Type 0, BuildingBlock: GALJAG_clean_sbu_0, # of connection points: 4
#     Node 83, Type 0, BuildingBlock: GALJAG_clean_sbu_0, # of connection points: 4
#     Node 84, Type 0, BuildingBlock: GALJAG_clean_sbu_0, # of connection points: 4
#     Node 85, Type 0, BuildingBlock: GALJAG_clean_sbu_0, # of connection points: 4
#     Node 86, Type 0, BuildingBlock: GALJAG_clean_sbu_0, # of connection points: 4
#     Node 87, Type 0, BuildingBlock: GALJAG_clean_sbu_0, # of connection points: 4
#     Node 88, Type 0, BuildingBlock: GALJAG_clean_sbu_0, # of connection points: 4
#     Node 89, Type 0, BuildingBlock: GALJAG_clean_sbu_0, # of connection points: 4
#     Node 90, Type 0, BuildingBlock: GALJAG_clean_sbu_0, # of connection points: 4
#     Node 91, Type 0, BuildingBlock: GALJAG_clean_sbu_0, # of connection points: 4
#     Node 92, Type 0, BuildingBlock: GALJAG_clean_sbu_0, # of connection points: 4
#     Node 93, Type 0, BuildingBlock: GALJAG_clean_sbu_0, # of connection points: 4
#     Node 94, Type 0, BuildingBlock: GALJAG_clean_sbu_0, # of connection points: 4
#     Node 95, Type 0, BuildingBlock: GALJAG_clean_sbu_0, # of connection points: 4
#     Edge 96, Type (0, 0), BuildingBlock: CIFDUS_clean_linker_0, # of connection points: 2
#     Edge 97, Type (0, 0), BuildingBlock: CIFDUS_clean_linker_0, # of connection points: 2
#     Edge 98, Type (0, 0), BuildingBlock: CIFDUS_clean_linker_0, # of connection points: 2
#     Edge 99, Type (0, 0), BuildingBlock: CIFDUS_clean_linker_0, # of connection points: 2
#     Edge 100, Type (0, 0), BuildingBlock: CIFDUS_clean_linker_0, # of connection points: 2
#     Edge 101, Type (0, 0), BuildingBlock: CIFDUS_clean_linker_0, # of connection points: 2
#     Edge 102, Type (0, 0), BuildingBlock: CIFDUS_clean_linker_0, # of connection points: 2
#     Edge 103, Type (0, 0), BuildingBlock: CIFDUS_clean_linker_0, # of connection points: 2
#     Edge 104, Type (0, 0), BuildingBlock: CIFDUS_clean_linker_0, # of connection points: 2
#     Edge 105, Type (0, 0), BuildingBlock: CIFDUS_clean_linker_0, # of connection points: 2
#     Edge 106, Type (0, 0), BuildingBlock: CIFDUS_clean_linker_0, # of connection points: 2
#     Edge 107, Type (0, 0), BuildingBlock: CIFDUS_clean_linker_0, # of connection points: 2
#     Edge 108, Type (0, 0), BuildingBlock: CIFDUS_clean_linker_0, # of connection points: 2
#     Edge 109, Type (0, 0), BuildingBlock: CIFDUS_clean_linker_0, # of connection points: 2
#     Edge 110, Type (0, 0), BuildingBlock: CIFDUS_clean_linker_0, # of connection points: 2
#     Edge 111, Type (0, 0), BuildingBlock: CIFDUS_clean_linker_0, # of connection points: 2
#     Edge 112, Type (0, 0), BuildingBlock: CIFDUS_clean_linker_0, # of connection points: 2
#     Edge 113, Type (0, 0), BuildingBlock: CIFDUS_clean_linker_0, # of connection points: 2
#     Edge 114, Type (0, 0), BuildingBlock: CIFDUS_clean_linker_0, # of connection points: 2
#     Edge 115, Type (0, 0), BuildingBlock: CIFDUS_clean_linker_0, # of connection points: 2
#     Edge 116, Type (0, 0), BuildingBlock: CIFDUS_clean_linker_0, # of connection points: 2
#     Edge 117, Type (0, 0), BuildingBlock: CIFDUS_clean_linker_0, # of connection points: 2
#     Edge 118, Type (0, 0), BuildingBlock: CIFDUS_clean_linker_0, # of connection points: 2
#     Edge 119, Type (0, 0), BuildingBlock: CIFDUS_clean_linker_0, # of connection points: 2
#     Edge 120, Type (0, 0), BuildingBlock: CIFDUS_clean_linker_0, # of connection points: 2
#     Edge 121, Type (0, 0), BuildingBlock: CIFDUS_clean_linker_0, # of connection points: 2
#     Edge 122, Type (0, 0), BuildingBlock: CIFDUS_clean_linker_0, # of connection points: 2
#     Edge 123, Type (0, 0), BuildingBlock: CIFDUS_clean_linker_0, # of connection points: 2
#     Edge 124, Type (0, 0), BuildingBlock: CIFDUS_clean_linker_0, # of connection points: 2
#     Edge 125, Type (0, 0), BuildingBlock: CIFDUS_clean_linker_0, # of connection points: 2
#     Edge 126, Type (0, 0), BuildingBlock: CIFDUS_clean_linker_0, # of connection points: 2
#     Edge 127, Type (0, 0), BuildingBlock: CIFDUS_clean_linker_0, # of connection points: 2
#     Edge 128, Type (0, 0), BuildingBlock: CIFDUS_clean_linker_0, # of connection points: 2
#     Edge 129, Type (0, 0), BuildingBlock: CIFDUS_clean_linker_0, # of connection points: 2
#     Edge 130, Type (0, 0), BuildingBlock: CIFDUS_clean_linker_0, # of connection points: 2
#     Edge 131, Type (0, 0), BuildingBlock: CIFDUS_clean_linker_0, # of connection points: 2
#     Edge 132, Type (0, 0), BuildingBlock: CIFDUS_clean_linker_0, # of connection points: 2
#     Edge 133, Type (0, 0), BuildingBlock: CIFDUS_clean_linker_0, # of connection points: 2
#     Edge 134, Type (0, 0), BuildingBlock: CIFDUS_clean_linker_0, # of connection points: 2
#     Edge 135, Type (0, 0), BuildingBlock: CIFDUS_clean_linker_0, # of connection points: 2
#     Edge 136, Type (0, 0), BuildingBlock: CIFDUS_clean_linker_0, # of connection points: 2
#     Edge 137, Type (0, 0), BuildingBlock: CIFDUS_clean_linker_0, # of connection points: 2
#     Edge 138, Type (0, 0), BuildingBlock: CIFDUS_clean_linker_0, # of connection points: 2
#     Edge 139, Type (0, 0), BuildingBlock: CIFDUS_clean_linker_0, # of connection points: 2
#     Edge 140, Type (0, 0), BuildingBlock: CIFDUS_clean_linker_0, # of connection points: 2
#     Edge 141, Type (0, 0), BuildingBlock: CIFDUS_clean_linker_0, # of connection points: 2
#     Edge 142, Type (0, 0), BuildingBlock: CIFDUS_clean_linker_0, # of connection points: 2
#     Edge 143, Type (0, 0), BuildingBlock: CIFDUS_clean_linker_0, # of connection points: 2
#     Edge 144, Type (0, 0), BuildingBlock: CIFDUS_clean_linker_0, # of connection points: 2
#     Edge 145, Type (0, 0), BuildingBlock: CIFDUS_clean_linker_0, # of connection points: 2
#     Edge 146, Type (0, 0), BuildingBlock: CIFDUS_clean_linker_0, # of connection points: 2
#     Edge 147, Type (0, 0), BuildingBlock: CIFDUS_clean_linker_0, # of connection points: 2
#     Edge 148, Type (0, 0), BuildingBlock: CIFDUS_clean_linker_0, # of connection points: 2
#     Edge 149, Type (0, 0), BuildingBlock: CIFDUS_clean_linker_0, # of connection points: 2
#     Edge 150, Type (0, 0), BuildingBlock: CIFDUS_clean_linker_0, # of connection points: 2
#     Edge 151, Type (0, 0), BuildingBlock: CIFDUS_clean_linker_0, # of connection points: 2
#     Edge 152, Type (0, 0), BuildingBlock: CIFDUS_clean_linker_0, # of connection points: 2
#     Edge 153, Type (0, 0), BuildingBlock: CIFDUS_clean_linker_0, # of connection points: 2
#     Edge 154, Type (0, 0), BuildingBlock: CIFDUS_clean_linker_0, # of connection points: 2
#     Edge 155, Type (0, 0), BuildingBlock: CIFDUS_clean_linker_0, # of connection points: 2
#     Edge 156, Type (0, 0), BuildingBlock: CIFDUS_clean_linker_0, # of connection points: 2
#     Edge 157, Type (0, 0), BuildingBlock: CIFDUS_clean_linker_0, # of connection points: 2
#     Edge 158, Type (0, 0), BuildingBlock: CIFDUS_clean_linker_0, # of connection points: 2
#     Edge 159, Type (0, 0), BuildingBlock: CIFDUS_clean_linker_0, # of connection points: 2
#     Edge 160, Type (0, 0), BuildingBlock: CIFDUS_clean_linker_0, # of connection points: 2
#     Edge 161, Type (0, 0), BuildingBlock: CIFDUS_clean_linker_0, # of connection points: 2
#     Edge 162, Type (0, 0), BuildingBlock: CIFDUS_clean_linker_0, # of connection points: 2
#     Edge 163, Type (0, 0), BuildingBlock: CIFDUS_clean_linker_0, # of connection points: 2
#     Edge 164, Type (0, 0), BuildingBlock: CIFDUS_clean_linker_0, # of connection points: 2
#     Edge 165, Type (0, 0), BuildingBlock: CIFDUS_clean_linker_0, # of connection points: 2
#     Edge 166, Type (0, 0), BuildingBlock: CIFDUS_clean_linker_0, # of connection points: 2
#     Edge 167, Type (0, 0), BuildingBlock: CIFDUS_clean_linker_0, # of connection points: 2
#     Edge 168, Type (0, 0), BuildingBlock: CIFDUS_clean_linker_0, # of connection points: 2
#     Edge 169, Type (0, 0), BuildingBlock: CIFDUS_clean_linker_0, # of connection points: 2
#     Edge 170, Type (0, 0), BuildingBlock: CIFDUS_clean_linker_0, # of connection points: 2
#     Edge 171, Type (0, 0), BuildingBlock: CIFDUS_clean_linker_0, # of connection points: 2
#     Edge 172, Type (0, 0), BuildingBlock: CIFDUS_clean_linker_0, # of connection points: 2
#     Edge 173, Type (0, 0), BuildingBlock: CIFDUS_clean_linker_0, # of connection points: 2
#     Edge 174, Type (0, 0), BuildingBlock: CIFDUS_clean_linker_0, # of connection points: 2
#     Edge 175, Type (0, 0), BuildingBlock: CIFDUS_clean_linker_0, # of connection points: 2
#     Edge 176, Type (0, 0), BuildingBlock: CIFDUS_clean_linker_0, # of connection points: 2
#     Edge 177, Type (0, 0), BuildingBlock: CIFDUS_clean_linker_0, # of connection points: 2
#     Edge 178, Type (0, 0), BuildingBlock: CIFDUS_clean_linker_0, # of connection points: 2
#     Edge 179, Type (0, 0), BuildingBlock: CIFDUS_clean_linker_0, # of connection points: 2
#     Edge 180, Type (0, 0), BuildingBlock: CIFDUS_clean_linker_0, # of connection points: 2
#     Edge 181, Type (0, 0), BuildingBlock: CIFDUS_clean_linker_0, # of connection points: 2
#     Edge 182, Type (0, 0), BuildingBlock: CIFDUS_clean_linker_0, # of connection points: 2
#     Edge 183, Type (0, 0), BuildingBlock: CIFDUS_clean_linker_0, # of connection points: 2
#     Edge 184, Type (0, 0), BuildingBlock: CIFDUS_clean_linker_0, # of connection points: 2
#     Edge 185, Type (0, 0), BuildingBlock: CIFDUS_clean_linker_0, # of connection points: 2
#     Edge 186, Type (0, 0), BuildingBlock: CIFDUS_clean_linker_0, # of connection points: 2
#     Edge 187, Type (0, 0), BuildingBlock: CIFDUS_clean_linker_0, # of connection points: 2
#     Edge 188, Type (0, 0), BuildingBlock: CIFDUS_clean_linker_0, # of connection points: 2
#     Edge 189, Type (0, 0), BuildingBlock: CIFDUS_clean_linker_0, # of connection points: 2
#     Edge 190, Type (0, 0), BuildingBlock: CIFDUS_clean_linker_0, # of connection points: 2
#     Edge 191, Type (0, 0), BuildingBlock: CIFDUS_clean_linker_0, # of connection points: 2
#     Edge 192, Type (0, 0), BuildingBlock: CIFDUS_clean_linker_0, # of connection points: 2
#     Edge 193, Type (0, 0), BuildingBlock: CIFDUS_clean_linker_0, # of connection points: 2
#     Edge 194, Type (0, 0), BuildingBlock: CIFDUS_clean_linker_0, # of connection points: 2
#     Edge 195, Type (0, 0), BuildingBlock: CIFDUS_clean_linker_0, # of connection points: 2
#     Edge 196, Type (0, 0), BuildingBlock: CIFDUS_clean_linker_0, # of connection points: 2
#     Edge 197, Type (0, 0), BuildingBlock: CIFDUS_clean_linker_0, # of connection points: 2
#     Edge 198, Type (0, 0), BuildingBlock: CIFDUS_clean_linker_0, # of connection points: 2
#     Edge 199, Type (0, 0), BuildingBlock: CIFDUS_clean_linker_0, # of connection points: 2
#     Edge 200, Type (0, 0), BuildingBlock: CIFDUS_clean_linker_0, # of connection points: 2
#     Edge 201, Type (0, 0), BuildingBlock: CIFDUS_clean_linker_0, # of connection points: 2
#     Edge 202, Type (0, 0), BuildingBlock: CIFDUS_clean_linker_0, # of connection points: 2
#     Edge 203, Type (0, 0), BuildingBlock: CIFDUS_clean_linker_0, # of connection points: 2
#     Edge 204, Type (0, 0), BuildingBlock: CIFDUS_clean_linker_0, # of connection points: 2
#     Edge 205, Type (0, 0), BuildingBlock: CIFDUS_clean_linker_0, # of connection points: 2
#     Edge 206, Type (0, 0), BuildingBlock: CIFDUS_clean_linker_0, # of connection points: 2
#     Edge 207, Type (0, 0), BuildingBlock: CIFDUS_clean_linker_0, # of connection points: 2
#     Edge 208, Type (0, 0), BuildingBlock: CIFDUS_clean_linker_0, # of connection points: 2
#     Edge 209, Type (0, 0), BuildingBlock: CIFDUS_clean_linker_0, # of connection points: 2
#     Edge 210, Type (0, 0), BuildingBlock: CIFDUS_clean_linker_0, # of connection points: 2
#     Edge 211, Type (0, 0), BuildingBlock: CIFDUS_clean_linker_0, # of connection points: 2
#     Edge 212, Type (0, 0), BuildingBlock: CIFDUS_clean_linker_0, # of connection points: 2
#     Edge 213, Type (0, 0), BuildingBlock: CIFDUS_clean_linker_0, # of connection points: 2
#     Edge 214, Type (0, 0), BuildingBlock: CIFDUS_clean_linker_0, # of connection points: 2
#     Edge 215, Type (0, 0), BuildingBlock: CIFDUS_clean_linker_0, # of connection points: 2
#     Edge 216, Type (0, 0), BuildingBlock: CIFDUS_clean_linker_0, # of connection points: 2
#     Edge 217, Type (0, 0), BuildingBlock: CIFDUS_clean_linker_0, # of connection points: 2
#     Edge 218, Type (0, 0), BuildingBlock: CIFDUS_clean_linker_0, # of connection points: 2
#     Edge 219, Type (0, 0), BuildingBlock: CIFDUS_clean_linker_0, # of connection points: 2
#     Edge 220, Type (0, 0), BuildingBlock: CIFDUS_clean_linker_0, # of connection points: 2
#     Edge 221, Type (0, 0), BuildingBlock: CIFDUS_clean_linker_0, # of connection points: 2
#     Edge 222, Type (0, 0), BuildingBlock: CIFDUS_clean_linker_0, # of connection points: 2
#     Edge 223, Type (0, 0), BuildingBlock: CIFDUS_clean_linker_0, # of connection points: 2
#     Edge 224, Type (0, 0), BuildingBlock: CIFDUS_clean_linker_0, # of connection points: 2
#     Edge 225, Type (0, 0), BuildingBlock: CIFDUS_clean_linker_0, # of connection points: 2
#     Edge 226, Type (0, 0), BuildingBlock: CIFDUS_clean_linker_0, # of connection points: 2
#     Edge 227, Type (0, 0), BuildingBlock: CIFDUS_clean_linker_0, # of connection points: 2
#     Edge 228, Type (0, 0), BuildingBlock: CIFDUS_clean_linker_0, # of connection points: 2
#     Edge 229, Type (0, 0), BuildingBlock: CIFDUS_clean_linker_0, # of connection points: 2
#     Edge 230, Type (0, 0), BuildingBlock: CIFDUS_clean_linker_0, # of connection points: 2
#     Edge 231, Type (0, 0), BuildingBlock: CIFDUS_clean_linker_0, # of connection points: 2
#     Edge 232, Type (0, 0), BuildingBlock: CIFDUS_clean_linker_0, # of connection points: 2
#     Edge 233, Type (0, 0), BuildingBlock: CIFDUS_clean_linker_0, # of connection points: 2
#     Edge 234, Type (0, 0), BuildingBlock: CIFDUS_clean_linker_0, # of connection points: 2
#     Edge 235, Type (0, 0), BuildingBlock: CIFDUS_clean_linker_0, # of connection points: 2
#     Edge 236, Type (0, 0), BuildingBlock: CIFDUS_clean_linker_0, # of connection points: 2
#     Edge 237, Type (0, 0), BuildingBlock: CIFDUS_clean_linker_0, # of connection points: 2
#     Edge 238, Type (0, 0), BuildingBlock: CIFDUS_clean_linker_0, # of connection points: 2
#     Edge 239, Type (0, 0), BuildingBlock: CIFDUS_clean_linker_0, # of connection points: 2
#     Edge 240, Type (0, 0), BuildingBlock: CIFDUS_clean_linker_0, # of connection points: 2
#     Edge 241, Type (0, 0), BuildingBlock: CIFDUS_clean_linker_0, # of connection points: 2
#     Edge 242, Type (0, 0), BuildingBlock: CIFDUS_clean_linker_0, # of connection points: 2
#     Edge 243, Type (0, 0), BuildingBlock: CIFDUS_clean_linker_0, # of connection points: 2
#     Edge 244, Type (0, 0), BuildingBlock: CIFDUS_clean_linker_0, # of connection points: 2
#     Edge 245, Type (0, 0), BuildingBlock: CIFDUS_clean_linker_0, # of connection points: 2
#     Edge 246, Type (0, 0), BuildingBlock: CIFDUS_clean_linker_0, # of connection points: 2
#     Edge 247, Type (0, 0), BuildingBlock: CIFDUS_clean_linker_0, # of connection points: 2
#     Edge 248, Type (0, 0), BuildingBlock: CIFDUS_clean_linker_0, # of connection points: 2
#     Edge 249, Type (0, 0), BuildingBlock: CIFDUS_clean_linker_0, # of connection points: 2
#     Edge 250, Type (0, 0), BuildingBlock: CIFDUS_clean_linker_0, # of connection points: 2
#     Edge 251, Type (0, 0), BuildingBlock: CIFDUS_clean_linker_0, # of connection points: 2
#     Edge 252, Type (0, 0), BuildingBlock: CIFDUS_clean_linker_0, # of connection points: 2
#     Edge 253, Type (0, 0), BuildingBlock: CIFDUS_clean_linker_0, # of connection points: 2
#     Edge 254, Type (0, 0), BuildingBlock: CIFDUS_clean_linker_0, # of connection points: 2
#     Edge 255, Type (0, 0), BuildingBlock: CIFDUS_clean_linker_0, # of connection points: 2
#     Edge 256, Type (0, 0), BuildingBlock: CIFDUS_clean_linker_0, # of connection points: 2
#     Edge 257, Type (0, 0), BuildingBlock: CIFDUS_clean_linker_0, # of connection points: 2
#     Edge 258, Type (0, 0), BuildingBlock: CIFDUS_clean_linker_0, # of connection points: 2
#     Edge 259, Type (0, 0), BuildingBlock: CIFDUS_clean_linker_0, # of connection points: 2
#     Edge 260, Type (0, 0), BuildingBlock: CIFDUS_clean_linker_0, # of connection points: 2
#     Edge 261, Type (0, 0), BuildingBlock: CIFDUS_clean_linker_0, # of connection points: 2
#     Edge 262, Type (0, 0), BuildingBlock: CIFDUS_clean_linker_0, # of connection points: 2
#     Edge 263, Type (0, 0), BuildingBlock: CIFDUS_clean_linker_0, # of connection points: 2
#     Edge 264, Type (0, 0), BuildingBlock: CIFDUS_clean_linker_0, # of connection points: 2
#     Edge 265, Type (0, 0), BuildingBlock: CIFDUS_clean_linker_0, # of connection points: 2
#     Edge 266, Type (0, 0), BuildingBlock: CIFDUS_clean_linker_0, # of connection points: 2
#     Edge 267, Type (0, 0), BuildingBlock: CIFDUS_clean_linker_0, # of connection points: 2
#     Edge 268, Type (0, 0), BuildingBlock: CIFDUS_clean_linker_0, # of connection points: 2
#     Edge 269, Type (0, 0), BuildingBlock: CIFDUS_clean_linker_0, # of connection points: 2
#     Edge 270, Type (0, 0), BuildingBlock: CIFDUS_clean_linker_0, # of connection points: 2
#     Edge 271, Type (0, 0), BuildingBlock: CIFDUS_clean_linker_0, # of connection points: 2
#     Edge 272, Type (0, 0), BuildingBlock: CIFDUS_clean_linker_0, # of connection points: 2
#     Edge 273, Type (0, 0), BuildingBlock: CIFDUS_clean_linker_0, # of connection points: 2
#     Edge 274, Type (0, 0), BuildingBlock: CIFDUS_clean_linker_0, # of connection points: 2
#     Edge 275, Type (0, 0), BuildingBlock: CIFDUS_clean_linker_0, # of connection points: 2
#     Edge 276, Type (0, 0), BuildingBlock: CIFDUS_clean_linker_0, # of connection points: 2
#     Edge 277, Type (0, 0), BuildingBlock: CIFDUS_clean_linker_0, # of connection points: 2
#     Edge 278, Type (0, 0), BuildingBlock: CIFDUS_clean_linker_0, # of connection points: 2
#     Edge 279, Type (0, 0), BuildingBlock: CIFDUS_clean_linker_0, # of connection points: 2
#     Edge 280, Type (0, 0), BuildingBlock: CIFDUS_clean_linker_0, # of connection points: 2
#     Edge 281, Type (0, 0), BuildingBlock: CIFDUS_clean_linker_0, # of connection points: 2
#     Edge 282, Type (0, 0), BuildingBlock: CIFDUS_clean_linker_0, # of connection points: 2
#     Edge 283, Type (0, 0), BuildingBlock: CIFDUS_clean_linker_0, # of connection points: 2
#     Edge 284, Type (0, 0), BuildingBlock: CIFDUS_clean_linker_0, # of connection points: 2
#     Edge 285, Type (0, 0), BuildingBlock: CIFDUS_clean_linker_0, # of connection points: 2
#     Edge 286, Type (0, 0), BuildingBlock: CIFDUS_clean_linker_0, # of connection points: 2
#     Edge 287, Type (0, 0), BuildingBlock: CIFDUS_clean_linker_0, # of connection points: 2
# Relax obj value: 0.339
# Max RMSD: 0.171
# Mean RMSD: 0.167
data_MOF--net-wse--node1-GALJAG_clean_sbu_0--edge1-CIFDUS_clean_linker_0
_symmetry_space_group_name_H-M    P1
_symmetry_Int_Tables_number       1
_symmetry_cell_setting            triclinic
loop_
_symmetry_equiv_pos_as_xyz
'x, y, z'
_cell_length_a     88.235883
_cell_length_b     88.245262
_cell_length_c     88.250456
_cell_angle_alpha  90.004482
_cell_angle_beta   90.002055
_cell_angle_gamma 89.989126
loop_
_atom_site_label
_atom_site_type_symbol
_atom_site_fract_x
_atom_site_fract_y
_atom_site_fract_z
_atom_type_partial_charge
In0 In 0.07445 0.17458 0.41955 0.0
O1 O 0.05374 0.17932 0.40446 0.0
O2 O 0.05128 0.1635 0.42239 0.0
C3 C 0.09267 0.15297 0.40714 0.0
C4 C 0.08092 0.20417 0.4142 0.0
C5 C 0.07698 0.17174 0.44992 0.0
O6 O 0.07916 0.15051 0.41097 0.0
O7 O 0.09677 0.16654 0.40874 0.0
O8 O 0.08804 0.16973 0.44108 0.0
O9 O 0.06475 0.17533 0.44345 0.0
C10 C 0.04503 0.17051 0.41162 0.0
O11 O 0.08201 0.19813 0.42708 0.0
O12 O 0.07675 0.19525 0.40381 0.0
In13 In 0.8241 0.06841 0.41884 0.0
O14 O 0.83566 0.04546 0.4207 0.0
O15 O 0.81899 0.04802 0.40353 0.0
C16 C 0.84589 0.08673 0.40692 0.0
C17 C 0.79493 0.07601 0.41302 0.0
C18 C 0.82568 0.06792 0.44941 0.0
O19 O 0.84811 0.07302 0.4101 0.0
O20 O 0.83248 0.0911 0.40909 0.0
O21 O 0.82983 0.07927 0.44176 0.0
O22 O 0.82066 0.05703 0.44167 0.0
C23 C 0.82819 0.0393 0.41019 0.0
O24 O 0.80125 0.07838 0.4256 0.0
O25 O 0.80345 0.07018 0.4031 0.0
In26 In 0.92113 0.81966 0.41973 0.0
O27 O 0.94464 0.82423 0.40924 0.0
O28 O 0.94334 0.81382 0.43094 0.0
C29 C 0.9029 0.83971 0.40528 0.0
C30 C 0.91547 0.791 0.41054 0.0
C31 C 0.91597 0.82869 0.44848 0.0
O32 O 0.91704 0.84155 0.40628 0.0
O33 O 0.89822 0.82732 0.41059 0.0
O34 O 0.91118 0.81622 0.44337 0.0
O35 O 0.92316 0.83664 0.43904 0.0
C36 C 0.9517 0.81887 0.42052 0.0
O37 O 0.91006 0.79658 0.42252 0.0
O38 O 0.92336 0.80008 0.40276 0.0
In39 In 0.17193 0.92731 0.42475 0.0
O40 O 0.19369 0.91475 0.43037 0.0
O41 O 0.19419 0.92972 0.41151 0.0
C42 C 0.1699 0.92551 0.45524 0.0
C43 C 0.16523 0.95662 0.41829 0.0
C44 C 0.15331 0.90722 0.41059 0.0
O45 O 0.17858 0.93469 0.44856 0.0
O46 O 0.16226 0.91713 0.44654 0.0
O47 O 0.14874 0.91975 0.41566 0.0
O48 O 0.16736 0.90522 0.41186 0.0
C49 C 0.20141 0.92058 0.41985 0.0
O50 O 0.17397 0.94885 0.41004 0.0
O51 O 0.15957 0.94945 0.42925 0.0
In52 In 0.07073 0.82478 0.57551 0.0
O53 O 0.08516 0.80331 0.57429 0.0
O54 O 0.07045 0.80574 0.59316 0.0
C55 C 0.07168 0.82123 0.54506 0.0
C56 C 0.04106 0.82961 0.58173 0.0
C57 C 0.08744 0.84873 0.58558 0.0
O58 O 0.06368 0.81305 0.55361 0.0
O59 O 0.07934 0.83121 0.55186 0.0
O60 O 0.07388 0.84982 0.58134 0.0
O61 O 0.09255 0.8354 0.58533 0.0
C62 C 0.07987 0.79748 0.58622 0.0
O63 O 0.0498 0.82305 0.59097 0.0
O64 O 0.04734 0.83384 0.56962 0.0
In65 In 0.17614 0.07843 0.57145 0.0
O66 O 0.16228 0.0573 0.56593 0.0
O67 O 0.17558 0.05666 0.58591 0.0
C68 C 0.1587 0.10088 0.58347 0.0
C69 C 0.20535 0.08204 0.58018 0.0
C70 C 0.17551 0.07994 0.54084 0.0
O71 O 0.15423 0.08734 0.58254 0.0
O72 O 0.17213 0.10286 0.57912 0.0
O73 O 0.16686 0.08769 0.54915 0.0
O74 O 0.18453 0.07141 0.54795 0.0
C75 C 0.1667 0.04965 0.57715 0.0
O76 O 0.20021 0.08718 0.56788 0.0
O77 O 0.19569 0.07527 0.58828 0.0
In78 In 0.92515 0.17991 0.57344 0.0
O79 O 0.92357 0.20066 0.58918 0.0
O80 O 0.91209 0.20131 0.56804 0.0
C81 C 0.92795 0.17891 0.54291 0.0
C82 C 0.95402 0.17357 0.58144 0.0
C83 C 0.90511 0.15992 0.58563 0.0
O84 O 0.91945 0.16998 0.55013 0.0
O85 O 0.93505 0.18822 0.55108 0.0
O86 O 0.9192 0.1589 0.58766 0.0
O87 O 0.90113 0.17132 0.57806 0.0
C88 C 0.91546 0.20819 0.58007 0.0
O89 O 0.94618 0.16515 0.57295 0.0
O90 O 0.94716 0.18515 0.58634 0.0
In91 In 0.8217 0.93112 0.57742 0.0
O92 O 0.79909 0.91924 0.57331 0.0
O93 O 0.80182 0.93098 0.59412 0.0
C94 C 0.82078 0.93172 0.54673 0.0
C95 C 0.82731 0.95993 0.58626 0.0
C96 C 0.84356 0.91234 0.58837 0.0
O97 O 0.82839 0.92207 0.55403 0.0
O98 O 0.81372 0.94109 0.5549 0.0
O99 O 0.84578 0.92613 0.58553 0.0
O100 O 0.83011 0.90806 0.5863 0.0
C101 C 0.79315 0.92342 0.58562 0.0
O102 O 0.83349 0.95397 0.57483 0.0
O103 O 0.81849 0.95126 0.59345 0.0
In104 In 0.42754 0.07275 0.17364 0.0
O105 O 0.44902 0.06666 0.18667 0.0
O106 O 0.45161 0.07946 0.16651 0.0
C107 C 0.41541 0.07855 0.20115 0.0
C108 C 0.41665 0.09285 0.15295 0.0
C109 C 0.42301 0.04363 0.16543 0.0
O110 O 0.42609 0.08624 0.19558 0.0
O111 O 0.41046 0.0682 0.19261 0.0
O112 O 0.41322 0.05108 0.17277 0.0
O113 O 0.43471 0.05103 0.16186 0.0
C114 C 0.45798 0.07308 0.1776 0.0
O115 O 0.41739 0.07883 0.15043 0.0
O116 O 0.42089 0.09664 0.16602 0.0
In117 In 0.92227 0.41811 0.17951 0.0
O118 O 0.90848 0.41664 0.20132 0.0
O119 O 0.9265 0.40098 0.19846 0.0
C120 C 0.91953 0.44851 0.18193 0.0
C121 C 0.95231 0.41473 0.17455 0.0
C122 C 0.90374 0.40733 0.15743 0.0
O123 O 0.92289 0.44009 0.19297 0.0
O124 O 0.91746 0.4416 0.16958 0.0
O125 O 0.91779 0.40897 0.15562 0.0
O126 O 0.89913 0.41049 0.17055 0.0
C127 C 0.91619 0.40603 0.20699 0.0
O128 O 0.94385 0.4036 0.17763 0.0
O129 O 0.94557 0.42728 0.17373 0.0
In130 In 0.57408 0.92247 0.17749 0.0
O131 O 0.55016 0.92785 0.18541 0.0
O132 O 0.55258 0.91124 0.1682 0.0
C133 C 0.5804 0.91628 0.20686 0.0
C134 C 0.58861 0.90428 0.15727 0.0
C135 C 0.57828 0.95211 0.17075 0.0
O136 O 0.57158 0.9083 0.19894 0.0
O137 O 0.58657 0.9271 0.19981 0.0
O138 O 0.58826 0.94448 0.17766 0.0
O139 O 0.56669 0.94467 0.167 0.0
C140 C 0.5437 0.9187 0.17656 0.0
O141 O 0.58249 0.91663 0.15364 0.0
O142 O 0.58821 0.90148 0.17126 0.0
In143 In 0.07794 0.58041 0.1782 0.0
O144 O 0.08964 0.57758 0.20114 0.0
O145 O 0.07414 0.5958 0.1987 0.0
C146 C 0.08093 0.54992 0.17749 0.0
C147 C 0.04843 0.58591 0.17151 0.0
C148 C 0.09798 0.59319 0.15862 0.0
O149 O 0.07303 0.55671 0.18728 0.0
O150 O 0.08737 0.55851 0.16804 0.0
O151 O 0.08488 0.58909 0.1547 0.0
O152 O 0.10069 0.59156 0.17254 0.0
C153 C 0.08296 0.58859 0.20734 0.0
O154 O 0.05696 0.59586 0.17724 0.0
O155 O 0.05492 0.5735 0.16873 0.0
In156 In 0.4243 0.92622 0.82425 0.0
O157 O 0.41707 0.9221 0.84881 0.0
O158 O 0.41392 0.9041 0.83335 0.0
C159 C 0.41706 0.95565 0.82874 0.0
C160 C 0.45486 0.92567 0.8217 0.0
C161 C 0.41565 0.91704 0.79636 0.0
O162 O 0.40764 0.94623 0.82348 0.0
O163 O 0.42985 0.95012 0.83192 0.0
O164 O 0.40984 0.92839 0.80289 0.0
O165 O 0.42517 0.90986 0.80427 0.0
C166 C 0.41282 0.90864 0.84683 0.0
O167 O 0.44623 0.93109 0.81172 0.0
O168 O 0.44813 0.92052 0.83321 0.0
In169 In 0.07245 0.42037 0.8287 0.0
O170 O 0.08295 0.42719 0.80606 0.0
O171 O 0.07492 0.4046 0.8082 0.0
C172 C 0.07021 0.45089 0.82967 0.0
C173 C 0.04379 0.41031 0.83307 0.0
C174 C 0.09118 0.4097 0.85079 0.0
O175 O 0.08181 0.44396 0.83437 0.0
O176 O 0.06004 0.44247 0.82423 0.0
O177 O 0.07763 0.41343 0.8531 0.0
O178 O 0.0952 0.41066 0.83713 0.0
C179 C 0.08086 0.41453 0.79976 0.0
O180 O 0.05266 0.4042 0.82364 0.0
O181 O 0.0496 0.42098 0.84058 0.0
In182 In 0.5756 0.07879 0.82317 0.0
O183 O 0.58626 0.08181 0.84665 0.0
O184 O 0.58701 0.10057 0.83184 0.0
C185 C 0.57875 0.04888 0.82909 0.0
C186 C 0.54518 0.08256 0.82366 0.0
C187 C 0.58371 0.08634 0.79451 0.0
O188 O 0.58898 0.05632 0.82234 0.0
O189 O 0.56729 0.05655 0.83281 0.0
O190 O 0.57428 0.0938 0.80221 0.0
O191 O 0.58959 0.07529 0.80145 0.0
C192 C 0.58987 0.09547 0.84485 0.0
O193 O 0.55189 0.07454 0.81391 0.0
O194 O 0.55383 0.0888 0.83318 0.0
In195 In 0.92352 0.57404 0.8208 0.0
O196 O 0.94334 0.58978 0.81464 0.0
O197 O 0.9455 0.57588 0.83413 0.0
C198 C 0.90305 0.58577 0.84065 0.0
C199 C 0.91406 0.57794 0.792 0.0
C200 C 0.92725 0.54364 0.82278 0.0
O201 O 0.91667 0.58335 0.84408 0.0
O202 O 0.89987 0.58287 0.82706 0.0
O203 O 0.91698 0.55059 0.8299 0.0
O204 O 0.93558 0.55201 0.81475 0.0
C205 C 0.95162 0.58546 0.82548 0.0
O206 O 0.91177 0.56595 0.79943 0.0
O207 O 0.9209 0.58827 0.79922 0.0
In208 In 0.17252 0.42699 0.07321 0.0
O209 O 0.16614 0.41334 0.05175 0.0
O210 O 0.17932 0.43332 0.04932 0.0
C211 C 0.15274 0.41475 0.09343 0.0
C212 C 0.20089 0.41797 0.07991 0.0
C213 C 0.16764 0.45708 0.07647 0.0
O214 O 0.14857 0.41999 0.08082 0.0
O215 O 0.16685 0.41494 0.09542 0.0
O216 O 0.1788 0.45031 0.08225 0.0
O217 O 0.15873 0.44864 0.06916 0.0
C218 C 0.17297 0.42228 0.04286 0.0
O219 O 0.1953 0.4303 0.08451 0.0
O220 O 0.19199 0.40985 0.07214 0.0
In221 In 0.17843 0.57842 0.92398 0.0
O222 O 0.20211 0.57304 0.91548 0.0
O223 O 0.19823 0.5953 0.92384 0.0
C224 C 0.17115 0.54878 0.92145 0.0
C225 C 0.17841 0.58362 0.95417 0.0
C226 C 0.15867 0.59068 0.90377 0.0
O227 O 0.18121 0.55498 0.91343 0.0
O228 O 0.16459 0.55756 0.9306 0.0
O229 O 0.15512 0.5879 0.91732 0.0
O230 O 0.17236 0.58812 0.9007 0.0
C231 C 0.20759 0.58591 0.9184 0.0
O232 O 0.17249 0.59288 0.94495 0.0
O233 O 0.1843 0.57211 0.94809 0.0
In234 In 0.43039 0.17296 0.92725 0.0
O235 O 0.42041 0.14938 0.92301 0.0
O236 O 0.4191 0.16528 0.90514 0.0
C237 C 0.42853 0.16623 0.95709 0.0
C238 C 0.46065 0.1735 0.92251 0.0
C239 C 0.42021 0.2015 0.92228 0.0
O240 O 0.44023 0.16396 0.94923 0.0
O241 O 0.41741 0.17159 0.94982 0.0
O242 O 0.43036 0.19539 0.91432 0.0
O243 O 0.41476 0.19304 0.93244 0.0
C244 C 0.41657 0.15193 0.90951 0.0
O245 O 0.45385 0.1831 0.93064 0.0
O246 O 0.45214 0.16367 0.91654 0.0
In247 In 0.82244 0.41937 0.92873 0.0
O248 O 0.80032 0.42066 0.91552 0.0
O249 O 0.80213 0.40351 0.93226 0.0
C250 C 0.8209 0.44997 0.92873 0.0
C251 C 0.8309 0.41513 0.9578 0.0
C252 C 0.84265 0.40663 0.90927 0.0
O253 O 0.83087 0.44281 0.92137 0.0
O254 O 0.81177 0.44171 0.93594 0.0
O255 O 0.84413 0.40603 0.92343 0.0
O256 O 0.83069 0.41307 0.90493 0.0
C257 C 0.7939 0.41 0.92252 0.0
O258 O 0.83606 0.42564 0.9496 0.0
O259 O 0.82168 0.40636 0.9512 0.0
In260 In 0.57202 0.82765 0.91997 0.0
O261 O 0.54848 0.82309 0.91051 0.0
O262 O 0.55163 0.84345 0.9229 0.0
C263 C 0.57895 0.79873 0.91251 0.0
C264 C 0.58658 0.8483 0.9023 0.0
C265 C 0.57361 0.82656 0.9506 0.0
O266 O 0.56757 0.80568 0.90744 0.0
O267 O 0.58733 0.80653 0.92114 0.0
O268 O 0.5851 0.82976 0.94264 0.0
O269 O 0.56183 0.82368 0.94308 0.0
C270 C 0.54257 0.83496 0.91581 0.0
O271 O 0.58391 0.85053 0.91613 0.0
O272 O 0.5826 0.83544 0.89762 0.0
In273 In 0.8256 0.5742 0.08028 0.0
O274 O 0.8028 0.57052 0.09202 0.0
O275 O 0.80538 0.5905 0.07897 0.0
C276 C 0.8265 0.54361 0.0815 0.0
C277 C 0.83164 0.58038 0.05086 0.0
C278 C 0.84661 0.58652 0.09913 0.0
O279 O 0.81756 0.55076 0.07294 0.0
O280 O 0.83496 0.55188 0.08953 0.0
O281 O 0.84877 0.58487 0.08513 0.0
O282 O 0.83362 0.58257 0.10353 0.0
C283 C 0.79675 0.58244 0.08701 0.0
O284 O 0.82461 0.58955 0.05931 0.0
O285 O 0.83585 0.56837 0.05735 0.0
In286 In 0.42762 0.82375 0.07439 0.0
O287 O 0.4165 0.82763 0.09752 0.0
O288 O 0.41632 0.84591 0.08207 0.0
C289 C 0.42324 0.83187 0.04509 0.0
C290 C 0.45799 0.82561 0.07789 0.0
C291 C 0.42082 0.79413 0.07813 0.0
O292 O 0.435 0.83508 0.05252 0.0
O293 O 0.41327 0.82482 0.05256 0.0
O294 O 0.43077 0.80086 0.08586 0.0
O295 O 0.4139 0.80245 0.06876 0.0
C296 C 0.4131 0.84128 0.09518 0.0
O297 O 0.44904 0.83521 0.08356 0.0
O298 O 0.45162 0.81515 0.07053 0.0
In299 In 0.57951 0.17204 0.07488 0.0
O300 O 0.58979 0.14937 0.08268 0.0
O301 O 0.59054 0.16776 0.09797 0.0
C302 C 0.58319 0.16385 0.04551 0.0
C303 C 0.54907 0.17204 0.07862 0.0
C304 C 0.58816 0.20125 0.07813 0.0
O305 O 0.59371 0.16997 0.05306 0.0
O306 O 0.57122 0.16145 0.05292 0.0
O307 O 0.5784 0.19505 0.08653 0.0
O308 O 0.594 0.19255 0.06837 0.0
C309 C 0.59331 0.15396 0.09573 0.0
O310 O 0.55608 0.18244 0.07179 0.0
O311 O 0.5574 0.16156 0.08363 0.0
In312 In 0.92314 0.82881 0.56694 0.0
O313 O 0.91912 0.80569 0.57833 0.0
O314 O 0.93319 0.8068 0.55876 0.0
C315 C 0.90274 0.8458 0.58251 0.0
C316 C 0.95182 0.83702 0.57373 0.0
C317 C 0.91333 0.83134 0.538 0.0
O318 O 0.90087 0.83187 0.58003 0.0
O319 O 0.9152 0.85093 0.57783 0.0
O320 O 0.92387 0.83938 0.54331 0.0
O321 O 0.90743 0.82239 0.54741 0.0
C322 C 0.92715 0.79861 0.56878 0.0
O323 O 0.94492 0.84139 0.562 0.0
O324 O 0.94398 0.82892 0.58261 0.0
In325 In 0.17228 0.93107 0.57586 0.0
O326 O 0.16076 0.95406 0.57342 0.0
O327 O 0.17515 0.9511 0.59239 0.0
C328 C 0.17321 0.9323 0.54528 0.0
C329 C 0.20093 0.92145 0.5807 0.0
C330 C 0.15204 0.91108 0.58784 0.0
O331 O 0.16473 0.92318 0.55232 0.0
O332 O 0.18111 0.94074 0.55365 0.0
O333 O 0.16613 0.90991 0.58966 0.0
O334 O 0.14807 0.92276 0.58068 0.0
C335 C 0.16685 0.96001 0.58487 0.0
O336 O 0.19255 0.91612 0.57042 0.0
O337 O 0.19474 0.93146 0.58887 0.0
In338 In 0.0711 0.17939 0.56952 0.0
O339 O 0.07936 0.20201 0.58002 0.0
O340 O 0.0718 0.20174 0.55718 0.0
C341 C 0.09097 0.15956 0.58233 0.0
C342 C 0.04347 0.17737 0.5827 0.0
C343 C 0.06964 0.17214 0.53977 0.0
O344 O 0.09494 0.17244 0.57758 0.0
O345 O 0.07698 0.15703 0.58125 0.0
O346 O 0.0581 0.17449 0.54783 0.0
O347 O 0.08207 0.1731 0.54678 0.0
C348 C 0.07694 0.20948 0.56801 0.0
O349 O 0.0485 0.16778 0.5734 0.0
O350 O 0.05272 0.18778 0.58605 0.0
In351 In 0.82496 0.07489 0.56954 0.0
O352 O 0.80257 0.081 0.58162 0.0
O353 O 0.80186 0.06623 0.56264 0.0
C354 C 0.84051 0.09834 0.58174 0.0
C355 C 0.83537 0.04861 0.58115 0.0
C356 C 0.82858 0.07731 0.53913 0.0
O357 O 0.82708 0.09954 0.577 0.0
O358 O 0.84593 0.08514 0.5809 0.0
O359 O 0.8284 0.06486 0.54605 0.0
O360 O 0.82719 0.08875 0.54755 0.0
C361 C 0.79457 0.07303 0.57283 0.0
O362 O 0.84188 0.05556 0.57049 0.0
O363 O 0.82415 0.05551 0.58679 0.0
In364 In 0.92596 0.17198 0.42242 0.0
O365 O 0.94746 0.15831 0.42674 0.0
O366 O 0.9481 0.17424 0.40879 0.0
C367 C 0.92423 0.17061 0.45298 0.0
C368 C 0.92045 0.20124 0.41529 0.0
C369 C 0.90481 0.15396 0.40905 0.0
O370 O 0.93306 0.17949 0.44609 0.0
O371 O 0.91622 0.16239 0.44446 0.0
O372 O 0.9023 0.16746 0.41288 0.0
O373 O 0.91824 0.14967 0.41132 0.0
C374 C 0.95525 0.16459 0.41654 0.0
O375 O 0.92728 0.19236 0.40636 0.0
O376 O 0.91626 0.19527 0.42758 0.0
In377 In 0.82079 0.9216 0.42627 0.0
O378 O 0.80018 0.92423 0.41075 0.0
O379 O 0.79704 0.91304 0.43182 0.0
C380 C 0.83737 0.89956 0.4125 0.0
C381 C 0.8298 0.94999 0.41887 0.0
C382 C 0.82303 0.92118 0.45687 0.0
O383 O 0.82418 0.89746 0.41749 0.0
O384 O 0.84212 0.91293 0.41403 0.0
O385 O 0.81482 0.93051 0.44981 0.0
O386 O 0.83009 0.91197 0.44851 0.0
C387 C 0.79109 0.91777 0.41972 0.0
O388 O 0.81928 0.94323 0.41193 0.0
O389 O 0.83604 0.94226 0.42914 0.0
In390 In 0.07227 0.82252 0.42434 0.0
O391 O 0.07191 0.80259 0.4077 0.0
O392 O 0.08715 0.8014 0.4262 0.0
C393 C 0.0885 0.84578 0.41263 0.0
C394 C 0.04207 0.8244 0.41907 0.0
C395 C 0.07551 0.82465 0.45479 0.0
O396 O 0.09365 0.83245 0.41342 0.0
O397 O 0.07505 0.84721 0.41726 0.0
O398 O 0.08012 0.8348 0.44585 0.0
O399 O 0.06935 0.81347 0.44838 0.0
C400 C 0.08162 0.79486 0.41478 0.0
O401 O 0.04771 0.82177 0.43191 0.0
O402 O 0.05169 0.8264 0.40867 0.0
In403 In 0.18124 0.07472 0.42013 0.0
O404 O 0.16886 0.05227 0.42353 0.0
O405 O 0.18293 0.05422 0.40415 0.0
C406 C 0.18211 0.0739 0.4508 0.0
C407 C 0.20999 0.08161 0.41212 0.0
C408 C 0.16161 0.09564 0.40869 0.0
O409 O 0.19051 0.0658 0.44256 0.0
O410 O 0.17321 0.08246 0.44359 0.0
O411 O 0.17541 0.09832 0.41102 0.0
O412 O 0.15773 0.08223 0.41163 0.0
C413 C 0.17435 0.04588 0.41199 0.0
O414 O 0.20147 0.07351 0.40395 0.0
O415 O 0.20389 0.08648 0.42409 0.0
In416 In 0.57527 0.93048 0.81965 0.0
O417 O 0.58092 0.90563 0.82355 0.0
O418 O 0.58905 0.92139 0.83977 0.0
C419 C 0.57998 0.92879 0.78947 0.0
C420 C 0.54515 0.92639 0.82422 0.0
C421 C 0.58413 0.95909 0.8264 0.0
O422 O 0.58696 0.92028 0.79865 0.0
O423 O 0.57114 0.93819 0.7956 0.0
O424 O 0.5716 0.95355 0.83039 0.0
O425 O 0.59271 0.94994 0.81951 0.0
C426 C 0.58781 0.90768 0.83588 0.0
O427 O 0.5544 0.92758 0.83502 0.0
O428 O 0.55108 0.9271 0.81128 0.0
In429 In 0.06827 0.57085 0.83072 0.0
O430 O 0.07592 0.58182 0.80811 0.0
O431 O 0.06401 0.5609 0.80764 0.0
C432 C 0.08766 0.5851 0.84983 0.0
C433 C 0.04016 0.58152 0.83657 0.0
C434 C 0.07266 0.54092 0.83571 0.0
O435 O 0.09107 0.58223 0.83623 0.0
O436 O 0.07438 0.58137 0.85348 0.0
O437 O 0.05975 0.5469 0.83467 0.0
O438 O 0.08355 0.55011 0.8347 0.0
C439 C 0.07044 0.5712 0.80017 0.0
O440 O 0.04655 0.5714 0.84437 0.0
O441 O 0.04823 0.58689 0.82603 0.0
In442 In 0.42479 0.07442 0.82139 0.0
O443 O 0.41514 0.09782 0.82709 0.0
O444 O 0.41566 0.08164 0.8447 0.0
C445 C 0.41384 0.07829 0.79308 0.0
C446 C 0.45521 0.07669 0.81823 0.0
C447 C 0.4214 0.04544 0.83068 0.0
O448 O 0.42409 0.08652 0.79867 0.0
O449 O 0.40864 0.06836 0.80199 0.0
O450 O 0.43301 0.05328 0.83344 0.0
O451 O 0.41106 0.05238 0.8236 0.0
C452 C 0.41267 0.09504 0.84084 0.0
O453 O 0.44806 0.08347 0.82859 0.0
O454 O 0.44701 0.06889 0.80952 0.0
In455 In 0.92586 0.42315 0.82805 0.0
O456 O 0.92775 0.40785 0.80716 0.0
O457 O 0.91812 0.42976 0.80441 0.0
C458 C 0.90334 0.40959 0.84404 0.0
C459 C 0.95436 0.41574 0.83679 0.0
C460 C 0.92469 0.45365 0.83076 0.0
O461 O 0.90166 0.41445 0.83075 0.0
O462 O 0.91662 0.41094 0.84913 0.0
O463 O 0.9342 0.44695 0.82245 0.0
O464 O 0.91582 0.44496 0.83784 0.0
C465 C 0.92205 0.41749 0.79824 0.0
O466 O 0.94657 0.4258 0.84328 0.0
O467 O 0.94758 0.40895 0.82619 0.0
In468 In 0.57883 0.07196 0.17807 0.0
O469 O 0.55755 0.08061 0.16608 0.0
O470 O 0.55459 0.06751 0.18602 0.0
C471 C 0.58478 0.042 0.17503 0.0
C472 C 0.59298 0.0883 0.15609 0.0
C473 C 0.58489 0.08167 0.20661 0.0
O474 O 0.57242 0.04802 0.17116 0.0
O475 O 0.59443 0.05114 0.18036 0.0
O476 O 0.57542 0.08805 0.19803 0.0
O477 O 0.59174 0.07061 0.20064 0.0
C478 C 0.5484 0.07478 0.17538 0.0
O479 O 0.591 0.09326 0.16932 0.0
O480 O 0.58858 0.07487 0.1542 0.0
In481 In 0.93081 0.56822 0.17901 0.0
O482 O 0.95246 0.56227 0.16646 0.0
O483 O 0.95164 0.5839 0.17688 0.0
C484 C 0.9246 0.53835 0.17579 0.0
C485 C 0.93139 0.57421 0.20901 0.0
C486 C 0.90758 0.58156 0.16403 0.0
O487 O 0.92646 0.54702 0.1646 0.0
O488 O 0.92574 0.54476 0.18848 0.0
O489 O 0.90587 0.57399 0.17601 0.0
O490 O 0.92118 0.58299 0.15983 0.0
C491 C 0.95934 0.57442 0.16942 0.0
O492 O 0.92327 0.58177 0.19995 0.0
O493 O 0.93946 0.56418 0.20283 0.0
In494 In 0.42309 0.9252 0.17742 0.0
O495 O 0.41213 0.90322 0.16855 0.0
O496 O 0.41617 0.92085 0.15287 0.0
C497 C 0.41516 0.91732 0.20595 0.0
C498 C 0.45365 0.92491 0.17958 0.0
C499 C 0.41599 0.95431 0.17136 0.0
O500 O 0.42495 0.91019 0.19837 0.0
O501 O 0.40869 0.92791 0.19881 0.0
O502 O 0.42837 0.94827 0.16754 0.0
O503 O 0.40684 0.94552 0.17804 0.0
C504 C 0.41151 0.90755 0.15496 0.0
O505 O 0.44532 0.93347 0.18739 0.0
O506 O 0.44659 0.91641 0.17051 0.0
In507 In 0.07152 0.42975 0.17888 0.0
O508 O 0.08567 0.42832 0.20052 0.0
O509 O 0.06786 0.41242 0.19784 0.0
C510 C 0.08799 0.41878 0.15524 0.0
C511 C 0.04163 0.42683 0.17292 0.0
C512 C 0.07493 0.45995 0.18282 0.0
O513 O 0.09303 0.41908 0.1686 0.0
O514 O 0.0746 0.42351 0.15396 0.0
O515 O 0.08156 0.45281 0.17234 0.0
O516 O 0.06682 0.45183 0.19132 0.0
C517 C 0.07821 0.41758 0.20626 0.0
O518 O 0.0488 0.43909 0.17143 0.0
O519 O 0.04959 0.41574 0.17725 0.0
In520 In 0.83027 0.57019 0.93186 0.0
O521 O 0.80688 0.56878 0.92088 0.0
O522 O 0.81067 0.58642 0.93676 0.0
C523 C 0.84987 0.58373 0.91239 0.0
C524 C 0.83788 0.57339 0.9614 0.0
C525 C 0.83005 0.53987 0.92764 0.0
O526 O 0.83636 0.58071 0.90892 0.0
O527 O 0.85331 0.58054 0.92586 0.0
O528 O 0.82062 0.54661 0.93601 0.0
O529 O 0.83962 0.54842 0.92135 0.0
C530 C 0.80142 0.57985 0.92807 0.0
O531 O 0.84087 0.56167 0.95379 0.0
O532 O 0.83143 0.58379 0.95399 0.0
In533 In 0.81931 0.42311 0.07536 0.0
O534 O 0.79868 0.40758 0.07388 0.0
O535 O 0.79618 0.42856 0.08542 0.0
C536 C 0.83744 0.41165 0.09741 0.0
C537 C 0.82653 0.41318 0.04727 0.0
C538 C 0.81994 0.45372 0.07382 0.0
O539 O 0.82363 0.41459 0.09941 0.0
O540 O 0.84209 0.4141 0.08414 0.0
O541 O 0.8116 0.44567 0.06546 0.0
O542 O 0.82812 0.44632 0.08293 0.0
C543 C 0.78998 0.41652 0.08088 0.0
O544 O 0.83175 0.42528 0.0528 0.0
O545 O 0.81815 0.40574 0.05615 0.0
In546 In 0.57845 0.82393 0.07095 0.0
O547 O 0.55645 0.81097 0.06785 0.0
O548 O 0.55506 0.83247 0.07856 0.0
C549 C 0.58255 0.8278 0.04074 0.0
C550 C 0.58867 0.8472 0.08836 0.0
C551 C 0.58958 0.7967 0.0795 0.0
O552 O 0.56978 0.8274 0.04708 0.0
O553 O 0.59365 0.82668 0.04972 0.0
O554 O 0.57862 0.80307 0.08608 0.0
O555 O 0.5955 0.80442 0.069 0.0
C556 C 0.54811 0.82089 0.07384 0.0
O557 O 0.5892 0.83358 0.09257 0.0
O558 O 0.58351 0.84905 0.07517 0.0
In559 In 0.1795 0.57656 0.07509 0.0
O560 O 0.18687 0.56701 0.05244 0.0
O561 O 0.17545 0.58819 0.05198 0.0
C562 C 0.17604 0.54668 0.08107 0.0
C563 C 0.20699 0.58758 0.08288 0.0
C564 C 0.15665 0.58942 0.09131 0.0
O565 O 0.16683 0.55396 0.07291 0.0
O566 O 0.18673 0.55451 0.08636 0.0
O567 O 0.17011 0.58887 0.09597 0.0
O568 O 0.15481 0.58413 0.07819 0.0
C569 C 0.18175 0.57771 0.04449 0.0
O570 O 0.20135 0.57576 0.08858 0.0
O571 O 0.19848 0.59434 0.07354 0.0
In572 In 0.42872 0.18172 0.07537 0.0
O573 O 0.45185 0.17186 0.08183 0.0
O574 O 0.45139 0.19322 0.0708 0.0
C575 C 0.42282 0.17311 0.04657 0.0
C576 C 0.41762 0.16277 0.09694 0.0
C577 C 0.41814 0.21031 0.07872 0.0
O578 O 0.43584 0.17247 0.0524 0.0
O579 O 0.41255 0.17773 0.05541 0.0
O580 O 0.42862 0.20496 0.08683 0.0
O581 O 0.41261 0.20107 0.06932 0.0
C582 C 0.45934 0.18286 0.0766 0.0
O583 O 0.42088 0.17641 0.09953 0.0
O584 O 0.41941 0.1588 0.08335 0.0
In585 In 0.18198 0.43003 0.92243 0.0
O586 O 0.18957 0.43796 0.9456 0.0
O587 O 0.17633 0.41789 0.94498 0.0
C588 C 0.17523 0.45922 0.91599 0.0
C589 C 0.21109 0.42463 0.91454 0.0
C590 C 0.16117 0.4144 0.90599 0.0
O591 O 0.17051 0.45269 0.92779 0.0
O592 O 0.18294 0.45092 0.90732 0.0
O593 O 0.17523 0.41317 0.90381 0.0
O594 O 0.15767 0.42284 0.91694 0.0
C595 C 0.18325 0.42752 0.95302 0.0
O596 O 0.20374 0.41557 0.92287 0.0
O597 O 0.20365 0.43596 0.91009 0.0
In598 In 0.58124 0.17928 0.9276 0.0
O599 O 0.55791 0.17099 0.91965 0.0
O600 O 0.55874 0.18904 0.93552 0.0
C601 C 0.58895 0.17091 0.95612 0.0
C602 C 0.59277 0.16069 0.90588 0.0
C603 C 0.58882 0.20849 0.92247 0.0
O604 O 0.57638 0.16773 0.95012 0.0
O605 O 0.59801 0.1779 0.94751 0.0
O606 O 0.57809 0.20193 0.9157 0.0
O607 O 0.59613 0.20016 0.93154 0.0
C608 C 0.55061 0.18039 0.92758 0.0
O609 O 0.59146 0.17478 0.90418 0.0
O610 O 0.58885 0.15599 0.91877 0.0
In611 In 0.42404 0.82317 0.9262 0.0
O612 O 0.44721 0.83458 0.92832 0.0
O613 O 0.44436 0.81817 0.91101 0.0
C614 C 0.41655 0.82872 0.95543 0.0
C615 C 0.41011 0.84181 0.90607 0.0
C616 C 0.42147 0.7927 0.9264 0.0
O617 O 0.42913 0.83226 0.94968 0.0
O618 O 0.40732 0.82269 0.94628 0.0
O619 O 0.41127 0.8011 0.92082 0.0
O620 O 0.43258 0.79972 0.932 0.0
C621 C 0.45314 0.82736 0.91752 0.0
O622 O 0.41191 0.82785 0.90373 0.0
O623 O 0.4145 0.84618 0.91893 0.0
In624 In 0.58151 0.68159 0.92989 0.0
O625 O 0.59552 0.70312 0.93124 0.0
O626 O 0.57849 0.70229 0.9143 0.0
C627 C 0.58134 0.68348 0.96044 0.0
C628 C 0.55253 0.67256 0.92597 0.0
C629 C 0.6011 0.66149 0.91713 0.0
O630 O 0.57426 0.6926 0.95203 0.0
O631 O 0.58851 0.67326 0.95346 0.0
O632 O 0.58697 0.66059 0.91541 0.0
O633 O 0.60533 0.67279 0.9247 0.0
C634 C 0.5887 0.70999 0.92076 0.0
O635 O 0.55859 0.68241 0.91749 0.0
O636 O 0.56119 0.66718 0.93601 0.0
In637 In 0.3259 0.57786 0.92781 0.0
O638 O 0.30291 0.58966 0.92764 0.0
O639 O 0.30627 0.57178 0.91192 0.0
C640 C 0.32769 0.58433 0.95767 0.0
C641 C 0.33132 0.54757 0.9274 0.0
C642 C 0.34556 0.59729 0.91421 0.0
O643 O 0.31546 0.58066 0.95123 0.0
O644 O 0.33906 0.58483 0.94902 0.0
O645 O 0.34905 0.58384 0.91752 0.0
O646 O 0.33195 0.60061 0.91693 0.0
C647 C 0.29728 0.58149 0.91737 0.0
O648 O 0.33018 0.55517 0.91531 0.0
O649 O 0.32991 0.55526 0.93933 0.0
In650 In 0.42785 0.32027 0.9198 0.0
O651 O 0.41817 0.29716 0.92603 0.0
O652 O 0.42768 0.29959 0.90406 0.0
C653 C 0.42929 0.3209 0.95041 0.0
C654 C 0.45622 0.32697 0.91021 0.0
C655 C 0.40696 0.34008 0.90875 0.0
O656 O 0.41883 0.32734 0.94308 0.0
O657 O 0.43893 0.31416 0.94231 0.0
O658 O 0.42036 0.34385 0.91187 0.0
O659 O 0.40426 0.32619 0.91054 0.0
C660 C 0.42154 0.2909 0.91364 0.0
O661 O 0.45006 0.33332 0.92142 0.0
O662 O 0.44786 0.31758 0.90339 0.0
In663 In 0.67737 0.42993 0.9258 0.0
O664 O 0.6809 0.45053 0.9103 0.0
O665 O 0.66763 0.45342 0.93014 0.0
C666 C 0.65477 0.41227 0.91454 0.0
C667 C 0.70524 0.42041 0.91726 0.0
C668 C 0.67839 0.42975 0.95642 0.0
O669 O 0.65303 0.42608 0.91763 0.0
O670 O 0.66806 0.40747 0.91654 0.0
O671 O 0.68707 0.43777 0.9484 0.0
O672 O 0.66917 0.42171 0.949 0.0
C673 C 0.6734 0.45949 0.91857 0.0
O674 O 0.69908 0.41644 0.92952 0.0
O675 O 0.69713 0.42883 0.90899 0.0
In676 In 0.5738 0.31952 0.0763 0.0
O677 O 0.58403 0.29657 0.07028 0.0
O678 O 0.57571 0.29941 0.09265 0.0
C679 C 0.57666 0.32238 0.04596 0.0
C680 C 0.54406 0.3236 0.08245 0.0
C681 C 0.59066 0.34106 0.09029 0.0
O682 O 0.56625 0.31471 0.05208 0.0
O683 O 0.58574 0.32851 0.05515 0.0
O684 O 0.57679 0.34269 0.08742 0.0
O685 O 0.59594 0.32829 0.0867 0.0
C686 C 0.5817 0.29065 0.08306 0.0
O687 O 0.55097 0.33079 0.07223 0.0
O688 O 0.5522 0.31443 0.08981 0.0
In689 In 0.67879 0.57144 0.08373 0.0
O690 O 0.70121 0.58422 0.08192 0.0
O691 O 0.69884 0.56852 0.09997 0.0
C692 C 0.68128 0.57146 0.05317 0.0
C693 C 0.6712 0.54263 0.09066 0.0
C694 C 0.65722 0.59049 0.09482 0.0
O695 O 0.67255 0.5804 0.06014 0.0
O696 O 0.68867 0.56262 0.06159 0.0
O697 O 0.65458 0.577 0.09108 0.0
O698 O 0.67089 0.59435 0.09345 0.0
C699 C 0.70735 0.57771 0.09306 0.0
O700 O 0.66747 0.54898 0.07841 0.0
O701 O 0.67857 0.55094 0.0997 0.0
In702 In 0.431 0.67452 0.08188 0.0
O703 O 0.45104 0.67219 0.09861 0.0
O704 O 0.45567 0.67318 0.07501 0.0
C705 C 0.40928 0.65682 0.09481 0.0
C706 C 0.42732 0.70461 0.08628 0.0
C707 C 0.42838 0.667 0.05234 0.0
O708 O 0.42225 0.6519 0.09149 0.0
O709 O 0.40759 0.67076 0.09241 0.0
O710 O 0.42199 0.67848 0.05798 0.0
O711 O 0.43591 0.65918 0.06164 0.0
C712 C 0.46092 0.67206 0.08823 0.0
O713 O 0.42356 0.69797 0.07421 0.0
O714 O 0.43289 0.69606 0.09631 0.0
In715 In 0.31854 0.42753 0.07707 0.0
O716 O 0.29614 0.41484 0.07567 0.0
O717 O 0.29844 0.4314 0.09298 0.0
C718 C 0.31811 0.42583 0.0465 0.0
C719 C 0.32468 0.45706 0.08279 0.0
C720 C 0.33836 0.40682 0.08825 0.0
O721 O 0.30714 0.43078 0.0542 0.0
O722 O 0.32941 0.42165 0.05422 0.0
O723 O 0.34215 0.42024 0.0852 0.0
O724 O 0.32451 0.40407 0.08627 0.0
C725 C 0.28999 0.42185 0.08649 0.0
O726 O 0.32147 0.44784 0.09326 0.0
O727 O 0.32517 0.45126 0.06976 0.0
In728 In 0.92713 0.57556 0.67518 0.0
O729 O 0.91908 0.57988 0.65085 0.0
O730 O 0.91825 0.59824 0.66618 0.0
C731 C 0.92008 0.5461 0.67079 0.0
C732 C 0.95771 0.57618 0.67763 0.0
C733 C 0.9176 0.58445 0.70288 0.0
O734 O 0.91044 0.55559 0.67549 0.0
O735 O 0.93301 0.55156 0.66809 0.0
O736 O 0.91218 0.57301 0.69619 0.0
O737 O 0.92725 0.59176 0.69527 0.0
C738 C 0.91617 0.5937 0.65282 0.0
O739 O 0.94908 0.57186 0.68814 0.0
O740 O 0.95097 0.58013 0.66566 0.0
In741 In 0.41855 0.92576 0.677 0.0
O742 O 0.40912 0.93448 0.69919 0.0
O743 O 0.41862 0.91233 0.69938 0.0
C744 C 0.41768 0.95617 0.67309 0.0
C745 C 0.44713 0.91724 0.66968 0.0
C746 C 0.39833 0.91092 0.65905 0.0
O747 O 0.40669 0.94768 0.6697 0.0
O748 O 0.42904 0.94934 0.67842 0.0
O749 O 0.41093 0.91566 0.6544 0.0
O750 O 0.39611 0.91305 0.67297 0.0
C751 C 0.41225 0.92282 0.70681 0.0
O752 O 0.44089 0.91304 0.68186 0.0
O753 O 0.43886 0.9253 0.66129 0.0
In754 In 0.07867 0.4268 0.68165 0.0
O755 O 0.08899 0.41879 0.65897 0.0
O756 O 0.08639 0.40258 0.67633 0.0
C757 C 0.08396 0.45542 0.67194 0.0
C758 C 0.04807 0.42675 0.68377 0.0
C759 C 0.08786 0.42217 0.71056 0.0
O760 O 0.09318 0.44848 0.68045 0.0
O761 O 0.07257 0.44772 0.66802 0.0
O762 O 0.0773 0.41479 0.70441 0.0
O763 O 0.09432 0.4316 0.70192 0.0
C764 C 0.09023 0.40511 0.66285 0.0
O765 O 0.05649 0.43442 0.69237 0.0
O766 O 0.05506 0.41904 0.67397 0.0
In767 In 0.57551 0.07544 0.67699 0.0
O768 O 0.58824 0.06779 0.69797 0.0
O769 O 0.58003 0.09043 0.69786 0.0
C770 C 0.57721 0.04575 0.66945 0.0
C771 C 0.54604 0.08299 0.68088 0.0
C772 C 0.59083 0.0889 0.654 0.0
O773 O 0.58861 0.05341 0.67329 0.0
O774 O 0.56494 0.05305 0.66932 0.0
O775 O 0.57832 0.08227 0.65226 0.0
O776 O 0.5953 0.08954 0.66757 0.0
C777 C 0.58674 0.08005 0.70514 0.0
O778 O 0.55406 0.08895 0.67062 0.0
O779 O 0.55295 0.07359 0.68912 0.0
In780 In 0.92357 0.41864 0.32369 0.0
O781 O 0.94579 0.40583 0.32007 0.0
O782 O 0.94713 0.42753 0.3302 0.0
C783 C 0.91385 0.41039 0.29596 0.0
C784 C 0.91243 0.40006 0.34558 0.0
C785 C 0.91608 0.44844 0.32378 0.0
O786 O 0.92705 0.40764 0.30076 0.0
O787 O 0.90527 0.41701 0.30536 0.0
O788 O 0.91339 0.43993 0.33497 0.0
O789 O 0.92238 0.44193 0.31275 0.0
C790 C 0.95415 0.41599 0.32557 0.0
O791 O 0.92074 0.4113 0.34841 0.0
O792 O 0.9091 0.39858 0.33178 0.0
In793 In 0.56956 0.92821 0.32544 0.0
O794 O 0.57934 0.93753 0.30352 0.0
O795 O 0.57388 0.91411 0.30389 0.0
C796 C 0.57148 0.95843 0.33005 0.0
C797 C 0.54003 0.91979 0.32701 0.0
C798 C 0.58677 0.91428 0.34692 0.0
O799 O 0.58189 0.94938 0.33379 0.0
O800 O 0.56009 0.95224 0.32403 0.0
O801 O 0.57324 0.91822 0.34912 0.0
O802 O 0.59138 0.91653 0.3336 0.0
C803 C 0.57887 0.92521 0.29633 0.0
O804 O 0.5491 0.91419 0.31747 0.0
O805 O 0.54597 0.92919 0.33598 0.0
In806 In 0.0793 0.57754 0.32581 0.0
O807 O 0.05674 0.58992 0.32274 0.0
O808 O 0.05698 0.57037 0.3367 0.0
C809 C 0.08742 0.58362 0.29692 0.0
C810 C 0.09141 0.59658 0.34679 0.0
C811 C 0.08446 0.54733 0.32586 0.0
O812 O 0.07491 0.58765 0.30255 0.0
O813 O 0.09617 0.57687 0.30603 0.0
O814 O 0.09294 0.5564 0.33305 0.0
O815 O 0.07375 0.55357 0.31875 0.0
C816 C 0.04928 0.58092 0.33095 0.0
O817 O 0.08511 0.58426 0.35023 0.0
O818 O 0.09243 0.59888 0.33274 0.0
In819 In 0.42668 0.0826 0.3178 0.0
O820 O 0.44791 0.09449 0.32749 0.0
O821 O 0.44879 0.08557 0.30518 0.0
C822 C 0.40882 0.09521 0.33943 0.0
C823 C 0.41642 0.08863 0.2897 0.0
C824 C 0.42757 0.05229 0.3228 0.0
O825 O 0.42062 0.08776 0.34249 0.0
O826 O 0.4064 0.09687 0.32546 0.0
O827 O 0.41534 0.05931 0.32047 0.0
O828 O 0.43919 0.06054 0.32273 0.0
C829 C 0.45573 0.09226 0.31569 0.0
O830 O 0.41503 0.07577 0.29584 0.0
O831 O 0.4224 0.09864 0.29802 0.0
In832 In 0.67464 0.92425 0.57411 0.0
O833 O 0.69767 0.92867 0.58508 0.0
O834 O 0.69513 0.90842 0.57237 0.0
C835 C 0.67482 0.95485 0.57171 0.0
C836 C 0.66717 0.91483 0.54589 0.0
C837 C 0.65513 0.91359 0.59552 0.0
O838 O 0.66718 0.94801 0.58168 0.0
O839 O 0.68236 0.94629 0.56312 0.0
O840 O 0.65138 0.91548 0.58188 0.0
O841 O 0.66882 0.91652 0.59824 0.0
C842 C 0.70382 0.9168 0.58003 0.0
O843 O 0.67553 0.90712 0.55459 0.0
O844 O 0.66209 0.92687 0.5517 0.0
In845 In 0.67594 0.07651 0.42495 0.0
O846 O 0.67559 0.09059 0.44693 0.0
O847 O 0.66299 0.07012 0.44628 0.0
C848 C 0.65758 0.09094 0.4048 0.0
C849 C 0.70559 0.08337 0.42101 0.0
C850 C 0.67446 0.04606 0.42179 0.0
O851 O 0.65328 0.08698 0.41781 0.0
O852 O 0.67138 0.08839 0.40223 0.0
O853 O 0.68307 0.05248 0.43122 0.0
O854 O 0.66666 0.055 0.41383 0.0
C855 C 0.66718 0.08139 0.45398 0.0
O856 O 0.69892 0.07315 0.41358 0.0
O857 O 0.69721 0.09047 0.43018 0.0
In858 In 0.92304 0.67372 0.424 0.0
O859 O 0.9465 0.68436 0.42624 0.0
O860 O 0.9451 0.6624 0.41647 0.0
C861 C 0.91285 0.70167 0.41632 0.0
C862 C 0.9109 0.65116 0.40694 0.0
C863 C 0.91919 0.67019 0.45429 0.0
O864 O 0.92441 0.69574 0.41037 0.0
O865 O 0.90605 0.69324 0.42565 0.0
O866 O 0.90848 0.67404 0.44563 0.0
O867 O 0.93162 0.66789 0.44764 0.0
C868 C 0.95347 0.67328 0.42048 0.0
O869 O 0.91313 0.64997 0.42098 0.0
O870 O 0.91409 0.664 0.40158 0.0
In871 In 0.31915 0.93189 0.4254 0.0
O872 O 0.32109 0.91788 0.44739 0.0
O873 O 0.30937 0.93893 0.44796 0.0
C874 C 0.3414 0.91761 0.40958 0.0
C875 C 0.29086 0.92628 0.41527 0.0
C876 C 0.32801 0.96115 0.42342 0.0
O877 O 0.34312 0.92224 0.42296 0.0
O878 O 0.3282 0.91937 0.40446 0.0
O879 O 0.31912 0.95514 0.41401 0.0
O880 O 0.33263 0.95235 0.43367 0.0
C881 C 0.31387 0.92749 0.45522 0.0
O882 O 0.29816 0.9381 0.4119 0.0
O883 O 0.29808 0.91686 0.42329 0.0
In884 In 0.08058 0.32306 0.42501 0.0
O885 O 0.05689 0.31282 0.42597 0.0
O886 O 0.05874 0.33582 0.41924 0.0
C887 C 0.08859 0.29369 0.42092 0.0
C888 C 0.09306 0.34201 0.40408 0.0
C889 C 0.08588 0.32966 0.45456 0.0
O890 O 0.07914 0.30039 0.41255 0.0
O891 O 0.09455 0.30199 0.43094 0.0
O892 O 0.09644 0.32613 0.44555 0.0
O893 O 0.07291 0.33008 0.4486 0.0
C894 C 0.05015 0.32468 0.42171 0.0
O895 O 0.08995 0.34612 0.41738 0.0
O896 O 0.09079 0.32814 0.40163 0.0
In897 In 0.32326 0.07362 0.57398 0.0
O898 O 0.30008 0.07179 0.58514 0.0
O899 O 0.30462 0.09174 0.57251 0.0
C900 C 0.32667 0.04392 0.58048 0.0
C901 C 0.32165 0.07545 0.54349 0.0
C902 C 0.34729 0.08562 0.58908 0.0
O903 O 0.31928 0.05282 0.58888 0.0
O904 O 0.33249 0.05005 0.56897 0.0
O905 O 0.34837 0.07928 0.57636 0.0
O906 O 0.33389 0.08668 0.59394 0.0
C907 C 0.2951 0.08417 0.58006 0.0
O908 O 0.32802 0.08563 0.55133 0.0
O909 O 0.31618 0.06463 0.55106 0.0
In910 In 0.92555 0.32554 0.5793 0.0
O911 O 0.94976 0.31877 0.58512 0.0
O912 O 0.94599 0.34156 0.5785 0.0
C913 C 0.91817 0.29719 0.58819 0.0
C914 C 0.91142 0.34705 0.59614 0.0
C915 C 0.92181 0.32454 0.54892 0.0
O916 O 0.92831 0.30496 0.59459 0.0
O917 O 0.91122 0.30397 0.57767 0.0
O918 O 0.91084 0.32705 0.55779 0.0
O919 O 0.93435 0.32244 0.55542 0.0
C920 C 0.95541 0.33163 0.5826 0.0
O921 O 0.9147 0.34889 0.58238 0.0
O922 O 0.91462 0.33411 0.60122 0.0
In923 In 0.08269 0.67924 0.58088 0.0
O924 O 0.09506 0.65694 0.58612 0.0
O925 O 0.09048 0.67158 0.60447 0.0
C926 C 0.08572 0.6771 0.55042 0.0
C927 C 0.05278 0.67363 0.58422 0.0
C928 C 0.09082 0.70846 0.58599 0.0
O929 O 0.097 0.67621 0.55921 0.0
O930 O 0.07321 0.67912 0.55701 0.0
O931 O 0.0798 0.70216 0.59251 0.0
O932 O 0.09828 0.69982 0.57737 0.0
C933 C 0.09561 0.65896 0.60023 0.0
O934 O 0.0586 0.68645 0.58668 0.0
O935 O 0.06207 0.66355 0.58014 0.0
In936 In 0.42528 0.32855 0.07082 0.0
O937 O 0.42528 0.30944 0.08837 0.0
O938 O 0.41527 0.30508 0.06693 0.0
C939 C 0.40716 0.34986 0.08366 0.0
C940 C 0.4549 0.33413 0.0763 0.0
C941 C 0.42281 0.32844 0.04027 0.0
O942 O 0.40283 0.33648 0.08124 0.0
O943 O 0.42076 0.35233 0.08012 0.0
O944 O 0.43327 0.32167 0.04726 0.0
O945 O 0.41345 0.33523 0.04869 0.0
C946 C 0.41887 0.29997 0.07977 0.0
O947 O 0.44747 0.34086 0.06611 0.0
O948 O 0.44726 0.32489 0.0841 0.0
In949 In 0.67103 0.42522 0.07682 0.0
O950 O 0.65837 0.44687 0.07087 0.0
O951 O 0.66971 0.44622 0.09207 0.0
C952 C 0.67034 0.4234 0.04625 0.0
C953 C 0.70043 0.42212 0.08456 0.0
C954 C 0.65427 0.40323 0.09027 0.0
O955 O 0.6612 0.41621 0.05456 0.0
O956 O 0.67977 0.43145 0.05335 0.0
O957 O 0.66801 0.4016 0.08688 0.0
O958 O 0.64903 0.4162 0.08742 0.0
C959 C 0.66201 0.45389 0.08277 0.0
O960 O 0.6944 0.41477 0.07389 0.0
O961 O 0.69154 0.43085 0.09159 0.0
In962 In 0.58075 0.67864 0.08082 0.0
O963 O 0.57651 0.69939 0.09597 0.0
O964 O 0.59237 0.70141 0.07798 0.0
C965 C 0.60059 0.65968 0.09481 0.0
C966 C 0.55104 0.67115 0.08339 0.0
C967 C 0.58491 0.67783 0.05052 0.0
O968 O 0.60357 0.67331 0.09191 0.0
O969 O 0.58729 0.65577 0.0914 0.0
O970 O 0.59096 0.66831 0.05932 0.0
O971 O 0.57691 0.68773 0.05703 0.0
C972 C 0.58558 0.70783 0.08877 0.0
O973 O 0.55906 0.6682 0.07197 0.0
O974 O 0.5581 0.67757 0.09408 0.0
In975 In 0.32335 0.57758 0.07742 0.0
O976 O 0.32907 0.55531 0.06597 0.0
O977 O 0.32414 0.55439 0.08949 0.0
C978 C 0.32082 0.58335 0.04745 0.0
C979 C 0.29588 0.58422 0.08932 0.0
C980 C 0.34632 0.59359 0.09032 0.0
O981 O 0.33292 0.58583 0.05469 0.0
O982 O 0.31015 0.57808 0.05533 0.0
O983 O 0.33339 0.59915 0.08799 0.0
O984 O 0.3475 0.57986 0.08667 0.0
C985 C 0.32762 0.54719 0.07761 0.0
O986 O 0.30385 0.57331 0.09404 0.0
O987 O 0.30215 0.59219 0.07926 0.0
In988 In 0.43387 0.67259 0.93301 0.0
O989 O 0.4579 0.66391 0.93573 0.0
O990 O 0.45274 0.67562 0.91532 0.0
C991 C 0.42625 0.66864 0.96245 0.0
C992 C 0.43304 0.7031 0.93148 0.0
C993 C 0.41583 0.65205 0.91885 0.0
O994 O 0.43804 0.66298 0.95671 0.0
O995 O 0.41812 0.67595 0.95328 0.0
O996 O 0.41229 0.66585 0.92 0.0
O997 O 0.42866 0.64884 0.9242 0.0
C998 C 0.4627 0.66912 0.92331 0.0
O999 O 0.42539 0.69494 0.9225 0.0
O1000 O 0.44098 0.69585 0.94088 0.0
In1001 In 0.32892 0.42723 0.92648 0.0
O1002 O 0.3338 0.45131 0.93406 0.0
O1003 O 0.32952 0.44807 0.91064 0.0
C1004 C 0.32984 0.42439 0.95696 0.0
C1005 C 0.30049 0.41856 0.91897 0.0
C1006 C 0.35044 0.40939 0.91351 0.0
O1007 O 0.34077 0.42043 0.94862 0.0
O1008 O 0.31864 0.42978 0.94993 0.0
O1009 O 0.33685 0.4053 0.915 0.0
O1010 O 0.35305 0.4227 0.91797 0.0
C1011 C 0.33241 0.45732 0.92119 0.0
O1012 O 0.30839 0.41178 0.92875 0.0
O1013 O 0.30717 0.42939 0.91242 0.0
In1014 In 0.57339 0.32639 0.92516 0.0
O1015 O 0.57189 0.30611 0.90904 0.0
O1016 O 0.58487 0.30375 0.92923 0.0
C1017 C 0.59478 0.34568 0.91413 0.0
C1018 C 0.54514 0.3348 0.91667 0.0
C1019 C 0.57155 0.32427 0.9557 0.0
O1020 O 0.59668 0.33158 0.91487 0.0
O1021 O 0.58191 0.35006 0.91845 0.0
O1022 O 0.56244 0.31777 0.94685 0.0
O1023 O 0.5817 0.33195 0.94918 0.0
C1024 C 0.57992 0.29759 0.91732 0.0
O1025 O 0.55259 0.32485 0.90956 0.0
O1026 O 0.55219 0.34084 0.92752 0.0
In1027 In 0.68181 0.57742 0.93253 0.0
O1028 O 0.66699 0.55675 0.93706 0.0
O1029 O 0.68165 0.55577 0.91807 0.0
C1030 C 0.67957 0.57892 0.96304 0.0
C1031 C 0.71149 0.58002 0.92542 0.0
C1032 C 0.66601 0.60035 0.91942 0.0
O1033 O 0.68855 0.57001 0.95637 0.0
O1034 O 0.67174 0.58711 0.95433 0.0
O1035 O 0.6792 0.60187 0.9246 0.0
O1036 O 0.66093 0.58702 0.92021 0.0
C1037 C 0.67204 0.54899 0.92619 0.0
O1038 O 0.70198 0.57404 0.91656 0.0
O1039 O 0.70598 0.58487 0.93768 0.0
In1040 In 0.07391 0.42693 0.32373 0.0
O1041 O 0.05234 0.43338 0.33655 0.0
O1042 O 0.0508 0.41565 0.32043 0.0
C1043 C 0.07717 0.45728 0.32096 0.0
C1044 C 0.08709 0.40955 0.34557 0.0
C1045 C 0.08324 0.41952 0.2955 0.0
O1046 O 0.06667 0.4498 0.31481 0.0
O1047 O 0.08641 0.44942 0.32861 0.0
O1048 O 0.09149 0.42695 0.30455 0.0
O1049 O 0.07069 0.41537 0.30094 0.0
C1050 C 0.04399 0.4239 0.32989 0.0
O1051 O 0.08474 0.40488 0.33229 0.0
O1052 O 0.08339 0.42317 0.34768 0.0
In1053 In 0.57265 0.07875 0.3239 0.0
O1054 O 0.55078 0.08629 0.31244 0.0
O1055 O 0.55312 0.09115 0.33583 0.0
C1056 C 0.56825 0.04856 0.32762 0.0
C1057 C 0.58539 0.08186 0.29622 0.0
C1058 C 0.59006 0.09018 0.34647 0.0
O1059 O 0.55796 0.05742 0.32326 0.0
O1060 O 0.58075 0.05491 0.33025 0.0
O1061 O 0.59322 0.09229 0.33268 0.0
O1062 O 0.57805 0.08282 0.34872 0.0
C1063 C 0.54479 0.09169 0.32423 0.0
O1064 O 0.57804 0.09246 0.30247 0.0
O1065 O 0.58689 0.07013 0.30425 0.0
In1066 In 0.93086 0.56505 0.32945 0.0
O1067 O 0.91929 0.58824 0.33106 0.0
O1068 O 0.91963 0.5747 0.35081 0.0
C1069 C 0.93307 0.56606 0.29899 0.0
C1070 C 0.9604 0.56855 0.33698 0.0
C1071 C 0.91823 0.53742 0.33413 0.0
O1072 O 0.92188 0.57171 0.30596 0.0
O1073 O 0.94282 0.55979 0.30737 0.0
O1074 O 0.92642 0.54395 0.34384 0.0
O1075 O 0.91568 0.54518 0.3224 0.0
C1076 C 0.91606 0.5872 0.34491 0.0
O1077 O 0.95328 0.55636 0.33908 0.0
O1078 O 0.95255 0.57909 0.3314 0.0
In1079 In 0.42096 0.93197 0.32473 0.0
O1080 O 0.42043 0.91763 0.30295 0.0
O1081 O 0.41136 0.93995 0.30229 0.0
C1082 C 0.40128 0.91763 0.34371 0.0
C1083 C 0.4501 0.9243 0.33093 0.0
C1084 C 0.41914 0.96249 0.32723 0.0
O1085 O 0.39955 0.91792 0.32957 0.0
O1086 O 0.41324 0.92394 0.34821 0.0
O1087 O 0.43102 0.95572 0.32311 0.0
O1088 O 0.4081 0.95389 0.33015 0.0
C1089 C 0.41414 0.92789 0.29515 0.0
O1090 O 0.44205 0.93232 0.33958 0.0
O1091 O 0.44331 0.9196 0.31925 0.0
In1092 In 0.07818 0.57345 0.68009 0.0
O1093 O 0.05742 0.5748 0.66431 0.0
O1094 O 0.05388 0.57671 0.68796 0.0
C1095 C 0.08814 0.54509 0.67345 0.0
C1096 C 0.0901 0.59739 0.66489 0.0
C1097 C 0.08183 0.57465 0.71045 0.0
O1098 O 0.07579 0.55042 0.66867 0.0
O1099 O 0.09598 0.55434 0.68104 0.0
O1100 O 0.08995 0.58249 0.70161 0.0
O1101 O 0.07239 0.56615 0.7039 0.0
C1102 C 0.04803 0.57642 0.67496 0.0
O1103 O 0.08241 0.5987 0.67684 0.0
O1104 O 0.09235 0.58387 0.66079 0.0
In1105 In 0.42731 0.07651 0.67571 0.0
O1106 O 0.4242 0.09315 0.69528 0.0
O1107 O 0.4161 0.07064 0.69818 0.0
C1108 C 0.40823 0.08817 0.65461 0.0
C1109 C 0.45642 0.08624 0.67452 0.0
C1110 C 0.42798 0.04592 0.67268 0.0
O1111 O 0.40698 0.09096 0.66856 0.0
O1112 O 0.41949 0.08005 0.65121 0.0
O1113 O 0.43974 0.05396 0.67334 0.0
O1114 O 0.41577 0.05329 0.67334 0.0
C1115 C 0.41803 0.08358 0.70396 0.0
O1116 O 0.44748 0.08789 0.66346 0.0
O1117 O 0.45051 0.0802 0.68602 0.0
In1118 In 0.92761 0.42723 0.67921 0.0
O1119 O 0.9491 0.41649 0.66938 0.0
O1120 O 0.95146 0.43162 0.68795 0.0
C1121 C 0.92444 0.4563 0.67002 0.0
C1122 C 0.91269 0.40676 0.66175 0.0
C1123 C 0.91959 0.42428 0.70858 0.0
O1124 O 0.93578 0.44823 0.66686 0.0
O1125 O 0.91426 0.44957 0.67752 0.0
O1126 O 0.92972 0.4163 0.70245 0.0
O1127 O 0.91319 0.4336 0.6998 0.0
C1128 C 0.95794 0.42308 0.6785 0.0
O1129 O 0.91601 0.4044 0.67541 0.0
O1130 O 0.91633 0.41972 0.65701 0.0
In1131 In 0.56431 0.92734 0.66964 0.0
O1132 O 0.57317 0.9183 0.69255 0.0
O1133 O 0.56211 0.9397 0.69189 0.0
C1134 C 0.58425 0.91397 0.65035 0.0
C1135 C 0.53661 0.91423 0.66835 0.0
C1136 C 0.56556 0.95697 0.662 0.0
O1137 O 0.58769 0.9175 0.66375 0.0
O1138 O 0.5706 0.91641 0.64699 0.0
O1139 O 0.5534 0.94947 0.66199 0.0
O1140 O 0.57718 0.94942 0.66549 0.0
C1141 C 0.5687 0.92983 0.69982 0.0
O1142 O 0.54113 0.924 0.65897 0.0
O1143 O 0.54642 0.91032 0.67801 0.0
In1144 In 0.32755 0.08088 0.42327 0.0
O1145 O 0.32114 0.07329 0.4469 0.0
O1146 O 0.33302 0.09418 0.44501 0.0
C1147 C 0.33028 0.05091 0.41765 0.0
C1148 C 0.29907 0.09008 0.4165 0.0
C1149 C 0.3513 0.09272 0.40766 0.0
O1150 O 0.3357 0.05709 0.42933 0.0
O1151 O 0.32371 0.05988 0.40868 0.0
O1152 O 0.33773 0.09518 0.40395 0.0
O1153 O 0.35278 0.08494 0.41951 0.0
C1154 C 0.32691 0.0845 0.45364 0.0
O1155 O 0.30771 0.09769 0.425 0.0
O1156 O 0.30507 0.07837 0.41096 0.0
In1157 In 0.31934 0.92463 0.5747 0.0
O1158 O 0.311 0.93011 0.55109 0.0
O1159 O 0.323 0.90939 0.55384 0.0
C1160 C 0.32772 0.95409 0.57628 0.0
C1161 C 0.29054 0.92075 0.58427 0.0
C1162 C 0.34081 0.91032 0.59148 0.0
O1163 O 0.33196 0.94542 0.56576 0.0
O1164 O 0.31952 0.94784 0.58614 0.0
O1165 O 0.32711 0.91089 0.59543 0.0
O1166 O 0.34348 0.91628 0.57881 0.0
C1167 C 0.31634 0.91839 0.54489 0.0
O1168 O 0.29712 0.91112 0.57595 0.0
O1169 O 0.29865 0.93188 0.58806 0.0
In1170 In 0.07506 0.32878 0.57376 0.0
O1171 O 0.08235 0.33615 0.59752 0.0
O1172 O 0.08845 0.35049 0.57933 0.0
C1173 C 0.08345 0.29928 0.5735 0.0
C1174 C 0.04542 0.32887 0.58184 0.0
C1175 C 0.07838 0.33615 0.5442 0.0
O1176 O 0.08939 0.30868 0.58254 0.0
O1177 O 0.0739 0.30491 0.56452 0.0
O1178 O 0.06634 0.3383 0.5516 0.0
O1179 O 0.08923 0.33074 0.55189 0.0
C1180 C 0.08841 0.3484 0.59346 0.0
O1181 O 0.05161 0.33993 0.57527 0.0
O1182 O 0.05421 0.31798 0.58457 0.0
In1183 In 0.67445 0.07548 0.57201 0.0
O1184 O 0.6956 0.08947 0.5783 0.0
O1185 O 0.69835 0.06619 0.57296 0.0
C1186 C 0.65614 0.08816 0.59317 0.0
C1187 C 0.66876 0.08598 0.54365 0.0
C1188 C 0.67048 0.04514 0.5745 0.0
O1189 O 0.67003 0.08565 0.59538 0.0
O1190 O 0.65154 0.08474 0.58006 0.0
O1191 O 0.67569 0.05141 0.56277 0.0
O1192 O 0.66706 0.05419 0.58503 0.0
C1193 C 0.70459 0.07845 0.57671 0.0
O1194 O 0.66157 0.07515 0.54956 0.0
O1195 O 0.6783 0.09211 0.55234 0.0
In1196 In 0.93367 0.67869 0.57324 0.0
O1197 O 0.95681 0.66704 0.57512 0.0
O1198 O 0.95419 0.68858 0.58542 0.0
C1199 C 0.93007 0.67075 0.54384 0.0
C1200 C 0.9199 0.66084 0.59413 0.0
C1201 C 0.92639 0.70833 0.57201 0.0
O1202 O 0.94227 0.66906 0.55107 0.0
O1203 O 0.91929 0.67618 0.55156 0.0
O1204 O 0.91765 0.69868 0.57801 0.0
O1205 O 0.9383 0.70288 0.5663 0.0
C1206 C 0.96291 0.67768 0.58246 0.0
O1207 O 0.92421 0.67416 0.59686 0.0
O1208 O 0.92196 0.65666 0.58064 0.0
In1209 In 0.67249 0.92534 0.42804 0.0
O1210 O 0.65857 0.93102 0.44894 0.0
O1211 O 0.67134 0.91062 0.44949 0.0
C1212 C 0.67538 0.95587 0.42799 0.0
C1213 C 0.70127 0.91572 0.42393 0.0
C1214 C 0.65372 0.91383 0.40636 0.0
O1215 O 0.66639 0.94905 0.4192 0.0
O1216 O 0.68278 0.94732 0.4367 0.0
O1217 O 0.66764 0.91605 0.40425 0.0
O1218 O 0.64931 0.91685 0.41958 0.0
C1219 C 0.66268 0.91962 0.45651 0.0
O1220 O 0.69576 0.92701 0.41712 0.0
O1221 O 0.69207 0.90883 0.43248 0.0
In1222 In 0.07339 0.67904 0.43019 0.0
O1223 O 0.08492 0.6692 0.40902 0.0
O1224 O 0.07997 0.65413 0.42697 0.0
C1225 C 0.08565 0.70621 0.42301 0.0
C1226 C 0.04327 0.68171 0.42503 0.0
C1227 C 0.07493 0.67509 0.46061 0.0
O1228 O 0.07536 0.70001 0.41527 0.0
O1229 O 0.09032 0.69835 0.43402 0.0
O1230 O 0.06273 0.67512 0.4532 0.0
O1231 O 0.08671 0.67675 0.45264 0.0
C1232 C 0.08515 0.65574 0.41377 0.0
O1233 O 0.0506 0.66991 0.42161 0.0
O1234 O 0.05116 0.69211 0.43082 0.0
In1235 In 0.9305 0.31742 0.42841 0.0
O1236 O 0.95319 0.32793 0.42136 0.0
O1237 O 0.95253 0.30431 0.42578 0.0
C1238 C 0.93021 0.32034 0.45894 0.0
C1239 C 0.91861 0.34082 0.41235 0.0
C1240 C 0.91766 0.2904 0.42193 0.0
O1241 O 0.94205 0.31826 0.45126 0.0
O1242 O 0.91818 0.32114 0.45121 0.0
O1243 O 0.9276 0.29646 0.41364 0.0
O1244 O 0.91352 0.2984 0.43306 0.0
C1245 C 0.96044 0.31562 0.42215 0.0
O1246 O 0.91872 0.3274 0.40746 0.0
O1247 O 0.92392 0.34229 0.42551 0.0
H1248 H 0.123 0.15518 0.40212 0.0
H1249 H 0.08647 0.1228 0.40469 0.0
H1250 H 0.10465 0.10195 0.40375 0.0
H1251 H 0.13104 0.09302 0.4053 0.0
H1252 H 0.16755 0.12548 0.40345 0.0
H1253 H 0.14931 0.14612 0.40086 0.0
C1254 C 0.119 0.14356 0.40217 0.0
C1255 C 0.10341 0.14056 0.40361 0.0
C1256 C 0.12955 0.13161 0.40193 0.0
C1257 C 0.09842 0.12543 0.40364 0.0
C1258 C 0.10882 0.11349 0.40318 0.0
C1259 C 0.135 0.10458 0.40407 0.0
C1260 C 0.15062 0.10771 0.40473 0.0
C1261 C 0.12443 0.11645 0.40281 0.0
C1262 C 0.15559 0.12276 0.40307 0.0
C1263 C 0.14516 0.13459 0.40163 0.0
H1264 H 0.84427 0.11721 0.4027 0.0
H1265 H 0.87579 0.07983 0.40334 0.0
H1266 H 0.89705 0.09749 0.40208 0.0
H1267 H 0.90668 0.12357 0.40413 0.0
H1268 H 0.87512 0.16092 0.40431 0.0
H1269 H 0.85395 0.1433 0.4017 0.0
C1270 C 0.85578 0.11292 0.40226 0.0
C1271 C 0.85844 0.09724 0.40328 0.0
C1272 C 0.86798 0.12316 0.40182 0.0
C1273 C 0.87343 0.09186 0.40266 0.0
C1274 C 0.88561 0.10196 0.402 0.0
C1275 C 0.8952 0.12786 0.40328 0.0
C1276 C 0.89248 0.14351 0.40458 0.0
C1277 C 0.88303 0.11764 0.40208 0.0
C1278 C 0.87752 0.14891 0.40344 0.0
C1279 C 0.86539 0.13884 0.40201 0.0
H1280 H 0.86696 0.90083 0.40374 0.0
H1281 H 0.82956 0.86987 0.40961 0.0
H1282 H 0.84643 0.84839 0.40536 0.0
H1283 H 0.87227 0.83837 0.40364 0.0
H1284 H 0.90991 0.86915 0.39868 0.0
H1285 H 0.89248 0.89068 0.39855 0.0
C1286 C 0.86246 0.88939 0.40379 0.0
C1287 C 0.84708 0.88694 0.40721 0.0
C1288 C 0.8723 0.87704 0.40158 0.0
C1289 C 0.84139 0.87207 0.40714 0.0
C1290 C 0.85104 0.85976 0.40475 0.0
C1291 C 0.87664 0.84976 0.40217 0.0
C1292 C 0.89237 0.85217 0.40136 0.0
C1293 C 0.86659 0.8621 0.4025 0.0
C1294 C 0.89785 0.86699 0.39937 0.0
C1295 C 0.88789 0.87932 0.39941 0.0
H1296 H 0.11818 0.8458 0.40422 0.0
H1297 H 0.08023 0.87552 0.41247 0.0
H1298 H 0.0968 0.89756 0.41044 0.0
H1299 H 0.12254 0.90813 0.40969 0.0
H1300 H 0.16062 0.87841 0.40211 0.0
H1301 H 0.14354 0.85671 0.40024 0.0
C1302 C 0.1135 0.85711 0.40529 0.0
C1303 C 0.09804 0.859 0.40869 0.0
C1304 C 0.12315 0.86976 0.40433 0.0
C1305 C 0.09212 0.87373 0.40996 0.0
C1306 C 0.1016 0.88636 0.40885 0.0
C1307 C 0.12707 0.89696 0.4073 0.0
C1308 C 0.14283 0.89487 0.40622 0.0
C1309 C 0.11721 0.88448 0.40654 0.0
C1310 C 0.14853 0.88032 0.40306 0.0
C1311 C 0.13877 0.86788 0.40207 0.0
H1312 H 0.1213 0.91143 0.58575 0.0
H1313 H 0.15892 0.88272 0.59801 0.0
H1314 H 0.14195 0.86092 0.59976 0.0
H1315 H 0.11689 0.84948 0.59501 0.0
H1316 H 0.07933 0.87834 0.58283 0.0
H1317 H 0.09573 0.90054 0.584 0.0
C1318 C 0.12574 0.90046 0.58907 0.0
C1319 C 0.14137 0.89868 0.59158 0.0
C1320 C 0.11593 0.88793 0.58993 0.0
C1321 C 0.14693 0.8844 0.59597 0.0
C1322 C 0.13725 0.87189 0.5969 0.0
C1323 C 0.11226 0.86066 0.59286 0.0
C1324 C 0.09695 0.86221 0.58867 0.0
C1325 C 0.1218 0.87343 0.59347 0.0
C1326 C 0.09109 0.87679 0.586 0.0
C1327 C 0.10048 0.88952 0.58662 0.0
H1328 H 0.12174 0.16172 0.58384 0.0
H1329 H 0.08476 0.13039 0.5903 0.0
H1330 H 0.10269 0.10951 0.59308 0.0
H1331 H 0.12867 0.09969 0.59054 0.0
H1332 H 0.16561 0.13097 0.58367 0.0
H1333 H 0.14797 0.15226 0.58442 0.0
C1334 C 0.11762 0.15037 0.58614 0.0
C1335 C 0.10193 0.14761 0.58669 0.0
C1336 C 0.128 0.13835 0.58754 0.0
C1337 C 0.09678 0.13284 0.58974 0.0
C1338 C 0.10703 0.12086 0.59128 0.0
C1339 C 0.13289 0.11118 0.58952 0.0
C1340 C 0.14841 0.11371 0.58689 0.0
C1341 C 0.12264 0.1234 0.58973 0.0
C1342 C 0.1537 0.12868 0.58563 0.0
C1343 C 0.14361 0.14089 0.58599 0.0
H1344 H 0.87443 0.16071 0.58409 0.0
H1345 H 0.91186 0.13148 0.59572 0.0
H1346 H 0.89466 0.10982 0.5973 0.0
H1347 H 0.86959 0.0987 0.59206 0.0
H1348 H 0.83229 0.12803 0.58022 0.0
H1349 H 0.84878 0.15013 0.58224 0.0
C1350 C 0.87877 0.14965 0.58725 0.0
C1351 C 0.89441 0.14765 0.58958 0.0
C1352 C 0.86886 0.13723 0.58796 0.0
C1353 C 0.89986 0.1333 0.59381 0.0
C1354 C 0.89005 0.12089 0.59464 0.0
C1355 C 0.86502 0.10996 0.5902 0.0
C1356 C 0.8498 0.1117 0.58579 0.0
C1357 C 0.87461 0.12263 0.59123 0.0
C1358 C 0.84399 0.12636 0.58354 0.0
C1359 C 0.85343 0.13902 0.58463 0.0
H1360 H 0.90448 0.87585 0.58871 0.0
H1361 H 0.87328 0.83822 0.5882 0.0
H1362 H 0.85203 0.85557 0.59198 0.0
H1363 H 0.84211 0.88169 0.59184 0.0
H1364 H 0.87343 0.91924 0.59171 0.0
H1365 H 0.89478 0.90169 0.59198 0.0
C1366 C 0.89306 0.87142 0.58974 0.0
C1367 C 0.89044 0.8558 0.58798 0.0
C1368 C 0.88087 0.88148 0.59164 0.0
C1369 C 0.8756 0.85021 0.58945 0.0
C1370 C 0.86342 0.86014 0.59153 0.0
C1371 C 0.85361 0.88602 0.59218 0.0
C1372 C 0.85617 0.90174 0.59154 0.0
C1373 C 0.86588 0.87584 0.59209 0.0
C1374 C 0.87113 0.90719 0.59208 0.0
C1375 C 0.88337 0.89716 0.59217 0.0
H1376 H 0.41459 0.12336 0.15609 0.0
H1377 H 0.41094 0.08753 0.12303 0.0
H1378 H 0.4092 0.10625 0.10269 0.0
H1379 H 0.41168 0.13267 0.09414 0.0
H1380 H 0.41587 0.16842 0.12724 0.0
H1381 H 0.41425 0.14989 0.14771 0.0
C1382 C 0.41317 0.11965 0.14446 0.0
C1383 C 0.41307 0.10408 0.14105 0.0
C1384 C 0.41239 0.13047 0.13281 0.0
C1385 C 0.41112 0.09945 0.12594 0.0
C1386 C 0.41019 0.11015 0.1143 0.0
C1387 C 0.41198 0.13642 0.10584 0.0
C1388 C 0.41406 0.15187 0.10916 0.0
C1389 C 0.41126 0.12567 0.11756 0.0
C1390 C 0.41435 0.15658 0.12437 0.0
C1391 C 0.41348 0.14598 0.1361 0.0
H1392 H 0.87312 0.40475 0.15857 0.0
H1393 H 0.91096 0.4034 0.12763 0.0
H1394 H 0.89357 0.40299 0.1061 0.0
H1395 H 0.86773 0.40608 0.09609 0.0
H1396 H 0.82997 0.40801 0.12712 0.0
H1397 H 0.84719 0.40498 0.14855 0.0
C1398 C 0.87756 0.40408 0.14712 0.0
C1399 C 0.8933 0.40427 0.14469 0.0
C1400 C 0.8675 0.40411 0.13479 0.0
C1401 C 0.89888 0.40333 0.1298 0.0
C1402 C 0.88894 0.40317 0.11748 0.0
C1403 C 0.86326 0.40559 0.10753 0.0
C1404 C 0.84763 0.40745 0.11002 0.0
C1405 C 0.87324 0.40404 0.11983 0.0
C1406 C 0.84198 0.40671 0.1249 0.0
C1407 C 0.85182 0.40501 0.13717 0.0
H1408 H 0.58819 0.9072 0.12663 0.0
H1409 H 0.59917 0.87563 0.16231 0.0
H1410 H 0.60192 0.85531 0.1437 0.0
H1411 H 0.59794 0.84588 0.11775 0.0
H1412 H 0.58619 0.87738 0.08224 0.0
H1413 H 0.58716 0.89834 0.10028 0.0
C1414 C 0.59149 0.89594 0.13031 0.0
C1415 C 0.59331 0.8929 0.14586 0.0
C1416 C 0.59274 0.88424 0.11958 0.0
C1417 C 0.59764 0.87827 0.15042 0.0
C1418 C 0.59913 0.86661 0.13979 0.0
C1419 C 0.59586 0.85737 0.1139 0.0
C1420 C 0.59182 0.86004 0.09871 0.0
C1421 C 0.5962 0.86936 0.1244 0.0
C1422 C 0.58923 0.875 0.09389 0.0
C1423 C 0.58973 0.88699 0.10422 0.0
H1424 H 0.09577 0.59338 0.12789 0.0
H1425 H 0.12721 0.60132 0.16449 0.0
H1426 H 0.14812 0.60284 0.14643 0.0
H1427 H 0.15786 0.59853 0.1207 0.0
H1428 H 0.12655 0.58958 0.08423 0.0
H1429 H 0.10522 0.59203 0.10171 0.0
C1430 C 0.10715 0.59576 0.13188 0.0
C1431 C 0.10995 0.59708 0.14752 0.0
C1432 C 0.11918 0.59628 0.12146 0.0
C1433 C 0.12475 0.60018 0.15251 0.0
C1434 C 0.13674 0.60098 0.14219 0.0
C1435 C 0.14636 0.59741 0.11652 0.0
C1436 C 0.14381 0.59371 0.10122 0.0
C1437 C 0.13416 0.59853 0.1267 0.0
C1438 C 0.12883 0.59235 0.09597 0.0
C1439 C 0.11662 0.59369 0.10598 0.0
H1440 H 0.40534 0.87874 0.84556 0.0
H1441 H 0.41146 0.91586 0.8768 0.0
H1442 H 0.40897 0.89852 0.89819 0.0
H1443 H 0.40835 0.87247 0.90789 0.0
H1444 H 0.40304 0.83519 0.8767 0.0
H1445 H 0.40162 0.85293 0.85549 0.0
C1446 C 0.40585 0.88306 0.85705 0.0
C1447 C 0.40877 0.89853 0.85958 0.0
C1448 C 0.40465 0.87298 0.86933 0.0
C1449 C 0.40933 0.90398 0.87454 0.0
C1450 C 0.40795 0.89406 0.88679 0.0
C1451 C 0.40655 0.86824 0.89649 0.0
C1452 C 0.40597 0.85253 0.89386 0.0
C1453 C 0.40609 0.87848 0.88431 0.0
C1454 C 0.40359 0.84723 0.87903 0.0
C1455 C 0.40287 0.85737 0.86687 0.0
H1456 H 0.12095 0.40165 0.84883 0.0
H1457 H 0.08557 0.41185 0.88101 0.0
H1458 H 0.10408 0.41234 0.90152 0.0
H1459 H 0.13067 0.41333 0.90969 0.0
H1460 H 0.16614 0.40307 0.87767 0.0
H1461 H 0.14728 0.39889 0.85783 0.0
C1462 C 0.11727 0.40367 0.86038 0.0
C1463 C 0.10195 0.40693 0.86334 0.0
C1464 C 0.12801 0.40406 0.87215 0.0
C1465 C 0.09731 0.40941 0.87839 0.0
C1466 C 0.10791 0.40976 0.89013 0.0
C1467 C 0.13424 0.40987 0.89844 0.0
C1468 C 0.14977 0.40871 0.8951 0.0
C1469 C 0.12334 0.40762 0.88706 0.0
C1470 C 0.15425 0.40408 0.88052 0.0
C1471 C 0.14346 0.40179 0.86914 0.0
H1472 H 0.59626 0.12562 0.84412 0.0
H1473 H 0.59351 0.08734 0.87441 0.0
H1474 H 0.59601 0.10418 0.89622 0.0
H1475 H 0.59555 0.13 0.90669 0.0
H1476 H 0.59786 0.1683 0.8764 0.0
H1477 H 0.59916 0.15126 0.85465 0.0
C1478 C 0.59653 0.12094 0.85548 0.0
C1479 C 0.59451 0.10528 0.85764 0.0
C1480 C 0.59773 0.13072 0.868 0.0
C1481 C 0.59496 0.09937 0.87243 0.0
C1482 C 0.59631 0.109 0.88493 0.0
C1483 C 0.59663 0.1346 0.89535 0.0
C1484 C 0.5964 0.15039 0.89316 0.0
C1485 C 0.59717 0.12473 0.88286 0.0
C1486 C 0.59791 0.15619 0.8784 0.0
C1487 C 0.59859 0.14645 0.86593 0.0
H1488 H 0.8455 0.58849 0.88229 0.0
H1489 H 0.88001 0.58881 0.91693 0.0
H1490 H 0.89964 0.59148 0.89761 0.0
H1491 H 0.90713 0.59031 0.87082 0.0
H1492 H 0.87265 0.5891 0.83616 0.0
H1493 H 0.8529 0.59039 0.85552 0.0
C1494 C 0.8573 0.58945 0.88563 0.0
C1495 C 0.86131 0.58828 0.90101 0.0
C1496 C 0.86855 0.59067 0.87443 0.0
C1497 C 0.87663 0.5896 0.90516 0.0
C1498 C 0.88787 0.59105 0.89411 0.0
C1499 C 0.8953 0.59063 0.86749 0.0
C1500 C 0.89136 0.58943 0.85209 0.0
C1501 C 0.88399 0.59108 0.87869 0.0
C1502 C 0.87598 0.58992 0.84795 0.0
C1503 C 0.86468 0.5906 0.85901 0.0
H1504 H 0.12194 0.416 0.0927 0.0
H1505 H 0.15959 0.40568 0.12214 0.0
H1506 H 0.14251 0.40445 0.14386 0.0
H1507 H 0.11739 0.40937 0.15495 0.0
H1508 H 0.07984 0.42006 0.12552 0.0
H1509 H 0.09629 0.41792 0.1034 0.0
C1510 C 0.12636 0.41318 0.10381 0.0
C1511 C 0.14203 0.4111 0.10581 0.0
C1512 C 0.1165 0.41272 0.11632 0.0
C1513 C 0.14757 0.40741 0.12029 0.0
C1514 C 0.13783 0.40677 0.13275 0.0
C1515 C 0.11277 0.41098 0.14368 0.0
C1516 C 0.09746 0.41505 0.1419 0.0
C1517 C 0.12234 0.40989 0.13098 0.0
C1518 C 0.09161 0.41701 0.12721 0.0
C1519 C 0.10102 0.41583 0.11454 0.0
H1520 H 0.11775 0.59076 0.84564 0.0
H1521 H 0.08269 0.59077 0.87973 0.0
H1522 H 0.10162 0.5946 0.89949 0.0
H1523 H 0.12831 0.5945 0.90737 0.0
H1524 H 0.16347 0.59389 0.87341 0.0
H1525 H 0.14438 0.59401 0.85338 0.0
C1526 C 0.11424 0.59191 0.85736 0.0
C1527 C 0.09885 0.59028 0.86121 0.0
C1528 C 0.12523 0.59388 0.86874 0.0
C1529 C 0.09447 0.59187 0.87645 0.0
C1530 C 0.1053 0.59401 0.88779 0.0
C1531 C 0.1318 0.59473 0.89559 0.0
C1532 C 0.14728 0.59401 0.8919 0.0
C1533 C 0.12075 0.59451 0.88412 0.0
C1534 C 0.15162 0.59437 0.87657 0.0
C1535 C 0.1407 0.59435 0.86509 0.0
H1536 H 0.40992 0.09231 0.87141 0.0
H1537 H 0.40752 0.12493 0.83507 0.0
H1538 H 0.40648 0.1456 0.85343 0.0
H1539 H 0.40976 0.15449 0.8796 0.0
H1540 H 0.41298 0.12192 0.91591 0.0
H1541 H 0.40996 0.10119 0.89783 0.0
C1542 C 0.40885 0.10393 0.86752 0.0
C1543 C 0.40899 0.10709 0.8519 0.0
C1544 C 0.40856 0.11579 0.87815 0.0
C1545 C 0.40754 0.12219 0.84703 0.0
C1546 C 0.40701 0.13403 0.85753 0.0
C1547 C 0.4095 0.14287 0.88359 0.0
C1548 C 0.41179 0.13974 0.89904 0.0
C1549 C 0.40805 0.13099 0.87309 0.0
C1550 C 0.41134 0.12463 0.90405 0.0
C1551 C 0.40968 0.11275 0.89371 0.0
H1552 H 0.84147 0.406 0.87856 0.0
H1553 H 0.87154 0.39815 0.91629 0.0
H1554 H 0.89308 0.39634 0.89899 0.0
H1555 H 0.90375 0.40061 0.87356 0.0
H1556 H 0.8736 0.40883 0.83595 0.0
H1557 H 0.85174 0.40664 0.85272 0.0
C1558 C 0.8527 0.40359 0.88296 0.0
C1559 C 0.85495 0.40243 0.89868 0.0
C1560 C 0.86506 0.40277 0.87297 0.0
C1561 C 0.86952 0.39917 0.90423 0.0
C1562 C 0.88187 0.39821 0.89435 0.0
C1563 C 0.89238 0.4016 0.86899 0.0
C1564 C 0.89031 0.4051 0.85358 0.0
C1565 C 0.87984 0.40055 0.87876 0.0
C1566 C 0.87551 0.40625 0.84779 0.0
C1567 C 0.86299 0.40506 0.85739 0.0
H1568 H 0.59487 0.9088 0.86589 0.0
H1569 H 0.5893 0.87781 0.82849 0.0
H1570 H 0.59074 0.85631 0.84583 0.0
H1571 H 0.58989 0.84658 0.87181 0.0
H1572 H 0.59392 0.87754 0.90943 0.0
H1573 H 0.59702 0.89873 0.89185 0.0
C1574 C 0.59434 0.89733 0.86151 0.0
C1575 C 0.59184 0.8949 0.84595 0.0
C1576 C 0.59472 0.88501 0.87162 0.0
C1577 C 0.59112 0.87998 0.84044 0.0
C1578 C 0.59188 0.86768 0.85036 0.0
C1579 C 0.59176 0.85792 0.87618 0.0
C1580 C 0.59151 0.8605 0.8919 0.0
C1581 C 0.59311 0.87008 0.86601 0.0
C1582 C 0.594 0.87525 0.89737 0.0
C1583 C 0.59569 0.88739 0.88732 0.0
H1584 H 0.9079 0.59143 0.13482 0.0
H1585 H 0.87786 0.58189 0.17218 0.0
H1586 H 0.85594 0.5848 0.15558 0.0
H1587 H 0.84556 0.58652 0.12986 0.0
H1588 H 0.87561 0.59471 0.09218 0.0
H1589 H 0.8972 0.5961 0.10947 0.0
C1590 C 0.89655 0.59033 0.13938 0.0
C1591 C 0.89451 0.5863 0.15466 0.0
C1592 C 0.88398 0.59162 0.12966 0.0
C1593 C 0.87973 0.58488 0.16043 0.0
C1594 C 0.86718 0.58649 0.15092 0.0
C1595 C 0.85679 0.58893 0.12546 0.0
C1596 C 0.85901 0.59034 0.10975 0.0
C1597 C 0.8692 0.58932 0.13542 0.0
C1598 C 0.87362 0.59348 0.10423 0.0
C1599 C 0.88598 0.59422 0.11411 0.0
H1600 H 0.409 0.87174 0.09365 0.0
H1601 H 0.40687 0.83392 0.12455 0.0
H1602 H 0.40413 0.8513 0.14591 0.0
H1603 H 0.4059 0.87723 0.15606 0.0
H1604 H 0.4091 0.91496 0.12512 0.0
H1605 H 0.40767 0.89768 0.10359 0.0
C1606 C 0.40761 0.86729 0.10502 0.0
C1607 C 0.40831 0.85158 0.10752 0.0
C1608 C 0.4064 0.87736 0.1173 0.0
C1609 C 0.40646 0.84599 0.12232 0.0
C1610 C 0.40496 0.85592 0.13457 0.0
C1611 C 0.40596 0.88168 0.1446 0.0
C1612 C 0.40778 0.89733 0.1422 0.0
C1613 C 0.40546 0.87164 0.13224 0.0
C1614 C 0.40783 0.90294 0.12729 0.0
C1615 C 0.40706 0.89306 0.11495 0.0
H1616 H 0.59678 0.12333 0.09443 0.0
H1617 H 0.59969 0.16136 0.12502 0.0
H1618 H 0.60205 0.14413 0.14652 0.0
H1619 H 0.59962 0.11839 0.15689 0.0
H1620 H 0.59587 0.08038 0.12636 0.0
H1621 H 0.59777 0.09741 0.10464 0.0
C1622 C 0.59826 0.12784 0.10577 0.0
C1623 C 0.59785 0.1436 0.10813 0.0
C1624 C 0.59931 0.11785 0.11814 0.0
C1625 C 0.59985 0.14927 0.12289 0.0
C1626 C 0.60114 0.13942 0.13521 0.0
C1627 C 0.59956 0.1138 0.14549 0.0
C1628 C 0.59741 0.09817 0.14325 0.0
C1629 C 0.60033 0.1237 0.13303 0.0
C1630 C 0.59741 0.09239 0.1284 0.0
C1631 C 0.59842 0.10213 0.11596 0.0
H1632 H 0.63656 0.60031 0.91005 0.0
H1633 H 0.67418 0.63005 0.91967 0.0
H1634 H 0.65753 0.65202 0.91789 0.0
H1635 H 0.63177 0.66243 0.91712 0.0
H1636 H 0.594 0.63287 0.90775 0.0
H1637 H 0.61122 0.61126 0.90567 0.0
C1638 C 0.64116 0.61162 0.91144 0.0
C1639 C 0.65654 0.61352 0.91521 0.0
C1640 C 0.63146 0.62424 0.91059 0.0
C1641 C 0.66236 0.62826 0.91688 0.0
C1642 C 0.65283 0.64084 0.91592 0.0
C1643 C 0.62735 0.65131 0.91433 0.0
C1644 C 0.61164 0.64921 0.9128 0.0
C1645 C 0.63728 0.63892 0.91333 0.0
C1646 C 0.60606 0.63477 0.90903 0.0
C1647 C 0.61589 0.62239 0.90793 0.0
H1648 H 0.38613 0.65552 0.91115 0.0
H1649 H 0.42129 0.62185 0.91573 0.0
H1650 H 0.40268 0.60167 0.91242 0.0
H1651 H 0.37605 0.59361 0.91183 0.0
H1652 H 0.34074 0.62723 0.90824 0.0
H1653 H 0.35973 0.64734 0.90728 0.0
C1654 C 0.38975 0.64378 0.9111 0.0
C1655 C 0.40504 0.6402 0.91387 0.0
C1656 C 0.37892 0.63219 0.9095 0.0
C1657 C 0.40957 0.62492 0.91373 0.0
C1658 C 0.39892 0.61336 0.91189 0.0
C1659 C 0.37252 0.6053 0.91049 0.0
C1660 C 0.357 0.60892 0.91028 0.0
C1661 C 0.3835 0.61685 0.9103 0.0
C1662 C 0.35262 0.62414 0.90851 0.0
C1663 C 0.36348 0.63566 0.90804 0.0
H1664 H 0.40984 0.37069 0.90712 0.0
H1665 H 0.37695 0.3347 0.9036 0.0
H1666 H 0.35644 0.35329 0.90289 0.0
H1667 H 0.34774 0.37953 0.90644 0.0
H1668 H 0.38064 0.41542 0.91088 0.0
H1669 H 0.40122 0.39716 0.90787 0.0
C1670 C 0.39821 0.36693 0.90591 0.0
C1671 C 0.39492 0.35133 0.90556 0.0
C1672 C 0.38644 0.37767 0.90582 0.0
C1673 C 0.37978 0.34663 0.90395 0.0
C1674 C 0.36804 0.35726 0.90362 0.0
C1675 C 0.35941 0.38339 0.90647 0.0
C1676 C 0.36266 0.39879 0.90904 0.0
C1677 C 0.37121 0.37278 0.90502 0.0
C1678 C 0.37783 0.40362 0.90901 0.0
C1679 C 0.38962 0.39317 0.90734 0.0
H1680 H 0.59334 0.37639 0.91216 0.0
H1681 H 0.62426 0.33873 0.90809 0.0
H1682 H 0.64561 0.35622 0.90614 0.0
H1683 H 0.65573 0.38207 0.90855 0.0
H1684 H 0.62483 0.41971 0.91299 0.0
H1685 H 0.60327 0.40242 0.91162 0.0
C1686 C 0.60473 0.37203 0.9106 0.0
C1687 C 0.60723 0.35629 0.91045 0.0
C1688 C 0.61698 0.38215 0.90966 0.0
C1689 C 0.62203 0.3508 0.90832 0.0
C1690 C 0.63427 0.36079 0.90726 0.0
C1691 C 0.64427 0.38651 0.90895 0.0
C1692 C 0.64189 0.40212 0.91104 0.0
C1693 C 0.63192 0.37647 0.90836 0.0
C1694 C 0.62698 0.40772 0.91146 0.0
C1695 C 0.61464 0.39783 0.91074 0.0
H1696 H 0.62106 0.34079 0.0951 0.0
H1697 H 0.58202 0.37023 0.0956 0.0
H1698 H 0.59848 0.39234 0.09783 0.0
H1699 H 0.62396 0.40341 0.09578 0.0
H1700 H 0.66297 0.37394 0.09456 0.0
H1701 H 0.64657 0.3518 0.0967 0.0
C1702 C 0.61615 0.35202 0.09603 0.0
C1703 C 0.60037 0.35389 0.09495 0.0
C1704 C 0.62569 0.36471 0.09702 0.0
C1705 C 0.59415 0.36849 0.09628 0.0
C1706 C 0.60356 0.38116 0.09749 0.0
C1707 C 0.62888 0.39215 0.09632 0.0
C1708 C 0.64462 0.3903 0.09478 0.0
C1709 C 0.61935 0.37944 0.09727 0.0
C1710 C 0.65086 0.37567 0.09559 0.0
C1711 C 0.64148 0.36298 0.09676 0.0
H1712 H 0.65976 0.6207 0.10058 0.0
H1713 H 0.62704 0.58453 0.09714 0.0
H1714 H 0.60635 0.6028 0.09895 0.0
H1715 H 0.59763 0.62921 0.09821 0.0
H1716 H 0.63033 0.66546 0.10087 0.0
H1717 H 0.65087 0.64703 0.10294 0.0
C1718 C 0.6481 0.6168 0.10051 0.0
C1719 C 0.64494 0.60131 0.09854 0.0
C1720 C 0.63623 0.6274 0.10131 0.0
C1721 C 0.62978 0.59641 0.09853 0.0
C1722 C 0.61793 0.60686 0.09953 0.0
C1723 C 0.60922 0.63308 0.09957 0.0
C1724 C 0.61246 0.64868 0.09922 0.0
C1725 C 0.62102 0.62242 0.10043 0.0
C1726 C 0.62753 0.65351 0.10103 0.0
C1727 C 0.63931 0.64297 0.10213 0.0
H1728 H 0.34664 0.62348 0.09777 0.0
H1729 H 0.37575 0.58451 0.09285 0.0
H1730 H 0.39807 0.60055 0.09592 0.0
H1731 H 0.40931 0.62605 0.09664 0.0
H1732 H 0.38016 0.66508 0.10089 0.0
H1733 H 0.35793 0.64863 0.10172 0.0
C1734 C 0.35786 0.61847 0.09765 0.0
C1735 C 0.35953 0.60286 0.09489 0.0
C1736 C 0.37067 0.6278 0.0992 0.0
C1737 C 0.37414 0.59651 0.09486 0.0
C1738 C 0.38693 0.60569 0.09656 0.0
C1739 C 0.39812 0.63093 0.09809 0.0
C1740 C 0.39638 0.64677 0.09853 0.0
C1741 C 0.38534 0.62141 0.09825 0.0
C1742 C 0.38181 0.65292 0.10044 0.0
C1743 C 0.36907 0.64353 0.10083 0.0
H1744 H 0.37724 0.34735 0.09047 0.0
H1745 H 0.41349 0.37994 0.08669 0.0
H1746 H 0.39541 0.40067 0.08972 0.0
H1747 H 0.369 0.40953 0.09022 0.0
H1748 H 0.33271 0.3769 0.09332 0.0
H1749 H 0.3511 0.35624 0.09401 0.0
C1750 C 0.38121 0.35898 0.09059 0.0
C1751 C 0.39665 0.36211 0.08818 0.0
C1752 C 0.37072 0.37086 0.09209 0.0
C1753 C 0.40165 0.37723 0.08844 0.0
C1754 C 0.39131 0.3891 0.09011 0.0
C1755 C 0.36513 0.39792 0.09135 0.0
C1756 C 0.34951 0.39475 0.09154 0.0
C1757 C 0.37576 0.38606 0.09146 0.0
C1758 C 0.34467 0.37965 0.09306 0.0
C1759 C 0.35518 0.36781 0.09339 0.0
H1760 H 0.91488 0.63051 0.59202 0.0
H1761 H 0.91431 0.66779 0.62365 0.0
H1762 H 0.91104 0.65015 0.64469 0.0
H1763 H 0.91177 0.62409 0.65432 0.0
H1764 H 0.91341 0.58672 0.62283 0.0
H1765 H 0.91261 0.6044 0.60154 0.0
C1766 C 0.91372 0.63478 0.60349 0.0
C1767 C 0.91501 0.65041 0.60629 0.0
C1768 C 0.91219 0.62454 0.61558 0.0
C1769 C 0.91346 0.65579 0.6212 0.0
C1770 C 0.91165 0.64571 0.63325 0.0
C1771 C 0.91167 0.6198 0.6428 0.0
C1772 C 0.91284 0.60414 0.64015 0.0
C1773 C 0.91153 0.63004 0.63062 0.0
C1774 C 0.91261 0.59874 0.62517 0.0
C1775 C 0.91221 0.60885 0.61298 0.0
H1776 H 0.33863 0.90356 0.62147 0.0
H1777 H 0.37071 0.907 0.58473 0.0
H1778 H 0.3917 0.90504 0.60262 0.0
H1779 H 0.40079 0.90643 0.6288 0.0
H1780 H 0.36882 0.90431 0.66571 0.0
H1781 H 0.34797 0.90141 0.64769 0.0
C1782 C 0.35021 0.9035 0.61736 0.0
C1783 C 0.35312 0.90563 0.60183 0.0
C1784 C 0.36225 0.90279 0.62777 0.0
C1785 C 0.36818 0.90551 0.59665 0.0
C1786 C 0.3802 0.90445 0.60688 0.0
C1787 C 0.3893 0.905 0.63292 0.0
C1788 C 0.38632 0.90581 0.64854 0.0
C1789 C 0.37736 0.90373 0.62249 0.0
C1790 C 0.37139 0.90382 0.65372 0.0
C1791 C 0.35945 0.90225 0.64341 0.0
H1792 H 0.0963 0.40745 0.6326 0.0
H1793 H 0.09124 0.37486 0.6687 0.0
H1794 H 0.09197 0.35417 0.65039 0.0
H1795 H 0.0909 0.34553 0.62398 0.0
H1796 H 0.09569 0.37795 0.58773 0.0
H1797 H 0.09844 0.39843 0.6062 0.0
C1798 C 0.09566 0.39581 0.63647 0.0
C1799 C 0.09354 0.39273 0.65199 0.0
C1800 C 0.09591 0.38391 0.62583 0.0
C1801 C 0.09278 0.37757 0.65683 0.0
C1802 C 0.09314 0.36571 0.64635 0.0
C1803 C 0.09282 0.35704 0.62012 0.0
C1804 C 0.09292 0.36023 0.6045 0.0
C1805 C 0.09421 0.36877 0.6308 0.0
C1806 C 0.09553 0.37518 0.59969 0.0
C1807 C 0.09702 0.38692 0.61025 0.0
H1808 H 0.62076 0.09626 0.65437 0.0
H1809 H 0.58272 0.09015 0.62427 0.0
H1810 H 0.59959 0.09139 0.60238 0.0
H1811 H 0.62544 0.09063 0.59206 0.0
H1812 H 0.6636 0.09549 0.62224 0.0
H1813 H 0.64644 0.09849 0.64374 0.0
C1814 C 0.61613 0.09557 0.643 0.0
C1815 C 0.60054 0.09298 0.64096 0.0
C1816 C 0.62596 0.09586 0.63047 0.0
C1817 C 0.5947 0.09206 0.62616 0.0
C1818 C 0.60436 0.0927 0.61363 0.0
C1819 C 0.62999 0.09264 0.6033 0.0
C1820 C 0.64577 0.09266 0.60557 0.0
C1821 C 0.62006 0.09403 0.61567 0.0
C1822 C 0.65149 0.09532 0.6202 0.0
C1823 C 0.64168 0.09699 0.63252 0.0
H1824 H 0.90636 0.34053 0.38402 0.0
H1825 H 0.92224 0.37069 0.41908 0.0
H1826 H 0.92005 0.3922 0.40185 0.0
H1827 H 0.91663 0.40189 0.37598 0.0
H1828 H 0.90076 0.37183 0.34085 0.0
H1829 H 0.8997 0.35092 0.35898 0.0
C1830 C 0.90908 0.35185 0.38796 0.0
C1831 C 0.91465 0.35398 0.40274 0.0
C1832 C 0.9079 0.36419 0.37794 0.0
C1833 C 0.91801 0.36873 0.40773 0.0
C1834 C 0.91681 0.38104 0.39786 0.0
C1835 C 0.91267 0.39083 0.37237 0.0
C1836 C 0.90896 0.38837 0.35707 0.0
C1837 C 0.91223 0.37883 0.38281 0.0
C1838 C 0.90372 0.37402 0.35256 0.0
C1839 C 0.9032 0.36202 0.3629 0.0
H1840 H 0.62312 0.9102 0.40792 0.0
H1841 H 0.66067 0.90918 0.37663 0.0
H1842 H 0.64311 0.90717 0.35534 0.0
H1843 H 0.6171 0.90893 0.34548 0.0
H1844 H 0.57955 0.91066 0.37675 0.0
H1845 H 0.59705 0.9089 0.39812 0.0
C1846 C 0.62746 0.90926 0.39646 0.0
C1847 C 0.64317 0.91002 0.39386 0.0
C1848 C 0.61728 0.90834 0.38424 0.0
C1849 C 0.64862 0.90872 0.37895 0.0
C1850 C 0.63858 0.90762 0.36675 0.0
C1851 C 0.61273 0.90859 0.35696 0.0
C1852 C 0.59706 0.91008 0.35951 0.0
C1853 C 0.62288 0.90789 0.36923 0.0
C1854 C 0.59157 0.9096 0.37446 0.0
C1855 C 0.60158 0.90868 0.38671 0.0
H1856 H 0.09616 0.65645 0.38496 0.0
H1857 H 0.08299 0.62571 0.42062 0.0
H1858 H 0.08563 0.60425 0.40336 0.0
H1859 H 0.08868 0.59461 0.37741 0.0
H1860 H 0.10144 0.62536 0.34161 0.0
H1861 H 0.10221 0.64633 0.35967 0.0
C1862 C 0.09412 0.64502 0.38901 0.0
C1863 C 0.08921 0.6427 0.40401 0.0
C1864 C 0.0955 0.63273 0.37896 0.0
C1865 C 0.08671 0.62782 0.40912 0.0
C1866 C 0.08816 0.61554 0.39923 0.0
C1867 C 0.09193 0.60584 0.37362 0.0
C1868 C 0.09484 0.60844 0.35816 0.0
C1869 C 0.09211 0.6179 0.38402 0.0
C1870 C 0.09909 0.62305 0.35344 0.0
C1871 C 0.09945 0.63508 0.36375 0.0
H1872 H 0.41142 0.09206 0.36991 0.0
H1873 H 0.38091 0.10783 0.33512 0.0
H1874 H 0.36065 0.11045 0.35381 0.0
H1875 H 0.35074 0.10494 0.37932 0.0
H1876 H 0.38119 0.08843 0.41384 0.0
H1877 H 0.40233 0.08964 0.39607 0.0
C1878 C 0.40042 0.09635 0.36647 0.0
C1879 C 0.39762 0.09956 0.35113 0.0
C1880 C 0.38875 0.09757 0.37723 0.0
C1881 C 0.38334 0.1052 0.34686 0.0
C1882 C 0.37172 0.10663 0.35753 0.0
C1883 C 0.36207 0.10192 0.38303 0.0
C1884 C 0.36435 0.09643 0.39782 0.0
C1885 C 0.37415 0.10236 0.37265 0.0
C1886 C 0.3791 0.09259 0.40248 0.0
C1887 C 0.3912 0.09322 0.39231 0.0
H1888 H 0.61475 0.91128 0.65416 0.0
H1889 H 0.57946 0.90761 0.62051 0.0
H1890 H 0.59849 0.90548 0.60053 0.0
H1891 H 0.62502 0.9078 0.59236 0.0
H1892 H 0.6603 0.91206 0.62594 0.0
H1893 H 0.64145 0.91065 0.64617 0.0
C1894 C 0.61123 0.90971 0.64249 0.0
C1895 C 0.59571 0.90976 0.63882 0.0
C1896 C 0.62224 0.90876 0.63101 0.0
C1897 C 0.59133 0.90768 0.62364 0.0
C1898 C 0.60221 0.90654 0.61219 0.0
C1899 C 0.62861 0.90816 0.60411 0.0
C1900 C 0.64402 0.9102 0.60763 0.0
C1901 C 0.61768 0.90755 0.61569 0.0
C1902 C 0.64849 0.91057 0.62291 0.0
C1903 C 0.63771 0.90982 0.6345 0.0
H1904 H 0.62703 0.09309 0.40699 0.0
H1905 H 0.66398 0.09864 0.37549 0.0
H1906 H 0.64598 0.10106 0.35456 0.0
H1907 H 0.61991 0.09801 0.34485 0.0
H1908 H 0.58329 0.09094 0.37645 0.0
H1909 H 0.60091 0.09288 0.39765 0.0
C1910 C 0.63114 0.09516 0.39559 0.0
C1911 C 0.64682 0.09554 0.39278 0.0
C1912 C 0.62075 0.0961 0.38358 0.0
C1913 C 0.65196 0.09824 0.37795 0.0
C1914 C 0.64167 0.09954 0.36595 0.0
C1915 C 0.61577 0.09724 0.35639 0.0
C1916 C 0.60035 0.0942 0.35908 0.0
C1917 C 0.62606 0.09795 0.36856 0.0
C1918 C 0.59513 0.09316 0.37409 0.0
C1919 C 0.60521 0.09423 0.38623 0.0
H1920 H 0.90931 0.58777 0.37496 0.0
H1921 H 0.91155 0.6162 0.33525 0.0
H1922 H 0.90806 0.63872 0.35096 0.0
H1923 H 0.90795 0.65046 0.37625 0.0
H1924 H 0.90631 0.62199 0.41597 0.0
H1925 H 0.90575 0.59942 0.4 0.0
C1926 C 0.90872 0.59887 0.36971 0.0
C1927 C 0.91089 0.60032 0.35399 0.0
C1928 C 0.90697 0.6118 0.37884 0.0
C1929 C 0.91 0.61477 0.34734 0.0
C1930 C 0.90808 0.62768 0.35633 0.0
C1931 C 0.90715 0.63933 0.3814 0.0
C1932 C 0.90738 0.6379 0.39727 0.0
C1933 C 0.90709 0.62636 0.37214 0.0
C1934 C 0.90625 0.62341 0.40378 0.0
C1935 C 0.906 0.61047 0.39465 0.0
H1936 H 0.4029 0.91555 0.37437 0.0
H1937 H 0.37243 0.90898 0.33671 0.0
H1938 H 0.35116 0.90616 0.35419 0.0
H1939 H 0.34076 0.90936 0.37987 0.0
H1940 H 0.37124 0.91647 0.41744 0.0
H1941 H 0.39294 0.915 0.40036 0.0
C1942 C 0.39166 0.91318 0.37001 0.0
C1943 C 0.38921 0.9127 0.35427 0.0
C1944 C 0.37943 0.9118 0.38012 0.0
C1945 C 0.37461 0.90949 0.34878 0.0
C1946 C 0.36241 0.90795 0.35877 0.0
C1947 C 0.35217 0.91024 0.38437 0.0
C1948 C 0.35437 0.91324 0.39987 0.0
C1949 C 0.36461 0.90966 0.37443 0.0
C1950 C 0.36922 0.91425 0.40554 0.0
C1951 C 0.38165 0.9135 0.39576 0.0
H1952 H 0.09438 0.37964 0.34373 0.0
H1953 H 0.09005 0.41652 0.37554 0.0
H1954 H 0.09357 0.39894 0.39664 0.0
H1955 H 0.0947 0.37274 0.40609 0.0
H1956 H 0.09828 0.3358 0.37426 0.0
H1957 H 0.09849 0.35375 0.35319 0.0
C1958 C 0.09448 0.38387 0.35527 0.0
C1959 C 0.09179 0.39935 0.35806 0.0
C1960 C 0.09627 0.37366 0.36738 0.0
C1961 C 0.09202 0.40465 0.37308 0.0
C1962 C 0.09397 0.3946 0.38516 0.0
C1963 C 0.09585 0.36863 0.39456 0.0
C1964 C 0.09633 0.35294 0.39175 0.0
C1965 C 0.09565 0.37901 0.38246 0.0
C1966 C 0.09783 0.34781 0.37674 0.0
C1967 C 0.09787 0.35807 0.36467 0.0
H1968 H 0.348 0.09725 0.61771 0.0
H1969 H 0.3769 0.08156 0.58151 0.0
H1970 H 0.39883 0.08256 0.59829 0.0
H1971 H 0.40919 0.08479 0.62402 0.0
H1972 H 0.38039 0.10033 0.66034 0.0
H1973 H 0.35915 0.10268 0.64274 0.0
C1974 C 0.35915 0.09435 0.61342 0.0
C1975 C 0.36076 0.08916 0.59843 0.0
C1976 C 0.37173 0.09477 0.6232 0.0
C1977 C 0.3753 0.08551 0.59302 0.0
C1978 C 0.38787 0.08601 0.60263 0.0
C1979 C 0.39834 0.08895 0.62803 0.0
C1980 C 0.39633 0.09219 0.64349 0.0
C1981 C 0.38612 0.09014 0.61787 0.0
C1982 C 0.38223 0.09769 0.64849 0.0
C1983 C 0.37004 0.09897 0.63844 0.0
H1984 H 0.90529 0.34596 0.62625 0.0
H1985 H 0.90765 0.3767 0.5883 0.0
H1986 H 0.90588 0.39832 0.60547 0.0
H1987 H 0.90777 0.40836 0.63139 0.0
H1988 H 0.90632 0.37753 0.66932 0.0
H1989 H 0.90338 0.35613 0.65206 0.0
C1990 C 0.90507 0.35738 0.62171 0.0
C1991 C 0.90684 0.35973 0.60606 0.0
C1992 C 0.90438 0.36977 0.63168 0.0
C1993 C 0.90641 0.37459 0.60033 0.0
C1994 C 0.90548 0.38697 0.61015 0.0
C1995 C 0.90646 0.39699 0.63588 0.0
C1996 C 0.90751 0.3945 0.65158 0.0
C1997 C 0.90509 0.38469 0.62587 0.0
C1998 C 0.90569 0.37973 0.65726 0.0
C1999 C 0.90407 0.36747 0.64739 0.0
H2000 H 0.10099 0.59761 0.63597 0.0
H2001 H 0.08834 0.62709 0.67287 0.0
H2002 H 0.09103 0.64916 0.65644 0.0
H2003 H 0.0938 0.65975 0.63092 0.0
H2004 H 0.10529 0.6303 0.59363 0.0
H2005 H 0.10649 0.60866 0.61088 0.0
C2006 C 0.09913 0.60889 0.64048 0.0
C2007 C 0.09434 0.61069 0.65558 0.0
C2008 C 0.10037 0.62156 0.63085 0.0
C2009 C 0.09193 0.62538 0.66126 0.0
C2010 C 0.09343 0.63802 0.65186 0.0
C2011 C 0.09688 0.64866 0.62661 0.0
C2012 C 0.09932 0.64663 0.61099 0.0
C2013 C 0.09717 0.6362 0.63653 0.0
C2014 C 0.10331 0.63217 0.6056 0.0
C2015 C 0.10391 0.61976 0.61545 0.0
H2016 H 0.09558 0.22371 0.43282 0.0
H2017 H 0.0714 0.22151 0.3904 0.0
H2018 H 0.07266 0.24913 0.38809 0.0
H2019 H 0.07877 0.27402 0.39926 0.0
H2020 H 0.10343 0.27603 0.44144 0.0
H2021 H 0.10402 0.24838 0.44261 0.0
C2022 C 0.09072 0.22928 0.42299 0.0
C2023 C 0.08327 0.22061 0.41187 0.0
C2024 C 0.09155 0.24513 0.42172 0.0
C2025 C 0.07718 0.22794 0.39912 0.0
C2026 C 0.07785 0.24373 0.39782 0.0
C2027 C 0.08447 0.2684 0.40859 0.0
C2028 C 0.09093 0.27707 0.42031 0.0
C2029 C 0.08473 0.25247 0.40921 0.0
C2030 C 0.09835 0.26963 0.43228 0.0
C2031 C 0.09863 0.25381 0.43299 0.0
H2032 H 0.77571 0.09196 0.43094 0.0
H2033 H 0.77724 0.06512 0.39012 0.0
H2034 H 0.74959 0.06595 0.38835 0.0
H2035 H 0.72493 0.07236 0.39973 0.0
H2036 H 0.72345 0.09953 0.44035 0.0
H2037 H 0.75112 0.10064 0.44081 0.0
C2038 C 0.76999 0.08646 0.42155 0.0
C2039 C 0.77849 0.07837 0.41075 0.0
C2040 C 0.7541 0.08697 0.42063 0.0
C2041 C 0.77095 0.07141 0.39858 0.0
C2042 C 0.75514 0.07182 0.3976 0.0
C2043 C 0.73067 0.07868 0.40857 0.0
C2044 C 0.72217 0.08573 0.42008 0.0
C2045 C 0.74659 0.07926 0.40876 0.0
C2046 C 0.72974 0.09399 0.43138 0.0
C2047 C 0.74557 0.09457 0.43168 0.0
H2048 H 0.89676 0.77054 0.42374 0.0
H2049 H 0.93164 0.77472 0.38975 0.0
H2050 H 0.93275 0.74713 0.38728 0.0
H2051 H 0.92594 0.72187 0.39704 0.0
H2052 H 0.89118 0.71785 0.4312 0.0
H2053 H 0.88776 0.7453 0.4312 0.0
C2054 C 0.90443 0.76542 0.41561 0.0
C2055 C 0.91423 0.77464 0.40707 0.0
C2056 C 0.9051 0.74957 0.41437 0.0
C2057 C 0.924 0.76786 0.39648 0.0
C2058 C 0.92469 0.75208 0.39512 0.0
C2059 C 0.91742 0.72699 0.40428 0.0
C2060 C 0.90895 0.71785 0.41424 0.0
C2061 C 0.91563 0.74282 0.40434 0.0
C2062 C 0.8979 0.72463 0.42348 0.0
C2063 C 0.89598 0.74034 0.42354 0.0
H2064 H 0.22151 0.93544 0.40179 0.0
H2065 H 0.21825 0.89953 0.43481 0.0
H2066 H 0.24578 0.8968 0.43487 0.0
H2067 H 0.27087 0.90636 0.42754 0.0
H2068 H 0.27418 0.94317 0.39556 0.0
H2069 H 0.24663 0.94364 0.39292 0.0
C2070 C 0.22682 0.92687 0.40882 0.0
C2071 C 0.21787 0.91779 0.41836 0.0
C2072 C 0.2427 0.92556 0.40903 0.0
C2073 C 0.22491 0.90674 0.42743 0.0
C2074 C 0.24066 0.90517 0.42749 0.0
C2075 C 0.26557 0.91428 0.41977 0.0
C2076 C 0.27453 0.92475 0.41181 0.0
C2077 C 0.24969 0.91477 0.41862 0.0
C2078 C 0.26751 0.93502 0.40185 0.0
C2079 C 0.25175 0.93534 0.40038 0.0
H2080 H 0.07683 0.72871 0.60448 0.0
H2081 H 0.11013 0.72549 0.56884 0.0
H2082 H 0.11089 0.75311 0.56685 0.0
H2083 H 0.09986 0.77795 0.5732 0.0
H2084 H 0.06634 0.78108 0.60866 0.0
H2085 H 0.06803 0.75378 0.61288 0.0
C2086 C 0.08445 0.73406 0.59646 0.0
C2087 C 0.0933 0.72505 0.58671 0.0
C2088 C 0.08469 0.74994 0.59526 0.0
C2089 C 0.10318 0.73216 0.57645 0.0
C2090 C 0.10356 0.74796 0.57525 0.0
C2091 C 0.09312 0.77269 0.58203 0.0
C2092 C 0.08287 0.78152 0.59049 0.0
C2093 C 0.09403 0.75694 0.58428 0.0
C2094 C 0.07428 0.77455 0.60195 0.0
C2095 C 0.07519 0.75892 0.60432 0.0
H2096 H 0.22684 0.10001 0.56745 0.0
H2097 H 0.22039 0.06566 0.60162 0.0
H2098 H 0.24776 0.06442 0.60577 0.0
H2099 H 0.27358 0.07123 0.59781 0.0
H2100 H 0.28006 0.10579 0.56385 0.0
H2101 H 0.25262 0.10901 0.56168 0.0
C2102 C 0.23143 0.0924 0.57594 0.0
C2103 C 0.22164 0.0828 0.58408 0.0
C2104 C 0.24717 0.09176 0.57827 0.0
C2105 C 0.2277 0.07312 0.59517 0.0
C2106 C 0.24335 0.07237 0.59751 0.0
C2107 C 0.26899 0.07966 0.59013 0.0
C2108 C 0.27883 0.08816 0.5809 0.0
C2109 C 0.25321 0.08136 0.58886 0.0
C2110 C 0.27273 0.09911 0.57108 0.0
C2111 C 0.25703 0.10088 0.56976 0.0
H2112 H 0.90023 0.27726 0.57314 0.0
H2113 H 0.93224 0.28034 0.60995 0.0
H2114 H 0.93283 0.25275 0.61202 0.0
H2115 H 0.92672 0.22774 0.60119 0.0
H2116 H 0.89555 0.2249 0.56362 0.0
H2117 H 0.89203 0.25229 0.56415 0.0
C2118 C 0.90709 0.2719 0.58182 0.0
C2119 C 0.91628 0.28082 0.59127 0.0
C2120 C 0.90765 0.25602 0.58271 0.0
C2121 C 0.92512 0.27372 0.60247 0.0
C2122 C 0.92551 0.25793 0.60362 0.0
C2123 C 0.91893 0.2331 0.59333 0.0
C2124 C 0.91154 0.22433 0.58229 0.0
C2125 C 0.91721 0.24895 0.59348 0.0
C2126 C 0.90149 0.23142 0.57216 0.0
C2127 C 0.89949 0.2471 0.57242 0.0
H2128 H 0.77347 0.90466 0.57121 0.0
H2129 H 0.77616 0.93792 0.60694 0.0
H2130 H 0.74856 0.93789 0.60928 0.0
H2131 H 0.72361 0.93043 0.59927 0.0
H2132 H 0.72094 0.89685 0.56385 0.0
H2133 H 0.74856 0.89486 0.5634 0.0
C2134 C 0.76801 0.91171 0.57968 0.0
C2135 C 0.77682 0.9214 0.58878 0.0
C2136 C 0.75214 0.91167 0.58093 0.0
C2137 C 0.76963 0.93037 0.59979 0.0
C2138 C 0.75384 0.93043 0.60108 0.0
C2139 C 0.72908 0.92252 0.59161 0.0
C2140 C 0.72027 0.91393 0.58148 0.0
C2141 C 0.74497 0.92144 0.59142 0.0
C2142 C 0.72747 0.90361 0.57173 0.0
C2143 C 0.74327 0.90252 0.57142 0.0
H2144 H 0.40182 0.06977 0.27026 0.0
H2145 H 0.42505 0.11274 0.27248 0.0
H2146 H 0.42518 0.11429 0.24486 0.0
H2147 H 0.42183 0.10176 0.22022 0.0
H2148 H 0.39866 0.05878 0.21795 0.0
H2149 H 0.39517 0.05901 0.24542 0.0
C2150 C 0.40663 0.07961 0.26469 0.0
C2151 C 0.4136 0.09101 0.27338 0.0
C2152 C 0.40681 0.08036 0.2488 0.0
C2153 C 0.41966 0.10378 0.26604 0.0
C2154 C 0.41983 0.10463 0.25024 0.0
C2155 C 0.41577 0.09258 0.22572 0.0
C2156 C 0.41071 0.08016 0.21712 0.0
C2157 C 0.41392 0.09273 0.24152 0.0
C2158 C 0.40272 0.06844 0.22434 0.0
C2159 C 0.40079 0.06852 0.24006 0.0
H2160 H 0.89556 0.41605 0.22756 0.0
H2161 H 0.93443 0.38675 0.22277 0.0
H2162 H 0.93597 0.38401 0.25024 0.0
H2163 H 0.92851 0.39283 0.27553 0.0
H2164 H 0.8899 0.4224 0.28048 0.0
H2165 H 0.88589 0.422 0.25305 0.0
C2166 C 0.90416 0.40881 0.23252 0.0
C2167 C 0.915 0.40179 0.22316 0.0
C2168 C 0.90513 0.40747 0.24836 0.0
C2169 C 0.92601 0.39235 0.22973 0.0
C2170 C 0.92695 0.39084 0.24545 0.0
C2171 C 0.91905 0.39896 0.27063 0.0
C2172 C 0.90964 0.4078 0.27996 0.0
C2173 C 0.91693 0.39881 0.25487 0.0
C2174 C 0.89733 0.41555 0.27351 0.0
C2175 C 0.89508 0.41539 0.25782 0.0
H2176 H 0.57256 0.90241 0.27646 0.0
H2177 H 0.59375 0.94635 0.27964 0.0
H2178 H 0.59769 0.94668 0.25228 0.0
H2179 H 0.59297 0.93564 0.2272 0.0
H2180 H 0.57053 0.89236 0.22375 0.0
H2181 H 0.56941 0.89052 0.25136 0.0
C2182 C 0.57825 0.91193 0.27117 0.0
C2183 C 0.58278 0.92436 0.28005 0.0
C2184 C 0.58018 0.91221 0.25534 0.0
C2185 C 0.59007 0.93667 0.27304 0.0
C2186 C 0.59232 0.93689 0.25738 0.0
C2187 C 0.58807 0.92569 0.2325 0.0
C2188 C 0.5818 0.91419 0.22345 0.0
C2189 C 0.58711 0.92489 0.24838 0.0
C2190 C 0.57541 0.9014 0.23048 0.0
C2191 C 0.57471 0.90036 0.24627 0.0
H2192 H 0.10242 0.57593 0.22764 0.0
H2193 H 0.06562 0.60795 0.22399 0.0
H2194 H 0.06466 0.61025 0.25154 0.0
H2195 H 0.07255 0.60125 0.27666 0.0
H2196 H 0.10943 0.56939 0.28047 0.0
H2197 H 0.11222 0.56908 0.25289 0.0
C2198 C 0.09434 0.58358 0.23288 0.0
C2199 C 0.084 0.59163 0.2238 0.0
C2200 C 0.09381 0.5848 0.24876 0.0
C2201 C 0.07368 0.60159 0.23073 0.0
C2202 C 0.07308 0.60286 0.24649 0.0
C2203 C 0.08134 0.5944 0.27146 0.0
C2204 C 0.09067 0.58524 0.28056 0.0
C2205 C 0.08282 0.59424 0.25562 0.0
C2206 C 0.1021 0.57654 0.2737 0.0
C2207 C 0.10364 0.5763 0.25792 0.0
H2208 H 0.39993 0.93393 0.7761 0.0
H2209 H 0.42694 0.89336 0.77993 0.0
H2210 H 0.42718 0.89071 0.75235 0.0
H2211 H 0.42198 0.90149 0.72704 0.0
H2212 H 0.39591 0.94273 0.72358 0.0
H2213 H 0.39301 0.94349 0.75102 0.0
C2214 C 0.40562 0.92434 0.77092 0.0
C2215 C 0.41346 0.91391 0.78004 0.0
C2216 C 0.40606 0.92311 0.75506 0.0
C2217 C 0.42083 0.90157 0.77315 0.0
C2218 C 0.42105 0.90009 0.75737 0.0
C2219 C 0.4155 0.91051 0.73231 0.0
C2220 C 0.4093 0.9221 0.7233 0.0
C2221 C 0.41407 0.91104 0.74819 0.0
C2222 C 0.40092 0.93373 0.73027 0.0
C2223 C 0.39924 0.93419 0.74597 0.0
H2224 H 0.09656 0.43274 0.78049 0.0
H2225 H 0.07111 0.39103 0.78225 0.0
H2226 H 0.07232 0.38895 0.75466 0.0
H2227 H 0.0783 0.40036 0.72997 0.0
H2228 H 0.10394 0.44193 0.72812 0.0
H2229 H 0.10516 0.44258 0.75581 0.0
C2230 C 0.09147 0.42308 0.77484 0.0
C2231 C 0.08361 0.41214 0.78339 0.0
C2232 C 0.09218 0.42198 0.75896 0.0
C2233 C 0.07719 0.39963 0.77593 0.0
C2234 C 0.07782 0.39846 0.76015 0.0
C2235 C 0.08437 0.40944 0.73563 0.0
C2236 C 0.09089 0.42117 0.72702 0.0
C2237 C 0.08494 0.40977 0.75153 0.0
C2238 C 0.09882 0.43278 0.73449 0.0
C2239 C 0.09944 0.4332 0.75033 0.0
H2240 H 0.57827 0.10198 0.72518 0.0
H2241 H 0.60379 0.06042 0.72168 0.0
H2242 H 0.6067 0.05964 0.74916 0.0
H2243 H 0.59941 0.06908 0.77433 0.0
H2244 H 0.57293 0.11002 0.7779 0.0
H2245 H 0.57315 0.11281 0.75038 0.0
C2246 C 0.58474 0.09294 0.73042 0.0
C2247 C 0.5907 0.08123 0.7214 0.0
C2248 C 0.58607 0.09235 0.7463 0.0
C2249 C 0.599 0.06954 0.72837 0.0
C2250 C 0.60064 0.06904 0.7441 0.0
C2251 C 0.59393 0.07876 0.76909 0.0
C2252 C 0.58606 0.08924 0.77815 0.0
C2253 C 0.59382 0.08013 0.75321 0.0
C2254 C 0.579 0.10173 0.77119 0.0
C2255 C 0.57908 0.10332 0.75543 0.0
H2256 H 0.90165 0.5673 0.72278 0.0
H2257 H 0.92781 0.60846 0.71945 0.0
H2258 H 0.92748 0.61111 0.74701 0.0
H2259 H 0.92253 0.59997 0.77212 0.0
H2260 H 0.89744 0.55812 0.77526 0.0
H2261 H 0.89447 0.55758 0.74779 0.0
C2262 C 0.90701 0.57702 0.72807 0.0
C2263 C 0.91485 0.58759 0.7191 0.0
C2264 C 0.90713 0.57825 0.74393 0.0
C2265 C 0.92175 0.60012 0.72612 0.0
C2266 C 0.92163 0.60161 0.74188 0.0
C2267 C 0.91619 0.59089 0.7668 0.0
C2268 C 0.91036 0.57903 0.77569 0.0
C2269 C 0.91479 0.59047 0.75093 0.0
C2270 C 0.90215 0.56733 0.76865 0.0
C2271 C 0.90046 0.56699 0.75293 0.0
H2272 H 0.22073 0.43209 0.09856 0.0
H2273 H 0.21736 0.39572 0.06606 0.0
H2274 H 0.24489 0.39249 0.06661 0.0
H2275 H 0.26998 0.4021 0.07402 0.0
H2276 H 0.27326 0.43877 0.10621 0.0
H2277 H 0.24567 0.43964 0.10826 0.0
C2278 C 0.226 0.4233 0.09177 0.0
C2279 C 0.21707 0.41429 0.08213 0.0
C2280 C 0.24181 0.42164 0.09202 0.0
C2281 C 0.22401 0.40284 0.07352 0.0
C2282 C 0.23975 0.40104 0.07378 0.0
C2283 C 0.26466 0.4101 0.08168 0.0
C2284 C 0.27363 0.42048 0.0898 0.0
C2285 C 0.24879 0.41068 0.08264 0.0
C2286 C 0.2666 0.43071 0.09978 0.0
C2287 C 0.25082 0.43126 0.1009 0.0
H2288 H 0.22853 0.56907 0.90354 0.0
H2289 H 0.22347 0.60966 0.9303 0.0
H2290 H 0.25101 0.6127 0.93115 0.0
H2291 H 0.2765 0.60232 0.92647 0.0
H2292 H 0.28145 0.5617 0.89969 0.0
H2293 H 0.25399 0.56027 0.8965 0.0
C2294 C 0.23345 0.57869 0.90938 0.0
C2295 C 0.224 0.58903 0.91699 0.0
C2296 C 0.24928 0.58031 0.90989 0.0
C2297 C 0.23051 0.60153 0.92439 0.0
C2298 C 0.24626 0.60323 0.92493 0.0
C2299 C 0.27157 0.59328 0.91975 0.0
C2300 C 0.28098 0.58204 0.91346 0.0
C2301 C 0.25576 0.59247 0.91806 0.0
C2302 C 0.27446 0.57047 0.90468 0.0
C2303 C 0.25875 0.56961 0.90291 0.0
H2304 H 0.42928 0.22126 0.90047 0.0
H2305 H 0.40278 0.21832 0.94145 0.0
H2306 H 0.39967 0.24583 0.94162 0.0
H2307 H 0.40668 0.27083 0.93157 0.0
H2308 H 0.4332 0.27385 0.89061 0.0
H2309 H 0.43395 0.2462 0.88888 0.0
C2310 C 0.42263 0.22663 0.90931 0.0
C2311 C 0.4164 0.21778 0.92101 0.0
C2312 C 0.42098 0.24247 0.90939 0.0
C2313 C 0.40773 0.22488 0.93233 0.0
C2314 C 0.406 0.24062 0.93247 0.0
C2315 C 0.41244 0.26544 0.92214 0.0
C2316 C 0.42 0.27436 0.91132 0.0
C2317 C 0.41291 0.24955 0.92128 0.0
C2318 C 0.42731 0.26723 0.89911 0.0
C2319 C 0.42781 0.25142 0.89815 0.0
H2320 H 0.77463 0.42197 0.90177 0.0
H2321 H 0.7762 0.39181 0.94021 0.0
H2322 H 0.74852 0.39102 0.9409 0.0
H2323 H 0.72405 0.40151 0.93262 0.0
H2324 H 0.72255 0.432 0.89443 0.0
H2325 H 0.75001 0.42992 0.89149 0.0
C2326 C 0.76892 0.415 0.91012 0.0
C2327 C 0.77745 0.40711 0.92104 0.0
C2328 C 0.75301 0.41478 0.91059 0.0
C2329 C 0.7699 0.39803 0.93171 0.0
C2330 C 0.75406 0.39764 0.93217 0.0
C2331 C 0.72971 0.4075 0.92349 0.0
C2332 C 0.72131 0.41705 0.91388 0.0
C2333 C 0.74552 0.40638 0.92198 0.0
C2334 C 0.72876 0.42463 0.90202 0.0
C2335 C 0.74448 0.42349 0.90038 0.0
H2336 H 0.60025 0.78012 0.92494 0.0
H2337 H 0.56228 0.78047 0.89413 0.0
H2338 H 0.56305 0.7529 0.89251 0.0
H2339 H 0.57261 0.72856 0.9021 0.0
H2340 H 0.61015 0.72817 0.93341 0.0
H2341 H 0.61158 0.75576 0.9324 0.0
C2342 C 0.59233 0.77417 0.91767 0.0
C2343 C 0.58114 0.78233 0.90981 0.0
C2344 C 0.59268 0.75825 0.91695 0.0
C2345 C 0.57095 0.77445 0.9004 0.0
C2346 C 0.57135 0.75866 0.89948 0.0
C2347 C 0.58128 0.7345 0.90846 0.0
C2348 C 0.59115 0.72633 0.91792 0.0
C2349 C 0.58188 0.75042 0.90804 0.0
C2350 C 0.60235 0.73419 0.9261 0.0
C2351 C 0.60315 0.74999 0.92558 0.0
H2352 H 0.72738 0.59729 0.08028 0.0
H2353 H 0.72417 0.561 0.11289 0.0
H2354 H 0.75177 0.56022 0.11498 0.0
H2355 H 0.77679 0.56792 0.10541 0.0
H2356 H 0.78 0.60414 0.07272 0.0
H2357 H 0.75245 0.60697 0.07292 0.0
C2358 C 0.73271 0.58939 0.08804 0.0
C2359 C 0.72374 0.57911 0.0963 0.0
C2360 C 0.7486 0.5889 0.08907 0.0
C2361 C 0.73081 0.56901 0.10637 0.0
C2362 C 0.7466 0.5685 0.10752 0.0
C2363 C 0.77147 0.57659 0.0985 0.0
C2364 C 0.78041 0.58569 0.08894 0.0
C2365 C 0.75561 0.57809 0.09859 0.0
C2366 C 0.77337 0.59695 0.08015 0.0
C2367 C 0.75761 0.59854 0.0802 0.0
H2368 H 0.4116 0.72405 0.06845 0.0
H2369 H 0.44008 0.72237 0.10815 0.0
H2370 H 0.43973 0.75005 0.10974 0.0
H2371 H 0.43276 0.77471 0.09878 0.0
H2372 H 0.40403 0.77633 0.05924 0.0
H2373 H 0.4029 0.74866 0.05875 0.0
C2374 C 0.41763 0.72975 0.07752 0.0
C2375 C 0.42598 0.72121 0.08808 0.0
C2376 C 0.41735 0.74563 0.07837 0.0
C2377 C 0.43361 0.72871 0.09986 0.0
C2378 C 0.43344 0.74453 0.10075 0.0
C2379 C 0.42612 0.76901 0.09016 0.0
C2380 C 0.41859 0.77755 0.07899 0.0
C2381 C 0.42556 0.7531 0.08992 0.0
C2382 C 0.40994 0.77001 0.06796 0.0
C2383 C 0.40934 0.75419 0.06763 0.0
H2384 H 0.57887 0.22137 0.09946 0.0
H2385 H 0.60378 0.21815 0.05751 0.0
H2386 H 0.60514 0.24576 0.05602 0.0
H2387 H 0.59695 0.27074 0.06528 0.0
H2388 H 0.57208 0.27398 0.10724 0.0
H2389 H 0.57314 0.24645 0.11017 0.0
C2390 C 0.58479 0.22672 0.09011 0.0
C2391 C 0.59107 0.21774 0.07853 0.0
C2392 C 0.58543 0.2426 0.08927 0.0
C2393 C 0.59882 0.22481 0.06655 0.0
C2394 C 0.59953 0.2406 0.06565 0.0
C2395 C 0.59194 0.26543 0.07517 0.0
C2396 C 0.5843 0.27435 0.08594 0.0
C2397 C 0.59253 0.2496 0.07673 0.0
C2398 C 0.57799 0.26735 0.09877 0.0
C2399 C 0.57854 0.25161 0.10042 0.0
H2400 H 0.90946 0.77724 0.58256 0.0
H2401 H 0.94912 0.78281 0.55449 0.0
H2402 H 0.95204 0.75543 0.55273 0.0
H2403 H 0.94339 0.73 0.55889 0.0
H2404 H 0.90353 0.72371 0.58647 0.0
H2405 H 0.90049 0.75126 0.58854 0.0
C2406 C 0.91879 0.77241 0.57618 0.0
C2407 C 0.9291 0.78201 0.56872 0.0
C2408 C 0.92027 0.75656 0.57498 0.0
C2409 C 0.94104 0.77565 0.56033 0.0
C2410 C 0.94271 0.76 0.55928 0.0
C2411 C 0.93397 0.73463 0.5653 0.0
C2412 C 0.92369 0.72485 0.5725 0.0
C2413 C 0.93236 0.75037 0.56648 0.0
C2414 C 0.91156 0.73103 0.58076 0.0
C2415 C 0.90987 0.74677 0.58201 0.0
H2416 H 0.22221 0.93424 0.59892 0.0
H2417 H 0.21599 0.89946 0.56512 0.0
H2418 H 0.24326 0.89482 0.56458 0.0
H2419 H 0.26909 0.90254 0.5717 0.0
H2420 H 0.27529 0.93815 0.60461 0.0
H2421 H 0.2479 0.94041 0.60765 0.0
C2422 C 0.22681 0.92548 0.59162 0.0
C2423 C 0.21711 0.9173 0.58199 0.0
C2424 C 0.24254 0.92307 0.59113 0.0
C2425 C 0.22323 0.90599 0.57258 0.0
C2426 C 0.23884 0.90334 0.57224 0.0
C2427 C 0.26444 0.91058 0.57974 0.0
C2428 C 0.27419 0.92022 0.58783 0.0
C2429 C 0.24864 0.91209 0.58117 0.0
C2430 C 0.26801 0.93065 0.59818 0.0
C2431 C 0.25234 0.93199 0.5999 0.0
H2432 H 0.08907 0.22948 0.58866 0.0
H2433 H 0.06954 0.22676 0.54386 0.0
H2434 H 0.07107 0.25409 0.54123 0.0
H2435 H 0.07629 0.27889 0.55205 0.0
H2436 H 0.09595 0.28253 0.5966 0.0
H2437 H 0.09631 0.25479 0.59883 0.0
C2438 C 0.08527 0.2349 0.57831 0.0
C2439 C 0.07906 0.22606 0.56655 0.0
C2440 C 0.08622 0.25079 0.5768 0.0
C2441 C 0.07429 0.23324 0.55314 0.0
C2442 C 0.07515 0.24891 0.5516 0.0
C2443 C 0.08083 0.27362 0.56219 0.0
C2444 C 0.08599 0.28272 0.57418 0.0
C2445 C 0.08087 0.2578 0.56341 0.0
C2446 C 0.09195 0.27574 0.58719 0.0
C2447 C 0.09205 0.25989 0.58851 0.0
H2448 H 0.77436 0.09333 0.58463 0.0
H2449 H 0.77769 0.04936 0.56352 0.0
H2450 H 0.75019 0.04689 0.56371 0.0
H2451 H 0.72528 0.05755 0.56869 0.0
H2452 H 0.72116 0.10217 0.58819 0.0
H2453 H 0.74886 0.10411 0.58983 0.0
C2454 C 0.769 0.08318 0.58023 0.0
C2455 C 0.77798 0.07153 0.57408 0.0
C2456 C 0.75309 0.082 0.57999 0.0
C2457 C 0.77098 0.05849 0.56825 0.0
C2458 C 0.75527 0.05706 0.56835 0.0
C2459 C 0.73041 0.06768 0.5734 0.0
C2460 C 0.72121 0.0797 0.57832 0.0
C2461 C 0.74623 0.06881 0.574 0.0
C2462 C 0.72804 0.09278 0.5843 0.0
C2463 C 0.74386 0.09388 0.58524 0.0
H2464 H 0.90405 0.2214 0.43165 0.0
H2465 H 0.93299 0.21788 0.39241 0.0
H2466 H 0.933 0.24546 0.38977 0.0
H2467 H 0.92723 0.27055 0.40045 0.0
H2468 H 0.89878 0.27398 0.44008 0.0
H2469 H 0.89589 0.24646 0.44056 0.0
C2470 C 0.91019 0.22666 0.4224 0.0
C2471 C 0.91867 0.21764 0.41236 0.0
C2472 C 0.91026 0.24251 0.42105 0.0
C2473 C 0.92644 0.22459 0.40033 0.0
C2474 C 0.92648 0.24036 0.39884 0.0
C2475 C 0.92014 0.2653 0.409 0.0
C2476 C 0.91336 0.27428 0.4203 0.0
C2477 C 0.91879 0.24944 0.4094 0.0
C2478 C 0.90417 0.26732 0.43128 0.0
C2479 C 0.90259 0.25157 0.43162 0.0
H2480 H 0.72207 0.9271 0.40441 0.0
H2481 H 0.71719 0.89647 0.44219 0.0
H2482 H 0.74472 0.89356 0.44358 0.0
H2483 H 0.7702 0.9016 0.43552 0.0
H2484 H 0.77498 0.93213 0.39763 0.0
H2485 H 0.74746 0.93313 0.39475 0.0
C2486 C 0.72702 0.91962 0.41281 0.0
C2487 C 0.71762 0.91212 0.42327 0.0
C2488 C 0.74284 0.91809 0.4136 0.0
C2489 C 0.72419 0.90238 0.43402 0.0
C2490 C 0.73993 0.90078 0.43487 0.0
C2491 C 0.76521 0.90834 0.42653 0.0
C2492 C 0.7746 0.91691 0.41691 0.0
C2493 C 0.74937 0.90887 0.42495 0.0
C2494 C 0.768 0.92547 0.40522 0.0
C2495 C 0.75226 0.92608 0.40359 0.0
H2496 H 0.09968 0.77542 0.4304 0.0
H2497 H 0.06935 0.77778 0.39212 0.0
H2498 H 0.06968 0.75019 0.38996 0.0
H2499 H 0.07566 0.72545 0.4012 0.0
H2500 H 0.10513 0.72307 0.44015 0.0
H2501 H 0.10825 0.75058 0.43965 0.0
C2502 C 0.0934 0.76992 0.42139 0.0
C2503 C 0.08436 0.77863 0.41155 0.0
C2504 C 0.09336 0.75402 0.42043 0.0
C2505 C 0.07633 0.77134 0.39989 0.0
C2506 C 0.07646 0.75555 0.3987 0.0
C2507 C 0.08301 0.73092 0.4094 0.0
C2508 C 0.09 0.72225 0.42081 0.0
C2509 C 0.08448 0.74677 0.40925 0.0
C2510 C 0.09956 0.72949 0.43129 0.0
C2511 C 0.10129 0.74524 0.43106 0.0
H2512 H 0.22944 0.10082 0.42629 0.0
H2513 H 0.22706 0.06748 0.3906 0.0
H2514 H 0.25457 0.0685 0.3876 0.0
H2515 H 0.27941 0.07673 0.39707 0.0
H2516 H 0.28188 0.10998 0.43282 0.0
H2517 H 0.25421 0.11134 0.43367 0.0
C2518 C 0.23493 0.09394 0.41771 0.0
C2519 C 0.22626 0.08395 0.40881 0.0
C2520 C 0.25076 0.09453 0.4161 0.0
C2521 C 0.23349 0.07522 0.39763 0.0
C2522 C 0.24923 0.07576 0.39595 0.0
C2523 C 0.27389 0.08448 0.40486 0.0
C2524 C 0.28266 0.09312 0.41498 0.0
C2525 C 0.258 0.08505 0.4054 0.0
C2526 C 0.27538 0.1032 0.42492 0.0
C2527 C 0.25955 0.1039 0.42548 0.0
H2528 H 0.58369 0.91143 0.71997 0.0
H2529 H 0.55796 0.95295 0.71679 0.0
H2530 H 0.56001 0.95662 0.74399 0.0
H2531 H 0.56811 0.94776 0.76877 0.0
H2532 H 0.59386 0.90642 0.77281 0.0
H2533 H 0.59299 0.90306 0.74522 0.0
C2534 C 0.57859 0.92128 0.72527 0.0
C2535 C 0.5706 0.93184 0.71636 0.0
C2536 C 0.57984 0.92339 0.74105 0.0
C2537 C 0.56412 0.9446 0.72335 0.0
C2538 C 0.56529 0.94674 0.73893 0.0
C2539 C 0.57364 0.93805 0.76363 0.0
C2540 C 0.58097 0.92733 0.77281 0.0
C2541 C 0.57299 0.93617 0.74789 0.0
C2542 C 0.58816 0.91486 0.76596 0.0
C2543 C 0.58759 0.91291 0.7502 0.0
H2544 H 0.06621 0.5577 0.73037 0.0
H2545 H 0.09855 0.59425 0.72804 0.0
H2546 H 0.09784 0.59676 0.75574 0.0
H2547 H 0.08747 0.58865 0.78072 0.0
H2548 H 0.05526 0.55183 0.78205 0.0
H2549 H 0.0564 0.54946 0.75468 0.0
C2550 C 0.07318 0.5662 0.73589 0.0
C2551 C 0.08241 0.57578 0.72717 0.0
C2552 C 0.07264 0.5676 0.75168 0.0
C2553 C 0.09137 0.5867 0.73452 0.0
C2554 C 0.09092 0.58817 0.75035 0.0
C2555 C 0.0807 0.58017 0.77497 0.0
C2556 C 0.07127 0.57047 0.78344 0.0
C2557 C 0.08149 0.57873 0.75906 0.0
C2558 C 0.06262 0.55944 0.77585 0.0
C2559 C 0.06326 0.55805 0.76016 0.0
H2560 H 0.40306 0.06565 0.72398 0.0
H2561 H 0.42674 0.10827 0.72033 0.0
H2562 H 0.42595 0.11126 0.74784 0.0
H2563 H 0.42133 0.10023 0.77296 0.0
H2564 H 0.39779 0.05755 0.77669 0.0
H2565 H 0.39551 0.05622 0.74912 0.0
C2566 C 0.40781 0.07571 0.7292 0.0
C2567 C 0.41512 0.08662 0.72017 0.0
C2568 C 0.40743 0.07729 0.74503 0.0
C2569 C 0.4211 0.09968 0.72705 0.0
C2570 C 0.42072 0.10136 0.74278 0.0
C2571 C 0.41547 0.09077 0.76774 0.0
C2572 C 0.40991 0.07891 0.77682 0.0
C2573 C 0.41434 0.09001 0.7519 0.0
C2574 C 0.4022 0.0668 0.76994 0.0
C2575 C 0.40097 0.06599 0.75417 0.0
H2576 H 0.93014 0.40363 0.72875 0.0
H2577 H 0.90226 0.44366 0.72528 0.0
H2578 H 0.89971 0.44446 0.75284 0.0
H2579 H 0.90711 0.43499 0.77793 0.0
H2580 H 0.93491 0.39491 0.78146 0.0
H2581 H 0.93568 0.39284 0.75383 0.0
C2582 C 0.92337 0.41243 0.73403 0.0
C2583 C 0.91652 0.42366 0.72502 0.0
C2584 C 0.92201 0.41286 0.74987 0.0
C2585 C 0.90767 0.43492 0.73198 0.0
C2586 C 0.90626 0.43541 0.74774 0.0
C2587 C 0.91321 0.42571 0.77265 0.0
C2588 C 0.92107 0.4152 0.78169 0.0
C2589 C 0.91364 0.42463 0.75679 0.0
C2590 C 0.9288 0.40316 0.77472 0.0
C2591 C 0.92929 0.40201 0.75894 0.0
H2592 H 0.60071 0.06666 0.2284 0.0
H2593 H 0.57227 0.10577 0.22121 0.0
H2594 H 0.57159 0.11054 0.24846 0.0
H2595 H 0.57661 0.10187 0.27447 0.0
H2596 H 0.60393 0.06197 0.28166 0.0
H2597 H 0.6077 0.05938 0.25437 0.0
C2598 C 0.59458 0.07638 0.23279 0.0
C2599 C 0.58646 0.08577 0.2228 0.0
C2600 C 0.59396 0.07886 0.24851 0.0
C2601 C 0.57856 0.09831 0.22866 0.0
C2602 C 0.57813 0.10103 0.24425 0.0
C2603 C 0.58366 0.09281 0.27008 0.0
C2604 C 0.58991 0.08208 0.28007 0.0
C2605 C 0.58543 0.09114 0.25432 0.0
C2606 C 0.59894 0.07034 0.2742 0.0
C2607 C 0.60105 0.06881 0.25858 0.0
H2608 H 0.94894 0.56012 0.2297 0.0
H2609 H 0.91181 0.59165 0.22568 0.0
H2610 H 0.90896 0.592 0.2533 0.0
H2611 H 0.91647 0.58242 0.27859 0.0
H2612 H 0.95383 0.55102 0.28208 0.0
H2613 H 0.95708 0.55149 0.25467 0.0
C2614 C 0.9403 0.56718 0.23486 0.0
C2615 C 0.93058 0.57581 0.22567 0.0
C2616 C 0.93868 0.56723 0.25066 0.0
C2617 C 0.91946 0.58493 0.23253 0.0
C2618 C 0.91778 0.58507 0.24831 0.0
C2619 C 0.9253 0.57569 0.27332 0.0
C2620 C 0.93482 0.56662 0.28235 0.0
C2621 C 0.9272 0.5761 0.25749 0.0
C2622 C 0.94632 0.55807 0.27539 0.0
C2623 C 0.9482 0.55833 0.25971 0.0
H2624 H 0.40019 0.9355 0.22566 0.0
H2625 H 0.42663 0.89445 0.22334 0.0
H2626 H 0.42757 0.89329 0.25101 0.0
H2627 H 0.42313 0.90545 0.27582 0.0
H2628 H 0.39777 0.94723 0.27773 0.0
H2629 H 0.39415 0.94657 0.25037 0.0
C2630 C 0.4059 0.92613 0.23121 0.0
C2631 C 0.41336 0.91511 0.22247 0.0
C2632 C 0.40678 0.92578 0.24709 0.0
C2633 C 0.4208 0.9031 0.22983 0.0
C2634 C 0.42142 0.90247 0.24565 0.0
C2635 C 0.41665 0.91429 0.27024 0.0
C2636 C 0.41084 0.92643 0.27878 0.0
C2637 C 0.41481 0.91399 0.2544 0.0
C2638 C 0.40248 0.93782 0.27141 0.0
C2639 C 0.40038 0.93745 0.25575 0.0
H2640 H 0.06829 0.40225 0.27493 0.0
H2641 H 0.10616 0.43283 0.27951 0.0
H2642 H 0.10918 0.43344 0.25198 0.0
H2643 H 0.09895 0.42787 0.22662 0.0
H2644 H 0.06078 0.39762 0.22215 0.0
H2645 H 0.06014 0.39412 0.24959 0.0
C2646 C 0.07738 0.40884 0.26991 0.0
C2647 C 0.08687 0.41763 0.27924 0.0
C2648 C 0.07892 0.40928 0.25408 0.0
C2649 C 0.09867 0.42599 0.27259 0.0
C2650 C 0.10035 0.42641 0.25683 0.0
C2651 C 0.09068 0.42027 0.23163 0.0
C2652 C 0.07981 0.41316 0.22237 0.0
C2653 C 0.09023 0.41849 0.24746 0.0
C2654 C 0.06924 0.40329 0.22902 0.0
C2655 C 0.06881 0.40134 0.24473 0.0
H2656 H 0.73308 0.59559 0.94074 0.0
H2657 H 0.72678 0.56496 0.90316 0.0
H2658 H 0.75424 0.56314 0.89985 0.0
H2659 H 0.78001 0.56859 0.90903 0.0
H2660 H 0.78622 0.5994 0.94649 0.0
H2661 H 0.75883 0.60295 0.94834 0.0
C2662 C 0.73772 0.58864 0.93173 0.0
C2663 C 0.72794 0.5803 0.92231 0.0
C2664 C 0.7535 0.58764 0.9299 0.0
C2665 C 0.73409 0.57146 0.91058 0.0
C2666 C 0.74978 0.57038 0.90871 0.0
C2667 C 0.77536 0.57624 0.91746 0.0
C2668 C 0.78511 0.58363 0.92768 0.0
C2669 C 0.75959 0.57817 0.9185 0.0
C2670 C 0.77895 0.59358 0.93849 0.0
C2671 C 0.76329 0.59556 0.9396 0.0
H2672 H 0.76971 0.43313 0.09694 0.0
H2673 H 0.77336 0.39401 0.06783 0.0
H2674 H 0.74578 0.39158 0.06736 0.0
H2675 H 0.72068 0.40196 0.07336 0.0
H2676 H 0.71698 0.44105 0.1025 0.0
H2677 H 0.74456 0.44204 0.10494 0.0
C2678 C 0.76447 0.42396 0.09066 0.0
C2679 C 0.77353 0.41386 0.08231 0.0
C2680 C 0.74862 0.42269 0.09037 0.0
C2681 C 0.76661 0.40196 0.07431 0.0
C2682 C 0.75085 0.4006 0.07399 0.0
C2683 C 0.72591 0.41058 0.08039 0.0
C2684 C 0.71685 0.42151 0.08761 0.0
C2685 C 0.74175 0.41111 0.08168 0.0
C2686 C 0.72374 0.43254 0.09679 0.0
C2687 C 0.7395 0.43314 0.09815 0.0
H2688 H 0.60469 0.72743 0.07489 0.0
H2689 H 0.56937 0.72522 0.10863 0.0
H2690 H 0.56893 0.75289 0.11016 0.0
H2691 H 0.57645 0.77757 0.09967 0.0
H2692 H 0.6111 0.77967 0.06523 0.0
H2693 H 0.61412 0.75217 0.06639 0.0
C2694 C 0.59706 0.73299 0.08275 0.0
C2695 C 0.58695 0.7243 0.09151 0.0
C2696 C 0.5967 0.74888 0.08338 0.0
C2697 C 0.57721 0.73166 0.10172 0.0
C2698 C 0.57692 0.74748 0.10256 0.0
C2699 C 0.58487 0.77204 0.09262 0.0
C2700 C 0.59344 0.78063 0.08227 0.0
C2701 C 0.5863 0.7562 0.09311 0.0
C2702 C 0.60433 0.77331 0.07325 0.0
C2703 C 0.606 0.75758 0.07385 0.0
H2704 H 0.27586 0.60429 0.07735 0.0
H2705 H 0.27937 0.56765 0.10954 0.0
H2706 H 0.25179 0.56692 0.11192 0.0
H2707 H 0.22681 0.57427 0.10218 0.0
H2708 H 0.22324 0.61005 0.06905 0.0
H2709 H 0.25072 0.61368 0.06985 0.0
C2710 C 0.27061 0.59636 0.08514 0.0
C2711 C 0.27964 0.58593 0.09314 0.0
C2712 C 0.25473 0.59574 0.08614 0.0
C2713 C 0.27267 0.57575 0.1032 0.0
C2714 C 0.25689 0.57528 0.1045 0.0
C2715 C 0.23201 0.58306 0.09534 0.0
C2716 C 0.22303 0.59176 0.08543 0.0
C2717 C 0.24782 0.58484 0.09561 0.0
C2718 C 0.22991 0.60316 0.07671 0.0
C2719 C 0.24563 0.60519 0.07712 0.0
H2720 H 0.42732 0.23184 0.09875 0.0
H2721 H 0.40005 0.22528 0.05869 0.0
H2722 H 0.39662 0.25262 0.05632 0.0
H2723 H 0.40365 0.27841 0.06404 0.0
H2724 H 0.43096 0.28509 0.10404 0.0
H2725 H 0.43192 0.25771 0.10814 0.0
C2726 C 0.42043 0.2364 0.08965 0.0
C2727 C 0.41408 0.22657 0.07883 0.0
C2728 C 0.41859 0.25216 0.08828 0.0
C2729 C 0.40509 0.23261 0.06715 0.0
C2730 C 0.40318 0.24825 0.06574 0.0
C2731 C 0.40962 0.27388 0.07378 0.0
C2732 C 0.41736 0.28374 0.08362 0.0
C2733 C 0.41022 0.25814 0.076 0.0
C2734 C 0.42494 0.27773 0.09627 0.0
C2735 C 0.42555 0.26207 0.09859 0.0
H2736 H 0.23106 0.40421 0.92643 0.0
H2737 H 0.22793 0.44198 0.89553 0.0
H2738 H 0.2554 0.4423 0.89275 0.0
H2739 H 0.28044 0.43372 0.90122 0.0
H2740 H 0.28379 0.39648 0.9327 0.0
H2741 H 0.25623 0.39394 0.93295 0.0
C2742 C 0.2364 0.41233 0.9189 0.0
C2743 C 0.22748 0.42314 0.91133 0.0
C2744 C 0.25228 0.41262 0.91752 0.0
C2745 C 0.23454 0.4336 0.90159 0.0
C2746 C 0.25027 0.43382 0.9 0.0
C2747 C 0.27515 0.42487 0.90792 0.0
C2748 C 0.28414 0.4154 0.91702 0.0
C2749 C 0.25928 0.42366 0.90823 0.0
C2750 C 0.27712 0.40397 0.92563 0.0
C2751 C 0.26134 0.40255 0.92583 0.0
H2752 H 0.59873 0.27831 0.93205 0.0
H2753 H 0.56603 0.2803 0.89575 0.0
H2754 H 0.56707 0.25273 0.89312 0.0
H2755 H 0.57529 0.22799 0.90293 0.0
H2756 H 0.6078 0.22604 0.93941 0.0
H2757 H 0.60896 0.2537 0.94005 0.0
C2758 C 0.59198 0.27272 0.92342 0.0
C2759 C 0.58219 0.2813 0.91422 0.0
C2760 C 0.59254 0.25689 0.92207 0.0
C2761 C 0.57362 0.27394 0.903 0.0
C2762 C 0.57416 0.25818 0.90154 0.0
C2763 C 0.5828 0.23362 0.91087 0.0
C2764 C 0.59133 0.225 0.92122 0.0
C2765 C 0.58328 0.24952 0.91128 0.0
C2766 C 0.60109 0.23243 0.93136 0.0
C2767 C 0.6017 0.24825 0.93177 0.0
H2768 H 0.44119 0.77345 0.93955 0.0
H2769 H 0.40067 0.77438 0.91223 0.0
H2770 H 0.40081 0.74661 0.91091 0.0
H2771 H 0.41269 0.72199 0.91756 0.0
H2772 H 0.45291 0.72178 0.94542 0.0
H2773 H 0.45269 0.74933 0.94638 0.0
C2774 C 0.43235 0.7676 0.93332 0.0
C2775 C 0.42095 0.77595 0.92599 0.0
C2776 C 0.4325 0.75174 0.93264 0.0
C2777 C 0.40956 0.76819 0.91801 0.0
C2778 C 0.40967 0.75233 0.91721 0.0
C2779 C 0.42142 0.72802 0.92376 0.0
C2780 C 0.43282 0.71985 0.93137 0.0
C2781 C 0.42113 0.74397 0.92445 0.0
C2782 C 0.444 0.72778 0.93948 0.0
C2783 C 0.44389 0.74355 0.94005 0.0
H2784 H 0.02485 0.15161 0.42499 0.0
H2785 H 0.02813 0.18733 0.3918 0.0
H2786 H 0.00051 0.18776 0.38932 0.0
H2787 H 0.97532 0.17948 0.3983 0.0
H2788 H 0.97234 0.14404 0.43186 0.0
H2789 H 0.99989 0.14191 0.43235 0.0
C2790 C 0.01954 0.15937 0.41707 0.0
C2791 C 0.02853 0.1695 0.40868 0.0
C2792 C 0.00367 0.15965 0.41582 0.0
C2793 C 0.02147 0.17943 0.39842 0.0
C2794 C 0.00567 0.17972 0.39703 0.0
C2795 C 0.9807 0.17114 0.40554 0.0
C2796 C 0.97178 0.162 0.4151 0.0
C2797 C 0.99663 0.1701 0.40592 0.0
C2798 C 0.97893 0.15125 0.42443 0.0
C2799 C 0.99471 0.15005 0.42476 0.0
H2800 H 0.847 0.01891 0.42332 0.0
H2801 H 0.81044 0.02257 0.39107 0.0
H2802 H 0.80871 0.99493 0.3897 0.0
H2803 H 0.81577 0.96985 0.39982 0.0
H2804 H 0.85188 0.96651 0.43264 0.0
H2805 H 0.85568 0.99387 0.43153 0.0
C2806 C 0.83881 0.01367 0.41581 0.0
C2807 C 0.82877 0.02277 0.40742 0.0
C2808 C 0.83771 0.99781 0.41528 0.0
C2809 C 0.81827 0.01581 0.39768 0.0
C2810 C 0.81723 1.0 0.39694 0.0
C2811 C 0.82463 0.97509 0.40654 0.0
C2812 C 0.83344 0.96617 0.4164 0.0
C2813 C 0.82661 0.9909 0.40602 0.0
C2814 C 0.84489 0.97312 0.42502 0.0
C2815 C 0.84705 0.98878 0.42442 0.0
H2816 H 0.97299 0.82768 0.3996 0.0
H2817 H 0.96793 0.81013 0.445 0.0
H2818 H 0.99524 0.81058 0.44849 0.0
H2819 H 0.02052 0.81599 0.43896 0.0
H2820 H 0.02645 0.83289 0.3935 0.0
H2821 H 0.99889 0.83269 0.38973 0.0
C2822 C 0.9779 0.82393 0.41021 0.0
C2823 C 0.96841 0.81889 0.42201 0.0
C2824 C 0.99376 0.82414 0.41217 0.0
C2825 C 0.97494 0.81404 0.43571 0.0
C2826 C 0.99058 0.81431 0.43775 0.0
C2827 C 0.01581 0.81968 0.42822 0.0
C2828 C 0.02549 0.82452 0.41656 0.0
C2829 C 1.00008 0.81937 0.42611 0.0
C2830 C 0.0192 0.82913 0.40267 0.0
C2831 C 0.00346 0.82902 0.40052 0.0
H2832 H 0.17959 0.97585 0.39866 0.0
H2833 H 0.1461 0.97463 0.4343 0.0
H2834 H 0.14494 0.00221 0.43447 0.0
H2835 H 0.15522 0.02666 0.42637 0.0
H2836 H 0.18897 0.02828 0.39106 0.0
H2837 H 0.18812 0.00065 0.38877 0.0
C2838 C 0.17186 0.98163 0.40627 0.0
C2839 C 0.16305 0.97318 0.41654 0.0
C2840 C 0.17137 0.99759 0.40646 0.0
C2841 C 0.15308 0.98084 0.42633 0.0
C2842 C 0.15243 0.99664 0.42648 0.0
C2843 C 0.16224 0.02099 0.41802 0.0
C2844 C 0.17223 0.0295 0.409 0.0
C2845 C 0.16181 0.00512 0.41688 0.0
C2846 C 0.18119 0.02199 0.39817 0.0
C2847 C 0.18075 0.00618 0.39689 0.0
H2848 H 0.9709 0.82419 0.59452 0.0
H2849 H 0.96975 0.85547 0.55694 0.0
H2850 H 0.99732 0.85681 0.55692 0.0
H2851 H 0.02174 0.84722 0.56581 0.0
H2852 H 0.0234 0.81582 0.6032 0.0
H2853 H 0.9957 0.81648 0.60516 0.0
C2854 C 0.97669 0.83151 0.58653 0.0
C2855 C 0.96828 0.83962 0.57567 0.0
C2856 C 0.99265 0.83208 0.58643 0.0
C2857 C 0.97594 0.84904 0.56536 0.0
C2858 C 0.99173 0.84978 0.5653 0.0
C2859 C 0.01605 0.84064 0.5745 0.0
C2860 C 0.02457 0.83136 0.58423 0.0
C2861 C 1.00019 0.84103 0.57549 0.0
C2862 C 0.01707 0.82303 0.59554 0.0
C2863 C 0.00124 0.82337 0.59663 0.0
H2864 H 0.17826 0.02941 0.59759 0.0
H2865 H 0.14676 0.03327 0.56037 0.0
H2866 H 0.14278 0.00593 0.56064 0.0
H2867 H 0.15008 0.98075 0.56968 0.0
H2868 H 0.18212 0.97645 0.60634 0.0
H2869 H 0.18387 0.00408 0.60822 0.0
C2870 C 0.17035 0.02428 0.58971 0.0
C2871 C 0.16291 0.03337 0.57889 0.0
C2872 C 0.16826 0.00845 0.58977 0.0
C2873 C 0.1527 0.02655 0.56875 0.0
C2874 C 0.15043 0.01089 0.56888 0.0
C2875 C 0.15727 0.98584 0.57825 0.0
C2876 C 0.16603 0.97654 0.58778 0.0
C2877 C 0.15842 0.0017 0.57907 0.0
C2878 C 0.17525 0.98334 0.59885 0.0
C2879 C 0.17632 0.99915 0.59987 0.0
H2880 H 0.02266 0.15551 0.57762 0.0
H2881 H 0.02801 0.19975 0.5977 0.0
H2882 H 0.00049 0.20185 0.6007 0.0
H2883 H 0.97481 0.19235 0.59465 0.0
H2884 H 0.96993 0.14842 0.5737 0.0
H2885 H 0.99732 0.14493 0.57412 0.0
C2886 C 0.01783 0.16551 0.58291 0.0
C2887 C 0.02734 0.17752 0.58729 0.0
C2888 C 0.00204 0.16677 0.58429 0.0
C2889 C 0.02092 0.19035 0.59421 0.0
C2890 C 0.00518 0.1916 0.59584 0.0
C2891 C 0.97974 0.18192 0.59043 0.0
C2892 C 0.97035 0.17074 0.584 0.0
C2893 C 0.9956 0.18007 0.59047 0.0
C2894 C 0.97691 0.15726 0.57859 0.0
C2895 C 0.99258 0.15526 0.57881 0.0
H2896 H 0.8197 0.02943 0.59958 0.0
H2897 H 0.85823 0.03149 0.56954 0.0
H2898 H 0.86011 0.00392 0.56973 0.0
H2899 H 0.8486 0.97926 0.57548 0.0
H2900 H 0.80992 0.97702 0.60527 0.0
H2901 H 0.81037 0.00457 0.60822 0.0
C2902 C 0.82874 0.02386 0.59339 0.0
C2903 C 0.83868 0.0325 0.58441 0.0
C2904 C 0.82957 0.00795 0.5933 0.0
C2905 C 0.85036 0.02511 0.57647 0.0
C2906 C 0.85139 0.00932 0.57649 0.0
C2907 C 0.84042 0.9848 0.5828 0.0
C2908 C 0.82911 0.97617 0.58996 0.0
C2909 C 0.84069 0.00063 0.58437 0.0
C2910 C 0.81869 0.98344 0.59957 0.0
C2911 C 0.81891 0.9992 0.60122 0.0
H2912 H 0.40156 0.02409 0.17614 0.0
H2913 H 0.44196 0.02617 0.14862 0.0
H2914 H 0.44243 0.99861 0.14687 0.0
H2915 H 0.43294 0.97397 0.15518 0.0
H2916 H 0.39296 0.97146 0.18319 0.0
H2917 H 0.39064 0.99912 0.18258 0.0
C2918 C 0.41031 0.01851 0.16955 0.0
C2919 C 0.42178 0.02716 0.16263 0.0
C2920 C 0.41066 0.00258 0.16878 0.0
C2921 C 0.43305 0.01977 0.15414 0.0
C2922 C 0.43336 0.004 0.15315 0.0
C2923 C 0.4236 0.97946 0.16101 0.0
C2924 C 0.41323 0.97071 0.16934 0.0
C2925 C 0.42247 0.9953 0.16076 0.0
C2926 C 0.40112 0.97796 0.17672 0.0
C2927 C 0.39983 0.99377 0.17642 0.0
H2928 H 0.02281 0.4027 0.1778 0.0
H2929 H 0.02325 0.44931 0.16292 0.0
H2930 H 0.99572 0.44925 0.16114 0.0
H2931 H 0.9715 0.43667 0.16539 0.0
H2932 H 0.97044 0.39021 0.1805 0.0
H2933 H 0.99821 0.38943 0.18046 0.0
C2934 C 0.01686 0.41277 0.17402 0.0
C2935 C 0.02506 0.42601 0.1706 0.0
C2936 C 0.00093 0.41271 0.17312 0.0
C2937 C 0.01722 0.43898 0.1657 0.0
C2938 C 0.00146 0.43898 0.16469 0.0
C2939 C 0.97733 0.42632 0.16856 0.0
C2940 C 0.96895 0.41355 0.17305 0.0
C2941 C 0.9932 0.42601 0.16862 0.0
C2942 C 0.97666 0.4002 0.17701 0.0
C2943 C 0.99253 0.39977 0.17704 0.0
H2944 H 0.59935 0.97212 0.18179 0.0
H2945 H 0.55894 0.96937 0.15434 0.0
H2946 H 0.55799 0.99686 0.15253 0.0
H2947 H 0.56737 0.02169 0.16022 0.0
H2948 H 0.60762 0.02513 0.18771 0.0
H2949 H 0.60998 0.99743 0.18794 0.0
C2950 C 0.59048 0.97756 0.17524 0.0
C2951 C 0.57917 0.96869 0.1683 0.0
C2952 C 0.5899 0.99351 0.17435 0.0
C2953 C 0.56774 0.9759 0.15987 0.0
C2954 C 0.56716 0.99165 0.15884 0.0
C2955 C 0.57674 0.0164 0.16617 0.0
C2956 C 0.58722 0.02543 0.17404 0.0
C2957 C 0.57797 0.00056 0.16629 0.0
C2958 C 0.59938 0.01841 0.18158 0.0
C2959 C 0.6007 0.00257 0.18174 0.0
H2960 H 0.02902 0.56727 0.15686 0.0
H2961 H 0.03065 0.60881 0.18253 0.0
H2962 H 0.00292 0.60984 0.18293 0.0
H2963 H 0.97823 0.59738 0.17822 0.0
H2964 H 0.97707 0.55563 0.15276 0.0
H2965 H 0.00452 0.55633 0.14991 0.0
C2966 C 0.02331 0.57667 0.16236 0.0
C2967 C 0.03186 0.58786 0.16978 0.0
C2968 C 0.00741 0.57709 0.16267 0.0
C2969 C 0.02431 0.60003 0.17675 0.0
C2970 C 0.00845 0.60058 0.17704 0.0
C2971 C 0.98398 0.58859 0.17183 0.0
C2972 C 0.97562 0.57639 0.16585 0.0
C2973 C 0.99988 0.58895 0.17037 0.0
C2974 C 0.98323 0.56509 0.15758 0.0
C2975 C 0.99895 0.56545 0.15597 0.0
H2976 H 0.4343 0.97657 0.84293 0.0
H2977 H 0.393 0.97158 0.81727 0.0
H2978 H 0.38981 0.99916 0.8168 0.0
H2979 H 0.40015 0.02476 0.8217 0.0
H2980 H 0.44173 0.02925 0.84709 0.0
H2981 H 0.44331 0.00182 0.84978 0.0
C2982 C 0.4245 0.9815 0.83737 0.0
C2983 C 0.41399 0.97207 0.83002 0.0
C2984 C 0.42283 0.9973 0.83704 0.0
C2985 C 0.40128 0.97861 0.82299 0.0
C2986 C 0.39948 0.99438 0.82267 0.0
C2987 C 0.40941 0.01973 0.82803 0.0
C2988 C 0.42087 0.02903 0.83407 0.0
C2989 C 0.41038 0.00386 0.82937 0.0
C2990 C 0.4328 0.02235 0.84224 0.0
C2991 C 0.43375 0.00665 0.84376 0.0
H2992 H 0.02338 0.42174 0.85292 0.0
H2993 H 0.0274 0.39125 0.81492 0.0
H2994 H 0.99979 0.38887 0.81374 0.0
H2995 H 0.97451 0.39781 0.82171 0.0
H2996 H 0.97081 0.42893 0.85926 0.0
H2997 H 0.99826 0.42858 0.8625 0.0
C2998 C 0.01823 0.41437 0.84452 0.0
C2999 C 0.02741 0.4068 0.83393 0.0
C3000 C 0.00238 0.41328 0.84375 0.0
C3001 C 0.02058 0.39723 0.82318 0.0
C3002 C 0.00479 0.39593 0.82246 0.0
C3003 C 0.9797 0.4043 0.83076 0.0
C3004 C 0.97064 0.4135 0.84014 0.0
C3005 C 0.99556 0.40425 0.83241 0.0
C3006 C 0.97753 0.42183 0.85183 0.0
C3007 C 0.99324 0.42167 0.85367 0.0
H3008 H 0.59975 0.02846 0.81868 0.0
H3009 H 0.5592 0.03218 0.84581 0.0
H3010 H 0.55833 0.00478 0.8487 0.0
H3011 H 0.56762 0.97972 0.84178 0.0
H3012 H 0.60766 0.9753 0.81411 0.0
H3013 H 0.61035 0.00294 0.8134 0.0
C3014 C 0.59086 0.02325 0.82537 0.0
C3015 C 0.57948 0.03235 0.83189 0.0
C3016 C 0.5903 0.00736 0.82687 0.0
C3017 C 0.56803 0.02545 0.84055 0.0
C3018 C 0.56751 0.00976 0.84223 0.0
C3019 C 0.57708 0.98478 0.83577 0.0
C3020 C 0.58736 0.97548 0.82793 0.0
C3021 C 0.57837 0.0006 0.83517 0.0
C3022 C 0.59959 0.98222 0.82025 0.0
C3023 C 0.60107 0.99803 0.81976 0.0
H3024 H 0.02149 0.59652 0.81698 0.0
H3025 H 0.02221 0.57388 0.86032 0.0
H3026 H 0.99463 0.57486 0.86154 0.0
H3027 H 0.97036 0.57905 0.84885 0.0
H3028 H 0.96924 0.60088 0.80514 0.0
H3029 H 0.99685 0.60352 0.80559 0.0
C3030 C 0.01561 0.59213 0.82683 0.0
C3031 C 0.02387 0.58499 0.83846 0.0
C3032 C 0.99966 0.59242 0.82732 0.0
C3033 C 0.0161 0.57932 0.85116 0.0
C3034 C 1.00032 0.57983 0.85185 0.0
C3035 C 0.97613 0.58463 0.83953 0.0
C3036 C 0.9678 0.58959 0.8269 0.0
C3037 C 0.99198 0.58586 0.83976 0.0
C3038 C 0.97541 0.59691 0.81498 0.0
C3039 C 0.99121 0.59835 0.8152 0.0
H3040 H 0.18923 0.43895 0.02314 0.0
H3041 H 0.15827 0.40121 0.02516 0.0
H3042 H 0.15907 0.39897 0.99744 0.0
H3043 H 0.16809 0.40846 0.97246 0.0
H3044 H 0.19906 0.44634 0.97133 0.0
H3045 H 0.19877 0.44772 0.99883 0.0
C3046 C 0.18266 0.43019 0.01755 0.0
C3047 C 0.17364 0.42032 0.0262 0.0
C3048 C 0.18319 0.42899 0.00173 0.0
C3049 C 0.16528 0.40898 0.01876 0.0
C3050 C 0.16574 0.40771 0.00291 0.0
C3051 C 0.17485 0.41692 0.97827 0.0
C3052 C 0.18355 0.42731 0.96981 0.0
C3053 C 0.17459 0.41774 0.99424 0.0
C3054 C 0.19223 0.43823 0.97751 0.0
C3055 C 0.19207 0.43905 0.99327 0.0
H3056 H 0.19109 0.56514 0.97491 0.0
H3057 H 0.16522 0.60641 0.97088 0.0
H3058 H 0.16423 0.6086 0.99859 0.0
H3059 H 0.17022 0.59819 0.02407 0.0
H3060 H 0.19596 0.55669 0.02728 0.0
H3061 H 0.1975 0.55523 0.99981 0.0
C3062 C 0.18526 0.57467 0.98006 0.0
C3063 C 0.1782 0.58558 0.97085 0.0
C3064 C 0.18469 0.57579 0.99589 0.0
C3065 C 0.17074 0.59786 0.97772 0.0
C3066 C 0.17016 0.59909 0.99356 0.0
C3067 C 0.17621 0.58889 0.01873 0.0
C3068 C 0.18293 0.57755 0.02775 0.0
C3069 C 0.17702 0.58805 0.00279 0.0
C3070 C 0.19065 0.56555 0.02065 0.0
C3071 C 0.19155 0.56469 0.00492 0.0
H3072 H 0.44266 0.16096 0.02665 0.0
H3073 H 0.39728 0.17884 0.02993 0.0
H3074 H 0.39445 0.1771 0.00238 0.0
H3075 H 0.40586 0.17269 0.97717 0.0
H3076 H 0.45142 0.15507 0.97433 0.0
H3077 H 0.45313 0.15441 0.00186 0.0
C3078 C 0.43207 0.1643 0.02136 0.0
C3079 C 0.42025 0.17015 0.03028 0.0
C3080 C 0.4306 0.16341 0.00556 0.0
C3081 C 0.40657 0.17433 0.02329 0.0
C3082 C 0.40497 0.1734 0.00753 0.0
C3083 C 0.41607 0.16851 0.9826 0.0
C3084 C 0.42854 0.16408 0.97371 0.0
C3085 C 0.41705 0.16829 0.99852 0.0
C3086 C 0.44168 0.15864 0.9809 0.0
C3087 C 0.44269 0.15828 0.99666 0.0
H3088 H 0.81886 0.39575 0.97863 0.0
H3089 H 0.85027 0.43292 0.9738 0.0
H3090 H 0.85303 0.43445 0.00124 0.0
H3091 H 0.84436 0.42718 0.02658 0.0
H3092 H 0.81257 0.3904 0.03166 0.0
H3093 H 0.81229 0.38663 0.00421 0.0
C3094 C 0.82649 0.40401 0.98359 0.0
C3095 C 0.83421 0.41432 0.9742 0.0
C3096 C 0.82788 0.40497 0.99944 0.0
C3097 C 0.84411 0.42493 0.98078 0.0
C3098 C 0.84568 0.42584 0.99648 0.0
C3099 C 0.83757 0.41817 0.0217 0.0
C3100 C 0.82839 0.40919 0.03111 0.0
C3101 C 0.83729 0.41622 0.00592 0.0
C3102 C 0.81971 0.3975 0.02464 0.0
C3103 C 0.81948 0.39538 0.00894 0.0
H3104 H 0.55986 0.8261 0.0205 0.0
H3105 H 0.60839 0.83088 0.02345 0.0
H3106 H 0.61012 0.83113 0.99566 0.0
H3107 H 0.59756 0.82959 0.97039 0.0
H3108 H 0.54898 0.82389 0.96852 0.0
H3109 H 0.54759 0.82436 0.99598 0.0
C3110 C 0.57084 0.82728 0.01511 0.0
C3111 C 0.58397 0.82855 0.02403 0.0
C3112 C 0.57174 0.82717 0.99927 0.0
C3113 C 0.59811 0.82993 0.01682 0.0
C3114 C 0.59909 0.83005 0.00094 0.0
C3115 C 0.58671 0.82844 0.97604 0.0
C3116 C 0.5734 0.82669 0.96738 0.0
C3117 C 0.58596 0.8286 0.99202 0.0
C3118 C 0.55941 0.82519 0.97486 0.0
C3119 C 0.55858 0.82549 0.9906 0.0
H3120 H 0.84658 0.56222 0.03118 0.0
H3121 H 0.82108 0.60387 0.0336 0.0
H3122 H 0.82198 0.60618 0.00598 0.0
H3123 H 0.82811 0.59512 0.98104 0.0
H3124 H 0.85299 0.55306 0.97891 0.0
H3125 H 0.85436 0.55224 0.00651 0.0
C3126 C 0.84136 0.5719 0.02568 0.0
C3127 C 0.83367 0.58279 0.03441 0.0
C3128 C 0.84175 0.57304 0.00983 0.0
C3129 C 0.82703 0.5953 0.02713 0.0
C3130 C 0.82751 0.59661 0.01133 0.0
C3131 C 0.83402 0.58591 0.98663 0.0
C3132 C 0.84035 0.57412 0.97795 0.0
C3133 C 0.83456 0.58537 0.00255 0.0
C3134 C 0.84796 0.56223 0.98533 0.0
C3135 C 0.84872 0.56174 0.00112 0.0
H3136 H 0.43356 0.844 0.97574 0.0
H3137 H 0.39327 0.81659 0.9721 0.0
H3138 H 0.39088 0.81624 0.99977 0.0
H3139 H 0.40179 0.82174 0.02508 0.0
H3140 H 0.44245 0.84877 0.02811 0.0
H3141 H 0.44306 0.85133 0.00065 0.0
C3142 C 0.42414 0.8381 0.98098 0.0
C3143 C 0.41369 0.83022 0.9719 0.0
C3144 C 0.42296 0.83779 0.99682 0.0
C3145 C 0.40148 0.82273 0.97885 0.0
C3146 C 0.40015 0.82247 0.99468 0.0
C3147 C 0.41063 0.82838 0.01972 0.0
C3148 C 0.42213 0.83495 0.02863 0.0
C3149 C 0.41104 0.82966 0.0038 0.0
C3150 C 0.43352 0.84352 0.02152 0.0
C3151 C 0.4339 0.84497 0.0058 0.0
H3152 H 0.57131 0.15546 0.97586 0.0
H3153 H 0.61316 0.18055 0.973 0.0
H3154 H 0.61598 0.17924 0.00057 0.0
H3155 H 0.60509 0.17322 0.0257 0.0
H3156 H 0.5628 0.14876 0.02814 0.0
H3157 H 0.56171 0.14745 0.00058 0.0
C3158 C 0.58117 0.16046 0.98124 0.0
C3159 C 0.59194 0.1682 0.97241 0.0
C3160 C 0.58259 0.15986 0.99707 0.0
C3161 C 0.60469 0.17454 0.97954 0.0
C3162 C 0.60627 0.17386 0.99532 0.0
C3163 C 0.59579 0.16737 0.02018 0.0
C3164 C 0.58399 0.1612 0.02896 0.0
C3165 C 0.59509 0.16688 0.00424 0.0
C3166 C 0.57199 0.15369 0.02165 0.0
C3167 C 0.57133 0.15296 0.00588 0.0
H3168 H 0.53069 0.68385 0.90705 0.0
H3169 H 0.53789 0.65192 0.9434 0.0
H3170 H 0.51079 0.64693 0.94469 0.0
H3171 H 0.48491 0.65331 0.93723 0.0
H3172 H 0.47717 0.68534 0.90115 0.0
H3173 H 0.50456 0.68843 0.89785 0.0
C3174 C 0.52632 0.67566 0.9151 0.0
C3175 C 0.53629 0.6684 0.92522 0.0
C3176 C 0.51062 0.6729 0.91588 0.0
C3177 C 0.53048 0.65776 0.93555 0.0
C3178 C 0.51496 0.6549 0.93632 0.0
C3179 C 0.48921 0.66081 0.92849 0.0
C3180 C 0.47904 0.66917 0.91954 0.0
C3181 C 0.5049 0.66266 0.9268 0.0
C3182 C 0.48477 0.67876 0.90819 0.0
C3183 C 0.50044 0.6806 0.90636 0.0
H3184 H 0.32943 0.52704 0.90408 0.0
H3185 H 0.33794 0.53072 0.95211 0.0
H3186 H 0.33982 0.50331 0.95414 0.0
H3187 H 0.33784 0.47827 0.94276 0.0
H3188 H 0.32867 0.47376 0.89498 0.0
H3189 H 0.32836 0.50144 0.89233 0.0
C3190 C 0.33184 0.52181 0.91493 0.0
C3191 C 0.3335 0.53093 0.92793 0.0
C3192 C 0.33273 0.50588 0.91609 0.0
C3193 C 0.33655 0.524 0.94194 0.0
C3194 C 0.33763 0.50829 0.94313 0.0
C3195 C 0.33588 0.48331 0.93172 0.0
C3196 C 0.33324 0.47396 0.9191 0.0
C3197 C 0.33554 0.49913 0.93035 0.0
C3198 C 0.33072 0.4807 0.90489 0.0
C3199 C 0.33051 0.49653 0.90338 0.0
H3200 H 0.47548 0.34755 0.92233 0.0
H3201 H 0.47356 0.31054 0.89047 0.0
H3202 H 0.50119 0.31088 0.88817 0.0
H3203 H 0.52599 0.31966 0.89769 0.0
H3204 H 0.52761 0.35627 0.93008 0.0
H3205 H 0.50006 0.35825 0.92953 0.0
C3206 C 0.48109 0.33973 0.91469 0.0
C3207 C 0.47251 0.32892 0.90673 0.0
C3208 C 0.49696 0.33984 0.9136 0.0
C3209 C 0.47992 0.31894 0.89677 0.0
C3210 C 0.49573 0.31908 0.8955 0.0
C3211 C 0.52032 0.32827 0.90438 0.0
C3212 C 0.52883 0.33769 0.91404 0.0
C3213 C 0.5044 0.32918 0.90422 0.0
C3214 C 0.52132 0.3488 0.92263 0.0
C3215 C 0.50555 0.34992 0.92237 0.0
H3216 H 0.68417 0.52894 0.90605 0.0
H3217 H 0.65174 0.53251 0.94249 0.0
H3218 H 0.64825 0.5051 0.94233 0.0
H3219 H 0.65629 0.47999 0.93368 0.0
H3220 H 0.68903 0.47609 0.89758 0.0
H3221 H 0.6904 0.50372 0.89566 0.0
C3222 C 0.67616 0.52373 0.91378 0.0
C3223 C 0.66833 0.53274 0.92435 0.0
C3224 C 0.67436 0.50789 0.91378 0.0
C3225 C 0.65797 0.52584 0.93428 0.0
C3226 C 0.656 0.51014 0.93424 0.0
C3227 C 0.66358 0.48518 0.92525 0.0
C3228 C 0.67266 0.47602 0.91589 0.0
C3229 C 0.66443 0.50104 0.92433 0.0
C3230 C 0.68195 0.4829 0.90495 0.0
C3231 C 0.68279 0.49871 0.90389 0.0
H3232 H 0.52511 0.34353 0.06886 0.0
H3233 H 0.526 0.30702 0.10137 0.0
H3234 H 0.49836 0.30796 0.10338 0.0
H3235 H 0.47386 0.31783 0.09434 0.0
H3236 H 0.47318 0.35396 0.06138 0.0
H3237 H 0.50083 0.35461 0.06125 0.0
C3238 C 0.51927 0.33587 0.0765 0.0
C3239 C 0.52756 0.32514 0.08486 0.0
C3240 C 0.50341 0.33638 0.07749 0.0
C3241 C 0.51985 0.31536 0.09477 0.0
C3242 C 0.50405 0.31587 0.09591 0.0
C3243 C 0.47977 0.32599 0.0873 0.0
C3244 C 0.47149 0.33577 0.07781 0.0
C3245 C 0.4957 0.32614 0.0871 0.0
C3246 C 0.47929 0.34627 0.06874 0.0
C3247 C 0.49511 0.34662 0.06862 0.0
H3248 H 0.65364 0.52386 0.07398 0.0
H3249 H 0.68255 0.52486 0.11338 0.0
H3250 H 0.68076 0.49727 0.11557 0.0
H3251 H 0.67329 0.47271 0.10449 0.0
H3252 H 0.64493 0.47201 0.06465 0.0
H3253 H 0.64401 0.49963 0.06456 0.0
C3254 C 0.65939 0.51806 0.08317 0.0
C3255 C 0.66836 0.52635 0.09339 0.0
C3256 C 0.65846 0.50223 0.08424 0.0
C3257 C 0.67562 0.51872 0.10533 0.0
C3258 C 0.67464 0.50294 0.10655 0.0
C3259 C 0.66667 0.47861 0.09597 0.0
C3260 C 0.65931 0.47033 0.0845 0.0
C3261 C 0.66643 0.49454 0.09582 0.0
C3262 C 0.65077 0.47812 0.07354 0.0
C3263 C 0.65029 0.49392 0.07345 0.0
H3264 H 0.48196 0.66222 0.06859 0.0
H3265 H 0.47682 0.67957 0.11394 0.0
H3266 H 0.5045 0.68012 0.11699 0.0
H3267 H 0.53026 0.67724 0.10583 0.0
H3268 H 0.53452 0.65916 0.06055 0.0
H3269 H 0.50714 0.65722 0.05848 0.0
C3270 C 0.48689 0.66603 0.0792 0.0
C3271 C 0.47742 0.67101 0.09096 0.0
C3272 C 0.50269 0.66621 0.08086 0.0
C3273 C 0.48392 0.6757 0.10472 0.0
C3274 C 0.49973 0.67606 0.10642 0.0
C3275 C 0.52517 0.67271 0.09561 0.0
C3276 C 0.53446 0.66849 0.08332 0.0
C3277 C 0.50926 0.67158 0.09445 0.0
C3278 C 0.52769 0.66257 0.07016 0.0
C3279 C 0.512 0.66147 0.06893 0.0
H3280 H 0.33248 0.47785 0.0618 0.0
H3281 H 0.32071 0.47333 0.10902 0.0
H3282 H 0.32128 0.50096 0.11191 0.0
H3283 H 0.32363 0.52653 0.10046 0.0
H3284 H 0.33509 0.53037 0.05305 0.0
H3285 H 0.33612 0.50291 0.05083 0.0
C3286 C 0.33017 0.48288 0.07278 0.0
C3287 C 0.32649 0.47356 0.08516 0.0
C3288 C 0.33036 0.49869 0.0743 0.0
C3289 C 0.32358 0.48027 0.09931 0.0
C3290 C 0.32384 0.49606 0.10095 0.0
C3291 C 0.32648 0.52133 0.0897 0.0
C3292 C 0.3292 0.5305 0.07693 0.0
C3293 C 0.32699 0.50541 0.08845 0.0
C3294 C 0.33289 0.5236 0.06305 0.0
C3295 C 0.33348 0.50788 0.06175 0.0
H3296 H 0.93763 0.52502 0.65725 0.0
H3297 H 0.8958 0.53034 0.68196 0.0
H3298 H 0.89264 0.50277 0.68281 0.0
H3299 H 0.90311 0.47711 0.67848 0.0
H3300 H 0.94512 0.4723 0.65388 0.0
H3301 H 0.94678 0.49968 0.65091 0.0
C3302 C 0.92773 0.52016 0.66268 0.0
C3303 C 0.91705 0.52967 0.66966 0.0
C3304 C 0.92606 0.50437 0.6632 0.0
C3305 C 0.9042 0.52323 0.67652 0.0
C3306 C 0.90243 0.50747 0.67706 0.0
C3307 C 0.91249 0.48206 0.67228 0.0
C3308 C 0.92404 0.47268 0.66654 0.0
C3309 C 0.91347 0.49791 0.67073 0.0
C3310 C 0.93612 0.47925 0.65849 0.0
C3311 C 0.93711 0.49493 0.65681 0.0
H3312 H 0.51468 0.91965 0.64767 0.0
H3313 H 0.52223 0.89939 0.69149 0.0
H3314 H 0.49484 0.89702 0.69527 0.0
H3315 H 0.46875 0.90372 0.68736 0.0
H3316 H 0.46173 0.92455 0.64366 0.0
H3317 H 0.48883 0.92358 0.63858 0.0
C3318 C 0.51035 0.91444 0.65793 0.0
C3319 C 0.52045 0.90984 0.66934 0.0
C3320 C 0.49463 0.91339 0.66013 0.0
C3321 C 0.51467 0.90303 0.68253 0.0
C3322 C 0.499 0.90177 0.68474 0.0
C3323 C 0.47315 0.9078 0.67663 0.0
C3324 C 0.46325 0.91438 0.66599 0.0
C3325 C 0.48886 0.90738 0.67382 0.0
C3326 C 0.4691 0.91956 0.65211 0.0
C3327 C 0.48462 0.91903 0.64919 0.0
H3328 H 0.07357 0.5241 0.6565 0.0
H3329 H 0.11085 0.52938 0.68765 0.0
H3330 H 0.11399 0.50183 0.68878 0.0
H3331 H 0.10415 0.47616 0.68311 0.0
H3332 H 0.06641 0.47136 0.65237 0.0
H3333 H 0.06555 0.49872 0.64879 0.0
C3334 C 0.08256 0.51924 0.66334 0.0
C3335 C 0.09187 0.52877 0.67208 0.0
C3336 C 0.08413 0.50343 0.66412 0.0
C3337 C 0.10351 0.5223 0.68082 0.0
C3338 C 0.10526 0.50653 0.68154 0.0
C3339 C 0.09593 0.4811 0.67542 0.0
C3340 C 0.08527 0.47173 0.66814 0.0
C3341 C 0.09534 0.49696 0.67357 0.0
C3342 C 0.07468 0.4783 0.65821 0.0
C3343 C 0.07415 0.49397 0.65617 0.0
H3344 H 0.47681 0.08244 0.69696 0.0
H3345 H 0.47304 0.09689 0.65043 0.0
H3346 H 0.50072 0.09878 0.64868 0.0
H3347 H 0.52609 0.09388 0.65981 0.0
H3348 H 0.52917 0.07796 0.70594 0.0
H3349 H 0.50169 0.07921 0.70845 0.0
C3350 C 0.48201 0.0862 0.68647 0.0
C3351 C 0.47289 0.08943 0.67381 0.0
C3352 C 0.49784 0.0869 0.68546 0.0
C3353 C 0.47982 0.09431 0.66033 0.0
C3354 C 0.49564 0.09533 0.65932 0.0
C3355 C 0.52072 0.09094 0.67047 0.0
C3356 C 0.52962 0.08577 0.68266 0.0
C3357 C 0.5048 0.0913 0.67172 0.0
C3358 C 0.52254 0.08188 0.69637 0.0
C3359 C 0.50683 0.08257 0.69782 0.0
H3360 H 0.9144 0.46755 0.34797 0.0
H3361 H 0.91136 0.46622 0.29922 0.0
H3362 H 0.9094 0.49381 0.29835 0.0
H3363 H 0.91135 0.51836 0.31116 0.0
H3364 H 0.91701 0.51998 0.35965 0.0
H3365 H 0.91491 0.49234 0.36099 0.0
C3366 C 0.91304 0.47332 0.33721 0.0
C3367 C 0.91305 0.4649 0.32368 0.0
C3368 C 0.91247 0.48927 0.33676 0.0
C3369 C 0.91146 0.47249 0.30978 0.0
C3370 C 0.91035 0.48826 0.30927 0.0
C3371 C 0.91178 0.51268 0.32205 0.0
C3372 C 0.91429 0.52118 0.33529 0.0
C3373 C 0.91123 0.49678 0.32265 0.0
C3374 C 0.91506 0.51366 0.34931 0.0
C3375 C 0.91394 0.49786 0.35006 0.0
H3376 H 0.47064 0.90979 0.31282 0.0
H3377 H 0.46655 0.93425 0.35498 0.0
H3378 H 0.49399 0.93392 0.35807 0.0
H3379 H 0.51925 0.92873 0.34778 0.0
H3380 H 0.52369 0.90443 0.30561 0.0
H3381 H 0.49609 0.90252 0.30363 0.0
C3382 C 0.47575 0.91485 0.32278 0.0
C3383 C 0.46655 0.92214 0.33358 0.0
C3384 C 0.49163 0.91474 0.32445 0.0
C3385 C 0.47335 0.92862 0.34645 0.0
C3386 C 0.48907 0.92848 0.34822 0.0
C3387 C 0.51418 0.92285 0.33825 0.0
C3388 C 0.5235 0.91684 0.3268 0.0
C3389 C 0.49833 0.92189 0.33713 0.0
C3390 C 0.51677 0.90917 0.31457 0.0
C3391 C 0.50098 0.90813 0.3134 0.0
H3392 H 0.06848 0.52708 0.30957 0.0
H3393 H 0.10449 0.53012 0.34247 0.0
H3394 H 0.10601 0.50235 0.34347 0.0
H3395 H 0.09614 0.47712 0.33569 0.0
H3396 H 0.05984 0.47498 0.30293 0.0
H3397 H 0.05946 0.50246 0.30117 0.0
C3398 C 0.07674 0.52171 0.31693 0.0
C3399 C 0.0863 0.53064 0.32599 0.0
C3400 C 0.07746 0.50586 0.3175 0.0
C3401 C 0.09698 0.52347 0.33539 0.0
C3402 C 0.09782 0.50761 0.33598 0.0
C3403 C 0.08825 0.4827 0.3281 0.0
C3404 C 0.07798 0.47398 0.31951 0.0
C3405 C 0.08799 0.49866 0.3272 0.0
C3406 C 0.06781 0.48137 0.30973 0.0
C3407 C 0.06757 0.49712 0.3087 0.0
H3408 H 0.52513 0.09293 0.30076 0.0
H3409 H 0.52811 0.09998 0.34903 0.0
H3410 H 0.50054 0.10267 0.35049 0.0
H3411 H 0.47539 0.09979 0.33842 0.0
H3412 H 0.47287 0.09176 0.29025 0.0
H3413 H 0.50038 0.09282 0.28838 0.0
C3414 C 0.51978 0.09532 0.31157 0.0
C3415 C 0.52862 0.09609 0.32479 0.0
C3416 C 0.50395 0.09653 0.31237 0.0
C3417 C 0.52153 0.09928 0.33869 0.0
C3418 C 0.50576 0.10074 0.33955 0.0
C3419 C 0.48088 0.09858 0.32749 0.0
C3420 C 0.47212 0.09554 0.31453 0.0
C3421 C 0.49681 0.09891 0.32652 0.0
C3422 C 0.47937 0.09398 0.30043 0.0
C3423 C 0.49511 0.09455 0.29934 0.0
H3424 H 0.67421 0.89919 0.47668 0.0
H3425 H 0.64349 0.93708 0.47309 0.0
H3426 H 0.64079 0.93777 0.50058 0.0
H3427 H 0.64944 0.92962 0.52565 0.0
H3428 H 0.68069 0.89224 0.52955 0.0
H3429 H 0.68074 0.88921 0.50199 0.0
C3430 C 0.6667 0.9074 0.48191 0.0
C3431 C 0.65918 0.91816 0.47286 0.0
C3432 C 0.6654 0.90792 0.4978 0.0
C3433 C 0.64949 0.92873 0.4798 0.0
C3434 C 0.64797 0.92917 0.49554 0.0
C3435 C 0.65606 0.92064 0.5205 0.0
C3436 C 0.66516 0.91127 0.52962 0.0
C3437 C 0.65623 0.91913 0.50466 0.0
C3438 C 0.67362 0.89963 0.52277 0.0
C3439 C 0.67371 0.89794 0.507 0.0
H3440 H 0.65101 0.07222 0.52271 0.0
H3441 H 0.68447 0.10749 0.52779 0.0
H3442 H 0.68583 0.11036 0.50024 0.0
H3443 H 0.67952 0.10083 0.47466 0.0
H3444 H 0.64685 0.06475 0.46998 0.0
H3445 H 0.6431 0.0643 0.49735 0.0
C3446 C 0.65841 0.08073 0.51781 0.0
C3447 C 0.66769 0.08956 0.52729 0.0
C3448 C 0.65939 0.08206 0.50199 0.0
C3449 C 0.67722 0.10053 0.52075 0.0
C3450 C 0.67806 0.10212 0.50498 0.0
C3451 C 0.67141 0.09306 0.47963 0.0
C3452 C 0.66357 0.08276 0.47031 0.0
C3453 C 0.66951 0.09265 0.49548 0.0
C3454 C 0.65311 0.07273 0.47691 0.0
C3455 C 0.65097 0.07244 0.49257 0.0
H3456 H 0.94002 0.65973 0.47415 0.0
H3457 H 0.89516 0.67901 0.47186 0.0
H3458 H 0.894 0.67994 0.49959 0.0
H3459 H 0.90662 0.67692 0.52448 0.0
H3460 H 0.95163 0.6578 0.5262 0.0
H3461 H 0.95177 0.65506 0.49876 0.0
C3462 C 0.92992 0.66402 0.47971 0.0
C3463 C 0.91775 0.6694 0.47097 0.0
C3464 C 0.92939 0.6646 0.49558 0.0
C3465 C 0.90471 0.67482 0.47834 0.0
C3466 C 0.90406 0.6754 0.49419 0.0
C3467 C 0.91636 0.67198 0.51884 0.0
C3468 C 0.92913 0.66767 0.52738 0.0
C3469 C 0.91645 0.67056 0.50294 0.0
C3470 C 0.94168 0.66129 0.51991 0.0
C3471 C 0.9418 0.65974 0.50419 0.0
H3472 H 0.32584 0.90658 0.47486 0.0
H3473 H 0.29625 0.9455 0.47268 0.0
H3474 H 0.29352 0.94528 0.5001 0.0
H3475 H 0.30084 0.93534 0.52476 0.0
H3476 H 0.33076 0.89681 0.52771 0.0
H3477 H 0.33192 0.89545 0.49998 0.0
C3478 C 0.31868 0.91488 0.48041 0.0
C3479 C 0.31136 0.92611 0.47174 0.0
C3480 C 0.31725 0.91481 0.49632 0.0
C3481 C 0.3021 0.9368 0.47907 0.0
C3482 C 0.30052 0.9367 0.49477 0.0
C3483 C 0.30751 0.92653 0.51936 0.0
C3484 C 0.31578 0.91626 0.52827 0.0
C3485 C 0.30826 0.92596 0.50351 0.0
C3486 C 0.32429 0.90487 0.52109 0.0
C3487 C 0.325 0.90413 0.50524 0.0
H3488 H 0.10128 0.32874 0.52453 0.0
H3489 H 0.05647 0.34829 0.52642 0.0
H3490 H 0.05532 0.34892 0.49888 0.0
H3491 H 0.06601 0.34202 0.47428 0.0
H3492 H 0.11074 0.32253 0.47179 0.0
H3493 H 0.11302 0.32389 0.49944 0.0
C3494 C 0.09138 0.33335 0.51889 0.0
C3495 C 0.07893 0.33835 0.52755 0.0
C3496 C 0.09072 0.33358 0.50292 0.0
C3497 C 0.06618 0.34429 0.52007 0.0
C3498 C 0.06548 0.34463 0.50429 0.0
C3499 C 0.07633 0.33821 0.47977 0.0
C3500 C 0.08813 0.33206 0.47102 0.0
C3501 C 0.07752 0.33899 0.49561 0.0
C3502 C 0.10148 0.3273 0.47828 0.0
C3503 C 0.10276 0.32802 0.4941 0.0
H3504 H 0.33361 0.09649 0.52407 0.0
H3505 H 0.30779 0.05495 0.52533 0.0
H3506 H 0.30684 0.05442 0.49779 0.0
H3507 H 0.3138 0.06521 0.47336 0.0
H3508 H 0.33974 0.10658 0.47141 0.0
H3509 H 0.34014 0.10776 0.49917 0.0
C3510 C 0.32774 0.08738 0.51828 0.0
C3511 C 0.32082 0.07576 0.52675 0.0
C3512 C 0.32727 0.08709 0.50233 0.0
C3513 C 0.31324 0.06402 0.51911 0.0
C3514 C 0.31268 0.06369 0.50334 0.0
C3515 C 0.31951 0.07453 0.47899 0.0
C3516 C 0.32676 0.08576 0.47035 0.0
C3517 C 0.31973 0.07508 0.49485 0.0
C3518 C 0.33407 0.09778 0.47782 0.0
C3519 C 0.33432 0.09845 0.49368 0.0
H3520 H 0.90655 0.3241 0.47876 0.0
H3521 H 0.95515 0.31864 0.47666 0.0
H3522 H 0.95668 0.31943 0.50414 0.0
H3523 H 0.94447 0.32139 0.52874 0.0
H3524 H 0.89601 0.32707 0.53166 0.0
H3525 H 0.89417 0.32647 0.50392 0.0
C3526 C 0.91745 0.32313 0.48435 0.0
C3527 C 0.93071 0.3213 0.47566 0.0
C3528 C 0.91829 0.32359 0.50029 0.0
C3529 C 0.94477 0.32005 0.48305 0.0
C3530 C 0.94568 0.32049 0.49879 0.0
C3531 C 0.93347 0.32249 0.52334 0.0
C3532 C 0.92039 0.32423 0.53223 0.0
C3533 C 0.93254 0.32219 0.5075 0.0
C3534 C 0.90625 0.3257 0.52504 0.0
C3535 C 0.90521 0.32536 0.50919 0.0
H3536 H 0.09931 0.67584 0.47992 0.0
H3537 H 0.05051 0.67218 0.47893 0.0
H3538 H 0.04971 0.67219 0.50647 0.0
H3539 H 0.06254 0.67413 0.5308 0.0
H3540 H 0.11126 0.67748 0.5326 0.0
H3541 H 0.11243 0.67664 0.50482 0.0
C3542 C 0.08854 0.67494 0.48576 0.0
C3543 C 0.075 0.67408 0.47736 0.0
C3544 C 0.08812 0.67496 0.50174 0.0
C3545 C 0.06111 0.67289 0.48509 0.0
C3546 C 0.06062 0.67292 0.50086 0.0
C3547 C 0.07344 0.67465 0.52514 0.0
C3548 C 0.08678 0.67597 0.53373 0.0
C3549 C 0.07401 0.67411 0.50928 0.0
C3550 C 0.10082 0.67648 0.52622 0.0
C3551 C 0.10148 0.67603 0.51035 0.0
H3552 H 0.09282 0.16922 0.5196 0.0
H3553 H 0.04402 0.17076 0.52276 0.0
H3554 H 0.04201 0.1703 0.49521 0.0
H3555 H 0.05407 0.17099 0.47024 0.0
H3556 H 0.10281 0.16929 0.46679 0.0
H3557 H 0.10489 0.16828 0.49442 0.0
C3558 C 0.08175 0.16928 0.51424 0.0
C3559 C 0.0686 0.17011 0.5232 0.0
C3560 C 0.08067 0.16913 0.49836 0.0
C3561 C 0.05433 0.17016 0.51612 0.0
C3562 C 0.05316 0.16995 0.50036 0.0
C3563 C 0.06515 0.17035 0.47554 0.0
C3564 C 0.07826 0.17036 0.46653 0.0
C3565 C 0.06625 0.16971 0.49138 0.0
C3566 C 0.09254 0.16935 0.47352 0.0
C3567 C 0.09374 0.16878 0.4893 0.0
H3568 H 0.83071 0.09128 0.46896 0.0
H3569 H 0.82252 0.04309 0.46721 0.0
H3570 H 0.82345 0.04171 0.49479 0.0
H3571 H 0.82592 0.05418 0.51936 0.0
H3572 H 0.8329 0.10251 0.52158 0.0
H3573 H 0.83318 0.10387 0.49385 0.0
C3574 C 0.82919 0.08049 0.47465 0.0
C3575 C 0.82655 0.06731 0.46609 0.0
C3576 C 0.82952 0.07981 0.49056 0.0
C3577 C 0.82451 0.0534 0.47356 0.0
C3578 C 0.82507 0.0526 0.48933 0.0
C3579 C 0.82761 0.06501 0.51378 0.0
C3580 C 0.82943 0.07822 0.52246 0.0
C3581 C 0.82747 0.06572 0.49792 0.0
C3582 C 0.83147 0.09218 0.5151 0.0
C3583 C 0.83162 0.09296 0.49926 0.0
H3584 H 0.9242 0.84977 0.51595 0.0
H3585 H 0.89435 0.81179 0.52351 0.0
H3586 H 0.89145 0.80838 0.49621 0.0
H3587 H 0.89956 0.81453 0.47029 0.0
H3588 H 0.92951 0.85244 0.46276 0.0
H3589 H 0.9301 0.85762 0.48993 0.0
C3590 C 0.91687 0.8409 0.51161 0.0
C3591 C 0.90964 0.83094 0.52171 0.0
C3592 C 0.91538 0.83891 0.49591 0.0
C3593 C 0.90009 0.81957 0.51596 0.0
C3594 C 0.89848 0.81757 0.50035 0.0
C3595 C 0.90605 0.82403 0.47459 0.0
C3596 C 0.91462 0.83296 0.46458 0.0
C3597 C 0.90641 0.8269 0.49023 0.0
C3598 C 0.92288 0.84534 0.47027 0.0
C3599 C 0.92326 0.84829 0.4858 0.0
H3600 H 0.18489 0.9428 0.47565 0.0
H3601 H 0.15227 0.90655 0.47218 0.0
H3602 H 0.1503 0.90548 0.49981 0.0
H3603 H 0.15791 0.91488 0.52496 0.0
H3604 H 0.19056 0.95116 0.52819 0.0
H3605 H 0.19243 0.9522 0.50063 0.0
C3606 C 0.17736 0.93466 0.48093 0.0
C3607 C 0.16875 0.92477 0.47191 0.0
C3608 C 0.17627 0.93413 0.49678 0.0
C3609 C 0.15902 0.91429 0.47891 0.0
C3610 C 0.15788 0.91367 0.49469 0.0
C3611 C 0.16541 0.92302 0.51961 0.0
C3612 C 0.17408 0.93293 0.52859 0.0
C3613 C 0.16646 0.92355 0.50374 0.0
C3614 C 0.18376 0.94341 0.52153 0.0
C3615 C 0.18485 0.94401 0.50577 0.0
H3616 H 0.06402 0.80546 0.4758 0.0
H3617 H 0.08984 0.8467 0.4711 0.0
H3618 H 0.09139 0.84906 0.49868 0.0
H3619 H 0.08487 0.83966 0.52415 0.0
H3620 H 0.05846 0.79875 0.52864 0.0
H3621 H 0.05772 0.79598 0.50113 0.0
C3622 C 0.07004 0.81493 0.48081 0.0
C3623 C 0.0768 0.82589 0.47144 0.0
C3624 C 0.07076 0.81628 0.49664 0.0
C3625 C 0.08452 0.83813 0.47809 0.0
C3626 C 0.08541 0.83948 0.49385 0.0
C3627 C 0.07902 0.83011 0.5191 0.0
C3628 C 0.07173 0.81944 0.52841 0.0
C3629 C 0.0785 0.82867 0.50324 0.0
C3630 C 0.06414 0.80715 0.52171 0.0
C3631 C 0.0637 0.80555 0.50598 0.0
H3632 H 0.16516 0.09013 0.47077 0.0
H3633 H 0.2005 0.0564 0.46835 0.0
H3634 H 0.20165 0.05535 0.49597 0.0
H3635 H 0.19259 0.06394 0.52084 0.0
H3636 H 0.15721 0.09761 0.52332 0.0
H3637 H 0.15612 0.09877 0.49568 0.0
C3638 C 0.17311 0.08256 0.4763 0.0
C3639 C 0.18272 0.07336 0.46753 0.0
C3640 C 0.17371 0.082 0.4922 0.0
C3641 C 0.19297 0.0636 0.47484 0.0
C3642 C 0.19364 0.06299 0.49064 0.0
C3643 C 0.18465 0.07154 0.51533 0.0
C3644 C 0.175 0.08067 0.52411 0.0
C3645 C 0.18407 0.07213 0.49943 0.0
C3646 C 0.16477 0.09046 0.51681 0.0
C3647 C 0.16413 0.09112 0.501 0.0
H3648 H 0.91262 0.16113 0.52294 0.0
H3649 H 0.94625 0.19654 0.52548 0.0
H3650 H 0.94818 0.19696 0.4979 0.0
H3651 H 0.94009 0.18755 0.47306 0.0
H3652 H 0.90631 0.15231 0.47032 0.0
H3653 H 0.90465 0.15153 0.49798 0.0
C3654 C 0.92039 0.1689 0.51744 0.0
C3655 C 0.92927 0.17879 0.52623 0.0
C3656 C 0.92139 0.16913 0.50156 0.0
C3657 C 0.93928 0.18882 0.51897 0.0
C3658 C 0.94039 0.18907 0.5032 0.0
C3659 C 0.93238 0.17968 0.47852 0.0
C3660 C 0.92333 0.17001 0.46968 0.0
C3661 C 0.93146 0.17933 0.49438 0.0
C3662 C 0.91339 0.15988 0.4769 0.0
C3663 C 0.91244 0.15943 0.4927 0.0
H3664 H 0.80958 0.94048 0.47666 0.0
H3665 H 0.83939 0.90177 0.47457 0.0
H3666 H 0.84146 0.90169 0.5022 0.0
H3667 H 0.83467 0.91255 0.52698 0.0
H3668 H 0.80488 0.9513 0.52894 0.0
H3669 H 0.80297 0.95144 0.50134 0.0
C3670 C 0.81652 0.93202 0.48225 0.0
C3671 C 0.82429 0.92114 0.47358 0.0
C3672 C 0.81768 0.93206 0.49812 0.0
C3673 C 0.83328 0.91027 0.48099 0.0
C3674 C 0.83448 0.91022 0.49678 0.0
C3675 C 0.82779 0.92104 0.52136 0.0
C3676 C 0.81993 0.93189 0.53 0.0
C3677 C 0.82672 0.92105 0.50547 0.0
C3678 C 0.81105 0.94282 0.52256 0.0
C3679 C 0.80993 0.94291 0.50677 0.0
H3680 H 0.47948 0.08526 0.15918 0.0
H3681 H 0.47377 0.0598 0.20053 0.0
H3682 H 0.50122 0.05823 0.20358 0.0
H3683 H 0.52686 0.06368 0.19429 0.0
H3684 H 0.53268 0.08909 0.15293 0.0
H3685 H 0.5052 0.0911 0.1501 0.0
C3686 C 0.48425 0.07942 0.16888 0.0
C3687 C 0.47461 0.07264 0.17959 0.0
C3688 C 0.50007 0.07852 0.17054 0.0
C3689 C 0.48095 0.0651 0.19211 0.0
C3690 C 0.49665 0.06419 0.19386 0.0
C3691 C 0.52211 0.06968 0.18467 0.0
C3692 C 0.53178 0.07619 0.17383 0.0
C3693 C 0.50632 0.07078 0.18311 0.0
C3694 C 0.52547 0.08396 0.16144 0.0
C3695 C 0.50976 0.08511 0.1598 0.0
H3696 H 0.91765 0.46916 0.15912 0.0
H3697 H 0.92048 0.4652 0.20779 0.0
H3698 H 0.92145 0.49273 0.21017 0.0
H3699 H 0.92278 0.5178 0.19843 0.0
H3700 H 0.92087 0.52198 0.14976 0.0
H3701 H 0.91818 0.49448 0.14736 0.0
C3702 C 0.91834 0.47435 0.17024 0.0
C3703 C 0.91903 0.46518 0.18326 0.0
C3704 C 0.91913 0.49019 0.17152 0.0
C3705 C 0.91999 0.47202 0.1976 0.0
C3706 C 0.92055 0.48776 0.19897 0.0
C3707 C 0.92167 0.51271 0.1873 0.0
C3708 C 0.92206 0.52188 0.17429 0.0
C3709 C 0.92034 0.49693 0.18601 0.0
C3710 C 0.92063 0.51513 0.15995 0.0
C3711 C 0.91911 0.49942 0.15857 0.0
H3712 H 0.47409 0.90787 0.16392 0.0
H3713 H 0.47054 0.94226 0.19854 0.0
H3714 H 0.49805 0.94301 0.20092 0.0
H3715 H 0.52308 0.93432 0.19291 0.0
H3716 H 0.52702 0.90014 0.15818 0.0
H3717 H 0.49938 0.89882 0.15615 0.0
C3718 C 0.47936 0.9155 0.17199 0.0
C3719 C 0.47031 0.92502 0.181 0.0
C3720 C 0.49523 0.9159 0.17329 0.0
C3721 C 0.47727 0.93484 0.19144 0.0
C3722 C 0.493 0.93527 0.19282 0.0
C3723 C 0.5179 0.92653 0.18493 0.0
C3724 C 0.52705 0.91736 0.1757 0.0
C3725 C 0.50208 0.92591 0.18377 0.0
C3726 C 0.52019 0.90732 0.16541 0.0
C3727 C 0.5044 0.90658 0.16423 0.0
H3728 H 0.06855 0.52964 0.19692 0.0
H3729 H 0.09611 0.5328 0.15666 0.0
H3730 H 0.09728 0.50516 0.15509 0.0
H3731 H 0.08965 0.48007 0.16467 0.0
H3732 H 0.06189 0.47713 0.20482 0.0
H3733 H 0.0617 0.50469 0.20697 0.0
C3734 C 0.07487 0.52428 0.18784 0.0
C3735 C 0.08217 0.53324 0.17689 0.0
C3736 C 0.07545 0.50842 0.18698 0.0
C3737 C 0.09035 0.52614 0.16522 0.0
C3738 C 0.09102 0.51034 0.1643 0.0
C3739 C 0.08366 0.48548 0.17394 0.0
C3740 C 0.07577 0.47658 0.18454 0.0
C3741 C 0.0835 0.50136 0.17505 0.0
C3742 C 0.06804 0.48372 0.19649 0.0
C3743 C 0.0679 0.49949 0.19772 0.0
H3744 H 0.47634 0.92079 0.84339 0.0
H3745 H 0.47059 0.93026 0.79575 0.0
H3746 H 0.49799 0.93066 0.79229 0.0
H3747 H 0.52352 0.92898 0.80278 0.0
H3748 H 0.52975 0.92076 0.85055 0.0
H3749 H 0.50224 0.91917 0.854 0.0
C3750 C 0.48112 0.92287 0.83226 0.0
C3751 C 0.47148 0.92549 0.81985 0.0
C3752 C 0.49695 0.92333 0.83038 0.0
C3753 C 0.47779 0.92826 0.8055 0.0
C3754 C 0.49345 0.92848 0.80349 0.0
C3755 C 0.51887 0.92676 0.81394 0.0
C3756 C 0.52862 0.92495 0.82638 0.0
C3757 C 0.50312 0.92613 0.81586 0.0
C3758 C 0.52244 0.9222 0.84079 0.0
C3759 C 0.50673 0.92129 0.84276 0.0
H3760 H 0.05133 0.51962 0.83094 0.0
H3761 H 0.09866 0.52511 0.84181 0.0
H3762 H 0.1021 0.49754 0.84131 0.0
H3763 H 0.09167 0.47191 0.83694 0.0
H3764 H 0.04453 0.46703 0.82479 0.0
H3765 H 0.04101 0.49436 0.82657 0.0
C3766 C 0.06238 0.51479 0.83334 0.0
C3767 C 0.07471 0.52434 0.83649 0.0
C3768 C 0.06432 0.49905 0.83267 0.0
C3769 C 0.08899 0.51794 0.8394 0.0
C3770 C 0.09096 0.50221 0.83907 0.0
C3771 C 0.08064 0.47686 0.83471 0.0
C3772 C 0.06838 0.46748 0.83072 0.0
C3773 C 0.07872 0.49265 0.83557 0.0
C3774 C 0.05416 0.47402 0.82781 0.0
C3775 C 0.05212 0.48964 0.82886 0.0
H3776 H 0.47533 0.09149 0.83634 0.0
H3777 H 0.47243 0.06307 0.79663 0.0
H3778 H 0.49999 0.06285 0.79453 0.0
H3779 H 0.52491 0.06996 0.80441 0.0
H3780 H 0.52808 0.09815 0.84424 0.0
H3781 H 0.50042 0.09929 0.84581 0.0
C3782 C 0.48074 0.08532 0.82719 0.0
C3783 C 0.47186 0.07727 0.81669 0.0
C3784 C 0.49663 0.08517 0.82608 0.0
C3785 C 0.47902 0.06933 0.80488 0.0
C3786 C 0.49478 0.06919 0.80367 0.0
C3787 C 0.51955 0.07642 0.8134 0.0
C3788 C 0.52851 0.08392 0.82422 0.0
C3789 C 0.50369 0.07695 0.81428 0.0
C3790 C 0.52141 0.09226 0.83578 0.0
C3791 C 0.50561 0.0929 0.8367 0.0
H3792 H 0.94242 0.47414 0.81634 0.0
H3793 H 0.90461 0.47057 0.84713 0.0
H3794 H 0.90226 0.49818 0.8477 0.0
H3795 H 0.91053 0.52332 0.83886 0.0
H3796 H 0.94829 0.52669 0.80794 0.0
H3797 H 0.95109 0.49918 0.80805 0.0
C3798 C 0.93371 0.4794 0.82323 0.0
C3799 C 0.92369 0.47034 0.83165 0.0
C3800 C 0.93239 0.49525 0.82345 0.0
C3801 C 0.91246 0.47732 0.84053 0.0
C3802 C 0.9111 0.49309 0.84085 0.0
C3803 C 0.9194 0.51802 0.83219 0.0
C3804 C 0.92916 0.52702 0.82337 0.0
C3805 C 0.92093 0.50217 0.83227 0.0
C3806 C 0.94061 0.52001 0.81481 0.0
C3807 C 0.94222 0.50428 0.81485 0.0
H3808 H 0.18535 0.47684 0.09182 0.0
H3809 H 0.1459 0.47457 0.06302 0.0
H3810 H 0.14436 0.50226 0.06271 0.0
H3811 H 0.1553 0.52711 0.06927 0.0
H3812 H 0.19501 0.52908 0.09778 0.0
H3813 H 0.1953 0.50151 0.09963 0.0
C3814 C 0.17633 0.4824 0.08558 0.0
C3815 C 0.16582 0.47369 0.07737 0.0
C3816 C 0.1756 0.49827 0.08535 0.0
C3817 C 0.15416 0.48104 0.0694 0.0
C3818 C 0.15329 0.49686 0.06919 0.0
C3819 C 0.16391 0.5215 0.07601 0.0
C3820 C 0.17517 0.53011 0.0833 0.0
C3821 C 0.16411 0.5056 0.07692 0.0
C3822 C 0.18625 0.5227 0.09201 0.0
C3823 C 0.18645 0.50693 0.09306 0.0
H3824 H 0.15952 0.47942 0.93315 0.0
H3825 H 0.18719 0.47587 0.89298 0.0
H3826 H 0.1874 0.5034 0.89045 0.0
H3827 H 0.18171 0.52849 0.90097 0.0
H3828 H 0.15409 0.53218 0.94114 0.0
H3829 H 0.15176 0.5046 0.94228 0.0
C3830 C 0.16541 0.48468 0.92373 0.0
C3831 C 0.17345 0.47565 0.91336 0.0
C3832 C 0.16559 0.50054 0.92241 0.0
C3833 C 0.18096 0.48259 0.90115 0.0
C3834 C 0.18114 0.49833 0.89973 0.0
C3835 C 0.17504 0.52326 0.90988 0.0
C3836 C 0.16823 0.53232 0.92105 0.0
C3837 C 0.17381 0.50742 0.9105 0.0
C3838 C 0.1595 0.52542 0.93244 0.0
C3839 C 0.1582 0.50966 0.93313 0.0
H3840 H 0.48073 0.19223 0.93611 0.0
H3841 H 0.47793 0.15417 0.90556 0.0
H3842 H 0.50561 0.15306 0.90416 0.0
H3843 H 0.53063 0.16253 0.91225 0.0
H3844 H 0.53311 0.20037 0.94315 0.0
H3845 H 0.50553 0.20193 0.94379 0.0
C3846 C 0.48617 0.18375 0.92907 0.0
C3847 C 0.47731 0.1733 0.92095 0.0
C3848 C 0.50203 0.18309 0.92845 0.0
C3849 C 0.48451 0.16235 0.91191 0.0
C3850 C 0.50033 0.16169 0.91114 0.0
C3851 C 0.52512 0.17113 0.91909 0.0
C3852 C 0.5339 0.18129 0.92767 0.0
C3853 C 0.50921 0.17193 0.91946 0.0
C3854 C 0.52661 0.19238 0.93648 0.0
C3855 C 0.51083 0.19329 0.93685 0.0
H3856 H 0.81062 0.51969 0.94017 0.0
H3857 H 0.84957 0.52278 0.91077 0.0
H3858 H 0.84999 0.49518 0.90817 0.0
H3859 H 0.8396 0.47013 0.91476 0.0
H3860 H 0.80071 0.46727 0.94428 0.0
H3861 H 0.79994 0.49483 0.94629 0.0
C3862 C 0.81918 0.51433 0.93316 0.0
C3863 C 0.83006 0.52324 0.9257 0.0
C3864 C 0.81937 0.4985 0.93175 0.0
C3865 C 0.84107 0.51615 0.91664 0.0
C3866 C 0.84132 0.50038 0.91516 0.0
C3867 C 0.83093 0.47556 0.92158 0.0
C3868 C 0.82025 0.46668 0.92937 0.0
C3869 C 0.83058 0.49143 0.92273 0.0
C3870 C 0.80907 0.47385 0.93817 0.0
C3871 C 0.80863 0.48961 0.93934 0.0
H3872 H 0.47363 0.84746 0.92866 0.0
H3873 H 0.46899 0.80997 0.8976 0.0
H3874 H 0.4963 0.81 0.89319 0.0
H3875 H 0.52165 0.81913 0.89993 0.0
H3876 H 0.52646 0.85651 0.93107 0.0
H3877 H 0.49891 0.85823 0.93351 0.0
C3878 C 0.47859 0.83941 0.92081 0.0
C3879 C 0.46935 0.82862 0.9136 0.0
C3880 C 0.49432 0.83945 0.91837 0.0
C3881 C 0.47589 0.81834 0.90334 0.0
C3882 C 0.4915 0.81833 0.90084 0.0
C3883 C 0.51666 0.82779 0.90708 0.0
C3884 C 0.52605 0.83758 0.91542 0.0
C3885 C 0.50085 0.8286 0.90855 0.0
C3886 C 0.51945 0.84882 0.92456 0.0
C3887 C 0.5037 0.84976 0.92602 0.0
H3888 H 0.83626 0.47335 0.0911 0.0
H3889 H 0.80319 0.47162 0.05511 0.0
H3890 H 0.8023 0.49925 0.05433 0.0
H3891 H 0.81069 0.52391 0.06402 0.0
H3892 H 0.84382 0.5258 0.09993 0.0
H3893 H 0.84489 0.49812 0.10061 0.0
C3894 C 0.8289 0.47903 0.08307 0.0
C3895 C 0.8198 0.47045 0.07319 0.0
C3896 C 0.82841 0.49495 0.08269 0.0
C3897 C 0.8103 0.47796 0.06284 0.0
C3898 C 0.80977 0.49377 0.0624 0.0
C3899 C 0.81814 0.51826 0.072 0.0
C3900 C 0.82713 0.52688 0.08193 0.0
C3901 C 0.81873 0.50237 0.0723 0.0
C3902 C 0.83677 0.51941 0.09218 0.0
C3903 C 0.83739 0.50358 0.09257 0.0
H3904 H 0.47873 0.80525 0.06823 0.0
H3905 H 0.47453 0.84847 0.09068 0.0
H3906 H 0.50216 0.85069 0.09188 0.0
H3907 H 0.52754 0.84065 0.08573 0.0
H3908 H 0.53136 0.79734 0.06331 0.0
H3909 H 0.50386 0.79484 0.06298 0.0
C3910 C 0.48386 0.81514 0.07343 0.0
C3911 C 0.47463 0.82671 0.07928 0.0
C3912 C 0.49969 0.81633 0.07407 0.0
C3913 C 0.48142 0.83941 0.08607 0.0
C3914 C 0.49721 0.8407 0.08674 0.0
C3915 C 0.52233 0.83064 0.08085 0.0
C3916 C 0.53147 0.81923 0.0745 0.0
C3917 C 0.50646 0.82928 0.08066 0.0
C3918 C 0.52458 0.8063 0.06825 0.0
C3919 C 0.50885 0.80486 0.06803 0.0
H3920 H 0.52956 0.1941 0.07002 0.0
H3921 H 0.53119 0.14979 0.09061 0.0
H3922 H 0.5035 0.14936 0.09219 0.0
H3923 H 0.4788 0.16134 0.08706 0.0
H3924 H 0.47741 0.20564 0.06637 0.0
H3925 H 0.50505 0.20633 0.06556 0.0
C3926 C 0.52386 0.18437 0.0749 0.0
C3927 C 0.53239 0.17198 0.08014 0.0
C3928 C 0.50799 0.18419 0.07574 0.0
C3929 C 0.52486 0.15947 0.08649 0.0
C3930 C 0.50904 0.15921 0.08738 0.0
C3931 C 0.48456 0.17116 0.08243 0.0
C3932 C 0.47608 0.18339 0.07673 0.0
C3933 C 0.50048 0.17147 0.08195 0.0
C3934 C 0.48368 0.19605 0.07079 0.0
C3935 C 0.49949 0.19646 0.07031 0.0
H3936 H 0.59537 0.66515 0.98089 0.0
H3937 H 0.56653 0.70451 0.97738 0.0
H3938 H 0.56546 0.70643 0.00493 0.0
H3939 H 0.57227 0.69672 0.02997 0.0
H3940 H 0.60094 0.65729 0.03378 0.0
H3941 H 0.60259 0.65564 0.00614 0.0
C3942 C 0.58889 0.67415 0.98618 0.0
C3943 C 0.58102 0.68464 0.97712 0.0
C3944 C 0.58829 0.67519 0.00205 0.0
C3945 C 0.57267 0.69627 0.9841 0.0
C3946 C 0.57205 0.69739 0.99986 0.0
C3947 C 0.57893 0.68779 0.02476 0.0
C3948 C 0.58646 0.67713 0.03388 0.0
C3949 C 0.57976 0.68688 0.00893 0.0
C3950 C 0.59504 0.66563 0.02698 0.0
C3951 C 0.59597 0.66468 0.01119 0.0
H3952 H 0.34334 0.58929 0.02722 0.0
H3953 H 0.29515 0.58164 0.03058 0.0
H3954 H 0.29289 0.58239 0.00305 0.0
H3955 H 0.30479 0.58339 0.97804 0.0
H3956 H 0.35306 0.5903 0.97439 0.0
H3957 H 0.3551 0.59176 0.00199 0.0
C3958 C 0.33234 0.58796 0.02191 0.0
C3959 C 0.31945 0.58532 0.0309 0.0
C3960 C 0.33114 0.58817 0.00603 0.0
C3961 C 0.30526 0.58359 0.02389 0.0
C3962 C 0.30395 0.584 0.00815 0.0
C3963 C 0.31574 0.58535 0.98328 0.0
C3964 C 0.32876 0.58663 0.97421 0.0
C3965 C 0.31685 0.58599 0.99911 0.0
C3966 C 0.34286 0.58923 0.98114 0.0
C3967 C 0.34404 0.59004 0.99692 0.0
H3968 H 0.44225 0.31542 0.02043 0.0
H3969 H 0.40097 0.34154 0.02267 0.0
H3970 H 0.39932 0.34158 0.99499 0.0
H3971 H 0.40965 0.33413 0.97015 0.0
H3972 H 0.45098 0.30805 0.96813 0.0
H3973 H 0.45258 0.30808 0.99574 0.0
C3974 C 0.43288 0.32111 0.01487 0.0
C3975 C 0.42174 0.32845 0.02357 0.0
C3976 C 0.43202 0.32111 0.99899 0.0
C3977 C 0.40969 0.33581 0.0162 0.0
C3978 C 0.40874 0.33583 1.00039 0.0
C3979 C 0.419 0.32847 0.97577 0.0
C3980 C 0.43017 0.32109 0.96712 0.0
C3981 C 0.41985 0.32852 0.99167 0.0
C3982 C 0.44223 0.3138 0.97454 0.0
C3983 C 0.44315 0.31381 0.99032 0.0
H3984 H 0.68859 0.4383 0.02659 0.0
H3985 H 0.65123 0.40682 0.02842 0.0
H3986 H 0.65049 0.40585 0.00073 0.0
H3987 H 0.66037 0.41416 0.97598 0.0
H3988 H 0.69765 0.44578 0.97436 0.0
H3989 H 0.69852 0.44646 0.00199 0.0
C3990 C 0.6803 0.43121 0.02093 0.0
C3991 C 0.66998 0.42265 0.02953 0.0
C3992 C 0.67993 0.43074 0.00505 0.0
C3993 C 0.65929 0.41352 0.02204 0.0
C3994 C 0.65887 0.41296 0.00622 0.0
C3995 C 0.6687 0.42117 0.98169 0.0
C3996 C 0.67893 0.42991 0.97315 0.0
C3997 C 0.66911 0.42155 0.9976 0.0
C3998 C 0.68965 0.43895 0.98069 0.0
C3999 C 0.69015 0.43936 0.99649 0.0
H4000 H 0.55801 0.3108 0.02452 0.0
H4001 H 0.59822 0.33803 0.03021 0.0
H4002 H 0.60018 0.34115 0.00274 0.0
H4003 H 0.59042 0.33611 0.97706 0.0
H4004 H 0.55018 0.30883 0.97162 0.0
H4005 H 0.54827 0.30581 0.99902 0.0
C4006 C 0.56721 0.31741 0.01975 0.0
C4007 C 0.57796 0.32416 0.02937 0.0
C4008 C 0.56825 0.31917 0.00399 0.0
C4009 C 0.58981 0.3327 0.02303 0.0
C4010 C 0.59093 0.3345 0.00733 0.0
C4011 C 0.58123 0.32953 0.9819 0.0
C4012 C 0.57046 0.32271 0.97233 0.0
C4013 C 0.58021 0.32779 0.99769 0.0
C4014 C 0.55863 0.3142 0.97873 0.0
C4015 C 0.55752 0.31245 0.99441 0.0
H4016 H 0.69472 0.56189 0.98364 0.0
H4017 H 0.66136 0.59744 0.97984 0.0
H4018 H 0.65897 0.59838 0.00742 0.0
H4019 H 0.66628 0.58896 0.03266 0.0
H4020 H 0.69957 0.5533 0.03627 0.0
H4021 H 0.70205 0.55255 0.00875 0.0
C4022 C 0.68694 0.56985 0.98885 0.0
C4023 C 0.67824 0.57958 0.97972 0.0
C4024 C 0.6856 0.57031 0.00469 0.0
C4025 C 0.66819 0.58983 0.98663 0.0
C4026 C 0.66681 0.59037 0.0024 0.0
C4027 C 0.67409 0.58104 0.02741 0.0
C4028 C 0.68273 0.57121 0.03649 0.0
C4029 C 0.67545 0.58065 0.01154 0.0
C4030 C 0.69279 0.561 0.02953 0.0
C4031 C 0.69422 0.56055 0.01379 0.0
H4032 H 0.41038 0.67986 0.03102 0.0
H4033 H 0.44606 0.64695 0.03689 0.0
H4034 H 0.44783 0.6437 0.00945 0.0
H4035 H 0.44065 0.65177 0.98377 0.0
H4036 H 0.40476 0.68448 0.97793 0.0
H4037 H 0.40155 0.68613 0.00537 0.0
C4038 C 0.41842 0.67187 0.02628 0.0
C4039 C 0.42817 0.66378 0.03593 0.0
C4040 C 0.41938 0.67007 0.01051 0.0
C4041 C 0.43845 0.65334 0.02968 0.0
C4042 C 0.43951 0.65151 0.01399 0.0
C4043 C 0.43201 0.65912 0.98851 0.0
C4044 C 0.42306 0.6681 0.97886 0.0
C4045 C 0.43025 0.66005 0.0043 0.0
C4046 C 0.41182 0.67748 0.98513 0.0
C4047 C 0.41001 0.67848 0.00082 0.0
H4048 H 0.30696 0.43077 0.97624 0.0
H4049 H 0.35327 0.41512 0.97505 0.0
H4050 H 0.35365 0.41375 0.00277 0.0
H4051 H 0.34091 0.41764 0.02736 0.0
H4052 H 0.2946 0.43342 0.02816 0.0
H4053 H 0.29412 0.43403 0.00054 0.0
C4054 C 0.31714 0.42703 0.98203 0.0
C4055 C 0.33008 0.42311 0.97364 0.0
C4056 C 0.31727 0.4263 0.99789 0.0
C4057 C 0.34316 0.41822 0.98129 0.0
C4058 C 0.34338 0.41745 0.99712 0.0
C4059 C 0.33071 0.42114 0.02147 0.0
C4060 C 0.31783 0.42552 0.02978 0.0
C4061 C 0.33052 0.42154 0.00555 0.0
C4062 C 0.30468 0.43004 0.02202 0.0
C4063 C 0.30439 0.4304 0.00622 0.0
H4064 H 0.9791 0.57932 0.65553 0.0
H4065 H 0.97356 0.57372 0.7038 0.0
H4066 H 0.00097 0.57385 0.70719 0.0
H4067 H 0.02645 0.57506 0.69653 0.0
H4068 H 0.03252 0.57956 0.64824 0.0
H4069 H 0.00497 0.58038 0.64474 0.0
C4070 C 0.98393 0.57819 0.66677 0.0
C4071 C 0.97434 0.57652 0.67939 0.0
C4072 C 0.99977 0.57805 0.66863 0.0
C4073 C 0.98071 0.57496 0.6939 0.0
C4074 C 0.99639 0.57506 0.69586 0.0
C4075 C 0.02176 0.57629 0.68523 0.0
C4076 C 0.03148 0.57729 0.67267 0.0
C4077 C 0.006 0.57652 0.68331 0.0
C4078 C 0.02524 0.57877 0.6581 0.0
C4079 C 0.00951 0.57924 0.6561 0.0
H4080 H 0.40454 0.02634 0.6683 0.0
H4081 H 0.45287 0.02803 0.67566 0.0
H4082 H 0.45397 1.0004 0.67613 0.0
H4083 H 0.44114 0.97579 0.67535 0.0
H4084 H 0.39295 0.97385 0.66736 0.0
H4085 H 0.39186 0.00154 0.66617 0.0
C4086 C 0.41531 0.02064 0.66994 0.0
C4087 C 0.42858 0.0292 0.67203 0.0
C4088 C 0.41589 0.00472 0.67012 0.0
C4089 C 0.44248 0.02169 0.67404 0.0
C4090 C 0.44313 0.00589 0.67434 0.0
C4091 C 0.43041 0.98143 0.6733 0.0
C4092 C 0.41713 0.97282 0.67155 0.0
C4093 C 0.42989 0.9973 0.67254 0.0
C4094 C 0.40333 0.98026 0.66876 0.0
C4095 C 0.40269 0.99608 0.66811 0.0
H4096 H 0.02755 0.41179 0.66624 0.0
H4097 H 0.03119 0.44249 0.70415 0.0
H4098 H 0.00365 0.44369 0.70609 0.0
H4099 H 0.97857 0.43653 0.69673 0.0
H4100 H 0.97461 0.40602 0.65874 0.0
H4101 H 0.00224 0.40418 0.65715 0.0
C4102 C 0.02229 0.4187 0.67494 0.0
C4103 C 0.03139 0.42706 0.68501 0.0
C4104 C 0.00642 0.41939 0.67597 0.0
C4105 C 0.02444 0.43596 0.69624 0.0
C4106 C 0.00869 0.43667 0.69736 0.0
C4107 C 0.98374 0.42943 0.68813 0.0
C4108 C 0.97458 0.42145 0.67785 0.0
C4109 C 0.99958 0.4285 0.68725 0.0
C4110 C 0.98144 0.41228 0.66678 0.0
C4111 C 0.99723 0.41125 0.66586 0.0
H4112 H 0.58977 0.97571 0.66476 0.0
H4113 H 0.5418 0.97548 0.6552 0.0
H4114 H 0.5414 0.00314 0.65558 0.0
H4115 H 0.55422 0.02726 0.66086 0.0
H4116 H 0.60206 0.02748 0.671 0.0
H4117 H 0.60299 0.99996 0.6681 0.0
C4118 C 0.57928 0.98173 0.66254 0.0
C4119 C 0.56582 0.97358 0.66006 0.0
C4120 C 0.57908 0.99762 0.66303 0.0
C4121 C 0.55231 0.98151 0.65719 0.0
C4122 C 0.55206 0.99732 0.65746 0.0
C4123 C 0.56487 0.02129 0.66229 0.0
C4124 C 0.57801 0.02935 0.66628 0.0
C4125 C 0.56529 0.00547 0.66074 0.0
C4126 C 0.59176 0.0215 0.66801 0.0
C4127 C 0.5923 0.00577 0.66637 0.0
H4128 H 0.02413 0.40369 0.31791 0.0
H4129 H 0.0266 0.44328 0.3465 0.0
H4130 H 0.99897 0.44412 0.34805 0.0
H4131 H 0.97406 0.43438 0.34017 0.0
H4132 H 0.97163 0.39457 0.3119 0.0
H4133 H 0.99926 0.39302 0.31135 0.0
C4134 C 0.01861 0.41242 0.32459 0.0
C4135 C 0.02738 0.42345 0.33201 0.0
C4136 C 0.00273 0.41285 0.32541 0.0
C4137 C 0.0201 0.43465 0.34068 0.0
C4138 C 0.00429 0.43518 0.34152 0.0
C4139 C 0.97959 0.42534 0.33395 0.0
C4140 C 0.97083 0.41468 0.326 0.0
C4141 C 0.99549 0.42447 0.33375 0.0
C4142 C 0.97813 0.40293 0.31809 0.0
C4143 C 0.99393 0.40205 0.31776 0.0
H4144 H 0.58884 0.02743 0.33639 0.0
H4145 H 0.54264 0.03261 0.32116 0.0
H4146 H 0.53936 0.00513 0.3212 0.0
H4147 H 0.54999 0.97963 0.32435 0.0
H4148 H 0.59617 0.97438 0.33955 0.0
H4149 H 0.59907 0.0019 0.34079 0.0
C4150 C 0.57803 0.02254 0.33318 0.0
C4151 C 0.56603 0.03202 0.32869 0.0
C4152 C 0.57624 0.00673 0.33316 0.0
C4153 C 0.55207 0.02554 0.32461 0.0
C4154 C 0.55019 0.00983 0.32461 0.0
C4155 C 0.56066 0.98451 0.32802 0.0
C4156 C 0.57287 0.97501 0.33177 0.0
C4157 C 0.56225 1.00032 0.32867 0.0
C4158 C 0.5866 0.98148 0.33658 0.0
C4159 C 0.58828 0.9972 0.33727 0.0
H4160 H 0.97877 0.59145 0.32793 0.0
H4161 H 0.97905 0.54833 0.35099 0.0
H4162 H 0.00671 0.54899 0.35224 0.0
H4163 H 0.0308 0.56083 0.345 0.0
H4164 H 0.03056 0.60335 0.32086 0.0
H4165 H 0.00288 0.60397 0.3219 0.0
C4166 C 0.98488 0.58231 0.33342 0.0
C4167 C 0.97691 0.56984 0.33931 0.0
C4168 C 0.00078 0.5826 0.3338 0.0
C4169 C 0.98496 0.55803 0.34633 0.0
C4170 C 0.00077 0.55838 0.34702 0.0
C4171 C 0.02469 0.57031 0.34011 0.0
C4172 C 0.03268 0.58199 0.3328 0.0
C4173 C 0.0088 0.57046 0.34051 0.0
C4174 C 0.02464 0.5942 0.3265 0.0
C4175 C 0.00882 0.59455 0.32707 0.0
H4176 H 0.4423 0.98255 0.3267 0.0
H4177 H 0.39355 0.97979 0.32901 0.0
H4178 H 0.39178 0.00746 0.32821 0.0
H4179 H 0.40414 0.03242 0.3258 0.0
H4180 H 0.45296 0.03493 0.32415 0.0
H4181 H 0.45465 0.00739 0.32583 0.0
C4182 C 0.43129 0.98801 0.32709 0.0
C4183 C 0.41808 0.97917 0.3278 0.0
C4184 C 0.43038 0.00388 0.32672 0.0
C4185 C 0.40389 0.98638 0.32846 0.0
C4186 C 0.40287 0.00219 0.32796 0.0
C4187 C 0.41514 0.02692 0.32588 0.0
C4188 C 0.4284 0.03568 0.32473 0.0
C4189 C 0.41604 0.01105 0.32693 0.0
C4190 C 0.44258 0.02844 0.32497 0.0
C4191 C 0.44356 0.01269 0.32591 0.0
H4192 H 0.66226 0.97583 0.59059 0.0
H4193 H 0.68763 0.97123 0.54902 0.0
H4194 H 0.68803 0.9987 0.54599 0.0
H4195 H 0.68155 0.02402 0.55526 0.0
H4196 H 0.65694 0.02898 0.5972 0.0
H4197 H 0.6558 0.00139 0.59995 0.0
C4198 C 0.66785 0.98086 0.58086 0.0
C4199 C 0.67491 0.97151 0.57005 0.0
C4200 C 0.66816 0.99671 0.57925 0.0
C4201 C 0.68215 0.97818 0.55753 0.0
C4202 C 0.68237 0.99389 0.55577 0.0
C4203 C 0.67586 0.01906 0.56497 0.0
C4204 C 0.6693 0.0285 0.57599 0.0
C4205 C 0.67545 0.00326 0.56657 0.0
C4206 C 0.66207 0.02193 0.58856 0.0
C4207 C 0.66143 0.00617 0.59014 0.0
H4208 H 0.66082 0.97671 0.41047 0.0
H4209 H 0.69393 0.97235 0.44622 0.0
H4210 H 0.69679 0.99982 0.4472 0.0
H4211 H 0.68965 0.02509 0.43824 0.0
H4212 H 0.6565 0.02971 0.40261 0.0
H4213 H 0.65393 0.00215 0.4012 0.0
C4214 C 0.66867 0.98179 0.41845 0.0
C4215 C 0.67712 0.97252 0.42827 0.0
C4216 C 0.67026 0.99763 0.41897 0.0
C4217 C 0.68727 0.97924 0.43854 0.0
C4218 C 0.68892 0.99495 0.43912 0.0
C4219 C 0.6819 0.02006 0.43013 0.0
C4220 C 0.67327 0.02941 0.42056 0.0
C4221 C 0.68045 0.00425 0.42943 0.0
C4222 C 0.66327 0.02274 0.41011 0.0
C4223 C 0.66179 0.00699 0.40931 0.0
H4224 H 0.02359 0.66016 0.41502 0.0
H4225 H 0.02564 0.70606 0.43179 0.0
H4226 H 0.99804 0.70769 0.43129 0.0
H4227 H 0.9733 0.69571 0.42731 0.0
H4228 H 0.97106 0.64977 0.41072 0.0
H4229 H 0.99873 0.64854 0.40989 0.0
C4230 C 0.01799 0.67055 0.41844 0.0
C4231 C 0.02664 0.68294 0.4235 0.0
C4232 C 0.00208 0.67138 0.41824 0.0
C4233 C 0.01923 0.69634 0.42789 0.0
C4234 C 0.00345 0.69728 0.42764 0.0
C4235 C 0.97887 0.68546 0.42344 0.0
C4236 C 0.97016 0.67283 0.41917 0.0
C4237 C 0.99476 0.68481 0.42303 0.0
C4238 C 0.97753 0.65965 0.4141 0.0
C4239 C 0.99335 0.65892 0.41364 0.0
H4240 H 0.34353 0.02969 0.43549 0.0
H4241 H 0.31723 0.03502 0.39461 0.0
H4242 H 0.31513 0.00752 0.39217 0.0
H4243 H 0.31913 0.98208 0.40272 0.0
H4244 H 0.34514 0.97679 0.4438 0.0
H4245 H 0.3491 0.00416 0.44502 0.0
C4246 C 0.33748 0.02482 0.42596 0.0
C4247 C 0.33045 0.03435 0.41531 0.0
C4248 C 0.3362 0.00902 0.42471 0.0
C4249 C 0.3227 0.02791 0.40298 0.0
C4250 C 0.32146 0.01219 0.4016 0.0
C4251 C 0.32579 0.98691 0.41185 0.0
C4252 C 0.33173 0.97746 0.42321 0.0
C4253 C 0.32791 0.00265 0.41256 0.0
C4254 C 0.3404 0.98385 0.43494 0.0
C4255 C 0.34264 0.99949 0.43567 0.0
H4256 H 0.9802 0.33873 0.41704 0.0
H4257 H 0.97795 0.29034 0.42379 0.0
H4258 H 0.00555 0.28884 0.42375 0.0
H4259 H 0.03028 0.3014 0.42323 0.0
H4260 H 0.03279 0.34976 0.41653 0.0
H4261 H 0.00513 0.35116 0.4151 0.0
C4262 C 0.98577 0.32785 0.41834 0.0
C4263 C 0.97706 0.31469 0.42049 0.0
C4264 C 0.00167 0.32708 0.41844 0.0
C4265 C 0.98441 0.30065 0.42215 0.0
C4266 C 1.00019 0.29978 0.42218 0.0
C4267 C 0.02478 0.31224 0.42141 0.0
C4268 C 0.03353 0.32547 0.42012 0.0
C4269 C 0.00892 0.31295 0.42058 0.0
C4270 C 0.02627 0.33942 0.41761 0.0
C4271 C 0.01046 0.34023 0.4168 0.0
H4272 H 0.34098 0.02289 0.56329 0.0
H4273 H 0.31387 0.02797 0.60366 0.0
H4274 H 0.31286 1.00045 0.60663 0.0
H4275 H 0.318 0.97499 0.59661 0.0
H4276 H 0.34455 0.96998 0.55585 0.0
H4277 H 0.34758 0.99745 0.55425 0.0
C4278 C 0.33499 0.01798 0.57283 0.0
C4279 C 0.32742 0.02743 0.58318 0.0
C4280 C 0.3343 0.00217 0.57435 0.0
C4281 C 0.31974 0.02092 0.59551 0.0
C4282 C 0.31913 0.00519 0.5972 0.0
C4283 C 0.32459 0.97991 0.58748 0.0
C4284 C 0.33095 0.9705 0.57631 0.0
C4285 C 0.32611 0.99571 0.58652 0.0
C4286 C 0.3395 0.977 0.56456 0.0
C4287 C 0.3412 0.9927 0.56362 0.0
H4288 H 0.97698 0.31258 0.59315 0.0
H4289 H 0.97077 0.35694 0.57356 0.0
H4290 H 0.99825 0.3605 0.57254 0.0
H4291 H 0.02403 0.35019 0.57558 0.0
H4292 H 0.02999 0.30569 0.595 0.0
H4293 H 0.00262 0.30306 0.59784 0.0
C4294 C 0.98164 0.32308 0.58877 0.0
C4295 C 0.97189 0.33443 0.58332 0.0
C4296 C 0.9974 0.325 0.58814 0.0
C4297 C 0.97807 0.34802 0.57779 0.0
C4298 C 0.99377 0.35004 0.57717 0.0
C4299 C 0.01933 0.33999 0.58058 0.0
C4300 C 0.029 0.32811 0.58497 0.0
C4301 C 0.00355 0.33849 0.58207 0.0
C4302 C 0.02277 0.31498 0.59148 0.0
C4303 C 0.00712 0.31345 0.59307 0.0
H4304 H 0.98404 0.65607 0.57641 0.0
H4305 H 0.97844 0.70039 0.59633 0.0
H4306 H 0.00581 0.7026 0.59957 0.0
H4307 H 0.03139 0.69283 0.59493 0.0
H4308 H 0.03718 0.64861 0.5749 0.0
H4309 H 0.00968 0.64541 0.57362 0.0
C4310 C 0.98881 0.66612 0.58162 0.0
C4311 C 0.97925 0.67809 0.58601 0.0
C4312 C 0.00459 0.66738 0.58334 0.0
C4313 C 0.98557 0.69103 0.59281 0.0
C4314 C 0.00122 0.69233 0.59462 0.0
C4315 C 0.02663 0.68244 0.59041 0.0
C4316 C 0.03627 0.67103 0.58489 0.0
C4317 C 0.01085 0.68072 0.58964 0.0
C4318 C 0.02997 0.65757 0.57919 0.0
C4319 C 0.01425 0.65576 0.57841 0.0
loop_
_geom_bond_atom_site_label_1
_geom_bond_atom_site_label_2
_geom_bond_distance
_geom_bond_site_symmetry_2
_ccdc_geom_bond_type
In0 O1 2.294 . S
In0 O2 2.326 . S
In0 O6 2.266 . S
In0 O7 2.326 . S
In0 O8 2.266 . S
In0 O9 2.326 . S
In0 O11 2.294 . S
In0 O12 2.326 . S
O1 In0 2.294 . S
O1 C10 1.240 . S
O2 In0 2.326 . S
O2 C10 1.252 . S
C3 O6 1.252 . S
C3 O7 1.260 . S
C4 O11 1.240 . S
C4 O12 1.252 . S
C5 O8 1.252 . S
C5 O9 1.260 . S
O6 In0 2.266 . S
O6 C3 1.252 . S
O7 In0 2.326 . S
O7 C3 1.260 . S
O8 In0 2.266 . S
O8 C5 1.252 . S
O9 In0 2.326 . S
O9 C5 1.260 . S
C10 O1 1.240 . S
C10 O2 1.252 . S
O11 In0 2.294 . S
O11 C4 1.240 . S
O12 In0 2.326 . S
O12 C4 1.252 . S
In13 O14 2.294 . S
In13 O15 2.326 . S
In13 O19 2.266 . S
In13 O20 2.326 . S
In13 O21 2.266 . S
In13 O22 2.326 . S
In13 O24 2.294 . S
In13 O25 2.326 . S
O14 In13 2.294 . S
O14 C23 1.240 . S
O15 In13 2.326 . S
O15 C23 1.252 . S
C16 O19 1.252 . S
C16 O20 1.260 . S
C17 O24 1.240 . S
C17 O25 1.252 . S
C18 O21 1.252 . S
C18 O22 1.260 . S
O19 In13 2.266 . S
O19 C16 1.252 . S
O20 In13 2.326 . S
O20 C16 1.260 . S
O21 In13 2.266 . S
O21 C18 1.252 . S
O22 In13 2.326 . S
O22 C18 1.260 . S
C23 O14 1.240 . S
C23 O15 1.252 . S
O24 In13 2.294 . S
O24 C17 1.240 . S
O25 In13 2.326 . S
O25 C17 1.252 . S
In26 O27 2.294 . S
In26 O28 2.326 . S
In26 O32 2.266 . S
In26 O33 2.326 . S
In26 O34 2.266 . S
In26 O35 2.326 . S
In26 O37 2.294 . S
In26 O38 2.326 . S
O27 In26 2.294 . S
O27 C36 1.240 . S
O28 In26 2.326 . S
O28 C36 1.252 . S
C29 O32 1.252 . S
C29 O33 1.260 . S
C30 O37 1.240 . S
C30 O38 1.252 . S
C31 O34 1.252 . S
C31 O35 1.260 . S
O32 In26 2.266 . S
O32 C29 1.252 . S
O33 In26 2.326 . S
O33 C29 1.260 . S
O34 In26 2.266 . S
O34 C31 1.252 . S
O35 In26 2.326 . S
O35 C31 1.260 . S
C36 O27 1.240 . S
C36 O28 1.252 . S
O37 In26 2.294 . S
O37 C30 1.240 . S
O38 In26 2.326 . S
O38 C30 1.252 . S
In39 O40 2.294 . S
In39 O41 2.326 . S
In39 O45 2.266 . S
In39 O46 2.326 . S
In39 O47 2.266 . S
In39 O48 2.326 . S
In39 O50 2.294 . S
In39 O51 2.326 . S
O40 In39 2.294 . S
O40 C49 1.240 . S
O41 In39 2.326 . S
O41 C49 1.252 . S
C42 O45 1.252 . S
C42 O46 1.260 . S
C43 O50 1.240 . S
C43 O51 1.252 . S
C44 O47 1.252 . S
C44 O48 1.260 . S
O45 In39 2.266 . S
O45 C42 1.252 . S
O46 In39 2.326 . S
O46 C42 1.260 . S
O47 In39 2.266 . S
O47 C44 1.252 . S
O48 In39 2.326 . S
O48 C44 1.260 . S
C49 O40 1.240 . S
C49 O41 1.252 . S
O50 In39 2.294 . S
O50 C43 1.240 . S
O51 In39 2.326 . S
O51 C43 1.252 . S
In52 O53 2.294 . S
In52 O54 2.326 . S
In52 O58 2.266 . S
In52 O59 2.326 . S
In52 O60 2.266 . S
In52 O61 2.326 . S
In52 O63 2.294 . S
In52 O64 2.326 . S
O53 In52 2.294 . S
O53 C62 1.240 . S
O54 In52 2.326 . S
O54 C62 1.252 . S
C55 O58 1.252 . S
C55 O59 1.260 . S
C56 O63 1.240 . S
C56 O64 1.252 . S
C57 O60 1.252 . S
C57 O61 1.260 . S
O58 In52 2.266 . S
O58 C55 1.252 . S
O59 In52 2.326 . S
O59 C55 1.260 . S
O60 In52 2.266 . S
O60 C57 1.252 . S
O61 In52 2.326 . S
O61 C57 1.260 . S
C62 O53 1.240 . S
C62 O54 1.252 . S
O63 In52 2.294 . S
O63 C56 1.240 . S
O64 In52 2.326 . S
O64 C56 1.252 . S
In65 O66 2.294 . S
In65 O67 2.326 . S
In65 O71 2.266 . S
In65 O72 2.326 . S
In65 O73 2.266 . S
In65 O74 2.326 . S
In65 O76 2.294 . S
In65 O77 2.326 . S
O66 In65 2.294 . S
O66 C75 1.240 . S
O67 In65 2.326 . S
O67 C75 1.252 . S
C68 O71 1.252 . S
C68 O72 1.260 . S
C69 O76 1.240 . S
C69 O77 1.252 . S
C70 O73 1.252 . S
C70 O74 1.260 . S
O71 In65 2.266 . S
O71 C68 1.252 . S
O72 In65 2.326 . S
O72 C68 1.260 . S
O73 In65 2.266 . S
O73 C70 1.252 . S
O74 In65 2.326 . S
O74 C70 1.260 . S
C75 O66 1.240 . S
C75 O67 1.252 . S
O76 In65 2.294 . S
O76 C69 1.240 . S
O77 In65 2.326 . S
O77 C69 1.252 . S
In78 O79 2.294 . S
In78 O80 2.326 . S
In78 O84 2.266 . S
In78 O85 2.326 . S
In78 O86 2.266 . S
In78 O87 2.326 . S
In78 O89 2.294 . S
In78 O90 2.326 . S
O79 In78 2.294 . S
O79 C88 1.240 . S
O80 In78 2.326 . S
O80 C88 1.252 . S
C81 O84 1.252 . S
C81 O85 1.260 . S
C82 O89 1.240 . S
C82 O90 1.252 . S
C83 O86 1.252 . S
C83 O87 1.260 . S
O84 In78 2.266 . S
O84 C81 1.252 . S
O85 In78 2.326 . S
O85 C81 1.260 . S
O86 In78 2.266 . S
O86 C83 1.252 . S
O87 In78 2.326 . S
O87 C83 1.260 . S
C88 O79 1.240 . S
C88 O80 1.252 . S
O89 In78 2.294 . S
O89 C82 1.240 . S
O90 In78 2.326 . S
O90 C82 1.252 . S
In91 O92 2.294 . S
In91 O93 2.326 . S
In91 O97 2.266 . S
In91 O98 2.326 . S
In91 O99 2.266 . S
In91 O100 2.326 . S
In91 O102 2.294 . S
In91 O103 2.326 . S
O92 In91 2.294 . S
O92 C101 1.240 . S
O93 In91 2.326 . S
O93 C101 1.252 . S
C94 O97 1.252 . S
C94 O98 1.260 . S
C95 O102 1.240 . S
C95 O103 1.252 . S
C96 O99 1.252 . S
C96 O100 1.260 . S
O97 In91 2.266 . S
O97 C94 1.252 . S
O98 In91 2.326 . S
O98 C94 1.260 . S
O99 In91 2.266 . S
O99 C96 1.252 . S
O100 In91 2.326 . S
O100 C96 1.260 . S
C101 O92 1.240 . S
C101 O93 1.252 . S
O102 In91 2.294 . S
O102 C95 1.240 . S
O103 In91 2.326 . S
O103 C95 1.252 . S
In104 O105 2.294 . S
In104 O106 2.326 . S
In104 O110 2.266 . S
In104 O111 2.326 . S
In104 O112 2.266 . S
In104 O113 2.326 . S
In104 O115 2.294 . S
In104 O116 2.326 . S
O105 In104 2.294 . S
O105 C114 1.240 . S
O106 In104 2.326 . S
O106 C114 1.252 . S
C107 O110 1.252 . S
C107 O111 1.260 . S
C108 O115 1.240 . S
C108 O116 1.252 . S
C109 O112 1.252 . S
C109 O113 1.260 . S
O110 In104 2.266 . S
O110 C107 1.252 . S
O111 In104 2.326 . S
O111 C107 1.260 . S
O112 In104 2.266 . S
O112 C109 1.252 . S
O113 In104 2.326 . S
O113 C109 1.260 . S
C114 O105 1.240 . S
C114 O106 1.252 . S
O115 In104 2.294 . S
O115 C108 1.240 . S
O116 In104 2.326 . S
O116 C108 1.252 . S
In117 O118 2.294 . S
In117 O119 2.326 . S
In117 O123 2.266 . S
In117 O124 2.326 . S
In117 O125 2.266 . S
In117 O126 2.326 . S
In117 O128 2.294 . S
In117 O129 2.326 . S
O118 In117 2.294 . S
O118 C127 1.240 . S
O119 In117 2.326 . S
O119 C127 1.252 . S
C120 O123 1.252 . S
C120 O124 1.260 . S
C121 O128 1.240 . S
C121 O129 1.252 . S
C122 O125 1.252 . S
C122 O126 1.260 . S
O123 In117 2.266 . S
O123 C120 1.252 . S
O124 In117 2.326 . S
O124 C120 1.260 . S
O125 In117 2.266 . S
O125 C122 1.252 . S
O126 In117 2.326 . S
O126 C122 1.260 . S
C127 O118 1.240 . S
C127 O119 1.252 . S
O128 In117 2.294 . S
O128 C121 1.240 . S
O129 In117 2.326 . S
O129 C121 1.252 . S
In130 O131 2.294 . S
In130 O132 2.326 . S
In130 O136 2.266 . S
In130 O137 2.326 . S
In130 O138 2.266 . S
In130 O139 2.326 . S
In130 O141 2.294 . S
In130 O142 2.326 . S
O131 In130 2.294 . S
O131 C140 1.240 . S
O132 In130 2.326 . S
O132 C140 1.252 . S
C133 O136 1.252 . S
C133 O137 1.260 . S
C134 O141 1.240 . S
C134 O142 1.252 . S
C135 O138 1.252 . S
C135 O139 1.260 . S
O136 In130 2.266 . S
O136 C133 1.252 . S
O137 In130 2.326 . S
O137 C133 1.260 . S
O138 In130 2.266 . S
O138 C135 1.252 . S
O139 In130 2.326 . S
O139 C135 1.260 . S
C140 O131 1.240 . S
C140 O132 1.252 . S
O141 In130 2.294 . S
O141 C134 1.240 . S
O142 In130 2.326 . S
O142 C134 1.252 . S
In143 O144 2.294 . S
In143 O145 2.326 . S
In143 O149 2.266 . S
In143 O150 2.326 . S
In143 O151 2.266 . S
In143 O152 2.326 . S
In143 O154 2.294 . S
In143 O155 2.326 . S
O144 In143 2.294 . S
O144 C153 1.240 . S
O145 In143 2.326 . S
O145 C153 1.252 . S
C146 O149 1.252 . S
C146 O150 1.260 . S
C147 O154 1.240 . S
C147 O155 1.252 . S
C148 O151 1.252 . S
C148 O152 1.260 . S
O149 In143 2.266 . S
O149 C146 1.252 . S
O150 In143 2.326 . S
O150 C146 1.260 . S
O151 In143 2.266 . S
O151 C148 1.252 . S
O152 In143 2.326 . S
O152 C148 1.260 . S
C153 O144 1.240 . S
C153 O145 1.252 . S
O154 In143 2.294 . S
O154 C147 1.240 . S
O155 In143 2.326 . S
O155 C147 1.252 . S
In156 O157 2.294 . S
In156 O158 2.326 . S
In156 O162 2.266 . S
In156 O163 2.326 . S
In156 O164 2.266 . S
In156 O165 2.326 . S
In156 O167 2.294 . S
In156 O168 2.326 . S
O157 In156 2.294 . S
O157 C166 1.240 . S
O158 In156 2.326 . S
O158 C166 1.252 . S
C159 O162 1.252 . S
C159 O163 1.260 . S
C160 O167 1.240 . S
C160 O168 1.252 . S
C161 O164 1.252 . S
C161 O165 1.260 . S
O162 In156 2.266 . S
O162 C159 1.252 . S
O163 In156 2.326 . S
O163 C159 1.260 . S
O164 In156 2.266 . S
O164 C161 1.252 . S
O165 In156 2.326 . S
O165 C161 1.260 . S
C166 O157 1.240 . S
C166 O158 1.252 . S
O167 In156 2.294 . S
O167 C160 1.240 . S
O168 In156 2.326 . S
O168 C160 1.252 . S
In169 O170 2.294 . S
In169 O171 2.326 . S
In169 O175 2.266 . S
In169 O176 2.326 . S
In169 O177 2.266 . S
In169 O178 2.326 . S
In169 O180 2.294 . S
In169 O181 2.326 . S
O170 In169 2.294 . S
O170 C179 1.240 . S
O171 In169 2.326 . S
O171 C179 1.252 . S
C172 O175 1.252 . S
C172 O176 1.260 . S
C173 O180 1.240 . S
C173 O181 1.252 . S
C174 O177 1.252 . S
C174 O178 1.260 . S
O175 In169 2.266 . S
O175 C172 1.252 . S
O176 In169 2.326 . S
O176 C172 1.260 . S
O177 In169 2.266 . S
O177 C174 1.252 . S
O178 In169 2.326 . S
O178 C174 1.260 . S
C179 O170 1.240 . S
C179 O171 1.252 . S
O180 In169 2.294 . S
O180 C173 1.240 . S
O181 In169 2.326 . S
O181 C173 1.252 . S
In182 O183 2.294 . S
In182 O184 2.326 . S
In182 O188 2.266 . S
In182 O189 2.326 . S
In182 O190 2.266 . S
In182 O191 2.326 . S
In182 O193 2.294 . S
In182 O194 2.326 . S
O183 In182 2.294 . S
O183 C192 1.240 . S
O184 In182 2.326 . S
O184 C192 1.252 . S
C185 O188 1.252 . S
C185 O189 1.260 . S
C186 O193 1.240 . S
C186 O194 1.252 . S
C187 O190 1.252 . S
C187 O191 1.260 . S
O188 In182 2.266 . S
O188 C185 1.252 . S
O189 In182 2.326 . S
O189 C185 1.260 . S
O190 In182 2.266 . S
O190 C187 1.252 . S
O191 In182 2.326 . S
O191 C187 1.260 . S
C192 O183 1.240 . S
C192 O184 1.252 . S
O193 In182 2.294 . S
O193 C186 1.240 . S
O194 In182 2.326 . S
O194 C186 1.252 . S
In195 O196 2.294 . S
In195 O197 2.326 . S
In195 O201 2.266 . S
In195 O202 2.326 . S
In195 O203 2.266 . S
In195 O204 2.326 . S
In195 O206 2.294 . S
In195 O207 2.326 . S
O196 In195 2.294 . S
O196 C205 1.240 . S
O197 In195 2.326 . S
O197 C205 1.252 . S
C198 O201 1.252 . S
C198 O202 1.260 . S
C199 O206 1.240 . S
C199 O207 1.252 . S
C200 O203 1.252 . S
C200 O204 1.260 . S
O201 In195 2.266 . S
O201 C198 1.252 . S
O202 In195 2.326 . S
O202 C198 1.260 . S
O203 In195 2.266 . S
O203 C200 1.252 . S
O204 In195 2.326 . S
O204 C200 1.260 . S
C205 O196 1.240 . S
C205 O197 1.252 . S
O206 In195 2.294 . S
O206 C199 1.240 . S
O207 In195 2.326 . S
O207 C199 1.252 . S
In208 O209 2.294 . S
In208 O210 2.326 . S
In208 O214 2.266 . S
In208 O215 2.326 . S
In208 O216 2.266 . S
In208 O217 2.326 . S
In208 O219 2.294 . S
In208 O220 2.326 . S
O209 In208 2.294 . S
O209 C218 1.240 . S
O210 In208 2.326 . S
O210 C218 1.252 . S
C211 O214 1.252 . S
C211 O215 1.260 . S
C212 O219 1.240 . S
C212 O220 1.252 . S
C213 O216 1.252 . S
C213 O217 1.260 . S
O214 In208 2.266 . S
O214 C211 1.252 . S
O215 In208 2.326 . S
O215 C211 1.260 . S
O216 In208 2.266 . S
O216 C213 1.252 . S
O217 In208 2.326 . S
O217 C213 1.260 . S
C218 O209 1.240 . S
C218 O210 1.252 . S
O219 In208 2.294 . S
O219 C212 1.240 . S
O220 In208 2.326 . S
O220 C212 1.252 . S
In221 O222 2.294 . S
In221 O223 2.326 . S
In221 O227 2.266 . S
In221 O228 2.326 . S
In221 O229 2.266 . S
In221 O230 2.326 . S
In221 O232 2.294 . S
In221 O233 2.326 . S
O222 In221 2.294 . S
O222 C231 1.240 . S
O223 In221 2.326 . S
O223 C231 1.252 . S
C224 O227 1.252 . S
C224 O228 1.260 . S
C225 O232 1.240 . S
C225 O233 1.252 . S
C226 O229 1.252 . S
C226 O230 1.260 . S
O227 In221 2.266 . S
O227 C224 1.252 . S
O228 In221 2.326 . S
O228 C224 1.260 . S
O229 In221 2.266 . S
O229 C226 1.252 . S
O230 In221 2.326 . S
O230 C226 1.260 . S
C231 O222 1.240 . S
C231 O223 1.252 . S
O232 In221 2.294 . S
O232 C225 1.240 . S
O233 In221 2.326 . S
O233 C225 1.252 . S
In234 O235 2.294 . S
In234 O236 2.326 . S
In234 O240 2.266 . S
In234 O241 2.326 . S
In234 O242 2.266 . S
In234 O243 2.326 . S
In234 O245 2.294 . S
In234 O246 2.326 . S
O235 In234 2.294 . S
O235 C244 1.240 . S
O236 In234 2.326 . S
O236 C244 1.252 . S
C237 O240 1.252 . S
C237 O241 1.260 . S
C238 O245 1.240 . S
C238 O246 1.252 . S
C239 O242 1.252 . S
C239 O243 1.260 . S
O240 In234 2.266 . S
O240 C237 1.252 . S
O241 In234 2.326 . S
O241 C237 1.260 . S
O242 In234 2.266 . S
O242 C239 1.252 . S
O243 In234 2.326 . S
O243 C239 1.260 . S
C244 O235 1.240 . S
C244 O236 1.252 . S
O245 In234 2.294 . S
O245 C238 1.240 . S
O246 In234 2.326 . S
O246 C238 1.252 . S
In247 O248 2.294 . S
In247 O249 2.326 . S
In247 O253 2.266 . S
In247 O254 2.326 . S
In247 O255 2.266 . S
In247 O256 2.326 . S
In247 O258 2.294 . S
In247 O259 2.326 . S
O248 In247 2.294 . S
O248 C257 1.240 . S
O249 In247 2.326 . S
O249 C257 1.252 . S
C250 O253 1.252 . S
C250 O254 1.260 . S
C251 O258 1.240 . S
C251 O259 1.252 . S
C252 O255 1.252 . S
C252 O256 1.260 . S
O253 In247 2.266 . S
O253 C250 1.252 . S
O254 In247 2.326 . S
O254 C250 1.260 . S
O255 In247 2.266 . S
O255 C252 1.252 . S
O256 In247 2.326 . S
O256 C252 1.260 . S
C257 O248 1.240 . S
C257 O249 1.252 . S
O258 In247 2.294 . S
O258 C251 1.240 . S
O259 In247 2.326 . S
O259 C251 1.252 . S
In260 O261 2.294 . S
In260 O262 2.326 . S
In260 O266 2.266 . S
In260 O267 2.326 . S
In260 O268 2.266 . S
In260 O269 2.326 . S
In260 O271 2.294 . S
In260 O272 2.326 . S
O261 In260 2.294 . S
O261 C270 1.240 . S
O262 In260 2.326 . S
O262 C270 1.252 . S
C263 O266 1.252 . S
C263 O267 1.260 . S
C264 O271 1.240 . S
C264 O272 1.252 . S
C265 O268 1.252 . S
C265 O269 1.260 . S
O266 In260 2.266 . S
O266 C263 1.252 . S
O267 In260 2.326 . S
O267 C263 1.260 . S
O268 In260 2.266 . S
O268 C265 1.252 . S
O269 In260 2.326 . S
O269 C265 1.260 . S
C270 O261 1.240 . S
C270 O262 1.252 . S
O271 In260 2.294 . S
O271 C264 1.240 . S
O272 In260 2.326 . S
O272 C264 1.252 . S
In273 O274 2.294 . S
In273 O275 2.326 . S
In273 O279 2.266 . S
In273 O280 2.326 . S
In273 O281 2.266 . S
In273 O282 2.326 . S
In273 O284 2.294 . S
In273 O285 2.326 . S
O274 In273 2.294 . S
O274 C283 1.240 . S
O275 In273 2.326 . S
O275 C283 1.252 . S
C276 O279 1.252 . S
C276 O280 1.260 . S
C277 O284 1.240 . S
C277 O285 1.252 . S
C278 O281 1.252 . S
C278 O282 1.260 . S
O279 In273 2.266 . S
O279 C276 1.252 . S
O280 In273 2.326 . S
O280 C276 1.260 . S
O281 In273 2.266 . S
O281 C278 1.252 . S
O282 In273 2.326 . S
O282 C278 1.260 . S
C283 O274 1.240 . S
C283 O275 1.252 . S
O284 In273 2.294 . S
O284 C277 1.240 . S
O285 In273 2.326 . S
O285 C277 1.252 . S
In286 O287 2.294 . S
In286 O288 2.326 . S
In286 O292 2.266 . S
In286 O293 2.326 . S
In286 O294 2.266 . S
In286 O295 2.326 . S
In286 O297 2.294 . S
In286 O298 2.326 . S
O287 In286 2.294 . S
O287 C296 1.240 . S
O288 In286 2.326 . S
O288 C296 1.252 . S
C289 O292 1.252 . S
C289 O293 1.260 . S
C290 O297 1.240 . S
C290 O298 1.252 . S
C291 O294 1.252 . S
C291 O295 1.260 . S
O292 In286 2.266 . S
O292 C289 1.252 . S
O293 In286 2.326 . S
O293 C289 1.260 . S
O294 In286 2.266 . S
O294 C291 1.252 . S
O295 In286 2.326 . S
O295 C291 1.260 . S
C296 O287 1.240 . S
C296 O288 1.252 . S
O297 In286 2.294 . S
O297 C290 1.240 . S
O298 In286 2.326 . S
O298 C290 1.252 . S
In299 O300 2.294 . S
In299 O301 2.326 . S
In299 O305 2.266 . S
In299 O306 2.326 . S
In299 O307 2.266 . S
In299 O308 2.326 . S
In299 O310 2.294 . S
In299 O311 2.326 . S
O300 In299 2.294 . S
O300 C309 1.240 . S
O301 In299 2.326 . S
O301 C309 1.252 . S
C302 O305 1.252 . S
C302 O306 1.260 . S
C303 O310 1.240 . S
C303 O311 1.252 . S
C304 O307 1.252 . S
C304 O308 1.260 . S
O305 In299 2.266 . S
O305 C302 1.252 . S
O306 In299 2.326 . S
O306 C302 1.260 . S
O307 In299 2.266 . S
O307 C304 1.252 . S
O308 In299 2.326 . S
O308 C304 1.260 . S
C309 O300 1.240 . S
C309 O301 1.252 . S
O310 In299 2.294 . S
O310 C303 1.240 . S
O311 In299 2.326 . S
O311 C303 1.252 . S
In312 O313 2.294 . S
In312 O314 2.326 . S
In312 O318 2.266 . S
In312 O319 2.326 . S
In312 O320 2.266 . S
In312 O321 2.326 . S
In312 O323 2.294 . S
In312 O324 2.326 . S
O313 In312 2.294 . S
O313 C322 1.240 . S
O314 In312 2.326 . S
O314 C322 1.252 . S
C315 O318 1.252 . S
C315 O319 1.260 . S
C316 O323 1.240 . S
C316 O324 1.252 . S
C317 O320 1.252 . S
C317 O321 1.260 . S
O318 In312 2.266 . S
O318 C315 1.252 . S
O319 In312 2.326 . S
O319 C315 1.260 . S
O320 In312 2.266 . S
O320 C317 1.252 . S
O321 In312 2.326 . S
O321 C317 1.260 . S
C322 O313 1.240 . S
C322 O314 1.252 . S
O323 In312 2.294 . S
O323 C316 1.240 . S
O324 In312 2.326 . S
O324 C316 1.252 . S
In325 O326 2.294 . S
In325 O327 2.326 . S
In325 O331 2.266 . S
In325 O332 2.326 . S
In325 O333 2.266 . S
In325 O334 2.326 . S
In325 O336 2.294 . S
In325 O337 2.326 . S
O326 In325 2.294 . S
O326 C335 1.240 . S
O327 In325 2.326 . S
O327 C335 1.252 . S
C328 O331 1.252 . S
C328 O332 1.260 . S
C329 O336 1.240 . S
C329 O337 1.252 . S
C330 O333 1.252 . S
C330 O334 1.260 . S
O331 In325 2.266 . S
O331 C328 1.252 . S
O332 In325 2.326 . S
O332 C328 1.260 . S
O333 In325 2.266 . S
O333 C330 1.252 . S
O334 In325 2.326 . S
O334 C330 1.260 . S
C335 O326 1.240 . S
C335 O327 1.252 . S
O336 In325 2.294 . S
O336 C329 1.240 . S
O337 In325 2.326 . S
O337 C329 1.252 . S
In338 O339 2.294 . S
In338 O340 2.326 . S
In338 O344 2.266 . S
In338 O345 2.326 . S
In338 O346 2.266 . S
In338 O347 2.326 . S
In338 O349 2.294 . S
In338 O350 2.326 . S
O339 In338 2.294 . S
O339 C348 1.240 . S
O340 In338 2.326 . S
O340 C348 1.252 . S
C341 O344 1.252 . S
C341 O345 1.260 . S
C342 O349 1.240 . S
C342 O350 1.252 . S
C343 O346 1.252 . S
C343 O347 1.260 . S
O344 In338 2.266 . S
O344 C341 1.252 . S
O345 In338 2.326 . S
O345 C341 1.260 . S
O346 In338 2.266 . S
O346 C343 1.252 . S
O347 In338 2.326 . S
O347 C343 1.260 . S
C348 O339 1.240 . S
C348 O340 1.252 . S
O349 In338 2.294 . S
O349 C342 1.240 . S
O350 In338 2.326 . S
O350 C342 1.252 . S
In351 O352 2.294 . S
In351 O353 2.326 . S
In351 O357 2.266 . S
In351 O358 2.326 . S
In351 O359 2.266 . S
In351 O360 2.326 . S
In351 O362 2.294 . S
In351 O363 2.326 . S
O352 In351 2.294 . S
O352 C361 1.240 . S
O353 In351 2.326 . S
O353 C361 1.252 . S
C354 O357 1.252 . S
C354 O358 1.260 . S
C355 O362 1.240 . S
C355 O363 1.252 . S
C356 O359 1.252 . S
C356 O360 1.260 . S
O357 In351 2.266 . S
O357 C354 1.252 . S
O358 In351 2.326 . S
O358 C354 1.260 . S
O359 In351 2.266 . S
O359 C356 1.252 . S
O360 In351 2.326 . S
O360 C356 1.260 . S
C361 O352 1.240 . S
C361 O353 1.252 . S
O362 In351 2.294 . S
O362 C355 1.240 . S
O363 In351 2.326 . S
O363 C355 1.252 . S
In364 O365 2.294 . S
In364 O366 2.326 . S
In364 O370 2.266 . S
In364 O371 2.326 . S
In364 O372 2.266 . S
In364 O373 2.326 . S
In364 O375 2.294 . S
In364 O376 2.326 . S
O365 In364 2.294 . S
O365 C374 1.240 . S
O366 In364 2.326 . S
O366 C374 1.252 . S
C367 O370 1.252 . S
C367 O371 1.260 . S
C368 O375 1.240 . S
C368 O376 1.252 . S
C369 O372 1.252 . S
C369 O373 1.260 . S
O370 In364 2.266 . S
O370 C367 1.252 . S
O371 In364 2.326 . S
O371 C367 1.260 . S
O372 In364 2.266 . S
O372 C369 1.252 . S
O373 In364 2.326 . S
O373 C369 1.260 . S
C374 O365 1.240 . S
C374 O366 1.252 . S
O375 In364 2.294 . S
O375 C368 1.240 . S
O376 In364 2.326 . S
O376 C368 1.252 . S
In377 O378 2.294 . S
In377 O379 2.326 . S
In377 O383 2.266 . S
In377 O384 2.326 . S
In377 O385 2.266 . S
In377 O386 2.326 . S
In377 O388 2.294 . S
In377 O389 2.326 . S
O378 In377 2.294 . S
O378 C387 1.240 . S
O379 In377 2.326 . S
O379 C387 1.252 . S
C380 O383 1.252 . S
C380 O384 1.260 . S
C381 O388 1.240 . S
C381 O389 1.252 . S
C382 O385 1.252 . S
C382 O386 1.260 . S
O383 In377 2.266 . S
O383 C380 1.252 . S
O384 In377 2.326 . S
O384 C380 1.260 . S
O385 In377 2.266 . S
O385 C382 1.252 . S
O386 In377 2.326 . S
O386 C382 1.260 . S
C387 O378 1.240 . S
C387 O379 1.252 . S
O388 In377 2.294 . S
O388 C381 1.240 . S
O389 In377 2.326 . S
O389 C381 1.252 . S
In390 O391 2.294 . S
In390 O392 2.326 . S
In390 O396 2.266 . S
In390 O397 2.326 . S
In390 O398 2.266 . S
In390 O399 2.326 . S
In390 O401 2.294 . S
In390 O402 2.326 . S
O391 In390 2.294 . S
O391 C400 1.240 . S
O392 In390 2.326 . S
O392 C400 1.252 . S
C393 O396 1.252 . S
C393 O397 1.260 . S
C394 O401 1.240 . S
C394 O402 1.252 . S
C395 O398 1.252 . S
C395 O399 1.260 . S
O396 In390 2.266 . S
O396 C393 1.252 . S
O397 In390 2.326 . S
O397 C393 1.260 . S
O398 In390 2.266 . S
O398 C395 1.252 . S
O399 In390 2.326 . S
O399 C395 1.260 . S
C400 O391 1.240 . S
C400 O392 1.252 . S
O401 In390 2.294 . S
O401 C394 1.240 . S
O402 In390 2.326 . S
O402 C394 1.252 . S
In403 O404 2.294 . S
In403 O405 2.326 . S
In403 O409 2.266 . S
In403 O410 2.326 . S
In403 O411 2.266 . S
In403 O412 2.326 . S
In403 O414 2.294 . S
In403 O415 2.326 . S
O404 In403 2.294 . S
O404 C413 1.240 . S
O405 In403 2.326 . S
O405 C413 1.252 . S
C406 O409 1.252 . S
C406 O410 1.260 . S
C407 O414 1.240 . S
C407 O415 1.252 . S
C408 O411 1.252 . S
C408 O412 1.260 . S
O409 In403 2.266 . S
O409 C406 1.252 . S
O410 In403 2.326 . S
O410 C406 1.260 . S
O411 In403 2.266 . S
O411 C408 1.252 . S
O412 In403 2.326 . S
O412 C408 1.260 . S
C413 O404 1.240 . S
C413 O405 1.252 . S
O414 In403 2.294 . S
O414 C407 1.240 . S
O415 In403 2.326 . S
O415 C407 1.252 . S
In416 O417 2.294 . S
In416 O418 2.326 . S
In416 O422 2.266 . S
In416 O423 2.326 . S
In416 O424 2.266 . S
In416 O425 2.326 . S
In416 O427 2.294 . S
In416 O428 2.326 . S
O417 In416 2.294 . S
O417 C426 1.240 . S
O418 In416 2.326 . S
O418 C426 1.252 . S
C419 O422 1.252 . S
C419 O423 1.260 . S
C420 O427 1.240 . S
C420 O428 1.252 . S
C421 O424 1.252 . S
C421 O425 1.260 . S
O422 In416 2.266 . S
O422 C419 1.252 . S
O423 In416 2.326 . S
O423 C419 1.260 . S
O424 In416 2.266 . S
O424 C421 1.252 . S
O425 In416 2.326 . S
O425 C421 1.260 . S
C426 O417 1.240 . S
C426 O418 1.252 . S
O427 In416 2.294 . S
O427 C420 1.240 . S
O428 In416 2.326 . S
O428 C420 1.252 . S
In429 O430 2.294 . S
In429 O431 2.326 . S
In429 O435 2.266 . S
In429 O436 2.326 . S
In429 O437 2.266 . S
In429 O438 2.326 . S
In429 O440 2.294 . S
In429 O441 2.326 . S
O430 In429 2.294 . S
O430 C439 1.240 . S
O431 In429 2.326 . S
O431 C439 1.252 . S
C432 O435 1.252 . S
C432 O436 1.260 . S
C433 O440 1.240 . S
C433 O441 1.252 . S
C434 O437 1.252 . S
C434 O438 1.260 . S
O435 In429 2.266 . S
O435 C432 1.252 . S
O436 In429 2.326 . S
O436 C432 1.260 . S
O437 In429 2.266 . S
O437 C434 1.252 . S
O438 In429 2.326 . S
O438 C434 1.260 . S
C439 O430 1.240 . S
C439 O431 1.252 . S
O440 In429 2.294 . S
O440 C433 1.240 . S
O441 In429 2.326 . S
O441 C433 1.252 . S
In442 O443 2.294 . S
In442 O444 2.326 . S
In442 O448 2.266 . S
In442 O449 2.326 . S
In442 O450 2.266 . S
In442 O451 2.326 . S
In442 O453 2.294 . S
In442 O454 2.326 . S
O443 In442 2.294 . S
O443 C452 1.240 . S
O444 In442 2.326 . S
O444 C452 1.252 . S
C445 O448 1.252 . S
C445 O449 1.260 . S
C446 O453 1.240 . S
C446 O454 1.252 . S
C447 O450 1.252 . S
C447 O451 1.260 . S
O448 In442 2.266 . S
O448 C445 1.252 . S
O449 In442 2.326 . S
O449 C445 1.260 . S
O450 In442 2.266 . S
O450 C447 1.252 . S
O451 In442 2.326 . S
O451 C447 1.260 . S
C452 O443 1.240 . S
C452 O444 1.252 . S
O453 In442 2.294 . S
O453 C446 1.240 . S
O454 In442 2.326 . S
O454 C446 1.252 . S
In455 O456 2.294 . S
In455 O457 2.326 . S
In455 O461 2.266 . S
In455 O462 2.326 . S
In455 O463 2.266 . S
In455 O464 2.326 . S
In455 O466 2.294 . S
In455 O467 2.326 . S
O456 In455 2.294 . S
O456 C465 1.240 . S
O457 In455 2.326 . S
O457 C465 1.252 . S
C458 O461 1.252 . S
C458 O462 1.260 . S
C459 O466 1.240 . S
C459 O467 1.252 . S
C460 O463 1.252 . S
C460 O464 1.260 . S
O461 In455 2.266 . S
O461 C458 1.252 . S
O462 In455 2.326 . S
O462 C458 1.260 . S
O463 In455 2.266 . S
O463 C460 1.252 . S
O464 In455 2.326 . S
O464 C460 1.260 . S
C465 O456 1.240 . S
C465 O457 1.252 . S
O466 In455 2.294 . S
O466 C459 1.240 . S
O467 In455 2.326 . S
O467 C459 1.252 . S
In468 O469 2.294 . S
In468 O470 2.326 . S
In468 O474 2.266 . S
In468 O475 2.326 . S
In468 O476 2.266 . S
In468 O477 2.326 . S
In468 O479 2.294 . S
In468 O480 2.326 . S
O469 In468 2.294 . S
O469 C478 1.240 . S
O470 In468 2.326 . S
O470 C478 1.252 . S
C471 O474 1.252 . S
C471 O475 1.260 . S
C472 O479 1.240 . S
C472 O480 1.252 . S
C473 O476 1.252 . S
C473 O477 1.260 . S
O474 In468 2.266 . S
O474 C471 1.252 . S
O475 In468 2.326 . S
O475 C471 1.260 . S
O476 In468 2.266 . S
O476 C473 1.252 . S
O477 In468 2.326 . S
O477 C473 1.260 . S
C478 O469 1.240 . S
C478 O470 1.252 . S
O479 In468 2.294 . S
O479 C472 1.240 . S
O480 In468 2.326 . S
O480 C472 1.252 . S
In481 O482 2.294 . S
In481 O483 2.326 . S
In481 O487 2.266 . S
In481 O488 2.326 . S
In481 O489 2.266 . S
In481 O490 2.326 . S
In481 O492 2.294 . S
In481 O493 2.326 . S
O482 In481 2.294 . S
O482 C491 1.240 . S
O483 In481 2.326 . S
O483 C491 1.252 . S
C484 O487 1.252 . S
C484 O488 1.260 . S
C485 O492 1.240 . S
C485 O493 1.252 . S
C486 O489 1.252 . S
C486 O490 1.260 . S
O487 In481 2.266 . S
O487 C484 1.252 . S
O488 In481 2.326 . S
O488 C484 1.260 . S
O489 In481 2.266 . S
O489 C486 1.252 . S
O490 In481 2.326 . S
O490 C486 1.260 . S
C491 O482 1.240 . S
C491 O483 1.252 . S
O492 In481 2.294 . S
O492 C485 1.240 . S
O493 In481 2.326 . S
O493 C485 1.252 . S
In494 O495 2.294 . S
In494 O496 2.326 . S
In494 O500 2.266 . S
In494 O501 2.326 . S
In494 O502 2.266 . S
In494 O503 2.326 . S
In494 O505 2.294 . S
In494 O506 2.326 . S
O495 In494 2.294 . S
O495 C504 1.240 . S
O496 In494 2.326 . S
O496 C504 1.252 . S
C497 O500 1.252 . S
C497 O501 1.260 . S
C498 O505 1.240 . S
C498 O506 1.252 . S
C499 O502 1.252 . S
C499 O503 1.260 . S
O500 In494 2.266 . S
O500 C497 1.252 . S
O501 In494 2.326 . S
O501 C497 1.260 . S
O502 In494 2.266 . S
O502 C499 1.252 . S
O503 In494 2.326 . S
O503 C499 1.260 . S
C504 O495 1.240 . S
C504 O496 1.252 . S
O505 In494 2.294 . S
O505 C498 1.240 . S
O506 In494 2.326 . S
O506 C498 1.252 . S
In507 O508 2.294 . S
In507 O509 2.326 . S
In507 O513 2.266 . S
In507 O514 2.326 . S
In507 O515 2.266 . S
In507 O516 2.326 . S
In507 O518 2.294 . S
In507 O519 2.326 . S
O508 In507 2.294 . S
O508 C517 1.240 . S
O509 In507 2.326 . S
O509 C517 1.252 . S
C510 O513 1.252 . S
C510 O514 1.260 . S
C511 O518 1.240 . S
C511 O519 1.252 . S
C512 O515 1.252 . S
C512 O516 1.260 . S
O513 In507 2.266 . S
O513 C510 1.252 . S
O514 In507 2.326 . S
O514 C510 1.260 . S
O515 In507 2.266 . S
O515 C512 1.252 . S
O516 In507 2.326 . S
O516 C512 1.260 . S
C517 O508 1.240 . S
C517 O509 1.252 . S
O518 In507 2.294 . S
O518 C511 1.240 . S
O519 In507 2.326 . S
O519 C511 1.252 . S
In520 O521 2.294 . S
In520 O522 2.326 . S
In520 O526 2.266 . S
In520 O527 2.326 . S
In520 O528 2.266 . S
In520 O529 2.326 . S
In520 O531 2.294 . S
In520 O532 2.326 . S
O521 In520 2.294 . S
O521 C530 1.240 . S
O522 In520 2.326 . S
O522 C530 1.252 . S
C523 O526 1.252 . S
C523 O527 1.260 . S
C524 O531 1.240 . S
C524 O532 1.252 . S
C525 O528 1.252 . S
C525 O529 1.260 . S
O526 In520 2.266 . S
O526 C523 1.252 . S
O527 In520 2.326 . S
O527 C523 1.260 . S
O528 In520 2.266 . S
O528 C525 1.252 . S
O529 In520 2.326 . S
O529 C525 1.260 . S
C530 O521 1.240 . S
C530 O522 1.252 . S
O531 In520 2.294 . S
O531 C524 1.240 . S
O532 In520 2.326 . S
O532 C524 1.252 . S
In533 O534 2.294 . S
In533 O535 2.326 . S
In533 O539 2.266 . S
In533 O540 2.326 . S
In533 O541 2.266 . S
In533 O542 2.326 . S
In533 O544 2.294 . S
In533 O545 2.326 . S
O534 In533 2.294 . S
O534 C543 1.240 . S
O535 In533 2.326 . S
O535 C543 1.252 . S
C536 O539 1.252 . S
C536 O540 1.260 . S
C537 O544 1.240 . S
C537 O545 1.252 . S
C538 O541 1.252 . S
C538 O542 1.260 . S
O539 In533 2.266 . S
O539 C536 1.252 . S
O540 In533 2.326 . S
O540 C536 1.260 . S
O541 In533 2.266 . S
O541 C538 1.252 . S
O542 In533 2.326 . S
O542 C538 1.260 . S
C543 O534 1.240 . S
C543 O535 1.252 . S
O544 In533 2.294 . S
O544 C537 1.240 . S
O545 In533 2.326 . S
O545 C537 1.252 . S
In546 O547 2.294 . S
In546 O548 2.326 . S
In546 O552 2.266 . S
In546 O553 2.326 . S
In546 O554 2.266 . S
In546 O555 2.326 . S
In546 O557 2.294 . S
In546 O558 2.326 . S
O547 In546 2.294 . S
O547 C556 1.240 . S
O548 In546 2.326 . S
O548 C556 1.252 . S
C549 O552 1.252 . S
C549 O553 1.260 . S
C550 O557 1.240 . S
C550 O558 1.252 . S
C551 O554 1.252 . S
C551 O555 1.260 . S
O552 In546 2.266 . S
O552 C549 1.252 . S
O553 In546 2.326 . S
O553 C549 1.260 . S
O554 In546 2.266 . S
O554 C551 1.252 . S
O555 In546 2.326 . S
O555 C551 1.260 . S
C556 O547 1.240 . S
C556 O548 1.252 . S
O557 In546 2.294 . S
O557 C550 1.240 . S
O558 In546 2.326 . S
O558 C550 1.252 . S
In559 O560 2.294 . S
In559 O561 2.326 . S
In559 O565 2.266 . S
In559 O566 2.326 . S
In559 O567 2.266 . S
In559 O568 2.326 . S
In559 O570 2.294 . S
In559 O571 2.326 . S
O560 In559 2.294 . S
O560 C569 1.240 . S
O561 In559 2.326 . S
O561 C569 1.252 . S
C562 O565 1.252 . S
C562 O566 1.260 . S
C563 O570 1.240 . S
C563 O571 1.252 . S
C564 O567 1.252 . S
C564 O568 1.260 . S
O565 In559 2.266 . S
O565 C562 1.252 . S
O566 In559 2.326 . S
O566 C562 1.260 . S
O567 In559 2.266 . S
O567 C564 1.252 . S
O568 In559 2.326 . S
O568 C564 1.260 . S
C569 O560 1.240 . S
C569 O561 1.252 . S
O570 In559 2.294 . S
O570 C563 1.240 . S
O571 In559 2.326 . S
O571 C563 1.252 . S
In572 O573 2.294 . S
In572 O574 2.326 . S
In572 O578 2.266 . S
In572 O579 2.326 . S
In572 O580 2.266 . S
In572 O581 2.326 . S
In572 O583 2.294 . S
In572 O584 2.326 . S
O573 In572 2.294 . S
O573 C582 1.240 . S
O574 In572 2.326 . S
O574 C582 1.252 . S
C575 O578 1.252 . S
C575 O579 1.260 . S
C576 O583 1.240 . S
C576 O584 1.252 . S
C577 O580 1.252 . S
C577 O581 1.260 . S
O578 In572 2.266 . S
O578 C575 1.252 . S
O579 In572 2.326 . S
O579 C575 1.260 . S
O580 In572 2.266 . S
O580 C577 1.252 . S
O581 In572 2.326 . S
O581 C577 1.260 . S
C582 O573 1.240 . S
C582 O574 1.252 . S
O583 In572 2.294 . S
O583 C576 1.240 . S
O584 In572 2.326 . S
O584 C576 1.252 . S
In585 O586 2.294 . S
In585 O587 2.326 . S
In585 O591 2.266 . S
In585 O592 2.326 . S
In585 O593 2.266 . S
In585 O594 2.326 . S
In585 O596 2.294 . S
In585 O597 2.326 . S
O586 In585 2.294 . S
O586 C595 1.240 . S
O587 In585 2.326 . S
O587 C595 1.252 . S
C588 O591 1.252 . S
C588 O592 1.260 . S
C589 O596 1.240 . S
C589 O597 1.252 . S
C590 O593 1.252 . S
C590 O594 1.260 . S
O591 In585 2.266 . S
O591 C588 1.252 . S
O592 In585 2.326 . S
O592 C588 1.260 . S
O593 In585 2.266 . S
O593 C590 1.252 . S
O594 In585 2.326 . S
O594 C590 1.260 . S
C595 O586 1.240 . S
C595 O587 1.252 . S
O596 In585 2.294 . S
O596 C589 1.240 . S
O597 In585 2.326 . S
O597 C589 1.252 . S
In598 O599 2.294 . S
In598 O600 2.326 . S
In598 O604 2.266 . S
In598 O605 2.326 . S
In598 O606 2.266 . S
In598 O607 2.326 . S
In598 O609 2.294 . S
In598 O610 2.326 . S
O599 In598 2.294 . S
O599 C608 1.240 . S
O600 In598 2.326 . S
O600 C608 1.252 . S
C601 O604 1.252 . S
C601 O605 1.260 . S
C602 O609 1.240 . S
C602 O610 1.252 . S
C603 O606 1.252 . S
C603 O607 1.260 . S
O604 In598 2.266 . S
O604 C601 1.252 . S
O605 In598 2.326 . S
O605 C601 1.260 . S
O606 In598 2.266 . S
O606 C603 1.252 . S
O607 In598 2.326 . S
O607 C603 1.260 . S
C608 O599 1.240 . S
C608 O600 1.252 . S
O609 In598 2.294 . S
O609 C602 1.240 . S
O610 In598 2.326 . S
O610 C602 1.252 . S
In611 O612 2.294 . S
In611 O613 2.326 . S
In611 O617 2.266 . S
In611 O618 2.326 . S
In611 O619 2.266 . S
In611 O620 2.326 . S
In611 O622 2.294 . S
In611 O623 2.326 . S
O612 In611 2.294 . S
O612 C621 1.240 . S
O613 In611 2.326 . S
O613 C621 1.252 . S
C614 O617 1.252 . S
C614 O618 1.260 . S
C615 O622 1.240 . S
C615 O623 1.252 . S
C616 O619 1.252 . S
C616 O620 1.260 . S
O617 In611 2.266 . S
O617 C614 1.252 . S
O618 In611 2.326 . S
O618 C614 1.260 . S
O619 In611 2.266 . S
O619 C616 1.252 . S
O620 In611 2.326 . S
O620 C616 1.260 . S
C621 O612 1.240 . S
C621 O613 1.252 . S
O622 In611 2.294 . S
O622 C615 1.240 . S
O623 In611 2.326 . S
O623 C615 1.252 . S
In624 O625 2.294 . S
In624 O626 2.326 . S
In624 O630 2.266 . S
In624 O631 2.326 . S
In624 O632 2.266 . S
In624 O633 2.326 . S
In624 O635 2.294 . S
In624 O636 2.326 . S
O625 In624 2.294 . S
O625 C634 1.240 . S
O626 In624 2.326 . S
O626 C634 1.252 . S
C627 O630 1.252 . S
C627 O631 1.260 . S
C628 O635 1.240 . S
C628 O636 1.252 . S
C629 O632 1.252 . S
C629 O633 1.260 . S
O630 In624 2.266 . S
O630 C627 1.252 . S
O631 In624 2.326 . S
O631 C627 1.260 . S
O632 In624 2.266 . S
O632 C629 1.252 . S
O633 In624 2.326 . S
O633 C629 1.260 . S
C634 O625 1.240 . S
C634 O626 1.252 . S
O635 In624 2.294 . S
O635 C628 1.240 . S
O636 In624 2.326 . S
O636 C628 1.252 . S
In637 O638 2.294 . S
In637 O639 2.326 . S
In637 O643 2.266 . S
In637 O644 2.326 . S
In637 O645 2.266 . S
In637 O646 2.326 . S
In637 O648 2.294 . S
In637 O649 2.326 . S
O638 In637 2.294 . S
O638 C647 1.240 . S
O639 In637 2.326 . S
O639 C647 1.252 . S
C640 O643 1.252 . S
C640 O644 1.260 . S
C641 O648 1.240 . S
C641 O649 1.252 . S
C642 O645 1.252 . S
C642 O646 1.260 . S
O643 In637 2.266 . S
O643 C640 1.252 . S
O644 In637 2.326 . S
O644 C640 1.260 . S
O645 In637 2.266 . S
O645 C642 1.252 . S
O646 In637 2.326 . S
O646 C642 1.260 . S
C647 O638 1.240 . S
C647 O639 1.252 . S
O648 In637 2.294 . S
O648 C641 1.240 . S
O649 In637 2.326 . S
O649 C641 1.252 . S
In650 O651 2.294 . S
In650 O652 2.326 . S
In650 O656 2.266 . S
In650 O657 2.326 . S
In650 O658 2.266 . S
In650 O659 2.326 . S
In650 O661 2.294 . S
In650 O662 2.326 . S
O651 In650 2.294 . S
O651 C660 1.240 . S
O652 In650 2.326 . S
O652 C660 1.252 . S
C653 O656 1.252 . S
C653 O657 1.260 . S
C654 O661 1.240 . S
C654 O662 1.252 . S
C655 O658 1.252 . S
C655 O659 1.260 . S
O656 In650 2.266 . S
O656 C653 1.252 . S
O657 In650 2.326 . S
O657 C653 1.260 . S
O658 In650 2.266 . S
O658 C655 1.252 . S
O659 In650 2.326 . S
O659 C655 1.260 . S
C660 O651 1.240 . S
C660 O652 1.252 . S
O661 In650 2.294 . S
O661 C654 1.240 . S
O662 In650 2.326 . S
O662 C654 1.252 . S
In663 O664 2.294 . S
In663 O665 2.326 . S
In663 O669 2.266 . S
In663 O670 2.326 . S
In663 O671 2.266 . S
In663 O672 2.326 . S
In663 O674 2.294 . S
In663 O675 2.326 . S
O664 In663 2.294 . S
O664 C673 1.240 . S
O665 In663 2.326 . S
O665 C673 1.252 . S
C666 O669 1.252 . S
C666 O670 1.260 . S
C667 O674 1.240 . S
C667 O675 1.252 . S
C668 O671 1.252 . S
C668 O672 1.260 . S
O669 In663 2.266 . S
O669 C666 1.252 . S
O670 In663 2.326 . S
O670 C666 1.260 . S
O671 In663 2.266 . S
O671 C668 1.252 . S
O672 In663 2.326 . S
O672 C668 1.260 . S
C673 O664 1.240 . S
C673 O665 1.252 . S
O674 In663 2.294 . S
O674 C667 1.240 . S
O675 In663 2.326 . S
O675 C667 1.252 . S
In676 O677 2.294 . S
In676 O678 2.326 . S
In676 O682 2.266 . S
In676 O683 2.326 . S
In676 O684 2.266 . S
In676 O685 2.326 . S
In676 O687 2.294 . S
In676 O688 2.326 . S
O677 In676 2.294 . S
O677 C686 1.240 . S
O678 In676 2.326 . S
O678 C686 1.252 . S
C679 O682 1.252 . S
C679 O683 1.260 . S
C680 O687 1.240 . S
C680 O688 1.252 . S
C681 O684 1.252 . S
C681 O685 1.260 . S
O682 In676 2.266 . S
O682 C679 1.252 . S
O683 In676 2.326 . S
O683 C679 1.260 . S
O684 In676 2.266 . S
O684 C681 1.252 . S
O685 In676 2.326 . S
O685 C681 1.260 . S
C686 O677 1.240 . S
C686 O678 1.252 . S
O687 In676 2.294 . S
O687 C680 1.240 . S
O688 In676 2.326 . S
O688 C680 1.252 . S
In689 O690 2.294 . S
In689 O691 2.326 . S
In689 O695 2.266 . S
In689 O696 2.326 . S
In689 O697 2.266 . S
In689 O698 2.326 . S
In689 O700 2.294 . S
In689 O701 2.326 . S
O690 In689 2.294 . S
O690 C699 1.240 . S
O691 In689 2.326 . S
O691 C699 1.252 . S
C692 O695 1.252 . S
C692 O696 1.260 . S
C693 O700 1.240 . S
C693 O701 1.252 . S
C694 O697 1.252 . S
C694 O698 1.260 . S
O695 In689 2.266 . S
O695 C692 1.252 . S
O696 In689 2.326 . S
O696 C692 1.260 . S
O697 In689 2.266 . S
O697 C694 1.252 . S
O698 In689 2.326 . S
O698 C694 1.260 . S
C699 O690 1.240 . S
C699 O691 1.252 . S
O700 In689 2.294 . S
O700 C693 1.240 . S
O701 In689 2.326 . S
O701 C693 1.252 . S
In702 O703 2.294 . S
In702 O704 2.326 . S
In702 O708 2.266 . S
In702 O709 2.326 . S
In702 O710 2.266 . S
In702 O711 2.326 . S
In702 O713 2.294 . S
In702 O714 2.326 . S
O703 In702 2.294 . S
O703 C712 1.240 . S
O704 In702 2.326 . S
O704 C712 1.252 . S
C705 O708 1.252 . S
C705 O709 1.260 . S
C706 O713 1.240 . S
C706 O714 1.252 . S
C707 O710 1.252 . S
C707 O711 1.260 . S
O708 In702 2.266 . S
O708 C705 1.252 . S
O709 In702 2.326 . S
O709 C705 1.260 . S
O710 In702 2.266 . S
O710 C707 1.252 . S
O711 In702 2.326 . S
O711 C707 1.260 . S
C712 O703 1.240 . S
C712 O704 1.252 . S
O713 In702 2.294 . S
O713 C706 1.240 . S
O714 In702 2.326 . S
O714 C706 1.252 . S
In715 O716 2.294 . S
In715 O717 2.326 . S
In715 O721 2.266 . S
In715 O722 2.326 . S
In715 O723 2.266 . S
In715 O724 2.326 . S
In715 O726 2.294 . S
In715 O727 2.326 . S
O716 In715 2.294 . S
O716 C725 1.240 . S
O717 In715 2.326 . S
O717 C725 1.252 . S
C718 O721 1.252 . S
C718 O722 1.260 . S
C719 O726 1.240 . S
C719 O727 1.252 . S
C720 O723 1.252 . S
C720 O724 1.260 . S
O721 In715 2.266 . S
O721 C718 1.252 . S
O722 In715 2.326 . S
O722 C718 1.260 . S
O723 In715 2.266 . S
O723 C720 1.252 . S
O724 In715 2.326 . S
O724 C720 1.260 . S
C725 O716 1.240 . S
C725 O717 1.252 . S
O726 In715 2.294 . S
O726 C719 1.240 . S
O727 In715 2.326 . S
O727 C719 1.252 . S
In728 O729 2.294 . S
In728 O730 2.326 . S
In728 O734 2.266 . S
In728 O735 2.326 . S
In728 O736 2.266 . S
In728 O737 2.326 . S
In728 O739 2.294 . S
In728 O740 2.326 . S
O729 In728 2.294 . S
O729 C738 1.240 . S
O730 In728 2.326 . S
O730 C738 1.252 . S
C731 O734 1.252 . S
C731 O735 1.260 . S
C732 O739 1.240 . S
C732 O740 1.252 . S
C733 O736 1.252 . S
C733 O737 1.260 . S
O734 In728 2.266 . S
O734 C731 1.252 . S
O735 In728 2.326 . S
O735 C731 1.260 . S
O736 In728 2.266 . S
O736 C733 1.252 . S
O737 In728 2.326 . S
O737 C733 1.260 . S
C738 O729 1.240 . S
C738 O730 1.252 . S
O739 In728 2.294 . S
O739 C732 1.240 . S
O740 In728 2.326 . S
O740 C732 1.252 . S
In741 O742 2.294 . S
In741 O743 2.326 . S
In741 O747 2.266 . S
In741 O748 2.326 . S
In741 O749 2.266 . S
In741 O750 2.326 . S
In741 O752 2.294 . S
In741 O753 2.326 . S
O742 In741 2.294 . S
O742 C751 1.240 . S
O743 In741 2.326 . S
O743 C751 1.252 . S
C744 O747 1.252 . S
C744 O748 1.260 . S
C745 O752 1.240 . S
C745 O753 1.252 . S
C746 O749 1.252 . S
C746 O750 1.260 . S
O747 In741 2.266 . S
O747 C744 1.252 . S
O748 In741 2.326 . S
O748 C744 1.260 . S
O749 In741 2.266 . S
O749 C746 1.252 . S
O750 In741 2.326 . S
O750 C746 1.260 . S
C751 O742 1.240 . S
C751 O743 1.252 . S
O752 In741 2.294 . S
O752 C745 1.240 . S
O753 In741 2.326 . S
O753 C745 1.252 . S
In754 O755 2.294 . S
In754 O756 2.326 . S
In754 O760 2.266 . S
In754 O761 2.326 . S
In754 O762 2.266 . S
In754 O763 2.326 . S
In754 O765 2.294 . S
In754 O766 2.326 . S
O755 In754 2.294 . S
O755 C764 1.240 . S
O756 In754 2.326 . S
O756 C764 1.252 . S
C757 O760 1.252 . S
C757 O761 1.260 . S
C758 O765 1.240 . S
C758 O766 1.252 . S
C759 O762 1.252 . S
C759 O763 1.260 . S
O760 In754 2.266 . S
O760 C757 1.252 . S
O761 In754 2.326 . S
O761 C757 1.260 . S
O762 In754 2.266 . S
O762 C759 1.252 . S
O763 In754 2.326 . S
O763 C759 1.260 . S
C764 O755 1.240 . S
C764 O756 1.252 . S
O765 In754 2.294 . S
O765 C758 1.240 . S
O766 In754 2.326 . S
O766 C758 1.252 . S
In767 O768 2.294 . S
In767 O769 2.326 . S
In767 O773 2.266 . S
In767 O774 2.326 . S
In767 O775 2.266 . S
In767 O776 2.326 . S
In767 O778 2.294 . S
In767 O779 2.326 . S
O768 In767 2.294 . S
O768 C777 1.240 . S
O769 In767 2.326 . S
O769 C777 1.252 . S
C770 O773 1.252 . S
C770 O774 1.260 . S
C771 O778 1.240 . S
C771 O779 1.252 . S
C772 O775 1.252 . S
C772 O776 1.260 . S
O773 In767 2.266 . S
O773 C770 1.252 . S
O774 In767 2.326 . S
O774 C770 1.260 . S
O775 In767 2.266 . S
O775 C772 1.252 . S
O776 In767 2.326 . S
O776 C772 1.260 . S
C777 O768 1.240 . S
C777 O769 1.252 . S
O778 In767 2.294 . S
O778 C771 1.240 . S
O779 In767 2.326 . S
O779 C771 1.252 . S
In780 O781 2.294 . S
In780 O782 2.326 . S
In780 O786 2.266 . S
In780 O787 2.326 . S
In780 O788 2.266 . S
In780 O789 2.326 . S
In780 O791 2.294 . S
In780 O792 2.326 . S
O781 In780 2.294 . S
O781 C790 1.240 . S
O782 In780 2.326 . S
O782 C790 1.252 . S
C783 O786 1.252 . S
C783 O787 1.260 . S
C784 O791 1.240 . S
C784 O792 1.252 . S
C785 O788 1.252 . S
C785 O789 1.260 . S
O786 In780 2.266 . S
O786 C783 1.252 . S
O787 In780 2.326 . S
O787 C783 1.260 . S
O788 In780 2.266 . S
O788 C785 1.252 . S
O789 In780 2.326 . S
O789 C785 1.260 . S
C790 O781 1.240 . S
C790 O782 1.252 . S
O791 In780 2.294 . S
O791 C784 1.240 . S
O792 In780 2.326 . S
O792 C784 1.252 . S
In793 O794 2.294 . S
In793 O795 2.326 . S
In793 O799 2.266 . S
In793 O800 2.326 . S
In793 O801 2.266 . S
In793 O802 2.326 . S
In793 O804 2.294 . S
In793 O805 2.326 . S
O794 In793 2.294 . S
O794 C803 1.240 . S
O795 In793 2.326 . S
O795 C803 1.252 . S
C796 O799 1.252 . S
C796 O800 1.260 . S
C797 O804 1.240 . S
C797 O805 1.252 . S
C798 O801 1.252 . S
C798 O802 1.260 . S
O799 In793 2.266 . S
O799 C796 1.252 . S
O800 In793 2.326 . S
O800 C796 1.260 . S
O801 In793 2.266 . S
O801 C798 1.252 . S
O802 In793 2.326 . S
O802 C798 1.260 . S
C803 O794 1.240 . S
C803 O795 1.252 . S
O804 In793 2.294 . S
O804 C797 1.240 . S
O805 In793 2.326 . S
O805 C797 1.252 . S
In806 O807 2.294 . S
In806 O808 2.326 . S
In806 O812 2.266 . S
In806 O813 2.326 . S
In806 O814 2.266 . S
In806 O815 2.326 . S
In806 O817 2.294 . S
In806 O818 2.326 . S
O807 In806 2.294 . S
O807 C816 1.240 . S
O808 In806 2.326 . S
O808 C816 1.252 . S
C809 O812 1.252 . S
C809 O813 1.260 . S
C810 O817 1.240 . S
C810 O818 1.252 . S
C811 O814 1.252 . S
C811 O815 1.260 . S
O812 In806 2.266 . S
O812 C809 1.252 . S
O813 In806 2.326 . S
O813 C809 1.260 . S
O814 In806 2.266 . S
O814 C811 1.252 . S
O815 In806 2.326 . S
O815 C811 1.260 . S
C816 O807 1.240 . S
C816 O808 1.252 . S
O817 In806 2.294 . S
O817 C810 1.240 . S
O818 In806 2.326 . S
O818 C810 1.252 . S
In819 O820 2.294 . S
In819 O821 2.326 . S
In819 O825 2.266 . S
In819 O826 2.326 . S
In819 O827 2.266 . S
In819 O828 2.326 . S
In819 O830 2.294 . S
In819 O831 2.326 . S
O820 In819 2.294 . S
O820 C829 1.240 . S
O821 In819 2.326 . S
O821 C829 1.252 . S
C822 O825 1.252 . S
C822 O826 1.260 . S
C823 O830 1.240 . S
C823 O831 1.252 . S
C824 O827 1.252 . S
C824 O828 1.260 . S
O825 In819 2.266 . S
O825 C822 1.252 . S
O826 In819 2.326 . S
O826 C822 1.260 . S
O827 In819 2.266 . S
O827 C824 1.252 . S
O828 In819 2.326 . S
O828 C824 1.260 . S
C829 O820 1.240 . S
C829 O821 1.252 . S
O830 In819 2.294 . S
O830 C823 1.240 . S
O831 In819 2.326 . S
O831 C823 1.252 . S
In832 O833 2.294 . S
In832 O834 2.326 . S
In832 O838 2.266 . S
In832 O839 2.326 . S
In832 O840 2.266 . S
In832 O841 2.326 . S
In832 O843 2.294 . S
In832 O844 2.326 . S
O833 In832 2.294 . S
O833 C842 1.240 . S
O834 In832 2.326 . S
O834 C842 1.252 . S
C835 O838 1.252 . S
C835 O839 1.260 . S
C836 O843 1.240 . S
C836 O844 1.252 . S
C837 O840 1.252 . S
C837 O841 1.260 . S
O838 In832 2.266 . S
O838 C835 1.252 . S
O839 In832 2.326 . S
O839 C835 1.260 . S
O840 In832 2.266 . S
O840 C837 1.252 . S
O841 In832 2.326 . S
O841 C837 1.260 . S
C842 O833 1.240 . S
C842 O834 1.252 . S
O843 In832 2.294 . S
O843 C836 1.240 . S
O844 In832 2.326 . S
O844 C836 1.252 . S
In845 O846 2.294 . S
In845 O847 2.326 . S
In845 O851 2.266 . S
In845 O852 2.326 . S
In845 O853 2.266 . S
In845 O854 2.326 . S
In845 O856 2.294 . S
In845 O857 2.326 . S
O846 In845 2.294 . S
O846 C855 1.240 . S
O847 In845 2.326 . S
O847 C855 1.252 . S
C848 O851 1.252 . S
C848 O852 1.260 . S
C849 O856 1.240 . S
C849 O857 1.252 . S
C850 O853 1.252 . S
C850 O854 1.260 . S
O851 In845 2.266 . S
O851 C848 1.252 . S
O852 In845 2.326 . S
O852 C848 1.260 . S
O853 In845 2.266 . S
O853 C850 1.252 . S
O854 In845 2.326 . S
O854 C850 1.260 . S
C855 O846 1.240 . S
C855 O847 1.252 . S
O856 In845 2.294 . S
O856 C849 1.240 . S
O857 In845 2.326 . S
O857 C849 1.252 . S
In858 O859 2.294 . S
In858 O860 2.326 . S
In858 O864 2.266 . S
In858 O865 2.326 . S
In858 O866 2.266 . S
In858 O867 2.326 . S
In858 O869 2.294 . S
In858 O870 2.326 . S
O859 In858 2.294 . S
O859 C868 1.240 . S
O860 In858 2.326 . S
O860 C868 1.252 . S
C861 O864 1.252 . S
C861 O865 1.260 . S
C862 O869 1.240 . S
C862 O870 1.252 . S
C863 O866 1.252 . S
C863 O867 1.260 . S
O864 In858 2.266 . S
O864 C861 1.252 . S
O865 In858 2.326 . S
O865 C861 1.260 . S
O866 In858 2.266 . S
O866 C863 1.252 . S
O867 In858 2.326 . S
O867 C863 1.260 . S
C868 O859 1.240 . S
C868 O860 1.252 . S
O869 In858 2.294 . S
O869 C862 1.240 . S
O870 In858 2.326 . S
O870 C862 1.252 . S
In871 O872 2.294 . S
In871 O873 2.326 . S
In871 O877 2.266 . S
In871 O878 2.326 . S
In871 O879 2.266 . S
In871 O880 2.326 . S
In871 O882 2.294 . S
In871 O883 2.326 . S
O872 In871 2.294 . S
O872 C881 1.240 . S
O873 In871 2.326 . S
O873 C881 1.252 . S
C874 O877 1.252 . S
C874 O878 1.260 . S
C875 O882 1.240 . S
C875 O883 1.252 . S
C876 O879 1.252 . S
C876 O880 1.260 . S
O877 In871 2.266 . S
O877 C874 1.252 . S
O878 In871 2.326 . S
O878 C874 1.260 . S
O879 In871 2.266 . S
O879 C876 1.252 . S
O880 In871 2.326 . S
O880 C876 1.260 . S
C881 O872 1.240 . S
C881 O873 1.252 . S
O882 In871 2.294 . S
O882 C875 1.240 . S
O883 In871 2.326 . S
O883 C875 1.252 . S
In884 O885 2.294 . S
In884 O886 2.326 . S
In884 O890 2.266 . S
In884 O891 2.326 . S
In884 O892 2.266 . S
In884 O893 2.326 . S
In884 O895 2.294 . S
In884 O896 2.326 . S
O885 In884 2.294 . S
O885 C894 1.240 . S
O886 In884 2.326 . S
O886 C894 1.252 . S
C887 O890 1.252 . S
C887 O891 1.260 . S
C888 O895 1.240 . S
C888 O896 1.252 . S
C889 O892 1.252 . S
C889 O893 1.260 . S
O890 In884 2.266 . S
O890 C887 1.252 . S
O891 In884 2.326 . S
O891 C887 1.260 . S
O892 In884 2.266 . S
O892 C889 1.252 . S
O893 In884 2.326 . S
O893 C889 1.260 . S
C894 O885 1.240 . S
C894 O886 1.252 . S
O895 In884 2.294 . S
O895 C888 1.240 . S
O896 In884 2.326 . S
O896 C888 1.252 . S
In897 O898 2.294 . S
In897 O899 2.326 . S
In897 O903 2.266 . S
In897 O904 2.326 . S
In897 O905 2.266 . S
In897 O906 2.326 . S
In897 O908 2.294 . S
In897 O909 2.326 . S
O898 In897 2.294 . S
O898 C907 1.240 . S
O899 In897 2.326 . S
O899 C907 1.252 . S
C900 O903 1.252 . S
C900 O904 1.260 . S
C901 O908 1.240 . S
C901 O909 1.252 . S
C902 O905 1.252 . S
C902 O906 1.260 . S
O903 In897 2.266 . S
O903 C900 1.252 . S
O904 In897 2.326 . S
O904 C900 1.260 . S
O905 In897 2.266 . S
O905 C902 1.252 . S
O906 In897 2.326 . S
O906 C902 1.260 . S
C907 O898 1.240 . S
C907 O899 1.252 . S
O908 In897 2.294 . S
O908 C901 1.240 . S
O909 In897 2.326 . S
O909 C901 1.252 . S
In910 O911 2.294 . S
In910 O912 2.326 . S
In910 O916 2.266 . S
In910 O917 2.326 . S
In910 O918 2.266 . S
In910 O919 2.326 . S
In910 O921 2.294 . S
In910 O922 2.326 . S
O911 In910 2.294 . S
O911 C920 1.240 . S
O912 In910 2.326 . S
O912 C920 1.252 . S
C913 O916 1.252 . S
C913 O917 1.260 . S
C914 O921 1.240 . S
C914 O922 1.252 . S
C915 O918 1.252 . S
C915 O919 1.260 . S
O916 In910 2.266 . S
O916 C913 1.252 . S
O917 In910 2.326 . S
O917 C913 1.260 . S
O918 In910 2.266 . S
O918 C915 1.252 . S
O919 In910 2.326 . S
O919 C915 1.260 . S
C920 O911 1.240 . S
C920 O912 1.252 . S
O921 In910 2.294 . S
O921 C914 1.240 . S
O922 In910 2.326 . S
O922 C914 1.252 . S
In923 O924 2.294 . S
In923 O925 2.326 . S
In923 O929 2.266 . S
In923 O930 2.326 . S
In923 O931 2.266 . S
In923 O932 2.326 . S
In923 O934 2.294 . S
In923 O935 2.326 . S
O924 In923 2.294 . S
O924 C933 1.240 . S
O925 In923 2.326 . S
O925 C933 1.252 . S
C926 O929 1.252 . S
C926 O930 1.260 . S
C927 O934 1.240 . S
C927 O935 1.252 . S
C928 O931 1.252 . S
C928 O932 1.260 . S
O929 In923 2.266 . S
O929 C926 1.252 . S
O930 In923 2.326 . S
O930 C926 1.260 . S
O931 In923 2.266 . S
O931 C928 1.252 . S
O932 In923 2.326 . S
O932 C928 1.260 . S
C933 O924 1.240 . S
C933 O925 1.252 . S
O934 In923 2.294 . S
O934 C927 1.240 . S
O935 In923 2.326 . S
O935 C927 1.252 . S
In936 O937 2.294 . S
In936 O938 2.326 . S
In936 O942 2.266 . S
In936 O943 2.326 . S
In936 O944 2.266 . S
In936 O945 2.326 . S
In936 O947 2.294 . S
In936 O948 2.326 . S
O937 In936 2.294 . S
O937 C946 1.240 . S
O938 In936 2.326 . S
O938 C946 1.252 . S
C939 O942 1.252 . S
C939 O943 1.260 . S
C940 O947 1.240 . S
C940 O948 1.252 . S
C941 O944 1.252 . S
C941 O945 1.260 . S
O942 In936 2.266 . S
O942 C939 1.252 . S
O943 In936 2.326 . S
O943 C939 1.260 . S
O944 In936 2.266 . S
O944 C941 1.252 . S
O945 In936 2.326 . S
O945 C941 1.260 . S
C946 O937 1.240 . S
C946 O938 1.252 . S
O947 In936 2.294 . S
O947 C940 1.240 . S
O948 In936 2.326 . S
O948 C940 1.252 . S
In949 O950 2.294 . S
In949 O951 2.326 . S
In949 O955 2.266 . S
In949 O956 2.326 . S
In949 O957 2.266 . S
In949 O958 2.326 . S
In949 O960 2.294 . S
In949 O961 2.326 . S
O950 In949 2.294 . S
O950 C959 1.240 . S
O951 In949 2.326 . S
O951 C959 1.252 . S
C952 O955 1.252 . S
C952 O956 1.260 . S
C953 O960 1.240 . S
C953 O961 1.252 . S
C954 O957 1.252 . S
C954 O958 1.260 . S
O955 In949 2.266 . S
O955 C952 1.252 . S
O956 In949 2.326 . S
O956 C952 1.260 . S
O957 In949 2.266 . S
O957 C954 1.252 . S
O958 In949 2.326 . S
O958 C954 1.260 . S
C959 O950 1.240 . S
C959 O951 1.252 . S
O960 In949 2.294 . S
O960 C953 1.240 . S
O961 In949 2.326 . S
O961 C953 1.252 . S
In962 O963 2.294 . S
In962 O964 2.326 . S
In962 O968 2.266 . S
In962 O969 2.326 . S
In962 O970 2.266 . S
In962 O971 2.326 . S
In962 O973 2.294 . S
In962 O974 2.326 . S
O963 In962 2.294 . S
O963 C972 1.240 . S
O964 In962 2.326 . S
O964 C972 1.252 . S
C965 O968 1.252 . S
C965 O969 1.260 . S
C966 O973 1.240 . S
C966 O974 1.252 . S
C967 O970 1.252 . S
C967 O971 1.260 . S
O968 In962 2.266 . S
O968 C965 1.252 . S
O969 In962 2.326 . S
O969 C965 1.260 . S
O970 In962 2.266 . S
O970 C967 1.252 . S
O971 In962 2.326 . S
O971 C967 1.260 . S
C972 O963 1.240 . S
C972 O964 1.252 . S
O973 In962 2.294 . S
O973 C966 1.240 . S
O974 In962 2.326 . S
O974 C966 1.252 . S
In975 O976 2.294 . S
In975 O977 2.326 . S
In975 O981 2.266 . S
In975 O982 2.326 . S
In975 O983 2.266 . S
In975 O984 2.326 . S
In975 O986 2.294 . S
In975 O987 2.326 . S
O976 In975 2.294 . S
O976 C985 1.240 . S
O977 In975 2.326 . S
O977 C985 1.252 . S
C978 O981 1.252 . S
C978 O982 1.260 . S
C979 O986 1.240 . S
C979 O987 1.252 . S
C980 O983 1.252 . S
C980 O984 1.260 . S
O981 In975 2.266 . S
O981 C978 1.252 . S
O982 In975 2.326 . S
O982 C978 1.260 . S
O983 In975 2.266 . S
O983 C980 1.252 . S
O984 In975 2.326 . S
O984 C980 1.260 . S
C985 O976 1.240 . S
C985 O977 1.252 . S
O986 In975 2.294 . S
O986 C979 1.240 . S
O987 In975 2.326 . S
O987 C979 1.252 . S
In988 O989 2.294 . S
In988 O990 2.326 . S
In988 O994 2.266 . S
In988 O995 2.326 . S
In988 O996 2.266 . S
In988 O997 2.326 . S
In988 O999 2.294 . S
In988 O1000 2.326 . S
O989 In988 2.294 . S
O989 C998 1.240 . S
O990 In988 2.326 . S
O990 C998 1.252 . S
C991 O994 1.252 . S
C991 O995 1.260 . S
C992 O999 1.240 . S
C992 O1000 1.252 . S
C993 O996 1.252 . S
C993 O997 1.260 . S
O994 In988 2.266 . S
O994 C991 1.252 . S
O995 In988 2.326 . S
O995 C991 1.260 . S
O996 In988 2.266 . S
O996 C993 1.252 . S
O997 In988 2.326 . S
O997 C993 1.260 . S
C998 O989 1.240 . S
C998 O990 1.252 . S
O999 In988 2.294 . S
O999 C992 1.240 . S
O1000 In988 2.326 . S
O1000 C992 1.252 . S
In1001 O1002 2.294 . S
In1001 O1003 2.326 . S
In1001 O1007 2.266 . S
In1001 O1008 2.326 . S
In1001 O1009 2.266 . S
In1001 O1010 2.326 . S
In1001 O1012 2.294 . S
In1001 O1013 2.326 . S
O1002 In1001 2.294 . S
O1002 C1011 1.240 . S
O1003 In1001 2.326 . S
O1003 C1011 1.252 . S
C1004 O1007 1.252 . S
C1004 O1008 1.260 . S
C1005 O1012 1.240 . S
C1005 O1013 1.252 . S
C1006 O1009 1.252 . S
C1006 O1010 1.260 . S
O1007 In1001 2.266 . S
O1007 C1004 1.252 . S
O1008 In1001 2.326 . S
O1008 C1004 1.260 . S
O1009 In1001 2.266 . S
O1009 C1006 1.252 . S
O1010 In1001 2.326 . S
O1010 C1006 1.260 . S
C1011 O1002 1.240 . S
C1011 O1003 1.252 . S
O1012 In1001 2.294 . S
O1012 C1005 1.240 . S
O1013 In1001 2.326 . S
O1013 C1005 1.252 . S
In1014 O1015 2.294 . S
In1014 O1016 2.326 . S
In1014 O1020 2.266 . S
In1014 O1021 2.326 . S
In1014 O1022 2.266 . S
In1014 O1023 2.326 . S
In1014 O1025 2.294 . S
In1014 O1026 2.326 . S
O1015 In1014 2.294 . S
O1015 C1024 1.240 . S
O1016 In1014 2.326 . S
O1016 C1024 1.252 . S
C1017 O1020 1.252 . S
C1017 O1021 1.260 . S
C1018 O1025 1.240 . S
C1018 O1026 1.252 . S
C1019 O1022 1.252 . S
C1019 O1023 1.260 . S
O1020 In1014 2.266 . S
O1020 C1017 1.252 . S
O1021 In1014 2.326 . S
O1021 C1017 1.260 . S
O1022 In1014 2.266 . S
O1022 C1019 1.252 . S
O1023 In1014 2.326 . S
O1023 C1019 1.260 . S
C1024 O1015 1.240 . S
C1024 O1016 1.252 . S
O1025 In1014 2.294 . S
O1025 C1018 1.240 . S
O1026 In1014 2.326 . S
O1026 C1018 1.252 . S
In1027 O1028 2.294 . S
In1027 O1029 2.326 . S
In1027 O1033 2.266 . S
In1027 O1034 2.326 . S
In1027 O1035 2.266 . S
In1027 O1036 2.326 . S
In1027 O1038 2.294 . S
In1027 O1039 2.326 . S
O1028 In1027 2.294 . S
O1028 C1037 1.240 . S
O1029 In1027 2.326 . S
O1029 C1037 1.252 . S
C1030 O1033 1.252 . S
C1030 O1034 1.260 . S
C1031 O1038 1.240 . S
C1031 O1039 1.252 . S
C1032 O1035 1.252 . S
C1032 O1036 1.260 . S
O1033 In1027 2.266 . S
O1033 C1030 1.252 . S
O1034 In1027 2.326 . S
O1034 C1030 1.260 . S
O1035 In1027 2.266 . S
O1035 C1032 1.252 . S
O1036 In1027 2.326 . S
O1036 C1032 1.260 . S
C1037 O1028 1.240 . S
C1037 O1029 1.252 . S
O1038 In1027 2.294 . S
O1038 C1031 1.240 . S
O1039 In1027 2.326 . S
O1039 C1031 1.252 . S
In1040 O1041 2.294 . S
In1040 O1042 2.326 . S
In1040 O1046 2.266 . S
In1040 O1047 2.326 . S
In1040 O1048 2.266 . S
In1040 O1049 2.326 . S
In1040 O1051 2.294 . S
In1040 O1052 2.326 . S
O1041 In1040 2.294 . S
O1041 C1050 1.240 . S
O1042 In1040 2.326 . S
O1042 C1050 1.252 . S
C1043 O1046 1.252 . S
C1043 O1047 1.260 . S
C1044 O1051 1.240 . S
C1044 O1052 1.252 . S
C1045 O1048 1.252 . S
C1045 O1049 1.260 . S
O1046 In1040 2.266 . S
O1046 C1043 1.252 . S
O1047 In1040 2.326 . S
O1047 C1043 1.260 . S
O1048 In1040 2.266 . S
O1048 C1045 1.252 . S
O1049 In1040 2.326 . S
O1049 C1045 1.260 . S
C1050 O1041 1.240 . S
C1050 O1042 1.252 . S
O1051 In1040 2.294 . S
O1051 C1044 1.240 . S
O1052 In1040 2.326 . S
O1052 C1044 1.252 . S
In1053 O1054 2.294 . S
In1053 O1055 2.326 . S
In1053 O1059 2.266 . S
In1053 O1060 2.326 . S
In1053 O1061 2.266 . S
In1053 O1062 2.326 . S
In1053 O1064 2.294 . S
In1053 O1065 2.326 . S
O1054 In1053 2.294 . S
O1054 C1063 1.240 . S
O1055 In1053 2.326 . S
O1055 C1063 1.252 . S
C1056 O1059 1.252 . S
C1056 O1060 1.260 . S
C1057 O1064 1.240 . S
C1057 O1065 1.252 . S
C1058 O1061 1.252 . S
C1058 O1062 1.260 . S
O1059 In1053 2.266 . S
O1059 C1056 1.252 . S
O1060 In1053 2.326 . S
O1060 C1056 1.260 . S
O1061 In1053 2.266 . S
O1061 C1058 1.252 . S
O1062 In1053 2.326 . S
O1062 C1058 1.260 . S
C1063 O1054 1.240 . S
C1063 O1055 1.252 . S
O1064 In1053 2.294 . S
O1064 C1057 1.240 . S
O1065 In1053 2.326 . S
O1065 C1057 1.252 . S
In1066 O1067 2.294 . S
In1066 O1068 2.326 . S
In1066 O1072 2.266 . S
In1066 O1073 2.326 . S
In1066 O1074 2.266 . S
In1066 O1075 2.326 . S
In1066 O1077 2.294 . S
In1066 O1078 2.326 . S
O1067 In1066 2.294 . S
O1067 C1076 1.240 . S
O1068 In1066 2.326 . S
O1068 C1076 1.252 . S
C1069 O1072 1.252 . S
C1069 O1073 1.260 . S
C1070 O1077 1.240 . S
C1070 O1078 1.252 . S
C1071 O1074 1.252 . S
C1071 O1075 1.260 . S
O1072 In1066 2.266 . S
O1072 C1069 1.252 . S
O1073 In1066 2.326 . S
O1073 C1069 1.260 . S
O1074 In1066 2.266 . S
O1074 C1071 1.252 . S
O1075 In1066 2.326 . S
O1075 C1071 1.260 . S
C1076 O1067 1.240 . S
C1076 O1068 1.252 . S
O1077 In1066 2.294 . S
O1077 C1070 1.240 . S
O1078 In1066 2.326 . S
O1078 C1070 1.252 . S
In1079 O1080 2.294 . S
In1079 O1081 2.326 . S
In1079 O1085 2.266 . S
In1079 O1086 2.326 . S
In1079 O1087 2.266 . S
In1079 O1088 2.326 . S
In1079 O1090 2.294 . S
In1079 O1091 2.326 . S
O1080 In1079 2.294 . S
O1080 C1089 1.240 . S
O1081 In1079 2.326 . S
O1081 C1089 1.252 . S
C1082 O1085 1.252 . S
C1082 O1086 1.260 . S
C1083 O1090 1.240 . S
C1083 O1091 1.252 . S
C1084 O1087 1.252 . S
C1084 O1088 1.260 . S
O1085 In1079 2.266 . S
O1085 C1082 1.252 . S
O1086 In1079 2.326 . S
O1086 C1082 1.260 . S
O1087 In1079 2.266 . S
O1087 C1084 1.252 . S
O1088 In1079 2.326 . S
O1088 C1084 1.260 . S
C1089 O1080 1.240 . S
C1089 O1081 1.252 . S
O1090 In1079 2.294 . S
O1090 C1083 1.240 . S
O1091 In1079 2.326 . S
O1091 C1083 1.252 . S
In1092 O1093 2.294 . S
In1092 O1094 2.326 . S
In1092 O1098 2.266 . S
In1092 O1099 2.326 . S
In1092 O1100 2.266 . S
In1092 O1101 2.326 . S
In1092 O1103 2.294 . S
In1092 O1104 2.326 . S
O1093 In1092 2.294 . S
O1093 C1102 1.240 . S
O1094 In1092 2.326 . S
O1094 C1102 1.252 . S
C1095 O1098 1.252 . S
C1095 O1099 1.260 . S
C1096 O1103 1.240 . S
C1096 O1104 1.252 . S
C1097 O1100 1.252 . S
C1097 O1101 1.260 . S
O1098 In1092 2.266 . S
O1098 C1095 1.252 . S
O1099 In1092 2.326 . S
O1099 C1095 1.260 . S
O1100 In1092 2.266 . S
O1100 C1097 1.252 . S
O1101 In1092 2.326 . S
O1101 C1097 1.260 . S
C1102 O1093 1.240 . S
C1102 O1094 1.252 . S
O1103 In1092 2.294 . S
O1103 C1096 1.240 . S
O1104 In1092 2.326 . S
O1104 C1096 1.252 . S
In1105 O1106 2.294 . S
In1105 O1107 2.326 . S
In1105 O1111 2.266 . S
In1105 O1112 2.326 . S
In1105 O1113 2.266 . S
In1105 O1114 2.326 . S
In1105 O1116 2.294 . S
In1105 O1117 2.326 . S
O1106 In1105 2.294 . S
O1106 C1115 1.240 . S
O1107 In1105 2.326 . S
O1107 C1115 1.252 . S
C1108 O1111 1.252 . S
C1108 O1112 1.260 . S
C1109 O1116 1.240 . S
C1109 O1117 1.252 . S
C1110 O1113 1.252 . S
C1110 O1114 1.260 . S
O1111 In1105 2.266 . S
O1111 C1108 1.252 . S
O1112 In1105 2.326 . S
O1112 C1108 1.260 . S
O1113 In1105 2.266 . S
O1113 C1110 1.252 . S
O1114 In1105 2.326 . S
O1114 C1110 1.260 . S
C1115 O1106 1.240 . S
C1115 O1107 1.252 . S
O1116 In1105 2.294 . S
O1116 C1109 1.240 . S
O1117 In1105 2.326 . S
O1117 C1109 1.252 . S
In1118 O1119 2.294 . S
In1118 O1120 2.326 . S
In1118 O1124 2.266 . S
In1118 O1125 2.326 . S
In1118 O1126 2.266 . S
In1118 O1127 2.326 . S
In1118 O1129 2.294 . S
In1118 O1130 2.326 . S
O1119 In1118 2.294 . S
O1119 C1128 1.240 . S
O1120 In1118 2.326 . S
O1120 C1128 1.252 . S
C1121 O1124 1.252 . S
C1121 O1125 1.260 . S
C1122 O1129 1.240 . S
C1122 O1130 1.252 . S
C1123 O1126 1.252 . S
C1123 O1127 1.260 . S
O1124 In1118 2.266 . S
O1124 C1121 1.252 . S
O1125 In1118 2.326 . S
O1125 C1121 1.260 . S
O1126 In1118 2.266 . S
O1126 C1123 1.252 . S
O1127 In1118 2.326 . S
O1127 C1123 1.260 . S
C1128 O1119 1.240 . S
C1128 O1120 1.252 . S
O1129 In1118 2.294 . S
O1129 C1122 1.240 . S
O1130 In1118 2.326 . S
O1130 C1122 1.252 . S
In1131 O1132 2.294 . S
In1131 O1133 2.326 . S
In1131 O1137 2.266 . S
In1131 O1138 2.326 . S
In1131 O1139 2.266 . S
In1131 O1140 2.326 . S
In1131 O1142 2.294 . S
In1131 O1143 2.326 . S
O1132 In1131 2.294 . S
O1132 C1141 1.240 . S
O1133 In1131 2.326 . S
O1133 C1141 1.252 . S
C1134 O1137 1.252 . S
C1134 O1138 1.260 . S
C1135 O1142 1.240 . S
C1135 O1143 1.252 . S
C1136 O1139 1.252 . S
C1136 O1140 1.260 . S
O1137 In1131 2.266 . S
O1137 C1134 1.252 . S
O1138 In1131 2.326 . S
O1138 C1134 1.260 . S
O1139 In1131 2.266 . S
O1139 C1136 1.252 . S
O1140 In1131 2.326 . S
O1140 C1136 1.260 . S
C1141 O1132 1.240 . S
C1141 O1133 1.252 . S
O1142 In1131 2.294 . S
O1142 C1135 1.240 . S
O1143 In1131 2.326 . S
O1143 C1135 1.252 . S
In1144 O1145 2.294 . S
In1144 O1146 2.326 . S
In1144 O1150 2.266 . S
In1144 O1151 2.326 . S
In1144 O1152 2.266 . S
In1144 O1153 2.326 . S
In1144 O1155 2.294 . S
In1144 O1156 2.326 . S
O1145 In1144 2.294 . S
O1145 C1154 1.240 . S
O1146 In1144 2.326 . S
O1146 C1154 1.252 . S
C1147 O1150 1.252 . S
C1147 O1151 1.260 . S
C1148 O1155 1.240 . S
C1148 O1156 1.252 . S
C1149 O1152 1.252 . S
C1149 O1153 1.260 . S
O1150 In1144 2.266 . S
O1150 C1147 1.252 . S
O1151 In1144 2.326 . S
O1151 C1147 1.260 . S
O1152 In1144 2.266 . S
O1152 C1149 1.252 . S
O1153 In1144 2.326 . S
O1153 C1149 1.260 . S
C1154 O1145 1.240 . S
C1154 O1146 1.252 . S
O1155 In1144 2.294 . S
O1155 C1148 1.240 . S
O1156 In1144 2.326 . S
O1156 C1148 1.252 . S
In1157 O1158 2.294 . S
In1157 O1159 2.326 . S
In1157 O1163 2.266 . S
In1157 O1164 2.326 . S
In1157 O1165 2.266 . S
In1157 O1166 2.326 . S
In1157 O1168 2.294 . S
In1157 O1169 2.326 . S
O1158 In1157 2.294 . S
O1158 C1167 1.240 . S
O1159 In1157 2.326 . S
O1159 C1167 1.252 . S
C1160 O1163 1.252 . S
C1160 O1164 1.260 . S
C1161 O1168 1.240 . S
C1161 O1169 1.252 . S
C1162 O1165 1.252 . S
C1162 O1166 1.260 . S
O1163 In1157 2.266 . S
O1163 C1160 1.252 . S
O1164 In1157 2.326 . S
O1164 C1160 1.260 . S
O1165 In1157 2.266 . S
O1165 C1162 1.252 . S
O1166 In1157 2.326 . S
O1166 C1162 1.260 . S
C1167 O1158 1.240 . S
C1167 O1159 1.252 . S
O1168 In1157 2.294 . S
O1168 C1161 1.240 . S
O1169 In1157 2.326 . S
O1169 C1161 1.252 . S
In1170 O1171 2.294 . S
In1170 O1172 2.326 . S
In1170 O1176 2.266 . S
In1170 O1177 2.326 . S
In1170 O1178 2.266 . S
In1170 O1179 2.326 . S
In1170 O1181 2.294 . S
In1170 O1182 2.326 . S
O1171 In1170 2.294 . S
O1171 C1180 1.240 . S
O1172 In1170 2.326 . S
O1172 C1180 1.252 . S
C1173 O1176 1.252 . S
C1173 O1177 1.260 . S
C1174 O1181 1.240 . S
C1174 O1182 1.252 . S
C1175 O1178 1.252 . S
C1175 O1179 1.260 . S
O1176 In1170 2.266 . S
O1176 C1173 1.252 . S
O1177 In1170 2.326 . S
O1177 C1173 1.260 . S
O1178 In1170 2.266 . S
O1178 C1175 1.252 . S
O1179 In1170 2.326 . S
O1179 C1175 1.260 . S
C1180 O1171 1.240 . S
C1180 O1172 1.252 . S
O1181 In1170 2.294 . S
O1181 C1174 1.240 . S
O1182 In1170 2.326 . S
O1182 C1174 1.252 . S
In1183 O1184 2.294 . S
In1183 O1185 2.326 . S
In1183 O1189 2.266 . S
In1183 O1190 2.326 . S
In1183 O1191 2.266 . S
In1183 O1192 2.326 . S
In1183 O1194 2.294 . S
In1183 O1195 2.326 . S
O1184 In1183 2.294 . S
O1184 C1193 1.240 . S
O1185 In1183 2.326 . S
O1185 C1193 1.252 . S
C1186 O1189 1.252 . S
C1186 O1190 1.260 . S
C1187 O1194 1.240 . S
C1187 O1195 1.252 . S
C1188 O1191 1.252 . S
C1188 O1192 1.260 . S
O1189 In1183 2.266 . S
O1189 C1186 1.252 . S
O1190 In1183 2.326 . S
O1190 C1186 1.260 . S
O1191 In1183 2.266 . S
O1191 C1188 1.252 . S
O1192 In1183 2.326 . S
O1192 C1188 1.260 . S
C1193 O1184 1.240 . S
C1193 O1185 1.252 . S
O1194 In1183 2.294 . S
O1194 C1187 1.240 . S
O1195 In1183 2.326 . S
O1195 C1187 1.252 . S
In1196 O1197 2.294 . S
In1196 O1198 2.326 . S
In1196 O1202 2.266 . S
In1196 O1203 2.326 . S
In1196 O1204 2.266 . S
In1196 O1205 2.326 . S
In1196 O1207 2.294 . S
In1196 O1208 2.326 . S
O1197 In1196 2.294 . S
O1197 C1206 1.240 . S
O1198 In1196 2.326 . S
O1198 C1206 1.252 . S
C1199 O1202 1.252 . S
C1199 O1203 1.260 . S
C1200 O1207 1.240 . S
C1200 O1208 1.252 . S
C1201 O1204 1.252 . S
C1201 O1205 1.260 . S
O1202 In1196 2.266 . S
O1202 C1199 1.252 . S
O1203 In1196 2.326 . S
O1203 C1199 1.260 . S
O1204 In1196 2.266 . S
O1204 C1201 1.252 . S
O1205 In1196 2.326 . S
O1205 C1201 1.260 . S
C1206 O1197 1.240 . S
C1206 O1198 1.252 . S
O1207 In1196 2.294 . S
O1207 C1200 1.240 . S
O1208 In1196 2.326 . S
O1208 C1200 1.252 . S
In1209 O1210 2.294 . S
In1209 O1211 2.326 . S
In1209 O1215 2.266 . S
In1209 O1216 2.326 . S
In1209 O1217 2.266 . S
In1209 O1218 2.326 . S
In1209 O1220 2.294 . S
In1209 O1221 2.326 . S
O1210 In1209 2.294 . S
O1210 C1219 1.240 . S
O1211 In1209 2.326 . S
O1211 C1219 1.252 . S
C1212 O1215 1.252 . S
C1212 O1216 1.260 . S
C1213 O1220 1.240 . S
C1213 O1221 1.252 . S
C1214 O1217 1.252 . S
C1214 O1218 1.260 . S
O1215 In1209 2.266 . S
O1215 C1212 1.252 . S
O1216 In1209 2.326 . S
O1216 C1212 1.260 . S
O1217 In1209 2.266 . S
O1217 C1214 1.252 . S
O1218 In1209 2.326 . S
O1218 C1214 1.260 . S
C1219 O1210 1.240 . S
C1219 O1211 1.252 . S
O1220 In1209 2.294 . S
O1220 C1213 1.240 . S
O1221 In1209 2.326 . S
O1221 C1213 1.252 . S
In1222 O1223 2.294 . S
In1222 O1224 2.326 . S
In1222 O1228 2.266 . S
In1222 O1229 2.326 . S
In1222 O1230 2.266 . S
In1222 O1231 2.326 . S
In1222 O1233 2.294 . S
In1222 O1234 2.326 . S
O1223 In1222 2.294 . S
O1223 C1232 1.240 . S
O1224 In1222 2.326 . S
O1224 C1232 1.252 . S
C1225 O1228 1.252 . S
C1225 O1229 1.260 . S
C1226 O1233 1.240 . S
C1226 O1234 1.252 . S
C1227 O1230 1.252 . S
C1227 O1231 1.260 . S
O1228 In1222 2.266 . S
O1228 C1225 1.252 . S
O1229 In1222 2.326 . S
O1229 C1225 1.260 . S
O1230 In1222 2.266 . S
O1230 C1227 1.252 . S
O1231 In1222 2.326 . S
O1231 C1227 1.260 . S
C1232 O1223 1.240 . S
C1232 O1224 1.252 . S
O1233 In1222 2.294 . S
O1233 C1226 1.240 . S
O1234 In1222 2.326 . S
O1234 C1226 1.252 . S
In1235 O1236 2.294 . S
In1235 O1237 2.326 . S
In1235 O1241 2.266 . S
In1235 O1242 2.326 . S
In1235 O1243 2.266 . S
In1235 O1244 2.326 . S
In1235 O1246 2.294 . S
In1235 O1247 2.326 . S
O1236 In1235 2.294 . S
O1236 C1245 1.240 . S
O1237 In1235 2.326 . S
O1237 C1245 1.252 . S
C1238 O1241 1.252 . S
C1238 O1242 1.260 . S
C1239 O1246 1.240 . S
C1239 O1247 1.252 . S
C1240 O1243 1.252 . S
C1240 O1244 1.260 . S
O1241 In1235 2.266 . S
O1241 C1238 1.252 . S
O1242 In1235 2.326 . S
O1242 C1238 1.260 . S
O1243 In1235 2.266 . S
O1243 C1240 1.252 . S
O1244 In1235 2.326 . S
O1244 C1240 1.260 . S
C1245 O1236 1.240 . S
C1245 O1237 1.252 . S
O1246 In1235 2.294 . S
O1246 C1239 1.240 . S
O1247 In1235 2.326 . S
O1247 C1239 1.252 . S
H1248 C1254 0.930 . S
H1249 C1257 0.930 . S
H1250 C1258 0.930 . S
H1251 C1259 0.930 . S
H1252 C1262 0.930 . S
H1253 C1263 0.930 . S
C1254 H1248 0.930 . S
C1254 C1255 1.355 . S
C1254 C1256 1.415 . S
C1255 C1254 1.355 . S
C1255 C1257 1.419 . S
C1256 C1254 1.415 . S
C1256 C1261 1.425 . S
C1256 C1263 1.409 . S
C1257 H1249 0.930 . S
C1257 C1255 1.419 . S
C1257 C1258 1.362 . S
C1258 H1250 0.930 . S
C1258 C1257 1.362 . S
C1258 C1261 1.409 . S
C1259 H1251 0.930 . S
C1259 C1260 1.355 . S
C1259 C1261 1.415 . S
C1260 C1259 1.355 . S
C1260 C1262 1.419 . S
C1261 C1256 1.425 . S
C1261 C1258 1.409 . S
C1261 C1259 1.415 . S
C1262 H1252 0.930 . S
C1262 C1260 1.419 . S
C1262 C1263 1.362 . S
C1263 H1253 0.930 . S
C1263 C1256 1.409 . S
C1263 C1262 1.362 . S
H1264 C1270 0.930 . S
H1265 C1273 0.930 . S
H1266 C1274 0.930 . S
H1267 C1275 0.930 . S
H1268 C1278 0.930 . S
H1269 C1279 0.930 . S
C1270 H1264 0.930 . S
C1270 C1271 1.355 . S
C1270 C1272 1.415 . S
C1271 C1270 1.355 . S
C1271 C1273 1.419 . S
C1272 C1270 1.415 . S
C1272 C1277 1.425 . S
C1272 C1279 1.409 . S
C1273 H1265 0.930 . S
C1273 C1271 1.419 . S
C1273 C1274 1.362 . S
C1274 H1266 0.930 . S
C1274 C1273 1.362 . S
C1274 C1277 1.409 . S
C1275 H1267 0.930 . S
C1275 C1276 1.355 . S
C1275 C1277 1.415 . S
C1276 C1275 1.355 . S
C1276 C1278 1.419 . S
C1277 C1272 1.425 . S
C1277 C1274 1.409 . S
C1277 C1275 1.415 . S
C1278 H1268 0.930 . S
C1278 C1276 1.419 . S
C1278 C1279 1.362 . S
C1279 H1269 0.930 . S
C1279 C1272 1.409 . S
C1279 C1278 1.362 . S
H1280 C1286 0.930 . S
H1281 C1289 0.930 . S
H1282 C1290 0.930 . S
H1283 C1291 0.930 . S
H1284 C1294 0.930 . S
H1285 C1295 0.930 . S
C1286 H1280 0.930 . S
C1286 C1287 1.355 . S
C1286 C1288 1.415 . S
C1287 C1286 1.355 . S
C1287 C1289 1.419 . S
C1288 C1286 1.415 . S
C1288 C1293 1.425 . S
C1288 C1295 1.409 . S
C1289 H1281 0.930 . S
C1289 C1287 1.419 . S
C1289 C1290 1.362 . S
C1290 H1282 0.930 . S
C1290 C1289 1.362 . S
C1290 C1293 1.409 . S
C1291 H1283 0.930 . S
C1291 C1292 1.355 . S
C1291 C1293 1.415 . S
C1292 C1291 1.355 . S
C1292 C1294 1.419 . S
C1293 C1288 1.425 . S
C1293 C1290 1.409 . S
C1293 C1291 1.415 . S
C1294 H1284 0.930 . S
C1294 C1292 1.419 . S
C1294 C1295 1.362 . S
C1295 H1285 0.930 . S
C1295 C1288 1.409 . S
C1295 C1294 1.362 . S
H1296 C1302 0.930 . S
H1297 C1305 0.930 . S
H1298 C1306 0.930 . S
H1299 C1307 0.930 . S
H1300 C1310 0.930 . S
H1301 C1311 0.930 . S
C1302 H1296 0.930 . S
C1302 C1303 1.355 . S
C1302 C1304 1.415 . S
C1303 C1302 1.355 . S
C1303 C1305 1.419 . S
C1304 C1302 1.415 . S
C1304 C1309 1.425 . S
C1304 C1311 1.409 . S
C1305 H1297 0.930 . S
C1305 C1303 1.419 . S
C1305 C1306 1.362 . S
C1306 H1298 0.930 . S
C1306 C1305 1.362 . S
C1306 C1309 1.409 . S
C1307 H1299 0.930 . S
C1307 C1308 1.355 . S
C1307 C1309 1.415 . S
C1308 C1307 1.355 . S
C1308 C1310 1.419 . S
C1309 C1304 1.425 . S
C1309 C1306 1.409 . S
C1309 C1307 1.415 . S
C1310 H1300 0.930 . S
C1310 C1308 1.419 . S
C1310 C1311 1.362 . S
C1311 H1301 0.930 . S
C1311 C1304 1.409 . S
C1311 C1310 1.362 . S
H1312 C1318 0.930 . S
H1313 C1321 0.930 . S
H1314 C1322 0.930 . S
H1315 C1323 0.930 . S
H1316 C1326 0.930 . S
H1317 C1327 0.930 . S
C1318 H1312 0.930 . S
C1318 C1319 1.355 . S
C1318 C1320 1.415 . S
C1319 C1318 1.355 . S
C1319 C1321 1.419 . S
C1320 C1318 1.415 . S
C1320 C1325 1.425 . S
C1320 C1327 1.409 . S
C1321 H1313 0.930 . S
C1321 C1319 1.419 . S
C1321 C1322 1.362 . S
C1322 H1314 0.930 . S
C1322 C1321 1.362 . S
C1322 C1325 1.409 . S
C1323 H1315 0.930 . S
C1323 C1324 1.355 . S
C1323 C1325 1.415 . S
C1324 C1323 1.355 . S
C1324 C1326 1.419 . S
C1325 C1320 1.425 . S
C1325 C1322 1.409 . S
C1325 C1323 1.415 . S
C1326 H1316 0.930 . S
C1326 C1324 1.419 . S
C1326 C1327 1.362 . S
C1327 H1317 0.930 . S
C1327 C1320 1.409 . S
C1327 C1326 1.362 . S
H1328 C1334 0.930 . S
H1329 C1337 0.930 . S
H1330 C1338 0.930 . S
H1331 C1339 0.930 . S
H1332 C1342 0.930 . S
H1333 C1343 0.930 . S
C1334 H1328 0.930 . S
C1334 C1335 1.355 . S
C1334 C1336 1.415 . S
C1335 C1334 1.355 . S
C1335 C1337 1.419 . S
C1336 C1334 1.415 . S
C1336 C1341 1.425 . S
C1336 C1343 1.409 . S
C1337 H1329 0.930 . S
C1337 C1335 1.419 . S
C1337 C1338 1.362 . S
C1338 H1330 0.930 . S
C1338 C1337 1.362 . S
C1338 C1341 1.409 . S
C1339 H1331 0.930 . S
C1339 C1340 1.355 . S
C1339 C1341 1.415 . S
C1340 C1339 1.355 . S
C1340 C1342 1.419 . S
C1341 C1336 1.425 . S
C1341 C1338 1.409 . S
C1341 C1339 1.415 . S
C1342 H1332 0.930 . S
C1342 C1340 1.419 . S
C1342 C1343 1.362 . S
C1343 H1333 0.930 . S
C1343 C1336 1.409 . S
C1343 C1342 1.362 . S
H1344 C1350 0.930 . S
H1345 C1353 0.930 . S
H1346 C1354 0.930 . S
H1347 C1355 0.930 . S
H1348 C1358 0.930 . S
H1349 C1359 0.930 . S
C1350 H1344 0.930 . S
C1350 C1351 1.355 . S
C1350 C1352 1.415 . S
C1351 C1350 1.355 . S
C1351 C1353 1.419 . S
C1352 C1350 1.415 . S
C1352 C1357 1.425 . S
C1352 C1359 1.409 . S
C1353 H1345 0.930 . S
C1353 C1351 1.419 . S
C1353 C1354 1.362 . S
C1354 H1346 0.930 . S
C1354 C1353 1.362 . S
C1354 C1357 1.409 . S
C1355 H1347 0.930 . S
C1355 C1356 1.355 . S
C1355 C1357 1.415 . S
C1356 C1355 1.355 . S
C1356 C1358 1.419 . S
C1357 C1352 1.425 . S
C1357 C1354 1.409 . S
C1357 C1355 1.415 . S
C1358 H1348 0.930 . S
C1358 C1356 1.419 . S
C1358 C1359 1.362 . S
C1359 H1349 0.930 . S
C1359 C1352 1.409 . S
C1359 C1358 1.362 . S
H1360 C1366 0.930 . S
H1361 C1369 0.930 . S
H1362 C1370 0.930 . S
H1363 C1371 0.930 . S
H1364 C1374 0.930 . S
H1365 C1375 0.930 . S
C1366 H1360 0.930 . S
C1366 C1367 1.355 . S
C1366 C1368 1.415 . S
C1367 C1366 1.355 . S
C1367 C1369 1.419 . S
C1368 C1366 1.415 . S
C1368 C1373 1.425 . S
C1368 C1375 1.409 . S
C1369 H1361 0.930 . S
C1369 C1367 1.419 . S
C1369 C1370 1.362 . S
C1370 H1362 0.930 . S
C1370 C1369 1.362 . S
C1370 C1373 1.409 . S
C1371 H1363 0.930 . S
C1371 C1372 1.355 . S
C1371 C1373 1.415 . S
C1372 C1371 1.355 . S
C1372 C1374 1.419 . S
C1373 C1368 1.425 . S
C1373 C1370 1.409 . S
C1373 C1371 1.415 . S
C1374 H1364 0.930 . S
C1374 C1372 1.419 . S
C1374 C1375 1.362 . S
C1375 H1365 0.930 . S
C1375 C1368 1.409 . S
C1375 C1374 1.362 . S
H1376 C1382 0.930 . S
H1377 C1385 0.930 . S
H1378 C1386 0.930 . S
H1379 C1387 0.930 . S
H1380 C1390 0.930 . S
H1381 C1391 0.930 . S
C1382 H1376 0.930 . S
C1382 C1383 1.355 . S
C1382 C1384 1.415 . S
C1383 C1382 1.355 . S
C1383 C1385 1.419 . S
C1384 C1382 1.415 . S
C1384 C1389 1.425 . S
C1384 C1391 1.409 . S
C1385 H1377 0.930 . S
C1385 C1383 1.419 . S
C1385 C1386 1.362 . S
C1386 H1378 0.930 . S
C1386 C1385 1.362 . S
C1386 C1389 1.409 . S
C1387 H1379 0.930 . S
C1387 C1388 1.355 . S
C1387 C1389 1.415 . S
C1388 C1387 1.355 . S
C1388 C1390 1.419 . S
C1389 C1384 1.425 . S
C1389 C1386 1.409 . S
C1389 C1387 1.415 . S
C1390 H1380 0.930 . S
C1390 C1388 1.419 . S
C1390 C1391 1.362 . S
C1391 H1381 0.930 . S
C1391 C1384 1.409 . S
C1391 C1390 1.362 . S
H1392 C1398 0.930 . S
H1393 C1401 0.930 . S
H1394 C1402 0.930 . S
H1395 C1403 0.930 . S
H1396 C1406 0.930 . S
H1397 C1407 0.930 . S
C1398 H1392 0.930 . S
C1398 C1399 1.355 . S
C1398 C1400 1.415 . S
C1399 C1398 1.355 . S
C1399 C1401 1.419 . S
C1400 C1398 1.415 . S
C1400 C1405 1.425 . S
C1400 C1407 1.409 . S
C1401 H1393 0.930 . S
C1401 C1399 1.419 . S
C1401 C1402 1.362 . S
C1402 H1394 0.930 . S
C1402 C1401 1.362 . S
C1402 C1405 1.409 . S
C1403 H1395 0.930 . S
C1403 C1404 1.355 . S
C1403 C1405 1.415 . S
C1404 C1403 1.355 . S
C1404 C1406 1.419 . S
C1405 C1400 1.425 . S
C1405 C1402 1.409 . S
C1405 C1403 1.415 . S
C1406 H1396 0.930 . S
C1406 C1404 1.419 . S
C1406 C1407 1.362 . S
C1407 H1397 0.930 . S
C1407 C1400 1.409 . S
C1407 C1406 1.362 . S
H1408 C1414 0.930 . S
H1409 C1417 0.930 . S
H1410 C1418 0.930 . S
H1411 C1419 0.930 . S
H1412 C1422 0.930 . S
H1413 C1423 0.930 . S
C1414 H1408 0.930 . S
C1414 C1415 1.355 . S
C1414 C1416 1.415 . S
C1415 C1414 1.355 . S
C1415 C1417 1.419 . S
C1416 C1414 1.415 . S
C1416 C1421 1.425 . S
C1416 C1423 1.409 . S
C1417 H1409 0.930 . S
C1417 C1415 1.419 . S
C1417 C1418 1.362 . S
C1418 H1410 0.930 . S
C1418 C1417 1.362 . S
C1418 C1421 1.409 . S
C1419 H1411 0.930 . S
C1419 C1420 1.355 . S
C1419 C1421 1.415 . S
C1420 C1419 1.355 . S
C1420 C1422 1.419 . S
C1421 C1416 1.425 . S
C1421 C1418 1.409 . S
C1421 C1419 1.415 . S
C1422 H1412 0.930 . S
C1422 C1420 1.419 . S
C1422 C1423 1.362 . S
C1423 H1413 0.930 . S
C1423 C1416 1.409 . S
C1423 C1422 1.362 . S
H1424 C1430 0.930 . S
H1425 C1433 0.930 . S
H1426 C1434 0.930 . S
H1427 C1435 0.930 . S
H1428 C1438 0.930 . S
H1429 C1439 0.930 . S
C1430 H1424 0.930 . S
C1430 C1431 1.355 . S
C1430 C1432 1.415 . S
C1431 C1430 1.355 . S
C1431 C1433 1.419 . S
C1432 C1430 1.415 . S
C1432 C1437 1.425 . S
C1432 C1439 1.409 . S
C1433 H1425 0.930 . S
C1433 C1431 1.419 . S
C1433 C1434 1.362 . S
C1434 H1426 0.930 . S
C1434 C1433 1.362 . S
C1434 C1437 1.409 . S
C1435 H1427 0.930 . S
C1435 C1436 1.355 . S
C1435 C1437 1.415 . S
C1436 C1435 1.355 . S
C1436 C1438 1.419 . S
C1437 C1432 1.425 . S
C1437 C1434 1.409 . S
C1437 C1435 1.415 . S
C1438 H1428 0.930 . S
C1438 C1436 1.419 . S
C1438 C1439 1.362 . S
C1439 H1429 0.930 . S
C1439 C1432 1.409 . S
C1439 C1438 1.362 . S
H1440 C1446 0.930 . S
H1441 C1449 0.930 . S
H1442 C1450 0.930 . S
H1443 C1451 0.930 . S
H1444 C1454 0.930 . S
H1445 C1455 0.930 . S
C1446 H1440 0.930 . S
C1446 C1447 1.355 . S
C1446 C1448 1.415 . S
C1447 C1446 1.355 . S
C1447 C1449 1.419 . S
C1448 C1446 1.415 . S
C1448 C1453 1.425 . S
C1448 C1455 1.409 . S
C1449 H1441 0.930 . S
C1449 C1447 1.419 . S
C1449 C1450 1.362 . S
C1450 H1442 0.930 . S
C1450 C1449 1.362 . S
C1450 C1453 1.409 . S
C1451 H1443 0.930 . S
C1451 C1452 1.355 . S
C1451 C1453 1.415 . S
C1452 C1451 1.355 . S
C1452 C1454 1.419 . S
C1453 C1448 1.425 . S
C1453 C1450 1.409 . S
C1453 C1451 1.415 . S
C1454 H1444 0.930 . S
C1454 C1452 1.419 . S
C1454 C1455 1.362 . S
C1455 H1445 0.930 . S
C1455 C1448 1.409 . S
C1455 C1454 1.362 . S
H1456 C1462 0.930 . S
H1457 C1465 0.930 . S
H1458 C1466 0.930 . S
H1459 C1467 0.930 . S
H1460 C1470 0.930 . S
H1461 C1471 0.930 . S
C1462 H1456 0.930 . S
C1462 C1463 1.355 . S
C1462 C1464 1.415 . S
C1463 C1462 1.355 . S
C1463 C1465 1.419 . S
C1464 C1462 1.415 . S
C1464 C1469 1.425 . S
C1464 C1471 1.409 . S
C1465 H1457 0.930 . S
C1465 C1463 1.419 . S
C1465 C1466 1.362 . S
C1466 H1458 0.930 . S
C1466 C1465 1.362 . S
C1466 C1469 1.409 . S
C1467 H1459 0.930 . S
C1467 C1468 1.355 . S
C1467 C1469 1.415 . S
C1468 C1467 1.355 . S
C1468 C1470 1.419 . S
C1469 C1464 1.425 . S
C1469 C1466 1.409 . S
C1469 C1467 1.415 . S
C1470 H1460 0.930 . S
C1470 C1468 1.419 . S
C1470 C1471 1.362 . S
C1471 H1461 0.930 . S
C1471 C1464 1.409 . S
C1471 C1470 1.362 . S
H1472 C1478 0.930 . S
H1473 C1481 0.930 . S
H1474 C1482 0.930 . S
H1475 C1483 0.930 . S
H1476 C1486 0.930 . S
H1477 C1487 0.930 . S
C1478 H1472 0.930 . S
C1478 C1479 1.355 . S
C1478 C1480 1.415 . S
C1479 C1478 1.355 . S
C1479 C1481 1.419 . S
C1480 C1478 1.415 . S
C1480 C1485 1.425 . S
C1480 C1487 1.409 . S
C1481 H1473 0.930 . S
C1481 C1479 1.419 . S
C1481 C1482 1.362 . S
C1482 H1474 0.930 . S
C1482 C1481 1.362 . S
C1482 C1485 1.409 . S
C1483 H1475 0.930 . S
C1483 C1484 1.355 . S
C1483 C1485 1.415 . S
C1484 C1483 1.355 . S
C1484 C1486 1.419 . S
C1485 C1480 1.425 . S
C1485 C1482 1.409 . S
C1485 C1483 1.415 . S
C1486 H1476 0.930 . S
C1486 C1484 1.419 . S
C1486 C1487 1.362 . S
C1487 H1477 0.930 . S
C1487 C1480 1.409 . S
C1487 C1486 1.362 . S
H1488 C1494 0.930 . S
H1489 C1497 0.930 . S
H1490 C1498 0.930 . S
H1491 C1499 0.930 . S
H1492 C1502 0.930 . S
H1493 C1503 0.930 . S
C1494 H1488 0.930 . S
C1494 C1495 1.355 . S
C1494 C1496 1.415 . S
C1495 C1494 1.355 . S
C1495 C1497 1.419 . S
C1496 C1494 1.415 . S
C1496 C1501 1.425 . S
C1496 C1503 1.409 . S
C1497 H1489 0.930 . S
C1497 C1495 1.419 . S
C1497 C1498 1.362 . S
C1498 H1490 0.930 . S
C1498 C1497 1.362 . S
C1498 C1501 1.409 . S
C1499 H1491 0.930 . S
C1499 C1500 1.355 . S
C1499 C1501 1.415 . S
C1500 C1499 1.355 . S
C1500 C1502 1.419 . S
C1501 C1496 1.425 . S
C1501 C1498 1.409 . S
C1501 C1499 1.415 . S
C1502 H1492 0.930 . S
C1502 C1500 1.419 . S
C1502 C1503 1.362 . S
C1503 H1493 0.930 . S
C1503 C1496 1.409 . S
C1503 C1502 1.362 . S
H1504 C1510 0.930 . S
H1505 C1513 0.930 . S
H1506 C1514 0.930 . S
H1507 C1515 0.930 . S
H1508 C1518 0.930 . S
H1509 C1519 0.930 . S
C1510 H1504 0.930 . S
C1510 C1511 1.355 . S
C1510 C1512 1.415 . S
C1511 C1510 1.355 . S
C1511 C1513 1.419 . S
C1512 C1510 1.415 . S
C1512 C1517 1.425 . S
C1512 C1519 1.409 . S
C1513 H1505 0.930 . S
C1513 C1511 1.419 . S
C1513 C1514 1.362 . S
C1514 H1506 0.930 . S
C1514 C1513 1.362 . S
C1514 C1517 1.409 . S
C1515 H1507 0.930 . S
C1515 C1516 1.355 . S
C1515 C1517 1.415 . S
C1516 C1515 1.355 . S
C1516 C1518 1.419 . S
C1517 C1512 1.425 . S
C1517 C1514 1.409 . S
C1517 C1515 1.415 . S
C1518 H1508 0.930 . S
C1518 C1516 1.419 . S
C1518 C1519 1.362 . S
C1519 H1509 0.930 . S
C1519 C1512 1.409 . S
C1519 C1518 1.362 . S
H1520 C1526 0.930 . S
H1521 C1529 0.930 . S
H1522 C1530 0.930 . S
H1523 C1531 0.930 . S
H1524 C1534 0.930 . S
H1525 C1535 0.930 . S
C1526 H1520 0.930 . S
C1526 C1527 1.355 . S
C1526 C1528 1.415 . S
C1527 C1526 1.355 . S
C1527 C1529 1.419 . S
C1528 C1526 1.415 . S
C1528 C1533 1.425 . S
C1528 C1535 1.409 . S
C1529 H1521 0.930 . S
C1529 C1527 1.419 . S
C1529 C1530 1.362 . S
C1530 H1522 0.930 . S
C1530 C1529 1.362 . S
C1530 C1533 1.409 . S
C1531 H1523 0.930 . S
C1531 C1532 1.355 . S
C1531 C1533 1.415 . S
C1532 C1531 1.355 . S
C1532 C1534 1.419 . S
C1533 C1528 1.425 . S
C1533 C1530 1.409 . S
C1533 C1531 1.415 . S
C1534 H1524 0.930 . S
C1534 C1532 1.419 . S
C1534 C1535 1.362 . S
C1535 H1525 0.930 . S
C1535 C1528 1.409 . S
C1535 C1534 1.362 . S
H1536 C1542 0.930 . S
H1537 C1545 0.930 . S
H1538 C1546 0.930 . S
H1539 C1547 0.930 . S
H1540 C1550 0.930 . S
H1541 C1551 0.930 . S
C1542 H1536 0.930 . S
C1542 C1543 1.355 . S
C1542 C1544 1.415 . S
C1543 C1542 1.355 . S
C1543 C1545 1.419 . S
C1544 C1542 1.415 . S
C1544 C1549 1.425 . S
C1544 C1551 1.409 . S
C1545 H1537 0.930 . S
C1545 C1543 1.419 . S
C1545 C1546 1.362 . S
C1546 H1538 0.930 . S
C1546 C1545 1.362 . S
C1546 C1549 1.409 . S
C1547 H1539 0.930 . S
C1547 C1548 1.355 . S
C1547 C1549 1.415 . S
C1548 C1547 1.355 . S
C1548 C1550 1.419 . S
C1549 C1544 1.425 . S
C1549 C1546 1.409 . S
C1549 C1547 1.415 . S
C1550 H1540 0.930 . S
C1550 C1548 1.419 . S
C1550 C1551 1.362 . S
C1551 H1541 0.930 . S
C1551 C1544 1.409 . S
C1551 C1550 1.362 . S
H1552 C1558 0.930 . S
H1553 C1561 0.930 . S
H1554 C1562 0.930 . S
H1555 C1563 0.930 . S
H1556 C1566 0.930 . S
H1557 C1567 0.930 . S
C1558 H1552 0.930 . S
C1558 C1559 1.355 . S
C1558 C1560 1.415 . S
C1559 C1558 1.355 . S
C1559 C1561 1.419 . S
C1560 C1558 1.415 . S
C1560 C1565 1.425 . S
C1560 C1567 1.409 . S
C1561 H1553 0.930 . S
C1561 C1559 1.419 . S
C1561 C1562 1.362 . S
C1562 H1554 0.930 . S
C1562 C1561 1.362 . S
C1562 C1565 1.409 . S
C1563 H1555 0.930 . S
C1563 C1564 1.355 . S
C1563 C1565 1.415 . S
C1564 C1563 1.355 . S
C1564 C1566 1.419 . S
C1565 C1560 1.425 . S
C1565 C1562 1.409 . S
C1565 C1563 1.415 . S
C1566 H1556 0.930 . S
C1566 C1564 1.419 . S
C1566 C1567 1.362 . S
C1567 H1557 0.930 . S
C1567 C1560 1.409 . S
C1567 C1566 1.362 . S
H1568 C1574 0.930 . S
H1569 C1577 0.930 . S
H1570 C1578 0.930 . S
H1571 C1579 0.930 . S
H1572 C1582 0.930 . S
H1573 C1583 0.930 . S
C1574 H1568 0.930 . S
C1574 C1575 1.355 . S
C1574 C1576 1.415 . S
C1575 C1574 1.355 . S
C1575 C1577 1.419 . S
C1576 C1574 1.415 . S
C1576 C1581 1.425 . S
C1576 C1583 1.409 . S
C1577 H1569 0.930 . S
C1577 C1575 1.419 . S
C1577 C1578 1.362 . S
C1578 H1570 0.930 . S
C1578 C1577 1.362 . S
C1578 C1581 1.409 . S
C1579 H1571 0.930 . S
C1579 C1580 1.355 . S
C1579 C1581 1.415 . S
C1580 C1579 1.355 . S
C1580 C1582 1.419 . S
C1581 C1576 1.425 . S
C1581 C1578 1.409 . S
C1581 C1579 1.415 . S
C1582 H1572 0.930 . S
C1582 C1580 1.419 . S
C1582 C1583 1.362 . S
C1583 H1573 0.930 . S
C1583 C1576 1.409 . S
C1583 C1582 1.362 . S
H1584 C1590 0.930 . S
H1585 C1593 0.930 . S
H1586 C1594 0.930 . S
H1587 C1595 0.930 . S
H1588 C1598 0.930 . S
H1589 C1599 0.930 . S
C1590 H1584 0.930 . S
C1590 C1591 1.355 . S
C1590 C1592 1.415 . S
C1591 C1590 1.355 . S
C1591 C1593 1.419 . S
C1592 C1590 1.415 . S
C1592 C1597 1.425 . S
C1592 C1599 1.409 . S
C1593 H1585 0.930 . S
C1593 C1591 1.419 . S
C1593 C1594 1.362 . S
C1594 H1586 0.930 . S
C1594 C1593 1.362 . S
C1594 C1597 1.409 . S
C1595 H1587 0.930 . S
C1595 C1596 1.355 . S
C1595 C1597 1.415 . S
C1596 C1595 1.355 . S
C1596 C1598 1.419 . S
C1597 C1592 1.425 . S
C1597 C1594 1.409 . S
C1597 C1595 1.415 . S
C1598 H1588 0.930 . S
C1598 C1596 1.419 . S
C1598 C1599 1.362 . S
C1599 H1589 0.930 . S
C1599 C1592 1.409 . S
C1599 C1598 1.362 . S
H1600 C1606 0.930 . S
H1601 C1609 0.930 . S
H1602 C1610 0.930 . S
H1603 C1611 0.930 . S
H1604 C1614 0.930 . S
H1605 C1615 0.930 . S
C1606 H1600 0.930 . S
C1606 C1607 1.355 . S
C1606 C1608 1.415 . S
C1607 C1606 1.355 . S
C1607 C1609 1.419 . S
C1608 C1606 1.415 . S
C1608 C1613 1.425 . S
C1608 C1615 1.409 . S
C1609 H1601 0.930 . S
C1609 C1607 1.419 . S
C1609 C1610 1.362 . S
C1610 H1602 0.930 . S
C1610 C1609 1.362 . S
C1610 C1613 1.409 . S
C1611 H1603 0.930 . S
C1611 C1612 1.355 . S
C1611 C1613 1.415 . S
C1612 C1611 1.355 . S
C1612 C1614 1.419 . S
C1613 C1608 1.425 . S
C1613 C1610 1.409 . S
C1613 C1611 1.415 . S
C1614 H1604 0.930 . S
C1614 C1612 1.419 . S
C1614 C1615 1.362 . S
C1615 H1605 0.930 . S
C1615 C1608 1.409 . S
C1615 C1614 1.362 . S
H1616 C1622 0.930 . S
H1617 C1625 0.930 . S
H1618 C1626 0.930 . S
H1619 C1627 0.930 . S
H1620 C1630 0.930 . S
H1621 C1631 0.930 . S
C1622 H1616 0.930 . S
C1622 C1623 1.355 . S
C1622 C1624 1.415 . S
C1623 C1622 1.355 . S
C1623 C1625 1.419 . S
C1624 C1622 1.415 . S
C1624 C1629 1.425 . S
C1624 C1631 1.409 . S
C1625 H1617 0.930 . S
C1625 C1623 1.419 . S
C1625 C1626 1.362 . S
C1626 H1618 0.930 . S
C1626 C1625 1.362 . S
C1626 C1629 1.409 . S
C1627 H1619 0.930 . S
C1627 C1628 1.355 . S
C1627 C1629 1.415 . S
C1628 C1627 1.355 . S
C1628 C1630 1.419 . S
C1629 C1624 1.425 . S
C1629 C1626 1.409 . S
C1629 C1627 1.415 . S
C1630 H1620 0.930 . S
C1630 C1628 1.419 . S
C1630 C1631 1.362 . S
C1631 H1621 0.930 . S
C1631 C1624 1.409 . S
C1631 C1630 1.362 . S
H1632 C1638 0.930 . S
H1633 C1641 0.930 . S
H1634 C1642 0.930 . S
H1635 C1643 0.930 . S
H1636 C1646 0.930 . S
H1637 C1647 0.930 . S
C1638 H1632 0.930 . S
C1638 C1639 1.355 . S
C1638 C1640 1.415 . S
C1639 C1638 1.355 . S
C1639 C1641 1.419 . S
C1640 C1638 1.415 . S
C1640 C1645 1.425 . S
C1640 C1647 1.409 . S
C1641 H1633 0.930 . S
C1641 C1639 1.419 . S
C1641 C1642 1.362 . S
C1642 H1634 0.930 . S
C1642 C1641 1.362 . S
C1642 C1645 1.409 . S
C1643 H1635 0.930 . S
C1643 C1644 1.355 . S
C1643 C1645 1.415 . S
C1644 C1643 1.355 . S
C1644 C1646 1.419 . S
C1645 C1640 1.425 . S
C1645 C1642 1.409 . S
C1645 C1643 1.415 . S
C1646 H1636 0.930 . S
C1646 C1644 1.419 . S
C1646 C1647 1.362 . S
C1647 H1637 0.930 . S
C1647 C1640 1.409 . S
C1647 C1646 1.362 . S
H1648 C1654 0.930 . S
H1649 C1657 0.930 . S
H1650 C1658 0.930 . S
H1651 C1659 0.930 . S
H1652 C1662 0.930 . S
H1653 C1663 0.930 . S
C1654 H1648 0.930 . S
C1654 C1655 1.355 . S
C1654 C1656 1.415 . S
C1655 C1654 1.355 . S
C1655 C1657 1.419 . S
C1656 C1654 1.415 . S
C1656 C1661 1.425 . S
C1656 C1663 1.409 . S
C1657 H1649 0.930 . S
C1657 C1655 1.419 . S
C1657 C1658 1.362 . S
C1658 H1650 0.930 . S
C1658 C1657 1.362 . S
C1658 C1661 1.409 . S
C1659 H1651 0.930 . S
C1659 C1660 1.355 . S
C1659 C1661 1.415 . S
C1660 C1659 1.355 . S
C1660 C1662 1.419 . S
C1661 C1656 1.425 . S
C1661 C1658 1.409 . S
C1661 C1659 1.415 . S
C1662 H1652 0.930 . S
C1662 C1660 1.419 . S
C1662 C1663 1.362 . S
C1663 H1653 0.930 . S
C1663 C1656 1.409 . S
C1663 C1662 1.362 . S
H1664 C1670 0.930 . S
H1665 C1673 0.930 . S
H1666 C1674 0.930 . S
H1667 C1675 0.930 . S
H1668 C1678 0.930 . S
H1669 C1679 0.930 . S
C1670 H1664 0.930 . S
C1670 C1671 1.355 . S
C1670 C1672 1.415 . S
C1671 C1670 1.355 . S
C1671 C1673 1.419 . S
C1672 C1670 1.415 . S
C1672 C1677 1.425 . S
C1672 C1679 1.409 . S
C1673 H1665 0.930 . S
C1673 C1671 1.419 . S
C1673 C1674 1.362 . S
C1674 H1666 0.930 . S
C1674 C1673 1.362 . S
C1674 C1677 1.409 . S
C1675 H1667 0.930 . S
C1675 C1676 1.355 . S
C1675 C1677 1.415 . S
C1676 C1675 1.355 . S
C1676 C1678 1.419 . S
C1677 C1672 1.425 . S
C1677 C1674 1.409 . S
C1677 C1675 1.415 . S
C1678 H1668 0.930 . S
C1678 C1676 1.419 . S
C1678 C1679 1.362 . S
C1679 H1669 0.930 . S
C1679 C1672 1.409 . S
C1679 C1678 1.362 . S
H1680 C1686 0.930 . S
H1681 C1689 0.930 . S
H1682 C1690 0.930 . S
H1683 C1691 0.930 . S
H1684 C1694 0.930 . S
H1685 C1695 0.930 . S
C1686 H1680 0.930 . S
C1686 C1687 1.355 . S
C1686 C1688 1.415 . S
C1687 C1686 1.355 . S
C1687 C1689 1.419 . S
C1688 C1686 1.415 . S
C1688 C1693 1.425 . S
C1688 C1695 1.409 . S
C1689 H1681 0.930 . S
C1689 C1687 1.419 . S
C1689 C1690 1.362 . S
C1690 H1682 0.930 . S
C1690 C1689 1.362 . S
C1690 C1693 1.409 . S
C1691 H1683 0.930 . S
C1691 C1692 1.355 . S
C1691 C1693 1.415 . S
C1692 C1691 1.355 . S
C1692 C1694 1.419 . S
C1693 C1688 1.425 . S
C1693 C1690 1.409 . S
C1693 C1691 1.415 . S
C1694 H1684 0.930 . S
C1694 C1692 1.419 . S
C1694 C1695 1.362 . S
C1695 H1685 0.930 . S
C1695 C1688 1.409 . S
C1695 C1694 1.362 . S
H1696 C1702 0.930 . S
H1697 C1705 0.930 . S
H1698 C1706 0.930 . S
H1699 C1707 0.930 . S
H1700 C1710 0.930 . S
H1701 C1711 0.930 . S
C1702 H1696 0.930 . S
C1702 C1703 1.355 . S
C1702 C1704 1.415 . S
C1703 C1702 1.355 . S
C1703 C1705 1.419 . S
C1704 C1702 1.415 . S
C1704 C1709 1.425 . S
C1704 C1711 1.409 . S
C1705 H1697 0.930 . S
C1705 C1703 1.419 . S
C1705 C1706 1.362 . S
C1706 H1698 0.930 . S
C1706 C1705 1.362 . S
C1706 C1709 1.409 . S
C1707 H1699 0.930 . S
C1707 C1708 1.355 . S
C1707 C1709 1.415 . S
C1708 C1707 1.355 . S
C1708 C1710 1.419 . S
C1709 C1704 1.425 . S
C1709 C1706 1.409 . S
C1709 C1707 1.415 . S
C1710 H1700 0.930 . S
C1710 C1708 1.419 . S
C1710 C1711 1.362 . S
C1711 H1701 0.930 . S
C1711 C1704 1.409 . S
C1711 C1710 1.362 . S
H1712 C1718 0.930 . S
H1713 C1721 0.930 . S
H1714 C1722 0.930 . S
H1715 C1723 0.930 . S
H1716 C1726 0.930 . S
H1717 C1727 0.930 . S
C1718 H1712 0.930 . S
C1718 C1719 1.355 . S
C1718 C1720 1.415 . S
C1719 C1718 1.355 . S
C1719 C1721 1.419 . S
C1720 C1718 1.415 . S
C1720 C1725 1.425 . S
C1720 C1727 1.409 . S
C1721 H1713 0.930 . S
C1721 C1719 1.419 . S
C1721 C1722 1.362 . S
C1722 H1714 0.930 . S
C1722 C1721 1.362 . S
C1722 C1725 1.409 . S
C1723 H1715 0.930 . S
C1723 C1724 1.355 . S
C1723 C1725 1.415 . S
C1724 C1723 1.355 . S
C1724 C1726 1.419 . S
C1725 C1720 1.425 . S
C1725 C1722 1.409 . S
C1725 C1723 1.415 . S
C1726 H1716 0.930 . S
C1726 C1724 1.419 . S
C1726 C1727 1.362 . S
C1727 H1717 0.930 . S
C1727 C1720 1.409 . S
C1727 C1726 1.362 . S
H1728 C1734 0.930 . S
H1729 C1737 0.930 . S
H1730 C1738 0.930 . S
H1731 C1739 0.930 . S
H1732 C1742 0.930 . S
H1733 C1743 0.930 . S
C1734 H1728 0.930 . S
C1734 C1735 1.355 . S
C1734 C1736 1.415 . S
C1735 C1734 1.355 . S
C1735 C1737 1.419 . S
C1736 C1734 1.415 . S
C1736 C1741 1.425 . S
C1736 C1743 1.409 . S
C1737 H1729 0.930 . S
C1737 C1735 1.419 . S
C1737 C1738 1.362 . S
C1738 H1730 0.930 . S
C1738 C1737 1.362 . S
C1738 C1741 1.409 . S
C1739 H1731 0.930 . S
C1739 C1740 1.355 . S
C1739 C1741 1.415 . S
C1740 C1739 1.355 . S
C1740 C1742 1.419 . S
C1741 C1736 1.425 . S
C1741 C1738 1.409 . S
C1741 C1739 1.415 . S
C1742 H1732 0.930 . S
C1742 C1740 1.419 . S
C1742 C1743 1.362 . S
C1743 H1733 0.930 . S
C1743 C1736 1.409 . S
C1743 C1742 1.362 . S
H1744 C1750 0.930 . S
H1745 C1753 0.930 . S
H1746 C1754 0.930 . S
H1747 C1755 0.930 . S
H1748 C1758 0.930 . S
H1749 C1759 0.930 . S
C1750 H1744 0.930 . S
C1750 C1751 1.355 . S
C1750 C1752 1.415 . S
C1751 C1750 1.355 . S
C1751 C1753 1.419 . S
C1752 C1750 1.415 . S
C1752 C1757 1.425 . S
C1752 C1759 1.409 . S
C1753 H1745 0.930 . S
C1753 C1751 1.419 . S
C1753 C1754 1.362 . S
C1754 H1746 0.930 . S
C1754 C1753 1.362 . S
C1754 C1757 1.409 . S
C1755 H1747 0.930 . S
C1755 C1756 1.355 . S
C1755 C1757 1.415 . S
C1756 C1755 1.355 . S
C1756 C1758 1.419 . S
C1757 C1752 1.425 . S
C1757 C1754 1.409 . S
C1757 C1755 1.415 . S
C1758 H1748 0.930 . S
C1758 C1756 1.419 . S
C1758 C1759 1.362 . S
C1759 H1749 0.930 . S
C1759 C1752 1.409 . S
C1759 C1758 1.362 . S
H1760 C1766 0.930 . S
H1761 C1769 0.930 . S
H1762 C1770 0.930 . S
H1763 C1771 0.930 . S
H1764 C1774 0.930 . S
H1765 C1775 0.930 . S
C1766 H1760 0.930 . S
C1766 C1767 1.355 . S
C1766 C1768 1.415 . S
C1767 C1766 1.355 . S
C1767 C1769 1.419 . S
C1768 C1766 1.415 . S
C1768 C1773 1.425 . S
C1768 C1775 1.409 . S
C1769 H1761 0.930 . S
C1769 C1767 1.419 . S
C1769 C1770 1.362 . S
C1770 H1762 0.930 . S
C1770 C1769 1.362 . S
C1770 C1773 1.409 . S
C1771 H1763 0.930 . S
C1771 C1772 1.355 . S
C1771 C1773 1.415 . S
C1772 C1771 1.355 . S
C1772 C1774 1.419 . S
C1773 C1768 1.425 . S
C1773 C1770 1.409 . S
C1773 C1771 1.415 . S
C1774 H1764 0.930 . S
C1774 C1772 1.419 . S
C1774 C1775 1.362 . S
C1775 H1765 0.930 . S
C1775 C1768 1.409 . S
C1775 C1774 1.362 . S
H1776 C1782 0.930 . S
H1777 C1785 0.930 . S
H1778 C1786 0.930 . S
H1779 C1787 0.930 . S
H1780 C1790 0.930 . S
H1781 C1791 0.930 . S
C1782 H1776 0.930 . S
C1782 C1783 1.355 . S
C1782 C1784 1.415 . S
C1783 C1782 1.355 . S
C1783 C1785 1.419 . S
C1784 C1782 1.415 . S
C1784 C1789 1.425 . S
C1784 C1791 1.409 . S
C1785 H1777 0.930 . S
C1785 C1783 1.419 . S
C1785 C1786 1.362 . S
C1786 H1778 0.930 . S
C1786 C1785 1.362 . S
C1786 C1789 1.409 . S
C1787 H1779 0.930 . S
C1787 C1788 1.355 . S
C1787 C1789 1.415 . S
C1788 C1787 1.355 . S
C1788 C1790 1.419 . S
C1789 C1784 1.425 . S
C1789 C1786 1.409 . S
C1789 C1787 1.415 . S
C1790 H1780 0.930 . S
C1790 C1788 1.419 . S
C1790 C1791 1.362 . S
C1791 H1781 0.930 . S
C1791 C1784 1.409 . S
C1791 C1790 1.362 . S
H1792 C1798 0.930 . S
H1793 C1801 0.930 . S
H1794 C1802 0.930 . S
H1795 C1803 0.930 . S
H1796 C1806 0.930 . S
H1797 C1807 0.930 . S
C1798 H1792 0.930 . S
C1798 C1799 1.355 . S
C1798 C1800 1.415 . S
C1799 C1798 1.355 . S
C1799 C1801 1.419 . S
C1800 C1798 1.415 . S
C1800 C1805 1.425 . S
C1800 C1807 1.409 . S
C1801 H1793 0.930 . S
C1801 C1799 1.419 . S
C1801 C1802 1.362 . S
C1802 H1794 0.930 . S
C1802 C1801 1.362 . S
C1802 C1805 1.409 . S
C1803 H1795 0.930 . S
C1803 C1804 1.355 . S
C1803 C1805 1.415 . S
C1804 C1803 1.355 . S
C1804 C1806 1.419 . S
C1805 C1800 1.425 . S
C1805 C1802 1.409 . S
C1805 C1803 1.415 . S
C1806 H1796 0.930 . S
C1806 C1804 1.419 . S
C1806 C1807 1.362 . S
C1807 H1797 0.930 . S
C1807 C1800 1.409 . S
C1807 C1806 1.362 . S
H1808 C1814 0.930 . S
H1809 C1817 0.930 . S
H1810 C1818 0.930 . S
H1811 C1819 0.930 . S
H1812 C1822 0.930 . S
H1813 C1823 0.930 . S
C1814 H1808 0.930 . S
C1814 C1815 1.355 . S
C1814 C1816 1.415 . S
C1815 C1814 1.355 . S
C1815 C1817 1.419 . S
C1816 C1814 1.415 . S
C1816 C1821 1.425 . S
C1816 C1823 1.409 . S
C1817 H1809 0.930 . S
C1817 C1815 1.419 . S
C1817 C1818 1.362 . S
C1818 H1810 0.930 . S
C1818 C1817 1.362 . S
C1818 C1821 1.409 . S
C1819 H1811 0.930 . S
C1819 C1820 1.355 . S
C1819 C1821 1.415 . S
C1820 C1819 1.355 . S
C1820 C1822 1.419 . S
C1821 C1816 1.425 . S
C1821 C1818 1.409 . S
C1821 C1819 1.415 . S
C1822 H1812 0.930 . S
C1822 C1820 1.419 . S
C1822 C1823 1.362 . S
C1823 H1813 0.930 . S
C1823 C1816 1.409 . S
C1823 C1822 1.362 . S
H1824 C1830 0.930 . S
H1825 C1833 0.930 . S
H1826 C1834 0.930 . S
H1827 C1835 0.930 . S
H1828 C1838 0.930 . S
H1829 C1839 0.930 . S
C1830 H1824 0.930 . S
C1830 C1831 1.355 . S
C1830 C1832 1.415 . S
C1831 C1830 1.355 . S
C1831 C1833 1.419 . S
C1832 C1830 1.415 . S
C1832 C1837 1.425 . S
C1832 C1839 1.409 . S
C1833 H1825 0.930 . S
C1833 C1831 1.419 . S
C1833 C1834 1.362 . S
C1834 H1826 0.930 . S
C1834 C1833 1.362 . S
C1834 C1837 1.409 . S
C1835 H1827 0.930 . S
C1835 C1836 1.355 . S
C1835 C1837 1.415 . S
C1836 C1835 1.355 . S
C1836 C1838 1.419 . S
C1837 C1832 1.425 . S
C1837 C1834 1.409 . S
C1837 C1835 1.415 . S
C1838 H1828 0.930 . S
C1838 C1836 1.419 . S
C1838 C1839 1.362 . S
C1839 H1829 0.930 . S
C1839 C1832 1.409 . S
C1839 C1838 1.362 . S
H1840 C1846 0.930 . S
H1841 C1849 0.930 . S
H1842 C1850 0.930 . S
H1843 C1851 0.930 . S
H1844 C1854 0.930 . S
H1845 C1855 0.930 . S
C1846 H1840 0.930 . S
C1846 C1847 1.355 . S
C1846 C1848 1.415 . S
C1847 C1846 1.355 . S
C1847 C1849 1.419 . S
C1848 C1846 1.415 . S
C1848 C1853 1.425 . S
C1848 C1855 1.409 . S
C1849 H1841 0.930 . S
C1849 C1847 1.419 . S
C1849 C1850 1.362 . S
C1850 H1842 0.930 . S
C1850 C1849 1.362 . S
C1850 C1853 1.409 . S
C1851 H1843 0.930 . S
C1851 C1852 1.355 . S
C1851 C1853 1.415 . S
C1852 C1851 1.355 . S
C1852 C1854 1.419 . S
C1853 C1848 1.425 . S
C1853 C1850 1.409 . S
C1853 C1851 1.415 . S
C1854 H1844 0.930 . S
C1854 C1852 1.419 . S
C1854 C1855 1.362 . S
C1855 H1845 0.930 . S
C1855 C1848 1.409 . S
C1855 C1854 1.362 . S
H1856 C1862 0.930 . S
H1857 C1865 0.930 . S
H1858 C1866 0.930 . S
H1859 C1867 0.930 . S
H1860 C1870 0.930 . S
H1861 C1871 0.930 . S
C1862 H1856 0.930 . S
C1862 C1863 1.355 . S
C1862 C1864 1.415 . S
C1863 C1862 1.355 . S
C1863 C1865 1.419 . S
C1864 C1862 1.415 . S
C1864 C1869 1.425 . S
C1864 C1871 1.409 . S
C1865 H1857 0.930 . S
C1865 C1863 1.419 . S
C1865 C1866 1.362 . S
C1866 H1858 0.930 . S
C1866 C1865 1.362 . S
C1866 C1869 1.409 . S
C1867 H1859 0.930 . S
C1867 C1868 1.355 . S
C1867 C1869 1.415 . S
C1868 C1867 1.355 . S
C1868 C1870 1.419 . S
C1869 C1864 1.425 . S
C1869 C1866 1.409 . S
C1869 C1867 1.415 . S
C1870 H1860 0.930 . S
C1870 C1868 1.419 . S
C1870 C1871 1.362 . S
C1871 H1861 0.930 . S
C1871 C1864 1.409 . S
C1871 C1870 1.362 . S
H1872 C1878 0.930 . S
H1873 C1881 0.930 . S
H1874 C1882 0.930 . S
H1875 C1883 0.930 . S
H1876 C1886 0.930 . S
H1877 C1887 0.930 . S
C1878 H1872 0.930 . S
C1878 C1879 1.355 . S
C1878 C1880 1.415 . S
C1879 C1878 1.355 . S
C1879 C1881 1.419 . S
C1880 C1878 1.415 . S
C1880 C1885 1.425 . S
C1880 C1887 1.409 . S
C1881 H1873 0.930 . S
C1881 C1879 1.419 . S
C1881 C1882 1.362 . S
C1882 H1874 0.930 . S
C1882 C1881 1.362 . S
C1882 C1885 1.409 . S
C1883 H1875 0.930 . S
C1883 C1884 1.355 . S
C1883 C1885 1.415 . S
C1884 C1883 1.355 . S
C1884 C1886 1.419 . S
C1885 C1880 1.425 . S
C1885 C1882 1.409 . S
C1885 C1883 1.415 . S
C1886 H1876 0.930 . S
C1886 C1884 1.419 . S
C1886 C1887 1.362 . S
C1887 H1877 0.930 . S
C1887 C1880 1.409 . S
C1887 C1886 1.362 . S
H1888 C1894 0.930 . S
H1889 C1897 0.930 . S
H1890 C1898 0.930 . S
H1891 C1899 0.930 . S
H1892 C1902 0.930 . S
H1893 C1903 0.930 . S
C1894 H1888 0.930 . S
C1894 C1895 1.355 . S
C1894 C1896 1.415 . S
C1895 C1894 1.355 . S
C1895 C1897 1.419 . S
C1896 C1894 1.415 . S
C1896 C1901 1.425 . S
C1896 C1903 1.409 . S
C1897 H1889 0.930 . S
C1897 C1895 1.419 . S
C1897 C1898 1.362 . S
C1898 H1890 0.930 . S
C1898 C1897 1.362 . S
C1898 C1901 1.409 . S
C1899 H1891 0.930 . S
C1899 C1900 1.355 . S
C1899 C1901 1.415 . S
C1900 C1899 1.355 . S
C1900 C1902 1.419 . S
C1901 C1896 1.425 . S
C1901 C1898 1.409 . S
C1901 C1899 1.415 . S
C1902 H1892 0.930 . S
C1902 C1900 1.419 . S
C1902 C1903 1.362 . S
C1903 H1893 0.930 . S
C1903 C1896 1.409 . S
C1903 C1902 1.362 . S
H1904 C1910 0.930 . S
H1905 C1913 0.930 . S
H1906 C1914 0.930 . S
H1907 C1915 0.930 . S
H1908 C1918 0.930 . S
H1909 C1919 0.930 . S
C1910 H1904 0.930 . S
C1910 C1911 1.355 . S
C1910 C1912 1.415 . S
C1911 C1910 1.355 . S
C1911 C1913 1.419 . S
C1912 C1910 1.415 . S
C1912 C1917 1.425 . S
C1912 C1919 1.409 . S
C1913 H1905 0.930 . S
C1913 C1911 1.419 . S
C1913 C1914 1.362 . S
C1914 H1906 0.930 . S
C1914 C1913 1.362 . S
C1914 C1917 1.409 . S
C1915 H1907 0.930 . S
C1915 C1916 1.355 . S
C1915 C1917 1.415 . S
C1916 C1915 1.355 . S
C1916 C1918 1.419 . S
C1917 C1912 1.425 . S
C1917 C1914 1.409 . S
C1917 C1915 1.415 . S
C1918 H1908 0.930 . S
C1918 C1916 1.419 . S
C1918 C1919 1.362 . S
C1919 H1909 0.930 . S
C1919 C1912 1.409 . S
C1919 C1918 1.362 . S
H1920 C1926 0.930 . S
H1921 C1929 0.930 . S
H1922 C1930 0.930 . S
H1923 C1931 0.930 . S
H1924 C1934 0.930 . S
H1925 C1935 0.930 . S
C1926 H1920 0.930 . S
C1926 C1927 1.355 . S
C1926 C1928 1.415 . S
C1927 C1926 1.355 . S
C1927 C1929 1.419 . S
C1928 C1926 1.415 . S
C1928 C1933 1.425 . S
C1928 C1935 1.409 . S
C1929 H1921 0.930 . S
C1929 C1927 1.419 . S
C1929 C1930 1.362 . S
C1930 H1922 0.930 . S
C1930 C1929 1.362 . S
C1930 C1933 1.409 . S
C1931 H1923 0.930 . S
C1931 C1932 1.355 . S
C1931 C1933 1.415 . S
C1932 C1931 1.355 . S
C1932 C1934 1.419 . S
C1933 C1928 1.425 . S
C1933 C1930 1.409 . S
C1933 C1931 1.415 . S
C1934 H1924 0.930 . S
C1934 C1932 1.419 . S
C1934 C1935 1.362 . S
C1935 H1925 0.930 . S
C1935 C1928 1.409 . S
C1935 C1934 1.362 . S
H1936 C1942 0.930 . S
H1937 C1945 0.930 . S
H1938 C1946 0.930 . S
H1939 C1947 0.930 . S
H1940 C1950 0.930 . S
H1941 C1951 0.930 . S
C1942 H1936 0.930 . S
C1942 C1943 1.355 . S
C1942 C1944 1.415 . S
C1943 C1942 1.355 . S
C1943 C1945 1.419 . S
C1944 C1942 1.415 . S
C1944 C1949 1.425 . S
C1944 C1951 1.409 . S
C1945 H1937 0.930 . S
C1945 C1943 1.419 . S
C1945 C1946 1.362 . S
C1946 H1938 0.930 . S
C1946 C1945 1.362 . S
C1946 C1949 1.409 . S
C1947 H1939 0.930 . S
C1947 C1948 1.355 . S
C1947 C1949 1.415 . S
C1948 C1947 1.355 . S
C1948 C1950 1.419 . S
C1949 C1944 1.425 . S
C1949 C1946 1.409 . S
C1949 C1947 1.415 . S
C1950 H1940 0.930 . S
C1950 C1948 1.419 . S
C1950 C1951 1.362 . S
C1951 H1941 0.930 . S
C1951 C1944 1.409 . S
C1951 C1950 1.362 . S
H1952 C1958 0.930 . S
H1953 C1961 0.930 . S
H1954 C1962 0.930 . S
H1955 C1963 0.930 . S
H1956 C1966 0.930 . S
H1957 C1967 0.930 . S
C1958 H1952 0.930 . S
C1958 C1959 1.355 . S
C1958 C1960 1.415 . S
C1959 C1958 1.355 . S
C1959 C1961 1.419 . S
C1960 C1958 1.415 . S
C1960 C1965 1.425 . S
C1960 C1967 1.409 . S
C1961 H1953 0.930 . S
C1961 C1959 1.419 . S
C1961 C1962 1.362 . S
C1962 H1954 0.930 . S
C1962 C1961 1.362 . S
C1962 C1965 1.409 . S
C1963 H1955 0.930 . S
C1963 C1964 1.355 . S
C1963 C1965 1.415 . S
C1964 C1963 1.355 . S
C1964 C1966 1.419 . S
C1965 C1960 1.425 . S
C1965 C1962 1.409 . S
C1965 C1963 1.415 . S
C1966 H1956 0.930 . S
C1966 C1964 1.419 . S
C1966 C1967 1.362 . S
C1967 H1957 0.930 . S
C1967 C1960 1.409 . S
C1967 C1966 1.362 . S
H1968 C1974 0.930 . S
H1969 C1977 0.930 . S
H1970 C1978 0.930 . S
H1971 C1979 0.930 . S
H1972 C1982 0.930 . S
H1973 C1983 0.930 . S
C1974 H1968 0.930 . S
C1974 C1975 1.355 . S
C1974 C1976 1.415 . S
C1975 C1974 1.355 . S
C1975 C1977 1.419 . S
C1976 C1974 1.415 . S
C1976 C1981 1.425 . S
C1976 C1983 1.409 . S
C1977 H1969 0.930 . S
C1977 C1975 1.419 . S
C1977 C1978 1.362 . S
C1978 H1970 0.930 . S
C1978 C1977 1.362 . S
C1978 C1981 1.409 . S
C1979 H1971 0.930 . S
C1979 C1980 1.355 . S
C1979 C1981 1.415 . S
C1980 C1979 1.355 . S
C1980 C1982 1.419 . S
C1981 C1976 1.425 . S
C1981 C1978 1.409 . S
C1981 C1979 1.415 . S
C1982 H1972 0.930 . S
C1982 C1980 1.419 . S
C1982 C1983 1.362 . S
C1983 H1973 0.930 . S
C1983 C1976 1.409 . S
C1983 C1982 1.362 . S
H1984 C1990 0.930 . S
H1985 C1993 0.930 . S
H1986 C1994 0.930 . S
H1987 C1995 0.930 . S
H1988 C1998 0.930 . S
H1989 C1999 0.930 . S
C1990 H1984 0.930 . S
C1990 C1991 1.355 . S
C1990 C1992 1.415 . S
C1991 C1990 1.355 . S
C1991 C1993 1.419 . S
C1992 C1990 1.415 . S
C1992 C1997 1.425 . S
C1992 C1999 1.409 . S
C1993 H1985 0.930 . S
C1993 C1991 1.419 . S
C1993 C1994 1.362 . S
C1994 H1986 0.930 . S
C1994 C1993 1.362 . S
C1994 C1997 1.409 . S
C1995 H1987 0.930 . S
C1995 C1996 1.355 . S
C1995 C1997 1.415 . S
C1996 C1995 1.355 . S
C1996 C1998 1.419 . S
C1997 C1992 1.425 . S
C1997 C1994 1.409 . S
C1997 C1995 1.415 . S
C1998 H1988 0.930 . S
C1998 C1996 1.419 . S
C1998 C1999 1.362 . S
C1999 H1989 0.930 . S
C1999 C1992 1.409 . S
C1999 C1998 1.362 . S
H2000 C2006 0.930 . S
H2001 C2009 0.930 . S
H2002 C2010 0.930 . S
H2003 C2011 0.930 . S
H2004 C2014 0.930 . S
H2005 C2015 0.930 . S
C2006 H2000 0.930 . S
C2006 C2007 1.355 . S
C2006 C2008 1.415 . S
C2007 C2006 1.355 . S
C2007 C2009 1.419 . S
C2008 C2006 1.415 . S
C2008 C2013 1.425 . S
C2008 C2015 1.409 . S
C2009 H2001 0.930 . S
C2009 C2007 1.419 . S
C2009 C2010 1.362 . S
C2010 H2002 0.930 . S
C2010 C2009 1.362 . S
C2010 C2013 1.409 . S
C2011 H2003 0.930 . S
C2011 C2012 1.355 . S
C2011 C2013 1.415 . S
C2012 C2011 1.355 . S
C2012 C2014 1.419 . S
C2013 C2008 1.425 . S
C2013 C2010 1.409 . S
C2013 C2011 1.415 . S
C2014 H2004 0.930 . S
C2014 C2012 1.419 . S
C2014 C2015 1.362 . S
C2015 H2005 0.930 . S
C2015 C2008 1.409 . S
C2015 C2014 1.362 . S
H2016 C2022 0.930 . S
H2017 C2025 0.930 . S
H2018 C2026 0.930 . S
H2019 C2027 0.930 . S
H2020 C2030 0.930 . S
H2021 C2031 0.930 . S
C2022 H2016 0.930 . S
C2022 C2023 1.355 . S
C2022 C2024 1.415 . S
C2023 C2022 1.355 . S
C2023 C2025 1.419 . S
C2024 C2022 1.415 . S
C2024 C2029 1.425 . S
C2024 C2031 1.409 . S
C2025 H2017 0.930 . S
C2025 C2023 1.419 . S
C2025 C2026 1.362 . S
C2026 H2018 0.930 . S
C2026 C2025 1.362 . S
C2026 C2029 1.409 . S
C2027 H2019 0.930 . S
C2027 C2028 1.355 . S
C2027 C2029 1.415 . S
C2028 C2027 1.355 . S
C2028 C2030 1.419 . S
C2029 C2024 1.425 . S
C2029 C2026 1.409 . S
C2029 C2027 1.415 . S
C2030 H2020 0.930 . S
C2030 C2028 1.419 . S
C2030 C2031 1.362 . S
C2031 H2021 0.930 . S
C2031 C2024 1.409 . S
C2031 C2030 1.362 . S
H2032 C2038 0.930 . S
H2033 C2041 0.930 . S
H2034 C2042 0.930 . S
H2035 C2043 0.930 . S
H2036 C2046 0.930 . S
H2037 C2047 0.930 . S
C2038 H2032 0.930 . S
C2038 C2039 1.355 . S
C2038 C2040 1.415 . S
C2039 C2038 1.355 . S
C2039 C2041 1.419 . S
C2040 C2038 1.415 . S
C2040 C2045 1.425 . S
C2040 C2047 1.409 . S
C2041 H2033 0.930 . S
C2041 C2039 1.419 . S
C2041 C2042 1.362 . S
C2042 H2034 0.930 . S
C2042 C2041 1.362 . S
C2042 C2045 1.409 . S
C2043 H2035 0.930 . S
C2043 C2044 1.355 . S
C2043 C2045 1.415 . S
C2044 C2043 1.355 . S
C2044 C2046 1.419 . S
C2045 C2040 1.425 . S
C2045 C2042 1.409 . S
C2045 C2043 1.415 . S
C2046 H2036 0.930 . S
C2046 C2044 1.419 . S
C2046 C2047 1.362 . S
C2047 H2037 0.930 . S
C2047 C2040 1.409 . S
C2047 C2046 1.362 . S
H2048 C2054 0.930 . S
H2049 C2057 0.930 . S
H2050 C2058 0.930 . S
H2051 C2059 0.930 . S
H2052 C2062 0.930 . S
H2053 C2063 0.930 . S
C2054 H2048 0.930 . S
C2054 C2055 1.355 . S
C2054 C2056 1.415 . S
C2055 C2054 1.355 . S
C2055 C2057 1.419 . S
C2056 C2054 1.415 . S
C2056 C2061 1.425 . S
C2056 C2063 1.409 . S
C2057 H2049 0.930 . S
C2057 C2055 1.419 . S
C2057 C2058 1.362 . S
C2058 H2050 0.930 . S
C2058 C2057 1.362 . S
C2058 C2061 1.409 . S
C2059 H2051 0.930 . S
C2059 C2060 1.355 . S
C2059 C2061 1.415 . S
C2060 C2059 1.355 . S
C2060 C2062 1.419 . S
C2061 C2056 1.425 . S
C2061 C2058 1.409 . S
C2061 C2059 1.415 . S
C2062 H2052 0.930 . S
C2062 C2060 1.419 . S
C2062 C2063 1.362 . S
C2063 H2053 0.930 . S
C2063 C2056 1.409 . S
C2063 C2062 1.362 . S
H2064 C2070 0.930 . S
H2065 C2073 0.930 . S
H2066 C2074 0.930 . S
H2067 C2075 0.930 . S
H2068 C2078 0.930 . S
H2069 C2079 0.930 . S
C2070 H2064 0.930 . S
C2070 C2071 1.355 . S
C2070 C2072 1.415 . S
C2071 C2070 1.355 . S
C2071 C2073 1.419 . S
C2072 C2070 1.415 . S
C2072 C2077 1.425 . S
C2072 C2079 1.409 . S
C2073 H2065 0.930 . S
C2073 C2071 1.419 . S
C2073 C2074 1.362 . S
C2074 H2066 0.930 . S
C2074 C2073 1.362 . S
C2074 C2077 1.409 . S
C2075 H2067 0.930 . S
C2075 C2076 1.355 . S
C2075 C2077 1.415 . S
C2076 C2075 1.355 . S
C2076 C2078 1.419 . S
C2077 C2072 1.425 . S
C2077 C2074 1.409 . S
C2077 C2075 1.415 . S
C2078 H2068 0.930 . S
C2078 C2076 1.419 . S
C2078 C2079 1.362 . S
C2079 H2069 0.930 . S
C2079 C2072 1.409 . S
C2079 C2078 1.362 . S
H2080 C2086 0.930 . S
H2081 C2089 0.930 . S
H2082 C2090 0.930 . S
H2083 C2091 0.930 . S
H2084 C2094 0.930 . S
H2085 C2095 0.930 . S
C2086 H2080 0.930 . S
C2086 C2087 1.355 . S
C2086 C2088 1.415 . S
C2087 C2086 1.355 . S
C2087 C2089 1.419 . S
C2088 C2086 1.415 . S
C2088 C2093 1.425 . S
C2088 C2095 1.409 . S
C2089 H2081 0.930 . S
C2089 C2087 1.419 . S
C2089 C2090 1.362 . S
C2090 H2082 0.930 . S
C2090 C2089 1.362 . S
C2090 C2093 1.409 . S
C2091 H2083 0.930 . S
C2091 C2092 1.355 . S
C2091 C2093 1.415 . S
C2092 C2091 1.355 . S
C2092 C2094 1.419 . S
C2093 C2088 1.425 . S
C2093 C2090 1.409 . S
C2093 C2091 1.415 . S
C2094 H2084 0.930 . S
C2094 C2092 1.419 . S
C2094 C2095 1.362 . S
C2095 H2085 0.930 . S
C2095 C2088 1.409 . S
C2095 C2094 1.362 . S
H2096 C2102 0.930 . S
H2097 C2105 0.930 . S
H2098 C2106 0.930 . S
H2099 C2107 0.930 . S
H2100 C2110 0.930 . S
H2101 C2111 0.930 . S
C2102 H2096 0.930 . S
C2102 C2103 1.355 . S
C2102 C2104 1.415 . S
C2103 C2102 1.355 . S
C2103 C2105 1.419 . S
C2104 C2102 1.415 . S
C2104 C2109 1.425 . S
C2104 C2111 1.409 . S
C2105 H2097 0.930 . S
C2105 C2103 1.419 . S
C2105 C2106 1.362 . S
C2106 H2098 0.930 . S
C2106 C2105 1.362 . S
C2106 C2109 1.409 . S
C2107 H2099 0.930 . S
C2107 C2108 1.355 . S
C2107 C2109 1.415 . S
C2108 C2107 1.355 . S
C2108 C2110 1.419 . S
C2109 C2104 1.425 . S
C2109 C2106 1.409 . S
C2109 C2107 1.415 . S
C2110 H2100 0.930 . S
C2110 C2108 1.419 . S
C2110 C2111 1.362 . S
C2111 H2101 0.930 . S
C2111 C2104 1.409 . S
C2111 C2110 1.362 . S
H2112 C2118 0.930 . S
H2113 C2121 0.930 . S
H2114 C2122 0.930 . S
H2115 C2123 0.930 . S
H2116 C2126 0.930 . S
H2117 C2127 0.930 . S
C2118 H2112 0.930 . S
C2118 C2119 1.355 . S
C2118 C2120 1.415 . S
C2119 C2118 1.355 . S
C2119 C2121 1.419 . S
C2120 C2118 1.415 . S
C2120 C2125 1.425 . S
C2120 C2127 1.409 . S
C2121 H2113 0.930 . S
C2121 C2119 1.419 . S
C2121 C2122 1.362 . S
C2122 H2114 0.930 . S
C2122 C2121 1.362 . S
C2122 C2125 1.409 . S
C2123 H2115 0.930 . S
C2123 C2124 1.355 . S
C2123 C2125 1.415 . S
C2124 C2123 1.355 . S
C2124 C2126 1.419 . S
C2125 C2120 1.425 . S
C2125 C2122 1.409 . S
C2125 C2123 1.415 . S
C2126 H2116 0.930 . S
C2126 C2124 1.419 . S
C2126 C2127 1.362 . S
C2127 H2117 0.930 . S
C2127 C2120 1.409 . S
C2127 C2126 1.362 . S
H2128 C2134 0.930 . S
H2129 C2137 0.930 . S
H2130 C2138 0.930 . S
H2131 C2139 0.930 . S
H2132 C2142 0.930 . S
H2133 C2143 0.930 . S
C2134 H2128 0.930 . S
C2134 C2135 1.355 . S
C2134 C2136 1.415 . S
C2135 C2134 1.355 . S
C2135 C2137 1.419 . S
C2136 C2134 1.415 . S
C2136 C2141 1.425 . S
C2136 C2143 1.409 . S
C2137 H2129 0.930 . S
C2137 C2135 1.419 . S
C2137 C2138 1.362 . S
C2138 H2130 0.930 . S
C2138 C2137 1.362 . S
C2138 C2141 1.409 . S
C2139 H2131 0.930 . S
C2139 C2140 1.355 . S
C2139 C2141 1.415 . S
C2140 C2139 1.355 . S
C2140 C2142 1.419 . S
C2141 C2136 1.425 . S
C2141 C2138 1.409 . S
C2141 C2139 1.415 . S
C2142 H2132 0.930 . S
C2142 C2140 1.419 . S
C2142 C2143 1.362 . S
C2143 H2133 0.930 . S
C2143 C2136 1.409 . S
C2143 C2142 1.362 . S
H2144 C2150 0.930 . S
H2145 C2153 0.930 . S
H2146 C2154 0.930 . S
H2147 C2155 0.930 . S
H2148 C2158 0.930 . S
H2149 C2159 0.930 . S
C2150 H2144 0.930 . S
C2150 C2151 1.355 . S
C2150 C2152 1.415 . S
C2151 C2150 1.355 . S
C2151 C2153 1.419 . S
C2152 C2150 1.415 . S
C2152 C2157 1.425 . S
C2152 C2159 1.409 . S
C2153 H2145 0.930 . S
C2153 C2151 1.419 . S
C2153 C2154 1.362 . S
C2154 H2146 0.930 . S
C2154 C2153 1.362 . S
C2154 C2157 1.409 . S
C2155 H2147 0.930 . S
C2155 C2156 1.355 . S
C2155 C2157 1.415 . S
C2156 C2155 1.355 . S
C2156 C2158 1.419 . S
C2157 C2152 1.425 . S
C2157 C2154 1.409 . S
C2157 C2155 1.415 . S
C2158 H2148 0.930 . S
C2158 C2156 1.419 . S
C2158 C2159 1.362 . S
C2159 H2149 0.930 . S
C2159 C2152 1.409 . S
C2159 C2158 1.362 . S
H2160 C2166 0.930 . S
H2161 C2169 0.930 . S
H2162 C2170 0.930 . S
H2163 C2171 0.930 . S
H2164 C2174 0.930 . S
H2165 C2175 0.930 . S
C2166 H2160 0.930 . S
C2166 C2167 1.355 . S
C2166 C2168 1.415 . S
C2167 C2166 1.355 . S
C2167 C2169 1.419 . S
C2168 C2166 1.415 . S
C2168 C2173 1.425 . S
C2168 C2175 1.409 . S
C2169 H2161 0.930 . S
C2169 C2167 1.419 . S
C2169 C2170 1.362 . S
C2170 H2162 0.930 . S
C2170 C2169 1.362 . S
C2170 C2173 1.409 . S
C2171 H2163 0.930 . S
C2171 C2172 1.355 . S
C2171 C2173 1.415 . S
C2172 C2171 1.355 . S
C2172 C2174 1.419 . S
C2173 C2168 1.425 . S
C2173 C2170 1.409 . S
C2173 C2171 1.415 . S
C2174 H2164 0.930 . S
C2174 C2172 1.419 . S
C2174 C2175 1.362 . S
C2175 H2165 0.930 . S
C2175 C2168 1.409 . S
C2175 C2174 1.362 . S
H2176 C2182 0.930 . S
H2177 C2185 0.930 . S
H2178 C2186 0.930 . S
H2179 C2187 0.930 . S
H2180 C2190 0.930 . S
H2181 C2191 0.930 . S
C2182 H2176 0.930 . S
C2182 C2183 1.355 . S
C2182 C2184 1.415 . S
C2183 C2182 1.355 . S
C2183 C2185 1.419 . S
C2184 C2182 1.415 . S
C2184 C2189 1.425 . S
C2184 C2191 1.409 . S
C2185 H2177 0.930 . S
C2185 C2183 1.419 . S
C2185 C2186 1.362 . S
C2186 H2178 0.930 . S
C2186 C2185 1.362 . S
C2186 C2189 1.409 . S
C2187 H2179 0.930 . S
C2187 C2188 1.355 . S
C2187 C2189 1.415 . S
C2188 C2187 1.355 . S
C2188 C2190 1.419 . S
C2189 C2184 1.425 . S
C2189 C2186 1.409 . S
C2189 C2187 1.415 . S
C2190 H2180 0.930 . S
C2190 C2188 1.419 . S
C2190 C2191 1.362 . S
C2191 H2181 0.930 . S
C2191 C2184 1.409 . S
C2191 C2190 1.362 . S
H2192 C2198 0.930 . S
H2193 C2201 0.930 . S
H2194 C2202 0.930 . S
H2195 C2203 0.930 . S
H2196 C2206 0.930 . S
H2197 C2207 0.930 . S
C2198 H2192 0.930 . S
C2198 C2199 1.355 . S
C2198 C2200 1.415 . S
C2199 C2198 1.355 . S
C2199 C2201 1.419 . S
C2200 C2198 1.415 . S
C2200 C2205 1.425 . S
C2200 C2207 1.409 . S
C2201 H2193 0.930 . S
C2201 C2199 1.419 . S
C2201 C2202 1.362 . S
C2202 H2194 0.930 . S
C2202 C2201 1.362 . S
C2202 C2205 1.409 . S
C2203 H2195 0.930 . S
C2203 C2204 1.355 . S
C2203 C2205 1.415 . S
C2204 C2203 1.355 . S
C2204 C2206 1.419 . S
C2205 C2200 1.425 . S
C2205 C2202 1.409 . S
C2205 C2203 1.415 . S
C2206 H2196 0.930 . S
C2206 C2204 1.419 . S
C2206 C2207 1.362 . S
C2207 H2197 0.930 . S
C2207 C2200 1.409 . S
C2207 C2206 1.362 . S
H2208 C2214 0.930 . S
H2209 C2217 0.930 . S
H2210 C2218 0.930 . S
H2211 C2219 0.930 . S
H2212 C2222 0.930 . S
H2213 C2223 0.930 . S
C2214 H2208 0.930 . S
C2214 C2215 1.355 . S
C2214 C2216 1.415 . S
C2215 C2214 1.355 . S
C2215 C2217 1.419 . S
C2216 C2214 1.415 . S
C2216 C2221 1.425 . S
C2216 C2223 1.409 . S
C2217 H2209 0.930 . S
C2217 C2215 1.419 . S
C2217 C2218 1.362 . S
C2218 H2210 0.930 . S
C2218 C2217 1.362 . S
C2218 C2221 1.409 . S
C2219 H2211 0.930 . S
C2219 C2220 1.355 . S
C2219 C2221 1.415 . S
C2220 C2219 1.355 . S
C2220 C2222 1.419 . S
C2221 C2216 1.425 . S
C2221 C2218 1.409 . S
C2221 C2219 1.415 . S
C2222 H2212 0.930 . S
C2222 C2220 1.419 . S
C2222 C2223 1.362 . S
C2223 H2213 0.930 . S
C2223 C2216 1.409 . S
C2223 C2222 1.362 . S
H2224 C2230 0.930 . S
H2225 C2233 0.930 . S
H2226 C2234 0.930 . S
H2227 C2235 0.930 . S
H2228 C2238 0.930 . S
H2229 C2239 0.930 . S
C2230 H2224 0.930 . S
C2230 C2231 1.355 . S
C2230 C2232 1.415 . S
C2231 C2230 1.355 . S
C2231 C2233 1.419 . S
C2232 C2230 1.415 . S
C2232 C2237 1.425 . S
C2232 C2239 1.409 . S
C2233 H2225 0.930 . S
C2233 C2231 1.419 . S
C2233 C2234 1.362 . S
C2234 H2226 0.930 . S
C2234 C2233 1.362 . S
C2234 C2237 1.409 . S
C2235 H2227 0.930 . S
C2235 C2236 1.355 . S
C2235 C2237 1.415 . S
C2236 C2235 1.355 . S
C2236 C2238 1.419 . S
C2237 C2232 1.425 . S
C2237 C2234 1.409 . S
C2237 C2235 1.415 . S
C2238 H2228 0.930 . S
C2238 C2236 1.419 . S
C2238 C2239 1.362 . S
C2239 H2229 0.930 . S
C2239 C2232 1.409 . S
C2239 C2238 1.362 . S
H2240 C2246 0.930 . S
H2241 C2249 0.930 . S
H2242 C2250 0.930 . S
H2243 C2251 0.930 . S
H2244 C2254 0.930 . S
H2245 C2255 0.930 . S
C2246 H2240 0.930 . S
C2246 C2247 1.355 . S
C2246 C2248 1.415 . S
C2247 C2246 1.355 . S
C2247 C2249 1.419 . S
C2248 C2246 1.415 . S
C2248 C2253 1.425 . S
C2248 C2255 1.409 . S
C2249 H2241 0.930 . S
C2249 C2247 1.419 . S
C2249 C2250 1.362 . S
C2250 H2242 0.930 . S
C2250 C2249 1.362 . S
C2250 C2253 1.409 . S
C2251 H2243 0.930 . S
C2251 C2252 1.355 . S
C2251 C2253 1.415 . S
C2252 C2251 1.355 . S
C2252 C2254 1.419 . S
C2253 C2248 1.425 . S
C2253 C2250 1.409 . S
C2253 C2251 1.415 . S
C2254 H2244 0.930 . S
C2254 C2252 1.419 . S
C2254 C2255 1.362 . S
C2255 H2245 0.930 . S
C2255 C2248 1.409 . S
C2255 C2254 1.362 . S
H2256 C2262 0.930 . S
H2257 C2265 0.930 . S
H2258 C2266 0.930 . S
H2259 C2267 0.930 . S
H2260 C2270 0.930 . S
H2261 C2271 0.930 . S
C2262 H2256 0.930 . S
C2262 C2263 1.355 . S
C2262 C2264 1.415 . S
C2263 C2262 1.355 . S
C2263 C2265 1.419 . S
C2264 C2262 1.415 . S
C2264 C2269 1.425 . S
C2264 C2271 1.409 . S
C2265 H2257 0.930 . S
C2265 C2263 1.419 . S
C2265 C2266 1.362 . S
C2266 H2258 0.930 . S
C2266 C2265 1.362 . S
C2266 C2269 1.409 . S
C2267 H2259 0.930 . S
C2267 C2268 1.355 . S
C2267 C2269 1.415 . S
C2268 C2267 1.355 . S
C2268 C2270 1.419 . S
C2269 C2264 1.425 . S
C2269 C2266 1.409 . S
C2269 C2267 1.415 . S
C2270 H2260 0.930 . S
C2270 C2268 1.419 . S
C2270 C2271 1.362 . S
C2271 H2261 0.930 . S
C2271 C2264 1.409 . S
C2271 C2270 1.362 . S
H2272 C2278 0.930 . S
H2273 C2281 0.930 . S
H2274 C2282 0.930 . S
H2275 C2283 0.930 . S
H2276 C2286 0.930 . S
H2277 C2287 0.930 . S
C2278 H2272 0.930 . S
C2278 C2279 1.355 . S
C2278 C2280 1.415 . S
C2279 C2278 1.355 . S
C2279 C2281 1.419 . S
C2280 C2278 1.415 . S
C2280 C2285 1.425 . S
C2280 C2287 1.409 . S
C2281 H2273 0.930 . S
C2281 C2279 1.419 . S
C2281 C2282 1.362 . S
C2282 H2274 0.930 . S
C2282 C2281 1.362 . S
C2282 C2285 1.409 . S
C2283 H2275 0.930 . S
C2283 C2284 1.355 . S
C2283 C2285 1.415 . S
C2284 C2283 1.355 . S
C2284 C2286 1.419 . S
C2285 C2280 1.425 . S
C2285 C2282 1.409 . S
C2285 C2283 1.415 . S
C2286 H2276 0.930 . S
C2286 C2284 1.419 . S
C2286 C2287 1.362 . S
C2287 H2277 0.930 . S
C2287 C2280 1.409 . S
C2287 C2286 1.362 . S
H2288 C2294 0.930 . S
H2289 C2297 0.930 . S
H2290 C2298 0.930 . S
H2291 C2299 0.930 . S
H2292 C2302 0.930 . S
H2293 C2303 0.930 . S
C2294 H2288 0.930 . S
C2294 C2295 1.355 . S
C2294 C2296 1.415 . S
C2295 C2294 1.355 . S
C2295 C2297 1.419 . S
C2296 C2294 1.415 . S
C2296 C2301 1.425 . S
C2296 C2303 1.409 . S
C2297 H2289 0.930 . S
C2297 C2295 1.419 . S
C2297 C2298 1.362 . S
C2298 H2290 0.930 . S
C2298 C2297 1.362 . S
C2298 C2301 1.409 . S
C2299 H2291 0.930 . S
C2299 C2300 1.355 . S
C2299 C2301 1.415 . S
C2300 C2299 1.355 . S
C2300 C2302 1.419 . S
C2301 C2296 1.425 . S
C2301 C2298 1.409 . S
C2301 C2299 1.415 . S
C2302 H2292 0.930 . S
C2302 C2300 1.419 . S
C2302 C2303 1.362 . S
C2303 H2293 0.930 . S
C2303 C2296 1.409 . S
C2303 C2302 1.362 . S
H2304 C2310 0.930 . S
H2305 C2313 0.930 . S
H2306 C2314 0.930 . S
H2307 C2315 0.930 . S
H2308 C2318 0.930 . S
H2309 C2319 0.930 . S
C2310 H2304 0.930 . S
C2310 C2311 1.355 . S
C2310 C2312 1.415 . S
C2311 C2310 1.355 . S
C2311 C2313 1.419 . S
C2312 C2310 1.415 . S
C2312 C2317 1.425 . S
C2312 C2319 1.409 . S
C2313 H2305 0.930 . S
C2313 C2311 1.419 . S
C2313 C2314 1.362 . S
C2314 H2306 0.930 . S
C2314 C2313 1.362 . S
C2314 C2317 1.409 . S
C2315 H2307 0.930 . S
C2315 C2316 1.355 . S
C2315 C2317 1.415 . S
C2316 C2315 1.355 . S
C2316 C2318 1.419 . S
C2317 C2312 1.425 . S
C2317 C2314 1.409 . S
C2317 C2315 1.415 . S
C2318 H2308 0.930 . S
C2318 C2316 1.419 . S
C2318 C2319 1.362 . S
C2319 H2309 0.930 . S
C2319 C2312 1.409 . S
C2319 C2318 1.362 . S
H2320 C2326 0.930 . S
H2321 C2329 0.930 . S
H2322 C2330 0.930 . S
H2323 C2331 0.930 . S
H2324 C2334 0.930 . S
H2325 C2335 0.930 . S
C2326 H2320 0.930 . S
C2326 C2327 1.355 . S
C2326 C2328 1.415 . S
C2327 C2326 1.355 . S
C2327 C2329 1.419 . S
C2328 C2326 1.415 . S
C2328 C2333 1.425 . S
C2328 C2335 1.409 . S
C2329 H2321 0.930 . S
C2329 C2327 1.419 . S
C2329 C2330 1.362 . S
C2330 H2322 0.930 . S
C2330 C2329 1.362 . S
C2330 C2333 1.409 . S
C2331 H2323 0.930 . S
C2331 C2332 1.355 . S
C2331 C2333 1.415 . S
C2332 C2331 1.355 . S
C2332 C2334 1.419 . S
C2333 C2328 1.425 . S
C2333 C2330 1.409 . S
C2333 C2331 1.415 . S
C2334 H2324 0.930 . S
C2334 C2332 1.419 . S
C2334 C2335 1.362 . S
C2335 H2325 0.930 . S
C2335 C2328 1.409 . S
C2335 C2334 1.362 . S
H2336 C2342 0.930 . S
H2337 C2345 0.930 . S
H2338 C2346 0.930 . S
H2339 C2347 0.930 . S
H2340 C2350 0.930 . S
H2341 C2351 0.930 . S
C2342 H2336 0.930 . S
C2342 C2343 1.355 . S
C2342 C2344 1.415 . S
C2343 C2342 1.355 . S
C2343 C2345 1.419 . S
C2344 C2342 1.415 . S
C2344 C2349 1.425 . S
C2344 C2351 1.409 . S
C2345 H2337 0.930 . S
C2345 C2343 1.419 . S
C2345 C2346 1.362 . S
C2346 H2338 0.930 . S
C2346 C2345 1.362 . S
C2346 C2349 1.409 . S
C2347 H2339 0.930 . S
C2347 C2348 1.355 . S
C2347 C2349 1.415 . S
C2348 C2347 1.355 . S
C2348 C2350 1.419 . S
C2349 C2344 1.425 . S
C2349 C2346 1.409 . S
C2349 C2347 1.415 . S
C2350 H2340 0.930 . S
C2350 C2348 1.419 . S
C2350 C2351 1.362 . S
C2351 H2341 0.930 . S
C2351 C2344 1.409 . S
C2351 C2350 1.362 . S
H2352 C2358 0.930 . S
H2353 C2361 0.930 . S
H2354 C2362 0.930 . S
H2355 C2363 0.930 . S
H2356 C2366 0.930 . S
H2357 C2367 0.930 . S
C2358 H2352 0.930 . S
C2358 C2359 1.355 . S
C2358 C2360 1.415 . S
C2359 C2358 1.355 . S
C2359 C2361 1.419 . S
C2360 C2358 1.415 . S
C2360 C2365 1.425 . S
C2360 C2367 1.409 . S
C2361 H2353 0.930 . S
C2361 C2359 1.419 . S
C2361 C2362 1.362 . S
C2362 H2354 0.930 . S
C2362 C2361 1.362 . S
C2362 C2365 1.409 . S
C2363 H2355 0.930 . S
C2363 C2364 1.355 . S
C2363 C2365 1.415 . S
C2364 C2363 1.355 . S
C2364 C2366 1.419 . S
C2365 C2360 1.425 . S
C2365 C2362 1.409 . S
C2365 C2363 1.415 . S
C2366 H2356 0.930 . S
C2366 C2364 1.419 . S
C2366 C2367 1.362 . S
C2367 H2357 0.930 . S
C2367 C2360 1.409 . S
C2367 C2366 1.362 . S
H2368 C2374 0.930 . S
H2369 C2377 0.930 . S
H2370 C2378 0.930 . S
H2371 C2379 0.930 . S
H2372 C2382 0.930 . S
H2373 C2383 0.930 . S
C2374 H2368 0.930 . S
C2374 C2375 1.355 . S
C2374 C2376 1.415 . S
C2375 C2374 1.355 . S
C2375 C2377 1.419 . S
C2376 C2374 1.415 . S
C2376 C2381 1.425 . S
C2376 C2383 1.409 . S
C2377 H2369 0.930 . S
C2377 C2375 1.419 . S
C2377 C2378 1.362 . S
C2378 H2370 0.930 . S
C2378 C2377 1.362 . S
C2378 C2381 1.409 . S
C2379 H2371 0.930 . S
C2379 C2380 1.355 . S
C2379 C2381 1.415 . S
C2380 C2379 1.355 . S
C2380 C2382 1.419 . S
C2381 C2376 1.425 . S
C2381 C2378 1.409 . S
C2381 C2379 1.415 . S
C2382 H2372 0.930 . S
C2382 C2380 1.419 . S
C2382 C2383 1.362 . S
C2383 H2373 0.930 . S
C2383 C2376 1.409 . S
C2383 C2382 1.362 . S
H2384 C2390 0.930 . S
H2385 C2393 0.930 . S
H2386 C2394 0.930 . S
H2387 C2395 0.930 . S
H2388 C2398 0.930 . S
H2389 C2399 0.930 . S
C2390 H2384 0.930 . S
C2390 C2391 1.355 . S
C2390 C2392 1.415 . S
C2391 C2390 1.355 . S
C2391 C2393 1.419 . S
C2392 C2390 1.415 . S
C2392 C2397 1.425 . S
C2392 C2399 1.409 . S
C2393 H2385 0.930 . S
C2393 C2391 1.419 . S
C2393 C2394 1.362 . S
C2394 H2386 0.930 . S
C2394 C2393 1.362 . S
C2394 C2397 1.409 . S
C2395 H2387 0.930 . S
C2395 C2396 1.355 . S
C2395 C2397 1.415 . S
C2396 C2395 1.355 . S
C2396 C2398 1.419 . S
C2397 C2392 1.425 . S
C2397 C2394 1.409 . S
C2397 C2395 1.415 . S
C2398 H2388 0.930 . S
C2398 C2396 1.419 . S
C2398 C2399 1.362 . S
C2399 H2389 0.930 . S
C2399 C2392 1.409 . S
C2399 C2398 1.362 . S
H2400 C2406 0.930 . S
H2401 C2409 0.930 . S
H2402 C2410 0.930 . S
H2403 C2411 0.930 . S
H2404 C2414 0.930 . S
H2405 C2415 0.930 . S
C2406 H2400 0.930 . S
C2406 C2407 1.355 . S
C2406 C2408 1.415 . S
C2407 C2406 1.355 . S
C2407 C2409 1.419 . S
C2408 C2406 1.415 . S
C2408 C2413 1.425 . S
C2408 C2415 1.409 . S
C2409 H2401 0.930 . S
C2409 C2407 1.419 . S
C2409 C2410 1.362 . S
C2410 H2402 0.930 . S
C2410 C2409 1.362 . S
C2410 C2413 1.409 . S
C2411 H2403 0.930 . S
C2411 C2412 1.355 . S
C2411 C2413 1.415 . S
C2412 C2411 1.355 . S
C2412 C2414 1.419 . S
C2413 C2408 1.425 . S
C2413 C2410 1.409 . S
C2413 C2411 1.415 . S
C2414 H2404 0.930 . S
C2414 C2412 1.419 . S
C2414 C2415 1.362 . S
C2415 H2405 0.930 . S
C2415 C2408 1.409 . S
C2415 C2414 1.362 . S
H2416 C2422 0.930 . S
H2417 C2425 0.930 . S
H2418 C2426 0.930 . S
H2419 C2427 0.930 . S
H2420 C2430 0.930 . S
H2421 C2431 0.930 . S
C2422 H2416 0.930 . S
C2422 C2423 1.355 . S
C2422 C2424 1.415 . S
C2423 C2422 1.355 . S
C2423 C2425 1.419 . S
C2424 C2422 1.415 . S
C2424 C2429 1.425 . S
C2424 C2431 1.409 . S
C2425 H2417 0.930 . S
C2425 C2423 1.419 . S
C2425 C2426 1.362 . S
C2426 H2418 0.930 . S
C2426 C2425 1.362 . S
C2426 C2429 1.409 . S
C2427 H2419 0.930 . S
C2427 C2428 1.355 . S
C2427 C2429 1.415 . S
C2428 C2427 1.355 . S
C2428 C2430 1.419 . S
C2429 C2424 1.425 . S
C2429 C2426 1.409 . S
C2429 C2427 1.415 . S
C2430 H2420 0.930 . S
C2430 C2428 1.419 . S
C2430 C2431 1.362 . S
C2431 H2421 0.930 . S
C2431 C2424 1.409 . S
C2431 C2430 1.362 . S
H2432 C2438 0.930 . S
H2433 C2441 0.930 . S
H2434 C2442 0.930 . S
H2435 C2443 0.930 . S
H2436 C2446 0.930 . S
H2437 C2447 0.930 . S
C2438 H2432 0.930 . S
C2438 C2439 1.355 . S
C2438 C2440 1.415 . S
C2439 C2438 1.355 . S
C2439 C2441 1.419 . S
C2440 C2438 1.415 . S
C2440 C2445 1.425 . S
C2440 C2447 1.409 . S
C2441 H2433 0.930 . S
C2441 C2439 1.419 . S
C2441 C2442 1.362 . S
C2442 H2434 0.930 . S
C2442 C2441 1.362 . S
C2442 C2445 1.409 . S
C2443 H2435 0.930 . S
C2443 C2444 1.355 . S
C2443 C2445 1.415 . S
C2444 C2443 1.355 . S
C2444 C2446 1.419 . S
C2445 C2440 1.425 . S
C2445 C2442 1.409 . S
C2445 C2443 1.415 . S
C2446 H2436 0.930 . S
C2446 C2444 1.419 . S
C2446 C2447 1.362 . S
C2447 H2437 0.930 . S
C2447 C2440 1.409 . S
C2447 C2446 1.362 . S
H2448 C2454 0.930 . S
H2449 C2457 0.930 . S
H2450 C2458 0.930 . S
H2451 C2459 0.930 . S
H2452 C2462 0.930 . S
H2453 C2463 0.930 . S
C2454 H2448 0.930 . S
C2454 C2455 1.355 . S
C2454 C2456 1.415 . S
C2455 C2454 1.355 . S
C2455 C2457 1.419 . S
C2456 C2454 1.415 . S
C2456 C2461 1.425 . S
C2456 C2463 1.409 . S
C2457 H2449 0.930 . S
C2457 C2455 1.419 . S
C2457 C2458 1.362 . S
C2458 H2450 0.930 . S
C2458 C2457 1.362 . S
C2458 C2461 1.409 . S
C2459 H2451 0.930 . S
C2459 C2460 1.355 . S
C2459 C2461 1.415 . S
C2460 C2459 1.355 . S
C2460 C2462 1.419 . S
C2461 C2456 1.425 . S
C2461 C2458 1.409 . S
C2461 C2459 1.415 . S
C2462 H2452 0.930 . S
C2462 C2460 1.419 . S
C2462 C2463 1.362 . S
C2463 H2453 0.930 . S
C2463 C2456 1.409 . S
C2463 C2462 1.362 . S
H2464 C2470 0.930 . S
H2465 C2473 0.930 . S
H2466 C2474 0.930 . S
H2467 C2475 0.930 . S
H2468 C2478 0.930 . S
H2469 C2479 0.930 . S
C2470 H2464 0.930 . S
C2470 C2471 1.355 . S
C2470 C2472 1.415 . S
C2471 C2470 1.355 . S
C2471 C2473 1.419 . S
C2472 C2470 1.415 . S
C2472 C2477 1.425 . S
C2472 C2479 1.409 . S
C2473 H2465 0.930 . S
C2473 C2471 1.419 . S
C2473 C2474 1.362 . S
C2474 H2466 0.930 . S
C2474 C2473 1.362 . S
C2474 C2477 1.409 . S
C2475 H2467 0.930 . S
C2475 C2476 1.355 . S
C2475 C2477 1.415 . S
C2476 C2475 1.355 . S
C2476 C2478 1.419 . S
C2477 C2472 1.425 . S
C2477 C2474 1.409 . S
C2477 C2475 1.415 . S
C2478 H2468 0.930 . S
C2478 C2476 1.419 . S
C2478 C2479 1.362 . S
C2479 H2469 0.930 . S
C2479 C2472 1.409 . S
C2479 C2478 1.362 . S
H2480 C2486 0.930 . S
H2481 C2489 0.930 . S
H2482 C2490 0.930 . S
H2483 C2491 0.930 . S
H2484 C2494 0.930 . S
H2485 C2495 0.930 . S
C2486 H2480 0.930 . S
C2486 C2487 1.355 . S
C2486 C2488 1.415 . S
C2487 C2486 1.355 . S
C2487 C2489 1.419 . S
C2488 C2486 1.415 . S
C2488 C2493 1.425 . S
C2488 C2495 1.409 . S
C2489 H2481 0.930 . S
C2489 C2487 1.419 . S
C2489 C2490 1.362 . S
C2490 H2482 0.930 . S
C2490 C2489 1.362 . S
C2490 C2493 1.409 . S
C2491 H2483 0.930 . S
C2491 C2492 1.355 . S
C2491 C2493 1.415 . S
C2492 C2491 1.355 . S
C2492 C2494 1.419 . S
C2493 C2488 1.425 . S
C2493 C2490 1.409 . S
C2493 C2491 1.415 . S
C2494 H2484 0.930 . S
C2494 C2492 1.419 . S
C2494 C2495 1.362 . S
C2495 H2485 0.930 . S
C2495 C2488 1.409 . S
C2495 C2494 1.362 . S
H2496 C2502 0.930 . S
H2497 C2505 0.930 . S
H2498 C2506 0.930 . S
H2499 C2507 0.930 . S
H2500 C2510 0.930 . S
H2501 C2511 0.930 . S
C2502 H2496 0.930 . S
C2502 C2503 1.355 . S
C2502 C2504 1.415 . S
C2503 C2502 1.355 . S
C2503 C2505 1.419 . S
C2504 C2502 1.415 . S
C2504 C2509 1.425 . S
C2504 C2511 1.409 . S
C2505 H2497 0.930 . S
C2505 C2503 1.419 . S
C2505 C2506 1.362 . S
C2506 H2498 0.930 . S
C2506 C2505 1.362 . S
C2506 C2509 1.409 . S
C2507 H2499 0.930 . S
C2507 C2508 1.355 . S
C2507 C2509 1.415 . S
C2508 C2507 1.355 . S
C2508 C2510 1.419 . S
C2509 C2504 1.425 . S
C2509 C2506 1.409 . S
C2509 C2507 1.415 . S
C2510 H2500 0.930 . S
C2510 C2508 1.419 . S
C2510 C2511 1.362 . S
C2511 H2501 0.930 . S
C2511 C2504 1.409 . S
C2511 C2510 1.362 . S
H2512 C2518 0.930 . S
H2513 C2521 0.930 . S
H2514 C2522 0.930 . S
H2515 C2523 0.930 . S
H2516 C2526 0.930 . S
H2517 C2527 0.930 . S
C2518 H2512 0.930 . S
C2518 C2519 1.355 . S
C2518 C2520 1.415 . S
C2519 C2518 1.355 . S
C2519 C2521 1.419 . S
C2520 C2518 1.415 . S
C2520 C2525 1.425 . S
C2520 C2527 1.409 . S
C2521 H2513 0.930 . S
C2521 C2519 1.419 . S
C2521 C2522 1.362 . S
C2522 H2514 0.930 . S
C2522 C2521 1.362 . S
C2522 C2525 1.409 . S
C2523 H2515 0.930 . S
C2523 C2524 1.355 . S
C2523 C2525 1.415 . S
C2524 C2523 1.355 . S
C2524 C2526 1.419 . S
C2525 C2520 1.425 . S
C2525 C2522 1.409 . S
C2525 C2523 1.415 . S
C2526 H2516 0.930 . S
C2526 C2524 1.419 . S
C2526 C2527 1.362 . S
C2527 H2517 0.930 . S
C2527 C2520 1.409 . S
C2527 C2526 1.362 . S
H2528 C2534 0.930 . S
H2529 C2537 0.930 . S
H2530 C2538 0.930 . S
H2531 C2539 0.930 . S
H2532 C2542 0.930 . S
H2533 C2543 0.930 . S
C2534 H2528 0.930 . S
C2534 C2535 1.355 . S
C2534 C2536 1.415 . S
C2535 C2534 1.355 . S
C2535 C2537 1.419 . S
C2536 C2534 1.415 . S
C2536 C2541 1.425 . S
C2536 C2543 1.409 . S
C2537 H2529 0.930 . S
C2537 C2535 1.419 . S
C2537 C2538 1.362 . S
C2538 H2530 0.930 . S
C2538 C2537 1.362 . S
C2538 C2541 1.409 . S
C2539 H2531 0.930 . S
C2539 C2540 1.355 . S
C2539 C2541 1.415 . S
C2540 C2539 1.355 . S
C2540 C2542 1.419 . S
C2541 C2536 1.425 . S
C2541 C2538 1.409 . S
C2541 C2539 1.415 . S
C2542 H2532 0.930 . S
C2542 C2540 1.419 . S
C2542 C2543 1.362 . S
C2543 H2533 0.930 . S
C2543 C2536 1.409 . S
C2543 C2542 1.362 . S
H2544 C2550 0.930 . S
H2545 C2553 0.930 . S
H2546 C2554 0.930 . S
H2547 C2555 0.930 . S
H2548 C2558 0.930 . S
H2549 C2559 0.930 . S
C2550 H2544 0.930 . S
C2550 C2551 1.355 . S
C2550 C2552 1.415 . S
C2551 C2550 1.355 . S
C2551 C2553 1.419 . S
C2552 C2550 1.415 . S
C2552 C2557 1.425 . S
C2552 C2559 1.409 . S
C2553 H2545 0.930 . S
C2553 C2551 1.419 . S
C2553 C2554 1.362 . S
C2554 H2546 0.930 . S
C2554 C2553 1.362 . S
C2554 C2557 1.409 . S
C2555 H2547 0.930 . S
C2555 C2556 1.355 . S
C2555 C2557 1.415 . S
C2556 C2555 1.355 . S
C2556 C2558 1.419 . S
C2557 C2552 1.425 . S
C2557 C2554 1.409 . S
C2557 C2555 1.415 . S
C2558 H2548 0.930 . S
C2558 C2556 1.419 . S
C2558 C2559 1.362 . S
C2559 H2549 0.930 . S
C2559 C2552 1.409 . S
C2559 C2558 1.362 . S
H2560 C2566 0.930 . S
H2561 C2569 0.930 . S
H2562 C2570 0.930 . S
H2563 C2571 0.930 . S
H2564 C2574 0.930 . S
H2565 C2575 0.930 . S
C2566 H2560 0.930 . S
C2566 C2567 1.355 . S
C2566 C2568 1.415 . S
C2567 C2566 1.355 . S
C2567 C2569 1.419 . S
C2568 C2566 1.415 . S
C2568 C2573 1.425 . S
C2568 C2575 1.409 . S
C2569 H2561 0.930 . S
C2569 C2567 1.419 . S
C2569 C2570 1.362 . S
C2570 H2562 0.930 . S
C2570 C2569 1.362 . S
C2570 C2573 1.409 . S
C2571 H2563 0.930 . S
C2571 C2572 1.355 . S
C2571 C2573 1.415 . S
C2572 C2571 1.355 . S
C2572 C2574 1.419 . S
C2573 C2568 1.425 . S
C2573 C2570 1.409 . S
C2573 C2571 1.415 . S
C2574 H2564 0.930 . S
C2574 C2572 1.419 . S
C2574 C2575 1.362 . S
C2575 H2565 0.930 . S
C2575 C2568 1.409 . S
C2575 C2574 1.362 . S
H2576 C2582 0.930 . S
H2577 C2585 0.930 . S
H2578 C2586 0.930 . S
H2579 C2587 0.930 . S
H2580 C2590 0.930 . S
H2581 C2591 0.930 . S
C2582 H2576 0.930 . S
C2582 C2583 1.355 . S
C2582 C2584 1.415 . S
C2583 C2582 1.355 . S
C2583 C2585 1.419 . S
C2584 C2582 1.415 . S
C2584 C2589 1.425 . S
C2584 C2591 1.409 . S
C2585 H2577 0.930 . S
C2585 C2583 1.419 . S
C2585 C2586 1.362 . S
C2586 H2578 0.930 . S
C2586 C2585 1.362 . S
C2586 C2589 1.409 . S
C2587 H2579 0.930 . S
C2587 C2588 1.355 . S
C2587 C2589 1.415 . S
C2588 C2587 1.355 . S
C2588 C2590 1.419 . S
C2589 C2584 1.425 . S
C2589 C2586 1.409 . S
C2589 C2587 1.415 . S
C2590 H2580 0.930 . S
C2590 C2588 1.419 . S
C2590 C2591 1.362 . S
C2591 H2581 0.930 . S
C2591 C2584 1.409 . S
C2591 C2590 1.362 . S
H2592 C2598 0.930 . S
H2593 C2601 0.930 . S
H2594 C2602 0.930 . S
H2595 C2603 0.930 . S
H2596 C2606 0.930 . S
H2597 C2607 0.930 . S
C2598 H2592 0.930 . S
C2598 C2599 1.355 . S
C2598 C2600 1.415 . S
C2599 C2598 1.355 . S
C2599 C2601 1.419 . S
C2600 C2598 1.415 . S
C2600 C2605 1.425 . S
C2600 C2607 1.409 . S
C2601 H2593 0.930 . S
C2601 C2599 1.419 . S
C2601 C2602 1.362 . S
C2602 H2594 0.930 . S
C2602 C2601 1.362 . S
C2602 C2605 1.409 . S
C2603 H2595 0.930 . S
C2603 C2604 1.355 . S
C2603 C2605 1.415 . S
C2604 C2603 1.355 . S
C2604 C2606 1.419 . S
C2605 C2600 1.425 . S
C2605 C2602 1.409 . S
C2605 C2603 1.415 . S
C2606 H2596 0.930 . S
C2606 C2604 1.419 . S
C2606 C2607 1.362 . S
C2607 H2597 0.930 . S
C2607 C2600 1.409 . S
C2607 C2606 1.362 . S
H2608 C2614 0.930 . S
H2609 C2617 0.930 . S
H2610 C2618 0.930 . S
H2611 C2619 0.930 . S
H2612 C2622 0.930 . S
H2613 C2623 0.930 . S
C2614 H2608 0.930 . S
C2614 C2615 1.355 . S
C2614 C2616 1.415 . S
C2615 C2614 1.355 . S
C2615 C2617 1.419 . S
C2616 C2614 1.415 . S
C2616 C2621 1.425 . S
C2616 C2623 1.409 . S
C2617 H2609 0.930 . S
C2617 C2615 1.419 . S
C2617 C2618 1.362 . S
C2618 H2610 0.930 . S
C2618 C2617 1.362 . S
C2618 C2621 1.409 . S
C2619 H2611 0.930 . S
C2619 C2620 1.355 . S
C2619 C2621 1.415 . S
C2620 C2619 1.355 . S
C2620 C2622 1.419 . S
C2621 C2616 1.425 . S
C2621 C2618 1.409 . S
C2621 C2619 1.415 . S
C2622 H2612 0.930 . S
C2622 C2620 1.419 . S
C2622 C2623 1.362 . S
C2623 H2613 0.930 . S
C2623 C2616 1.409 . S
C2623 C2622 1.362 . S
H2624 C2630 0.930 . S
H2625 C2633 0.930 . S
H2626 C2634 0.930 . S
H2627 C2635 0.930 . S
H2628 C2638 0.930 . S
H2629 C2639 0.930 . S
C2630 H2624 0.930 . S
C2630 C2631 1.355 . S
C2630 C2632 1.415 . S
C2631 C2630 1.355 . S
C2631 C2633 1.419 . S
C2632 C2630 1.415 . S
C2632 C2637 1.425 . S
C2632 C2639 1.409 . S
C2633 H2625 0.930 . S
C2633 C2631 1.419 . S
C2633 C2634 1.362 . S
C2634 H2626 0.930 . S
C2634 C2633 1.362 . S
C2634 C2637 1.409 . S
C2635 H2627 0.930 . S
C2635 C2636 1.355 . S
C2635 C2637 1.415 . S
C2636 C2635 1.355 . S
C2636 C2638 1.419 . S
C2637 C2632 1.425 . S
C2637 C2634 1.409 . S
C2637 C2635 1.415 . S
C2638 H2628 0.930 . S
C2638 C2636 1.419 . S
C2638 C2639 1.362 . S
C2639 H2629 0.930 . S
C2639 C2632 1.409 . S
C2639 C2638 1.362 . S
H2640 C2646 0.930 . S
H2641 C2649 0.930 . S
H2642 C2650 0.930 . S
H2643 C2651 0.930 . S
H2644 C2654 0.930 . S
H2645 C2655 0.930 . S
C2646 H2640 0.930 . S
C2646 C2647 1.355 . S
C2646 C2648 1.415 . S
C2647 C2646 1.355 . S
C2647 C2649 1.419 . S
C2648 C2646 1.415 . S
C2648 C2653 1.425 . S
C2648 C2655 1.409 . S
C2649 H2641 0.930 . S
C2649 C2647 1.419 . S
C2649 C2650 1.362 . S
C2650 H2642 0.930 . S
C2650 C2649 1.362 . S
C2650 C2653 1.409 . S
C2651 H2643 0.930 . S
C2651 C2652 1.355 . S
C2651 C2653 1.415 . S
C2652 C2651 1.355 . S
C2652 C2654 1.419 . S
C2653 C2648 1.425 . S
C2653 C2650 1.409 . S
C2653 C2651 1.415 . S
C2654 H2644 0.930 . S
C2654 C2652 1.419 . S
C2654 C2655 1.362 . S
C2655 H2645 0.930 . S
C2655 C2648 1.409 . S
C2655 C2654 1.362 . S
H2656 C2662 0.930 . S
H2657 C2665 0.930 . S
H2658 C2666 0.930 . S
H2659 C2667 0.930 . S
H2660 C2670 0.930 . S
H2661 C2671 0.930 . S
C2662 H2656 0.930 . S
C2662 C2663 1.355 . S
C2662 C2664 1.415 . S
C2663 C2662 1.355 . S
C2663 C2665 1.419 . S
C2664 C2662 1.415 . S
C2664 C2669 1.425 . S
C2664 C2671 1.409 . S
C2665 H2657 0.930 . S
C2665 C2663 1.419 . S
C2665 C2666 1.362 . S
C2666 H2658 0.930 . S
C2666 C2665 1.362 . S
C2666 C2669 1.409 . S
C2667 H2659 0.930 . S
C2667 C2668 1.355 . S
C2667 C2669 1.415 . S
C2668 C2667 1.355 . S
C2668 C2670 1.419 . S
C2669 C2664 1.425 . S
C2669 C2666 1.409 . S
C2669 C2667 1.415 . S
C2670 H2660 0.930 . S
C2670 C2668 1.419 . S
C2670 C2671 1.362 . S
C2671 H2661 0.930 . S
C2671 C2664 1.409 . S
C2671 C2670 1.362 . S
H2672 C2678 0.930 . S
H2673 C2681 0.930 . S
H2674 C2682 0.930 . S
H2675 C2683 0.930 . S
H2676 C2686 0.930 . S
H2677 C2687 0.930 . S
C2678 H2672 0.930 . S
C2678 C2679 1.355 . S
C2678 C2680 1.415 . S
C2679 C2678 1.355 . S
C2679 C2681 1.419 . S
C2680 C2678 1.415 . S
C2680 C2685 1.425 . S
C2680 C2687 1.409 . S
C2681 H2673 0.930 . S
C2681 C2679 1.419 . S
C2681 C2682 1.362 . S
C2682 H2674 0.930 . S
C2682 C2681 1.362 . S
C2682 C2685 1.409 . S
C2683 H2675 0.930 . S
C2683 C2684 1.355 . S
C2683 C2685 1.415 . S
C2684 C2683 1.355 . S
C2684 C2686 1.419 . S
C2685 C2680 1.425 . S
C2685 C2682 1.409 . S
C2685 C2683 1.415 . S
C2686 H2676 0.930 . S
C2686 C2684 1.419 . S
C2686 C2687 1.362 . S
C2687 H2677 0.930 . S
C2687 C2680 1.409 . S
C2687 C2686 1.362 . S
H2688 C2694 0.930 . S
H2689 C2697 0.930 . S
H2690 C2698 0.930 . S
H2691 C2699 0.930 . S
H2692 C2702 0.930 . S
H2693 C2703 0.930 . S
C2694 H2688 0.930 . S
C2694 C2695 1.355 . S
C2694 C2696 1.415 . S
C2695 C2694 1.355 . S
C2695 C2697 1.419 . S
C2696 C2694 1.415 . S
C2696 C2701 1.425 . S
C2696 C2703 1.409 . S
C2697 H2689 0.930 . S
C2697 C2695 1.419 . S
C2697 C2698 1.362 . S
C2698 H2690 0.930 . S
C2698 C2697 1.362 . S
C2698 C2701 1.409 . S
C2699 H2691 0.930 . S
C2699 C2700 1.355 . S
C2699 C2701 1.415 . S
C2700 C2699 1.355 . S
C2700 C2702 1.419 . S
C2701 C2696 1.425 . S
C2701 C2698 1.409 . S
C2701 C2699 1.415 . S
C2702 H2692 0.930 . S
C2702 C2700 1.419 . S
C2702 C2703 1.362 . S
C2703 H2693 0.930 . S
C2703 C2696 1.409 . S
C2703 C2702 1.362 . S
H2704 C2710 0.930 . S
H2705 C2713 0.930 . S
H2706 C2714 0.930 . S
H2707 C2715 0.930 . S
H2708 C2718 0.930 . S
H2709 C2719 0.930 . S
C2710 H2704 0.930 . S
C2710 C2711 1.355 . S
C2710 C2712 1.415 . S
C2711 C2710 1.355 . S
C2711 C2713 1.419 . S
C2712 C2710 1.415 . S
C2712 C2717 1.425 . S
C2712 C2719 1.409 . S
C2713 H2705 0.930 . S
C2713 C2711 1.419 . S
C2713 C2714 1.362 . S
C2714 H2706 0.930 . S
C2714 C2713 1.362 . S
C2714 C2717 1.409 . S
C2715 H2707 0.930 . S
C2715 C2716 1.355 . S
C2715 C2717 1.415 . S
C2716 C2715 1.355 . S
C2716 C2718 1.419 . S
C2717 C2712 1.425 . S
C2717 C2714 1.409 . S
C2717 C2715 1.415 . S
C2718 H2708 0.930 . S
C2718 C2716 1.419 . S
C2718 C2719 1.362 . S
C2719 H2709 0.930 . S
C2719 C2712 1.409 . S
C2719 C2718 1.362 . S
H2720 C2726 0.930 . S
H2721 C2729 0.930 . S
H2722 C2730 0.930 . S
H2723 C2731 0.930 . S
H2724 C2734 0.930 . S
H2725 C2735 0.930 . S
C2726 H2720 0.930 . S
C2726 C2727 1.355 . S
C2726 C2728 1.415 . S
C2727 C2726 1.355 . S
C2727 C2729 1.419 . S
C2728 C2726 1.415 . S
C2728 C2733 1.425 . S
C2728 C2735 1.409 . S
C2729 H2721 0.930 . S
C2729 C2727 1.419 . S
C2729 C2730 1.362 . S
C2730 H2722 0.930 . S
C2730 C2729 1.362 . S
C2730 C2733 1.409 . S
C2731 H2723 0.930 . S
C2731 C2732 1.355 . S
C2731 C2733 1.415 . S
C2732 C2731 1.355 . S
C2732 C2734 1.419 . S
C2733 C2728 1.425 . S
C2733 C2730 1.409 . S
C2733 C2731 1.415 . S
C2734 H2724 0.930 . S
C2734 C2732 1.419 . S
C2734 C2735 1.362 . S
C2735 H2725 0.930 . S
C2735 C2728 1.409 . S
C2735 C2734 1.362 . S
H2736 C2742 0.930 . S
H2737 C2745 0.930 . S
H2738 C2746 0.930 . S
H2739 C2747 0.930 . S
H2740 C2750 0.930 . S
H2741 C2751 0.930 . S
C2742 H2736 0.930 . S
C2742 C2743 1.355 . S
C2742 C2744 1.415 . S
C2743 C2742 1.355 . S
C2743 C2745 1.419 . S
C2744 C2742 1.415 . S
C2744 C2749 1.425 . S
C2744 C2751 1.409 . S
C2745 H2737 0.930 . S
C2745 C2743 1.419 . S
C2745 C2746 1.362 . S
C2746 H2738 0.930 . S
C2746 C2745 1.362 . S
C2746 C2749 1.409 . S
C2747 H2739 0.930 . S
C2747 C2748 1.355 . S
C2747 C2749 1.415 . S
C2748 C2747 1.355 . S
C2748 C2750 1.419 . S
C2749 C2744 1.425 . S
C2749 C2746 1.409 . S
C2749 C2747 1.415 . S
C2750 H2740 0.930 . S
C2750 C2748 1.419 . S
C2750 C2751 1.362 . S
C2751 H2741 0.930 . S
C2751 C2744 1.409 . S
C2751 C2750 1.362 . S
H2752 C2758 0.930 . S
H2753 C2761 0.930 . S
H2754 C2762 0.930 . S
H2755 C2763 0.930 . S
H2756 C2766 0.930 . S
H2757 C2767 0.930 . S
C2758 H2752 0.930 . S
C2758 C2759 1.355 . S
C2758 C2760 1.415 . S
C2759 C2758 1.355 . S
C2759 C2761 1.419 . S
C2760 C2758 1.415 . S
C2760 C2765 1.425 . S
C2760 C2767 1.409 . S
C2761 H2753 0.930 . S
C2761 C2759 1.419 . S
C2761 C2762 1.362 . S
C2762 H2754 0.930 . S
C2762 C2761 1.362 . S
C2762 C2765 1.409 . S
C2763 H2755 0.930 . S
C2763 C2764 1.355 . S
C2763 C2765 1.415 . S
C2764 C2763 1.355 . S
C2764 C2766 1.419 . S
C2765 C2760 1.425 . S
C2765 C2762 1.409 . S
C2765 C2763 1.415 . S
C2766 H2756 0.930 . S
C2766 C2764 1.419 . S
C2766 C2767 1.362 . S
C2767 H2757 0.930 . S
C2767 C2760 1.409 . S
C2767 C2766 1.362 . S
H2768 C2774 0.930 . S
H2769 C2777 0.930 . S
H2770 C2778 0.930 . S
H2771 C2779 0.930 . S
H2772 C2782 0.930 . S
H2773 C2783 0.930 . S
C2774 H2768 0.930 . S
C2774 C2775 1.355 . S
C2774 C2776 1.415 . S
C2775 C2774 1.355 . S
C2775 C2777 1.419 . S
C2776 C2774 1.415 . S
C2776 C2781 1.425 . S
C2776 C2783 1.409 . S
C2777 H2769 0.930 . S
C2777 C2775 1.419 . S
C2777 C2778 1.362 . S
C2778 H2770 0.930 . S
C2778 C2777 1.362 . S
C2778 C2781 1.409 . S
C2779 H2771 0.930 . S
C2779 C2780 1.355 . S
C2779 C2781 1.415 . S
C2780 C2779 1.355 . S
C2780 C2782 1.419 . S
C2781 C2776 1.425 . S
C2781 C2778 1.409 . S
C2781 C2779 1.415 . S
C2782 H2772 0.930 . S
C2782 C2780 1.419 . S
C2782 C2783 1.362 . S
C2783 H2773 0.930 . S
C2783 C2776 1.409 . S
C2783 C2782 1.362 . S
H2784 C2790 0.930 . S
H2785 C2793 0.930 . S
H2786 C2794 0.930 . S
H2787 C2795 0.930 . S
H2788 C2798 0.930 . S
H2789 C2799 0.930 . S
C2790 H2784 0.930 . S
C2790 C2791 1.355 . S
C2790 C2792 1.415 . S
C2791 C2790 1.355 . S
C2791 C2793 1.419 . S
C2792 C2790 1.415 . S
C2792 C2797 1.425 1_455 S
C2792 C2799 1.409 1_455 S
C2793 H2785 0.930 . S
C2793 C2791 1.419 . S
C2793 C2794 1.362 . S
C2794 H2786 0.930 . S
C2794 C2793 1.362 . S
C2794 C2797 1.409 1_455 S
C2795 H2787 0.930 . S
C2795 C2796 1.355 . S
C2795 C2797 1.415 . S
C2796 C2795 1.355 . S
C2796 C2798 1.419 . S
C2797 C2792 1.425 1_655 S
C2797 C2794 1.409 1_655 S
C2797 C2795 1.415 . S
C2798 H2788 0.930 . S
C2798 C2796 1.419 . S
C2798 C2799 1.362 . S
C2799 H2789 0.930 . S
C2799 C2792 1.409 1_655 S
C2799 C2798 1.362 . S
H2800 C2806 0.930 . S
H2801 C2809 0.930 . S
H2802 C2810 0.930 . S
H2803 C2811 0.930 . S
H2804 C2814 0.930 . S
H2805 C2815 0.930 . S
C2806 H2800 0.930 . S
C2806 C2807 1.355 . S
C2806 C2808 1.415 . S
C2807 C2806 1.355 . S
C2807 C2809 1.419 . S
C2808 C2806 1.415 . S
C2808 C2813 1.425 1_545 S
C2808 C2815 1.409 1_545 S
C2809 H2801 0.930 . S
C2809 C2807 1.419 . S
C2809 C2810 1.362 . S
C2810 H2802 0.930 . S
C2810 C2809 1.362 . S
C2810 C2813 1.409 1_545 S
C2811 H2803 0.930 . S
C2811 C2812 1.355 . S
C2811 C2813 1.415 . S
C2812 C2811 1.355 . S
C2812 C2814 1.419 . S
C2813 C2808 1.425 1_565 S
C2813 C2810 1.409 1_565 S
C2813 C2811 1.415 . S
C2814 H2804 0.930 . S
C2814 C2812 1.419 . S
C2814 C2815 1.362 . S
C2815 H2805 0.930 . S
C2815 C2808 1.409 1_565 S
C2815 C2814 1.362 . S
H2816 C2822 0.930 . S
H2817 C2825 0.930 . S
H2818 C2826 0.930 . S
H2819 C2827 0.930 . S
H2820 C2830 0.930 . S
H2821 C2831 0.930 . S
C2822 H2816 0.930 . S
C2822 C2823 1.355 . S
C2822 C2824 1.415 . S
C2823 C2822 1.355 . S
C2823 C2825 1.419 . S
C2824 C2822 1.415 . S
C2824 C2829 1.425 1_655 S
C2824 C2831 1.409 1_655 S
C2825 H2817 0.930 . S
C2825 C2823 1.419 . S
C2825 C2826 1.362 . S
C2826 H2818 0.930 . S
C2826 C2825 1.362 . S
C2826 C2829 1.409 1_655 S
C2827 H2819 0.930 . S
C2827 C2828 1.355 . S
C2827 C2829 1.415 . S
C2828 C2827 1.355 . S
C2828 C2830 1.419 . S
C2829 C2824 1.425 1_455 S
C2829 C2826 1.409 1_455 S
C2829 C2827 1.415 . S
C2830 H2820 0.930 . S
C2830 C2828 1.419 . S
C2830 C2831 1.362 . S
C2831 H2821 0.930 . S
C2831 C2824 1.409 1_455 S
C2831 C2830 1.362 . S
H2832 C2838 0.930 . S
H2833 C2841 0.930 . S
H2834 C2842 0.930 . S
H2835 C2843 0.930 . S
H2836 C2846 0.930 . S
H2837 C2847 0.930 . S
C2838 H2832 0.930 . S
C2838 C2839 1.355 . S
C2838 C2840 1.415 . S
C2839 C2838 1.355 . S
C2839 C2841 1.419 . S
C2840 C2838 1.415 . S
C2840 C2845 1.425 1_565 S
C2840 C2847 1.409 1_565 S
C2841 H2833 0.930 . S
C2841 C2839 1.419 . S
C2841 C2842 1.362 . S
C2842 H2834 0.930 . S
C2842 C2841 1.362 . S
C2842 C2845 1.409 1_565 S
C2843 H2835 0.930 . S
C2843 C2844 1.355 . S
C2843 C2845 1.415 . S
C2844 C2843 1.355 . S
C2844 C2846 1.419 . S
C2845 C2840 1.425 1_545 S
C2845 C2842 1.409 1_545 S
C2845 C2843 1.415 . S
C2846 H2836 0.930 . S
C2846 C2844 1.419 . S
C2846 C2847 1.362 . S
C2847 H2837 0.930 . S
C2847 C2840 1.409 1_545 S
C2847 C2846 1.362 . S
H2848 C2854 0.930 . S
H2849 C2857 0.930 . S
H2850 C2858 0.930 . S
H2851 C2859 0.930 . S
H2852 C2862 0.930 . S
H2853 C2863 0.930 . S
C2854 H2848 0.930 . S
C2854 C2855 1.355 . S
C2854 C2856 1.415 . S
C2855 C2854 1.355 . S
C2855 C2857 1.419 . S
C2856 C2854 1.415 . S
C2856 C2861 1.425 1_655 S
C2856 C2863 1.409 1_655 S
C2857 H2849 0.930 . S
C2857 C2855 1.419 . S
C2857 C2858 1.362 . S
C2858 H2850 0.930 . S
C2858 C2857 1.362 . S
C2858 C2861 1.409 1_655 S
C2859 H2851 0.930 . S
C2859 C2860 1.355 . S
C2859 C2861 1.415 . S
C2860 C2859 1.355 . S
C2860 C2862 1.419 . S
C2861 C2856 1.425 1_455 S
C2861 C2858 1.409 1_455 S
C2861 C2859 1.415 . S
C2862 H2852 0.930 . S
C2862 C2860 1.419 . S
C2862 C2863 1.362 . S
C2863 H2853 0.930 . S
C2863 C2856 1.409 1_455 S
C2863 C2862 1.362 . S
H2864 C2870 0.930 . S
H2865 C2873 0.930 . S
H2866 C2874 0.930 . S
H2867 C2875 0.930 . S
H2868 C2878 0.930 . S
H2869 C2879 0.930 . S
C2870 H2864 0.930 . S
C2870 C2871 1.355 . S
C2870 C2872 1.415 . S
C2871 C2870 1.355 . S
C2871 C2873 1.419 . S
C2872 C2870 1.415 . S
C2872 C2877 1.425 1_545 S
C2872 C2879 1.409 1_545 S
C2873 H2865 0.930 . S
C2873 C2871 1.419 . S
C2873 C2874 1.362 . S
C2874 H2866 0.930 . S
C2874 C2873 1.362 . S
C2874 C2877 1.409 1_545 S
C2875 H2867 0.930 . S
C2875 C2876 1.355 . S
C2875 C2877 1.415 . S
C2876 C2875 1.355 . S
C2876 C2878 1.419 . S
C2877 C2872 1.425 1_565 S
C2877 C2874 1.409 1_565 S
C2877 C2875 1.415 . S
C2878 H2868 0.930 . S
C2878 C2876 1.419 . S
C2878 C2879 1.362 . S
C2879 H2869 0.930 . S
C2879 C2872 1.409 1_565 S
C2879 C2878 1.362 . S
H2880 C2886 0.930 . S
H2881 C2889 0.930 . S
H2882 C2890 0.930 . S
H2883 C2891 0.930 . S
H2884 C2894 0.930 . S
H2885 C2895 0.930 . S
C2886 H2880 0.930 . S
C2886 C2887 1.355 . S
C2886 C2888 1.415 . S
C2887 C2886 1.355 . S
C2887 C2889 1.419 . S
C2888 C2886 1.415 . S
C2888 C2893 1.425 1_455 S
C2888 C2895 1.409 1_455 S
C2889 H2881 0.930 . S
C2889 C2887 1.419 . S
C2889 C2890 1.362 . S
C2890 H2882 0.930 . S
C2890 C2889 1.362 . S
C2890 C2893 1.409 1_455 S
C2891 H2883 0.930 . S
C2891 C2892 1.355 . S
C2891 C2893 1.415 . S
C2892 C2891 1.355 . S
C2892 C2894 1.419 . S
C2893 C2888 1.425 1_655 S
C2893 C2890 1.409 1_655 S
C2893 C2891 1.415 . S
C2894 H2884 0.930 . S
C2894 C2892 1.419 . S
C2894 C2895 1.362 . S
C2895 H2885 0.930 . S
C2895 C2888 1.409 1_655 S
C2895 C2894 1.362 . S
H2896 C2902 0.930 . S
H2897 C2905 0.930 . S
H2898 C2906 0.930 . S
H2899 C2907 0.930 . S
H2900 C2910 0.930 . S
H2901 C2911 0.930 . S
C2902 H2896 0.930 . S
C2902 C2903 1.355 . S
C2902 C2904 1.415 . S
C2903 C2902 1.355 . S
C2903 C2905 1.419 . S
C2904 C2902 1.415 . S
C2904 C2909 1.425 1_545 S
C2904 C2911 1.409 1_545 S
C2905 H2897 0.930 . S
C2905 C2903 1.419 . S
C2905 C2906 1.362 . S
C2906 H2898 0.930 . S
C2906 C2905 1.362 . S
C2906 C2909 1.409 1_545 S
C2907 H2899 0.930 . S
C2907 C2908 1.355 . S
C2907 C2909 1.415 . S
C2908 C2907 1.355 . S
C2908 C2910 1.419 . S
C2909 C2904 1.425 1_565 S
C2909 C2906 1.409 1_565 S
C2909 C2907 1.415 . S
C2910 H2900 0.930 . S
C2910 C2908 1.419 . S
C2910 C2911 1.362 . S
C2911 H2901 0.930 . S
C2911 C2904 1.409 1_565 S
C2911 C2910 1.362 . S
H2912 C2918 0.930 . S
H2913 C2921 0.930 . S
H2914 C2922 0.930 . S
H2915 C2923 0.930 . S
H2916 C2926 0.930 . S
H2917 C2927 0.930 . S
C2918 H2912 0.930 . S
C2918 C2919 1.355 . S
C2918 C2920 1.415 . S
C2919 C2918 1.355 . S
C2919 C2921 1.419 . S
C2920 C2918 1.415 . S
C2920 C2925 1.425 1_545 S
C2920 C2927 1.409 1_545 S
C2921 H2913 0.930 . S
C2921 C2919 1.419 . S
C2921 C2922 1.362 . S
C2922 H2914 0.930 . S
C2922 C2921 1.362 . S
C2922 C2925 1.409 1_545 S
C2923 H2915 0.930 . S
C2923 C2924 1.355 . S
C2923 C2925 1.415 . S
C2924 C2923 1.355 . S
C2924 C2926 1.419 . S
C2925 C2920 1.425 1_565 S
C2925 C2922 1.409 1_565 S
C2925 C2923 1.415 . S
C2926 H2916 0.930 . S
C2926 C2924 1.419 . S
C2926 C2927 1.362 . S
C2927 H2917 0.930 . S
C2927 C2920 1.409 1_565 S
C2927 C2926 1.362 . S
H2928 C2934 0.930 . S
H2929 C2937 0.930 . S
H2930 C2938 0.930 . S
H2931 C2939 0.930 . S
H2932 C2942 0.930 . S
H2933 C2943 0.930 . S
C2934 H2928 0.930 . S
C2934 C2935 1.355 . S
C2934 C2936 1.415 . S
C2935 C2934 1.355 . S
C2935 C2937 1.419 . S
C2936 C2934 1.415 . S
C2936 C2941 1.425 1_455 S
C2936 C2943 1.409 1_455 S
C2937 H2929 0.930 . S
C2937 C2935 1.419 . S
C2937 C2938 1.362 . S
C2938 H2930 0.930 . S
C2938 C2937 1.362 . S
C2938 C2941 1.409 1_455 S
C2939 H2931 0.930 . S
C2939 C2940 1.355 . S
C2939 C2941 1.415 . S
C2940 C2939 1.355 . S
C2940 C2942 1.419 . S
C2941 C2936 1.425 1_655 S
C2941 C2938 1.409 1_655 S
C2941 C2939 1.415 . S
C2942 H2932 0.930 . S
C2942 C2940 1.419 . S
C2942 C2943 1.362 . S
C2943 H2933 0.930 . S
C2943 C2936 1.409 1_655 S
C2943 C2942 1.362 . S
H2944 C2950 0.930 . S
H2945 C2953 0.930 . S
H2946 C2954 0.930 . S
H2947 C2955 0.930 . S
H2948 C2958 0.930 . S
H2949 C2959 0.930 . S
C2950 H2944 0.930 . S
C2950 C2951 1.355 . S
C2950 C2952 1.415 . S
C2951 C2950 1.355 . S
C2951 C2953 1.419 . S
C2952 C2950 1.415 . S
C2952 C2957 1.425 1_565 S
C2952 C2959 1.409 1_565 S
C2953 H2945 0.930 . S
C2953 C2951 1.419 . S
C2953 C2954 1.362 . S
C2954 H2946 0.930 . S
C2954 C2953 1.362 . S
C2954 C2957 1.409 1_565 S
C2955 H2947 0.930 . S
C2955 C2956 1.355 . S
C2955 C2957 1.415 . S
C2956 C2955 1.355 . S
C2956 C2958 1.419 . S
C2957 C2952 1.425 1_545 S
C2957 C2954 1.409 1_545 S
C2957 C2955 1.415 . S
C2958 H2948 0.930 . S
C2958 C2956 1.419 . S
C2958 C2959 1.362 . S
C2959 H2949 0.930 . S
C2959 C2952 1.409 1_545 S
C2959 C2958 1.362 . S
H2960 C2966 0.930 . S
H2961 C2969 0.930 . S
H2962 C2970 0.930 . S
H2963 C2971 0.930 . S
H2964 C2974 0.930 . S
H2965 C2975 0.930 . S
C2966 H2960 0.930 . S
C2966 C2967 1.355 . S
C2966 C2968 1.415 . S
C2967 C2966 1.355 . S
C2967 C2969 1.419 . S
C2968 C2966 1.415 . S
C2968 C2973 1.425 1_455 S
C2968 C2975 1.409 1_455 S
C2969 H2961 0.930 . S
C2969 C2967 1.419 . S
C2969 C2970 1.362 . S
C2970 H2962 0.930 . S
C2970 C2969 1.362 . S
C2970 C2973 1.409 1_455 S
C2971 H2963 0.930 . S
C2971 C2972 1.355 . S
C2971 C2973 1.415 . S
C2972 C2971 1.355 . S
C2972 C2974 1.419 . S
C2973 C2968 1.425 1_655 S
C2973 C2970 1.409 1_655 S
C2973 C2971 1.415 . S
C2974 H2964 0.930 . S
C2974 C2972 1.419 . S
C2974 C2975 1.362 . S
C2975 H2965 0.930 . S
C2975 C2968 1.409 1_655 S
C2975 C2974 1.362 . S
H2976 C2982 0.930 . S
H2977 C2985 0.930 . S
H2978 C2986 0.930 . S
H2979 C2987 0.930 . S
H2980 C2990 0.930 . S
H2981 C2991 0.930 . S
C2982 H2976 0.930 . S
C2982 C2983 1.355 . S
C2982 C2984 1.415 . S
C2983 C2982 1.355 . S
C2983 C2985 1.419 . S
C2984 C2982 1.415 . S
C2984 C2989 1.425 1_565 S
C2984 C2991 1.409 1_565 S
C2985 H2977 0.930 . S
C2985 C2983 1.419 . S
C2985 C2986 1.362 . S
C2986 H2978 0.930 . S
C2986 C2985 1.362 . S
C2986 C2989 1.409 1_565 S
C2987 H2979 0.930 . S
C2987 C2988 1.355 . S
C2987 C2989 1.415 . S
C2988 C2987 1.355 . S
C2988 C2990 1.419 . S
C2989 C2984 1.425 1_545 S
C2989 C2986 1.409 1_545 S
C2989 C2987 1.415 . S
C2990 H2980 0.930 . S
C2990 C2988 1.419 . S
C2990 C2991 1.362 . S
C2991 H2981 0.930 . S
C2991 C2984 1.409 1_545 S
C2991 C2990 1.362 . S
H2992 C2998 0.930 . S
H2993 C3001 0.930 . S
H2994 C3002 0.930 . S
H2995 C3003 0.930 . S
H2996 C3006 0.930 . S
H2997 C3007 0.930 . S
C2998 H2992 0.930 . S
C2998 C2999 1.355 . S
C2998 C3000 1.415 . S
C2999 C2998 1.355 . S
C2999 C3001 1.419 . S
C3000 C2998 1.415 . S
C3000 C3005 1.425 1_455 S
C3000 C3007 1.409 1_455 S
C3001 H2993 0.930 . S
C3001 C2999 1.419 . S
C3001 C3002 1.362 . S
C3002 H2994 0.930 . S
C3002 C3001 1.362 . S
C3002 C3005 1.409 1_455 S
C3003 H2995 0.930 . S
C3003 C3004 1.355 . S
C3003 C3005 1.415 . S
C3004 C3003 1.355 . S
C3004 C3006 1.419 . S
C3005 C3000 1.425 1_655 S
C3005 C3002 1.409 1_655 S
C3005 C3003 1.415 . S
C3006 H2996 0.930 . S
C3006 C3004 1.419 . S
C3006 C3007 1.362 . S
C3007 H2997 0.930 . S
C3007 C3000 1.409 1_655 S
C3007 C3006 1.362 . S
H3008 C3014 0.930 . S
H3009 C3017 0.930 . S
H3010 C3018 0.930 . S
H3011 C3019 0.930 . S
H3012 C3022 0.930 . S
H3013 C3023 0.930 . S
C3014 H3008 0.930 . S
C3014 C3015 1.355 . S
C3014 C3016 1.415 . S
C3015 C3014 1.355 . S
C3015 C3017 1.419 . S
C3016 C3014 1.415 . S
C3016 C3021 1.425 1_545 S
C3016 C3023 1.409 1_545 S
C3017 H3009 0.930 . S
C3017 C3015 1.419 . S
C3017 C3018 1.362 . S
C3018 H3010 0.930 . S
C3018 C3017 1.362 . S
C3018 C3021 1.409 1_545 S
C3019 H3011 0.930 . S
C3019 C3020 1.355 . S
C3019 C3021 1.415 . S
C3020 C3019 1.355 . S
C3020 C3022 1.419 . S
C3021 C3016 1.425 1_565 S
C3021 C3018 1.409 1_565 S
C3021 C3019 1.415 . S
C3022 H3012 0.930 . S
C3022 C3020 1.419 . S
C3022 C3023 1.362 . S
C3023 H3013 0.930 . S
C3023 C3016 1.409 1_565 S
C3023 C3022 1.362 . S
H3024 C3030 0.930 . S
H3025 C3033 0.930 . S
H3026 C3034 0.930 . S
H3027 C3035 0.930 . S
H3028 C3038 0.930 . S
H3029 C3039 0.930 . S
C3030 H3024 0.930 . S
C3030 C3031 1.355 . S
C3030 C3032 1.415 . S
C3031 C3030 1.355 . S
C3031 C3033 1.419 . S
C3032 C3030 1.415 . S
C3032 C3037 1.425 1_455 S
C3032 C3039 1.409 1_455 S
C3033 H3025 0.930 . S
C3033 C3031 1.419 . S
C3033 C3034 1.362 . S
C3034 H3026 0.930 . S
C3034 C3033 1.362 . S
C3034 C3037 1.409 1_455 S
C3035 H3027 0.930 . S
C3035 C3036 1.355 . S
C3035 C3037 1.415 . S
C3036 C3035 1.355 . S
C3036 C3038 1.419 . S
C3037 C3032 1.425 1_655 S
C3037 C3034 1.409 1_655 S
C3037 C3035 1.415 . S
C3038 H3028 0.930 . S
C3038 C3036 1.419 . S
C3038 C3039 1.362 . S
C3039 H3029 0.930 . S
C3039 C3032 1.409 1_655 S
C3039 C3038 1.362 . S
H3040 C3046 0.930 . S
H3041 C3049 0.930 . S
H3042 C3050 0.930 . S
H3043 C3051 0.930 . S
H3044 C3054 0.930 . S
H3045 C3055 0.930 . S
C3046 H3040 0.930 . S
C3046 C3047 1.355 . S
C3046 C3048 1.415 . S
C3047 C3046 1.355 . S
C3047 C3049 1.419 . S
C3048 C3046 1.415 . S
C3048 C3053 1.425 1_554 S
C3048 C3055 1.409 1_554 S
C3049 H3041 0.930 . S
C3049 C3047 1.419 . S
C3049 C3050 1.362 . S
C3050 H3042 0.930 . S
C3050 C3049 1.362 . S
C3050 C3053 1.409 1_554 S
C3051 H3043 0.930 . S
C3051 C3052 1.355 . S
C3051 C3053 1.415 . S
C3052 C3051 1.355 . S
C3052 C3054 1.419 . S
C3053 C3048 1.425 1_556 S
C3053 C3050 1.409 1_556 S
C3053 C3051 1.415 . S
C3054 H3044 0.930 . S
C3054 C3052 1.419 . S
C3054 C3055 1.362 . S
C3055 H3045 0.930 . S
C3055 C3048 1.409 1_556 S
C3055 C3054 1.362 . S
H3056 C3062 0.930 . S
H3057 C3065 0.930 . S
H3058 C3066 0.930 . S
H3059 C3067 0.930 . S
H3060 C3070 0.930 . S
H3061 C3071 0.930 . S
C3062 H3056 0.930 . S
C3062 C3063 1.355 . S
C3062 C3064 1.415 . S
C3063 C3062 1.355 . S
C3063 C3065 1.419 . S
C3064 C3062 1.415 . S
C3064 C3069 1.425 1_556 S
C3064 C3071 1.409 1_556 S
C3065 H3057 0.930 . S
C3065 C3063 1.419 . S
C3065 C3066 1.362 . S
C3066 H3058 0.930 . S
C3066 C3065 1.362 . S
C3066 C3069 1.409 1_556 S
C3067 H3059 0.930 . S
C3067 C3068 1.355 . S
C3067 C3069 1.415 . S
C3068 C3067 1.355 . S
C3068 C3070 1.419 . S
C3069 C3064 1.425 1_554 S
C3069 C3066 1.409 1_554 S
C3069 C3067 1.415 . S
C3070 H3060 0.930 . S
C3070 C3068 1.419 . S
C3070 C3071 1.362 . S
C3071 H3061 0.930 . S
C3071 C3064 1.409 1_554 S
C3071 C3070 1.362 . S
H3072 C3078 0.930 . S
H3073 C3081 0.930 . S
H3074 C3082 0.930 . S
H3075 C3083 0.930 . S
H3076 C3086 0.930 . S
H3077 C3087 0.930 . S
C3078 H3072 0.930 . S
C3078 C3079 1.355 . S
C3078 C3080 1.415 . S
C3079 C3078 1.355 . S
C3079 C3081 1.419 . S
C3080 C3078 1.415 . S
C3080 C3085 1.425 1_554 S
C3080 C3087 1.409 1_554 S
C3081 H3073 0.930 . S
C3081 C3079 1.419 . S
C3081 C3082 1.362 . S
C3082 H3074 0.930 . S
C3082 C3081 1.362 . S
C3082 C3085 1.409 1_554 S
C3083 H3075 0.930 . S
C3083 C3084 1.355 . S
C3083 C3085 1.415 . S
C3084 C3083 1.355 . S
C3084 C3086 1.419 . S
C3085 C3080 1.425 1_556 S
C3085 C3082 1.409 1_556 S
C3085 C3083 1.415 . S
C3086 H3076 0.930 . S
C3086 C3084 1.419 . S
C3086 C3087 1.362 . S
C3087 H3077 0.930 . S
C3087 C3080 1.409 1_556 S
C3087 C3086 1.362 . S
H3088 C3094 0.930 . S
H3089 C3097 0.930 . S
H3090 C3098 0.930 . S
H3091 C3099 0.930 . S
H3092 C3102 0.930 . S
H3093 C3103 0.930 . S
C3094 H3088 0.930 . S
C3094 C3095 1.355 . S
C3094 C3096 1.415 . S
C3095 C3094 1.355 . S
C3095 C3097 1.419 . S
C3096 C3094 1.415 . S
C3096 C3101 1.425 1_556 S
C3096 C3103 1.409 1_556 S
C3097 H3089 0.930 . S
C3097 C3095 1.419 . S
C3097 C3098 1.362 . S
C3098 H3090 0.930 . S
C3098 C3097 1.362 . S
C3098 C3101 1.409 1_556 S
C3099 H3091 0.930 . S
C3099 C3100 1.355 . S
C3099 C3101 1.415 . S
C3100 C3099 1.355 . S
C3100 C3102 1.419 . S
C3101 C3096 1.425 1_554 S
C3101 C3098 1.409 1_554 S
C3101 C3099 1.415 . S
C3102 H3092 0.930 . S
C3102 C3100 1.419 . S
C3102 C3103 1.362 . S
C3103 H3093 0.930 . S
C3103 C3096 1.409 1_554 S
C3103 C3102 1.362 . S
H3104 C3110 0.930 . S
H3105 C3113 0.930 . S
H3106 C3114 0.930 . S
H3107 C3115 0.930 . S
H3108 C3118 0.930 . S
H3109 C3119 0.930 . S
C3110 H3104 0.930 . S
C3110 C3111 1.355 . S
C3110 C3112 1.415 . S
C3111 C3110 1.355 . S
C3111 C3113 1.419 . S
C3112 C3110 1.415 . S
C3112 C3117 1.425 1_554 S
C3112 C3119 1.409 1_554 S
C3113 H3105 0.930 . S
C3113 C3111 1.419 . S
C3113 C3114 1.362 . S
C3114 H3106 0.930 . S
C3114 C3113 1.362 . S
C3114 C3117 1.409 1_554 S
C3115 H3107 0.930 . S
C3115 C3116 1.355 . S
C3115 C3117 1.415 . S
C3116 C3115 1.355 . S
C3116 C3118 1.419 . S
C3117 C3112 1.425 1_556 S
C3117 C3114 1.409 1_556 S
C3117 C3115 1.415 . S
C3118 H3108 0.930 . S
C3118 C3116 1.419 . S
C3118 C3119 1.362 . S
C3119 H3109 0.930 . S
C3119 C3112 1.409 1_556 S
C3119 C3118 1.362 . S
H3120 C3126 0.930 . S
H3121 C3129 0.930 . S
H3122 C3130 0.930 . S
H3123 C3131 0.930 . S
H3124 C3134 0.930 . S
H3125 C3135 0.930 . S
C3126 H3120 0.930 . S
C3126 C3127 1.355 . S
C3126 C3128 1.415 . S
C3127 C3126 1.355 . S
C3127 C3129 1.419 . S
C3128 C3126 1.415 . S
C3128 C3133 1.425 1_554 S
C3128 C3135 1.409 1_554 S
C3129 H3121 0.930 . S
C3129 C3127 1.419 . S
C3129 C3130 1.362 . S
C3130 H3122 0.930 . S
C3130 C3129 1.362 . S
C3130 C3133 1.409 1_554 S
C3131 H3123 0.930 . S
C3131 C3132 1.355 . S
C3131 C3133 1.415 . S
C3132 C3131 1.355 . S
C3132 C3134 1.419 . S
C3133 C3128 1.425 1_556 S
C3133 C3130 1.409 1_556 S
C3133 C3131 1.415 . S
C3134 H3124 0.930 . S
C3134 C3132 1.419 . S
C3134 C3135 1.362 . S
C3135 H3125 0.930 . S
C3135 C3128 1.409 1_556 S
C3135 C3134 1.362 . S
H3136 C3142 0.930 . S
H3137 C3145 0.930 . S
H3138 C3146 0.930 . S
H3139 C3147 0.930 . S
H3140 C3150 0.930 . S
H3141 C3151 0.930 . S
C3142 H3136 0.930 . S
C3142 C3143 1.355 . S
C3142 C3144 1.415 . S
C3143 C3142 1.355 . S
C3143 C3145 1.419 . S
C3144 C3142 1.415 . S
C3144 C3149 1.425 1_556 S
C3144 C3151 1.409 1_556 S
C3145 H3137 0.930 . S
C3145 C3143 1.419 . S
C3145 C3146 1.362 . S
C3146 H3138 0.930 . S
C3146 C3145 1.362 . S
C3146 C3149 1.409 1_556 S
C3147 H3139 0.930 . S
C3147 C3148 1.355 . S
C3147 C3149 1.415 . S
C3148 C3147 1.355 . S
C3148 C3150 1.419 . S
C3149 C3144 1.425 1_554 S
C3149 C3146 1.409 1_554 S
C3149 C3147 1.415 . S
C3150 H3140 0.930 . S
C3150 C3148 1.419 . S
C3150 C3151 1.362 . S
C3151 H3141 0.930 . S
C3151 C3144 1.409 1_554 S
C3151 C3150 1.362 . S
H3152 C3158 0.930 . S
H3153 C3161 0.930 . S
H3154 C3162 0.930 . S
H3155 C3163 0.930 . S
H3156 C3166 0.930 . S
H3157 C3167 0.930 . S
C3158 H3152 0.930 . S
C3158 C3159 1.355 . S
C3158 C3160 1.415 . S
C3159 C3158 1.355 . S
C3159 C3161 1.419 . S
C3160 C3158 1.415 . S
C3160 C3165 1.425 1_556 S
C3160 C3167 1.409 1_556 S
C3161 H3153 0.930 . S
C3161 C3159 1.419 . S
C3161 C3162 1.362 . S
C3162 H3154 0.930 . S
C3162 C3161 1.362 . S
C3162 C3165 1.409 1_556 S
C3163 H3155 0.930 . S
C3163 C3164 1.355 . S
C3163 C3165 1.415 . S
C3164 C3163 1.355 . S
C3164 C3166 1.419 . S
C3165 C3160 1.425 1_554 S
C3165 C3162 1.409 1_554 S
C3165 C3163 1.415 . S
C3166 H3156 0.930 . S
C3166 C3164 1.419 . S
C3166 C3167 1.362 . S
C3167 H3157 0.930 . S
C3167 C3160 1.409 1_554 S
C3167 C3166 1.362 . S
H3168 C3174 0.930 . S
H3169 C3177 0.930 . S
H3170 C3178 0.930 . S
H3171 C3179 0.930 . S
H3172 C3182 0.930 . S
H3173 C3183 0.930 . S
C3174 H3168 0.930 . S
C3174 C3175 1.355 . S
C3174 C3176 1.415 . S
C3175 C3174 1.355 . S
C3175 C3177 1.419 . S
C3176 C3174 1.415 . S
C3176 C3181 1.425 . S
C3176 C3183 1.409 . S
C3177 H3169 0.930 . S
C3177 C3175 1.419 . S
C3177 C3178 1.362 . S
C3178 H3170 0.930 . S
C3178 C3177 1.362 . S
C3178 C3181 1.409 . S
C3179 H3171 0.930 . S
C3179 C3180 1.355 . S
C3179 C3181 1.415 . S
C3180 C3179 1.355 . S
C3180 C3182 1.419 . S
C3181 C3176 1.425 . S
C3181 C3178 1.409 . S
C3181 C3179 1.415 . S
C3182 H3172 0.930 . S
C3182 C3180 1.419 . S
C3182 C3183 1.362 . S
C3183 H3173 0.930 . S
C3183 C3176 1.409 . S
C3183 C3182 1.362 . S
H3184 C3190 0.930 . S
H3185 C3193 0.930 . S
H3186 C3194 0.930 . S
H3187 C3195 0.930 . S
H3188 C3198 0.930 . S
H3189 C3199 0.930 . S
C3190 H3184 0.930 . S
C3190 C3191 1.355 . S
C3190 C3192 1.415 . S
C3191 C3190 1.355 . S
C3191 C3193 1.419 . S
C3192 C3190 1.415 . S
C3192 C3197 1.425 . S
C3192 C3199 1.409 . S
C3193 H3185 0.930 . S
C3193 C3191 1.419 . S
C3193 C3194 1.362 . S
C3194 H3186 0.930 . S
C3194 C3193 1.362 . S
C3194 C3197 1.409 . S
C3195 H3187 0.930 . S
C3195 C3196 1.355 . S
C3195 C3197 1.415 . S
C3196 C3195 1.355 . S
C3196 C3198 1.419 . S
C3197 C3192 1.425 . S
C3197 C3194 1.409 . S
C3197 C3195 1.415 . S
C3198 H3188 0.930 . S
C3198 C3196 1.419 . S
C3198 C3199 1.362 . S
C3199 H3189 0.930 . S
C3199 C3192 1.409 . S
C3199 C3198 1.362 . S
H3200 C3206 0.930 . S
H3201 C3209 0.930 . S
H3202 C3210 0.930 . S
H3203 C3211 0.930 . S
H3204 C3214 0.930 . S
H3205 C3215 0.930 . S
C3206 H3200 0.930 . S
C3206 C3207 1.355 . S
C3206 C3208 1.415 . S
C3207 C3206 1.355 . S
C3207 C3209 1.419 . S
C3208 C3206 1.415 . S
C3208 C3213 1.425 . S
C3208 C3215 1.409 . S
C3209 H3201 0.930 . S
C3209 C3207 1.419 . S
C3209 C3210 1.362 . S
C3210 H3202 0.930 . S
C3210 C3209 1.362 . S
C3210 C3213 1.409 . S
C3211 H3203 0.930 . S
C3211 C3212 1.355 . S
C3211 C3213 1.415 . S
C3212 C3211 1.355 . S
C3212 C3214 1.419 . S
C3213 C3208 1.425 . S
C3213 C3210 1.409 . S
C3213 C3211 1.415 . S
C3214 H3204 0.930 . S
C3214 C3212 1.419 . S
C3214 C3215 1.362 . S
C3215 H3205 0.930 . S
C3215 C3208 1.409 . S
C3215 C3214 1.362 . S
H3216 C3222 0.930 . S
H3217 C3225 0.930 . S
H3218 C3226 0.930 . S
H3219 C3227 0.930 . S
H3220 C3230 0.930 . S
H3221 C3231 0.930 . S
C3222 H3216 0.930 . S
C3222 C3223 1.355 . S
C3222 C3224 1.415 . S
C3223 C3222 1.355 . S
C3223 C3225 1.419 . S
C3224 C3222 1.415 . S
C3224 C3229 1.425 . S
C3224 C3231 1.409 . S
C3225 H3217 0.930 . S
C3225 C3223 1.419 . S
C3225 C3226 1.362 . S
C3226 H3218 0.930 . S
C3226 C3225 1.362 . S
C3226 C3229 1.409 . S
C3227 H3219 0.930 . S
C3227 C3228 1.355 . S
C3227 C3229 1.415 . S
C3228 C3227 1.355 . S
C3228 C3230 1.419 . S
C3229 C3224 1.425 . S
C3229 C3226 1.409 . S
C3229 C3227 1.415 . S
C3230 H3220 0.930 . S
C3230 C3228 1.419 . S
C3230 C3231 1.362 . S
C3231 H3221 0.930 . S
C3231 C3224 1.409 . S
C3231 C3230 1.362 . S
H3232 C3238 0.930 . S
H3233 C3241 0.930 . S
H3234 C3242 0.930 . S
H3235 C3243 0.930 . S
H3236 C3246 0.930 . S
H3237 C3247 0.930 . S
C3238 H3232 0.930 . S
C3238 C3239 1.355 . S
C3238 C3240 1.415 . S
C3239 C3238 1.355 . S
C3239 C3241 1.419 . S
C3240 C3238 1.415 . S
C3240 C3245 1.425 . S
C3240 C3247 1.409 . S
C3241 H3233 0.930 . S
C3241 C3239 1.419 . S
C3241 C3242 1.362 . S
C3242 H3234 0.930 . S
C3242 C3241 1.362 . S
C3242 C3245 1.409 . S
C3243 H3235 0.930 . S
C3243 C3244 1.355 . S
C3243 C3245 1.415 . S
C3244 C3243 1.355 . S
C3244 C3246 1.419 . S
C3245 C3240 1.425 . S
C3245 C3242 1.409 . S
C3245 C3243 1.415 . S
C3246 H3236 0.930 . S
C3246 C3244 1.419 . S
C3246 C3247 1.362 . S
C3247 H3237 0.930 . S
C3247 C3240 1.409 . S
C3247 C3246 1.362 . S
H3248 C3254 0.930 . S
H3249 C3257 0.930 . S
H3250 C3258 0.930 . S
H3251 C3259 0.930 . S
H3252 C3262 0.930 . S
H3253 C3263 0.930 . S
C3254 H3248 0.930 . S
C3254 C3255 1.355 . S
C3254 C3256 1.415 . S
C3255 C3254 1.355 . S
C3255 C3257 1.419 . S
C3256 C3254 1.415 . S
C3256 C3261 1.425 . S
C3256 C3263 1.409 . S
C3257 H3249 0.930 . S
C3257 C3255 1.419 . S
C3257 C3258 1.362 . S
C3258 H3250 0.930 . S
C3258 C3257 1.362 . S
C3258 C3261 1.409 . S
C3259 H3251 0.930 . S
C3259 C3260 1.355 . S
C3259 C3261 1.415 . S
C3260 C3259 1.355 . S
C3260 C3262 1.419 . S
C3261 C3256 1.425 . S
C3261 C3258 1.409 . S
C3261 C3259 1.415 . S
C3262 H3252 0.930 . S
C3262 C3260 1.419 . S
C3262 C3263 1.362 . S
C3263 H3253 0.930 . S
C3263 C3256 1.409 . S
C3263 C3262 1.362 . S
H3264 C3270 0.930 . S
H3265 C3273 0.930 . S
H3266 C3274 0.930 . S
H3267 C3275 0.930 . S
H3268 C3278 0.930 . S
H3269 C3279 0.930 . S
C3270 H3264 0.930 . S
C3270 C3271 1.355 . S
C3270 C3272 1.415 . S
C3271 C3270 1.355 . S
C3271 C3273 1.419 . S
C3272 C3270 1.415 . S
C3272 C3277 1.425 . S
C3272 C3279 1.409 . S
C3273 H3265 0.930 . S
C3273 C3271 1.419 . S
C3273 C3274 1.362 . S
C3274 H3266 0.930 . S
C3274 C3273 1.362 . S
C3274 C3277 1.409 . S
C3275 H3267 0.930 . S
C3275 C3276 1.355 . S
C3275 C3277 1.415 . S
C3276 C3275 1.355 . S
C3276 C3278 1.419 . S
C3277 C3272 1.425 . S
C3277 C3274 1.409 . S
C3277 C3275 1.415 . S
C3278 H3268 0.930 . S
C3278 C3276 1.419 . S
C3278 C3279 1.362 . S
C3279 H3269 0.930 . S
C3279 C3272 1.409 . S
C3279 C3278 1.362 . S
H3280 C3286 0.930 . S
H3281 C3289 0.930 . S
H3282 C3290 0.930 . S
H3283 C3291 0.930 . S
H3284 C3294 0.930 . S
H3285 C3295 0.930 . S
C3286 H3280 0.930 . S
C3286 C3287 1.355 . S
C3286 C3288 1.415 . S
C3287 C3286 1.355 . S
C3287 C3289 1.419 . S
C3288 C3286 1.415 . S
C3288 C3293 1.425 . S
C3288 C3295 1.409 . S
C3289 H3281 0.930 . S
C3289 C3287 1.419 . S
C3289 C3290 1.362 . S
C3290 H3282 0.930 . S
C3290 C3289 1.362 . S
C3290 C3293 1.409 . S
C3291 H3283 0.930 . S
C3291 C3292 1.355 . S
C3291 C3293 1.415 . S
C3292 C3291 1.355 . S
C3292 C3294 1.419 . S
C3293 C3288 1.425 . S
C3293 C3290 1.409 . S
C3293 C3291 1.415 . S
C3294 H3284 0.930 . S
C3294 C3292 1.419 . S
C3294 C3295 1.362 . S
C3295 H3285 0.930 . S
C3295 C3288 1.409 . S
C3295 C3294 1.362 . S
H3296 C3302 0.930 . S
H3297 C3305 0.930 . S
H3298 C3306 0.930 . S
H3299 C3307 0.930 . S
H3300 C3310 0.930 . S
H3301 C3311 0.930 . S
C3302 H3296 0.930 . S
C3302 C3303 1.355 . S
C3302 C3304 1.415 . S
C3303 C3302 1.355 . S
C3303 C3305 1.419 . S
C3304 C3302 1.415 . S
C3304 C3309 1.425 . S
C3304 C3311 1.409 . S
C3305 H3297 0.930 . S
C3305 C3303 1.419 . S
C3305 C3306 1.362 . S
C3306 H3298 0.930 . S
C3306 C3305 1.362 . S
C3306 C3309 1.409 . S
C3307 H3299 0.930 . S
C3307 C3308 1.355 . S
C3307 C3309 1.415 . S
C3308 C3307 1.355 . S
C3308 C3310 1.419 . S
C3309 C3304 1.425 . S
C3309 C3306 1.409 . S
C3309 C3307 1.415 . S
C3310 H3300 0.930 . S
C3310 C3308 1.419 . S
C3310 C3311 1.362 . S
C3311 H3301 0.930 . S
C3311 C3304 1.409 . S
C3311 C3310 1.362 . S
H3312 C3318 0.930 . S
H3313 C3321 0.930 . S
H3314 C3322 0.930 . S
H3315 C3323 0.930 . S
H3316 C3326 0.930 . S
H3317 C3327 0.930 . S
C3318 H3312 0.930 . S
C3318 C3319 1.355 . S
C3318 C3320 1.415 . S
C3319 C3318 1.355 . S
C3319 C3321 1.419 . S
C3320 C3318 1.415 . S
C3320 C3325 1.425 . S
C3320 C3327 1.409 . S
C3321 H3313 0.930 . S
C3321 C3319 1.419 . S
C3321 C3322 1.362 . S
C3322 H3314 0.930 . S
C3322 C3321 1.362 . S
C3322 C3325 1.409 . S
C3323 H3315 0.930 . S
C3323 C3324 1.355 . S
C3323 C3325 1.415 . S
C3324 C3323 1.355 . S
C3324 C3326 1.419 . S
C3325 C3320 1.425 . S
C3325 C3322 1.409 . S
C3325 C3323 1.415 . S
C3326 H3316 0.930 . S
C3326 C3324 1.419 . S
C3326 C3327 1.362 . S
C3327 H3317 0.930 . S
C3327 C3320 1.409 . S
C3327 C3326 1.362 . S
H3328 C3334 0.930 . S
H3329 C3337 0.930 . S
H3330 C3338 0.930 . S
H3331 C3339 0.930 . S
H3332 C3342 0.930 . S
H3333 C3343 0.930 . S
C3334 H3328 0.930 . S
C3334 C3335 1.355 . S
C3334 C3336 1.415 . S
C3335 C3334 1.355 . S
C3335 C3337 1.419 . S
C3336 C3334 1.415 . S
C3336 C3341 1.425 . S
C3336 C3343 1.409 . S
C3337 H3329 0.930 . S
C3337 C3335 1.419 . S
C3337 C3338 1.362 . S
C3338 H3330 0.930 . S
C3338 C3337 1.362 . S
C3338 C3341 1.409 . S
C3339 H3331 0.930 . S
C3339 C3340 1.355 . S
C3339 C3341 1.415 . S
C3340 C3339 1.355 . S
C3340 C3342 1.419 . S
C3341 C3336 1.425 . S
C3341 C3338 1.409 . S
C3341 C3339 1.415 . S
C3342 H3332 0.930 . S
C3342 C3340 1.419 . S
C3342 C3343 1.362 . S
C3343 H3333 0.930 . S
C3343 C3336 1.409 . S
C3343 C3342 1.362 . S
H3344 C3350 0.930 . S
H3345 C3353 0.930 . S
H3346 C3354 0.930 . S
H3347 C3355 0.930 . S
H3348 C3358 0.930 . S
H3349 C3359 0.930 . S
C3350 H3344 0.930 . S
C3350 C3351 1.355 . S
C3350 C3352 1.415 . S
C3351 C3350 1.355 . S
C3351 C3353 1.419 . S
C3352 C3350 1.415 . S
C3352 C3357 1.425 . S
C3352 C3359 1.409 . S
C3353 H3345 0.930 . S
C3353 C3351 1.419 . S
C3353 C3354 1.362 . S
C3354 H3346 0.930 . S
C3354 C3353 1.362 . S
C3354 C3357 1.409 . S
C3355 H3347 0.930 . S
C3355 C3356 1.355 . S
C3355 C3357 1.415 . S
C3356 C3355 1.355 . S
C3356 C3358 1.419 . S
C3357 C3352 1.425 . S
C3357 C3354 1.409 . S
C3357 C3355 1.415 . S
C3358 H3348 0.930 . S
C3358 C3356 1.419 . S
C3358 C3359 1.362 . S
C3359 H3349 0.930 . S
C3359 C3352 1.409 . S
C3359 C3358 1.362 . S
H3360 C3366 0.930 . S
H3361 C3369 0.930 . S
H3362 C3370 0.930 . S
H3363 C3371 0.930 . S
H3364 C3374 0.930 . S
H3365 C3375 0.930 . S
C3366 H3360 0.930 . S
C3366 C3367 1.355 . S
C3366 C3368 1.415 . S
C3367 C3366 1.355 . S
C3367 C3369 1.419 . S
C3368 C3366 1.415 . S
C3368 C3373 1.425 . S
C3368 C3375 1.409 . S
C3369 H3361 0.930 . S
C3369 C3367 1.419 . S
C3369 C3370 1.362 . S
C3370 H3362 0.930 . S
C3370 C3369 1.362 . S
C3370 C3373 1.409 . S
C3371 H3363 0.930 . S
C3371 C3372 1.355 . S
C3371 C3373 1.415 . S
C3372 C3371 1.355 . S
C3372 C3374 1.419 . S
C3373 C3368 1.425 . S
C3373 C3370 1.409 . S
C3373 C3371 1.415 . S
C3374 H3364 0.930 . S
C3374 C3372 1.419 . S
C3374 C3375 1.362 . S
C3375 H3365 0.930 . S
C3375 C3368 1.409 . S
C3375 C3374 1.362 . S
H3376 C3382 0.930 . S
H3377 C3385 0.930 . S
H3378 C3386 0.930 . S
H3379 C3387 0.930 . S
H3380 C3390 0.930 . S
H3381 C3391 0.930 . S
C3382 H3376 0.930 . S
C3382 C3383 1.355 . S
C3382 C3384 1.415 . S
C3383 C3382 1.355 . S
C3383 C3385 1.419 . S
C3384 C3382 1.415 . S
C3384 C3389 1.425 . S
C3384 C3391 1.409 . S
C3385 H3377 0.930 . S
C3385 C3383 1.419 . S
C3385 C3386 1.362 . S
C3386 H3378 0.930 . S
C3386 C3385 1.362 . S
C3386 C3389 1.409 . S
C3387 H3379 0.930 . S
C3387 C3388 1.355 . S
C3387 C3389 1.415 . S
C3388 C3387 1.355 . S
C3388 C3390 1.419 . S
C3389 C3384 1.425 . S
C3389 C3386 1.409 . S
C3389 C3387 1.415 . S
C3390 H3380 0.930 . S
C3390 C3388 1.419 . S
C3390 C3391 1.362 . S
C3391 H3381 0.930 . S
C3391 C3384 1.409 . S
C3391 C3390 1.362 . S
H3392 C3398 0.930 . S
H3393 C3401 0.930 . S
H3394 C3402 0.930 . S
H3395 C3403 0.930 . S
H3396 C3406 0.930 . S
H3397 C3407 0.930 . S
C3398 H3392 0.930 . S
C3398 C3399 1.355 . S
C3398 C3400 1.415 . S
C3399 C3398 1.355 . S
C3399 C3401 1.419 . S
C3400 C3398 1.415 . S
C3400 C3405 1.425 . S
C3400 C3407 1.409 . S
C3401 H3393 0.930 . S
C3401 C3399 1.419 . S
C3401 C3402 1.362 . S
C3402 H3394 0.930 . S
C3402 C3401 1.362 . S
C3402 C3405 1.409 . S
C3403 H3395 0.930 . S
C3403 C3404 1.355 . S
C3403 C3405 1.415 . S
C3404 C3403 1.355 . S
C3404 C3406 1.419 . S
C3405 C3400 1.425 . S
C3405 C3402 1.409 . S
C3405 C3403 1.415 . S
C3406 H3396 0.930 . S
C3406 C3404 1.419 . S
C3406 C3407 1.362 . S
C3407 H3397 0.930 . S
C3407 C3400 1.409 . S
C3407 C3406 1.362 . S
H3408 C3414 0.930 . S
H3409 C3417 0.930 . S
H3410 C3418 0.930 . S
H3411 C3419 0.930 . S
H3412 C3422 0.930 . S
H3413 C3423 0.930 . S
C3414 H3408 0.930 . S
C3414 C3415 1.355 . S
C3414 C3416 1.415 . S
C3415 C3414 1.355 . S
C3415 C3417 1.419 . S
C3416 C3414 1.415 . S
C3416 C3421 1.425 . S
C3416 C3423 1.409 . S
C3417 H3409 0.930 . S
C3417 C3415 1.419 . S
C3417 C3418 1.362 . S
C3418 H3410 0.930 . S
C3418 C3417 1.362 . S
C3418 C3421 1.409 . S
C3419 H3411 0.930 . S
C3419 C3420 1.355 . S
C3419 C3421 1.415 . S
C3420 C3419 1.355 . S
C3420 C3422 1.419 . S
C3421 C3416 1.425 . S
C3421 C3418 1.409 . S
C3421 C3419 1.415 . S
C3422 H3412 0.930 . S
C3422 C3420 1.419 . S
C3422 C3423 1.362 . S
C3423 H3413 0.930 . S
C3423 C3416 1.409 . S
C3423 C3422 1.362 . S
H3424 C3430 0.930 . S
H3425 C3433 0.930 . S
H3426 C3434 0.930 . S
H3427 C3435 0.930 . S
H3428 C3438 0.930 . S
H3429 C3439 0.930 . S
C3430 H3424 0.930 . S
C3430 C3431 1.355 . S
C3430 C3432 1.415 . S
C3431 C3430 1.355 . S
C3431 C3433 1.419 . S
C3432 C3430 1.415 . S
C3432 C3437 1.425 . S
C3432 C3439 1.409 . S
C3433 H3425 0.930 . S
C3433 C3431 1.419 . S
C3433 C3434 1.362 . S
C3434 H3426 0.930 . S
C3434 C3433 1.362 . S
C3434 C3437 1.409 . S
C3435 H3427 0.930 . S
C3435 C3436 1.355 . S
C3435 C3437 1.415 . S
C3436 C3435 1.355 . S
C3436 C3438 1.419 . S
C3437 C3432 1.425 . S
C3437 C3434 1.409 . S
C3437 C3435 1.415 . S
C3438 H3428 0.930 . S
C3438 C3436 1.419 . S
C3438 C3439 1.362 . S
C3439 H3429 0.930 . S
C3439 C3432 1.409 . S
C3439 C3438 1.362 . S
H3440 C3446 0.930 . S
H3441 C3449 0.930 . S
H3442 C3450 0.930 . S
H3443 C3451 0.930 . S
H3444 C3454 0.930 . S
H3445 C3455 0.930 . S
C3446 H3440 0.930 . S
C3446 C3447 1.355 . S
C3446 C3448 1.415 . S
C3447 C3446 1.355 . S
C3447 C3449 1.419 . S
C3448 C3446 1.415 . S
C3448 C3453 1.425 . S
C3448 C3455 1.409 . S
C3449 H3441 0.930 . S
C3449 C3447 1.419 . S
C3449 C3450 1.362 . S
C3450 H3442 0.930 . S
C3450 C3449 1.362 . S
C3450 C3453 1.409 . S
C3451 H3443 0.930 . S
C3451 C3452 1.355 . S
C3451 C3453 1.415 . S
C3452 C3451 1.355 . S
C3452 C3454 1.419 . S
C3453 C3448 1.425 . S
C3453 C3450 1.409 . S
C3453 C3451 1.415 . S
C3454 H3444 0.930 . S
C3454 C3452 1.419 . S
C3454 C3455 1.362 . S
C3455 H3445 0.930 . S
C3455 C3448 1.409 . S
C3455 C3454 1.362 . S
H3456 C3462 0.930 . S
H3457 C3465 0.930 . S
H3458 C3466 0.930 . S
H3459 C3467 0.930 . S
H3460 C3470 0.930 . S
H3461 C3471 0.930 . S
C3462 H3456 0.930 . S
C3462 C3463 1.355 . S
C3462 C3464 1.415 . S
C3463 C3462 1.355 . S
C3463 C3465 1.419 . S
C3464 C3462 1.415 . S
C3464 C3469 1.425 . S
C3464 C3471 1.409 . S
C3465 H3457 0.930 . S
C3465 C3463 1.419 . S
C3465 C3466 1.362 . S
C3466 H3458 0.930 . S
C3466 C3465 1.362 . S
C3466 C3469 1.409 . S
C3467 H3459 0.930 . S
C3467 C3468 1.355 . S
C3467 C3469 1.415 . S
C3468 C3467 1.355 . S
C3468 C3470 1.419 . S
C3469 C3464 1.425 . S
C3469 C3466 1.409 . S
C3469 C3467 1.415 . S
C3470 H3460 0.930 . S
C3470 C3468 1.419 . S
C3470 C3471 1.362 . S
C3471 H3461 0.930 . S
C3471 C3464 1.409 . S
C3471 C3470 1.362 . S
H3472 C3478 0.930 . S
H3473 C3481 0.930 . S
H3474 C3482 0.930 . S
H3475 C3483 0.930 . S
H3476 C3486 0.930 . S
H3477 C3487 0.930 . S
C3478 H3472 0.930 . S
C3478 C3479 1.355 . S
C3478 C3480 1.415 . S
C3479 C3478 1.355 . S
C3479 C3481 1.419 . S
C3480 C3478 1.415 . S
C3480 C3485 1.425 . S
C3480 C3487 1.409 . S
C3481 H3473 0.930 . S
C3481 C3479 1.419 . S
C3481 C3482 1.362 . S
C3482 H3474 0.930 . S
C3482 C3481 1.362 . S
C3482 C3485 1.409 . S
C3483 H3475 0.930 . S
C3483 C3484 1.355 . S
C3483 C3485 1.415 . S
C3484 C3483 1.355 . S
C3484 C3486 1.419 . S
C3485 C3480 1.425 . S
C3485 C3482 1.409 . S
C3485 C3483 1.415 . S
C3486 H3476 0.930 . S
C3486 C3484 1.419 . S
C3486 C3487 1.362 . S
C3487 H3477 0.930 . S
C3487 C3480 1.409 . S
C3487 C3486 1.362 . S
H3488 C3494 0.930 . S
H3489 C3497 0.930 . S
H3490 C3498 0.930 . S
H3491 C3499 0.930 . S
H3492 C3502 0.930 . S
H3493 C3503 0.930 . S
C3494 H3488 0.930 . S
C3494 C3495 1.355 . S
C3494 C3496 1.415 . S
C3495 C3494 1.355 . S
C3495 C3497 1.419 . S
C3496 C3494 1.415 . S
C3496 C3501 1.425 . S
C3496 C3503 1.409 . S
C3497 H3489 0.930 . S
C3497 C3495 1.419 . S
C3497 C3498 1.362 . S
C3498 H3490 0.930 . S
C3498 C3497 1.362 . S
C3498 C3501 1.409 . S
C3499 H3491 0.930 . S
C3499 C3500 1.355 . S
C3499 C3501 1.415 . S
C3500 C3499 1.355 . S
C3500 C3502 1.419 . S
C3501 C3496 1.425 . S
C3501 C3498 1.409 . S
C3501 C3499 1.415 . S
C3502 H3492 0.930 . S
C3502 C3500 1.419 . S
C3502 C3503 1.362 . S
C3503 H3493 0.930 . S
C3503 C3496 1.409 . S
C3503 C3502 1.362 . S
H3504 C3510 0.930 . S
H3505 C3513 0.930 . S
H3506 C3514 0.930 . S
H3507 C3515 0.930 . S
H3508 C3518 0.930 . S
H3509 C3519 0.930 . S
C3510 H3504 0.930 . S
C3510 C3511 1.355 . S
C3510 C3512 1.415 . S
C3511 C3510 1.355 . S
C3511 C3513 1.419 . S
C3512 C3510 1.415 . S
C3512 C3517 1.425 . S
C3512 C3519 1.409 . S
C3513 H3505 0.930 . S
C3513 C3511 1.419 . S
C3513 C3514 1.362 . S
C3514 H3506 0.930 . S
C3514 C3513 1.362 . S
C3514 C3517 1.409 . S
C3515 H3507 0.930 . S
C3515 C3516 1.355 . S
C3515 C3517 1.415 . S
C3516 C3515 1.355 . S
C3516 C3518 1.419 . S
C3517 C3512 1.425 . S
C3517 C3514 1.409 . S
C3517 C3515 1.415 . S
C3518 H3508 0.930 . S
C3518 C3516 1.419 . S
C3518 C3519 1.362 . S
C3519 H3509 0.930 . S
C3519 C3512 1.409 . S
C3519 C3518 1.362 . S
H3520 C3526 0.930 . S
H3521 C3529 0.930 . S
H3522 C3530 0.930 . S
H3523 C3531 0.930 . S
H3524 C3534 0.930 . S
H3525 C3535 0.930 . S
C3526 H3520 0.930 . S
C3526 C3527 1.355 . S
C3526 C3528 1.415 . S
C3527 C3526 1.355 . S
C3527 C3529 1.419 . S
C3528 C3526 1.415 . S
C3528 C3533 1.425 . S
C3528 C3535 1.409 . S
C3529 H3521 0.930 . S
C3529 C3527 1.419 . S
C3529 C3530 1.362 . S
C3530 H3522 0.930 . S
C3530 C3529 1.362 . S
C3530 C3533 1.409 . S
C3531 H3523 0.930 . S
C3531 C3532 1.355 . S
C3531 C3533 1.415 . S
C3532 C3531 1.355 . S
C3532 C3534 1.419 . S
C3533 C3528 1.425 . S
C3533 C3530 1.409 . S
C3533 C3531 1.415 . S
C3534 H3524 0.930 . S
C3534 C3532 1.419 . S
C3534 C3535 1.362 . S
C3535 H3525 0.930 . S
C3535 C3528 1.409 . S
C3535 C3534 1.362 . S
H3536 C3542 0.930 . S
H3537 C3545 0.930 . S
H3538 C3546 0.930 . S
H3539 C3547 0.930 . S
H3540 C3550 0.930 . S
H3541 C3551 0.930 . S
C3542 H3536 0.930 . S
C3542 C3543 1.355 . S
C3542 C3544 1.415 . S
C3543 C3542 1.355 . S
C3543 C3545 1.419 . S
C3544 C3542 1.415 . S
C3544 C3549 1.425 . S
C3544 C3551 1.409 . S
C3545 H3537 0.930 . S
C3545 C3543 1.419 . S
C3545 C3546 1.362 . S
C3546 H3538 0.930 . S
C3546 C3545 1.362 . S
C3546 C3549 1.409 . S
C3547 H3539 0.930 . S
C3547 C3548 1.355 . S
C3547 C3549 1.415 . S
C3548 C3547 1.355 . S
C3548 C3550 1.419 . S
C3549 C3544 1.425 . S
C3549 C3546 1.409 . S
C3549 C3547 1.415 . S
C3550 H3540 0.930 . S
C3550 C3548 1.419 . S
C3550 C3551 1.362 . S
C3551 H3541 0.930 . S
C3551 C3544 1.409 . S
C3551 C3550 1.362 . S
H3552 C3558 0.930 . S
H3553 C3561 0.930 . S
H3554 C3562 0.930 . S
H3555 C3563 0.930 . S
H3556 C3566 0.930 . S
H3557 C3567 0.930 . S
C3558 H3552 0.930 . S
C3558 C3559 1.355 . S
C3558 C3560 1.415 . S
C3559 C3558 1.355 . S
C3559 C3561 1.419 . S
C3560 C3558 1.415 . S
C3560 C3565 1.425 . S
C3560 C3567 1.409 . S
C3561 H3553 0.930 . S
C3561 C3559 1.419 . S
C3561 C3562 1.362 . S
C3562 H3554 0.930 . S
C3562 C3561 1.362 . S
C3562 C3565 1.409 . S
C3563 H3555 0.930 . S
C3563 C3564 1.355 . S
C3563 C3565 1.415 . S
C3564 C3563 1.355 . S
C3564 C3566 1.419 . S
C3565 C3560 1.425 . S
C3565 C3562 1.409 . S
C3565 C3563 1.415 . S
C3566 H3556 0.930 . S
C3566 C3564 1.419 . S
C3566 C3567 1.362 . S
C3567 H3557 0.930 . S
C3567 C3560 1.409 . S
C3567 C3566 1.362 . S
H3568 C3574 0.930 . S
H3569 C3577 0.930 . S
H3570 C3578 0.930 . S
H3571 C3579 0.930 . S
H3572 C3582 0.930 . S
H3573 C3583 0.930 . S
C3574 H3568 0.930 . S
C3574 C3575 1.355 . S
C3574 C3576 1.415 . S
C3575 C3574 1.355 . S
C3575 C3577 1.419 . S
C3576 C3574 1.415 . S
C3576 C3581 1.425 . S
C3576 C3583 1.409 . S
C3577 H3569 0.930 . S
C3577 C3575 1.419 . S
C3577 C3578 1.362 . S
C3578 H3570 0.930 . S
C3578 C3577 1.362 . S
C3578 C3581 1.409 . S
C3579 H3571 0.930 . S
C3579 C3580 1.355 . S
C3579 C3581 1.415 . S
C3580 C3579 1.355 . S
C3580 C3582 1.419 . S
C3581 C3576 1.425 . S
C3581 C3578 1.409 . S
C3581 C3579 1.415 . S
C3582 H3572 0.930 . S
C3582 C3580 1.419 . S
C3582 C3583 1.362 . S
C3583 H3573 0.930 . S
C3583 C3576 1.409 . S
C3583 C3582 1.362 . S
H3584 C3590 0.930 . S
H3585 C3593 0.930 . S
H3586 C3594 0.930 . S
H3587 C3595 0.930 . S
H3588 C3598 0.930 . S
H3589 C3599 0.930 . S
C3590 H3584 0.930 . S
C3590 C3591 1.355 . S
C3590 C3592 1.415 . S
C3591 C3590 1.355 . S
C3591 C3593 1.419 . S
C3592 C3590 1.415 . S
C3592 C3597 1.425 . S
C3592 C3599 1.409 . S
C3593 H3585 0.930 . S
C3593 C3591 1.419 . S
C3593 C3594 1.362 . S
C3594 H3586 0.930 . S
C3594 C3593 1.362 . S
C3594 C3597 1.409 . S
C3595 H3587 0.930 . S
C3595 C3596 1.355 . S
C3595 C3597 1.415 . S
C3596 C3595 1.355 . S
C3596 C3598 1.419 . S
C3597 C3592 1.425 . S
C3597 C3594 1.409 . S
C3597 C3595 1.415 . S
C3598 H3588 0.930 . S
C3598 C3596 1.419 . S
C3598 C3599 1.362 . S
C3599 H3589 0.930 . S
C3599 C3592 1.409 . S
C3599 C3598 1.362 . S
H3600 C3606 0.930 . S
H3601 C3609 0.930 . S
H3602 C3610 0.930 . S
H3603 C3611 0.930 . S
H3604 C3614 0.930 . S
H3605 C3615 0.930 . S
C3606 H3600 0.930 . S
C3606 C3607 1.355 . S
C3606 C3608 1.415 . S
C3607 C3606 1.355 . S
C3607 C3609 1.419 . S
C3608 C3606 1.415 . S
C3608 C3613 1.425 . S
C3608 C3615 1.409 . S
C3609 H3601 0.930 . S
C3609 C3607 1.419 . S
C3609 C3610 1.362 . S
C3610 H3602 0.930 . S
C3610 C3609 1.362 . S
C3610 C3613 1.409 . S
C3611 H3603 0.930 . S
C3611 C3612 1.355 . S
C3611 C3613 1.415 . S
C3612 C3611 1.355 . S
C3612 C3614 1.419 . S
C3613 C3608 1.425 . S
C3613 C3610 1.409 . S
C3613 C3611 1.415 . S
C3614 H3604 0.930 . S
C3614 C3612 1.419 . S
C3614 C3615 1.362 . S
C3615 H3605 0.930 . S
C3615 C3608 1.409 . S
C3615 C3614 1.362 . S
H3616 C3622 0.930 . S
H3617 C3625 0.930 . S
H3618 C3626 0.930 . S
H3619 C3627 0.930 . S
H3620 C3630 0.930 . S
H3621 C3631 0.930 . S
C3622 H3616 0.930 . S
C3622 C3623 1.355 . S
C3622 C3624 1.415 . S
C3623 C3622 1.355 . S
C3623 C3625 1.419 . S
C3624 C3622 1.415 . S
C3624 C3629 1.425 . S
C3624 C3631 1.409 . S
C3625 H3617 0.930 . S
C3625 C3623 1.419 . S
C3625 C3626 1.362 . S
C3626 H3618 0.930 . S
C3626 C3625 1.362 . S
C3626 C3629 1.409 . S
C3627 H3619 0.930 . S
C3627 C3628 1.355 . S
C3627 C3629 1.415 . S
C3628 C3627 1.355 . S
C3628 C3630 1.419 . S
C3629 C3624 1.425 . S
C3629 C3626 1.409 . S
C3629 C3627 1.415 . S
C3630 H3620 0.930 . S
C3630 C3628 1.419 . S
C3630 C3631 1.362 . S
C3631 H3621 0.930 . S
C3631 C3624 1.409 . S
C3631 C3630 1.362 . S
H3632 C3638 0.930 . S
H3633 C3641 0.930 . S
H3634 C3642 0.930 . S
H3635 C3643 0.930 . S
H3636 C3646 0.930 . S
H3637 C3647 0.930 . S
C3638 H3632 0.930 . S
C3638 C3639 1.355 . S
C3638 C3640 1.415 . S
C3639 C3638 1.355 . S
C3639 C3641 1.419 . S
C3640 C3638 1.415 . S
C3640 C3645 1.425 . S
C3640 C3647 1.409 . S
C3641 H3633 0.930 . S
C3641 C3639 1.419 . S
C3641 C3642 1.362 . S
C3642 H3634 0.930 . S
C3642 C3641 1.362 . S
C3642 C3645 1.409 . S
C3643 H3635 0.930 . S
C3643 C3644 1.355 . S
C3643 C3645 1.415 . S
C3644 C3643 1.355 . S
C3644 C3646 1.419 . S
C3645 C3640 1.425 . S
C3645 C3642 1.409 . S
C3645 C3643 1.415 . S
C3646 H3636 0.930 . S
C3646 C3644 1.419 . S
C3646 C3647 1.362 . S
C3647 H3637 0.930 . S
C3647 C3640 1.409 . S
C3647 C3646 1.362 . S
H3648 C3654 0.930 . S
H3649 C3657 0.930 . S
H3650 C3658 0.930 . S
H3651 C3659 0.930 . S
H3652 C3662 0.930 . S
H3653 C3663 0.930 . S
C3654 H3648 0.930 . S
C3654 C3655 1.355 . S
C3654 C3656 1.415 . S
C3655 C3654 1.355 . S
C3655 C3657 1.419 . S
C3656 C3654 1.415 . S
C3656 C3661 1.425 . S
C3656 C3663 1.409 . S
C3657 H3649 0.930 . S
C3657 C3655 1.419 . S
C3657 C3658 1.362 . S
C3658 H3650 0.930 . S
C3658 C3657 1.362 . S
C3658 C3661 1.409 . S
C3659 H3651 0.930 . S
C3659 C3660 1.355 . S
C3659 C3661 1.415 . S
C3660 C3659 1.355 . S
C3660 C3662 1.419 . S
C3661 C3656 1.425 . S
C3661 C3658 1.409 . S
C3661 C3659 1.415 . S
C3662 H3652 0.930 . S
C3662 C3660 1.419 . S
C3662 C3663 1.362 . S
C3663 H3653 0.930 . S
C3663 C3656 1.409 . S
C3663 C3662 1.362 . S
H3664 C3670 0.930 . S
H3665 C3673 0.930 . S
H3666 C3674 0.930 . S
H3667 C3675 0.930 . S
H3668 C3678 0.930 . S
H3669 C3679 0.930 . S
C3670 H3664 0.930 . S
C3670 C3671 1.355 . S
C3670 C3672 1.415 . S
C3671 C3670 1.355 . S
C3671 C3673 1.419 . S
C3672 C3670 1.415 . S
C3672 C3677 1.425 . S
C3672 C3679 1.409 . S
C3673 H3665 0.930 . S
C3673 C3671 1.419 . S
C3673 C3674 1.362 . S
C3674 H3666 0.930 . S
C3674 C3673 1.362 . S
C3674 C3677 1.409 . S
C3675 H3667 0.930 . S
C3675 C3676 1.355 . S
C3675 C3677 1.415 . S
C3676 C3675 1.355 . S
C3676 C3678 1.419 . S
C3677 C3672 1.425 . S
C3677 C3674 1.409 . S
C3677 C3675 1.415 . S
C3678 H3668 0.930 . S
C3678 C3676 1.419 . S
C3678 C3679 1.362 . S
C3679 H3669 0.930 . S
C3679 C3672 1.409 . S
C3679 C3678 1.362 . S
H3680 C3686 0.930 . S
H3681 C3689 0.930 . S
H3682 C3690 0.930 . S
H3683 C3691 0.930 . S
H3684 C3694 0.930 . S
H3685 C3695 0.930 . S
C3686 H3680 0.930 . S
C3686 C3687 1.355 . S
C3686 C3688 1.415 . S
C3687 C3686 1.355 . S
C3687 C3689 1.419 . S
C3688 C3686 1.415 . S
C3688 C3693 1.425 . S
C3688 C3695 1.409 . S
C3689 H3681 0.930 . S
C3689 C3687 1.419 . S
C3689 C3690 1.362 . S
C3690 H3682 0.930 . S
C3690 C3689 1.362 . S
C3690 C3693 1.409 . S
C3691 H3683 0.930 . S
C3691 C3692 1.355 . S
C3691 C3693 1.415 . S
C3692 C3691 1.355 . S
C3692 C3694 1.419 . S
C3693 C3688 1.425 . S
C3693 C3690 1.409 . S
C3693 C3691 1.415 . S
C3694 H3684 0.930 . S
C3694 C3692 1.419 . S
C3694 C3695 1.362 . S
C3695 H3685 0.930 . S
C3695 C3688 1.409 . S
C3695 C3694 1.362 . S
H3696 C3702 0.930 . S
H3697 C3705 0.930 . S
H3698 C3706 0.930 . S
H3699 C3707 0.930 . S
H3700 C3710 0.930 . S
H3701 C3711 0.930 . S
C3702 H3696 0.930 . S
C3702 C3703 1.355 . S
C3702 C3704 1.415 . S
C3703 C3702 1.355 . S
C3703 C3705 1.419 . S
C3704 C3702 1.415 . S
C3704 C3709 1.425 . S
C3704 C3711 1.409 . S
C3705 H3697 0.930 . S
C3705 C3703 1.419 . S
C3705 C3706 1.362 . S
C3706 H3698 0.930 . S
C3706 C3705 1.362 . S
C3706 C3709 1.409 . S
C3707 H3699 0.930 . S
C3707 C3708 1.355 . S
C3707 C3709 1.415 . S
C3708 C3707 1.355 . S
C3708 C3710 1.419 . S
C3709 C3704 1.425 . S
C3709 C3706 1.409 . S
C3709 C3707 1.415 . S
C3710 H3700 0.930 . S
C3710 C3708 1.419 . S
C3710 C3711 1.362 . S
C3711 H3701 0.930 . S
C3711 C3704 1.409 . S
C3711 C3710 1.362 . S
H3712 C3718 0.930 . S
H3713 C3721 0.930 . S
H3714 C3722 0.930 . S
H3715 C3723 0.930 . S
H3716 C3726 0.930 . S
H3717 C3727 0.930 . S
C3718 H3712 0.930 . S
C3718 C3719 1.355 . S
C3718 C3720 1.415 . S
C3719 C3718 1.355 . S
C3719 C3721 1.419 . S
C3720 C3718 1.415 . S
C3720 C3725 1.425 . S
C3720 C3727 1.409 . S
C3721 H3713 0.930 . S
C3721 C3719 1.419 . S
C3721 C3722 1.362 . S
C3722 H3714 0.930 . S
C3722 C3721 1.362 . S
C3722 C3725 1.409 . S
C3723 H3715 0.930 . S
C3723 C3724 1.355 . S
C3723 C3725 1.415 . S
C3724 C3723 1.355 . S
C3724 C3726 1.419 . S
C3725 C3720 1.425 . S
C3725 C3722 1.409 . S
C3725 C3723 1.415 . S
C3726 H3716 0.930 . S
C3726 C3724 1.419 . S
C3726 C3727 1.362 . S
C3727 H3717 0.930 . S
C3727 C3720 1.409 . S
C3727 C3726 1.362 . S
H3728 C3734 0.930 . S
H3729 C3737 0.930 . S
H3730 C3738 0.930 . S
H3731 C3739 0.930 . S
H3732 C3742 0.930 . S
H3733 C3743 0.930 . S
C3734 H3728 0.930 . S
C3734 C3735 1.355 . S
C3734 C3736 1.415 . S
C3735 C3734 1.355 . S
C3735 C3737 1.419 . S
C3736 C3734 1.415 . S
C3736 C3741 1.425 . S
C3736 C3743 1.409 . S
C3737 H3729 0.930 . S
C3737 C3735 1.419 . S
C3737 C3738 1.362 . S
C3738 H3730 0.930 . S
C3738 C3737 1.362 . S
C3738 C3741 1.409 . S
C3739 H3731 0.930 . S
C3739 C3740 1.355 . S
C3739 C3741 1.415 . S
C3740 C3739 1.355 . S
C3740 C3742 1.419 . S
C3741 C3736 1.425 . S
C3741 C3738 1.409 . S
C3741 C3739 1.415 . S
C3742 H3732 0.930 . S
C3742 C3740 1.419 . S
C3742 C3743 1.362 . S
C3743 H3733 0.930 . S
C3743 C3736 1.409 . S
C3743 C3742 1.362 . S
H3744 C3750 0.930 . S
H3745 C3753 0.930 . S
H3746 C3754 0.930 . S
H3747 C3755 0.930 . S
H3748 C3758 0.930 . S
H3749 C3759 0.930 . S
C3750 H3744 0.930 . S
C3750 C3751 1.355 . S
C3750 C3752 1.415 . S
C3751 C3750 1.355 . S
C3751 C3753 1.419 . S
C3752 C3750 1.415 . S
C3752 C3757 1.425 . S
C3752 C3759 1.409 . S
C3753 H3745 0.930 . S
C3753 C3751 1.419 . S
C3753 C3754 1.362 . S
C3754 H3746 0.930 . S
C3754 C3753 1.362 . S
C3754 C3757 1.409 . S
C3755 H3747 0.930 . S
C3755 C3756 1.355 . S
C3755 C3757 1.415 . S
C3756 C3755 1.355 . S
C3756 C3758 1.419 . S
C3757 C3752 1.425 . S
C3757 C3754 1.409 . S
C3757 C3755 1.415 . S
C3758 H3748 0.930 . S
C3758 C3756 1.419 . S
C3758 C3759 1.362 . S
C3759 H3749 0.930 . S
C3759 C3752 1.409 . S
C3759 C3758 1.362 . S
H3760 C3766 0.930 . S
H3761 C3769 0.930 . S
H3762 C3770 0.930 . S
H3763 C3771 0.930 . S
H3764 C3774 0.930 . S
H3765 C3775 0.930 . S
C3766 H3760 0.930 . S
C3766 C3767 1.355 . S
C3766 C3768 1.415 . S
C3767 C3766 1.355 . S
C3767 C3769 1.419 . S
C3768 C3766 1.415 . S
C3768 C3773 1.425 . S
C3768 C3775 1.409 . S
C3769 H3761 0.930 . S
C3769 C3767 1.419 . S
C3769 C3770 1.362 . S
C3770 H3762 0.930 . S
C3770 C3769 1.362 . S
C3770 C3773 1.409 . S
C3771 H3763 0.930 . S
C3771 C3772 1.355 . S
C3771 C3773 1.415 . S
C3772 C3771 1.355 . S
C3772 C3774 1.419 . S
C3773 C3768 1.425 . S
C3773 C3770 1.409 . S
C3773 C3771 1.415 . S
C3774 H3764 0.930 . S
C3774 C3772 1.419 . S
C3774 C3775 1.362 . S
C3775 H3765 0.930 . S
C3775 C3768 1.409 . S
C3775 C3774 1.362 . S
H3776 C3782 0.930 . S
H3777 C3785 0.930 . S
H3778 C3786 0.930 . S
H3779 C3787 0.930 . S
H3780 C3790 0.930 . S
H3781 C3791 0.930 . S
C3782 H3776 0.930 . S
C3782 C3783 1.355 . S
C3782 C3784 1.415 . S
C3783 C3782 1.355 . S
C3783 C3785 1.419 . S
C3784 C3782 1.415 . S
C3784 C3789 1.425 . S
C3784 C3791 1.409 . S
C3785 H3777 0.930 . S
C3785 C3783 1.419 . S
C3785 C3786 1.362 . S
C3786 H3778 0.930 . S
C3786 C3785 1.362 . S
C3786 C3789 1.409 . S
C3787 H3779 0.930 . S
C3787 C3788 1.355 . S
C3787 C3789 1.415 . S
C3788 C3787 1.355 . S
C3788 C3790 1.419 . S
C3789 C3784 1.425 . S
C3789 C3786 1.409 . S
C3789 C3787 1.415 . S
C3790 H3780 0.930 . S
C3790 C3788 1.419 . S
C3790 C3791 1.362 . S
C3791 H3781 0.930 . S
C3791 C3784 1.409 . S
C3791 C3790 1.362 . S
H3792 C3798 0.930 . S
H3793 C3801 0.930 . S
H3794 C3802 0.930 . S
H3795 C3803 0.930 . S
H3796 C3806 0.930 . S
H3797 C3807 0.930 . S
C3798 H3792 0.930 . S
C3798 C3799 1.355 . S
C3798 C3800 1.415 . S
C3799 C3798 1.355 . S
C3799 C3801 1.419 . S
C3800 C3798 1.415 . S
C3800 C3805 1.425 . S
C3800 C3807 1.409 . S
C3801 H3793 0.930 . S
C3801 C3799 1.419 . S
C3801 C3802 1.362 . S
C3802 H3794 0.930 . S
C3802 C3801 1.362 . S
C3802 C3805 1.409 . S
C3803 H3795 0.930 . S
C3803 C3804 1.355 . S
C3803 C3805 1.415 . S
C3804 C3803 1.355 . S
C3804 C3806 1.419 . S
C3805 C3800 1.425 . S
C3805 C3802 1.409 . S
C3805 C3803 1.415 . S
C3806 H3796 0.930 . S
C3806 C3804 1.419 . S
C3806 C3807 1.362 . S
C3807 H3797 0.930 . S
C3807 C3800 1.409 . S
C3807 C3806 1.362 . S
H3808 C3814 0.930 . S
H3809 C3817 0.930 . S
H3810 C3818 0.930 . S
H3811 C3819 0.930 . S
H3812 C3822 0.930 . S
H3813 C3823 0.930 . S
C3814 H3808 0.930 . S
C3814 C3815 1.355 . S
C3814 C3816 1.415 . S
C3815 C3814 1.355 . S
C3815 C3817 1.419 . S
C3816 C3814 1.415 . S
C3816 C3821 1.425 . S
C3816 C3823 1.409 . S
C3817 H3809 0.930 . S
C3817 C3815 1.419 . S
C3817 C3818 1.362 . S
C3818 H3810 0.930 . S
C3818 C3817 1.362 . S
C3818 C3821 1.409 . S
C3819 H3811 0.930 . S
C3819 C3820 1.355 . S
C3819 C3821 1.415 . S
C3820 C3819 1.355 . S
C3820 C3822 1.419 . S
C3821 C3816 1.425 . S
C3821 C3818 1.409 . S
C3821 C3819 1.415 . S
C3822 H3812 0.930 . S
C3822 C3820 1.419 . S
C3822 C3823 1.362 . S
C3823 H3813 0.930 . S
C3823 C3816 1.409 . S
C3823 C3822 1.362 . S
H3824 C3830 0.930 . S
H3825 C3833 0.930 . S
H3826 C3834 0.930 . S
H3827 C3835 0.930 . S
H3828 C3838 0.930 . S
H3829 C3839 0.930 . S
C3830 H3824 0.930 . S
C3830 C3831 1.355 . S
C3830 C3832 1.415 . S
C3831 C3830 1.355 . S
C3831 C3833 1.419 . S
C3832 C3830 1.415 . S
C3832 C3837 1.425 . S
C3832 C3839 1.409 . S
C3833 H3825 0.930 . S
C3833 C3831 1.419 . S
C3833 C3834 1.362 . S
C3834 H3826 0.930 . S
C3834 C3833 1.362 . S
C3834 C3837 1.409 . S
C3835 H3827 0.930 . S
C3835 C3836 1.355 . S
C3835 C3837 1.415 . S
C3836 C3835 1.355 . S
C3836 C3838 1.419 . S
C3837 C3832 1.425 . S
C3837 C3834 1.409 . S
C3837 C3835 1.415 . S
C3838 H3828 0.930 . S
C3838 C3836 1.419 . S
C3838 C3839 1.362 . S
C3839 H3829 0.930 . S
C3839 C3832 1.409 . S
C3839 C3838 1.362 . S
H3840 C3846 0.930 . S
H3841 C3849 0.930 . S
H3842 C3850 0.930 . S
H3843 C3851 0.930 . S
H3844 C3854 0.930 . S
H3845 C3855 0.930 . S
C3846 H3840 0.930 . S
C3846 C3847 1.355 . S
C3846 C3848 1.415 . S
C3847 C3846 1.355 . S
C3847 C3849 1.419 . S
C3848 C3846 1.415 . S
C3848 C3853 1.425 . S
C3848 C3855 1.409 . S
C3849 H3841 0.930 . S
C3849 C3847 1.419 . S
C3849 C3850 1.362 . S
C3850 H3842 0.930 . S
C3850 C3849 1.362 . S
C3850 C3853 1.409 . S
C3851 H3843 0.930 . S
C3851 C3852 1.355 . S
C3851 C3853 1.415 . S
C3852 C3851 1.355 . S
C3852 C3854 1.419 . S
C3853 C3848 1.425 . S
C3853 C3850 1.409 . S
C3853 C3851 1.415 . S
C3854 H3844 0.930 . S
C3854 C3852 1.419 . S
C3854 C3855 1.362 . S
C3855 H3845 0.930 . S
C3855 C3848 1.409 . S
C3855 C3854 1.362 . S
H3856 C3862 0.930 . S
H3857 C3865 0.930 . S
H3858 C3866 0.930 . S
H3859 C3867 0.930 . S
H3860 C3870 0.930 . S
H3861 C3871 0.930 . S
C3862 H3856 0.930 . S
C3862 C3863 1.355 . S
C3862 C3864 1.415 . S
C3863 C3862 1.355 . S
C3863 C3865 1.419 . S
C3864 C3862 1.415 . S
C3864 C3869 1.425 . S
C3864 C3871 1.409 . S
C3865 H3857 0.930 . S
C3865 C3863 1.419 . S
C3865 C3866 1.362 . S
C3866 H3858 0.930 . S
C3866 C3865 1.362 . S
C3866 C3869 1.409 . S
C3867 H3859 0.930 . S
C3867 C3868 1.355 . S
C3867 C3869 1.415 . S
C3868 C3867 1.355 . S
C3868 C3870 1.419 . S
C3869 C3864 1.425 . S
C3869 C3866 1.409 . S
C3869 C3867 1.415 . S
C3870 H3860 0.930 . S
C3870 C3868 1.419 . S
C3870 C3871 1.362 . S
C3871 H3861 0.930 . S
C3871 C3864 1.409 . S
C3871 C3870 1.362 . S
H3872 C3878 0.930 . S
H3873 C3881 0.930 . S
H3874 C3882 0.930 . S
H3875 C3883 0.930 . S
H3876 C3886 0.930 . S
H3877 C3887 0.930 . S
C3878 H3872 0.930 . S
C3878 C3879 1.355 . S
C3878 C3880 1.415 . S
C3879 C3878 1.355 . S
C3879 C3881 1.419 . S
C3880 C3878 1.415 . S
C3880 C3885 1.425 . S
C3880 C3887 1.409 . S
C3881 H3873 0.930 . S
C3881 C3879 1.419 . S
C3881 C3882 1.362 . S
C3882 H3874 0.930 . S
C3882 C3881 1.362 . S
C3882 C3885 1.409 . S
C3883 H3875 0.930 . S
C3883 C3884 1.355 . S
C3883 C3885 1.415 . S
C3884 C3883 1.355 . S
C3884 C3886 1.419 . S
C3885 C3880 1.425 . S
C3885 C3882 1.409 . S
C3885 C3883 1.415 . S
C3886 H3876 0.930 . S
C3886 C3884 1.419 . S
C3886 C3887 1.362 . S
C3887 H3877 0.930 . S
C3887 C3880 1.409 . S
C3887 C3886 1.362 . S
H3888 C3894 0.930 . S
H3889 C3897 0.930 . S
H3890 C3898 0.930 . S
H3891 C3899 0.930 . S
H3892 C3902 0.930 . S
H3893 C3903 0.930 . S
C3894 H3888 0.930 . S
C3894 C3895 1.355 . S
C3894 C3896 1.415 . S
C3895 C3894 1.355 . S
C3895 C3897 1.419 . S
C3896 C3894 1.415 . S
C3896 C3901 1.425 . S
C3896 C3903 1.409 . S
C3897 H3889 0.930 . S
C3897 C3895 1.419 . S
C3897 C3898 1.362 . S
C3898 H3890 0.930 . S
C3898 C3897 1.362 . S
C3898 C3901 1.409 . S
C3899 H3891 0.930 . S
C3899 C3900 1.355 . S
C3899 C3901 1.415 . S
C3900 C3899 1.355 . S
C3900 C3902 1.419 . S
C3901 C3896 1.425 . S
C3901 C3898 1.409 . S
C3901 C3899 1.415 . S
C3902 H3892 0.930 . S
C3902 C3900 1.419 . S
C3902 C3903 1.362 . S
C3903 H3893 0.930 . S
C3903 C3896 1.409 . S
C3903 C3902 1.362 . S
H3904 C3910 0.930 . S
H3905 C3913 0.930 . S
H3906 C3914 0.930 . S
H3907 C3915 0.930 . S
H3908 C3918 0.930 . S
H3909 C3919 0.930 . S
C3910 H3904 0.930 . S
C3910 C3911 1.355 . S
C3910 C3912 1.415 . S
C3911 C3910 1.355 . S
C3911 C3913 1.419 . S
C3912 C3910 1.415 . S
C3912 C3917 1.425 . S
C3912 C3919 1.409 . S
C3913 H3905 0.930 . S
C3913 C3911 1.419 . S
C3913 C3914 1.362 . S
C3914 H3906 0.930 . S
C3914 C3913 1.362 . S
C3914 C3917 1.409 . S
C3915 H3907 0.930 . S
C3915 C3916 1.355 . S
C3915 C3917 1.415 . S
C3916 C3915 1.355 . S
C3916 C3918 1.419 . S
C3917 C3912 1.425 . S
C3917 C3914 1.409 . S
C3917 C3915 1.415 . S
C3918 H3908 0.930 . S
C3918 C3916 1.419 . S
C3918 C3919 1.362 . S
C3919 H3909 0.930 . S
C3919 C3912 1.409 . S
C3919 C3918 1.362 . S
H3920 C3926 0.930 . S
H3921 C3929 0.930 . S
H3922 C3930 0.930 . S
H3923 C3931 0.930 . S
H3924 C3934 0.930 . S
H3925 C3935 0.930 . S
C3926 H3920 0.930 . S
C3926 C3927 1.355 . S
C3926 C3928 1.415 . S
C3927 C3926 1.355 . S
C3927 C3929 1.419 . S
C3928 C3926 1.415 . S
C3928 C3933 1.425 . S
C3928 C3935 1.409 . S
C3929 H3921 0.930 . S
C3929 C3927 1.419 . S
C3929 C3930 1.362 . S
C3930 H3922 0.930 . S
C3930 C3929 1.362 . S
C3930 C3933 1.409 . S
C3931 H3923 0.930 . S
C3931 C3932 1.355 . S
C3931 C3933 1.415 . S
C3932 C3931 1.355 . S
C3932 C3934 1.419 . S
C3933 C3928 1.425 . S
C3933 C3930 1.409 . S
C3933 C3931 1.415 . S
C3934 H3924 0.930 . S
C3934 C3932 1.419 . S
C3934 C3935 1.362 . S
C3935 H3925 0.930 . S
C3935 C3928 1.409 . S
C3935 C3934 1.362 . S
H3936 C3942 0.930 . S
H3937 C3945 0.930 . S
H3938 C3946 0.930 . S
H3939 C3947 0.930 . S
H3940 C3950 0.930 . S
H3941 C3951 0.922 1_556 S
C3942 H3936 0.930 . S
C3942 C3943 1.355 . S
C3942 C3944 1.415 . S
C3943 C3942 1.355 . S
C3943 C3945 1.419 . S
C3944 C3942 1.415 . S
C3944 C3949 1.425 . S
C3944 C3951 1.409 1_556 S
C3945 H3937 0.930 . S
C3945 C3943 1.419 . S
C3945 C3946 1.362 . S
C3946 H3938 0.930 . S
C3946 C3945 1.362 . S
C3946 C3949 1.409 . S
C3947 H3939 0.930 . S
C3947 C3948 1.355 . S
C3947 C3949 1.415 1_554 S
C3948 C3947 1.355 . S
C3948 C3950 1.419 . S
C3949 C3944 1.425 . S
C3949 C3946 1.409 . S
C3949 C3947 1.415 1_556 S
C3950 H3940 0.930 . S
C3950 C3948 1.419 . S
C3950 C3951 1.362 . S
C3951 H3941 0.922 1_554 S
C3951 C3944 1.409 1_554 S
C3951 C3950 1.362 . S
H3952 C3958 0.930 . S
H3953 C3961 0.930 . S
H3954 C3962 0.930 . S
H3955 C3963 0.930 . S
H3956 C3966 0.930 . S
H3957 C3967 0.930 . S
C3958 H3952 0.930 . S
C3958 C3959 1.355 . S
C3958 C3960 1.415 1_554 S
C3959 C3958 1.355 . S
C3959 C3961 1.419 . S
C3960 C3958 1.415 1_556 S
C3960 C3965 1.425 . S
C3960 C3967 1.409 . S
C3961 H3953 0.930 . S
C3961 C3959 1.419 . S
C3961 C3962 1.362 1_554 S
C3962 H3954 0.930 . S
C3962 C3961 1.362 1_556 S
C3962 C3965 1.409 . S
C3963 H3955 0.930 . S
C3963 C3964 1.355 . S
C3963 C3965 1.415 . S
C3964 C3963 1.355 . S
C3964 C3966 1.419 . S
C3965 C3960 1.425 . S
C3965 C3962 1.409 . S
C3965 C3963 1.415 . S
C3966 H3956 0.930 . S
C3966 C3964 1.419 . S
C3966 C3967 1.362 . S
C3967 H3957 0.930 . S
C3967 C3960 1.409 . S
C3967 C3966 1.362 . S
H3968 C3974 0.930 . S
H3969 C3977 0.930 . S
H3970 C3978 0.930 . S
H3971 C3979 0.930 . S
H3972 C3982 0.930 . S
H3973 C3983 0.930 . S
C3974 H3968 0.930 . S
C3974 C3975 1.355 . S
C3974 C3976 1.415 1_554 S
C3975 C3974 1.355 . S
C3975 C3977 1.419 . S
C3976 C3974 1.415 1_556 S
C3976 C3981 1.425 . S
C3976 C3983 1.409 . S
C3977 H3969 0.930 . S
C3977 C3975 1.419 . S
C3977 C3978 1.362 1_554 S
C3978 H3970 0.930 . S
C3978 C3977 1.362 1_556 S
C3978 C3981 1.409 . S
C3979 H3971 0.930 . S
C3979 C3980 1.355 . S
C3979 C3981 1.415 . S
C3980 C3979 1.355 . S
C3980 C3982 1.419 . S
C3981 C3976 1.425 . S
C3981 C3978 1.409 . S
C3981 C3979 1.415 . S
C3982 H3972 0.930 . S
C3982 C3980 1.419 . S
C3982 C3983 1.362 . S
C3983 H3973 0.930 . S
C3983 C3976 1.409 . S
C3983 C3982 1.362 . S
H3984 C3990 0.930 . S
H3985 C3993 0.930 . S
H3986 C3994 0.930 . S
H3987 C3995 0.930 . S
H3988 C3998 0.930 . S
H3989 C3999 0.930 . S
C3990 H3984 0.930 . S
C3990 C3991 1.355 . S
C3990 C3992 1.415 1_554 S
C3991 C3990 1.355 . S
C3991 C3993 1.419 . S
C3992 C3990 1.415 1_556 S
C3992 C3997 1.425 . S
C3992 C3999 1.409 . S
C3993 H3985 0.930 . S
C3993 C3991 1.419 . S
C3993 C3994 1.362 . S
C3994 H3986 0.930 . S
C3994 C3993 1.362 . S
C3994 C3997 1.409 1_554 S
C3995 H3987 0.930 . S
C3995 C3996 1.355 . S
C3995 C3997 1.415 . S
C3996 C3995 1.355 . S
C3996 C3998 1.419 . S
C3997 C3992 1.425 . S
C3997 C3994 1.409 1_556 S
C3997 C3995 1.415 . S
C3998 H3988 0.930 . S
C3998 C3996 1.419 . S
C3998 C3999 1.362 . S
C3999 H3989 0.930 . S
C3999 C3992 1.409 . S
C3999 C3998 1.362 . S
H4000 C4006 0.930 . S
H4001 C4009 0.930 . S
H4002 C4010 0.930 . S
H4003 C4011 0.930 . S
H4004 C4014 0.930 . S
H4005 C4015 0.926 1_554 S
C4006 H4000 0.930 . S
C4006 C4007 1.355 . S
C4006 C4008 1.415 . S
C4007 C4006 1.355 . S
C4007 C4009 1.419 . S
C4008 C4006 1.415 . S
C4008 C4013 1.425 . S
C4008 C4015 1.400 1_554 S
C4009 H4001 0.930 . S
C4009 C4007 1.419 . S
C4009 C4010 1.362 . S
C4010 H4002 0.930 . S
C4010 C4009 1.362 . S
C4010 C4013 1.409 . S
C4011 H4003 0.930 . S
C4011 C4012 1.355 . S
C4011 C4013 1.415 1_556 S
C4012 C4011 1.355 . S
C4012 C4014 1.419 . S
C4013 C4008 1.425 . S
C4013 C4010 1.409 . S
C4013 C4011 1.415 1_554 S
C4014 H4004 0.930 . S
C4014 C4012 1.419 . S
C4014 C4015 1.376 . S
C4015 H4005 0.926 1_556 S
C4015 C4008 1.400 1_556 S
C4015 C4014 1.376 . S
H4016 C4022 0.930 . S
H4017 C4025 0.930 . S
H4018 C4026 0.913 1_554 S
H4019 C4027 0.930 . S
H4020 C4030 0.930 . S
H4021 C4031 0.930 . S
C4022 H4016 0.930 . S
C4022 C4023 1.355 . S
C4022 C4024 1.415 1_556 S
C4023 C4022 1.355 . S
C4023 C4025 1.419 . S
C4024 C4022 1.415 1_554 S
C4024 C4029 1.425 . S
C4024 C4031 1.409 . S
C4025 H4017 0.930 . S
C4025 C4023 1.419 . S
C4025 C4026 1.422 . S
C4026 H4018 0.913 1_556 S
C4026 C4025 1.422 . S
C4026 C4029 1.369 1_556 S
C4027 H4019 0.930 . S
C4027 C4028 1.355 . S
C4027 C4029 1.415 . S
C4028 C4027 1.355 . S
C4028 C4030 1.419 . S
C4029 C4024 1.425 . S
C4029 C4026 1.369 1_554 S
C4029 C4027 1.415 . S
C4030 H4020 0.930 . S
C4030 C4028 1.419 . S
C4030 C4031 1.362 . S
C4031 H4021 0.930 . S
C4031 C4024 1.409 . S
C4031 C4030 1.362 . S
H4032 C4038 0.930 . S
H4033 C4041 0.930 . S
H4034 C4042 0.930 . S
H4035 C4043 0.930 . S
H4036 C4046 0.930 . S
H4037 C4047 0.958 . S
C4038 H4032 0.930 . S
C4038 C4039 1.355 . S
C4038 C4040 1.415 . S
C4039 C4038 1.355 . S
C4039 C4041 1.419 . S
C4040 C4038 1.415 . S
C4040 C4045 1.425 . S
C4040 C4047 1.449 . S
C4041 H4033 0.930 . S
C4041 C4039 1.419 . S
C4041 C4042 1.362 . S
C4042 H4034 0.930 . S
C4042 C4041 1.362 . S
C4042 C4045 1.409 . S
C4043 H4035 0.930 . S
C4043 C4044 1.355 . S
C4043 C4045 1.415 1_556 S
C4044 C4043 1.355 . S
C4044 C4046 1.419 . S
C4045 C4040 1.425 . S
C4045 C4042 1.409 . S
C4045 C4043 1.415 1_554 S
C4046 H4036 0.930 . S
C4046 C4044 1.419 . S
C4046 C4047 1.298 1_556 S
C4047 H4037 0.958 . S
C4047 C4040 1.449 . S
C4047 C4046 1.298 1_554 S
H4048 C4054 0.930 . S
H4049 C4057 0.930 . S
H4050 C4058 0.934 . S
H4051 C4059 0.930 . S
H4052 C4062 0.930 . S
H4053 C4063 0.930 . S
C4054 H4048 0.930 . S
C4054 C4055 1.355 . S
C4054 C4056 1.415 1_556 S
C4055 C4054 1.355 . S
C4055 C4057 1.419 . S
C4056 C4054 1.415 1_554 S
C4056 C4061 1.425 . S
C4056 C4063 1.409 . S
C4057 H4049 0.930 . S
C4057 C4055 1.419 . S
C4057 C4058 1.362 . S
C4058 H4050 0.934 . S
C4058 C4057 1.362 . S
C4058 C4061 1.409 1_556 S
C4059 H4051 0.930 . S
C4059 C4060 1.355 . S
C4059 C4061 1.415 . S
C4060 C4059 1.355 . S
C4060 C4062 1.419 . S
C4061 C4056 1.425 . S
C4061 C4058 1.409 1_554 S
C4061 C4059 1.415 . S
C4062 H4052 0.930 . S
C4062 C4060 1.419 . S
C4062 C4063 1.362 . S
C4063 H4053 0.930 . S
C4063 C4056 1.409 . S
C4063 C4062 1.362 . S
H4064 C4070 0.930 . S
H4065 C4073 0.930 . S
H4066 C4074 0.930 . S
H4067 C4075 0.930 . S
H4068 C4078 0.930 . S
H4069 C4079 0.947 . S
C4070 H4064 0.930 . S
C4070 C4071 1.355 . S
C4070 C4072 1.415 . S
C4071 C4070 1.355 . S
C4071 C4073 1.419 . S
C4072 C4070 1.415 . S
C4072 C4077 1.425 . S
C4072 C4079 1.409 1_655 S
C4073 H4065 0.930 . S
C4073 C4071 1.419 . S
C4073 C4074 1.362 . S
C4074 H4066 0.930 . S
C4074 C4073 1.362 . S
C4074 C4077 1.409 . S
C4075 H4067 0.930 . S
C4075 C4076 1.355 . S
C4075 C4077 1.415 1_455 S
C4076 C4075 1.355 . S
C4076 C4078 1.419 . S
C4077 C4072 1.425 . S
C4077 C4074 1.409 . S
C4077 C4075 1.415 1_655 S
C4078 H4068 0.930 . S
C4078 C4076 1.419 . S
C4078 C4079 1.362 . S
C4079 H4069 0.947 . S
C4079 C4072 1.409 1_455 S
C4079 C4078 1.362 . S
H4080 C4086 0.930 . S
H4081 C4089 0.930 . S
H4082 C4090 0.941 . S
H4083 C4091 0.930 . S
H4084 C4094 0.930 . S
H4085 C4095 0.930 . S
C4086 H4080 0.930 . S
C4086 C4087 1.355 . S
C4086 C4088 1.415 1_545 S
C4087 C4086 1.355 . S
C4087 C4089 1.419 . S
C4088 C4086 1.415 1_565 S
C4088 C4093 1.425 . S
C4088 C4095 1.409 . S
C4089 H4081 0.930 . S
C4089 C4087 1.419 . S
C4089 C4090 1.362 . S
C4090 H4082 0.941 . S
C4090 C4089 1.362 . S
C4090 C4093 1.409 1_545 S
C4091 H4083 0.930 . S
C4091 C4092 1.355 . S
C4091 C4093 1.415 . S
C4092 C4091 1.355 . S
C4092 C4094 1.419 . S
C4093 C4088 1.425 . S
C4093 C4090 1.409 1_565 S
C4093 C4091 1.415 . S
C4094 H4084 0.930 . S
C4094 C4092 1.419 . S
C4094 C4095 1.362 . S
C4095 H4085 0.930 . S
C4095 C4088 1.409 . S
C4095 C4094 1.362 . S
H4096 C4102 0.930 . S
H4097 C4105 0.930 . S
H4098 C4106 0.930 . S
H4099 C4107 0.930 . S
H4100 C4110 0.930 . S
H4101 C4111 0.942 . S
C4102 H4096 0.930 . S
C4102 C4103 1.355 . S
C4102 C4104 1.415 . S
C4103 C4102 1.355 . S
C4103 C4105 1.419 . S
C4104 C4102 1.415 . S
C4104 C4109 1.425 . S
C4104 C4111 1.409 1_455 S
C4105 H4097 0.930 . S
C4105 C4103 1.419 . S
C4105 C4106 1.362 . S
C4106 H4098 0.930 . S
C4106 C4105 1.362 . S
C4106 C4109 1.409 . S
C4107 H4099 0.930 . S
C4107 C4108 1.355 . S
C4107 C4109 1.415 1_655 S
C4108 C4107 1.355 . S
C4108 C4110 1.419 . S
C4109 C4104 1.425 . S
C4109 C4106 1.409 . S
C4109 C4107 1.415 1_455 S
C4110 H4100 0.930 . S
C4110 C4108 1.419 . S
C4110 C4111 1.362 . S
C4111 H4101 0.942 . S
C4111 C4104 1.409 1_655 S
C4111 C4110 1.362 . S
H4112 C4118 0.930 . S
H4113 C4121 0.930 . S
H4114 C4122 0.927 1_545 S
H4115 C4123 0.930 . S
H4116 C4126 0.930 . S
H4117 C4127 0.930 . S
C4118 H4112 0.930 . S
C4118 C4119 1.355 . S
C4118 C4120 1.415 1_565 S
C4119 C4118 1.355 . S
C4119 C4121 1.419 . S
C4120 C4118 1.415 1_545 S
C4120 C4125 1.425 . S
C4120 C4127 1.409 . S
C4121 H4113 0.930 . S
C4121 C4119 1.419 . S
C4121 C4122 1.362 . S
C4122 H4114 0.927 1_565 S
C4122 C4121 1.362 . S
C4122 C4125 1.409 1_565 S
C4123 H4115 0.930 . S
C4123 C4124 1.355 . S
C4123 C4125 1.415 . S
C4124 C4123 1.355 . S
C4124 C4126 1.419 . S
C4125 C4120 1.425 . S
C4125 C4122 1.409 1_545 S
C4125 C4123 1.415 . S
C4126 H4116 0.930 . S
C4126 C4124 1.419 . S
C4126 C4127 1.362 . S
C4127 H4117 0.930 . S
C4127 C4120 1.409 . S
C4127 C4126 1.362 . S
H4128 C4134 0.930 . S
H4129 C4137 0.930 . S
H4130 C4138 0.938 . S
H4131 C4139 0.930 . S
H4132 C4142 0.930 . S
H4133 C4143 0.930 . S
C4134 H4128 0.930 . S
C4134 C4135 1.355 . S
C4134 C4136 1.415 1_455 S
C4135 C4134 1.355 . S
C4135 C4137 1.419 . S
C4136 C4134 1.415 1_655 S
C4136 C4141 1.425 . S
C4136 C4143 1.409 . S
C4137 H4129 0.930 . S
C4137 C4135 1.419 . S
C4137 C4138 1.362 . S
C4138 H4130 0.938 . S
C4138 C4137 1.362 . S
C4138 C4141 1.409 1_455 S
C4139 H4131 0.930 . S
C4139 C4140 1.355 . S
C4139 C4141 1.415 . S
C4140 C4139 1.355 . S
C4140 C4142 1.419 . S
C4141 C4136 1.425 . S
C4141 C4138 1.409 1_655 S
C4141 C4139 1.415 . S
C4142 H4132 0.930 . S
C4142 C4140 1.419 . S
C4142 C4143 1.362 . S
C4143 H4133 0.930 . S
C4143 C4136 1.409 . S
C4143 C4142 1.362 . S
H4144 C4150 0.930 . S
H4145 C4153 0.930 . S
H4146 C4154 0.922 1_565 S
H4147 C4155 0.930 . S
H4148 C4158 0.930 . S
H4149 C4159 0.930 . S
C4150 H4144 0.930 . S
C4150 C4151 1.355 . S
C4150 C4152 1.415 1_545 S
C4151 C4150 1.355 . S
C4151 C4153 1.419 . S
C4152 C4150 1.415 1_565 S
C4152 C4157 1.425 . S
C4152 C4159 1.409 . S
C4153 H4145 0.930 . S
C4153 C4151 1.419 . S
C4153 C4154 1.362 . S
C4154 H4146 0.922 1_545 S
C4154 C4153 1.362 . S
C4154 C4157 1.409 1_545 S
C4155 H4147 0.930 . S
C4155 C4156 1.355 . S
C4155 C4157 1.415 . S
C4156 C4155 1.355 . S
C4156 C4158 1.419 . S
C4157 C4152 1.425 . S
C4157 C4154 1.409 1_565 S
C4157 C4155 1.415 . S
C4158 H4148 0.930 . S
C4158 C4156 1.419 . S
C4158 C4159 1.362 . S
C4159 H4149 0.930 . S
C4159 C4152 1.409 . S
C4159 C4158 1.362 . S
H4160 C4166 0.930 . S
H4161 C4169 0.930 . S
H4162 C4170 0.930 . S
H4163 C4171 0.930 . S
H4164 C4174 0.930 . S
H4165 C4175 0.930 . S
C4166 H4160 0.930 . S
C4166 C4167 1.355 . S
C4166 C4168 1.415 1_655 S
C4167 C4166 1.355 . S
C4167 C4169 1.419 . S
C4168 C4166 1.415 1_455 S
C4168 C4173 1.425 . S
C4168 C4175 1.409 . S
C4169 H4161 0.930 . S
C4169 C4167 1.419 . S
C4169 C4170 1.362 . S
C4170 H4162 0.930 . S
C4170 C4169 1.362 . S
C4170 C4173 1.409 1_655 S
C4171 H4163 0.930 . S
C4171 C4172 1.355 . S
C4171 C4173 1.415 . S
C4172 C4171 1.355 . S
C4172 C4174 1.419 . S
C4173 C4168 1.425 . S
C4173 C4170 1.409 1_455 S
C4173 C4171 1.415 . S
C4174 H4164 0.930 . S
C4174 C4172 1.419 . S
C4174 C4175 1.362 . S
C4175 H4165 0.930 . S
C4175 C4168 1.409 . S
C4175 C4174 1.362 . S
H4176 C4182 0.930 . S
H4177 C4185 0.930 . S
H4178 C4186 0.930 . S
H4179 C4187 0.930 . S
H4180 C4190 0.930 . S
H4181 C4191 0.930 . S
C4182 H4176 0.930 . S
C4182 C4183 1.355 . S
C4182 C4184 1.415 1_565 S
C4183 C4182 1.355 . S
C4183 C4185 1.419 . S
C4184 C4182 1.415 1_545 S
C4184 C4189 1.425 . S
C4184 C4191 1.409 . S
C4185 H4177 0.930 . S
C4185 C4183 1.419 . S
C4185 C4186 1.362 1_565 S
C4186 H4178 0.930 . S
C4186 C4185 1.362 1_545 S
C4186 C4189 1.409 . S
C4187 H4179 0.930 . S
C4187 C4188 1.355 . S
C4187 C4189 1.415 . S
C4188 C4187 1.355 . S
C4188 C4190 1.419 . S
C4189 C4184 1.425 . S
C4189 C4186 1.409 . S
C4189 C4187 1.415 . S
C4190 H4180 0.930 . S
C4190 C4188 1.419 . S
C4190 C4191 1.362 . S
C4191 H4181 0.930 . S
C4191 C4184 1.409 . S
C4191 C4190 1.362 . S
H4192 C4198 0.930 . S
H4193 C4201 0.930 . S
H4194 C4202 0.930 . S
H4195 C4203 0.930 . S
H4196 C4206 0.930 . S
H4197 C4207 0.912 1_565 S
C4198 H4192 0.930 . S
C4198 C4199 1.355 . S
C4198 C4200 1.415 . S
C4199 C4198 1.355 . S
C4199 C4201 1.419 . S
C4200 C4198 1.415 . S
C4200 C4205 1.425 . S
C4200 C4207 1.367 1_565 S
C4201 H4193 0.930 . S
C4201 C4199 1.419 . S
C4201 C4202 1.362 . S
C4202 H4194 0.930 . S
C4202 C4201 1.362 . S
C4202 C4205 1.409 . S
C4203 H4195 0.930 . S
C4203 C4204 1.355 . S
C4203 C4205 1.415 1_545 S
C4204 C4203 1.355 . S
C4204 C4206 1.419 . S
C4205 C4200 1.425 . S
C4205 C4202 1.409 . S
C4205 C4203 1.415 1_565 S
C4206 H4196 0.930 . S
C4206 C4204 1.419 . S
C4206 C4207 1.425 . S
C4207 H4197 0.912 1_545 S
C4207 C4200 1.367 1_545 S
C4207 C4206 1.425 . S
H4208 C4214 0.930 . S
H4209 C4217 0.930 . S
H4210 C4218 0.930 . S
H4211 C4219 0.930 . S
H4212 C4222 0.930 . S
H4213 C4223 0.930 . S
C4214 H4208 0.930 . S
C4214 C4215 1.355 . S
C4214 C4216 1.415 1_565 S
C4215 C4214 1.355 . S
C4215 C4217 1.419 . S
C4216 C4214 1.415 1_545 S
C4216 C4221 1.425 . S
C4216 C4223 1.409 . S
C4217 H4209 0.930 . S
C4217 C4215 1.419 . S
C4217 C4218 1.362 1_565 S
C4218 H4210 0.930 . S
C4218 C4217 1.362 1_545 S
C4218 C4221 1.409 . S
C4219 H4211 0.930 . S
C4219 C4220 1.355 . S
C4219 C4221 1.415 . S
C4220 C4219 1.355 . S
C4220 C4222 1.419 . S
C4221 C4216 1.425 . S
C4221 C4218 1.409 . S
C4221 C4219 1.415 . S
C4222 H4212 0.930 . S
C4222 C4220 1.419 . S
C4222 C4223 1.362 . S
C4223 H4213 0.930 . S
C4223 C4216 1.409 . S
C4223 C4222 1.362 . S
H4224 C4230 0.930 . S
H4225 C4233 0.930 . S
H4226 C4234 0.930 . S
H4227 C4235 0.930 . S
H4228 C4238 0.930 . S
H4229 C4239 0.930 . S
C4230 H4224 0.930 . S
C4230 C4231 1.355 . S
C4230 C4232 1.415 1_455 S
C4231 C4230 1.355 . S
C4231 C4233 1.419 . S
C4232 C4230 1.415 1_655 S
C4232 C4237 1.425 . S
C4232 C4239 1.409 . S
C4233 H4225 0.930 . S
C4233 C4231 1.419 . S
C4233 C4234 1.362 1_455 S
C4234 H4226 0.930 . S
C4234 C4233 1.362 1_655 S
C4234 C4237 1.409 . S
C4235 H4227 0.930 . S
C4235 C4236 1.355 . S
C4235 C4237 1.415 . S
C4236 C4235 1.355 . S
C4236 C4238 1.419 . S
C4237 C4232 1.425 . S
C4237 C4234 1.409 . S
C4237 C4235 1.415 . S
C4238 H4228 0.930 . S
C4238 C4236 1.419 . S
C4238 C4239 1.362 . S
C4239 H4229 0.930 . S
C4239 C4232 1.409 . S
C4239 C4238 1.362 . S
H4240 C4246 0.930 . S
H4241 C4249 0.930 . S
H4242 C4250 0.930 . S
H4243 C4251 0.930 . S
H4244 C4254 0.930 . S
H4245 C4255 0.930 . S
C4246 H4240 0.930 . S
C4246 C4247 1.355 . S
C4246 C4248 1.415 1_545 S
C4247 C4246 1.355 . S
C4247 C4249 1.419 . S
C4248 C4246 1.415 1_565 S
C4248 C4253 1.425 . S
C4248 C4255 1.409 . S
C4249 H4241 0.930 . S
C4249 C4247 1.419 . S
C4249 C4250 1.362 1_545 S
C4250 H4242 0.930 . S
C4250 C4249 1.362 1_565 S
C4250 C4253 1.409 . S
C4251 H4243 0.930 . S
C4251 C4252 1.355 . S
C4251 C4253 1.415 . S
C4252 C4251 1.355 . S
C4252 C4254 1.419 . S
C4253 C4248 1.425 . S
C4253 C4250 1.409 . S
C4253 C4251 1.415 . S
C4254 H4244 0.930 . S
C4254 C4252 1.419 . S
C4254 C4255 1.362 . S
C4255 H4245 0.930 . S
C4255 C4248 1.409 . S
C4255 C4254 1.362 . S
H4256 C4262 0.930 . S
H4257 C4265 0.930 . S
H4258 C4266 0.930 . S
H4259 C4267 0.930 . S
H4260 C4270 0.930 . S
H4261 C4271 0.930 . S
C4262 H4256 0.930 . S
C4262 C4263 1.355 . S
C4262 C4264 1.415 1_655 S
C4263 C4262 1.355 . S
C4263 C4265 1.419 . S
C4264 C4262 1.415 1_455 S
C4264 C4269 1.425 . S
C4264 C4271 1.409 . S
C4265 H4257 0.930 . S
C4265 C4263 1.419 . S
C4265 C4266 1.362 1_655 S
C4266 H4258 0.930 . S
C4266 C4265 1.362 1_455 S
C4266 C4269 1.409 . S
C4267 H4259 0.930 . S
C4267 C4268 1.355 . S
C4267 C4269 1.415 . S
C4268 C4267 1.355 . S
C4268 C4270 1.419 . S
C4269 C4264 1.425 . S
C4269 C4266 1.409 . S
C4269 C4267 1.415 . S
C4270 H4260 0.930 . S
C4270 C4268 1.419 . S
C4270 C4271 1.362 . S
C4271 H4261 0.930 . S
C4271 C4264 1.409 . S
C4271 C4270 1.362 . S
H4272 C4278 0.930 . S
H4273 C4281 0.930 . S
H4274 C4282 0.930 . S
H4275 C4283 0.930 . S
H4276 C4286 0.930 . S
H4277 C4287 0.930 1_545 S
C4278 H4272 0.930 . S
C4278 C4279 1.355 . S
C4278 C4280 1.415 . S
C4279 C4278 1.355 . S
C4279 C4281 1.419 . S
C4280 C4278 1.415 . S
C4280 C4285 1.425 . S
C4280 C4287 1.409 1_545 S
C4281 H4273 0.930 . S
C4281 C4279 1.419 . S
C4281 C4282 1.362 . S
C4282 H4274 0.930 . S
C4282 C4281 1.362 . S
C4282 C4285 1.409 . S
C4283 H4275 0.930 . S
C4283 C4284 1.355 . S
C4283 C4285 1.415 1_565 S
C4284 C4283 1.355 . S
C4284 C4286 1.419 . S
C4285 C4280 1.425 . S
C4285 C4282 1.409 . S
C4285 C4283 1.415 1_545 S
C4286 H4276 0.930 . S
C4286 C4284 1.419 . S
C4286 C4287 1.362 . S
C4287 H4277 0.930 1_565 S
C4287 C4280 1.409 1_565 S
C4287 C4286 1.362 . S
H4288 C4294 0.930 . S
H4289 C4297 0.930 . S
H4290 C4298 0.930 . S
H4291 C4299 0.930 . S
H4292 C4302 0.930 . S
H4293 C4303 0.930 1_655 S
C4294 H4288 0.930 . S
C4294 C4295 1.355 . S
C4294 C4296 1.415 . S
C4295 C4294 1.355 . S
C4295 C4297 1.419 . S
C4296 C4294 1.415 . S
C4296 C4301 1.425 . S
C4296 C4303 1.409 1_655 S
C4297 H4289 0.930 . S
C4297 C4295 1.419 . S
C4297 C4298 1.362 . S
C4298 H4290 0.930 . S
C4298 C4297 1.362 . S
C4298 C4301 1.409 . S
C4299 H4291 0.930 . S
C4299 C4300 1.355 . S
C4299 C4301 1.415 1_455 S
C4300 C4299 1.355 . S
C4300 C4302 1.419 . S
C4301 C4296 1.425 . S
C4301 C4298 1.409 . S
C4301 C4299 1.415 1_655 S
C4302 H4292 0.930 . S
C4302 C4300 1.419 . S
C4302 C4303 1.362 . S
C4303 H4293 0.930 1_455 S
C4303 C4296 1.409 1_455 S
C4303 C4302 1.362 . S
H4304 C4310 0.930 . S
H4305 C4313 0.930 . S
H4306 C4314 0.930 . S
H4307 C4315 0.930 . S
H4308 C4318 0.930 . S
H4309 C4319 0.930 . S
C4310 H4304 0.930 . S
C4310 C4311 1.355 . S
C4310 C4312 1.415 1_655 S
C4311 C4310 1.355 . S
C4311 C4313 1.419 . S
C4312 C4310 1.415 1_455 S
C4312 C4317 1.425 . S
C4312 C4319 1.409 . S
C4313 H4305 0.930 . S
C4313 C4311 1.419 . S
C4313 C4314 1.362 1_655 S
C4314 H4306 0.930 . S
C4314 C4313 1.362 1_455 S
C4314 C4317 1.409 . S
C4315 H4307 0.930 . S
C4315 C4316 1.355 . S
C4315 C4317 1.415 . S
C4316 C4315 1.355 . S
C4316 C4318 1.419 . S
C4317 C4312 1.425 . S
C4317 C4314 1.409 . S
C4317 C4315 1.415 . S
C4318 H4308 0.930 . S
C4318 C4316 1.419 . S
C4318 C4319 1.362 . S
C4319 H4309 0.930 . S
C4319 C4312 1.409 . S
C4319 C4318 1.362 . S
C1255 C3 1.244 . S
C1260 C408 1.276 . S
C1271 C16 1.228 . S
C1276 C369 1.283 . S
C1287 C380 1.293 . S
C1292 C29 1.224 . S
C1303 C393 1.315 . S
C1308 C44 1.290 . S
C1319 C330 1.276 . S
C1324 C57 1.245 . S
C1335 C341 1.317 . S
C1340 C68 1.270 . S
C1351 C83 1.304 . S
C1356 C354 1.298 . S
C1367 C315 1.296 . S
C1372 C96 1.225 . S
C1383 C108 1.223 . S
C1388 C576 1.284 . S
C1399 C122 1.293 . S
C1404 C536 1.285 . S
C1415 C134 1.305 . S
C1420 C550 1.307 . S
C1431 C148 1.271 . S
C1436 C564 1.317 . S
C1447 C166 1.240 . S
C1452 C615 1.275 . S
C1463 C174 1.264 . S
C1468 C590 1.276 . S
C1479 C192 1.251 . S
C1484 C602 1.274 . S
C1495 C523 1.313 . S
C1500 C198 1.250 . S
C1511 C211 1.260 . S
C1516 C510 1.315 . S
C1527 C432 1.316 . S
C1532 C226 1.284 . S
C1543 C452 1.286 . S
C1548 C244 1.294 . S
C1559 C252 1.301 . S
C1564 C458 1.293 . S
C1575 C426 1.303 . S
C1580 C264 1.224 . S
C1591 C486 1.281 . S
C1596 C278 1.230 . S
C1607 C296 1.303 . S
C1612 C504 1.295 . S
C1623 C309 1.261 . S
C1628 C472 1.321 . S
C1639 C1032 1.276 . S
C1644 C629 1.244 . S
C1655 C993 1.317 . S
C1660 C642 1.272 . S
C1671 C655 1.285 . S
C1676 C1006 1.316 . S
C1687 C1017 1.290 . S
C1692 C666 1.224 . S
C1703 C681 1.295 . S
C1708 C954 1.287 . S
C1719 C694 1.294 . S
C1724 C965 1.286 . S
C1735 C980 1.311 . S
C1740 C705 1.298 . S
C1751 C939 1.314 . S
C1756 C720 1.253 . S
C1767 C1200 1.274 . S
C1772 C738 1.257 . S
C1783 C1162 1.292 . S
C1788 C746 1.301 . S
C1799 C764 1.283 . S
C1804 C1180 1.321 . S
C1815 C772 1.267 . S
C1820 C1186 1.276 . S
C1831 C1239 1.309 . S
C1836 C784 1.304 . S
C1847 C1214 1.309 . S
C1852 C798 1.240 . S
C1863 C1232 1.294 . S
C1868 C810 1.302 . S
C1879 C822 1.276 . S
C1884 C1149 1.317 . S
C1895 C1134 1.316 . S
C1900 C837 1.269 . S
C1911 C848 1.233 . S
C1916 C1058 1.305 . S
C1927 C1076 1.282 . S
C1932 C862 1.225 . S
C1943 C1082 1.301 . S
C1948 C874 1.229 . S
C1959 C1044 1.290 . S
C1964 C888 1.299 . S
C1975 C902 1.227 . S
C1980 C1108 1.284 . S
C1991 C914 1.220 . S
C1996 C1122 1.296 . S
C2007 C1096 1.278 . S
C2012 C933 1.278 . S
C2023 C4 1.929 . S
C2028 C887 1.890 . S
C2039 C17 1.933 . S
C2044 C849 1.896 . S
C2055 C30 1.867 . S
C2060 C861 1.921 . S
C2071 C49 1.903 . S
C2076 C875 1.862 . S
C2087 C928 1.932 . S
C2092 C62 1.924 . S
C2103 C69 1.908 . S
C2108 C907 1.932 . S
C2119 C913 1.874 . S
C2124 C88 1.887 . S
C2135 C101 1.865 . S
C2140 C842 1.913 . S
C2151 C823 1.933 . S
C2156 C107 1.918 . S
C2167 C127 1.873 . S
C2172 C783 1.929 . S
C2183 C803 1.863 . S
C2188 C133 1.907 . S
C2199 C153 1.919 . S
C2204 C809 1.936 . S
C2215 C161 1.925 . S
C2220 C751 1.869 . S
C2231 C179 1.929 . S
C2236 C759 1.890 . S
C2247 C777 1.889 . S
C2252 C187 1.873 . S
C2263 C733 1.912 . S
C2268 C199 1.864 . S
C2279 C212 1.926 . S
C2284 C725 1.919 . S
C2295 C231 1.929 . S
C2300 C647 1.915 . S
C2311 C239 1.935 . S
C2316 C660 1.880 . S
C2327 C257 1.928 . S
C2332 C667 1.879 . S
C2343 C263 1.896 . S
C2348 C634 1.864 . S
C2359 C699 1.877 . S
C2364 C283 1.927 . S
C2375 C706 1.902 . S
C2380 C291 1.941 . S
C2391 C304 1.905 . S
C2396 C686 1.934 . S
C2407 C322 1.327 . S
C2412 C1201 1.346 . S
C2423 C329 1.331 . S
C2428 C1161 1.319 . S
C2439 C348 1.334 . S
C2444 C1173 1.349 . S
C2455 C361 1.320 . S
C2460 C1193 1.340 . S
C2471 C368 1.345 . S
C2476 C1240 1.319 . S
C2487 C1213 1.329 . S
C2492 C387 1.348 . S
C2503 C400 1.344 . S
C2508 C1225 1.317 . S
C2519 C407 1.347 . S
C2524 C1148 1.344 . S
C2535 C1141 1.322 . S
C2540 C419 1.341 . S
C2551 C1097 1.343 . S
C2556 C439 1.324 . S
C2567 C1115 1.338 . S
C2572 C445 1.313 . S
C2583 C1123 1.321 . S
C2588 C465 1.346 . S
C2599 C473 1.348 . S
C2604 C1057 1.331 . S
C2615 C485 1.342 . S
C2620 C1069 1.316 . S
C2631 C497 1.313 . S
C2636 C1089 1.326 . S
C2647 C1045 1.326 . S
C2652 C517 1.318 . S
C2663 C1031 1.326 . S
C2668 C530 1.321 . S
C2679 C543 1.337 . S
C2684 C953 1.319 . S
C2695 C972 1.349 . S
C2700 C551 1.332 . S
C2711 C979 1.348 . S
C2716 C563 1.329 . S
C2727 C577 1.323 . S
C2732 C946 1.347 . S
C2743 C589 1.319 . S
C2748 C1005 1.335 . S
C2759 C1024 1.349 . S
C2764 C603 1.332 . S
C2775 C616 1.327 . S
C2780 C992 1.318 . S
C2791 C10 1.864 . S
C2796 C374 1.790 . S
C2807 C23 1.849 . S
C2812 C381 1.820 . S
C2823 C36 1.842 . S
C2828 C394 1.837 . S
C2839 C43 1.833 . S
C2844 C413 1.824 . S
C2855 C316 1.813 . S
C2860 C56 1.858 . S
C2871 C75 1.844 . S
C2876 C335 1.798 . S
C2887 C342 1.794 . S
C2892 C82 1.852 . S
C2903 C355 1.821 . S
C2908 C95 1.848 . S
C2919 C109 1.834 . S
C2924 C499 1.844 . S
C2935 C511 1.800 . S
C2940 C121 1.862 . S
C2951 C135 1.834 . S
C2956 C471 1.845 . S
C2967 C147 1.864 . S
C2972 C491 1.790 . S
C2983 C159 1.865 . S
C2988 C447 1.814 . S
C2999 C173 1.864 . S
C3004 C459 1.787 . S
C3015 C185 1.834 . S
C3020 C421 1.843 . S
C3031 C433 1.812 . S
C3036 C205 1.858 . S
C3047 C218 1.860 . S
C3052 C595 1.794 . S
C3063 C225 1.857 . S
C3068 C569 1.782 . S
C3079 C575 1.803 . S
C3084 C237 1.861 . S
C3095 C251 1.842 . S
C3100 C537 1.802 . S
C3111 C549 1.823 . S
C3116 C265 1.843 . S
C3127 C277 1.854 . S
C3132 C524 1.784 . S
C3143 C614 1.805 . S
C3148 C289 1.858 . S
C3159 C601 1.846 . S
C3164 C302 1.834 . S
C3175 C628 1.838 . S
C3180 C998 1.838 . S
C3191 C641 1.833 . S
C3196 C1011 1.828 . S
C3207 C654 1.843 . S
C3212 C1018 1.836 . S
C3223 C1037 1.809 . S
C3228 C673 1.855 . S
C3239 C680 1.861 . S
C3244 C940 1.805 . S
C3255 C693 1.847 . S
C3260 C959 1.822 . S
C3271 C712 1.853 . S
C3276 C966 1.793 . S
C3287 C719 1.852 . S
C3292 C985 1.786 . S
C3303 C731 1.859 . S
C3308 C1121 1.804 . S
C3319 C1135 1.809 . S
C3324 C745 1.843 . S
C3335 C1095 1.850 . S
C3340 C757 1.835 . S
C3351 C1109 1.829 . S
C3356 C771 1.849 . S
C3367 C785 1.858 . S
C3372 C1071 1.828 . S
C3383 C1083 1.809 . S
C3388 C797 1.859 . S
C3399 C811 1.849 . S
C3404 C1043 1.815 . S
C3415 C1063 1.835 . S
C3420 C829 1.836 . S
C3431 C1219 1.814 . S
C3436 C836 1.852 . S
C3447 C1187 1.832 . S
C3452 C855 1.833 . S
C3463 C863 1.865 . S
C3468 C1199 1.802 . S
C3479 C881 1.834 . S
C3484 C1167 1.834 . S
C3495 C1175 1.808 . S
C3500 C889 1.867 . S
C3511 C901 1.840 . S
C3516 C1154 1.832 . S
C3527 C1238 1.804 . S
C3532 C915 1.867 . S
C3543 C1227 1.803 . S
C3548 C926 1.866 . S
C3559 C343 1.372 . S
C3564 C5 1.343 . S
C3575 C18 1.367 . S
C3580 C356 1.401 . S
C3591 C317 1.392 . S
C3596 C31 1.384 . S
C3607 C42 1.404 . S
C3612 C328 1.381 . S
C3623 C395 1.372 . S
C3628 C55 1.343 . S
C3639 C406 1.353 . S
C3644 C70 1.383 . S
C3655 C81 1.382 . S
C3660 C367 1.393 . S
C3671 C382 1.391 . S
C3676 C94 1.355 . S
C3687 C114 1.345 . S
C3692 C478 1.373 . S
C3703 C120 1.356 . S
C3708 C484 1.347 . S
C3719 C498 1.358 . S
C3724 C140 1.390 . S
C3735 C146 1.382 . S
C3740 C512 1.347 . S
C3751 C160 1.347 . S
C3756 C420 1.376 . S
C3767 C434 1.384 . S
C3772 C172 1.348 . S
C3783 C446 1.393 . S
C3788 C186 1.390 . S
C3799 C460 1.383 . S
C3804 C200 1.347 . S
C3815 C213 1.373 . S
C3820 C562 1.403 . S
C3831 C588 1.394 . S
C3836 C224 1.399 . S
C3847 C238 1.388 . S
C3852 C608 1.395 . S
C3863 C525 1.390 . S
C3868 C250 1.401 . S
C3879 C621 1.395 . S
C3884 C270 1.387 . S
C3895 C538 1.364 . S
C3900 C276 1.399 . S
C3911 C290 1.346 . S
C3916 C556 1.353 . S
C3927 C303 1.382 . S
C3932 C582 1.397 . S
C3943 C627 1.350 . S
C3948 C967 1.387 . S
C3959 C978 1.404 . S
C3964 C640 1.381 . S
C3975 C941 1.394 . S
C3980 C653 1.381 . S
C3991 C952 1.353 . S
C3996 C668 1.371 . S
C4007 C679 1.381 . S
C4012 C1019 1.346 . S
C4023 C1030 1.393 . S
C4028 C692 1.357 . S
C4039 C707 1.390 . S
C4044 C991 1.354 . S
C4055 C1004 1.375 . S
C4060 C718 1.351 . S
C4071 C732 1.346 . S
C4076 C1102 1.374 . S
C4087 C1110 1.344 . S
C4092 C744 1.369 . S
C4103 C758 1.352 . S
C4108 C1128 1.346 . S
C4119 C1136 1.345 . S
C4124 C770 1.377 . S
C4135 C1050 1.362 . S
C4140 C790 1.343 . S
C4151 C1056 1.346 . S
C4156 C796 1.379 . S
C4167 C1070 1.344 . S
C4172 C816 1.358 . S
C4183 C1084 1.396 . S
C4188 C824 1.366 . S
C4199 C835 1.370 . S
C4204 C1188 1.403 . S
C4215 C1212 1.390 . S
C4220 C850 1.401 . S
C4231 C1226 1.380 . S
C4236 C868 1.397 . S
C4247 C1147 1.404 . S
C4252 C876 1.380 . S
C4263 C1245 1.386 . S
C4268 C894 1.395 . S
C4279 C900 1.381 . S
C4284 C1160 1.353 . S
C4295 C920 1.360 . S
C4300 C1174 1.391 . S
C4311 C1206 1.390 . S
C4316 C927 1.393 . S
