# Generated by pormake.
# Topology wir, (6)-cn, num edge types: 1
# Building blocks:
#     Node 0, Type 0, BuildingBlock: KUMBOL_clean_sbu_0, # of connection points: 6
#     Node 1, Type 0, BuildingBlock: KUMBOL_clean_sbu_0, # of connection points: 6
#     Node 2, Type 0, BuildingBlock: KUMBOL_clean_sbu_0, # of connection points: 6
#     Node 3, Type 0, BuildingBlock: KUMBOL_clean_sbu_0, # of connection points: 6
#     Node 4, Type 0, BuildingBlock: KUMBOL_clean_sbu_0, # of connection points: 6
#     Node 5, Type 0, BuildingBlock: KUMBOL_clean_sbu_0, # of connection points: 6
#     Node 6, Type 0, BuildingBlock: KUMBOL_clean_sbu_0, # of connection points: 6
#     Node 7, Type 0, BuildingBlock: KUMBOL_clean_sbu_0, # of connection points: 6
#     Node 8, Type 0, BuildingBlock: KUMBOL_clean_sbu_0, # of connection points: 6
#     Node 9, Type 0, BuildingBlock: KUMBOL_clean_sbu_0, # of connection points: 6
#     Node 10, Type 0, BuildingBlock: KUMBOL_clean_sbu_0, # of connection points: 6
#     Node 11, Type 0, BuildingBlock: KUMBOL_clean_sbu_0, # of connection points: 6
#     Node 12, Type 0, BuildingBlock: KUMBOL_clean_sbu_0, # of connection points: 6
#     Node 13, Type 0, BuildingBlock: KUMBOL_clean_sbu_0, # of connection points: 6
#     Node 14, Type 0, BuildingBlock: KUMBOL_clean_sbu_0, # of connection points: 6
#     Node 15, Type 0, BuildingBlock: KUMBOL_clean_sbu_0, # of connection points: 6
#     Node 16, Type 0, BuildingBlock: KUMBOL_clean_sbu_0, # of connection points: 6
#     Node 17, Type 0, BuildingBlock: KUMBOL_clean_sbu_0, # of connection points: 6
#     Node 18, Type 0, BuildingBlock: KUMBOL_clean_sbu_0, # of connection points: 6
#     Node 19, Type 0, BuildingBlock: KUMBOL_clean_sbu_0, # of connection points: 6
#     Node 20, Type 0, BuildingBlock: KUMBOL_clean_sbu_0, # of connection points: 6
#     Node 21, Type 0, BuildingBlock: KUMBOL_clean_sbu_0, # of connection points: 6
#     Node 22, Type 0, BuildingBlock: KUMBOL_clean_sbu_0, # of connection points: 6
#     Node 23, Type 0, BuildingBlock: KUMBOL_clean_sbu_0, # of connection points: 6
#     Node 24, Type 0, BuildingBlock: KUMBOL_clean_sbu_0, # of connection points: 6
#     Node 25, Type 0, BuildingBlock: KUMBOL_clean_sbu_0, # of connection points: 6
#     Node 26, Type 0, BuildingBlock: KUMBOL_clean_sbu_0, # of connection points: 6
#     Node 27, Type 0, BuildingBlock: KUMBOL_clean_sbu_0, # of connection points: 6
#     Node 28, Type 0, BuildingBlock: KUMBOL_clean_sbu_0, # of connection points: 6
#     Node 29, Type 0, BuildingBlock: KUMBOL_clean_sbu_0, # of connection points: 6
#     Node 30, Type 0, BuildingBlock: KUMBOL_clean_sbu_0, # of connection points: 6
#     Node 31, Type 0, BuildingBlock: KUMBOL_clean_sbu_0, # of connection points: 6
#     Edge 32, Type (0, 0), BuildingBlock: KIFKEQ_clean_linker_1, # of connection points: 2
#     Edge 33, Type (0, 0), BuildingBlock: KIFKEQ_clean_linker_1, # of connection points: 2
#     Edge 34, Type (0, 0), BuildingBlock: KIFKEQ_clean_linker_1, # of connection points: 2
#     Edge 35, Type (0, 0), BuildingBlock: KIFKEQ_clean_linker_1, # of connection points: 2
#     Edge 36, Type (0, 0), BuildingBlock: KIFKEQ_clean_linker_1, # of connection points: 2
#     Edge 37, Type (0, 0), BuildingBlock: KIFKEQ_clean_linker_1, # of connection points: 2
#     Edge 38, Type (0, 0), BuildingBlock: KIFKEQ_clean_linker_1, # of connection points: 2
#     Edge 39, Type (0, 0), BuildingBlock: KIFKEQ_clean_linker_1, # of connection points: 2
#     Edge 40, Type (0, 0), BuildingBlock: KIFKEQ_clean_linker_1, # of connection points: 2
#     Edge 41, Type (0, 0), BuildingBlock: KIFKEQ_clean_linker_1, # of connection points: 2
#     Edge 42, Type (0, 0), BuildingBlock: KIFKEQ_clean_linker_1, # of connection points: 2
#     Edge 43, Type (0, 0), BuildingBlock: KIFKEQ_clean_linker_1, # of connection points: 2
#     Edge 44, Type (0, 0), BuildingBlock: KIFKEQ_clean_linker_1, # of connection points: 2
#     Edge 45, Type (0, 0), BuildingBlock: KIFKEQ_clean_linker_1, # of connection points: 2
#     Edge 46, Type (0, 0), BuildingBlock: KIFKEQ_clean_linker_1, # of connection points: 2
#     Edge 47, Type (0, 0), BuildingBlock: KIFKEQ_clean_linker_1, # of connection points: 2
#     Edge 48, Type (0, 0), BuildingBlock: KIFKEQ_clean_linker_1, # of connection points: 2
#     Edge 49, Type (0, 0), BuildingBlock: KIFKEQ_clean_linker_1, # of connection points: 2
#     Edge 50, Type (0, 0), BuildingBlock: KIFKEQ_clean_linker_1, # of connection points: 2
#     Edge 51, Type (0, 0), BuildingBlock: KIFKEQ_clean_linker_1, # of connection points: 2
#     Edge 52, Type (0, 0), BuildingBlock: KIFKEQ_clean_linker_1, # of connection points: 2
#     Edge 53, Type (0, 0), BuildingBlock: KIFKEQ_clean_linker_1, # of connection points: 2
#     Edge 54, Type (0, 0), BuildingBlock: KIFKEQ_clean_linker_1, # of connection points: 2
#     Edge 55, Type (0, 0), BuildingBlock: KIFKEQ_clean_linker_1, # of connection points: 2
#     Edge 56, Type (0, 0), BuildingBlock: KIFKEQ_clean_linker_1, # of connection points: 2
#     Edge 57, Type (0, 0), BuildingBlock: KIFKEQ_clean_linker_1, # of connection points: 2
#     Edge 58, Type (0, 0), BuildingBlock: KIFKEQ_clean_linker_1, # of connection points: 2
#     Edge 59, Type (0, 0), BuildingBlock: KIFKEQ_clean_linker_1, # of connection points: 2
#     Edge 60, Type (0, 0), BuildingBlock: KIFKEQ_clean_linker_1, # of connection points: 2
#     Edge 61, Type (0, 0), BuildingBlock: KIFKEQ_clean_linker_1, # of connection points: 2
#     Edge 62, Type (0, 0), BuildingBlock: KIFKEQ_clean_linker_1, # of connection points: 2
#     Edge 63, Type (0, 0), BuildingBlock: KIFKEQ_clean_linker_1, # of connection points: 2
#     Edge 64, Type (0, 0), BuildingBlock: KIFKEQ_clean_linker_1, # of connection points: 2
#     Edge 65, Type (0, 0), BuildingBlock: KIFKEQ_clean_linker_1, # of connection points: 2
#     Edge 66, Type (0, 0), BuildingBlock: KIFKEQ_clean_linker_1, # of connection points: 2
#     Edge 67, Type (0, 0), BuildingBlock: KIFKEQ_clean_linker_1, # of connection points: 2
#     Edge 68, Type (0, 0), BuildingBlock: KIFKEQ_clean_linker_1, # of connection points: 2
#     Edge 69, Type (0, 0), BuildingBlock: KIFKEQ_clean_linker_1, # of connection points: 2
#     Edge 70, Type (0, 0), BuildingBlock: KIFKEQ_clean_linker_1, # of connection points: 2
#     Edge 71, Type (0, 0), BuildingBlock: KIFKEQ_clean_linker_1, # of connection points: 2
#     Edge 72, Type (0, 0), BuildingBlock: KIFKEQ_clean_linker_1, # of connection points: 2
#     Edge 73, Type (0, 0), BuildingBlock: KIFKEQ_clean_linker_1, # of connection points: 2
#     Edge 74, Type (0, 0), BuildingBlock: KIFKEQ_clean_linker_1, # of connection points: 2
#     Edge 75, Type (0, 0), BuildingBlock: KIFKEQ_clean_linker_1, # of connection points: 2
#     Edge 76, Type (0, 0), BuildingBlock: KIFKEQ_clean_linker_1, # of connection points: 2
#     Edge 77, Type (0, 0), BuildingBlock: KIFKEQ_clean_linker_1, # of connection points: 2
#     Edge 78, Type (0, 0), BuildingBlock: KIFKEQ_clean_linker_1, # of connection points: 2
#     Edge 79, Type (0, 0), BuildingBlock: KIFKEQ_clean_linker_1, # of connection points: 2
#     Edge 80, Type (0, 0), BuildingBlock: KIFKEQ_clean_linker_1, # of connection points: 2
#     Edge 81, Type (0, 0), BuildingBlock: KIFKEQ_clean_linker_1, # of connection points: 2
#     Edge 82, Type (0, 0), BuildingBlock: KIFKEQ_clean_linker_1, # of connection points: 2
#     Edge 83, Type (0, 0), BuildingBlock: KIFKEQ_clean_linker_1, # of connection points: 2
#     Edge 84, Type (0, 0), BuildingBlock: KIFKEQ_clean_linker_1, # of connection points: 2
#     Edge 85, Type (0, 0), BuildingBlock: KIFKEQ_clean_linker_1, # of connection points: 2
#     Edge 86, Type (0, 0), BuildingBlock: KIFKEQ_clean_linker_1, # of connection points: 2
#     Edge 87, Type (0, 0), BuildingBlock: KIFKEQ_clean_linker_1, # of connection points: 2
#     Edge 88, Type (0, 0), BuildingBlock: KIFKEQ_clean_linker_1, # of connection points: 2
#     Edge 89, Type (0, 0), BuildingBlock: KIFKEQ_clean_linker_1, # of connection points: 2
#     Edge 90, Type (0, 0), BuildingBlock: KIFKEQ_clean_linker_1, # of connection points: 2
#     Edge 91, Type (0, 0), BuildingBlock: KIFKEQ_clean_linker_1, # of connection points: 2
#     Edge 92, Type (0, 0), BuildingBlock: KIFKEQ_clean_linker_1, # of connection points: 2
#     Edge 93, Type (0, 0), BuildingBlock: KIFKEQ_clean_linker_1, # of connection points: 2
#     Edge 94, Type (0, 0), BuildingBlock: KIFKEQ_clean_linker_1, # of connection points: 2
#     Edge 95, Type (0, 0), BuildingBlock: KIFKEQ_clean_linker_1, # of connection points: 2
#     Edge 96, Type (0, 0), BuildingBlock: KIFKEQ_clean_linker_1, # of connection points: 2
#     Edge 97, Type (0, 0), BuildingBlock: KIFKEQ_clean_linker_1, # of connection points: 2
#     Edge 98, Type (0, 0), BuildingBlock: KIFKEQ_clean_linker_1, # of connection points: 2
#     Edge 99, Type (0, 0), BuildingBlock: KIFKEQ_clean_linker_1, # of connection points: 2
#     Edge 100, Type (0, 0), BuildingBlock: KIFKEQ_clean_linker_1, # of connection points: 2
#     Edge 101, Type (0, 0), BuildingBlock: KIFKEQ_clean_linker_1, # of connection points: 2
#     Edge 102, Type (0, 0), BuildingBlock: KIFKEQ_clean_linker_1, # of connection points: 2
#     Edge 103, Type (0, 0), BuildingBlock: KIFKEQ_clean_linker_1, # of connection points: 2
#     Edge 104, Type (0, 0), BuildingBlock: KIFKEQ_clean_linker_1, # of connection points: 2
#     Edge 105, Type (0, 0), BuildingBlock: KIFKEQ_clean_linker_1, # of connection points: 2
#     Edge 106, Type (0, 0), BuildingBlock: KIFKEQ_clean_linker_1, # of connection points: 2
#     Edge 107, Type (0, 0), BuildingBlock: KIFKEQ_clean_linker_1, # of connection points: 2
#     Edge 108, Type (0, 0), BuildingBlock: KIFKEQ_clean_linker_1, # of connection points: 2
#     Edge 109, Type (0, 0), BuildingBlock: KIFKEQ_clean_linker_1, # of connection points: 2
#     Edge 110, Type (0, 0), BuildingBlock: KIFKEQ_clean_linker_1, # of connection points: 2
#     Edge 111, Type (0, 0), BuildingBlock: KIFKEQ_clean_linker_1, # of connection points: 2
#     Edge 112, Type (0, 0), BuildingBlock: KIFKEQ_clean_linker_1, # of connection points: 2
#     Edge 113, Type (0, 0), BuildingBlock: KIFKEQ_clean_linker_1, # of connection points: 2
#     Edge 114, Type (0, 0), BuildingBlock: KIFKEQ_clean_linker_1, # of connection points: 2
#     Edge 115, Type (0, 0), BuildingBlock: KIFKEQ_clean_linker_1, # of connection points: 2
#     Edge 116, Type (0, 0), BuildingBlock: KIFKEQ_clean_linker_1, # of connection points: 2
#     Edge 117, Type (0, 0), BuildingBlock: KIFKEQ_clean_linker_1, # of connection points: 2
#     Edge 118, Type (0, 0), BuildingBlock: KIFKEQ_clean_linker_1, # of connection points: 2
#     Edge 119, Type (0, 0), BuildingBlock: KIFKEQ_clean_linker_1, # of connection points: 2
#     Edge 120, Type (0, 0), BuildingBlock: KIFKEQ_clean_linker_1, # of connection points: 2
#     Edge 121, Type (0, 0), BuildingBlock: KIFKEQ_clean_linker_1, # of connection points: 2
#     Edge 122, Type (0, 0), BuildingBlock: KIFKEQ_clean_linker_1, # of connection points: 2
#     Edge 123, Type (0, 0), BuildingBlock: KIFKEQ_clean_linker_1, # of connection points: 2
#     Edge 124, Type (0, 0), BuildingBlock: KIFKEQ_clean_linker_1, # of connection points: 2
#     Edge 125, Type (0, 0), BuildingBlock: KIFKEQ_clean_linker_1, # of connection points: 2
#     Edge 126, Type (0, 0), BuildingBlock: KIFKEQ_clean_linker_1, # of connection points: 2
#     Edge 127, Type (0, 0), BuildingBlock: KIFKEQ_clean_linker_1, # of connection points: 2
# Relax obj value: 0.308
# Max RMSD: 0.204
# Mean RMSD: 0.204
data_MOF--net-wir--node1-KUMBOL_clean_sbu_0--edge1-KIFKEQ_clean_linker_1
_symmetry_space_group_name_H-M    P1
_symmetry_Int_Tables_number       1
_symmetry_cell_setting            triclinic
loop_
_symmetry_equiv_pos_as_xyz
'x, y, z'
_cell_length_a     43.3067
_cell_length_b     43.156014
_cell_length_c     98.307944
_cell_angle_alpha  89.939802
_cell_angle_beta   90.045184
_cell_angle_gamma 89.874775
loop_
_atom_site_label
_atom_site_type_symbol
_atom_site_fract_x
_atom_site_fract_y
_atom_site_fract_z
_atom_type_partial_charge
Gd0 Gd 0.22369 0.19114 0.35889 0.0
Gd1 Gd 0.24873 0.25351 0.37721 0.0
C2 C 0.2716 0.33831 0.35145 0.0
C3 C 0.32141 0.32404 0.34193 0.0
C4 C 0.2941 0.28821 0.35675 0.0
C5 C 0.2701 0.30939 0.35815 0.0
C6 C 0.32016 0.2955 0.34877 0.0
C7 C 0.29714 0.34531 0.34321 0.0
C8 C 0.24769 0.35964 0.35346 0.0
C9 C 0.22376 0.35248 0.3624 0.0
N10 N 0.24568 0.30203 0.36623 0.0
C11 C 0.2235 0.32375 0.36898 0.0
H12 H 0.2059 0.31949 0.37652 0.0
C13 C 0.31501 0.23891 0.36211 0.0
N14 N 0.29162 0.26014 0.36293 0.0
C15 C 0.34142 0.24528 0.35445 0.0
C16 C 0.344 0.27367 0.34772 0.0
H17 H 0.3132 0.21696 0.36732 0.0
H18 H 0.29854 0.36732 0.33794 0.0
H19 H 0.24909 0.1205 0.369 0.0
H20 H 0.24798 0.38206 0.34848 0.0
H21 H 0.20582 0.36934 0.36446 0.0
H22 H 0.34106 0.32988 0.33561 0.0
H23 H 0.17015 0.21928 0.33551 0.0
H24 H 0.17211 0.06024 0.37359 0.0
H25 H 0.22792 0.07055 0.37601 0.0
H26 H 0.09045 0.11573 0.35192 0.0
H27 H 0.35974 0.22827 0.35371 0.0
H28 H 0.36437 0.27841 0.34167 0.0
H29 H 0.1208 0.07754 0.36477 0.0
H30 H 0.11749 0.20864 0.32849 0.0
N31 N 0.20516 0.14121 0.36482 0.0
C32 C 0.18116 0.08287 0.37098 0.0
C33 C 0.21259 0.08866 0.37244 0.0
C34 C 0.16217 0.10568 0.3653 0.0
C35 C 0.17509 0.13488 0.36208 0.0
C36 C 0.22437 0.11767 0.36888 0.0
N37 N 0.17297 0.18179 0.34987 0.0
C38 C 0.15834 0.156 0.35451 0.0
C39 C 0.12862 0.1937 0.33587 0.0
C40 C 0.11267 0.16876 0.3414 0.0
C41 C 0.15903 0.19937 0.33987 0.0
C42 C 0.12781 0.1489 0.35043 0.0
H43 H 0.08923 0.16418 0.33811 0.0
O44 O 0.26979 0.17899 0.35209 0.0
O45 O 0.25272 0.23488 0.35545 0.0
O46 O 0.19432 0.26693 0.37241 0.0
O47 O 0.17634 0.22098 0.3633 0.0
O48 O 0.22113 0.22592 0.34102 0.0
O49 O 0.22993 0.15889 0.34219 0.0
O50 O 0.28937 0.2581 0.38971 0.0
O51 O 0.22858 0.2086 0.37908 0.0
O52 O 0.25594 0.16915 0.37787 0.0
O53 O 0.27866 0.2114 0.38778 0.0
O54 O 0.20849 0.24217 0.39131 0.0
O55 O 0.25061 0.28906 0.3929 0.0
C56 C 0.24289 0.2452 0.34372 0.0
C57 C 0.11397 0.12125 0.35478 0.0
C58 C 0.13124 0.09951 0.36208 0.0
C59 C 0.25986 0.16142 0.34231 0.0
C60 C 0.27563 0.16435 0.3292 0.0
C61 C 0.26371 0.18239 0.31856 0.0
C62 C 0.30235 0.14674 0.32714 0.0
C63 C 0.31591 0.14454 0.31417 0.0
C64 C 0.27851 0.1826 0.30595 0.0
C65 C 0.30408 0.16348 0.30366 0.0
C66 C 0.16967 0.25036 0.36756 0.0
C67 C 0.20839 0.21321 0.38801 0.0
C68 C 0.27752 0.27965 0.39726 0.0
C69 C 0.28173 0.27617 0.41201 0.0
C70 C 0.29233 0.24866 0.41816 0.0
C71 C 0.27568 0.30183 0.42007 0.0
C72 C 0.27935 0.30058 0.43422 0.0
C73 C 0.29624 0.24721 0.43229 0.0
C74 C 0.28946 0.27303 0.44036 0.0
C75 C 0.27729 0.17986 0.38717 0.0
H76 H 0.24294 0.196 0.31992 0.0
H77 H 0.31148 0.13344 0.33559 0.0
H78 H 0.26932 0.19661 0.29775 0.0
H79 H 0.31332 0.16243 0.29345 0.0
H80 H 0.29748 0.22836 0.41214 0.0
H81 H 0.2669 0.32272 0.41525 0.0
H82 H 0.30416 0.22594 0.43699 0.0
H83 H 0.29176 0.27144 0.45131 0.0
Gd84 Gd 0.14954 0.97526 0.6082 0.0
Gd85 Gd 0.08559 1.00807 0.62202 0.0
C86 C 1.01077 1.0346 0.59192 0.0
C87 C 1.02961 0.08396 0.58343 0.0
C88 C 0.06018 0.05455 0.59978 0.0
C89 C 1.0375 1.03147 0.60006 0.0
C90 C 0.05622 0.08099 0.59148 0.0
C91 C 1.00708 0.06079 0.58359 0.0
C92 C 0.98828 1.01142 0.59245 0.0
C93 C 0.99209 0.98645 0.6013 0.0
N94 N 1.04151 1.00608 0.60817 0.0
C95 C 1.01861 0.9845 0.60936 0.0
H96 H 1.01992 0.96625 0.61684 0.0
C97 C 0.10944 0.07239 0.60692 0.0
N98 N 0.08658 0.05058 0.60716 0.0
C99 C 0.10631 0.09897 0.5989 0.0
C100 C 0.07958 0.10336 0.5912 0.0
H101 H 0.13024 0.06932 0.61278 0.0
H102 H 0.98676 0.06341 0.57724 0.0
H103 H 0.18366 0.9724 0.64057 0.0
H104 H 0.96754 1.01297 0.58631 0.0
H105 H 0.97425 0.96903 0.60216 0.0
H106 H 1.02639 0.10396 0.5769 0.0
H107 H 0.15415 0.94486 0.5763 0.0
H108 H 0.22685 0.88487 0.64484 0.0
H109 H 0.21286 0.93607 0.65405 0.0
H110 H 0.21404 0.83669 0.60163 0.0
H111 H 0.12455 0.11606 0.59866 0.0
H112 H 0.07739 0.12389 0.58491 0.0
H113 H 0.22664 0.84798 0.62545 0.0
H114 H 0.16865 0.89583 0.56567 0.0
N115 N 0.18091 0.94369 0.62273 0.0
C116 C 0.21429 0.90119 0.63852 0.0
C117 C 0.20654 0.93009 0.64373 0.0
C118 C 0.20606 0.8938 0.62519 0.0
C119 C 0.18947 0.91582 0.61736 0.0
C120 C 0.19003 0.95112 0.63571 0.0
N121 N 0.16689 0.93087 0.59642 0.0
C122 C 0.18203 0.90916 0.60393 0.0
C123 C 0.17207 0.89903 0.57648 0.0
C124 C 0.1857 0.8757 0.58423 0.0
C125 C 0.16322 0.92675 0.5827 0.0
C126 C 0.19144 0.88079 0.59804 0.0
H127 H 0.19264 0.85427 0.57936 0.0
O128 O 0.19412 0.97805 0.59811 0.0
O129 O 0.11062 1.00854 0.60176 0.0
O130 O 0.07193 0.95203 0.61831 0.0
O131 O 0.11535 0.93093 0.60777 0.0
O132 O 0.11914 0.97347 0.58869 0.0
O133 O 0.16607 1.01926 0.60038 0.0
O134 O 0.06755 0.05029 0.63045 0.0
O135 O 0.11789 0.9712 0.62506 0.0
O136 O 0.16915 1.01025 0.62618 0.0
O137 O 0.12672 1.03779 0.63307 0.0
O138 O 0.10528 0.9935 0.64241 0.0
O139 O 1.04665 1.00632 0.63607 0.0
C140 C 0.10197 0.99775 0.58997 0.0
C141 C 0.20697 0.85866 0.60597 0.0
C142 C 0.21422 0.86513 0.61951 0.0
C143 C 0.19293 1.00811 0.59697 0.0
C144 C 0.21973 1.02551 0.6021 0.0
C145 C 0.23236 1.01906 0.61495 0.0
C146 C 0.23232 0.04943 0.59422 0.0
C147 C 0.25702 0.06744 0.5992 0.0
C148 C 0.25568 1.03772 0.62024 0.0
C149 C 0.26761 0.06205 0.61255 0.0
C150 C 0.08635 0.92615 0.61278 0.0
C151 C 0.12108 0.9706 0.63777 0.0
C152 C 0.04926 1.03593 0.63878 0.0
C153 C 0.05259 1.04496 0.65313 0.0
C154 C 0.07781 0.06254 0.65788 0.0
C155 C 1.03026 1.03534 0.66229 0.0
C156 C 1.03283 1.04244 0.67615 0.0
C157 C 0.08055 0.0696 0.67172 0.0
C158 C 0.05823 0.05929 0.68092 0.0
C159 C 0.15782 1.0337 0.63412 0.0
H160 H 0.22415 0.99977 0.62095 0.0
H161 H 0.22359 0.05297 0.584 0.0
H162 H 0.26492 1.03302 0.63027 0.0
H163 H 0.2859 0.07593 0.61691 0.0
H164 H 0.09549 0.07068 0.651 0.0
H165 H 1.01116 1.02135 0.65864 0.0
H166 H 0.10013 0.08281 0.67532 0.0
H167 H 0.06074 0.06436 0.69165 0.0
Gd168 Gd 0.37656 0.90368 0.86242 0.0
Gd169 Gd 0.34806 0.83803 0.87754 0.0
C170 C 0.32189 0.75669 0.85071 0.0
C171 C 0.27492 0.77556 0.83991 0.0
C172 C 0.30333 0.80863 0.85553 0.0
C173 C 0.32509 0.78531 0.85749 0.0
C174 C 0.27815 0.80404 0.84665 0.0
C175 C 0.29671 0.75196 0.84194 0.0
C176 C 0.3441 0.73365 0.85295 0.0
C177 C 0.36833 0.73915 0.86201 0.0
N178 N 0.34942 0.79065 0.86592 0.0
C179 C 0.37036 0.76775 0.86862 0.0
H180 H 0.38821 0.77105 0.87615 0.0
C181 C 0.28727 0.86017 0.85995 0.0
N182 N 0.30754 0.83629 0.86184 0.0
C183 C 0.26201 0.85671 0.85122 0.0
C184 C 0.25736 0.8285 0.84457 0.0
H185 H 0.2907 0.88196 0.86509 0.0
H186 H 0.29397 0.73016 0.83661 0.0
H187 H 0.37851 0.95748 0.88767 0.0
H188 H 0.3425 0.71139 0.84792 0.0
H189 H 0.38515 0.72117 0.86408 0.0
H190 H 0.25582 0.77166 0.833 0.0
H191 H 0.4149 0.87137 0.8357 0.0
H192 H 0.46705 0.99994 0.88773 0.0
H193 H 0.41441 0.99532 0.89701 0.0
H194 H 0.51923 0.95235 0.85035 0.0
H195 H 0.24613 0.87577 0.84963 0.0
H196 H 0.23785 0.82594 0.83776 0.0
H197 H 0.50592 0.98377 0.87034 0.0
H198 H 0.46476 0.87651 0.82423 0.0
N199 N 0.41013 0.93953 0.87297 0.0
C200 C 0.45129 0.98308 0.88346 0.0
C201 C 0.4216 0.9805 0.88873 0.0
C202 C 0.45998 0.96455 0.87246 0.0
C203 C 0.4385 0.94303 0.86722 0.0
C204 C 0.40118 0.9587 0.88332 0.0
N205 N 0.42449 0.90565 0.85079 0.0
C206 C 0.4458 0.92585 0.85575 0.0
C207 C 0.45965 0.89066 0.83303 0.0
C208 C 0.48174 0.9111 0.83806 0.0
C209 C 0.43104 0.88824 0.83949 0.0
C210 C 0.47503 0.92899 0.84954 0.0
H211 H 0.50395 0.91281 0.83305 0.0
O212 O 0.33366 0.92617 0.85675 0.0
O213 O 0.35439 0.85761 0.85649 0.0
O214 O 0.40296 0.82447 0.8736 0.0
O215 O 0.42247 0.87152 0.86606 0.0
O216 O 0.36364 0.88533 0.84089 0.0
O217 O 0.3773 0.94757 0.85157 0.0
O218 O 0.30465 0.83062 0.88782 0.0
O219 O 0.3679 0.88255 0.88198 0.0
O220 O 0.34117 0.92372 0.88033 0.0
O221 O 0.31676 0.87993 0.88803 0.0
O222 O 0.38582 0.84586 0.89296 0.0
O223 O 0.34415 0.80201 0.89289 0.0
C224 C 0.35192 0.85853 0.8432 0.0
C225 C 0.49667 0.94972 0.85497 0.0
C226 C 0.48914 0.96751 0.86638 0.0
C227 C 0.34741 0.94818 0.85004 0.0
C228 C 0.3354 0.95388 0.83629 0.0
C229 C 0.35074 0.94265 0.82471 0.0
C230 C 0.3076 0.9702 0.83479 0.0
C231 C 0.29512 0.97566 0.8218 0.0
C232 C 0.33779 0.94674 0.81185 0.0
C233 C 0.31019 0.96314 0.81036 0.0
C234 C 0.42827 0.84152 0.86965 0.0
C235 C 0.38739 0.87544 0.89103 0.0
C236 C 0.31659 0.81135 0.89651 0.0
C237 C 0.31191 0.81977 0.91091 0.0
C238 C 0.2863 0.83751 0.91511 0.0
C239 C 0.33392 0.81115 0.92053 0.0
C240 C 0.33089 0.81984 0.93418 0.0
C241 C 0.28319 0.8464 0.92874 0.0
C242 C 0.3053 0.83732 0.93834 0.0
C243 C 0.31836 0.91165 0.88846 0.0
H244 H 0.37268 0.93075 0.82556 0.0
H245 H 0.29605 0.97926 0.84373 0.0
H246 H 0.34958 0.93786 0.80296 0.0
H247 H 0.30158 0.96738 0.80018 0.0
H248 H 0.26877 0.84455 0.90787 0.0
H249 H 0.35322 0.79667 0.91749 0.0
H250 H 0.26341 0.85997 0.93188 0.0
H251 H 0.30225 0.84342 0.94894 0.0
Gd252 Gd 0.44105 0.1294 0.10777 0.0
Gd253 Gd 0.5042 0.09483 0.12089 0.0
C254 C 0.57718 0.06644 0.09033 0.0
C255 C 0.55717 1.01727 0.0822 0.0
C256 C 0.52765 1.0476 0.09856 0.0
C257 C 0.55079 0.07023 0.0986 0.0
C258 C 0.53081 1.02097 0.09033 0.0
C259 C 0.58016 1.03997 0.08214 0.0
C260 C 0.60003 0.08928 0.09056 0.0
C261 C 0.59686 0.11463 0.09922 0.0
N262 N 0.54745 0.09592 0.10656 0.0
C263 C 0.57066 0.11725 0.10743 0.0
H264 H 0.56987 0.13579 0.11476 0.0
C265 C 0.47803 1.03117 0.10581 0.0
N266 N 0.50157 0.05224 0.10607 0.0
C267 C 0.48034 1.00447 0.09785 0.0
C268 C 0.50689 0.99922 0.09016 0.0
H269 H 0.4572 1.03491 0.11155 0.0
H270 H 0.60023 1.03682 0.07571 0.0
H271 H 0.401 0.13176 0.13837 0.0
H272 H 0.62054 0.08722 0.08431 0.0
H273 H 0.61497 0.13182 0.09983 0.0
H274 H 0.55979 0.99709 0.07575 0.0
H275 H 0.43601 0.15906 0.07558 0.0
H276 H 0.36562 0.22274 0.14335 0.0
H277 H 0.37244 0.16927 0.15167 0.0
H278 H 0.38723 0.27239 0.1011 0.0
H279 H 0.46157 0.98795 0.09763 0.0
H280 H 0.50844 0.97859 0.08393 0.0
H281 H 0.37217 0.26123 0.12466 0.0
H282 H 0.42571 0.20929 0.06492 0.0
N283 N 0.41122 0.16268 0.12192 0.0
C284 C 0.37821 0.20613 0.13722 0.0
C285 C 0.38191 0.17597 0.14191 0.0
C286 C 0.38959 0.21412 0.12442 0.0
C287 C 0.40562 0.19149 0.11676 0.0
C288 C 0.39835 0.15447 0.13412 0.0
N289 N 0.4264 0.17465 0.09579 0.0
C290 C 0.41356 0.19768 0.10335 0.0
C291 C 0.42275 0.20655 0.07578 0.0
C292 C 0.41194 0.23118 0.08361 0.0
C293 C 0.42925 0.17813 0.082 0.0
C294 C 0.40634 0.2267 0.09747 0.0
H295 H 0.40667 0.2531 0.07873 0.0
O296 O 0.39489 0.12895 0.09914 0.0
O297 O 0.47891 0.09541 0.10079 0.0
O298 O 0.51829 0.15105 0.117 0.0
O299 O 0.47375 0.17415 0.10852 0.0
O300 O 0.47178 0.13176 0.0883 0.0
O301 O 0.42334 0.08763 0.09834 0.0
O302 O 0.52505 0.05328 0.12877 0.0
O303 O 0.47255 0.13176 0.12498 0.0
O304 O 0.42063 0.0935 0.12532 0.0
O305 O 0.46279 0.06481 0.13181 0.0
O306 O 0.48369 0.10508 0.14152 0.0
O307 O 0.54341 0.09807 0.13477 0.0
C308 C 0.48787 0.10663 0.08915 0.0
C309 C 0.39257 0.24989 0.10542 0.0
C310 C 0.38407 0.24356 0.11884 0.0
C311 C 0.39609 0.09952 0.09627 0.0
C312 C 0.36993 0.08035 0.10066 0.0
C313 C 0.35513 0.08502 0.1132 0.0
C314 C 0.35974 0.05674 0.09205 0.0
C315 C 0.33459 1.03799 0.0957 0.0
C316 C 0.33061 0.06594 0.11707 0.0
C317 C 0.3202 1.04263 0.10834 0.0
C318 C 0.50349 0.17786 0.11246 0.0
C319 C 0.46828 0.1289 0.13759 0.0
C320 C 0.54275 0.06821 0.13714 0.0
C321 C 0.54052 0.05812 0.15139 0.0
C322 C 0.5155 1.04043 0.15625 0.0
C323 C 0.56374 0.06673 0.16033 0.0
C324 C 0.56228 0.05845 0.1741 0.0
C325 C 0.51392 1.03211 0.16999 0.0
C326 C 0.53715 1.04135 0.17898 0.0
C327 C 0.43168 0.06932 0.13297 0.0
H328 H 0.36237 0.1034 0.11996 0.0
H329 H 0.37068 0.05386 0.0822 0.0
H330 H 0.31931 0.06956 0.12676 0.0
H331 H 0.30063 1.0286 0.11134 0.0
H332 H 0.4971 1.03319 0.14953 0.0
H333 H 0.58263 0.08088 0.15659 0.0
H334 H 0.49452 1.01877 0.17369 0.0
H335 H 0.5355 1.03531 0.18965 0.0
Gd336 Gd 0.22615 0.90983 0.23284 0.0
Gd337 Gd 0.25028 0.84655 0.21484 0.0
C338 C 0.27273 0.76255 0.24127 0.0
C339 C 0.32268 0.77665 0.25068 0.0
C340 C 0.29563 0.8121 0.23551 0.0
C341 C 0.27145 0.79117 0.23432 0.0
C342 C 0.3216 0.8049 0.24361 0.0
C343 C 0.29826 0.7556 0.24956 0.0
C344 C 0.24855 0.74151 0.23953 0.0
C345 C 0.22451 0.74866 0.2306 0.0
N346 N 0.24696 0.79855 0.22624 0.0
C347 C 0.22443 0.7771 0.22378 0.0
H348 H 0.20669 0.78131 0.21628 0.0
C349 C 0.31677 0.86101 0.22983 0.0
N350 N 0.2933 0.83994 0.22912 0.0
C351 C 0.34307 0.85475 0.23763 0.0
C352 C 0.34549 0.8266 0.24457 0.0
H353 H 0.31508 0.8828 0.2245 0.0
H354 H 0.29949 0.73383 0.25504 0.0
H355 H 0.2524 0.97975 0.22225 0.0
H356 H 0.24867 0.71933 0.24471 0.0
H357 H 0.20632 0.73202 0.22877 0.0
H358 H 0.34226 0.77089 0.25708 0.0
H359 H 0.1724 0.88372 0.25646 0.0
H360 H 0.17605 1.04084 0.21695 0.0
H361 H 0.23178 1.02964 0.21475 0.0
H362 H 0.09381 0.98766 0.23905 0.0
H363 H 0.36143 0.87165 0.2383 0.0
H364 H 0.36577 0.82194 0.25071 0.0
H365 H 0.12458 1.02475 0.22587 0.0
H366 H 0.11986 0.89551 0.26335 0.0
N367 N 0.20822 0.95979 0.22646 0.0
C368 C 0.18485 1.01819 0.21976 0.0
C369 C 0.21624 1.01191 0.21843 0.0
C370 C 0.16561 0.99592 0.2256 0.0
C371 C 0.17821 0.96668 0.22909 0.0
C372 C 0.2277 0.98289 0.22227 0.0
N373 N 0.17556 0.92039 0.24172 0.0
C374 C 0.16122 0.94617 0.23684 0.0
C375 C 0.13113 0.90988 0.25583 0.0
C376 C 0.11545 0.93478 0.25005 0.0
C377 C 0.16147 0.90354 0.25189 0.0
C378 C 0.13078 0.95395 0.24084 0.0
H379 H 0.09207 0.93989 0.25329 0.0
O380 O 0.27225 0.92109 0.23991 0.0
O381 O 0.25455 0.86565 0.23648 0.0
O382 O 0.19561 0.83427 0.21967 0.0
O383 O 0.17831 0.8807 0.22861 0.0
O384 O 0.22309 0.87551 0.25085 0.0
O385 O 0.23249 0.94282 0.24924 0.0
O386 O 0.29035 0.84094 0.20206 0.0
O387 O 0.23089 0.89183 0.21272 0.0
O388 O 0.25909 0.93069 0.21388 0.0
O389 O 0.28086 0.88778 0.20402 0.0
O390 O 0.21011 0.85824 0.20074 0.0
O391 O 0.25143 0.81 0.19961 0.0
C392 C 0.24457 0.85577 0.24824 0.0
C393 C 0.11726 0.98162 0.23624 0.0
C394 C 0.13476 1.00274 0.22875 0.0
C395 C 0.26235 0.93945 0.24942 0.0
C396 C 0.27739 0.9367 0.26272 0.0
C397 C 0.26477 0.91903 0.27329 0.0
C398 C 0.30409 0.95408 0.26501 0.0
C399 C 0.31697 0.95638 0.27812 0.0
C400 C 0.27888 0.91889 0.28606 0.0
C401 C 0.30446 0.93777 0.28856 0.0
C402 C 0.17118 0.85135 0.22447 0.0
C403 C 0.21057 0.88731 0.20384 0.0
C404 C 0.27807 0.81903 0.19487 0.0
C405 C 0.28123 0.82169 0.18004 0.0
C406 C 0.29168 0.84872 0.17349 0.0
C407 C 0.27409 0.79579 0.17231 0.0
C408 C 0.27661 0.79633 0.15811 0.0
C409 C 0.29441 0.84945 0.1593 0.0
C410 C 0.28662 0.8234 0.15157 0.0
C411 C 0.28018 0.91938 0.20459 0.0
H412 H 0.24398 0.90563 0.27176 0.0
H413 H 0.31374 0.96714 0.25662 0.0
H414 H 0.26915 0.90516 0.29421 0.0
H415 H 0.31314 0.93891 0.29887 0.0
H416 H 0.2976 0.86919 0.17925 0.0
H417 H 0.26542 0.7753 0.17744 0.0
H418 H 0.30224 0.87035 0.15429 0.0
H419 H 0.28813 0.82443 0.14058 0.0
Gd420 Gd 0.43779 0.97321 0.48697 0.0
Gd421 Gd 0.50017 0.99828 0.4683 0.0
C422 C 0.58359 1.02738 0.49323 0.0
C423 C 0.56592 0.07588 0.50313 0.0
C424 C 0.53163 1.04583 0.48865 0.0
C425 C 0.55454 1.02357 0.48693 0.0
C426 C 0.53703 0.07207 0.49686 0.0
C427 C 0.58913 0.05362 0.50131 0.0
C428 C 0.60623 1.00467 0.49123 0.0
C429 C 0.5999 0.97933 0.48288 0.0
N430 N 0.5484 0.99818 0.47921 0.0
C431 C 0.57089 0.97668 0.47674 0.0
H432 H 0.567 0.95787 0.46972 0.0
C433 C 0.48007 0.06181 0.48459 0.0
N434 N 0.50354 1.04104 0.48286 0.0
C435 C 0.48435 0.08812 0.49266 0.0
C436 C 0.51297 0.09333 0.49879 0.0
H437 H 0.45796 0.05806 0.47985 0.0
H438 H 0.61126 0.05683 0.50626 0.0
H439 H 0.3708 0.97635 0.46969 0.0
H440 H 0.62879 1.00672 0.49591 0.0
H441 H 0.61756 0.96208 0.48097 0.0
H442 H 0.57044 0.09581 0.50951 0.0
H443 H 0.47604 0.93624 0.51283 0.0
H444 H 0.32323 0.89091 0.47488 0.0
H445 H 0.32579 0.94375 0.4653 0.0
H446 H 0.38698 0.83446 0.50571 0.0
H447 H 0.4656 0.10438 0.49413 0.0
H448 H 0.51616 0.11366 0.50509 0.0
H449 H 0.34723 0.84949 0.48912 0.0
H450 H 0.47219 0.88801 0.52576 0.0
N451 N 0.39549 0.94178 0.48081 0.0
C452 C 0.34363 0.9049 0.47656 0.0
C453 C 0.34494 0.93472 0.47118 0.0
C454 C 0.36796 0.89396 0.48457 0.0
C455 C 0.39355 0.91352 0.48688 0.0
C456 C 0.37097 0.95302 0.47352 0.0
N457 N 0.43791 0.92625 0.49968 0.0
C458 C 0.41537 0.9055 0.49659 0.0
C459 C 0.45602 0.89265 0.5176 0.0
C460 C 0.43384 0.8707 0.51414 0.0
C461 C 0.45772 0.9204 0.51032 0.0
C462 C 0.41293 0.8771 0.50367 0.0
H463 H 0.43265 0.84919 0.51981 0.0
O464 O 0.39587 0.97742 0.49892 0.0
O465 O 0.48521 0.9952 0.49044 0.0
O466 O 0.51403 0.94384 0.47261 0.0
O467 O 0.47024 0.92664 0.48401 0.0
O468 O 0.46064 0.98698 0.50727 0.0
O469 O 0.42232 1.01839 0.49403 0.0
O470 O 0.50626 1.0393 0.45607 0.0
O471 O 0.4549 0.97791 0.46653 0.0
O472 O 0.4156 1.00575 0.46805 0.0
O473 O 0.45787 1.0284 0.45808 0.0
O474 O 0.48889 0.95788 0.45445 0.0
O475 O 0.53514 0.99901 0.45241 0.0
C476 C 0.48661 0.99862 0.50375 0.0
C477 C 0.38899 0.85648 0.50048 0.0
C478 C 0.36643 0.86498 0.49101 0.0
C479 C 0.39982 1.00685 0.50121 0.0
C480 C 0.39864 1.01665 0.51554 0.0
C481 C 0.41084 0.99762 0.52586 0.0
C482 C 0.38595 1.04557 0.51895 0.0
C483 C 0.38639 0.05578 0.53252 0.0
C484 C 0.41257 1.00828 0.53919 0.0
C485 C 0.40063 1.03727 0.54252 0.0
C486 C 0.49879 0.91979 0.47879 0.0
C487 C 0.46001 0.95728 0.45773 0.0
C488 C 0.52664 1.02645 0.4482 0.0
C489 C 0.5221 1.03069 0.43349 0.0
C490 C 0.49447 1.04215 0.42782 0.0
C491 C 0.54663 1.02355 0.42495 0.0
C492 C 0.5441 1.02717 0.41083 0.0
C493 C 0.49173 1.04588 0.41373 0.0
C494 C 0.5164 1.03816 0.40519 0.0
C495 C 0.42643 1.02715 0.45873 0.0
H496 H 0.41932 0.97456 0.52365 0.0
H497 H 0.37518 0.05975 0.51116 0.0
H498 H 0.42249 0.99372 0.54704 0.0
H499 H 0.40082 1.04438 0.55308 0.0
H500 H 0.47505 1.04814 0.43419 0.0
H501 H 0.56764 1.01415 0.42938 0.0
H502 H 0.47037 0.0545 0.40941 0.0
H503 H 0.51386 1.04059 0.39428 0.0
Gd504 Gd 0.36228 0.19547 0.734 0.0
Gd505 Gd 0.3375 0.25757 0.71548 0.0
C506 C 0.31449 0.34213 0.74142 0.0
C507 C 0.26449 0.32809 0.75076 0.0
C508 C 0.2918 0.2924 0.73584 0.0
C509 C 0.31591 0.31339 0.73459 0.0
C510 C 0.26569 0.29973 0.7438 0.0
C511 C 0.2889 0.34916 0.74963 0.0
C512 C 0.33858 0.36326 0.73959 0.0
C513 C 0.36261 0.35608 0.7307 0.0
N514 N 0.34043 0.30597 0.72656 0.0
C515 C 0.36281 0.32752 0.72399 0.0
H516 H 0.38053 0.32331 0.7165 0.0
C517 C 0.27083 0.24335 0.73032 0.0
N518 N 0.29428 0.26443 0.72959 0.0
C519 C 0.24434 0.24978 0.73794 0.0
C520 C 0.24177 0.27805 0.74474 0.0
H521 H 0.27265 0.22144 0.72511 0.0
H522 H 0.28757 0.37102 0.75501 0.0
H523 H 0.3356 0.12497 0.72432 0.0
H524 H 0.33836 0.38553 0.74467 0.0
H525 H 0.3807 0.37278 0.72879 0.0
H526 H 0.24482 0.33393 0.75707 0.0
H527 H 0.41616 0.22106 0.75768 0.0
H528 H 0.41208 0.06429 0.71837 0.0
H529 H 0.35612 0.075 0.71682 0.0
H530 H 0.49531 0.11858 0.73923 0.0
H531 H 0.22598 0.23288 0.7386 0.0
H532 H 0.22137 0.28282 0.75076 0.0
H533 H 0.46411 0.08112 0.72646 0.0
H534 H 0.46926 0.20991 0.76407 0.0
N535 N 0.3799 0.14525 0.72791 0.0
C536 C 0.40328 0.08691 0.72119 0.0
C537 C 0.37176 0.09292 0.72023 0.0
C538 C 0.42275 0.10946 0.72668 0.0
C539 C 0.41013 0.13865 0.7302 0.0
C540 C 0.36031 0.12192 0.72408 0.0
N541 N 0.41308 0.18504 0.74268 0.0
C542 C 0.4274 0.1594 0.73768 0.0
C543 C 0.45788 0.19564 0.75654 0.0
C544 C 0.47364 0.17111 0.75053 0.0
C545 C 0.42729 0.2017 0.75286 0.0
C546 C 0.4581 0.1519 0.7414 0.0
H547 H 0.49721 0.1662 0.75357 0.0
O548 O 0.31672 0.1854 0.74214 0.0
O549 O 0.33305 0.23925 0.73732 0.0
O550 O 0.39199 0.27062 0.72017 0.0
O551 O 0.40978 0.22493 0.72968 0.0
O552 O 0.36633 0.23174 0.7512 0.0
O553 O 0.35696 0.16286 0.75064 0.0
O554 O 0.29761 0.2623 0.70246 0.0
O555 O 0.35738 0.21229 0.7137 0.0
O556 O 0.32926 0.17362 0.71519 0.0
O557 O 0.30732 0.21595 0.70491 0.0
O558 O 0.37796 0.24576 0.70161 0.0
O559 O 0.33616 0.29365 0.70001 0.0
C560 C 0.34347 0.25006 0.74884 0.0
C561 C 0.47164 0.12438 0.73668 0.0
C562 C 0.45389 0.10304 0.72942 0.0
C563 C 0.32735 0.16736 0.75163 0.0
C564 C 0.31482 0.17202 0.76535 0.0
C565 C 0.3299 0.19048 0.775 0.0
C566 C 0.28826 0.1557 0.76906 0.0
C567 C 0.27805 0.15524 0.78266 0.0
C568 C 0.31829 0.19266 0.78819 0.0
C569 C 0.29289 0.17486 0.7921 0.0
C570 C 0.41657 0.25409 0.72519 0.0
C571 C 0.37781 0.21677 0.70487 0.0
C572 C 0.3099 0.28394 0.6951 0.0
C573 C 0.30774 0.28012 0.68028 0.0
C574 C 0.29704 0.25279 0.67406 0.0
C575 C 0.31658 0.30491 0.67218 0.0
C576 C 0.31568 0.30286 0.65796 0.0
C577 C 0.29584 0.2506 0.65986 0.0
C578 C 0.30546 0.27547 0.65178 0.0
C579 C 0.3082 0.18444 0.70574 0.0
H580 H 0.35078 0.20285 0.77246 0.0
H581 H 0.27672 0.1419 0.76139 0.0
H582 H 0.32991 0.20706 0.7956 0.0
H583 H 0.28631 0.17521 0.80271 0.0
H584 H 0.28984 0.23314 0.68008 0.0
H585 H 0.3254 0.32565 0.67704 0.0
H586 H 0.28784 0.22945 0.65513 0.0
H587 H 0.30517 0.27329 0.64081 0.0
Gd588 Gd 0.15714 0.11385 0.98829 0.0
Gd589 Gd 0.09301 0.08879 0.97099 0.0
C590 C 1.01594 0.05538 0.99878 0.0
C591 C 1.0354 1.00531 1.00619 0.0
C592 C 0.06641 1.03777 0.99122 0.0
C593 C 1.04326 0.06016 0.99122 0.0
C594 C 0.06283 1.01035 0.99892 0.0
C595 C 1.01204 1.02775 1.00612 0.0
C596 C 0.99358 0.07881 0.99899 0.0
C597 C 0.9986 0.10613 0.99174 0.0
N598 N 0.04795 0.08708 0.98433 0.0
C599 C 1.02589 0.10983 0.98435 0.0
H600 H 1.02848 0.13039 0.97822 0.0
C601 C 0.11755 1.02363 0.98541 0.0
N602 N 0.09329 1.04383 0.98457 0.0
C603 C 0.11495 0.99614 0.99285 0.0
C604 C 0.08739 0.98931 0.99952 0.0
H605 H 0.13921 1.02856 0.98058 0.0
H606 H 0.99124 1.02375 1.01198 0.0
H607 H 0.22247 0.114 0.96974 0.0
H608 H 0.97238 0.07604 1.00471 0.0
H609 H 0.98123 0.1242 0.99168 0.0
H610 H 1.03232 0.98442 1.01215 0.0
H611 H 0.11645 0.15067 1.01347 0.0
H612 H 0.26766 0.20088 0.97482 0.0
H613 H 0.26614 0.14832 0.96493 0.0
H614 H 0.20451 0.2537 1.00724 0.0
H615 H 0.13431 0.9803 0.99348 0.0
H616 H 0.08559 0.96811 1.00538 0.0
H617 H 0.24413 0.24024 0.99035 0.0
H618 H 0.11823 0.19946 1.02605 0.0
N619 N 0.19884 0.14635 0.98233 0.0
C620 C 0.24844 0.18571 0.97711 0.0
C621 C 0.24767 0.15608 0.97152 0.0
C622 C 0.22492 0.19503 0.98594 0.0
C623 C 0.20049 0.17428 0.98867 0.0
C624 C 0.22263 0.13665 0.97424 0.0
N625 N 0.15637 0.16032 1.00137 0.0
C626 C 0.17875 0.18144 0.9985 0.0
C627 C 0.13553 0.1946 1.0184 0.0
C628 C 0.158 0.21658 1.01536 0.0
C629 C 0.13509 0.16647 1.01138 0.0
C630 C 0.18004 0.21015 1.00537 0.0
H631 H 0.15817 0.2384 1.0208 0.0
O632 O 0.20143 0.10665 0.99844 0.0
O633 O 0.11022 0.09209 0.99262 0.0
O634 O 0.08079 0.14408 0.9752 0.0
O635 O 0.12681 0.16151 0.98462 0.0
O636 O 0.13594 0.1003 1.00921 0.0
O637 O 0.16936 0.06858 0.99616 0.0
O638 O 0.09007 0.05809 0.95348 0.0
O639 O 0.13777 0.10892 0.96824 0.0
O640 O 0.17745 0.0823 0.96891 0.0
O641 O 0.13454 0.05798 0.9602 0.0
O642 O 0.10211 0.1302 0.95736 0.0
O643 O 0.04964 0.0825 0.96051 0.0
C644 C 0.10947 0.0888 1.00591 0.0
C645 C 0.20333 0.23149 1.00213 0.0
C646 C 0.2258 0.22389 0.99248 0.0
C647 C 0.19638 0.07725 1.00044 0.0
C648 C 0.22188 0.05532 0.99817 0.0
C649 C 0.23558 0.05092 0.98539 0.0
C650 C 0.23207 1.03766 1.00923 0.0
C651 C 0.25612 1.01605 1.00774 0.0
C652 C 0.2593 1.02921 0.98377 0.0
C653 C 0.26975 1.01196 0.99491 0.0
C654 C 0.09757 0.16854 0.98027 0.0
C655 C 0.13156 0.12959 0.95959 0.0
C656 C 0.06231 0.06738 0.95052 0.0
C657 C 0.05837 0.08114 0.93697 0.0
C658 C 0.06976 0.06654 0.92524 0.0
C659 C 1.04474 0.11042 0.93586 0.0
C660 C 1.04107 0.12467 0.92327 0.0
C661 C 0.06717 0.08125 0.91258 0.0
C662 C 0.05274 0.11022 0.91155 0.0
C663 C 0.16612 0.06014 0.96012 0.0
H664 H 0.22823 0.06409 0.97668 0.0
H665 H 0.22178 1.04145 1.01916 0.0
H666 H 0.26981 1.02598 0.97388 0.0
H667 H 0.28854 0.99565 0.99355 0.0
H668 H 0.08085 1.04407 0.9259 0.0
H669 H 1.03635 0.12233 0.94484 0.0
H670 H 0.07593 0.06997 0.90354 0.0
H671 H 0.04975 0.12076 0.90163 0.0
Gd672 Gd 0.84688 0.84301 0.71798 0.0
Gd673 Gd 0.87207 0.90518 0.73642 0.0
C674 C 0.93374 0.98879 0.72675 0.0
C675 C 0.98286 0.97348 0.73651 0.0
C676 C 0.93792 0.93992 0.73871 0.0
C677 C 0.9207 0.96033 0.73096 0.0
C678 C 0.96893 0.94695 0.74199 0.0
C679 C 0.96518 0.99457 0.72902 0.0
C680 C 0.9144 1.01148 0.7212 0.0
C681 C 0.88265 1.00649 0.72097 0.0
N682 N 0.89015 0.95449 0.72928 0.0
C683 C 0.87082 0.97819 0.7255 0.0
H684 H 0.84609 0.97603 0.72629 0.0
C685 C 0.93732 0.89971 0.75499 0.0
N686 N 0.92324 0.91538 0.74446 0.0
C687 C 0.9682 0.90529 0.75828 0.0
C688 C 0.98435 0.92846 0.75149 0.0
H689 H 0.92568 0.88161 0.76046 0.0
H690 H 0.97567 1.01597 0.72558 0.0
H691 H 0.89 0.77732 0.71774 0.0
H692 H 0.92352 1.03357 0.71785 0.0
H693 H 0.86719 1.02466 0.71758 0.0
H694 H 1.00676 0.97891 0.73874 0.0
H695 H 0.78227 0.87844 0.72847 0.0
H696 H 0.84968 0.71334 0.74569 0.0
H697 H 0.89096 0.72696 0.72941 0.0
H698 H 0.75687 0.76438 0.75979 0.0
H699 H 0.97948 0.89176 0.76613 0.0
H700 H 1.00815 0.93304 0.75424 0.0
H701 H 0.79955 0.72734 0.75683 0.0
H702 H 0.73642 0.8663 0.74241 0.0
N703 N 0.85061 0.79405 0.72853 0.0
C704 C 0.84958 0.73594 0.74088 0.0
C705 C 0.87301 0.74361 0.73175 0.0
C706 C 0.82563 0.75703 0.74326 0.0
C707 C 0.82661 0.7862 0.73676 0.0
C708 C 0.87277 0.7726 0.72539 0.0
N709 N 0.80444 0.83536 0.73245 0.0
C710 C 0.80249 0.8071 0.73849 0.0
C711 C 0.75487 0.8495 0.74142 0.0
C712 C 0.75288 0.82092 0.74804 0.0
C713 C 0.78086 0.85633 0.73356 0.0
C714 C 0.77687 0.79934 0.74666 0.0
H715 H 0.73284 0.81581 0.75423 0.0
O716 O 0.80562 0.83773 0.70596 0.0
O717 O 0.86617 0.88836 0.71622 0.0
O718 O 0.83785 0.92707 0.71801 0.0
O719 O 0.81624 0.88482 0.70767 0.0
O720 O 0.88696 0.85509 0.70395 0.0
O721 O 0.84538 0.80887 0.70164 0.0
O722 O 0.82747 0.91679 0.74518 0.0
O723 O 0.84295 0.86148 0.73975 0.0
O724 O 0.90151 0.82972 0.72262 0.0
O725 O 0.91944 0.87543 0.73199 0.0
O726 O 0.87671 0.86821 0.75339 0.0
O727 O 0.8688 0.9379 0.75313 0.0
C728 C 0.88656 0.88394 0.7074 0.0
C729 C 0.77617 0.77058 0.75334 0.0
C730 C 0.80054 0.74955 0.75169 0.0
C731 C 0.8178 0.81754 0.69783 0.0
C732 C 0.81226 0.82237 0.68323 0.0
C733 C 0.8009 0.85036 0.67778 0.0
C734 C 0.81737 0.79747 0.67461 0.0
C735 C 0.81178 0.79991 0.66061 0.0
C736 C 0.79526 0.85304 0.6638 0.0
C737 C 0.80093 0.82794 0.65517 0.0
C738 C 0.81679 0.91632 0.70858 0.0
C739 C 0.85364 0.8502 0.75112 0.0
C740 C 0.83925 0.93406 0.75465 0.0
C741 C 0.82818 0.92811 0.76852 0.0
C742 C 0.84421 0.90825 0.77738 0.0
C743 C 0.80127 0.94296 0.773 0.0
C744 C 0.79053 0.93854 0.78635 0.0
C745 C 0.8327 0.9023 0.79036 0.0
C746 C 0.80606 0.91731 0.79485 0.0
C747 C 0.92619 0.84624 0.72751 0.0
H748 H 0.79637 0.87007 0.68422 0.0
H749 H 0.82671 0.77619 0.67886 0.0
H750 H 0.78674 0.87468 0.65966 0.0
H751 H 0.79716 0.83042 0.64433 0.0
H752 H 0.86562 0.89741 0.77436 0.0
H753 H 0.78936 0.95887 0.76623 0.0
H754 H 0.84497 0.88669 0.79709 0.0
H755 H 0.79877 0.91363 0.80526 0.0
Gd756 Gd 1.00527 0.09474 0.46496 0.0
Gd757 Gd 0.94388 0.11973 0.48382 0.0
C758 C 0.85793 0.18064 0.47733 0.0
C759 C 0.87325 0.2295 0.48736 0.0
C760 C 0.90824 0.18513 0.48789 0.0
C761 C 0.88719 0.16793 0.48054 0.0
C762 C 0.90095 0.21586 0.49176 0.0
C763 C 0.85161 0.2118 0.48027 0.0
C764 C 0.83521 0.16124 0.47195 0.0
C765 C 0.84117 0.12964 0.47082 0.0
N766 N 0.89367 0.13765 0.47809 0.0
C767 C 0.87025 0.11808 0.47437 0.0
H768 H 0.87327 0.09328 0.47451 0.0
C769 C 0.95132 0.18489 0.5026 0.0
N770 N 0.93407 0.1707 0.49261 0.0
C771 C 0.94547 0.21553 0.5064 0.0
C772 C 0.92062 0.23136 0.5007 0.0
H773 H 0.97101 0.17376 0.50715 0.0
H774 H 0.82959 0.22209 0.47756 0.0
H775 H 0.07063 0.13784 0.46425 0.0
H776 H 0.81254 0.17012 0.46936 0.0
H777 H 0.82315 0.11402 0.4675 0.0
H778 H 0.86759 0.25319 0.49005 0.0
H779 H 0.97076 1.02965 0.47547 0.0
H780 H 0.13542 0.09723 0.4918 0.0
H781 H 0.12119 0.13872 0.4756 0.0
H782 H 0.08541 1.00399 0.50615 0.0
H783 H 0.96017 0.22689 0.51377 0.0
H784 H 0.91589 0.25496 0.50384 0.0
H785 H 0.12201 1.04688 0.50302 0.0
H786 H 0.98354 0.98345 0.48923 0.0
N787 N 0.05447 0.09826 0.47513 0.0
C788 C 0.11275 0.09717 0.48713 0.0
C789 C 0.10474 0.12071 0.47805 0.0
C790 C 0.09189 0.07315 0.48965 0.0
C791 C 0.06262 0.07418 0.48334 0.0
C792 C 0.07566 0.1205 0.47186 0.0
N793 N 1.01363 0.05196 0.47929 0.0
C794 C 1.04195 0.04998 0.48517 0.0
C795 C 1.00013 1.00202 0.48821 0.0
C796 C 1.02878 1.00001 0.49468 0.0
C797 C 0.99293 1.02823 0.48045 0.0
C798 C 0.05008 1.02416 0.49326 0.0
H799 H 1.03418 0.97981 0.5008 0.0
O800 O 1.00943 0.05375 0.45256 0.0
O801 O 0.96011 0.11465 0.46345 0.0
O802 O 0.92137 0.08688 0.46511 0.0
O803 O 0.96323 0.06417 0.45496 0.0
O804 O 0.99307 0.13527 0.45109 0.0
O805 O 1.03893 0.0931 0.4485 0.0
O806 O 0.93377 0.07383 0.49174 0.0
O807 O 0.98766 0.0906 0.48687 0.0
O808 O 1.01858 0.14943 0.46964 0.0
O809 O 0.9732 0.16738 0.47923 0.0
O810 O 0.98021 0.12333 0.50099 0.0
O811 O 0.91204 0.11411 0.50066 0.0
C812 C 0.96431 0.13508 0.45455 0.0
C813 C 0.07893 1.02343 0.49977 0.0
C814 C 0.09972 1.04791 0.49802 0.0
C815 C 1.02939 0.06602 0.44437 0.0
C816 C 1.0234 0.06209 0.42975 0.0
C817 C 0.99513 0.05127 0.42451 0.0
C818 C 1.04722 0.06889 0.42082 0.0
C819 C 1.04332 0.06576 0.40674 0.0
C820 C 0.99103 1.04807 0.41044 0.0
C821 C 1.01499 0.05565 0.40151 0.0
C822 C 0.93184 0.06538 0.45579 0.0
C823 C 0.9988 0.10082 0.49837 0.0
C824 C 0.91616 0.08429 0.50139 0.0
C825 C 0.92075 0.07088 0.51497 0.0
C826 C 0.93896 0.08545 0.52485 0.0
C827 C 0.90465 1.04385 0.51828 0.0
C828 C 0.90415 1.03258 0.53174 0.0
C829 C 0.94092 0.07297 0.53792 0.0
C830 C 0.92331 1.04708 0.54144 0.0
C831 C 1.00221 0.17417 0.47466 0.0
H832 H 0.97624 1.04538 0.43116 0.0
H833 H 0.06879 0.0777 0.4249 0.0
H834 H 0.96915 1.04003 0.40647 0.0
H835 H 1.01142 0.05384 0.39064 0.0
H836 H 0.95133 0.10655 0.52257 0.0
H837 H 0.89122 1.03265 0.5104 0.0
H838 H 0.95508 0.08421 0.54553 0.0
H839 H 0.92358 1.03971 0.55196 0.0
Gd840 Gd 0.75002 0.25356 0.21857 0.0
Gd841 Gd 0.7254 0.1901 0.23644 0.0
C842 C 0.66152 0.10832 0.22642 0.0
C843 C 0.61325 0.12384 0.23686 0.0
C844 C 0.65898 0.1563 0.23906 0.0
C845 C 0.67534 0.13618 0.23089 0.0
C846 C 0.62799 0.14972 0.24253 0.0
C847 C 0.6301 0.10298 0.22892 0.0
C848 C 0.68013 0.08572 0.22038 0.0
C849 C 0.71195 0.09018 0.21988 0.0
N850 N 0.70586 0.14164 0.22896 0.0
C851 C 0.72453 0.11795 0.22463 0.0
H852 H 0.74933 0.11968 0.22512 0.0
C853 C 0.66089 0.19609 0.25549 0.0
N854 N 0.67442 0.18027 0.24488 0.0
C855 C 0.63009 0.19085 0.25902 0.0
C856 C 0.61331 0.16806 0.25228 0.0
H857 H 0.67282 0.21422 0.26081 0.0
H858 H 0.619 0.08207 0.2253 0.0
H859 H 0.70644 0.31906 0.22006 0.0
H860 H 0.67042 0.06406 0.21683 0.0
H861 H 0.72689 0.07203 0.21607 0.0
H862 H 0.58935 0.11876 0.23923 0.0
H863 H 0.81469 0.21689 0.22827 0.0
H864 H 0.74821 0.38041 0.24867 0.0
H865 H 0.70597 0.36813 0.23265 0.0
H866 H 0.8419 0.32842 0.26092 0.0
H867 H 0.6193 0.20444 0.26695 0.0
H868 H 0.58955 0.1638 0.25517 0.0
H869 H 0.79904 0.3656 0.25899 0.0
H870 H 0.86113 0.2278 0.24201 0.0
N871 N 0.74657 0.3014 0.23008 0.0
C872 C 0.74811 0.35829 0.24345 0.0
C873 C 0.72414 0.35137 0.23449 0.0
C874 C 0.7723 0.33713 0.24518 0.0
C875 C 0.77104 0.3086 0.23818 0.0
C876 C 0.7241 0.32303 0.22762 0.0
N877 N 0.79295 0.25982 0.23291 0.0
C878 C 0.79526 0.28759 0.23933 0.0
C879 C 0.84276 0.24477 0.24137 0.0
C880 C 0.8452 0.27287 0.24831 0.0
C881 C 0.81641 0.23864 0.23361 0.0
C882 C 0.82126 0.29463 0.24741 0.0
H883 H 0.86552 0.27742 0.25443 0.0
O884 O 0.79042 0.2597 0.20606 0.0
O885 O 0.73073 0.20836 0.21643 0.0
O886 O 0.75902 0.16917 0.21776 0.0
O887 O 0.78054 0.212 0.20775 0.0
O888 O 0.71001 0.24204 0.20436 0.0
O889 O 0.75102 0.29002 0.20325 0.0
O890 O 0.77094 0.17525 0.24286 0.0
O891 O 0.754 0.23397 0.24018 0.0
O892 O 0.69536 0.2662 0.22322 0.0
O893 O 0.67782 0.21992 0.23221 0.0
O894 O 0.72312 0.2239 0.25467 0.0
O895 O 0.7305 0.15764 0.2532 0.0
C896 C 0.7104 0.21304 0.20759 0.0
C897 C 0.8223 0.32279 0.25453 0.0
C898 C 0.79783 0.34391 0.25347 0.0
C899 C 0.77802 0.2814 0.19873 0.0
C900 C 0.78195 0.27876 0.18393 0.0
C901 C 0.79412 0.25216 0.17761 0.0
C902 C 0.7742 0.30431 0.17602 0.0
C903 C 0.77801 0.30385 0.16187 0.0
C904 C 0.79803 0.25147 0.16348 0.0
C905 C 0.78982 0.27718 0.15558 0.0
C906 C 0.78003 0.18037 0.20843 0.0
C907 C 0.74439 0.24376 0.25202 0.0
C908 C 0.76052 0.15842 0.25278 0.0
C909 C 0.77737 0.16051 0.26566 0.0
C910 C 0.76667 0.17819 0.27664 0.0
C911 C 0.80418 0.1427 0.26708 0.0
C912 C 0.819 0.13973 0.27975 0.0
C913 C 0.78264 0.17759 0.28897 0.0
C914 C 0.80825 0.15813 0.29064 0.0
C915 C 0.67084 0.24929 0.22797 0.0
H916 H 0.80057 0.232 0.1835 0.0
H917 H 0.76425 0.32447 0.18096 0.0
H918 H 0.80725 0.23091 0.15865 0.0
H919 H 0.79251 0.2762 0.14463 0.0
H920 H 0.74599 0.19216 0.27572 0.0
H921 H 0.81248 0.12996 0.25832 0.0
H922 H 0.77437 0.19126 0.29746 0.0
H923 H 0.81842 0.15649 0.30067 0.0
Gd924 Gd 0.58069 1.00597 0.96423 0.0
Gd925 Gd 0.64415 0.98178 0.98262 0.0
C926 C 0.72709 0.91765 0.97385 0.0
C927 C 0.71223 0.86988 0.98502 0.0
C928 C 0.67837 0.91506 0.98577 0.0
C929 C 0.69859 0.93125 0.97763 0.0
C930 C 0.68542 0.88441 0.98986 0.0
C931 C 0.73325 0.88663 0.97716 0.0
C932 C 0.74943 0.9361 0.96762 0.0
C933 C 0.74393 0.96768 0.96609 0.0
N934 N 0.69244 0.96158 0.97504 0.0
C935 C 0.71561 0.98015 0.97016 0.0
H936 H 0.71347 1.00497 0.96995 0.0
C937 C 0.63717 0.91726 1.00142 0.0
N938 N 0.65363 0.93043 0.99092 0.0
C939 C 0.64268 0.8867 1.00546 0.0
C940 C 0.6665 0.86995 0.99945 0.0
H941 H 0.6184 0.9294 1.00622 0.0
H942 H 0.75474 0.87574 0.97413 0.0
H943 H 0.51652 0.96163 0.96938 0.0
H944 H 0.77155 0.92654 0.96462 0.0
H945 H 0.76177 0.98261 0.96206 0.0
H946 H 0.71778 0.84629 0.98792 0.0
H947 H 0.61904 0.07166 0.97204 0.0
H948 H 0.45739 1.00992 0.99672 0.0
H949 H 0.4693 0.96363 0.98295 0.0
H950 H 0.50875 0.10647 1.00375 0.0
H951 H 0.62859 0.87615 1.01328 0.0
H952 H 0.67107 0.84643 1.00278 0.0
H953 H 0.47183 0.06336 1.00406 0.0
H954 H 0.60883 0.12054 0.98402 0.0
N955 N 0.53472 1.00414 0.97714 0.0
C956 C 0.47901 1.00867 0.99121 0.0
C957 C 0.48576 0.98242 0.98353 0.0
C958 C 0.49975 1.03343 0.99132 0.0
C959 C 0.52772 1.03059 0.98404 0.0
C960 C 0.51331 0.98095 0.97618 0.0
N961 N 0.57585 0.0514 0.97723 0.0
C962 C 0.54855 0.05508 0.98386 0.0
C963 C 0.59166 0.10236 0.98403 0.0
C964 C 0.56378 0.10654 0.99089 0.0
C965 C 0.59734 0.07455 0.9772 0.0
C966 C 0.54192 0.08272 0.99097 0.0
H967 H 0.55955 0.12805 0.99626 0.0
O968 O 0.56793 1.04378 0.95059 0.0
O969 O 0.62613 0.98703 0.96247 0.0
O970 O 0.66413 1.01743 0.96435 0.0
O971 O 0.62157 1.03607 0.95286 0.0
O972 O 0.59353 0.96649 0.94996 0.0
O973 O 0.54459 0.99972 0.94936 0.0
O974 O 0.66593 0.98572 1.00238 0.0
O975 O 0.60045 1.01161 0.9857 0.0
O976 O 0.56899 0.95152 0.96963 0.0
O977 O 0.6158 0.93378 0.97783 0.0
O978 O 0.6094 0.98106 1.0005 0.0
O979 O 0.66893 1.02382 0.98834 0.0
C980 C 0.6222 0.96689 0.95344 0.0
C981 C 0.51412 0.08549 0.99819 0.0
C982 C 0.49316 0.06089 0.9984 0.0
C983 C 0.54383 1.02896 0.94612 0.0
C984 C 0.51334 1.04393 0.94774 0.0
C985 C 0.50965 0.0737 0.95334 0.0
C986 C 0.48711 1.02625 0.94502 0.0
C987 C 0.4576 1.03695 0.9484 0.0
C988 C 0.48001 0.08505 0.95626 0.0
C989 C 0.45392 0.0667 0.95383 0.0
C990 C 0.65301 1.03699 0.95432 0.0
C991 C 0.59025 1.00279 0.99758 0.0
C992 C 0.67891 1.01209 0.9997 0.0
C993 C 0.71241 1.01377 1.00213 0.0
C994 C 0.73066 0.9868 1.00168 0.0
C995 C 0.72639 1.04241 1.00493 0.0
C996 C 0.75848 1.04413 1.00704 0.0
C997 C 0.76251 0.98856 1.00322 0.0
C998 C 0.7764 1.01696 1.00587 0.0
C999 C 0.58629 0.92689 0.97402 0.0
H1000 H 0.52952 0.08788 0.95574 0.0
H1001 H 0.48969 1.00334 0.9406 0.0
H1002 H 0.47731 0.1079 0.96063 0.0
H1003 H 0.43116 0.07544 0.95632 0.0
H1004 H 0.72039 0.9643 1.00006 0.0
H1005 H 0.71228 0.06311 1.00572 0.0
H1006 H 0.77641 0.96771 1.00269 0.0
H1007 H 0.80106 1.01729 1.00771 0.0
Gd1008 Gd 0.83282 0.26175 0.87251 0.0
Gd1009 Gd 0.86425 0.19806 0.85827 0.0
C1010 C 0.94619 0.14268 0.87542 0.0
C1011 C 0.98168 0.14293 0.85635 0.0
C1012 C 0.93087 0.16689 0.85417 0.0
C1013 C 0.92413 0.15911 0.86756 0.0
C1014 C 0.95949 0.15819 0.84838 0.0
C1015 C 0.97506 0.13523 0.86983 0.0
C1016 C 0.9386 0.13381 0.88865 0.0
C1017 C 0.90941 0.14058 0.89369 0.0
N1018 N 0.89605 0.16698 0.87283 0.0
C1019 C 0.88833 0.15691 0.88565 0.0
H1020 H 0.86664 0.16232 0.89033 0.0
C1021 C 0.91351 0.18593 0.83293 0.0
N1022 N 0.90907 0.18171 0.84661 0.0
C1023 C 0.94147 0.1778 0.82682 0.0
C1024 C 0.96478 0.16438 0.83462 0.0
H1025 H 0.89552 0.195 0.82649 0.0
H1026 H 0.99225 0.12297 0.8758 0.0
H1027 H 0.87663 0.32159 0.86016 0.0
H1028 H 0.95495 0.12138 0.89499 0.0
H1029 H 0.90321 0.13361 0.90391 0.0
H1030 H 1.00383 0.13641 0.85209 0.0
H1031 H 0.77168 0.21364 0.86482 0.0
H1032 H 0.82008 0.37377 0.83306 0.0
H1033 H 0.86989 0.36544 0.84473 0.0
H1034 H 0.72579 0.31692 0.83123 0.0
H1035 H 0.94491 0.18164 0.81605 0.0
H1036 H 0.98641 0.15801 0.82983 0.0
H1037 H 0.76628 0.35609 0.82846 0.0
H1038 H 0.72201 0.21825 0.85326 0.0
N1039 N 0.83158 0.30299 0.85675 0.0
C1040 C 0.82297 0.35393 0.83971 0.0
C1041 C 0.8512 0.34917 0.84619 0.0
C1042 C 0.79888 0.33295 0.84178 0.0
C1043 C 0.80383 0.30731 0.85048 0.0
C1044 C 0.85509 0.32365 0.85478 0.0
N1045 N 0.7872 0.25893 0.85937 0.0
C1046 C 0.78091 0.28491 0.85197 0.0
C1047 C 0.73822 0.2373 0.85293 0.0
C1048 C 0.73105 0.26409 0.84567 0.0
C1049 C 0.76653 0.23498 0.85968 0.0
C1050 C 0.75265 0.28804 0.84488 0.0
H1051 H 0.7092 0.26562 0.84032 0.0
O1052 O 0.7976 0.27976 0.88608 0.0
O1053 O 0.87018 0.2296 0.87516 0.0
O1054 O 0.82879 0.17871 0.87626 0.0
O1055 O 0.80282 0.2215 0.88409 0.0
O1056 O 0.84664 0.23989 0.89255 0.0
O1057 O 0.83823 0.30708 0.88161 0.0
O1058 O 0.86317 0.15335 0.84808 0.0
O1059 O 0.83035 0.2369 0.85223 0.0
O1060 O 0.88931 0.27378 0.86948 0.0
O1061 O 0.90857 0.2324 0.85697 0.0
O1062 O 0.8643 0.22816 0.83866 0.0
O1063 O 0.82086 0.17913 0.85094 0.0
C1064 C 0.87004 0.22523 0.88779 0.0
C1065 C 0.74734 0.31421 0.83672 0.0
C1066 C 0.77043 0.3365 0.83512 0.0
C1067 C 0.81451 0.30327 0.88962 0.0
C1068 C 0.82096 0.3053 0.90422 0.0
C1069 C 0.79769 0.31241 0.9136 0.0
C1070 C 0.85073 0.29856 0.90886 0.0
C1071 C 0.85852 0.30178 0.92256 0.0
C1072 C 0.80466 0.31365 0.92748 0.0
C1073 C 0.835 0.30883 0.93196 0.0
C1074 C 0.80606 0.19008 0.88461 0.0
C1075 C 0.84024 0.24541 0.84029 0.0
C1076 C 0.83315 0.15273 0.84745 0.0
C1077 C 0.81801 0.125 0.85312 0.0
C1078 C 0.82571 0.11421 0.86616 0.0
C1079 C 0.79523 0.10948 0.84563 0.0
C1080 C 0.77948 0.08385 0.85127 0.0
C1081 C 0.80916 0.09012 0.87209 0.0
C1082 C 0.78576 0.07546 0.86485 0.0
C1083 C 0.91432 0.26047 0.86283 0.0
H1084 H 0.7743 0.31692 0.9102 0.0
H1085 H 0.86844 0.292 0.90164 0.0
H1086 H 0.78676 0.31936 0.93474 0.0
H1087 H 0.84018 0.31216 0.94264 0.0
H1088 H 0.84436 0.12448 0.87183 0.0
H1089 H 0.79087 0.1167 0.83524 0.0
H1090 H 0.81479 0.0824 0.88228 0.0
H1091 H 0.77343 0.05673 0.86974 0.0
Gd1092 Gd 0.5928 0.09756 0.62731 0.0
Gd1093 Gd 0.65536 0.12103 0.6084 0.0
C1094 C 0.72866 0.19717 0.61065 0.0
C1095 C 0.70764 0.2367 0.5957 0.0
C1096 C 0.67996 0.18828 0.5992 0.0
C1097 C 0.70221 0.17873 0.60842 0.0
C1098 C 0.68281 0.21714 0.59253 0.0
C1099 C 0.73065 0.22664 0.60467 0.0
C1100 C 0.75324 0.18468 0.61808 0.0
C1101 C 0.75165 0.15409 0.62256 0.0
N1102 N 0.69978 0.15 0.61397 0.0
C1103 C 0.7248 0.13691 0.62028 0.0
H1104 H 0.72463 0.11303 0.62341 0.0
C1105 C 0.63643 0.17561 0.58577 0.0
N1106 N 0.65661 0.16847 0.5961 0.0
C1107 C 0.63842 0.20392 0.57892 0.0
C1108 C 0.66137 0.225 0.58246 0.0
H1109 H 0.61761 0.16036 0.58323 0.0
H1110 H 0.75049 0.24132 0.60651 0.0
H1111 H 0.52727 0.14026 0.62564 0.0
H1112 H 0.77403 0.19798 0.6199 0.0
H1113 H 0.77108 0.14371 0.6278 0.0
H1114 H 0.70998 0.25908 0.5908 0.0
H1115 H 0.6329 1.0361 0.61608 0.0
H1116 H 0.46446 0.09364 0.59917 0.0
H1117 H 0.47693 0.13787 0.61413 0.0
H1118 H 0.5198 1.00236 0.58595 0.0
H1119 H 0.62191 0.20965 0.57103 0.0
H1120 H 0.66281 0.24693 0.57712 0.0
H1121 H 0.48039 1.04287 0.58895 0.0
H1122 H 0.62389 0.98999 0.60184 0.0
N1123 N 0.54473 0.0993 0.61624 0.0
C1124 C 0.48697 0.09488 0.60395 0.0
C1125 C 0.494 0.12 0.61232 0.0
C1126 C 0.50882 0.07135 0.60208 0.0
C1127 C 0.53785 0.07413 0.60851 0.0
C1128 C 0.52294 0.1216 0.6186 0.0
N1129 N 0.5881 0.05486 0.6128 0.0
C1130 C 0.55997 0.05103 0.60691 0.0
C1131 C 0.60573 1.00698 0.60318 0.0
C1132 C 0.57707 1.00277 0.59693 0.0
C1133 C 0.61081 1.0332 0.61121 0.0
C1134 C 0.55377 1.02493 0.59872 0.0
H1135 H 0.57326 0.98251 0.59066 0.0
O1136 O 0.58655 0.05694 0.6398 0.0
O1137 O 0.63839 0.11636 0.62878 0.0
O1138 O 0.6774 0.08866 0.62739 0.0
O1139 O 0.63489 0.06675 0.63752 0.0
O1140 O 0.60576 0.13739 0.64131 0.0
O1141 O 0.55719 0.09715 0.64289 0.0
O1142 O 0.67008 0.07462 0.60282 0.0
O1143 O 0.60744 0.10019 0.60503 0.0
O1144 O 0.58058 0.1526 0.6236 0.0
O1145 O 0.6246 0.16876 0.61208 0.0
O1146 O 0.63195 0.10845 0.58811 0.0
O1147 O 0.69484 0.11456 0.59511 0.0
C1148 C 0.63443 0.13685 0.63769 0.0
C1149 C 0.52491 1.02215 0.59233 0.0
C1150 C 0.5025 1.04529 0.594 0.0
C1151 C 0.56568 0.06994 0.64737 0.0
C1152 C 0.56946 0.0664 0.66214 0.0
C1153 C 0.5971 0.05624 0.66825 0.0
C1154 C 0.54423 0.07335 0.67029 0.0
C1155 C 0.54609 0.07106 0.68448 0.0
C1156 C 0.59912 0.05368 0.68243 0.0
C1157 C 0.57377 0.0614 0.69058 0.0
C1158 C 0.66641 0.06753 0.6368 0.0
C1159 C 0.60594 0.09694 0.59172 0.0
C1160 C 0.69194 0.08451 0.59485 0.0
C1161 C 0.6947 0.0692 0.58155 0.0
C1162 C 0.68144 0.0818 0.56973 0.0
C1163 C 0.71257 1.04217 0.58063 0.0
C1164 C 0.71835 1.02828 0.56793 0.0
C1165 C 0.68499 0.06681 0.55728 0.0
C1166 C 0.70345 1.04038 0.55632 0.0
C1167 C 0.59643 0.17642 0.61756 0.0
H1168 H 0.61709 0.05049 0.66217 0.0
H1169 H 0.52323 0.08179 0.6655 0.0
H1170 H 0.62048 1.0461 0.6871 0.0
H1171 H 0.57579 0.0601 0.70155 0.0
H1172 H 0.66892 0.10346 0.56995 0.0
H1173 H 0.72328 1.03294 0.58975 0.0
H1174 H 0.67456 0.07653 0.54821 0.0
H1175 H 0.70759 1.03079 0.54632 0.0
Gd1176 Gd 0.75042 0.84187 0.37465 0.0
Gd1177 Gd 0.72653 0.90406 0.35626 0.0
C1178 C 0.66459 0.98857 0.36451 0.0
C1179 C 0.61614 0.97354 0.3541 0.0
C1180 C 0.66114 0.93966 0.35262 0.0
C1181 C 0.6778 0.95998 0.36054 0.0
C1182 C 0.63042 0.94688 0.34887 0.0
C1183 C 0.63331 0.99454 0.36183 0.0
C1184 C 0.68361 1.01105 0.37034 0.0
C1185 C 0.71526 1.00557 0.37122 0.0
N1186 N 0.70809 0.95372 0.36278 0.0
C1187 C 0.72725 0.97708 0.36697 0.0
H1188 H 0.75201 0.97441 0.36677 0.0
C1189 C 0.66273 0.89903 0.33661 0.0
N1190 N 0.67618 0.9149 0.34722 0.0
C1191 C 0.63214 0.90484 0.33283 0.0
C1192 C 0.61562 0.92834 0.33924 0.0
H1193 H 0.67452 0.88048 0.33148 0.0
H1194 H 0.6226 1.01595 0.36514 0.0
H1195 H 0.70758 0.77658 0.36972 0.0
H1196 H 0.67437 1.03325 0.3735 0.0
H1197 H 0.73054 1.02349 0.37492 0.0
H1198 H 0.59241 0.97908 0.35156 0.0
H1199 H 0.81527 0.88193 0.36631 0.0
H1200 H 0.75705 0.71761 0.34263 0.0
H1201 H 0.71076 0.72873 0.35646 0.0
H1202 H 0.8518 0.77138 0.335 0.0
H1203 H 0.62135 0.89116 0.32493 0.0
H1204 H 0.59205 0.93305 0.33615 0.0
H1205 H 0.80971 0.73335 0.33496 0.0
H1206 H 0.86383 0.87246 0.35423 0.0
N1207 N 0.75022 0.79491 0.36234 0.0
C1208 C 0.75546 0.73927 0.34815 0.0
C1209 C 0.72921 0.74556 0.35587 0.0
C1210 C 0.77971 0.7606 0.34793 0.0
C1211 C 0.77652 0.78856 0.35527 0.0
C1212 C 0.72715 0.77332 0.36311 0.0
N1213 N 0.79607 0.83771 0.36171 0.0
C1214 C 0.80033 0.81018 0.35522 0.0
C1215 C 0.84623 0.85471 0.35448 0.0
C1216 C 0.85095 0.82666 0.34776 0.0
C1217 C 0.81858 0.85989 0.36144 0.0
C1218 C 0.8278 0.80412 0.34794 0.0
H1219 H 0.87229 0.82288 0.34225 0.0
O1220 O 0.77854 0.84191 0.39302 0.0
O1221 O 0.73014 0.88704 0.37654 0.0
O1222 O 0.75879 0.92525 0.37544 0.0
O1223 O 0.78139 0.88272 0.38537 0.0
O1224 O 0.70758 0.85246 0.38725 0.0
O1225 O 0.75802 0.79945 0.38599 0.0
O1226 O 0.77262 0.91675 0.34978 0.0
O1227 O 0.75618 0.86051 0.35295 0.0
O1228 O 0.69567 0.82917 0.36994 0.0
O1229 O 0.6786 0.87444 0.35985 0.0
O1230 O 0.72365 0.86847 0.33876 0.0
O1231 O 0.73287 0.93578 0.33934 0.0
C1232 C 0.70879 0.88184 0.38483 0.0
C1233 C 0.83098 0.77626 0.34072 0.0
C1234 C 0.80696 0.75466 0.34066 0.0
C1235 C 0.7706 0.81387 0.39619 0.0
C1236 C 0.75446 0.81077 0.4092 0.0
C1237 C 0.76917 0.81673 0.42162 0.0
C1238 C 0.72304 0.80351 0.40904 0.0
C1239 C 0.70654 0.79974 0.42108 0.0
C1240 C 0.75245 0.81456 0.43376 0.0
C1241 C 0.72132 0.80578 0.43355 0.0
C1242 C 0.78005 0.91429 0.38478 0.0
C1243 C 0.74622 0.84994 0.34131 0.0
C1244 C 0.76283 0.93363 0.33974 0.0
C1245 C 0.77934 0.93016 0.32683 0.0
C1246 C 0.7679 0.9121 0.31613 0.0
C1247 C 0.80641 0.94724 0.32504 0.0
C1248 C 0.8206 0.94943 0.3122 0.0
C1249 C 0.78334 0.91169 0.30368 0.0
C1250 C 0.80909 0.93063 0.30159 0.0
C1251 C 0.67137 0.84547 0.36448 0.0
H1252 H 0.79334 0.82312 0.4219 0.0
H1253 H 0.71136 0.79964 0.39945 0.0
H1254 H 0.76381 0.81895 0.44338 0.0
H1255 H 0.70934 0.80244 0.4431 0.0
H1256 H 0.74699 0.8987 0.31733 0.0
H1257 H 0.81531 0.96012 0.33363 0.0
H1258 H 0.77449 0.89773 0.29541 0.0
H1259 H 0.81872 0.93156 0.29146 0.0
Gd1260 Gd 1.00545 0.99966 0.12746 0.0
Gd1261 Gd 0.94262 0.97051 0.11148 0.0
C1262 C 0.8601 0.91274 0.12669 0.0
C1263 C 0.85143 0.87821 0.10761 0.0
C1264 C 0.89397 0.91503 0.10713 0.0
C1265 C 0.88507 0.92653 0.11968 0.0
C1266 C 0.87742 0.8905 0.10105 0.0
C1267 C 0.84283 0.88925 0.12043 0.0
C1268 C 0.85422 0.92164 0.14009 0.0
C1269 C 0.87417 0.94221 0.14649 0.0
N1270 N 0.90304 0.94852 0.12567 0.0
C1271 C 0.89891 0.9548 0.13926 0.0
H1272 H 0.91484 0.96904 0.14486 0.0
C1273 C 0.93004 0.91492 0.0891 0.0
N1274 N 0.91978 0.92672 0.1012 0.0
C1275 C 0.91432 0.89074 0.0827 0.0
C1276 C 0.88781 0.87856 0.08865 0.0
H1277 H 0.95005 0.9243 0.08411 0.0
H1278 H 0.82343 0.8787 0.12562 0.0
H1279 H 0.0723 0.95934 0.12825 0.0
H1280 H 0.83537 0.91151 0.1458 0.0
H1281 H 0.87087 0.94798 0.1571 0.0
H1282 H 0.83835 0.85953 0.10304 0.0
H1283 H 0.96749 0.06236 0.11645 0.0
H1284 H 0.13429 1.00051 0.09965 0.0
H1285 H 0.12263 0.95975 0.11657 0.0
H1286 H 0.07927 0.0903 0.08425 0.0
H1287 H 0.92258 0.88164 0.07311 0.0
H1288 H 0.87572 0.85976 0.08368 0.0
H1289 H 0.11799 0.04928 0.08772 0.0
H1290 H 0.97746 0.10807 0.10191 0.0
N1291 N 0.05422 0.9975 0.11698 0.0
C1292 C 0.11182 0.99998 0.10449 0.0
C1293 C 0.10529 0.97687 0.11399 0.0
C1294 C 0.08972 1.02284 0.10172 0.0
C1295 C 0.06077 1.02105 0.10825 0.0
C1296 C 0.07647 0.97637 0.12039 0.0
N1297 N 1.01082 1.04125 0.11224 0.0
C1298 C 1.03879 1.04403 0.10613 0.0
C1299 C 0.99482 0.09015 0.10294 0.0
C1300 C 1.02301 0.0928 0.09614 0.0
C1301 C 0.98916 0.06419 0.11108 0.0
C1302 C 1.04541 0.0696 0.09767 0.0
H1303 H 1.02723 0.1128 0.08974 0.0
O1304 O 1.00483 1.04195 0.13904 0.0
O1305 O 0.96552 0.9708 0.13118 0.0
O1306 O 0.91949 1.00711 0.12798 0.0
O1307 O 0.96238 1.02751 0.13826 0.0
O1308 O 1.00427 0.96167 0.14287 0.0
O1309 O 1.04129 1.00834 0.14256 0.0
O1310 O 0.9307 1.01657 0.10419 0.0
O1311 O 0.98416 1.00125 0.10647 0.0
O1312 O 1.02071 0.94502 0.12164 0.0
O1313 O 0.97652 0.92549 0.11126 0.0
O1314 O 0.9785 0.96464 0.09399 0.0
O1315 O 0.9067 0.9767 0.09626 0.0
C1316 C 0.97676 0.95213 0.14007 0.0
C1317 C 0.07396 0.07108 0.09095 0.0
C1318 C 0.09597 1.04767 0.0929 0.0
C1319 C 1.02816 1.03406 0.14659 0.0
C1320 C 1.0244 1.03904 0.16131 0.0
C1321 C 0.99686 0.05035 0.16711 0.0
C1322 C 0.04945 1.03299 0.16972 0.0
C1323 C 0.04735 1.03711 0.18383 0.0
C1324 C 0.99463 0.05475 0.18118 0.0
C1325 C 1.01973 1.04779 0.18959 0.0
C1326 C 0.93094 1.0273 0.13746 0.0
C1327 C 0.99503 0.9894 0.09529 0.0
C1328 C 0.91131 1.00635 0.09515 0.0
C1329 C 0.91521 1.01854 0.0813 0.0
C1330 C 0.93407 1.00328 0.07183 0.0
C1331 C 0.89935 1.04549 0.07742 0.0
C1332 C 0.90176 0.05696 0.06404 0.0
C1333 C 0.93804 1.01549 0.05882 0.0
C1334 C 0.92204 1.04213 0.05492 0.0
C1335 C 1.00555 0.91981 0.11607 0.0
H1336 H 0.97706 0.05564 0.16087 0.0
H1337 H 0.07048 1.02382 0.16525 0.0
H1338 H 0.97328 0.06315 0.18556 0.0
H1339 H 1.01756 0.05037 0.20051 0.0
H1340 H 0.9457 0.98193 0.07443 0.0
H1341 H 0.88419 0.05678 0.08466 0.0
H1342 H 0.95289 1.00377 0.05161 0.0
H1343 H 0.92415 0.04991 1.04448 0.0
Gd1344 Gd 0.73038 0.69033 0.85861 0.0
Gd1345 Gd 0.75697 0.7539 0.87619 0.0
C1346 C 0.78603 0.83359 0.84885 0.0
C1347 C 0.83438 0.81438 0.83952 0.0
C1348 C 0.80429 0.78216 0.85491 0.0
C1349 C 0.78218 0.80547 0.85599 0.0
C1350 C 0.83044 0.78633 0.84655 0.0
C1351 C 0.81225 0.83794 0.84067 0.0
C1352 C 0.76325 0.85647 0.85004 0.0
C1353 C 0.73775 0.85128 0.85839 0.0
N1354 N 0.7567 0.80041 0.86376 0.0
C1355 C 0.73505 0.82319 0.86538 0.0
H1356 H 0.71612 0.82036 0.8724 0.0
C1357 C 0.81959 0.73075 0.86006 0.0
N1358 N 0.79923 0.75474 0.86134 0.0
C1359 C 0.84584 0.73384 0.8519 0.0
C1360 C 0.85138 0.76178 0.84517 0.0
H1361 H 0.81572 0.70918 0.86528 0.0
H1362 H 0.81547 0.85933 0.83507 0.0
H1363 H 0.73882 0.62105 0.87385 0.0
H1364 H 0.76531 0.87832 0.84468 0.0
H1365 H 0.72041 0.86915 0.85964 0.0
H1366 H 0.85424 0.81791 0.83301 0.0
H1367 H 0.68849 0.72931 0.83456 0.0
H1368 H 0.65285 0.57314 0.87247 0.0
H1369 H 0.7078 0.57521 0.8792 0.0
H1370 H 0.58963 0.63837 0.84471 0.0
H1371 H 0.86182 0.71468 0.85084 0.0
H1372 H 0.87164 0.76401 0.83878 0.0
H1373 H 0.60868 0.59727 0.85989 0.0
H1374 H 0.6372 0.72672 0.82408 0.0
N1375 N 0.70152 0.64631 0.86494 0.0
C1376 C 0.66634 0.59362 0.87019 0.0
C1377 C 0.69731 0.59471 0.87402 0.0
C1378 C 0.65359 0.61829 0.86286 0.0
C1379 C 0.67223 0.64435 0.86005 0.0
C1380 C 0.71471 0.6212 0.87119 0.0
N1381 N 0.6816 0.69 0.84746 0.0
C1382 C 0.66194 0.66685 0.85106 0.0
C1383 C 0.64389 0.7097 0.83163 0.0
C1384 C 0.62311 0.68684 0.83565 0.0
C1385 C 0.6733 0.71068 0.83746 0.0
C1386 C 0.63215 0.66474 0.84527 0.0
H1387 H 0.60038 0.68607 0.83104 0.0
O1388 O 0.77553 0.67495 0.85165 0.0
O1389 O 0.75184 0.73773 0.8544 0.0
O1390 O 0.7021 0.76715 0.87243 0.0
O1391 O 0.68366 0.72097 0.86343 0.0
O1392 O 0.7407 0.71354 0.83785 0.0
O1393 O 0.7345 0.64988 0.84563 0.0
O1394 O 0.798 0.76111 0.88825 0.0
O1395 O 0.73718 0.70886 0.8787 0.0
O1396 O 0.76377 0.66855 0.87727 0.0
O1397 O 0.78666 0.71135 0.88692 0.0
O1398 O 0.71842 0.74322 0.89111 0.0
O1399 O 0.75889 0.7923 0.89037 0.0
C1400 C 0.75354 0.73927 0.84107 0.0
C1401 C 0.61267 0.64016 0.84894 0.0
C1402 C 0.62347 0.61683 0.85762 0.0
C1403 C 0.76414 0.65326 0.84394 0.0
C1404 C 0.77567 0.65211 0.82985 0.0
C1405 C 0.75815 0.66397 0.81898 0.0
C1406 C 0.80424 0.63799 0.82719 0.0
C1407 C 0.81504 0.63493 0.81374 0.0
C1408 C 0.76974 0.66315 0.80578 0.0
C1409 C 0.79789 0.64868 0.80313 0.0
C1410 C 0.67726 0.7504 0.8678 0.0
C1411 C 0.71778 0.71415 0.88796 0.0
C1412 C 0.78596 0.78401 0.89501 0.0
C1413 C 0.78983 0.78346 0.90984 0.0
C1414 C 0.80352 0.75856 0.91687 0.0
C1415 C 0.77932 0.80898 0.91709 0.0
C1416 C 0.78116 0.80982 0.93129 0.0
C1417 C 0.80585 0.75938 0.93108 0.0
C1418 C 0.79433 0.78479 0.93834 0.0
C1419 C 0.7853 0.67964 0.88644 0.0
H1420 H 0.73533 0.67351 0.82058 0.0
H1421 H 0.81731 0.62811 0.83555 0.0
H1422 H 0.75623 0.6726 0.79748 0.0
H1423 H 0.80503 0.64647 0.79262 0.0
H1424 H 0.81213 0.73848 0.91148 0.0
H1425 H 0.76832 0.82787 0.91161 0.0
H1426 H 0.81615 0.74008 0.93648 0.0
H1427 H 0.79542 0.78483 0.94934 0.0
Gd1428 Gd 0.65449 0.48222 0.10555 0.0
Gd1429 Gd 0.59066 0.5066 0.12342 0.0
C1430 C 0.51035 0.53623 0.09667 0.0
C1431 C 0.52898 0.58495 0.08738 0.0
C1432 C 0.56166 0.55452 0.1025 0.0
C1433 C 0.53862 0.53224 0.10361 0.0
C1434 C 0.55714 0.58092 0.09425 0.0
C1435 C 0.50565 0.56271 0.0886 0.0
C1436 C 0.48768 0.51337 0.09795 0.0
C1437 C 0.49322 0.48762 0.10621 0.0
N1438 N 0.54401 0.50651 0.11127 0.0
C1439 C 0.52146 0.48477 0.113 0.0
H1440 H 0.52463 0.46564 0.11995 0.0
C1441 C 0.61272 0.5702 0.10767 0.0
N1442 N 0.58912 0.54949 0.10886 0.0
C1443 C 0.60931 0.59665 0.09958 0.0
C1444 C 0.58138 0.6021 0.09288 0.0
H1445 H 0.63419 0.5664 0.11293 0.0
H1446 H 0.48413 0.56605 0.08315 0.0
H1447 H 0.72293 0.49183 0.12114 0.0
H1448 H 0.46571 0.51555 0.09275 0.0
H1449 H 0.47552 0.47021 0.10754 0.0
H1450 H 0.52515 0.60503 0.08096 0.0
H1451 H 0.61913 0.44043 0.08057 0.0
H1452 H 0.77135 0.40565 0.12118 0.0
H1453 H 0.76854 0.46113 0.12729 0.0
H1454 H 0.70902 0.34128 0.09281 0.0
H1455 H 0.62818 0.61288 0.09857 0.0
H1456 H 0.57886 0.62256 0.08657 0.0
H1457 H 0.74843 0.36075 0.10864 0.0
H1458 H 0.62306 0.38889 0.07024 0.0
N1459 N 0.69855 0.45388 0.11237 0.0
C1460 C 0.751 0.41902 0.11853 0.0
C1461 C 0.74949 0.45029 0.12201 0.0
C1462 C 0.72701 0.40586 0.11099 0.0
C1463 C 0.70113 0.42438 0.10769 0.0
C1464 C 0.72313 0.46753 0.11871 0.0
N1465 N 0.6568 0.4335 0.09431 0.0
C1466 C 0.67962 0.41385 0.09838 0.0
C1467 C 0.63914 0.39563 0.07813 0.0
C1468 C 0.66154 0.37478 0.08267 0.0
C1469 C 0.63737 0.42517 0.08389 0.0
C1470 C 0.68248 0.38393 0.09272 0.0
H1471 H 0.66291 0.35195 0.07813 0.0
O1472 O 0.67054 0.52787 0.09963 0.0
O1473 O 0.60669 0.50279 0.1015 0.0
O1474 O 0.57798 0.45189 0.11898 0.0
O1475 O 0.62427 0.43464 0.10974 0.0
O1476 O 0.63152 0.49334 0.08489 0.0
O1477 O 0.69394 0.48686 0.0921 0.0
O1478 O 0.58199 0.54765 0.13533 0.0
O1479 O 0.63613 0.48765 0.12573 0.0
O1480 O 0.67539 0.5169 0.12393 0.0
O1481 O 0.63235 0.53592 0.13483 0.0
O1482 O 0.60215 0.46699 0.13774 0.0
O1483 O 0.55335 0.50691 0.13814 0.0
C1484 C 0.6054 0.50519 0.08818 0.0
C1485 C 0.70669 0.36446 0.09692 0.0
C1486 C 0.72905 0.37548 0.10597 0.0
C1487 C 0.69179 0.51697 0.09158 0.0
C1488 C 0.69425 0.53169 0.07812 0.0
C1489 C 0.68131 0.51827 0.06643 0.0
C1490 C 0.71132 0.5591 0.07694 0.0
C1491 C 0.71677 0.57253 0.06411 0.0
C1492 C 0.68441 0.53278 0.05384 0.0
C1493 C 0.70217 0.55956 0.05263 0.0
C1494 C 0.59502 0.42751 0.11403 0.0
C1495 C 0.63115 0.46726 0.13463 0.0
C1496 C 0.56061 0.5345 0.14257 0.0
C1497 C 0.5627 0.53853 0.15738 0.0
C1498 C 0.58695 0.55466 0.16373 0.0
C1499 C 0.53924 0.52614 0.1653 0.0
C1500 C 0.5397 0.52892 0.17946 0.0
C1501 C 0.58777 0.55728 0.17793 0.0
C1502 C 0.56431 0.54417 0.18585 0.0
C1503 C 0.66389 0.53671 0.13375 0.0
H1504 H 0.66935 0.49635 0.06688 0.0
H1505 H 0.72173 0.56901 0.08597 0.0
H1506 H 0.67423 0.52242 1.04488 0.0
H1507 H 0.70606 0.56874 1.04252 0.0
H1508 H 0.60517 0.56513 0.15779 0.0
H1509 H 0.52067 0.51356 0.16036 0.0
H1510 H 0.60663 0.5694 0.1828 0.0
H1511 H 0.56524 0.54605 0.19682 0.0
Gd1512 Gd 0.86658 0.40134 0.35775 0.0
Gd1513 Gd 0.84182 0.34006 0.37677 0.0
C1514 C 0.81977 0.25364 0.35193 0.0
C1515 C 0.76987 0.26692 0.34217 0.0
C1516 C 0.79669 0.3037 0.3567 0.0
C1517 C 0.8209 0.28288 0.35834 0.0
C1518 C 0.77073 0.29574 0.34876 0.0
C1519 C 0.79439 0.246 0.34369 0.0
C1520 C 0.84385 0.23263 0.35422 0.0
C1521 C 0.86756 0.24044 0.36318 0.0
N1522 N 0.84514 0.29086 0.36642 0.0
C1523 C 0.86746 0.26947 0.36947 0.0
H1524 H 0.88494 0.27428 0.37701 0.0
C1525 C 0.77509 0.35289 0.36165 0.0
N1526 N 0.7988 0.33203 0.36264 0.0
C1527 C 0.74874 0.34583 0.35405 0.0
C1528 C 0.74657 0.31718 0.34754 0.0
H1529 H 0.77663 0.3751 0.36663 0.0
H1530 H 0.79327 0.22374 0.33863 0.0
H1531 H 0.83961 0.47214 0.36706 0.0
H1532 H 0.84384 0.20999 0.34947 0.0
H1533 H 0.88563 0.22385 0.36546 0.0
H1534 H 0.75032 0.26057 0.33589 0.0
H1535 H 0.92045 0.37556 0.33417 0.0
H1536 H 0.91584 0.53279 0.37295 0.0
H1537 H 0.8599 0.52223 0.37438 0.0
H1538 H 0.99935 0.47797 0.3525 0.0
H1539 H 0.73017 0.36254 0.35317 0.0
H1540 H 0.72626 0.31191 0.34153 0.0
H1541 H 0.96791 0.51579 0.36499 0.0
H1542 H 0.97364 0.38639 0.32788 0.0
N1543 N 0.884 0.45158 0.36381 0.0
C1544 C 0.90714 0.51009 0.37024 0.0
C1545 C 0.87563 0.50417 0.37114 0.0
C1546 C 0.92673 0.48736 0.36494 0.0
C1547 C 0.91426 0.45806 0.36157 0.0
C1548 C 0.86431 0.47508 0.36742 0.0
N1549 N 0.91747 0.41141 0.34925 0.0
C1550 C 0.93168 0.43711 0.35421 0.0
C1551 C 0.96225 0.40068 0.33541 0.0
C1552 C 0.97795 0.4252 0.34142 0.0
C1553 C 0.93166 0.39474 0.33906 0.0
C1554 C 0.96234 0.44455 0.35048 0.0
H1555 H 1.0015 0.43006 0.33838 0.0
O1556 O 0.82188 0.41114 0.34853 0.0
O1557 O 0.83709 0.35767 0.35481 0.0
O1558 O 0.89627 0.32659 0.37212 0.0
O1559 O 0.9141 0.37185 0.36229 0.0
O1560 O 0.87151 0.3633 0.34134 0.0
O1561 O 0.86264 0.43398 0.34101 0.0
O1562 O 0.80154 0.33585 0.38953 0.0
O1563 O 0.8614 0.38546 0.37816 0.0
O1564 O 0.833 0.42379 0.37629 0.0
O1565 O 0.81136 0.38188 0.38691 0.0
O1566 O 0.88238 0.3525 0.39048 0.0
O1567 O 0.84077 0.30574 0.39304 0.0
C1568 C 0.8479 0.34598 0.34355 0.0
C1569 C 0.97572 0.4722 0.35508 0.0
C1570 C 0.95783 0.49375 0.36217 0.0
C1571 C 0.83331 0.42921 0.33924 0.0
C1572 C 0.82308 0.42359 0.32521 0.0
C1573 C 0.83833 0.40215 0.31684 0.0
C1574 C 0.79836 0.44085 0.31994 0.0
C1575 C 0.78898 0.43699 0.30634 0.0
C1576 C 0.82791 0.39674 0.30364 0.0
C1577 C 0.80341 0.414 0.29839 0.0
C1578 C 0.92086 0.34282 0.367 0.0
C1579 C 0.88195 0.38133 0.38698 0.0
C1580 C 0.81406 0.31543 0.39748 0.0
C1581 C 0.81097 0.321 0.41218 0.0
C1582 C 0.8011 0.34946 0.41767 0.0
C1583 C 0.81784 0.29666 0.4209 0.0
C1584 C 0.81574 0.30025 0.43504 0.0
C1585 C 0.79874 0.3532 0.43178 0.0
C1586 C 0.80638 0.32874 0.4405 0.0
C1587 C 0.81205 0.4133 0.38585 0.0
H1588 H 0.85843 0.38975 0.32036 0.0
H1589 H 0.78727 0.45816 0.32627 0.0
H1590 H 0.83953 0.37985 0.29731 0.0
H1591 H 0.79713 0.41064 0.28783 0.0
H1592 H 0.79539 0.3688 0.41118 0.0
H1593 H 0.82606 0.275 0.4166 0.0
H1594 H 0.79139 0.37522 0.43594 0.0
H1595 H 0.80532 0.33207 0.45141 0.0
Gd1596 Gd 0.93372 0.62368 0.60602 0.0
Gd1597 Gd 0.99729 0.59737 0.62374 0.0
C1598 C 0.07757 0.56688 0.5972 0.0
C1599 C 0.05833 0.51863 0.58771 0.0
C1600 C 1.02587 0.54933 0.60278 0.0
C1601 C 0.04923 0.57121 0.60403 0.0
C1602 C 1.03009 0.52303 0.59446 0.0
C1603 C 0.08201 0.54045 0.5891 0.0
C1604 C 0.10052 0.58941 0.59859 0.0
C1605 C 0.09517 0.61519 0.60682 0.0
N1606 N 1.04405 0.59692 0.61169 0.0
C1607 C 0.06684 0.61838 0.6135 0.0
H1608 H 0.06378 0.63753 0.62042 0.0
C1609 C 0.97438 0.53459 0.60757 0.0
N1610 N 0.9984 0.55472 0.60903 0.0
C1611 C 0.97748 0.50827 0.59941 0.0
C1612 C 1.00549 0.50237 0.59287 0.0
H1613 H 0.95273 0.5388 0.61262 0.0
H1614 H 0.10357 0.53684 0.58374 0.0
H1615 H 0.86514 0.6161 0.62169 0.0
H1616 H 0.12255 0.58697 0.59348 0.0
H1617 H 0.11306 0.63237 0.60822 0.0
H1618 H 0.06194 0.49862 0.58125 0.0
H1619 H 0.97163 0.66486 0.58146 0.0
H1620 H 0.81779 0.70279 0.62032 0.0
H1621 H 0.81976 0.64771 0.62716 0.0
H1622 H 0.88224 0.76527 0.59208 0.0
H1623 H 0.95828 0.4925 0.59819 0.0
H1624 H 1.00776 0.48202 0.5865 0.0
H1625 H 0.8418 0.74681 0.6076 0.0
H1626 H 0.9689 0.71618 0.57085 0.0
N1627 N 0.89024 0.65317 0.61256 0.0
C1628 C 0.83807 0.68904 0.61798 0.0
C1629 C 0.8391 0.658 0.62187 0.0
C1630 C 0.86252 0.70153 0.61052 0.0
C1631 C 0.88829 0.68253 0.6076 0.0
C1632 C 0.86534 0.64025 0.61896 0.0
N1633 N 0.9332 0.67245 0.59471 0.0
C1634 C 0.9104 0.69248 0.59842 0.0
C1635 C 0.95228 0.70979 0.57857 0.0
C1636 C 0.92987 0.73098 0.58272 0.0
C1637 C 0.95334 0.68036 0.58449 0.0
C1638 C 0.90824 0.72231 0.59256 0.0
H1639 H 0.92904 0.75372 0.57805 0.0
O1640 O 0.91818 0.5788 0.59871 0.0
O1641 O 0.98116 0.60211 0.60193 0.0
O1642 O 1.0106 0.65214 0.61937 0.0
O1643 O 0.96442 0.67057 0.61042 0.0
O1644 O 0.95681 0.61259 0.58535 0.0
O1645 O 0.89273 0.62026 0.5934 0.0
O1646 O 1.00512 0.55653 0.63597 0.0
O1647 O 0.95219 0.61701 0.62614 0.0
O1648 O 0.91222 0.59009 0.62467 0.0
O1649 O 0.955 0.56744 0.63445 0.0
O1650 O 0.9865 0.63671 0.63828 0.0
O1651 O 1.03478 0.59663 0.63842 0.0
C1652 C 0.98261 0.59997 0.58861 0.0
C1653 C 0.88406 0.74219 0.59636 0.0
C1654 C 0.8611 0.73173 0.60524 0.0
C1655 C 0.89646 0.59075 0.59116 0.0
C1656 C 0.89627 0.58091 0.57683 0.0
C1657 C 0.90799 0.60038 0.56658 0.0
C1658 C 0.88505 0.55148 0.57334 0.0
C1659 C 0.88648 0.54123 0.5598 0.0
C1660 C 0.91076 0.58971 0.55328 0.0
C1661 C 0.90029 0.56024 0.54989 0.0
C1662 C 0.99387 0.677 0.6146 0.0
C1663 C 0.9575 0.63694 0.63518 0.0
C1664 C 1.0271 0.5693 0.64299 0.0
C1665 C 1.02587 0.56537 0.65783 0.0
C1666 C 1.00057 0.552 0.66459 0.0
C1667 C 0.05136 0.57488 0.66533 0.0
C1668 C 0.0521 0.5717 0.6795 0.0
C1669 C 1.00109 0.54867 0.67876 0.0
C1670 C 1.02669 0.55868 0.68625 0.0
C1671 C 0.92338 0.56861 0.63391 0.0
H1672 H 0.91534 0.62378 0.56882 0.0
H1673 H 0.87462 0.5369 0.58106 0.0
H1674 H 0.92034 0.60462 0.5455 0.0
H1675 H 0.90121 0.5531 0.53934 0.0
H1676 H 0.98048 0.54424 0.65901 0.0
H1677 H 0.07049 0.58573 0.66004 0.0
H1678 H 0.98152 0.53852 0.68395 0.0
H1679 H 1.02663 0.55637 0.69722 0.0
Gd1680 Gd 0.71757 0.40652 0.73302 0.0
Gd1681 Gd 0.74481 0.34311 0.71552 0.0
C1682 C 0.77158 0.26043 0.74161 0.0
C1683 C 0.81929 0.27823 0.75203 0.0
C1684 C 0.79055 0.31219 0.73681 0.0
C1685 C 0.76839 0.28927 0.73497 0.0
C1686 C 0.81619 0.30686 0.74537 0.0
C1687 C 0.79705 0.2551 0.75017 0.0
C1688 C 0.74917 0.23769 0.73939 0.0
C1689 C 0.72482 0.24363 0.73044 0.0
N1690 N 0.74385 0.2951 0.7267 0.0
C1691 C 0.72281 0.27241 0.72396 0.0
H1692 H 0.70484 0.27605 0.7165 0.0
C1693 C 0.80741 0.36335 0.73226 0.0
N1694 N 0.78636 0.34014 0.73068 0.0
C1695 C 0.83318 0.35911 0.74064 0.0
C1696 C 0.83762 0.33075 0.74722 0.0
H1697 H 0.80449 0.38508 0.727 0.0
H1698 H 0.79976 0.23315 0.7554 0.0
H1699 H 0.72335 0.47553 0.71723 0.0
H1700 H 0.75077 0.21527 0.74433 0.0
H1701 H 0.70789 0.22585 0.72835 0.0
H1702 H 0.8387 0.27381 0.75872 0.0
H1703 H 0.67754 0.36437 0.75666 0.0
H1704 H 0.64092 0.52704 0.72412 0.0
H1705 H 0.69273 0.52253 0.71384 0.0
H1706 H 0.58231 0.46193 0.75368 0.0
H1707 H 0.84967 0.37767 0.74197 0.0
H1708 H 0.85753 0.32759 0.75376 0.0
H1709 H 0.59979 0.50411 0.73879 0.0
H1710 H 0.62877 0.36763 0.76915 0.0
N1711 N 0.68826 0.45137 0.72816 0.0
C1712 C 0.65404 0.50581 0.72538 0.0
C1713 C 0.68318 0.50331 0.71952 0.0
C1714 C 0.64254 0.48129 0.73316 0.0
C1715 C 0.66053 0.45412 0.73453 0.0
C1716 C 0.70029 0.47613 0.72125 0.0
N1717 N 0.67046 0.40639 0.74549 0.0
C1718 C 0.65125 0.43088 0.74335 0.0
C1719 C 0.63486 0.38566 0.76198 0.0
C1720 C 0.61471 0.41028 0.75963 0.0
C1721 C 0.66291 0.38428 0.755 0.0
C1722 C 0.62295 0.43351 0.75041 0.0
H1723 H 0.5931 0.41141 0.76516 0.0
O1724 O 0.76407 0.42031 0.73867 0.0
O1725 O 0.73973 0.35949 0.73721 0.0
O1726 O 0.69037 0.32908 0.72031 0.0
O1727 O 0.6711 0.37555 0.72884 0.0
O1728 O 0.72865 0.3837 0.75379 0.0
O1729 O 0.72483 0.44686 0.74581 0.0
O1730 O 0.78751 0.33672 0.70469 0.0
O1731 O 0.72239 0.38739 0.71273 0.0
O1732 O 0.74846 0.4286 0.71374 0.0
O1733 O 0.77418 0.38618 0.70535 0.0
O1734 O 0.70655 0.35162 0.70043 0.0
O1735 O 0.74807 0.30768 0.69981 0.0
C1736 C 0.74152 0.35795 0.75053 0.0
C1737 C 0.60414 0.45963 0.74839 0.0
C1738 C 0.61407 0.48361 0.73991 0.0
C1739 C 0.75458 0.44257 0.74657 0.0
C1740 C 0.76859 0.44382 0.76023 0.0
C1741 C 0.75292 0.43267 0.77174 0.0
C1742 C 0.79778 0.45742 0.76181 0.0
C1743 C 0.81106 0.46058 0.77482 0.0
C1744 C 0.76695 0.43352 0.78449 0.0
C1745 C 0.79574 0.44742 0.78607 0.0
C1746 C 0.66528 0.34567 0.72497 0.0
C1747 C 0.70304 0.38054 0.70351 0.0
C1748 C 0.77618 0.31589 0.69659 0.0
C1749 C 0.78358 0.31945 0.68209 0.0
C1750 C 0.79581 0.34685 0.67652 0.0
C1751 C 0.77912 0.29398 0.67374 0.0
C1752 C 0.78602 0.29534 0.65982 0.0
C1753 C 0.80291 0.34841 0.66264 0.0
C1754 C 0.79774 0.3228 0.65423 0.0
C1755 C 0.7713 0.41771 0.70519 0.0
H1756 H 0.7297 0.42369 0.77101 0.0
H1757 H 0.80942 0.46685 0.75297 0.0
H1758 H 0.75486 0.42456 0.79328 0.0
H1759 H 0.80484 0.44972 0.79627 0.0
H1760 H 0.79982 0.36696 0.68279 0.0
H1761 H 0.76908 0.27317 0.67808 0.0
H1762 H 0.81207 0.36962 0.65837 0.0
H1763 H 0.80248 0.32448 0.64344 0.0
Gd1764 Gd 0.94509 0.46936 0.98373 0.0
Gd1765 Gd 1.00921 0.49909 0.96869 0.0
C1766 C 0.09231 0.52052 0.99547 0.0
C1767 C 0.07621 0.56822 1.00656 0.0
C1768 C 1.04171 0.5422 0.99074 0.0
C1769 C 0.06366 0.5192 0.98865 0.0
C1770 C 0.04801 0.56726 0.99952 0.0
C1771 C 0.09822 0.54482 1.0046 0.0
C1772 C 0.11447 0.49776 0.99268 0.0
C1773 C 0.10833 0.47526 0.98287 0.0
N1774 N 0.05743 0.49614 0.97964 0.0
C1775 C 0.07981 0.47521 0.97619 0.0
H1776 H 0.07594 0.45867 0.96812 0.0
C1777 C 0.99245 0.56293 0.98545 0.0
N1778 N 1.01407 0.53994 0.98429 0.0
C1779 C 0.99782 0.58839 0.9939 0.0
C1780 C 1.02565 0.5905 1.00103 0.0
H1781 H 0.97108 0.56151 0.97981 0.0
H1782 H 0.12 0.54605 1.01001 0.0
H1783 H 0.9194 0.46845 0.95001 0.0
H1784 H 0.13672 0.49793 0.99773 0.0
H1785 H 0.12575 0.45825 0.98027 0.0
H1786 H 0.08127 0.58703 1.0135 0.0
H1787 H 0.95043 0.42355 1.01144 0.0
H1788 H 0.84185 0.40864 0.94762 0.0
H1789 H 0.87702 0.44652 0.93704 0.0
H1790 H 0.84234 0.35624 0.99034 0.0
H1791 H 0.9805 0.60635 0.99492 0.0
H1792 H 1.02964 0.61011 1.00767 0.0
H1793 H 0.82909 0.3752 0.96751 0.0
H1794 H 0.92285 0.38038 1.02193 0.0
N1795 N 0.90713 0.4467 0.96889 0.0
C1796 C 0.86 0.41908 0.95365 0.0
C1797 C 0.87975 0.44046 0.94767 0.0
C1798 C 0.86509 0.41001 0.9671 0.0
C1799 C 0.88918 0.42422 0.97454 0.0
C1800 C 0.90357 0.45352 0.95532 0.0
N1801 N 0.92198 0.42526 0.9937 0.0
C1802 C 0.8971 0.41295 0.98726 0.0
C1803 C 0.9154 0.38924 1.01215 0.0
C1804 C 0.88984 0.37642 1.00567 0.0
C1805 C 0.9312 0.41374 1.00604 0.0
C1806 C 0.88048 0.38807 0.99306 0.0
H1807 H 0.87767 0.35737 1.01044 0.0
O1808 O 0.93216 0.51552 0.99038 0.0
O1809 O 0.98633 0.49998 0.98933 0.0
O1810 O 1.02406 0.44444 0.97451 0.0
O1811 O 0.97924 0.42467 0.98426 0.0
O1812 O 0.97889 0.46403 1.00203 0.0
O1813 O 0.90814 0.47561 0.9984 0.0
O1814 O 1.01083 0.54264 0.95809 0.0
O1815 O 0.96938 0.4707 0.96443 0.0
O1816 O 0.92286 0.50591 0.96705 0.0
O1817 O 0.96637 0.52698 0.95751 0.0
O1818 O 1.0087 0.4613 0.95313 0.0
O1819 O 1.04495 0.50744 0.95345 0.0
C1820 C 0.99606 0.48832 1.00076 0.0
C1821 C 0.85544 0.37519 0.986 0.0
C1822 C 0.8478 0.38609 0.97304 0.0
C1823 C 0.91228 0.5054 0.99921 0.0
C1824 C 0.91453 0.51874 1.01289 0.0
C1825 C 0.93039 0.50348 1.02338 0.0
C1826 C 0.89969 0.54694 1.01552 0.0
C1827 C 0.89859 0.55914 1.0288 0.0
C1828 C 0.93135 0.51642 1.03637 0.0
C1829 C 0.91532 0.54381 1.03914 0.0
C1830 C 1.0085 0.41914 0.97976 0.0
C1831 C 0.98086 0.45223 0.95558 0.0
C1832 C 1.0333 0.53441 0.95016 0.0
C1833 C 1.02915 0.54177 0.93562 0.0
C1834 C 1.00269 0.5571 0.93065 0.0
C1835 C 0.05282 0.53455 0.92663 0.0
C1836 C 0.05033 0.5418 0.91277 0.0
C1837 C 0.99996 0.56426 0.91682 0.0
C1838 C 1.02364 0.55639 0.90782 0.0
C1839 C 0.93483 0.5265 0.95789 0.0
H1840 H 0.9419 0.4816 1.02158 0.0
H1841 H 0.88793 0.55862 1.00723 0.0
H1842 H 0.94369 0.50461 1.04444 0.0
H1843 H 0.91482 0.55188 0.04955 0.0
H1844 H 0.98419 0.56361 0.93739 0.0
H1845 H 0.07309 0.5225 0.93044 0.0
H1846 H 0.97941 0.57579 0.91309 0.0
H1847 H 1.02117 0.56158 0.8971 0.0
Gd1848 Gd 0.87105 0.69973 0.23103 0.0
Gd1849 Gd 0.83913 0.76308 0.21725 0.0
C1850 C 0.80219 0.83222 0.24818 0.0
C1851 C 0.75063 0.81253 0.25239 0.0
C1852 C 0.78564 0.78442 0.23739 0.0
C1853 C 0.80804 0.80709 0.23933 0.0
C1854 C 0.7569 0.78677 0.24413 0.0
C1855 C 0.77326 0.83508 0.25447 0.0
C1856 C 0.82586 0.8534 0.25075 0.0
C1857 C 0.85455 0.84931 0.24461 0.0
N1858 N 0.83619 0.80346 0.23337 0.0
C1859 C 0.85931 0.8243 0.23584 0.0
H1860 H 0.88123 0.82272 0.23076 0.0
C1861 C 0.77287 0.73441 0.22933 0.0
N1862 N 0.79289 0.75886 0.2299 0.0
C1863 C 0.74411 0.73593 0.23573 0.0
C1864 C 0.73586 0.76241 0.24296 0.0
H1865 H 0.77886 0.71325 0.22427 0.0
H1866 H 0.76839 0.85431 0.26123 0.0
H1867 H 0.87426 0.66042 0.20044 0.0
H1868 H 0.82228 0.87285 0.25754 0.0
H1869 H 0.87294 0.86572 0.24646 0.0
H1870 H 0.7287 0.81466 0.25761 0.0
H1871 H 0.89957 0.69527 0.26351 0.0
H1872 H 0.9646 0.62313 0.19619 0.0
H1873 H 0.91186 0.63108 0.18737 0.0
H1874 H 1.0124 0.64361 0.23893 0.0
H1875 H 0.7284 0.7165 0.23516 0.0
H1876 H 0.71367 0.76332 0.24804 0.0
H1877 H 1.00208 0.62871 0.2153 0.0
H1878 H 0.949 0.68414 0.27452 0.0
N1879 N 0.90452 0.66967 0.21714 0.0
C1880 C 0.94796 0.63597 0.20219 0.0
C1881 C 0.91821 0.64033 0.19721 0.0
C1882 C 0.95547 0.64706 0.21511 0.0
C1883 C 0.93282 0.66346 0.22258 0.0
C1884 C 0.89672 0.65716 0.20483 0.0
N1885 N 0.91549 0.68469 0.24343 0.0
C1886 C 0.93851 0.67128 0.23606 0.0
C1887 C 0.94656 0.68095 0.26365 0.0
C1888 C 0.97114 0.66939 0.25605 0.0
C1889 C 0.9186 0.68792 0.25723 0.0
C1890 C 0.96707 0.66361 0.24218 0.0
H1891 H 0.9927 0.66378 0.26109 0.0
O1892 O 0.87126 0.65386 0.2402 0.0
O1893 O 0.8369 0.73816 0.23752 0.0
O1894 O 0.89541 0.77575 0.22103 0.0
O1895 O 0.91675 0.73153 0.23054 0.0
O1896 O 0.87203 0.73027 0.25055 0.0
O1897 O 0.82865 0.67982 0.23897 0.0
O1898 O 0.80449 0.7842 0.20417 0.0
O1899 O 0.87633 0.73108 0.21375 0.0
O1900 O 0.83484 0.67981 0.21344 0.0
O1901 O 0.80997 0.72274 0.20498 0.0
O1902 O 0.84939 0.74038 0.1971 0.0
O1903 O 0.84724 0.80822 0.2083 0.0
C1904 C 0.8473 0.74671 0.24936 0.0
C1905 C 0.99026 0.64934 0.23443 0.0
C1906 C 0.98441 0.64094 0.22096 0.0
C1907 C 0.84142 0.65318 0.24171 0.0
C1908 C 0.82537 0.62575 0.23627 0.0
C1909 C 0.83139 0.61504 0.22305 0.0
C1910 C 0.80349 0.61028 0.24427 0.0
C1911 C 0.78701 0.58474 0.23903 0.0
C1912 C 0.81404 0.59102 0.21752 0.0
C1913 C 0.79164 0.57627 0.22534 0.0
C1914 C 0.92152 0.7609 0.22612 0.0
C1915 C 0.87363 0.72604 0.20118 0.0
C1916 C 0.82291 0.80644 0.20052 0.0
C1917 C 0.82895 0.80819 0.18587 0.0
C1918 C 0.80656 0.8187 0.17668 0.0
C1919 C 0.85746 0.79779 0.181 0.0
C1920 C 0.86529 0.80028 0.16727 0.0
C1921 C 0.81328 0.81958 0.16277 0.0
C1922 C 0.84257 0.81088 0.15807 0.0
C1923 C 0.81268 0.69113 0.20477 0.0
H1924 H 0.84933 0.62526 0.21695 0.0
H1925 H 0.80042 0.61747 0.25474 0.0
H1926 H 0.81821 0.58358 0.20717 0.0
H1927 H 0.77868 0.55755 0.22077 0.0
H1928 H 0.78409 0.82616 0.18025 0.0
H1929 H 0.87421 0.7888 0.18813 0.0
H1930 H 0.7961 0.82798 0.15566 0.0
H1931 H 0.84771 0.81398 0.14739 0.0
Gd1932 Gd 0.65378 0.62167 0.48393 0.0
Gd1933 Gd 0.59023 0.58937 0.46993 0.0
C1934 C 0.51707 0.56133 0.50047 0.0
C1935 C 0.53634 0.51141 0.50819 0.0
C1936 C 0.56613 0.54178 0.49196 0.0
C1937 C 0.54337 0.56486 0.49212 0.0
C1938 C 0.56267 0.5149 0.50002 0.0
C1939 C 0.51374 0.5346 0.50848 0.0
C1940 C 0.49475 0.5848 0.50056 0.0
C1941 C 0.49839 0.61059 0.49217 0.0
N1942 N 0.54711 0.59084 0.48438 0.0
C1943 C 0.52449 0.61296 0.48389 0.0
H1944 H 0.52563 0.63201 0.47682 0.0
C1945 C 0.61543 0.52468 0.4845 0.0
N1946 N 0.59227 0.54627 0.48449 0.0
C1947 C 0.61281 0.49772 0.49228 0.0
C1948 C 0.58628 0.4927 0.50001 0.0
H1949 H 0.63613 0.52818 0.47865 0.0
H1950 H 0.49373 0.53164 0.51496 0.0
H1951 H 0.68767 0.62498 0.45157 0.0
H1952 H 0.47434 0.58296 0.50688 0.0
H1953 H 0.48072 0.62836 0.49184 0.0
H1954 H 0.53348 0.49104 0.51452 0.0
H1955 H 0.65903 0.65114 0.51595 0.0
H1956 H 0.73076 0.71245 0.44756 0.0
H1957 H 0.71664 0.66149 0.43817 0.0
H1958 H 0.71866 0.75967 0.49102 0.0
H1959 H 0.63129 0.48079 0.49232 0.0
H1960 H 0.58448 0.47187 0.50611 0.0
H1961 H 0.73086 0.7489 0.46712 0.0
H1962 H 0.67376 0.69983 0.5268 0.0
N1963 N 0.68501 0.6534 0.4695 0.0
C1964 C 0.71823 0.69606 0.45382 0.0
C1965 C 0.71041 0.66732 0.44852 0.0
C1966 C 0.71019 0.7032 0.4672 0.0
C1967 C 0.69369 0.68111 0.47496 0.0
C1968 C 0.69399 0.6462 0.45647 0.0
N1969 N 0.67148 0.66563 0.49587 0.0
C1970 C 0.68649 0.68746 0.48844 0.0
C1971 C 0.67701 0.6969 0.51596 0.0
C1972 C 0.69054 0.72036 0.5083 0.0
C1973 C 0.66804 0.6694 0.50962 0.0
C1974 C 0.69604 0.71562 0.49445 0.0
H1975 H 0.69758 0.74162 0.51326 0.0
O1976 O 0.69832 0.61831 0.49406 0.0
O1977 O 0.61485 0.5886 0.49034 0.0
O1978 O 0.57712 0.6456 0.47324 0.0
O1979 O 0.61927 0.66585 0.48497 0.0
O1980 O 0.62327 0.62388 0.50334 0.0
O1981 O 0.67009 0.57739 0.49164 0.0
O1982 O 0.57161 0.54816 0.46089 0.0
O1983 O 0.62228 0.62628 0.46699 0.0
O1984 O 0.67336 0.58677 0.46583 0.0
O1985 O 0.63094 0.55973 0.45859 0.0
O1986 O 0.61043 0.60358 0.44964 0.0
O1987 O 0.54975 0.59264 0.45681 0.0
C1988 C 0.60617 0.59962 0.50209 0.0
C1989 C 0.71148 0.73785 0.4866 0.0
C1990 C 0.7185 0.73168 0.473 0.0
C1991 C 0.69702 0.58824 0.49508 0.0
C1992 C 0.72372 0.57076 0.48985 0.0
C1993 C 0.73649 0.57766 0.47708 0.0
C1994 C 0.73618 0.54642 0.49756 0.0
C1995 C 0.76092 0.52849 0.4925 0.0
C1996 C 0.75986 0.55911 0.4717 0.0
C1997 C 0.77168 0.53439 0.47923 0.0
C1998 C 0.5908 0.671 0.47944 0.0
C1999 C 0.62566 0.62683 0.45429 0.0
C2000 C 0.55187 0.56334 0.45349 0.0
C2001 C 0.55232 0.55566 0.43894 0.0
C2002 C 0.5765 0.53859 0.43292 0.0
C2003 C 0.52793 0.56577 0.43092 0.0
C2004 C 0.52726 0.55953 0.41694 0.0
C2005 C 0.57594 0.53218 0.41897 0.0
C2006 C 0.55148 0.54282 0.41093 0.0
C2007 C 0.66205 0.56364 0.4577 0.0
H2008 H 0.72837 0.59726 0.47122 0.0
H2009 H 0.72735 0.5425 0.50773 0.0
H2010 H 0.76923 0.5642 0.46175 0.0
H2011 H 0.79004 0.52063 0.47482 0.0
H2012 H 0.59583 0.53035 0.4389 0.0
H2013 H 0.50983 0.57957 0.43558 0.0
H2014 H 0.59465 0.51924 0.41438 0.0
H2015 H 0.55154 0.53824 0.4001 0.0
Gd2016 Gd 0.3411 0.33752 0.21963 0.0
Gd2017 Gd 0.36823 0.40082 0.23689 0.0
C2018 C 0.43367 0.48073 0.22547 0.0
C2019 C 0.48155 0.4653 0.23632 0.0
C2020 C 0.4354 0.43349 0.23871 0.0
C2021 C 0.41933 0.45336 0.23026 0.0
C2022 C 0.46645 0.43989 0.24219 0.0
C2023 C 0.46508 0.4859 0.22808 0.0
C2024 C 0.41567 0.50309 0.21892 0.0
C2025 C 0.38391 0.49885 0.21804 0.0
N2026 N 0.38874 0.44815 0.22821 0.0
C2027 C 0.37074 0.47162 0.22305 0.0
H2028 H 0.34592 0.47074 0.22339 0.0
C2029 C 0.43289 0.39473 0.25562 0.0
N2030 N 0.4197 0.40999 0.24476 0.0
C2031 C 0.46373 0.39973 0.25915 0.0
C2032 C 0.48084 0.42189 0.25218 0.0
H2033 H 0.42049 0.3773 0.2612 0.0
H2034 H 0.47651 0.50644 0.22424 0.0
H2035 H 0.38304 0.27143 0.22405 0.0
H2036 H 0.4258 0.52437 0.21515 0.0
H2037 H 0.36941 0.51687 0.21378 0.0
H2038 H 0.50547 0.47023 0.23871 0.0
H2039 H 0.2782 0.37903 0.22849 0.0
H2040 H 0.33517 0.2142 0.25241 0.0
H2041 H 0.38017 0.2238 0.23757 0.0
H2042 H 0.24247 0.27079 0.26163 0.0
H2043 H 0.47425 0.38651 0.26729 0.0
H2044 H 0.50462 0.42603 0.25507 0.0
H2045 H 0.2837 0.2316 0.26109 0.0
H2046 H 0.23045 0.37139 0.2416 0.0
N2047 N 0.34173 0.29101 0.23227 0.0
C2048 C 0.33667 0.23572 0.24676 0.0
C2049 C 0.3622 0.24115 0.23848 0.0
C2050 C 0.31297 0.25773 0.24738 0.0
C2051 C 0.31606 0.28546 0.23987 0.0
C2052 C 0.36413 0.26875 0.23108 0.0
N2053 N 0.29709 0.33494 0.23357 0.0
C2054 C 0.29278 0.30769 0.24026 0.0
C2055 C 0.24779 0.3533 0.24131 0.0
C2056 C 0.24322 0.3257 0.24843 0.0
C2057 C 0.27491 0.35752 0.23385 0.0
C2058 C 0.2659 0.30256 0.24805 0.0
H2059 H 0.22231 0.32264 0.25432 0.0
O2060 O 0.30614 0.33698 0.20375 0.0
O2061 O 0.36223 0.38196 0.21696 0.0
O2062 O 0.33384 0.42131 0.21829 0.0
O2063 O 0.31153 0.37874 0.20838 0.0
O2064 O 0.38264 0.34622 0.20603 0.0
O2065 O 0.33355 0.29616 0.20763 0.0
O2066 O 0.36733 0.43026 0.25469 0.0
O2067 O 0.33745 0.35835 0.24091 0.0
O2068 O 0.39612 0.32393 0.22378 0.0
O2069 O 0.41487 0.36965 0.23287 0.0
O2070 O 0.37013 0.36622 0.25493 0.0
O2071 O 0.3247 0.41964 0.24444 0.0
C2072 C 0.38257 0.37566 0.20831 0.0
C2073 C 0.26282 0.27498 0.2555 0.0
C2074 C 0.28635 0.2527 0.25522 0.0
C2075 C 0.31351 0.30946 0.19961 0.0
C2076 C 0.31976 0.30669 0.18505 0.0
C2077 C 0.2962 0.30068 0.17566 0.0
C2078 C 0.35034 0.30679 0.18075 0.0
C2079 C 0.35838 0.29489 0.16808 0.0
C2080 C 0.30382 0.29297 0.16224 0.0
C2081 C 0.33483 0.28911 0.15852 0.0
C2082 C 0.31279 0.41027 0.20892 0.0
C2083 C 0.34728 0.34803 0.25261 0.0
C2084 C 0.33801 0.43625 0.25376 0.0
C2085 C 0.32894 0.46911 0.25453 0.0
C2086 C 0.35072 0.4927 0.25236 0.0
C2087 C 0.29839 0.47705 0.25788 0.0
C2088 C 0.28956 0.50836 0.25897 0.0
C2089 C 0.34182 0.52366 0.25279 0.0
C2090 C 0.31155 0.53151 0.25608 0.0
C2091 C 0.42114 0.34022 0.2286 0.0
H2092 H 0.27221 0.30106 0.17878 0.0
H2093 H 0.36834 0.31212 0.18794 0.0
H2094 H 0.28571 0.28791 0.15499 0.0
H2095 H 0.34012 0.27971 0.14859 0.0
H2096 H 0.37469 0.48734 0.25032 0.0
H2097 H 0.28181 0.45888 0.25999 0.0
H2098 H 0.35868 0.54167 0.25097 0.0
H2099 H 0.30594 0.55586 0.25711 0.0
Gd2100 Gd 0.49772 0.5988 0.96445 0.0
Gd2101 Gd 0.43533 0.62428 0.98281 0.0
C2102 C 0.36001 0.69873 0.98217 0.0
C2103 C 0.38116 0.7383 0.99699 0.0
C2104 C 0.41017 0.69094 0.99256 0.0
C2105 C 0.38725 0.68101 0.98375 0.0
C2106 C 0.40718 0.71962 0.99936 0.0
C2107 C 0.35747 0.72772 0.98853 0.0
C2108 C 0.33555 0.6863 0.97467 0.0
C2109 C 0.33828 0.65669 0.9692 0.0
N2110 N 0.39023 0.65282 0.97773 0.0
C2111 C 0.36563 0.64 0.97105 0.0
H2112 H 0.36644 0.61663 0.9673 0.0
C2113 C 0.4559 0.67966 1.00482 0.0
N2114 N 0.43453 0.67183 0.99505 0.0
C2115 C 0.45417 0.7081 1.01154 0.0
C2116 C 0.42986 0.72829 1.00873 0.0
H2117 H 0.47555 0.66496 1.00685 0.0
H2118 H 0.33695 0.74183 0.98722 0.0
H2119 H 0.56492 0.63795 0.9675 0.0
H2120 H 0.31419 0.69908 0.97333 0.0
H2121 H 0.31915 0.64649 0.96373 0.0
H2122 H 0.37862 0.76046 1.00204 0.0
H2123 H 0.45339 0.53926 0.97463 0.0
H2124 H 0.62308 0.58674 0.99456 0.0
H2125 H 0.61417 0.63218 0.97973 0.0
H2126 H 0.56173 0.49876 1.00661 0.0
H2127 H 0.47168 0.71445 1.01888 0.0
H2128 H 0.42844 0.7502 1.01407 0.0
H2129 H 0.60358 0.53679 1.00429 0.0
H2130 H 0.45858 0.49274 0.98902 0.0
N2131 N 0.54469 0.59768 0.97632 0.0
C2132 C 0.60107 0.58945 0.98944 0.0
C2133 C 0.59606 0.61525 0.98115 0.0
C2134 C 0.57785 0.56719 0.99084 0.0
C2135 C 0.54955 0.57186 0.984 0.0
C2136 C 0.56777 0.61878 0.97446 0.0
N2137 N 0.49853 0.55573 0.97892 0.0
C2138 C 0.52599 0.55012 0.9852 0.0
C2139 C 0.47767 0.50873 0.98806 0.0
C2140 C 0.50548 0.50283 0.99479 0.0
C2141 C 0.4747 0.53527 0.98 0.0
C2142 C 0.53009 0.52358 0.99341 0.0
H2143 H 0.50767 0.48229 1.00107 0.0
O2144 O 0.50503 0.55732 0.9527 0.0
O2145 O 0.45293 0.62058 0.96223 0.0
O2146 O 0.41309 0.59128 0.96416 0.0
O2147 O 0.45531 0.57108 0.95309 0.0
O2148 O 0.48804 0.63827 0.95005 0.0
O2149 O 0.5347 0.59725 0.94953 0.0
O2150 O 0.42196 0.57796 0.98915 0.0
O2151 O 0.48279 0.60276 0.98649 0.0
O2152 O 0.51189 0.65299 0.96935 0.0
O2153 O 0.46615 0.67125 0.97884 0.0
O2154 O 0.45897 0.61305 1.00331 0.0
O2155 O 0.39563 0.61773 0.99597 0.0
C2156 C 0.45919 0.64082 0.95327 0.0
C2157 C 0.55824 0.51894 1.00021 0.0
C2158 C 0.58205 0.54064 0.99892 0.0
C2159 C 0.52688 0.56954 0.94543 0.0
C2160 C 0.52538 0.56418 0.93071 0.0
C2161 C 0.4998 0.55058 0.92422 0.0
C2162 C 0.55107 0.57209 0.92305 0.0
C2163 C 0.55168 0.5673 0.90898 0.0
C2164 C 0.50008 0.54596 0.91012 0.0
C2165 C 0.52588 0.55461 0.90244 0.0
C2166 C 0.42388 0.57133 0.95423 0.0
C2167 C 0.48463 0.60051 0.99981 0.0
C2168 C 0.40021 0.58799 0.99717 0.0
C2169 C 0.40003 0.57517 1.01107 0.0
C2170 C 0.41096 0.59244 1.02218 0.0
C2171 C 0.38788 0.54549 1.0133 0.0
C2172 C 0.38577 0.5333 1.02657 0.0
C2173 C 0.41114 0.57962 1.03519 0.0
C2174 C 0.39856 0.55036 1.03742 0.0
C2175 C 0.49556 0.67763 0.97455 0.0
H2176 H 0.47976 0.54353 0.93 0.0
H2177 H 0.57062 0.58281 0.92811 0.0
H2178 H 0.48022 0.53582 0.90514 0.0
H2179 H 0.52575 0.55143 0.89151 0.0
H2180 H 0.4191 0.61594 1.02091 0.0
H2181 H 0.37878 0.53254 1.00475 0.0
H2182 H 0.41989 0.59295 1.04367 0.0
H2183 H 0.39703 0.54216 0.0478 0.0
Gd2184 Gd 0.25542 0.75862 0.71884 0.0
Gd2185 Gd 0.22984 0.69465 0.73628 0.0
C2186 C 0.15071 0.62545 0.73132 0.0
C2187 C 0.1113 0.64681 0.74617 0.0
C2188 C 0.1614 0.6719 0.74426 0.0
C2189 C 0.1704 0.65038 0.73463 0.0
C2190 C 0.13188 0.67009 0.75028 0.0
C2191 C 0.12076 0.62442 0.73675 0.0
C2192 C 0.16231 0.60137 0.7233 0.0
C2193 C 0.19322 0.60182 0.71935 0.0
N2194 N 0.19948 0.65206 0.72952 0.0
C2195 C 0.21164 0.6273 0.72269 0.0
H2196 H 0.23563 0.62675 0.71985 0.0
C2197 C 0.175 0.71373 0.75861 0.0
N2198 N 0.18202 0.69394 0.74813 0.0
C2199 C 0.14592 0.71293 0.76477 0.0
C2200 C 0.12416 0.69125 0.7605 0.0
H2201 H 0.19098 0.73149 0.76172 0.0
H2202 H 0.10514 0.60579 0.7341 0.0
H2203 H 0.21461 0.82441 0.72478 0.0
H2204 H 0.14801 0.58172 0.72061 0.0
H2205 H 0.20286 0.58265 0.71367 0.0
H2206 H 0.08841 0.64528 0.75056 0.0
H2207 H 0.31496 0.71253 0.72907 0.0
H2208 H 0.2679 0.88142 0.75131 0.0
H2209 H 0.22061 0.87249 0.7378 0.0
H2210 H 0.35796 0.82056 0.76041 0.0
H2211 H 0.14024 0.72924 0.77275 0.0
H2212 H 0.10167 0.69067 0.76532 0.0
H2213 H 0.31929 0.86222 0.75939 0.0
H2214 H 0.36229 0.71748 0.74254 0.0
N2215 N 0.25707 0.80463 0.73164 0.0
C2216 C 0.26518 0.85987 0.74579 0.0
C2217 C 0.23835 0.85481 0.73828 0.0
C2218 C 0.28822 0.83712 0.7461 0.0
C2219 C 0.28354 0.80936 0.73879 0.0
C2220 C 0.23473 0.82707 0.73113 0.0
N2221 N 0.29977 0.75876 0.7327 0.0
C2222 C 0.30563 0.78593 0.73922 0.0
C2223 C 0.34666 0.73698 0.74162 0.0
C2224 C 0.35326 0.76479 0.7482 0.0
C2225 C 0.31972 0.73434 0.73387 0.0
C2226 C 0.33254 0.78959 0.74718 0.0
H2227 H 0.37405 0.76665 0.75428 0.0
O2228 O 0.2856 0.75978 0.70114 0.0
O2229 O 0.23493 0.71373 0.71623 0.0
O2230 O 0.26208 0.67388 0.71711 0.0
O2231 O 0.28637 0.71693 0.70836 0.0
O2232 O 0.21375 0.74941 0.70539 0.0
O2233 O 0.26332 0.80161 0.70802 0.0
O2234 O 0.27496 0.6751 0.74052 0.0
O2235 O 0.25243 0.74142 0.74056 0.0
O2236 O 0.20046 0.77169 0.72293 0.0
O2237 O 0.18267 0.72578 0.7324 0.0
O2238 O 0.24302 0.71623 0.75706 0.0
O2239 O 0.2342 0.65471 0.74964 0.0
C2240 C 0.21428 0.7199 0.70763 0.0
C2241 C 0.33744 0.81739 0.75426 0.0
C2242 C 0.31538 0.84109 0.7537 0.0
C2243 C 0.27726 0.78779 0.698 0.0
C2244 C 0.26238 0.79112 0.68469 0.0
C2245 C 0.27789 0.78428 0.67255 0.0
C2246 C 0.23117 0.79925 0.68428 0.0
C2247 C 0.21567 0.80271 0.67198 0.0
C2248 C 0.26213 0.78632 0.66013 0.0
C2249 C 0.23115 0.79577 0.65979 0.0
C2250 C 0.28422 0.68527 0.70831 0.0
C2251 C 0.25553 0.74215 0.75384 0.0
C2252 C 0.26426 0.65442 0.74891 0.0
C2253 C 0.28169 0.65011 0.76161 0.0
C2254 C 0.27233 0.66362 0.77392 0.0
C2255 C 0.30773 0.6308 0.76138 0.0
C2256 C 0.32373 0.62362 0.77345 0.0
C2257 C 0.2894 0.65856 0.78574 0.0
C2258 C 0.31475 0.63855 0.78558 0.0
C2259 C 0.17589 0.75517 0.72802 0.0
H2260 H 0.30191 0.77721 0.67269 0.0
H2261 H 0.21874 0.80384 0.69364 0.0
H2262 H 0.2741 0.7812 0.65073 0.0
H2263 H 0.21979 0.7988 0.65006 0.0
H2264 H 0.25164 0.67755 0.77455 0.0
H2265 H 0.31458 0.6202 0.75185 0.0
H2266 H 0.28216 0.66913 0.7952 0.0
H2267 H 0.32598 0.63337 0.79516 0.0
Gd2268 Gd 0.08881 0.50378 0.46482 0.0
Gd2269 Gd 0.15172 0.4796 0.4833 0.0
C2270 C 0.22488 0.40321 0.48058 0.0
C2271 C 0.20317 0.36272 0.49477 0.0
C2272 C 0.17588 0.41167 0.49183 0.0
C2273 C 0.19844 0.42168 0.4829 0.0
C2274 C 0.17822 0.38218 0.498 0.0
C2275 C 0.22661 0.37332 0.48618 0.0
C2276 C 0.24961 0.41597 0.47338 0.0
C2277 C 0.24811 0.44679 0.46917 0.0
N2278 N 0.19613 0.4507 0.47761 0.0
C2279 C 0.2212 0.46397 0.47149 0.0
H2280 H 0.22092 0.48797 0.46851 0.0
C2281 C 0.1316 0.4235 0.50496 0.0
N2282 N 0.15246 0.4314 0.49503 0.0
C2283 C 0.13277 0.39435 0.51115 0.0
C2284 C 0.15597 0.37348 0.50756 0.0
H2285 H 0.11277 0.43878 0.50755 0.0
H2286 H 0.24646 0.35863 0.48427 0.0
H2287 H 1.0225 0.46285 0.46687 0.0
H2288 H 0.27041 0.40264 0.47149 0.0
H2289 H 0.26761 0.45732 0.46409 0.0
H2290 H 0.20517 0.33989 0.4993 0.0
H2291 H 0.13092 0.56401 0.47569 0.0
H2292 H 0.9618 0.51126 0.49377 0.0
H2293 H 0.97259 0.46671 0.47869 0.0
H2294 H 1.01996 0.60074 0.50674 0.0
H2295 H 0.11563 0.38794 0.51864 0.0
H2296 H 0.15691 0.35098 0.51245 0.0
H2297 H 0.97941 0.56147 0.50393 0.0
H2298 H 0.12368 0.61023 0.49013 0.0
N2299 N 1.04125 0.50322 0.4762 0.0
C2300 C 0.98409 0.50936 0.48884 0.0
C2301 C 0.99018 0.48407 0.48041 0.0
C2302 C 1.00661 0.53222 0.49059 0.0
C2303 C 1.03532 0.5286 0.48399 0.0
C2304 C 1.01883 0.48161 0.47395 0.0
N2305 N 0.08594 0.54644 0.4794 0.0
C2306 C 0.05811 0.55103 0.48547 0.0
C2307 C 0.10508 0.59374 0.48892 0.0
C2308 C 0.07679 0.5987 0.49538 0.0
C2309 C 0.1092 0.56746 0.48081 0.0
C2310 C 0.05288 0.57725 0.49373 0.0
H2311 H 0.07373 0.61903 0.50171 0.0
O2312 O 0.08075 0.54553 0.4533 0.0
O2313 O 0.13431 0.48479 0.46293 0.0
O2314 O 0.17363 0.51367 0.4649 0.0
O2315 O 0.13102 0.53287 0.45373 0.0
O2316 O 0.1008 0.4641 0.45065 0.0
O2317 O 0.05335 0.50452 0.44914 0.0
O2318 O 0.16757 0.52549 0.48897 0.0
O2319 O 0.10392 0.50048 0.48698 0.0
O2320 O 0.07577 0.44915 0.46929 0.0
O2321 O 0.12187 0.43183 0.47874 0.0
O2322 O 0.12844 0.49124 0.50378 0.0
O2323 O 0.19093 0.48476 0.49688 0.0
C2324 C 0.12969 0.46442 0.45399 0.0
C2325 C 1.02433 0.58084 0.50031 0.0
C2326 C 1.00127 0.55842 0.49874 0.0
C2327 C 0.06067 0.53258 0.44532 0.0
C2328 C 0.0647 0.53807 0.43067 0.0
C2329 C 0.09094 0.55256 0.42512 0.0
C2330 C 1.041 0.52896 0.42207 0.0
C2331 C 1.04312 0.53338 0.408 0.0
C2332 C 0.09337 0.55678 0.41103 0.0
C2333 C 0.06962 0.54689 0.40241 0.0
C2334 C 0.1625 0.53351 0.45497 0.0
C2335 C 0.10246 0.50317 0.50031 0.0
C2336 C 0.18903 0.51491 0.49703 0.0
C2337 C 0.19243 0.53045 0.51024 0.0
C2338 C 0.17843 0.51905 0.5221 0.0
C2339 C 0.21174 0.55641 0.51104 0.0
C2340 C 0.21817 0.57037 0.52366 0.0
C2341 C 0.18277 0.53417 0.53448 0.0
C2342 C 0.20263 0.5595 0.53531 0.0
C2343 C 0.09267 0.4247 0.47431 0.0
H2344 H 0.10948 0.56058 0.43159 0.0
H2345 H 1.0209 0.5176 0.42639 0.0
H2346 H 0.11375 0.56759 0.40679 0.0
H2347 H 0.07182 0.54981 0.39151 0.0
H2348 H 0.16474 0.49819 0.52199 0.0
H2349 H 0.22296 0.56472 0.50188 0.0
H2350 H 0.17179 0.52536 0.54358 0.0
H2351 H 0.20723 0.56916 0.54526 0.0
Gd2352 Gd 0.34232 0.75997 0.37348 0.0
Gd2353 Gd 0.36748 0.69591 0.35567 0.0
C2354 C 0.44438 0.62427 0.3618 0.0
C2355 C 0.48557 0.64468 0.34769 0.0
C2356 C 0.43606 0.67137 0.3489 0.0
C2357 C 0.42565 0.6499 0.35829 0.0
C2358 C 0.466 0.6687 0.34334 0.0
C2359 C 0.47471 0.62237 0.35683 0.0
C2360 C 0.43153 0.60036 0.36952 0.0
C2361 C 0.40041 0.60177 0.37306 0.0
N2362 N 0.39619 0.65235 0.36293 0.0
C2363 C 0.38292 0.62785 0.36953 0.0
H2364 H 0.35874 0.6278 0.37198 0.0
C2365 C 0.42473 0.71361 0.33433 0.0
N2366 N 0.41635 0.69404 0.34472 0.0
C2367 C 0.45428 0.71202 0.32867 0.0
C2368 C 0.47513 0.68971 0.33329 0.0
H2369 H 0.40946 0.7318 0.33094 0.0
H2370 H 0.48957 0.60315 0.35963 0.0
H2371 H 0.38317 0.82649 0.37155 0.0
H2372 H 0.44504 0.58017 0.37232 0.0
H2373 H 0.38985 0.58279 0.37854 0.0
H2374 H 0.50874 0.64248 0.34364 0.0
H2375 H 0.28296 0.71734 0.36224 0.0
H2376 H 0.33634 0.88662 0.34376 0.0
H2377 H 0.37994 0.87624 0.35937 0.0
H2378 H 0.24744 0.82817 0.33047 0.0
H2379 H 0.46103 0.72818 0.32079 0.0
H2380 H 0.49797 0.68849 0.32883 0.0
H2381 H 0.28668 0.86876 0.33327 0.0
H2382 H 0.23719 0.72448 0.34755 0.0
N2383 N 0.34354 0.80736 0.36184 0.0
C2384 C 0.338 0.86437 0.34883 0.0
C2385 C 0.36277 0.85853 0.35757 0.0
C2386 C 0.31529 0.84175 0.34699 0.0
C2387 C 0.31859 0.81312 0.35379 0.0
C2388 C 0.36489 0.82996 0.36423 0.0
N2389 N 0.3005 0.76245 0.35851 0.0
C2390 C 0.29619 0.79027 0.35228 0.0
C2391 C 0.25361 0.74314 0.34879 0.0
C2392 C 0.24887 0.77145 0.34219 0.0
C2393 C 0.27962 0.73907 0.35704 0.0
C2394 C 0.2703 0.79541 0.34384 0.0
H2395 H 0.22878 0.77446 0.33574 0.0
O2396 O 0.29958 0.76977 0.38381 0.0
O2397 O 0.36101 0.71436 0.37574 0.0
O2398 O 0.33248 0.67463 0.37379 0.0
O2399 O 0.31317 0.71766 0.38468 0.0
O2400 O 0.38123 0.74823 0.38808 0.0
O2401 O 0.34097 0.79485 0.38944 0.0
O2402 O 0.32245 0.67858 0.34974 0.0
O2403 O 0.34662 0.74368 0.3516 0.0
O2404 O 0.39691 0.77304 0.36927 0.0
O2405 O 0.41457 0.72653 0.36022 0.0
O2406 O 0.35681 0.71912 0.33501 0.0
O2407 O 0.36382 0.65676 0.34187 0.0
C2408 C 0.38108 0.71926 0.38474 0.0
C2409 C 0.26706 0.82388 0.33706 0.0
C2410 C 0.28948 0.84696 0.33862 0.0
C2411 C 0.31231 0.78836 0.39252 0.0
C2412 C 0.30496 0.78224 0.40691 0.0
C2413 C 0.28154 0.76141 0.41085 0.0
C2414 C 0.32136 0.79793 0.41691 0.0
C2415 C 0.31522 0.79281 0.43068 0.0
C2416 C 0.2752 0.75645 0.42465 0.0
C2417 C 0.292 0.77222 0.43463 0.0
C2418 C 0.31254 0.686 0.38357 0.0
C2419 C 0.34456 0.74511 0.33827 0.0
C2420 C 0.33377 0.65838 0.34126 0.0
C2421 C 0.31939 0.65781 0.32768 0.0
C2422 C 0.33377 0.67139 0.31634 0.0
C2423 C 0.29064 0.64331 0.32605 0.0
C2424 C 0.27623 0.64243 0.31323 0.0
C2425 C 0.31866 0.67242 0.30383 0.0
C2426 C 0.29004 0.65814 0.30226 0.0
C2427 C 0.42145 0.75593 0.36454 0.0
H2428 H 0.26814 0.74898 0.40333 0.0
H2429 H 0.33908 0.81443 0.41402 0.0
H2430 H 0.25724 0.74039 0.42761 0.0
H2431 H 0.287 0.76839 0.44529 0.0
H2432 H 0.35672 0.68107 0.31704 0.0
H2433 H 0.2801 0.63163 0.33464 0.0
H2434 H 0.32968 0.68334 0.29519 0.0
H2435 H 0.27986 0.65754 0.29219 0.0
Gd2436 Gd 0.09069 0.58889 0.12581 0.0
Gd2437 Gd 0.15414 0.61403 0.10789 0.0
C2438 C 0.22606 0.69104 0.11171 0.0
C2439 C 0.20457 0.73157 0.0974 0.0
C2440 C 0.17798 0.68219 0.09974 0.0
C2441 C 0.20016 0.67225 0.10893 0.0
C2442 C 0.18024 0.71183 0.09372 0.0
C2443 C 0.22758 0.7211 0.10629 0.0
C2444 C 0.25054 0.67846 0.11919 0.0
C2445 C 0.2494 0.64747 0.12316 0.0
N2446 N 0.19809 0.64304 0.11402 0.0
C2447 C 0.22302 0.62994 0.12038 0.0
H2448 H 0.22307 0.60582 0.12318 0.0
C2449 C 0.13486 0.67006 0.08593 0.0
N2450 N 0.15503 0.66229 0.09618 0.0
C2451 C 0.13602 0.69931 0.07984 0.0
C2452 C 0.15857 0.72042 0.08386 0.0
H2453 H 0.11647 0.65462 0.08301 0.0
H2454 H 0.24699 0.73605 0.10855 0.0
H2455 H 1.02546 0.63034 0.11972 0.0
H2456 H 0.27091 0.69205 0.12144 0.0
H2457 H 0.26878 0.63707 0.12844 0.0
H2458 H 0.20647 0.75452 0.093 0.0
H2459 H 0.13614 0.52885 0.11586 0.0
H2460 H 0.96837 0.57719 0.09317 0.0
H2461 H 0.97755 0.62462 0.10662 0.0
H2462 H 1.02828 0.48614 0.08445 0.0
H2463 H 0.11937 0.70562 0.0721 0.0
H2464 H 0.15947 0.74301 0.07906 0.0
H2465 H 0.98712 0.52536 0.08525 0.0
H2466 H 0.13087 0.48112 0.10256 0.0
N2467 N 1.04493 0.58763 0.11291 0.0
C2468 C 0.98985 0.57979 0.09871 0.0
C2469 C 0.99505 0.6067 0.1062 0.0
C2470 C 1.01234 0.55649 0.09848 0.0
C2471 C 1.04001 0.56104 0.10582 0.0
C2472 C 1.02269 0.61016 0.11338 0.0
N2473 N 0.09037 0.54456 0.11192 0.0
C2474 C 0.0632 0.5387 0.10546 0.0
C2475 C 0.11161 0.49704 0.10334 0.0
C2476 C 0.08386 0.49055 0.09674 0.0
C2477 C 0.11448 0.52424 0.11095 0.0
C2478 C 0.05932 0.51157 0.09763 0.0
H2479 H 0.08183 0.46957 0.09076 0.0
O2480 O 0.08867 0.55587 0.14255 0.0
O2481 O 0.13573 0.60901 0.1281 0.0
O2482 O 0.17528 0.58168 0.12706 0.0
O2483 O 0.13245 0.55852 0.13652 0.0
O2484 O 0.10087 0.63022 0.13932 0.0
O2485 O 0.04834 0.58256 0.13707 0.0
O2486 O 0.17019 0.56826 0.10193 0.0
O2487 O 0.10715 0.59185 0.10403 0.0
O2488 O 0.07806 0.6442 0.12173 0.0
O2489 O 0.12369 0.66155 0.11193 0.0
O2490 O 0.13098 0.60224 0.08731 0.0
O2491 O 0.19415 0.6091 0.09477 0.0
C2492 C 0.13015 0.62963 0.13681 0.0
C2493 C 1.03159 0.5068 0.09053 0.0
C2494 C 1.00818 0.52917 0.09096 0.0
C2495 C 0.06091 0.56406 0.14598 0.0
C2496 C 0.05665 0.57319 0.16018 0.0
C2497 C 0.05151 0.55128 0.17045 0.0
C2498 C 0.05414 0.60464 0.16315 0.0
C2499 C 1.04096 0.61451 0.17532 0.0
C2500 C 1.04219 0.56119 0.18337 0.0
C2501 C 1.03602 0.59263 0.18572 0.0
C2502 C 0.16401 0.56018 0.13624 0.0
C2503 C 0.1055 0.58932 0.09074 0.0
C2504 C 0.19151 0.5791 0.09391 0.0
C2505 C 0.19306 0.56545 0.0802 0.0
C2506 C 0.18043 0.58071 0.06884 0.0
C2507 C 0.20855 0.53717 0.07838 0.0
C2508 C 0.21223 0.52447 0.06528 0.0
C2509 C 0.18183 0.56709 0.05602 0.0
C2510 C 0.19768 0.53927 0.0542 0.0
C2511 C 0.09462 0.66865 0.11647 0.0
H2512 H 0.05378 0.52674 0.16836 0.0
H2513 H 0.05875 0.62149 0.15529 0.0
H2514 H 1.0378 0.54432 0.19129 0.0
H2515 H 1.02566 0.59936 0.19529 0.0
H2516 H 0.16993 0.60335 0.06975 0.0
H2517 H 0.21901 0.5259 0.08711 0.0
H2518 H 0.17179 0.57885 0.04734 0.0
H2519 H 0.20029 0.53064 1.04393 0.0
Gd2520 Gd 0.24241 0.34588 0.87409 0.0
Gd2521 Gd 0.22052 0.40698 0.85426 0.0
C2522 C 0.16091 0.49326 0.86235 0.0
C2523 C 0.11176 0.47896 0.8524 0.0
C2524 C 0.15587 0.44395 0.85091 0.0
C2525 C 0.17329 0.46416 0.85856 0.0
C2526 C 0.12525 0.45181 0.84726 0.0
C2527 C 0.12969 0.49984 0.85984 0.0
C2528 C 0.18071 0.51564 0.86772 0.0
C2529 C 0.2123 0.50958 0.86825 0.0
N2530 N 0.20359 0.45739 0.86051 0.0
C2531 C 0.22345 0.48063 0.86416 0.0
H2532 H 0.24813 0.47757 0.8636 0.0
C2533 C 0.15641 0.40336 0.83489 0.0
N2534 N 0.17023 0.41882 0.8455 0.0
C2535 C 0.12589 0.4098 0.83119 0.0
C2536 C 0.10989 0.43353 0.8377 0.0
H2537 H 0.16793 0.38478 0.82965 0.0
H2538 H 0.11963 0.52168 0.86301 0.0
H2539 H 0.19823 0.28085 0.8723 0.0
H2540 H 0.17213 0.53821 0.87073 0.0
H2541 H 0.22816 0.52742 0.87153 0.0
H2542 H 0.08811 0.48502 0.84993 0.0
H2543 H 0.30779 0.38174 0.86504 0.0
H2544 H 0.2424 0.21766 0.84519 0.0
H2545 H 0.1987 0.2312 0.86021 0.0
H2546 H 0.33734 0.26818 0.8341 0.0
H2547 H 0.11476 0.39645 0.82327 0.0
H2548 H 0.08639 0.43875 0.83466 0.0
H2549 H 0.29421 0.23144 0.8357 0.0
H2550 H 0.35528 0.36979 0.85216 0.0
N2551 N 0.23943 0.29763 0.86293 0.0
C2552 C 0.24193 0.24005 0.85017 0.0
C2553 C 0.21713 0.24769 0.85856 0.0
C2554 C 0.26638 0.26089 0.8487 0.0
C2555 C 0.26463 0.28979 0.85538 0.0
C2556 C 0.21657 0.27639 0.86514 0.0
N2557 N 0.28627 0.3388 0.86043 0.0
C2558 C 0.28904 0.31058 0.8544 0.0
C2559 C 0.33679 0.353 0.85267 0.0
C2560 C 0.33971 0.32448 0.84608 0.0
C2561 C 0.30985 0.35975 0.85991 0.0
C2562 C 0.31566 0.30291 0.84684 0.0
H2563 H 0.3605 0.31944 0.84037 0.0
O2564 O 0.28236 0.33967 0.88683 0.0
O2565 O 0.22408 0.39188 0.8748 0.0
O2566 O 0.25527 0.42895 0.87252 0.0
O2567 O 0.27106 0.38757 0.88545 0.0
O2568 O 0.20167 0.36018 0.88731 0.0
O2569 O 0.24246 0.31029 0.88986 0.0
O2570 O 0.26634 0.41612 0.84629 0.0
O2571 O 0.24836 0.36228 0.85187 0.0
O2572 O 0.18765 0.33382 0.87003 0.0
O2573 O 0.17247 0.3771 0.8578 0.0
O2574 O 0.21614 0.36995 0.83747 0.0
O2575 O 0.22652 0.43788 0.83703 0.0
C2576 C 0.20289 0.38872 0.88336 0.0
C2577 C 0.31723 0.27432 0.84008 0.0
C2578 C 0.29261 0.25345 0.84095 0.0
C2579 C 0.26977 0.31831 0.89423 0.0
C2580 C 0.27474 0.32058 0.90898 0.0
C2581 C 0.28898 0.34626 0.91515 0.0
C2582 C 0.26717 0.29502 0.91688 0.0
C2583 C 0.27352 0.29445 0.93085 0.0
C2584 C 0.29483 0.34618 0.92916 0.0
C2585 C 0.287 0.32037 0.93705 0.0
C2586 C 0.27328 0.41869 0.88327 0.0
C2587 C 0.23832 0.35115 0.84031 0.0
C2588 C 0.25613 0.43304 0.83633 0.0
C2589 C 0.26934 0.42671 0.82287 0.0
C2590 C 0.25326 0.40993 0.81295 0.0
C2591 C 0.29814 0.43946 0.81976 0.0
C2592 C 0.30982 0.43867 0.80638 0.0
C2593 C 0.26588 0.40639 0.79999 0.0
C2594 C 0.29358 0.42107 0.79661 0.0
C2595 C 0.16425 0.34946 0.86362 0.0
H2596 H 0.2959 0.36612 0.90919 0.0
H2597 H 0.25597 0.27541 0.91206 0.0
H2598 H 0.3056 0.36607 0.93388 0.0
H2599 H 0.29158 0.32056 0.94788 0.0
H2600 H 0.23096 0.39984 0.81514 0.0
H2601 H 0.31052 0.45137 0.82775 0.0
H2602 H 0.25345 0.39338 0.79234 0.0
H2603 H 0.3011 0.41982 0.78614 0.0
Gd2604 Gd 0.50956 0.50572 0.62771 0.0
Gd2605 Gd 0.44839 0.48192 0.60843 0.0
C2606 C 0.3617 0.42285 0.61574 0.0
C2607 C 0.37583 0.37359 0.60571 0.0
C2608 C 0.41138 0.41731 0.60476 0.0
C2609 C 0.391 0.43495 0.61225 0.0
C2610 C 0.40338 0.38675 0.60094 0.0
C2611 C 0.35485 0.39173 0.613 0.0
C2612 C 0.33943 0.44284 0.62112 0.0
C2613 C 0.34578 0.4744 0.62191 0.0
N2614 N 0.39796 0.46518 0.61444 0.0
C2615 C 0.37485 0.48531 0.61805 0.0
H2616 H 0.37815 0.51006 0.61764 0.0
C2617 C 0.45284 0.41726 0.58924 0.0
N2618 N 0.43694 0.43138 0.59967 0.0
C2619 C 0.44626 0.38681 0.58542 0.0
C2620 C 0.42198 0.37113 0.59159 0.0
H2621 H 0.47188 0.42843 0.58424 0.0
H2622 H 0.33284 0.38189 0.61593 0.0
H2623 H 0.57477 0.46197 0.62763 0.0
H2624 H 0.31674 0.43445 0.62392 0.0
H2625 H 0.32806 0.49046 0.62519 0.0
H2626 H 0.36966 0.35001 0.60309 0.0
H2627 H 0.47455 0.57103 0.61762 0.0
H2628 H 0.63893 0.50359 0.60022 0.0
H2629 H 0.62498 0.46134 0.61604 0.0
H2630 H 0.58859 0.59764 0.58682 0.0
H2631 H 0.45993 0.37547 0.57766 0.0
H2632 H 0.41666 0.34768 0.58845 0.0
H2633 H 0.62531 0.55453 0.58952 0.0
H2634 H 0.48687 0.61762 0.60407 0.0
N2635 N 0.55847 0.50233 0.61729 0.0
C2636 C 0.61639 0.50358 0.605 0.0
C2637 C 0.60854 0.47961 0.61386 0.0
C2638 C 0.59554 0.52787 0.60281 0.0
C2639 C 0.56644 0.52673 0.60925 0.0
C2640 C 0.57962 0.47969 0.62018 0.0
N2641 N 0.51746 0.54887 0.61358 0.0
C2642 C 0.54569 0.55105 0.60765 0.0
C2643 C 0.50357 0.59903 0.60496 0.0
C2644 C 0.53212 0.60126 0.59844 0.0
C2645 C 0.49663 0.57261 0.6126 0.0
C2646 C 0.55357 0.57709 0.59969 0.0
H2647 H 0.53732 0.62163 0.59242 0.0
O2648 O 0.51332 0.54608 0.64058 0.0
O2649 O 0.46417 0.4862 0.62886 0.0
O2650 O 0.42624 0.51485 0.62727 0.0
O2651 O 0.46794 0.53614 0.63811 0.0
O2652 O 0.4968 0.46472 0.64117 0.0
O2653 O 0.54398 0.50724 0.6438 0.0
O2654 O 0.44002 0.52792 0.60012 0.0
O2655 O 0.49248 0.51039 0.60564 0.0
O2656 O 0.52223 0.45074 0.62369 0.0
O2657 O 0.47875 0.43427 0.61203 0.0
O2658 O 0.48528 0.47717 0.59163 0.0
O2659 O 0.4163 0.48833 0.59171 0.0
C2660 C 0.46812 0.46532 0.63759 0.0
C2661 C 0.58229 0.578 0.5931 0.0
C2662 C 0.60315 0.5534 0.5946 0.0
C2663 C 0.53289 0.53303 0.64877 0.0
C2664 C 0.52372 0.53327 0.66322 0.0
C2665 C 0.5061 0.55773 0.66868 0.0
C2666 C 0.53178 0.50848 0.67159 0.0
C2667 C 0.52282 0.50775 0.68526 0.0
C2668 C 0.49682 0.55702 0.68231 0.0
C2669 C 0.50543 0.53222 0.69068 0.0
C2670 C 0.43661 0.53555 0.63698 0.0
C2671 C 0.50375 0.49973 0.59424 0.0
C2672 C 0.42152 0.51789 0.59071 0.0
C2673 C 0.42587 0.53047 0.57698 0.0
C2674 C 0.44454 0.51564 0.56733 0.0
C2675 C 0.40881 0.55668 0.57323 0.0
C2676 C 0.40782 0.56674 0.5596 0.0
C2677 C 0.44603 0.52706 0.55407 0.0
C2678 C 0.42746 0.55204 0.55013 0.0
C2679 C 0.50677 0.42677 0.61759 0.0
H2680 H 0.49955 0.57734 0.66242 0.0
H2681 H 0.54622 0.49005 0.66759 0.0
H2682 H 0.48339 0.57597 0.68645 0.0
H2683 H 0.49914 0.5324 0.70134 0.0
H2684 H 0.45759 0.49511 0.56995 0.0
H2685 H 0.39502 0.5681 0.58093 0.0
H2686 H 0.46055 0.51561 0.54664 0.0
H2687 H 0.42743 0.55848 0.53949 0.0
H2688 H 0.23825 0.29991 0.45512 0.0
H2689 H 0.29359 0.36103 0.43048 0.0
H2690 H 0.2027 0.34211 0.4598 0.0
H2691 H 0.25656 0.40194 0.43349 0.0
H2692 H 0.18723 0.47571 0.44489 0.0
H2693 H 0.22818 0.43845 0.442 0.0
H2694 H 0.16281 0.36401 0.44873 0.0
H2695 H 0.12211 0.40211 0.45167 0.0
C2696 C 0.24327 0.32269 0.45105 0.0
C2697 C 0.26793 0.32714 0.44208 0.0
C2698 C 0.22226 0.34665 0.45326 0.0
C2699 C 0.22529 0.37501 0.44625 0.0
C2700 C 0.25264 0.38055 0.43893 0.0
C2701 C 0.27422 0.35704 0.43723 0.0
C2702 C 0.18187 0.45133 0.44584 0.0
C2703 C 0.15238 0.44162 0.44959 0.0
C2704 C 0.20532 0.42969 0.44406 0.0
C2705 C 0.19961 0.39793 0.44615 0.0
C2706 C 0.16886 0.38829 0.44815 0.0
C2707 C 0.14536 0.41004 0.44972 0.0
H2708 H 0.97123 1.0487 0.67439 0.0
H2709 H 1.04322 1.00445 0.69773 0.0
H2710 H 0.93529 1.00955 0.6812 0.0
H2711 H 1.00632 0.96654 0.70609 0.0
H2712 H 0.94905 0.88022 0.70452 0.0
H2713 H 0.9837 0.92268 0.69891 0.0
H2714 H 0.90429 0.98316 0.69384 0.0
H2715 H 0.87083 0.94036 0.69816 0.0
C2716 C 0.97875 1.03137 0.68167 0.0
C2717 C 1.00991 1.02895 0.6853 0.0
C2718 C 0.95811 1.00862 0.68563 0.0
C2719 C 0.96791 0.98381 0.69389 0.0
C2720 C 0.99822 0.98423 0.69914 0.0
C2721 C 1.01921 1.00655 0.69476 0.0
C2722 C 0.93938 0.9027 0.70209 0.0
C2723 C 0.90751 0.90771 0.70246 0.0
C2724 C 0.95914 0.92725 0.69908 0.0
C2725 C 0.94714 0.95708 0.6964 0.0
C2726 C 0.91492 0.96097 0.69586 0.0
C2727 C 0.89542 0.93644 0.69867 0.0
H2728 H 0.39304 0.82606 0.9348 0.0
H2729 H 0.3169 0.7794 0.95409 0.0
H2730 H 0.4264 0.78259 0.93968 0.0
H2731 H 0.35023 0.73625 0.95955 0.0
H2732 H 0.39756 0.64699 0.94813 0.0
H2733 H 0.36836 0.69553 0.94705 0.0
H2734 H 0.45396 0.74669 0.95034 0.0
H2735 H 0.48219 0.69848 0.94951 0.0
C2736 C 0.38409 0.80726 0.94095 0.0
C2737 C 0.35243 0.80557 0.94383 0.0
C2738 C 0.40312 0.78193 0.94364 0.0
C2739 C 0.39085 0.755 0.94964 0.0
C2740 C 0.36037 0.75595 0.95457 0.0
C2741 C 0.34129 0.78113 0.95175 0.0
C2742 C 0.40964 0.66882 0.94892 0.0
C2743 C 0.44161 0.66927 0.95048 0.0
C2744 C 0.39313 0.69666 0.94837 0.0
C2745 C 0.4085 0.72536 0.94955 0.0
C2746 C 0.44093 0.72539 0.94977 0.0
C2747 C 0.45723 0.69762 0.94959 0.0
H2748 H 0.64788 0.21696 0.20493 0.0
H2749 H 0.72586 0.15699 0.1978 0.0
H2750 H 0.61302 0.17495 0.19888 0.0
H2751 H 0.69205 0.11461 0.19283 0.0
H2752 H 0.62387 0.05338 0.17113 0.0
H2753 H 0.66043 0.09124 0.17889 0.0
H2754 H 0.59104 0.12979 0.20585 0.0
H2755 H 0.55354 0.09326 0.19679 0.0
C2756 C 0.65746 0.19461 0.20225 0.0
C2757 C 0.68933 0.1895 0.20252 0.0
C2758 C 0.63759 0.17035 0.19897 0.0
C2759 C 0.64948 0.14076 0.19582 0.0
C2760 C 0.68165 0.13673 0.19523 0.0
C2761 C 0.70129 0.16096 0.19839 0.0
C2762 C 0.61684 0.06941 0.17904 0.0
C2763 C 0.58595 0.07107 0.18316 0.0
C2764 C 0.63782 0.09131 0.18355 0.0
C2765 C 0.62859 0.11452 0.19274 0.0
C2766 C 0.59863 0.11324 0.19829 0.0
C2767 C 0.57733 0.09175 0.19344 0.0
H2768 H 0.23516 0.79629 0.13726 0.0
H2769 H 0.29006 0.73589 0.1626 0.0
H2770 H 0.20046 0.75364 0.13225 0.0
H2771 H 0.25379 0.69457 0.15922 0.0
H2772 H 0.18772 0.61947 0.14632 0.0
H2773 H 0.2275 0.65758 0.14974 0.0
H2774 H 0.16039 0.73068 0.14299 0.0
H2775 H 0.12082 0.69174 0.13955 0.0
C2776 C 0.24023 0.77362 0.14146 0.0
C2777 C 0.26461 0.76945 0.15063 0.0
C2778 C 0.21974 0.74939 0.13901 0.0
C2779 C 0.22297 0.72101 0.146 0.0
C2780 C 0.24986 0.71592 0.15373 0.0
C2781 C 0.27091 0.7397 0.15569 0.0
C2782 C 0.18173 0.64373 0.14539 0.0
C2783 C 0.15214 0.65285 0.14144 0.0
C2784 C 0.20449 0.66584 0.14752 0.0
C2785 C 0.19796 0.69751 0.14563 0.0
C2786 C 0.16706 0.70652 0.14343 0.0
C2787 C 0.14424 0.68427 0.14152 0.0
H2788 H 0.64689 0.87311 0.38776 0.0
H2789 H 0.71902 0.94072 0.39273 0.0
H2790 H 0.60821 0.91296 0.39165 0.0
H2791 H 0.68115 0.98082 0.3962 0.0
H2792 H 0.60478 1.04025 0.41382 0.0
H2793 H 0.64587 1.00515 0.40803 0.0
H2794 H 0.58317 0.95393 0.38206 0.0
H2795 H 0.5411 0.98748 0.38933 0.0
C2796 C 0.65436 0.8967 0.38944 0.0
C2797 C 0.68566 0.90452 0.389 0.0
C2798 C 0.63226 0.91969 0.39155 0.0
C2799 C 0.64124 0.95074 0.3935 0.0
C2800 C 0.67293 0.95756 0.39441 0.0
C2801 C 0.69486 0.93462 0.39221 0.0
C2802 C 0.60005 1.02187 0.4066 0.0
C2803 C 0.56972 1.01576 0.40241 0.0
C2804 C 0.62371 1.00157 0.40323 0.0
C2805 C 0.6177 0.97555 0.39504 0.0
C2806 C 0.58827 0.97259 0.38905 0.0
C2807 C 0.5643 0.99238 0.39285 0.0
H2808 H 0.4091 0.47647 0.64479 0.0
H2809 H 0.47586 0.40307 0.64041 0.0
H2810 H 0.36841 0.43926 0.64722 0.0
H2811 H 0.43539 0.36486 0.6435 0.0
H2812 H 0.35999 0.29923 0.6384 0.0
H2813 H 0.39615 0.34046 0.63311 0.0
H2814 H 0.34073 0.4041 0.65704 0.0
H2815 H 0.30334 0.36398 0.66064 0.0
C2816 C 0.41491 0.45214 0.64422 0.0
C2817 C 0.445 0.44246 0.64142 0.0
C2818 C 0.39156 0.4305 0.64586 0.0
C2819 C 0.39795 0.3986 0.64481 0.0
C2820 C 0.42897 0.38909 0.64343 0.0
C2821 C 0.45234 0.41092 0.64182 0.0
C2822 C 0.35491 0.32253 0.64184 0.0
C2823 C 0.32945 0.32844 0.65021 0.0
C2824 C 0.37619 0.346 0.63927 0.0
C2825 C 0.37262 0.37543 0.6453 0.0
C2826 C 0.34495 0.38199 0.65224 0.0
C2827 C 0.32323 0.3589 0.65433 0.0
H2828 H 0.98557 0.13272 0.93513 0.0
H2829 H 0.05289 0.17938 0.91006 0.0
H2830 H 0.94887 0.17358 0.93106 0.0
H2831 H 1.01595 0.22158 0.90621 0.0
H2832 H 0.92881 0.21613 0.87859 0.0
H2833 H 0.9749 0.21012 0.89108 0.0
H2834 H 0.92436 0.22321 0.92859 0.0
H2835 H 0.8767 0.23002 0.91544 0.0
C2836 C 0.99288 0.15245 0.92913 0.0
C2837 C 1.02161 0.15256 0.92251 0.0
C2838 C 0.97193 0.17626 0.92698 0.0
C2839 C 0.97921 0.20049 0.91804 0.0
C2840 C 1.00953 0.20272 0.91291 0.0
C2841 C 1.03046 0.1785 0.91492 0.0
C2842 C 0.92715 0.21907 0.88935 0.0
C2843 C 0.89872 0.22303 0.89587 0.0
C2844 C 0.95414 0.21591 0.89668 0.0
C2845 C 0.95349 0.21599 0.91091 0.0
C2846 C 0.9255 0.22269 0.91759 0.0
C2847 C 0.89822 0.22611 0.91009 0.0
H2848 H 0.84956 0.80198 0.63854 0.0
H2849 H 0.79753 0.73934 0.66384 0.0
H2850 H 0.88386 0.7599 0.63215 0.0
H2851 H 0.83358 0.69845 0.65912 0.0
H2852 H 0.90096 0.62537 0.64537 0.0
H2853 H 0.86044 0.66248 0.64936 0.0
H2854 H 0.92511 0.73715 0.64179 0.0
H2855 H 0.96528 0.69917 0.63755 0.0
C2856 C 0.84495 0.77892 0.6424 0.0
C2857 C 0.82174 0.77393 0.65204 0.0
C2858 C 0.86529 0.75499 0.63918 0.0
C2859 C 0.86308 0.72613 0.64586 0.0
C2860 C 0.83686 0.72021 0.65388 0.0
C2861 C 0.81586 0.74373 0.65659 0.0
C2862 C 0.90623 0.64977 0.64442 0.0
C2863 C 0.93526 0.65961 0.64009 0.0
C2864 C 0.88306 0.67133 0.64689 0.0
C2865 C 0.88861 0.70316 0.64497 0.0
C2866 C 0.91907 0.71287 0.64229 0.0
C2867 C 0.94229 0.69118 0.63998 0.0
H2868 H 0.10307 1.04819 0.40736 0.0
H2869 H 1.0398 0.11054 0.38736 0.0
H2870 H 0.14427 0.08438 0.40436 0.0
H2871 H 0.08202 0.14577 0.3825 0.0
H2872 H 0.14661 0.22275 0.39121 0.0
H2873 H 0.10747 0.18292 0.39339 0.0
H2874 H 0.17994 0.11369 0.39673 0.0
H2875 H 0.21788 0.15369 0.39528 0.0
C2876 C 0.09858 0.06902 0.40151 0.0
C2877 C 0.06828 0.07731 0.39808 0.0
C2878 C 0.12229 0.09024 0.39985 0.0
C2879 C 0.11642 0.11939 0.3939 0.0
C2880 C 0.08708 0.12475 0.38808 0.0
C2881 C 0.06302 0.10398 0.39032 0.0
C2882 C 0.1538 0.19887 0.39236 0.0
C2883 C 0.18503 0.19071 0.39199 0.0
C2884 C 0.13143 0.17583 0.39341 0.0
C2885 C 0.1401 0.14434 0.39425 0.0
C2886 C 0.17168 0.13714 0.39561 0.0
C2887 C 0.19383 0.16016 0.39455 0.0
H2888 H 0.62376 0.40499 0.13688 0.0
H2889 H 0.68792 0.47902 0.14457 0.0
H2890 H 0.66379 0.36707 0.14168 0.0
H2891 H 0.72827 0.44174 0.1493 0.0
H2892 H 0.7876 0.36482 0.16695 0.0
H2893 H 0.75174 0.40555 0.16131 0.0
H2894 H 0.70668 0.34458 0.13248 0.0
H2895 H 0.74071 0.30264 0.13952 0.0
C2896 C 0.64668 0.41304 0.1394 0.0
C2897 C 0.65367 0.44465 0.13941 0.0
C2898 C 0.66976 0.39139 0.14207 0.0
C2899 C 0.70001 0.40114 0.1451 0.0
C2900 C 0.70567 0.43303 0.14666 0.0
C2901 C 0.68265 0.45458 0.1438 0.0
C2902 C 0.77033 0.36039 0.15921 0.0
C2903 C 0.76605 0.33039 0.15406 0.0
C2904 C 0.74966 0.38385 0.1559 0.0
C2905 C 0.72518 0.3781 0.14687 0.0
C2906 C 0.72412 0.34935 0.14008 0.0
C2907 C 0.7442 0.3255 0.14378 0.0
H2908 H 0.34731 0.88977 0.91113 0.0
H2909 H 0.44096 0.90434 0.89769 0.0
H2910 H 0.35342 0.93015 0.92845 0.0
H2911 H 0.44777 0.94339 0.91567 0.0
H2912 H 0.44732 0.98168 0.9603 0.0
H2913 H 0.42367 0.93792 0.94857 0.0
H2914 H 0.38706 1.00019 0.91825 0.0
H2915 H 0.41191 1.04401 0.92971 0.0
C2916 C 0.3691 0.90186 0.91186 0.0
C2917 C 0.39315 0.89569 0.90265 0.0
C2918 C 0.37265 0.92445 0.92186 0.0
C2919 C 0.40075 0.94001 0.92305 0.0
C2920 C 0.42575 0.9317 0.91469 0.0
C2921 C 0.42198 0.90951 0.90451 0.0
C2922 C 0.43274 0.98621 0.95158 0.0
C2923 C 0.43162 1.01596 0.94578 0.0
C2924 C 0.41944 0.9612 0.94485 0.0
C2925 C 0.40428 0.96599 0.93247 0.0
C2926 C 0.39904 0.99626 0.92777 0.0
C2927 C 0.41282 1.02129 0.9344 0.0
H2928 H 0.9055 0.32519 0.90711 0.0
H2929 H 0.88748 0.28347 0.94636 0.0
H2930 H 0.951 0.34823 0.91562 0.0
H2931 H 0.93491 0.30661 0.95503 0.0
H2932 H 0.9449 0.40723 0.96868 0.0
H2933 H 0.93144 0.35743 0.96103 0.0
H2934 H 0.99154 0.36957 0.92626 0.0
H2935 H 1.00135 0.42246 0.93341 0.0
C2936 C 0.91192 0.3195 0.91746 0.0
C2937 C 0.89157 0.3041 0.92634 0.0
C2938 C 0.93868 0.3329 0.92241 0.0
C2939 C 0.94524 0.33159 0.93638 0.0
C2940 C 0.92904 0.30999 0.94442 0.0
C2941 C 0.90182 0.29679 0.9395 0.0
C2942 C 0.95387 0.40061 0.95911 0.0
C2943 C 0.97181 0.42056 0.95122 0.0
C2944 C 0.94748 0.37066 0.95493 0.0
C2945 C 0.95986 0.35907 0.94276 0.0
C2946 C 0.98058 0.37784 0.93546 0.0
C2947 C 0.98601 0.40834 0.93952 0.0
H2948 H 0.54722 0.11441 0.70453 0.0
H2949 H 0.48595 0.05567 0.68156 0.0
H2950 H 0.50428 0.14867 0.70988 0.0
H2951 H 0.44398 0.09115 0.68539 0.0
H2952 H 0.36877 0.15694 0.69797 0.0
H2953 H 0.40753 0.11729 0.69556 0.0
H2954 H 0.47896 0.18714 0.69879 0.0
H2955 H 0.43938 0.22657 0.70156 0.0
C2956 C 0.52432 0.10838 0.70098 0.0
C2957 C 0.51985 0.08299 0.69236 0.0
C2958 C 0.49987 0.12856 0.70361 0.0
C2959 C 0.47087 0.1239 0.6974 0.0
C2960 C 0.46576 0.09612 0.69029 0.0
C2961 C 0.48989 0.07551 0.68809 0.0
C2962 C 0.39279 0.1636 0.6984 0.0
C2963 C 0.40131 0.19422 0.70097 0.0
C2964 C 0.41526 0.14089 0.69682 0.0
C2965 C 0.44678 0.14845 0.6978 0.0
C2966 C 0.45506 0.17991 0.69893 0.0
C2967 C 0.43243 0.20265 0.70038 0.0
H2968 H 0.68957 0.75276 0.40423 0.0
H2969 H 0.65436 0.81175 0.43624 0.0
H2970 H 0.64925 0.71638 0.40825 0.0
H2971 H 0.61267 0.77473 0.44012 0.0
H2972 H 0.63792 0.68494 0.46373 0.0
H2973 H 0.63549 0.73277 0.45219 0.0
H2974 H 0.60719 0.6856 0.41541 0.0
H2975 H 0.61021 0.63606 0.42752 0.0
C2976 C 0.67225 0.75889 0.4117 0.0
C2977 C 0.67612 0.78436 0.42047 0.0
C2978 C 0.6486 0.73789 0.4139 0.0
C2979 C 0.62912 0.74166 0.42515 0.0
C2980 C 0.62859 0.77058 0.43181 0.0
C2981 C 0.65265 0.79153 0.42977 0.0
C2982 C 0.6309 0.68425 0.45332 0.0
C2983 C 0.62516 0.65629 0.44662 0.0
C2984 C 0.62867 0.71226 0.44662 0.0
C2985 C 0.62081 0.71338 0.4328 0.0
C2986 C 0.61333 0.68556 0.42609 0.0
C2987 C 0.61562 0.6572 0.43295 0.0
H2988 H 0.14869 0.87909 0.20068 0.0
H2989 H 0.22137 0.94623 0.19609 0.0
H2990 H 0.11034 0.91975 0.1979 0.0
H2991 H 0.18404 0.98708 0.19396 0.0
H2992 H 0.10754 0.0523 0.18143 0.0
H2993 H 0.14836 1.01536 0.18479 0.0
H2994 H 0.0867 0.95862 0.20903 0.0
H2995 H 1.04486 0.99445 0.20408 0.0
C2996 C 0.15636 0.90272 0.19926 0.0
C2997 C 0.18773 0.91018 0.19963 0.0
C2998 C 0.13447 0.92619 0.19785 0.0
C2999 C 0.14379 0.95736 0.19662 0.0
C3000 C 0.17548 0.96381 0.19532 0.0
C3001 C 0.19718 0.94037 0.19677 0.0
C3002 C 0.10316 1.03239 0.18787 0.0
C3003 C 0.07305 1.02548 0.19208 0.0
C3004 C 0.12659 1.01083 0.18976 0.0
C3005 C 0.12062 0.98278 0.19657 0.0
C3006 C 0.09168 0.97884 0.2029 0.0
C3007 C 0.06791 0.99996 0.20056 0.0
H3008 H 0.6161 0.90457 0.95055 0.0
H3009 H 0.67951 0.98008 0.94461 0.0
H3010 H 0.65721 0.86762 0.94598 0.0
H3011 H 0.72092 0.94401 0.94048 0.0
H3012 H 0.78787 0.87108 0.92638 0.0
H3013 H 0.74807 0.9093 0.9297 0.0
H3014 H 0.69865 0.84503 0.95569 0.0
H3015 H 0.7374 0.80573 0.95098 0.0
C3016 C 0.63905 0.91314 0.94842 0.0
C3017 C 0.64546 0.94486 0.94883 0.0
C3018 C 0.66277 0.89205 0.94592 0.0
C3019 C 0.69314 0.90251 0.94362 0.0
C3020 C 0.6983 0.93461 0.94253 0.0
C3021 C 0.67462 0.95554 0.9451 0.0
C3022 C 0.7688 0.86553 0.93309 0.0
C3023 C 0.76525 0.83541 0.9382 0.0
C3024 C 0.74573 0.88748 0.935 0.0
C3025 C 0.71922 0.88018 0.94261 0.0
C3026 C 0.7178 0.85111 0.94915 0.0
C3027 C 0.74056 0.82883 0.9469 0.0
H3028 H 0.37035 0.43222 0.19824 0.0
H3029 H 0.44449 0.3673 0.20489 0.0
H3030 H 0.40677 0.47209 0.19269 0.0
H3031 H 0.48191 0.40687 0.19879 0.0
H3032 H 0.5457 0.48679 0.19995 0.0
H3033 H 0.50652 0.44933 0.20657 0.0
H3034 H 0.44055 0.49637 0.18045 0.0
H3035 H 0.47852 0.53509 0.17537 0.0
C3036 C 0.3947 0.42668 0.19859 0.0
C3037 C 0.4049 0.39763 0.20292 0.0
C3038 C 0.41585 0.44945 0.19517 0.0
C3039 C 0.44778 0.44349 0.19591 0.0
C3040 C 0.4577 0.41311 0.19892 0.0
C3041 C 0.43633 0.39027 0.20231 0.0
C3042 C 0.5223 0.48971 0.19624 0.0
C3043 C 0.51502 0.51341 0.18706 0.0
C3044 C 0.50005 0.46769 0.19963 0.0
C3045 C 0.47041 0.46882 0.19367 0.0
C3046 C 0.46273 0.49434 0.18541 0.0
C3047 C 0.48459 0.51675 0.18244 0.0
H3048 H 0.9049 0.12508 0.44768 0.0
H3049 H 0.97309 0.19707 0.45124 0.0
H3050 H 0.86465 0.16303 0.44595 0.0
H3051 H 0.93302 0.2361 0.44882 0.0
H3052 H 0.86013 0.30364 0.45453 0.0
H3053 H 0.8954 0.26142 0.45971 0.0
H3054 H 0.83596 0.19867 0.43732 0.0
H3055 H 0.79961 0.23989 0.43391 0.0
C3056 C 0.91112 0.14928 0.44823 0.0
C3057 C 0.94153 0.15833 0.45066 0.0
C3058 C 0.888 0.17137 0.447 0.0
C3059 C 0.89492 0.20313 0.44809 0.0
C3060 C 0.92621 0.212 0.44894 0.0
C3061 C 0.94935 0.1897 0.45014 0.0
C3062 C 0.85398 0.28034 0.45148 0.0
C3063 C 0.8278 0.27494 0.44348 0.0
C3064 C 0.87476 0.25627 0.45394 0.0
C3065 C 0.86991 0.2268 0.44813 0.0
C3066 C 0.84131 0.22079 0.44186 0.0
C3067 C 0.82007 0.24451 0.43993 0.0
H3068 H 0.11281 0.56501 0.67344 0.0
H3069 H 0.05088 0.60941 0.70179 0.0
H3070 H 0.15266 0.6017 0.67899 0.0
H3071 H 0.09212 0.64427 0.7087 0.0
H3072 H 0.15208 0.72792 0.70527 0.0
H3073 H 0.11428 0.68824 0.69992 0.0
H3074 H 0.18875 0.62382 0.69153 0.0
H3075 H 0.22584 0.66375 0.69678 0.0
C3076 C 0.10823 0.58199 0.6813 0.0
C3077 C 0.07853 0.58516 0.68684 0.0
C3078 C 0.13121 0.60308 0.68457 0.0
C3079 C 0.12538 0.62696 0.69394 0.0
C3080 C 0.09693 0.62725 0.7009 0.0
C3081 C 0.07352 0.60671 0.69726 0.0
C3082 C 0.16012 0.70508 0.70249 0.0
C3083 C 0.19163 0.6979 0.70245 0.0
C3084 C 0.13853 0.68221 0.69947 0.0
C3085 C 0.14826 0.65206 0.69603 0.0
C3086 C 0.18005 0.64635 0.69444 0.0
C3087 C 0.20151 0.66912 0.69765 0.0
H3088 H 0.62945 0.19963 0.63889 0.0
H3089 H 0.69078 0.12365 0.64782 0.0
H3090 H 0.67135 0.236 0.64219 0.0
H3091 H 0.73304 0.15911 0.65079 0.0
H3092 H 0.79928 0.23466 0.66374 0.0
H3093 H 0.76182 0.19476 0.65973 0.0
H3094 H 0.71316 0.2558 0.6319 0.0
H3095 H 0.749 0.29701 0.6375 0.0
C3096 C 0.65213 0.19077 0.64135 0.0
C3097 C 0.65776 0.15893 0.64207 0.0
C3098 C 0.67635 0.21152 0.64313 0.0
C3099 C 0.70648 0.20065 0.64582 0.0
C3100 C 0.71071 0.16879 0.64832 0.0
C3101 C 0.68652 0.14815 0.64642 0.0
C3102 C 0.78107 0.23907 0.6564 0.0
C3103 C 0.77605 0.26911 0.65142 0.0
C3104 C 0.75921 0.21616 0.65414 0.0
C3105 C 0.73299 0.22247 0.64613 0.0
C3106 C 0.73172 0.25075 0.63894 0.0
C3107 C 0.75295 0.27412 0.6417 0.0
H3108 H 0.21763 0.44651 0.89117 0.0
H3109 H 0.1405 0.38491 0.88555 0.0
H3110 H 0.18296 0.48924 0.89506 0.0
H3111 H 0.10499 0.42737 0.8901 0.0
H3112 H 1.04362 0.50644 0.89011 0.0
H3113 H 0.08293 0.47123 0.88149 0.0
H3114 H 0.15014 0.51401 0.90822 0.0
H3115 H 0.11171 0.55069 0.91552 0.0
C3116 C 0.19307 0.44228 0.89069 0.0
C3117 C 0.18153 0.41307 0.88736 0.0
C3118 C 0.173 0.46672 0.89313 0.0
C3119 C 0.1409 0.4623 0.8924 0.0
C3120 C 0.1295 0.4322 0.89002 0.0
C3121 C 0.14974 0.40772 0.88758 0.0
C3122 C 0.06727 0.50922 0.89349 0.0
C3123 C 0.07471 0.53053 0.9037 0.0
C3124 C 0.08963 0.48849 0.8889 0.0
C3125 C 0.11942 0.48855 0.89467 0.0
C3126 C 0.12759 0.51276 0.90353 0.0
C3127 C 0.10552 0.53397 0.90777 0.0
H3128 H 0.93958 0.9093 0.1265 0.0
H3129 H 1.00247 0.91783 0.15998 0.0
H3130 H 0.93046 0.85696 0.13164 0.0
H3131 H 0.99776 0.86268 0.16415 0.0
H3132 H 0.91677 0.8118 0.18313 0.0
H3133 H 0.96301 0.8329 0.17475 0.0
H3134 H 0.93896 0.80473 0.134 0.0
H3135 H 0.89092 0.78276 0.14251 0.0
C3136 C 0.9504 0.90071 0.13534 0.0
C3137 C 0.9693 0.9193 0.14339 0.0
C3138 C 0.9469 0.86936 0.13789 0.0
C3139 C 0.96323 0.85486 0.14848 0.0
C3140 C 0.9841 0.87285 0.15607 0.0
C3141 C 0.98655 0.90469 0.15374 0.0
C3142 C 0.92126 0.80842 0.17242 0.0
C3143 C 0.89837 0.79809 0.16327 0.0
C3144 C 0.9486 0.82075 0.16753 0.0
C3145 C 0.95253 0.82415 0.15346 0.0
C3146 C 0.93467 0.8052 0.14485 0.0
C3147 C 0.90697 0.79288 0.14969 0.0
H3148 H 0.46607 0.55873 0.42229 0.0
H3149 H 0.53333 0.59391 0.39386 0.0
H3150 H 0.43028 0.59865 0.41565 0.0
H3151 H 0.49612 0.6321 0.38587 0.0
H3152 H 0.4437 0.72121 0.38655 0.0
H3153 H 0.4776 0.6787 0.39309 0.0
H3154 H 0.39724 0.62274 0.40236 0.0
H3155 H 0.36431 0.66566 0.39649 0.0
C3156 C 0.47254 0.57428 0.41412 0.0
C3157 C 0.50262 0.574 0.40887 0.0
C3158 C 0.45196 0.59729 0.41023 0.0
C3159 C 0.46057 0.61958 0.40052 0.0
C3160 C 0.48923 0.61636 0.39388 0.0
C3161 C 0.51027 0.59388 0.39813 0.0
C3162 C 0.4336 0.69971 0.39001 0.0
C3163 C 0.40159 0.69578 0.39032 0.0
C3164 C 0.4529 0.67518 0.39363 0.0
C3165 C 0.44031 0.64657 0.39772 0.0
C3166 C 0.40812 0.64409 0.3992 0.0
C3167 C 0.389 0.66856 0.39558 0.0
H3168 H 0.39304 0.26683 0.18782 0.0
H3169 H 0.39429 0.29099 0.145 0.0
H3170 H 0.43587 0.23245 0.18455 0.0
H3171 H 0.43686 0.25457 0.14173 0.0
H3172 H 0.50481 0.18043 0.13799 0.0
H3173 H 0.49117 0.22993 0.14817 0.0
H3174 H 0.42009 0.18376 0.17138 0.0
H3175 H 0.43215 0.135 0.15995 0.0
C3176 C 0.40322 0.26614 0.17778 0.0
C3177 C 0.38962 0.28139 0.16653 0.0
C3178 C 0.42788 0.24615 0.17599 0.0
C3179 C 0.43896 0.24048 0.16292 0.0
C3180 C 0.42845 0.25865 0.15196 0.0
C3181 C 0.40376 0.27905 0.15376 0.0
C3182 C 0.48523 0.18139 0.14464 0.0
C3183 C 0.46627 0.15552 0.1467 0.0
C3184 C 0.47849 0.20927 0.15098 0.0
C3185 C 0.45385 0.21075 0.16008 0.0
C3186 C 0.43899 0.18326 0.16417 0.0
C3187 C 0.44547 0.15551 0.15754 0.0
H3188 H 0.61154 0.55396 0.91389 0.0
H3189 H 0.552 0.60879 0.88817 0.0
H3190 H 0.65277 0.59052 0.91075 0.0
H3191 H 0.59444 0.64411 0.88359 0.0
H3192 H 0.65609 0.72383 0.89115 0.0
H3193 H 0.61718 0.68421 0.89469 0.0
H3194 H 0.68986 0.61645 0.90093 0.0
H3195 H 0.72798 0.65623 0.89735 0.0
C3196 C 0.60799 0.57309 0.90691 0.0
C3197 C 0.57855 0.57921 0.90159 0.0
C3198 C 0.63164 0.59436 0.90513 0.0
C3199 C 0.62669 0.62136 0.89741 0.0
C3200 C 0.59857 0.62462 0.89029 0.0
C3201 C 0.57451 0.60381 0.89248 0.0
C3202 C 0.66347 0.70028 0.89306 0.0
C3203 C 0.69474 0.69219 0.89279 0.0
C3204 C 0.64125 0.67745 0.89503 0.0
C3205 C 0.65015 0.64639 0.89711 0.0
C3206 C 0.68172 0.63964 0.89882 0.0
C3207 C 0.70382 0.66239 0.89661 0.0
H3208 H 0.16349 0.78815 0.65735 0.0
H3209 H 0.19913 0.85217 0.68727 0.0
H3210 H 0.11938 0.82265 0.65366 0.0
H3211 H 0.15655 0.88633 0.68338 0.0
H3212 H 0.1094 0.96196 0.6649 0.0
H3213 H 0.11106 0.91306 0.67755 0.0
H3214 H 0.13497 0.86507 0.64036 0.0
H3215 H 0.13344 0.91218 0.62844 0.0
C3216 C 0.16148 0.80909 0.66336 0.0
C3217 C 0.18532 0.8182 0.6721 0.0
C3218 C 0.1361 0.82861 0.66143 0.0
C3219 C 0.13552 0.85807 0.66763 0.0
C3220 C 0.15642 0.86424 0.67817 0.0
C3221 C 0.18134 0.84465 0.68026 0.0
C3222 C 0.11475 0.94075 0.6595 0.0
C3223 C 0.12205 0.94131 0.64557 0.0
C3224 C 0.11516 0.91273 0.66669 0.0
C3225 C 0.12316 0.88494 0.66003 0.0
C3226 C 0.12799 0.88553 0.64595 0.0
C3227 C 0.12767 0.91321 0.63896 0.0
H3228 H 0.98262 0.54689 0.40991 0.0
H3229 H 0.04769 0.48966 0.38824 0.0
H3230 H 0.94265 0.50949 0.40616 0.0
H3231 H 1.00672 0.45322 0.38286 0.0
H3232 H 0.94396 0.37343 0.39005 0.0
H3233 H 0.98204 0.41407 0.3931 0.0
H3234 H 0.90784 0.48133 0.39658 0.0
H3235 H 0.87081 0.44049 0.39418 0.0
C3236 C 0.98773 0.52696 0.40359 0.0
C3237 C 1.01817 0.52055 0.39968 0.0
C3238 C 0.96477 0.50514 0.40146 0.0
C3239 C 0.9715 0.47716 0.39473 0.0
C3240 C 1.001 0.47342 0.38886 0.0
C3241 C 1.02432 0.49486 0.39145 0.0
C3242 C 0.93614 0.39705 0.39143 0.0
C3243 C 0.90471 0.40443 0.39096 0.0
C3244 C 0.95789 0.42052 0.39301 0.0
C3245 C 0.94842 0.45168 0.39429 0.0
C3246 C 0.91661 0.45809 0.3953 0.0
C3247 C 0.89506 0.43465 0.39369 0.0
H3248 H 0.4028 0.96194 0.44657 0.0
H3249 H 0.47195 0.89559 0.45833 0.0
H3250 H 0.36722 0.91965 0.44169 0.0
H3251 H 0.43539 0.85419 0.45668 0.0
H3252 H 0.37399 0.7819 0.43762 0.0
H3253 H 0.41012 0.82182 0.44379 0.0
H3254 H 0.33376 0.88533 0.45031 0.0
H3255 H 0.29811 0.84501 0.44359 0.0
C3256 C 0.4099 0.93832 0.44866 0.0
C3257 C 0.43911 0.93206 0.45404 0.0
C3258 C 0.38944 0.91402 0.44608 0.0
C3259 C 0.39752 0.88322 0.44942 0.0
C3260 C 0.42766 0.87727 0.45407 0.0
C3261 C 0.44859 0.9013 0.45561 0.0
C3262 C 0.36509 0.80395 0.44117 0.0
C3263 C 0.3335 0.81048 0.44039 0.0
C3264 C 0.38581 0.8272 0.44462 0.0
C3265 C 0.37523 0.85735 0.44759 0.0
C3266 C 0.34313 0.86272 0.44803 0.0
C3267 C 0.32244 0.83943 0.44449 0.0
H3268 H 0.87974 0.69022 0.1787 0.0
H3269 H 0.92493 0.76332 0.20052 0.0
H3270 H 0.92846 0.67745 0.16759 0.0
H3271 H 0.97423 0.74946 0.19047 0.0
H3272 H 1.01241 0.64416 0.15417 0.0
H3273 H 0.97787 0.68761 0.1554 0.0
H3274 H 0.99805 0.69744 0.1982 0.0
H3275 H 1.03482 0.65469 0.19689 0.0
C3276 C 0.90019 0.70354 0.18114 0.0
C3277 C 0.90016 0.72436 0.192 0.0
C3278 C 0.92796 0.6967 0.17465 0.0
C3279 C 0.95539 0.71137 0.17886 0.0
C3280 C 0.95369 0.73666 0.18767 0.0
C3281 C 0.92588 0.74351 0.19397 0.0
C3282 C 1.01115 0.65644 0.16375 0.0
C3283 C 1.02618 0.64546 0.17558 0.0
C3284 C 0.99105 0.68139 0.16438 0.0
C3285 C 0.98491 0.69532 0.17688 0.0
C3286 C 1.00251 0.68701 0.18838 0.0
C3287 C 1.02309 0.66215 0.18772 0.0
H3288 H 0.24002 0.29366 0.95433 0.0
H3289 H 0.28312 0.23409 0.92463 0.0
H3290 H 0.2075 0.25083 0.96168 0.0
H3291 H 0.24857 0.19263 0.93065 0.0
H3292 H 0.18684 0.118 0.94799 0.0
H3293 H 0.22674 0.15534 0.94282 0.0
H3294 H 0.1633 0.22988 0.9525 0.0
H3295 H 0.12368 0.19196 0.95758 0.0
C3296 C 0.24304 0.27117 0.94963 0.0
C3297 C 0.26321 0.26728 0.93864 0.0
C3298 C 0.22382 0.24687 0.95352 0.0
C3299 C 0.22402 0.21878 0.94621 0.0
C3300 C 0.24718 0.21387 0.93644 0.0
C3301 C 0.26706 0.23774 0.93293 0.0
C3302 C 0.18171 0.1424 0.94914 0.0
C3303 C 0.15337 0.15227 0.95433 0.0
C3304 C 0.20443 0.16398 0.94599 0.0
C3305 C 0.19904 0.19578 0.9481 0.0
C3306 C 0.16915 0.20555 0.95176 0.0
C3307 C 0.14634 0.18389 0.95465 0.0
H3308 H 0.51935 0.44534 0.6822 0.0
H3309 H 0.56054 0.51716 0.70662 0.0
H3310 H 0.56301 0.41167 0.68677 0.0
H3311 H 0.60374 0.48342 0.71153 0.0
H3312 H 0.69518 0.44233 0.69895 0.0
H3313 H 0.64584 0.47009 0.69785 0.0
H3314 H 0.59761 0.3824 0.6987 0.0
H3315 H 0.64679 0.35556 0.69866 0.0
C3316 C 0.53689 0.45309 0.68929 0.0
C3317 C 0.53711 0.48391 0.69385 0.0
C3318 C 0.5622 0.43395 0.6918 0.0
C3319 C 0.58761 0.44526 0.69918 0.0
C3320 C 0.58509 0.4743 0.70555 0.0
C3321 C 0.55991 0.49347 0.70298 0.0
C3322 C 0.67383 0.42944 0.69927 0.0
C3323 C 0.67438 0.39727 0.70036 0.0
C3324 C 0.64561 0.44507 0.69864 0.0
C3325 C 0.61756 0.42854 0.69909 0.0
C3326 C 0.61854 0.39606 0.69872 0.0
C3327 C 0.64677 0.38064 0.69887 0.0
H3328 H 0.10843 0.22101 0.36462 0.0
H3329 H 0.14206 0.31315 0.37045 0.0
H3330 H 0.0549 0.24068 0.36466 0.0
H3331 H 0.08854 0.33301 0.37015 0.0
H3332 H 0.98209 0.37201 0.3637 0.0
H3333 H 1.03562 0.35235 0.36397 0.0
H3334 H 1.002 0.26038 0.3706 0.0
H3335 H 0.94849 0.28025 0.37065 0.0
C3336 C 0.10536 0.24574 0.36587 0.0
C3337 C 0.13312 0.26418 0.36751 0.0
C3338 C 0.07304 0.25762 0.36593 0.0
C3339 C 0.06366 0.28982 0.36738 0.0
C3340 C 0.09151 0.30828 0.36891 0.0
C3341 C 0.12383 0.29631 0.36911 0.0
C3342 C 0.98517 0.34736 0.36525 0.0
C3343 C 0.95741 0.32902 0.36711 0.0
C3344 C 1.01749 0.33549 0.36545 0.0
C3345 C 1.02687 0.30339 0.36729 0.0
C3346 C 0.99903 0.28502 0.36906 0.0
C3347 C 0.96671 0.297 0.36911 0.0
H3348 H 0.96435 0.73839 0.61162 0.0
H3349 H 0.05644 0.70475 0.61723 0.0
H3350 H 0.98368 0.79212 0.61143 0.0
H3351 H 0.07596 0.75846 0.61671 0.0
H3352 H 0.1143 0.86469 0.60936 0.0
H3353 H 0.0947 0.81118 0.61 0.0
H3354 H 1.00348 0.84556 0.6174 0.0
H3355 H 1.02339 0.89923 0.61715 0.0
C3356 C 0.989 0.7415 0.61279 0.0
C3357 C 1.00753 0.71366 0.61445 0.0
C3358 C 1.00067 0.77394 0.61271 0.0
C3359 C 1.03274 0.78339 0.61401 0.0
C3360 C 0.0513 0.75546 0.61556 0.0
C3361 C 1.03954 0.72302 0.6159 0.0
C3362 C 0.08981 0.86182 0.61116 0.0
C3363 C 0.07175 0.88987 0.61311 0.0
C3364 C 0.07799 0.82949 0.61158 0.0
C3365 C 1.04613 0.82029 0.61374 0.0
C3366 C 1.02795 0.8484 0.6156 0.0
C3367 C 1.03993 0.88081 0.61547 0.0
H3368 H 0.4892 0.87092 0.86686 0.0
H3369 H 0.45596 0.77839 0.87196 0.0
H3370 H 0.54274 0.85154 0.8666 0.0
H3371 H 0.5096 0.7588 0.87141 0.0
H3372 H 0.61627 0.7208 0.86479 0.0
H3373 H 0.5626 0.73999 0.86535 0.0
H3374 H 0.59567 0.83219 0.87189 0.0
H3375 H 0.64934 0.81278 0.87163 0.0
C3376 C 0.49237 0.84616 0.86793 0.0
C3377 C 0.46471 0.82754 0.86948 0.0
C3378 C 0.52471 0.83445 0.8678 0.0
C3379 C 0.53422 0.80226 0.86896 0.0
C3380 C 0.50649 0.78357 0.87039 0.0
C3381 C 0.47411 0.79536 0.87075 0.0
C3382 C 0.61303 0.7454 0.86638 0.0
C3383 C 0.64067 0.76397 0.86812 0.0
C3384 C 0.58064 0.75699 0.86675 0.0
C3385 C 0.57108 0.78899 0.86867 0.0
C3386 C 0.5988 0.80758 0.87031 0.0
C3387 C 0.6312 0.7959 0.87017 0.0
H3388 H 0.56725 0.20463 0.11541 0.0
H3389 H 0.47534 0.23934 0.11046 0.0
H3390 H 0.58704 0.25839 0.1156 0.0
H3391 H 0.49486 0.2928 0.11099 0.0
H3392 H 0.53307 0.39906 0.11738 0.0
H3393 H 0.51396 0.34525 0.11695 0.0
H3394 H 0.60602 0.31244 0.11023 0.0
H3395 H 0.62495 0.36634 0.11036 0.0
C3396 C 0.55046 0.22309 0.11436 0.0
C3397 C 0.51837 0.21405 0.11282 0.0
C3398 C 0.56237 0.25555 0.11446 0.0
C3399 C 0.54389 0.28371 0.11332 0.0
C3400 C 0.51182 0.27449 0.11197 0.0
C3401 C 0.50003 0.24216 0.11161 0.0
C3402 C 0.55 0.38097 0.11573 0.0
C3403 C 0.5818 0.39066 0.11387 0.0
C3404 C 0.53848 0.34845 0.11546 0.0
C3405 C 0.55711 0.3207 0.11354 0.0
C3406 C 0.58899 0.33045 0.11181 0.0
C3407 C 0.60043 0.363 0.11185 0.0
H3408 H 0.98267 0.73228 0.22919 0.0
H3409 H 0.94896 0.82407 0.22203 0.0
H3410 H 1.03614 0.75149 0.22862 0.0
H3411 H 1.00265 0.84358 0.22181 0.0
H3412 H 0.11016 0.88173 0.22734 0.0
H3413 H 0.05639 0.86291 0.22747 0.0
H3414 H 0.08895 0.76995 0.22235 0.0
H3415 H 0.14267 0.78894 0.22189 0.0
C3416 C 0.98571 0.75689 0.22754 0.0
C3417 C 0.95786 0.77531 0.22576 0.0
C3418 C 1.01805 0.76849 0.22716 0.0
C3419 C 1.02753 0.80046 0.22519 0.0
C3420 C 0.99963 0.81899 0.22347 0.0
C3421 C 0.96719 0.80725 0.22359 0.0
C3422 C 0.10681 0.85702 0.22621 0.0
C3423 C 0.1344 0.83813 0.22461 0.0
C3424 C 0.07431 0.84564 0.22625 0.0
C3425 C 0.06451 0.81356 0.22496 0.0
C3426 C 0.09218 0.79466 0.22347 0.0
C3427 C 0.12466 0.80611 0.22318 0.0
H3428 H 0.53622 0.88287 0.45941 0.0
H3429 H 0.49484 0.86769 0.49829 0.0
H3430 H 0.55484 0.82863 0.45923 0.0
H3431 H 0.51502 0.81423 0.49853 0.0
H3432 H 0.58702 0.7204 0.49999 0.0
H3433 H 0.56641 0.77382 0.49992 0.0
H3434 H 0.54139 0.76394 0.45804 0.0
H3435 H 0.56004 0.7097 0.4584 0.0
C3436 C 0.53088 0.86879 0.46821 0.0
C3437 C 0.51278 0.88323 0.4789 0.0
C3438 C 0.542 0.8361 0.46809 0.0
C3439 C 0.53776 0.81355 0.47889 0.0
C3440 C 0.52021 0.82821 0.48969 0.0
C3441 C 0.50802 0.86045 0.48955 0.0
C3442 C 0.57678 0.72863 0.49061 0.0
C3443 C 0.57588 0.70708 0.4793 0.0
C3444 C 0.56448 0.76083 0.49055 0.0
C3445 C 0.55095 0.77671 0.47898 0.0
C3446 C 0.5508 0.75541 0.46754 0.0
C3447 C 0.56189 0.72272 0.46776 0.0
H3448 H 0.63779 0.283 0.72116 0.0
H3449 H 0.6042 0.37453 0.72896 0.0
H3450 H 0.58427 0.26328 0.72138 0.0
H3451 H 0.55072 0.35509 0.72876 0.0
H3452 H 0.44426 0.31668 0.72216 0.0
H3453 H 0.49781 0.33621 0.72231 0.0
H3454 H 0.53137 0.24369 0.72784 0.0
H3455 H 0.4778 0.22435 0.72804 0.0
C3456 C 0.61958 0.29973 0.72292 0.0
C3457 C 0.62886 0.33166 0.72505 0.0
C3458 C 0.58727 0.28785 0.72307 0.0
C3459 C 0.55944 0.30625 0.72507 0.0
C3460 C 0.56883 0.33823 0.72708 0.0
C3461 C 0.60113 0.34997 0.72721 0.0
C3462 C 0.46248 0.29973 0.72349 0.0
C3463 C 0.45314 0.26767 0.72515 0.0
C3464 C 0.49481 0.3115 0.7236 0.0
C3465 C 0.52265 0.29287 0.72509 0.0
C3466 C 0.51324 0.26074 0.72659 0.0
C3467 C 0.4809 0.24906 0.72675 0.0
H3468 H 1.03574 0.19739 0.97648 0.0
H3469 H 0.12766 0.22934 0.98384 0.0
H3470 H 1.01695 0.25145 0.97655 0.0
H3471 H 0.10909 0.28344 0.98353 0.0
H3472 H 0.07129 0.39107 0.97629 0.0
H3473 H 0.09051 0.33705 0.97659 0.0
H3474 H 0.99848 0.30447 0.98328 0.0
H3475 H 0.97958 0.35832 0.98346 0.0
C3476 C 0.05273 0.21535 0.97813 0.0
C3477 C 0.08443 0.20542 0.98022 0.0
C3478 C 1.04142 0.24798 0.97819 0.0
C3479 C 0.06022 0.27555 0.98003 0.0
C3480 C 0.09199 0.26555 0.98197 0.0
C3481 C 0.10319 0.23291 0.98219 0.0
C3482 C 0.05444 0.37298 0.97795 0.0
C3483 C 1.02263 0.38263 0.97994 0.0
C3484 C 0.06599 0.34038 0.97813 0.0
C3485 C 0.04733 0.31266 0.97997 0.0
C3486 C 1.0155 0.32245 0.98176 0.0
C3487 C 1.0041 0.35498 0.98189 0.0
H3488 H 0.14771 0.81749 0.72396 0.0
H3489 H 0.1148 0.72582 0.73173 0.0
H3490 H 0.09406 0.83701 0.724 0.0
H3491 H 0.06114 0.74511 0.73144 0.0
H3492 H 0.95422 0.78346 0.72483 0.0
H3493 H 1.00788 0.76394 0.72511 0.0
H3494 H 1.041 0.8566 0.73008 0.0
H3495 H 0.98736 0.87593 0.73012 0.0
C3496 C 0.12963 0.80068 0.72571 0.0
C3497 C 0.13921 0.7688 0.72793 0.0
C3498 C 0.09721 0.81245 0.72574 0.0
C3499 C 0.06948 0.794 0.72772 0.0
C3500 C 0.07914 0.76204 0.72978 0.0
C3501 C 0.11156 0.75038 0.73 0.0
C3502 C 0.97236 0.80045 0.72604 0.0
C3503 C 0.96284 0.83257 0.7275 0.0
C3504 C 1.00477 0.78868 0.72624 0.0
C3505 C 1.03256 0.80733 0.72763 0.0
C3506 C 1.02296 0.8395 0.72893 0.0
C3507 C 0.99055 0.85119 0.729 0.0
H3508 H 0.97273 0.23573 0.47763 0.0
H3509 H 0.06461 0.20214 0.47144 0.0
H3510 H 0.99199 0.28949 0.47741 0.0
H3511 H 0.08407 0.25589 0.47157 0.0
H3512 H 0.12231 0.36324 0.47791 0.0
H3513 H 0.10315 0.30941 0.47781 0.0
H3514 H 1.01124 0.34269 0.47107 0.0
H3515 H 1.0306 0.39646 0.47081 0.0
C3516 C 0.99733 0.23884 0.47626 0.0
C3517 C 1.0158 0.21095 0.47458 0.0
C3518 C 1.00898 0.27133 0.47609 0.0
C3519 C 1.04097 0.28086 0.47449 0.0
C3520 C 0.05948 0.25288 0.47293 0.0
C3521 C 0.04773 0.22039 0.47283 0.0
C3522 C 0.09778 0.36004 0.47635 0.0
C3523 C 0.0793 0.38785 0.47437 0.0
C3524 C 0.08619 0.32752 0.47626 0.0
C3525 C 0.05427 0.31789 0.47445 0.0
C3526 C 1.03578 0.34578 0.4726 0.0
C3527 C 0.04746 0.37828 0.47243 0.0
H3528 H 0.6426 0.31188 0.22514 0.0
H3529 H 0.60975 0.2194 0.23076 0.0
H3530 H 0.58893 0.33127 0.22541 0.0
H3531 H 0.55606 0.2386 0.23075 0.0
H3532 H 0.48229 0.36962 0.23129 0.0
H3533 H 0.53589 0.35031 0.23104 0.0
H3534 H 0.50271 0.25788 0.22534 0.0
H3535 H 0.44904 0.27742 0.22533 0.0
C3536 C 0.62452 0.29486 0.22644 0.0
C3537 C 0.63413 0.26279 0.22799 0.0
C3538 C 0.59209 0.30655 0.22662 0.0
C3539 C 0.56436 0.28786 0.22811 0.0
C3540 C 0.57405 0.25573 0.22952 0.0
C3541 C 0.60649 0.24411 0.22957 0.0
C3542 C 0.48546 0.34493 0.22999 0.0
C3543 C 0.45773 0.32639 0.22842 0.0
C3544 C 0.51785 0.33325 0.22978 0.0
C3545 C 0.52743 0.30115 0.2282 0.0
C3546 C 0.49962 0.28256 0.22669 0.0
C3547 C 0.4672 0.29433 0.22667 0.0
H3548 H 0.52381 0.89922 0.97215 0.0
H3549 H 0.61634 0.86552 0.97607 0.0
H3550 H 0.50438 0.8455 0.9725 0.0
H3551 H 0.59706 0.81176 0.97608 0.0
H3552 H 0.55736 0.70533 0.96974 0.0
H3553 H 0.57698 0.75903 0.96981 0.0
H3554 H 0.48627 0.79242 0.97911 0.0
H3555 H 0.46697 0.73871 0.97944 0.0
C3556 C 0.5408 0.88092 0.97307 0.0
C3557 C 0.57289 0.89022 0.97412 0.0
C3558 C 0.52911 0.8485 0.9733 0.0
C3559 C 0.54783 0.8206 0.97432 0.0
C3560 C 0.57998 0.82998 0.97523 0.0
C3561 C 0.59162 0.8624 0.97526 0.0
C3562 C 0.54089 0.72355 0.97192 0.0
C3563 C 0.50933 0.71418 0.97463 0.0
C3564 C 0.55269 0.75594 0.97197 0.0
C3565 C 0.53453 0.78375 0.97444 0.0
C3566 C 0.5029 0.77429 0.97703 0.0
C3567 C 0.49125 0.74189 0.97726 0.0
H3568 H 0.11458 0.34789 0.8428 0.0
H3569 H 0.12422 0.31944 0.88426 0.0
H3570 H 0.06097 0.32846 0.84261 0.0
H3571 H 0.06999 0.30159 0.88431 0.0
H3572 H 0.95241 0.2936 0.88347 0.0
H3573 H 1.00653 0.3119 0.88384 0.0
H3574 H 1.01839 0.28094 0.84285 0.0
H3575 H 0.965 0.26093 0.8428 0.0
C3576 C 0.10602 0.3379 0.85215 0.0
C3577 C 0.12738 0.33649 0.86354 0.0
C3578 C 0.07369 0.32608 0.85203 0.0
C3579 C 0.05743 0.31226 0.86345 0.0
C3580 C 0.07861 0.3114 0.87493 0.0
C3581 C 0.11135 0.32212 0.87489 0.0
C3582 C 0.96582 0.29035 0.87429 0.0
C3583 C 0.9506 0.27493 0.863 0.0
C3584 C 0.99851 0.30124 0.87453 0.0
C3585 C 1.02045 0.29937 0.86335 0.0
C3586 C 1.00501 0.28433 0.85202 0.0
C3587 C 0.97277 0.27235 0.85197 0.0
H3588 H 0.53881 0.38776 0.63808 0.0
H3589 H 0.5075 0.37645 0.59714 0.0
H3590 H 0.55719 0.33346 0.63828 0.0
H3591 H 0.52738 0.32279 0.59706 0.0
H3592 H 0.59446 0.22656 0.59694 0.0
H3593 H 0.57462 0.28018 0.59686 0.0
H3594 H 0.5475 0.27016 0.63846 0.0
H3595 H 0.56585 0.21586 0.63826 0.0
C3596 C 0.53561 0.37449 0.62886 0.0
C3597 C 0.52028 0.39002 0.61761 0.0
C3598 C 0.54663 0.34175 0.62898 0.0
C3599 C 0.5451 0.32014 0.61767 0.0
C3600 C 0.53033 0.3359 0.60634 0.0
C3601 C 0.51824 0.36824 0.6064 0.0
C3602 C 0.58437 0.23488 0.60628 0.0
C3603 C 0.58308 0.21326 0.61759 0.0
C3604 C 0.57228 0.26722 0.60623 0.0
C3605 C 0.55825 0.28317 0.61767 0.0
C3606 C 0.55746 0.26173 0.62908 0.0
C3607 C 0.56847 0.22898 0.62895 0.0
H3608 H 0.64308 0.78335 0.36841 0.0
H3609 H 0.61031 0.87525 0.36073 0.0
H3610 H 0.58942 0.7641 0.36825 0.0
H3611 H 0.55662 0.85623 0.3609 0.0
H3612 H 0.44967 0.81838 0.36749 0.0
H3613 H 0.50335 0.83758 0.36729 0.0
H3614 H 0.53629 0.74487 0.36184 0.0
H3615 H 0.4826 0.72586 0.36168 0.0
C3616 C 0.62503 0.80026 0.36666 0.0
C3617 C 0.63466 0.8321 0.36448 0.0
C3618 C 0.5926 0.78866 0.36654 0.0
C3619 C 0.5649 0.80726 0.36455 0.0
C3620 C 0.5746 0.83919 0.36255 0.0
C3621 C 0.60703 0.85068 0.3624 0.0
C3622 C 0.46777 0.80131 0.36618 0.0
C3623 C 0.45818 0.76929 0.36457 0.0
C3624 C 0.5002 0.81289 0.36604 0.0
C3625 C 0.52795 0.79412 0.36456 0.0
C3626 C 0.51829 0.76204 0.36309 0.0
C3627 C 0.48585 0.75054 0.36296 0.0
H3628 H 0.06775 0.89137 0.12111 0.0
H3629 H 0.97732 0.859 0.11104 0.0
H3630 H 0.08696 0.83734 0.12101 0.0
H3631 H 0.99608 0.80511 0.11156 0.0
H3632 H 1.03256 0.69764 0.11962 0.0
H3633 H 1.01379 0.75174 0.11932 0.0
H3634 H 0.10632 0.78371 0.11351 0.0
H3635 H 0.12487 0.7296 0.11337 0.0
C3636 C 0.05115 0.87338 0.11885 0.0
C3637 C 1.0197 0.88321 0.11602 0.0
C3638 C 0.06271 0.84074 0.1188 0.0
C3639 C 1.04437 0.81307 0.11629 0.0
C3640 C 1.01286 0.82301 0.11366 0.0
C3641 C 1.00153 0.8556 0.11335 0.0
C3642 C 0.04966 0.7156 0.11819 0.0
C3643 C 0.08147 0.70561 0.11646 0.0
C3644 C 1.03835 0.74827 0.11799 0.0
C3645 C 0.05724 0.77589 0.11639 0.0
C3646 C 0.08911 0.76583 0.11485 0.0
C3647 C 0.10032 0.73315 0.11473 0.0
H3648 H 0.22334 0.29395 0.3265 0.0
H3649 H 0.30165 0.23392 0.33054 0.0
H3650 H 0.24556 0.31663 0.30588 0.0
H3651 H 0.32438 0.25649 0.30994 0.0
H3652 H 0.36596 0.29832 0.26951 0.0
H3653 H 0.34369 0.27568 0.29012 0.0
H3654 H 0.2668 0.33859 0.28699 0.0
H3655 H 0.2896 0.36114 0.26637 0.0
C3656 C 0.24578 0.28564 0.32328 0.0
C3657 C 0.26038 0.26212 0.3313 0.0
C3658 C 0.25895 0.29894 0.31098 0.0
C3659 C 0.28794 0.28963 0.30521 0.0
C3660 C 0.30244 0.26575 0.31323 0.0
C3661 C 0.28922 0.25254 0.32559 0.0
C3662 C 0.34398 0.30734 0.27296 0.0
C3663 C 0.32989 0.3316 0.26519 0.0
C3664 C 0.33079 0.29407 0.28526 0.0
C3665 C 0.3023 0.30412 0.29127 0.0
C3666 C 0.28833 0.32874 0.2835 0.0
C3667 C 0.3016 0.342 0.27115 0.0
H3668 H 0.98757 1.04208 0.51181 0.0
H3669 H 0.04763 0.12032 0.5154 0.0
H3670 H 1.01052 1.01928 0.53237 0.0
H3671 H 0.07064 0.09808 0.53596 0.0
H3672 H 0.11611 0.05403 0.57526 0.0
H3673 H 0.09349 0.07642 0.55454 0.0
H3674 H 1.02968 1.00033 0.55238 0.0
H3675 H 0.05245 0.97839 0.5731 0.0
C3676 C 1.00627 0.05447 0.51665 0.0
C3677 C 1.01573 0.08333 0.51083 0.0
C3678 C 1.0197 1.04123 0.52898 0.0
C3679 C 1.04372 0.05569 0.53686 0.0
C3680 C 0.05289 0.08469 0.53097 0.0
C3681 C 1.03938 0.09789 0.51871 0.0
C3682 C 0.09686 1.04205 0.57063 0.0
C3683 C 0.08623 1.01415 0.57692 0.0
C3684 C 0.08351 0.05512 0.55825 0.0
C3685 C 0.0585 1.04132 0.55075 0.0
C3686 C 0.04835 1.01308 0.55703 0.0
C3687 C 0.06175 1.00006 0.56937 0.0
H3688 H 0.3619 0.79641 0.83242 0.0
H3689 H 0.30713 0.87704 0.82421 0.0
H3690 H 0.34093 0.7714 0.81193 0.0
H3691 H 0.28639 0.85271 0.80371 0.0
H3692 H 0.24264 0.8029 0.76527 0.0
H3693 H 0.26367 0.82818 0.78567 0.0
H3694 H 0.326 0.75154 0.79141 0.0
H3695 H 0.30501 0.7269 0.77104 0.0
C3696 C 0.34467 0.8089 0.8266 0.0
C3697 C 0.33572 0.83906 0.83118 0.0
C3698 C 0.33255 0.79437 0.81429 0.0
C3699 C 0.31079 0.80881 0.80514 0.0
C3700 C 0.30233 0.83916 0.80975 0.0
C3701 C 0.31447 0.85358 0.82199 0.0
C3702 C 0.26159 0.79162 0.77049 0.0
C3703 C 0.2725 0.76267 0.76527 0.0
C3704 C 0.27385 0.80631 0.78274 0.0
C3705 C 0.29765 0.79311 0.79123 0.0
C3706 C 0.30818 0.76399 0.78597 0.0
C3707 C 0.296 0.74948 0.77376 0.0
H3708 H 0.53659 0.12637 0.07187 0.0
H3709 H 0.47339 0.05042 0.07442 0.0
H3710 H 0.55897 0.10445 0.05109 0.0
H3711 H 0.49563 1.02804 0.05365 0.0
H3712 H 0.54243 0.98299 1.01502 0.0
H3713 H 0.51947 1.00553 1.03548 0.0
H3714 H 0.57674 0.08607 1.03064 0.0
H3715 H 0.59983 0.0629 1.01017 0.0
C3716 C 0.52727 0.10468 0.06821 0.0
C3717 C 0.50305 0.0905 0.0759 0.0
C3718 C 0.54045 0.09165 0.05583 0.0
C3719 C 0.53036 0.06328 0.04966 0.0
C3720 C 0.50559 0.04942 0.05729 0.0
C3721 C 0.49244 0.0625 0.06969 0.0
C3722 C 0.55006 1.00586 1.01802 0.0
C3723 C 0.57298 1.02072 1.00982 0.0
C3724 C 0.53656 1.01924 1.03023 0.0
C3725 C 0.54502 1.04879 1.03576 0.0
C3726 C 0.56825 0.06363 1.02755 0.0
C3727 C 0.58173 0.05016 1.01528 0.0
H3728 H 0.29434 0.73025 0.3216 0.0
H3729 H 0.35812 0.8052 0.32624 0.0
H3730 H 0.27311 0.75436 0.30117 0.0
H3731 H 0.33669 0.83006 0.30565 0.0
H3732 H 0.30264 0.86722 0.26207 0.0
H3733 H 0.32454 0.8442 0.28292 0.0
H3734 H 0.2465 0.78306 0.28553 0.0
H3735 H 0.22506 0.80616 0.26484 0.0
C3736 C 0.30356 0.75255 0.31864 0.0
C3737 C 0.32756 0.76561 0.32681 0.0
C3738 C 0.29112 0.76684 0.30643 0.0
C3739 C 0.30201 0.79543 0.3008 0.0
C3740 C 0.32647 0.80845 0.30889 0.0
C3741 C 0.33885 0.79408 0.32123 0.0
C3742 C 0.29017 0.84839 0.26681 0.0
C3743 C 0.26176 0.83864 0.26071 0.0
C3744 C 0.30288 0.83498 0.27926 0.0
C3745 C 0.28836 0.81056 0.28687 0.0
C3746 C 0.25992 0.80102 0.28068 0.0
C3747 C 0.24717 0.81463 0.26837 0.0
H3748 H 0.62079 1.04759 0.57446 0.0
H3749 H 0.54459 0.10928 0.5808 0.0
H3750 H 0.59583 1.02654 0.55421 0.0
H3751 H 0.51893 0.08811 0.56051 0.0
H3752 H 0.47021 1.04589 0.52177 0.0
H3753 H 0.4951 0.06702 0.54201 0.0
H3754 H 0.57464 1.00983 0.53429 0.0
H3755 H 0.549 0.98845 0.51404 0.0
C3756 C 0.59809 0.05641 0.5719 0.0
C3757 C 0.585 0.07975 0.5805 0.0
C3758 C 0.58337 1.04417 0.55976 0.0
C3759 C 0.55409 0.0545 0.55468 0.0
C3760 C 0.54094 0.07812 0.56329 0.0
C3761 C 0.55585 0.09043 0.57548 0.0
C3762 C 0.49347 1.03814 0.524 0.0
C3763 C 0.50725 1.01596 0.51502 0.0
C3764 C 0.50818 0.05044 0.53612 0.0
C3765 C 0.53817 1.0413 0.54082 0.0
C3766 C 0.552 1.01879 0.53185 0.0
C3767 C 0.53712 1.00644 0.51965 0.0
H3768 H 0.28444 0.23895 0.76188 0.0
H3769 H 0.36351 0.29731 0.76669 0.0
H3770 H 0.26163 0.26102 0.78257 0.0
H3771 H 0.34119 0.31948 0.7874 0.0
H3772 H 0.29811 0.36129 0.82771 0.0
H3773 H 0.32109 0.3391 0.80707 0.0
H3774 H 0.24077 0.2819 0.80176 0.0
H3775 H 0.21833 0.30414 0.82241 0.0
C3776 C 0.29703 0.25713 0.76702 0.0
C3777 C 0.32614 0.26639 0.76149 0.0
C3778 C 0.28375 0.27004 0.77943 0.0
C3779 C 0.29842 0.29328 0.78771 0.0
C3780 C 0.32768 0.30224 0.78213 0.0
C3781 C 0.34091 0.28924 0.76977 0.0
C3782 C 0.2854 0.34334 0.82249 0.0
C3783 C 0.25602 0.33444 0.82786 0.0
C3784 C 0.29877 0.33038 0.8101 0.0
C3785 C 0.28393 0.30747 0.80169 0.0
C3786 C 0.25444 0.29884 0.80714 0.0
C3787 C 0.24114 0.31187 0.81947 0.0
H3788 H 0.12151 1.03601 1.02181 0.0
H3789 H 0.05065 0.10488 1.01824 0.0
H3790 H 0.0961 1.01434 1.04184 0.0
H3791 H 1.02459 0.08318 1.03841 0.0
H3792 H 0.98382 1.04698 0.08082 0.0
H3793 H 1.00781 0.0688 0.06026 0.0
H3794 H 0.06769 0.98938 0.05792 0.0
H3795 H 1.04376 0.96813 0.07844 0.0
C3796 C 0.09985 1.04635 1.02493 0.0
C3797 C 0.08831 0.07194 1.01716 0.0
C3798 C 0.08481 1.03367 1.03691 0.0
C3799 C 0.05696 1.04584 1.04273 0.0
C3800 C 1.04551 0.07185 1.03503 0.0
C3801 C 0.06061 0.08446 1.02293 0.0
C3802 C 1.00256 1.03415 0.07621 0.0
C3803 C 1.01163 1.00543 0.08236 0.0
C3804 C 1.01657 1.04684 0.0639 0.0
C3805 C 1.04102 1.03199 0.05645 0.0
C3806 C 0.04976 1.0031 0.06263 0.0
C3807 C 1.03559 0.99039 0.07483 0.0
H3808 H 0.80362 0.72416 0.82429 0.0
H3809 H 0.73991 0.79939 0.82904 0.0
H3810 H 0.82502 0.74855 0.80396 0.0
H3811 H 0.76143 0.82444 0.80855 0.0
H3812 H 0.79577 0.86219 0.76512 0.0
H3813 H 0.77374 0.83894 0.78586 0.0
H3814 H 0.85183 0.77752 0.78847 0.0
H3815 H 0.87333 0.80074 0.76785 0.0
C3816 C 0.79448 0.74659 0.82138 0.0
C3817 C 0.77049 0.75968 0.82958 0.0
C3818 C 0.807 0.76102 0.80923 0.0
C3819 C 0.79617 0.78977 0.80366 0.0
C3820 C 0.77164 0.80274 0.81175 0.0
C3821 C 0.7592 0.78824 0.82403 0.0
C3822 C 0.80819 0.8432 0.76981 0.0
C3823 C 0.83665 0.83344 0.76374 0.0
C3824 C 0.79542 0.82967 0.78222 0.0
C3825 C 0.80991 0.8051 0.7898 0.0
C3826 C 0.83842 0.79559 0.78364 0.0
C3827 C 0.85123 0.8093 0.77138 0.0
H3828 H 0.86877 0.29933 0.32559 0.0
H3829 H 0.78862 0.35645 0.33049 0.0
H3830 H 0.84682 0.27698 0.30486 0.0
H3831 H 0.76604 0.33401 0.30981 0.0
H3832 H 0.72514 0.29302 0.26901 0.0
H3833 H 0.74728 0.31567 0.28966 0.0
H3834 H 0.82527 0.25431 0.28619 0.0
H3835 H 0.80274 0.23192 0.2655 0.0
C3836 C 0.846 0.30704 0.32253 0.0
C3837 C 0.83083 0.32962 0.33084 0.0
C3838 C 0.83295 0.29391 0.31018 0.0
C3839 C 0.80347 0.30241 0.30463 0.0
C3840 C 0.78839 0.32538 0.31293 0.0
C3841 C 0.80149 0.33844 0.32535 0.0
C3842 C 0.74738 0.28442 0.27237 0.0
C3843 C 0.76183 0.26063 0.26448 0.0
C3844 C 0.76047 0.29766 0.2847 0.0
C3845 C 0.78921 0.28802 0.29064 0.0
C3846 C 0.80356 0.26389 0.28274 0.0
C3847 C 0.79042 0.25072 0.27036 0.0
H3848 H 0.79163 0.37242 0.76738 0.0
H3849 H 0.7277 0.29775 0.76224 0.0
H3850 H 0.81284 0.34748 0.78768 0.0
H3851 H 0.74894 0.27224 0.78273 0.0
H3852 H 0.78125 0.23595 0.82685 0.0
H3853 H 0.75945 0.25971 0.8061 0.0
H3854 H 0.84081 0.31589 0.80216 0.0
H3855 H 0.86212 0.29219 0.82278 0.0
C3856 C 0.78235 0.35005 0.77021 0.0
C3857 C 0.75835 0.33728 0.76195 0.0
C3858 C 0.79477 0.3353 0.78231 0.0
C3859 C 0.78374 0.30659 0.78775 0.0
C3860 C 0.75922 0.29392 0.7796 0.0
C3861 C 0.74696 0.30868 0.76734 0.0
C3862 C 0.79453 0.25381 0.82182 0.0
C3863 C 0.82378 0.26212 0.82753 0.0
C3864 C 0.78188 0.26761 0.80944 0.0
C3865 C 0.79735 0.29094 0.80154 0.0
C3866 C 0.8267 0.29889 0.8073 0.0
C3867 C 0.83939 0.28487 0.81952 0.0
H3868 H 0.72432 0.8046 0.32309 0.0
H3869 H 0.80667 0.85768 0.32891 0.0
H3870 H 0.74599 0.78176 0.30243 0.0
H3871 H 0.82892 0.83481 0.30823 0.0
H3872 H 0.87091 0.7896 0.26844 0.0
H3873 H 0.84952 0.81229 0.28922 0.0
H3874 H 0.76491 0.76254 0.28255 0.0
H3875 H 0.78691 0.73965 0.26184 0.0
C3876 C 0.74752 0.81128 0.32025 0.0
C3877 C 0.76336 0.83286 0.3288 0.0
C3878 C 0.76037 0.79791 0.30791 0.0
C3879 C 0.79036 0.80515 0.30261 0.0
C3880 C 0.80616 0.82711 0.31116 0.0
C3881 C 0.79322 0.84045 0.32357 0.0
C3882 C 0.84749 0.78346 0.27117 0.0
C3883 C 0.83111 0.76278 0.26238 0.0
C3884 C 0.83476 0.79685 0.28354 0.0
C3885 C 0.80437 0.79051 0.28862 0.0
C3886 C 0.78808 0.76938 0.27984 0.0
C3887 C 0.8009 0.75602 0.26742 0.0
H3888 H 0.54459 0.49166 0.07716 0.0
H3889 H 0.61972 0.55426 0.07063 0.0
H3890 H 0.51857 0.51221 0.05681 0.0
H3891 H 0.59439 0.57473 0.05031 0.0
H3892 H 0.54569 0.61342 1.01065 0.0
H3893 H 0.57172 0.59277 1.03097 0.0
H3894 H 0.49543 0.53093 1.03767 0.0
H3895 H 0.47012 0.55147 1.01736 0.0
C3896 C 0.55554 0.51055 0.07176 0.0
C3897 C 0.58447 0.52172 0.07675 0.0
C3898 C 0.54042 0.5225 0.05954 0.0
C3899 C 0.55312 0.54623 0.05087 0.0
C3900 C 0.58223 0.55702 0.05592 0.0
C3901 C 0.59718 0.54511 0.06808 0.0
C3902 C 0.53464 0.59464 1.01607 0.0
C3903 C 0.50559 0.58368 1.01114 0.0
C3904 C 0.54976 0.58265 1.02829 0.0
C3905 C 0.53693 0.55907 1.037 0.0
C3906 C 0.5077 0.54848 1.03201 0.0
C3907 C 0.49276 0.56043 1.01985 0.0
H3908 H 1.04411 0.61157 0.57788 0.0
H3909 H 0.96678 0.55217 0.57064 0.0
H3910 H 0.06986 0.59058 0.5576 0.0
H3911 H 0.99182 0.53132 0.55035 0.0
H3912 H 1.04119 0.49061 0.51116 0.0
H3913 H 1.01529 0.51152 0.53145 0.0
H3914 H 0.09193 0.57293 0.53807 0.0
H3915 H 0.11712 0.55214 0.51782 0.0
C3916 C 1.03258 0.59327 0.57235 0.0
C3917 C 1.00314 0.58307 0.57715 0.0
C3918 C 0.04754 0.58109 0.56014 0.0
C3919 C 1.03418 0.55809 0.55129 0.0
C3920 C 1.00453 0.54833 0.55613 0.0
C3921 C 0.98974 0.56047 0.56828 0.0
C3922 C 0.05236 0.50934 0.51656 0.0
C3923 C 0.08152 0.52006 0.51163 0.0
C3924 C 1.03731 0.5215 0.52875 0.0
C3925 C 0.05028 0.54503 0.53745 0.0
C3926 C 0.07957 0.55539 0.53245 0.0
C3927 C 0.09445 0.54328 0.52032 0.0
H3928 H 1.04619 0.60344 0.07841 0.0
H3929 H 0.11971 0.5375 0.07476 0.0
H3930 H 1.02122 0.58129 0.05809 0.0
H3931 H 0.09549 0.51549 0.05454 0.0
H3932 H 1.04583 0.4687 1.01743 0.0
H3933 H 0.06869 0.49023 1.03813 0.0
H3934 H 1.0049 0.56665 1.03632 0.0
H3935 H 0.98211 0.54463 1.01555 0.0
C3936 C 0.05693 0.58352 0.07368 0.0
C3937 C 0.08497 0.57185 0.07949 0.0
C3938 C 1.0425 0.57068 0.06149 0.0
C3939 C 0.05509 0.54538 0.05371 0.0
C3940 C 0.08333 0.53414 0.05955 0.0
C3941 C 0.09765 0.547 0.07164 0.0
C3942 C 1.03656 0.49035 1.02121 0.0
C3943 C 1.01189 0.50452 1.0138 0.0
C3944 C 0.05008 0.50322 1.03351 0.0
C3945 C 1.03988 0.53136 1.03989 0.0
C3946 C 1.01472 0.5453 1.03253 0.0
C3947 C 1.00136 0.53246 1.02013 0.0
H3948 H 0.5513 0.47874 0.57692 0.0
H3949 H 0.49361 0.55889 0.58093 0.0
H3950 H 0.57407 0.50021 0.5562 0.0
H3951 H 0.51639 0.58097 0.56022 0.0
H3952 H 0.55794 0.62051 0.51926 0.0
H3953 H 0.53534 0.59931 0.54011 0.0
H3954 H 0.59666 0.52099 0.53744 0.0
H3955 H 0.61912 0.54268 0.51659 0.0
C3956 C 0.54358 0.50145 0.57367 0.0
C3957 C 0.52069 0.51678 0.58171 0.0
C3958 C 0.55694 0.51419 0.56131 0.0
C3959 C 0.54835 0.54347 0.5555 0.0
C3960 C 0.52508 0.55874 0.56355 0.0
C3961 C 0.5118 0.54593 0.57597 0.0
C3962 C 0.56668 0.5985 0.5229 0.0
C3963 C 0.59041 0.58358 0.51517 0.0
C3964 C 0.5534 0.58592 0.53532 0.0
C3965 C 0.56295 0.55732 0.5415 0.0
C3966 C 0.58718 0.54265 0.53381 0.0
C3967 C 0.60042 0.55529 0.52135 0.0
H3968 H 0.27253 0.11403 0.39676 0.0
H3969 H 0.3348 0.18934 0.40311 0.0
H3970 H 0.30372 0.08138 0.41227 0.0
H3971 H 0.36638 0.15658 0.41827 0.0
H3972 H 0.43651 0.08538 0.4433 0.0
H3973 H 0.40454 0.11775 0.42814 0.0
H3974 H 0.32915 0.05499 0.4332 0.0
H3975 H 0.36102 1.02297 0.4487 0.0
C3976 C 0.29281 0.12457 0.40122 0.0
C3977 C 0.29881 0.15676 0.39761 0.0
C3978 C 0.3117 0.10482 0.41063 0.0
C3979 C 0.33995 0.1139 0.41767 0.0
C3980 C 0.34606 0.14597 0.4139 0.0
C3981 C 0.32685 0.16588 0.40474 0.0
C3982 C 0.41316 0.07756 0.44146 0.0
C3983 C 0.40371 0.0492 0.44833 0.0
C3984 C 0.39373 0.09725 0.4323 0.0
C3985 C 0.36189 0.0914 0.42828 0.0
C3986 C 0.35248 0.06283 0.43505 0.0
C3987 C 0.37175 1.04345 0.44447 0.0
H3988 H 0.3106 0.11767 0.69714 0.0
H3989 H 0.25223 0.19544 0.68892 0.0
H3990 H 0.27892 0.08549 0.68172 0.0
H3991 H 0.2203 0.16328 0.67377 0.0
H3992 H 0.1499 0.09511 0.64755 0.0
H3993 H 0.18218 0.12706 0.66271 0.0
H3994 H 0.25245 0.05731 0.66202 0.0
H3995 H 0.22022 1.02558 0.6467 0.0
C3996 C 0.29112 0.12888 0.69228 0.0
C3997 C 0.28637 0.16157 0.69535 0.0
C3998 C 0.27193 0.10941 0.68291 0.0
C3999 C 0.24462 0.11937 0.67534 0.0
C4000 C 0.23979 0.15197 0.67856 0.0
C4001 C 0.25924 0.17153 0.68772 0.0
C4002 C 0.1722 0.08569 0.65035 0.0
C4003 C 0.18024 0.05559 0.64466 0.0
C4004 C 0.19182 0.10509 0.65953 0.0
C4005 C 0.22239 0.09722 0.66474 0.0
C4006 C 0.23026 0.06688 0.65917 0.0
C4007 C 0.21081 1.04771 0.64981 0.0
H4008 H 0.15589 1.00302 0.94381 0.0
H4009 H 0.23166 0.06434 0.95069 0.0
H4010 H 0.18853 0.97112 0.92873 0.0
H4011 H 0.26414 1.0329 0.93532 0.0
H4012 H 0.32324 0.97579 0.89959 0.0
H4013 H 0.29119 1.0074 0.91506 0.0
H4014 H 0.22667 0.93291 0.91839 0.0
H4015 H 0.25915 0.90111 0.90321 0.0
C4016 C 0.17946 1.01062 0.94236 0.0
C4017 C 0.1888 1.03847 0.94961 0.0
C4018 C 0.19927 0.99127 0.93323 0.0
C4019 C 0.2314 0.99707 0.92965 0.0
C4020 C 0.24064 1.02516 0.93681 0.0
C4021 C 0.22099 1.04418 0.94616 0.0
C4022 C 0.30232 0.96522 0.9034 0.0
C4023 C 0.29606 0.93363 0.89901 0.0
C4024 C 0.28292 0.98434 0.9128 0.0
C4025 C 0.25385 0.97512 0.91908 0.0
C4026 C 0.24755 0.94357 0.9146 0.0
C4027 C 0.26727 0.92424 0.90543 0.0
H4028 H 0.33634 0.90792 0.18791 0.0
H4029 H 0.27799 0.98589 0.19566 0.0
H4030 H 0.3686 0.9399 0.17278 0.0
H4031 H 0.30986 1.01781 0.18022 0.0
H4032 H 0.36818 0.07647 0.14457 0.0
H4033 H 0.33587 1.04493 0.15994 0.0
H4034 H 0.40759 0.97687 0.16228 0.0
H4035 H 0.44009 1.00878 0.14717 0.0
C4036 C 0.32941 0.93184 0.18662 0.0
C4037 C 0.30219 0.94193 0.19413 0.0
C4038 C 0.34904 0.95129 0.17746 0.0
C4039 C 0.34427 0.98385 0.1741 0.0
C4040 C 0.31683 0.9939 0.18152 0.0
C4041 C 0.29752 0.97458 0.1909 0.0
C4042 C 0.37798 0.05483 0.14811 0.0
C4043 C 0.40907 1.04742 0.14345 0.0
C4044 C 0.35844 1.03574 0.15748 0.0
C4045 C 0.36664 1.00591 0.16349 0.0
C4046 C 0.39767 0.99845 0.15873 0.0
C4047 C 0.41741 1.0178 0.14957 0.0
H4048 H 0.75834 0.90692 0.69328 0.0
H4049 H 0.8217 0.98179 0.69843 0.0
H4050 H 0.72649 0.93932 0.67808 0.0
H4051 H 0.79022 1.01405 0.68288 0.0
H4052 H 0.73232 0.07097 0.64612 0.0
H4053 H 0.76442 1.03936 0.66168 0.0
H4054 H 0.68811 0.97853 0.66836 0.0
H4055 H 0.65588 1.01063 0.65318 0.0
C4056 C 0.7665 0.9302 0.69137 0.0
C4057 C 0.79494 0.93931 0.69819 0.0
C4058 C 0.74711 0.9499 0.68219 0.0
C4059 C 0.75341 0.98171 0.67807 0.0
C4060 C 0.78205 0.99078 0.6848 0.0
C4061 C 0.80111 0.97127 0.69425 0.0
C4062 C 0.72142 0.05101 0.65073 0.0
C4063 C 0.68914 1.04568 0.64728 0.0
C4064 C 0.74084 1.03187 0.66018 0.0
C4065 C 0.73127 1.00395 0.66742 0.0
C4066 C 0.69909 0.99851 0.66382 0.0
C4067 C 0.67951 1.01801 0.65463 0.0
H4068 H 0.94071 1.00626 0.44079 0.0
H4069 H 0.86661 0.07087 0.44557 0.0
H4070 H 0.90818 0.97429 0.42579 0.0
H4071 H 0.83422 1.03927 0.4302 0.0
H4072 H 0.77718 0.98085 0.39366 0.0
H4073 H 0.80889 1.0131 0.40904 0.0
H4074 H 0.86866 0.93589 0.41636 0.0
H4075 H 0.83639 0.90347 0.4014 0.0
C4076 C 0.91757 1.01467 0.43884 0.0
C4077 C 0.90874 1.04352 0.4455 0.0
C4078 C 0.89779 0.99521 0.42977 0.0
C4079 C 0.86614 1.00179 0.4256 0.0
C4080 C 0.85734 1.03084 0.43217 0.0
C4081 C 0.87694 0.04998 0.44151 0.0
C4082 C 0.7969 0.96976 0.39838 0.0
C4083 C 0.8019 0.93716 0.39517 0.0
C4084 C 0.81611 0.98928 0.40772 0.0
C4085 C 0.8438 0.97954 0.41507 0.0
C4086 C 0.8489 0.94705 0.41171 0.0
C4087 C 0.82931 0.92736 0.40264 0.0
H4088 H 0.86698 1.02142 0.14883 0.0
H4089 H 0.93918 0.08852 0.15116 0.0
H4090 H 0.8349 0.05351 0.16412 0.0
H4091 H 0.90705 0.12078 0.16623 0.0
H4092 H 0.83653 0.1909 0.19176 0.0
H4093 H 0.86851 0.1583 0.17673 0.0
H4094 H 0.80891 0.08135 0.1843 0.0
H4095 H 0.7773 0.11388 0.19962 0.0
C4096 C 0.87699 1.04293 0.15234 0.0
C4097 C 0.90824 0.04979 0.14774 0.0
C4098 C 0.85756 0.06238 0.16166 0.0
C4099 C 0.86595 0.09219 0.1676 0.0
C4100 C 0.89702 0.09922 0.1628 0.0
C4101 C 0.91664 0.0795 0.15372 0.0
C4102 C 0.82933 0.16708 0.19051 0.0
C4103 C 0.80195 0.15748 0.19802 0.0
C4104 C 0.8488 0.14724 0.18142 0.0
C4105 C 0.84373 0.11471 0.17812 0.0
C4106 C 0.81614 0.10516 0.18555 0.0
C4107 C 0.79698 0.12487 0.19486 0.0
H4108 H 0.64141 0.09074 0.93599 0.0
H4109 H 0.72062 1.0378 0.94767 0.0
H4110 H 0.67412 0.12349 0.92133 0.0
H4111 H 0.75326 0.06998 0.93268 0.0
H4112 H 0.81446 0.12803 0.89774 0.0
H4113 H 0.78215 0.09529 0.91263 0.0
H4114 H 0.71084 0.16393 0.91152 0.0
H4115 H 0.74344 0.1968 0.89684 0.0
C4116 C 0.66578 0.08517 0.93571 0.0
C4117 C 0.67595 0.05931 0.94415 0.0
C4118 C 0.68564 0.10506 0.92682 0.0
C4119 C 0.71881 0.10185 0.92468 0.0
C4120 C 0.72894 0.07571 0.93301 0.0
C4121 C 0.70917 0.05622 0.94213 0.0
C4122 C 0.79187 0.13694 0.90034 0.0
C4123 C 0.78381 0.16729 0.89487 0.0
C4124 C 0.77234 0.11722 0.90946 0.0
C4125 C 0.74136 0.12445 0.91437 0.0
C4126 C 0.73329 0.15476 0.90883 0.0
C4127 C 0.75307 0.17474 0.89994 0.0
H4128 H 0.78325 0.61277 0.8947 0.0
H4129 H 0.84052 0.69054 0.9038 0.0
H4130 H 0.81469 0.58015 0.91009 0.0
H4131 H 0.8723 0.65792 0.91894 0.0
H4132 H 0.9417 0.58959 0.94564 0.0
H4133 H 0.90996 0.62173 0.93034 0.0
H4134 H 0.84091 0.5511 0.92957 0.0
H4135 H 0.87275 0.51895 0.94498 0.0
C4136 C 0.80246 0.62389 0.89975 0.0
C4137 C 0.80702 0.6567 0.8969 0.0
C4138 C 0.82151 0.60415 0.90911 0.0
C4139 C 0.84846 0.61393 0.91691 0.0
C4140 C 0.85309 0.6467 0.91394 0.0
C4141 C 0.83377 0.66653 0.90477 0.0
C4142 C 0.92008 0.5797 0.9423 0.0
C4143 C 0.91245 0.54902 0.94749 0.0
C4144 C 0.90062 0.59938 0.93312 0.0
C4145 C 0.87051 0.59142 0.9275 0.0
C4146 C 0.86284 0.56071 0.9327 0.0
C4147 C 0.88211 0.54122 0.94207 0.0
H4148 H 0.72389 0.57051 0.13048 0.0
H4149 H 0.65895 0.55731 0.16264 0.0
H4150 H 0.75526 0.60395 0.14549 0.0
H4151 H 0.69084 0.58964 0.1778 0.0
H4152 H 0.76841 0.63906 0.2093 0.0
H4153 H 0.7366 0.60632 0.1942 0.0
H4154 H 0.77287 0.65375 0.15954 0.0
H4155 H 0.80372 0.68727 0.1747 0.0
C4156 C 0.71544 0.57398 0.14073 0.0
C4157 C 0.68636 0.55897 0.14419 0.0
C4158 C 0.73443 0.59431 0.14983 0.0
C4159 C 0.72796 0.60201 0.164 0.0
C4160 C 0.6992 0.58645 0.16752 0.0
C4161 C 0.67975 0.56694 0.1583 0.0
C4162 C 0.77035 0.64329 0.19849 0.0
C4163 C 0.79104 0.66814 0.19433 0.0
C4164 C 0.75096 0.62354 0.18932 0.0
C4165 C 0.74983 0.62485 0.1745 0.0
C4166 C 0.77087 0.64946 0.17035 0.0
C4167 C 0.78956 0.66982 0.17954 0.0
H4168 H 0.75545 0.40282 0.40215 0.0
H4169 H 0.81514 0.47979 0.39484 0.0
H4170 H 0.72366 0.43493 0.41739 0.0
H4171 H 0.78352 0.51195 0.41033 0.0
H4172 H 0.72469 0.57149 0.44542 0.0
H4173 H 0.7569 0.53985 0.43002 0.0
H4174 H 0.68598 0.47112 0.42858 0.0
H4175 H 0.65374 0.50299 0.44382 0.0
C4176 C 0.76279 0.42654 0.40357 0.0
C4177 C 0.79023 0.4363 0.39618 0.0
C4178 C 0.74341 0.44607 0.41278 0.0
C4179 C 0.74864 0.47842 0.41627 0.0
C4180 C 0.77624 0.48821 0.40892 0.0
C4181 C 0.79537 0.46876 0.39951 0.0
C4182 C 0.71517 0.54959 0.44214 0.0
C4183 C 0.68446 0.5419 0.44711 0.0
C4184 C 0.73457 0.53049 0.43272 0.0
C4185 C 0.72649 0.50049 0.42693 0.0
C4186 C 0.69577 0.49283 0.43195 0.0
C4187 C 0.67619 0.51215 0.44119 0.0
H4188 H 0.83168 0.40916 0.69119 0.0
H4189 H 0.76511 0.48212 0.69378 0.0
H4190 H 0.86385 0.44134 0.67612 0.0
H4191 H 0.79703 0.5142 0.67841 0.0
H4192 H 0.85704 0.5715 0.64265 0.0
H4193 H 0.82462 0.53995 0.65801 0.0
H4194 H 0.90145 0.48015 0.66582 0.0
H4195 H 0.93397 0.51217 0.65079 0.0
C4196 C 0.82282 0.43193 0.68871 0.0
C4197 C 0.79331 0.44053 0.69478 0.0
C4198 C 0.84244 0.45155 0.67961 0.0
C4199 C 0.83548 0.48281 0.67485 0.0
C4200 C 0.80583 0.49138 0.68085 0.0
C4201 C 0.78646 0.47195 0.69019 0.0
C4202 C 0.86802 0.55179 0.64747 0.0
C4203 C 0.90055 0.54674 0.64435 0.0
C4204 C 0.84838 0.53266 0.65681 0.0
C4205 C 0.85792 0.50502 0.66431 0.0
C4206 C 0.8904 0.49988 0.66107 0.0
C4207 C 0.91017 0.51935 0.65196 0.0
H4208 H 0.25637 0.39959 0.19247 0.0
H4209 H 0.31669 0.47623 0.19939 0.0
H4210 H 0.22458 0.43185 0.17715 0.0
H4211 H 0.28549 0.50827 0.18365 0.0
H4212 H 0.22933 0.5645 0.14619 0.0
H4213 H 0.26111 0.53309 0.16195 0.0
H4214 H 0.18542 0.47099 0.16769 0.0
H4215 H 0.1534 0.50299 0.15235 0.0
C4216 C 0.26376 0.42329 0.19098 0.0
C4217 C 0.29126 0.43301 0.19835 0.0
C4218 C 0.24449 0.44285 0.1817 0.0
C4219 C 0.25012 0.47503 0.178 0.0
C4220 C 0.27792 0.48467 0.18523 0.0
C4221 C 0.29679 0.4653 0.19479 0.0
C4222 C 0.21851 0.5443 0.15063 0.0
C4223 C 0.1865 0.53852 0.14686 0.0
C4224 C 0.23773 0.5253 0.1602 0.0
C4225 C 0.22821 0.4971 0.16723 0.0
C4226 C 0.19631 0.49122 0.16331 0.0
C4227 C 0.17689 0.51061 0.15403 0.0
H4228 H 0.42649 0.55388 0.92492 0.0
H4229 H 0.36509 0.53563 0.95795 0.0
H4230 H 0.39406 0.52216 0.90974 0.0
H4231 H 0.33327 0.50273 0.94288 0.0
H4232 H 0.28578 0.42004 0.91306 0.0
H4233 H 0.31712 0.45294 0.92819 0.0
H4234 H 0.34581 0.50676 0.89396 0.0
H4235 H 0.31332 0.47454 0.87888 0.0
C4236 C 0.40637 0.54326 0.92944 0.0
C4237 C 0.40087 0.54968 0.94379 0.0
C4238 C 0.3866 0.52412 0.9202 0.0
C4239 C 0.35868 0.50737 0.92394 0.0
C4240 C 0.35336 0.51345 0.93836 0.0
C4241 C 0.3726 0.53346 0.94749 0.0
C4242 C 0.29845 0.43865 0.90828 0.0
C4243 C 0.29474 0.44209 0.89362 0.0
C4244 C 0.31736 0.45873 0.91748 0.0
C4245 C 0.3365 0.48489 0.91344 0.0
C4246 C 0.33309 0.48814 0.89873 0.0
C4247 C 0.31335 0.46866 0.88958 0.0
H4248 H 0.44671 0.59167 0.65379 0.0
H4249 H 0.37008 0.53236 0.64557 0.0
H4250 H 0.41406 0.62356 0.66882 0.0
H4251 H 0.33753 0.56374 0.661 0.0
H4252 H 0.27965 0.62012 0.69792 0.0
H4253 H 0.31152 0.58817 0.68245 0.0
H4254 H 0.37499 0.66323 0.678 0.0
H4255 H 0.34256 0.69545 0.69303 0.0
C4256 C 0.42295 0.58448 0.65495 0.0
C4257 C 0.41344 0.55719 0.64732 0.0
C4258 C 0.40312 0.60386 0.66405 0.0
C4259 C 0.37072 0.59861 0.66729 0.0
C4260 C 0.36125 0.57104 0.65978 0.0
C4261 C 0.38094 0.55204 0.65041 0.0
C4262 C 0.30025 0.63079 0.69382 0.0
C4263 C 0.30622 0.66271 0.69784 0.0
C4264 C 0.31955 0.61145 0.68443 0.0
C4265 C 0.3483 0.6207 0.67785 0.0
C4266 C 0.35436 0.65252 0.68202 0.0
C4267 C 0.33469 0.67207 0.69113 0.0
H4268 H 0.21726 0.57483 0.45918 0.0
H4269 H 0.16329 0.54595 0.4251 0.0
H4270 H 0.24873 0.60791 0.44404 0.0
H4271 H 0.19569 0.57771 0.40987 0.0
H4272 H 0.28072 0.62476 0.38053 0.0
H4273 H 0.24824 0.5926 0.39564 0.0
H4274 H 0.26018 0.65842 0.42766 0.0
H4275 H 0.29121 0.69133 0.41232 0.0
C4276 C 0.2114 0.57462 0.44848 0.0
C4277 C 0.18527 0.5554 0.4445 0.0
C4278 C 0.23043 0.59473 0.4393 0.0
C4279 C 0.22717 0.5979 0.42458 0.0
C4280 C 0.20144 0.57816 0.42058 0.0
C4281 C 0.18172 0.55895 0.42983 0.0
C4282 C 0.27686 0.63338 0.39072 0.0
C4283 C 0.29082 0.66314 0.39406 0.0
C4284 C 0.25714 0.61391 0.39988 0.0
C4285 C 0.24923 0.62043 0.41403 0.0
C4286 C 0.26374 0.6499 0.41743 0.0
C4287 C 0.2825 0.6699 0.40812 0.0
H4288 H 0.36201 0.14226 0.29454 0.0
H4289 H 0.32071 0.08767 0.32674 0.0
H4290 H 0.38415 0.09497 0.28504 0.0
H4291 H 0.34419 1.042 0.31783 0.0
H4292 H 0.36205 0.9585 0.29822 0.0
H4293 H 0.38362 1.00575 0.30793 0.0
H4294 H 0.34555 0.05869 0.27462 0.0
H4295 H 0.32263 1.01304 0.26547 0.0
C4296 C 0.35836 0.12062 0.29988 0.0
C4297 C 0.33823 0.11899 0.31111 0.0
C4298 C 0.37159 0.09362 0.29454 0.0
C4299 C 0.36533 0.06468 0.3005 0.0
C4300 C 0.34958 0.06387 0.31296 0.0
C4301 C 0.33586 0.09054 0.3181 0.0
C4302 C 0.35873 0.98011 0.29282 0.0
C4303 C 0.33922 0.98178 0.28136 0.0
C4304 C 0.37163 1.0071 0.29828 0.0
C4305 C 0.36565 1.03602 0.29222 0.0
C4306 C 0.35067 1.03683 0.27958 0.0
C4307 C 0.33727 1.01017 0.2743 0.0
H4308 H 0.23492 0.10402 0.57814 0.0
H4309 H 0.31918 0.07799 0.59891 0.0
H4310 H 0.26546 0.12408 0.55921 0.0
H4311 H 0.34902 0.09842 0.58056 0.0
H4312 H 0.32568 0.06516 0.52757 0.0
H4313 H 0.29118 0.09053 0.54336 0.0
H4314 H 0.36935 0.13208 0.56367 0.0
H4315 H 0.40404 0.10524 0.54807 0.0
C4316 C 0.25985 0.10328 0.57888 0.0
C4317 C 0.27445 0.08828 0.58988 0.0
C4318 C 0.27734 0.1151 0.56808 0.0
C4319 C 0.30971 0.11223 0.56815 0.0
C4320 C 0.3242 0.10127 0.58004 0.0
C4321 C 0.30684 0.08928 0.5907 0.0
C4322 C 0.33542 0.08106 0.53493 0.0
C4323 C 0.36744 0.08235 0.53699 0.0
C4324 C 0.31556 0.09582 0.54403 0.0
C4325 C 0.32762 0.11206 0.55525 0.0
C4326 C 0.35944 0.11866 0.55546 0.0
C4327 C 0.37934 0.10343 0.5465 0.0
H4328 H 0.23793 0.15555 0.80477 0.0
H4329 H 0.26908 0.09739 0.77158 0.0
H4330 H 0.21975 0.10942 0.81665 0.0
H4331 H 0.24961 0.05289 0.78289 0.0
H4332 H 0.24593 0.97241 0.80413 0.0
H4333 H 0.21745 1.01704 0.79537 0.0
H4334 H 0.25875 0.07456 0.82636 0.0
H4335 H 0.28676 1.03047 0.83503 0.0
C4336 C 0.24016 0.13333 0.79977 0.0
C4337 C 0.25658 0.13041 0.78746 0.0
C4338 C 0.22924 0.10694 0.80652 0.0
C4339 C 0.2341 0.07734 0.80094 0.0
C4340 C 0.2455 0.07519 0.78761 0.0
C4341 C 0.25692 0.10126 0.78102 0.0
C4342 C 0.24795 0.99439 0.80936 0.0
C4343 C 0.26959 0.99825 0.81988 0.0
C4344 C 0.23143 1.01989 0.80442 0.0
C4345 C 0.23681 0.04959 0.80981 0.0
C4346 C 0.25419 0.05215 0.82184 0.0
C4347 C 0.27056 1.0267 0.8268 0.0
H4348 H 0.31608 1.0131 1.01567 0.0
H4349 H 0.22434 0.98527 1.02755 0.0
H4350 H 0.33467 1.00258 1.03848 0.0
H4351 H 0.24304 0.97375 0.05046 0.0
H4352 H 0.27447 1.03311 0.08822 0.0
H4353 H 0.25535 1.01173 0.06709 0.0
H4354 H 0.34574 0.97365 0.05856 0.0
H4355 H 0.36502 0.99593 0.07975 0.0
C4356 C 0.3002 1.00337 1.02303 0.0
C4357 C 0.2687 1.00064 1.01998 0.0
C4358 C 0.31085 0.99718 1.03615 0.0
C4359 C 0.29017 0.98795 0.04643 0.0
C4360 C 0.25939 0.98156 1.04287 0.0
C4361 C 0.24869 0.98806 1.02977 0.0
C4362 C 0.28994 1.01909 0.08212 0.0
C4363 C 0.32136 1.01676 0.08544 0.0
C4364 C 0.27897 1.00667 0.06996 0.0
C4365 C 0.29921 0.99155 0.06093 0.0
C4366 C 0.32975 0.98586 0.06513 0.0
C4367 C 0.34078 0.99852 0.07726 0.0
H4368 H 0.7845 1.00059 0.78192 0.0
H4369 H 0.74381 0.92481 0.80434 0.0
H4370 H 0.76087 1.03716 0.7972 0.0
H4371 H 0.71987 0.96192 0.81984 0.0
H4372 H 0.74191 0.09969 0.82948 0.0
H4373 H 0.724 0.06444 0.81174 0.0
H4374 H 0.75487 0.98648 0.83581 0.0
H4375 H 0.77358 1.02088 0.85297 0.0
C4376 C 0.76921 0.99169 0.7897 0.0
C4377 C 0.76704 0.95971 0.79224 0.0
C4378 C 0.75541 1.01286 0.7985 0.0
C4379 C 0.73939 1.00241 0.81005 0.0
C4380 C 0.73286 0.9706 0.81123 0.0
C4381 C 0.74673 0.94935 0.80242 0.0
C4382 C 0.74435 0.07498 0.83108 0.0
C4383 C 0.76023 0.06335 0.84252 0.0
C4384 C 0.7337 0.0548 0.82098 0.0
C4385 C 0.73851 1.02268 0.82222 0.0
C4386 C 0.75051 1.01102 0.83448 0.0
C4387 C 0.76146 1.03106 0.84443 0.0
H4388 H 0.72275 0.97902 0.5501 0.0
H4389 H 0.77298 1.02624 0.58194 0.0
H4390 H 0.77127 0.95778 0.54157 0.0
H4391 H 0.82053 1.00445 0.57374 0.0
H4392 H 0.90536 0.99065 0.55326 0.0
H4393 H 0.8601 0.96793 0.56414 0.0
H4394 H 0.80359 0.99819 0.53045 0.0
H4395 H 0.84707 1.02244 0.52019 0.0
C4396 C 0.74384 0.98393 0.5556 0.0
C4397 C 0.74405 1.00559 0.5663 0.0
C4398 C 0.77158 0.97141 0.55081 0.0
C4399 C 0.7998 0.98033 0.55669 0.0
C4400 C 0.79926 0.99725 0.56888 0.0
C4401 C 0.77168 1.00997 0.57359 0.0
C4402 C 0.88338 0.99212 0.54806 0.0
C4403 C 0.88007 1.00976 0.53606 0.0
C4404 C 0.85756 0.97854 0.55421 0.0
C4405 C 0.82817 0.98174 0.54829 0.0
C4406 C 0.82585 0.99509 0.53531 0.0
C4407 C 0.85128 1.00925 0.52936 0.0
H4408 H 0.8271 1.00524 0.32567 0.0
H4409 H 0.86609 0.95275 0.29222 0.0
H4410 H 0.85059 0.0511 0.31726 0.0
H4411 H 0.88788 1.00056 0.28317 0.0
H4412 H 0.82325 0.08394 0.26621 0.0
H4413 H 0.84765 1.03775 0.27404 0.0
H4414 H 0.88952 0.08796 0.30717 0.0
H4415 H 0.86656 0.13595 0.29872 0.0
C4416 C 0.84168 1.00273 0.31683 0.0
C4417 C 0.84323 0.97486 0.30936 0.0
C4418 C 0.85545 1.02961 0.31198 0.0
C4419 C 0.87031 1.02971 0.29932 0.0
C4420 C 0.87597 1.00123 0.29285 0.0
C4421 C 0.86283 0.97393 0.29792 0.0
C4422 C 0.83899 0.08621 0.27469 0.0
C4423 C 0.84166 0.11403 0.28211 0.0
C4424 C 0.85327 0.0592 0.27919 0.0
C4425 C 0.86981 0.05899 0.29145 0.0
C4426 C 0.87637 0.08741 0.29779 0.0
C4427 C 0.86262 0.11479 0.29308 0.0
H4428 H 0.84068 0.06168 0.07026 0.0
H4429 H 0.91151 0.10455 1.04576 0.0
H4430 H 0.80159 0.08372 0.05601 0.0
H4431 H 0.87173 0.1274 1.03127 0.0
H4432 H 0.81362 0.06967 0.99955 0.0
H4433 H 0.84692 0.0974 1.01496 0.0
H4434 H 0.76972 0.1129 1.04202 0.0
H4435 H 0.73686 0.083 1.02689 0.0
C4436 C 0.84798 0.07716 0.0622 0.0
C4437 C 0.8793 0.08016 0.05879 0.0
C4438 C 0.82527 0.09011 0.05392 0.0
C4439 C 0.83339 0.1062 1.04197 0.0
C4440 C 0.86465 0.11397 1.04004 0.0
C4441 C 0.88748 0.10082 0.04832 0.0
C4442 C 0.80352 0.07992 1.00857 0.0
C4443 C 0.77322 0.07257 1.01244 0.0
C4444 C 0.8226 0.09629 1.01743 0.0
C4445 C 0.81148 0.1057 1.03025 0.0
C4446 C 0.77941 0.10449 1.03256 0.0
C4447 C 0.76042 0.08754 1.0238 0.0
H4448 H 0.82764 0.57963 0.82612 0.0
H4449 H 0.85928 0.63894 0.79356 0.0
H4450 H 0.85165 0.53587 0.81546 0.0
H4451 H 0.88321 0.59427 0.78258 0.0
H4452 H 0.8217 0.51556 0.76188 0.0
H4453 H 0.84774 0.5592 0.77162 0.0
H4454 H 0.88509 0.50071 0.80334 0.0
H4455 H 0.85899 0.45618 0.79331 0.0
C4456 C 0.84107 0.5838 0.81702 0.0
C4457 C 0.84016 0.61262 0.81036 0.0
C4458 C 0.85511 0.55839 0.81084 0.0
C4459 C 0.86818 0.56124 0.7978 0.0
C4460 C 0.87236 0.59114 0.79241 0.0
C4461 C 0.85841 0.6167 0.79865 0.0
C4462 C 0.83676 0.51134 0.77048 0.0
C4463 C 0.83694 0.48258 0.7772 0.0
C4464 C 0.85198 0.53668 0.77612 0.0
C4465 C 0.86737 0.53378 0.78867 0.0
C4466 C 0.87247 0.50387 0.79392 0.0
C4467 C 0.8573 0.4784 0.78823 0.0
H4468 H 0.84304 0.57206 1.0165 0.0
H4469 H 0.90239 0.60361 0.04911 0.0
H4470 H 0.80071 0.59994 1.02608 0.0
H4471 H 0.85847 0.63056 0.05924 0.0
H4472 H 0.77108 0.57648 0.07829 0.0
H4473 H 0.81844 0.59739 0.06971 0.0
H4474 H 0.76908 0.641 1.03663 0.0
H4475 H 0.72065 0.62064 1.04557 0.0
C4476 C 0.84772 0.58598 1.0254 0.0
C4477 C 0.87619 0.58428 1.03229 0.0
C4478 C 0.82304 0.6023 1.03094 0.0
C4479 C 0.82591 0.61673 1.04367 0.0
C4480 C 0.85542 0.61904 0.04955 0.0
C4481 C 0.88045 0.60311 1.04384 0.0
C4482 C 0.76966 0.59195 0.06964 0.0
C4483 C 0.74207 0.59549 0.06223 0.0
C4484 C 0.79719 0.60419 0.0647 0.0
C4485 C 0.7977 0.61972 0.05214 0.0
C4486 C 0.76945 0.62827 1.04614 0.0
C4487 C 0.74175 0.61625 0.05117 0.0
H4488 H 0.74349 0.42687 0.28732 0.0
H4489 H 0.78862 0.49957 0.31001 0.0
H4490 H 0.7245 0.46531 0.27109 0.0
H4491 H 0.76968 0.53756 0.294 0.0
H4492 H 0.75146 0.60147 0.26125 0.0
H4493 H 0.73371 0.56687 0.2793 0.0
H4494 H 0.76228 0.48791 0.25542 0.0
H4495 H 0.78089 0.52177 0.2379 0.0
C4496 C 0.74844 0.45111 0.28912 0.0
C4497 C 0.76844 0.46003 0.29968 0.0
C4498 C 0.73742 0.47313 0.27987 0.0
C4499 C 0.74635 0.50432 0.28104 0.0
C4500 C 0.76236 0.51374 0.29276 0.0
C4501 C 0.77338 0.49179 0.30198 0.0
C4502 C 0.75348 0.5767 0.25977 0.0
C4503 C 0.76848 0.56458 0.24822 0.0
C4504 C 0.74296 0.55691 0.27005 0.0
C4505 C 0.7469 0.52468 0.26888 0.0
C4506 C 0.75851 0.51258 0.25665 0.0
C4507 C 0.76934 0.53223 0.24651 0.0
H4508 H 0.73861 0.49085 0.51309 0.0
H4509 H 0.82312 0.51817 0.49301 0.0
H4510 H 0.76884 0.47036 0.53207 0.0
H4511 H 0.85268 0.4975 0.51143 0.0
H4512 H 0.90649 0.49247 0.54432 0.0
H4513 H 0.87331 0.46469 0.52843 0.0
H4514 H 0.79303 0.50343 0.54831 0.0
H4515 H 0.82606 0.52964 0.56439 0.0
C4516 C 0.76356 0.49177 0.51251 0.0
C4517 C 0.77829 0.50728 0.50172 0.0
C4518 C 0.78088 0.47973 0.52334 0.0
C4519 C 0.8132 0.48299 0.52352 0.0
C4520 C 0.8279 0.49437 0.51178 0.0
C4521 C 0.8107 0.50652 0.50108 0.0
C4522 C 0.88169 0.49344 0.54573 0.0
C4523 C 0.86872 0.51402 0.55519 0.0
C4524 C 0.86265 0.47767 0.5366 0.0
C4525 C 0.83061 0.48331 0.53658 0.0
C4526 C 0.81761 0.49893 0.54778 0.0
C4527 C 0.83663 0.51418 0.55706 0.0
H4528 H 0.27179 0.58307 0.32215 0.0
H4529 H 0.22363 0.65092 0.2978 0.0
H4530 H 0.24766 0.54215 0.30977 0.0
H4531 H 0.19773 0.60944 0.2855 0.0
H4532 H 0.25184 0.55693 0.25194 0.0
H4533 H 0.2215 0.58544 0.26813 0.0
H4534 H 0.22528 0.50764 0.29589 0.0
H4535 H 0.25847 0.48036 0.28006 0.0
C4536 C 0.25466 0.5893 0.31459 0.0
C4537 C 0.25098 0.62016 0.31041 0.0
C4538 C 0.24048 0.56552 0.30735 0.0
C4539 C 0.22251 0.57225 0.29572 0.0
C4540 C 0.21322 0.60326 0.29372 0.0
C4541 C 0.22789 0.62714 0.30083 0.0
C4542 C 0.24562 0.54562 0.2614 0.0
C4543 C 0.25959 0.51752 0.26517 0.0
C4544 C 0.22768 0.5619 0.27076 0.0
C4545 C 0.22327 0.55006 0.284 0.0
C4546 C 0.23035 0.51856 0.28623 0.0
C4547 C 0.24915 0.50261 0.27702 0.0
H4548 H 0.3927 0.4877 1.04613 0.0
H4549 H 0.33156 0.51816 1.01398 0.0
H4550 H 0.34982 0.46035 0.05679 0.0
H4551 H 0.28964 0.49071 1.02432 0.0
H4552 H 0.21093 0.47707 0.04639 0.0
H4553 H 0.25686 0.45416 1.03611 0.0
H4554 H 0.31278 0.49356 0.0681 0.0
H4555 H 0.26778 0.51662 0.07806 0.0
C4556 C 0.3705 0.48763 1.04104 0.0
C4557 C 0.36524 0.50652 1.02959 0.0
C4558 C 0.34599 0.47169 0.0471 0.0
C4559 C 0.31597 0.47449 1.04176 0.0
C4560 C 0.31227 0.48829 1.02889 0.0
C4561 C 0.33662 0.50433 1.0229 0.0
C4562 C 0.23294 0.47991 0.05147 0.0
C4563 C 0.23584 0.50006 0.06265 0.0
C4564 C 0.25923 0.46653 1.04563 0.0
C4565 C 0.28867 0.47318 0.05091 0.0
C4566 C 0.29062 0.4882 0.06358 0.0
C4567 C 0.26448 0.50168 0.06935 0.0
H4568 H 0.32097 0.56996 0.75862 0.0
H4569 H 0.37556 0.61551 0.78954 0.0
H4570 H 0.34175 0.52077 0.76539 0.0
H4571 H 0.39574 0.56523 0.79668 0.0
H4572 H 0.32778 0.49335 0.8187 0.0
H4573 H 0.35532 0.53483 0.8086 0.0
H4574 H 0.37637 0.47808 0.77369 0.0
H4575 H 0.35041 0.43436 0.78442 0.0
C4576 C 0.33858 0.56989 0.76643 0.0
C4577 C 0.34536 0.59674 0.77398 0.0
C4578 C 0.35075 0.54131 0.7703 0.0
C4579 C 0.36942 0.53895 0.78194 0.0
C4580 C 0.38069 0.56632 0.78788 0.0
C4581 C 0.36874 0.59508 0.78391 0.0
C4582 C 0.33952 0.48835 0.80927 0.0
C4583 C 0.33518 0.46028 0.80218 0.0
C4584 C 0.3557 0.51271 0.8034 0.0
C4585 C 0.36722 0.51014 0.79012 0.0
C4586 C 0.36708 0.4809 0.78384 0.0
C4587 C 0.35154 0.45603 0.78991 0.0
H4588 H 0.22462 0.61997 0.54116 0.0
H4589 H 0.27289 0.56927 0.50973 0.0
H4590 H 0.2739 0.64004 0.54934 0.0
H4591 H 0.32123 0.59002 0.51756 0.0
H4592 H 0.40738 0.60666 0.53734 0.0
H4593 H 0.36136 0.62778 0.52633 0.0
H4594 H 0.3063 0.59908 0.56065 0.0
H4595 H 0.35053 0.57622 0.57105 0.0
C4596 C 0.24547 0.61401 0.53567 0.0
C4597 C 0.24483 0.59186 0.52517 0.0
C4598 C 0.27363 0.62585 0.54025 0.0
C4599 C 0.30146 0.61586 0.53434 0.0
C4600 C 0.30024 0.59812 0.52239 0.0
C4601 C 0.27222 0.58603 0.5179 0.0
C4602 C 0.38555 0.60515 0.54264 0.0
C4603 C 0.38294 0.58844 0.55493 0.0
C4604 C 0.3593 0.61781 0.53641 0.0
C4605 C 0.33016 0.61473 0.54253 0.0
C4606 C 0.32839 0.60214 0.55566 0.0
C4607 C 0.35425 0.58882 0.5617 0.0
loop_
_geom_bond_atom_site_label_1
_geom_bond_atom_site_label_2
_geom_bond_distance
_geom_bond_site_symmetry_2
_ccdc_geom_bond_type
Gd0 N31 2.661 . S
Gd0 N37 2.601 . S
Gd0 O44 2.545 . S
Gd0 O45 2.606 . S
Gd0 O47 2.429 . S
Gd0 O48 2.545 . S
Gd0 O49 2.412 . S
Gd0 O51 2.362 . S
Gd0 O52 2.324 . S
Gd0 C59 2.828 . S
Gd1 N10 2.661 . S
Gd1 N14 2.601 . S
Gd1 O45 2.362 . S
Gd1 O46 2.324 . S
Gd1 O50 2.545 . S
Gd1 O51 2.606 . S
Gd1 O53 2.429 . S
Gd1 O54 2.545 . S
Gd1 O55 2.412 . S
Gd1 C68 2.828 . S
C2 C5 1.417 . S
C2 C7 1.431 . S
C2 C8 1.412 . S
C3 C6 1.437 . S
C3 C7 1.317 . S
C3 H22 0.929 . S
C4 C5 1.426 . S
C4 C6 1.413 . S
C4 N14 1.359 . S
C5 C2 1.417 . S
C5 C4 1.426 . S
C5 N10 1.350 . S
C6 C3 1.437 . S
C6 C4 1.413 . S
C6 C16 1.391 . S
C7 C2 1.431 . S
C7 C3 1.317 . S
C7 H18 0.930 . S
C8 C2 1.412 . S
C8 C9 1.355 . S
C8 H20 0.930 . S
C9 C8 1.355 . S
C9 C11 1.402 . S
C9 H21 0.930 . S
N10 Gd1 2.661 . S
N10 C5 1.350 . S
N10 C11 1.307 . S
C11 C9 1.402 . S
C11 N10 1.307 . S
C11 H12 0.930 . S
H12 C11 0.930 . S
C13 N14 1.334 . S
C13 C15 1.394 . S
C13 H17 0.930 . S
N14 Gd1 2.601 . S
N14 C4 1.359 . S
N14 C13 1.334 . S
C15 C13 1.394 . S
C15 C16 1.359 . S
C15 H27 0.930 . S
C16 C6 1.391 . S
C16 C15 1.359 . S
C16 H28 0.929 . S
H17 C13 0.930 . S
H18 C7 0.930 . S
H19 C36 0.930 . S
H20 C8 0.930 . S
H21 C9 0.930 . S
H22 C3 0.929 . S
H23 C41 0.930 . S
H24 C32 0.930 . S
H25 C33 0.930 . S
H26 C57 0.929 . S
H27 C15 0.930 . S
H28 C16 0.929 . S
H29 C58 0.930 . S
H30 C39 0.930 . S
N31 Gd0 2.661 . S
N31 C35 1.350 . S
N31 C36 1.307 . S
C32 H24 0.930 . S
C32 C33 1.355 . S
C32 C34 1.412 . S
C33 H25 0.930 . S
C33 C32 1.355 . S
C33 C36 1.402 . S
C34 C32 1.412 . S
C34 C35 1.417 . S
C34 C58 1.431 . S
C35 N31 1.350 . S
C35 C34 1.417 . S
C35 C38 1.426 . S
C36 H19 0.930 . S
C36 N31 1.307 . S
C36 C33 1.402 . S
N37 Gd0 2.601 . S
N37 C38 1.359 . S
N37 C41 1.334 . S
C38 C35 1.426 . S
C38 N37 1.359 . S
C38 C42 1.413 . S
C39 H30 0.930 . S
C39 C40 1.359 . S
C39 C41 1.394 . S
C40 C39 1.359 . S
C40 C42 1.391 . S
C40 H43 0.929 . S
C41 H23 0.930 . S
C41 N37 1.334 . S
C41 C39 1.394 . S
C42 C38 1.413 . S
C42 C40 1.391 . S
C42 C57 1.437 . S
H43 C40 0.929 . S
O44 Gd0 2.545 . S
O44 C59 1.258 . S
O45 Gd0 2.606 . S
O45 Gd1 2.362 . S
O45 C56 1.284 . S
O46 Gd1 2.324 . S
O46 C66 1.254 . S
O47 Gd0 2.429 . S
O47 C66 1.268 . S
O48 Gd0 2.545 . S
O48 C56 1.250 . S
O49 Gd0 2.412 . S
O49 C59 1.252 . S
O50 Gd1 2.545 . S
O50 C68 1.258 . S
O51 Gd0 2.362 . S
O51 Gd1 2.606 . S
O51 C67 1.284 . S
O52 Gd0 2.324 . S
O52 C75 1.254 . S
O53 Gd1 2.429 . S
O53 C75 1.268 . S
O54 Gd1 2.545 . S
O54 C67 1.250 . S
O55 Gd1 2.412 . S
O55 C68 1.252 . S
C56 O45 1.284 . S
C56 O48 1.250 . S
C57 H26 0.929 . S
C57 C42 1.437 . S
C57 C58 1.317 . S
C58 H29 0.930 . S
C58 C34 1.431 . S
C58 C57 1.317 . S
C59 Gd0 2.828 . S
C59 O44 1.258 . S
C59 O49 1.252 . S
C59 C60 1.497 . S
C60 C59 1.497 . S
C60 C61 1.395 . S
C60 C62 1.380 . S
C61 C60 1.395 . S
C61 C64 1.398 . S
C61 H76 0.930 . S
C62 C60 1.380 . S
C62 C63 1.391 . S
C62 H77 0.930 . S
C63 C62 1.391 . S
C63 C65 1.387 . S
C64 C61 1.398 . S
C64 C65 1.380 . S
C64 H78 0.930 . S
C65 C63 1.387 . S
C65 C64 1.380 . S
C65 H79 0.930 . S
C66 O46 1.254 . S
C66 O47 1.268 . S
C67 O51 1.284 . S
C67 O54 1.250 . S
C68 Gd1 2.828 . S
C68 O50 1.258 . S
C68 O55 1.252 . S
C68 C69 1.497 . S
C69 C68 1.497 . S
C69 C70 1.395 . S
C69 C71 1.380 . S
C70 C69 1.395 . S
C70 C73 1.398 . S
C70 H80 0.930 . S
C71 C69 1.380 . S
C71 C72 1.391 . S
C71 H81 0.930 . S
C72 C71 1.391 . S
C72 C74 1.387 . S
C73 C70 1.398 . S
C73 C74 1.380 . S
C73 H82 0.930 . S
C74 C72 1.387 . S
C74 C73 1.380 . S
C74 H83 0.930 . S
C75 O52 1.254 . S
C75 O53 1.268 . S
H76 C61 0.930 . S
H77 C62 0.930 . S
H78 C64 0.930 . S
H79 C65 0.930 . S
H80 C70 0.930 . S
H81 C71 0.930 . S
H82 C73 0.930 . S
H83 C74 0.930 . S
Gd84 N115 2.661 . S
Gd84 N121 2.601 . S
Gd84 O128 2.545 . S
Gd84 O129 2.606 . S
Gd84 O131 2.429 . S
Gd84 O132 2.545 . S
Gd84 O133 2.412 . S
Gd84 O135 2.362 . S
Gd84 O136 2.324 . S
Gd84 C143 2.828 . S
Gd85 N94 2.661 1_455 S
Gd85 N98 2.606 . S
Gd85 O129 2.362 . S
Gd85 O130 2.324 . S
Gd85 O134 2.545 . S
Gd85 O135 2.606 . S
Gd85 O137 2.429 . S
Gd85 O138 2.545 . S
Gd85 O139 2.412 1_455 S
Gd85 C152 2.828 1_455 S
C86 C89 1.417 . S
C86 C91 1.431 1_565 S
C86 C92 1.412 . S
C87 C90 1.437 . S
C87 C91 1.317 . S
C87 H106 0.929 . S
C88 C89 1.426 1_545 S
C88 C90 1.413 . S
C88 N98 1.358 1_645 S
C89 C86 1.417 . S
C89 C88 1.426 1_565 S
C89 N94 1.350 . S
C90 C87 1.437 . S
C90 C88 1.413 . S
C90 C100 1.391 . S
C91 C86 1.431 1_545 S
C91 C87 1.317 . S
C91 H102 0.930 . S
C92 C86 1.412 . S
C92 C93 1.355 . S
C92 H104 0.930 . S
C93 C92 1.355 . S
C93 C95 1.402 . S
C93 H105 0.930 . S
N94 Gd85 2.661 1_655 S
N94 C89 1.350 . S
N94 C95 1.307 . S
C95 C93 1.402 . S
C95 N94 1.307 . S
C95 H96 0.930 . S
H96 C95 0.930 . S
C97 N98 1.331 1_545 S
C97 C99 1.394 1_455 S
C97 H101 0.930 . S
N98 Gd85 2.606 . S
N98 C88 1.358 1_465 S
N98 C97 1.331 1_565 S
C99 C97 1.394 1_655 S
C99 C100 1.359 . S
C99 H111 0.930 1_655 S
C100 C90 1.391 . S
C100 C99 1.359 . S
C100 H112 0.929 . S
H101 C97 0.930 . S
H102 C91 0.930 . S
H103 C120 0.930 . S
H104 C92 0.930 . S
H105 C93 0.930 . S
H106 C87 0.929 . S
H107 C125 0.930 . S
H108 C116 0.930 . S
H109 C117 0.930 . S
H110 C141 0.929 . S
H111 C99 0.930 1_455 S
H112 C100 0.929 . S
H113 C142 0.930 . S
H114 C123 0.930 . S
N115 Gd84 2.661 . S
N115 C119 1.350 . S
N115 C120 1.307 . S
C116 H108 0.930 . S
C116 C117 1.355 . S
C116 C118 1.412 . S
C117 H109 0.930 . S
C117 C116 1.355 . S
C117 C120 1.402 . S
C118 C116 1.412 . S
C118 C119 1.417 . S
C118 C142 1.431 . S
C119 N115 1.350 . S
C119 C118 1.417 . S
C119 C122 1.426 . S
C120 H103 0.930 . S
C120 N115 1.307 . S
C120 C117 1.402 . S
N121 Gd84 2.601 . S
N121 C122 1.359 . S
N121 C125 1.334 . S
C122 C119 1.426 . S
C122 N121 1.359 . S
C122 C126 1.413 . S
C123 H114 0.930 . S
C123 C124 1.359 . S
C123 C125 1.394 . S
C124 C123 1.359 . S
C124 C126 1.391 . S
C124 H127 0.929 . S
C125 H107 0.930 . S
C125 N121 1.334 . S
C125 C123 1.394 . S
C126 C122 1.413 . S
C126 C124 1.391 . S
C126 C141 1.437 . S
H127 C124 0.929 . S
O128 Gd84 2.545 . S
O128 C143 1.258 . S
O129 Gd84 2.606 . S
O129 Gd85 2.362 . S
O129 C140 1.284 . S
O130 Gd85 2.324 . S
O130 C150 1.254 . S
O131 Gd84 2.429 . S
O131 C150 1.268 . S
O132 Gd84 2.545 . S
O132 C140 1.250 . S
O133 Gd84 2.412 . S
O133 C143 1.252 . S
O134 Gd85 2.545 . S
O134 C152 1.258 1_455 S
O135 Gd84 2.362 . S
O135 Gd85 2.606 . S
O135 C151 1.284 . S
O136 Gd84 2.324 . S
O136 C159 1.254 . S
O137 Gd85 2.429 . S
O137 C159 1.268 . S
O138 Gd85 2.545 . S
O138 C151 1.250 . S
O139 Gd85 2.412 1_655 S
O139 C152 1.252 . S
C140 O129 1.284 . S
C140 O132 1.250 . S
C141 H110 0.929 . S
C141 C126 1.437 . S
C141 C142 1.317 . S
C142 H113 0.930 . S
C142 C118 1.431 . S
C142 C141 1.317 . S
C143 Gd84 2.828 . S
C143 O128 1.258 . S
C143 O133 1.252 . S
C143 C144 1.497 . S
C144 C143 1.497 . S
C144 C145 1.395 . S
C144 C146 1.380 . S
C145 C144 1.395 . S
C145 C148 1.398 . S
C145 H160 0.930 . S
C146 C144 1.380 . S
C146 C147 1.391 . S
C146 H161 0.930 . S
C147 C146 1.391 . S
C147 C149 1.387 . S
C148 C145 1.398 . S
C148 C149 1.380 . S
C148 H162 0.930 . S
C149 C147 1.387 . S
C149 C148 1.380 . S
C149 H163 0.930 . S
C150 O130 1.254 . S
C150 O131 1.268 . S
C151 O135 1.284 . S
C151 O138 1.250 . S
C152 Gd85 2.828 1_655 S
C152 O134 1.258 1_655 S
C152 O139 1.252 . S
C152 C153 1.497 . S
C153 C152 1.497 . S
C153 C154 1.395 . S
C153 C155 1.380 . S
C154 C153 1.395 . S
C154 C157 1.398 . S
C154 H164 0.930 . S
C155 C153 1.380 . S
C155 C156 1.391 . S
C155 H165 0.930 . S
C156 C155 1.391 . S
C156 C158 1.387 . S
C157 C154 1.398 . S
C157 C158 1.380 . S
C157 H166 0.930 . S
C158 C156 1.387 . S
C158 C157 1.380 . S
C158 H167 0.930 . S
C159 O136 1.254 . S
C159 O137 1.268 . S
H160 C145 0.930 . S
H161 C146 0.930 . S
H162 C148 0.930 . S
H163 C149 0.930 . S
H164 C154 0.930 . S
H165 C155 0.930 . S
H166 C157 0.930 . S
H167 C158 0.930 . S
Gd168 N199 2.661 . S
Gd168 N205 2.601 . S
Gd168 O212 2.545 . S
Gd168 O213 2.606 . S
Gd168 O215 2.429 . S
Gd168 O216 2.545 . S
Gd168 O217 2.412 . S
Gd168 O219 2.362 . S
Gd168 O220 2.324 . S
Gd168 C227 2.828 . S
Gd169 N178 2.661 . S
Gd169 N182 2.601 . S
Gd169 O213 2.362 . S
Gd169 O214 2.324 . S
Gd169 O218 2.545 . S
Gd169 O219 2.606 . S
Gd169 O221 2.429 . S
Gd169 O222 2.545 . S
Gd169 O223 2.412 . S
Gd169 C236 2.828 . S
C170 C173 1.417 . S
C170 C175 1.431 . S
C170 C176 1.412 . S
C171 C174 1.437 . S
C171 C175 1.317 . S
C171 H190 0.929 . S
C172 C173 1.426 . S
C172 C174 1.413 . S
C172 N182 1.359 . S
C173 C170 1.417 . S
C173 C172 1.426 . S
C173 N178 1.350 . S
C174 C171 1.437 . S
C174 C172 1.413 . S
C174 C184 1.391 . S
C175 C170 1.431 . S
C175 C171 1.317 . S
C175 H186 0.930 . S
C176 C170 1.412 . S
C176 C177 1.355 . S
C176 H188 0.930 . S
C177 C176 1.355 . S
C177 C179 1.402 . S
C177 H189 0.930 . S
N178 Gd169 2.661 . S
N178 C173 1.350 . S
N178 C179 1.307 . S
C179 C177 1.402 . S
C179 N178 1.307 . S
C179 H180 0.930 . S
H180 C179 0.930 . S
C181 N182 1.334 . S
C181 C183 1.394 . S
C181 H185 0.930 . S
N182 Gd169 2.601 . S
N182 C172 1.359 . S
N182 C181 1.334 . S
C183 C181 1.394 . S
C183 C184 1.359 . S
C183 H195 0.930 . S
C184 C174 1.391 . S
C184 C183 1.359 . S
C184 H196 0.929 . S
H185 C181 0.930 . S
H186 C175 0.930 . S
H187 C204 0.930 . S
H188 C176 0.930 . S
H189 C177 0.930 . S
H190 C171 0.929 . S
H191 C209 0.930 . S
H192 C200 0.930 . S
H193 C201 0.930 . S
H194 C225 0.929 . S
H195 C183 0.930 . S
H196 C184 0.929 . S
H197 C226 0.930 . S
H198 C207 0.930 . S
N199 Gd168 2.661 . S
N199 C203 1.350 . S
N199 C204 1.307 . S
C200 H192 0.930 . S
C200 C201 1.355 . S
C200 C202 1.412 . S
C201 H193 0.930 . S
C201 C200 1.355 . S
C201 C204 1.402 . S
C202 C200 1.412 . S
C202 C203 1.417 . S
C202 C226 1.431 . S
C203 N199 1.350 . S
C203 C202 1.417 . S
C203 C206 1.426 . S
C204 H187 0.930 . S
C204 N199 1.307 . S
C204 C201 1.402 . S
N205 Gd168 2.601 . S
N205 C206 1.359 . S
N205 C209 1.334 . S
C206 C203 1.426 . S
C206 N205 1.359 . S
C206 C210 1.413 . S
C207 H198 0.930 . S
C207 C208 1.359 . S
C207 C209 1.394 . S
C208 C207 1.359 . S
C208 C210 1.391 . S
C208 H211 0.929 . S
C209 H191 0.930 . S
C209 N205 1.334 . S
C209 C207 1.394 . S
C210 C206 1.413 . S
C210 C208 1.391 . S
C210 C225 1.437 . S
H211 C208 0.929 . S
O212 Gd168 2.545 . S
O212 C227 1.258 . S
O213 Gd168 2.606 . S
O213 Gd169 2.362 . S
O213 C224 1.284 . S
O214 Gd169 2.324 . S
O214 C234 1.254 . S
O215 Gd168 2.429 . S
O215 C234 1.268 . S
O216 Gd168 2.545 . S
O216 C224 1.250 . S
O217 Gd168 2.412 . S
O217 C227 1.252 . S
O218 Gd169 2.545 . S
O218 C236 1.258 . S
O219 Gd168 2.362 . S
O219 Gd169 2.606 . S
O219 C235 1.284 . S
O220 Gd168 2.324 . S
O220 C243 1.254 . S
O221 Gd169 2.429 . S
O221 C243 1.268 . S
O222 Gd169 2.545 . S
O222 C235 1.250 . S
O223 Gd169 2.412 . S
O223 C236 1.252 . S
C224 O213 1.284 . S
C224 O216 1.250 . S
C225 H194 0.929 . S
C225 C210 1.437 . S
C225 C226 1.317 . S
C226 H197 0.930 . S
C226 C202 1.431 . S
C226 C225 1.317 . S
C227 Gd168 2.828 . S
C227 O212 1.258 . S
C227 O217 1.252 . S
C227 C228 1.497 . S
C228 C227 1.497 . S
C228 C229 1.395 . S
C228 C230 1.380 . S
C229 C228 1.395 . S
C229 C232 1.398 . S
C229 H244 0.930 . S
C230 C228 1.380 . S
C230 C231 1.391 . S
C230 H245 0.930 . S
C231 C230 1.391 . S
C231 C233 1.387 . S
C232 C229 1.398 . S
C232 C233 1.380 . S
C232 H246 0.930 . S
C233 C231 1.387 . S
C233 C232 1.380 . S
C233 H247 0.930 . S
C234 O214 1.254 . S
C234 O215 1.268 . S
C235 O219 1.284 . S
C235 O222 1.250 . S
C236 Gd169 2.828 . S
C236 O218 1.258 . S
C236 O223 1.252 . S
C236 C237 1.497 . S
C237 C236 1.497 . S
C237 C238 1.395 . S
C237 C239 1.380 . S
C238 C237 1.395 . S
C238 C241 1.398 . S
C238 H248 0.930 . S
C239 C237 1.380 . S
C239 C240 1.391 . S
C239 H249 0.930 . S
C240 C239 1.391 . S
C240 C242 1.387 . S
C241 C238 1.398 . S
C241 C242 1.380 . S
C241 H250 0.930 . S
C242 C240 1.387 . S
C242 C241 1.380 . S
C242 H251 0.930 . S
C243 O220 1.254 . S
C243 O221 1.268 . S
H244 C229 0.930 . S
H245 C230 0.930 . S
H246 C232 0.930 . S
H247 C233 0.930 . S
H248 C238 0.930 . S
H249 C239 0.930 . S
H250 C241 0.930 . S
H251 C242 0.930 . S
Gd252 N283 2.661 . S
Gd252 N289 2.601 . S
Gd252 O296 2.545 . S
Gd252 O297 2.606 . S
Gd252 O299 2.429 . S
Gd252 O300 2.545 . S
Gd252 O301 2.412 . S
Gd252 O303 2.362 . S
Gd252 O304 2.324 . S
Gd252 C311 2.828 . S
Gd253 N262 2.661 . S
Gd253 N266 2.606 . S
Gd253 O297 2.362 . S
Gd253 O298 2.324 . S
Gd253 O302 2.545 . S
Gd253 O303 2.606 . S
Gd253 O305 2.429 . S
Gd253 O306 2.545 . S
Gd253 O307 2.412 . S
Gd253 C320 2.828 . S
C254 C257 1.417 . S
C254 C259 1.431 1_545 S
C254 C260 1.412 . S
C255 C258 1.437 . S
C255 C259 1.317 . S
C255 H274 0.929 . S
C256 C257 1.426 1_565 S
C256 C258 1.413 . S
C256 N266 1.358 1_565 S
C257 C254 1.417 . S
C257 C256 1.426 1_545 S
C257 N262 1.350 . S
C258 C255 1.437 . S
C258 C256 1.413 . S
C258 C268 1.391 . S
C259 C254 1.431 1_565 S
C259 C255 1.317 . S
C259 H270 0.930 . S
C260 C254 1.412 . S
C260 C261 1.355 . S
C260 H272 0.930 . S
C261 C260 1.355 . S
C261 C263 1.402 . S
C261 H273 0.930 . S
N262 Gd253 2.661 . S
N262 C257 1.350 . S
N262 C263 1.307 . S
C263 C261 1.402 . S
C263 N262 1.307 . S
C263 H264 0.930 . S
H264 C263 0.930 . S
C265 N266 1.331 1_565 S
C265 C267 1.394 . S
C265 H269 0.930 . S
N266 Gd253 2.606 . S
N266 C256 1.358 1_545 S
N266 C265 1.331 1_545 S
C267 C265 1.394 . S
C267 C268 1.359 . S
C267 H279 0.930 . S
C268 C258 1.391 . S
C268 C267 1.359 . S
C268 H280 0.929 . S
H269 C265 0.930 . S
H270 C259 0.930 . S
H271 C288 0.930 . S
H272 C260 0.930 . S
H273 C261 0.930 . S
H274 C255 0.929 . S
H275 C293 0.930 . S
H276 C284 0.930 . S
H277 C285 0.930 . S
H278 C309 0.929 . S
H279 C267 0.930 . S
H280 C268 0.929 . S
H281 C310 0.930 . S
H282 C291 0.930 . S
N283 Gd252 2.661 . S
N283 C287 1.350 . S
N283 C288 1.307 . S
C284 H276 0.930 . S
C284 C285 1.355 . S
C284 C286 1.412 . S
C285 H277 0.930 . S
C285 C284 1.355 . S
C285 C288 1.402 . S
C286 C284 1.412 . S
C286 C287 1.417 . S
C286 C310 1.431 . S
C287 N283 1.350 . S
C287 C286 1.417 . S
C287 C290 1.426 . S
C288 H271 0.930 . S
C288 N283 1.307 . S
C288 C285 1.402 . S
N289 Gd252 2.601 . S
N289 C290 1.359 . S
N289 C293 1.334 . S
C290 C287 1.426 . S
C290 N289 1.359 . S
C290 C294 1.413 . S
C291 H282 0.930 . S
C291 C292 1.359 . S
C291 C293 1.394 . S
C292 C291 1.359 . S
C292 C294 1.391 . S
C292 H295 0.929 . S
C293 H275 0.930 . S
C293 N289 1.334 . S
C293 C291 1.394 . S
C294 C290 1.413 . S
C294 C292 1.391 . S
C294 C309 1.437 . S
H295 C292 0.929 . S
O296 Gd252 2.545 . S
O296 C311 1.258 . S
O297 Gd252 2.606 . S
O297 Gd253 2.362 . S
O297 C308 1.284 . S
O298 Gd253 2.324 . S
O298 C318 1.254 . S
O299 Gd252 2.429 . S
O299 C318 1.268 . S
O300 Gd252 2.545 . S
O300 C308 1.250 . S
O301 Gd252 2.412 . S
O301 C311 1.252 . S
O302 Gd253 2.545 . S
O302 C320 1.258 . S
O303 Gd252 2.362 . S
O303 Gd253 2.606 . S
O303 C319 1.284 . S
O304 Gd252 2.324 . S
O304 C327 1.254 . S
O305 Gd253 2.429 . S
O305 C327 1.268 . S
O306 Gd253 2.545 . S
O306 C319 1.250 . S
O307 Gd253 2.412 . S
O307 C320 1.252 . S
C308 O297 1.284 . S
C308 O300 1.250 . S
C309 H278 0.929 . S
C309 C294 1.437 . S
C309 C310 1.317 . S
C310 H281 0.930 . S
C310 C286 1.431 . S
C310 C309 1.317 . S
C311 Gd252 2.828 . S
C311 O296 1.258 . S
C311 O301 1.252 . S
C311 C312 1.497 . S
C312 C311 1.497 . S
C312 C313 1.395 . S
C312 C314 1.380 . S
C313 C312 1.395 . S
C313 C316 1.398 . S
C313 H328 0.930 . S
C314 C312 1.380 . S
C314 C315 1.391 . S
C314 H329 0.930 . S
C315 C314 1.391 . S
C315 C317 1.387 . S
C316 C313 1.398 . S
C316 C317 1.380 . S
C316 H330 0.930 . S
C317 C315 1.387 . S
C317 C316 1.380 . S
C317 H331 0.930 . S
C318 O298 1.254 . S
C318 O299 1.268 . S
C319 O303 1.284 . S
C319 O306 1.250 . S
C320 Gd253 2.828 . S
C320 O302 1.258 . S
C320 O307 1.252 . S
C320 C321 1.497 . S
C321 C320 1.497 . S
C321 C322 1.395 . S
C321 C323 1.380 . S
C322 C321 1.395 . S
C322 C325 1.398 . S
C322 H332 0.930 . S
C323 C321 1.380 . S
C323 C324 1.391 . S
C323 H333 0.930 . S
C324 C323 1.391 . S
C324 C326 1.387 . S
C325 C322 1.398 . S
C325 C326 1.380 . S
C325 H334 0.930 . S
C326 C324 1.387 . S
C326 C325 1.380 . S
C326 H335 0.930 . S
C327 O304 1.254 . S
C327 O305 1.268 . S
H328 C313 0.930 . S
H329 C314 0.930 . S
H330 C316 0.930 . S
H331 C317 0.930 . S
H332 C322 0.930 . S
H333 C323 0.930 . S
H334 C325 0.930 . S
H335 C326 0.930 . S
Gd336 N367 2.661 . S
Gd336 N373 2.601 . S
Gd336 O380 2.545 . S
Gd336 O381 2.606 . S
Gd336 O383 2.429 . S
Gd336 O384 2.545 . S
Gd336 O385 2.412 . S
Gd336 O387 2.362 . S
Gd336 O388 2.324 . S
Gd336 C395 2.828 . S
Gd337 N346 2.661 . S
Gd337 N350 2.601 . S
Gd337 O381 2.362 . S
Gd337 O382 2.324 . S
Gd337 O386 2.545 . S
Gd337 O387 2.606 . S
Gd337 O389 2.429 . S
Gd337 O390 2.545 . S
Gd337 O391 2.412 . S
Gd337 C404 2.828 . S
C338 C341 1.417 . S
C338 C343 1.431 . S
C338 C344 1.412 . S
C339 C342 1.437 . S
C339 C343 1.317 . S
C339 H358 0.929 . S
C340 C341 1.426 . S
C340 C342 1.413 . S
C340 N350 1.359 . S
C341 C338 1.417 . S
C341 C340 1.426 . S
C341 N346 1.350 . S
C342 C339 1.437 . S
C342 C340 1.413 . S
C342 C352 1.391 . S
C343 C338 1.431 . S
C343 C339 1.317 . S
C343 H354 0.930 . S
C344 C338 1.412 . S
C344 C345 1.355 . S
C344 H356 0.930 . S
C345 C344 1.355 . S
C345 C347 1.402 . S
C345 H357 0.930 . S
N346 Gd337 2.661 . S
N346 C341 1.350 . S
N346 C347 1.307 . S
C347 C345 1.402 . S
C347 N346 1.307 . S
C347 H348 0.930 . S
H348 C347 0.930 . S
C349 N350 1.334 . S
C349 C351 1.394 . S
C349 H353 0.930 . S
N350 Gd337 2.601 . S
N350 C340 1.359 . S
N350 C349 1.334 . S
C351 C349 1.394 . S
C351 C352 1.359 . S
C351 H363 0.930 . S
C352 C342 1.391 . S
C352 C351 1.359 . S
C352 H364 0.929 . S
H353 C349 0.930 . S
H354 C343 0.930 . S
H355 C372 0.930 . S
H356 C344 0.930 . S
H357 C345 0.930 . S
H358 C339 0.929 . S
H359 C377 0.930 . S
H360 C368 0.930 . S
H361 C369 0.930 . S
H362 C393 0.929 . S
H363 C351 0.930 . S
H364 C352 0.929 . S
H365 C394 0.930 . S
H366 C375 0.930 . S
N367 Gd336 2.661 . S
N367 C371 1.350 . S
N367 C372 1.307 . S
C368 H360 0.930 . S
C368 C369 1.355 . S
C368 C370 1.412 . S
C369 H361 0.930 . S
C369 C368 1.355 . S
C369 C372 1.402 . S
C370 C368 1.412 . S
C370 C371 1.417 . S
C370 C394 1.431 . S
C371 N367 1.350 . S
C371 C370 1.417 . S
C371 C374 1.426 . S
C372 H355 0.930 . S
C372 N367 1.307 . S
C372 C369 1.402 . S
N373 Gd336 2.601 . S
N373 C374 1.359 . S
N373 C377 1.334 . S
C374 C371 1.426 . S
C374 N373 1.359 . S
C374 C378 1.413 . S
C375 H366 0.930 . S
C375 C376 1.359 . S
C375 C377 1.394 . S
C376 C375 1.359 . S
C376 C378 1.391 . S
C376 H379 0.929 . S
C377 H359 0.930 . S
C377 N373 1.334 . S
C377 C375 1.394 . S
C378 C374 1.413 . S
C378 C376 1.391 . S
C378 C393 1.437 . S
H379 C376 0.929 . S
O380 Gd336 2.545 . S
O380 C395 1.258 . S
O381 Gd336 2.606 . S
O381 Gd337 2.362 . S
O381 C392 1.284 . S
O382 Gd337 2.324 . S
O382 C402 1.254 . S
O383 Gd336 2.429 . S
O383 C402 1.268 . S
O384 Gd336 2.545 . S
O384 C392 1.250 . S
O385 Gd336 2.412 . S
O385 C395 1.252 . S
O386 Gd337 2.545 . S
O386 C404 1.258 . S
O387 Gd336 2.362 . S
O387 Gd337 2.606 . S
O387 C403 1.284 . S
O388 Gd336 2.324 . S
O388 C411 1.254 . S
O389 Gd337 2.429 . S
O389 C411 1.268 . S
O390 Gd337 2.545 . S
O390 C403 1.250 . S
O391 Gd337 2.412 . S
O391 C404 1.252 . S
C392 O381 1.284 . S
C392 O384 1.250 . S
C393 H362 0.929 . S
C393 C378 1.437 . S
C393 C394 1.317 . S
C394 H365 0.930 . S
C394 C370 1.431 . S
C394 C393 1.317 . S
C395 Gd336 2.828 . S
C395 O380 1.258 . S
C395 O385 1.252 . S
C395 C396 1.497 . S
C396 C395 1.497 . S
C396 C397 1.395 . S
C396 C398 1.380 . S
C397 C396 1.395 . S
C397 C400 1.398 . S
C397 H412 0.930 . S
C398 C396 1.380 . S
C398 C399 1.391 . S
C398 H413 0.930 . S
C399 C398 1.391 . S
C399 C401 1.387 . S
C400 C397 1.398 . S
C400 C401 1.380 . S
C400 H414 0.930 . S
C401 C399 1.387 . S
C401 C400 1.380 . S
C401 H415 0.930 . S
C402 O382 1.254 . S
C402 O383 1.268 . S
C403 O387 1.284 . S
C403 O390 1.250 . S
C404 Gd337 2.828 . S
C404 O386 1.258 . S
C404 O391 1.252 . S
C404 C405 1.497 . S
C405 C404 1.497 . S
C405 C406 1.395 . S
C405 C407 1.380 . S
C406 C405 1.395 . S
C406 C409 1.398 . S
C406 H416 0.930 . S
C407 C405 1.380 . S
C407 C408 1.391 . S
C407 H417 0.930 . S
C408 C407 1.391 . S
C408 C410 1.387 . S
C409 C406 1.398 . S
C409 C410 1.380 . S
C409 H418 0.930 . S
C410 C408 1.387 . S
C410 C409 1.380 . S
C410 H419 0.930 . S
C411 O388 1.254 . S
C411 O389 1.268 . S
H412 C397 0.930 . S
H413 C398 0.930 . S
H414 C400 0.930 . S
H415 C401 0.930 . S
H416 C406 0.930 . S
H417 C407 0.930 . S
H418 C409 0.930 . S
H419 C410 0.930 . S
Gd420 N451 2.661 . S
Gd420 N457 2.601 . S
Gd420 O464 2.545 . S
Gd420 O465 2.606 . S
Gd420 O467 2.429 . S
Gd420 O468 2.545 . S
Gd420 O469 2.412 . S
Gd420 O471 2.362 . S
Gd420 O472 2.324 . S
Gd420 C479 2.828 . S
Gd421 N430 2.661 . S
Gd421 N434 2.606 . S
Gd421 O465 2.362 . S
Gd421 O466 2.324 . S
Gd421 O470 2.545 . S
Gd421 O471 2.606 . S
Gd421 O473 2.429 . S
Gd421 O474 2.545 . S
Gd421 O475 2.412 . S
Gd421 C488 2.828 . S
C422 C425 1.417 . S
C422 C427 1.431 1_565 S
C422 C428 1.412 . S
C423 C426 1.437 . S
C423 C427 1.317 . S
C423 H442 0.929 . S
C424 C425 1.426 1_545 S
C424 C426 1.413 . S
C424 N434 1.358 1_545 S
C425 C422 1.417 . S
C425 C424 1.426 1_565 S
C425 N430 1.350 . S
C426 C423 1.437 . S
C426 C424 1.413 . S
C426 C436 1.391 . S
C427 C422 1.431 1_545 S
C427 C423 1.317 . S
C427 H438 0.930 . S
C428 C422 1.412 . S
C428 C429 1.355 . S
C428 H440 0.930 . S
C429 C428 1.355 . S
C429 C431 1.402 . S
C429 H441 0.930 . S
N430 Gd421 2.661 . S
N430 C425 1.350 . S
N430 C431 1.307 . S
C431 C429 1.402 . S
C431 N430 1.307 . S
C431 H432 0.930 . S
H432 C431 0.930 . S
C433 N434 1.331 1_545 S
C433 C435 1.394 . S
C433 H437 0.930 . S
N434 Gd421 2.606 . S
N434 C424 1.358 1_565 S
N434 C433 1.331 1_565 S
C435 C433 1.394 . S
C435 C436 1.359 . S
C435 H447 0.930 . S
C436 C426 1.391 . S
C436 C435 1.359 . S
C436 H448 0.929 . S
H437 C433 0.930 . S
H438 C427 0.930 . S
H439 C456 0.930 . S
H440 C428 0.930 . S
H441 C429 0.930 . S
H442 C423 0.929 . S
H443 C461 0.930 . S
H444 C452 0.930 . S
H445 C453 0.930 . S
H446 C477 0.929 . S
H447 C435 0.930 . S
H448 C436 0.929 . S
H449 C478 0.930 . S
H450 C459 0.930 . S
N451 Gd420 2.661 . S
N451 C455 1.350 . S
N451 C456 1.307 . S
C452 H444 0.930 . S
C452 C453 1.355 . S
C452 C454 1.412 . S
C453 H445 0.930 . S
C453 C452 1.355 . S
C453 C456 1.402 . S
C454 C452 1.412 . S
C454 C455 1.417 . S
C454 C478 1.431 . S
C455 N451 1.350 . S
C455 C454 1.417 . S
C455 C458 1.426 . S
C456 H439 0.930 . S
C456 N451 1.307 . S
C456 C453 1.402 . S
N457 Gd420 2.601 . S
N457 C458 1.359 . S
N457 C461 1.334 . S
C458 C455 1.426 . S
C458 N457 1.359 . S
C458 C462 1.413 . S
C459 H450 0.930 . S
C459 C460 1.359 . S
C459 C461 1.394 . S
C460 C459 1.359 . S
C460 C462 1.391 . S
C460 H463 0.929 . S
C461 H443 0.930 . S
C461 N457 1.334 . S
C461 C459 1.394 . S
C462 C458 1.413 . S
C462 C460 1.391 . S
C462 C477 1.437 . S
H463 C460 0.929 . S
O464 Gd420 2.545 . S
O464 C479 1.258 . S
O465 Gd420 2.606 . S
O465 Gd421 2.362 . S
O465 C476 1.284 . S
O466 Gd421 2.324 . S
O466 C486 1.254 . S
O467 Gd420 2.429 . S
O467 C486 1.268 . S
O468 Gd420 2.545 . S
O468 C476 1.250 . S
O469 Gd420 2.412 . S
O469 C479 1.252 . S
O470 Gd421 2.545 . S
O470 C488 1.258 . S
O471 Gd420 2.362 . S
O471 Gd421 2.606 . S
O471 C487 1.284 . S
O472 Gd420 2.324 . S
O472 C495 1.254 . S
O473 Gd421 2.429 . S
O473 C495 1.268 . S
O474 Gd421 2.545 . S
O474 C487 1.250 . S
O475 Gd421 2.412 . S
O475 C488 1.252 . S
C476 O465 1.284 . S
C476 O468 1.250 . S
C477 H446 0.929 . S
C477 C462 1.437 . S
C477 C478 1.317 . S
C478 H449 0.930 . S
C478 C454 1.431 . S
C478 C477 1.317 . S
C479 Gd420 2.828 . S
C479 O464 1.258 . S
C479 O469 1.252 . S
C479 C480 1.497 . S
C480 C479 1.497 . S
C480 C481 1.395 . S
C480 C482 1.380 . S
C481 C480 1.395 . S
C481 C484 1.398 . S
C481 H496 0.930 . S
C482 C480 1.380 . S
C482 C483 1.391 . S
C482 H497 0.930 . S
C483 C482 1.391 . S
C483 C485 1.387 . S
C484 C481 1.398 . S
C484 C485 1.380 . S
C484 H498 0.930 . S
C485 C483 1.387 . S
C485 C484 1.380 . S
C485 H499 0.930 . S
C486 O466 1.254 . S
C486 O467 1.268 . S
C487 O471 1.284 . S
C487 O474 1.250 . S
C488 Gd421 2.828 . S
C488 O470 1.258 . S
C488 O475 1.252 . S
C488 C489 1.497 . S
C489 C488 1.497 . S
C489 C490 1.395 . S
C489 C491 1.380 . S
C490 C489 1.395 . S
C490 C493 1.398 . S
C490 H500 0.930 . S
C491 C489 1.380 . S
C491 C492 1.391 . S
C491 H501 0.930 . S
C492 C491 1.391 . S
C492 C494 1.387 . S
C493 C490 1.398 . S
C493 C494 1.380 . S
C493 H502 0.930 . S
C494 C492 1.387 . S
C494 C493 1.380 . S
C494 H503 0.930 . S
C495 O472 1.254 . S
C495 O473 1.268 . S
H496 C481 0.930 . S
H497 C482 0.930 . S
H498 C484 0.930 . S
H499 C485 0.930 . S
H500 C490 0.930 . S
H501 C491 0.930 . S
H502 C493 0.930 . S
H503 C494 0.930 . S
Gd504 N535 2.661 . S
Gd504 N541 2.601 . S
Gd504 O548 2.545 . S
Gd504 O549 2.606 . S
Gd504 O551 2.429 . S
Gd504 O552 2.545 . S
Gd504 O553 2.412 . S
Gd504 O555 2.362 . S
Gd504 O556 2.324 . S
Gd504 C563 2.828 . S
Gd505 N514 2.661 . S
Gd505 N518 2.601 . S
Gd505 O549 2.362 . S
Gd505 O550 2.324 . S
Gd505 O554 2.545 . S
Gd505 O555 2.606 . S
Gd505 O557 2.429 . S
Gd505 O558 2.545 . S
Gd505 O559 2.412 . S
Gd505 C572 2.828 . S
C506 C509 1.417 . S
C506 C511 1.431 . S
C506 C512 1.412 . S
C507 C510 1.437 . S
C507 C511 1.317 . S
C507 H526 0.929 . S
C508 C509 1.426 . S
C508 C510 1.413 . S
C508 N518 1.359 . S
C509 C506 1.417 . S
C509 C508 1.426 . S
C509 N514 1.350 . S
C510 C507 1.437 . S
C510 C508 1.413 . S
C510 C520 1.391 . S
C511 C506 1.431 . S
C511 C507 1.317 . S
C511 H522 0.930 . S
C512 C506 1.412 . S
C512 C513 1.355 . S
C512 H524 0.930 . S
C513 C512 1.355 . S
C513 C515 1.402 . S
C513 H525 0.930 . S
N514 Gd505 2.661 . S
N514 C509 1.350 . S
N514 C515 1.307 . S
C515 C513 1.402 . S
C515 N514 1.307 . S
C515 H516 0.930 . S
H516 C515 0.930 . S
C517 N518 1.334 . S
C517 C519 1.394 . S
C517 H521 0.930 . S
N518 Gd505 2.601 . S
N518 C508 1.359 . S
N518 C517 1.334 . S
C519 C517 1.394 . S
C519 C520 1.359 . S
C519 H531 0.930 . S
C520 C510 1.391 . S
C520 C519 1.359 . S
C520 H532 0.929 . S
H521 C517 0.930 . S
H522 C511 0.930 . S
H523 C540 0.930 . S
H524 C512 0.930 . S
H525 C513 0.930 . S
H526 C507 0.929 . S
H527 C545 0.930 . S
H528 C536 0.930 . S
H529 C537 0.930 . S
H530 C561 0.929 . S
H531 C519 0.930 . S
H532 C520 0.929 . S
H533 C562 0.930 . S
H534 C543 0.930 . S
N535 Gd504 2.661 . S
N535 C539 1.350 . S
N535 C540 1.307 . S
C536 H528 0.930 . S
C536 C537 1.355 . S
C536 C538 1.412 . S
C537 H529 0.930 . S
C537 C536 1.355 . S
C537 C540 1.402 . S
C538 C536 1.412 . S
C538 C539 1.417 . S
C538 C562 1.431 . S
C539 N535 1.350 . S
C539 C538 1.417 . S
C539 C542 1.426 . S
C540 H523 0.930 . S
C540 N535 1.307 . S
C540 C537 1.402 . S
N541 Gd504 2.601 . S
N541 C542 1.359 . S
N541 C545 1.334 . S
C542 C539 1.426 . S
C542 N541 1.359 . S
C542 C546 1.413 . S
C543 H534 0.930 . S
C543 C544 1.359 . S
C543 C545 1.394 . S
C544 C543 1.359 . S
C544 C546 1.391 . S
C544 H547 0.929 . S
C545 H527 0.930 . S
C545 N541 1.334 . S
C545 C543 1.394 . S
C546 C542 1.413 . S
C546 C544 1.391 . S
C546 C561 1.437 . S
H547 C544 0.929 . S
O548 Gd504 2.545 . S
O548 C563 1.258 . S
O549 Gd504 2.606 . S
O549 Gd505 2.362 . S
O549 C560 1.284 . S
O550 Gd505 2.324 . S
O550 C570 1.254 . S
O551 Gd504 2.429 . S
O551 C570 1.268 . S
O552 Gd504 2.545 . S
O552 C560 1.250 . S
O553 Gd504 2.412 . S
O553 C563 1.252 . S
O554 Gd505 2.545 . S
O554 C572 1.258 . S
O555 Gd504 2.362 . S
O555 Gd505 2.606 . S
O555 C571 1.284 . S
O556 Gd504 2.324 . S
O556 C579 1.254 . S
O557 Gd505 2.429 . S
O557 C579 1.268 . S
O558 Gd505 2.545 . S
O558 C571 1.250 . S
O559 Gd505 2.412 . S
O559 C572 1.252 . S
C560 O549 1.284 . S
C560 O552 1.250 . S
C561 H530 0.929 . S
C561 C546 1.437 . S
C561 C562 1.317 . S
C562 H533 0.930 . S
C562 C538 1.431 . S
C562 C561 1.317 . S
C563 Gd504 2.828 . S
C563 O548 1.258 . S
C563 O553 1.252 . S
C563 C564 1.497 . S
C564 C563 1.497 . S
C564 C565 1.395 . S
C564 C566 1.380 . S
C565 C564 1.395 . S
C565 C568 1.398 . S
C565 H580 0.930 . S
C566 C564 1.380 . S
C566 C567 1.391 . S
C566 H581 0.930 . S
C567 C566 1.391 . S
C567 C569 1.387 . S
C568 C565 1.398 . S
C568 C569 1.380 . S
C568 H582 0.930 . S
C569 C567 1.387 . S
C569 C568 1.380 . S
C569 H583 0.930 . S
C570 O550 1.254 . S
C570 O551 1.268 . S
C571 O555 1.284 . S
C571 O558 1.250 . S
C572 Gd505 2.828 . S
C572 O554 1.258 . S
C572 O559 1.252 . S
C572 C573 1.497 . S
C573 C572 1.497 . S
C573 C574 1.395 . S
C573 C575 1.380 . S
C574 C573 1.395 . S
C574 C577 1.398 . S
C574 H584 0.930 . S
C575 C573 1.380 . S
C575 C576 1.391 . S
C575 H585 0.930 . S
C576 C575 1.391 . S
C576 C578 1.387 . S
C577 C574 1.398 . S
C577 C578 1.380 . S
C577 H586 0.930 . S
C578 C576 1.387 . S
C578 C577 1.380 . S
C578 H587 0.930 . S
C579 O556 1.254 . S
C579 O557 1.268 . S
H580 C565 0.930 . S
H581 C566 0.930 . S
H582 C568 0.930 . S
H583 C569 0.930 . S
H584 C574 0.930 . S
H585 C575 0.930 . S
H586 C577 0.930 . S
H587 C578 0.930 . S
Gd588 N619 2.661 . S
Gd588 N625 2.601 . S
Gd588 O632 2.545 . S
Gd588 O633 2.606 . S
Gd588 O635 2.429 . S
Gd588 O636 2.545 . S
Gd588 O637 2.412 . S
Gd588 O639 2.362 . S
Gd588 O640 2.324 . S
Gd588 C647 2.828 . S
Gd589 N598 2.661 1_455 S
Gd589 N602 2.606 . S
Gd589 O633 2.362 . S
Gd589 O634 2.324 . S
Gd589 O638 2.545 . S
Gd589 O639 2.606 . S
Gd589 O641 2.429 . S
Gd589 O642 2.545 . S
Gd589 O643 2.412 1_455 S
Gd589 C656 2.828 1_455 S
C590 C593 1.417 . S
C590 C595 1.431 1_545 S
C590 C596 1.412 . S
C591 C594 1.437 . S
C591 C595 1.317 . S
C591 H610 0.929 . S
C592 C593 1.426 1_565 S
C592 C594 1.413 . S
C592 N602 1.358 1_665 S
C593 C590 1.417 . S
C593 C592 1.426 1_545 S
C593 N598 1.350 . S
C594 C591 1.437 . S
C594 C592 1.413 . S
C594 C604 1.391 . S
C595 C590 1.431 1_565 S
C595 C591 1.317 . S
C595 H606 0.930 . S
C596 C590 1.412 . S
C596 C597 1.355 . S
C596 H608 0.930 . S
C597 C596 1.355 . S
C597 C599 1.402 . S
C597 H609 0.930 . S
N598 Gd589 2.661 1_655 S
N598 C593 1.350 . S
N598 C599 1.307 . S
C599 C597 1.402 . S
C599 N598 1.307 . S
C599 H600 0.930 . S
H600 C599 0.930 . S
C601 N602 1.331 1_565 S
C601 C603 1.394 1_455 S
C601 H605 0.930 . S
N602 Gd589 2.606 . S
N602 C592 1.358 1_445 S
N602 C601 1.331 1_545 S
C603 C601 1.394 1_655 S
C603 C604 1.359 . S
C603 H615 0.930 1_655 S
C604 C594 1.391 . S
C604 C603 1.359 . S
C604 H616 0.929 . S
H605 C601 0.930 . S
H606 C595 0.930 . S
H607 C624 0.930 . S
H608 C596 0.930 . S
H609 C597 0.930 . S
H610 C591 0.929 . S
H611 C629 0.930 . S
H612 C620 0.930 . S
H613 C621 0.930 . S
H614 C645 0.929 . S
H615 C603 0.930 1_455 S
H616 C604 0.929 . S
H617 C646 0.930 . S
H618 C627 0.930 . S
N619 Gd588 2.661 . S
N619 C623 1.350 . S
N619 C624 1.307 . S
C620 H612 0.930 . S
C620 C621 1.355 . S
C620 C622 1.412 . S
C621 H613 0.930 . S
C621 C620 1.355 . S
C621 C624 1.402 . S
C622 C620 1.412 . S
C622 C623 1.417 . S
C622 C646 1.431 . S
C623 N619 1.350 . S
C623 C622 1.417 . S
C623 C626 1.426 . S
C624 H607 0.930 . S
C624 N619 1.307 . S
C624 C621 1.402 . S
N625 Gd588 2.601 . S
N625 C626 1.359 . S
N625 C629 1.334 . S
C626 C623 1.426 . S
C626 N625 1.359 . S
C626 C630 1.413 . S
C627 H618 0.930 . S
C627 C628 1.359 . S
C627 C629 1.394 . S
C628 C627 1.359 . S
C628 C630 1.391 . S
C628 H631 0.929 . S
C629 H611 0.930 . S
C629 N625 1.334 . S
C629 C627 1.394 . S
C630 C626 1.413 . S
C630 C628 1.391 . S
C630 C645 1.437 . S
H631 C628 0.929 . S
O632 Gd588 2.545 . S
O632 C647 1.258 . S
O633 Gd588 2.606 . S
O633 Gd589 2.362 . S
O633 C644 1.284 . S
O634 Gd589 2.324 . S
O634 C654 1.254 . S
O635 Gd588 2.429 . S
O635 C654 1.268 . S
O636 Gd588 2.545 . S
O636 C644 1.250 . S
O637 Gd588 2.412 . S
O637 C647 1.252 . S
O638 Gd589 2.545 . S
O638 C656 1.258 1_455 S
O639 Gd588 2.362 . S
O639 Gd589 2.606 . S
O639 C655 1.284 . S
O640 Gd588 2.324 . S
O640 C663 1.254 . S
O641 Gd589 2.429 . S
O641 C663 1.268 . S
O642 Gd589 2.545 . S
O642 C655 1.250 . S
O643 Gd589 2.412 1_655 S
O643 C656 1.252 . S
C644 O633 1.284 . S
C644 O636 1.250 . S
C645 H614 0.929 . S
C645 C630 1.437 . S
C645 C646 1.317 . S
C646 H617 0.930 . S
C646 C622 1.431 . S
C646 C645 1.317 . S
C647 Gd588 2.828 . S
C647 O632 1.258 . S
C647 O637 1.252 . S
C647 C648 1.497 . S
C648 C647 1.497 . S
C648 C649 1.395 . S
C648 C650 1.380 . S
C649 C648 1.395 . S
C649 C652 1.398 . S
C649 H664 0.930 . S
C650 C648 1.380 . S
C650 C651 1.391 . S
C650 H665 0.930 . S
C651 C650 1.391 . S
C651 C653 1.387 . S
C652 C649 1.398 . S
C652 C653 1.380 . S
C652 H666 0.930 . S
C653 C651 1.387 . S
C653 C652 1.380 . S
C653 H667 0.930 . S
C654 O634 1.254 . S
C654 O635 1.268 . S
C655 O639 1.284 . S
C655 O642 1.250 . S
C656 Gd589 2.828 1_655 S
C656 O638 1.258 1_655 S
C656 O643 1.252 . S
C656 C657 1.497 . S
C657 C656 1.497 . S
C657 C658 1.395 . S
C657 C659 1.380 . S
C658 C657 1.395 . S
C658 C661 1.398 . S
C658 H668 0.930 . S
C659 C657 1.380 . S
C659 C660 1.391 . S
C659 H669 0.930 . S
C660 C659 1.391 . S
C660 C662 1.387 . S
C661 C658 1.398 . S
C661 C662 1.380 . S
C661 H670 0.930 . S
C662 C660 1.387 . S
C662 C661 1.380 . S
C662 H671 0.930 . S
C663 O640 1.254 . S
C663 O641 1.268 . S
H664 C649 0.930 . S
H665 C650 0.930 . S
H666 C652 0.930 . S
H667 C653 0.930 . S
H668 C658 0.930 . S
H669 C659 0.930 . S
H670 C661 0.930 . S
H671 C662 0.930 . S
Gd672 N703 2.661 . S
Gd672 N709 2.601 . S
Gd672 O716 2.545 . S
Gd672 O717 2.606 . S
Gd672 O719 2.429 . S
Gd672 O720 2.545 . S
Gd672 O721 2.412 . S
Gd672 O723 2.362 . S
Gd672 O724 2.324 . S
Gd672 C731 2.828 . S
Gd673 N682 2.661 . S
Gd673 N686 2.601 . S
Gd673 O717 2.362 . S
Gd673 O718 2.324 . S
Gd673 O722 2.545 . S
Gd673 O723 2.606 . S
Gd673 O725 2.429 . S
Gd673 O726 2.545 . S
Gd673 O727 2.412 . S
Gd673 C740 2.828 . S
C674 C677 1.417 . S
C674 C679 1.431 . S
C674 C680 1.412 . S
C675 C678 1.437 . S
C675 C679 1.317 . S
C675 H694 0.929 . S
C676 C677 1.426 . S
C676 C678 1.413 . S
C676 N686 1.359 . S
C677 C674 1.417 . S
C677 C676 1.426 . S
C677 N682 1.350 . S
C678 C675 1.437 . S
C678 C676 1.413 . S
C678 C688 1.391 . S
C679 C674 1.431 . S
C679 C675 1.317 . S
C679 H690 0.930 . S
C680 C674 1.412 . S
C680 C681 1.355 . S
C680 H692 0.930 . S
C681 C680 1.355 . S
C681 C683 1.402 . S
C681 H693 0.930 . S
N682 Gd673 2.661 . S
N682 C677 1.350 . S
N682 C683 1.307 . S
C683 C681 1.402 . S
C683 N682 1.307 . S
C683 H684 0.930 . S
H684 C683 0.930 . S
C685 N686 1.334 . S
C685 C687 1.394 . S
C685 H689 0.930 . S
N686 Gd673 2.601 . S
N686 C676 1.359 . S
N686 C685 1.334 . S
C687 C685 1.394 . S
C687 C688 1.359 . S
C687 H699 0.930 . S
C688 C678 1.391 . S
C688 C687 1.359 . S
C688 H700 0.929 . S
H689 C685 0.930 . S
H690 C679 0.930 . S
H691 C708 0.930 . S
H692 C680 0.930 . S
H693 C681 0.930 . S
H694 C675 0.929 . S
H695 C713 0.930 . S
H696 C704 0.930 . S
H697 C705 0.930 . S
H698 C729 0.929 . S
H699 C687 0.930 . S
H700 C688 0.929 . S
H701 C730 0.930 . S
H702 C711 0.930 . S
N703 Gd672 2.661 . S
N703 C707 1.350 . S
N703 C708 1.307 . S
C704 H696 0.930 . S
C704 C705 1.355 . S
C704 C706 1.412 . S
C705 H697 0.930 . S
C705 C704 1.355 . S
C705 C708 1.402 . S
C706 C704 1.412 . S
C706 C707 1.417 . S
C706 C730 1.431 . S
C707 N703 1.350 . S
C707 C706 1.417 . S
C707 C710 1.426 . S
C708 H691 0.930 . S
C708 N703 1.307 . S
C708 C705 1.402 . S
N709 Gd672 2.601 . S
N709 C710 1.359 . S
N709 C713 1.334 . S
C710 C707 1.426 . S
C710 N709 1.359 . S
C710 C714 1.413 . S
C711 H702 0.930 . S
C711 C712 1.359 . S
C711 C713 1.394 . S
C712 C711 1.359 . S
C712 C714 1.391 . S
C712 H715 0.929 . S
C713 H695 0.930 . S
C713 N709 1.334 . S
C713 C711 1.394 . S
C714 C710 1.413 . S
C714 C712 1.391 . S
C714 C729 1.437 . S
H715 C712 0.929 . S
O716 Gd672 2.545 . S
O716 C731 1.258 . S
O717 Gd672 2.606 . S
O717 Gd673 2.362 . S
O717 C728 1.284 . S
O718 Gd673 2.324 . S
O718 C738 1.254 . S
O719 Gd672 2.429 . S
O719 C738 1.268 . S
O720 Gd672 2.545 . S
O720 C728 1.250 . S
O721 Gd672 2.412 . S
O721 C731 1.252 . S
O722 Gd673 2.545 . S
O722 C740 1.258 . S
O723 Gd672 2.362 . S
O723 Gd673 2.606 . S
O723 C739 1.284 . S
O724 Gd672 2.324 . S
O724 C747 1.254 . S
O725 Gd673 2.429 . S
O725 C747 1.268 . S
O726 Gd673 2.545 . S
O726 C739 1.250 . S
O727 Gd673 2.412 . S
O727 C740 1.252 . S
C728 O717 1.284 . S
C728 O720 1.250 . S
C729 H698 0.929 . S
C729 C714 1.437 . S
C729 C730 1.317 . S
C730 H701 0.930 . S
C730 C706 1.431 . S
C730 C729 1.317 . S
C731 Gd672 2.828 . S
C731 O716 1.258 . S
C731 O721 1.252 . S
C731 C732 1.497 . S
C732 C731 1.497 . S
C732 C733 1.395 . S
C732 C734 1.380 . S
C733 C732 1.395 . S
C733 C736 1.398 . S
C733 H748 0.930 . S
C734 C732 1.380 . S
C734 C735 1.391 . S
C734 H749 0.930 . S
C735 C734 1.391 . S
C735 C737 1.387 . S
C736 C733 1.398 . S
C736 C737 1.380 . S
C736 H750 0.930 . S
C737 C735 1.387 . S
C737 C736 1.380 . S
C737 H751 0.930 . S
C738 O718 1.254 . S
C738 O719 1.268 . S
C739 O723 1.284 . S
C739 O726 1.250 . S
C740 Gd673 2.828 . S
C740 O722 1.258 . S
C740 O727 1.252 . S
C740 C741 1.497 . S
C741 C740 1.497 . S
C741 C742 1.395 . S
C741 C743 1.380 . S
C742 C741 1.395 . S
C742 C745 1.398 . S
C742 H752 0.930 . S
C743 C741 1.380 . S
C743 C744 1.391 . S
C743 H753 0.930 . S
C744 C743 1.391 . S
C744 C746 1.387 . S
C745 C742 1.398 . S
C745 C746 1.380 . S
C745 H754 0.930 . S
C746 C744 1.387 . S
C746 C745 1.380 . S
C746 H755 0.930 . S
C747 O724 1.254 . S
C747 O725 1.268 . S
H748 C733 0.930 . S
H749 C734 0.930 . S
H750 C736 0.930 . S
H751 C737 0.930 . S
H752 C742 0.930 . S
H753 C743 0.930 . S
H754 C745 0.930 . S
H755 C746 0.930 . S
Gd756 N787 2.661 1_655 S
Gd756 N793 2.606 . S
Gd756 O800 2.545 . S
Gd756 O801 2.606 . S
Gd756 O803 2.429 . S
Gd756 O804 2.545 . S
Gd756 O805 2.412 1_655 S
Gd756 O807 2.362 . S
Gd756 O808 2.324 . S
Gd756 C815 2.828 1_655 S
Gd757 N766 2.661 . S
Gd757 N770 2.601 . S
Gd757 O801 2.362 . S
Gd757 O802 2.324 . S
Gd757 O806 2.545 . S
Gd757 O807 2.606 . S
Gd757 O809 2.429 . S
Gd757 O810 2.545 . S
Gd757 O811 2.412 . S
Gd757 C824 2.828 . S
C758 C761 1.417 . S
C758 C763 1.431 . S
C758 C764 1.412 . S
C759 C762 1.437 . S
C759 C763 1.317 . S
C759 H778 0.929 . S
C760 C761 1.426 . S
C760 C762 1.413 . S
C760 N770 1.359 . S
C761 C758 1.417 . S
C761 C760 1.426 . S
C761 N766 1.350 . S
C762 C759 1.437 . S
C762 C760 1.413 . S
C762 C772 1.391 . S
C763 C758 1.431 . S
C763 C759 1.317 . S
C763 H774 0.930 . S
C764 C758 1.412 . S
C764 C765 1.355 . S
C764 H776 0.930 . S
C765 C764 1.355 . S
C765 C767 1.402 . S
C765 H777 0.930 . S
N766 Gd757 2.661 . S
N766 C761 1.350 . S
N766 C767 1.307 . S
C767 C765 1.402 . S
C767 N766 1.307 . S
C767 H768 0.930 . S
H768 C767 0.930 . S
C769 N770 1.334 . S
C769 C771 1.394 . S
C769 H773 0.930 . S
N770 Gd757 2.601 . S
N770 C760 1.359 . S
N770 C769 1.334 . S
C771 C769 1.394 . S
C771 C772 1.359 . S
C771 H783 0.930 . S
C772 C762 1.391 . S
C772 C771 1.359 . S
C772 H784 0.929 . S
H773 C769 0.930 . S
H774 C763 0.930 . S
H775 C792 0.930 . S
H776 C764 0.930 . S
H777 C765 0.930 . S
H778 C759 0.929 . S
H779 C797 0.930 . S
H780 C788 0.930 . S
H781 C789 0.930 . S
H782 C813 0.929 . S
H783 C771 0.930 . S
H784 C772 0.929 . S
H785 C814 0.930 . S
H786 C795 0.930 1_655 S
N787 Gd756 2.661 1_455 S
N787 C791 1.350 . S
N787 C792 1.307 . S
C788 H780 0.930 . S
C788 C789 1.355 . S
C788 C790 1.412 . S
C789 H781 0.930 . S
C789 C788 1.355 . S
C789 C792 1.402 . S
C790 C788 1.412 . S
C790 C791 1.417 . S
C790 C814 1.431 1_545 S
C791 N787 1.350 . S
C791 C790 1.417 . S
C791 C794 1.426 1_545 S
C792 H775 0.930 . S
C792 N787 1.307 . S
C792 C789 1.402 . S
N793 Gd756 2.606 . S
N793 C794 1.358 1_645 S
N793 C797 1.331 1_545 S
C794 C791 1.426 1_565 S
C794 N793 1.358 1_465 S
C794 C798 1.413 . S
C795 H786 0.930 1_455 S
C795 C796 1.359 . S
C795 C797 1.394 1_455 S
C796 C795 1.359 . S
C796 C798 1.391 . S
C796 H799 0.929 . S
C797 H779 0.930 . S
C797 N793 1.331 1_565 S
C797 C795 1.394 1_655 S
C798 C794 1.413 . S
C798 C796 1.391 . S
C798 C813 1.437 . S
H799 C796 0.929 . S
O800 Gd756 2.545 . S
O800 C815 1.258 1_655 S
O801 Gd756 2.606 . S
O801 Gd757 2.362 . S
O801 C812 1.284 . S
O802 Gd757 2.324 . S
O802 C822 1.254 . S
O803 Gd756 2.429 . S
O803 C822 1.268 . S
O804 Gd756 2.545 . S
O804 C812 1.250 . S
O805 Gd756 2.412 1_455 S
O805 C815 1.252 . S
O806 Gd757 2.545 . S
O806 C824 1.258 . S
O807 Gd756 2.362 . S
O807 Gd757 2.606 . S
O807 C823 1.284 . S
O808 Gd756 2.324 . S
O808 C831 1.254 . S
O809 Gd757 2.429 . S
O809 C831 1.268 . S
O810 Gd757 2.545 . S
O810 C823 1.250 . S
O811 Gd757 2.412 . S
O811 C824 1.252 . S
C812 O801 1.284 . S
C812 O804 1.250 . S
C813 H782 0.929 . S
C813 C798 1.437 . S
C813 C814 1.317 . S
C814 H785 0.930 . S
C814 C790 1.431 1_565 S
C814 C813 1.317 . S
C815 Gd756 2.828 1_455 S
C815 O800 1.258 1_455 S
C815 O805 1.252 . S
C815 C816 1.497 . S
C816 C815 1.497 . S
C816 C817 1.395 . S
C816 C818 1.380 . S
C817 C816 1.395 . S
C817 C820 1.398 . S
C817 H832 0.930 . S
C818 C816 1.380 . S
C818 C819 1.391 . S
C818 H833 0.930 . S
C819 C818 1.391 . S
C819 C821 1.387 . S
C820 C817 1.398 . S
C820 C821 1.380 . S
C820 H834 0.930 . S
C821 C819 1.387 . S
C821 C820 1.380 . S
C821 H835 0.930 . S
C822 O802 1.254 . S
C822 O803 1.268 . S
C823 O807 1.284 . S
C823 O810 1.250 . S
C824 Gd757 2.828 . S
C824 O806 1.258 . S
C824 O811 1.252 . S
C824 C825 1.497 . S
C825 C824 1.497 . S
C825 C826 1.395 . S
C825 C827 1.380 . S
C826 C825 1.395 . S
C826 C829 1.398 . S
C826 H836 0.930 . S
C827 C825 1.380 . S
C827 C828 1.391 . S
C827 H837 0.930 . S
C828 C827 1.391 . S
C828 C830 1.387 . S
C829 C826 1.398 . S
C829 C830 1.380 . S
C829 H838 0.930 . S
C830 C828 1.387 . S
C830 C829 1.380 . S
C830 H839 0.930 . S
C831 O808 1.254 . S
C831 O809 1.268 . S
H832 C817 0.930 . S
H833 C818 0.930 . S
H834 C820 0.930 . S
H835 C821 0.930 . S
H836 C826 0.930 . S
H837 C827 0.930 . S
H838 C829 0.930 . S
H839 C830 0.930 . S
Gd840 N871 2.661 . S
Gd840 N877 2.601 . S
Gd840 O884 2.545 . S
Gd840 O885 2.606 . S
Gd840 O887 2.429 . S
Gd840 O888 2.545 . S
Gd840 O889 2.412 . S
Gd840 O891 2.362 . S
Gd840 O892 2.324 . S
Gd840 C899 2.828 . S
Gd841 N850 2.661 . S
Gd841 N854 2.601 . S
Gd841 O885 2.362 . S
Gd841 O886 2.324 . S
Gd841 O890 2.545 . S
Gd841 O891 2.606 . S
Gd841 O893 2.429 . S
Gd841 O894 2.545 . S
Gd841 O895 2.412 . S
Gd841 C908 2.828 . S
C842 C845 1.417 . S
C842 C847 1.431 . S
C842 C848 1.412 . S
C843 C846 1.437 . S
C843 C847 1.317 . S
C843 H862 0.929 . S
C844 C845 1.426 . S
C844 C846 1.413 . S
C844 N854 1.359 . S
C845 C842 1.417 . S
C845 C844 1.426 . S
C845 N850 1.350 . S
C846 C843 1.437 . S
C846 C844 1.413 . S
C846 C856 1.391 . S
C847 C842 1.431 . S
C847 C843 1.317 . S
C847 H858 0.930 . S
C848 C842 1.412 . S
C848 C849 1.355 . S
C848 H860 0.930 . S
C849 C848 1.355 . S
C849 C851 1.402 . S
C849 H861 0.930 . S
N850 Gd841 2.661 . S
N850 C845 1.350 . S
N850 C851 1.307 . S
C851 C849 1.402 . S
C851 N850 1.307 . S
C851 H852 0.930 . S
H852 C851 0.930 . S
C853 N854 1.334 . S
C853 C855 1.394 . S
C853 H857 0.930 . S
N854 Gd841 2.601 . S
N854 C844 1.359 . S
N854 C853 1.334 . S
C855 C853 1.394 . S
C855 C856 1.359 . S
C855 H867 0.930 . S
C856 C846 1.391 . S
C856 C855 1.359 . S
C856 H868 0.929 . S
H857 C853 0.930 . S
H858 C847 0.930 . S
H859 C876 0.930 . S
H860 C848 0.930 . S
H861 C849 0.930 . S
H862 C843 0.929 . S
H863 C881 0.930 . S
H864 C872 0.930 . S
H865 C873 0.930 . S
H866 C897 0.929 . S
H867 C855 0.930 . S
H868 C856 0.929 . S
H869 C898 0.930 . S
H870 C879 0.930 . S
N871 Gd840 2.661 . S
N871 C875 1.350 . S
N871 C876 1.307 . S
C872 H864 0.930 . S
C872 C873 1.355 . S
C872 C874 1.412 . S
C873 H865 0.930 . S
C873 C872 1.355 . S
C873 C876 1.402 . S
C874 C872 1.412 . S
C874 C875 1.417 . S
C874 C898 1.431 . S
C875 N871 1.350 . S
C875 C874 1.417 . S
C875 C878 1.426 . S
C876 H859 0.930 . S
C876 N871 1.307 . S
C876 C873 1.402 . S
N877 Gd840 2.601 . S
N877 C878 1.359 . S
N877 C881 1.334 . S
C878 C875 1.426 . S
C878 N877 1.359 . S
C878 C882 1.413 . S
C879 H870 0.930 . S
C879 C880 1.359 . S
C879 C881 1.394 . S
C880 C879 1.359 . S
C880 C882 1.391 . S
C880 H883 0.929 . S
C881 H863 0.930 . S
C881 N877 1.334 . S
C881 C879 1.394 . S
C882 C878 1.413 . S
C882 C880 1.391 . S
C882 C897 1.437 . S
H883 C880 0.929 . S
O884 Gd840 2.545 . S
O884 C899 1.258 . S
O885 Gd840 2.606 . S
O885 Gd841 2.362 . S
O885 C896 1.284 . S
O886 Gd841 2.324 . S
O886 C906 1.254 . S
O887 Gd840 2.429 . S
O887 C906 1.268 . S
O888 Gd840 2.545 . S
O888 C896 1.250 . S
O889 Gd840 2.412 . S
O889 C899 1.252 . S
O890 Gd841 2.545 . S
O890 C908 1.258 . S
O891 Gd840 2.362 . S
O891 Gd841 2.606 . S
O891 C907 1.284 . S
O892 Gd840 2.324 . S
O892 C915 1.254 . S
O893 Gd841 2.429 . S
O893 C915 1.268 . S
O894 Gd841 2.545 . S
O894 C907 1.250 . S
O895 Gd841 2.412 . S
O895 C908 1.252 . S
C896 O885 1.284 . S
C896 O888 1.250 . S
C897 H866 0.929 . S
C897 C882 1.437 . S
C897 C898 1.317 . S
C898 H869 0.930 . S
C898 C874 1.431 . S
C898 C897 1.317 . S
C899 Gd840 2.828 . S
C899 O884 1.258 . S
C899 O889 1.252 . S
C899 C900 1.497 . S
C900 C899 1.497 . S
C900 C901 1.395 . S
C900 C902 1.380 . S
C901 C900 1.395 . S
C901 C904 1.398 . S
C901 H916 0.930 . S
C902 C900 1.380 . S
C902 C903 1.391 . S
C902 H917 0.930 . S
C903 C902 1.391 . S
C903 C905 1.387 . S
C904 C901 1.398 . S
C904 C905 1.380 . S
C904 H918 0.930 . S
C905 C903 1.387 . S
C905 C904 1.380 . S
C905 H919 0.930 . S
C906 O886 1.254 . S
C906 O887 1.268 . S
C907 O891 1.284 . S
C907 O894 1.250 . S
C908 Gd841 2.828 . S
C908 O890 1.258 . S
C908 O895 1.252 . S
C908 C909 1.497 . S
C909 C908 1.497 . S
C909 C910 1.395 . S
C909 C911 1.380 . S
C910 C909 1.395 . S
C910 C913 1.398 . S
C910 H920 0.930 . S
C911 C909 1.380 . S
C911 C912 1.391 . S
C911 H921 0.930 . S
C912 C911 1.391 . S
C912 C914 1.387 . S
C913 C910 1.398 . S
C913 C914 1.380 . S
C913 H922 0.930 . S
C914 C912 1.387 . S
C914 C913 1.380 . S
C914 H923 0.930 . S
C915 O892 1.254 . S
C915 O893 1.268 . S
H916 C901 0.930 . S
H917 C902 0.930 . S
H918 C904 0.930 . S
H919 C905 0.930 . S
H920 C910 0.930 . S
H921 C911 0.930 . S
H922 C913 0.930 . S
H923 C914 0.930 . S
Gd924 N955 2.661 . S
Gd924 N961 2.606 . S
Gd924 O968 2.545 . S
Gd924 O969 2.606 . S
Gd924 O971 2.429 . S
Gd924 O972 2.545 . S
Gd924 O973 2.412 . S
Gd924 O975 2.362 . S
Gd924 O976 2.324 . S
Gd924 C983 2.828 . S
Gd925 N934 2.661 . S
Gd925 N938 2.601 . S
Gd925 O969 2.362 . S
Gd925 O970 2.324 . S
Gd925 O974 2.545 . S
Gd925 O975 2.606 . S
Gd925 O977 2.429 . S
Gd925 O978 2.545 . S
Gd925 O979 2.412 . S
Gd925 C992 2.828 . S
C926 C929 1.417 . S
C926 C931 1.431 . S
C926 C932 1.412 . S
C927 C930 1.437 . S
C927 C931 1.317 . S
C927 H946 0.929 . S
C928 C929 1.426 . S
C928 C930 1.413 . S
C928 N938 1.359 . S
C929 C926 1.417 . S
C929 C928 1.426 . S
C929 N934 1.350 . S
C930 C927 1.437 . S
C930 C928 1.413 . S
C930 C940 1.391 . S
C931 C926 1.431 . S
C931 C927 1.317 . S
C931 H942 0.930 . S
C932 C926 1.412 . S
C932 C933 1.355 . S
C932 H944 0.930 . S
C933 C932 1.355 . S
C933 C935 1.402 . S
C933 H945 0.930 . S
N934 Gd925 2.661 . S
N934 C929 1.350 . S
N934 C935 1.307 . S
C935 C933 1.402 . S
C935 N934 1.307 . S
C935 H936 0.930 . S
H936 C935 0.930 . S
C937 N938 1.334 . S
C937 C939 1.394 . S
C937 H941 0.930 . S
N938 Gd925 2.601 . S
N938 C928 1.359 . S
N938 C937 1.334 . S
C939 C937 1.394 . S
C939 C940 1.359 . S
C939 H951 0.930 . S
C940 C930 1.391 . S
C940 C939 1.359 . S
C940 H952 0.929 . S
H941 C937 0.930 . S
H942 C931 0.930 . S
H943 C960 0.930 . S
H944 C932 0.930 . S
H945 C933 0.930 . S
H946 C927 0.929 . S
H947 C965 0.930 . S
H948 C956 0.930 . S
H949 C957 0.930 . S
H950 C981 0.929 . S
H951 C939 0.930 . S
H952 C940 0.929 . S
H953 C982 0.930 . S
H954 C963 0.930 . S
N955 Gd924 2.661 . S
N955 C959 1.350 . S
N955 C960 1.307 . S
C956 H948 0.930 . S
C956 C957 1.355 . S
C956 C958 1.412 . S
C957 H949 0.930 . S
C957 C956 1.355 . S
C957 C960 1.402 . S
C958 C956 1.412 . S
C958 C959 1.417 . S
C958 C982 1.431 1_565 S
C959 N955 1.350 . S
C959 C958 1.417 . S
C959 C962 1.426 1_565 S
C960 H943 0.930 . S
C960 N955 1.307 . S
C960 C957 1.402 . S
N961 Gd924 2.606 . S
N961 C962 1.358 1_565 S
N961 C965 1.331 1_565 S
C962 C959 1.426 1_545 S
C962 N961 1.358 1_545 S
C962 C966 1.413 . S
C963 H954 0.930 . S
C963 C964 1.359 . S
C963 C965 1.394 . S
C964 C963 1.359 . S
C964 C966 1.391 . S
C964 H967 0.929 . S
C965 H947 0.930 . S
C965 N961 1.331 1_545 S
C965 C963 1.394 . S
C966 C962 1.413 . S
C966 C964 1.391 . S
C966 C981 1.437 . S
H967 C964 0.929 . S
O968 Gd924 2.545 . S
O968 C983 1.258 . S
O969 Gd924 2.606 . S
O969 Gd925 2.362 . S
O969 C980 1.284 . S
O970 Gd925 2.324 . S
O970 C990 1.254 . S
O971 Gd924 2.429 . S
O971 C990 1.268 . S
O972 Gd924 2.545 . S
O972 C980 1.250 . S
O973 Gd924 2.412 . S
O973 C983 1.252 . S
O974 Gd925 2.545 . S
O974 C992 1.258 . S
O975 Gd924 2.362 . S
O975 Gd925 2.606 . S
O975 C991 1.284 . S
O976 Gd924 2.324 . S
O976 C999 1.254 . S
O977 Gd925 2.429 . S
O977 C999 1.268 . S
O978 Gd925 2.545 . S
O978 C991 1.250 . S
O979 Gd925 2.412 . S
O979 C992 1.252 . S
C980 O969 1.284 . S
C980 O972 1.250 . S
C981 H950 0.929 . S
C981 C966 1.437 . S
C981 C982 1.317 . S
C982 H953 0.930 . S
C982 C958 1.431 1_545 S
C982 C981 1.317 . S
C983 Gd924 2.828 . S
C983 O968 1.258 . S
C983 O973 1.252 . S
C983 C984 1.497 . S
C984 C983 1.497 . S
C984 C985 1.395 . S
C984 C986 1.380 . S
C985 C984 1.395 . S
C985 C988 1.398 . S
C985 H1000 0.930 . S
C986 C984 1.380 . S
C986 C987 1.391 . S
C986 H1001 0.930 . S
C987 C986 1.391 . S
C987 C989 1.387 . S
C988 C985 1.398 . S
C988 C989 1.380 . S
C988 H1002 0.930 . S
C989 C987 1.387 . S
C989 C988 1.380 . S
C989 H1003 0.930 . S
C990 O970 1.254 . S
C990 O971 1.268 . S
C991 O975 1.284 . S
C991 O978 1.250 . S
C992 Gd925 2.828 . S
C992 O974 1.258 . S
C992 O979 1.252 . S
C992 C993 1.497 . S
C993 C992 1.497 . S
C993 C994 1.395 . S
C993 C995 1.380 . S
C994 C993 1.395 . S
C994 C997 1.398 . S
C994 H1004 0.930 . S
C995 C993 1.380 . S
C995 C996 1.391 . S
C995 H1005 0.930 . S
C996 C995 1.391 . S
C996 C998 1.387 . S
C997 C994 1.398 . S
C997 C998 1.380 . S
C997 H1006 0.930 . S
C998 C996 1.387 . S
C998 C997 1.380 . S
C998 H1007 0.930 . S
C999 O976 1.254 . S
C999 O977 1.268 . S
H1000 C985 0.930 . S
H1001 C986 0.930 . S
H1002 C988 0.930 . S
H1003 C989 0.930 . S
H1004 C994 0.930 . S
H1005 C995 0.930 . S
H1006 C997 0.930 . S
H1007 C998 0.930 . S
Gd1008 N1039 2.661 . S
Gd1008 N1045 2.601 . S
Gd1008 O1052 2.545 . S
Gd1008 O1053 2.606 . S
Gd1008 O1055 2.429 . S
Gd1008 O1056 2.545 . S
Gd1008 O1057 2.412 . S
Gd1008 O1059 2.362 . S
Gd1008 O1060 2.324 . S
Gd1008 C1067 2.828 . S
Gd1009 N1018 2.661 . S
Gd1009 N1022 2.601 . S
Gd1009 O1053 2.362 . S
Gd1009 O1054 2.324 . S
Gd1009 O1058 2.545 . S
Gd1009 O1059 2.606 . S
Gd1009 O1061 2.429 . S
Gd1009 O1062 2.545 . S
Gd1009 O1063 2.412 . S
Gd1009 C1076 2.828 . S
C1010 C1013 1.417 . S
C1010 C1015 1.431 . S
C1010 C1016 1.412 . S
C1011 C1014 1.437 . S
C1011 C1015 1.317 . S
C1011 H1030 0.929 . S
C1012 C1013 1.426 . S
C1012 C1014 1.413 . S
C1012 N1022 1.359 . S
C1013 C1010 1.417 . S
C1013 C1012 1.426 . S
C1013 N1018 1.350 . S
C1014 C1011 1.437 . S
C1014 C1012 1.413 . S
C1014 C1024 1.391 . S
C1015 C1010 1.431 . S
C1015 C1011 1.317 . S
C1015 H1026 0.930 . S
C1016 C1010 1.412 . S
C1016 C1017 1.355 . S
C1016 H1028 0.930 . S
C1017 C1016 1.355 . S
C1017 C1019 1.402 . S
C1017 H1029 0.930 . S
N1018 Gd1009 2.661 . S
N1018 C1013 1.350 . S
N1018 C1019 1.307 . S
C1019 C1017 1.402 . S
C1019 N1018 1.307 . S
C1019 H1020 0.930 . S
H1020 C1019 0.930 . S
C1021 N1022 1.334 . S
C1021 C1023 1.394 . S
C1021 H1025 0.930 . S
N1022 Gd1009 2.601 . S
N1022 C1012 1.359 . S
N1022 C1021 1.334 . S
C1023 C1021 1.394 . S
C1023 C1024 1.359 . S
C1023 H1035 0.930 . S
C1024 C1014 1.391 . S
C1024 C1023 1.359 . S
C1024 H1036 0.929 . S
H1025 C1021 0.930 . S
H1026 C1015 0.930 . S
H1027 C1044 0.930 . S
H1028 C1016 0.930 . S
H1029 C1017 0.930 . S
H1030 C1011 0.929 . S
H1031 C1049 0.930 . S
H1032 C1040 0.930 . S
H1033 C1041 0.930 . S
H1034 C1065 0.929 . S
H1035 C1023 0.930 . S
H1036 C1024 0.929 . S
H1037 C1066 0.930 . S
H1038 C1047 0.930 . S
N1039 Gd1008 2.661 . S
N1039 C1043 1.350 . S
N1039 C1044 1.307 . S
C1040 H1032 0.930 . S
C1040 C1041 1.355 . S
C1040 C1042 1.412 . S
C1041 H1033 0.930 . S
C1041 C1040 1.355 . S
C1041 C1044 1.402 . S
C1042 C1040 1.412 . S
C1042 C1043 1.417 . S
C1042 C1066 1.431 . S
C1043 N1039 1.350 . S
C1043 C1042 1.417 . S
C1043 C1046 1.426 . S
C1044 H1027 0.930 . S
C1044 N1039 1.307 . S
C1044 C1041 1.402 . S
N1045 Gd1008 2.601 . S
N1045 C1046 1.359 . S
N1045 C1049 1.334 . S
C1046 C1043 1.426 . S
C1046 N1045 1.359 . S
C1046 C1050 1.413 . S
C1047 H1038 0.930 . S
C1047 C1048 1.359 . S
C1047 C1049 1.394 . S
C1048 C1047 1.359 . S
C1048 C1050 1.391 . S
C1048 H1051 0.929 . S
C1049 H1031 0.930 . S
C1049 N1045 1.334 . S
C1049 C1047 1.394 . S
C1050 C1046 1.413 . S
C1050 C1048 1.391 . S
C1050 C1065 1.437 . S
H1051 C1048 0.929 . S
O1052 Gd1008 2.545 . S
O1052 C1067 1.258 . S
O1053 Gd1008 2.606 . S
O1053 Gd1009 2.362 . S
O1053 C1064 1.284 . S
O1054 Gd1009 2.324 . S
O1054 C1074 1.254 . S
O1055 Gd1008 2.429 . S
O1055 C1074 1.268 . S
O1056 Gd1008 2.545 . S
O1056 C1064 1.250 . S
O1057 Gd1008 2.412 . S
O1057 C1067 1.252 . S
O1058 Gd1009 2.545 . S
O1058 C1076 1.258 . S
O1059 Gd1008 2.362 . S
O1059 Gd1009 2.606 . S
O1059 C1075 1.284 . S
O1060 Gd1008 2.324 . S
O1060 C1083 1.254 . S
O1061 Gd1009 2.429 . S
O1061 C1083 1.268 . S
O1062 Gd1009 2.545 . S
O1062 C1075 1.250 . S
O1063 Gd1009 2.412 . S
O1063 C1076 1.252 . S
C1064 O1053 1.284 . S
C1064 O1056 1.250 . S
C1065 H1034 0.929 . S
C1065 C1050 1.437 . S
C1065 C1066 1.317 . S
C1066 H1037 0.930 . S
C1066 C1042 1.431 . S
C1066 C1065 1.317 . S
C1067 Gd1008 2.828 . S
C1067 O1052 1.258 . S
C1067 O1057 1.252 . S
C1067 C1068 1.497 . S
C1068 C1067 1.497 . S
C1068 C1069 1.395 . S
C1068 C1070 1.380 . S
C1069 C1068 1.395 . S
C1069 C1072 1.398 . S
C1069 H1084 0.930 . S
C1070 C1068 1.380 . S
C1070 C1071 1.391 . S
C1070 H1085 0.930 . S
C1071 C1070 1.391 . S
C1071 C1073 1.387 . S
C1072 C1069 1.398 . S
C1072 C1073 1.380 . S
C1072 H1086 0.930 . S
C1073 C1071 1.387 . S
C1073 C1072 1.380 . S
C1073 H1087 0.930 . S
C1074 O1054 1.254 . S
C1074 O1055 1.268 . S
C1075 O1059 1.284 . S
C1075 O1062 1.250 . S
C1076 Gd1009 2.828 . S
C1076 O1058 1.258 . S
C1076 O1063 1.252 . S
C1076 C1077 1.497 . S
C1077 C1076 1.497 . S
C1077 C1078 1.395 . S
C1077 C1079 1.380 . S
C1078 C1077 1.395 . S
C1078 C1081 1.398 . S
C1078 H1088 0.930 . S
C1079 C1077 1.380 . S
C1079 C1080 1.391 . S
C1079 H1089 0.930 . S
C1080 C1079 1.391 . S
C1080 C1082 1.387 . S
C1081 C1078 1.398 . S
C1081 C1082 1.380 . S
C1081 H1090 0.930 . S
C1082 C1080 1.387 . S
C1082 C1081 1.380 . S
C1082 H1091 0.930 . S
C1083 O1060 1.254 . S
C1083 O1061 1.268 . S
H1084 C1069 0.930 . S
H1085 C1070 0.930 . S
H1086 C1072 0.930 . S
H1087 C1073 0.930 . S
H1088 C1078 0.930 . S
H1089 C1079 0.930 . S
H1090 C1081 0.930 . S
H1091 C1082 0.930 . S
Gd1092 N1123 2.661 . S
Gd1092 N1129 2.606 . S
Gd1092 O1136 2.545 . S
Gd1092 O1137 2.606 . S
Gd1092 O1139 2.429 . S
Gd1092 O1140 2.545 . S
Gd1092 O1141 2.412 . S
Gd1092 O1143 2.362 . S
Gd1092 O1144 2.324 . S
Gd1092 C1151 2.828 . S
Gd1093 N1102 2.661 . S
Gd1093 N1106 2.601 . S
Gd1093 O1137 2.362 . S
Gd1093 O1138 2.324 . S
Gd1093 O1142 2.545 . S
Gd1093 O1143 2.606 . S
Gd1093 O1145 2.429 . S
Gd1093 O1146 2.545 . S
Gd1093 O1147 2.412 . S
Gd1093 C1160 2.828 . S
C1094 C1097 1.417 . S
C1094 C1099 1.431 . S
C1094 C1100 1.412 . S
C1095 C1098 1.437 . S
C1095 C1099 1.317 . S
C1095 H1114 0.929 . S
C1096 C1097 1.426 . S
C1096 C1098 1.413 . S
C1096 N1106 1.359 . S
C1097 C1094 1.417 . S
C1097 C1096 1.426 . S
C1097 N1102 1.350 . S
C1098 C1095 1.437 . S
C1098 C1096 1.413 . S
C1098 C1108 1.391 . S
C1099 C1094 1.431 . S
C1099 C1095 1.317 . S
C1099 H1110 0.930 . S
C1100 C1094 1.412 . S
C1100 C1101 1.355 . S
C1100 H1112 0.930 . S
C1101 C1100 1.355 . S
C1101 C1103 1.402 . S
C1101 H1113 0.930 . S
N1102 Gd1093 2.661 . S
N1102 C1097 1.350 . S
N1102 C1103 1.307 . S
C1103 C1101 1.402 . S
C1103 N1102 1.307 . S
C1103 H1104 0.930 . S
H1104 C1103 0.930 . S
C1105 N1106 1.334 . S
C1105 C1107 1.394 . S
C1105 H1109 0.930 . S
N1106 Gd1093 2.601 . S
N1106 C1096 1.359 . S
N1106 C1105 1.334 . S
C1107 C1105 1.394 . S
C1107 C1108 1.359 . S
C1107 H1119 0.930 . S
C1108 C1098 1.391 . S
C1108 C1107 1.359 . S
C1108 H1120 0.929 . S
H1109 C1105 0.930 . S
H1110 C1099 0.930 . S
H1111 C1128 0.930 . S
H1112 C1100 0.930 . S
H1113 C1101 0.930 . S
H1114 C1095 0.929 . S
H1115 C1133 0.930 . S
H1116 C1124 0.930 . S
H1117 C1125 0.930 . S
H1118 C1149 0.929 . S
H1119 C1107 0.930 . S
H1120 C1108 0.929 . S
H1121 C1150 0.930 . S
H1122 C1131 0.930 . S
N1123 Gd1092 2.661 . S
N1123 C1127 1.350 . S
N1123 C1128 1.307 . S
C1124 H1116 0.930 . S
C1124 C1125 1.355 . S
C1124 C1126 1.412 . S
C1125 H1117 0.930 . S
C1125 C1124 1.355 . S
C1125 C1128 1.402 . S
C1126 C1124 1.412 . S
C1126 C1127 1.417 . S
C1126 C1150 1.431 1_545 S
C1127 N1123 1.350 . S
C1127 C1126 1.417 . S
C1127 C1130 1.426 1_545 S
C1128 H1111 0.930 . S
C1128 N1123 1.307 . S
C1128 C1125 1.402 . S
N1129 Gd1092 2.606 . S
N1129 C1130 1.358 1_545 S
N1129 C1133 1.331 1_545 S
C1130 C1127 1.426 1_565 S
C1130 N1129 1.358 1_565 S
C1130 C1134 1.413 . S
C1131 H1122 0.930 . S
C1131 C1132 1.359 . S
C1131 C1133 1.394 . S
C1132 C1131 1.359 . S
C1132 C1134 1.391 . S
C1132 H1135 0.929 . S
C1133 H1115 0.930 . S
C1133 N1129 1.331 1_565 S
C1133 C1131 1.394 . S
C1134 C1130 1.413 . S
C1134 C1132 1.391 . S
C1134 C1149 1.437 . S
H1135 C1132 0.929 . S
O1136 Gd1092 2.545 . S
O1136 C1151 1.258 . S
O1137 Gd1092 2.606 . S
O1137 Gd1093 2.362 . S
O1137 C1148 1.284 . S
O1138 Gd1093 2.324 . S
O1138 C1158 1.254 . S
O1139 Gd1092 2.429 . S
O1139 C1158 1.268 . S
O1140 Gd1092 2.545 . S
O1140 C1148 1.250 . S
O1141 Gd1092 2.412 . S
O1141 C1151 1.252 . S
O1142 Gd1093 2.545 . S
O1142 C1160 1.258 . S
O1143 Gd1092 2.362 . S
O1143 Gd1093 2.606 . S
O1143 C1159 1.284 . S
O1144 Gd1092 2.324 . S
O1144 C1167 1.254 . S
O1145 Gd1093 2.429 . S
O1145 C1167 1.268 . S
O1146 Gd1093 2.545 . S
O1146 C1159 1.250 . S
O1147 Gd1093 2.412 . S
O1147 C1160 1.252 . S
C1148 O1137 1.284 . S
C1148 O1140 1.250 . S
C1149 H1118 0.929 . S
C1149 C1134 1.437 . S
C1149 C1150 1.317 . S
C1150 H1121 0.930 . S
C1150 C1126 1.431 1_565 S
C1150 C1149 1.317 . S
C1151 Gd1092 2.828 . S
C1151 O1136 1.258 . S
C1151 O1141 1.252 . S
C1151 C1152 1.497 . S
C1152 C1151 1.497 . S
C1152 C1153 1.395 . S
C1152 C1154 1.380 . S
C1153 C1152 1.395 . S
C1153 C1156 1.398 . S
C1153 H1168 0.930 . S
C1154 C1152 1.380 . S
C1154 C1155 1.391 . S
C1154 H1169 0.930 . S
C1155 C1154 1.391 . S
C1155 C1157 1.387 . S
C1156 C1153 1.398 . S
C1156 C1157 1.380 . S
C1156 H1170 0.930 . S
C1157 C1155 1.387 . S
C1157 C1156 1.380 . S
C1157 H1171 0.930 . S
C1158 O1138 1.254 . S
C1158 O1139 1.268 . S
C1159 O1143 1.284 . S
C1159 O1146 1.250 . S
C1160 Gd1093 2.828 . S
C1160 O1142 1.258 . S
C1160 O1147 1.252 . S
C1160 C1161 1.497 . S
C1161 C1160 1.497 . S
C1161 C1162 1.395 . S
C1161 C1163 1.380 . S
C1162 C1161 1.395 . S
C1162 C1165 1.398 . S
C1162 H1172 0.930 . S
C1163 C1161 1.380 . S
C1163 C1164 1.391 . S
C1163 H1173 0.930 . S
C1164 C1163 1.391 . S
C1164 C1166 1.387 . S
C1165 C1162 1.398 . S
C1165 C1166 1.380 . S
C1165 H1174 0.930 . S
C1166 C1164 1.387 . S
C1166 C1165 1.380 . S
C1166 H1175 0.930 . S
C1167 O1144 1.254 . S
C1167 O1145 1.268 . S
H1168 C1153 0.930 . S
H1169 C1154 0.930 . S
H1170 C1156 0.930 . S
H1171 C1157 0.930 . S
H1172 C1162 0.930 . S
H1173 C1163 0.930 . S
H1174 C1165 0.930 . S
H1175 C1166 0.930 . S
Gd1176 N1207 2.661 . S
Gd1176 N1213 2.601 . S
Gd1176 O1220 2.545 . S
Gd1176 O1221 2.606 . S
Gd1176 O1223 2.429 . S
Gd1176 O1224 2.545 . S
Gd1176 O1225 2.412 . S
Gd1176 O1227 2.362 . S
Gd1176 O1228 2.324 . S
Gd1176 C1235 2.828 . S
Gd1177 N1186 2.661 . S
Gd1177 N1190 2.601 . S
Gd1177 O1221 2.362 . S
Gd1177 O1222 2.324 . S
Gd1177 O1226 2.545 . S
Gd1177 O1227 2.606 . S
Gd1177 O1229 2.429 . S
Gd1177 O1230 2.545 . S
Gd1177 O1231 2.412 . S
Gd1177 C1244 2.828 . S
C1178 C1181 1.417 . S
C1178 C1183 1.431 . S
C1178 C1184 1.412 . S
C1179 C1182 1.437 . S
C1179 C1183 1.317 . S
C1179 H1198 0.929 . S
C1180 C1181 1.426 . S
C1180 C1182 1.413 . S
C1180 N1190 1.359 . S
C1181 C1178 1.417 . S
C1181 C1180 1.426 . S
C1181 N1186 1.350 . S
C1182 C1179 1.437 . S
C1182 C1180 1.413 . S
C1182 C1192 1.391 . S
C1183 C1178 1.431 . S
C1183 C1179 1.317 . S
C1183 H1194 0.930 . S
C1184 C1178 1.412 . S
C1184 C1185 1.355 . S
C1184 H1196 0.930 . S
C1185 C1184 1.355 . S
C1185 C1187 1.402 . S
C1185 H1197 0.930 . S
N1186 Gd1177 2.661 . S
N1186 C1181 1.350 . S
N1186 C1187 1.307 . S
C1187 C1185 1.402 . S
C1187 N1186 1.307 . S
C1187 H1188 0.930 . S
H1188 C1187 0.930 . S
C1189 N1190 1.334 . S
C1189 C1191 1.394 . S
C1189 H1193 0.930 . S
N1190 Gd1177 2.601 . S
N1190 C1180 1.359 . S
N1190 C1189 1.334 . S
C1191 C1189 1.394 . S
C1191 C1192 1.359 . S
C1191 H1203 0.930 . S
C1192 C1182 1.391 . S
C1192 C1191 1.359 . S
C1192 H1204 0.929 . S
H1193 C1189 0.930 . S
H1194 C1183 0.930 . S
H1195 C1212 0.930 . S
H1196 C1184 0.930 . S
H1197 C1185 0.930 . S
H1198 C1179 0.929 . S
H1199 C1217 0.930 . S
H1200 C1208 0.930 . S
H1201 C1209 0.930 . S
H1202 C1233 0.929 . S
H1203 C1191 0.930 . S
H1204 C1192 0.929 . S
H1205 C1234 0.930 . S
H1206 C1215 0.930 . S
N1207 Gd1176 2.661 . S
N1207 C1211 1.350 . S
N1207 C1212 1.307 . S
C1208 H1200 0.930 . S
C1208 C1209 1.355 . S
C1208 C1210 1.412 . S
C1209 H1201 0.930 . S
C1209 C1208 1.355 . S
C1209 C1212 1.402 . S
C1210 C1208 1.412 . S
C1210 C1211 1.417 . S
C1210 C1234 1.431 . S
C1211 N1207 1.350 . S
C1211 C1210 1.417 . S
C1211 C1214 1.426 . S
C1212 H1195 0.930 . S
C1212 N1207 1.307 . S
C1212 C1209 1.402 . S
N1213 Gd1176 2.601 . S
N1213 C1214 1.359 . S
N1213 C1217 1.334 . S
C1214 C1211 1.426 . S
C1214 N1213 1.359 . S
C1214 C1218 1.413 . S
C1215 H1206 0.930 . S
C1215 C1216 1.359 . S
C1215 C1217 1.394 . S
C1216 C1215 1.359 . S
C1216 C1218 1.391 . S
C1216 H1219 0.929 . S
C1217 H1199 0.930 . S
C1217 N1213 1.334 . S
C1217 C1215 1.394 . S
C1218 C1214 1.413 . S
C1218 C1216 1.391 . S
C1218 C1233 1.437 . S
H1219 C1216 0.929 . S
O1220 Gd1176 2.545 . S
O1220 C1235 1.258 . S
O1221 Gd1176 2.606 . S
O1221 Gd1177 2.362 . S
O1221 C1232 1.284 . S
O1222 Gd1177 2.324 . S
O1222 C1242 1.254 . S
O1223 Gd1176 2.429 . S
O1223 C1242 1.268 . S
O1224 Gd1176 2.545 . S
O1224 C1232 1.250 . S
O1225 Gd1176 2.412 . S
O1225 C1235 1.252 . S
O1226 Gd1177 2.545 . S
O1226 C1244 1.258 . S
O1227 Gd1176 2.362 . S
O1227 Gd1177 2.606 . S
O1227 C1243 1.284 . S
O1228 Gd1176 2.324 . S
O1228 C1251 1.254 . S
O1229 Gd1177 2.429 . S
O1229 C1251 1.268 . S
O1230 Gd1177 2.545 . S
O1230 C1243 1.250 . S
O1231 Gd1177 2.412 . S
O1231 C1244 1.252 . S
C1232 O1221 1.284 . S
C1232 O1224 1.250 . S
C1233 H1202 0.929 . S
C1233 C1218 1.437 . S
C1233 C1234 1.317 . S
C1234 H1205 0.930 . S
C1234 C1210 1.431 . S
C1234 C1233 1.317 . S
C1235 Gd1176 2.828 . S
C1235 O1220 1.258 . S
C1235 O1225 1.252 . S
C1235 C1236 1.497 . S
C1236 C1235 1.497 . S
C1236 C1237 1.395 . S
C1236 C1238 1.380 . S
C1237 C1236 1.395 . S
C1237 C1240 1.398 . S
C1237 H1252 0.930 . S
C1238 C1236 1.380 . S
C1238 C1239 1.391 . S
C1238 H1253 0.930 . S
C1239 C1238 1.391 . S
C1239 C1241 1.387 . S
C1240 C1237 1.398 . S
C1240 C1241 1.380 . S
C1240 H1254 0.930 . S
C1241 C1239 1.387 . S
C1241 C1240 1.380 . S
C1241 H1255 0.930 . S
C1242 O1222 1.254 . S
C1242 O1223 1.268 . S
C1243 O1227 1.284 . S
C1243 O1230 1.250 . S
C1244 Gd1177 2.828 . S
C1244 O1226 1.258 . S
C1244 O1231 1.252 . S
C1244 C1245 1.497 . S
C1245 C1244 1.497 . S
C1245 C1246 1.395 . S
C1245 C1247 1.380 . S
C1246 C1245 1.395 . S
C1246 C1249 1.398 . S
C1246 H1256 0.930 . S
C1247 C1245 1.380 . S
C1247 C1248 1.391 . S
C1247 H1257 0.930 . S
C1248 C1247 1.391 . S
C1248 C1250 1.387 . S
C1249 C1246 1.398 . S
C1249 C1250 1.380 . S
C1249 H1258 0.930 . S
C1250 C1248 1.387 . S
C1250 C1249 1.380 . S
C1250 H1259 0.930 . S
C1251 O1228 1.254 . S
C1251 O1229 1.268 . S
H1252 C1237 0.930 . S
H1253 C1238 0.930 . S
H1254 C1240 0.930 . S
H1255 C1241 0.930 . S
H1256 C1246 0.930 . S
H1257 C1247 0.930 . S
H1258 C1249 0.930 . S
H1259 C1250 0.930 . S
Gd1260 N1291 2.661 1_655 S
Gd1260 N1297 2.606 . S
Gd1260 O1304 2.545 . S
Gd1260 O1305 2.606 . S
Gd1260 O1307 2.429 . S
Gd1260 O1308 2.545 . S
Gd1260 O1309 2.412 1_655 S
Gd1260 O1311 2.362 . S
Gd1260 O1312 2.324 . S
Gd1260 C1319 2.828 1_655 S
Gd1261 N1270 2.661 . S
Gd1261 N1274 2.601 . S
Gd1261 O1305 2.362 . S
Gd1261 O1306 2.324 . S
Gd1261 O1310 2.545 . S
Gd1261 O1311 2.606 . S
Gd1261 O1313 2.429 . S
Gd1261 O1314 2.545 . S
Gd1261 O1315 2.412 . S
Gd1261 C1328 2.828 . S
C1262 C1265 1.417 . S
C1262 C1267 1.431 . S
C1262 C1268 1.412 . S
C1263 C1266 1.437 . S
C1263 C1267 1.317 . S
C1263 H1282 0.929 . S
C1264 C1265 1.426 . S
C1264 C1266 1.413 . S
C1264 N1274 1.359 . S
C1265 C1262 1.417 . S
C1265 C1264 1.426 . S
C1265 N1270 1.350 . S
C1266 C1263 1.437 . S
C1266 C1264 1.413 . S
C1266 C1276 1.391 . S
C1267 C1262 1.431 . S
C1267 C1263 1.317 . S
C1267 H1278 0.930 . S
C1268 C1262 1.412 . S
C1268 C1269 1.355 . S
C1268 H1280 0.930 . S
C1269 C1268 1.355 . S
C1269 C1271 1.402 . S
C1269 H1281 0.930 . S
N1270 Gd1261 2.661 . S
N1270 C1265 1.350 . S
N1270 C1271 1.307 . S
C1271 C1269 1.402 . S
C1271 N1270 1.307 . S
C1271 H1272 0.930 . S
H1272 C1271 0.930 . S
C1273 N1274 1.334 . S
C1273 C1275 1.394 . S
C1273 H1277 0.930 . S
N1274 Gd1261 2.601 . S
N1274 C1264 1.359 . S
N1274 C1273 1.334 . S
C1275 C1273 1.394 . S
C1275 C1276 1.359 . S
C1275 H1287 0.930 . S
C1276 C1266 1.391 . S
C1276 C1275 1.359 . S
C1276 H1288 0.929 . S
H1277 C1273 0.930 . S
H1278 C1267 0.930 . S
H1279 C1296 0.930 . S
H1280 C1268 0.930 . S
H1281 C1269 0.930 . S
H1282 C1263 0.929 . S
H1283 C1301 0.930 . S
H1284 C1292 0.930 . S
H1285 C1293 0.930 . S
H1286 C1317 0.929 . S
H1287 C1275 0.930 . S
H1288 C1276 0.929 . S
H1289 C1318 0.930 . S
H1290 C1299 0.930 1_655 S
N1291 Gd1260 2.661 1_455 S
N1291 C1295 1.350 . S
N1291 C1296 1.307 . S
C1292 H1284 0.930 . S
C1292 C1293 1.355 . S
C1292 C1294 1.412 . S
C1293 H1285 0.930 . S
C1293 C1292 1.355 . S
C1293 C1296 1.402 . S
C1294 C1292 1.412 . S
C1294 C1295 1.417 . S
C1294 C1318 1.431 1_565 S
C1295 N1291 1.350 . S
C1295 C1294 1.417 . S
C1295 C1298 1.426 1_565 S
C1296 H1279 0.930 . S
C1296 N1291 1.307 . S
C1296 C1293 1.402 . S
N1297 Gd1260 2.606 . S
N1297 C1298 1.358 1_665 S
N1297 C1301 1.331 1_565 S
C1298 C1295 1.426 1_545 S
C1298 N1297 1.358 1_445 S
C1298 C1302 1.413 . S
C1299 H1290 0.930 1_455 S
C1299 C1300 1.359 . S
C1299 C1301 1.394 1_455 S
C1300 C1299 1.359 . S
C1300 C1302 1.391 . S
C1300 H1303 0.929 . S
C1301 H1283 0.930 . S
C1301 N1297 1.331 1_545 S
C1301 C1299 1.394 1_655 S
C1302 C1298 1.413 . S
C1302 C1300 1.391 . S
C1302 C1317 1.437 . S
H1303 C1300 0.929 . S
O1304 Gd1260 2.545 . S
O1304 C1319 1.258 1_655 S
O1305 Gd1260 2.606 . S
O1305 Gd1261 2.362 . S
O1305 C1316 1.284 . S
O1306 Gd1261 2.324 . S
O1306 C1326 1.254 . S
O1307 Gd1260 2.429 . S
O1307 C1326 1.268 . S
O1308 Gd1260 2.545 . S
O1308 C1316 1.250 . S
O1309 Gd1260 2.412 1_455 S
O1309 C1319 1.252 . S
O1310 Gd1261 2.545 . S
O1310 C1328 1.258 . S
O1311 Gd1260 2.362 . S
O1311 Gd1261 2.606 . S
O1311 C1327 1.284 . S
O1312 Gd1260 2.324 . S
O1312 C1335 1.254 . S
O1313 Gd1261 2.429 . S
O1313 C1335 1.268 . S
O1314 Gd1261 2.545 . S
O1314 C1327 1.250 . S
O1315 Gd1261 2.412 . S
O1315 C1328 1.252 . S
C1316 O1305 1.284 . S
C1316 O1308 1.250 . S
C1317 H1286 0.929 . S
C1317 C1302 1.437 . S
C1317 C1318 1.317 . S
C1318 H1289 0.930 . S
C1318 C1294 1.431 1_545 S
C1318 C1317 1.317 . S
C1319 Gd1260 2.828 1_455 S
C1319 O1304 1.258 1_455 S
C1319 O1309 1.252 . S
C1319 C1320 1.497 . S
C1320 C1319 1.497 . S
C1320 C1321 1.395 . S
C1320 C1322 1.380 . S
C1321 C1320 1.395 . S
C1321 C1324 1.398 . S
C1321 H1336 0.930 . S
C1322 C1320 1.380 . S
C1322 C1323 1.391 . S
C1322 H1337 0.930 . S
C1323 C1322 1.391 . S
C1323 C1325 1.387 . S
C1324 C1321 1.398 . S
C1324 C1325 1.380 . S
C1324 H1338 0.930 . S
C1325 C1323 1.387 . S
C1325 C1324 1.380 . S
C1325 H1339 0.930 . S
C1326 O1306 1.254 . S
C1326 O1307 1.268 . S
C1327 O1311 1.284 . S
C1327 O1314 1.250 . S
C1328 Gd1261 2.828 . S
C1328 O1310 1.258 . S
C1328 O1315 1.252 . S
C1328 C1329 1.497 . S
C1329 C1328 1.497 . S
C1329 C1330 1.395 . S
C1329 C1331 1.380 . S
C1330 C1329 1.395 . S
C1330 C1333 1.398 . S
C1330 H1340 0.930 . S
C1331 C1329 1.380 . S
C1331 C1332 1.391 . S
C1331 H1341 0.930 . S
C1332 C1331 1.391 . S
C1332 C1334 1.387 . S
C1333 C1330 1.398 . S
C1333 C1334 1.380 . S
C1333 H1342 0.930 . S
C1334 C1332 1.387 . S
C1334 C1333 1.380 . S
C1334 H1343 0.930 . S
C1335 O1312 1.254 . S
C1335 O1313 1.268 . S
H1336 C1321 0.930 . S
H1337 C1322 0.930 . S
H1338 C1324 0.930 . S
H1339 C1325 0.930 . S
H1340 C1330 0.930 . S
H1341 C1331 0.930 . S
H1342 C1333 0.930 . S
H1343 C1334 0.930 . S
Gd1344 N1375 2.661 . S
Gd1344 N1381 2.601 . S
Gd1344 O1388 2.545 . S
Gd1344 O1389 2.606 . S
Gd1344 O1391 2.429 . S
Gd1344 O1392 2.545 . S
Gd1344 O1393 2.412 . S
Gd1344 O1395 2.362 . S
Gd1344 O1396 2.324 . S
Gd1344 C1403 2.828 . S
Gd1345 N1354 2.661 . S
Gd1345 N1358 2.601 . S
Gd1345 O1389 2.362 . S
Gd1345 O1390 2.324 . S
Gd1345 O1394 2.545 . S
Gd1345 O1395 2.606 . S
Gd1345 O1397 2.429 . S
Gd1345 O1398 2.545 . S
Gd1345 O1399 2.412 . S
Gd1345 C1412 2.828 . S
C1346 C1349 1.417 . S
C1346 C1351 1.431 . S
C1346 C1352 1.412 . S
C1347 C1350 1.437 . S
C1347 C1351 1.317 . S
C1347 H1366 0.929 . S
C1348 C1349 1.426 . S
C1348 C1350 1.413 . S
C1348 N1358 1.359 . S
C1349 C1346 1.417 . S
C1349 C1348 1.426 . S
C1349 N1354 1.350 . S
C1350 C1347 1.437 . S
C1350 C1348 1.413 . S
C1350 C1360 1.391 . S
C1351 C1346 1.431 . S
C1351 C1347 1.317 . S
C1351 H1362 0.930 . S
C1352 C1346 1.412 . S
C1352 C1353 1.355 . S
C1352 H1364 0.930 . S
C1353 C1352 1.355 . S
C1353 C1355 1.402 . S
C1353 H1365 0.930 . S
N1354 Gd1345 2.661 . S
N1354 C1349 1.350 . S
N1354 C1355 1.307 . S
C1355 C1353 1.402 . S
C1355 N1354 1.307 . S
C1355 H1356 0.930 . S
H1356 C1355 0.930 . S
C1357 N1358 1.334 . S
C1357 C1359 1.394 . S
C1357 H1361 0.930 . S
N1358 Gd1345 2.601 . S
N1358 C1348 1.359 . S
N1358 C1357 1.334 . S
C1359 C1357 1.394 . S
C1359 C1360 1.359 . S
C1359 H1371 0.930 . S
C1360 C1350 1.391 . S
C1360 C1359 1.359 . S
C1360 H1372 0.929 . S
H1361 C1357 0.930 . S
H1362 C1351 0.930 . S
H1363 C1380 0.930 . S
H1364 C1352 0.930 . S
H1365 C1353 0.930 . S
H1366 C1347 0.929 . S
H1367 C1385 0.930 . S
H1368 C1376 0.930 . S
H1369 C1377 0.930 . S
H1370 C1401 0.929 . S
H1371 C1359 0.930 . S
H1372 C1360 0.929 . S
H1373 C1402 0.930 . S
H1374 C1383 0.930 . S
N1375 Gd1344 2.661 . S
N1375 C1379 1.350 . S
N1375 C1380 1.307 . S
C1376 H1368 0.930 . S
C1376 C1377 1.355 . S
C1376 C1378 1.412 . S
C1377 H1369 0.930 . S
C1377 C1376 1.355 . S
C1377 C1380 1.402 . S
C1378 C1376 1.412 . S
C1378 C1379 1.417 . S
C1378 C1402 1.431 . S
C1379 N1375 1.350 . S
C1379 C1378 1.417 . S
C1379 C1382 1.426 . S
C1380 H1363 0.930 . S
C1380 N1375 1.307 . S
C1380 C1377 1.402 . S
N1381 Gd1344 2.601 . S
N1381 C1382 1.359 . S
N1381 C1385 1.334 . S
C1382 C1379 1.426 . S
C1382 N1381 1.359 . S
C1382 C1386 1.413 . S
C1383 H1374 0.930 . S
C1383 C1384 1.359 . S
C1383 C1385 1.394 . S
C1384 C1383 1.359 . S
C1384 C1386 1.391 . S
C1384 H1387 0.929 . S
C1385 H1367 0.930 . S
C1385 N1381 1.334 . S
C1385 C1383 1.394 . S
C1386 C1382 1.413 . S
C1386 C1384 1.391 . S
C1386 C1401 1.437 . S
H1387 C1384 0.929 . S
O1388 Gd1344 2.545 . S
O1388 C1403 1.258 . S
O1389 Gd1344 2.606 . S
O1389 Gd1345 2.362 . S
O1389 C1400 1.284 . S
O1390 Gd1345 2.324 . S
O1390 C1410 1.254 . S
O1391 Gd1344 2.429 . S
O1391 C1410 1.268 . S
O1392 Gd1344 2.545 . S
O1392 C1400 1.250 . S
O1393 Gd1344 2.412 . S
O1393 C1403 1.252 . S
O1394 Gd1345 2.545 . S
O1394 C1412 1.258 . S
O1395 Gd1344 2.362 . S
O1395 Gd1345 2.606 . S
O1395 C1411 1.284 . S
O1396 Gd1344 2.324 . S
O1396 C1419 1.254 . S
O1397 Gd1345 2.429 . S
O1397 C1419 1.268 . S
O1398 Gd1345 2.545 . S
O1398 C1411 1.250 . S
O1399 Gd1345 2.412 . S
O1399 C1412 1.252 . S
C1400 O1389 1.284 . S
C1400 O1392 1.250 . S
C1401 H1370 0.929 . S
C1401 C1386 1.437 . S
C1401 C1402 1.317 . S
C1402 H1373 0.930 . S
C1402 C1378 1.431 . S
C1402 C1401 1.317 . S
C1403 Gd1344 2.828 . S
C1403 O1388 1.258 . S
C1403 O1393 1.252 . S
C1403 C1404 1.497 . S
C1404 C1403 1.497 . S
C1404 C1405 1.395 . S
C1404 C1406 1.380 . S
C1405 C1404 1.395 . S
C1405 C1408 1.398 . S
C1405 H1420 0.930 . S
C1406 C1404 1.380 . S
C1406 C1407 1.391 . S
C1406 H1421 0.930 . S
C1407 C1406 1.391 . S
C1407 C1409 1.387 . S
C1408 C1405 1.398 . S
C1408 C1409 1.380 . S
C1408 H1422 0.930 . S
C1409 C1407 1.387 . S
C1409 C1408 1.380 . S
C1409 H1423 0.930 . S
C1410 O1390 1.254 . S
C1410 O1391 1.268 . S
C1411 O1395 1.284 . S
C1411 O1398 1.250 . S
C1412 Gd1345 2.828 . S
C1412 O1394 1.258 . S
C1412 O1399 1.252 . S
C1412 C1413 1.497 . S
C1413 C1412 1.497 . S
C1413 C1414 1.395 . S
C1413 C1415 1.380 . S
C1414 C1413 1.395 . S
C1414 C1417 1.398 . S
C1414 H1424 0.930 . S
C1415 C1413 1.380 . S
C1415 C1416 1.391 . S
C1415 H1425 0.930 . S
C1416 C1415 1.391 . S
C1416 C1418 1.387 . S
C1417 C1414 1.398 . S
C1417 C1418 1.380 . S
C1417 H1426 0.930 . S
C1418 C1416 1.387 . S
C1418 C1417 1.380 . S
C1418 H1427 0.930 . S
C1419 O1396 1.254 . S
C1419 O1397 1.268 . S
H1420 C1405 0.930 . S
H1421 C1406 0.930 . S
H1422 C1408 0.930 . S
H1423 C1409 0.930 . S
H1424 C1414 0.930 . S
H1425 C1415 0.930 . S
H1426 C1417 0.930 . S
H1427 C1418 0.930 . S
Gd1428 N1459 2.661 . S
Gd1428 N1465 2.601 . S
Gd1428 O1472 2.545 . S
Gd1428 O1473 2.606 . S
Gd1428 O1475 2.429 . S
Gd1428 O1476 2.545 . S
Gd1428 O1477 2.412 . S
Gd1428 O1479 2.362 . S
Gd1428 O1480 2.324 . S
Gd1428 C1487 2.828 . S
Gd1429 N1438 2.661 . S
Gd1429 N1442 2.601 . S
Gd1429 O1473 2.362 . S
Gd1429 O1474 2.324 . S
Gd1429 O1478 2.545 . S
Gd1429 O1479 2.606 . S
Gd1429 O1481 2.429 . S
Gd1429 O1482 2.545 . S
Gd1429 O1483 2.412 . S
Gd1429 C1496 2.828 . S
C1430 C1433 1.417 . S
C1430 C1435 1.431 . S
C1430 C1436 1.412 . S
C1431 C1434 1.437 . S
C1431 C1435 1.317 . S
C1431 H1450 0.929 . S
C1432 C1433 1.426 . S
C1432 C1434 1.413 . S
C1432 N1442 1.359 . S
C1433 C1430 1.417 . S
C1433 C1432 1.426 . S
C1433 N1438 1.350 . S
C1434 C1431 1.437 . S
C1434 C1432 1.413 . S
C1434 C1444 1.391 . S
C1435 C1430 1.431 . S
C1435 C1431 1.317 . S
C1435 H1446 0.930 . S
C1436 C1430 1.412 . S
C1436 C1437 1.355 . S
C1436 H1448 0.930 . S
C1437 C1436 1.355 . S
C1437 C1439 1.402 . S
C1437 H1449 0.930 . S
N1438 Gd1429 2.661 . S
N1438 C1433 1.350 . S
N1438 C1439 1.307 . S
C1439 C1437 1.402 . S
C1439 N1438 1.307 . S
C1439 H1440 0.930 . S
H1440 C1439 0.930 . S
C1441 N1442 1.334 . S
C1441 C1443 1.394 . S
C1441 H1445 0.930 . S
N1442 Gd1429 2.601 . S
N1442 C1432 1.359 . S
N1442 C1441 1.334 . S
C1443 C1441 1.394 . S
C1443 C1444 1.359 . S
C1443 H1455 0.930 . S
C1444 C1434 1.391 . S
C1444 C1443 1.359 . S
C1444 H1456 0.929 . S
H1445 C1441 0.930 . S
H1446 C1435 0.930 . S
H1447 C1464 0.930 . S
H1448 C1436 0.930 . S
H1449 C1437 0.930 . S
H1450 C1431 0.929 . S
H1451 C1469 0.930 . S
H1452 C1460 0.930 . S
H1453 C1461 0.930 . S
H1454 C1485 0.929 . S
H1455 C1443 0.930 . S
H1456 C1444 0.929 . S
H1457 C1486 0.930 . S
H1458 C1467 0.930 . S
N1459 Gd1428 2.661 . S
N1459 C1463 1.350 . S
N1459 C1464 1.307 . S
C1460 H1452 0.930 . S
C1460 C1461 1.355 . S
C1460 C1462 1.412 . S
C1461 H1453 0.930 . S
C1461 C1460 1.355 . S
C1461 C1464 1.402 . S
C1462 C1460 1.412 . S
C1462 C1463 1.417 . S
C1462 C1486 1.431 . S
C1463 N1459 1.350 . S
C1463 C1462 1.417 . S
C1463 C1466 1.426 . S
C1464 H1447 0.930 . S
C1464 N1459 1.307 . S
C1464 C1461 1.402 . S
N1465 Gd1428 2.601 . S
N1465 C1466 1.359 . S
N1465 C1469 1.334 . S
C1466 C1463 1.426 . S
C1466 N1465 1.359 . S
C1466 C1470 1.413 . S
C1467 H1458 0.930 . S
C1467 C1468 1.359 . S
C1467 C1469 1.394 . S
C1468 C1467 1.359 . S
C1468 C1470 1.391 . S
C1468 H1471 0.929 . S
C1469 H1451 0.930 . S
C1469 N1465 1.334 . S
C1469 C1467 1.394 . S
C1470 C1466 1.413 . S
C1470 C1468 1.391 . S
C1470 C1485 1.437 . S
H1471 C1468 0.929 . S
O1472 Gd1428 2.545 . S
O1472 C1487 1.258 . S
O1473 Gd1428 2.606 . S
O1473 Gd1429 2.362 . S
O1473 C1484 1.284 . S
O1474 Gd1429 2.324 . S
O1474 C1494 1.254 . S
O1475 Gd1428 2.429 . S
O1475 C1494 1.268 . S
O1476 Gd1428 2.545 . S
O1476 C1484 1.250 . S
O1477 Gd1428 2.412 . S
O1477 C1487 1.252 . S
O1478 Gd1429 2.545 . S
O1478 C1496 1.258 . S
O1479 Gd1428 2.362 . S
O1479 Gd1429 2.606 . S
O1479 C1495 1.284 . S
O1480 Gd1428 2.324 . S
O1480 C1503 1.254 . S
O1481 Gd1429 2.429 . S
O1481 C1503 1.268 . S
O1482 Gd1429 2.545 . S
O1482 C1495 1.250 . S
O1483 Gd1429 2.412 . S
O1483 C1496 1.252 . S
C1484 O1473 1.284 . S
C1484 O1476 1.250 . S
C1485 H1454 0.929 . S
C1485 C1470 1.437 . S
C1485 C1486 1.317 . S
C1486 H1457 0.930 . S
C1486 C1462 1.431 . S
C1486 C1485 1.317 . S
C1487 Gd1428 2.828 . S
C1487 O1472 1.258 . S
C1487 O1477 1.252 . S
C1487 C1488 1.497 . S
C1488 C1487 1.497 . S
C1488 C1489 1.395 . S
C1488 C1490 1.380 . S
C1489 C1488 1.395 . S
C1489 C1492 1.398 . S
C1489 H1504 0.930 . S
C1490 C1488 1.380 . S
C1490 C1491 1.391 . S
C1490 H1505 0.930 . S
C1491 C1490 1.391 . S
C1491 C1493 1.387 . S
C1492 C1489 1.398 . S
C1492 C1493 1.380 . S
C1492 H1506 0.930 . S
C1493 C1491 1.387 . S
C1493 C1492 1.380 . S
C1493 H1507 0.930 . S
C1494 O1474 1.254 . S
C1494 O1475 1.268 . S
C1495 O1479 1.284 . S
C1495 O1482 1.250 . S
C1496 Gd1429 2.828 . S
C1496 O1478 1.258 . S
C1496 O1483 1.252 . S
C1496 C1497 1.497 . S
C1497 C1496 1.497 . S
C1497 C1498 1.395 . S
C1497 C1499 1.380 . S
C1498 C1497 1.395 . S
C1498 C1501 1.398 . S
C1498 H1508 0.930 . S
C1499 C1497 1.380 . S
C1499 C1500 1.391 . S
C1499 H1509 0.930 . S
C1500 C1499 1.391 . S
C1500 C1502 1.387 . S
C1501 C1498 1.398 . S
C1501 C1502 1.380 . S
C1501 H1510 0.930 . S
C1502 C1500 1.387 . S
C1502 C1501 1.380 . S
C1502 H1511 0.930 . S
C1503 O1480 1.254 . S
C1503 O1481 1.268 . S
H1504 C1489 0.930 . S
H1505 C1490 0.930 . S
H1506 C1492 0.930 . S
H1507 C1493 0.930 . S
H1508 C1498 0.930 . S
H1509 C1499 0.930 . S
H1510 C1501 0.930 . S
H1511 C1502 0.930 . S
Gd1512 N1543 2.661 . S
Gd1512 N1549 2.601 . S
Gd1512 O1556 2.545 . S
Gd1512 O1557 2.606 . S
Gd1512 O1559 2.429 . S
Gd1512 O1560 2.545 . S
Gd1512 O1561 2.412 . S
Gd1512 O1563 2.362 . S
Gd1512 O1564 2.324 . S
Gd1512 C1571 2.828 . S
Gd1513 N1522 2.661 . S
Gd1513 N1526 2.601 . S
Gd1513 O1557 2.362 . S
Gd1513 O1558 2.324 . S
Gd1513 O1562 2.545 . S
Gd1513 O1563 2.606 . S
Gd1513 O1565 2.429 . S
Gd1513 O1566 2.545 . S
Gd1513 O1567 2.412 . S
Gd1513 C1580 2.828 . S
C1514 C1517 1.417 . S
C1514 C1519 1.431 . S
C1514 C1520 1.412 . S
C1515 C1518 1.437 . S
C1515 C1519 1.317 . S
C1515 H1534 0.929 . S
C1516 C1517 1.426 . S
C1516 C1518 1.413 . S
C1516 N1526 1.359 . S
C1517 C1514 1.417 . S
C1517 C1516 1.426 . S
C1517 N1522 1.350 . S
C1518 C1515 1.437 . S
C1518 C1516 1.413 . S
C1518 C1528 1.391 . S
C1519 C1514 1.431 . S
C1519 C1515 1.317 . S
C1519 H1530 0.930 . S
C1520 C1514 1.412 . S
C1520 C1521 1.355 . S
C1520 H1532 0.930 . S
C1521 C1520 1.355 . S
C1521 C1523 1.402 . S
C1521 H1533 0.930 . S
N1522 Gd1513 2.661 . S
N1522 C1517 1.350 . S
N1522 C1523 1.307 . S
C1523 C1521 1.402 . S
C1523 N1522 1.307 . S
C1523 H1524 0.930 . S
H1524 C1523 0.930 . S
C1525 N1526 1.334 . S
C1525 C1527 1.394 . S
C1525 H1529 0.930 . S
N1526 Gd1513 2.601 . S
N1526 C1516 1.359 . S
N1526 C1525 1.334 . S
C1527 C1525 1.394 . S
C1527 C1528 1.359 . S
C1527 H1539 0.930 . S
C1528 C1518 1.391 . S
C1528 C1527 1.359 . S
C1528 H1540 0.929 . S
H1529 C1525 0.930 . S
H1530 C1519 0.930 . S
H1531 C1548 0.930 . S
H1532 C1520 0.930 . S
H1533 C1521 0.930 . S
H1534 C1515 0.929 . S
H1535 C1553 0.930 . S
H1536 C1544 0.930 . S
H1537 C1545 0.930 . S
H1538 C1569 0.929 . S
H1539 C1527 0.930 . S
H1540 C1528 0.929 . S
H1541 C1570 0.930 . S
H1542 C1551 0.930 . S
N1543 Gd1512 2.661 . S
N1543 C1547 1.350 . S
N1543 C1548 1.307 . S
C1544 H1536 0.930 . S
C1544 C1545 1.355 . S
C1544 C1546 1.412 . S
C1545 H1537 0.930 . S
C1545 C1544 1.355 . S
C1545 C1548 1.402 . S
C1546 C1544 1.412 . S
C1546 C1547 1.417 . S
C1546 C1570 1.431 . S
C1547 N1543 1.350 . S
C1547 C1546 1.417 . S
C1547 C1550 1.426 . S
C1548 H1531 0.930 . S
C1548 N1543 1.307 . S
C1548 C1545 1.402 . S
N1549 Gd1512 2.601 . S
N1549 C1550 1.359 . S
N1549 C1553 1.334 . S
C1550 C1547 1.426 . S
C1550 N1549 1.359 . S
C1550 C1554 1.413 . S
C1551 H1542 0.930 . S
C1551 C1552 1.359 . S
C1551 C1553 1.394 . S
C1552 C1551 1.359 . S
C1552 C1554 1.391 . S
C1552 H1555 0.929 . S
C1553 H1535 0.930 . S
C1553 N1549 1.334 . S
C1553 C1551 1.394 . S
C1554 C1550 1.413 . S
C1554 C1552 1.391 . S
C1554 C1569 1.437 . S
H1555 C1552 0.929 . S
O1556 Gd1512 2.545 . S
O1556 C1571 1.258 . S
O1557 Gd1512 2.606 . S
O1557 Gd1513 2.362 . S
O1557 C1568 1.284 . S
O1558 Gd1513 2.324 . S
O1558 C1578 1.254 . S
O1559 Gd1512 2.429 . S
O1559 C1578 1.268 . S
O1560 Gd1512 2.545 . S
O1560 C1568 1.250 . S
O1561 Gd1512 2.412 . S
O1561 C1571 1.252 . S
O1562 Gd1513 2.545 . S
O1562 C1580 1.258 . S
O1563 Gd1512 2.362 . S
O1563 Gd1513 2.606 . S
O1563 C1579 1.284 . S
O1564 Gd1512 2.324 . S
O1564 C1587 1.254 . S
O1565 Gd1513 2.429 . S
O1565 C1587 1.268 . S
O1566 Gd1513 2.545 . S
O1566 C1579 1.250 . S
O1567 Gd1513 2.412 . S
O1567 C1580 1.252 . S
C1568 O1557 1.284 . S
C1568 O1560 1.250 . S
C1569 H1538 0.929 . S
C1569 C1554 1.437 . S
C1569 C1570 1.317 . S
C1570 H1541 0.930 . S
C1570 C1546 1.431 . S
C1570 C1569 1.317 . S
C1571 Gd1512 2.828 . S
C1571 O1556 1.258 . S
C1571 O1561 1.252 . S
C1571 C1572 1.497 . S
C1572 C1571 1.497 . S
C1572 C1573 1.395 . S
C1572 C1574 1.380 . S
C1573 C1572 1.395 . S
C1573 C1576 1.398 . S
C1573 H1588 0.930 . S
C1574 C1572 1.380 . S
C1574 C1575 1.391 . S
C1574 H1589 0.930 . S
C1575 C1574 1.391 . S
C1575 C1577 1.387 . S
C1576 C1573 1.398 . S
C1576 C1577 1.380 . S
C1576 H1590 0.930 . S
C1577 C1575 1.387 . S
C1577 C1576 1.380 . S
C1577 H1591 0.930 . S
C1578 O1558 1.254 . S
C1578 O1559 1.268 . S
C1579 O1563 1.284 . S
C1579 O1566 1.250 . S
C1580 Gd1513 2.828 . S
C1580 O1562 1.258 . S
C1580 O1567 1.252 . S
C1580 C1581 1.497 . S
C1581 C1580 1.497 . S
C1581 C1582 1.395 . S
C1581 C1583 1.380 . S
C1582 C1581 1.395 . S
C1582 C1585 1.398 . S
C1582 H1592 0.930 . S
C1583 C1581 1.380 . S
C1583 C1584 1.391 . S
C1583 H1593 0.930 . S
C1584 C1583 1.391 . S
C1584 C1586 1.387 . S
C1585 C1582 1.398 . S
C1585 C1586 1.380 . S
C1585 H1594 0.930 . S
C1586 C1584 1.387 . S
C1586 C1585 1.380 . S
C1586 H1595 0.930 . S
C1587 O1564 1.254 . S
C1587 O1565 1.268 . S
H1588 C1573 0.930 . S
H1589 C1574 0.930 . S
H1590 C1576 0.930 . S
H1591 C1577 0.930 . S
H1592 C1582 0.930 . S
H1593 C1583 0.930 . S
H1594 C1585 0.930 . S
H1595 C1586 0.930 . S
Gd1596 N1627 2.661 . S
Gd1596 N1633 2.601 . S
Gd1596 O1640 2.545 . S
Gd1596 O1641 2.606 . S
Gd1596 O1643 2.429 . S
Gd1596 O1644 2.545 . S
Gd1596 O1645 2.412 . S
Gd1596 O1647 2.362 . S
Gd1596 O1648 2.324 . S
Gd1596 C1655 2.828 . S
Gd1597 N1606 2.661 1_655 S
Gd1597 N1610 2.601 . S
Gd1597 O1641 2.362 . S
Gd1597 O1642 2.324 . S
Gd1597 O1646 2.545 . S
Gd1597 O1647 2.606 . S
Gd1597 O1649 2.429 . S
Gd1597 O1650 2.545 . S
Gd1597 O1651 2.412 1_655 S
Gd1597 C1664 2.828 1_655 S
C1598 C1601 1.417 . S
C1598 C1603 1.431 . S
C1598 C1604 1.412 . S
C1599 C1602 1.437 . S
C1599 C1603 1.317 . S
C1599 H1618 0.929 . S
C1600 C1601 1.426 . S
C1600 C1602 1.413 . S
C1600 N1610 1.359 1_455 S
C1601 C1598 1.417 . S
C1601 C1600 1.426 . S
C1601 N1606 1.350 . S
C1602 C1599 1.437 . S
C1602 C1600 1.413 . S
C1602 C1612 1.391 . S
C1603 C1598 1.431 . S
C1603 C1599 1.317 . S
C1603 H1614 0.930 . S
C1604 C1598 1.412 . S
C1604 C1605 1.355 . S
C1604 H1616 0.930 . S
C1605 C1604 1.355 . S
C1605 C1607 1.402 . S
C1605 H1617 0.930 . S
N1606 Gd1597 2.661 1_455 S
N1606 C1601 1.350 . S
N1606 C1607 1.307 . S
C1607 C1605 1.402 . S
C1607 N1606 1.307 . S
C1607 H1608 0.930 . S
H1608 C1607 0.930 . S
C1609 N1610 1.334 . S
C1609 C1611 1.394 1_655 S
C1609 H1613 0.930 . S
N1610 Gd1597 2.601 . S
N1610 C1600 1.359 1_655 S
N1610 C1609 1.334 . S
C1611 C1609 1.394 1_455 S
C1611 C1612 1.359 . S
C1611 H1623 0.930 1_455 S
C1612 C1602 1.391 . S
C1612 C1611 1.359 . S
C1612 H1624 0.929 . S
H1613 C1609 0.930 . S
H1614 C1603 0.930 . S
H1615 C1632 0.930 . S
H1616 C1604 0.930 . S
H1617 C1605 0.930 . S
H1618 C1599 0.929 . S
H1619 C1637 0.930 . S
H1620 C1628 0.930 . S
H1621 C1629 0.930 . S
H1622 C1653 0.929 . S
H1623 C1611 0.930 1_655 S
H1624 C1612 0.929 . S
H1625 C1654 0.930 . S
H1626 C1635 0.930 . S
N1627 Gd1596 2.661 . S
N1627 C1631 1.350 . S
N1627 C1632 1.307 . S
C1628 H1620 0.930 . S
C1628 C1629 1.355 . S
C1628 C1630 1.412 . S
C1629 H1621 0.930 . S
C1629 C1628 1.355 . S
C1629 C1632 1.402 . S
C1630 C1628 1.412 . S
C1630 C1631 1.417 . S
C1630 C1654 1.431 . S
C1631 N1627 1.350 . S
C1631 C1630 1.417 . S
C1631 C1634 1.426 . S
C1632 H1615 0.930 . S
C1632 N1627 1.307 . S
C1632 C1629 1.402 . S
N1633 Gd1596 2.601 . S
N1633 C1634 1.359 . S
N1633 C1637 1.334 . S
C1634 C1631 1.426 . S
C1634 N1633 1.359 . S
C1634 C1638 1.413 . S
C1635 H1626 0.930 . S
C1635 C1636 1.359 . S
C1635 C1637 1.394 . S
C1636 C1635 1.359 . S
C1636 C1638 1.391 . S
C1636 H1639 0.929 . S
C1637 H1619 0.930 . S
C1637 N1633 1.334 . S
C1637 C1635 1.394 . S
C1638 C1634 1.413 . S
C1638 C1636 1.391 . S
C1638 C1653 1.437 . S
H1639 C1636 0.929 . S
O1640 Gd1596 2.545 . S
O1640 C1655 1.258 . S
O1641 Gd1596 2.606 . S
O1641 Gd1597 2.362 . S
O1641 C1652 1.284 . S
O1642 Gd1597 2.324 . S
O1642 C1662 1.254 . S
O1643 Gd1596 2.429 . S
O1643 C1662 1.268 . S
O1644 Gd1596 2.545 . S
O1644 C1652 1.250 . S
O1645 Gd1596 2.412 . S
O1645 C1655 1.252 . S
O1646 Gd1597 2.545 . S
O1646 C1664 1.258 1_655 S
O1647 Gd1596 2.362 . S
O1647 Gd1597 2.606 . S
O1647 C1663 1.284 . S
O1648 Gd1596 2.324 . S
O1648 C1671 1.254 . S
O1649 Gd1597 2.429 . S
O1649 C1671 1.268 . S
O1650 Gd1597 2.545 . S
O1650 C1663 1.250 . S
O1651 Gd1597 2.412 1_455 S
O1651 C1664 1.252 . S
C1652 O1641 1.284 . S
C1652 O1644 1.250 . S
C1653 H1622 0.929 . S
C1653 C1638 1.437 . S
C1653 C1654 1.317 . S
C1654 H1625 0.930 . S
C1654 C1630 1.431 . S
C1654 C1653 1.317 . S
C1655 Gd1596 2.828 . S
C1655 O1640 1.258 . S
C1655 O1645 1.252 . S
C1655 C1656 1.497 . S
C1656 C1655 1.497 . S
C1656 C1657 1.395 . S
C1656 C1658 1.380 . S
C1657 C1656 1.395 . S
C1657 C1660 1.398 . S
C1657 H1672 0.930 . S
C1658 C1656 1.380 . S
C1658 C1659 1.391 . S
C1658 H1673 0.930 . S
C1659 C1658 1.391 . S
C1659 C1661 1.387 . S
C1660 C1657 1.398 . S
C1660 C1661 1.380 . S
C1660 H1674 0.930 . S
C1661 C1659 1.387 . S
C1661 C1660 1.380 . S
C1661 H1675 0.930 . S
C1662 O1642 1.254 . S
C1662 O1643 1.268 . S
C1663 O1647 1.284 . S
C1663 O1650 1.250 . S
C1664 Gd1597 2.828 1_455 S
C1664 O1646 1.258 1_455 S
C1664 O1651 1.252 . S
C1664 C1665 1.497 . S
C1665 C1664 1.497 . S
C1665 C1666 1.395 . S
C1665 C1667 1.380 . S
C1666 C1665 1.395 . S
C1666 C1669 1.398 . S
C1666 H1676 0.930 . S
C1667 C1665 1.380 . S
C1667 C1668 1.391 . S
C1667 H1677 0.930 . S
C1668 C1667 1.391 . S
C1668 C1670 1.387 . S
C1669 C1666 1.398 . S
C1669 C1670 1.380 . S
C1669 H1678 0.930 . S
C1670 C1668 1.387 . S
C1670 C1669 1.380 . S
C1670 H1679 0.930 . S
C1671 O1648 1.254 . S
C1671 O1649 1.268 . S
H1672 C1657 0.930 . S
H1673 C1658 0.930 . S
H1674 C1660 0.930 . S
H1675 C1661 0.930 . S
H1676 C1666 0.930 . S
H1677 C1667 0.930 . S
H1678 C1669 0.930 . S
H1679 C1670 0.930 . S
Gd1680 N1711 2.661 . S
Gd1680 N1717 2.601 . S
Gd1680 O1724 2.545 . S
Gd1680 O1725 2.606 . S
Gd1680 O1727 2.429 . S
Gd1680 O1728 2.545 . S
Gd1680 O1729 2.412 . S
Gd1680 O1731 2.362 . S
Gd1680 O1732 2.324 . S
Gd1680 C1739 2.828 . S
Gd1681 N1690 2.661 . S
Gd1681 N1694 2.601 . S
Gd1681 O1725 2.362 . S
Gd1681 O1726 2.324 . S
Gd1681 O1730 2.545 . S
Gd1681 O1731 2.606 . S
Gd1681 O1733 2.429 . S
Gd1681 O1734 2.545 . S
Gd1681 O1735 2.412 . S
Gd1681 C1748 2.828 . S
C1682 C1685 1.417 . S
C1682 C1687 1.431 . S
C1682 C1688 1.412 . S
C1683 C1686 1.437 . S
C1683 C1687 1.317 . S
C1683 H1702 0.929 . S
C1684 C1685 1.426 . S
C1684 C1686 1.413 . S
C1684 N1694 1.359 . S
C1685 C1682 1.417 . S
C1685 C1684 1.426 . S
C1685 N1690 1.350 . S
C1686 C1683 1.437 . S
C1686 C1684 1.413 . S
C1686 C1696 1.391 . S
C1687 C1682 1.431 . S
C1687 C1683 1.317 . S
C1687 H1698 0.930 . S
C1688 C1682 1.412 . S
C1688 C1689 1.355 . S
C1688 H1700 0.930 . S
C1689 C1688 1.355 . S
C1689 C1691 1.402 . S
C1689 H1701 0.930 . S
N1690 Gd1681 2.661 . S
N1690 C1685 1.350 . S
N1690 C1691 1.307 . S
C1691 C1689 1.402 . S
C1691 N1690 1.307 . S
C1691 H1692 0.930 . S
H1692 C1691 0.930 . S
C1693 N1694 1.334 . S
C1693 C1695 1.394 . S
C1693 H1697 0.930 . S
N1694 Gd1681 2.601 . S
N1694 C1684 1.359 . S
N1694 C1693 1.334 . S
C1695 C1693 1.394 . S
C1695 C1696 1.359 . S
C1695 H1707 0.930 . S
C1696 C1686 1.391 . S
C1696 C1695 1.359 . S
C1696 H1708 0.929 . S
H1697 C1693 0.930 . S
H1698 C1687 0.930 . S
H1699 C1716 0.930 . S
H1700 C1688 0.930 . S
H1701 C1689 0.930 . S
H1702 C1683 0.929 . S
H1703 C1721 0.930 . S
H1704 C1712 0.930 . S
H1705 C1713 0.930 . S
H1706 C1737 0.929 . S
H1707 C1695 0.930 . S
H1708 C1696 0.929 . S
H1709 C1738 0.930 . S
H1710 C1719 0.930 . S
N1711 Gd1680 2.661 . S
N1711 C1715 1.350 . S
N1711 C1716 1.307 . S
C1712 H1704 0.930 . S
C1712 C1713 1.355 . S
C1712 C1714 1.412 . S
C1713 H1705 0.930 . S
C1713 C1712 1.355 . S
C1713 C1716 1.402 . S
C1714 C1712 1.412 . S
C1714 C1715 1.417 . S
C1714 C1738 1.431 . S
C1715 N1711 1.350 . S
C1715 C1714 1.417 . S
C1715 C1718 1.426 . S
C1716 H1699 0.930 . S
C1716 N1711 1.307 . S
C1716 C1713 1.402 . S
N1717 Gd1680 2.601 . S
N1717 C1718 1.359 . S
N1717 C1721 1.334 . S
C1718 C1715 1.426 . S
C1718 N1717 1.359 . S
C1718 C1722 1.413 . S
C1719 H1710 0.930 . S
C1719 C1720 1.359 . S
C1719 C1721 1.394 . S
C1720 C1719 1.359 . S
C1720 C1722 1.391 . S
C1720 H1723 0.929 . S
C1721 H1703 0.930 . S
C1721 N1717 1.334 . S
C1721 C1719 1.394 . S
C1722 C1718 1.413 . S
C1722 C1720 1.391 . S
C1722 C1737 1.437 . S
H1723 C1720 0.929 . S
O1724 Gd1680 2.545 . S
O1724 C1739 1.258 . S
O1725 Gd1680 2.606 . S
O1725 Gd1681 2.362 . S
O1725 C1736 1.284 . S
O1726 Gd1681 2.324 . S
O1726 C1746 1.254 . S
O1727 Gd1680 2.429 . S
O1727 C1746 1.268 . S
O1728 Gd1680 2.545 . S
O1728 C1736 1.250 . S
O1729 Gd1680 2.412 . S
O1729 C1739 1.252 . S
O1730 Gd1681 2.545 . S
O1730 C1748 1.258 . S
O1731 Gd1680 2.362 . S
O1731 Gd1681 2.606 . S
O1731 C1747 1.284 . S
O1732 Gd1680 2.324 . S
O1732 C1755 1.254 . S
O1733 Gd1681 2.429 . S
O1733 C1755 1.268 . S
O1734 Gd1681 2.545 . S
O1734 C1747 1.250 . S
O1735 Gd1681 2.412 . S
O1735 C1748 1.252 . S
C1736 O1725 1.284 . S
C1736 O1728 1.250 . S
C1737 H1706 0.929 . S
C1737 C1722 1.437 . S
C1737 C1738 1.317 . S
C1738 H1709 0.930 . S
C1738 C1714 1.431 . S
C1738 C1737 1.317 . S
C1739 Gd1680 2.828 . S
C1739 O1724 1.258 . S
C1739 O1729 1.252 . S
C1739 C1740 1.497 . S
C1740 C1739 1.497 . S
C1740 C1741 1.395 . S
C1740 C1742 1.380 . S
C1741 C1740 1.395 . S
C1741 C1744 1.398 . S
C1741 H1756 0.930 . S
C1742 C1740 1.380 . S
C1742 C1743 1.391 . S
C1742 H1757 0.930 . S
C1743 C1742 1.391 . S
C1743 C1745 1.387 . S
C1744 C1741 1.398 . S
C1744 C1745 1.380 . S
C1744 H1758 0.930 . S
C1745 C1743 1.387 . S
C1745 C1744 1.380 . S
C1745 H1759 0.930 . S
C1746 O1726 1.254 . S
C1746 O1727 1.268 . S
C1747 O1731 1.284 . S
C1747 O1734 1.250 . S
C1748 Gd1681 2.828 . S
C1748 O1730 1.258 . S
C1748 O1735 1.252 . S
C1748 C1749 1.497 . S
C1749 C1748 1.497 . S
C1749 C1750 1.395 . S
C1749 C1751 1.380 . S
C1750 C1749 1.395 . S
C1750 C1753 1.398 . S
C1750 H1760 0.930 . S
C1751 C1749 1.380 . S
C1751 C1752 1.391 . S
C1751 H1761 0.930 . S
C1752 C1751 1.391 . S
C1752 C1754 1.387 . S
C1753 C1750 1.398 . S
C1753 C1754 1.380 . S
C1753 H1762 0.930 . S
C1754 C1752 1.387 . S
C1754 C1753 1.380 . S
C1754 H1763 0.930 . S
C1755 O1732 1.254 . S
C1755 O1733 1.268 . S
H1756 C1741 0.930 . S
H1757 C1742 0.930 . S
H1758 C1744 0.930 . S
H1759 C1745 0.930 . S
H1760 C1750 0.930 . S
H1761 C1751 0.930 . S
H1762 C1753 0.930 . S
H1763 C1754 0.930 . S
Gd1764 N1795 2.661 . S
Gd1764 N1801 2.601 . S
Gd1764 O1808 2.545 . S
Gd1764 O1809 2.606 . S
Gd1764 O1811 2.429 . S
Gd1764 O1812 2.545 . S
Gd1764 O1813 2.412 . S
Gd1764 O1815 2.362 . S
Gd1764 O1816 2.324 . S
Gd1764 C1823 2.828 . S
Gd1765 N1774 2.661 1_655 S
Gd1765 N1778 2.601 . S
Gd1765 O1809 2.362 . S
Gd1765 O1810 2.324 . S
Gd1765 O1814 2.545 . S
Gd1765 O1815 2.606 . S
Gd1765 O1817 2.429 . S
Gd1765 O1818 2.545 . S
Gd1765 O1819 2.412 1_655 S
Gd1765 C1832 2.828 1_655 S
C1766 C1769 1.417 . S
C1766 C1771 1.431 . S
C1766 C1772 1.412 . S
C1767 C1770 1.437 . S
C1767 C1771 1.317 . S
C1767 H1786 0.929 . S
C1768 C1769 1.426 . S
C1768 C1770 1.413 . S
C1768 N1778 1.359 1_455 S
C1769 C1766 1.417 . S
C1769 C1768 1.426 . S
C1769 N1774 1.350 . S
C1770 C1767 1.437 . S
C1770 C1768 1.413 . S
C1770 C1780 1.391 . S
C1771 C1766 1.431 . S
C1771 C1767 1.317 . S
C1771 H1782 0.930 . S
C1772 C1766 1.412 . S
C1772 C1773 1.355 . S
C1772 H1784 0.930 . S
C1773 C1772 1.355 . S
C1773 C1775 1.402 . S
C1773 H1785 0.930 . S
N1774 Gd1765 2.661 1_455 S
N1774 C1769 1.350 . S
N1774 C1775 1.307 . S
C1775 C1773 1.402 . S
C1775 N1774 1.307 . S
C1775 H1776 0.930 . S
H1776 C1775 0.930 . S
C1777 N1778 1.334 . S
C1777 C1779 1.394 1_655 S
C1777 H1781 0.930 . S
N1778 Gd1765 2.601 . S
N1778 C1768 1.359 1_655 S
N1778 C1777 1.334 . S
C1779 C1777 1.394 1_455 S
C1779 C1780 1.359 . S
C1779 H1791 0.930 1_455 S
C1780 C1770 1.391 . S
C1780 C1779 1.359 . S
C1780 H1792 0.929 . S
H1781 C1777 0.930 . S
H1782 C1771 0.930 . S
H1783 C1800 0.930 . S
H1784 C1772 0.930 . S
H1785 C1773 0.930 . S
H1786 C1767 0.929 . S
H1787 C1805 0.930 . S
H1788 C1796 0.930 . S
H1789 C1797 0.930 . S
H1790 C1821 0.929 . S
H1791 C1779 0.930 1_655 S
H1792 C1780 0.929 . S
H1793 C1822 0.930 . S
H1794 C1803 0.930 . S
N1795 Gd1764 2.661 . S
N1795 C1799 1.350 . S
N1795 C1800 1.307 . S
C1796 H1788 0.930 . S
C1796 C1797 1.355 . S
C1796 C1798 1.412 . S
C1797 H1789 0.930 . S
C1797 C1796 1.355 . S
C1797 C1800 1.402 . S
C1798 C1796 1.412 . S
C1798 C1799 1.417 . S
C1798 C1822 1.431 . S
C1799 N1795 1.350 . S
C1799 C1798 1.417 . S
C1799 C1802 1.426 . S
C1800 H1783 0.930 . S
C1800 N1795 1.307 . S
C1800 C1797 1.402 . S
N1801 Gd1764 2.601 . S
N1801 C1802 1.359 . S
N1801 C1805 1.334 . S
C1802 C1799 1.426 . S
C1802 N1801 1.359 . S
C1802 C1806 1.413 . S
C1803 H1794 0.930 . S
C1803 C1804 1.359 . S
C1803 C1805 1.394 . S
C1804 C1803 1.359 . S
C1804 C1806 1.391 . S
C1804 H1807 0.929 . S
C1805 H1787 0.930 . S
C1805 N1801 1.334 . S
C1805 C1803 1.394 . S
C1806 C1802 1.413 . S
C1806 C1804 1.391 . S
C1806 C1821 1.437 . S
H1807 C1804 0.929 . S
O1808 Gd1764 2.545 . S
O1808 C1823 1.258 . S
O1809 Gd1764 2.606 . S
O1809 Gd1765 2.362 . S
O1809 C1820 1.284 . S
O1810 Gd1765 2.324 . S
O1810 C1830 1.254 . S
O1811 Gd1764 2.429 . S
O1811 C1830 1.268 . S
O1812 Gd1764 2.545 . S
O1812 C1820 1.250 . S
O1813 Gd1764 2.412 . S
O1813 C1823 1.252 . S
O1814 Gd1765 2.545 . S
O1814 C1832 1.258 1_655 S
O1815 Gd1764 2.362 . S
O1815 Gd1765 2.606 . S
O1815 C1831 1.284 . S
O1816 Gd1764 2.324 . S
O1816 C1839 1.254 . S
O1817 Gd1765 2.429 . S
O1817 C1839 1.268 . S
O1818 Gd1765 2.545 . S
O1818 C1831 1.250 . S
O1819 Gd1765 2.412 1_455 S
O1819 C1832 1.252 . S
C1820 O1809 1.284 . S
C1820 O1812 1.250 . S
C1821 H1790 0.929 . S
C1821 C1806 1.437 . S
C1821 C1822 1.317 . S
C1822 H1793 0.930 . S
C1822 C1798 1.431 . S
C1822 C1821 1.317 . S
C1823 Gd1764 2.828 . S
C1823 O1808 1.258 . S
C1823 O1813 1.252 . S
C1823 C1824 1.497 . S
C1824 C1823 1.497 . S
C1824 C1825 1.395 . S
C1824 C1826 1.380 . S
C1825 C1824 1.395 . S
C1825 C1828 1.398 . S
C1825 H1840 0.930 . S
C1826 C1824 1.380 . S
C1826 C1827 1.391 . S
C1826 H1841 0.930 . S
C1827 C1826 1.391 . S
C1827 C1829 1.387 . S
C1828 C1825 1.398 . S
C1828 C1829 1.380 . S
C1828 H1842 0.930 . S
C1829 C1827 1.387 . S
C1829 C1828 1.380 . S
C1829 H1843 0.930 . S
C1830 O1810 1.254 . S
C1830 O1811 1.268 . S
C1831 O1815 1.284 . S
C1831 O1818 1.250 . S
C1832 Gd1765 2.828 1_455 S
C1832 O1814 1.258 1_455 S
C1832 O1819 1.252 . S
C1832 C1833 1.497 . S
C1833 C1832 1.497 . S
C1833 C1834 1.395 . S
C1833 C1835 1.380 . S
C1834 C1833 1.395 . S
C1834 C1837 1.398 . S
C1834 H1844 0.930 . S
C1835 C1833 1.380 . S
C1835 C1836 1.391 . S
C1835 H1845 0.930 . S
C1836 C1835 1.391 . S
C1836 C1838 1.387 . S
C1837 C1834 1.398 . S
C1837 C1838 1.380 . S
C1837 H1846 0.930 . S
C1838 C1836 1.387 . S
C1838 C1837 1.380 . S
C1838 H1847 0.930 . S
C1839 O1816 1.254 . S
C1839 O1817 1.268 . S
H1840 C1825 0.930 . S
H1841 C1826 0.930 . S
H1842 C1828 0.930 . S
H1843 C1829 0.930 . S
H1844 C1834 0.930 . S
H1845 C1835 0.930 . S
H1846 C1837 0.930 . S
H1847 C1838 0.930 . S
Gd1848 N1879 2.661 . S
Gd1848 N1885 2.601 . S
Gd1848 O1892 2.545 . S
Gd1848 O1893 2.606 . S
Gd1848 O1895 2.429 . S
Gd1848 O1896 2.545 . S
Gd1848 O1897 2.412 . S
Gd1848 O1899 2.362 . S
Gd1848 O1900 2.324 . S
Gd1848 C1907 2.828 . S
Gd1849 N1858 2.661 . S
Gd1849 N1862 2.601 . S
Gd1849 O1893 2.362 . S
Gd1849 O1894 2.324 . S
Gd1849 O1898 2.545 . S
Gd1849 O1899 2.606 . S
Gd1849 O1901 2.429 . S
Gd1849 O1902 2.545 . S
Gd1849 O1903 2.412 . S
Gd1849 C1916 2.828 . S
C1850 C1853 1.417 . S
C1850 C1855 1.431 . S
C1850 C1856 1.412 . S
C1851 C1854 1.437 . S
C1851 C1855 1.317 . S
C1851 H1870 0.929 . S
C1852 C1853 1.426 . S
C1852 C1854 1.413 . S
C1852 N1862 1.359 . S
C1853 C1850 1.417 . S
C1853 C1852 1.426 . S
C1853 N1858 1.350 . S
C1854 C1851 1.437 . S
C1854 C1852 1.413 . S
C1854 C1864 1.391 . S
C1855 C1850 1.431 . S
C1855 C1851 1.317 . S
C1855 H1866 0.930 . S
C1856 C1850 1.412 . S
C1856 C1857 1.355 . S
C1856 H1868 0.930 . S
C1857 C1856 1.355 . S
C1857 C1859 1.402 . S
C1857 H1869 0.930 . S
N1858 Gd1849 2.661 . S
N1858 C1853 1.350 . S
N1858 C1859 1.307 . S
C1859 C1857 1.402 . S
C1859 N1858 1.307 . S
C1859 H1860 0.930 . S
H1860 C1859 0.930 . S
C1861 N1862 1.334 . S
C1861 C1863 1.394 . S
C1861 H1865 0.930 . S
N1862 Gd1849 2.601 . S
N1862 C1852 1.359 . S
N1862 C1861 1.334 . S
C1863 C1861 1.394 . S
C1863 C1864 1.359 . S
C1863 H1875 0.930 . S
C1864 C1854 1.391 . S
C1864 C1863 1.359 . S
C1864 H1876 0.929 . S
H1865 C1861 0.930 . S
H1866 C1855 0.930 . S
H1867 C1884 0.930 . S
H1868 C1856 0.930 . S
H1869 C1857 0.930 . S
H1870 C1851 0.929 . S
H1871 C1889 0.930 . S
H1872 C1880 0.930 . S
H1873 C1881 0.930 . S
H1874 C1905 0.929 . S
H1875 C1863 0.930 . S
H1876 C1864 0.929 . S
H1877 C1906 0.930 . S
H1878 C1887 0.930 . S
N1879 Gd1848 2.661 . S
N1879 C1883 1.350 . S
N1879 C1884 1.307 . S
C1880 H1872 0.930 . S
C1880 C1881 1.355 . S
C1880 C1882 1.412 . S
C1881 H1873 0.930 . S
C1881 C1880 1.355 . S
C1881 C1884 1.402 . S
C1882 C1880 1.412 . S
C1882 C1883 1.417 . S
C1882 C1906 1.431 . S
C1883 N1879 1.350 . S
C1883 C1882 1.417 . S
C1883 C1886 1.426 . S
C1884 H1867 0.930 . S
C1884 N1879 1.307 . S
C1884 C1881 1.402 . S
N1885 Gd1848 2.601 . S
N1885 C1886 1.359 . S
N1885 C1889 1.334 . S
C1886 C1883 1.426 . S
C1886 N1885 1.359 . S
C1886 C1890 1.413 . S
C1887 H1878 0.930 . S
C1887 C1888 1.359 . S
C1887 C1889 1.394 . S
C1888 C1887 1.359 . S
C1888 C1890 1.391 . S
C1888 H1891 0.929 . S
C1889 H1871 0.930 . S
C1889 N1885 1.334 . S
C1889 C1887 1.394 . S
C1890 C1886 1.413 . S
C1890 C1888 1.391 . S
C1890 C1905 1.437 . S
H1891 C1888 0.929 . S
O1892 Gd1848 2.545 . S
O1892 C1907 1.258 . S
O1893 Gd1848 2.606 . S
O1893 Gd1849 2.362 . S
O1893 C1904 1.284 . S
O1894 Gd1849 2.324 . S
O1894 C1914 1.254 . S
O1895 Gd1848 2.429 . S
O1895 C1914 1.268 . S
O1896 Gd1848 2.545 . S
O1896 C1904 1.250 . S
O1897 Gd1848 2.412 . S
O1897 C1907 1.252 . S
O1898 Gd1849 2.545 . S
O1898 C1916 1.258 . S
O1899 Gd1848 2.362 . S
O1899 Gd1849 2.606 . S
O1899 C1915 1.284 . S
O1900 Gd1848 2.324 . S
O1900 C1923 1.254 . S
O1901 Gd1849 2.429 . S
O1901 C1923 1.268 . S
O1902 Gd1849 2.545 . S
O1902 C1915 1.250 . S
O1903 Gd1849 2.412 . S
O1903 C1916 1.252 . S
C1904 O1893 1.284 . S
C1904 O1896 1.250 . S
C1905 H1874 0.929 . S
C1905 C1890 1.437 . S
C1905 C1906 1.317 . S
C1906 H1877 0.930 . S
C1906 C1882 1.431 . S
C1906 C1905 1.317 . S
C1907 Gd1848 2.828 . S
C1907 O1892 1.258 . S
C1907 O1897 1.252 . S
C1907 C1908 1.497 . S
C1908 C1907 1.497 . S
C1908 C1909 1.395 . S
C1908 C1910 1.380 . S
C1909 C1908 1.395 . S
C1909 C1912 1.398 . S
C1909 H1924 0.930 . S
C1910 C1908 1.380 . S
C1910 C1911 1.391 . S
C1910 H1925 0.930 . S
C1911 C1910 1.391 . S
C1911 C1913 1.387 . S
C1912 C1909 1.398 . S
C1912 C1913 1.380 . S
C1912 H1926 0.930 . S
C1913 C1911 1.387 . S
C1913 C1912 1.380 . S
C1913 H1927 0.930 . S
C1914 O1894 1.254 . S
C1914 O1895 1.268 . S
C1915 O1899 1.284 . S
C1915 O1902 1.250 . S
C1916 Gd1849 2.828 . S
C1916 O1898 1.258 . S
C1916 O1903 1.252 . S
C1916 C1917 1.497 . S
C1917 C1916 1.497 . S
C1917 C1918 1.395 . S
C1917 C1919 1.380 . S
C1918 C1917 1.395 . S
C1918 C1921 1.398 . S
C1918 H1928 0.930 . S
C1919 C1917 1.380 . S
C1919 C1920 1.391 . S
C1919 H1929 0.930 . S
C1920 C1919 1.391 . S
C1920 C1922 1.387 . S
C1921 C1918 1.398 . S
C1921 C1922 1.380 . S
C1921 H1930 0.930 . S
C1922 C1920 1.387 . S
C1922 C1921 1.380 . S
C1922 H1931 0.930 . S
C1923 O1900 1.254 . S
C1923 O1901 1.268 . S
H1924 C1909 0.930 . S
H1925 C1910 0.930 . S
H1926 C1912 0.930 . S
H1927 C1913 0.930 . S
H1928 C1918 0.930 . S
H1929 C1919 0.930 . S
H1930 C1921 0.930 . S
H1931 C1922 0.930 . S
Gd1932 N1963 2.661 . S
Gd1932 N1969 2.601 . S
Gd1932 O1976 2.545 . S
Gd1932 O1977 2.606 . S
Gd1932 O1979 2.429 . S
Gd1932 O1980 2.545 . S
Gd1932 O1981 2.412 . S
Gd1932 O1983 2.362 . S
Gd1932 O1984 2.324 . S
Gd1932 C1991 2.828 . S
Gd1933 N1942 2.661 . S
Gd1933 N1946 2.601 . S
Gd1933 O1977 2.362 . S
Gd1933 O1978 2.324 . S
Gd1933 O1982 2.545 . S
Gd1933 O1983 2.606 . S
Gd1933 O1985 2.429 . S
Gd1933 O1986 2.545 . S
Gd1933 O1987 2.412 . S
Gd1933 C2000 2.828 . S
C1934 C1937 1.417 . S
C1934 C1939 1.431 . S
C1934 C1940 1.412 . S
C1935 C1938 1.437 . S
C1935 C1939 1.317 . S
C1935 H1954 0.929 . S
C1936 C1937 1.426 . S
C1936 C1938 1.413 . S
C1936 N1946 1.359 . S
C1937 C1934 1.417 . S
C1937 C1936 1.426 . S
C1937 N1942 1.350 . S
C1938 C1935 1.437 . S
C1938 C1936 1.413 . S
C1938 C1948 1.391 . S
C1939 C1934 1.431 . S
C1939 C1935 1.317 . S
C1939 H1950 0.930 . S
C1940 C1934 1.412 . S
C1940 C1941 1.355 . S
C1940 H1952 0.930 . S
C1941 C1940 1.355 . S
C1941 C1943 1.402 . S
C1941 H1953 0.930 . S
N1942 Gd1933 2.661 . S
N1942 C1937 1.350 . S
N1942 C1943 1.307 . S
C1943 C1941 1.402 . S
C1943 N1942 1.307 . S
C1943 H1944 0.930 . S
H1944 C1943 0.930 . S
C1945 N1946 1.334 . S
C1945 C1947 1.394 . S
C1945 H1949 0.930 . S
N1946 Gd1933 2.601 . S
N1946 C1936 1.359 . S
N1946 C1945 1.334 . S
C1947 C1945 1.394 . S
C1947 C1948 1.359 . S
C1947 H1959 0.930 . S
C1948 C1938 1.391 . S
C1948 C1947 1.359 . S
C1948 H1960 0.929 . S
H1949 C1945 0.930 . S
H1950 C1939 0.930 . S
H1951 C1968 0.930 . S
H1952 C1940 0.930 . S
H1953 C1941 0.930 . S
H1954 C1935 0.929 . S
H1955 C1973 0.930 . S
H1956 C1964 0.930 . S
H1957 C1965 0.930 . S
H1958 C1989 0.929 . S
H1959 C1947 0.930 . S
H1960 C1948 0.929 . S
H1961 C1990 0.930 . S
H1962 C1971 0.930 . S
N1963 Gd1932 2.661 . S
N1963 C1967 1.350 . S
N1963 C1968 1.307 . S
C1964 H1956 0.930 . S
C1964 C1965 1.355 . S
C1964 C1966 1.412 . S
C1965 H1957 0.930 . S
C1965 C1964 1.355 . S
C1965 C1968 1.402 . S
C1966 C1964 1.412 . S
C1966 C1967 1.417 . S
C1966 C1990 1.431 . S
C1967 N1963 1.350 . S
C1967 C1966 1.417 . S
C1967 C1970 1.426 . S
C1968 H1951 0.930 . S
C1968 N1963 1.307 . S
C1968 C1965 1.402 . S
N1969 Gd1932 2.601 . S
N1969 C1970 1.359 . S
N1969 C1973 1.334 . S
C1970 C1967 1.426 . S
C1970 N1969 1.359 . S
C1970 C1974 1.413 . S
C1971 H1962 0.930 . S
C1971 C1972 1.359 . S
C1971 C1973 1.394 . S
C1972 C1971 1.359 . S
C1972 C1974 1.391 . S
C1972 H1975 0.929 . S
C1973 H1955 0.930 . S
C1973 N1969 1.334 . S
C1973 C1971 1.394 . S
C1974 C1970 1.413 . S
C1974 C1972 1.391 . S
C1974 C1989 1.437 . S
H1975 C1972 0.929 . S
O1976 Gd1932 2.545 . S
O1976 C1991 1.258 . S
O1977 Gd1932 2.606 . S
O1977 Gd1933 2.362 . S
O1977 C1988 1.284 . S
O1978 Gd1933 2.324 . S
O1978 C1998 1.254 . S
O1979 Gd1932 2.429 . S
O1979 C1998 1.268 . S
O1980 Gd1932 2.545 . S
O1980 C1988 1.250 . S
O1981 Gd1932 2.412 . S
O1981 C1991 1.252 . S
O1982 Gd1933 2.545 . S
O1982 C2000 1.258 . S
O1983 Gd1932 2.362 . S
O1983 Gd1933 2.606 . S
O1983 C1999 1.284 . S
O1984 Gd1932 2.324 . S
O1984 C2007 1.254 . S
O1985 Gd1933 2.429 . S
O1985 C2007 1.268 . S
O1986 Gd1933 2.545 . S
O1986 C1999 1.250 . S
O1987 Gd1933 2.412 . S
O1987 C2000 1.252 . S
C1988 O1977 1.284 . S
C1988 O1980 1.250 . S
C1989 H1958 0.929 . S
C1989 C1974 1.437 . S
C1989 C1990 1.317 . S
C1990 H1961 0.930 . S
C1990 C1966 1.431 . S
C1990 C1989 1.317 . S
C1991 Gd1932 2.828 . S
C1991 O1976 1.258 . S
C1991 O1981 1.252 . S
C1991 C1992 1.497 . S
C1992 C1991 1.497 . S
C1992 C1993 1.395 . S
C1992 C1994 1.380 . S
C1993 C1992 1.395 . S
C1993 C1996 1.398 . S
C1993 H2008 0.930 . S
C1994 C1992 1.380 . S
C1994 C1995 1.391 . S
C1994 H2009 0.930 . S
C1995 C1994 1.391 . S
C1995 C1997 1.387 . S
C1996 C1993 1.398 . S
C1996 C1997 1.380 . S
C1996 H2010 0.930 . S
C1997 C1995 1.387 . S
C1997 C1996 1.380 . S
C1997 H2011 0.930 . S
C1998 O1978 1.254 . S
C1998 O1979 1.268 . S
C1999 O1983 1.284 . S
C1999 O1986 1.250 . S
C2000 Gd1933 2.828 . S
C2000 O1982 1.258 . S
C2000 O1987 1.252 . S
C2000 C2001 1.497 . S
C2001 C2000 1.497 . S
C2001 C2002 1.395 . S
C2001 C2003 1.380 . S
C2002 C2001 1.395 . S
C2002 C2005 1.398 . S
C2002 H2012 0.930 . S
C2003 C2001 1.380 . S
C2003 C2004 1.391 . S
C2003 H2013 0.930 . S
C2004 C2003 1.391 . S
C2004 C2006 1.387 . S
C2005 C2002 1.398 . S
C2005 C2006 1.380 . S
C2005 H2014 0.930 . S
C2006 C2004 1.387 . S
C2006 C2005 1.380 . S
C2006 H2015 0.930 . S
C2007 O1984 1.254 . S
C2007 O1985 1.268 . S
H2008 C1993 0.930 . S
H2009 C1994 0.930 . S
H2010 C1996 0.930 . S
H2011 C1997 0.930 . S
H2012 C2002 0.930 . S
H2013 C2003 0.930 . S
H2014 C2005 0.930 . S
H2015 C2006 0.930 . S
Gd2016 N2047 2.661 . S
Gd2016 N2053 2.601 . S
Gd2016 O2060 2.545 . S
Gd2016 O2061 2.606 . S
Gd2016 O2063 2.429 . S
Gd2016 O2064 2.545 . S
Gd2016 O2065 2.412 . S
Gd2016 O2067 2.362 . S
Gd2016 O2068 2.324 . S
Gd2016 C2075 2.828 . S
Gd2017 N2026 2.661 . S
Gd2017 N2030 2.601 . S
Gd2017 O2061 2.362 . S
Gd2017 O2062 2.324 . S
Gd2017 O2066 2.545 . S
Gd2017 O2067 2.606 . S
Gd2017 O2069 2.429 . S
Gd2017 O2070 2.545 . S
Gd2017 O2071 2.412 . S
Gd2017 C2084 2.828 . S
C2018 C2021 1.417 . S
C2018 C2023 1.431 . S
C2018 C2024 1.412 . S
C2019 C2022 1.437 . S
C2019 C2023 1.317 . S
C2019 H2038 0.929 . S
C2020 C2021 1.426 . S
C2020 C2022 1.413 . S
C2020 N2030 1.359 . S
C2021 C2018 1.417 . S
C2021 C2020 1.426 . S
C2021 N2026 1.350 . S
C2022 C2019 1.437 . S
C2022 C2020 1.413 . S
C2022 C2032 1.391 . S
C2023 C2018 1.431 . S
C2023 C2019 1.317 . S
C2023 H2034 0.930 . S
C2024 C2018 1.412 . S
C2024 C2025 1.355 . S
C2024 H2036 0.930 . S
C2025 C2024 1.355 . S
C2025 C2027 1.402 . S
C2025 H2037 0.930 . S
N2026 Gd2017 2.661 . S
N2026 C2021 1.350 . S
N2026 C2027 1.307 . S
C2027 C2025 1.402 . S
C2027 N2026 1.307 . S
C2027 H2028 0.930 . S
H2028 C2027 0.930 . S
C2029 N2030 1.334 . S
C2029 C2031 1.394 . S
C2029 H2033 0.930 . S
N2030 Gd2017 2.601 . S
N2030 C2020 1.359 . S
N2030 C2029 1.334 . S
C2031 C2029 1.394 . S
C2031 C2032 1.359 . S
C2031 H2043 0.930 . S
C2032 C2022 1.391 . S
C2032 C2031 1.359 . S
C2032 H2044 0.929 . S
H2033 C2029 0.930 . S
H2034 C2023 0.930 . S
H2035 C2052 0.930 . S
H2036 C2024 0.930 . S
H2037 C2025 0.930 . S
H2038 C2019 0.929 . S
H2039 C2057 0.930 . S
H2040 C2048 0.930 . S
H2041 C2049 0.930 . S
H2042 C2073 0.929 . S
H2043 C2031 0.930 . S
H2044 C2032 0.929 . S
H2045 C2074 0.930 . S
H2046 C2055 0.930 . S
N2047 Gd2016 2.661 . S
N2047 C2051 1.350 . S
N2047 C2052 1.307 . S
C2048 H2040 0.930 . S
C2048 C2049 1.355 . S
C2048 C2050 1.412 . S
C2049 H2041 0.930 . S
C2049 C2048 1.355 . S
C2049 C2052 1.402 . S
C2050 C2048 1.412 . S
C2050 C2051 1.417 . S
C2050 C2074 1.431 . S
C2051 N2047 1.350 . S
C2051 C2050 1.417 . S
C2051 C2054 1.426 . S
C2052 H2035 0.930 . S
C2052 N2047 1.307 . S
C2052 C2049 1.402 . S
N2053 Gd2016 2.601 . S
N2053 C2054 1.359 . S
N2053 C2057 1.334 . S
C2054 C2051 1.426 . S
C2054 N2053 1.359 . S
C2054 C2058 1.413 . S
C2055 H2046 0.930 . S
C2055 C2056 1.359 . S
C2055 C2057 1.394 . S
C2056 C2055 1.359 . S
C2056 C2058 1.391 . S
C2056 H2059 0.929 . S
C2057 H2039 0.930 . S
C2057 N2053 1.334 . S
C2057 C2055 1.394 . S
C2058 C2054 1.413 . S
C2058 C2056 1.391 . S
C2058 C2073 1.437 . S
H2059 C2056 0.929 . S
O2060 Gd2016 2.545 . S
O2060 C2075 1.258 . S
O2061 Gd2016 2.606 . S
O2061 Gd2017 2.362 . S
O2061 C2072 1.284 . S
O2062 Gd2017 2.324 . S
O2062 C2082 1.254 . S
O2063 Gd2016 2.429 . S
O2063 C2082 1.268 . S
O2064 Gd2016 2.545 . S
O2064 C2072 1.250 . S
O2065 Gd2016 2.412 . S
O2065 C2075 1.252 . S
O2066 Gd2017 2.545 . S
O2066 C2084 1.258 . S
O2067 Gd2016 2.362 . S
O2067 Gd2017 2.606 . S
O2067 C2083 1.284 . S
O2068 Gd2016 2.324 . S
O2068 C2091 1.254 . S
O2069 Gd2017 2.429 . S
O2069 C2091 1.268 . S
O2070 Gd2017 2.545 . S
O2070 C2083 1.250 . S
O2071 Gd2017 2.412 . S
O2071 C2084 1.252 . S
C2072 O2061 1.284 . S
C2072 O2064 1.250 . S
C2073 H2042 0.929 . S
C2073 C2058 1.437 . S
C2073 C2074 1.317 . S
C2074 H2045 0.930 . S
C2074 C2050 1.431 . S
C2074 C2073 1.317 . S
C2075 Gd2016 2.828 . S
C2075 O2060 1.258 . S
C2075 O2065 1.252 . S
C2075 C2076 1.497 . S
C2076 C2075 1.497 . S
C2076 C2077 1.395 . S
C2076 C2078 1.380 . S
C2077 C2076 1.395 . S
C2077 C2080 1.398 . S
C2077 H2092 0.930 . S
C2078 C2076 1.380 . S
C2078 C2079 1.391 . S
C2078 H2093 0.930 . S
C2079 C2078 1.391 . S
C2079 C2081 1.387 . S
C2080 C2077 1.398 . S
C2080 C2081 1.380 . S
C2080 H2094 0.930 . S
C2081 C2079 1.387 . S
C2081 C2080 1.380 . S
C2081 H2095 0.930 . S
C2082 O2062 1.254 . S
C2082 O2063 1.268 . S
C2083 O2067 1.284 . S
C2083 O2070 1.250 . S
C2084 Gd2017 2.828 . S
C2084 O2066 1.258 . S
C2084 O2071 1.252 . S
C2084 C2085 1.497 . S
C2085 C2084 1.497 . S
C2085 C2086 1.395 . S
C2085 C2087 1.380 . S
C2086 C2085 1.395 . S
C2086 C2089 1.398 . S
C2086 H2096 0.930 . S
C2087 C2085 1.380 . S
C2087 C2088 1.391 . S
C2087 H2097 0.930 . S
C2088 C2087 1.391 . S
C2088 C2090 1.387 . S
C2089 C2086 1.398 . S
C2089 C2090 1.380 . S
C2089 H2098 0.930 . S
C2090 C2088 1.387 . S
C2090 C2089 1.380 . S
C2090 H2099 0.930 . S
C2091 O2068 1.254 . S
C2091 O2069 1.268 . S
H2092 C2077 0.930 . S
H2093 C2078 0.930 . S
H2094 C2080 0.930 . S
H2095 C2081 0.930 . S
H2096 C2086 0.930 . S
H2097 C2087 0.930 . S
H2098 C2089 0.930 . S
H2099 C2090 0.930 . S
Gd2100 N2131 2.661 . S
Gd2100 N2137 2.601 . S
Gd2100 O2144 2.545 . S
Gd2100 O2145 2.606 . S
Gd2100 O2147 2.429 . S
Gd2100 O2148 2.545 . S
Gd2100 O2149 2.412 . S
Gd2100 O2151 2.362 . S
Gd2100 O2152 2.324 . S
Gd2100 C2159 2.828 . S
Gd2101 N2110 2.661 . S
Gd2101 N2114 2.601 . S
Gd2101 O2145 2.362 . S
Gd2101 O2146 2.324 . S
Gd2101 O2150 2.545 . S
Gd2101 O2151 2.606 . S
Gd2101 O2153 2.429 . S
Gd2101 O2154 2.545 . S
Gd2101 O2155 2.412 . S
Gd2101 C2168 2.828 . S
C2102 C2105 1.417 . S
C2102 C2107 1.431 . S
C2102 C2108 1.412 . S
C2103 C2106 1.437 . S
C2103 C2107 1.317 . S
C2103 H2122 0.929 . S
C2104 C2105 1.426 . S
C2104 C2106 1.413 . S
C2104 N2114 1.359 . S
C2105 C2102 1.417 . S
C2105 C2104 1.426 . S
C2105 N2110 1.350 . S
C2106 C2103 1.437 . S
C2106 C2104 1.413 . S
C2106 C2116 1.391 . S
C2107 C2102 1.431 . S
C2107 C2103 1.317 . S
C2107 H2118 0.930 . S
C2108 C2102 1.412 . S
C2108 C2109 1.355 . S
C2108 H2120 0.930 . S
C2109 C2108 1.355 . S
C2109 C2111 1.402 . S
C2109 H2121 0.930 . S
N2110 Gd2101 2.661 . S
N2110 C2105 1.350 . S
N2110 C2111 1.307 . S
C2111 C2109 1.402 . S
C2111 N2110 1.307 . S
C2111 H2112 0.930 . S
H2112 C2111 0.930 . S
C2113 N2114 1.334 . S
C2113 C2115 1.394 . S
C2113 H2117 0.930 . S
N2114 Gd2101 2.601 . S
N2114 C2104 1.359 . S
N2114 C2113 1.334 . S
C2115 C2113 1.394 . S
C2115 C2116 1.359 . S
C2115 H2127 0.930 . S
C2116 C2106 1.391 . S
C2116 C2115 1.359 . S
C2116 H2128 0.929 . S
H2117 C2113 0.930 . S
H2118 C2107 0.930 . S
H2119 C2136 0.930 . S
H2120 C2108 0.930 . S
H2121 C2109 0.930 . S
H2122 C2103 0.929 . S
H2123 C2141 0.930 . S
H2124 C2132 0.930 . S
H2125 C2133 0.930 . S
H2126 C2157 0.929 . S
H2127 C2115 0.930 . S
H2128 C2116 0.929 . S
H2129 C2158 0.930 . S
H2130 C2139 0.930 . S
N2131 Gd2100 2.661 . S
N2131 C2135 1.350 . S
N2131 C2136 1.307 . S
C2132 H2124 0.930 . S
C2132 C2133 1.355 . S
C2132 C2134 1.412 . S
C2133 H2125 0.930 . S
C2133 C2132 1.355 . S
C2133 C2136 1.402 . S
C2134 C2132 1.412 . S
C2134 C2135 1.417 . S
C2134 C2158 1.431 . S
C2135 N2131 1.350 . S
C2135 C2134 1.417 . S
C2135 C2138 1.426 . S
C2136 H2119 0.930 . S
C2136 N2131 1.307 . S
C2136 C2133 1.402 . S
N2137 Gd2100 2.601 . S
N2137 C2138 1.359 . S
N2137 C2141 1.334 . S
C2138 C2135 1.426 . S
C2138 N2137 1.359 . S
C2138 C2142 1.413 . S
C2139 H2130 0.930 . S
C2139 C2140 1.359 . S
C2139 C2141 1.394 . S
C2140 C2139 1.359 . S
C2140 C2142 1.391 . S
C2140 H2143 0.929 . S
C2141 H2123 0.930 . S
C2141 N2137 1.334 . S
C2141 C2139 1.394 . S
C2142 C2138 1.413 . S
C2142 C2140 1.391 . S
C2142 C2157 1.437 . S
H2143 C2140 0.929 . S
O2144 Gd2100 2.545 . S
O2144 C2159 1.258 . S
O2145 Gd2100 2.606 . S
O2145 Gd2101 2.362 . S
O2145 C2156 1.284 . S
O2146 Gd2101 2.324 . S
O2146 C2166 1.254 . S
O2147 Gd2100 2.429 . S
O2147 C2166 1.268 . S
O2148 Gd2100 2.545 . S
O2148 C2156 1.250 . S
O2149 Gd2100 2.412 . S
O2149 C2159 1.252 . S
O2150 Gd2101 2.545 . S
O2150 C2168 1.258 . S
O2151 Gd2100 2.362 . S
O2151 Gd2101 2.606 . S
O2151 C2167 1.284 . S
O2152 Gd2100 2.324 . S
O2152 C2175 1.254 . S
O2153 Gd2101 2.429 . S
O2153 C2175 1.268 . S
O2154 Gd2101 2.545 . S
O2154 C2167 1.250 . S
O2155 Gd2101 2.412 . S
O2155 C2168 1.252 . S
C2156 O2145 1.284 . S
C2156 O2148 1.250 . S
C2157 H2126 0.929 . S
C2157 C2142 1.437 . S
C2157 C2158 1.317 . S
C2158 H2129 0.930 . S
C2158 C2134 1.431 . S
C2158 C2157 1.317 . S
C2159 Gd2100 2.828 . S
C2159 O2144 1.258 . S
C2159 O2149 1.252 . S
C2159 C2160 1.497 . S
C2160 C2159 1.497 . S
C2160 C2161 1.395 . S
C2160 C2162 1.380 . S
C2161 C2160 1.395 . S
C2161 C2164 1.398 . S
C2161 H2176 0.930 . S
C2162 C2160 1.380 . S
C2162 C2163 1.391 . S
C2162 H2177 0.930 . S
C2163 C2162 1.391 . S
C2163 C2165 1.387 . S
C2164 C2161 1.398 . S
C2164 C2165 1.380 . S
C2164 H2178 0.930 . S
C2165 C2163 1.387 . S
C2165 C2164 1.380 . S
C2165 H2179 0.930 . S
C2166 O2146 1.254 . S
C2166 O2147 1.268 . S
C2167 O2151 1.284 . S
C2167 O2154 1.250 . S
C2168 Gd2101 2.828 . S
C2168 O2150 1.258 . S
C2168 O2155 1.252 . S
C2168 C2169 1.497 . S
C2169 C2168 1.497 . S
C2169 C2170 1.395 . S
C2169 C2171 1.380 . S
C2170 C2169 1.395 . S
C2170 C2173 1.398 . S
C2170 H2180 0.930 . S
C2171 C2169 1.380 . S
C2171 C2172 1.391 . S
C2171 H2181 0.930 . S
C2172 C2171 1.391 . S
C2172 C2174 1.387 . S
C2173 C2170 1.398 . S
C2173 C2174 1.380 . S
C2173 H2182 0.930 . S
C2174 C2172 1.387 . S
C2174 C2173 1.380 . S
C2174 H2183 0.930 . S
C2175 O2152 1.254 . S
C2175 O2153 1.268 . S
H2176 C2161 0.930 . S
H2177 C2162 0.930 . S
H2178 C2164 0.930 . S
H2179 C2165 0.930 . S
H2180 C2170 0.930 . S
H2181 C2171 0.930 . S
H2182 C2173 0.930 . S
H2183 C2174 0.930 . S
Gd2184 N2215 2.661 . S
Gd2184 N2221 2.601 . S
Gd2184 O2228 2.545 . S
Gd2184 O2229 2.606 . S
Gd2184 O2231 2.429 . S
Gd2184 O2232 2.545 . S
Gd2184 O2233 2.412 . S
Gd2184 O2235 2.362 . S
Gd2184 O2236 2.324 . S
Gd2184 C2243 2.828 . S
Gd2185 N2194 2.661 . S
Gd2185 N2198 2.601 . S
Gd2185 O2229 2.362 . S
Gd2185 O2230 2.324 . S
Gd2185 O2234 2.545 . S
Gd2185 O2235 2.606 . S
Gd2185 O2237 2.429 . S
Gd2185 O2238 2.545 . S
Gd2185 O2239 2.412 . S
Gd2185 C2252 2.828 . S
C2186 C2189 1.417 . S
C2186 C2191 1.431 . S
C2186 C2192 1.412 . S
C2187 C2190 1.437 . S
C2187 C2191 1.317 . S
C2187 H2206 0.929 . S
C2188 C2189 1.426 . S
C2188 C2190 1.413 . S
C2188 N2198 1.359 . S
C2189 C2186 1.417 . S
C2189 C2188 1.426 . S
C2189 N2194 1.350 . S
C2190 C2187 1.437 . S
C2190 C2188 1.413 . S
C2190 C2200 1.391 . S
C2191 C2186 1.431 . S
C2191 C2187 1.317 . S
C2191 H2202 0.930 . S
C2192 C2186 1.412 . S
C2192 C2193 1.355 . S
C2192 H2204 0.930 . S
C2193 C2192 1.355 . S
C2193 C2195 1.402 . S
C2193 H2205 0.930 . S
N2194 Gd2185 2.661 . S
N2194 C2189 1.350 . S
N2194 C2195 1.307 . S
C2195 C2193 1.402 . S
C2195 N2194 1.307 . S
C2195 H2196 0.930 . S
H2196 C2195 0.930 . S
C2197 N2198 1.334 . S
C2197 C2199 1.394 . S
C2197 H2201 0.930 . S
N2198 Gd2185 2.601 . S
N2198 C2188 1.359 . S
N2198 C2197 1.334 . S
C2199 C2197 1.394 . S
C2199 C2200 1.359 . S
C2199 H2211 0.930 . S
C2200 C2190 1.391 . S
C2200 C2199 1.359 . S
C2200 H2212 0.929 . S
H2201 C2197 0.930 . S
H2202 C2191 0.930 . S
H2203 C2220 0.930 . S
H2204 C2192 0.930 . S
H2205 C2193 0.930 . S
H2206 C2187 0.929 . S
H2207 C2225 0.930 . S
H2208 C2216 0.930 . S
H2209 C2217 0.930 . S
H2210 C2241 0.929 . S
H2211 C2199 0.930 . S
H2212 C2200 0.929 . S
H2213 C2242 0.930 . S
H2214 C2223 0.930 . S
N2215 Gd2184 2.661 . S
N2215 C2219 1.350 . S
N2215 C2220 1.307 . S
C2216 H2208 0.930 . S
C2216 C2217 1.355 . S
C2216 C2218 1.412 . S
C2217 H2209 0.930 . S
C2217 C2216 1.355 . S
C2217 C2220 1.402 . S
C2218 C2216 1.412 . S
C2218 C2219 1.417 . S
C2218 C2242 1.431 . S
C2219 N2215 1.350 . S
C2219 C2218 1.417 . S
C2219 C2222 1.426 . S
C2220 H2203 0.930 . S
C2220 N2215 1.307 . S
C2220 C2217 1.402 . S
N2221 Gd2184 2.601 . S
N2221 C2222 1.359 . S
N2221 C2225 1.334 . S
C2222 C2219 1.426 . S
C2222 N2221 1.359 . S
C2222 C2226 1.413 . S
C2223 H2214 0.930 . S
C2223 C2224 1.359 . S
C2223 C2225 1.394 . S
C2224 C2223 1.359 . S
C2224 C2226 1.391 . S
C2224 H2227 0.929 . S
C2225 H2207 0.930 . S
C2225 N2221 1.334 . S
C2225 C2223 1.394 . S
C2226 C2222 1.413 . S
C2226 C2224 1.391 . S
C2226 C2241 1.437 . S
H2227 C2224 0.929 . S
O2228 Gd2184 2.545 . S
O2228 C2243 1.258 . S
O2229 Gd2184 2.606 . S
O2229 Gd2185 2.362 . S
O2229 C2240 1.284 . S
O2230 Gd2185 2.324 . S
O2230 C2250 1.254 . S
O2231 Gd2184 2.429 . S
O2231 C2250 1.268 . S
O2232 Gd2184 2.545 . S
O2232 C2240 1.250 . S
O2233 Gd2184 2.412 . S
O2233 C2243 1.252 . S
O2234 Gd2185 2.545 . S
O2234 C2252 1.258 . S
O2235 Gd2184 2.362 . S
O2235 Gd2185 2.606 . S
O2235 C2251 1.284 . S
O2236 Gd2184 2.324 . S
O2236 C2259 1.254 . S
O2237 Gd2185 2.429 . S
O2237 C2259 1.268 . S
O2238 Gd2185 2.545 . S
O2238 C2251 1.250 . S
O2239 Gd2185 2.412 . S
O2239 C2252 1.252 . S
C2240 O2229 1.284 . S
C2240 O2232 1.250 . S
C2241 H2210 0.929 . S
C2241 C2226 1.437 . S
C2241 C2242 1.317 . S
C2242 H2213 0.930 . S
C2242 C2218 1.431 . S
C2242 C2241 1.317 . S
C2243 Gd2184 2.828 . S
C2243 O2228 1.258 . S
C2243 O2233 1.252 . S
C2243 C2244 1.497 . S
C2244 C2243 1.497 . S
C2244 C2245 1.395 . S
C2244 C2246 1.380 . S
C2245 C2244 1.395 . S
C2245 C2248 1.398 . S
C2245 H2260 0.930 . S
C2246 C2244 1.380 . S
C2246 C2247 1.391 . S
C2246 H2261 0.930 . S
C2247 C2246 1.391 . S
C2247 C2249 1.387 . S
C2248 C2245 1.398 . S
C2248 C2249 1.380 . S
C2248 H2262 0.930 . S
C2249 C2247 1.387 . S
C2249 C2248 1.380 . S
C2249 H2263 0.930 . S
C2250 O2230 1.254 . S
C2250 O2231 1.268 . S
C2251 O2235 1.284 . S
C2251 O2238 1.250 . S
C2252 Gd2185 2.828 . S
C2252 O2234 1.258 . S
C2252 O2239 1.252 . S
C2252 C2253 1.497 . S
C2253 C2252 1.497 . S
C2253 C2254 1.395 . S
C2253 C2255 1.380 . S
C2254 C2253 1.395 . S
C2254 C2257 1.398 . S
C2254 H2264 0.930 . S
C2255 C2253 1.380 . S
C2255 C2256 1.391 . S
C2255 H2265 0.930 . S
C2256 C2255 1.391 . S
C2256 C2258 1.387 . S
C2257 C2254 1.398 . S
C2257 C2258 1.380 . S
C2257 H2266 0.930 . S
C2258 C2256 1.387 . S
C2258 C2257 1.380 . S
C2258 H2267 0.930 . S
C2259 O2236 1.254 . S
C2259 O2237 1.268 . S
H2260 C2245 0.930 . S
H2261 C2246 0.930 . S
H2262 C2248 0.930 . S
H2263 C2249 0.930 . S
H2264 C2254 0.930 . S
H2265 C2255 0.930 . S
H2266 C2257 0.930 . S
H2267 C2258 0.930 . S
Gd2268 N2299 2.661 1_455 S
Gd2268 N2305 2.601 . S
Gd2268 O2312 2.545 . S
Gd2268 O2313 2.606 . S
Gd2268 O2315 2.429 . S
Gd2268 O2316 2.545 . S
Gd2268 O2317 2.412 1_455 S
Gd2268 O2319 2.362 . S
Gd2268 O2320 2.324 . S
Gd2268 C2327 2.828 1_455 S
Gd2269 N2278 2.661 . S
Gd2269 N2282 2.601 . S
Gd2269 O2313 2.362 . S
Gd2269 O2314 2.324 . S
Gd2269 O2318 2.545 . S
Gd2269 O2319 2.606 . S
Gd2269 O2321 2.429 . S
Gd2269 O2322 2.545 . S
Gd2269 O2323 2.412 . S
Gd2269 C2336 2.828 . S
C2270 C2273 1.417 . S
C2270 C2275 1.431 . S
C2270 C2276 1.412 . S
C2271 C2274 1.437 . S
C2271 C2275 1.317 . S
C2271 H2290 0.929 . S
C2272 C2273 1.426 . S
C2272 C2274 1.413 . S
C2272 N2282 1.359 . S
C2273 C2270 1.417 . S
C2273 C2272 1.426 . S
C2273 N2278 1.350 . S
C2274 C2271 1.437 . S
C2274 C2272 1.413 . S
C2274 C2284 1.391 . S
C2275 C2270 1.431 . S
C2275 C2271 1.317 . S
C2275 H2286 0.930 . S
C2276 C2270 1.412 . S
C2276 C2277 1.355 . S
C2276 H2288 0.930 . S
C2277 C2276 1.355 . S
C2277 C2279 1.402 . S
C2277 H2289 0.930 . S
N2278 Gd2269 2.661 . S
N2278 C2273 1.350 . S
N2278 C2279 1.307 . S
C2279 C2277 1.402 . S
C2279 N2278 1.307 . S
C2279 H2280 0.930 . S
H2280 C2279 0.930 . S
C2281 N2282 1.334 . S
C2281 C2283 1.394 . S
C2281 H2285 0.930 . S
N2282 Gd2269 2.601 . S
N2282 C2272 1.359 . S
N2282 C2281 1.334 . S
C2283 C2281 1.394 . S
C2283 C2284 1.359 . S
C2283 H2295 0.930 . S
C2284 C2274 1.391 . S
C2284 C2283 1.359 . S
C2284 H2296 0.929 . S
H2285 C2281 0.930 . S
H2286 C2275 0.930 . S
H2287 C2304 0.930 . S
H2288 C2276 0.930 . S
H2289 C2277 0.930 . S
H2290 C2271 0.929 . S
H2291 C2309 0.930 . S
H2292 C2300 0.930 . S
H2293 C2301 0.930 . S
H2294 C2325 0.929 . S
H2295 C2283 0.930 . S
H2296 C2284 0.929 . S
H2297 C2326 0.930 . S
H2298 C2307 0.930 1_455 S
N2299 Gd2268 2.661 1_655 S
N2299 C2303 1.350 . S
N2299 C2304 1.307 . S
C2300 H2292 0.930 . S
C2300 C2301 1.355 . S
C2300 C2302 1.412 . S
C2301 H2293 0.930 . S
C2301 C2300 1.355 . S
C2301 C2304 1.402 . S
C2302 C2300 1.412 . S
C2302 C2303 1.417 . S
C2302 C2326 1.431 . S
C2303 N2299 1.350 . S
C2303 C2302 1.417 . S
C2303 C2306 1.426 . S
C2304 H2287 0.930 . S
C2304 N2299 1.307 . S
C2304 C2301 1.402 . S
N2305 Gd2268 2.601 . S
N2305 C2306 1.359 1_455 S
N2305 C2309 1.334 . S
C2306 C2303 1.426 . S
C2306 N2305 1.359 1_655 S
C2306 C2310 1.413 . S
C2307 H2298 0.930 1_655 S
C2307 C2308 1.359 . S
C2307 C2309 1.394 1_655 S
C2308 C2307 1.359 . S
C2308 C2310 1.391 . S
C2308 H2311 0.929 . S
C2309 H2291 0.930 . S
C2309 N2305 1.334 . S
C2309 C2307 1.394 1_455 S
C2310 C2306 1.413 . S
C2310 C2308 1.391 . S
C2310 C2325 1.437 . S
H2311 C2308 0.929 . S
O2312 Gd2268 2.545 . S
O2312 C2327 1.258 1_455 S
O2313 Gd2268 2.606 . S
O2313 Gd2269 2.362 . S
O2313 C2324 1.284 . S
O2314 Gd2269 2.324 . S
O2314 C2334 1.254 . S
O2315 Gd2268 2.429 . S
O2315 C2334 1.268 . S
O2316 Gd2268 2.545 . S
O2316 C2324 1.250 . S
O2317 Gd2268 2.412 1_655 S
O2317 C2327 1.252 . S
O2318 Gd2269 2.545 . S
O2318 C2336 1.258 . S
O2319 Gd2268 2.362 . S
O2319 Gd2269 2.606 . S
O2319 C2335 1.284 . S
O2320 Gd2268 2.324 . S
O2320 C2343 1.254 . S
O2321 Gd2269 2.429 . S
O2321 C2343 1.268 . S
O2322 Gd2269 2.545 . S
O2322 C2335 1.250 . S
O2323 Gd2269 2.412 . S
O2323 C2336 1.252 . S
C2324 O2313 1.284 . S
C2324 O2316 1.250 . S
C2325 H2294 0.929 . S
C2325 C2310 1.437 . S
C2325 C2326 1.317 . S
C2326 H2297 0.930 . S
C2326 C2302 1.431 . S
C2326 C2325 1.317 . S
C2327 Gd2268 2.828 1_655 S
C2327 O2312 1.258 1_655 S
C2327 O2317 1.252 . S
C2327 C2328 1.497 . S
C2328 C2327 1.497 . S
C2328 C2329 1.395 . S
C2328 C2330 1.380 . S
C2329 C2328 1.395 . S
C2329 C2332 1.398 . S
C2329 H2344 0.930 . S
C2330 C2328 1.380 . S
C2330 C2331 1.391 . S
C2330 H2345 0.930 . S
C2331 C2330 1.391 . S
C2331 C2333 1.387 . S
C2332 C2329 1.398 . S
C2332 C2333 1.380 . S
C2332 H2346 0.930 . S
C2333 C2331 1.387 . S
C2333 C2332 1.380 . S
C2333 H2347 0.930 . S
C2334 O2314 1.254 . S
C2334 O2315 1.268 . S
C2335 O2319 1.284 . S
C2335 O2322 1.250 . S
C2336 Gd2269 2.828 . S
C2336 O2318 1.258 . S
C2336 O2323 1.252 . S
C2336 C2337 1.497 . S
C2337 C2336 1.497 . S
C2337 C2338 1.395 . S
C2337 C2339 1.380 . S
C2338 C2337 1.395 . S
C2338 C2341 1.398 . S
C2338 H2348 0.930 . S
C2339 C2337 1.380 . S
C2339 C2340 1.391 . S
C2339 H2349 0.930 . S
C2340 C2339 1.391 . S
C2340 C2342 1.387 . S
C2341 C2338 1.398 . S
C2341 C2342 1.380 . S
C2341 H2350 0.930 . S
C2342 C2340 1.387 . S
C2342 C2341 1.380 . S
C2342 H2351 0.930 . S
C2343 O2320 1.254 . S
C2343 O2321 1.268 . S
H2344 C2329 0.930 . S
H2345 C2330 0.930 . S
H2346 C2332 0.930 . S
H2347 C2333 0.930 . S
H2348 C2338 0.930 . S
H2349 C2339 0.930 . S
H2350 C2341 0.930 . S
H2351 C2342 0.930 . S
Gd2352 N2383 2.661 . S
Gd2352 N2389 2.601 . S
Gd2352 O2396 2.545 . S
Gd2352 O2397 2.606 . S
Gd2352 O2399 2.429 . S
Gd2352 O2400 2.545 . S
Gd2352 O2401 2.412 . S
Gd2352 O2403 2.362 . S
Gd2352 O2404 2.324 . S
Gd2352 C2411 2.828 . S
Gd2353 N2362 2.661 . S
Gd2353 N2366 2.601 . S
Gd2353 O2397 2.362 . S
Gd2353 O2398 2.324 . S
Gd2353 O2402 2.545 . S
Gd2353 O2403 2.606 . S
Gd2353 O2405 2.429 . S
Gd2353 O2406 2.545 . S
Gd2353 O2407 2.412 . S
Gd2353 C2420 2.828 . S
C2354 C2357 1.417 . S
C2354 C2359 1.431 . S
C2354 C2360 1.412 . S
C2355 C2358 1.437 . S
C2355 C2359 1.317 . S
C2355 H2374 0.929 . S
C2356 C2357 1.426 . S
C2356 C2358 1.413 . S
C2356 N2366 1.359 . S
C2357 C2354 1.417 . S
C2357 C2356 1.426 . S
C2357 N2362 1.350 . S
C2358 C2355 1.437 . S
C2358 C2356 1.413 . S
C2358 C2368 1.391 . S
C2359 C2354 1.431 . S
C2359 C2355 1.317 . S
C2359 H2370 0.930 . S
C2360 C2354 1.412 . S
C2360 C2361 1.355 . S
C2360 H2372 0.930 . S
C2361 C2360 1.355 . S
C2361 C2363 1.402 . S
C2361 H2373 0.930 . S
N2362 Gd2353 2.661 . S
N2362 C2357 1.350 . S
N2362 C2363 1.307 . S
C2363 C2361 1.402 . S
C2363 N2362 1.307 . S
C2363 H2364 0.930 . S
H2364 C2363 0.930 . S
C2365 N2366 1.334 . S
C2365 C2367 1.394 . S
C2365 H2369 0.930 . S
N2366 Gd2353 2.601 . S
N2366 C2356 1.359 . S
N2366 C2365 1.334 . S
C2367 C2365 1.394 . S
C2367 C2368 1.359 . S
C2367 H2379 0.930 . S
C2368 C2358 1.391 . S
C2368 C2367 1.359 . S
C2368 H2380 0.929 . S
H2369 C2365 0.930 . S
H2370 C2359 0.930 . S
H2371 C2388 0.930 . S
H2372 C2360 0.930 . S
H2373 C2361 0.930 . S
H2374 C2355 0.929 . S
H2375 C2393 0.930 . S
H2376 C2384 0.930 . S
H2377 C2385 0.930 . S
H2378 C2409 0.929 . S
H2379 C2367 0.930 . S
H2380 C2368 0.929 . S
H2381 C2410 0.930 . S
H2382 C2391 0.930 . S
N2383 Gd2352 2.661 . S
N2383 C2387 1.350 . S
N2383 C2388 1.307 . S
C2384 H2376 0.930 . S
C2384 C2385 1.355 . S
C2384 C2386 1.412 . S
C2385 H2377 0.930 . S
C2385 C2384 1.355 . S
C2385 C2388 1.402 . S
C2386 C2384 1.412 . S
C2386 C2387 1.417 . S
C2386 C2410 1.431 . S
C2387 N2383 1.350 . S
C2387 C2386 1.417 . S
C2387 C2390 1.426 . S
C2388 H2371 0.930 . S
C2388 N2383 1.307 . S
C2388 C2385 1.402 . S
N2389 Gd2352 2.601 . S
N2389 C2390 1.359 . S
N2389 C2393 1.334 . S
C2390 C2387 1.426 . S
C2390 N2389 1.359 . S
C2390 C2394 1.413 . S
C2391 H2382 0.930 . S
C2391 C2392 1.359 . S
C2391 C2393 1.394 . S
C2392 C2391 1.359 . S
C2392 C2394 1.391 . S
C2392 H2395 0.929 . S
C2393 H2375 0.930 . S
C2393 N2389 1.334 . S
C2393 C2391 1.394 . S
C2394 C2390 1.413 . S
C2394 C2392 1.391 . S
C2394 C2409 1.437 . S
H2395 C2392 0.929 . S
O2396 Gd2352 2.545 . S
O2396 C2411 1.258 . S
O2397 Gd2352 2.606 . S
O2397 Gd2353 2.362 . S
O2397 C2408 1.284 . S
O2398 Gd2353 2.324 . S
O2398 C2418 1.254 . S
O2399 Gd2352 2.429 . S
O2399 C2418 1.268 . S
O2400 Gd2352 2.545 . S
O2400 C2408 1.250 . S
O2401 Gd2352 2.412 . S
O2401 C2411 1.252 . S
O2402 Gd2353 2.545 . S
O2402 C2420 1.258 . S
O2403 Gd2352 2.362 . S
O2403 Gd2353 2.606 . S
O2403 C2419 1.284 . S
O2404 Gd2352 2.324 . S
O2404 C2427 1.254 . S
O2405 Gd2353 2.429 . S
O2405 C2427 1.268 . S
O2406 Gd2353 2.545 . S
O2406 C2419 1.250 . S
O2407 Gd2353 2.412 . S
O2407 C2420 1.252 . S
C2408 O2397 1.284 . S
C2408 O2400 1.250 . S
C2409 H2378 0.929 . S
C2409 C2394 1.437 . S
C2409 C2410 1.317 . S
C2410 H2381 0.930 . S
C2410 C2386 1.431 . S
C2410 C2409 1.317 . S
C2411 Gd2352 2.828 . S
C2411 O2396 1.258 . S
C2411 O2401 1.252 . S
C2411 C2412 1.497 . S
C2412 C2411 1.497 . S
C2412 C2413 1.395 . S
C2412 C2414 1.380 . S
C2413 C2412 1.395 . S
C2413 C2416 1.398 . S
C2413 H2428 0.930 . S
C2414 C2412 1.380 . S
C2414 C2415 1.391 . S
C2414 H2429 0.930 . S
C2415 C2414 1.391 . S
C2415 C2417 1.387 . S
C2416 C2413 1.398 . S
C2416 C2417 1.380 . S
C2416 H2430 0.930 . S
C2417 C2415 1.387 . S
C2417 C2416 1.380 . S
C2417 H2431 0.930 . S
C2418 O2398 1.254 . S
C2418 O2399 1.268 . S
C2419 O2403 1.284 . S
C2419 O2406 1.250 . S
C2420 Gd2353 2.828 . S
C2420 O2402 1.258 . S
C2420 O2407 1.252 . S
C2420 C2421 1.497 . S
C2421 C2420 1.497 . S
C2421 C2422 1.395 . S
C2421 C2423 1.380 . S
C2422 C2421 1.395 . S
C2422 C2425 1.398 . S
C2422 H2432 0.930 . S
C2423 C2421 1.380 . S
C2423 C2424 1.391 . S
C2423 H2433 0.930 . S
C2424 C2423 1.391 . S
C2424 C2426 1.387 . S
C2425 C2422 1.398 . S
C2425 C2426 1.380 . S
C2425 H2434 0.930 . S
C2426 C2424 1.387 . S
C2426 C2425 1.380 . S
C2426 H2435 0.930 . S
C2427 O2404 1.254 . S
C2427 O2405 1.268 . S
H2428 C2413 0.930 . S
H2429 C2414 0.930 . S
H2430 C2416 0.930 . S
H2431 C2417 0.930 . S
H2432 C2422 0.930 . S
H2433 C2423 0.930 . S
H2434 C2425 0.930 . S
H2435 C2426 0.930 . S
Gd2436 N2467 2.661 1_455 S
Gd2436 N2473 2.601 . S
Gd2436 O2480 2.545 . S
Gd2436 O2481 2.606 . S
Gd2436 O2483 2.429 . S
Gd2436 O2484 2.545 . S
Gd2436 O2485 2.412 1_455 S
Gd2436 O2487 2.362 . S
Gd2436 O2488 2.324 . S
Gd2436 C2495 2.828 1_455 S
Gd2437 N2446 2.661 . S
Gd2437 N2450 2.601 . S
Gd2437 O2481 2.362 . S
Gd2437 O2482 2.324 . S
Gd2437 O2486 2.545 . S
Gd2437 O2487 2.606 . S
Gd2437 O2489 2.429 . S
Gd2437 O2490 2.545 . S
Gd2437 O2491 2.412 . S
Gd2437 C2504 2.828 . S
C2438 C2441 1.417 . S
C2438 C2443 1.431 . S
C2438 C2444 1.412 . S
C2439 C2442 1.437 . S
C2439 C2443 1.317 . S
C2439 H2458 0.929 . S
C2440 C2441 1.426 . S
C2440 C2442 1.413 . S
C2440 N2450 1.359 . S
C2441 C2438 1.417 . S
C2441 C2440 1.426 . S
C2441 N2446 1.350 . S
C2442 C2439 1.437 . S
C2442 C2440 1.413 . S
C2442 C2452 1.391 . S
C2443 C2438 1.431 . S
C2443 C2439 1.317 . S
C2443 H2454 0.930 . S
C2444 C2438 1.412 . S
C2444 C2445 1.355 . S
C2444 H2456 0.930 . S
C2445 C2444 1.355 . S
C2445 C2447 1.402 . S
C2445 H2457 0.930 . S
N2446 Gd2437 2.661 . S
N2446 C2441 1.350 . S
N2446 C2447 1.307 . S
C2447 C2445 1.402 . S
C2447 N2446 1.307 . S
C2447 H2448 0.930 . S
H2448 C2447 0.930 . S
C2449 N2450 1.334 . S
C2449 C2451 1.394 . S
C2449 H2453 0.930 . S
N2450 Gd2437 2.601 . S
N2450 C2440 1.359 . S
N2450 C2449 1.334 . S
C2451 C2449 1.394 . S
C2451 C2452 1.359 . S
C2451 H2463 0.930 . S
C2452 C2442 1.391 . S
C2452 C2451 1.359 . S
C2452 H2464 0.929 . S
H2453 C2449 0.930 . S
H2454 C2443 0.930 . S
H2455 C2472 0.930 . S
H2456 C2444 0.930 . S
H2457 C2445 0.930 . S
H2458 C2439 0.929 . S
H2459 C2477 0.930 . S
H2460 C2468 0.930 . S
H2461 C2469 0.930 . S
H2462 C2493 0.929 . S
H2463 C2451 0.930 . S
H2464 C2452 0.929 . S
H2465 C2494 0.930 . S
H2466 C2475 0.930 1_455 S
N2467 Gd2436 2.661 1_655 S
N2467 C2471 1.350 . S
N2467 C2472 1.307 . S
C2468 H2460 0.930 . S
C2468 C2469 1.355 . S
C2468 C2470 1.412 . S
C2469 H2461 0.930 . S
C2469 C2468 1.355 . S
C2469 C2472 1.402 . S
C2470 C2468 1.412 . S
C2470 C2471 1.417 . S
C2470 C2494 1.431 . S
C2471 N2467 1.350 . S
C2471 C2470 1.417 . S
C2471 C2474 1.426 . S
C2472 H2455 0.930 . S
C2472 N2467 1.307 . S
C2472 C2469 1.402 . S
N2473 Gd2436 2.601 . S
N2473 C2474 1.359 1_455 S
N2473 C2477 1.334 . S
C2474 C2471 1.426 . S
C2474 N2473 1.359 1_655 S
C2474 C2478 1.413 . S
C2475 H2466 0.930 1_655 S
C2475 C2476 1.359 . S
C2475 C2477 1.394 1_655 S
C2476 C2475 1.359 . S
C2476 C2478 1.391 . S
C2476 H2479 0.929 . S
C2477 H2459 0.930 . S
C2477 N2473 1.334 . S
C2477 C2475 1.394 1_455 S
C2478 C2474 1.413 . S
C2478 C2476 1.391 . S
C2478 C2493 1.437 . S
H2479 C2476 0.929 . S
O2480 Gd2436 2.545 . S
O2480 C2495 1.258 1_455 S
O2481 Gd2436 2.606 . S
O2481 Gd2437 2.362 . S
O2481 C2492 1.284 . S
O2482 Gd2437 2.324 . S
O2482 C2502 1.254 . S
O2483 Gd2436 2.429 . S
O2483 C2502 1.268 . S
O2484 Gd2436 2.545 . S
O2484 C2492 1.250 . S
O2485 Gd2436 2.412 1_655 S
O2485 C2495 1.252 . S
O2486 Gd2437 2.545 . S
O2486 C2504 1.258 . S
O2487 Gd2436 2.362 . S
O2487 Gd2437 2.606 . S
O2487 C2503 1.284 . S
O2488 Gd2436 2.324 . S
O2488 C2511 1.254 . S
O2489 Gd2437 2.429 . S
O2489 C2511 1.268 . S
O2490 Gd2437 2.545 . S
O2490 C2503 1.250 . S
O2491 Gd2437 2.412 . S
O2491 C2504 1.252 . S
C2492 O2481 1.284 . S
C2492 O2484 1.250 . S
C2493 H2462 0.929 . S
C2493 C2478 1.437 . S
C2493 C2494 1.317 . S
C2494 H2465 0.930 . S
C2494 C2470 1.431 . S
C2494 C2493 1.317 . S
C2495 Gd2436 2.828 1_655 S
C2495 O2480 1.258 1_655 S
C2495 O2485 1.252 . S
C2495 C2496 1.497 . S
C2496 C2495 1.497 . S
C2496 C2497 1.395 . S
C2496 C2498 1.380 . S
C2497 C2496 1.395 . S
C2497 C2500 1.398 . S
C2497 H2512 0.930 . S
C2498 C2496 1.380 . S
C2498 C2499 1.391 . S
C2498 H2513 0.930 . S
C2499 C2498 1.391 . S
C2499 C2501 1.387 . S
C2500 C2497 1.398 . S
C2500 C2501 1.380 . S
C2500 H2514 0.930 . S
C2501 C2499 1.387 . S
C2501 C2500 1.380 . S
C2501 H2515 0.930 . S
C2502 O2482 1.254 . S
C2502 O2483 1.268 . S
C2503 O2487 1.284 . S
C2503 O2490 1.250 . S
C2504 Gd2437 2.828 . S
C2504 O2486 1.258 . S
C2504 O2491 1.252 . S
C2504 C2505 1.497 . S
C2505 C2504 1.497 . S
C2505 C2506 1.395 . S
C2505 C2507 1.380 . S
C2506 C2505 1.395 . S
C2506 C2509 1.398 . S
C2506 H2516 0.930 . S
C2507 C2505 1.380 . S
C2507 C2508 1.391 . S
C2507 H2517 0.930 . S
C2508 C2507 1.391 . S
C2508 C2510 1.387 . S
C2509 C2506 1.398 . S
C2509 C2510 1.380 . S
C2509 H2518 0.930 . S
C2510 C2508 1.387 . S
C2510 C2509 1.380 . S
C2510 H2519 0.930 . S
C2511 O2488 1.254 . S
C2511 O2489 1.268 . S
H2512 C2497 0.930 . S
H2513 C2498 0.930 . S
H2514 C2500 0.930 . S
H2515 C2501 0.930 . S
H2516 C2506 0.930 . S
H2517 C2507 0.930 . S
H2518 C2509 0.930 . S
H2519 C2510 0.930 . S
Gd2520 N2551 2.661 . S
Gd2520 N2557 2.601 . S
Gd2520 O2564 2.545 . S
Gd2520 O2565 2.606 . S
Gd2520 O2567 2.429 . S
Gd2520 O2568 2.545 . S
Gd2520 O2569 2.412 . S
Gd2520 O2571 2.362 . S
Gd2520 O2572 2.324 . S
Gd2520 C2579 2.828 . S
Gd2521 N2530 2.661 . S
Gd2521 N2534 2.601 . S
Gd2521 O2565 2.362 . S
Gd2521 O2566 2.324 . S
Gd2521 O2570 2.545 . S
Gd2521 O2571 2.606 . S
Gd2521 O2573 2.429 . S
Gd2521 O2574 2.545 . S
Gd2521 O2575 2.412 . S
Gd2521 C2588 2.828 . S
C2522 C2525 1.417 . S
C2522 C2527 1.431 . S
C2522 C2528 1.412 . S
C2523 C2526 1.437 . S
C2523 C2527 1.317 . S
C2523 H2542 0.929 . S
C2524 C2525 1.426 . S
C2524 C2526 1.413 . S
C2524 N2534 1.359 . S
C2525 C2522 1.417 . S
C2525 C2524 1.426 . S
C2525 N2530 1.350 . S
C2526 C2523 1.437 . S
C2526 C2524 1.413 . S
C2526 C2536 1.391 . S
C2527 C2522 1.431 . S
C2527 C2523 1.317 . S
C2527 H2538 0.930 . S
C2528 C2522 1.412 . S
C2528 C2529 1.355 . S
C2528 H2540 0.930 . S
C2529 C2528 1.355 . S
C2529 C2531 1.402 . S
C2529 H2541 0.930 . S
N2530 Gd2521 2.661 . S
N2530 C2525 1.350 . S
N2530 C2531 1.307 . S
C2531 C2529 1.402 . S
C2531 N2530 1.307 . S
C2531 H2532 0.930 . S
H2532 C2531 0.930 . S
C2533 N2534 1.334 . S
C2533 C2535 1.394 . S
C2533 H2537 0.930 . S
N2534 Gd2521 2.601 . S
N2534 C2524 1.359 . S
N2534 C2533 1.334 . S
C2535 C2533 1.394 . S
C2535 C2536 1.359 . S
C2535 H2547 0.930 . S
C2536 C2526 1.391 . S
C2536 C2535 1.359 . S
C2536 H2548 0.929 . S
H2537 C2533 0.930 . S
H2538 C2527 0.930 . S
H2539 C2556 0.930 . S
H2540 C2528 0.930 . S
H2541 C2529 0.930 . S
H2542 C2523 0.929 . S
H2543 C2561 0.930 . S
H2544 C2552 0.930 . S
H2545 C2553 0.930 . S
H2546 C2577 0.929 . S
H2547 C2535 0.930 . S
H2548 C2536 0.929 . S
H2549 C2578 0.930 . S
H2550 C2559 0.930 . S
N2551 Gd2520 2.661 . S
N2551 C2555 1.350 . S
N2551 C2556 1.307 . S
C2552 H2544 0.930 . S
C2552 C2553 1.355 . S
C2552 C2554 1.412 . S
C2553 H2545 0.930 . S
C2553 C2552 1.355 . S
C2553 C2556 1.402 . S
C2554 C2552 1.412 . S
C2554 C2555 1.417 . S
C2554 C2578 1.431 . S
C2555 N2551 1.350 . S
C2555 C2554 1.417 . S
C2555 C2558 1.426 . S
C2556 H2539 0.930 . S
C2556 N2551 1.307 . S
C2556 C2553 1.402 . S
N2557 Gd2520 2.601 . S
N2557 C2558 1.359 . S
N2557 C2561 1.334 . S
C2558 C2555 1.426 . S
C2558 N2557 1.359 . S
C2558 C2562 1.413 . S
C2559 H2550 0.930 . S
C2559 C2560 1.359 . S
C2559 C2561 1.394 . S
C2560 C2559 1.359 . S
C2560 C2562 1.391 . S
C2560 H2563 0.929 . S
C2561 H2543 0.930 . S
C2561 N2557 1.334 . S
C2561 C2559 1.394 . S
C2562 C2558 1.413 . S
C2562 C2560 1.391 . S
C2562 C2577 1.437 . S
H2563 C2560 0.929 . S
O2564 Gd2520 2.545 . S
O2564 C2579 1.258 . S
O2565 Gd2520 2.606 . S
O2565 Gd2521 2.362 . S
O2565 C2576 1.284 . S
O2566 Gd2521 2.324 . S
O2566 C2586 1.254 . S
O2567 Gd2520 2.429 . S
O2567 C2586 1.268 . S
O2568 Gd2520 2.545 . S
O2568 C2576 1.250 . S
O2569 Gd2520 2.412 . S
O2569 C2579 1.252 . S
O2570 Gd2521 2.545 . S
O2570 C2588 1.258 . S
O2571 Gd2520 2.362 . S
O2571 Gd2521 2.606 . S
O2571 C2587 1.284 . S
O2572 Gd2520 2.324 . S
O2572 C2595 1.254 . S
O2573 Gd2521 2.429 . S
O2573 C2595 1.268 . S
O2574 Gd2521 2.545 . S
O2574 C2587 1.250 . S
O2575 Gd2521 2.412 . S
O2575 C2588 1.252 . S
C2576 O2565 1.284 . S
C2576 O2568 1.250 . S
C2577 H2546 0.929 . S
C2577 C2562 1.437 . S
C2577 C2578 1.317 . S
C2578 H2549 0.930 . S
C2578 C2554 1.431 . S
C2578 C2577 1.317 . S
C2579 Gd2520 2.828 . S
C2579 O2564 1.258 . S
C2579 O2569 1.252 . S
C2579 C2580 1.497 . S
C2580 C2579 1.497 . S
C2580 C2581 1.395 . S
C2580 C2582 1.380 . S
C2581 C2580 1.395 . S
C2581 C2584 1.398 . S
C2581 H2596 0.930 . S
C2582 C2580 1.380 . S
C2582 C2583 1.391 . S
C2582 H2597 0.930 . S
C2583 C2582 1.391 . S
C2583 C2585 1.387 . S
C2584 C2581 1.398 . S
C2584 C2585 1.380 . S
C2584 H2598 0.930 . S
C2585 C2583 1.387 . S
C2585 C2584 1.380 . S
C2585 H2599 0.930 . S
C2586 O2566 1.254 . S
C2586 O2567 1.268 . S
C2587 O2571 1.284 . S
C2587 O2574 1.250 . S
C2588 Gd2521 2.828 . S
C2588 O2570 1.258 . S
C2588 O2575 1.252 . S
C2588 C2589 1.497 . S
C2589 C2588 1.497 . S
C2589 C2590 1.395 . S
C2589 C2591 1.380 . S
C2590 C2589 1.395 . S
C2590 C2593 1.398 . S
C2590 H2600 0.930 . S
C2591 C2589 1.380 . S
C2591 C2592 1.391 . S
C2591 H2601 0.930 . S
C2592 C2591 1.391 . S
C2592 C2594 1.387 . S
C2593 C2590 1.398 . S
C2593 C2594 1.380 . S
C2593 H2602 0.930 . S
C2594 C2592 1.387 . S
C2594 C2593 1.380 . S
C2594 H2603 0.930 . S
C2595 O2572 1.254 . S
C2595 O2573 1.268 . S
H2596 C2581 0.930 . S
H2597 C2582 0.930 . S
H2598 C2584 0.930 . S
H2599 C2585 0.930 . S
H2600 C2590 0.930 . S
H2601 C2591 0.930 . S
H2602 C2593 0.930 . S
H2603 C2594 0.930 . S
Gd2604 N2635 2.661 . S
Gd2604 N2641 2.601 . S
Gd2604 O2648 2.545 . S
Gd2604 O2649 2.606 . S
Gd2604 O2651 2.429 . S
Gd2604 O2652 2.545 . S
Gd2604 O2653 2.412 . S
Gd2604 O2655 2.362 . S
Gd2604 O2656 2.324 . S
Gd2604 C2663 2.828 . S
Gd2605 N2614 2.661 . S
Gd2605 N2618 2.601 . S
Gd2605 O2649 2.362 . S
Gd2605 O2650 2.324 . S
Gd2605 O2654 2.545 . S
Gd2605 O2655 2.606 . S
Gd2605 O2657 2.429 . S
Gd2605 O2658 2.545 . S
Gd2605 O2659 2.412 . S
Gd2605 C2672 2.828 . S
C2606 C2609 1.417 . S
C2606 C2611 1.431 . S
C2606 C2612 1.412 . S
C2607 C2610 1.437 . S
C2607 C2611 1.317 . S
C2607 H2626 0.929 . S
C2608 C2609 1.426 . S
C2608 C2610 1.413 . S
C2608 N2618 1.359 . S
C2609 C2606 1.417 . S
C2609 C2608 1.426 . S
C2609 N2614 1.350 . S
C2610 C2607 1.437 . S
C2610 C2608 1.413 . S
C2610 C2620 1.391 . S
C2611 C2606 1.431 . S
C2611 C2607 1.317 . S
C2611 H2622 0.930 . S
C2612 C2606 1.412 . S
C2612 C2613 1.355 . S
C2612 H2624 0.930 . S
C2613 C2612 1.355 . S
C2613 C2615 1.402 . S
C2613 H2625 0.930 . S
N2614 Gd2605 2.661 . S
N2614 C2609 1.350 . S
N2614 C2615 1.307 . S
C2615 C2613 1.402 . S
C2615 N2614 1.307 . S
C2615 H2616 0.930 . S
H2616 C2615 0.930 . S
C2617 N2618 1.334 . S
C2617 C2619 1.394 . S
C2617 H2621 0.930 . S
N2618 Gd2605 2.601 . S
N2618 C2608 1.359 . S
N2618 C2617 1.334 . S
C2619 C2617 1.394 . S
C2619 C2620 1.359 . S
C2619 H2631 0.930 . S
C2620 C2610 1.391 . S
C2620 C2619 1.359 . S
C2620 H2632 0.929 . S
H2621 C2617 0.930 . S
H2622 C2611 0.930 . S
H2623 C2640 0.930 . S
H2624 C2612 0.930 . S
H2625 C2613 0.930 . S
H2626 C2607 0.929 . S
H2627 C2645 0.930 . S
H2628 C2636 0.930 . S
H2629 C2637 0.930 . S
H2630 C2661 0.929 . S
H2631 C2619 0.930 . S
H2632 C2620 0.929 . S
H2633 C2662 0.930 . S
H2634 C2643 0.930 . S
N2635 Gd2604 2.661 . S
N2635 C2639 1.350 . S
N2635 C2640 1.307 . S
C2636 H2628 0.930 . S
C2636 C2637 1.355 . S
C2636 C2638 1.412 . S
C2637 H2629 0.930 . S
C2637 C2636 1.355 . S
C2637 C2640 1.402 . S
C2638 C2636 1.412 . S
C2638 C2639 1.417 . S
C2638 C2662 1.431 . S
C2639 N2635 1.350 . S
C2639 C2638 1.417 . S
C2639 C2642 1.426 . S
C2640 H2623 0.930 . S
C2640 N2635 1.307 . S
C2640 C2637 1.402 . S
N2641 Gd2604 2.601 . S
N2641 C2642 1.359 . S
N2641 C2645 1.334 . S
C2642 C2639 1.426 . S
C2642 N2641 1.359 . S
C2642 C2646 1.413 . S
C2643 H2634 0.930 . S
C2643 C2644 1.359 . S
C2643 C2645 1.394 . S
C2644 C2643 1.359 . S
C2644 C2646 1.391 . S
C2644 H2647 0.929 . S
C2645 H2627 0.930 . S
C2645 N2641 1.334 . S
C2645 C2643 1.394 . S
C2646 C2642 1.413 . S
C2646 C2644 1.391 . S
C2646 C2661 1.437 . S
H2647 C2644 0.929 . S
O2648 Gd2604 2.545 . S
O2648 C2663 1.258 . S
O2649 Gd2604 2.606 . S
O2649 Gd2605 2.362 . S
O2649 C2660 1.284 . S
O2650 Gd2605 2.324 . S
O2650 C2670 1.254 . S
O2651 Gd2604 2.429 . S
O2651 C2670 1.268 . S
O2652 Gd2604 2.545 . S
O2652 C2660 1.250 . S
O2653 Gd2604 2.412 . S
O2653 C2663 1.252 . S
O2654 Gd2605 2.545 . S
O2654 C2672 1.258 . S
O2655 Gd2604 2.362 . S
O2655 Gd2605 2.606 . S
O2655 C2671 1.284 . S
O2656 Gd2604 2.324 . S
O2656 C2679 1.254 . S
O2657 Gd2605 2.429 . S
O2657 C2679 1.268 . S
O2658 Gd2605 2.545 . S
O2658 C2671 1.250 . S
O2659 Gd2605 2.412 . S
O2659 C2672 1.252 . S
C2660 O2649 1.284 . S
C2660 O2652 1.250 . S
C2661 H2630 0.929 . S
C2661 C2646 1.437 . S
C2661 C2662 1.317 . S
C2662 H2633 0.930 . S
C2662 C2638 1.431 . S
C2662 C2661 1.317 . S
C2663 Gd2604 2.828 . S
C2663 O2648 1.258 . S
C2663 O2653 1.252 . S
C2663 C2664 1.497 . S
C2664 C2663 1.497 . S
C2664 C2665 1.395 . S
C2664 C2666 1.380 . S
C2665 C2664 1.395 . S
C2665 C2668 1.398 . S
C2665 H2680 0.930 . S
C2666 C2664 1.380 . S
C2666 C2667 1.391 . S
C2666 H2681 0.930 . S
C2667 C2666 1.391 . S
C2667 C2669 1.387 . S
C2668 C2665 1.398 . S
C2668 C2669 1.380 . S
C2668 H2682 0.930 . S
C2669 C2667 1.387 . S
C2669 C2668 1.380 . S
C2669 H2683 0.930 . S
C2670 O2650 1.254 . S
C2670 O2651 1.268 . S
C2671 O2655 1.284 . S
C2671 O2658 1.250 . S
C2672 Gd2605 2.828 . S
C2672 O2654 1.258 . S
C2672 O2659 1.252 . S
C2672 C2673 1.497 . S
C2673 C2672 1.497 . S
C2673 C2674 1.395 . S
C2673 C2675 1.380 . S
C2674 C2673 1.395 . S
C2674 C2677 1.398 . S
C2674 H2684 0.930 . S
C2675 C2673 1.380 . S
C2675 C2676 1.391 . S
C2675 H2685 0.930 . S
C2676 C2675 1.391 . S
C2676 C2678 1.387 . S
C2677 C2674 1.398 . S
C2677 C2678 1.380 . S
C2677 H2686 0.930 . S
C2678 C2676 1.387 . S
C2678 C2677 1.380 . S
C2678 H2687 0.930 . S
C2679 O2656 1.254 . S
C2679 O2657 1.268 . S
H2680 C2665 0.930 . S
H2681 C2666 0.930 . S
H2682 C2668 0.930 . S
H2683 C2669 0.930 . S
H2684 C2674 0.930 . S
H2685 C2675 0.930 . S
H2686 C2677 0.930 . S
H2687 C2678 0.930 . S
H2688 C2696 0.950 . S
H2689 C2701 0.950 . S
H2690 C2698 0.950 . S
H2691 C2700 0.950 . S
H2692 C2702 0.950 . S
H2693 C2704 0.950 . S
H2694 C2706 0.950 . S
H2695 C2707 0.950 . S
C2696 H2688 0.950 . S
C2696 C2697 1.386 . S
C2696 C2698 1.391 . S
C2697 C2696 1.386 . S
C2697 C2701 1.393 . S
C2698 H2690 0.950 . S
C2698 C2696 1.391 . S
C2698 C2699 1.400 . S
C2699 C2698 1.400 . S
C2699 C2700 1.398 . S
C2699 C2705 1.491 . S
C2700 H2691 0.950 . S
C2700 C2699 1.398 . S
C2700 C2701 1.391 . S
C2701 H2689 0.950 . S
C2701 C2697 1.393 . S
C2701 C2700 1.391 . S
C2702 H2692 0.950 . S
C2702 C2703 1.386 . S
C2702 C2704 1.391 . S
C2703 C2702 1.386 . S
C2703 C2707 1.393 . S
C2704 H2693 0.950 . S
C2704 C2702 1.391 . S
C2704 C2705 1.400 . S
C2705 C2699 1.491 . S
C2705 C2704 1.400 . S
C2705 C2706 1.398 . S
C2706 H2694 0.950 . S
C2706 C2705 1.398 . S
C2706 C2707 1.391 . S
C2707 H2695 0.950 . S
C2707 C2703 1.393 . S
C2707 C2706 1.391 . S
H2708 C2716 0.950 . S
H2709 C2721 0.950 . S
H2710 C2718 0.950 . S
H2711 C2720 0.950 . S
H2712 C2722 0.950 . S
H2713 C2724 0.950 . S
H2714 C2726 0.950 . S
H2715 C2727 0.950 . S
C2716 H2708 0.950 . S
C2716 C2717 1.386 . S
C2716 C2718 1.391 . S
C2717 C2716 1.386 . S
C2717 C2721 1.393 . S
C2718 H2710 0.950 . S
C2718 C2716 1.391 . S
C2718 C2719 1.400 . S
C2719 C2718 1.400 . S
C2719 C2720 1.398 . S
C2719 C2725 1.491 . S
C2720 H2711 0.950 . S
C2720 C2719 1.398 . S
C2720 C2721 1.391 . S
C2721 H2709 0.950 . S
C2721 C2717 1.393 . S
C2721 C2720 1.391 . S
C2722 H2712 0.950 . S
C2722 C2723 1.386 . S
C2722 C2724 1.391 . S
C2723 C2722 1.386 . S
C2723 C2727 1.393 . S
C2724 H2713 0.950 . S
C2724 C2722 1.391 . S
C2724 C2725 1.400 . S
C2725 C2719 1.491 . S
C2725 C2724 1.400 . S
C2725 C2726 1.398 . S
C2726 H2714 0.950 . S
C2726 C2725 1.398 . S
C2726 C2727 1.391 . S
C2727 H2715 0.950 . S
C2727 C2723 1.393 . S
C2727 C2726 1.391 . S
H2728 C2736 0.950 . S
H2729 C2741 0.950 . S
H2730 C2738 0.950 . S
H2731 C2740 0.950 . S
H2732 C2742 0.950 . S
H2733 C2744 0.950 . S
H2734 C2746 0.950 . S
H2735 C2747 0.950 . S
C2736 H2728 0.950 . S
C2736 C2737 1.386 . S
C2736 C2738 1.391 . S
C2737 C2736 1.386 . S
C2737 C2741 1.393 . S
C2738 H2730 0.950 . S
C2738 C2736 1.391 . S
C2738 C2739 1.400 . S
C2739 C2738 1.400 . S
C2739 C2740 1.398 . S
C2739 C2745 1.491 . S
C2740 H2731 0.950 . S
C2740 C2739 1.398 . S
C2740 C2741 1.391 . S
C2741 H2729 0.950 . S
C2741 C2737 1.393 . S
C2741 C2740 1.391 . S
C2742 H2732 0.950 . S
C2742 C2743 1.386 . S
C2742 C2744 1.391 . S
C2743 C2742 1.386 . S
C2743 C2747 1.393 . S
C2744 H2733 0.950 . S
C2744 C2742 1.391 . S
C2744 C2745 1.400 . S
C2745 C2739 1.491 . S
C2745 C2744 1.400 . S
C2745 C2746 1.398 . S
C2746 H2734 0.950 . S
C2746 C2745 1.398 . S
C2746 C2747 1.391 . S
C2747 H2735 0.950 . S
C2747 C2743 1.393 . S
C2747 C2746 1.391 . S
H2748 C2756 0.950 . S
H2749 C2761 0.950 . S
H2750 C2758 0.950 . S
H2751 C2760 0.950 . S
H2752 C2762 0.950 . S
H2753 C2764 0.950 . S
H2754 C2766 0.950 . S
H2755 C2767 0.950 . S
C2756 H2748 0.950 . S
C2756 C2757 1.386 . S
C2756 C2758 1.391 . S
C2757 C2756 1.386 . S
C2757 C2761 1.393 . S
C2758 H2750 0.950 . S
C2758 C2756 1.391 . S
C2758 C2759 1.400 . S
C2759 C2758 1.400 . S
C2759 C2760 1.398 . S
C2759 C2765 1.491 . S
C2760 H2751 0.950 . S
C2760 C2759 1.398 . S
C2760 C2761 1.391 . S
C2761 H2749 0.950 . S
C2761 C2757 1.393 . S
C2761 C2760 1.391 . S
C2762 H2752 0.950 . S
C2762 C2763 1.386 . S
C2762 C2764 1.391 . S
C2763 C2762 1.386 . S
C2763 C2767 1.393 . S
C2764 H2753 0.950 . S
C2764 C2762 1.391 . S
C2764 C2765 1.400 . S
C2765 C2759 1.491 . S
C2765 C2764 1.400 . S
C2765 C2766 1.398 . S
C2766 H2754 0.950 . S
C2766 C2765 1.398 . S
C2766 C2767 1.391 . S
C2767 H2755 0.950 . S
C2767 C2763 1.393 . S
C2767 C2766 1.391 . S
H2768 C2776 0.950 . S
H2769 C2781 0.950 . S
H2770 C2778 0.950 . S
H2771 C2780 0.950 . S
H2772 C2782 0.950 . S
H2773 C2784 0.950 . S
H2774 C2786 0.950 . S
H2775 C2787 0.950 . S
C2776 H2768 0.950 . S
C2776 C2777 1.386 . S
C2776 C2778 1.391 . S
C2777 C2776 1.386 . S
C2777 C2781 1.393 . S
C2778 H2770 0.950 . S
C2778 C2776 1.391 . S
C2778 C2779 1.400 . S
C2779 C2778 1.400 . S
C2779 C2780 1.398 . S
C2779 C2785 1.491 . S
C2780 H2771 0.950 . S
C2780 C2779 1.398 . S
C2780 C2781 1.391 . S
C2781 H2769 0.950 . S
C2781 C2777 1.393 . S
C2781 C2780 1.391 . S
C2782 H2772 0.950 . S
C2782 C2783 1.386 . S
C2782 C2784 1.391 . S
C2783 C2782 1.386 . S
C2783 C2787 1.393 . S
C2784 H2773 0.950 . S
C2784 C2782 1.391 . S
C2784 C2785 1.400 . S
C2785 C2779 1.491 . S
C2785 C2784 1.400 . S
C2785 C2786 1.398 . S
C2786 H2774 0.950 . S
C2786 C2785 1.398 . S
C2786 C2787 1.391 . S
C2787 H2775 0.950 . S
C2787 C2783 1.393 . S
C2787 C2786 1.391 . S
H2788 C2796 0.950 . S
H2789 C2801 0.950 . S
H2790 C2798 0.950 . S
H2791 C2800 0.950 . S
H2792 C2802 0.950 . S
H2793 C2804 0.950 . S
H2794 C2806 0.950 . S
H2795 C2807 0.950 . S
C2796 H2788 0.950 . S
C2796 C2797 1.386 . S
C2796 C2798 1.391 . S
C2797 C2796 1.386 . S
C2797 C2801 1.393 . S
C2798 H2790 0.950 . S
C2798 C2796 1.391 . S
C2798 C2799 1.400 . S
C2799 C2798 1.400 . S
C2799 C2800 1.398 . S
C2799 C2805 1.491 . S
C2800 H2791 0.950 . S
C2800 C2799 1.398 . S
C2800 C2801 1.391 . S
C2801 H2789 0.950 . S
C2801 C2797 1.393 . S
C2801 C2800 1.391 . S
C2802 H2792 0.950 . S
C2802 C2803 1.386 . S
C2802 C2804 1.391 . S
C2803 C2802 1.386 . S
C2803 C2807 1.393 . S
C2804 H2793 0.950 . S
C2804 C2802 1.391 . S
C2804 C2805 1.400 . S
C2805 C2799 1.491 . S
C2805 C2804 1.400 . S
C2805 C2806 1.398 . S
C2806 H2794 0.950 . S
C2806 C2805 1.398 . S
C2806 C2807 1.391 . S
C2807 H2795 0.950 . S
C2807 C2803 1.393 . S
C2807 C2806 1.391 . S
H2808 C2816 0.950 . S
H2809 C2821 0.950 . S
H2810 C2818 0.950 . S
H2811 C2820 0.950 . S
H2812 C2822 0.950 . S
H2813 C2824 0.950 . S
H2814 C2826 0.950 . S
H2815 C2827 0.950 . S
C2816 H2808 0.950 . S
C2816 C2817 1.386 . S
C2816 C2818 1.391 . S
C2817 C2816 1.386 . S
C2817 C2821 1.393 . S
C2818 H2810 0.950 . S
C2818 C2816 1.391 . S
C2818 C2819 1.400 . S
C2819 C2818 1.400 . S
C2819 C2820 1.398 . S
C2819 C2825 1.491 . S
C2820 H2811 0.950 . S
C2820 C2819 1.398 . S
C2820 C2821 1.391 . S
C2821 H2809 0.950 . S
C2821 C2817 1.393 . S
C2821 C2820 1.391 . S
C2822 H2812 0.950 . S
C2822 C2823 1.386 . S
C2822 C2824 1.391 . S
C2823 C2822 1.386 . S
C2823 C2827 1.393 . S
C2824 H2813 0.950 . S
C2824 C2822 1.391 . S
C2824 C2825 1.400 . S
C2825 C2819 1.491 . S
C2825 C2824 1.400 . S
C2825 C2826 1.398 . S
C2826 H2814 0.950 . S
C2826 C2825 1.398 . S
C2826 C2827 1.391 . S
C2827 H2815 0.950 . S
C2827 C2823 1.393 . S
C2827 C2826 1.391 . S
H2828 C2836 0.950 . S
H2829 C2841 0.950 . S
H2830 C2838 0.950 . S
H2831 C2840 0.950 . S
H2832 C2842 0.950 . S
H2833 C2844 0.950 . S
H2834 C2846 0.950 . S
H2835 C2847 0.950 . S
C2836 H2828 0.950 . S
C2836 C2837 1.386 . S
C2836 C2838 1.391 . S
C2837 C2836 1.386 . S
C2837 C2841 1.393 . S
C2838 H2830 0.950 . S
C2838 C2836 1.391 . S
C2838 C2839 1.400 . S
C2839 C2838 1.400 . S
C2839 C2840 1.398 . S
C2839 C2845 1.491 . S
C2840 H2831 0.950 . S
C2840 C2839 1.398 . S
C2840 C2841 1.391 . S
C2841 H2829 0.950 . S
C2841 C2837 1.393 . S
C2841 C2840 1.391 . S
C2842 H2832 0.950 . S
C2842 C2843 1.386 . S
C2842 C2844 1.391 . S
C2843 C2842 1.386 . S
C2843 C2847 1.393 . S
C2844 H2833 0.950 . S
C2844 C2842 1.391 . S
C2844 C2845 1.400 . S
C2845 C2839 1.491 . S
C2845 C2844 1.400 . S
C2845 C2846 1.398 . S
C2846 H2834 0.950 . S
C2846 C2845 1.398 . S
C2846 C2847 1.391 . S
C2847 H2835 0.950 . S
C2847 C2843 1.393 . S
C2847 C2846 1.391 . S
H2848 C2856 0.950 . S
H2849 C2861 0.950 . S
H2850 C2858 0.950 . S
H2851 C2860 0.950 . S
H2852 C2862 0.950 . S
H2853 C2864 0.950 . S
H2854 C2866 0.950 . S
H2855 C2867 0.950 . S
C2856 H2848 0.950 . S
C2856 C2857 1.386 . S
C2856 C2858 1.391 . S
C2857 C2856 1.386 . S
C2857 C2861 1.393 . S
C2858 H2850 0.950 . S
C2858 C2856 1.391 . S
C2858 C2859 1.400 . S
C2859 C2858 1.400 . S
C2859 C2860 1.398 . S
C2859 C2865 1.491 . S
C2860 H2851 0.950 . S
C2860 C2859 1.398 . S
C2860 C2861 1.391 . S
C2861 H2849 0.950 . S
C2861 C2857 1.393 . S
C2861 C2860 1.391 . S
C2862 H2852 0.950 . S
C2862 C2863 1.386 . S
C2862 C2864 1.391 . S
C2863 C2862 1.386 . S
C2863 C2867 1.393 . S
C2864 H2853 0.950 . S
C2864 C2862 1.391 . S
C2864 C2865 1.400 . S
C2865 C2859 1.491 . S
C2865 C2864 1.400 . S
C2865 C2866 1.398 . S
C2866 H2854 0.950 . S
C2866 C2865 1.398 . S
C2866 C2867 1.391 . S
C2867 H2855 0.950 . S
C2867 C2863 1.393 . S
C2867 C2866 1.391 . S
H2868 C2876 0.950 . S
H2869 C2881 0.950 . S
H2870 C2878 0.950 . S
H2871 C2880 0.950 . S
H2872 C2882 0.950 . S
H2873 C2884 0.950 . S
H2874 C2886 0.950 . S
H2875 C2887 0.950 . S
C2876 H2868 0.950 . S
C2876 C2877 1.386 . S
C2876 C2878 1.391 . S
C2877 C2876 1.386 . S
C2877 C2881 1.393 . S
C2878 H2870 0.950 . S
C2878 C2876 1.391 . S
C2878 C2879 1.400 . S
C2879 C2878 1.400 . S
C2879 C2880 1.398 . S
C2879 C2885 1.491 . S
C2880 H2871 0.950 . S
C2880 C2879 1.398 . S
C2880 C2881 1.391 . S
C2881 H2869 0.950 . S
C2881 C2877 1.393 . S
C2881 C2880 1.391 . S
C2882 H2872 0.950 . S
C2882 C2883 1.386 . S
C2882 C2884 1.391 . S
C2883 C2882 1.386 . S
C2883 C2887 1.393 . S
C2884 H2873 0.950 . S
C2884 C2882 1.391 . S
C2884 C2885 1.400 . S
C2885 C2879 1.491 . S
C2885 C2884 1.400 . S
C2885 C2886 1.398 . S
C2886 H2874 0.950 . S
C2886 C2885 1.398 . S
C2886 C2887 1.391 . S
C2887 H2875 0.950 . S
C2887 C2883 1.393 . S
C2887 C2886 1.391 . S
H2888 C2896 0.950 . S
H2889 C2901 0.950 . S
H2890 C2898 0.950 . S
H2891 C2900 0.950 . S
H2892 C2902 0.950 . S
H2893 C2904 0.950 . S
H2894 C2906 0.950 . S
H2895 C2907 0.950 . S
C2896 H2888 0.950 . S
C2896 C2897 1.386 . S
C2896 C2898 1.391 . S
C2897 C2896 1.386 . S
C2897 C2901 1.393 . S
C2898 H2890 0.950 . S
C2898 C2896 1.391 . S
C2898 C2899 1.400 . S
C2899 C2898 1.400 . S
C2899 C2900 1.398 . S
C2899 C2905 1.491 . S
C2900 H2891 0.950 . S
C2900 C2899 1.398 . S
C2900 C2901 1.391 . S
C2901 H2889 0.950 . S
C2901 C2897 1.393 . S
C2901 C2900 1.391 . S
C2902 H2892 0.950 . S
C2902 C2903 1.386 . S
C2902 C2904 1.391 . S
C2903 C2902 1.386 . S
C2903 C2907 1.393 . S
C2904 H2893 0.950 . S
C2904 C2902 1.391 . S
C2904 C2905 1.400 . S
C2905 C2899 1.491 . S
C2905 C2904 1.400 . S
C2905 C2906 1.398 . S
C2906 H2894 0.950 . S
C2906 C2905 1.398 . S
C2906 C2907 1.391 . S
C2907 H2895 0.950 . S
C2907 C2903 1.393 . S
C2907 C2906 1.391 . S
H2908 C2916 0.950 . S
H2909 C2921 0.950 . S
H2910 C2918 0.950 . S
H2911 C2920 0.950 . S
H2912 C2922 0.950 . S
H2913 C2924 0.950 . S
H2914 C2926 0.950 . S
H2915 C2927 0.950 . S
C2916 H2908 0.950 . S
C2916 C2917 1.386 . S
C2916 C2918 1.391 . S
C2917 C2916 1.386 . S
C2917 C2921 1.393 . S
C2918 H2910 0.950 . S
C2918 C2916 1.391 . S
C2918 C2919 1.400 . S
C2919 C2918 1.400 . S
C2919 C2920 1.398 . S
C2919 C2925 1.491 . S
C2920 H2911 0.950 . S
C2920 C2919 1.398 . S
C2920 C2921 1.391 . S
C2921 H2909 0.950 . S
C2921 C2917 1.393 . S
C2921 C2920 1.391 . S
C2922 H2912 0.950 . S
C2922 C2923 1.386 . S
C2922 C2924 1.391 . S
C2923 C2922 1.386 . S
C2923 C2927 1.393 . S
C2924 H2913 0.950 . S
C2924 C2922 1.391 . S
C2924 C2925 1.400 . S
C2925 C2919 1.491 . S
C2925 C2924 1.400 . S
C2925 C2926 1.398 . S
C2926 H2914 0.950 . S
C2926 C2925 1.398 . S
C2926 C2927 1.391 . S
C2927 H2915 0.950 . S
C2927 C2923 1.393 . S
C2927 C2926 1.391 . S
H2928 C2936 0.950 . S
H2929 C2941 0.950 . S
H2930 C2938 0.950 . S
H2931 C2940 0.950 . S
H2932 C2942 0.950 . S
H2933 C2944 0.950 . S
H2934 C2946 0.950 . S
H2935 C2947 0.950 . S
C2936 H2928 0.950 . S
C2936 C2937 1.386 . S
C2936 C2938 1.391 . S
C2937 C2936 1.386 . S
C2937 C2941 1.393 . S
C2938 H2930 0.950 . S
C2938 C2936 1.391 . S
C2938 C2939 1.400 . S
C2939 C2938 1.400 . S
C2939 C2940 1.398 . S
C2939 C2945 1.491 . S
C2940 H2931 0.950 . S
C2940 C2939 1.398 . S
C2940 C2941 1.391 . S
C2941 H2929 0.950 . S
C2941 C2937 1.393 . S
C2941 C2940 1.391 . S
C2942 H2932 0.950 . S
C2942 C2943 1.386 . S
C2942 C2944 1.391 . S
C2943 C2942 1.386 . S
C2943 C2947 1.393 . S
C2944 H2933 0.950 . S
C2944 C2942 1.391 . S
C2944 C2945 1.400 . S
C2945 C2939 1.491 . S
C2945 C2944 1.400 . S
C2945 C2946 1.398 . S
C2946 H2934 0.950 . S
C2946 C2945 1.398 . S
C2946 C2947 1.391 . S
C2947 H2935 0.950 . S
C2947 C2943 1.393 . S
C2947 C2946 1.391 . S
H2948 C2956 0.950 . S
H2949 C2961 0.950 . S
H2950 C2958 0.950 . S
H2951 C2960 0.950 . S
H2952 C2962 0.950 . S
H2953 C2964 0.950 . S
H2954 C2966 0.950 . S
H2955 C2967 0.950 . S
C2956 H2948 0.950 . S
C2956 C2957 1.386 . S
C2956 C2958 1.391 . S
C2957 C2956 1.386 . S
C2957 C2961 1.393 . S
C2958 H2950 0.950 . S
C2958 C2956 1.391 . S
C2958 C2959 1.400 . S
C2959 C2958 1.400 . S
C2959 C2960 1.398 . S
C2959 C2965 1.491 . S
C2960 H2951 0.950 . S
C2960 C2959 1.398 . S
C2960 C2961 1.391 . S
C2961 H2949 0.950 . S
C2961 C2957 1.393 . S
C2961 C2960 1.391 . S
C2962 H2952 0.950 . S
C2962 C2963 1.386 . S
C2962 C2964 1.391 . S
C2963 C2962 1.386 . S
C2963 C2967 1.393 . S
C2964 H2953 0.950 . S
C2964 C2962 1.391 . S
C2964 C2965 1.400 . S
C2965 C2959 1.491 . S
C2965 C2964 1.400 . S
C2965 C2966 1.398 . S
C2966 H2954 0.950 . S
C2966 C2965 1.398 . S
C2966 C2967 1.391 . S
C2967 H2955 0.950 . S
C2967 C2963 1.393 . S
C2967 C2966 1.391 . S
H2968 C2976 0.950 . S
H2969 C2981 0.950 . S
H2970 C2978 0.950 . S
H2971 C2980 0.950 . S
H2972 C2982 0.950 . S
H2973 C2984 0.950 . S
H2974 C2986 0.950 . S
H2975 C2987 0.950 . S
C2976 H2968 0.950 . S
C2976 C2977 1.386 . S
C2976 C2978 1.391 . S
C2977 C2976 1.386 . S
C2977 C2981 1.393 . S
C2978 H2970 0.950 . S
C2978 C2976 1.391 . S
C2978 C2979 1.400 . S
C2979 C2978 1.400 . S
C2979 C2980 1.398 . S
C2979 C2985 1.491 . S
C2980 H2971 0.950 . S
C2980 C2979 1.398 . S
C2980 C2981 1.391 . S
C2981 H2969 0.950 . S
C2981 C2977 1.393 . S
C2981 C2980 1.391 . S
C2982 H2972 0.950 . S
C2982 C2983 1.386 . S
C2982 C2984 1.391 . S
C2983 C2982 1.386 . S
C2983 C2987 1.393 . S
C2984 H2973 0.950 . S
C2984 C2982 1.391 . S
C2984 C2985 1.400 . S
C2985 C2979 1.491 . S
C2985 C2984 1.400 . S
C2985 C2986 1.398 . S
C2986 H2974 0.950 . S
C2986 C2985 1.398 . S
C2986 C2987 1.391 . S
C2987 H2975 0.950 . S
C2987 C2983 1.393 . S
C2987 C2986 1.391 . S
H2988 C2996 0.950 . S
H2989 C3001 0.950 . S
H2990 C2998 0.950 . S
H2991 C3000 0.950 . S
H2992 C3002 0.950 . S
H2993 C3004 0.950 . S
H2994 C3006 0.950 . S
H2995 C3007 0.950 . S
C2996 H2988 0.950 . S
C2996 C2997 1.386 . S
C2996 C2998 1.391 . S
C2997 C2996 1.386 . S
C2997 C3001 1.393 . S
C2998 H2990 0.950 . S
C2998 C2996 1.391 . S
C2998 C2999 1.400 . S
C2999 C2998 1.400 . S
C2999 C3000 1.398 . S
C2999 C3005 1.491 . S
C3000 H2991 0.950 . S
C3000 C2999 1.398 . S
C3000 C3001 1.391 . S
C3001 H2989 0.950 . S
C3001 C2997 1.393 . S
C3001 C3000 1.391 . S
C3002 H2992 0.950 . S
C3002 C3003 1.386 . S
C3002 C3004 1.391 . S
C3003 C3002 1.386 . S
C3003 C3007 1.393 . S
C3004 H2993 0.950 . S
C3004 C3002 1.391 . S
C3004 C3005 1.400 . S
C3005 C2999 1.491 . S
C3005 C3004 1.400 . S
C3005 C3006 1.398 . S
C3006 H2994 0.950 . S
C3006 C3005 1.398 . S
C3006 C3007 1.391 . S
C3007 H2995 0.950 . S
C3007 C3003 1.393 . S
C3007 C3006 1.391 . S
H3008 C3016 0.950 . S
H3009 C3021 0.950 . S
H3010 C3018 0.950 . S
H3011 C3020 0.950 . S
H3012 C3022 0.950 . S
H3013 C3024 0.950 . S
H3014 C3026 0.950 . S
H3015 C3027 0.950 . S
C3016 H3008 0.950 . S
C3016 C3017 1.386 . S
C3016 C3018 1.391 . S
C3017 C3016 1.386 . S
C3017 C3021 1.393 . S
C3018 H3010 0.950 . S
C3018 C3016 1.391 . S
C3018 C3019 1.400 . S
C3019 C3018 1.400 . S
C3019 C3020 1.398 . S
C3019 C3025 1.491 . S
C3020 H3011 0.950 . S
C3020 C3019 1.398 . S
C3020 C3021 1.391 . S
C3021 H3009 0.950 . S
C3021 C3017 1.393 . S
C3021 C3020 1.391 . S
C3022 H3012 0.950 . S
C3022 C3023 1.386 . S
C3022 C3024 1.391 . S
C3023 C3022 1.386 . S
C3023 C3027 1.393 . S
C3024 H3013 0.950 . S
C3024 C3022 1.391 . S
C3024 C3025 1.400 . S
C3025 C3019 1.491 . S
C3025 C3024 1.400 . S
C3025 C3026 1.398 . S
C3026 H3014 0.950 . S
C3026 C3025 1.398 . S
C3026 C3027 1.391 . S
C3027 H3015 0.950 . S
C3027 C3023 1.393 . S
C3027 C3026 1.391 . S
H3028 C3036 0.950 . S
H3029 C3041 0.950 . S
H3030 C3038 0.950 . S
H3031 C3040 0.950 . S
H3032 C3042 0.950 . S
H3033 C3044 0.950 . S
H3034 C3046 0.950 . S
H3035 C3047 0.950 . S
C3036 H3028 0.950 . S
C3036 C3037 1.386 . S
C3036 C3038 1.391 . S
C3037 C3036 1.386 . S
C3037 C3041 1.393 . S
C3038 H3030 0.950 . S
C3038 C3036 1.391 . S
C3038 C3039 1.400 . S
C3039 C3038 1.400 . S
C3039 C3040 1.398 . S
C3039 C3045 1.491 . S
C3040 H3031 0.950 . S
C3040 C3039 1.398 . S
C3040 C3041 1.391 . S
C3041 H3029 0.950 . S
C3041 C3037 1.393 . S
C3041 C3040 1.391 . S
C3042 H3032 0.950 . S
C3042 C3043 1.386 . S
C3042 C3044 1.391 . S
C3043 C3042 1.386 . S
C3043 C3047 1.393 . S
C3044 H3033 0.950 . S
C3044 C3042 1.391 . S
C3044 C3045 1.400 . S
C3045 C3039 1.491 . S
C3045 C3044 1.400 . S
C3045 C3046 1.398 . S
C3046 H3034 0.950 . S
C3046 C3045 1.398 . S
C3046 C3047 1.391 . S
C3047 H3035 0.950 . S
C3047 C3043 1.393 . S
C3047 C3046 1.391 . S
H3048 C3056 0.950 . S
H3049 C3061 0.950 . S
H3050 C3058 0.950 . S
H3051 C3060 0.950 . S
H3052 C3062 0.950 . S
H3053 C3064 0.950 . S
H3054 C3066 0.950 . S
H3055 C3067 0.950 . S
C3056 H3048 0.950 . S
C3056 C3057 1.386 . S
C3056 C3058 1.391 . S
C3057 C3056 1.386 . S
C3057 C3061 1.393 . S
C3058 H3050 0.950 . S
C3058 C3056 1.391 . S
C3058 C3059 1.400 . S
C3059 C3058 1.400 . S
C3059 C3060 1.398 . S
C3059 C3065 1.491 . S
C3060 H3051 0.950 . S
C3060 C3059 1.398 . S
C3060 C3061 1.391 . S
C3061 H3049 0.950 . S
C3061 C3057 1.393 . S
C3061 C3060 1.391 . S
C3062 H3052 0.950 . S
C3062 C3063 1.386 . S
C3062 C3064 1.391 . S
C3063 C3062 1.386 . S
C3063 C3067 1.393 . S
C3064 H3053 0.950 . S
C3064 C3062 1.391 . S
C3064 C3065 1.400 . S
C3065 C3059 1.491 . S
C3065 C3064 1.400 . S
C3065 C3066 1.398 . S
C3066 H3054 0.950 . S
C3066 C3065 1.398 . S
C3066 C3067 1.391 . S
C3067 H3055 0.950 . S
C3067 C3063 1.393 . S
C3067 C3066 1.391 . S
H3068 C3076 0.950 . S
H3069 C3081 0.950 . S
H3070 C3078 0.950 . S
H3071 C3080 0.950 . S
H3072 C3082 0.950 . S
H3073 C3084 0.950 . S
H3074 C3086 0.950 . S
H3075 C3087 0.950 . S
C3076 H3068 0.950 . S
C3076 C3077 1.386 . S
C3076 C3078 1.391 . S
C3077 C3076 1.386 . S
C3077 C3081 1.393 . S
C3078 H3070 0.950 . S
C3078 C3076 1.391 . S
C3078 C3079 1.400 . S
C3079 C3078 1.400 . S
C3079 C3080 1.398 . S
C3079 C3085 1.491 . S
C3080 H3071 0.950 . S
C3080 C3079 1.398 . S
C3080 C3081 1.391 . S
C3081 H3069 0.950 . S
C3081 C3077 1.393 . S
C3081 C3080 1.391 . S
C3082 H3072 0.950 . S
C3082 C3083 1.386 . S
C3082 C3084 1.391 . S
C3083 C3082 1.386 . S
C3083 C3087 1.393 . S
C3084 H3073 0.950 . S
C3084 C3082 1.391 . S
C3084 C3085 1.400 . S
C3085 C3079 1.491 . S
C3085 C3084 1.400 . S
C3085 C3086 1.398 . S
C3086 H3074 0.950 . S
C3086 C3085 1.398 . S
C3086 C3087 1.391 . S
C3087 H3075 0.950 . S
C3087 C3083 1.393 . S
C3087 C3086 1.391 . S
H3088 C3096 0.950 . S
H3089 C3101 0.950 . S
H3090 C3098 0.950 . S
H3091 C3100 0.950 . S
H3092 C3102 0.950 . S
H3093 C3104 0.950 . S
H3094 C3106 0.950 . S
H3095 C3107 0.950 . S
C3096 H3088 0.950 . S
C3096 C3097 1.386 . S
C3096 C3098 1.391 . S
C3097 C3096 1.386 . S
C3097 C3101 1.393 . S
C3098 H3090 0.950 . S
C3098 C3096 1.391 . S
C3098 C3099 1.400 . S
C3099 C3098 1.400 . S
C3099 C3100 1.398 . S
C3099 C3105 1.491 . S
C3100 H3091 0.950 . S
C3100 C3099 1.398 . S
C3100 C3101 1.391 . S
C3101 H3089 0.950 . S
C3101 C3097 1.393 . S
C3101 C3100 1.391 . S
C3102 H3092 0.950 . S
C3102 C3103 1.386 . S
C3102 C3104 1.391 . S
C3103 C3102 1.386 . S
C3103 C3107 1.393 . S
C3104 H3093 0.950 . S
C3104 C3102 1.391 . S
C3104 C3105 1.400 . S
C3105 C3099 1.491 . S
C3105 C3104 1.400 . S
C3105 C3106 1.398 . S
C3106 H3094 0.950 . S
C3106 C3105 1.398 . S
C3106 C3107 1.391 . S
C3107 H3095 0.950 . S
C3107 C3103 1.393 . S
C3107 C3106 1.391 . S
H3108 C3116 0.950 . S
H3109 C3121 0.950 . S
H3110 C3118 0.950 . S
H3111 C3120 0.950 . S
H3112 C3122 0.950 . S
H3113 C3124 0.950 . S
H3114 C3126 0.950 . S
H3115 C3127 0.950 . S
C3116 H3108 0.950 . S
C3116 C3117 1.386 . S
C3116 C3118 1.391 . S
C3117 C3116 1.386 . S
C3117 C3121 1.393 . S
C3118 H3110 0.950 . S
C3118 C3116 1.391 . S
C3118 C3119 1.400 . S
C3119 C3118 1.400 . S
C3119 C3120 1.398 . S
C3119 C3125 1.491 . S
C3120 H3111 0.950 . S
C3120 C3119 1.398 . S
C3120 C3121 1.391 . S
C3121 H3109 0.950 . S
C3121 C3117 1.393 . S
C3121 C3120 1.391 . S
C3122 H3112 0.950 . S
C3122 C3123 1.386 . S
C3122 C3124 1.391 . S
C3123 C3122 1.386 . S
C3123 C3127 1.393 . S
C3124 H3113 0.950 . S
C3124 C3122 1.391 . S
C3124 C3125 1.400 . S
C3125 C3119 1.491 . S
C3125 C3124 1.400 . S
C3125 C3126 1.398 . S
C3126 H3114 0.950 . S
C3126 C3125 1.398 . S
C3126 C3127 1.391 . S
C3127 H3115 0.950 . S
C3127 C3123 1.393 . S
C3127 C3126 1.391 . S
H3128 C3136 0.950 . S
H3129 C3141 0.950 . S
H3130 C3138 0.950 . S
H3131 C3140 0.950 . S
H3132 C3142 0.950 . S
H3133 C3144 0.950 . S
H3134 C3146 0.950 . S
H3135 C3147 0.950 . S
C3136 H3128 0.950 . S
C3136 C3137 1.386 . S
C3136 C3138 1.391 . S
C3137 C3136 1.386 . S
C3137 C3141 1.393 . S
C3138 H3130 0.950 . S
C3138 C3136 1.391 . S
C3138 C3139 1.400 . S
C3139 C3138 1.400 . S
C3139 C3140 1.398 . S
C3139 C3145 1.491 . S
C3140 H3131 0.950 . S
C3140 C3139 1.398 . S
C3140 C3141 1.391 . S
C3141 H3129 0.950 . S
C3141 C3137 1.393 . S
C3141 C3140 1.391 . S
C3142 H3132 0.950 . S
C3142 C3143 1.386 . S
C3142 C3144 1.391 . S
C3143 C3142 1.386 . S
C3143 C3147 1.393 . S
C3144 H3133 0.950 . S
C3144 C3142 1.391 . S
C3144 C3145 1.400 . S
C3145 C3139 1.491 . S
C3145 C3144 1.400 . S
C3145 C3146 1.398 . S
C3146 H3134 0.950 . S
C3146 C3145 1.398 . S
C3146 C3147 1.391 . S
C3147 H3135 0.950 . S
C3147 C3143 1.393 . S
C3147 C3146 1.391 . S
H3148 C3156 0.950 . S
H3149 C3161 0.950 . S
H3150 C3158 0.950 . S
H3151 C3160 0.950 . S
H3152 C3162 0.950 . S
H3153 C3164 0.950 . S
H3154 C3166 0.950 . S
H3155 C3167 0.950 . S
C3156 H3148 0.950 . S
C3156 C3157 1.386 . S
C3156 C3158 1.391 . S
C3157 C3156 1.386 . S
C3157 C3161 1.393 . S
C3158 H3150 0.950 . S
C3158 C3156 1.391 . S
C3158 C3159 1.400 . S
C3159 C3158 1.400 . S
C3159 C3160 1.398 . S
C3159 C3165 1.491 . S
C3160 H3151 0.950 . S
C3160 C3159 1.398 . S
C3160 C3161 1.391 . S
C3161 H3149 0.950 . S
C3161 C3157 1.393 . S
C3161 C3160 1.391 . S
C3162 H3152 0.950 . S
C3162 C3163 1.386 . S
C3162 C3164 1.391 . S
C3163 C3162 1.386 . S
C3163 C3167 1.393 . S
C3164 H3153 0.950 . S
C3164 C3162 1.391 . S
C3164 C3165 1.400 . S
C3165 C3159 1.491 . S
C3165 C3164 1.400 . S
C3165 C3166 1.398 . S
C3166 H3154 0.950 . S
C3166 C3165 1.398 . S
C3166 C3167 1.391 . S
C3167 H3155 0.950 . S
C3167 C3163 1.393 . S
C3167 C3166 1.391 . S
H3168 C3176 0.950 . S
H3169 C3181 0.950 . S
H3170 C3178 0.950 . S
H3171 C3180 0.950 . S
H3172 C3182 0.950 . S
H3173 C3184 0.950 . S
H3174 C3186 0.950 . S
H3175 C3187 0.950 . S
C3176 H3168 0.950 . S
C3176 C3177 1.386 . S
C3176 C3178 1.391 . S
C3177 C3176 1.386 . S
C3177 C3181 1.393 . S
C3178 H3170 0.950 . S
C3178 C3176 1.391 . S
C3178 C3179 1.400 . S
C3179 C3178 1.400 . S
C3179 C3180 1.398 . S
C3179 C3185 1.491 . S
C3180 H3171 0.950 . S
C3180 C3179 1.398 . S
C3180 C3181 1.391 . S
C3181 H3169 0.950 . S
C3181 C3177 1.393 . S
C3181 C3180 1.391 . S
C3182 H3172 0.950 . S
C3182 C3183 1.386 . S
C3182 C3184 1.391 . S
C3183 C3182 1.386 . S
C3183 C3187 1.393 . S
C3184 H3173 0.950 . S
C3184 C3182 1.391 . S
C3184 C3185 1.400 . S
C3185 C3179 1.491 . S
C3185 C3184 1.400 . S
C3185 C3186 1.398 . S
C3186 H3174 0.950 . S
C3186 C3185 1.398 . S
C3186 C3187 1.391 . S
C3187 H3175 0.950 . S
C3187 C3183 1.393 . S
C3187 C3186 1.391 . S
H3188 C3196 0.950 . S
H3189 C3201 0.950 . S
H3190 C3198 0.950 . S
H3191 C3200 0.950 . S
H3192 C3202 0.950 . S
H3193 C3204 0.950 . S
H3194 C3206 0.950 . S
H3195 C3207 0.950 . S
C3196 H3188 0.950 . S
C3196 C3197 1.386 . S
C3196 C3198 1.391 . S
C3197 C3196 1.386 . S
C3197 C3201 1.393 . S
C3198 H3190 0.950 . S
C3198 C3196 1.391 . S
C3198 C3199 1.400 . S
C3199 C3198 1.400 . S
C3199 C3200 1.398 . S
C3199 C3205 1.491 . S
C3200 H3191 0.950 . S
C3200 C3199 1.398 . S
C3200 C3201 1.391 . S
C3201 H3189 0.950 . S
C3201 C3197 1.393 . S
C3201 C3200 1.391 . S
C3202 H3192 0.950 . S
C3202 C3203 1.386 . S
C3202 C3204 1.391 . S
C3203 C3202 1.386 . S
C3203 C3207 1.393 . S
C3204 H3193 0.950 . S
C3204 C3202 1.391 . S
C3204 C3205 1.400 . S
C3205 C3199 1.491 . S
C3205 C3204 1.400 . S
C3205 C3206 1.398 . S
C3206 H3194 0.950 . S
C3206 C3205 1.398 . S
C3206 C3207 1.391 . S
C3207 H3195 0.950 . S
C3207 C3203 1.393 . S
C3207 C3206 1.391 . S
H3208 C3216 0.950 . S
H3209 C3221 0.950 . S
H3210 C3218 0.950 . S
H3211 C3220 0.950 . S
H3212 C3222 0.950 . S
H3213 C3224 0.950 . S
H3214 C3226 0.950 . S
H3215 C3227 0.950 . S
C3216 H3208 0.950 . S
C3216 C3217 1.386 . S
C3216 C3218 1.391 . S
C3217 C3216 1.386 . S
C3217 C3221 1.393 . S
C3218 H3210 0.950 . S
C3218 C3216 1.391 . S
C3218 C3219 1.400 . S
C3219 C3218 1.400 . S
C3219 C3220 1.398 . S
C3219 C3225 1.491 . S
C3220 H3211 0.950 . S
C3220 C3219 1.398 . S
C3220 C3221 1.391 . S
C3221 H3209 0.950 . S
C3221 C3217 1.393 . S
C3221 C3220 1.391 . S
C3222 H3212 0.950 . S
C3222 C3223 1.386 . S
C3222 C3224 1.391 . S
C3223 C3222 1.386 . S
C3223 C3227 1.393 . S
C3224 H3213 0.950 . S
C3224 C3222 1.391 . S
C3224 C3225 1.400 . S
C3225 C3219 1.491 . S
C3225 C3224 1.400 . S
C3225 C3226 1.398 . S
C3226 H3214 0.950 . S
C3226 C3225 1.398 . S
C3226 C3227 1.391 . S
C3227 H3215 0.950 . S
C3227 C3223 1.393 . S
C3227 C3226 1.391 . S
H3228 C3236 0.950 . S
H3229 C3241 0.950 . S
H3230 C3238 0.950 . S
H3231 C3240 0.950 . S
H3232 C3242 0.950 . S
H3233 C3244 0.950 . S
H3234 C3246 0.950 . S
H3235 C3247 0.950 . S
C3236 H3228 0.950 . S
C3236 C3237 1.386 . S
C3236 C3238 1.391 . S
C3237 C3236 1.386 . S
C3237 C3241 1.393 . S
C3238 H3230 0.950 . S
C3238 C3236 1.391 . S
C3238 C3239 1.400 . S
C3239 C3238 1.400 . S
C3239 C3240 1.398 . S
C3239 C3245 1.491 . S
C3240 H3231 0.950 . S
C3240 C3239 1.398 . S
C3240 C3241 1.391 . S
C3241 H3229 0.950 . S
C3241 C3237 1.393 . S
C3241 C3240 1.391 . S
C3242 H3232 0.950 . S
C3242 C3243 1.386 . S
C3242 C3244 1.391 . S
C3243 C3242 1.386 . S
C3243 C3247 1.393 . S
C3244 H3233 0.950 . S
C3244 C3242 1.391 . S
C3244 C3245 1.400 . S
C3245 C3239 1.491 . S
C3245 C3244 1.400 . S
C3245 C3246 1.398 . S
C3246 H3234 0.950 . S
C3246 C3245 1.398 . S
C3246 C3247 1.391 . S
C3247 H3235 0.950 . S
C3247 C3243 1.393 . S
C3247 C3246 1.391 . S
H3248 C3256 0.950 . S
H3249 C3261 0.950 . S
H3250 C3258 0.950 . S
H3251 C3260 0.950 . S
H3252 C3262 0.950 . S
H3253 C3264 0.950 . S
H3254 C3266 0.950 . S
H3255 C3267 0.950 . S
C3256 H3248 0.950 . S
C3256 C3257 1.386 . S
C3256 C3258 1.391 . S
C3257 C3256 1.386 . S
C3257 C3261 1.393 . S
C3258 H3250 0.950 . S
C3258 C3256 1.391 . S
C3258 C3259 1.400 . S
C3259 C3258 1.400 . S
C3259 C3260 1.398 . S
C3259 C3265 1.491 . S
C3260 H3251 0.950 . S
C3260 C3259 1.398 . S
C3260 C3261 1.391 . S
C3261 H3249 0.950 . S
C3261 C3257 1.393 . S
C3261 C3260 1.391 . S
C3262 H3252 0.950 . S
C3262 C3263 1.386 . S
C3262 C3264 1.391 . S
C3263 C3262 1.386 . S
C3263 C3267 1.393 . S
C3264 H3253 0.950 . S
C3264 C3262 1.391 . S
C3264 C3265 1.400 . S
C3265 C3259 1.491 . S
C3265 C3264 1.400 . S
C3265 C3266 1.398 . S
C3266 H3254 0.950 . S
C3266 C3265 1.398 . S
C3266 C3267 1.391 . S
C3267 H3255 0.950 . S
C3267 C3263 1.393 . S
C3267 C3266 1.391 . S
H3268 C3276 0.950 . S
H3269 C3281 0.950 . S
H3270 C3278 0.950 . S
H3271 C3280 0.950 . S
H3272 C3282 0.950 . S
H3273 C3284 0.950 . S
H3274 C3286 0.950 . S
H3275 C3287 0.950 . S
C3276 H3268 0.950 . S
C3276 C3277 1.386 . S
C3276 C3278 1.391 . S
C3277 C3276 1.386 . S
C3277 C3281 1.393 . S
C3278 H3270 0.950 . S
C3278 C3276 1.391 . S
C3278 C3279 1.400 . S
C3279 C3278 1.400 . S
C3279 C3280 1.398 . S
C3279 C3285 1.491 . S
C3280 H3271 0.950 . S
C3280 C3279 1.398 . S
C3280 C3281 1.391 . S
C3281 H3269 0.950 . S
C3281 C3277 1.393 . S
C3281 C3280 1.391 . S
C3282 H3272 0.950 . S
C3282 C3283 1.386 . S
C3282 C3284 1.391 . S
C3283 C3282 1.386 . S
C3283 C3287 1.393 . S
C3284 H3273 0.950 . S
C3284 C3282 1.391 . S
C3284 C3285 1.400 . S
C3285 C3279 1.491 . S
C3285 C3284 1.400 . S
C3285 C3286 1.398 . S
C3286 H3274 0.950 . S
C3286 C3285 1.398 . S
C3286 C3287 1.391 . S
C3287 H3275 0.950 . S
C3287 C3283 1.393 . S
C3287 C3286 1.391 . S
H3288 C3296 0.950 . S
H3289 C3301 0.950 . S
H3290 C3298 0.950 . S
H3291 C3300 0.950 . S
H3292 C3302 0.950 . S
H3293 C3304 0.950 . S
H3294 C3306 0.950 . S
H3295 C3307 0.950 . S
C3296 H3288 0.950 . S
C3296 C3297 1.386 . S
C3296 C3298 1.391 . S
C3297 C3296 1.386 . S
C3297 C3301 1.393 . S
C3298 H3290 0.950 . S
C3298 C3296 1.391 . S
C3298 C3299 1.400 . S
C3299 C3298 1.400 . S
C3299 C3300 1.398 . S
C3299 C3305 1.491 . S
C3300 H3291 0.950 . S
C3300 C3299 1.398 . S
C3300 C3301 1.391 . S
C3301 H3289 0.950 . S
C3301 C3297 1.393 . S
C3301 C3300 1.391 . S
C3302 H3292 0.950 . S
C3302 C3303 1.386 . S
C3302 C3304 1.391 . S
C3303 C3302 1.386 . S
C3303 C3307 1.393 . S
C3304 H3293 0.950 . S
C3304 C3302 1.391 . S
C3304 C3305 1.400 . S
C3305 C3299 1.491 . S
C3305 C3304 1.400 . S
C3305 C3306 1.398 . S
C3306 H3294 0.950 . S
C3306 C3305 1.398 . S
C3306 C3307 1.391 . S
C3307 H3295 0.950 . S
C3307 C3303 1.393 . S
C3307 C3306 1.391 . S
H3308 C3316 0.950 . S
H3309 C3321 0.950 . S
H3310 C3318 0.950 . S
H3311 C3320 0.950 . S
H3312 C3322 0.950 . S
H3313 C3324 0.950 . S
H3314 C3326 0.950 . S
H3315 C3327 0.950 . S
C3316 H3308 0.950 . S
C3316 C3317 1.386 . S
C3316 C3318 1.391 . S
C3317 C3316 1.386 . S
C3317 C3321 1.393 . S
C3318 H3310 0.950 . S
C3318 C3316 1.391 . S
C3318 C3319 1.400 . S
C3319 C3318 1.400 . S
C3319 C3320 1.398 . S
C3319 C3325 1.491 . S
C3320 H3311 0.950 . S
C3320 C3319 1.398 . S
C3320 C3321 1.391 . S
C3321 H3309 0.950 . S
C3321 C3317 1.393 . S
C3321 C3320 1.391 . S
C3322 H3312 0.950 . S
C3322 C3323 1.386 . S
C3322 C3324 1.391 . S
C3323 C3322 1.386 . S
C3323 C3327 1.393 . S
C3324 H3313 0.950 . S
C3324 C3322 1.391 . S
C3324 C3325 1.400 . S
C3325 C3319 1.491 . S
C3325 C3324 1.400 . S
C3325 C3326 1.398 . S
C3326 H3314 0.950 . S
C3326 C3325 1.398 . S
C3326 C3327 1.391 . S
C3327 H3315 0.950 . S
C3327 C3323 1.393 . S
C3327 C3326 1.391 . S
H3328 C3336 0.950 . S
H3329 C3341 0.950 . S
H3330 C3338 0.950 . S
H3331 C3340 0.950 . S
H3332 C3342 0.950 . S
H3333 C3344 0.950 . S
H3334 C3346 0.950 . S
H3335 C3347 0.950 . S
C3336 H3328 0.950 . S
C3336 C3337 1.386 . S
C3336 C3338 1.391 . S
C3337 C3336 1.386 . S
C3337 C3341 1.393 . S
C3338 H3330 0.950 . S
C3338 C3336 1.391 . S
C3338 C3339 1.400 . S
C3339 C3338 1.400 . S
C3339 C3340 1.398 . S
C3339 C3345 1.491 1_455 S
C3340 H3331 0.950 . S
C3340 C3339 1.398 . S
C3340 C3341 1.391 . S
C3341 H3329 0.950 . S
C3341 C3337 1.393 . S
C3341 C3340 1.391 . S
C3342 H3332 0.950 . S
C3342 C3343 1.386 . S
C3342 C3344 1.391 . S
C3343 C3342 1.386 . S
C3343 C3347 1.393 . S
C3344 H3333 0.950 . S
C3344 C3342 1.391 . S
C3344 C3345 1.400 . S
C3345 C3339 1.491 1_655 S
C3345 C3344 1.400 . S
C3345 C3346 1.398 . S
C3346 H3334 0.950 . S
C3346 C3345 1.398 . S
C3346 C3347 1.391 . S
C3347 H3335 0.950 . S
C3347 C3343 1.393 . S
C3347 C3346 1.391 . S
H3348 C3356 0.950 . S
H3349 C3361 0.950 . S
H3350 C3358 0.950 . S
H3351 C3360 0.950 . S
H3352 C3362 0.950 . S
H3353 C3364 0.950 . S
H3354 C3366 0.950 . S
H3355 C3367 0.950 . S
C3356 H3348 0.950 . S
C3356 C3357 1.386 . S
C3356 C3358 1.391 . S
C3357 C3356 1.386 . S
C3357 C3361 1.393 1_655 S
C3358 H3350 0.950 . S
C3358 C3356 1.391 . S
C3358 C3359 1.400 . S
C3359 C3358 1.400 . S
C3359 C3360 1.398 1_655 S
C3359 C3365 1.491 1_655 S
C3360 H3351 0.950 . S
C3360 C3359 1.398 1_455 S
C3360 C3361 1.391 . S
C3361 H3349 0.950 . S
C3361 C3357 1.393 1_455 S
C3361 C3360 1.391 . S
C3362 H3352 0.950 . S
C3362 C3363 1.386 . S
C3362 C3364 1.391 . S
C3363 C3362 1.386 . S
C3363 C3367 1.393 1_455 S
C3364 H3353 0.950 . S
C3364 C3362 1.391 . S
C3364 C3365 1.400 . S
C3365 C3359 1.491 1_455 S
C3365 C3364 1.400 . S
C3365 C3366 1.398 1_455 S
C3366 H3354 0.950 . S
C3366 C3365 1.398 1_655 S
C3366 C3367 1.391 . S
C3367 H3355 0.950 . S
C3367 C3363 1.393 1_655 S
C3367 C3366 1.391 . S
H3368 C3376 0.950 . S
H3369 C3381 0.950 . S
H3370 C3378 0.950 . S
H3371 C3380 0.950 . S
H3372 C3382 0.950 . S
H3373 C3384 0.950 . S
H3374 C3386 0.950 . S
H3375 C3387 0.950 . S
C3376 H3368 0.950 . S
C3376 C3377 1.386 . S
C3376 C3378 1.391 . S
C3377 C3376 1.386 . S
C3377 C3381 1.393 . S
C3378 H3370 0.950 . S
C3378 C3376 1.391 . S
C3378 C3379 1.400 . S
C3379 C3378 1.400 . S
C3379 C3380 1.398 . S
C3379 C3385 1.491 . S
C3380 H3371 0.950 . S
C3380 C3379 1.398 . S
C3380 C3381 1.391 . S
C3381 H3369 0.950 . S
C3381 C3377 1.393 . S
C3381 C3380 1.391 . S
C3382 H3372 0.950 . S
C3382 C3383 1.386 . S
C3382 C3384 1.391 . S
C3383 C3382 1.386 . S
C3383 C3387 1.393 . S
C3384 H3373 0.950 . S
C3384 C3382 1.391 . S
C3384 C3385 1.400 . S
C3385 C3379 1.491 . S
C3385 C3384 1.400 . S
C3385 C3386 1.398 . S
C3386 H3374 0.950 . S
C3386 C3385 1.398 . S
C3386 C3387 1.391 . S
C3387 H3375 0.950 . S
C3387 C3383 1.393 . S
C3387 C3386 1.391 . S
H3388 C3396 0.950 . S
H3389 C3401 0.950 . S
H3390 C3398 0.950 . S
H3391 C3400 0.950 . S
H3392 C3402 0.950 . S
H3393 C3404 0.950 . S
H3394 C3406 0.950 . S
H3395 C3407 0.950 . S
C3396 H3388 0.950 . S
C3396 C3397 1.386 . S
C3396 C3398 1.391 . S
C3397 C3396 1.386 . S
C3397 C3401 1.393 . S
C3398 H3390 0.950 . S
C3398 C3396 1.391 . S
C3398 C3399 1.400 . S
C3399 C3398 1.400 . S
C3399 C3400 1.398 . S
C3399 C3405 1.491 . S
C3400 H3391 0.950 . S
C3400 C3399 1.398 . S
C3400 C3401 1.391 . S
C3401 H3389 0.950 . S
C3401 C3397 1.393 . S
C3401 C3400 1.391 . S
C3402 H3392 0.950 . S
C3402 C3403 1.386 . S
C3402 C3404 1.391 . S
C3403 C3402 1.386 . S
C3403 C3407 1.393 . S
C3404 H3393 0.950 . S
C3404 C3402 1.391 . S
C3404 C3405 1.400 . S
C3405 C3399 1.491 . S
C3405 C3404 1.400 . S
C3405 C3406 1.398 . S
C3406 H3394 0.950 . S
C3406 C3405 1.398 . S
C3406 C3407 1.391 . S
C3407 H3395 0.950 . S
C3407 C3403 1.393 . S
C3407 C3406 1.391 . S
H3408 C3416 0.950 . S
H3409 C3421 0.950 . S
H3410 C3418 0.950 . S
H3411 C3420 0.950 . S
H3412 C3422 0.950 . S
H3413 C3424 0.950 . S
H3414 C3426 0.950 . S
H3415 C3427 0.950 . S
C3416 H3408 0.950 . S
C3416 C3417 1.386 . S
C3416 C3418 1.391 . S
C3417 C3416 1.386 . S
C3417 C3421 1.393 . S
C3418 H3410 0.950 . S
C3418 C3416 1.391 . S
C3418 C3419 1.400 . S
C3419 C3418 1.400 . S
C3419 C3420 1.398 . S
C3419 C3425 1.491 1_655 S
C3420 H3411 0.950 . S
C3420 C3419 1.398 . S
C3420 C3421 1.391 . S
C3421 H3409 0.950 . S
C3421 C3417 1.393 . S
C3421 C3420 1.391 . S
C3422 H3412 0.950 . S
C3422 C3423 1.386 . S
C3422 C3424 1.391 . S
C3423 C3422 1.386 . S
C3423 C3427 1.393 . S
C3424 H3413 0.950 . S
C3424 C3422 1.391 . S
C3424 C3425 1.400 . S
C3425 C3419 1.491 1_455 S
C3425 C3424 1.400 . S
C3425 C3426 1.398 . S
C3426 H3414 0.950 . S
C3426 C3425 1.398 . S
C3426 C3427 1.391 . S
C3427 H3415 0.950 . S
C3427 C3423 1.393 . S
C3427 C3426 1.391 . S
H3428 C3436 0.950 . S
H3429 C3441 0.950 . S
H3430 C3438 0.950 . S
H3431 C3440 0.950 . S
H3432 C3442 0.950 . S
H3433 C3444 0.950 . S
H3434 C3446 0.950 . S
H3435 C3447 0.950 . S
C3436 H3428 0.950 . S
C3436 C3437 1.386 . S
C3436 C3438 1.391 . S
C3437 C3436 1.386 . S
C3437 C3441 1.393 . S
C3438 H3430 0.950 . S
C3438 C3436 1.391 . S
C3438 C3439 1.400 . S
C3439 C3438 1.400 . S
C3439 C3440 1.398 . S
C3439 C3445 1.491 . S
C3440 H3431 0.950 . S
C3440 C3439 1.398 . S
C3440 C3441 1.391 . S
C3441 H3429 0.950 . S
C3441 C3437 1.393 . S
C3441 C3440 1.391 . S
C3442 H3432 0.950 . S
C3442 C3443 1.386 . S
C3442 C3444 1.391 . S
C3443 C3442 1.386 . S
C3443 C3447 1.393 . S
C3444 H3433 0.950 . S
C3444 C3442 1.391 . S
C3444 C3445 1.400 . S
C3445 C3439 1.491 . S
C3445 C3444 1.400 . S
C3445 C3446 1.398 . S
C3446 H3434 0.950 . S
C3446 C3445 1.398 . S
C3446 C3447 1.391 . S
C3447 H3435 0.950 . S
C3447 C3443 1.393 . S
C3447 C3446 1.391 . S
H3448 C3456 0.950 . S
H3449 C3461 0.950 . S
H3450 C3458 0.950 . S
H3451 C3460 0.950 . S
H3452 C3462 0.950 . S
H3453 C3464 0.950 . S
H3454 C3466 0.950 . S
H3455 C3467 0.950 . S
C3456 H3448 0.950 . S
C3456 C3457 1.386 . S
C3456 C3458 1.391 . S
C3457 C3456 1.386 . S
C3457 C3461 1.393 . S
C3458 H3450 0.950 . S
C3458 C3456 1.391 . S
C3458 C3459 1.400 . S
C3459 C3458 1.400 . S
C3459 C3460 1.398 . S
C3459 C3465 1.491 . S
C3460 H3451 0.950 . S
C3460 C3459 1.398 . S
C3460 C3461 1.391 . S
C3461 H3449 0.950 . S
C3461 C3457 1.393 . S
C3461 C3460 1.391 . S
C3462 H3452 0.950 . S
C3462 C3463 1.386 . S
C3462 C3464 1.391 . S
C3463 C3462 1.386 . S
C3463 C3467 1.393 . S
C3464 H3453 0.950 . S
C3464 C3462 1.391 . S
C3464 C3465 1.400 . S
C3465 C3459 1.491 . S
C3465 C3464 1.400 . S
C3465 C3466 1.398 . S
C3466 H3454 0.950 . S
C3466 C3465 1.398 . S
C3466 C3467 1.391 . S
C3467 H3455 0.950 . S
C3467 C3463 1.393 . S
C3467 C3466 1.391 . S
H3468 C3476 0.950 . S
H3469 C3481 0.950 . S
H3470 C3478 0.950 . S
H3471 C3480 0.950 . S
H3472 C3482 0.950 . S
H3473 C3484 0.950 . S
H3474 C3486 0.950 . S
H3475 C3487 0.950 . S
C3476 H3468 0.950 . S
C3476 C3477 1.386 1_655 S
C3476 C3478 1.391 . S
C3477 C3476 1.386 1_455 S
C3477 C3481 1.393 . S
C3478 H3470 0.950 . S
C3478 C3476 1.391 . S
C3478 C3479 1.400 1_655 S
C3479 C3478 1.400 1_455 S
C3479 C3480 1.398 . S
C3479 C3485 1.491 1_455 S
C3480 H3471 0.950 . S
C3480 C3479 1.398 . S
C3480 C3481 1.391 . S
C3481 H3469 0.950 . S
C3481 C3477 1.393 . S
C3481 C3480 1.391 . S
C3482 H3472 0.950 . S
C3482 C3483 1.386 1_455 S
C3482 C3484 1.391 . S
C3483 C3482 1.386 1_655 S
C3483 C3487 1.393 . S
C3484 H3473 0.950 . S
C3484 C3482 1.391 . S
C3484 C3485 1.400 1_455 S
C3485 C3479 1.491 1_655 S
C3485 C3484 1.400 1_655 S
C3485 C3486 1.398 . S
C3486 H3474 0.950 . S
C3486 C3485 1.398 . S
C3486 C3487 1.391 . S
C3487 H3475 0.950 . S
C3487 C3483 1.393 . S
C3487 C3486 1.391 . S
H3488 C3496 0.950 . S
H3489 C3501 0.950 . S
H3490 C3498 0.950 . S
H3491 C3500 0.950 . S
H3492 C3502 0.950 . S
H3493 C3504 0.950 . S
H3494 C3506 0.950 . S
H3495 C3507 0.950 . S
C3496 H3488 0.950 . S
C3496 C3497 1.386 . S
C3496 C3498 1.391 . S
C3497 C3496 1.386 . S
C3497 C3501 1.393 . S
C3498 H3490 0.950 . S
C3498 C3496 1.391 . S
C3498 C3499 1.400 . S
C3499 C3498 1.400 . S
C3499 C3500 1.398 . S
C3499 C3505 1.491 1_455 S
C3500 H3491 0.950 . S
C3500 C3499 1.398 . S
C3500 C3501 1.391 . S
C3501 H3489 0.950 . S
C3501 C3497 1.393 . S
C3501 C3500 1.391 . S
C3502 H3492 0.950 . S
C3502 C3503 1.386 . S
C3502 C3504 1.391 . S
C3503 C3502 1.386 . S
C3503 C3507 1.393 . S
C3504 H3493 0.950 . S
C3504 C3502 1.391 . S
C3504 C3505 1.400 . S
C3505 C3499 1.491 1_655 S
C3505 C3504 1.400 . S
C3505 C3506 1.398 . S
C3506 H3494 0.950 . S
C3506 C3505 1.398 . S
C3506 C3507 1.391 . S
C3507 H3495 0.950 . S
C3507 C3503 1.393 . S
C3507 C3506 1.391 . S
H3508 C3516 0.950 . S
H3509 C3521 0.950 . S
H3510 C3518 0.950 . S
H3511 C3520 0.950 . S
H3512 C3522 0.950 . S
H3513 C3524 0.950 . S
H3514 C3526 0.950 . S
H3515 C3527 0.950 . S
C3516 H3508 0.950 . S
C3516 C3517 1.386 . S
C3516 C3518 1.391 . S
C3517 C3516 1.386 . S
C3517 C3521 1.393 1_655 S
C3518 H3510 0.950 . S
C3518 C3516 1.391 . S
C3518 C3519 1.400 . S
C3519 C3518 1.400 . S
C3519 C3520 1.398 1_655 S
C3519 C3525 1.491 1_655 S
C3520 H3511 0.950 . S
C3520 C3519 1.398 1_455 S
C3520 C3521 1.391 . S
C3521 H3509 0.950 . S
C3521 C3517 1.393 1_455 S
C3521 C3520 1.391 . S
C3522 H3512 0.950 . S
C3522 C3523 1.386 . S
C3522 C3524 1.391 . S
C3523 C3522 1.386 . S
C3523 C3527 1.393 1_455 S
C3524 H3513 0.950 . S
C3524 C3522 1.391 . S
C3524 C3525 1.400 . S
C3525 C3519 1.491 1_455 S
C3525 C3524 1.400 . S
C3525 C3526 1.398 1_455 S
C3526 H3514 0.950 . S
C3526 C3525 1.398 1_655 S
C3526 C3527 1.391 . S
C3527 H3515 0.950 . S
C3527 C3523 1.393 1_655 S
C3527 C3526 1.391 . S
H3528 C3536 0.950 . S
H3529 C3541 0.950 . S
H3530 C3538 0.950 . S
H3531 C3540 0.950 . S
H3532 C3542 0.950 . S
H3533 C3544 0.950 . S
H3534 C3546 0.950 . S
H3535 C3547 0.950 . S
C3536 H3528 0.950 . S
C3536 C3537 1.386 . S
C3536 C3538 1.391 . S
C3537 C3536 1.386 . S
C3537 C3541 1.393 . S
C3538 H3530 0.950 . S
C3538 C3536 1.391 . S
C3538 C3539 1.400 . S
C3539 C3538 1.400 . S
C3539 C3540 1.398 . S
C3539 C3545 1.491 . S
C3540 H3531 0.950 . S
C3540 C3539 1.398 . S
C3540 C3541 1.391 . S
C3541 H3529 0.950 . S
C3541 C3537 1.393 . S
C3541 C3540 1.391 . S
C3542 H3532 0.950 . S
C3542 C3543 1.386 . S
C3542 C3544 1.391 . S
C3543 C3542 1.386 . S
C3543 C3547 1.393 . S
C3544 H3533 0.950 . S
C3544 C3542 1.391 . S
C3544 C3545 1.400 . S
C3545 C3539 1.491 . S
C3545 C3544 1.400 . S
C3545 C3546 1.398 . S
C3546 H3534 0.950 . S
C3546 C3545 1.398 . S
C3546 C3547 1.391 . S
C3547 H3535 0.950 . S
C3547 C3543 1.393 . S
C3547 C3546 1.391 . S
H3548 C3556 0.950 . S
H3549 C3561 0.950 . S
H3550 C3558 0.950 . S
H3551 C3560 0.950 . S
H3552 C3562 0.950 . S
H3553 C3564 0.950 . S
H3554 C3566 0.950 . S
H3555 C3567 0.950 . S
C3556 H3548 0.950 . S
C3556 C3557 1.386 . S
C3556 C3558 1.391 . S
C3557 C3556 1.386 . S
C3557 C3561 1.393 . S
C3558 H3550 0.950 . S
C3558 C3556 1.391 . S
C3558 C3559 1.400 . S
C3559 C3558 1.400 . S
C3559 C3560 1.398 . S
C3559 C3565 1.491 . S
C3560 H3551 0.950 . S
C3560 C3559 1.398 . S
C3560 C3561 1.391 . S
C3561 H3549 0.950 . S
C3561 C3557 1.393 . S
C3561 C3560 1.391 . S
C3562 H3552 0.950 . S
C3562 C3563 1.386 . S
C3562 C3564 1.391 . S
C3563 C3562 1.386 . S
C3563 C3567 1.393 . S
C3564 H3553 0.950 . S
C3564 C3562 1.391 . S
C3564 C3565 1.400 . S
C3565 C3559 1.491 . S
C3565 C3564 1.400 . S
C3565 C3566 1.398 . S
C3566 H3554 0.950 . S
C3566 C3565 1.398 . S
C3566 C3567 1.391 . S
C3567 H3555 0.950 . S
C3567 C3563 1.393 . S
C3567 C3566 1.391 . S
H3568 C3576 0.950 . S
H3569 C3581 0.950 . S
H3570 C3578 0.950 . S
H3571 C3580 0.950 . S
H3572 C3582 0.950 . S
H3573 C3584 0.950 . S
H3574 C3586 0.950 . S
H3575 C3587 0.950 . S
C3576 H3568 0.950 . S
C3576 C3577 1.386 . S
C3576 C3578 1.391 . S
C3577 C3576 1.386 . S
C3577 C3581 1.393 . S
C3578 H3570 0.950 . S
C3578 C3576 1.391 . S
C3578 C3579 1.400 . S
C3579 C3578 1.400 . S
C3579 C3580 1.398 . S
C3579 C3585 1.491 1_455 S
C3580 H3571 0.950 . S
C3580 C3579 1.398 . S
C3580 C3581 1.391 . S
C3581 H3569 0.950 . S
C3581 C3577 1.393 . S
C3581 C3580 1.391 . S
C3582 H3572 0.950 . S
C3582 C3583 1.386 . S
C3582 C3584 1.391 . S
C3583 C3582 1.386 . S
C3583 C3587 1.393 . S
C3584 H3573 0.950 . S
C3584 C3582 1.391 . S
C3584 C3585 1.400 . S
C3585 C3579 1.491 1_655 S
C3585 C3584 1.400 . S
C3585 C3586 1.398 . S
C3586 H3574 0.950 . S
C3586 C3585 1.398 . S
C3586 C3587 1.391 . S
C3587 H3575 0.950 . S
C3587 C3583 1.393 . S
C3587 C3586 1.391 . S
H3588 C3596 0.950 . S
H3589 C3601 0.950 . S
H3590 C3598 0.950 . S
H3591 C3600 0.950 . S
H3592 C3602 0.950 . S
H3593 C3604 0.950 . S
H3594 C3606 0.950 . S
H3595 C3607 0.950 . S
C3596 H3588 0.950 . S
C3596 C3597 1.386 . S
C3596 C3598 1.391 . S
C3597 C3596 1.386 . S
C3597 C3601 1.393 . S
C3598 H3590 0.950 . S
C3598 C3596 1.391 . S
C3598 C3599 1.400 . S
C3599 C3598 1.400 . S
C3599 C3600 1.398 . S
C3599 C3605 1.491 . S
C3600 H3591 0.950 . S
C3600 C3599 1.398 . S
C3600 C3601 1.391 . S
C3601 H3589 0.950 . S
C3601 C3597 1.393 . S
C3601 C3600 1.391 . S
C3602 H3592 0.950 . S
C3602 C3603 1.386 . S
C3602 C3604 1.391 . S
C3603 C3602 1.386 . S
C3603 C3607 1.393 . S
C3604 H3593 0.950 . S
C3604 C3602 1.391 . S
C3604 C3605 1.400 . S
C3605 C3599 1.491 . S
C3605 C3604 1.400 . S
C3605 C3606 1.398 . S
C3606 H3594 0.950 . S
C3606 C3605 1.398 . S
C3606 C3607 1.391 . S
C3607 H3595 0.950 . S
C3607 C3603 1.393 . S
C3607 C3606 1.391 . S
H3608 C3616 0.950 . S
H3609 C3621 0.950 . S
H3610 C3618 0.950 . S
H3611 C3620 0.950 . S
H3612 C3622 0.950 . S
H3613 C3624 0.950 . S
H3614 C3626 0.950 . S
H3615 C3627 0.950 . S
C3616 H3608 0.950 . S
C3616 C3617 1.386 . S
C3616 C3618 1.391 . S
C3617 C3616 1.386 . S
C3617 C3621 1.393 . S
C3618 H3610 0.950 . S
C3618 C3616 1.391 . S
C3618 C3619 1.400 . S
C3619 C3618 1.400 . S
C3619 C3620 1.398 . S
C3619 C3625 1.491 . S
C3620 H3611 0.950 . S
C3620 C3619 1.398 . S
C3620 C3621 1.391 . S
C3621 H3609 0.950 . S
C3621 C3617 1.393 . S
C3621 C3620 1.391 . S
C3622 H3612 0.950 . S
C3622 C3623 1.386 . S
C3622 C3624 1.391 . S
C3623 C3622 1.386 . S
C3623 C3627 1.393 . S
C3624 H3613 0.950 . S
C3624 C3622 1.391 . S
C3624 C3625 1.400 . S
C3625 C3619 1.491 . S
C3625 C3624 1.400 . S
C3625 C3626 1.398 . S
C3626 H3614 0.950 . S
C3626 C3625 1.398 . S
C3626 C3627 1.391 . S
C3627 H3615 0.950 . S
C3627 C3623 1.393 . S
C3627 C3626 1.391 . S
H3628 C3636 0.950 . S
H3629 C3641 0.950 . S
H3630 C3638 0.950 . S
H3631 C3640 0.950 . S
H3632 C3642 0.950 . S
H3633 C3644 0.950 . S
H3634 C3646 0.950 . S
H3635 C3647 0.950 . S
C3636 H3628 0.950 . S
C3636 C3637 1.386 1_455 S
C3636 C3638 1.391 . S
C3637 C3636 1.386 1_655 S
C3637 C3641 1.393 . S
C3638 H3630 0.950 . S
C3638 C3636 1.391 . S
C3638 C3639 1.400 1_455 S
C3639 C3638 1.400 1_655 S
C3639 C3640 1.398 . S
C3639 C3645 1.491 1_655 S
C3640 H3631 0.950 . S
C3640 C3639 1.398 . S
C3640 C3641 1.391 . S
C3641 H3629 0.950 . S
C3641 C3637 1.393 . S
C3641 C3640 1.391 . S
C3642 H3632 0.950 . S
C3642 C3643 1.386 1_655 S
C3642 C3644 1.391 . S
C3643 C3642 1.386 1_455 S
C3643 C3647 1.393 . S
C3644 H3633 0.950 . S
C3644 C3642 1.391 . S
C3644 C3645 1.400 1_655 S
C3645 C3639 1.491 1_455 S
C3645 C3644 1.400 1_455 S
C3645 C3646 1.398 . S
C3646 H3634 0.950 . S
C3646 C3645 1.398 . S
C3646 C3647 1.391 . S
C3647 H3635 0.950 . S
C3647 C3643 1.393 . S
C3647 C3646 1.391 . S
H3648 C3656 0.950 . S
H3649 C3661 0.950 . S
H3650 C3658 0.950 . S
H3651 C3660 0.950 . S
H3652 C3662 0.950 . S
H3653 C3664 0.950 . S
H3654 C3666 0.950 . S
H3655 C3667 0.950 . S
C3656 H3648 0.950 . S
C3656 C3657 1.386 . S
C3656 C3658 1.391 . S
C3657 C3656 1.386 . S
C3657 C3661 1.393 . S
C3658 H3650 0.950 . S
C3658 C3656 1.391 . S
C3658 C3659 1.400 . S
C3659 C3658 1.400 . S
C3659 C3660 1.398 . S
C3659 C3665 1.491 . S
C3660 H3651 0.950 . S
C3660 C3659 1.398 . S
C3660 C3661 1.391 . S
C3661 H3649 0.950 . S
C3661 C3657 1.393 . S
C3661 C3660 1.391 . S
C3662 H3652 0.950 . S
C3662 C3663 1.386 . S
C3662 C3664 1.391 . S
C3663 C3662 1.386 . S
C3663 C3667 1.393 . S
C3664 H3653 0.950 . S
C3664 C3662 1.391 . S
C3664 C3665 1.400 . S
C3665 C3659 1.491 . S
C3665 C3664 1.400 . S
C3665 C3666 1.398 . S
C3666 H3654 0.950 . S
C3666 C3665 1.398 . S
C3666 C3667 1.391 . S
C3667 H3655 0.950 . S
C3667 C3663 1.393 . S
C3667 C3666 1.391 . S
H3668 C3676 0.950 . S
H3669 C3681 0.950 . S
H3670 C3678 0.950 . S
H3671 C3680 0.950 . S
H3672 C3682 0.950 . S
H3673 C3684 0.950 . S
H3674 C3686 0.950 . S
H3675 C3687 0.950 . S
C3676 H3668 0.950 . S
C3676 C3677 1.386 1_565 S
C3676 C3678 1.391 . S
C3677 C3676 1.386 1_545 S
C3677 C3681 1.393 . S
C3678 H3670 0.950 . S
C3678 C3676 1.391 . S
C3678 C3679 1.400 1_565 S
C3679 C3678 1.400 1_545 S
C3679 C3680 1.398 . S
C3679 C3685 1.491 1_645 S
C3680 H3671 0.950 . S
C3680 C3679 1.398 . S
C3680 C3681 1.391 . S
C3681 H3669 0.950 . S
C3681 C3677 1.393 . S
C3681 C3680 1.391 . S
C3682 H3672 0.950 . S
C3682 C3683 1.386 1_545 S
C3682 C3684 1.391 . S
C3683 C3682 1.386 1_565 S
C3683 C3687 1.393 . S
C3684 H3673 0.950 . S
C3684 C3682 1.391 . S
C3684 C3685 1.400 1_545 S
C3685 C3679 1.491 1_465 S
C3685 C3684 1.400 1_565 S
C3685 C3686 1.398 . S
C3686 H3674 0.950 . S
C3686 C3685 1.398 . S
C3686 C3687 1.391 . S
C3687 H3675 0.950 . S
C3687 C3683 1.393 . S
C3687 C3686 1.391 . S
H3688 C3696 0.950 . S
H3689 C3701 0.950 . S
H3690 C3698 0.950 . S
H3691 C3700 0.950 . S
H3692 C3702 0.950 . S
H3693 C3704 0.950 . S
H3694 C3706 0.950 . S
H3695 C3707 0.950 . S
C3696 H3688 0.950 . S
C3696 C3697 1.386 . S
C3696 C3698 1.391 . S
C3697 C3696 1.386 . S
C3697 C3701 1.393 . S
C3698 H3690 0.950 . S
C3698 C3696 1.391 . S
C3698 C3699 1.400 . S
C3699 C3698 1.400 . S
C3699 C3700 1.398 . S
C3699 C3705 1.491 . S
C3700 H3691 0.950 . S
C3700 C3699 1.398 . S
C3700 C3701 1.391 . S
C3701 H3689 0.950 . S
C3701 C3697 1.393 . S
C3701 C3700 1.391 . S
C3702 H3692 0.950 . S
C3702 C3703 1.386 . S
C3702 C3704 1.391 . S
C3703 C3702 1.386 . S
C3703 C3707 1.393 . S
C3704 H3693 0.950 . S
C3704 C3702 1.391 . S
C3704 C3705 1.400 . S
C3705 C3699 1.491 . S
C3705 C3704 1.400 . S
C3705 C3706 1.398 . S
C3706 H3694 0.950 . S
C3706 C3705 1.398 . S
C3706 C3707 1.391 . S
C3707 H3695 0.950 . S
C3707 C3703 1.393 . S
C3707 C3706 1.391 . S
H3708 C3716 0.950 . S
H3709 C3721 0.950 . S
H3710 C3718 0.950 . S
H3711 C3720 0.950 . S
H3712 C3722 0.950 . S
H3713 C3724 0.950 . S
H3714 C3726 0.950 . S
H3715 C3727 0.950 . S
C3716 H3708 0.950 . S
C3716 C3717 1.386 . S
C3716 C3718 1.391 . S
C3717 C3716 1.386 . S
C3717 C3721 1.393 1_545 S
C3718 H3710 0.950 . S
C3718 C3716 1.391 . S
C3718 C3719 1.400 . S
C3719 C3718 1.400 . S
C3719 C3720 1.398 1_545 S
C3719 C3725 1.491 1_544 S
C3720 H3711 0.950 . S
C3720 C3719 1.398 1_565 S
C3720 C3721 1.391 . S
C3721 H3709 0.950 . S
C3721 C3717 1.393 1_565 S
C3721 C3720 1.391 . S
C3722 H3712 0.950 . S
C3722 C3723 1.386 . S
C3722 C3724 1.391 . S
C3723 C3722 1.386 . S
C3723 C3727 1.393 1_565 S
C3724 H3713 0.950 . S
C3724 C3722 1.391 . S
C3724 C3725 1.400 . S
C3725 C3719 1.491 1_566 S
C3725 C3724 1.400 . S
C3725 C3726 1.398 1_565 S
C3726 H3714 0.950 . S
C3726 C3725 1.398 1_545 S
C3726 C3727 1.391 . S
C3727 H3715 0.950 . S
C3727 C3723 1.393 1_545 S
C3727 C3726 1.391 . S
H3728 C3736 0.950 . S
H3729 C3741 0.950 . S
H3730 C3738 0.950 . S
H3731 C3740 0.950 . S
H3732 C3742 0.950 . S
H3733 C3744 0.950 . S
H3734 C3746 0.950 . S
H3735 C3747 0.950 . S
C3736 H3728 0.950 . S
C3736 C3737 1.386 . S
C3736 C3738 1.391 . S
C3737 C3736 1.386 . S
C3737 C3741 1.393 . S
C3738 H3730 0.950 . S
C3738 C3736 1.391 . S
C3738 C3739 1.400 . S
C3739 C3738 1.400 . S
C3739 C3740 1.398 . S
C3739 C3745 1.491 . S
C3740 H3731 0.950 . S
C3740 C3739 1.398 . S
C3740 C3741 1.391 . S
C3741 H3729 0.950 . S
C3741 C3737 1.393 . S
C3741 C3740 1.391 . S
C3742 H3732 0.950 . S
C3742 C3743 1.386 . S
C3742 C3744 1.391 . S
C3743 C3742 1.386 . S
C3743 C3747 1.393 . S
C3744 H3733 0.950 . S
C3744 C3742 1.391 . S
C3744 C3745 1.400 . S
C3745 C3739 1.491 . S
C3745 C3744 1.400 . S
C3745 C3746 1.398 . S
C3746 H3734 0.950 . S
C3746 C3745 1.398 . S
C3746 C3747 1.391 . S
C3747 H3735 0.950 . S
C3747 C3743 1.393 . S
C3747 C3746 1.391 . S
H3748 C3756 0.950 . S
H3749 C3761 0.950 . S
H3750 C3758 0.957 . S
H3751 C3760 0.950 . S
H3752 C3762 0.950 . S
H3753 C3764 0.957 . S
H3754 C3766 0.950 . S
H3755 C3767 0.950 . S
C3756 H3748 0.950 . S
C3756 C3757 1.386 . S
C3756 C3758 1.387 1_545 S
C3757 C3756 1.386 . S
C3757 C3761 1.393 . S
C3758 H3750 0.957 . S
C3758 C3756 1.387 1_565 S
C3758 C3759 1.398 1_565 S
C3759 C3758 1.398 1_545 S
C3759 C3760 1.398 . S
C3759 C3765 1.491 1_545 S
C3760 H3751 0.950 . S
C3760 C3759 1.398 . S
C3760 C3761 1.391 . S
C3761 H3749 0.950 . S
C3761 C3757 1.393 . S
C3761 C3760 1.391 . S
C3762 H3752 0.950 . S
C3762 C3763 1.386 . S
C3762 C3764 1.387 1_565 S
C3763 C3762 1.386 . S
C3763 C3767 1.393 . S
C3764 H3753 0.957 . S
C3764 C3762 1.387 1_545 S
C3764 C3765 1.398 1_545 S
C3765 C3759 1.491 1_565 S
C3765 C3764 1.398 1_565 S
C3765 C3766 1.398 . S
C3766 H3754 0.950 . S
C3766 C3765 1.398 . S
C3766 C3767 1.391 . S
C3767 H3755 0.950 . S
C3767 C3763 1.393 . S
C3767 C3766 1.391 . S
H3768 C3776 0.950 . S
H3769 C3781 0.950 . S
H3770 C3778 0.950 . S
H3771 C3780 0.950 . S
H3772 C3782 0.950 . S
H3773 C3784 0.950 . S
H3774 C3786 0.950 . S
H3775 C3787 0.950 . S
C3776 H3768 0.950 . S
C3776 C3777 1.386 . S
C3776 C3778 1.391 . S
C3777 C3776 1.386 . S
C3777 C3781 1.393 . S
C3778 H3770 0.950 . S
C3778 C3776 1.391 . S
C3778 C3779 1.400 . S
C3779 C3778 1.400 . S
C3779 C3780 1.398 . S
C3779 C3785 1.491 . S
C3780 H3771 0.950 . S
C3780 C3779 1.398 . S
C3780 C3781 1.391 . S
C3781 H3769 0.950 . S
C3781 C3777 1.393 . S
C3781 C3780 1.391 . S
C3782 H3772 0.950 . S
C3782 C3783 1.386 . S
C3782 C3784 1.391 . S
C3783 C3782 1.386 . S
C3783 C3787 1.393 . S
C3784 H3773 0.950 . S
C3784 C3782 1.391 . S
C3784 C3785 1.400 . S
C3785 C3779 1.491 . S
C3785 C3784 1.400 . S
C3785 C3786 1.398 . S
C3786 H3774 0.950 . S
C3786 C3785 1.398 . S
C3786 C3787 1.391 . S
C3787 H3775 0.950 . S
C3787 C3783 1.393 . S
C3787 C3786 1.391 . S
H3788 C3796 0.950 . S
H3789 C3801 0.950 . S
H3790 C3798 0.950 1_565 S
H3791 C3800 0.950 . S
H3792 C3802 0.950 . S
H3793 C3804 0.950 1_545 S
H3794 C3806 0.950 . S
H3795 C3807 0.950 . S
C3796 H3788 0.950 . S
C3796 C3797 1.386 . S
C3796 C3798 1.391 . S
C3797 C3796 1.386 . S
C3797 C3801 1.393 1_455 S
C3798 H3790 0.950 1_545 S
C3798 C3796 1.391 . S
C3798 C3799 1.400 . S
C3799 C3798 1.400 . S
C3799 C3800 1.398 1_455 S
C3799 C3805 1.491 1_446 S
C3800 H3791 0.950 . S
C3800 C3799 1.398 1_655 S
C3800 C3801 1.391 . S
C3801 H3789 0.950 . S
C3801 C3797 1.393 1_655 S
C3801 C3800 1.391 . S
C3802 H3792 0.950 . S
C3802 C3803 1.386 . S
C3802 C3804 1.391 . S
C3803 C3802 1.386 . S
C3803 C3807 1.393 1_655 S
C3804 H3793 0.950 1_565 S
C3804 C3802 1.391 . S
C3804 C3805 1.400 . S
C3805 C3799 1.491 1_664 S
C3805 C3804 1.400 . S
C3805 C3806 1.398 1_655 S
C3806 H3794 0.950 . S
C3806 C3805 1.398 1_455 S
C3806 C3807 1.391 . S
C3807 H3795 0.950 . S
C3807 C3803 1.393 1_455 S
C3807 C3806 1.391 . S
H3808 C3816 0.950 . S
H3809 C3821 0.950 . S
H3810 C3818 0.950 . S
H3811 C3820 0.950 . S
H3812 C3822 0.950 . S
H3813 C3824 0.950 . S
H3814 C3826 0.950 . S
H3815 C3827 0.950 . S
C3816 H3808 0.950 . S
C3816 C3817 1.386 . S
C3816 C3818 1.391 . S
C3817 C3816 1.386 . S
C3817 C3821 1.393 . S
C3818 H3810 0.950 . S
C3818 C3816 1.391 . S
C3818 C3819 1.400 . S
C3819 C3818 1.400 . S
C3819 C3820 1.398 . S
C3819 C3825 1.491 . S
C3820 H3811 0.950 . S
C3820 C3819 1.398 . S
C3820 C3821 1.391 . S
C3821 H3809 0.950 . S
C3821 C3817 1.393 . S
C3821 C3820 1.391 . S
C3822 H3812 0.950 . S
C3822 C3823 1.386 . S
C3822 C3824 1.391 . S
C3823 C3822 1.386 . S
C3823 C3827 1.393 . S
C3824 H3813 0.950 . S
C3824 C3822 1.391 . S
C3824 C3825 1.400 . S
C3825 C3819 1.491 . S
C3825 C3824 1.400 . S
C3825 C3826 1.398 . S
C3826 H3814 0.950 . S
C3826 C3825 1.398 . S
C3826 C3827 1.391 . S
C3827 H3815 0.950 . S
C3827 C3823 1.393 . S
C3827 C3826 1.391 . S
H3828 C3836 0.950 . S
H3829 C3841 0.950 . S
H3830 C3838 0.950 . S
H3831 C3840 0.950 . S
H3832 C3842 0.950 . S
H3833 C3844 0.950 . S
H3834 C3846 0.950 . S
H3835 C3847 0.950 . S
C3836 H3828 0.950 . S
C3836 C3837 1.386 . S
C3836 C3838 1.391 . S
C3837 C3836 1.386 . S
C3837 C3841 1.393 . S
C3838 H3830 0.950 . S
C3838 C3836 1.391 . S
C3838 C3839 1.400 . S
C3839 C3838 1.400 . S
C3839 C3840 1.398 . S
C3839 C3845 1.491 . S
C3840 H3831 0.950 . S
C3840 C3839 1.398 . S
C3840 C3841 1.391 . S
C3841 H3829 0.950 . S
C3841 C3837 1.393 . S
C3841 C3840 1.391 . S
C3842 H3832 0.950 . S
C3842 C3843 1.386 . S
C3842 C3844 1.391 . S
C3843 C3842 1.386 . S
C3843 C3847 1.393 . S
C3844 H3833 0.950 . S
C3844 C3842 1.391 . S
C3844 C3845 1.400 . S
C3845 C3839 1.491 . S
C3845 C3844 1.400 . S
C3845 C3846 1.398 . S
C3846 H3834 0.950 . S
C3846 C3845 1.398 . S
C3846 C3847 1.391 . S
C3847 H3835 0.950 . S
C3847 C3843 1.393 . S
C3847 C3846 1.391 . S
H3848 C3856 0.950 . S
H3849 C3861 0.950 . S
H3850 C3858 0.950 . S
H3851 C3860 0.950 . S
H3852 C3862 0.950 . S
H3853 C3864 0.950 . S
H3854 C3866 0.950 . S
H3855 C3867 0.950 . S
C3856 H3848 0.950 . S
C3856 C3857 1.386 . S
C3856 C3858 1.391 . S
C3857 C3856 1.386 . S
C3857 C3861 1.393 . S
C3858 H3850 0.950 . S
C3858 C3856 1.391 . S
C3858 C3859 1.400 . S
C3859 C3858 1.400 . S
C3859 C3860 1.398 . S
C3859 C3865 1.491 . S
C3860 H3851 0.950 . S
C3860 C3859 1.398 . S
C3860 C3861 1.391 . S
C3861 H3849 0.950 . S
C3861 C3857 1.393 . S
C3861 C3860 1.391 . S
C3862 H3852 0.950 . S
C3862 C3863 1.386 . S
C3862 C3864 1.391 . S
C3863 C3862 1.386 . S
C3863 C3867 1.393 . S
C3864 H3853 0.950 . S
C3864 C3862 1.391 . S
C3864 C3865 1.400 . S
C3865 C3859 1.491 . S
C3865 C3864 1.400 . S
C3865 C3866 1.398 . S
C3866 H3854 0.950 . S
C3866 C3865 1.398 . S
C3866 C3867 1.391 . S
C3867 H3855 0.950 . S
C3867 C3863 1.393 . S
C3867 C3866 1.391 . S
H3868 C3876 0.950 . S
H3869 C3881 0.950 . S
H3870 C3878 0.950 . S
H3871 C3880 0.950 . S
H3872 C3882 0.950 . S
H3873 C3884 0.950 . S
H3874 C3886 0.950 . S
H3875 C3887 0.950 . S
C3876 H3868 0.950 . S
C3876 C3877 1.386 . S
C3876 C3878 1.391 . S
C3877 C3876 1.386 . S
C3877 C3881 1.393 . S
C3878 H3870 0.950 . S
C3878 C3876 1.391 . S
C3878 C3879 1.400 . S
C3879 C3878 1.400 . S
C3879 C3880 1.398 . S
C3879 C3885 1.491 . S
C3880 H3871 0.950 . S
C3880 C3879 1.398 . S
C3880 C3881 1.391 . S
C3881 H3869 0.950 . S
C3881 C3877 1.393 . S
C3881 C3880 1.391 . S
C3882 H3872 0.950 . S
C3882 C3883 1.386 . S
C3882 C3884 1.391 . S
C3883 C3882 1.386 . S
C3883 C3887 1.393 . S
C3884 H3873 0.950 . S
C3884 C3882 1.391 . S
C3884 C3885 1.400 . S
C3885 C3879 1.491 . S
C3885 C3884 1.400 . S
C3885 C3886 1.398 . S
C3886 H3874 0.950 . S
C3886 C3885 1.398 . S
C3886 C3887 1.391 . S
C3887 H3875 0.950 . S
C3887 C3883 1.393 . S
C3887 C3886 1.391 . S
H3888 C3896 0.950 . S
H3889 C3901 0.950 . S
H3890 C3898 0.950 . S
H3891 C3900 0.950 . S
H3892 C3902 0.950 . S
H3893 C3904 0.950 . S
H3894 C3906 0.950 . S
H3895 C3907 0.950 . S
C3896 H3888 0.950 . S
C3896 C3897 1.386 . S
C3896 C3898 1.391 . S
C3897 C3896 1.386 . S
C3897 C3901 1.393 . S
C3898 H3890 0.950 . S
C3898 C3896 1.391 . S
C3898 C3899 1.400 . S
C3899 C3898 1.400 . S
C3899 C3900 1.398 . S
C3899 C3905 1.491 1_554 S
C3900 H3891 0.950 . S
C3900 C3899 1.398 . S
C3900 C3901 1.391 . S
C3901 H3889 0.950 . S
C3901 C3897 1.393 . S
C3901 C3900 1.391 . S
C3902 H3892 0.950 . S
C3902 C3903 1.386 . S
C3902 C3904 1.391 . S
C3903 C3902 1.386 . S
C3903 C3907 1.393 . S
C3904 H3893 0.950 . S
C3904 C3902 1.391 . S
C3904 C3905 1.400 . S
C3905 C3899 1.491 1_556 S
C3905 C3904 1.400 . S
C3905 C3906 1.398 . S
C3906 H3894 0.950 . S
C3906 C3905 1.398 . S
C3906 C3907 1.391 . S
C3907 H3895 0.950 . S
C3907 C3903 1.393 . S
C3907 C3906 1.391 . S
H3908 C3916 0.950 . S
H3909 C3921 0.950 . S
H3910 C3918 0.950 . S
H3911 C3920 0.950 . S
H3912 C3922 0.950 . S
H3913 C3924 0.950 . S
H3914 C3926 0.950 . S
H3915 C3927 0.950 . S
C3916 H3908 0.950 . S
C3916 C3917 1.386 . S
C3916 C3918 1.391 . S
C3917 C3916 1.386 . S
C3917 C3921 1.393 1_655 S
C3918 H3910 0.950 . S
C3918 C3916 1.391 . S
C3918 C3919 1.400 . S
C3919 C3918 1.400 . S
C3919 C3920 1.398 1_655 S
C3919 C3925 1.491 1_655 S
C3920 H3911 0.950 . S
C3920 C3919 1.398 1_455 S
C3920 C3921 1.391 . S
C3921 H3909 0.950 . S
C3921 C3917 1.393 1_455 S
C3921 C3920 1.391 . S
C3922 H3912 0.950 . S
C3922 C3923 1.386 . S
C3922 C3924 1.391 . S
C3923 C3922 1.386 . S
C3923 C3927 1.393 1_455 S
C3924 H3913 0.950 . S
C3924 C3922 1.391 . S
C3924 C3925 1.400 . S
C3925 C3919 1.491 1_455 S
C3925 C3924 1.400 . S
C3925 C3926 1.398 1_455 S
C3926 H3914 0.950 . S
C3926 C3925 1.398 1_655 S
C3926 C3927 1.391 . S
C3927 H3915 0.950 . S
C3927 C3923 1.393 1_655 S
C3927 C3926 1.391 . S
H3928 C3936 0.950 . S
H3929 C3941 0.950 . S
H3930 C3938 0.950 . S
H3931 C3940 0.950 . S
H3932 C3942 0.950 . S
H3933 C3944 0.950 . S
H3934 C3946 0.950 . S
H3935 C3947 0.950 . S
C3936 H3928 0.950 . S
C3936 C3937 1.386 . S
C3936 C3938 1.391 . S
C3937 C3936 1.386 . S
C3937 C3941 1.393 1_455 S
C3938 H3930 0.950 . S
C3938 C3936 1.391 . S
C3938 C3939 1.400 . S
C3939 C3938 1.400 . S
C3939 C3940 1.398 1_455 S
C3939 C3945 1.491 1_454 S
C3940 H3931 0.950 . S
C3940 C3939 1.398 1_655 S
C3940 C3941 1.391 . S
C3941 H3929 0.950 . S
C3941 C3937 1.393 1_655 S
C3941 C3940 1.391 . S
C3942 H3932 0.950 . S
C3942 C3943 1.386 . S
C3942 C3944 1.391 . S
C3943 C3942 1.386 . S
C3943 C3947 1.393 1_655 S
C3944 H3933 0.950 . S
C3944 C3942 1.391 . S
C3944 C3945 1.400 . S
C3945 C3939 1.491 1_656 S
C3945 C3944 1.400 . S
C3945 C3946 1.398 1_655 S
C3946 H3934 0.950 . S
C3946 C3945 1.398 1_455 S
C3946 C3947 1.391 . S
C3947 H3935 0.950 . S
C3947 C3943 1.393 1_455 S
C3947 C3946 1.391 . S
H3948 C3956 0.950 . S
H3949 C3961 0.950 . S
H3950 C3958 0.950 . S
H3951 C3960 0.950 . S
H3952 C3962 0.950 . S
H3953 C3964 0.950 . S
H3954 C3966 0.950 . S
H3955 C3967 0.950 . S
C3956 H3948 0.950 . S
C3956 C3957 1.386 . S
C3956 C3958 1.391 . S
C3957 C3956 1.386 . S
C3957 C3961 1.393 . S
C3958 H3950 0.950 . S
C3958 C3956 1.391 . S
C3958 C3959 1.400 . S
C3959 C3958 1.400 . S
C3959 C3960 1.398 . S
C3959 C3965 1.491 . S
C3960 H3951 0.950 . S
C3960 C3959 1.398 . S
C3960 C3961 1.391 . S
C3961 H3949 0.950 . S
C3961 C3957 1.393 . S
C3961 C3960 1.391 . S
C3962 H3952 0.950 . S
C3962 C3963 1.386 . S
C3962 C3964 1.391 . S
C3963 C3962 1.386 . S
C3963 C3967 1.393 . S
C3964 H3953 0.950 . S
C3964 C3962 1.391 . S
C3964 C3965 1.400 . S
C3965 C3959 1.491 . S
C3965 C3964 1.400 . S
C3965 C3966 1.398 . S
C3966 H3954 0.950 . S
C3966 C3965 1.398 . S
C3966 C3967 1.391 . S
C3967 H3955 0.950 . S
C3967 C3963 1.393 . S
C3967 C3966 1.391 . S
H3968 C3976 0.950 . S
H3969 C3981 0.950 . S
H3970 C3978 0.950 . S
H3971 C3980 0.950 . S
H3972 C3982 0.950 . S
H3973 C3984 0.950 . S
H3974 C3986 0.950 . S
H3975 C3987 0.950 . S
C3976 H3968 0.950 . S
C3976 C3977 1.386 . S
C3976 C3978 1.391 . S
C3977 C3976 1.386 . S
C3977 C3981 1.393 . S
C3978 H3970 0.950 . S
C3978 C3976 1.391 . S
C3978 C3979 1.400 . S
C3979 C3978 1.400 . S
C3979 C3980 1.398 . S
C3979 C3985 1.491 . S
C3980 H3971 0.950 . S
C3980 C3979 1.398 . S
C3980 C3981 1.391 . S
C3981 H3969 0.950 . S
C3981 C3977 1.393 . S
C3981 C3980 1.391 . S
C3982 H3972 0.950 . S
C3982 C3983 1.386 . S
C3982 C3984 1.391 . S
C3983 C3982 1.386 . S
C3983 C3987 1.393 . S
C3984 H3973 0.950 . S
C3984 C3982 1.391 . S
C3984 C3985 1.400 . S
C3985 C3979 1.491 . S
C3985 C3984 1.400 . S
C3985 C3986 1.398 . S
C3986 H3974 0.950 . S
C3986 C3985 1.398 . S
C3986 C3987 1.391 . S
C3987 H3975 0.950 . S
C3987 C3983 1.393 . S
C3987 C3986 1.391 . S
H3988 C3996 0.950 . S
H3989 C4001 0.950 . S
H3990 C3998 0.950 . S
H3991 C4000 0.950 . S
H3992 C4002 0.950 . S
H3993 C4004 0.950 . S
H3994 C4006 0.950 . S
H3995 C4007 0.950 . S
C3996 H3988 0.950 . S
C3996 C3997 1.386 . S
C3996 C3998 1.391 . S
C3997 C3996 1.386 . S
C3997 C4001 1.393 . S
C3998 H3990 0.950 . S
C3998 C3996 1.391 . S
C3998 C3999 1.400 . S
C3999 C3998 1.400 . S
C3999 C4000 1.398 . S
C3999 C4005 1.491 . S
C4000 H3991 0.950 . S
C4000 C3999 1.398 . S
C4000 C4001 1.391 . S
C4001 H3989 0.950 . S
C4001 C3997 1.393 . S
C4001 C4000 1.391 . S
C4002 H3992 0.950 . S
C4002 C4003 1.386 . S
C4002 C4004 1.391 . S
C4003 C4002 1.386 . S
C4003 C4007 1.393 . S
C4004 H3993 0.950 . S
C4004 C4002 1.391 . S
C4004 C4005 1.400 . S
C4005 C3999 1.491 . S
C4005 C4004 1.400 . S
C4005 C4006 1.398 . S
C4006 H3994 0.950 . S
C4006 C4005 1.398 . S
C4006 C4007 1.391 . S
C4007 H3995 0.950 . S
C4007 C4003 1.393 . S
C4007 C4006 1.391 . S
H4008 C4016 0.950 . S
H4009 C4021 0.950 . S
H4010 C4018 0.950 . S
H4011 C4020 0.950 . S
H4012 C4022 0.950 . S
H4013 C4024 0.950 . S
H4014 C4026 0.950 . S
H4015 C4027 0.950 . S
C4016 H4008 0.950 . S
C4016 C4017 1.386 . S
C4016 C4018 1.391 . S
C4017 C4016 1.386 . S
C4017 C4021 1.393 . S
C4018 H4010 0.950 . S
C4018 C4016 1.391 . S
C4018 C4019 1.400 . S
C4019 C4018 1.400 . S
C4019 C4020 1.398 . S
C4019 C4025 1.491 . S
C4020 H4011 0.950 . S
C4020 C4019 1.398 . S
C4020 C4021 1.391 . S
C4021 H4009 0.950 . S
C4021 C4017 1.393 . S
C4021 C4020 1.391 . S
C4022 H4012 0.950 . S
C4022 C4023 1.386 . S
C4022 C4024 1.391 . S
C4023 C4022 1.386 . S
C4023 C4027 1.393 . S
C4024 H4013 0.950 . S
C4024 C4022 1.391 . S
C4024 C4025 1.400 . S
C4025 C4019 1.491 . S
C4025 C4024 1.400 . S
C4025 C4026 1.398 . S
C4026 H4014 0.950 . S
C4026 C4025 1.398 . S
C4026 C4027 1.391 . S
C4027 H4015 0.950 . S
C4027 C4023 1.393 . S
C4027 C4026 1.391 . S
H4028 C4036 0.950 . S
H4029 C4041 0.950 . S
H4030 C4038 0.950 . S
H4031 C4040 0.950 . S
H4032 C4042 0.950 . S
H4033 C4044 0.950 . S
H4034 C4046 0.950 . S
H4035 C4047 0.950 . S
C4036 H4028 0.950 . S
C4036 C4037 1.386 . S
C4036 C4038 1.391 . S
C4037 C4036 1.386 . S
C4037 C4041 1.393 . S
C4038 H4030 0.950 . S
C4038 C4036 1.391 . S
C4038 C4039 1.400 . S
C4039 C4038 1.400 . S
C4039 C4040 1.398 . S
C4039 C4045 1.491 . S
C4040 H4031 0.950 . S
C4040 C4039 1.398 . S
C4040 C4041 1.391 . S
C4041 H4029 0.950 . S
C4041 C4037 1.393 . S
C4041 C4040 1.391 . S
C4042 H4032 0.950 . S
C4042 C4043 1.386 . S
C4042 C4044 1.391 . S
C4043 C4042 1.386 . S
C4043 C4047 1.393 . S
C4044 H4033 0.950 . S
C4044 C4042 1.391 . S
C4044 C4045 1.400 . S
C4045 C4039 1.491 . S
C4045 C4044 1.400 . S
C4045 C4046 1.398 . S
C4046 H4034 0.950 . S
C4046 C4045 1.398 . S
C4046 C4047 1.391 . S
C4047 H4035 0.950 . S
C4047 C4043 1.393 . S
C4047 C4046 1.391 . S
H4048 C4056 0.950 . S
H4049 C4061 0.950 . S
H4050 C4058 0.950 . S
H4051 C4060 0.950 . S
H4052 C4062 0.950 . S
H4053 C4064 0.950 . S
H4054 C4066 0.950 . S
H4055 C4067 0.950 . S
C4056 H4048 0.950 . S
C4056 C4057 1.386 . S
C4056 C4058 1.391 . S
C4057 C4056 1.386 . S
C4057 C4061 1.393 . S
C4058 H4050 0.950 . S
C4058 C4056 1.391 . S
C4058 C4059 1.400 . S
C4059 C4058 1.400 . S
C4059 C4060 1.398 . S
C4059 C4065 1.491 . S
C4060 H4051 0.950 . S
C4060 C4059 1.398 . S
C4060 C4061 1.391 . S
C4061 H4049 0.950 . S
C4061 C4057 1.393 . S
C4061 C4060 1.391 . S
C4062 H4052 0.950 . S
C4062 C4063 1.386 . S
C4062 C4064 1.391 . S
C4063 C4062 1.386 . S
C4063 C4067 1.393 . S
C4064 H4053 0.950 . S
C4064 C4062 1.391 . S
C4064 C4065 1.400 . S
C4065 C4059 1.491 . S
C4065 C4064 1.400 . S
C4065 C4066 1.398 . S
C4066 H4054 0.950 . S
C4066 C4065 1.398 . S
C4066 C4067 1.391 . S
C4067 H4055 0.950 . S
C4067 C4063 1.393 . S
C4067 C4066 1.391 . S
H4068 C4076 0.950 . S
H4069 C4081 0.950 . S
H4070 C4078 0.950 . S
H4071 C4080 0.950 . S
H4072 C4082 0.950 . S
H4073 C4084 0.950 . S
H4074 C4086 0.950 . S
H4075 C4087 0.950 . S
C4076 H4068 0.950 . S
C4076 C4077 1.386 . S
C4076 C4078 1.391 . S
C4077 C4076 1.386 . S
C4077 C4081 1.393 . S
C4078 H4070 0.950 . S
C4078 C4076 1.391 . S
C4078 C4079 1.400 . S
C4079 C4078 1.400 . S
C4079 C4080 1.398 . S
C4079 C4085 1.491 . S
C4080 H4071 0.950 . S
C4080 C4079 1.398 . S
C4080 C4081 1.391 . S
C4081 H4069 0.950 . S
C4081 C4077 1.393 . S
C4081 C4080 1.391 . S
C4082 H4072 0.950 . S
C4082 C4083 1.386 . S
C4082 C4084 1.391 . S
C4083 C4082 1.386 . S
C4083 C4087 1.393 . S
C4084 H4073 0.950 . S
C4084 C4082 1.391 . S
C4084 C4085 1.400 . S
C4085 C4079 1.491 . S
C4085 C4084 1.400 . S
C4085 C4086 1.398 . S
C4086 H4074 0.950 . S
C4086 C4085 1.398 . S
C4086 C4087 1.391 . S
C4087 H4075 0.950 . S
C4087 C4083 1.393 . S
C4087 C4086 1.391 . S
H4088 C4096 0.950 . S
H4089 C4101 0.950 . S
H4090 C4098 0.950 . S
H4091 C4100 0.950 . S
H4092 C4102 0.950 . S
H4093 C4104 0.950 . S
H4094 C4106 0.950 . S
H4095 C4107 0.950 . S
C4096 H4088 0.950 . S
C4096 C4097 1.386 . S
C4096 C4098 1.391 . S
C4097 C4096 1.386 . S
C4097 C4101 1.393 . S
C4098 H4090 0.950 . S
C4098 C4096 1.391 . S
C4098 C4099 1.400 . S
C4099 C4098 1.400 . S
C4099 C4100 1.398 . S
C4099 C4105 1.491 . S
C4100 H4091 0.950 . S
C4100 C4099 1.398 . S
C4100 C4101 1.391 . S
C4101 H4089 0.950 . S
C4101 C4097 1.393 . S
C4101 C4100 1.391 . S
C4102 H4092 0.950 . S
C4102 C4103 1.386 . S
C4102 C4104 1.391 . S
C4103 C4102 1.386 . S
C4103 C4107 1.393 . S
C4104 H4093 0.950 . S
C4104 C4102 1.391 . S
C4104 C4105 1.400 . S
C4105 C4099 1.491 . S
C4105 C4104 1.400 . S
C4105 C4106 1.398 . S
C4106 H4094 0.950 . S
C4106 C4105 1.398 . S
C4106 C4107 1.391 . S
C4107 H4095 0.950 . S
C4107 C4103 1.393 . S
C4107 C4106 1.391 . S
H4108 C4116 0.950 . S
H4109 C4121 0.950 . S
H4110 C4118 0.950 . S
H4111 C4120 0.950 . S
H4112 C4122 0.950 . S
H4113 C4124 0.950 . S
H4114 C4126 0.950 . S
H4115 C4127 0.950 . S
C4116 H4108 0.950 . S
C4116 C4117 1.386 . S
C4116 C4118 1.391 . S
C4117 C4116 1.386 . S
C4117 C4121 1.393 . S
C4118 H4110 0.950 . S
C4118 C4116 1.391 . S
C4118 C4119 1.400 . S
C4119 C4118 1.400 . S
C4119 C4120 1.398 . S
C4119 C4125 1.491 . S
C4120 H4111 0.950 . S
C4120 C4119 1.398 . S
C4120 C4121 1.391 . S
C4121 H4109 0.950 . S
C4121 C4117 1.393 . S
C4121 C4120 1.391 . S
C4122 H4112 0.950 . S
C4122 C4123 1.386 . S
C4122 C4124 1.391 . S
C4123 C4122 1.386 . S
C4123 C4127 1.393 . S
C4124 H4113 0.950 . S
C4124 C4122 1.391 . S
C4124 C4125 1.400 . S
C4125 C4119 1.491 . S
C4125 C4124 1.400 . S
C4125 C4126 1.398 . S
C4126 H4114 0.950 . S
C4126 C4125 1.398 . S
C4126 C4127 1.391 . S
C4127 H4115 0.950 . S
C4127 C4123 1.393 . S
C4127 C4126 1.391 . S
H4128 C4136 0.950 . S
H4129 C4141 0.950 . S
H4130 C4138 0.950 . S
H4131 C4140 0.950 . S
H4132 C4142 0.950 . S
H4133 C4144 0.950 . S
H4134 C4146 0.950 . S
H4135 C4147 0.950 . S
C4136 H4128 0.950 . S
C4136 C4137 1.386 . S
C4136 C4138 1.391 . S
C4137 C4136 1.386 . S
C4137 C4141 1.393 . S
C4138 H4130 0.950 . S
C4138 C4136 1.391 . S
C4138 C4139 1.400 . S
C4139 C4138 1.400 . S
C4139 C4140 1.398 . S
C4139 C4145 1.491 . S
C4140 H4131 0.950 . S
C4140 C4139 1.398 . S
C4140 C4141 1.391 . S
C4141 H4129 0.950 . S
C4141 C4137 1.393 . S
C4141 C4140 1.391 . S
C4142 H4132 0.950 . S
C4142 C4143 1.386 . S
C4142 C4144 1.391 . S
C4143 C4142 1.386 . S
C4143 C4147 1.393 . S
C4144 H4133 0.950 . S
C4144 C4142 1.391 . S
C4144 C4145 1.400 . S
C4145 C4139 1.491 . S
C4145 C4144 1.400 . S
C4145 C4146 1.398 . S
C4146 H4134 0.950 . S
C4146 C4145 1.398 . S
C4146 C4147 1.391 . S
C4147 H4135 0.950 . S
C4147 C4143 1.393 . S
C4147 C4146 1.391 . S
H4148 C4156 0.950 . S
H4149 C4161 0.950 . S
H4150 C4158 0.950 . S
H4151 C4160 0.950 . S
H4152 C4162 0.950 . S
H4153 C4164 0.950 . S
H4154 C4166 0.950 . S
H4155 C4167 0.950 . S
C4156 H4148 0.950 . S
C4156 C4157 1.386 . S
C4156 C4158 1.391 . S
C4157 C4156 1.386 . S
C4157 C4161 1.393 . S
C4158 H4150 0.950 . S
C4158 C4156 1.391 . S
C4158 C4159 1.400 . S
C4159 C4158 1.400 . S
C4159 C4160 1.398 . S
C4159 C4165 1.491 . S
C4160 H4151 0.950 . S
C4160 C4159 1.398 . S
C4160 C4161 1.391 . S
C4161 H4149 0.950 . S
C4161 C4157 1.393 . S
C4161 C4160 1.391 . S
C4162 H4152 0.950 . S
C4162 C4163 1.386 . S
C4162 C4164 1.391 . S
C4163 C4162 1.386 . S
C4163 C4167 1.393 . S
C4164 H4153 0.950 . S
C4164 C4162 1.391 . S
C4164 C4165 1.400 . S
C4165 C4159 1.491 . S
C4165 C4164 1.400 . S
C4165 C4166 1.398 . S
C4166 H4154 0.950 . S
C4166 C4165 1.398 . S
C4166 C4167 1.391 . S
C4167 H4155 0.950 . S
C4167 C4163 1.393 . S
C4167 C4166 1.391 . S
H4168 C4176 0.950 . S
H4169 C4181 0.950 . S
H4170 C4178 0.950 . S
H4171 C4180 0.950 . S
H4172 C4182 0.950 . S
H4173 C4184 0.950 . S
H4174 C4186 0.950 . S
H4175 C4187 0.950 . S
C4176 H4168 0.950 . S
C4176 C4177 1.386 . S
C4176 C4178 1.391 . S
C4177 C4176 1.386 . S
C4177 C4181 1.393 . S
C4178 H4170 0.950 . S
C4178 C4176 1.391 . S
C4178 C4179 1.400 . S
C4179 C4178 1.400 . S
C4179 C4180 1.398 . S
C4179 C4185 1.491 . S
C4180 H4171 0.950 . S
C4180 C4179 1.398 . S
C4180 C4181 1.391 . S
C4181 H4169 0.950 . S
C4181 C4177 1.393 . S
C4181 C4180 1.391 . S
C4182 H4172 0.950 . S
C4182 C4183 1.386 . S
C4182 C4184 1.391 . S
C4183 C4182 1.386 . S
C4183 C4187 1.393 . S
C4184 H4173 0.950 . S
C4184 C4182 1.391 . S
C4184 C4185 1.400 . S
C4185 C4179 1.491 . S
C4185 C4184 1.400 . S
C4185 C4186 1.398 . S
C4186 H4174 0.950 . S
C4186 C4185 1.398 . S
C4186 C4187 1.391 . S
C4187 H4175 0.950 . S
C4187 C4183 1.393 . S
C4187 C4186 1.391 . S
H4188 C4196 0.950 . S
H4189 C4201 0.950 . S
H4190 C4198 0.950 . S
H4191 C4200 0.950 . S
H4192 C4202 0.950 . S
H4193 C4204 0.950 . S
H4194 C4206 0.950 . S
H4195 C4207 0.950 . S
C4196 H4188 0.950 . S
C4196 C4197 1.386 . S
C4196 C4198 1.391 . S
C4197 C4196 1.386 . S
C4197 C4201 1.393 . S
C4198 H4190 0.950 . S
C4198 C4196 1.391 . S
C4198 C4199 1.400 . S
C4199 C4198 1.400 . S
C4199 C4200 1.398 . S
C4199 C4205 1.491 . S
C4200 H4191 0.950 . S
C4200 C4199 1.398 . S
C4200 C4201 1.391 . S
C4201 H4189 0.950 . S
C4201 C4197 1.393 . S
C4201 C4200 1.391 . S
C4202 H4192 0.950 . S
C4202 C4203 1.386 . S
C4202 C4204 1.391 . S
C4203 C4202 1.386 . S
C4203 C4207 1.393 . S
C4204 H4193 0.950 . S
C4204 C4202 1.391 . S
C4204 C4205 1.400 . S
C4205 C4199 1.491 . S
C4205 C4204 1.400 . S
C4205 C4206 1.398 . S
C4206 H4194 0.950 . S
C4206 C4205 1.398 . S
C4206 C4207 1.391 . S
C4207 H4195 0.950 . S
C4207 C4203 1.393 . S
C4207 C4206 1.391 . S
H4208 C4216 0.950 . S
H4209 C4221 0.950 . S
H4210 C4218 0.950 . S
H4211 C4220 0.950 . S
H4212 C4222 0.950 . S
H4213 C4224 0.950 . S
H4214 C4226 0.950 . S
H4215 C4227 0.950 . S
C4216 H4208 0.950 . S
C4216 C4217 1.386 . S
C4216 C4218 1.391 . S
C4217 C4216 1.386 . S
C4217 C4221 1.393 . S
C4218 H4210 0.950 . S
C4218 C4216 1.391 . S
C4218 C4219 1.400 . S
C4219 C4218 1.400 . S
C4219 C4220 1.398 . S
C4219 C4225 1.491 . S
C4220 H4211 0.950 . S
C4220 C4219 1.398 . S
C4220 C4221 1.391 . S
C4221 H4209 0.950 . S
C4221 C4217 1.393 . S
C4221 C4220 1.391 . S
C4222 H4212 0.950 . S
C4222 C4223 1.386 . S
C4222 C4224 1.391 . S
C4223 C4222 1.386 . S
C4223 C4227 1.393 . S
C4224 H4213 0.950 . S
C4224 C4222 1.391 . S
C4224 C4225 1.400 . S
C4225 C4219 1.491 . S
C4225 C4224 1.400 . S
C4225 C4226 1.398 . S
C4226 H4214 0.950 . S
C4226 C4225 1.398 . S
C4226 C4227 1.391 . S
C4227 H4215 0.950 . S
C4227 C4223 1.393 . S
C4227 C4226 1.391 . S
H4228 C4236 0.950 . S
H4229 C4241 0.950 . S
H4230 C4238 0.950 . S
H4231 C4240 0.950 . S
H4232 C4242 0.950 . S
H4233 C4244 0.950 . S
H4234 C4246 0.950 . S
H4235 C4247 0.950 . S
C4236 H4228 0.950 . S
C4236 C4237 1.386 . S
C4236 C4238 1.391 . S
C4237 C4236 1.386 . S
C4237 C4241 1.393 . S
C4238 H4230 0.950 . S
C4238 C4236 1.391 . S
C4238 C4239 1.400 . S
C4239 C4238 1.400 . S
C4239 C4240 1.398 . S
C4239 C4245 1.491 . S
C4240 H4231 0.950 . S
C4240 C4239 1.398 . S
C4240 C4241 1.391 . S
C4241 H4229 0.950 . S
C4241 C4237 1.393 . S
C4241 C4240 1.391 . S
C4242 H4232 0.950 . S
C4242 C4243 1.386 . S
C4242 C4244 1.391 . S
C4243 C4242 1.386 . S
C4243 C4247 1.393 . S
C4244 H4233 0.950 . S
C4244 C4242 1.391 . S
C4244 C4245 1.400 . S
C4245 C4239 1.491 . S
C4245 C4244 1.400 . S
C4245 C4246 1.398 . S
C4246 H4234 0.950 . S
C4246 C4245 1.398 . S
C4246 C4247 1.391 . S
C4247 H4235 0.950 . S
C4247 C4243 1.393 . S
C4247 C4246 1.391 . S
H4248 C4256 0.950 . S
H4249 C4261 0.950 . S
H4250 C4258 0.950 . S
H4251 C4260 0.950 . S
H4252 C4262 0.950 . S
H4253 C4264 0.950 . S
H4254 C4266 0.950 . S
H4255 C4267 0.950 . S
C4256 H4248 0.950 . S
C4256 C4257 1.386 . S
C4256 C4258 1.391 . S
C4257 C4256 1.386 . S
C4257 C4261 1.393 . S
C4258 H4250 0.950 . S
C4258 C4256 1.391 . S
C4258 C4259 1.400 . S
C4259 C4258 1.400 . S
C4259 C4260 1.398 . S
C4259 C4265 1.491 . S
C4260 H4251 0.950 . S
C4260 C4259 1.398 . S
C4260 C4261 1.391 . S
C4261 H4249 0.950 . S
C4261 C4257 1.393 . S
C4261 C4260 1.391 . S
C4262 H4252 0.950 . S
C4262 C4263 1.386 . S
C4262 C4264 1.391 . S
C4263 C4262 1.386 . S
C4263 C4267 1.393 . S
C4264 H4253 0.950 . S
C4264 C4262 1.391 . S
C4264 C4265 1.400 . S
C4265 C4259 1.491 . S
C4265 C4264 1.400 . S
C4265 C4266 1.398 . S
C4266 H4254 0.950 . S
C4266 C4265 1.398 . S
C4266 C4267 1.391 . S
C4267 H4255 0.950 . S
C4267 C4263 1.393 . S
C4267 C4266 1.391 . S
H4268 C4276 0.950 . S
H4269 C4281 0.950 . S
H4270 C4278 0.950 . S
H4271 C4280 0.950 . S
H4272 C4282 0.950 . S
H4273 C4284 0.950 . S
H4274 C4286 0.950 . S
H4275 C4287 0.950 . S
C4276 H4268 0.950 . S
C4276 C4277 1.386 . S
C4276 C4278 1.391 . S
C4277 C4276 1.386 . S
C4277 C4281 1.393 . S
C4278 H4270 0.950 . S
C4278 C4276 1.391 . S
C4278 C4279 1.400 . S
C4279 C4278 1.400 . S
C4279 C4280 1.398 . S
C4279 C4285 1.491 . S
C4280 H4271 0.950 . S
C4280 C4279 1.398 . S
C4280 C4281 1.391 . S
C4281 H4269 0.950 . S
C4281 C4277 1.393 . S
C4281 C4280 1.391 . S
C4282 H4272 0.950 . S
C4282 C4283 1.386 . S
C4282 C4284 1.391 . S
C4283 C4282 1.386 . S
C4283 C4287 1.393 . S
C4284 H4273 0.950 . S
C4284 C4282 1.391 . S
C4284 C4285 1.400 . S
C4285 C4279 1.491 . S
C4285 C4284 1.400 . S
C4285 C4286 1.398 . S
C4286 H4274 0.950 . S
C4286 C4285 1.398 . S
C4286 C4287 1.391 . S
C4287 H4275 0.950 . S
C4287 C4283 1.393 . S
C4287 C4286 1.391 . S
H4288 C4296 0.950 . S
H4289 C4301 0.950 . S
H4290 C4298 0.950 . S
H4291 C4300 0.950 1_565 S
H4292 C4302 0.950 . S
H4293 C4304 0.950 . S
H4294 C4306 0.950 1_545 S
H4295 C4307 0.950 . S
C4296 H4288 0.950 . S
C4296 C4297 1.386 . S
C4296 C4298 1.391 . S
C4297 C4296 1.386 . S
C4297 C4301 1.393 . S
C4298 H4290 0.950 . S
C4298 C4296 1.391 . S
C4298 C4299 1.400 . S
C4299 C4298 1.400 . S
C4299 C4300 1.398 . S
C4299 C4305 1.491 1_545 S
C4300 H4291 0.950 1_545 S
C4300 C4299 1.398 . S
C4300 C4301 1.391 . S
C4301 H4289 0.950 . S
C4301 C4297 1.393 . S
C4301 C4300 1.391 . S
C4302 H4292 0.950 . S
C4302 C4303 1.386 . S
C4302 C4304 1.391 . S
C4303 C4302 1.386 . S
C4303 C4307 1.393 . S
C4304 H4293 0.950 . S
C4304 C4302 1.391 . S
C4304 C4305 1.400 . S
C4305 C4299 1.491 1_565 S
C4305 C4304 1.400 . S
C4305 C4306 1.398 . S
C4306 H4294 0.950 1_565 S
C4306 C4305 1.398 . S
C4306 C4307 1.391 . S
C4307 H4295 0.950 . S
C4307 C4303 1.393 . S
C4307 C4306 1.391 . S
H4308 C4316 0.948 1_545 S
H4309 C4321 0.950 . S
H4310 C4318 0.953 1_545 S
H4311 C4320 0.950 . S
H4312 C4322 0.950 . S
H4313 C4324 0.950 . S
H4314 C4326 0.969 . S
H4315 C4327 0.974 . S
C4316 H4308 0.948 1_565 S
C4316 C4317 1.387 . S
C4316 C4318 1.391 . S
C4317 C4316 1.387 . S
C4317 C4321 1.393 . S
C4318 H4310 0.953 1_565 S
C4318 C4316 1.391 . S
C4318 C4319 1.397 . S
C4319 C4318 1.397 . S
C4319 C4320 1.398 . S
C4319 C4325 1.491 . S
C4320 H4311 0.950 . S
C4320 C4319 1.398 . S
C4320 C4321 1.391 . S
C4321 H4309 0.950 . S
C4321 C4317 1.393 . S
C4321 C4320 1.391 . S
C4322 H4312 0.950 . S
C4322 C4323 1.386 . S
C4322 C4324 1.391 . S
C4323 C4322 1.386 . S
C4323 C4327 1.369 1_565 S
C4324 H4313 0.950 . S
C4324 C4322 1.391 . S
C4324 C4325 1.400 . S
C4325 C4319 1.491 . S
C4325 C4324 1.400 . S
C4325 C4326 1.380 1_565 S
C4326 H4314 0.969 . S
C4326 C4325 1.380 1_545 S
C4326 C4327 1.391 . S
C4327 H4315 0.974 . S
C4327 C4323 1.369 1_545 S
C4327 C4326 1.391 . S
H4328 C4336 0.950 . S
H4329 C4341 0.950 . S
H4330 C4338 0.950 . S
H4331 C4340 0.950 1_565 S
H4332 C4342 0.950 . S
H4333 C4344 0.950 . S
H4334 C4346 0.950 1_545 S
H4335 C4347 0.950 . S
C4336 H4328 0.950 . S
C4336 C4337 1.386 . S
C4336 C4338 1.391 . S
C4337 C4336 1.386 . S
C4337 C4341 1.393 . S
C4338 H4330 0.950 . S
C4338 C4336 1.391 . S
C4338 C4339 1.400 . S
C4339 C4338 1.400 . S
C4339 C4340 1.398 . S
C4339 C4345 1.491 1_545 S
C4340 H4331 0.950 1_545 S
C4340 C4339 1.398 . S
C4340 C4341 1.391 . S
C4341 H4329 0.950 . S
C4341 C4337 1.393 . S
C4341 C4340 1.391 . S
C4342 H4332 0.950 . S
C4342 C4343 1.386 . S
C4342 C4344 1.391 . S
C4343 C4342 1.386 . S
C4343 C4347 1.393 . S
C4344 H4333 0.950 . S
C4344 C4342 1.391 . S
C4344 C4345 1.400 . S
C4345 C4339 1.491 1_565 S
C4345 C4344 1.400 . S
C4345 C4346 1.398 . S
C4346 H4334 0.950 1_565 S
C4346 C4345 1.398 . S
C4346 C4347 1.391 . S
C4347 H4335 0.950 . S
C4347 C4343 1.393 . S
C4347 C4346 1.391 . S
H4348 C4356 0.950 1_565 S
H4349 C4361 0.950 . S
H4350 C4358 0.950 1_565 S
H4351 C4360 0.950 1_554 S
H4352 C4362 0.950 . S
H4353 C4364 0.950 . S
H4354 C4366 0.950 1_566 S
H4355 C4367 0.950 1_565 S
C4356 H4348 0.950 1_545 S
C4356 C4357 1.386 . S
C4356 C4358 1.391 . S
C4357 C4356 1.386 . S
C4357 C4361 1.393 . S
C4358 H4350 0.950 1_545 S
C4358 C4356 1.391 . S
C4358 C4359 1.400 . S
C4359 C4358 1.400 . S
C4359 C4360 1.398 . S
C4359 C4365 1.491 1_556 S
C4360 H4351 0.950 1_556 S
C4360 C4359 1.398 . S
C4360 C4361 1.391 . S
C4361 H4349 0.950 . S
C4361 C4357 1.393 . S
C4361 C4360 1.391 . S
C4362 H4352 0.950 . S
C4362 C4363 1.386 . S
C4362 C4364 1.391 . S
C4363 C4362 1.386 . S
C4363 C4367 1.393 . S
C4364 H4353 0.950 . S
C4364 C4362 1.391 . S
C4364 C4365 1.400 . S
C4365 C4359 1.491 1_554 S
C4365 C4364 1.400 . S
C4365 C4366 1.398 . S
C4366 H4354 0.950 1_544 S
C4366 C4365 1.398 . S
C4366 C4367 1.391 . S
C4367 H4355 0.950 1_545 S
C4367 C4363 1.393 . S
C4367 C4366 1.391 . S
H4368 C4376 0.950 . S
H4369 C4381 0.950 . S
H4370 C4378 0.950 . S
H4371 C4380 0.950 . S
H4372 C4382 0.950 . S
H4373 C4384 0.950 . S
H4374 C4386 0.950 . S
H4375 C4387 0.950 . S
C4376 H4368 0.950 . S
C4376 C4377 1.386 . S
C4376 C4378 1.391 . S
C4377 C4376 1.386 . S
C4377 C4381 1.393 . S
C4378 H4370 0.950 . S
C4378 C4376 1.391 . S
C4378 C4379 1.400 . S
C4379 C4378 1.400 . S
C4379 C4380 1.398 . S
C4379 C4385 1.491 1_565 S
C4380 H4371 0.950 . S
C4380 C4379 1.398 . S
C4380 C4381 1.391 . S
C4381 H4369 0.950 . S
C4381 C4377 1.393 . S
C4381 C4380 1.391 . S
C4382 H4372 0.950 . S
C4382 C4383 1.386 . S
C4382 C4384 1.391 . S
C4383 C4382 1.386 . S
C4383 C4387 1.393 . S
C4384 H4373 0.950 . S
C4384 C4382 1.391 . S
C4384 C4385 1.400 . S
C4385 C4379 1.491 1_545 S
C4385 C4384 1.400 . S
C4385 C4386 1.398 . S
C4386 H4374 0.950 . S
C4386 C4385 1.398 . S
C4386 C4387 1.391 . S
C4387 H4375 0.950 . S
C4387 C4383 1.393 . S
C4387 C4386 1.391 . S
H4388 C4396 0.950 . S
H4389 C4401 0.950 1_565 S
H4390 C4398 0.950 . S
H4391 C4400 0.950 1_565 S
H4392 C4402 0.950 1_565 S
H4393 C4404 0.950 1_565 S
H4394 C4406 0.950 . S
H4395 C4407 0.950 . S
C4396 H4388 0.950 . S
C4396 C4397 1.386 . S
C4396 C4398 1.391 . S
C4397 C4396 1.386 . S
C4397 C4401 1.393 . S
C4398 H4390 0.950 . S
C4398 C4396 1.391 . S
C4398 C4399 1.400 . S
C4399 C4398 1.400 . S
C4399 C4400 1.398 . S
C4399 C4405 1.491 . S
C4400 H4391 0.950 1_545 S
C4400 C4399 1.398 . S
C4400 C4401 1.391 . S
C4401 H4389 0.950 1_545 S
C4401 C4397 1.393 . S
C4401 C4400 1.391 . S
C4402 H4392 0.950 1_545 S
C4402 C4403 1.386 . S
C4402 C4404 1.391 . S
C4403 C4402 1.386 . S
C4403 C4407 1.393 . S
C4404 H4393 0.950 1_545 S
C4404 C4402 1.391 . S
C4404 C4405 1.400 . S
C4405 C4399 1.491 . S
C4405 C4404 1.400 . S
C4405 C4406 1.398 . S
C4406 H4394 0.950 . S
C4406 C4405 1.398 . S
C4406 C4407 1.391 . S
C4407 H4395 0.950 . S
C4407 C4403 1.393 . S
C4407 C4406 1.391 . S
H4408 C4416 0.950 . S
H4409 C4421 0.950 . S
H4410 C4418 0.928 1_545 S
H4411 C4420 0.950 . S
H4412 C4422 0.950 . S
H4413 C4424 0.928 1_565 S
H4414 C4426 0.950 . S
H4415 C4427 0.950 . S
C4416 H4408 0.950 . S
C4416 C4417 1.386 . S
C4416 C4418 1.391 . S
C4417 C4416 1.386 . S
C4417 C4421 1.393 . S
C4418 H4410 0.928 1_565 S
C4418 C4416 1.391 . S
C4418 C4419 1.400 . S
C4419 C4418 1.400 . S
C4419 C4420 1.398 . S
C4419 C4425 1.491 1_565 S
C4420 H4411 0.950 . S
C4420 C4419 1.398 . S
C4420 C4421 1.391 . S
C4421 H4409 0.950 . S
C4421 C4417 1.393 . S
C4421 C4420 1.391 . S
C4422 H4412 0.950 . S
C4422 C4423 1.386 . S
C4422 C4424 1.391 . S
C4423 C4422 1.386 . S
C4423 C4427 1.393 . S
C4424 H4413 0.928 1_545 S
C4424 C4422 1.391 . S
C4424 C4425 1.400 . S
C4425 C4419 1.491 1_545 S
C4425 C4424 1.400 . S
C4425 C4426 1.398 . S
C4426 H4414 0.950 . S
C4426 C4425 1.398 . S
C4426 C4427 1.391 . S
C4427 H4415 0.950 . S
C4427 C4423 1.393 . S
C4427 C4426 1.391 . S
H4428 C4436 0.950 . S
H4429 C4441 0.950 . S
H4430 C4438 0.950 . S
H4431 C4440 1.022 . S
H4432 C4442 0.950 . S
H4433 C4444 0.950 . S
H4434 C4446 1.022 . S
H4435 C4447 0.950 . S
C4436 H4428 0.950 . S
C4436 C4437 1.386 . S
C4436 C4438 1.391 . S
C4437 C4436 1.386 . S
C4437 C4441 1.393 . S
C4438 H4430 0.950 . S
C4438 C4436 1.391 . S
C4438 C4439 1.400 . S
C4439 C4438 1.400 . S
C4439 C4440 1.373 1_554 S
C4439 C4445 1.491 1_554 S
C4440 H4431 1.022 . S
C4440 C4439 1.373 1_556 S
C4440 C4441 1.349 1_556 S
C4441 H4429 0.950 . S
C4441 C4437 1.393 . S
C4441 C4440 1.349 1_554 S
C4442 H4432 0.950 . S
C4442 C4443 1.386 . S
C4442 C4444 1.391 . S
C4443 C4442 1.386 . S
C4443 C4447 1.393 . S
C4444 H4433 0.950 . S
C4444 C4442 1.391 . S
C4444 C4445 1.400 . S
C4445 C4439 1.491 1_556 S
C4445 C4444 1.400 . S
C4445 C4446 1.373 1_556 S
C4446 H4434 1.022 . S
C4446 C4445 1.373 1_554 S
C4446 C4447 1.349 1_554 S
C4447 H4435 0.950 . S
C4447 C4443 1.393 . S
C4447 C4446 1.349 1_556 S
H4448 C4456 0.950 . S
H4449 C4461 0.950 . S
H4450 C4458 0.950 . S
H4451 C4460 0.950 . S
H4452 C4462 0.950 . S
H4453 C4464 0.950 . S
H4454 C4466 0.950 . S
H4455 C4467 0.950 . S
C4456 H4448 0.950 . S
C4456 C4457 1.386 . S
C4456 C4458 1.391 . S
C4457 C4456 1.386 . S
C4457 C4461 1.393 . S
C4458 H4450 0.950 . S
C4458 C4456 1.391 . S
C4458 C4459 1.400 . S
C4459 C4458 1.400 . S
C4459 C4460 1.398 . S
C4459 C4465 1.491 . S
C4460 H4451 0.950 . S
C4460 C4459 1.398 . S
C4460 C4461 1.391 . S
C4461 H4449 0.950 . S
C4461 C4457 1.393 . S
C4461 C4460 1.391 . S
C4462 H4452 0.950 . S
C4462 C4463 1.386 . S
C4462 C4464 1.391 . S
C4463 C4462 1.386 . S
C4463 C4467 1.393 . S
C4464 H4453 0.950 . S
C4464 C4462 1.391 . S
C4464 C4465 1.400 . S
C4465 C4459 1.491 . S
C4465 C4464 1.400 . S
C4465 C4466 1.398 . S
C4466 H4454 0.950 . S
C4466 C4465 1.398 . S
C4466 C4467 1.391 . S
C4467 H4455 0.950 . S
C4467 C4463 1.393 . S
C4467 C4466 1.391 . S
H4468 C4476 0.950 . S
H4469 C4481 0.950 . S
H4470 C4478 0.950 . S
H4471 C4480 0.981 . S
H4472 C4482 0.950 . S
H4473 C4484 0.950 . S
H4474 C4486 0.981 . S
H4475 C4487 0.950 . S
C4476 H4468 0.950 . S
C4476 C4477 1.386 . S
C4476 C4478 1.391 . S
C4477 C4476 1.386 . S
C4477 C4481 1.393 . S
C4478 H4470 0.950 . S
C4478 C4476 1.391 . S
C4478 C4479 1.400 . S
C4479 C4478 1.400 . S
C4479 C4480 1.388 1_556 S
C4479 C4485 1.491 1_556 S
C4480 H4471 0.981 . S
C4480 C4479 1.388 1_554 S
C4480 C4481 1.372 1_554 S
C4481 H4469 0.950 . S
C4481 C4477 1.393 . S
C4481 C4480 1.372 1_556 S
C4482 H4472 0.950 . S
C4482 C4483 1.386 . S
C4482 C4484 1.391 . S
C4483 C4482 1.386 . S
C4483 C4487 1.393 . S
C4484 H4473 0.950 . S
C4484 C4482 1.391 . S
C4484 C4485 1.400 . S
C4485 C4479 1.491 1_554 S
C4485 C4484 1.400 . S
C4485 C4486 1.388 1_554 S
C4486 H4474 0.981 . S
C4486 C4485 1.388 1_556 S
C4486 C4487 1.372 1_556 S
C4487 H4475 0.950 . S
C4487 C4483 1.393 . S
C4487 C4486 1.372 1_554 S
H4488 C4496 0.950 . S
H4489 C4501 0.950 . S
H4490 C4498 0.950 . S
H4491 C4500 0.950 . S
H4492 C4502 0.950 . S
H4493 C4504 0.950 . S
H4494 C4506 0.950 . S
H4495 C4507 0.950 . S
C4496 H4488 0.950 . S
C4496 C4497 1.386 . S
C4496 C4498 1.391 . S
C4497 C4496 1.386 . S
C4497 C4501 1.393 . S
C4498 H4490 0.950 . S
C4498 C4496 1.391 . S
C4498 C4499 1.400 . S
C4499 C4498 1.400 . S
C4499 C4500 1.398 . S
C4499 C4505 1.491 . S
C4500 H4491 0.950 . S
C4500 C4499 1.398 . S
C4500 C4501 1.391 . S
C4501 H4489 0.950 . S
C4501 C4497 1.393 . S
C4501 C4500 1.391 . S
C4502 H4492 0.950 . S
C4502 C4503 1.386 . S
C4502 C4504 1.391 . S
C4503 C4502 1.386 . S
C4503 C4507 1.393 . S
C4504 H4493 0.950 . S
C4504 C4502 1.391 . S
C4504 C4505 1.400 . S
C4505 C4499 1.491 . S
C4505 C4504 1.400 . S
C4505 C4506 1.398 . S
C4506 H4494 0.950 . S
C4506 C4505 1.398 . S
C4506 C4507 1.391 . S
C4507 H4495 0.950 . S
C4507 C4503 1.393 . S
C4507 C4506 1.391 . S
H4508 C4516 0.950 . S
H4509 C4521 0.950 . S
H4510 C4518 0.950 . S
H4511 C4520 0.950 . S
H4512 C4522 0.950 . S
H4513 C4524 0.950 . S
H4514 C4526 0.950 . S
H4515 C4527 0.950 . S
C4516 H4508 0.950 . S
C4516 C4517 1.386 . S
C4516 C4518 1.391 . S
C4517 C4516 1.386 . S
C4517 C4521 1.393 . S
C4518 H4510 0.950 . S
C4518 C4516 1.391 . S
C4518 C4519 1.400 . S
C4519 C4518 1.400 . S
C4519 C4520 1.398 . S
C4519 C4525 1.491 . S
C4520 H4511 0.950 . S
C4520 C4519 1.398 . S
C4520 C4521 1.391 . S
C4521 H4509 0.950 . S
C4521 C4517 1.393 . S
C4521 C4520 1.391 . S
C4522 H4512 0.950 . S
C4522 C4523 1.386 . S
C4522 C4524 1.391 . S
C4523 C4522 1.386 . S
C4523 C4527 1.393 . S
C4524 H4513 0.950 . S
C4524 C4522 1.391 . S
C4524 C4525 1.400 . S
C4525 C4519 1.491 . S
C4525 C4524 1.400 . S
C4525 C4526 1.398 . S
C4526 H4514 0.950 . S
C4526 C4525 1.398 . S
C4526 C4527 1.391 . S
C4527 H4515 0.950 . S
C4527 C4523 1.393 . S
C4527 C4526 1.391 . S
H4528 C4536 0.950 . S
H4529 C4541 0.950 . S
H4530 C4538 0.950 . S
H4531 C4540 0.950 . S
H4532 C4542 0.950 . S
H4533 C4544 0.950 . S
H4534 C4546 0.950 . S
H4535 C4547 0.950 . S
C4536 H4528 0.950 . S
C4536 C4537 1.386 . S
C4536 C4538 1.391 . S
C4537 C4536 1.386 . S
C4537 C4541 1.393 . S
C4538 H4530 0.950 . S
C4538 C4536 1.391 . S
C4538 C4539 1.400 . S
C4539 C4538 1.400 . S
C4539 C4540 1.398 . S
C4539 C4545 1.491 . S
C4540 H4531 0.950 . S
C4540 C4539 1.398 . S
C4540 C4541 1.391 . S
C4541 H4529 0.950 . S
C4541 C4537 1.393 . S
C4541 C4540 1.391 . S
C4542 H4532 0.950 . S
C4542 C4543 1.386 . S
C4542 C4544 1.391 . S
C4543 C4542 1.386 . S
C4543 C4547 1.393 . S
C4544 H4533 0.950 . S
C4544 C4542 1.391 . S
C4544 C4545 1.400 . S
C4545 C4539 1.491 . S
C4545 C4544 1.400 . S
C4545 C4546 1.398 . S
C4546 H4534 0.950 . S
C4546 C4545 1.398 . S
C4546 C4547 1.391 . S
C4547 H4535 0.950 . S
C4547 C4543 1.393 . S
C4547 C4546 1.391 . S
H4548 C4556 0.950 . S
H4549 C4561 0.950 . S
H4550 C4558 0.910 1_554 S
H4551 C4560 0.950 . S
H4552 C4562 0.950 . S
H4553 C4564 0.910 1_556 S
H4554 C4566 0.950 . S
H4555 C4567 0.950 . S
C4556 H4548 0.950 . S
C4556 C4557 1.386 . S
C4556 C4558 1.418 . S
C4557 C4556 1.386 . S
C4557 C4561 1.393 . S
C4558 H4550 0.910 1_556 S
C4558 C4556 1.418 . S
C4558 C4559 1.414 . S
C4559 C4558 1.414 . S
C4559 C4560 1.398 . S
C4559 C4565 1.491 1_556 S
C4560 H4551 0.950 . S
C4560 C4559 1.398 . S
C4560 C4561 1.391 . S
C4561 H4549 0.950 . S
C4561 C4557 1.393 . S
C4561 C4560 1.391 . S
C4562 H4552 0.950 . S
C4562 C4563 1.386 . S
C4562 C4564 1.418 . S
C4563 C4562 1.386 . S
C4563 C4567 1.393 . S
C4564 H4553 0.910 1_554 S
C4564 C4562 1.418 . S
C4564 C4565 1.414 . S
C4565 C4559 1.491 1_554 S
C4565 C4564 1.414 . S
C4565 C4566 1.398 . S
C4566 H4554 0.950 . S
C4566 C4565 1.398 . S
C4566 C4567 1.391 . S
C4567 H4555 0.950 . S
C4567 C4563 1.393 . S
C4567 C4566 1.391 . S
H4568 C4576 0.950 . S
H4569 C4581 0.950 . S
H4570 C4578 0.950 . S
H4571 C4580 0.950 . S
H4572 C4582 0.950 . S
H4573 C4584 0.950 . S
H4574 C4586 0.950 . S
H4575 C4587 0.950 . S
C4576 H4568 0.950 . S
C4576 C4577 1.386 . S
C4576 C4578 1.391 . S
C4577 C4576 1.386 . S
C4577 C4581 1.393 . S
C4578 H4570 0.950 . S
C4578 C4576 1.391 . S
C4578 C4579 1.400 . S
C4579 C4578 1.400 . S
C4579 C4580 1.398 . S
C4579 C4585 1.491 . S
C4580 H4571 0.950 . S
C4580 C4579 1.398 . S
C4580 C4581 1.391 . S
C4581 H4569 0.950 . S
C4581 C4577 1.393 . S
C4581 C4580 1.391 . S
C4582 H4572 0.950 . S
C4582 C4583 1.386 . S
C4582 C4584 1.391 . S
C4583 C4582 1.386 . S
C4583 C4587 1.393 . S
C4584 H4573 0.950 . S
C4584 C4582 1.391 . S
C4584 C4585 1.400 . S
C4585 C4579 1.491 . S
C4585 C4584 1.400 . S
C4585 C4586 1.398 . S
C4586 H4574 0.950 . S
C4586 C4585 1.398 . S
C4586 C4587 1.391 . S
C4587 H4575 0.950 . S
C4587 C4583 1.393 . S
C4587 C4586 1.391 . S
H4588 C4596 0.950 . S
H4589 C4601 0.950 . S
H4590 C4598 0.950 . S
H4591 C4600 0.950 . S
H4592 C4602 0.950 . S
H4593 C4604 0.950 . S
H4594 C4606 0.950 . S
H4595 C4607 0.950 . S
C4596 H4588 0.950 . S
C4596 C4597 1.386 . S
C4596 C4598 1.391 . S
C4597 C4596 1.386 . S
C4597 C4601 1.393 . S
C4598 H4590 0.950 . S
C4598 C4596 1.391 . S
C4598 C4599 1.400 . S
C4599 C4598 1.400 . S
C4599 C4600 1.398 . S
C4599 C4605 1.491 . S
C4600 H4591 0.950 . S
C4600 C4599 1.398 . S
C4600 C4601 1.391 . S
C4601 H4589 0.950 . S
C4601 C4597 1.393 . S
C4601 C4600 1.391 . S
C4602 H4592 0.950 . S
C4602 C4603 1.386 . S
C4602 C4604 1.391 . S
C4603 C4602 1.386 . S
C4603 C4607 1.393 . S
C4604 H4593 0.950 . S
C4604 C4602 1.391 . S
C4604 C4605 1.400 . S
C4605 C4599 1.491 . S
C4605 C4604 1.400 . S
C4605 C4606 1.398 . S
C4606 H4594 0.950 . S
C4606 C4605 1.398 . S
C4606 C4607 1.391 . S
C4607 H4595 0.950 . S
C4607 C4603 1.393 . S
C4607 C4606 1.391 . S
C2697 C72 0.354 . S
C2703 C2324 0.162 . S
C2717 C156 0.415 . S
C2723 C728 0.202 . S
C2737 C240 0.357 . S
C2743 C2156 0.194 . S
C2757 C896 0.182 . S
C2763 C324 0.351 . S
C2777 C408 0.365 . S
C2783 C2492 0.142 . S
C2797 C1232 0.173 . S
C2803 C492 0.351 . S
C2817 C2660 0.186 . S
C2823 C576 0.434 . S
C2837 C660 0.421 . S
C2843 C1064 0.114 . S
C2857 C735 0.435 . S
C2863 C1663 0.185 . S
C2877 C819 0.381 . S
C2883 C67 0.125 . S
C2897 C1495 0.175 . S
C2903 C903 0.441 . S
C2917 C235 0.118 . S
C2923 C987 0.391 . S
C2937 C1071 0.383 . S
C2943 C1831 0.207 . S
C2957 C1155 0.443 . S
C2963 C571 0.165 . S
C2977 C1239 0.384 . S
C2983 C1999 0.207 . S
C2997 C403 0.132 . S
C3003 C1323 0.439 . S
C3017 C980 0.201 . S
C3023 C1416 0.365 . S
C3037 C2072 0.201 . S
C3043 C1500 0.416 . S
C3057 C812 0.144 . S
C3063 C1584 0.443 . S
C3077 C1668 0.436 . S
C3083 C2240 0.127 . S
C3097 C1148 0.143 . S
C3103 C1752 0.364 . S
C3117 C2576 0.161 . S
C3123 C1836 0.444 . S
C3137 C1316 0.206 . S
C3143 C1920 0.377 . S
C3157 C2004 0.424 . S
C3163 C2408 0.196 . S
C3177 C2079 0.370 . S
C3183 C319 0.203 . S
C3197 C2163 0.390 . S
C3203 C1411 0.119 . S
C3217 C2247 0.432 . S
C3223 C151 0.123 . S
C3237 C2331 0.398 . S
C3243 C1579 0.115 . S
C3257 C487 0.195 . S
C3263 C2415 0.358 . S
C3277 C1915 0.113 . S
C3283 C2499 0.402 . S
C3297 C2583 0.414 . S
C3303 C655 0.202 . S
C3317 C2667 0.423 . S
C3323 C1747 0.115 . S
C3337 C66 3.077 . S
C3343 C1578 3.075 . S
C3357 C1662 3.081 . S
C3363 C150 3.076 . S
C3377 C234 3.081 . S
C3383 C1410 3.076 . S
C3397 C318 3.075 . S
C3403 C1494 3.080 . S
C3417 C1914 3.079 . S
C3423 C402 3.075 . S
C3437 C486 3.081 . S
C3443 C1998 3.080 . S
C3457 C1746 3.075 . S
C3463 C570 3.077 . S
C3477 C654 3.077 . S
C3483 C1830 3.081 . S
C3497 C2259 3.076 . S
C3503 C747 3.075 . S
C3517 C831 3.075 . S
C3523 C2343 3.080 . S
C3537 C915 3.075 . S
C3543 C2091 3.076 . S
C3557 C999 3.078 . S
C3563 C2175 3.075 . S
C3577 C2595 3.081 . S
C3583 C1083 3.079 . S
C3597 C2679 3.075 . S
C3603 C1167 3.077 . S
C3617 C1251 3.081 . S
C3623 C2427 3.078 . S
C3637 C1335 3.081 . S
C3643 C2511 3.077 . S
C3657 C56 2.981 . S
C3663 C2083 2.981 . S
C3677 C823 2.980 . S
C3683 C140 2.980 . S
C3697 C224 2.970 . S
C3703 C2251 2.970 . S
C3717 C308 2.987 . S
C3723 C991 2.987 . S
C3737 C2419 2.970 . S
C3743 C392 2.970 . S
C3757 C1159 2.987 . S
C3763 C476 2.987 . S
C3777 C560 2.980 . S
C3783 C2587 2.980 . S
C3797 C644 2.969 . S
C3803 C1327 2.969 . S
C3817 C1400 2.971 . S
C3823 C739 2.971 . S
C3837 C1568 2.979 . S
C3843 C907 2.979 . S
C3857 C1736 2.968 . S
C3863 C1075 2.968 . S
C3877 C1243 2.978 . S
C3883 C1904 2.978 . S
C3897 C1484 2.986 . S
C3903 C2167 2.986 . S
C3917 C1652 2.972 . S
C3923 C2335 2.972 . S
C3937 C2503 2.985 . S
C3943 C1820 2.985 . S
C3957 C2671 2.975 . S
C3963 C1988 2.975 . S
C3977 C75 4.206 . S
C3983 C495 4.206 1_545 S
C3997 C579 4.204 . S
C4003 C159 4.207 1_545 S
C4017 C663 4.197 1_565 S
C4023 C243 4.192 . S
C4037 C411 4.194 . S
C4043 C327 4.192 1_565 S
C4057 C738 4.205 . S
C4063 C1158 4.207 1_565 S
C4077 C822 4.207 1_565 S
C4083 C1242 4.204 . S
C4097 C1326 4.193 1_545 S
C4103 C906 4.193 . S
C4117 C990 4.200 1_545 S
C4123 C1074 4.206 . S
C4137 C1419 4.206 . S
C4143 C1839 4.201 . S
C4157 C1503 4.201 . S
C4163 C1923 4.195 . S
C4177 C1587 4.192 . S
C4183 C2007 4.196 . S
C4197 C1755 4.192 . S
C4203 C1671 4.197 . S
C4217 C2082 4.207 . S
C4223 C2502 4.205 . S
C4237 C2166 4.204 . S
C4243 C2586 4.198 . S
C4257 C2670 4.204 . S
C4263 C2250 4.207 . S
C4277 C2334 4.198 . S
C4283 C2418 4.204 . S
C4297 C63 0.975 . S
C4303 C399 0.927 . S
C4317 C147 0.940 . S
C4323 C483 0.963 . S
C4337 C567 0.982 . S
C4343 C231 0.918 . S
C4357 C651 0.922 . S
C4363 C315 0.979 . S
C4377 C744 0.947 . S
C4383 C1080 0.956 . S
C4397 C1164 0.928 . S
C4403 C828 0.974 . S
C4417 C1248 0.970 . S
C4423 C912 0.926 . S
C4437 C1332 0.984 . S
C4443 C996 0.913 . S
C4457 C1407 0.923 . S
C4463 C1743 0.978 . S
C4477 C1827 0.916 . S
C4483 C1491 0.980 . S
C4497 C1575 0.973 . S
C4503 C1911 0.929 . S
C4517 C1995 0.974 . S
C4523 C1659 0.927 . S
C4537 C2424 0.974 . S
C4543 C2088 0.928 . S
C4557 C2172 0.921 . S
C4563 C2508 0.980 . S
C4577 C2256 0.981 . S
C4583 C2592 0.916 . S
C4597 C2340 0.920 . S
C4603 C2676 0.981 . S
