# Generated by pormake.
# Topology wjd, (6)-cn, num edge types: 1
# Building blocks:
#     Node 0, Type 0, BuildingBlock: KUMBUR_clean_sbu_0, # of connection points: 6
#     Node 1, Type 0, BuildingBlock: KUMBUR_clean_sbu_0, # of connection points: 6
#     Node 2, Type 0, BuildingBlock: KUMBUR_clean_sbu_0, # of connection points: 6
#     Node 3, Type 0, BuildingBlock: KUMBUR_clean_sbu_0, # of connection points: 6
#     Node 4, Type 0, BuildingBlock: KUMBUR_clean_sbu_0, # of connection points: 6
#     Node 5, Type 0, BuildingBlock: KUMBUR_clean_sbu_0, # of connection points: 6
#     Node 6, Type 0, BuildingBlock: KUMBUR_clean_sbu_0, # of connection points: 6
#     Node 7, Type 0, BuildingBlock: KUMBUR_clean_sbu_0, # of connection points: 6
#     Node 8, Type 0, BuildingBlock: KUMBUR_clean_sbu_0, # of connection points: 6
#     Node 9, Type 0, BuildingBlock: KUMBUR_clean_sbu_0, # of connection points: 6
#     Node 10, Type 0, BuildingBlock: KUMBUR_clean_sbu_0, # of connection points: 6
#     Node 11, Type 0, BuildingBlock: KUMBUR_clean_sbu_0, # of connection points: 6
#     Edge 12, Type (0, 0), BuildingBlock: AJUNOK_clean_linker_0, # of connection points: 2
#     Edge 13, Type (0, 0), BuildingBlock: AJUNOK_clean_linker_0, # of connection points: 2
#     Edge 14, Type (0, 0), BuildingBlock: AJUNOK_clean_linker_0, # of connection points: 2
#     Edge 15, Type (0, 0), BuildingBlock: AJUNOK_clean_linker_0, # of connection points: 2
#     Edge 16, Type (0, 0), BuildingBlock: AJUNOK_clean_linker_0, # of connection points: 2
#     Edge 17, Type (0, 0), BuildingBlock: AJUNOK_clean_linker_0, # of connection points: 2
#     Edge 18, Type (0, 0), BuildingBlock: AJUNOK_clean_linker_0, # of connection points: 2
#     Edge 19, Type (0, 0), BuildingBlock: AJUNOK_clean_linker_0, # of connection points: 2
#     Edge 20, Type (0, 0), BuildingBlock: AJUNOK_clean_linker_0, # of connection points: 2
#     Edge 21, Type (0, 0), BuildingBlock: AJUNOK_clean_linker_0, # of connection points: 2
#     Edge 22, Type (0, 0), BuildingBlock: AJUNOK_clean_linker_0, # of connection points: 2
#     Edge 23, Type (0, 0), BuildingBlock: AJUNOK_clean_linker_0, # of connection points: 2
#     Edge 24, Type (0, 0), BuildingBlock: AJUNOK_clean_linker_0, # of connection points: 2
#     Edge 25, Type (0, 0), BuildingBlock: AJUNOK_clean_linker_0, # of connection points: 2
#     Edge 26, Type (0, 0), BuildingBlock: AJUNOK_clean_linker_0, # of connection points: 2
#     Edge 27, Type (0, 0), BuildingBlock: AJUNOK_clean_linker_0, # of connection points: 2
#     Edge 28, Type (0, 0), BuildingBlock: AJUNOK_clean_linker_0, # of connection points: 2
#     Edge 29, Type (0, 0), BuildingBlock: AJUNOK_clean_linker_0, # of connection points: 2
#     Edge 30, Type (0, 0), BuildingBlock: AJUNOK_clean_linker_0, # of connection points: 2
#     Edge 31, Type (0, 0), BuildingBlock: AJUNOK_clean_linker_0, # of connection points: 2
#     Edge 32, Type (0, 0), BuildingBlock: AJUNOK_clean_linker_0, # of connection points: 2
#     Edge 33, Type (0, 0), BuildingBlock: AJUNOK_clean_linker_0, # of connection points: 2
#     Edge 34, Type (0, 0), BuildingBlock: AJUNOK_clean_linker_0, # of connection points: 2
#     Edge 35, Type (0, 0), BuildingBlock: AJUNOK_clean_linker_0, # of connection points: 2
#     Edge 36, Type (0, 0), BuildingBlock: AJUNOK_clean_linker_0, # of connection points: 2
#     Edge 37, Type (0, 0), BuildingBlock: AJUNOK_clean_linker_0, # of connection points: 2
#     Edge 38, Type (0, 0), BuildingBlock: AJUNOK_clean_linker_0, # of connection points: 2
#     Edge 39, Type (0, 0), BuildingBlock: AJUNOK_clean_linker_0, # of connection points: 2
#     Edge 40, Type (0, 0), BuildingBlock: AJUNOK_clean_linker_0, # of connection points: 2
#     Edge 41, Type (0, 0), BuildingBlock: AJUNOK_clean_linker_0, # of connection points: 2
#     Edge 42, Type (0, 0), BuildingBlock: AJUNOK_clean_linker_0, # of connection points: 2
#     Edge 43, Type (0, 0), BuildingBlock: AJUNOK_clean_linker_0, # of connection points: 2
#     Edge 44, Type (0, 0), BuildingBlock: AJUNOK_clean_linker_0, # of connection points: 2
#     Edge 45, Type (0, 0), BuildingBlock: AJUNOK_clean_linker_0, # of connection points: 2
#     Edge 46, Type (0, 0), BuildingBlock: AJUNOK_clean_linker_0, # of connection points: 2
#     Edge 47, Type (0, 0), BuildingBlock: AJUNOK_clean_linker_0, # of connection points: 2
# Relax obj value: 0.094
# Max RMSD: 0.225
# Mean RMSD: 0.225
data_MOF--net-wjd--node1-KUMBUR_clean_sbu_0--edge1-AJUNOK_clean_linker_0
_symmetry_space_group_name_H-M    P1
_symmetry_Int_Tables_number       1
_symmetry_cell_setting            triclinic
loop_
_symmetry_equiv_pos_as_xyz
'x, y, z'
_cell_length_a     30.302476
_cell_length_b     30.379839
_cell_length_c     40.399637
_cell_angle_alpha  90.194539
_cell_angle_beta   89.972568
_cell_angle_gamma 120.12901
loop_
_atom_site_label
_atom_site_type_symbol
_atom_site_fract_x
_atom_site_fract_y
_atom_site_fract_z
_atom_type_partial_charge
Tb0 Tb 0.40662 0.20334 0.09881 0.0
C1 C 0.42079 0.06137 0.18326 0.0
C2 C 0.45961 1.02431 0.14939 0.0
C3 C 0.4834 0.04227 0.2071 0.0
C4 C 0.42607 0.04393 0.15291 0.0
C5 C 0.44935 0.06042 0.21079 0.0
C6 C 0.48828 1.02394 0.17649 0.0
C7 C 0.40523 0.09039 0.24485 0.0
N8 N 0.3867 0.07771 0.18624 0.0
C9 C 0.37612 0.08819 0.21748 0.0
C10 C 0.44241 0.07695 0.2415 0.0
Tb11 Tb 0.34608 0.0809 0.13783 0.0
N12 N 0.3992 0.04673 0.12679 0.0
C13 C 0.40578 0.03027 0.09636 0.0
C14 C 0.464 1.00597 0.11869 0.0
C15 C 0.43679 1.00885 0.0921 0.0
H16 H 0.34477 0.09467 0.22199 0.0
H17 H 0.44154 0.99681 0.06774 0.0
H18 H 0.5144 1.00954 0.174 0.0
H19 H 0.39795 0.10109 0.26882 0.0
H20 H 0.39225 0.03755 0.07397 0.0
H21 H 0.38443 0.33771 0.17578 0.0
H22 H 0.4892 0.99071 0.11506 0.0
H23 H 0.38884 0.19772 0.01555 0.0
H24 H 0.42415 0.28879 0.15771 0.0
H25 H 0.32092 0.18924 0.97823 0.0
H26 H 0.50558 0.04156 0.22792 0.0
H27 H 0.31192 0.33277 0.14445 0.0
H28 H 0.25171 0.2967 0.0958 0.0
H29 H 0.46396 0.07742 0.26304 0.0
H30 H 0.22971 0.24949 0.04297 0.0
N31 N 0.3726 0.25224 0.11731 0.0
C32 C 0.39151 0.28426 0.14413 0.0
C33 C 0.3291 0.31074 0.13639 0.0
C34 C 0.31196 0.28059 0.10787 0.0
C35 C 0.3697 0.31325 0.15425 0.0
C36 C 0.33602 0.25298 0.09842 0.0
H37 H 0.25491 0.20779 0.99847 0.0
N38 N 0.35579 0.21062 0.05856 0.0
C39 C 0.32085 0.19945 0.00375 0.0
C40 C 0.32524 0.22862 0.06857 0.0
C41 C 0.35872 0.20329 0.0253 0.0
C42 C 0.28356 0.20964 0.01537 0.0
C43 C 0.28789 0.22827 0.04756 0.0
O44 O 0.45567 0.26259 0.0665 0.0
O45 O 0.42029 0.14511 0.12036 0.0
O46 O 0.35136 0.13778 0.17289 0.0
O47 O 0.42198 0.21071 0.15406 0.0
O48 O 0.45024 0.17527 0.074 0.0
O49 O 0.47722 0.26409 0.11656 0.0
O50 O 0.29458 0.03785 0.17546 0.0
O51 O 0.34054 0.14786 0.12468 0.0
O52 O 0.37078 0.13934 0.05957 0.0
O53 O 0.33489 0.06146 0.08688 0.0
O54 O 0.27932 0.08051 0.1149 0.0
O55 O 0.28441 1.00643 0.12717 0.0
C56 C 0.44961 0.14592 0.09714 0.0
C57 C 0.50314 0.34488 0.09168 0.0
C58 C 0.56589 0.43609 0.10139 0.0
C59 C 0.55407 0.38449 0.09829 0.0
C60 C 0.52627 0.447 0.09845 0.0
C61 C 0.4657 0.35854 0.08669 0.0
C62 C 0.47682 0.40866 0.09088 0.0
C63 C 0.39112 0.18315 0.17867 0.0
C64 C 0.4886 0.28977 0.08921 0.0
C65 C 0.25923 0.25021 0.05848 0.0
C66 C 0.27198 0.27733 0.08841 0.0
C67 C 0.29522 0.12827 0.11439 0.0
C68 C 0.2088 0.99143 0.15621 0.0
C69 C 0.16583 0.94369 0.14697 0.0
C70 C 0.11572 0.937 0.1472 0.0
C71 C 0.10969 0.97838 0.15602 0.0
C72 C 0.20006 0.03091 0.16619 0.0
C73 C 0.15134 1.02466 0.16555 0.0
C74 C 0.34522 0.08792 0.05966 0.0
C75 C 0.26295 1.00185 0.15584 0.0
H76 H 0.58426 0.37544 0.10048 0.0
H77 H 0.53416 0.4859 0.10041 0.0
H78 H 0.42758 0.33051 0.07922 0.0
H79 H 0.44706 0.41803 0.08746 0.0
H80 H 0.17115 0.91213 0.14024 0.0
H81 H 0.07206 0.97436 0.15643 0.0
H82 H 0.23124 0.06734 0.17428 0.0
H83 H 0.14577 0.05586 0.17284 0.0
Tb84 Tb 0.7743 0.72302 0.36192 0.0
C85 C 0.92678 0.72445 0.45799 0.0
C86 C 1.01008 0.76909 0.43278 0.0
C87 C 1.00182 0.7737 0.49229 0.0
C88 C 0.95645 0.74019 0.43001 0.0
C89 C 0.9492 0.73943 0.48963 0.0
C90 C 1.03245 0.78793 0.46388 0.0
C91 C 0.86737 0.68043 0.51333 0.0
N92 N 0.87649 0.6905 0.45422 0.0
C93 C 0.84696 0.66682 0.4814 0.0
C94 C 0.91857 0.71747 0.5175 0.0
Tb95 Tb 0.84592 0.67155 0.40088 0.0
N96 N 0.93317 0.72173 0.40041 0.0
C97 C 0.96196 0.72587 0.37323 0.0
C98 C 0.03952 0.77582 0.40458 0.0
C99 C 1.01526 0.75283 0.3749 0.0
H100 H 0.80719 0.63843 0.47852 0.0
H101 H 1.0375 0.75562 0.35327 0.0
H102 H 0.07345 0.81164 0.46641 0.0
H103 H 0.84363 0.66234 0.53471 0.0
H104 H 0.94437 0.70792 0.35015 0.0
H105 H 0.58068 0.62258 0.41247 0.0
H106 H 0.08082 0.79703 0.40573 0.0
H107 H 0.81023 0.75673 0.28306 0.0
H108 H 0.67174 0.68005 0.41511 0.0
H109 H 0.77702 0.7182 0.22938 0.0
H110 H 1.01961 0.7869 0.51628 0.0
H111 H 0.53982 0.57986 0.35995 0.0
H112 H 0.54806 0.56925 0.29918 0.0
H113 H 0.9344 0.7274 0.54224 0.0
H114 H 0.60141 0.59545 0.24909 0.0
N115 N 0.68615 0.67271 0.36411 0.0
C116 C 0.65625 0.66358 0.39158 0.0
C117 C 0.58059 0.60612 0.36072 0.0
C118 C 0.61032 0.61759 0.33221 0.0
C119 C 0.6035 0.63026 0.39032 0.0
C120 C 0.66327 0.65241 0.33458 0.0
H121 H 0.68724 0.64937 0.22306 0.0
N122 N 0.74226 0.70533 0.30913 0.0
C123 C 0.75199 0.70543 0.25043 0.0
C124 C 0.69242 0.66881 0.30624 0.0
C125 C 0.77097 0.72687 0.28135 0.0
C126 C 0.70172 0.66585 0.2472 0.0
C127 C 0.67057 0.64856 0.27509 0.0
O128 O 0.75287 0.77603 0.34553 0.0
O129 O 0.84844 0.7384 0.37997 0.0
O130 O 0.83263 0.72272 0.43619 0.0
O131 O 0.75772 0.7135 0.41455 0.0
O132 O 0.84676 0.7719 0.33658 0.0
O133 O 0.80008 0.7929 0.38775 0.0
O134 O 0.84106 0.60513 0.42206 0.0
O135 O 0.77202 0.65462 0.38122 0.0
O136 O 0.78196 0.6717 0.32688 0.0
O137 O 0.85495 0.67282 0.34531 0.0
O138 O 0.772 0.61539 0.42157 0.0
O139 O 0.86245 0.62335 0.37181 0.0
C140 C 0.87663 0.76958 0.35802 0.0
C141 C 0.8151 0.86417 0.35499 0.0
C142 C 0.85622 0.95848 0.35954 0.0
C143 C 0.82236 0.90872 0.37225 0.0
C144 C 0.88374 0.9622 0.33059 0.0
C145 C 0.84178 0.8707 0.32532 0.0
C146 C 0.87635 0.91903 0.31369 0.0
C147 C 0.79145 0.72846 0.43872 0.0
C148 C 0.78031 0.81091 0.3673 0.0
C149 C 0.61871 0.61161 0.27283 0.0
C150 C 0.58845 0.59656 0.30134 0.0
C151 C 0.74229 0.62025 0.40127 0.0
C152 C 0.89768 0.5785 0.3994 0.0
C153 C 0.89072 0.52914 0.39184 0.0
C154 C 0.93246 0.51964 0.3945 0.0
C155 C 0.98073 0.56103 0.40281 0.0
C156 C 0.94586 0.61643 0.41023 0.0
C157 C 0.98705 0.60831 0.41107 0.0
C158 C 0.82156 0.66565 0.32137 0.0
C159 C 0.85634 0.59205 0.39559 0.0
H160 H 0.80097 0.90463 0.39463 0.0
H161 H 0.91055 0.9991 0.32039 0.0
H162 H 0.83586 0.83837 0.31071 0.0
H163 H 0.89709 0.92308 0.29101 0.0
H164 H 0.85325 0.49847 0.38492 0.0
H165 H 1.01388 0.55638 0.40408 0.0
H166 H 0.95203 0.65277 0.41814 0.0
H167 H 1.0242 0.63885 0.41869 0.0
Tb168 Tb 0.86927 0.21276 0.10255 0.0
C169 C 1.03723 0.32427 0.20257 0.0
C170 C 0.07405 0.41348 0.18871 0.0
C171 C 0.08107 0.38918 0.24483 0.0
C172 C 0.04758 0.36167 0.17929 0.0
C173 C 0.05564 0.33777 0.23523 0.0
C174 C 0.08957 0.42689 0.22174 0.0
C175 C 1.02562 0.24894 0.24606 0.0
N176 N 1.0121 0.27477 0.19262 0.0
C177 C 1.00812 0.23738 0.21342 0.0
C178 C 0.04949 0.29937 0.257 0.0
Tb179 Tb 0.99326 0.26144 0.1374 0.0
N180 N 1.03441 0.34755 0.14719 0.0
C181 C 0.04841 0.38393 0.1232 0.0
C182 C 0.08578 0.45045 0.16446 0.0
C183 C 0.07323 0.43559 0.13155 0.0
H184 H 0.99182 0.19876 0.2045 0.0
H185 H 0.08286 0.46394 0.11249 0.0
H186 H 0.1097 0.46645 0.22942 0.0
H187 H 1.02169 0.21915 0.26252 0.0
H188 H 0.03934 0.37406 0.09751 0.0
H189 H 0.73201 0.02589 0.14912 0.0
H190 H 0.10567 0.49058 0.17075 0.0
H191 H 0.87111 0.24142 0.02035 0.0
H192 H 0.78242 0.11879 0.15057 0.0
H193 H 0.86764 0.20005 0.96705 0.0
H194 H 0.09478 0.40021 0.26997 0.0
H195 H 0.73872 0.9784 0.10136 0.0
H196 H 0.78014 0.98022 0.04721 0.0
H197 H 0.06387 0.30846 0.28211 0.0
H198 H 0.81864 0.02904 0.99657 0.0
N199 N 0.82066 0.12539 0.10463 0.0
C200 C 0.78746 0.09929 0.12985 0.0
C201 C 0.76214 1.01945 0.10228 0.0
C202 C 0.79422 0.04622 0.07599 0.0
C203 C 0.75797 0.04617 0.12906 0.0
C204 C 0.82126 0.09983 0.0772 0.0
H205 H 0.84945 0.11108 0.96578 0.0
N206 N 0.85938 0.17786 0.04968 0.0
C207 C 0.86138 0.17929 0.98992 0.0
C208 C 0.84318 0.12739 0.04889 0.0
C209 C 0.86285 0.20238 0.02025 0.0
C210 C 0.85158 0.12927 0.98932 0.0
C211 C 0.83978 0.10192 0.01888 0.0
O212 O 0.82163 0.23071 0.07384 0.0
O213 O 0.94173 0.28309 0.11294 0.0
O214 O 0.94128 0.24978 0.17878 0.0
O215 O 0.86196 0.19323 0.15619 0.0
O216 O 0.87561 0.28028 0.12527 0.0
O217 O 0.80037 0.20195 0.12275 0.0
O218 O 1.02548 0.21525 0.14461 0.0
O219 O 0.91893 0.19271 0.12725 0.0
O220 O 0.93217 0.23933 0.06304 0.0
O221 O 1.01105 0.28907 0.08791 0.0
O222 O 0.98172 0.19207 0.11208 0.0
O223 O 0.07305 0.29324 0.12961 0.0
C224 C 0.92379 0.30925 0.1259 0.0
C225 C 0.73232 0.17508 0.08516 0.0
C226 C 0.63854 0.13761 0.08728 0.0
C227 C 0.68858 0.17747 0.09556 0.0
C228 C 0.63358 0.09489 0.07017 0.0
C229 C 0.72499 0.13311 0.06633 0.0
C230 C 0.67627 0.09299 0.05955 0.0
C231 C 0.89155 0.21893 0.18175 0.0
C232 C 0.78523 0.21347 0.09584 0.0
C233 C 0.82041 0.04918 0.01907 0.0
C234 C 0.79765 1.02126 0.04775 0.0
C235 C 0.93333 0.16475 0.11355 0.0
C236 C 0.11254 0.24914 0.15469 0.0
C237 C 0.13529 0.22177 0.14179 0.0
C238 C 0.16644 0.21025 0.16196 0.0
C239 C 0.17264 0.22588 0.19548 0.0
C240 C 0.1239 0.26804 0.18703 0.0
C241 C 0.15292 0.2556 0.20748 0.0
C242 C 0.98341 0.26766 0.0616 0.0
C243 C 0.07112 0.25005 0.13598 0.0
H244 H 0.69353 0.21038 0.10923 0.0
H245 H 0.5962 0.06318 0.06407 0.0
H246 H 0.75699 0.1309 0.057 0.0
H247 H 0.67156 0.06038 0.04563 0.0
H248 H 0.12845 0.20978 0.11616 0.0
H249 H 0.19353 0.21588 0.21269 0.0
H250 H 0.10907 0.29106 0.19686 0.0
H251 H 0.15968 0.26853 0.23295 0.0
Tb252 Tb 0.31487 0.07673 0.35955 0.0
C253 C 0.37356 0.23942 0.46679 0.0
C254 C 0.34133 0.29439 0.44976 0.0
C255 C 0.36224 0.29217 0.50746 0.0
C256 C 0.35614 0.25822 0.44219 0.0
C257 C 0.37663 0.25604 0.49982 0.0
C258 C 0.34402 0.31086 0.48258 0.0
C259 C 0.41416 0.2052 0.51471 0.0
N260 N 0.39118 0.20791 0.45795 0.0
C261 C 0.41258 0.19168 0.48144 0.0
C262 C 0.39627 0.23768 0.52396 0.0
Tb263 Tb 0.39347 0.19426 0.40196 0.0
N264 N 0.35816 0.24465 0.41047 0.0
C265 C 0.34953 0.26898 0.3851 0.0
C266 C 0.32761 0.31553 0.42385 0.0
C267 C 0.33243 0.30326 0.39128 0.0
H268 H 0.42799 0.16767 0.47482 0.0
H269 H 0.32447 0.32129 0.37092 0.0
H270 H 0.33382 0.33934 0.48878 0.0
H271 H 0.43025 0.19142 0.53309 0.0
H272 H 0.35697 0.26262 0.35996 0.0
H273 H 0.41867 0.97642 0.37525 0.0
H274 H 0.31578 0.3432 0.42865 0.0
H275 H 0.23151 0.06308 0.30005 0.0
H276 H 0.37791 1.02459 0.39304 0.0
H277 H 0.20378 1.02192 0.24633 0.0
H278 H 0.36618 0.3068 0.53242 0.0
H279 H 0.40932 0.94615 0.31741 0.0
H280 H 0.36653 0.93404 0.26226 0.0
H281 H 0.39883 0.24924 0.54962 0.0
H282 H 0.30498 0.94369 0.2278 0.0
N283 N 0.35187 0.02921 0.345 0.0
C284 C 0.37602 1.01481 0.36733 0.0
C285 C 0.39301 0.96926 0.32485 0.0
C286 C 0.36352 0.97924 0.30293 0.0
C287 C 0.39836 0.98626 0.35746 0.0
C288 C 0.3434 1.00981 0.3139 0.0
H289 H 0.24122 0.97281 0.22309 0.0
N290 N 0.28994 0.04376 0.3068 0.0
C291 C 0.23439 1.02069 0.2593 0.0
C292 C 0.3101 1.01623 0.29434 0.0
C293 C 0.25138 0.04509 0.28989 0.0
C294 C 0.2558 0.99334 0.24611 0.0
C295 C 0.29422 0.99088 0.26354 0.0
O296 O 0.23463 0.04449 0.36317 0.0
O297 O 0.31731 0.14241 0.3846 0.0
O298 O 0.34055 0.13364 0.43787 0.0
O299 O 0.33004 0.06266 0.40965 0.0
O300 O 0.28005 0.11961 0.34101 0.0
O301 O 0.27141 1.00657 0.38386 0.0
O302 O 0.47249 0.23532 0.41249 0.0
O303 O 0.39363 0.13281 0.37474 0.0
O304 O 0.36504 0.1247 0.32062 0.0
O305 O 0.39346 0.20417 0.34611 0.0
O306 O 0.43587 0.15789 0.417 0.0
O307 O 0.43956 0.26882 0.38246 0.0
C308 C 0.2916 0.15228 0.36418 0.0
C309 C 0.18839 0.9544 0.36142 0.0
C310 C 0.09856 0.89056 0.34978 0.0
C311 C 0.13545 0.93682 0.36493 0.0
C312 C 0.1161 0.86296 0.33122 0.0
C313 C 0.20382 0.92532 0.34288 0.0
C314 C 0.16795 0.88015 0.32788 0.0
C315 C 0.32729 0.08433 0.43707 0.0
C316 C 0.22775 1.00292 0.37677 0.0
C317 C 0.31593 0.9625 0.25169 0.0
C318 C 0.35103 0.95714 0.27125 0.0
C319 C 0.42547 0.12733 0.39249 0.0
C320 C 0.5102 0.3259 0.41669 0.0
C321 C 0.54198 0.37399 0.40104 0.0
C322 C 0.57112 0.41923 0.42036 0.0
C323 C 0.56783 0.41439 0.45512 0.0
C324 C 0.50828 0.32422 0.45139 0.0
C325 C 0.5366 0.36784 0.47027 0.0
C326 C 0.38783 0.17506 0.31943 0.0
C327 C 0.48064 0.27685 0.39772 0.0
H328 H 0.12337 0.95944 0.37885 0.0
H329 H 0.08958 0.82736 0.31932 0.0
H330 H 0.24379 0.93737 0.33998 0.0
H331 H 0.18042 0.85816 0.31362 0.0
H332 H 0.54375 0.37602 0.37429 0.0
H333 H 0.59032 0.44682 0.47107 0.0
H334 H 0.48561 0.2888 0.46425 0.0
H335 H 0.53493 0.36541 0.49701 0.0
Tb336 Tb 0.86888 0.66912 0.09868 0.0
C337 C 0.72618 0.736 0.17767 0.0
C338 C 0.6412 0.67389 0.15959 0.0
C339 C 0.65207 0.72807 0.20676 0.0
C340 C 0.69477 0.6978 0.15623 0.0
C341 C 0.70515 0.7532 0.20231 0.0
C342 C 0.62014 0.68796 0.18568 0.0
C343 C 0.7903 0.81998 0.21555 0.0
N344 N 0.77724 0.7591 0.17268 0.0
C345 C 0.80927 0.80169 0.19079 0.0
C346 C 0.73802 0.79548 0.2215 0.0
Tb347 Tb 0.80443 0.73353 0.12714 0.0
N348 N 0.71656 0.68781 0.13012 0.0
C349 C 0.68615 0.6583 0.10465 0.0
C350 C 0.61035 0.63894 0.13546 0.0
C351 C 0.63298 0.63195 0.10748 0.0
H352 H 0.84958 0.82333 0.1859 0.0
H353 H 0.60952 0.60713 0.08768 0.0
H354 H 0.57916 0.6697 0.1888 0.0
H355 H 0.81607 0.85342 0.22977 0.0
H356 H 0.70204 0.65433 0.0818 0.0
H357 H 0.04788 0.7514 0.16434 0.0
H358 H 0.56912 0.61947 0.13724 0.0
H359 H 0.84286 0.63499 0.02004 0.0
H360 H 0.9546 0.70672 0.15858 0.0
H361 H 0.88978 0.64859 0.96771 0.0
H362 H 0.63535 0.73997 0.22601 0.0
H363 H 0.10247 0.78042 0.11453 0.0
H364 H 0.10825 0.77744 0.05294 0.0
H365 H 0.72341 0.80982 0.24063 0.0
H366 H 0.06462 0.74641 -0.00052 0.0
N367 N 0.95558 0.71475 0.10621 0.0
C368 C 0.9777 0.72047 0.13664 0.0
C369 C 0.06141 0.76225 0.11192 0.0
C370 C 0.03853 0.75227 0.08066 0.0
C371 C 1.03076 0.74561 0.14004 0.0
C372 C 0.9849 0.729 0.07858 0.0
H373 H 0.98375 0.7013 0.96712 0.0
N374 N 0.909 0.68494 0.04819 0.0
C375 C 0.91017 0.66741 0.99013 0.0
C376 C 0.96063 0.7138 0.04829 0.0
C377 C 0.88375 0.65999 0.01983 0.0
C378 C 0.96316 0.6976 0.98983 0.0
C379 C 0.98915 0.71986 0.0193 0.0
O380 O 0.8524 0.59628 0.08119 0.0
O381 O 0.79561 0.65765 0.11589 0.0
O382 O 0.80063 0.69008 0.17097 0.0
O383 O 0.86175 0.66754 0.15517 0.0
O384 O 0.79725 0.61773 0.07518 0.0
O385 O 0.89019 0.62391 0.12715 0.0
O386 O 0.84887 0.81352 0.12067 0.0
O387 O 0.87792 0.7414 0.1127 0.0
O388 O 0.86114 0.7163 0.05739 0.0
O389 O 0.7886 0.71564 0.07517 0.0
O390 O 0.87563 0.77593 0.15544 0.0
O391 O 0.77631 0.77045 0.097 0.0
C392 C 0.76713 0.62246 0.09529 0.0
C393 C 0.91184 0.56925 0.0967 0.0
C394 C 0.94324 0.50747 0.09847 0.0
C395 C 0.90712 0.52249 0.10828 0.0
C396 C 0.98422 0.5407 0.07827 0.0
C397 C 0.9526 0.59928 0.07562 0.0
C398 C 0.98865 0.58583 0.06693 0.0
C399 C 0.83159 0.67208 0.17797 0.0
C400 C 0.87497 0.58733 0.10551 0.0
C401 C 0.04243 0.74355 0.02121 0.0
C402 C 0.0672 0.76066 0.05172 0.0
C403 C 0.90569 0.76985 0.13608 0.0
C404 C 0.79989 0.85393 0.11554 0.0
C405 C 0.83607 0.90668 0.11492 0.0
C406 C 0.82315 0.94284 0.12663 0.0
C407 C 0.77396 0.92444 0.14004 0.0
C408 C 0.75068 0.83771 0.12768 0.0
C409 C 0.73821 0.87267 0.14026 0.0
C410 C 0.82212 0.72462 0.05201 0.0
C411 C 0.8136 0.81588 0.10409 0.0
H412 H 0.87523 0.49767 0.12391 0.0
H413 H 1.01296 0.53142 0.0708 0.0
H414 H 0.95654 0.6332 0.06537 0.0
H415 H 1.02001 0.6104 0.05086 0.0
H416 H 0.87412 0.91912 0.10577 0.0
H417 H 0.76215 0.95007 0.14981 0.0
H418 H 0.72175 0.79784 0.12779 0.0
H419 H 0.70039 0.85959 0.15009 0.0
Tb420 Tb 0.97482 0.26363 0.36973 0.0
C421 C 0.79015 0.14499 0.4588 0.0
C422 C 0.74365 0.06044 0.43498 0.0
C423 C 0.73015 0.07362 0.49256 0.0
C424 C 0.77978 0.1128 0.43211 0.0
C425 C 0.7655 0.12573 0.48941 0.0
C426 C 0.7189 0.04114 0.46531 0.0
C427 C 0.80627 0.21178 0.5102 0.0
N428 N 0.82139 0.19565 0.45404 0.0
C429 C 0.82797 0.22926 0.47903 0.0
C430 C 0.77503 0.15973 0.51548 0.0
Tb431 Tb 0.84997 0.22044 0.40064 0.0
N432 N 0.80133 0.13352 0.40256 0.0
C433 C 0.78572 0.10421 0.37454 0.0
C434 C 0.73112 0.02964 0.40679 0.0
C435 C 0.75185 0.05178 0.37633 0.0
H436 H 0.85057 0.26979 0.47516 0.0
H437 H 0.74082 0.02875 0.35406 0.0
H438 H 0.69012 1.00138 0.46775 0.0
H439 H 0.81275 0.2386 0.52991 0.0
H440 H 0.79897 0.1213 0.35059 0.0
H441 H 0.12482 0.41559 0.44492 0.0
H442 H 0.70385 0.98923 0.40802 0.0
H443 H 0.95664 0.2771 0.28793 0.0
H444 H 0.07212 0.32793 0.42552 0.0
H445 H 0.95316 0.34084 0.25334 0.0
H446 H 0.7105 0.05823 0.51575 0.0
H447 H 0.12009 0.48558 0.41733 0.0
H448 H 0.0869 0.51417 0.37018 0.0
H449 H 0.75712 0.14634 0.5394 0.0
H450 H 0.03894 0.49349 0.31786 0.0
N451 N 1.03356 0.34592 0.38795 0.0
C452 C 0.06855 0.35747 0.41306 0.0
C453 C 0.0964 0.44682 0.40862 0.0
C454 C 0.06531 0.43597 0.38078 0.0
C455 C 0.09916 0.40749 0.42422 0.0
C456 C 1.03504 0.38473 0.37054 0.0
H457 H 0.98895 0.42891 0.27391 0.0
N458 N 0.9837 0.32398 0.33109 0.0
C459 C 0.96746 0.35033 0.27844 0.0
C460 C 1.00873 0.37326 0.34115 0.0
C461 C 0.96751 0.31331 0.29891 0.0
C462 C 0.98812 0.40003 0.28998 0.0
C463 C 1.01105 0.41252 0.32119 0.0
O464 O 1.00515 0.2404 0.33058 0.0
O465 O 0.90156 0.19655 0.38218 0.0
O466 O 0.90021 0.2281 0.44443 0.0
O467 O 0.98165 0.27635 0.42226 0.0
O468 O 0.96421 0.19714 0.39889 0.0
O469 O 0.04756 0.27121 0.37489 0.0
O470 O 0.81146 0.26223 0.40315 0.0
O471 O 0.91612 0.28529 0.37739 0.0
O472 O 0.92286 0.21744 0.33047 0.0
O473 O 0.84836 0.21687 0.34498 0.0
O474 O 0.88659 0.29661 0.4205 0.0
O475 O 0.77565 0.18953 0.38014 0.0
C476 C 0.91536 0.16873 0.39716 0.0
C477 C 0.05423 0.20423 0.35113 0.0
C478 C 0.11111 0.171 0.36586 0.0
C479 C 0.10325 0.21254 0.35964 0.0
C480 C 0.06889 0.12138 0.36417 0.0
C481 C 1.01352 0.154 0.3486 0.0
C482 C 1.0207 0.11306 0.3555 0.0
C483 C 0.95096 0.25725 0.44751 0.0
C484 C 0.04472 0.24762 0.34763 0.0
C485 C 1.03762 0.46305 0.33252 0.0
C486 C 0.06489 0.4748 0.36228 0.0
C487 C 0.91969 0.31962 0.39767 0.0
C488 C 0.72065 0.21319 0.40693 0.0
C489 C 0.67311 0.18901 0.38983 0.0
C490 C 0.62725 0.17678 0.40671 0.0
C491 C 0.62993 0.18927 0.44048 0.0
C492 C 0.72137 0.22577 0.4405 0.0
C493 C 0.67644 0.21355 0.4571 0.0
C494 C 0.8774 0.2105 0.3229 0.0
C495 C 0.76956 0.22672 0.38988 0.0
H496 H 0.13503 0.25114 0.36153 0.0
H497 H 0.07351 0.08872 0.36841 0.0
H498 H 0.97587 0.14639 0.34171 0.0
H499 H 0.98874 0.07458 0.35383 0.0
H500 H 0.6718 0.17968 0.36381 0.0
H501 H 0.59573 0.1809 0.45405 0.0
H502 H 0.7568 0.24584 0.454 0.0
H503 H 0.67775 0.22344 0.48299 0.0
Tb504 Tb 0.08364 0.31671 0.63269 0.0
C505 C 0.23675 0.31416 0.56321 0.0
C506 C 0.28982 0.3006 0.60135 0.0
C507 C 0.26057 0.25043 0.5509 0.0
C508 C 0.26054 0.32335 0.59326 0.0
C509 C 0.23883 0.27956 0.54076 0.0
C510 C 0.28716 0.26177 0.58099 0.0
C511 C 0.21106 0.31514 0.49807 0.0
N512 N 0.21759 0.34423 0.5545 0.0
C513 C 0.21093 0.34936 0.52133 0.0
C514 C 0.22288 0.27842 0.50818 0.0
Tb515 Tb 0.20805 0.39097 0.59718 0.0
N516 N 0.25913 0.35859 0.61313 0.0
C517 C 0.29298 0.37878 0.63893 0.0
C518 C 0.3223 0.31914 0.62874 0.0
C519 C 0.3253 0.35979 0.64685 0.0
H520 H 0.20408 0.37903 0.51257 0.0
H521 H 0.35159 0.37573 0.66743 0.0
H522 H 0.30757 0.24219 0.58742 0.0
H523 H 0.20287 0.3177 0.4723 0.0
H524 H 0.29599 0.41002 0.65344 0.0
H525 H 0.93572 0.31271 0.55324 0.0
H526 H 0.34628 0.30353 0.63545 0.0
H527 H 0.1029 0.3572 0.71252 0.0
H528 H 0.98716 0.27912 0.57643 0.0
H529 H 0.10819 0.42884 0.74336 0.0
H530 H 0.26086 0.22226 0.53451 0.0
H531 H 0.94053 0.39009 0.57696 0.0
H532 H 0.97354 0.45633 0.6219 0.0
H533 H 0.22391 0.25253 0.49009 0.0
H534 H 1.02215 0.48917 0.67369 0.0
N535 N 1.02739 0.34051 0.61096 0.0
C536 C 0.99238 0.31449 0.58636 0.0
C537 C 0.96441 0.37615 0.58692 0.0
C538 C 0.99547 0.39916 0.61447 0.0
C539 C 0.96177 0.33268 0.57341 0.0
C540 C 1.02595 0.37949 0.62638 0.0
H541 H 0.07297 0.47945 0.71925 0.0
N542 N 0.07616 0.37317 0.66772 0.0
C543 C 0.09348 0.42136 0.7183 0.0
C544 C 0.05207 0.39705 0.65564 0.0
C545 C 0.09222 0.3816 0.70001 0.0
C546 C 0.07331 0.44958 0.70472 0.0
C547 C 0.05017 0.43607 0.67358 0.0
O548 O 0.05871 0.27 0.6752 0.0
O549 O 0.15612 0.31997 0.62133 0.0
O550 O 0.14766 0.36245 0.55644 0.0
O551 O 0.07213 0.3006 0.58074 0.0
O552 O 0.09087 0.25699 0.60685 0.0
O553 O 1.00912 0.25229 0.634 0.0
O554 O 0.26551 0.44548 0.56584 0.0
O555 O 0.14445 0.39468 0.62036 0.0
O556 O 0.13899 0.33139 0.6709 0.0
O557 O 0.21316 0.4027 0.65287 0.0
O558 O 0.17333 0.43186 0.57643 0.0
O559 O 0.26894 0.46031 0.617 0.0
C560 C 0.13939 0.27596 0.60923 0.0
C561 C 1.00875 0.18202 0.65974 0.0
C562 C 0.95663 0.09037 0.64618 0.0
C563 C 0.9617 0.13939 0.64915 0.0
C564 C 0.99878 0.08483 0.65352 0.0
C565 C 0.0496 0.17419 0.6673 0.0
C566 C 0.04459 0.12627 0.664 0.0
C567 C 0.0988 0.32502 0.55485 0.0
C568 C 1.01702 0.23501 0.66122 0.0
C569 C 1.02345 0.45872 0.66052 0.0
C570 C 0.9958 0.44003 0.63106 0.0
C571 C 0.14118 0.42454 0.59963 0.0
C572 C 0.34961 0.49015 0.58925 0.0
C573 C 0.39139 0.54038 0.59635 0.0
C574 C 0.44327 0.55098 0.59511 0.0
C575 C 0.45151 0.5101 0.58897 0.0
C576 C 0.36148 0.45261 0.58022 0.0
C577 C 0.41131 0.46192 0.5812 0.0
C578 C 0.18427 0.37129 0.67699 0.0
C579 C 0.29382 0.47569 0.58937 0.0
H580 H 0.9295 0.14426 0.64337 0.0
H581 H 0.99597 0.04791 0.65152 0.0
H582 H 0.08602 0.20536 0.67536 0.0
H583 H 0.0765 0.12114 0.66959 0.0
H584 H 0.38379 0.57093 0.60153 0.0
H585 H 0.48989 0.51601 0.5888 0.0
H586 H 0.33205 0.41557 0.57208 0.0
H587 H 0.41897 0.43167 0.57507 0.0
Tb588 Tb 0.2293 0.84757 0.89705 0.0
C589 C 0.38512 0.99718 0.81322 0.0
C590 C 0.45911 0.02967 0.84894 0.0
C591 C 0.46699 1.01556 0.79055 0.0
C592 C 0.40639 1.01078 0.84449 0.0
C593 C 0.41547 1.00067 0.78576 0.0
C594 C 0.48885 0.03026 0.82208 0.0
C595 C 0.34352 0.98044 0.75048 0.0
N596 N 0.33544 0.98392 0.80941 0.0
C597 C 0.31611 0.98095 0.77823 0.0
C598 C 0.39339 0.99026 0.75423 0.0
Tb599 Tb 0.29055 0.97053 0.85804 0.0
N600 N 0.37638 1.00955 0.86993 0.0
C601 C 0.39853 0.03334 0.89915 0.0
C602 C 0.48083 0.04963 0.87982 0.0
C603 C 0.4507 0.05295 0.90466 0.0
H604 H 0.27707 0.97206 0.77553 0.0
H605 H 0.46756 0.07045 0.92819 0.0
H606 H 0.52918 0.04376 0.8252 0.0
H607 H 0.32604 0.97177 0.72628 0.0
H608 H 0.37696 0.03758 0.91867 0.0
H609 H 0.05388 0.71345 0.83203 0.0
H610 H 0.52118 0.06469 0.88423 0.0
H611 H 0.2254 0.84271 0.98085 0.0
H612 H 0.14544 0.75708 0.84319 0.0
H613 H 0.17744 0.8594 0.02415 0.0
H614 H 0.49071 1.01771 0.76983 0.0
H615 H 0.9966 0.7296 0.86717 0.0
H616 H 0.98591 0.77295 0.91731 0.0
H617 H 0.41489 0.99104 0.73257 0.0
H618 H 1.02277 0.82054 0.96907 0.0
N619 N 0.14254 0.80074 0.88415 0.0
C620 C 0.12198 0.76603 0.85872 0.0
C621 C 1.03717 0.74918 0.87234 0.0
C622 C 0.05751 0.78188 0.89949 0.0
C623 C 0.06941 0.74011 0.85245 0.0
C624 C 0.11055 0.80579 0.90529 0.0
H625 H 0.09654 0.85594 0.00943 0.0
N626 N 0.17875 0.84235 0.94156 0.0
C627 C 0.16446 0.85308 0.99872 0.0
C628 C 0.13051 0.83056 0.93452 0.0
C629 C 0.19219 0.84492 0.97412 0.0
C630 C 0.11884 0.85114 0.99031 0.0
C631 C 0.09899 0.83475 0.95853 0.0
O632 O 0.25581 0.81359 0.93178 0.0
O633 O 0.30309 0.91667 0.88713 0.0
O634 O 0.28323 0.91365 0.82165 0.0
O635 O 0.21975 0.83653 0.8423 0.0
O636 O 0.29342 0.84757 0.87322 0.0
O637 O 0.20744 0.76979 0.89077 0.0
O638 O 0.32559 0.04922 0.84683 0.0
O639 O 0.22005 0.90863 0.87775 0.0
O640 O 0.26595 0.90907 0.93668 0.0
O641 O 0.28976 0.98603 0.91027 0.0
O642 O 0.21721 0.93713 0.8322 0.0
O643 O 0.24756 1.0084 0.85975 0.0
C644 C 0.32672 0.89488 0.87598 0.0
C645 C 0.23542 0.72388 0.92734 0.0
C646 C 0.21504 0.63422 0.92143 0.0
C647 C 0.20972 0.67588 0.91044 0.0
C648 C 0.24649 0.64169 0.9489 0.0
C649 C 0.26616 0.72899 0.95473 0.0
C650 C 0.27167 0.68841 0.96527 0.0
C651 C 0.24865 0.86546 0.81766 0.0
C652 C 0.23335 0.76993 0.91627 0.0
C653 C 0.0475 0.81713 0.95114 0.0
C654 C 1.02647 0.78975 0.92179 0.0
C655 C 0.18977 0.90485 0.85479 0.0
C656 C 0.29048 0.09691 0.87205 0.0
C657 C 0.25547 0.11507 0.86839 0.0
C658 C 0.26099 0.15736 0.8873 0.0
C659 C 0.30143 0.17983 0.91004 0.0
C660 C 0.33141 0.12234 0.89409 0.0
C661 C 0.33642 0.16294 0.91312 0.0
C662 C 0.28244 0.95934 0.93738 0.0
C663 C 0.28515 0.05262 0.85231 0.0
H664 H 0.18576 0.67091 0.88924 0.0
H665 H 0.2514 0.61084 0.95791 0.0
H666 H 0.2866 0.76481 0.96798 0.0
H667 H 0.2957 0.69319 0.98638 0.0
H668 H 0.22438 0.09656 0.85084 0.0
H669 H 0.30706 0.21188 0.92484 0.0
H670 H 0.35941 0.11042 0.89699 0.0
H671 H 0.36802 0.18179 0.93026 0.0
Tb672 Tb 0.73811 0.78778 0.62919 0.0
C673 C 0.73337 0.9409 0.54618 0.0
C674 C 0.78497 1.02006 0.57536 0.0
C675 C 0.79071 1.01701 0.51544 0.0
C676 C 0.75015 0.96728 0.57541 0.0
C677 C 0.75208 0.96556 0.51568 0.0
C678 C 0.80641 0.04456 0.54524 0.0
C679 C 0.68728 0.88936 0.48854 0.0
N680 N 0.69591 0.89151 0.54776 0.0
C681 C 0.6696 0.86696 0.51957 0.0
C682 C 0.72986 0.93828 0.48655 0.0
Tb683 Tb 0.67632 0.85526 0.59968 0.0
N684 N 0.73011 0.94152 0.60389 0.0
C685 C 0.74061 0.96714 0.63331 0.0
C686 C 0.79698 0.04633 0.60555 0.0
C687 C 0.77414 1.01979 0.63462 0.0
H688 H 0.63742 0.82868 0.52099 0.0
H689 H 0.78291 0.03969 0.6581 0.0
H690 H 0.83432 0.08483 0.54466 0.0
H691 H 0.66833 0.86876 0.4662 0.0
H692 H 0.7237 0.94693 0.65587 0.0
H693 H 0.75769 0.65748 0.5455 0.0
H694 H 0.82354 0.08692 0.60666 0.0
H695 H 0.6996 0.75145 0.70878 0.0
H696 H 0.7884 0.73822 0.5763 0.0
H697 H 0.6298 0.67754 0.73614 0.0
H698 H 0.80673 0.03647 0.49231 0.0
H699 H 0.67301 0.58341 0.55858 0.0
H700 H 0.59873 0.54334 0.59814 0.0
H701 H 0.74357 0.95552 0.46251 0.0
H702 H 0.56329 0.54898 0.65176 0.0
N703 N 0.71889 0.71255 0.6026 0.0
C704 C 0.75087 0.70665 0.58124 0.0
C705 C 0.68595 0.61918 0.57146 0.0
C706 C 0.65795 0.62286 0.59778 0.0
C707 C 0.73378 0.66081 0.56407 0.0
C708 C 0.67662 0.67041 0.61363 0.0
H709 H 0.57623 0.59848 0.70443 0.0
N710 N 0.68205 0.71837 0.66042 0.0
C711 C 0.63597 0.67618 0.70985 0.0
C712 C 0.65737 0.67344 0.64387 0.0
C713 C 0.67487 0.71884 0.69384 0.0
C714 C 0.60595 0.63164 0.69192 0.0
C715 C 0.61797 0.62913 0.65883 0.0
O716 O 0.77688 0.76891 0.66522 0.0
O717 O 0.74298 0.86231 0.62429 0.0
O718 O 0.72265 0.84503 0.55908 0.0
O719 O 0.72454 0.77369 0.57672 0.0
O720 O 0.80293 0.85606 0.60776 0.0
O721 O 0.8174 0.81782 0.62511 0.0
O722 O 0.60225 0.83718 0.58351 0.0
O723 O 0.66425 0.78262 0.61895 0.0
O724 O 0.72106 0.81905 0.67367 0.0
O725 O 0.66983 0.85165 0.65508 0.0
O726 O 0.62303 0.78183 0.57817 0.0
O727 O 0.6371 0.88761 0.62385 0.0
C728 C 0.78769 0.88808 0.61252 0.0
C729 C 0.85299 0.77038 0.64509 0.0
C730 C 0.93632 0.77913 0.63083 0.0
C731 C 0.906 0.80128 0.63828 0.0
C732 C 0.913 0.72589 0.6304 0.0
C733 C 0.83111 0.71729 0.64463 0.0
C734 C 0.86097 0.69536 0.6373 0.0
C735 C 0.73279 0.80742 0.55394 0.0
C736 C 0.821 0.79429 0.65053 0.0
C737 C 0.59458 0.58307 0.64109 0.0
C738 C 0.61468 0.57988 0.61052 0.0
C739 C 0.62961 0.75323 0.59845 0.0
C740 C 0.57958 0.90173 0.59142 0.0
C741 C 0.5323 0.89769 0.60129 0.0
C742 C 0.51646 0.93129 0.58821 0.0
C743 C 0.54936 0.96916 0.56601 0.0
C744 C 0.61051 0.94005 0.56901 0.0
C745 C 0.59561 0.97337 0.55656 0.0
C746 C 0.69079 0.83831 0.67926 0.0
C747 C 0.59759 0.86713 0.60449 0.0
H748 H 0.92347 0.84236 0.63849 0.0
H749 H 0.93526 0.70788 0.62497 0.0
H750 H 0.79078 0.6927 0.64947 0.0
H751 H 0.84364 0.65435 0.63689 0.0
H752 H 0.50779 0.86829 0.61854 0.0
H753 H 0.53934 0.99601 0.55595 0.0
H754 H 0.64653 0.94449 0.56115 0.0
H755 H 0.62019 1.0028 0.53937 0.0
Tb756 Tb 0.22254 0.38659 0.90131 0.0
C757 C 0.0399 0.32921 0.80339 0.0
C758 C 1.01882 0.39456 0.81472 0.0
C759 C 0.99503 0.35004 0.76198 0.0
C760 C 0.04145 0.36568 0.8242 0.0
C761 C 1.01494 0.31948 0.77249 0.0
C762 C 0.99744 0.38798 0.78297 0.0
C763 C 1.02269 0.24468 0.76764 0.0
N764 N 0.05802 0.29957 0.81514 0.0
C765 C 0.04683 0.25582 0.79858 0.0
C766 C 1.00792 0.27744 0.75409 0.0
Tb767 Tb 0.09645 0.31964 0.86654 0.0
N768 N 0.05966 0.36841 0.85523 0.0
C769 C 0.05081 0.39512 0.87899 0.0
C770 C 1.0152 0.42648 0.83819 0.0
C771 C 1.03016 0.42579 0.87072 0.0
H772 H 0.05598 0.22876 0.809 0.0
H773 H 1.02492 0.4481 0.88961 0.0
H774 H 0.98039 0.41017 0.77509 0.0
H775 H 1.01501 0.2105 0.75441 0.0
H776 H 0.05944 0.39302 0.90454 0.0
H777 H 0.33475 0.31637 0.8424 0.0
H778 H 0.99819 0.44938 0.83196 0.0
H779 H 0.21898 0.41658 0.97951 0.0
H780 H 0.27756 0.35122 0.84433 0.0
H781 H 0.24782 0.40397 0.03382 0.0
H782 H 0.97629 0.34359 0.73816 0.0
H783 H 0.36202 0.29397 0.8941 0.0
H784 H 0.36268 0.29396 0.95602 0.0
H785 H 0.98884 0.26852 0.73029 0.0
H786 H 0.33896 0.31814 0.00815 0.0
N787 N 0.26759 0.34465 0.8968 0.0
C788 C 0.28718 0.34009 0.86725 0.0
C789 C 0.33506 0.30747 0.89515 0.0
C790 C 0.31681 0.31412 0.92544 0.0
C791 C 0.32015 0.32051 0.86595 0.0
C792 C 0.28204 0.33225 0.92546 0.0
H793 H 0.29422 0.35676 0.03765 0.0
N794 N 0.24202 0.37044 0.95324 0.0
C795 C 0.25337 0.38677 0.01189 0.0
C796 C 0.26755 0.34446 0.95492 0.0
C797 C 0.23683 0.39353 0.98107 0.0
C798 C 0.27899 0.35954 0.01401 0.0
C799 C 0.28805 0.33966 0.98521 0.0
O800 O 0.27742 0.45862 0.92084 0.0
O801 O 0.16153 0.39615 0.88065 0.0
O802 O 0.14114 0.36278 0.82468 0.0
O803 O 0.22233 0.38477 0.8448 0.0
O804 O 0.19892 0.43693 0.9223 0.0
O805 O 0.28885 0.43539 0.87354 0.0
O806 O 0.05476 0.23982 0.87367 0.0
O807 O 0.16083 0.31406 0.88657 0.0
O808 O 0.16242 0.33865 0.93988 0.0
O809 O 0.09264 0.33866 0.91734 0.0
O810 O 0.12412 0.26912 0.84748 0.0
O811 O 1.02542 0.28673 0.8909 0.0
C812 C 0.16477 0.43032 0.90102 0.0
C813 C 0.36407 0.48576 0.90571 0.0
C814 C 0.45824 0.53994 0.90081 0.0
C815 C 0.40785 0.5294 0.89243 0.0
C816 C 0.46293 0.50324 0.91919 0.0
C817 C 0.37245 0.45603 0.92833 0.0
C818 C 0.42066 0.46283 0.93377 0.0
C819 C 0.19037 0.38051 0.8202 0.0
C820 C 0.30973 0.46976 0.89664 0.0
C821 C 0.3214 0.32028 0.98533 0.0
C822 C 0.33537 0.30706 0.95557 0.0
C823 C 0.1609 0.28054 0.86777 0.0
C824 C 0.96487 0.20259 0.87307 0.0
C825 C 0.94443 0.14978 0.8784 0.0
C826 C 0.89514 0.11374 0.86654 0.0
C827 C 0.86726 0.13192 0.84915 0.0
C828 C 0.93609 0.21898 0.85517 0.0
C829 C 0.88771 0.18384 0.84337 0.0
C830 C 0.11484 0.33104 0.94261 0.0
C831 C 1.0158 0.24024 0.88651 0.0
H832 H 0.40278 0.55534 0.87673 0.0
H833 H 0.49987 0.50693 0.92368 0.0
H834 H 0.34171 0.42766 0.9422 0.0
H835 H 0.42537 0.43718 0.94999 0.0
H836 H 0.96724 0.13704 0.89137 0.0
H837 H 0.82913 0.10591 0.84017 0.0
H838 H 0.95082 0.25903 0.85041 0.0
H839 H 0.86571 0.19696 0.82982 0.0
Tb840 Tb 0.24925 0.95921 0.62738 0.0
C841 C 0.14405 0.78052 0.54181 0.0
C842 C 0.06205 0.7277 0.56815 0.0
C843 C 0.07027 0.72155 0.50885 0.0
C844 C 0.11434 0.76506 0.57015 0.0
C845 C 0.12232 0.75806 0.51091 0.0
C846 C 0.04012 0.7067 0.53735 0.0
C847 C 0.20637 0.80272 0.48696 0.0
N848 N 0.19487 0.81402 0.54486 0.0
C849 C 0.22639 0.82243 0.5182 0.0
C850 C 0.15397 0.77087 0.48319 0.0
Tb851 Tb 0.22375 0.83983 0.59832 0.0
N852 N 0.1372 0.78396 0.59986 0.0
C853 C 0.10992 0.76523 0.62855 0.0
C854 C 1.03367 0.71083 0.59732 0.0
C855 C 0.05782 0.72941 0.62765 0.0
H856 H 0.26733 0.84537 0.52099 0.0
H857 H 1.0364 0.71592 0.65043 0.0
H858 H 1.0001 0.67803 0.53541 0.0
H859 H 0.23156 0.81117 0.46597 0.0
H860 H 0.12731 0.77821 0.65247 0.0
H861 H 0.43978 0.06634 0.57259 0.0
H862 H 0.99348 0.68241 0.59672 0.0
H863 H 0.20918 0.96168 0.70348 0.0
H864 H 0.35063 1.00114 0.57333 0.0
H865 H 0.23869 1.02245 0.74994 0.0
H866 H 0.05309 0.70388 0.48537 0.0
H867 H 0.47912 0.12225 0.62106 0.0
H868 H 0.46943 0.14847 0.67797 0.0
H869 H 0.1386 0.75467 0.45909 0.0
H870 H 0.41454 0.1379 0.72561 0.0
N871 N 0.33608 1.01714 0.62268 0.0
C872 C 0.36552 1.02442 0.59509 0.0
C873 C 0.43924 0.09292 0.62184 0.0
C874 C 0.40956 0.08625 0.64984 0.0
C875 C 0.41713 0.06166 0.59443 0.0
C876 C 0.35786 0.04699 0.64979 0.0
H877 H 0.32798 0.09322 0.75166 0.0
N878 N 0.27946 0.99936 0.6774 0.0
C879 C 0.26449 0.02739 0.7299 0.0
C880 C 0.32807 0.03906 0.67749 0.0
C881 C 0.2479 0.99294 0.7035 0.0
C882 C 0.31478 0.06733 0.73072 0.0
C883 C 0.34759 0.07297 0.70468 0.0
O884 O 0.18826 0.9665 0.64401 0.0
O885 O 0.18926 0.87896 0.62085 0.0
O886 O 0.2402 0.89636 0.55519 0.0
O887 O 0.26503 0.9768 0.57691 0.0
O888 O 0.17945 0.9321 0.59767 0.0
O889 O 0.2515 0.02966 0.61911 0.0
O890 O 0.26775 0.80894 0.57982 0.0
O891 O 0.28547 0.91791 0.6059 0.0
O892 O 0.24914 0.91726 0.67123 0.0
O893 O 0.21457 0.83344 0.65289 0.0
O894 O 0.29298 0.86088 0.62565 0.0
O895 O 0.20628 0.76687 0.61408 0.0
C896 C 0.15684 0.88468 0.60449 0.0
C897 C 0.19373 0.04617 0.65159 0.0
C898 C 0.17941 0.11835 0.65291 0.0
C899 C 0.19748 0.08964 0.63641 0.0
C900 C 0.15891 0.10405 0.68493 0.0
C901 C 0.16951 0.0309 0.68264 0.0
C902 C 0.15372 0.06045 0.69951 0.0
C903 C 0.25527 0.94632 0.5517 0.0
C904 C 0.20648 1.01236 0.63259 0.0
C905 C 0.39877 0.11206 0.70474 0.0
C906 C 0.42992 0.11817 0.67759 0.0
C907 C 0.31728 0.90886 0.62102 0.0
C908 C 0.22417 0.71724 0.57694 0.0
C909 C 0.20026 0.66981 0.59378 0.0
C910 C 0.18553 0.62386 0.57644 0.0
C911 C 0.19493 0.62628 0.54218 0.0
C912 C 0.23421 0.71791 0.54295 0.0
C913 C 0.21908 0.67277 0.52573 0.0
C914 C 0.23142 0.86841 0.67669 0.0
C915 C 0.24049 0.76569 0.59525 0.0
H916 H 0.21315 0.10033 0.61168 0.0
H917 H 0.14538 0.12584 0.6984 0.0
H918 H 0.16071 0.99516 0.69365 0.0
H919 H 0.13593 0.04865 0.72358 0.0
H920 H 0.19327 0.66872 0.62015 0.0
H921 H 0.18478 0.59205 0.52812 0.0
H922 H 0.25448 0.75329 0.52959 0.0
H923 H 0.22685 0.67387 0.49949 0.0
Tb924 Tb 0.67446 0.83102 0.89914 0.0
C925 C 0.75779 0.75672 0.7944 0.0
C926 C 0.71302 0.66447 0.79637 0.0
C927 C 0.75483 0.70847 0.74557 0.0
C928 C 0.72982 0.71176 0.81214 0.0
C929 C 0.77161 0.75555 0.76129 0.0
C930 C 0.72488 0.66308 0.76287 0.0
C931 C 0.82 0.8476 0.76223 0.0
N932 N 0.77412 0.80188 0.81048 0.0
C933 C 0.8049 0.84709 0.79491 0.0
C934 C 0.80351 0.80177 0.74542 0.0
Tb935 Tb 0.75689 0.79554 0.86589 0.0
N936 N 0.72224 0.71457 0.84523 0.0
C937 C 0.69902 0.6713 0.86383 0.0
C938 C 0.68662 0.62001 0.81506 0.0
C939 C 0.67981 0.6235 0.84894 0.0
H940 H 0.81666 0.88257 0.80757 0.0
H941 H 0.6606 0.58935 0.86376 0.0
H942 H 0.7124 0.62708 0.7504 0.0
H943 H 0.84513 0.88328 0.75022 0.0
H944 H 0.69504 0.67286 0.89018 0.0
H945 H 0.75116 0.03374 0.89309 0.0
H946 H 0.67274 0.58293 0.8038 0.0
H947 H 0.62292 0.74856 0.96044 0.0
H948 H 0.7227 0.948 0.87048 0.0
H949 H 0.61018 0.75104 0.02076 0.0
H950 H 0.76506 0.70672 0.72009 0.0
H951 H 0.74386 0.04486 0.95313 0.0
H952 H 0.71083 1.00403 0.00828 0.0
H953 H 0.81676 0.80266 0.72051 0.0
H954 H 0.67497 0.92788 0.04336 0.0
N955 N 0.70882 0.9128 0.91766 0.0
C956 C 0.7235 0.95328 0.89694 0.0
C957 C 0.73403 1.00771 0.94348 0.0
C958 C 0.71469 0.96526 0.96424 0.0
C959 C 0.73825 1.00161 0.9096 0.0
C960 C 0.70324 0.91787 0.95059 0.0
H961 H 0.63959 0.83382 0.04863 0.0
N962 N 0.66613 0.82881 0.95545 0.0
C963 C 0.63073 0.78607 0.00691 0.0
C964 C 0.68133 0.87454 0.97013 0.0
C965 C 0.6387 0.78464 0.97295 0.0
C966 C 0.64739 0.83287 0.02254 0.0
C967 C 0.67147 0.87768 0.00394 0.0
O968 O 0.59561 0.79183 0.9095 0.0
O969 O 0.68074 0.76328 0.88785 0.0
O970 O 0.71474 0.80545 0.82453 0.0
O971 O 0.68794 0.85833 0.84663 0.0
O972 O 0.61994 0.76579 0.87015 0.0
O973 O 0.63111 0.86595 0.88701 0.0
O974 O 0.82228 0.81941 0.89604 0.0
O975 O 0.74584 0.86109 0.8737 0.0
O976 O 0.72332 0.81862 0.9384 0.0
O977 O 0.73052 0.75549 0.91227 0.0
O978 O 0.81262 0.86938 0.88736 0.0
O979 O 0.81606 0.78183 0.85059 0.0
C980 C 0.6391 0.73697 0.87212 0.0
C981 C 0.55652 0.84264 0.91967 0.0
C982 C 0.49438 0.87303 0.92397 0.0
C983 C 0.53005 0.86553 0.90525 0.0
C984 C 0.48598 0.85641 0.95714 0.0
C985 C 0.54795 0.8288 0.95312 0.0
C986 C 0.51326 0.83582 0.97161 0.0
C987 C 0.69376 0.83417 0.82086 0.0
C988 C 0.58906 0.82895 0.89919 0.0
C989 C 0.68311 0.92482 0.0176 0.0
C990 C 0.70386 0.96828 0.99767 0.0
C991 C 0.78796 0.89276 0.88627 0.0
C992 C 0.89848 0.84922 0.86524 0.0
C993 C 0.94191 0.84452 0.87081 0.0
C994 C 0.99105 0.88548 0.86337 0.0
C995 C 0.99655 0.93077 0.8506 0.0
C996 C 0.90544 0.89472 0.85128 0.0
C997 C 0.95389 0.93516 0.84442 0.0
C998 C 0.73572 0.78162 0.93947 0.0
C999 C 0.84645 0.80773 0.87451 0.0
H1000 H 0.53643 0.87628 0.87941 0.0
H1001 H 0.45667 0.85715 0.97198 0.0
H1002 H 0.56652 0.81065 0.96489 0.0
H1003 H 0.50608 0.82348 0.99714 0.0
H1004 H 0.93761 0.80943 0.88064 0.0
H1005 H 1.03395 0.96226 0.84441 0.0
H1006 H 0.87389 0.89998 0.84568 0.0
H1007 H 0.95831 0.96991 0.83396 0.0
C1008 C 0.24361 0.20007 0.16278 0.0
C1009 C 0.19572 0.18563 0.14875 0.0
C1010 C 0.27409 0.18104 0.15116 0.0
C1011 C 0.25997 0.14708 0.12465 0.0
H1012 H 0.25972 0.22864 0.18208 0.0
H1013 H 0.31115 0.19593 0.16183 0.0
S1014 S 0.13615 0.09091 0.0805 0.0
N1015 N 0.13312 0.13004 0.10774 0.0
N1016 N 0.19246 0.09561 0.08573 0.0
C1017 C 0.21153 0.13026 0.11069 0.0
C1018 C 0.17937 0.14947 0.1226 0.0
C1019 C 1.011 0.84545 0.3243 0.0
C1020 C 0.04174 0.86909 0.35237 0.0
C1021 C 0.95786 0.81483 0.32668 0.0
C1022 C 0.93279 0.80492 0.35729 0.0
H1023 H 1.02834 0.84939 0.30023 0.0
H1024 H 0.93624 0.79767 0.30435 0.0
S1025 S 0.99171 0.87181 0.43599 0.0
N1026 N 0.04062 0.89037 0.41051 0.0
N1027 N 0.94027 0.83255 0.4145 0.0
C1028 C 0.96161 0.83336 0.38479 0.0
C1029 C 1.01617 0.86541 0.38242 0.0
C1030 C 0.88105 0.08433 0.14555 0.0
C1031 C 0.90924 0.10851 0.11721 0.0
C1032 C 0.8574 0.03145 0.14961 0.0
C1033 C 0.85881 0.99957 0.1246 0.0
H1034 H 0.8754 0.10633 0.16413 0.0
H1035 H 0.83574 1.01536 0.17205 0.0
S1036 S 0.93252 0.04526 0.04626 0.0
N1037 N 0.94279 0.09787 0.06519 0.0
N1038 N 0.89483 0.99786 0.07095 0.0
C1039 C 0.88952 1.02376 0.09664 0.0
C1040 C 0.91532 0.07821 0.09331 0.0
C1041 C 0.21744 0.14722 0.39599 0.0
C1042 C 0.25457 0.17019 0.37107 0.0
C1043 C 0.1725 0.15055 0.39572 0.0
C1044 C 0.16325 0.17761 0.37081 0.0
H1045 H 0.22113 0.12318 0.41422 0.0
H1046 H 0.14352 0.12956 0.41416 0.0
S1047 S 0.25093 0.24933 0.30215 0.0
N1048 N 0.28018 0.22412 0.32231 0.0
N1049 N 0.19729 0.2312 0.32242 0.0
C1050 C 0.20178 0.20374 0.34735 0.0
C1051 C 0.24675 0.19952 0.34721 0.0
C1052 C 0.0387 0.86095 0.16987 0.0
C1053 C 0.06761 0.88705 0.1419 0.0
C1054 C 0.98709 0.82275 0.16722 0.0
C1055 C 0.96191 0.80767 0.13642 0.0
H1056 H 0.05533 0.87232 0.19434 0.0
H1057 H 0.96628 0.80555 0.18974 0.0
S1058 S 1.01918 0.86569 0.05554 0.0
N1059 N 0.06638 0.89629 0.08227 0.0
N1060 N 0.96962 0.82385 0.07728 0.0
C1061 C 0.99034 0.83304 0.10808 0.0
C1062 C 0.04305 0.87258 0.11082 0.0
C1063 C 0.85878 0.04164 0.35097 0.0
C1064 C 0.86216 1.00778 0.37322 0.0
C1065 C 0.87417 0.09213 0.35975 0.0
C1066 C 0.89254 0.11214 0.39131 0.0
H1067 H 0.84595 0.02961 0.3258 0.0
H1068 H 0.87231 0.11644 0.34141 0.0
S1069 S 0.90743 0.03988 0.46012 0.0
N1070 N 0.88462 0.99812 0.4294 0.0
N1071 N 0.91232 0.0931 0.44579 0.0
C1072 C 0.89478 0.07855 0.41446 0.0
C1073 C 0.8794 0.0265 0.40553 0.0
C1074 C 0.15164 0.15722 0.60851 0.0
C1075 C 0.17984 0.16269 0.63741 0.0
C1076 C 0.14129 0.1956 0.5987 0.0
C1077 C 0.15863 0.24058 0.61745 0.0
H1078 H 0.13488 0.12192 0.5946 0.0
H1079 H 0.11769 0.18912 0.57704 0.0
S1080 S 0.23844 0.27345 0.69363 0.0
N1081 N 0.22936 0.21743 0.68252 0.0
N1082 N 0.20748 0.28773 0.66592 0.0
C1083 C 0.18851 0.24662 0.64574 0.0
C1084 C 0.20008 0.20834 0.65504 0.0
C1085 C 0.12435 0.9153 0.88593 0.0
C1086 C 0.13637 0.89257 0.85968 0.0
C1087 C 0.07563 0.90991 0.88853 0.0
C1088 C 1.03725 0.88104 0.86523 0.0
H1089 H 0.15335 0.93893 0.90383 0.0
H1090 H 0.06845 0.92995 0.90811 0.0
S1091 S 0.04851 0.81301 0.79255 0.0
N1092 N 0.1051 0.83934 0.81047 0.0
N1093 N 1.01389 0.8292 0.8156 0.0
C1094 C 0.04832 0.85721 0.83949 0.0
C1095 C 0.09794 0.86325 0.83654 0.0
C1096 C 0.85682 0.97644 0.59644 0.0
C1097 C 0.82623 0.94194 0.62122 0.0
C1098 C 0.89637 0.02624 0.60436 0.0
C1099 C 0.9078 0.04303 0.63747 0.0
H1100 H 0.85024 0.96475 0.5707 0.0
H1101 H 0.91947 0.05102 0.58454 0.0
S1102 S 0.84802 0.96388 0.71148 0.0
N1103 N 0.81565 0.92615 0.68028 0.0
N1104 N 0.88998 1.01877 0.69501 0.0
C1105 C 0.87903 1.00813 0.66237 0.0
C1106 C 0.83857 0.95783 0.65434 0.0
C1107 C 0.18797 0.2293 0.90459 0.0
C1108 C 0.18371 0.24644 0.87297 0.0
C1109 C 0.2106 0.19853 0.90905 0.0
C1110 C 0.22883 0.18217 0.88203 0.0
H1111 H 0.17495 0.24083 0.92615 0.0
H1112 H 0.21493 0.18843 0.93403 0.0
S1113 S 0.22563 0.21486 0.79417 0.0
N1114 N 0.1991 0.24288 0.81438 0.0
N1115 N 0.23987 0.18521 0.82262 0.0
C1116 C 0.22256 0.19706 0.85037 0.0
C1117 C 0.20019 0.22869 0.84591 0.0
C1118 C 0.06497 0.8436 0.58566 0.0
C1119 C 0.10066 0.85818 0.61167 0.0
C1120 C 1.01194 0.81952 0.5919 0.0
C1121 C 0.99255 0.81031 0.62444 0.0
H1122 H 0.07815 0.85 0.56026 0.0
H1123 H 0.98586 0.80764 0.57113 0.0
S1124 S 0.06961 0.8453 0.70126 0.0
N1125 N 0.11239 0.8644 0.67131 0.0
N1126 N 1.01342 0.8198 0.68284 0.0
C1127 C 1.02787 0.82637 0.65058 0.0
C1128 C 0.08166 0.85036 0.64427 0.0
C1129 C 0.84314 1.02307 0.84597 0.0
C1130 C 0.87163 0.05727 0.87173 0.0
C1131 C 0.81646 0.97008 0.85072 0.0
C1132 C 0.8162 0.94881 0.88153 0.0
H1133 H 0.84129 0.03734 0.82178 0.0
H1134 H 0.79555 0.94548 0.83025 0.0
S1135 S 0.89001 1.01931 0.95565 0.0
N1136 N 0.90134 0.06439 0.92856 0.0
N1137 N 0.85153 0.96481 0.93695 0.0
C1138 C 0.84675 0.98182 0.90687 0.0
C1139 C 0.87411 0.03594 0.90217 0.0
C1140 C 0.44088 0.2129 0.26734 0.0
C1141 C 0.39516 0.19623 0.28529 0.0
C1142 C 0.44179 0.21585 0.23217 0.0
C1143 C 0.39676 0.2013 0.21389 0.0
H1144 H 0.47499 0.21947 0.28017 0.0
H1145 H 0.47646 0.22415 0.21928 0.0
S1146 S 0.26788 0.15631 0.24973 0.0
N1147 N 0.30532 0.16762 0.28193 0.0
N1148 N 0.30612 0.17186 0.21767 0.0
C1149 C 0.35215 0.18822 0.23217 0.0
C1150 C 0.35152 0.18573 0.26734 0.0
C1151 C 0.7856 0.62567 0.26585 0.0
C1152 C 0.82904 0.65526 0.28573 0.0
C1153 C 0.78779 0.62785 0.23092 0.0
C1154 C 0.83354 0.65928 0.21386 0.0
H1155 H 0.74853 0.60369 0.27741 0.0
H1156 H 0.7525 0.60741 0.21725 0.0
S1157 S 0.96073 0.73448 0.25353 0.0
N1158 N 0.9212 0.70938 0.28511 0.0
N1159 N 0.92513 0.71388 0.21979 0.0
C1160 C 0.87828 0.68433 0.23324 0.0
C1161 C 0.8761 0.68208 0.269 0.0
C1162 C 0.85579 0.235 0.23394 0.0
C1163 C 0.87196 0.20555 0.2162 0.0
C1164 C 0.85046 0.23153 0.26884 0.0
C1165 C 0.86281 0.19969 0.28717 0.0
H1166 H 0.85059 0.2633 0.22108 0.0
H1167 H 0.84193 0.25773 0.28169 0.0
S1168 S 0.90322 0.11229 0.25184 0.0
N1169 N 0.89562 0.14062 0.21945 0.0
N1170 N 0.88857 0.13589 0.28399 0.0
C1171 C 0.87588 0.16805 0.2692 0.0
C1172 C 0.87995 0.17071 0.23401 0.0
C1173 C 0.22583 0.42389 0.72977 0.0
C1174 C 0.20012 0.37669 0.71286 0.0
C1175 C 0.22733 0.42627 0.76511 0.0
C1176 C 0.20452 0.38153 0.78454 0.0
H1177 H 0.24112 0.45895 0.71587 0.0
H1178 H 0.2435 0.46305 0.77715 0.0
S1179 S 0.13362 0.24905 0.75281 0.0
N1180 N 0.1509 0.28465 0.71959 0.0
N1181 N 0.15703 0.28991 0.78369 0.0
C1182 C 0.18153 0.335 0.76764 0.0
C1183 C 0.17857 0.33234 0.73254 0.0
C1184 C 0.20253 0.86489 0.76729 0.0
C1185 C 0.23445 0.84996 0.78262 0.0
C1186 C 0.19822 0.86565 0.73293 0.0
C1187 C 0.22706 0.85319 0.7119 0.0
H1188 H 0.18495 0.88172 0.7816 0.0
H1189 H 0.17497 0.88001 0.72284 0.0
S1190 S 0.31958 0.81454 0.73871 0.0
N1191 N 0.29684 0.82332 0.7738 0.0
N1192 N 0.28971 0.82585 0.70858 0.0
C1193 C 0.2587 0.83707 0.7265 0.0
C1194 C 0.26256 0.83566 0.76195 0.0
C1195 C 0.64864 0.79705 0.73259 0.0
C1196 C 0.67882 0.84217 0.71487 0.0
C1197 C 0.65079 0.79558 0.76732 0.0
C1198 C 0.68039 0.83996 0.78616 0.0
H1199 H 0.62531 0.76188 0.71936 0.0
H1200 H 0.63091 0.7589 0.77947 0.0
S1201 S 0.75038 0.97097 0.75264 0.0
N1202 N 0.7295 0.93431 0.71931 0.0
N1203 N 0.73016 0.93218 0.78473 0.0
C1204 C 0.7042 0.88654 0.76911 0.0
C1205 C 0.70389 0.88765 0.73344 0.0
C1206 C 0.31213 0.0429 0.96846 0.0
C1207 C 0.29793 0.99063 0.96914 0.0
C1208 C 0.32828 0.07444 0.99695 0.0
C1209 C 0.3281 0.0549 0.02844 0.0
H1210 H 0.31122 0.06018 0.94544 0.0
H1211 H 0.33997 0.11407 0.9941 0.0
S1212 S 0.29217 0.91947 0.04477 0.0
N1213 N 0.28994 0.92289 0.00422 0.0
N1214 N 0.306 0.97612 0.05832 0.0
C1215 C 0.31093 1.00155 0.02967 0.0
C1216 C 0.29959 0.97116 0.00014 0.0
C1217 C 0.73638 0.75845 0.46779 0.0
C1218 C 0.7815 0.75489 0.46766 0.0
C1219 C 0.72266 0.77945 0.49437 0.0
C1220 C 0.75425 0.80029 0.52206 0.0
H1221 H 0.71026 0.74438 0.44729 0.0
H1222 H 0.68587 0.77726 0.49378 0.0
S1223 S 0.88225 0.81304 0.5321 0.0
N1224 N 0.86126 0.78202 0.49666 0.0
N1225 N 0.83687 0.82348 0.54576 0.0
C1226 C 0.80161 0.80148 0.5213 0.0
C1227 C 0.81502 0.77872 0.49445 0.0
C1228 C 1.0364 0.31552 0.97479 0.0
C1229 C 0.08248 0.31365 0.9737 0.0
C1230 C 1.00279 0.29795 0.0021 0.0
C1231 C 1.01351 0.27789 0.03009 0.0
H1232 H 1.02594 0.33136 0.95433 0.0
H1233 H 0.96927 0.30201 0.00175 0.0
S1234 S 0.12611 0.26056 0.04018 0.0
N1235 N 0.13448 0.28677 0.00325 0.0
N1236 N 0.07257 0.25502 0.05472 0.0
C1237 C 0.05879 0.27488 0.02936 0.0
C1238 C 0.09285 0.29239 0.00133 0.0
C1239 C 0.31584 1.00696 0.46842 0.0
C1240 C 0.3083 0.04952 0.46669 0.0
C1241 C 0.29528 0.97057 0.49422 0.0
C1242 C 0.26535 0.97445 0.51933 0.0
H1243 H 0.3388 1.00206 0.44984 0.0
H1244 H 0.30474 0.94066 0.4952 0.0
S1245 S 0.22921 0.07507 0.52473 0.0
N1246 N 0.26597 0.09088 0.49163 0.0
N1247 N 0.226 1.02272 0.53912 0.0
C1248 C 0.25567 1.01562 0.51694 0.0
C1249 C 0.2775 0.05306 0.49114 0.0
C1250 C 0.77523 0.70604 0.99741 0.0
C1251 C 0.81096 0.74231 0.0196 0.0
C1252 C 0.75095 0.71931 0.97251 0.0
C1253 C 0.75907 0.76934 0.96898 0.0
H1254 H 0.76442 0.6664 6e-05 0.0
H1255 H 0.72458 0.68942 0.95608 0.0
S1256 S 0.85025 0.87979 0.01986 0.0
N1257 N 0.85477 0.83174 0.03509 0.0
N1258 N 0.80775 0.85585 0.98965 0.0
C1259 C 0.79493 0.80617 0.99084 0.0
C1260 C 0.82084 0.79288 0.01569 0.0
C1261 C 0.03964 0.25853 0.51431 0.0
C1262 C 0.06705 0.31036 0.52398 0.0
C1263 C 0.99792 0.23951 0.49196 0.0
C1264 C 0.97964 0.27072 0.47958 0.0
H1265 H 0.05032 0.23222 0.52446 0.0
H1266 H 0.9808 0.20042 0.48357 0.0
S1267 S 1.03478 0.40801 0.499 0.0
N1268 N 0.07144 0.39184 0.5197 0.0
N1269 N 0.99186 0.35583 0.47981 0.0
C1270 C 1.00588 0.32208 0.48987 0.0
C1271 C 0.04955 0.34188 0.51144 0.0
C1272 C 0.55691 0.1282 0.06566 0.0
C1273 C 0.59079 0.14053 0.09252 0.0
C1274 C 0.51054 0.12742 0.06869 0.0
C1275 C 0.49478 0.13852 0.09878 0.0
H1276 H 0.56658 0.11956 0.04161 0.0
H1277 H 0.48683 0.11866 0.0468 0.0
S1278 S 0.56946 0.1754 0.17683 0.0
N1279 N 0.60523 0.1649 0.15067 0.0
N1280 N 0.51812 0.16495 0.15597 0.0
C1281 C 0.52813 0.15155 0.12603 0.0
C1282 C 0.57599 0.15223 0.12297 0.0
C1283 C 0.65239 0.5643 0.4189 0.0
C1284 C 0.69056 0.5749 0.39534 0.0
C1285 C 0.61049 0.51498 0.4233 0.0
C1286 C 0.60647 0.47213 0.40649 0.0
H1287 H 0.65672 0.59381 0.43594 0.0
H1288 H 0.58318 0.50987 0.44236 0.0
S1289 S 0.6962 0.47882 0.34133 0.0
N1290 N 0.71985 0.53866 0.3531 0.0
N1291 N 0.64391 0.44509 0.36343 0.0
C1292 C 0.64307 0.48237 0.38155 0.0
C1293 C 0.68463 0.53358 0.37588 0.0
C1294 C 0.94637 0.38307 0.0883 0.0
C1295 C 0.9408 0.36416 0.12068 0.0
C1296 C 0.94603 0.42848 0.08166 0.0
C1297 C 0.93949 0.45717 0.10694 0.0
H1298 H 0.94843 0.36123 0.0677 0.0
H1299 H 0.94987 0.44075 0.05615 0.0
S1300 S 0.92538 0.42492 0.19628 0.0
N1301 N 0.92953 0.37807 0.17847 0.0
N1302 N 0.92979 0.46362 0.16613 0.0
C1303 C 0.93487 0.43908 0.13953 0.0
C1304 C 0.93532 0.39275 0.14629 0.0
C1305 C 0.48443 0.09484 0.40152 0.0
C1306 C 0.47011 0.12324 0.38118 0.0
C1307 C 0.53569 0.10824 0.40572 0.0
C1308 C 0.57555 0.1519 0.39073 0.0
H1309 H 0.45665 0.06581 0.4177 0.0
H1310 H 0.54451 0.08768 0.42394 0.0
S1311 S 0.55934 0.23666 0.33243 0.0
N1312 N 0.5004 0.19391 0.34293 0.0
N1313 N 0.597 0.22047 0.35193 0.0
C1314 C 0.5619 0.17782 0.36782 0.0
C1315 C 0.50922 0.16324 0.36286 0.0
C1316 C 0.64828 0.49613 0.07384 0.0
C1317 C 0.61936 0.48045 0.10298 0.0
C1318 C 0.69445 0.54266 0.07217 0.0
C1319 C 0.71503 0.57595 0.09967 0.0
H1320 H 0.63411 0.47304 0.05165 0.0
H1321 H 0.71436 0.55268 0.04868 0.0
S1322 S 0.65353 0.55245 0.18217 0.0
N1323 N 0.61328 0.50247 0.15996 0.0
N1324 N 0.70214 0.58821 0.1576 0.0
C1325 C 0.68688 0.56024 0.12935 0.0
C1326 C 0.63863 0.51317 0.13072 0.0
C1327 C 0.95336 0.45479 0.41669 0.0
C1328 C 0.92819 0.46757 0.3924 0.0
C1329 C 0.95423 0.40905 0.41574 0.0
C1330 C 0.93006 0.37258 0.39063 0.0
H1331 H 0.97221 0.48026 0.43734 0.0
H1332 H 0.97293 0.4015 0.43573 0.0
S1333 S 0.8582 0.38536 0.32049 0.0
N1334 N 0.87875 0.43906 0.34146 0.0
N1335 N 0.87882 0.35185 0.34066 0.0
C1336 C 0.90459 0.38424 0.3659 0.0
C1337 C 0.90397 0.4317 0.36661 0.0
C1338 C 0.12008 0.53097 0.57773 0.0
C1339 C 0.16229 0.57274 0.59284 0.0
C1340 C 0.10778 0.48078 0.58438 0.0
C1341 C 0.13606 0.46971 0.60701 0.0
H1342 H 0.09937 0.53727 0.55822 0.0
H1343 H 0.07895 0.45073 0.56926 0.0
S1344 S 0.24367 0.56428 0.65819 0.0
N1345 N 0.22793 0.59914 0.6351 0.0
N1346 N 0.20332 0.50437 0.64827 0.0
C1347 C 0.17401 0.51058 0.62546 0.0
C1348 C 0.18739 0.56215 0.61827 0.0
C1349 C 0.40229 0.88534 0.86473 0.0
C1350 C 0.37926 0.90621 0.88486 0.0
C1351 C 0.44215 0.87831 0.87648 0.0
C1352 C 0.46156 0.89256 0.9089 0.0
H1353 H 0.38646 0.87037 0.84048 0.0
H1354 H 0.45497 0.85805 0.86075 0.0
S1355 S 0.42022 0.957 0.96983 0.0
N1356 N 0.38096 0.94368 0.93825 0.0
N1357 N 0.46027 0.93781 0.95865 0.0
C1358 C 0.44251 0.91879 0.92792 0.0
C1359 C 0.40029 0.92367 0.91644 0.0
C1360 C 0.551 0.68226 0.6273 0.0
C1361 C 0.58756 0.69877 0.60155 0.0
C1362 C 0.50368 0.63549 0.62512 0.0
C1363 C 0.49056 0.60365 0.59687 0.0
H1364 H 0.55828 0.70642 0.64876 0.0
H1365 H 0.47735 0.62413 0.6457 0.0
S1366 S 0.57249 0.63042 0.52242 0.0
N1367 N 0.60643 0.67958 0.54699 0.0
N1368 N 0.51915 0.59335 0.54264 0.0
C1369 C 0.52714 0.62018 0.57119 0.0
C1370 C 0.57483 0.66713 0.57354 0.0
C1371 C 0.15097 0.54149 0.92645 0.0
C1372 C 0.18746 0.58137 0.90678 0.0
C1373 C 0.13797 0.49052 0.92109 0.0
C1374 C 0.15944 0.47614 0.89514 0.0
H1375 H 0.13625 0.55036 0.94837 0.0
H1376 H 0.11458 0.46274 0.93955 0.0
S1377 S 0.25408 0.56515 0.83473 0.0
N1378 N 0.24289 0.60246 0.85896 0.0
N1379 N 0.21704 0.5065 0.84826 0.0
C1380 C 0.19266 0.51506 0.8735 0.0
C1381 C 0.20686 0.5675 0.87939 0.0
C1382 C 0.40588 0.92994 0.63693 0.0
C1383 C 0.37204 0.92775 0.61199 0.0
C1384 C 0.45181 0.93031 0.6294 0.0
C1385 C 0.4661 0.92815 0.59648 0.0
H1386 H 0.39547 0.92887 0.6627 0.0
H1387 H 0.47615 0.93198 0.64957 0.0
S1388 S 0.38997 0.91859 0.52185 0.0
N1389 N 0.35575 0.92087 0.5529 0.0
N1390 N 0.44154 0.92269 0.5387 0.0
C1391 C 0.43286 0.92647 0.57131 0.0
C1392 C 0.38618 0.92592 0.57901 0.0
C1393 C 0.56032 0.65766 0.85389 0.0
C1394 C 0.60057 0.6819 0.87708 0.0
C1395 C 0.5146 0.61214 0.86134 0.0
C1396 C 0.50665 0.58901 0.8926 0.0
H1397 H 0.56333 0.67543 0.83014 0.0
H1398 H 0.48511 0.59535 0.8426 0.0
S1399 S 0.59954 0.63768 0.96265 0.0
N1400 N 0.62934 0.67807 0.93234 0.0
N1401 N 0.54337 0.59569 0.94743 0.0
C1402 C 0.54698 0.61287 0.91593 0.0
C1403 C 0.59383 0.65825 0.90792 0.0
loop_
_geom_bond_atom_site_label_1
_geom_bond_atom_site_label_2
_geom_bond_distance
_geom_bond_site_symmetry_2
_ccdc_geom_bond_type
Tb0 N31 2.660 . S
Tb0 N38 2.600 . S
Tb0 O44 2.546 . S
Tb0 O45 2.610 . S
Tb0 O47 2.320 . S
Tb0 O48 2.552 . S
Tb0 O49 2.413 . S
Tb0 O51 2.362 . S
Tb0 O52 2.421 . S
Tb0 C64 2.833 . S
C1 C4 1.432 . S
C1 C5 1.414 1_545 S
C1 N8 1.359 . S
C2 C4 1.417 1_565 S
C2 C6 1.432 . S
C2 C14 1.410 . S
C3 C5 1.444 . S
C3 C6 1.317 . S
C3 H26 0.929 . S
C4 C1 1.432 . S
C4 C2 1.417 1_545 S
C4 N12 1.360 . S
C5 C1 1.414 1_565 S
C5 C3 1.444 . S
C5 C10 1.385 1_565 S
C6 C2 1.432 . S
C6 C3 1.317 . S
C6 H18 0.930 . S
C7 C9 1.392 . S
C7 C10 1.370 . S
C7 H19 0.931 . S
N8 C1 1.359 . S
N8 C9 1.327 . S
N8 Tb11 2.600 . S
C9 C7 1.392 . S
C9 N8 1.327 . S
C9 H16 0.930 . S
C10 C5 1.385 1_545 S
C10 C7 1.370 . S
C10 H29 0.930 1_545 S
Tb11 N8 2.600 . S
Tb11 N12 2.660 . S
Tb11 O45 2.362 . S
Tb11 O46 2.421 . S
Tb11 O50 2.546 . S
Tb11 O51 2.610 . S
Tb11 O53 2.320 . S
Tb11 O54 2.552 . S
Tb11 O55 2.413 . S
Tb11 C75 2.833 1_545 S
N12 C4 1.360 . S
N12 Tb11 2.660 . S
N12 C13 1.305 . S
C13 N12 1.305 . S
C13 C15 1.407 . S
C13 H20 0.930 . S
C14 C2 1.410 . S
C14 C15 1.345 1_565 S
C14 H22 0.930 . S
C15 C13 1.407 . S
C15 C14 1.345 1_545 S
C15 H17 0.930 . S
H16 C9 0.930 . S
H17 C15 0.930 . S
H18 C6 0.930 . S
H19 C7 0.931 . S
H20 C13 0.930 . S
H21 C35 0.930 . S
H22 C14 0.930 . S
H23 C41 0.930 . S
H24 C32 0.930 . S
H25 C39 0.931 . S
H26 C3 0.929 . S
H27 C33 0.930 . S
H28 C66 0.930 . S
H29 C10 0.930 1_565 S
H30 C65 0.929 . S
N31 Tb0 2.660 . S
N31 C32 1.305 . S
N31 C36 1.360 . S
C32 H24 0.930 . S
C32 N31 1.305 . S
C32 C35 1.407 . S
C33 H27 0.930 . S
C33 C34 1.410 . S
C33 C35 1.345 . S
C34 C33 1.410 . S
C34 C36 1.417 . S
C34 C66 1.432 . S
C35 H21 0.930 . S
C35 C32 1.407 . S
C35 C33 1.345 . S
C36 N31 1.360 . S
C36 C34 1.417 . S
C36 C40 1.432 . S
H37 C42 0.930 . S
N38 Tb0 2.600 . S
N38 C40 1.359 . S
N38 C41 1.327 . S
C39 H25 0.931 . S
C39 C41 1.392 1_556 S
C39 C42 1.370 . S
C40 C36 1.432 . S
C40 N38 1.359 . S
C40 C43 1.414 . S
C41 H23 0.930 . S
C41 N38 1.327 . S
C41 C39 1.392 1_554 S
C42 H37 0.930 . S
C42 C39 1.370 . S
C42 C43 1.385 1_556 S
C43 C40 1.414 . S
C43 C42 1.385 1_554 S
C43 C65 1.444 . S
O44 Tb0 2.546 . S
O44 C64 1.251 . S
O45 Tb0 2.610 . S
O45 Tb11 2.362 . S
O45 C56 1.283 . S
O46 Tb11 2.421 . S
O46 C63 1.262 . S
O47 Tb0 2.320 . S
O47 C63 1.260 . S
O48 Tb0 2.552 . S
O48 C56 1.243 . S
O49 Tb0 2.413 . S
O49 C64 1.256 . S
O50 Tb11 2.546 . S
O50 C75 1.251 1_545 S
O51 Tb0 2.362 . S
O51 Tb11 2.610 . S
O51 C67 1.283 . S
O52 Tb0 2.421 . S
O52 C74 1.262 . S
O53 Tb11 2.320 . S
O53 C74 1.260 . S
O54 Tb11 2.552 . S
O54 C67 1.243 . S
O55 Tb11 2.413 . S
O55 C75 1.256 1_545 S
C56 O45 1.283 . S
C56 O48 1.243 . S
C57 C59 1.382 . S
C57 C61 1.393 . S
C57 C64 1.500 . S
C58 C59 1.400 . S
C58 C60 1.384 . S
C59 C57 1.382 . S
C59 C58 1.400 . S
C59 H76 0.930 . S
C60 C58 1.384 . S
C60 C62 1.392 . S
C60 H77 0.931 . S
C61 C57 1.393 . S
C61 C62 1.401 . S
C61 H78 0.930 . S
C62 C60 1.392 . S
C62 C61 1.401 . S
C62 H79 0.930 . S
C63 O46 1.262 . S
C63 O47 1.260 . S
C64 Tb0 2.833 . S
C64 O44 1.251 . S
C64 O49 1.256 . S
C64 C57 1.500 . S
C65 H30 0.929 . S
C65 C43 1.444 . S
C65 C66 1.317 . S
C66 H28 0.930 . S
C66 C34 1.432 . S
C66 C65 1.317 . S
C67 O51 1.283 . S
C67 O54 1.243 . S
C68 C69 1.382 . S
C68 C72 1.393 . S
C68 C75 1.500 . S
C69 C68 1.382 . S
C69 C70 1.400 . S
C69 H80 0.930 . S
C70 C69 1.400 . S
C70 C71 1.384 . S
C71 C70 1.384 . S
C71 C73 1.392 . S
C71 H81 0.931 . S
C72 C68 1.393 . S
C72 C73 1.401 . S
C72 H82 0.930 . S
C73 C71 1.392 . S
C73 C72 1.401 . S
C73 H83 0.930 . S
C74 O52 1.262 . S
C74 O53 1.260 . S
C75 Tb11 2.833 1_565 S
C75 O50 1.251 1_565 S
C75 O55 1.256 1_565 S
C75 C68 1.500 . S
H76 C59 0.930 . S
H77 C60 0.931 . S
H78 C61 0.930 . S
H79 C62 0.930 . S
H80 C69 0.930 . S
H81 C71 0.931 . S
H82 C72 0.930 . S
H83 C73 0.930 . S
Tb84 N115 2.660 . S
Tb84 N122 2.600 . S
Tb84 O128 2.546 . S
Tb84 O129 2.610 . S
Tb84 O131 2.320 . S
Tb84 O132 2.552 . S
Tb84 O133 2.413 . S
Tb84 O135 2.362 . S
Tb84 O136 2.421 . S
Tb84 C148 2.833 . S
C85 C88 1.432 . S
C85 C89 1.414 . S
C85 N92 1.359 . S
C86 C88 1.417 1_455 S
C86 C90 1.432 . S
C86 C98 1.410 . S
C87 C89 1.444 1_455 S
C87 C90 1.317 . S
C87 H110 0.929 . S
C88 C85 1.432 . S
C88 C86 1.417 1_655 S
C88 N96 1.360 . S
C89 C85 1.414 . S
C89 C87 1.444 1_655 S
C89 C94 1.385 . S
C90 C86 1.432 . S
C90 C87 1.317 . S
C90 H102 0.930 . S
C91 C93 1.392 . S
C91 C94 1.370 . S
C91 H103 0.931 . S
N92 C85 1.359 . S
N92 C93 1.327 . S
N92 Tb95 2.600 . S
C93 C91 1.392 . S
C93 N92 1.327 . S
C93 H100 0.930 . S
C94 C89 1.385 . S
C94 C91 1.370 . S
C94 H113 0.930 . S
Tb95 N92 2.600 . S
Tb95 N96 2.660 . S
Tb95 O129 2.362 . S
Tb95 O130 2.421 . S
Tb95 O134 2.546 . S
Tb95 O135 2.610 . S
Tb95 O137 2.320 . S
Tb95 O138 2.552 . S
Tb95 O139 2.413 . S
Tb95 C159 2.833 . S
N96 C88 1.360 . S
N96 Tb95 2.660 . S
N96 C97 1.305 . S
C97 N96 1.305 . S
C97 C99 1.407 1_655 S
C97 H104 0.930 . S
C98 C86 1.410 . S
C98 C99 1.345 . S
C98 H106 0.930 . S
C99 C97 1.407 1_455 S
C99 C98 1.345 . S
C99 H101 0.930 . S
H100 C93 0.930 . S
H101 C99 0.930 . S
H102 C90 0.930 . S
H103 C91 0.931 . S
H104 C97 0.930 . S
H105 C119 0.930 . S
H106 C98 0.930 . S
H107 C125 0.930 . S
H108 C116 0.930 . S
H109 C123 0.931 . S
H110 C87 0.929 . S
H111 C117 0.930 . S
H112 C150 0.930 . S
H113 C94 0.930 . S
H114 C149 0.929 . S
N115 Tb84 2.660 . S
N115 C116 1.305 . S
N115 C120 1.360 . S
C116 H108 0.930 . S
C116 N115 1.305 . S
C116 C119 1.407 . S
C117 H111 0.930 . S
C117 C118 1.410 . S
C117 C119 1.345 . S
C118 C117 1.410 . S
C118 C120 1.417 . S
C118 C150 1.432 . S
C119 H105 0.930 . S
C119 C116 1.407 . S
C119 C117 1.345 . S
C120 N115 1.360 . S
C120 C118 1.417 . S
C120 C124 1.432 . S
H121 C126 0.930 . S
N122 Tb84 2.600 . S
N122 C124 1.359 . S
N122 C125 1.327 . S
C123 H109 0.931 . S
C123 C125 1.392 . S
C123 C126 1.370 . S
C124 C120 1.432 . S
C124 N122 1.359 . S
C124 C127 1.414 . S
C125 H107 0.930 . S
C125 N122 1.327 . S
C125 C123 1.392 . S
C126 H121 0.930 . S
C126 C123 1.370 . S
C126 C127 1.385 . S
C127 C124 1.414 . S
C127 C126 1.385 . S
C127 C149 1.444 . S
O128 Tb84 2.546 . S
O128 C148 1.251 . S
O129 Tb84 2.610 . S
O129 Tb95 2.362 . S
O129 C140 1.283 . S
O130 Tb95 2.421 . S
O130 C147 1.262 . S
O131 Tb84 2.320 . S
O131 C147 1.260 . S
O132 Tb84 2.552 . S
O132 C140 1.243 . S
O133 Tb84 2.413 . S
O133 C148 1.256 . S
O134 Tb95 2.546 . S
O134 C159 1.251 . S
O135 Tb84 2.362 . S
O135 Tb95 2.610 . S
O135 C151 1.283 . S
O136 Tb84 2.421 . S
O136 C158 1.262 . S
O137 Tb95 2.320 . S
O137 C158 1.260 . S
O138 Tb95 2.552 . S
O138 C151 1.243 . S
O139 Tb95 2.413 . S
O139 C159 1.256 . S
C140 O129 1.283 . S
C140 O132 1.243 . S
C141 C143 1.382 . S
C141 C145 1.393 . S
C141 C148 1.500 . S
C142 C143 1.400 . S
C142 C144 1.384 . S
C143 C141 1.382 . S
C143 C142 1.400 . S
C143 H160 0.930 . S
C144 C142 1.384 . S
C144 C146 1.392 . S
C144 H161 0.931 . S
C145 C141 1.393 . S
C145 C146 1.401 . S
C145 H162 0.930 . S
C146 C144 1.392 . S
C146 C145 1.401 . S
C146 H163 0.930 . S
C147 O130 1.262 . S
C147 O131 1.260 . S
C148 Tb84 2.833 . S
C148 O128 1.251 . S
C148 O133 1.256 . S
C148 C141 1.500 . S
C149 H114 0.929 . S
C149 C127 1.444 . S
C149 C150 1.317 . S
C150 H112 0.930 . S
C150 C118 1.432 . S
C150 C149 1.317 . S
C151 O135 1.283 . S
C151 O138 1.243 . S
C152 C153 1.382 . S
C152 C156 1.393 . S
C152 C159 1.500 . S
C153 C152 1.382 . S
C153 C154 1.400 . S
C153 H164 0.930 . S
C154 C153 1.400 . S
C154 C155 1.384 . S
C155 C154 1.384 . S
C155 C157 1.392 . S
C155 H165 0.931 . S
C156 C152 1.393 . S
C156 C157 1.401 . S
C156 H166 0.930 . S
C157 C155 1.392 . S
C157 C156 1.401 . S
C157 H167 0.930 . S
C158 O136 1.262 . S
C158 O137 1.260 . S
C159 Tb95 2.833 . S
C159 O134 1.251 . S
C159 O139 1.256 . S
C159 C152 1.500 . S
H160 C143 0.930 . S
H161 C144 0.931 . S
H162 C145 0.930 . S
H163 C146 0.930 . S
H164 C153 0.930 . S
H165 C155 0.931 . S
H166 C156 0.930 . S
H167 C157 0.930 . S
Tb168 N199 2.660 . S
Tb168 N206 2.600 . S
Tb168 O212 2.546 . S
Tb168 O213 2.610 . S
Tb168 O215 2.320 . S
Tb168 O216 2.552 . S
Tb168 O217 2.413 . S
Tb168 O219 2.362 . S
Tb168 O220 2.421 . S
Tb168 C232 2.833 . S
C169 C172 1.432 . S
C169 C173 1.414 1_655 S
C169 N176 1.359 . S
C170 C172 1.417 1_455 S
C170 C174 1.432 . S
C170 C182 1.410 . S
C171 C173 1.444 . S
C171 C174 1.317 . S
C171 H194 0.929 . S
C172 C169 1.432 . S
C172 C170 1.417 1_655 S
C172 N180 1.360 . S
C173 C169 1.414 1_455 S
C173 C171 1.444 . S
C173 C178 1.385 1_455 S
C174 C170 1.432 . S
C174 C171 1.317 . S
C174 H186 0.930 . S
C175 C177 1.392 . S
C175 C178 1.370 . S
C175 H187 0.931 . S
N176 C169 1.359 . S
N176 C177 1.327 . S
N176 Tb179 2.600 . S
C177 C175 1.392 . S
C177 N176 1.327 . S
C177 H184 0.930 . S
C178 C173 1.385 1_655 S
C178 C175 1.370 . S
C178 H197 0.930 1_655 S
Tb179 N176 2.600 . S
Tb179 N180 2.660 . S
Tb179 O213 2.362 . S
Tb179 O214 2.421 . S
Tb179 O218 2.546 . S
Tb179 O219 2.610 . S
Tb179 O221 2.320 . S
Tb179 O222 2.552 . S
Tb179 O223 2.413 . S
Tb179 C243 2.833 1_655 S
N180 C172 1.360 . S
N180 Tb179 2.660 . S
N180 C181 1.305 . S
C181 N180 1.305 . S
C181 C183 1.407 . S
C181 H188 0.930 . S
C182 C170 1.410 . S
C182 C183 1.345 1_455 S
C182 H190 0.930 . S
C183 C181 1.407 . S
C183 C182 1.345 1_655 S
C183 H185 0.930 . S
H184 C177 0.930 . S
H185 C183 0.930 . S
H186 C174 0.930 . S
H187 C175 0.931 . S
H188 C181 0.930 . S
H189 C203 0.930 . S
H190 C182 0.930 . S
H191 C209 0.930 . S
H192 C200 0.930 . S
H193 C207 0.931 . S
H194 C171 0.929 . S
H195 C201 0.930 . S
H196 C234 0.930 . S
H197 C178 0.930 1_455 S
H198 C233 0.929 . S
N199 Tb168 2.660 . S
N199 C200 1.305 . S
N199 C204 1.360 . S
C200 H192 0.930 . S
C200 N199 1.305 . S
C200 C203 1.407 1_545 S
C201 H195 0.930 . S
C201 C202 1.410 . S
C201 C203 1.345 . S
C202 C201 1.410 . S
C202 C204 1.417 1_565 S
C202 C234 1.432 . S
C203 H189 0.930 . S
C203 C200 1.407 1_565 S
C203 C201 1.345 . S
C204 N199 1.360 . S
C204 C202 1.417 1_545 S
C204 C208 1.432 . S
H205 C210 0.930 . S
N206 Tb168 2.600 . S
N206 C208 1.359 . S
N206 C209 1.327 . S
C207 H193 0.931 . S
C207 C209 1.392 1_556 S
C207 C210 1.370 . S
C208 C204 1.432 . S
C208 N206 1.359 . S
C208 C211 1.414 . S
C209 H191 0.930 . S
C209 N206 1.327 . S
C209 C207 1.392 1_554 S
C210 H205 0.930 . S
C210 C207 1.370 . S
C210 C211 1.385 1_556 S
C211 C208 1.414 . S
C211 C210 1.385 1_554 S
C211 C233 1.444 1_545 S
O212 Tb168 2.546 . S
O212 C232 1.251 . S
O213 Tb168 2.610 . S
O213 Tb179 2.362 . S
O213 C224 1.283 . S
O214 Tb179 2.421 . S
O214 C231 1.262 . S
O215 Tb168 2.320 . S
O215 C231 1.260 . S
O216 Tb168 2.552 . S
O216 C224 1.243 . S
O217 Tb168 2.413 . S
O217 C232 1.256 . S
O218 Tb179 2.546 . S
O218 C243 1.251 1_655 S
O219 Tb168 2.362 . S
O219 Tb179 2.610 . S
O219 C235 1.283 . S
O220 Tb168 2.421 . S
O220 C242 1.262 . S
O221 Tb179 2.320 . S
O221 C242 1.260 . S
O222 Tb179 2.552 . S
O222 C235 1.243 . S
O223 Tb179 2.413 . S
O223 C243 1.256 1_655 S
C224 O213 1.283 . S
C224 O216 1.243 . S
C225 C227 1.382 . S
C225 C229 1.393 . S
C225 C232 1.500 . S
C226 C227 1.400 . S
C226 C228 1.384 . S
C227 C225 1.382 . S
C227 C226 1.400 . S
C227 H244 0.930 . S
C228 C226 1.384 . S
C228 C230 1.392 . S
C228 H245 0.931 . S
C229 C225 1.393 . S
C229 C230 1.401 . S
C229 H246 0.930 . S
C230 C228 1.392 . S
C230 C229 1.401 . S
C230 H247 0.930 . S
C231 O214 1.262 . S
C231 O215 1.260 . S
C232 Tb168 2.833 . S
C232 O212 1.251 . S
C232 O217 1.256 . S
C232 C225 1.500 . S
C233 H198 0.929 . S
C233 C211 1.444 1_565 S
C233 C234 1.317 . S
C234 H196 0.930 . S
C234 C202 1.432 . S
C234 C233 1.317 . S
C235 O219 1.283 . S
C235 O222 1.243 . S
C236 C237 1.382 . S
C236 C240 1.393 . S
C236 C243 1.500 . S
C237 C236 1.382 . S
C237 C238 1.400 . S
C237 H248 0.930 . S
C238 C237 1.400 . S
C238 C239 1.384 . S
C239 C238 1.384 . S
C239 C241 1.392 . S
C239 H249 0.931 . S
C240 C236 1.393 . S
C240 C241 1.401 . S
C240 H250 0.930 . S
C241 C239 1.392 . S
C241 C240 1.401 . S
C241 H251 0.930 . S
C242 O220 1.262 . S
C242 O221 1.260 . S
C243 Tb179 2.833 1_455 S
C243 O218 1.251 1_455 S
C243 O223 1.256 1_455 S
C243 C236 1.500 . S
H244 C227 0.930 . S
H245 C228 0.931 . S
H246 C229 0.930 . S
H247 C230 0.930 . S
H248 C237 0.930 . S
H249 C239 0.931 . S
H250 C240 0.930 . S
H251 C241 0.930 . S
Tb252 N283 2.660 . S
Tb252 N290 2.600 . S
Tb252 O296 2.546 . S
Tb252 O297 2.610 . S
Tb252 O299 2.320 . S
Tb252 O300 2.552 . S
Tb252 O301 2.413 . S
Tb252 O303 2.362 . S
Tb252 O304 2.421 . S
Tb252 C316 2.833 1_545 S
C253 C256 1.432 . S
C253 C257 1.414 . S
C253 N260 1.359 . S
C254 C256 1.417 . S
C254 C258 1.432 . S
C254 C266 1.410 . S
C255 C257 1.444 . S
C255 C258 1.317 . S
C255 H278 0.929 . S
C256 C253 1.432 . S
C256 C254 1.417 . S
C256 N264 1.360 . S
C257 C253 1.414 . S
C257 C255 1.444 . S
C257 C262 1.385 . S
C258 C254 1.432 . S
C258 C255 1.317 . S
C258 H270 0.930 . S
C259 C261 1.392 . S
C259 C262 1.370 . S
C259 H271 0.931 . S
N260 C253 1.359 . S
N260 C261 1.327 . S
N260 Tb263 2.600 . S
C261 C259 1.392 . S
C261 N260 1.327 . S
C261 H268 0.930 . S
C262 C257 1.385 . S
C262 C259 1.370 . S
C262 H281 0.930 . S
Tb263 N260 2.600 . S
Tb263 N264 2.660 . S
Tb263 O297 2.362 . S
Tb263 O298 2.421 . S
Tb263 O302 2.546 . S
Tb263 O303 2.610 . S
Tb263 O305 2.320 . S
Tb263 O306 2.552 . S
Tb263 O307 2.413 . S
Tb263 C327 2.833 . S
N264 C256 1.360 . S
N264 Tb263 2.660 . S
N264 C265 1.305 . S
C265 N264 1.305 . S
C265 C267 1.407 . S
C265 H272 0.930 . S
C266 C254 1.410 . S
C266 C267 1.345 . S
C266 H274 0.930 . S
C267 C265 1.407 . S
C267 C266 1.345 . S
C267 H269 0.930 . S
H268 C261 0.930 . S
H269 C267 0.930 . S
H270 C258 0.930 . S
H271 C259 0.931 . S
H272 C265 0.930 . S
H273 C287 0.930 . S
H274 C266 0.930 . S
H275 C293 0.930 . S
H276 C284 0.930 . S
H277 C291 0.931 . S
H278 C255 0.929 . S
H279 C285 0.930 . S
H280 C318 0.930 . S
H281 C262 0.930 . S
H282 C317 0.929 . S
N283 Tb252 2.660 . S
N283 C284 1.305 . S
N283 C288 1.360 . S
C284 H276 0.930 . S
C284 N283 1.305 . S
C284 C287 1.407 . S
C285 H279 0.930 . S
C285 C286 1.410 . S
C285 C287 1.345 1_565 S
C286 C285 1.410 . S
C286 C288 1.417 1_565 S
C286 C318 1.432 . S
C287 H273 0.930 . S
C287 C284 1.407 . S
C287 C285 1.345 1_545 S
C288 N283 1.360 . S
C288 C286 1.417 1_545 S
C288 C292 1.432 . S
H289 C294 0.930 1_565 S
N290 Tb252 2.600 . S
N290 C292 1.359 . S
N290 C293 1.327 . S
C291 H277 0.931 . S
C291 C293 1.392 . S
C291 C294 1.370 . S
C292 C288 1.432 . S
C292 N290 1.359 . S
C292 C295 1.414 1_545 S
C293 H275 0.930 . S
C293 N290 1.327 . S
C293 C291 1.392 . S
C294 H289 0.930 1_545 S
C294 C291 1.370 . S
C294 C295 1.385 1_545 S
C295 C292 1.414 1_565 S
C295 C294 1.385 1_565 S
C295 C317 1.444 . S
O296 Tb252 2.546 . S
O296 C316 1.251 1_545 S
O297 Tb252 2.610 . S
O297 Tb263 2.362 . S
O297 C308 1.283 . S
O298 Tb263 2.421 . S
O298 C315 1.262 . S
O299 Tb252 2.320 . S
O299 C315 1.260 . S
O300 Tb252 2.552 . S
O300 C308 1.243 . S
O301 Tb252 2.413 . S
O301 C316 1.256 1_545 S
O302 Tb263 2.546 . S
O302 C327 1.251 . S
O303 Tb252 2.362 . S
O303 Tb263 2.610 . S
O303 C319 1.283 . S
O304 Tb252 2.421 . S
O304 C326 1.262 . S
O305 Tb263 2.320 . S
O305 C326 1.260 . S
O306 Tb263 2.552 . S
O306 C319 1.243 . S
O307 Tb263 2.413 . S
O307 C327 1.256 . S
C308 O297 1.283 . S
C308 O300 1.243 . S
C309 C311 1.382 . S
C309 C313 1.393 . S
C309 C316 1.500 . S
C310 C311 1.400 . S
C310 C312 1.384 . S
C311 C309 1.382 . S
C311 C310 1.400 . S
C311 H328 0.930 . S
C312 C310 1.384 . S
C312 C314 1.392 . S
C312 H329 0.931 . S
C313 C309 1.393 . S
C313 C314 1.401 . S
C313 H330 0.930 . S
C314 C312 1.392 . S
C314 C313 1.401 . S
C314 H331 0.930 . S
C315 O298 1.262 . S
C315 O299 1.260 . S
C316 Tb252 2.833 1_565 S
C316 O296 1.251 1_565 S
C316 O301 1.256 1_565 S
C316 C309 1.500 . S
C317 H282 0.929 . S
C317 C295 1.444 . S
C317 C318 1.317 . S
C318 H280 0.930 . S
C318 C286 1.432 . S
C318 C317 1.317 . S
C319 O303 1.283 . S
C319 O306 1.243 . S
C320 C321 1.382 . S
C320 C324 1.393 . S
C320 C327 1.500 . S
C321 C320 1.382 . S
C321 C322 1.400 . S
C321 H332 0.930 . S
C322 C321 1.400 . S
C322 C323 1.384 . S
C323 C322 1.384 . S
C323 C325 1.392 . S
C323 H333 0.931 . S
C324 C320 1.393 . S
C324 C325 1.401 . S
C324 H334 0.930 . S
C325 C323 1.392 . S
C325 C324 1.401 . S
C325 H335 0.930 . S
C326 O304 1.262 . S
C326 O305 1.260 . S
C327 Tb263 2.833 . S
C327 O302 1.251 . S
C327 O307 1.256 . S
C327 C320 1.500 . S
H328 C311 0.930 . S
H329 C312 0.931 . S
H330 C313 0.930 . S
H331 C314 0.930 . S
H332 C321 0.930 . S
H333 C323 0.931 . S
H334 C324 0.930 . S
H335 C325 0.930 . S
Tb336 N367 2.660 . S
Tb336 N374 2.600 . S
Tb336 O380 2.546 . S
Tb336 O381 2.610 . S
Tb336 O383 2.320 . S
Tb336 O384 2.552 . S
Tb336 O385 2.413 . S
Tb336 O387 2.362 . S
Tb336 O388 2.421 . S
Tb336 C400 2.833 . S
C337 C340 1.432 . S
C337 C341 1.414 . S
C337 N344 1.359 . S
C338 C340 1.417 . S
C338 C342 1.432 . S
C338 C350 1.410 . S
C339 C341 1.444 . S
C339 C342 1.317 . S
C339 H362 0.929 . S
C340 C337 1.432 . S
C340 C338 1.417 . S
C340 N348 1.360 . S
C341 C337 1.414 . S
C341 C339 1.444 . S
C341 C346 1.385 . S
C342 C338 1.432 . S
C342 C339 1.317 . S
C342 H354 0.930 . S
C343 C345 1.392 . S
C343 C346 1.370 . S
C343 H355 0.931 . S
N344 C337 1.359 . S
N344 C345 1.327 . S
N344 Tb347 2.600 . S
C345 C343 1.392 . S
C345 N344 1.327 . S
C345 H352 0.930 . S
C346 C341 1.385 . S
C346 C343 1.370 . S
C346 H365 0.930 . S
Tb347 N344 2.600 . S
Tb347 N348 2.660 . S
Tb347 O381 2.362 . S
Tb347 O382 2.421 . S
Tb347 O386 2.546 . S
Tb347 O387 2.610 . S
Tb347 O389 2.320 . S
Tb347 O390 2.552 . S
Tb347 O391 2.413 . S
Tb347 C411 2.833 . S
N348 C340 1.360 . S
N348 Tb347 2.660 . S
N348 C349 1.305 . S
C349 N348 1.305 . S
C349 C351 1.407 . S
C349 H356 0.930 . S
C350 C338 1.410 . S
C350 C351 1.345 . S
C350 H358 0.930 . S
C351 C349 1.407 . S
C351 C350 1.345 . S
C351 H353 0.930 . S
H352 C345 0.930 . S
H353 C351 0.930 . S
H354 C342 0.930 . S
H355 C343 0.931 . S
H356 C349 0.930 . S
H357 C371 0.930 . S
H358 C350 0.930 . S
H359 C377 0.930 . S
H360 C368 0.930 . S
H361 C375 0.931 . S
H362 C339 0.929 . S
H363 C369 0.930 . S
H364 C402 0.930 . S
H365 C346 0.930 . S
H366 C401 0.929 . S
N367 Tb336 2.660 . S
N367 C368 1.305 . S
N367 C372 1.360 . S
C368 H360 0.930 . S
C368 N367 1.305 . S
C368 C371 1.407 1_655 S
C369 H363 0.930 . S
C369 C370 1.410 . S
C369 C371 1.345 . S
C370 C369 1.410 . S
C370 C372 1.417 1_455 S
C370 C402 1.432 . S
C371 H357 0.930 . S
C371 C368 1.407 1_455 S
C371 C369 1.345 . S
C372 N367 1.360 . S
C372 C370 1.417 1_655 S
C372 C376 1.432 . S
H373 C378 0.930 . S
N374 Tb336 2.600 . S
N374 C376 1.359 . S
N374 C377 1.327 . S
C375 H361 0.931 . S
C375 C377 1.392 1_556 S
C375 C378 1.370 . S
C376 C372 1.432 . S
C376 N374 1.359 . S
C376 C379 1.414 . S
C377 H359 0.930 . S
C377 N374 1.327 . S
C377 C375 1.392 1_554 S
C378 H373 0.930 . S
C378 C375 1.370 . S
C378 C379 1.385 1_556 S
C379 C376 1.414 . S
C379 C378 1.385 1_554 S
C379 C401 1.444 1_655 S
O380 Tb336 2.546 . S
O380 C400 1.251 . S
O381 Tb336 2.610 . S
O381 Tb347 2.362 . S
O381 C392 1.283 . S
O382 Tb347 2.421 . S
O382 C399 1.262 . S
O383 Tb336 2.320 . S
O383 C399 1.260 . S
O384 Tb336 2.552 . S
O384 C392 1.243 . S
O385 Tb336 2.413 . S
O385 C400 1.256 . S
O386 Tb347 2.546 . S
O386 C411 1.251 . S
O387 Tb336 2.362 . S
O387 Tb347 2.610 . S
O387 C403 1.283 . S
O388 Tb336 2.421 . S
O388 C410 1.262 . S
O389 Tb347 2.320 . S
O389 C410 1.260 . S
O390 Tb347 2.552 . S
O390 C403 1.243 . S
O391 Tb347 2.413 . S
O391 C411 1.256 . S
C392 O381 1.283 . S
C392 O384 1.243 . S
C393 C395 1.382 . S
C393 C397 1.393 . S
C393 C400 1.500 . S
C394 C395 1.400 . S
C394 C396 1.384 . S
C395 C393 1.382 . S
C395 C394 1.400 . S
C395 H412 0.930 . S
C396 C394 1.384 . S
C396 C398 1.392 . S
C396 H413 0.931 . S
C397 C393 1.393 . S
C397 C398 1.401 . S
C397 H414 0.930 . S
C398 C396 1.392 . S
C398 C397 1.401 . S
C398 H415 0.930 . S
C399 O382 1.262 . S
C399 O383 1.260 . S
C400 Tb336 2.833 . S
C400 O380 1.251 . S
C400 O385 1.256 . S
C400 C393 1.500 . S
C401 H366 0.929 . S
C401 C379 1.444 1_455 S
C401 C402 1.317 . S
C402 H364 0.930 . S
C402 C370 1.432 . S
C402 C401 1.317 . S
C403 O387 1.283 . S
C403 O390 1.243 . S
C404 C405 1.382 . S
C404 C408 1.393 . S
C404 C411 1.500 . S
C405 C404 1.382 . S
C405 C406 1.400 . S
C405 H416 0.930 . S
C406 C405 1.400 . S
C406 C407 1.384 . S
C407 C406 1.384 . S
C407 C409 1.392 . S
C407 H417 0.931 . S
C408 C404 1.393 . S
C408 C409 1.401 . S
C408 H418 0.930 . S
C409 C407 1.392 . S
C409 C408 1.401 . S
C409 H419 0.930 . S
C410 O388 1.262 . S
C410 O389 1.260 . S
C411 Tb347 2.833 . S
C411 O386 1.251 . S
C411 O391 1.256 . S
C411 C404 1.500 . S
H412 C395 0.930 . S
H413 C396 0.931 . S
H414 C397 0.930 . S
H415 C398 0.930 . S
H416 C405 0.930 . S
H417 C407 0.931 . S
H418 C408 0.930 . S
H419 C409 0.930 . S
Tb420 N451 2.660 . S
Tb420 N458 2.600 . S
Tb420 O464 2.546 . S
Tb420 O465 2.610 . S
Tb420 O467 2.320 . S
Tb420 O468 2.552 . S
Tb420 O469 2.413 . S
Tb420 O471 2.362 . S
Tb420 O472 2.421 . S
Tb420 C484 2.833 1_655 S
C421 C424 1.432 . S
C421 C425 1.414 . S
C421 N428 1.359 . S
C422 C424 1.417 1_565 S
C422 C426 1.432 . S
C422 C434 1.410 . S
C423 C425 1.444 1_565 S
C423 C426 1.317 . S
C423 H446 0.929 . S
C424 C421 1.432 . S
C424 C422 1.417 1_545 S
C424 N432 1.360 . S
C425 C421 1.414 . S
C425 C423 1.444 1_545 S
C425 C430 1.385 . S
C426 C422 1.432 . S
C426 C423 1.317 . S
C426 H438 0.930 . S
C427 C429 1.392 . S
C427 C430 1.370 . S
C427 H439 0.931 . S
N428 C421 1.359 . S
N428 C429 1.327 . S
N428 Tb431 2.600 . S
C429 C427 1.392 . S
C429 N428 1.327 . S
C429 H436 0.930 . S
C430 C425 1.385 . S
C430 C427 1.370 . S
C430 H449 0.930 . S
Tb431 N428 2.600 . S
Tb431 N432 2.660 . S
Tb431 O465 2.362 . S
Tb431 O466 2.421 . S
Tb431 O470 2.546 . S
Tb431 O471 2.610 . S
Tb431 O473 2.320 . S
Tb431 O474 2.552 . S
Tb431 O475 2.413 . S
Tb431 C495 2.833 . S
N432 C424 1.360 . S
N432 Tb431 2.660 . S
N432 C433 1.305 . S
C433 N432 1.305 . S
C433 C435 1.407 1_545 S
C433 H440 0.930 . S
C434 C422 1.410 . S
C434 C435 1.345 . S
C434 H442 0.930 . S
C435 C433 1.407 1_565 S
C435 C434 1.345 . S
C435 H437 0.930 . S
H436 C429 0.930 . S
H437 C435 0.930 . S
H438 C426 0.930 . S
H439 C427 0.931 . S
H440 C433 0.930 . S
H441 C455 0.930 . S
H442 C434 0.930 . S
H443 C461 0.930 . S
H444 C452 0.930 . S
H445 C459 0.931 . S
H446 C423 0.929 . S
H447 C453 0.930 . S
H448 C486 0.930 . S
H449 C430 0.930 . S
H450 C485 0.929 . S
N451 Tb420 2.660 . S
N451 C452 1.305 . S
N451 C456 1.360 . S
C452 H444 0.930 . S
C452 N451 1.305 . S
C452 C455 1.407 . S
C453 H447 0.930 . S
C453 C454 1.410 . S
C453 C455 1.345 1_455 S
C454 C453 1.410 . S
C454 C456 1.417 1_455 S
C454 C486 1.432 . S
C455 H441 0.930 . S
C455 C452 1.407 . S
C455 C453 1.345 1_655 S
C456 N451 1.360 . S
C456 C454 1.417 1_655 S
C456 C460 1.432 . S
H457 C462 0.930 1_455 S
N458 Tb420 2.600 . S
N458 C460 1.359 . S
N458 C461 1.327 . S
C459 H445 0.931 . S
C459 C461 1.392 . S
C459 C462 1.370 . S
C460 C456 1.432 . S
C460 N458 1.359 . S
C460 C463 1.414 1_655 S
C461 H443 0.930 . S
C461 N458 1.327 . S
C461 C459 1.392 . S
C462 H457 0.930 1_655 S
C462 C459 1.370 . S
C462 C463 1.385 1_655 S
C463 C460 1.414 1_455 S
C463 C462 1.385 1_455 S
C463 C485 1.444 . S
O464 Tb420 2.546 . S
O464 C484 1.251 1_655 S
O465 Tb420 2.610 . S
O465 Tb431 2.362 . S
O465 C476 1.283 . S
O466 Tb431 2.421 . S
O466 C483 1.262 . S
O467 Tb420 2.320 . S
O467 C483 1.260 . S
O468 Tb420 2.552 . S
O468 C476 1.243 . S
O469 Tb420 2.413 . S
O469 C484 1.256 1_655 S
O470 Tb431 2.546 . S
O470 C495 1.251 . S
O471 Tb420 2.362 . S
O471 Tb431 2.610 . S
O471 C487 1.283 . S
O472 Tb420 2.421 . S
O472 C494 1.262 . S
O473 Tb431 2.320 . S
O473 C494 1.260 . S
O474 Tb431 2.552 . S
O474 C487 1.243 . S
O475 Tb431 2.413 . S
O475 C495 1.256 . S
C476 O465 1.283 . S
C476 O468 1.243 . S
C477 C479 1.382 . S
C477 C481 1.393 . S
C477 C484 1.500 . S
C478 C479 1.400 . S
C478 C480 1.384 . S
C479 C477 1.382 . S
C479 C478 1.400 . S
C479 H496 0.930 . S
C480 C478 1.384 . S
C480 C482 1.392 . S
C480 H497 0.931 . S
C481 C477 1.393 . S
C481 C482 1.401 . S
C481 H498 0.930 . S
C482 C480 1.392 . S
C482 C481 1.401 . S
C482 H499 0.930 . S
C483 O466 1.262 . S
C483 O467 1.260 . S
C484 Tb420 2.833 1_455 S
C484 O464 1.251 1_455 S
C484 O469 1.256 1_455 S
C484 C477 1.500 . S
C485 H450 0.929 . S
C485 C463 1.444 . S
C485 C486 1.317 . S
C486 H448 0.930 . S
C486 C454 1.432 . S
C486 C485 1.317 . S
C487 O471 1.283 . S
C487 O474 1.243 . S
C488 C489 1.382 . S
C488 C492 1.393 . S
C488 C495 1.500 . S
C489 C488 1.382 . S
C489 C490 1.400 . S
C489 H500 0.930 . S
C490 C489 1.400 . S
C490 C491 1.384 . S
C491 C490 1.384 . S
C491 C493 1.392 . S
C491 H501 0.931 . S
C492 C488 1.393 . S
C492 C493 1.401 . S
C492 H502 0.930 . S
C493 C491 1.392 . S
C493 C492 1.401 . S
C493 H503 0.930 . S
C494 O472 1.262 . S
C494 O473 1.260 . S
C495 Tb431 2.833 . S
C495 O470 1.251 . S
C495 O475 1.256 . S
C495 C488 1.500 . S
H496 C479 0.930 . S
H497 C480 0.931 . S
H498 C481 0.930 . S
H499 C482 0.930 . S
H500 C489 0.930 . S
H501 C491 0.931 . S
H502 C492 0.930 . S
H503 C493 0.930 . S
Tb504 N535 2.660 . S
Tb504 N542 2.600 . S
Tb504 O548 2.546 . S
Tb504 O549 2.610 . S
Tb504 O551 2.320 . S
Tb504 O552 2.552 . S
Tb504 O553 2.413 . S
Tb504 O555 2.362 . S
Tb504 O556 2.421 . S
Tb504 C568 2.833 1_455 S
C505 C508 1.432 . S
C505 C509 1.414 . S
C505 N512 1.359 . S
C506 C508 1.417 . S
C506 C510 1.432 . S
C506 C518 1.410 . S
C507 C509 1.444 . S
C507 C510 1.317 . S
C507 H530 0.929 . S
C508 C505 1.432 . S
C508 C506 1.417 . S
C508 N516 1.360 . S
C509 C505 1.414 . S
C509 C507 1.444 . S
C509 C514 1.385 . S
C510 C506 1.432 . S
C510 C507 1.317 . S
C510 H522 0.930 . S
C511 C513 1.392 . S
C511 C514 1.370 . S
C511 H523 0.931 . S
N512 C505 1.359 . S
N512 C513 1.327 . S
N512 Tb515 2.600 . S
C513 C511 1.392 . S
C513 N512 1.327 . S
C513 H520 0.930 . S
C514 C509 1.385 . S
C514 C511 1.370 . S
C514 H533 0.930 . S
Tb515 N512 2.600 . S
Tb515 N516 2.660 . S
Tb515 O549 2.362 . S
Tb515 O550 2.421 . S
Tb515 O554 2.546 . S
Tb515 O555 2.610 . S
Tb515 O557 2.320 . S
Tb515 O558 2.552 . S
Tb515 O559 2.413 . S
Tb515 C579 2.833 . S
N516 C508 1.360 . S
N516 Tb515 2.660 . S
N516 C517 1.305 . S
C517 N516 1.305 . S
C517 C519 1.407 . S
C517 H524 0.930 . S
C518 C506 1.410 . S
C518 C519 1.345 . S
C518 H526 0.930 . S
C519 C517 1.407 . S
C519 C518 1.345 . S
C519 H521 0.930 . S
H520 C513 0.930 . S
H521 C519 0.930 . S
H522 C510 0.930 . S
H523 C511 0.931 . S
H524 C517 0.930 . S
H525 C539 0.930 . S
H526 C518 0.930 . S
H527 C545 0.930 . S
H528 C536 0.930 . S
H529 C543 0.931 . S
H530 C507 0.929 . S
H531 C537 0.930 . S
H532 C570 0.930 . S
H533 C514 0.930 . S
H534 C569 0.929 . S
N535 Tb504 2.660 . S
N535 C536 1.305 . S
N535 C540 1.360 . S
C536 H528 0.930 . S
C536 N535 1.305 . S
C536 C539 1.407 . S
C537 H531 0.930 . S
C537 C538 1.410 . S
C537 C539 1.345 1_655 S
C538 C537 1.410 . S
C538 C540 1.417 1_655 S
C538 C570 1.432 . S
C539 H525 0.930 . S
C539 C536 1.407 . S
C539 C537 1.345 1_455 S
C540 N535 1.360 . S
C540 C538 1.417 1_455 S
C540 C544 1.432 . S
H541 C546 0.930 1_655 S
N542 Tb504 2.600 . S
N542 C544 1.359 . S
N542 C545 1.327 . S
C543 H529 0.931 . S
C543 C545 1.392 . S
C543 C546 1.370 . S
C544 C540 1.432 . S
C544 N542 1.359 . S
C544 C547 1.414 1_455 S
C545 H527 0.930 . S
C545 N542 1.327 . S
C545 C543 1.392 . S
C546 H541 0.930 1_455 S
C546 C543 1.370 . S
C546 C547 1.385 1_455 S
C547 C544 1.414 1_655 S
C547 C546 1.385 1_655 S
C547 C569 1.444 . S
O548 Tb504 2.546 . S
O548 C568 1.251 1_455 S
O549 Tb504 2.610 . S
O549 Tb515 2.362 . S
O549 C560 1.283 . S
O550 Tb515 2.421 . S
O550 C567 1.262 . S
O551 Tb504 2.320 . S
O551 C567 1.260 . S
O552 Tb504 2.552 . S
O552 C560 1.243 . S
O553 Tb504 2.413 . S
O553 C568 1.256 1_455 S
O554 Tb515 2.546 . S
O554 C579 1.251 . S
O555 Tb504 2.362 . S
O555 Tb515 2.610 . S
O555 C571 1.283 . S
O556 Tb504 2.421 . S
O556 C578 1.262 . S
O557 Tb515 2.320 . S
O557 C578 1.260 . S
O558 Tb515 2.552 . S
O558 C571 1.243 . S
O559 Tb515 2.413 . S
O559 C579 1.256 . S
C560 O549 1.283 . S
C560 O552 1.243 . S
C561 C563 1.382 . S
C561 C565 1.393 . S
C561 C568 1.500 . S
C562 C563 1.400 . S
C562 C564 1.384 . S
C563 C561 1.382 . S
C563 C562 1.400 . S
C563 H580 0.930 . S
C564 C562 1.384 . S
C564 C566 1.392 . S
C564 H581 0.931 . S
C565 C561 1.393 . S
C565 C566 1.401 . S
C565 H582 0.930 . S
C566 C564 1.392 . S
C566 C565 1.401 . S
C566 H583 0.930 . S
C567 O550 1.262 . S
C567 O551 1.260 . S
C568 Tb504 2.833 1_655 S
C568 O548 1.251 1_655 S
C568 O553 1.256 1_655 S
C568 C561 1.500 . S
C569 H534 0.929 . S
C569 C547 1.444 . S
C569 C570 1.317 . S
C570 H532 0.930 . S
C570 C538 1.432 . S
C570 C569 1.317 . S
C571 O555 1.283 . S
C571 O558 1.243 . S
C572 C573 1.382 . S
C572 C576 1.393 . S
C572 C579 1.500 . S
C573 C572 1.382 . S
C573 C574 1.400 . S
C573 H584 0.930 . S
C574 C573 1.400 . S
C574 C575 1.384 . S
C575 C574 1.384 . S
C575 C577 1.392 . S
C575 H585 0.931 . S
C576 C572 1.393 . S
C576 C577 1.401 . S
C576 H586 0.930 . S
C577 C575 1.392 . S
C577 C576 1.401 . S
C577 H587 0.930 . S
C578 O556 1.262 . S
C578 O557 1.260 . S
C579 Tb515 2.833 . S
C579 O554 1.251 . S
C579 O559 1.256 . S
C579 C572 1.500 . S
H580 C563 0.930 . S
H581 C564 0.931 . S
H582 C565 0.930 . S
H583 C566 0.930 . S
H584 C573 0.930 . S
H585 C575 0.931 . S
H586 C576 0.930 . S
H587 C577 0.930 . S
Tb588 N619 2.660 . S
Tb588 N626 2.600 . S
Tb588 O632 2.546 . S
Tb588 O633 2.610 . S
Tb588 O635 2.320 . S
Tb588 O636 2.552 . S
Tb588 O637 2.413 . S
Tb588 O639 2.362 . S
Tb588 O640 2.421 . S
Tb588 C652 2.833 . S
C589 C592 1.432 . S
C589 C593 1.414 1_565 S
C589 N596 1.359 . S
C590 C592 1.417 1_545 S
C590 C594 1.432 . S
C590 C602 1.410 . S
C591 C593 1.444 . S
C591 C594 1.317 . S
C591 H614 0.929 . S
C592 C589 1.432 . S
C592 C590 1.417 1_565 S
C592 N600 1.360 . S
C593 C589 1.414 1_545 S
C593 C591 1.444 . S
C593 C598 1.385 1_545 S
C594 C590 1.432 . S
C594 C591 1.317 . S
C594 H606 0.930 . S
C595 C597 1.392 . S
C595 C598 1.370 . S
C595 H607 0.931 . S
N596 C589 1.359 . S
N596 C597 1.327 . S
N596 Tb599 2.600 . S
C597 C595 1.392 . S
C597 N596 1.327 . S
C597 H604 0.930 . S
C598 C593 1.385 1_565 S
C598 C595 1.370 . S
C598 H617 0.930 1_565 S
Tb599 N596 2.600 . S
Tb599 N600 2.660 . S
Tb599 O633 2.362 . S
Tb599 O634 2.421 . S
Tb599 O638 2.546 . S
Tb599 O639 2.610 . S
Tb599 O641 2.320 . S
Tb599 O642 2.552 . S
Tb599 O643 2.413 . S
Tb599 C663 2.833 1_565 S
N600 C592 1.360 . S
N600 Tb599 2.660 . S
N600 C601 1.305 . S
C601 N600 1.305 . S
C601 C603 1.407 . S
C601 H608 0.930 . S
C602 C590 1.410 . S
C602 C603 1.345 1_545 S
C602 H610 0.930 . S
C603 C601 1.407 . S
C603 C602 1.345 1_565 S
C603 H605 0.930 . S
H604 C597 0.930 . S
H605 C603 0.930 . S
H606 C594 0.930 . S
H607 C595 0.931 . S
H608 C601 0.930 . S
H609 C623 0.930 . S
H610 C602 0.930 . S
H611 C629 0.930 . S
H612 C620 0.930 . S
H613 C627 0.931 . S
H614 C591 0.929 . S
H615 C621 0.930 . S
H616 C654 0.930 . S
H617 C598 0.930 1_545 S
H618 C653 0.929 . S
N619 Tb588 2.660 . S
N619 C620 1.305 . S
N619 C624 1.360 . S
C620 H612 0.930 . S
C620 N619 1.305 . S
C620 C623 1.407 1_455 S
C621 H615 0.930 . S
C621 C622 1.410 . S
C621 C623 1.345 . S
C622 C621 1.410 . S
C622 C624 1.417 1_655 S
C622 C654 1.432 . S
C623 H609 0.930 . S
C623 C620 1.407 1_655 S
C623 C621 1.345 . S
C624 N619 1.360 . S
C624 C622 1.417 1_455 S
C624 C628 1.432 . S
H625 C630 0.930 . S
N626 Tb588 2.600 . S
N626 C628 1.359 . S
N626 C629 1.327 . S
C627 H613 0.931 . S
C627 C629 1.392 1_554 S
C627 C630 1.370 . S
C628 C624 1.432 . S
C628 N626 1.359 . S
C628 C631 1.414 . S
C629 H611 0.930 . S
C629 N626 1.327 . S
C629 C627 1.392 1_556 S
C630 H625 0.930 . S
C630 C627 1.370 . S
C630 C631 1.385 1_554 S
C631 C628 1.414 . S
C631 C630 1.385 1_556 S
C631 C653 1.444 1_455 S
O632 Tb588 2.546 . S
O632 C652 1.251 . S
O633 Tb588 2.610 . S
O633 Tb599 2.362 . S
O633 C644 1.283 . S
O634 Tb599 2.421 . S
O634 C651 1.262 . S
O635 Tb588 2.320 . S
O635 C651 1.260 . S
O636 Tb588 2.552 . S
O636 C644 1.243 . S
O637 Tb588 2.413 . S
O637 C652 1.256 . S
O638 Tb599 2.546 . S
O638 C663 1.251 1_565 S
O639 Tb588 2.362 . S
O639 Tb599 2.610 . S
O639 C655 1.283 . S
O640 Tb588 2.421 . S
O640 C662 1.262 . S
O641 Tb599 2.320 . S
O641 C662 1.260 . S
O642 Tb599 2.552 . S
O642 C655 1.243 . S
O643 Tb599 2.413 . S
O643 C663 1.256 1_565 S
C644 O633 1.283 . S
C644 O636 1.243 . S
C645 C647 1.382 . S
C645 C649 1.393 . S
C645 C652 1.500 . S
C646 C647 1.400 . S
C646 C648 1.384 . S
C647 C645 1.382 . S
C647 C646 1.400 . S
C647 H664 0.930 . S
C648 C646 1.384 . S
C648 C650 1.392 . S
C648 H665 0.931 . S
C649 C645 1.393 . S
C649 C650 1.401 . S
C649 H666 0.930 . S
C650 C648 1.392 . S
C650 C649 1.401 . S
C650 H667 0.930 . S
C651 O634 1.262 . S
C651 O635 1.260 . S
C652 Tb588 2.833 . S
C652 O632 1.251 . S
C652 O637 1.256 . S
C652 C645 1.500 . S
C653 H618 0.929 . S
C653 C631 1.444 1_655 S
C653 C654 1.317 . S
C654 H616 0.930 . S
C654 C622 1.432 . S
C654 C653 1.317 . S
C655 O639 1.283 . S
C655 O642 1.243 . S
C656 C657 1.382 . S
C656 C660 1.393 . S
C656 C663 1.500 . S
C657 C656 1.382 . S
C657 C658 1.400 . S
C657 H668 0.930 . S
C658 C657 1.400 . S
C658 C659 1.384 . S
C659 C658 1.384 . S
C659 C661 1.392 . S
C659 H669 0.931 . S
C660 C656 1.393 . S
C660 C661 1.401 . S
C660 H670 0.930 . S
C661 C659 1.392 . S
C661 C660 1.401 . S
C661 H671 0.930 . S
C662 O640 1.262 . S
C662 O641 1.260 . S
C663 Tb599 2.833 1_545 S
C663 O638 1.251 1_545 S
C663 O643 1.256 1_545 S
C663 C656 1.500 . S
H664 C647 0.930 . S
H665 C648 0.931 . S
H666 C649 0.930 . S
H667 C650 0.930 . S
H668 C657 0.930 . S
H669 C659 0.931 . S
H670 C660 0.930 . S
H671 C661 0.930 . S
Tb672 N703 2.660 . S
Tb672 N710 2.600 . S
Tb672 O716 2.546 . S
Tb672 O717 2.610 . S
Tb672 O719 2.320 . S
Tb672 O720 2.552 . S
Tb672 O721 2.413 . S
Tb672 O723 2.362 . S
Tb672 O724 2.421 . S
Tb672 C736 2.833 . S
C673 C676 1.432 . S
C673 C677 1.414 . S
C673 N680 1.359 . S
C674 C676 1.417 1_545 S
C674 C678 1.432 . S
C674 C686 1.410 . S
C675 C677 1.444 1_545 S
C675 C678 1.317 . S
C675 H698 0.929 . S
C676 C673 1.432 . S
C676 C674 1.417 1_565 S
C676 N684 1.360 . S
C677 C673 1.414 . S
C677 C675 1.444 1_565 S
C677 C682 1.385 . S
C678 C674 1.432 . S
C678 C675 1.317 . S
C678 H690 0.930 . S
C679 C681 1.392 . S
C679 C682 1.370 . S
C679 H691 0.931 . S
N680 C673 1.359 . S
N680 C681 1.327 . S
N680 Tb683 2.600 . S
C681 C679 1.392 . S
C681 N680 1.327 . S
C681 H688 0.930 . S
C682 C677 1.385 . S
C682 C679 1.370 . S
C682 H701 0.930 . S
Tb683 N680 2.600 . S
Tb683 N684 2.660 . S
Tb683 O717 2.362 . S
Tb683 O718 2.421 . S
Tb683 O722 2.546 . S
Tb683 O723 2.610 . S
Tb683 O725 2.320 . S
Tb683 O726 2.552 . S
Tb683 O727 2.413 . S
Tb683 C747 2.833 . S
N684 C676 1.360 . S
N684 Tb683 2.660 . S
N684 C685 1.305 . S
C685 N684 1.305 . S
C685 C687 1.407 1_565 S
C685 H692 0.930 . S
C686 C674 1.410 . S
C686 C687 1.345 . S
C686 H694 0.930 . S
C687 C685 1.407 1_545 S
C687 C686 1.345 . S
C687 H689 0.930 . S
H688 C681 0.930 . S
H689 C687 0.930 . S
H690 C678 0.930 . S
H691 C679 0.931 . S
H692 C685 0.930 . S
H693 C707 0.930 . S
H694 C686 0.930 . S
H695 C713 0.930 . S
H696 C704 0.930 . S
H697 C711 0.931 . S
H698 C675 0.929 . S
H699 C705 0.930 . S
H700 C738 0.930 . S
H701 C682 0.930 . S
H702 C737 0.929 . S
N703 Tb672 2.660 . S
N703 C704 1.305 . S
N703 C708 1.360 . S
C704 H696 0.930 . S
C704 N703 1.305 . S
C704 C707 1.407 . S
C705 H699 0.930 . S
C705 C706 1.410 . S
C705 C707 1.345 . S
C706 C705 1.410 . S
C706 C708 1.417 . S
C706 C738 1.432 . S
C707 H693 0.930 . S
C707 C704 1.407 . S
C707 C705 1.345 . S
C708 N703 1.360 . S
C708 C706 1.417 . S
C708 C712 1.432 . S
H709 C714 0.930 . S
N710 Tb672 2.600 . S
N710 C712 1.359 . S
N710 C713 1.327 . S
C711 H697 0.931 . S
C711 C713 1.392 . S
C711 C714 1.370 . S
C712 C708 1.432 . S
C712 N710 1.359 . S
C712 C715 1.414 . S
C713 H695 0.930 . S
C713 N710 1.327 . S
C713 C711 1.392 . S
C714 H709 0.930 . S
C714 C711 1.370 . S
C714 C715 1.385 . S
C715 C712 1.414 . S
C715 C714 1.385 . S
C715 C737 1.444 . S
O716 Tb672 2.546 . S
O716 C736 1.251 . S
O717 Tb672 2.610 . S
O717 Tb683 2.362 . S
O717 C728 1.283 . S
O718 Tb683 2.421 . S
O718 C735 1.262 . S
O719 Tb672 2.320 . S
O719 C735 1.260 . S
O720 Tb672 2.552 . S
O720 C728 1.243 . S
O721 Tb672 2.413 . S
O721 C736 1.256 . S
O722 Tb683 2.546 . S
O722 C747 1.251 . S
O723 Tb672 2.362 . S
O723 Tb683 2.610 . S
O723 C739 1.283 . S
O724 Tb672 2.421 . S
O724 C746 1.262 . S
O725 Tb683 2.320 . S
O725 C746 1.260 . S
O726 Tb683 2.552 . S
O726 C739 1.243 . S
O727 Tb683 2.413 . S
O727 C747 1.256 . S
C728 O717 1.283 . S
C728 O720 1.243 . S
C729 C731 1.382 . S
C729 C733 1.393 . S
C729 C736 1.500 . S
C730 C731 1.400 . S
C730 C732 1.384 . S
C731 C729 1.382 . S
C731 C730 1.400 . S
C731 H748 0.930 . S
C732 C730 1.384 . S
C732 C734 1.392 . S
C732 H749 0.931 . S
C733 C729 1.393 . S
C733 C734 1.401 . S
C733 H750 0.930 . S
C734 C732 1.392 . S
C734 C733 1.401 . S
C734 H751 0.930 . S
C735 O718 1.262 . S
C735 O719 1.260 . S
C736 Tb672 2.833 . S
C736 O716 1.251 . S
C736 O721 1.256 . S
C736 C729 1.500 . S
C737 H702 0.929 . S
C737 C715 1.444 . S
C737 C738 1.317 . S
C738 H700 0.930 . S
C738 C706 1.432 . S
C738 C737 1.317 . S
C739 O723 1.283 . S
C739 O726 1.243 . S
C740 C741 1.382 . S
C740 C744 1.393 . S
C740 C747 1.500 . S
C741 C740 1.382 . S
C741 C742 1.400 . S
C741 H752 0.930 . S
C742 C741 1.400 . S
C742 C743 1.384 . S
C743 C742 1.384 . S
C743 C745 1.392 . S
C743 H753 0.931 . S
C744 C740 1.393 . S
C744 C745 1.401 . S
C744 H754 0.930 . S
C745 C743 1.392 . S
C745 C744 1.401 . S
C745 H755 0.930 . S
C746 O724 1.262 . S
C746 O725 1.260 . S
C747 Tb683 2.833 . S
C747 O722 1.251 . S
C747 O727 1.256 . S
C747 C740 1.500 . S
H748 C731 0.930 . S
H749 C732 0.931 . S
H750 C733 0.930 . S
H751 C734 0.930 . S
H752 C741 0.930 . S
H753 C743 0.931 . S
H754 C744 0.930 . S
H755 C745 0.930 . S
Tb756 N787 2.660 . S
Tb756 N794 2.600 . S
Tb756 O800 2.546 . S
Tb756 O801 2.610 . S
Tb756 O803 2.320 . S
Tb756 O804 2.552 . S
Tb756 O805 2.413 . S
Tb756 O807 2.362 . S
Tb756 O808 2.421 . S
Tb756 C820 2.833 . S
C757 C760 1.432 . S
C757 C761 1.414 1_455 S
C757 N764 1.359 . S
C758 C760 1.417 1_655 S
C758 C762 1.432 . S
C758 C770 1.410 . S
C759 C761 1.444 . S
C759 C762 1.317 . S
C759 H782 0.929 . S
C760 C757 1.432 . S
C760 C758 1.417 1_455 S
C760 N768 1.360 . S
C761 C757 1.414 1_655 S
C761 C759 1.444 . S
C761 C766 1.385 1_655 S
C762 C758 1.432 . S
C762 C759 1.317 . S
C762 H774 0.930 . S
C763 C765 1.392 . S
C763 C766 1.370 . S
C763 H775 0.931 . S
N764 C757 1.359 . S
N764 C765 1.327 . S
N764 Tb767 2.600 . S
C765 C763 1.392 . S
C765 N764 1.327 . S
C765 H772 0.930 . S
C766 C761 1.385 1_455 S
C766 C763 1.370 . S
C766 H785 0.930 1_455 S
Tb767 N764 2.600 . S
Tb767 N768 2.660 . S
Tb767 O801 2.362 . S
Tb767 O802 2.421 . S
Tb767 O806 2.546 . S
Tb767 O807 2.610 . S
Tb767 O809 2.320 . S
Tb767 O810 2.552 . S
Tb767 O811 2.413 . S
Tb767 C831 2.833 1_455 S
N768 C760 1.360 . S
N768 Tb767 2.660 . S
N768 C769 1.305 . S
C769 N768 1.305 . S
C769 C771 1.407 . S
C769 H776 0.930 . S
C770 C758 1.410 . S
C770 C771 1.345 1_655 S
C770 H778 0.930 . S
C771 C769 1.407 . S
C771 C770 1.345 1_455 S
C771 H773 0.930 . S
H772 C765 0.930 . S
H773 C771 0.930 . S
H774 C762 0.930 . S
H775 C763 0.931 . S
H776 C769 0.930 . S
H777 C791 0.930 . S
H778 C770 0.930 . S
H779 C797 0.930 . S
H780 C788 0.930 . S
H781 C795 0.931 . S
H782 C759 0.929 . S
H783 C789 0.930 . S
H784 C822 0.930 . S
H785 C766 0.930 1_655 S
H786 C821 0.929 . S
N787 Tb756 2.660 . S
N787 C788 1.305 . S
N787 C792 1.360 . S
C788 H780 0.930 . S
C788 N787 1.305 . S
C788 C791 1.407 . S
C789 H783 0.930 . S
C789 C790 1.410 . S
C789 C791 1.345 . S
C790 C789 1.410 . S
C790 C792 1.417 . S
C790 C822 1.432 . S
C791 H777 0.930 . S
C791 C788 1.407 . S
C791 C789 1.345 . S
C792 N787 1.360 . S
C792 C790 1.417 . S
C792 C796 1.432 . S
H793 C798 0.930 . S
N794 Tb756 2.600 . S
N794 C796 1.359 . S
N794 C797 1.327 . S
C795 H781 0.931 . S
C795 C797 1.392 1_554 S
C795 C798 1.370 . S
C796 C792 1.432 . S
C796 N794 1.359 . S
C796 C799 1.414 . S
C797 H779 0.930 . S
C797 N794 1.327 . S
C797 C795 1.392 1_556 S
C798 H793 0.930 . S
C798 C795 1.370 . S
C798 C799 1.385 1_554 S
C799 C796 1.414 . S
C799 C798 1.385 1_556 S
C799 C821 1.444 . S
O800 Tb756 2.546 . S
O800 C820 1.251 . S
O801 Tb756 2.610 . S
O801 Tb767 2.362 . S
O801 C812 1.283 . S
O802 Tb767 2.421 . S
O802 C819 1.262 . S
O803 Tb756 2.320 . S
O803 C819 1.260 . S
O804 Tb756 2.552 . S
O804 C812 1.243 . S
O805 Tb756 2.413 . S
O805 C820 1.256 . S
O806 Tb767 2.546 . S
O806 C831 1.251 1_455 S
O807 Tb756 2.362 . S
O807 Tb767 2.610 . S
O807 C823 1.283 . S
O808 Tb756 2.421 . S
O808 C830 1.262 . S
O809 Tb767 2.320 . S
O809 C830 1.260 . S
O810 Tb767 2.552 . S
O810 C823 1.243 . S
O811 Tb767 2.413 . S
O811 C831 1.256 1_455 S
C812 O801 1.283 . S
C812 O804 1.243 . S
C813 C815 1.382 . S
C813 C817 1.393 . S
C813 C820 1.500 . S
C814 C815 1.400 . S
C814 C816 1.384 . S
C815 C813 1.382 . S
C815 C814 1.400 . S
C815 H832 0.930 . S
C816 C814 1.384 . S
C816 C818 1.392 . S
C816 H833 0.931 . S
C817 C813 1.393 . S
C817 C818 1.401 . S
C817 H834 0.930 . S
C818 C816 1.392 . S
C818 C817 1.401 . S
C818 H835 0.930 . S
C819 O802 1.262 . S
C819 O803 1.260 . S
C820 Tb756 2.833 . S
C820 O800 1.251 . S
C820 O805 1.256 . S
C820 C813 1.500 . S
C821 H786 0.929 . S
C821 C799 1.444 . S
C821 C822 1.317 . S
C822 H784 0.930 . S
C822 C790 1.432 . S
C822 C821 1.317 . S
C823 O807 1.283 . S
C823 O810 1.243 . S
C824 C825 1.382 . S
C824 C828 1.393 . S
C824 C831 1.500 . S
C825 C824 1.382 . S
C825 C826 1.400 . S
C825 H836 0.930 . S
C826 C825 1.400 . S
C826 C827 1.384 . S
C827 C826 1.384 . S
C827 C829 1.392 . S
C827 H837 0.931 . S
C828 C824 1.393 . S
C828 C829 1.401 . S
C828 H838 0.930 . S
C829 C827 1.392 . S
C829 C828 1.401 . S
C829 H839 0.930 . S
C830 O808 1.262 . S
C830 O809 1.260 . S
C831 Tb767 2.833 1_655 S
C831 O806 1.251 1_655 S
C831 O811 1.256 1_655 S
C831 C824 1.500 . S
H832 C815 0.930 . S
H833 C816 0.931 . S
H834 C817 0.930 . S
H835 C818 0.930 . S
H836 C825 0.930 . S
H837 C827 0.931 . S
H838 C828 0.930 . S
H839 C829 0.930 . S
Tb840 N871 2.660 . S
Tb840 N878 2.600 . S
Tb840 O884 2.546 . S
Tb840 O885 2.610 . S
Tb840 O887 2.320 . S
Tb840 O888 2.552 . S
Tb840 O889 2.413 . S
Tb840 O891 2.362 . S
Tb840 O892 2.421 . S
Tb840 C904 2.833 1_565 S
C841 C844 1.432 . S
C841 C845 1.414 . S
C841 N848 1.359 . S
C842 C844 1.417 1_655 S
C842 C846 1.432 . S
C842 C854 1.410 . S
C843 C845 1.444 1_655 S
C843 C846 1.317 . S
C843 H866 0.929 . S
C844 C841 1.432 . S
C844 C842 1.417 1_455 S
C844 N852 1.360 . S
C845 C841 1.414 . S
C845 C843 1.444 1_455 S
C845 C850 1.385 . S
C846 C842 1.432 . S
C846 C843 1.317 . S
C846 H858 0.930 . S
C847 C849 1.392 . S
C847 C850 1.370 . S
C847 H859 0.931 . S
N848 C841 1.359 . S
N848 C849 1.327 . S
N848 Tb851 2.600 . S
C849 C847 1.392 . S
C849 N848 1.327 . S
C849 H856 0.930 . S
C850 C845 1.385 . S
C850 C847 1.370 . S
C850 H869 0.930 . S
Tb851 N848 2.600 . S
Tb851 N852 2.660 . S
Tb851 O885 2.362 . S
Tb851 O886 2.421 . S
Tb851 O890 2.546 . S
Tb851 O891 2.610 . S
Tb851 O893 2.320 . S
Tb851 O894 2.552 . S
Tb851 O895 2.413 . S
Tb851 C915 2.833 . S
N852 C844 1.360 . S
N852 Tb851 2.660 . S
N852 C853 1.305 . S
C853 N852 1.305 . S
C853 C855 1.407 1_455 S
C853 H860 0.930 . S
C854 C842 1.410 . S
C854 C855 1.345 . S
C854 H862 0.930 . S
C855 C853 1.407 1_655 S
C855 C854 1.345 . S
C855 H857 0.930 . S
H856 C849 0.930 . S
H857 C855 0.930 . S
H858 C846 0.930 . S
H859 C847 0.931 . S
H860 C853 0.930 . S
H861 C875 0.930 . S
H862 C854 0.930 . S
H863 C881 0.930 . S
H864 C872 0.930 . S
H865 C879 0.931 . S
H866 C843 0.929 . S
H867 C873 0.930 . S
H868 C906 0.930 . S
H869 C850 0.930 . S
H870 C905 0.929 . S
N871 Tb840 2.660 . S
N871 C872 1.305 . S
N871 C876 1.360 . S
C872 H864 0.930 . S
C872 N871 1.305 . S
C872 C875 1.407 . S
C873 H867 0.930 . S
C873 C874 1.410 . S
C873 C875 1.345 1_545 S
C874 C873 1.410 . S
C874 C876 1.417 1_545 S
C874 C906 1.432 . S
C875 H861 0.930 . S
C875 C872 1.407 . S
C875 C873 1.345 1_565 S
C876 N871 1.360 . S
C876 C874 1.417 1_565 S
C876 C880 1.432 . S
H877 C882 0.930 1_545 S
N878 Tb840 2.600 . S
N878 C880 1.359 . S
N878 C881 1.327 . S
C879 H865 0.931 . S
C879 C881 1.392 . S
C879 C882 1.370 . S
C880 C876 1.432 . S
C880 N878 1.359 . S
C880 C883 1.414 1_565 S
C881 H863 0.930 . S
C881 N878 1.327 . S
C881 C879 1.392 . S
C882 H877 0.930 1_565 S
C882 C879 1.370 . S
C882 C883 1.385 1_565 S
C883 C880 1.414 1_545 S
C883 C882 1.385 1_545 S
C883 C905 1.444 . S
O884 Tb840 2.546 . S
O884 C904 1.251 1_565 S
O885 Tb840 2.610 . S
O885 Tb851 2.362 . S
O885 C896 1.283 . S
O886 Tb851 2.421 . S
O886 C903 1.262 . S
O887 Tb840 2.320 . S
O887 C903 1.260 . S
O888 Tb840 2.552 . S
O888 C896 1.243 . S
O889 Tb840 2.413 . S
O889 C904 1.256 1_565 S
O890 Tb851 2.546 . S
O890 C915 1.251 . S
O891 Tb840 2.362 . S
O891 Tb851 2.610 . S
O891 C907 1.283 . S
O892 Tb840 2.421 . S
O892 C914 1.262 . S
O893 Tb851 2.320 . S
O893 C914 1.260 . S
O894 Tb851 2.552 . S
O894 C907 1.243 . S
O895 Tb851 2.413 . S
O895 C915 1.256 . S
C896 O885 1.283 . S
C896 O888 1.243 . S
C897 C899 1.382 . S
C897 C901 1.393 . S
C897 C904 1.500 . S
C898 C899 1.400 . S
C898 C900 1.384 . S
C899 C897 1.382 . S
C899 C898 1.400 . S
C899 H916 0.930 . S
C900 C898 1.384 . S
C900 C902 1.392 . S
C900 H917 0.931 . S
C901 C897 1.393 . S
C901 C902 1.401 . S
C901 H918 0.930 . S
C902 C900 1.392 . S
C902 C901 1.401 . S
C902 H919 0.930 . S
C903 O886 1.262 . S
C903 O887 1.260 . S
C904 Tb840 2.833 1_545 S
C904 O884 1.251 1_545 S
C904 O889 1.256 1_545 S
C904 C897 1.500 . S
C905 H870 0.929 . S
C905 C883 1.444 . S
C905 C906 1.317 . S
C906 H868 0.930 . S
C906 C874 1.432 . S
C906 C905 1.317 . S
C907 O891 1.283 . S
C907 O894 1.243 . S
C908 C909 1.382 . S
C908 C912 1.393 . S
C908 C915 1.500 . S
C909 C908 1.382 . S
C909 C910 1.400 . S
C909 H920 0.930 . S
C910 C909 1.400 . S
C910 C911 1.384 . S
C911 C910 1.384 . S
C911 C913 1.392 . S
C911 H921 0.931 . S
C912 C908 1.393 . S
C912 C913 1.401 . S
C912 H922 0.930 . S
C913 C911 1.392 . S
C913 C912 1.401 . S
C913 H923 0.930 . S
C914 O892 1.262 . S
C914 O893 1.260 . S
C915 Tb851 2.833 . S
C915 O890 1.251 . S
C915 O895 1.256 . S
C915 C908 1.500 . S
H916 C899 0.930 . S
H917 C900 0.931 . S
H918 C901 0.930 . S
H919 C902 0.930 . S
H920 C909 0.930 . S
H921 C911 0.931 . S
H922 C912 0.930 . S
H923 C913 0.930 . S
Tb924 N955 2.660 . S
Tb924 N962 2.600 . S
Tb924 O968 2.546 . S
Tb924 O969 2.610 . S
Tb924 O971 2.320 . S
Tb924 O972 2.552 . S
Tb924 O973 2.413 . S
Tb924 O975 2.362 . S
Tb924 O976 2.421 . S
Tb924 C988 2.833 . S
C925 C928 1.432 . S
C925 C929 1.414 . S
C925 N932 1.359 . S
C926 C928 1.417 . S
C926 C930 1.432 . S
C926 C938 1.410 . S
C927 C929 1.444 . S
C927 C930 1.317 . S
C927 H950 0.929 . S
C928 C925 1.432 . S
C928 C926 1.417 . S
C928 N936 1.360 . S
C929 C925 1.414 . S
C929 C927 1.444 . S
C929 C934 1.385 . S
C930 C926 1.432 . S
C930 C927 1.317 . S
C930 H942 0.930 . S
C931 C933 1.392 . S
C931 C934 1.370 . S
C931 H943 0.931 . S
N932 C925 1.359 . S
N932 C933 1.327 . S
N932 Tb935 2.600 . S
C933 C931 1.392 . S
C933 N932 1.327 . S
C933 H940 0.930 . S
C934 C929 1.385 . S
C934 C931 1.370 . S
C934 H953 0.930 . S
Tb935 N932 2.600 . S
Tb935 N936 2.660 . S
Tb935 O969 2.362 . S
Tb935 O970 2.421 . S
Tb935 O974 2.546 . S
Tb935 O975 2.610 . S
Tb935 O977 2.320 . S
Tb935 O978 2.552 . S
Tb935 O979 2.413 . S
Tb935 C999 2.833 . S
N936 C928 1.360 . S
N936 Tb935 2.660 . S
N936 C937 1.305 . S
C937 N936 1.305 . S
C937 C939 1.407 . S
C937 H944 0.930 . S
C938 C926 1.410 . S
C938 C939 1.345 . S
C938 H946 0.930 . S
C939 C937 1.407 . S
C939 C938 1.345 . S
C939 H941 0.930 . S
H940 C933 0.930 . S
H941 C939 0.930 . S
H942 C930 0.930 . S
H943 C931 0.931 . S
H944 C937 0.930 . S
H945 C959 0.930 . S
H946 C938 0.930 . S
H947 C965 0.930 . S
H948 C956 0.930 . S
H949 C963 0.931 . S
H950 C927 0.929 . S
H951 C957 0.930 . S
H952 C990 0.930 . S
H953 C934 0.930 . S
H954 C989 0.929 . S
N955 Tb924 2.660 . S
N955 C956 1.305 . S
N955 C960 1.360 . S
C956 H948 0.930 . S
C956 N955 1.305 . S
C956 C959 1.407 1_565 S
C957 H951 0.930 . S
C957 C958 1.410 . S
C957 C959 1.345 . S
C958 C957 1.410 . S
C958 C960 1.417 1_545 S
C958 C990 1.432 . S
C959 H945 0.930 . S
C959 C956 1.407 1_545 S
C959 C957 1.345 . S
C960 N955 1.360 . S
C960 C958 1.417 1_565 S
C960 C964 1.432 . S
H961 C966 0.930 . S
N962 Tb924 2.600 . S
N962 C964 1.359 . S
N962 C965 1.327 . S
C963 H949 0.931 . S
C963 C965 1.392 1_554 S
C963 C966 1.370 . S
C964 C960 1.432 . S
C964 N962 1.359 . S
C964 C967 1.414 . S
C965 H947 0.930 . S
C965 N962 1.327 . S
C965 C963 1.392 1_556 S
C966 H961 0.930 . S
C966 C963 1.370 . S
C966 C967 1.385 1_554 S
C967 C964 1.414 . S
C967 C966 1.385 1_556 S
C967 C989 1.444 1_565 S
O968 Tb924 2.546 . S
O968 C988 1.251 . S
O969 Tb924 2.610 . S
O969 Tb935 2.362 . S
O969 C980 1.283 . S
O970 Tb935 2.421 . S
O970 C987 1.262 . S
O971 Tb924 2.320 . S
O971 C987 1.260 . S
O972 Tb924 2.552 . S
O972 C980 1.243 . S
O973 Tb924 2.413 . S
O973 C988 1.256 . S
O974 Tb935 2.546 . S
O974 C999 1.251 . S
O975 Tb924 2.362 . S
O975 Tb935 2.610 . S
O975 C991 1.283 . S
O976 Tb924 2.421 . S
O976 C998 1.262 . S
O977 Tb935 2.320 . S
O977 C998 1.260 . S
O978 Tb935 2.552 . S
O978 C991 1.243 . S
O979 Tb935 2.413 . S
O979 C999 1.256 . S
C980 O969 1.283 . S
C980 O972 1.243 . S
C981 C983 1.382 . S
C981 C985 1.393 . S
C981 C988 1.500 . S
C982 C983 1.400 . S
C982 C984 1.384 . S
C983 C981 1.382 . S
C983 C982 1.400 . S
C983 H1000 0.930 . S
C984 C982 1.384 . S
C984 C986 1.392 . S
C984 H1001 0.931 . S
C985 C981 1.393 . S
C985 C986 1.401 . S
C985 H1002 0.930 . S
C986 C984 1.392 . S
C986 C985 1.401 . S
C986 H1003 0.930 . S
C987 O970 1.262 . S
C987 O971 1.260 . S
C988 Tb924 2.833 . S
C988 O968 1.251 . S
C988 O973 1.256 . S
C988 C981 1.500 . S
C989 H954 0.929 . S
C989 C967 1.444 1_545 S
C989 C990 1.317 . S
C990 H952 0.930 . S
C990 C958 1.432 . S
C990 C989 1.317 . S
C991 O975 1.283 . S
C991 O978 1.243 . S
C992 C993 1.382 . S
C992 C996 1.393 . S
C992 C999 1.500 . S
C993 C992 1.382 . S
C993 C994 1.400 . S
C993 H1004 0.930 . S
C994 C993 1.400 . S
C994 C995 1.384 . S
C995 C994 1.384 . S
C995 C997 1.392 . S
C995 H1005 0.931 . S
C996 C992 1.393 . S
C996 C997 1.401 . S
C996 H1006 0.930 . S
C997 C995 1.392 . S
C997 C996 1.401 . S
C997 H1007 0.930 . S
C998 O976 1.262 . S
C998 O977 1.260 . S
C999 Tb935 2.833 . S
C999 O974 1.251 . S
C999 O979 1.256 . S
C999 C992 1.500 . S
H1000 C983 0.930 . S
H1001 C984 0.931 . S
H1002 C985 0.930 . S
H1003 C986 0.930 . S
H1004 C993 0.930 . S
H1005 C995 0.931 . S
H1006 C996 0.930 . S
H1007 C997 0.930 . S
C1008 C1009 1.369 . S
C1008 C1010 1.419 . S
C1008 H1012 0.930 . S
C1009 C1008 1.369 . S
C1009 C1018 1.429 . S
C1010 C1008 1.419 . S
C1010 C1011 1.363 . S
C1010 H1013 0.929 . S
C1011 C1010 1.363 . S
C1011 C1017 1.428 . S
H1012 C1008 0.930 . S
H1013 C1010 0.929 . S
S1014 N1015 1.613 . S
S1014 N1016 1.610 . S
N1015 S1014 1.613 . S
N1015 C1018 1.350 . S
N1016 S1014 1.610 . S
N1016 C1017 1.351 . S
C1017 C1011 1.428 . S
C1017 N1016 1.351 . S
C1017 C1018 1.434 . S
C1018 C1009 1.429 . S
C1018 N1015 1.350 . S
C1018 C1017 1.434 . S
C1019 C1020 1.369 . S
C1019 C1021 1.419 1_455 S
C1019 H1023 0.930 . S
C1020 C1019 1.369 . S
C1020 C1029 1.429 . S
C1021 C1019 1.419 1_655 S
C1021 C1022 1.363 . S
C1021 H1024 0.929 . S
C1022 C1021 1.363 . S
C1022 C1028 1.428 . S
H1023 C1019 0.930 . S
H1024 C1021 0.929 . S
S1025 N1026 1.613 . S
S1025 N1027 1.610 1_455 S
N1026 S1025 1.613 . S
N1026 C1029 1.350 . S
N1027 S1025 1.610 1_655 S
N1027 C1028 1.351 . S
C1028 C1022 1.428 . S
C1028 N1027 1.351 . S
C1028 C1029 1.434 1_655 S
C1029 C1020 1.429 . S
C1029 N1026 1.350 . S
C1029 C1028 1.434 1_455 S
C1030 C1031 1.369 . S
C1030 C1032 1.419 1_545 S
C1030 H1034 0.930 . S
C1031 C1030 1.369 . S
C1031 C1040 1.429 . S
C1032 C1030 1.419 1_565 S
C1032 C1033 1.363 . S
C1032 H1035 0.929 . S
C1033 C1032 1.363 . S
C1033 C1039 1.428 . S
H1034 C1030 0.930 . S
H1035 C1032 0.929 . S
S1036 N1037 1.613 1_565 S
S1036 N1038 1.610 . S
N1037 S1036 1.613 1_545 S
N1037 C1040 1.350 . S
N1038 S1036 1.610 . S
N1038 C1039 1.351 . S
C1039 C1033 1.428 . S
C1039 N1038 1.351 . S
C1039 C1040 1.434 1_565 S
C1040 C1031 1.429 . S
C1040 N1037 1.350 . S
C1040 C1039 1.434 1_545 S
C1041 C1042 1.369 . S
C1041 C1043 1.419 . S
C1041 H1045 0.930 . S
C1042 C1041 1.369 . S
C1042 C1051 1.429 . S
C1043 C1041 1.419 . S
C1043 C1044 1.363 . S
C1043 H1046 0.929 . S
C1044 C1043 1.363 . S
C1044 C1050 1.428 . S
H1045 C1041 0.930 . S
H1046 C1043 0.929 . S
S1047 N1048 1.613 . S
S1047 N1049 1.610 . S
N1048 S1047 1.613 . S
N1048 C1051 1.350 . S
N1049 S1047 1.610 . S
N1049 C1050 1.351 . S
C1050 C1044 1.428 . S
C1050 N1049 1.351 . S
C1050 C1051 1.434 . S
C1051 C1042 1.429 . S
C1051 N1048 1.350 . S
C1051 C1050 1.434 . S
C1052 C1053 1.369 . S
C1052 C1054 1.419 1_455 S
C1052 H1056 0.930 . S
C1053 C1052 1.369 . S
C1053 C1062 1.429 . S
C1054 C1052 1.419 1_655 S
C1054 C1055 1.363 . S
C1054 H1057 0.929 . S
C1055 C1054 1.363 . S
C1055 C1061 1.428 . S
H1056 C1052 0.930 . S
H1057 C1054 0.929 . S
S1058 N1059 1.613 1_655 S
S1058 N1060 1.610 . S
N1059 S1058 1.613 1_455 S
N1059 C1062 1.350 . S
N1060 S1058 1.610 . S
N1060 C1061 1.351 . S
C1061 C1055 1.428 . S
C1061 N1060 1.351 . S
C1061 C1062 1.434 1_655 S
C1062 C1053 1.429 . S
C1062 N1059 1.350 . S
C1062 C1061 1.434 1_455 S
C1063 C1064 1.369 . S
C1063 C1065 1.419 1_565 S
C1063 H1067 0.930 . S
C1064 C1063 1.369 . S
C1064 C1073 1.429 . S
C1065 C1063 1.419 1_545 S
C1065 C1066 1.363 . S
C1065 H1068 0.929 . S
C1066 C1065 1.363 . S
C1066 C1072 1.428 . S
H1067 C1063 0.930 . S
H1068 C1065 0.929 . S
S1069 N1070 1.613 1_545 S
S1069 N1071 1.610 . S
N1070 S1069 1.613 1_565 S
N1070 C1073 1.350 . S
N1071 S1069 1.610 . S
N1071 C1072 1.351 . S
C1072 C1066 1.428 . S
C1072 N1071 1.351 . S
C1072 C1073 1.434 1_545 S
C1073 C1064 1.429 . S
C1073 N1070 1.350 . S
C1073 C1072 1.434 1_565 S
C1074 C1075 1.369 . S
C1074 C1076 1.419 . S
C1074 H1078 0.930 . S
C1075 C1074 1.369 . S
C1075 C1084 1.429 . S
C1076 C1074 1.419 . S
C1076 C1077 1.363 . S
C1076 H1079 0.929 . S
C1077 C1076 1.363 . S
C1077 C1083 1.428 . S
H1078 C1074 0.930 . S
H1079 C1076 0.929 . S
S1080 N1081 1.613 . S
S1080 N1082 1.610 . S
N1081 S1080 1.613 . S
N1081 C1084 1.350 . S
N1082 S1080 1.610 . S
N1082 C1083 1.351 . S
C1083 C1077 1.428 . S
C1083 N1082 1.351 . S
C1083 C1084 1.434 . S
C1084 C1075 1.429 . S
C1084 N1081 1.350 . S
C1084 C1083 1.434 . S
C1085 C1086 1.369 . S
C1085 C1087 1.419 1_455 S
C1085 H1089 0.930 . S
C1086 C1085 1.369 . S
C1086 C1095 1.429 . S
C1087 C1085 1.419 1_655 S
C1087 C1088 1.363 . S
C1087 H1090 0.929 . S
C1088 C1087 1.363 . S
C1088 C1094 1.428 . S
H1089 C1085 0.930 . S
H1090 C1087 0.929 . S
S1091 N1092 1.613 1_655 S
S1091 N1093 1.610 . S
N1092 S1091 1.613 1_455 S
N1092 C1095 1.350 . S
N1093 S1091 1.610 . S
N1093 C1094 1.351 . S
C1094 C1088 1.428 . S
C1094 N1093 1.351 . S
C1094 C1095 1.434 1_655 S
C1095 C1086 1.429 . S
C1095 N1092 1.350 . S
C1095 C1094 1.434 1_455 S
C1096 C1097 1.369 . S
C1096 C1098 1.419 1_565 S
C1096 H1100 0.930 . S
C1097 C1096 1.369 . S
C1097 C1106 1.429 . S
C1098 C1096 1.419 1_545 S
C1098 C1099 1.363 . S
C1098 H1101 0.929 . S
C1099 C1098 1.363 . S
C1099 C1105 1.428 . S
H1100 C1096 0.930 . S
H1101 C1098 0.929 . S
S1102 N1103 1.613 1_545 S
S1102 N1104 1.610 . S
N1103 S1102 1.613 1_565 S
N1103 C1106 1.350 . S
N1104 S1102 1.610 . S
N1104 C1105 1.351 . S
C1105 C1099 1.428 . S
C1105 N1104 1.351 . S
C1105 C1106 1.434 1_545 S
C1106 C1097 1.429 . S
C1106 N1103 1.350 . S
C1106 C1105 1.434 1_565 S
C1107 C1108 1.369 . S
C1107 C1109 1.419 . S
C1107 H1111 0.930 . S
C1108 C1107 1.369 . S
C1108 C1117 1.429 . S
C1109 C1107 1.419 . S
C1109 C1110 1.363 . S
C1109 H1112 0.929 . S
C1110 C1109 1.363 . S
C1110 C1116 1.428 . S
H1111 C1107 0.930 . S
H1112 C1109 0.929 . S
S1113 N1114 1.613 . S
S1113 N1115 1.610 . S
N1114 S1113 1.613 . S
N1114 C1117 1.350 . S
N1115 S1113 1.610 . S
N1115 C1116 1.351 . S
C1116 C1110 1.428 . S
C1116 N1115 1.351 . S
C1116 C1117 1.434 . S
C1117 C1108 1.429 . S
C1117 N1114 1.350 . S
C1117 C1116 1.434 . S
C1118 C1119 1.369 . S
C1118 C1120 1.419 1_455 S
C1118 H1122 0.930 . S
C1119 C1118 1.369 . S
C1119 C1128 1.429 . S
C1120 C1118 1.419 1_655 S
C1120 C1121 1.363 . S
C1120 H1123 0.929 . S
C1121 C1120 1.363 . S
C1121 C1127 1.428 . S
H1122 C1118 0.930 . S
H1123 C1120 0.929 . S
S1124 N1125 1.613 . S
S1124 N1126 1.610 1_455 S
N1125 S1124 1.613 . S
N1125 C1128 1.350 . S
N1126 S1124 1.610 1_655 S
N1126 C1127 1.351 . S
C1127 C1121 1.428 . S
C1127 N1126 1.351 . S
C1127 C1128 1.434 1_655 S
C1128 C1119 1.429 . S
C1128 N1125 1.350 . S
C1128 C1127 1.434 1_455 S
C1129 C1130 1.369 . S
C1129 C1131 1.419 1_545 S
C1129 H1133 0.930 . S
C1130 C1129 1.369 . S
C1130 C1139 1.429 . S
C1131 C1129 1.419 1_565 S
C1131 C1132 1.363 . S
C1131 H1134 0.929 . S
C1132 C1131 1.363 . S
C1132 C1138 1.428 . S
H1133 C1129 0.930 . S
H1134 C1131 0.929 . S
S1135 N1136 1.613 . S
S1135 N1137 1.610 1_545 S
N1136 S1135 1.613 . S
N1136 C1139 1.350 . S
N1137 S1135 1.610 1_565 S
N1137 C1138 1.351 . S
C1138 C1132 1.428 . S
C1138 N1137 1.351 . S
C1138 C1139 1.434 1_565 S
C1139 C1130 1.429 . S
C1139 N1136 1.350 . S
C1139 C1138 1.434 1_545 S
C1140 C1141 1.369 . S
C1140 C1142 1.419 . S
C1140 H1144 0.930 . S
C1141 C1140 1.369 . S
C1141 C1150 1.429 . S
C1142 C1140 1.419 . S
C1142 C1143 1.363 . S
C1142 H1145 0.929 . S
C1143 C1142 1.363 . S
C1143 C1149 1.428 . S
H1144 C1140 0.930 . S
H1145 C1142 0.929 . S
S1146 N1147 1.613 . S
S1146 N1148 1.610 . S
N1147 S1146 1.613 . S
N1147 C1150 1.350 . S
N1148 S1146 1.610 . S
N1148 C1149 1.351 . S
C1149 C1143 1.428 . S
C1149 N1148 1.351 . S
C1149 C1150 1.434 . S
C1150 C1141 1.429 . S
C1150 N1147 1.350 . S
C1150 C1149 1.434 . S
C1151 C1152 1.369 . S
C1151 C1153 1.419 . S
C1151 H1155 0.930 . S
C1152 C1151 1.369 . S
C1152 C1161 1.429 . S
C1153 C1151 1.419 . S
C1153 C1154 1.363 . S
C1153 H1156 0.929 . S
C1154 C1153 1.363 . S
C1154 C1160 1.428 . S
H1155 C1151 0.930 . S
H1156 C1153 0.929 . S
S1157 N1158 1.613 . S
S1157 N1159 1.610 . S
N1158 S1157 1.613 . S
N1158 C1161 1.350 . S
N1159 S1157 1.610 . S
N1159 C1160 1.351 . S
C1160 C1154 1.428 . S
C1160 N1159 1.351 . S
C1160 C1161 1.434 . S
C1161 C1152 1.429 . S
C1161 N1158 1.350 . S
C1161 C1160 1.434 . S
C1162 C1163 1.369 . S
C1162 C1164 1.419 . S
C1162 H1166 0.930 . S
C1163 C1162 1.369 . S
C1163 C1172 1.429 . S
C1164 C1162 1.419 . S
C1164 C1165 1.363 . S
C1164 H1167 0.929 . S
C1165 C1164 1.363 . S
C1165 C1171 1.428 . S
H1166 C1162 0.930 . S
H1167 C1164 0.929 . S
S1168 N1169 1.613 . S
S1168 N1170 1.610 . S
N1169 S1168 1.613 . S
N1169 C1172 1.350 . S
N1170 S1168 1.610 . S
N1170 C1171 1.351 . S
C1171 C1165 1.428 . S
C1171 N1170 1.351 . S
C1171 C1172 1.434 . S
C1172 C1163 1.429 . S
C1172 N1169 1.350 . S
C1172 C1171 1.434 . S
C1173 C1174 1.369 . S
C1173 C1175 1.419 . S
C1173 H1177 0.930 . S
C1174 C1173 1.369 . S
C1174 C1183 1.429 . S
C1175 C1173 1.419 . S
C1175 C1176 1.363 . S
C1175 H1178 0.929 . S
C1176 C1175 1.363 . S
C1176 C1182 1.428 . S
H1177 C1173 0.930 . S
H1178 C1175 0.929 . S
S1179 N1180 1.613 . S
S1179 N1181 1.610 . S
N1180 S1179 1.613 . S
N1180 C1183 1.350 . S
N1181 S1179 1.610 . S
N1181 C1182 1.351 . S
C1182 C1176 1.428 . S
C1182 N1181 1.351 . S
C1182 C1183 1.434 . S
C1183 C1174 1.429 . S
C1183 N1180 1.350 . S
C1183 C1182 1.434 . S
C1184 C1185 1.369 . S
C1184 C1186 1.419 . S
C1184 H1188 0.930 . S
C1185 C1184 1.369 . S
C1185 C1194 1.429 . S
C1186 C1184 1.419 . S
C1186 C1187 1.363 . S
C1186 H1189 0.929 . S
C1187 C1186 1.363 . S
C1187 C1193 1.428 . S
H1188 C1184 0.930 . S
H1189 C1186 0.929 . S
S1190 N1191 1.613 . S
S1190 N1192 1.610 . S
N1191 S1190 1.613 . S
N1191 C1194 1.350 . S
N1192 S1190 1.610 . S
N1192 C1193 1.351 . S
C1193 C1187 1.428 . S
C1193 N1192 1.351 . S
C1193 C1194 1.434 . S
C1194 C1185 1.429 . S
C1194 N1191 1.350 . S
C1194 C1193 1.434 . S
C1195 C1196 1.369 . S
C1195 C1197 1.419 . S
C1195 H1199 0.930 . S
C1196 C1195 1.369 . S
C1196 C1205 1.429 . S
C1197 C1195 1.419 . S
C1197 C1198 1.363 . S
C1197 H1200 0.929 . S
C1198 C1197 1.363 . S
C1198 C1204 1.428 . S
H1199 C1195 0.930 . S
H1200 C1197 0.929 . S
S1201 N1202 1.613 . S
S1201 N1203 1.610 . S
N1202 S1201 1.613 . S
N1202 C1205 1.350 . S
N1203 S1201 1.610 . S
N1203 C1204 1.351 . S
C1204 C1198 1.428 . S
C1204 N1203 1.351 . S
C1204 C1205 1.434 . S
C1205 C1196 1.429 . S
C1205 N1202 1.350 . S
C1205 C1204 1.434 . S
C1206 C1207 1.369 . S
C1206 C1208 1.419 1_565 S
C1206 H1210 0.930 . S
C1207 C1206 1.369 . S
C1207 C1216 1.429 1_556 S
C1208 C1206 1.419 1_545 S
C1208 C1209 1.363 1_556 S
C1208 H1211 0.929 . S
C1209 C1208 1.363 1_554 S
C1209 C1215 1.428 . S
H1210 C1206 0.930 . S
H1211 C1208 0.929 . S
S1212 N1213 1.613 . S
S1212 N1214 1.610 1_565 S
N1213 S1212 1.613 . S
N1213 C1216 1.350 . S
N1214 S1212 1.610 1_545 S
N1214 C1215 1.351 . S
C1215 C1209 1.428 . S
C1215 N1214 1.351 . S
C1215 C1216 1.434 1_545 S
C1216 C1207 1.429 1_554 S
C1216 N1213 1.350 . S
C1216 C1215 1.434 1_565 S
C1217 C1218 1.369 . S
C1217 C1219 1.419 . S
C1217 H1221 0.930 . S
C1218 C1217 1.369 . S
C1218 C1227 1.429 . S
C1219 C1217 1.419 . S
C1219 C1220 1.363 . S
C1219 H1222 0.929 . S
C1220 C1219 1.363 . S
C1220 C1226 1.428 . S
H1221 C1217 0.930 . S
H1222 C1219 0.929 . S
S1223 N1224 1.613 . S
S1223 N1225 1.610 . S
N1224 S1223 1.613 . S
N1224 C1227 1.350 . S
N1225 S1223 1.610 . S
N1225 C1226 1.351 . S
C1226 C1220 1.428 . S
C1226 N1225 1.351 . S
C1226 C1227 1.434 . S
C1227 C1218 1.429 . S
C1227 N1224 1.350 . S
C1227 C1226 1.434 . S
C1228 C1229 1.369 . S
C1228 C1230 1.419 1_455 S
C1228 H1232 0.930 . S
C1229 C1228 1.369 . S
C1229 C1238 1.429 1_556 S
C1230 C1228 1.419 1_655 S
C1230 C1231 1.363 1_556 S
C1230 H1233 0.929 . S
C1231 C1230 1.363 1_554 S
C1231 C1237 1.428 . S
H1232 C1228 0.930 . S
H1233 C1230 0.929 . S
S1234 N1235 1.613 . S
S1234 N1236 1.610 1_455 S
N1235 S1234 1.613 . S
N1235 C1238 1.350 . S
N1236 S1234 1.610 1_655 S
N1236 C1237 1.351 . S
C1237 C1231 1.428 . S
C1237 N1236 1.351 . S
C1237 C1238 1.434 1_655 S
C1238 C1229 1.429 1_554 S
C1238 N1235 1.350 . S
C1238 C1237 1.434 1_455 S
C1239 C1240 1.369 . S
C1239 C1241 1.419 1_545 S
C1239 H1243 0.930 . S
C1240 C1239 1.369 . S
C1240 C1249 1.429 . S
C1241 C1239 1.419 1_565 S
C1241 C1242 1.363 . S
C1241 H1244 0.929 . S
C1242 C1241 1.363 . S
C1242 C1248 1.428 . S
H1243 C1239 0.930 . S
H1244 C1241 0.929 . S
S1245 N1246 1.613 . S
S1245 N1247 1.610 1_545 S
N1246 S1245 1.613 . S
N1246 C1249 1.350 . S
N1247 S1245 1.610 1_565 S
N1247 C1248 1.351 . S
C1248 C1242 1.428 . S
C1248 N1247 1.351 . S
C1248 C1249 1.434 1_565 S
C1249 C1240 1.429 . S
C1249 N1246 1.350 . S
C1249 C1248 1.434 1_545 S
C1250 C1251 1.369 . S
C1250 C1252 1.419 . S
C1250 H1254 0.930 . S
C1251 C1250 1.369 . S
C1251 C1260 1.429 1_554 S
C1252 C1250 1.419 . S
C1252 C1253 1.363 1_554 S
C1252 H1255 0.929 . S
C1253 C1252 1.363 1_556 S
C1253 C1259 1.428 . S
H1254 C1250 0.930 . S
H1255 C1252 0.929 . S
S1256 N1257 1.613 . S
S1256 N1258 1.610 . S
N1257 S1256 1.613 . S
N1257 C1260 1.350 . S
N1258 S1256 1.610 . S
N1258 C1259 1.351 . S
C1259 C1253 1.428 . S
C1259 N1258 1.351 . S
C1259 C1260 1.434 . S
C1260 C1251 1.429 1_556 S
C1260 N1257 1.350 . S
C1260 C1259 1.434 . S
C1261 C1262 1.369 . S
C1261 C1263 1.419 1_455 S
C1261 H1265 0.930 . S
C1262 C1261 1.369 . S
C1262 C1271 1.429 . S
C1263 C1261 1.419 1_655 S
C1263 C1264 1.363 . S
C1263 H1266 0.929 . S
C1264 C1263 1.363 . S
C1264 C1270 1.428 . S
H1265 C1261 0.930 . S
H1266 C1263 0.929 . S
S1267 N1268 1.613 . S
S1267 N1269 1.610 1_455 S
N1268 S1267 1.613 . S
N1268 C1271 1.350 . S
N1269 S1267 1.610 1_655 S
N1269 C1270 1.351 . S
C1270 C1264 1.428 . S
C1270 N1269 1.351 . S
C1270 C1271 1.434 1_655 S
C1271 C1262 1.429 . S
C1271 N1268 1.350 . S
C1271 C1270 1.434 1_455 S
C1272 C1273 1.369 . S
C1272 C1274 1.419 . S
C1272 H1276 0.930 . S
C1273 C1272 1.369 . S
C1273 C1282 1.429 . S
C1274 C1272 1.419 . S
C1274 C1275 1.363 . S
C1274 H1277 0.929 . S
C1275 C1274 1.363 . S
C1275 C1281 1.428 . S
H1276 C1272 0.930 . S
H1277 C1274 0.929 . S
S1278 N1279 1.613 . S
S1278 N1280 1.610 . S
N1279 S1278 1.613 . S
N1279 C1282 1.350 . S
N1280 S1278 1.610 . S
N1280 C1281 1.351 . S
C1281 C1275 1.428 . S
C1281 N1280 1.351 . S
C1281 C1282 1.434 . S
C1282 C1273 1.429 . S
C1282 N1279 1.350 . S
C1282 C1281 1.434 . S
C1283 C1284 1.369 . S
C1283 C1285 1.419 . S
C1283 H1287 0.930 . S
C1284 C1283 1.369 . S
C1284 C1293 1.429 . S
C1285 C1283 1.419 . S
C1285 C1286 1.363 . S
C1285 H1288 0.929 . S
C1286 C1285 1.363 . S
C1286 C1292 1.428 . S
H1287 C1283 0.930 . S
H1288 C1285 0.929 . S
S1289 N1290 1.613 . S
S1289 N1291 1.610 . S
N1290 S1289 1.613 . S
N1290 C1293 1.350 . S
N1291 S1289 1.610 . S
N1291 C1292 1.351 . S
C1292 C1286 1.428 . S
C1292 N1291 1.351 . S
C1292 C1293 1.434 . S
C1293 C1284 1.429 . S
C1293 N1290 1.350 . S
C1293 C1292 1.434 . S
C1294 C1295 1.369 . S
C1294 C1296 1.419 . S
C1294 H1298 0.930 . S
C1295 C1294 1.369 . S
C1295 C1304 1.429 . S
C1296 C1294 1.419 . S
C1296 C1297 1.363 . S
C1296 H1299 0.929 . S
C1297 C1296 1.363 . S
C1297 C1303 1.428 . S
H1298 C1294 0.930 . S
H1299 C1296 0.929 . S
S1300 N1301 1.613 . S
S1300 N1302 1.610 . S
N1301 S1300 1.613 . S
N1301 C1304 1.350 . S
N1302 S1300 1.610 . S
N1302 C1303 1.351 . S
C1303 C1297 1.428 . S
C1303 N1302 1.351 . S
C1303 C1304 1.434 . S
C1304 C1295 1.429 . S
C1304 N1301 1.350 . S
C1304 C1303 1.434 . S
C1305 C1306 1.369 . S
C1305 C1307 1.419 . S
C1305 H1309 0.930 . S
C1306 C1305 1.369 . S
C1306 C1315 1.429 . S
C1307 C1305 1.419 . S
C1307 C1308 1.363 . S
C1307 H1310 0.929 . S
C1308 C1307 1.363 . S
C1308 C1314 1.428 . S
H1309 C1305 0.930 . S
H1310 C1307 0.929 . S
S1311 N1312 1.613 . S
S1311 N1313 1.610 . S
N1312 S1311 1.613 . S
N1312 C1315 1.350 . S
N1313 S1311 1.610 . S
N1313 C1314 1.351 . S
C1314 C1308 1.428 . S
C1314 N1313 1.351 . S
C1314 C1315 1.434 . S
C1315 C1306 1.429 . S
C1315 N1312 1.350 . S
C1315 C1314 1.434 . S
C1316 C1317 1.369 . S
C1316 C1318 1.419 . S
C1316 H1320 0.930 . S
C1317 C1316 1.369 . S
C1317 C1326 1.429 . S
C1318 C1316 1.419 . S
C1318 C1319 1.363 . S
C1318 H1321 0.929 . S
C1319 C1318 1.363 . S
C1319 C1325 1.428 . S
H1320 C1316 0.930 . S
H1321 C1318 0.929 . S
S1322 N1323 1.613 . S
S1322 N1324 1.610 . S
N1323 S1322 1.613 . S
N1323 C1326 1.350 . S
N1324 S1322 1.610 . S
N1324 C1325 1.351 . S
C1325 C1319 1.428 . S
C1325 N1324 1.351 . S
C1325 C1326 1.434 . S
C1326 C1317 1.429 . S
C1326 N1323 1.350 . S
C1326 C1325 1.434 . S
C1327 C1328 1.369 . S
C1327 C1329 1.419 . S
C1327 H1331 0.930 . S
C1328 C1327 1.369 . S
C1328 C1337 1.429 . S
C1329 C1327 1.419 . S
C1329 C1330 1.363 . S
C1329 H1332 0.929 . S
C1330 C1329 1.363 . S
C1330 C1336 1.428 . S
H1331 C1327 0.930 . S
H1332 C1329 0.929 . S
S1333 N1334 1.613 . S
S1333 N1335 1.610 . S
N1334 S1333 1.613 . S
N1334 C1337 1.350 . S
N1335 S1333 1.610 . S
N1335 C1336 1.351 . S
C1336 C1330 1.428 . S
C1336 N1335 1.351 . S
C1336 C1337 1.434 . S
C1337 C1328 1.429 . S
C1337 N1334 1.350 . S
C1337 C1336 1.434 . S
C1338 C1339 1.369 . S
C1338 C1340 1.419 . S
C1338 H1342 0.930 . S
C1339 C1338 1.369 . S
C1339 C1348 1.429 . S
C1340 C1338 1.419 . S
C1340 C1341 1.363 . S
C1340 H1343 0.929 . S
C1341 C1340 1.363 . S
C1341 C1347 1.428 . S
H1342 C1338 0.930 . S
H1343 C1340 0.929 . S
S1344 N1345 1.613 . S
S1344 N1346 1.610 . S
N1345 S1344 1.613 . S
N1345 C1348 1.350 . S
N1346 S1344 1.610 . S
N1346 C1347 1.351 . S
C1347 C1341 1.428 . S
C1347 N1346 1.351 . S
C1347 C1348 1.434 . S
C1348 C1339 1.429 . S
C1348 N1345 1.350 . S
C1348 C1347 1.434 . S
C1349 C1350 1.369 . S
C1349 C1351 1.419 . S
C1349 H1353 0.930 . S
C1350 C1349 1.369 . S
C1350 C1359 1.429 . S
C1351 C1349 1.419 . S
C1351 C1352 1.363 . S
C1351 H1354 0.929 . S
C1352 C1351 1.363 . S
C1352 C1358 1.428 . S
H1353 C1349 0.930 . S
H1354 C1351 0.929 . S
S1355 N1356 1.613 . S
S1355 N1357 1.610 . S
N1356 S1355 1.613 . S
N1356 C1359 1.350 . S
N1357 S1355 1.610 . S
N1357 C1358 1.351 . S
C1358 C1352 1.428 . S
C1358 N1357 1.351 . S
C1358 C1359 1.434 . S
C1359 C1350 1.429 . S
C1359 N1356 1.350 . S
C1359 C1358 1.434 . S
C1360 C1361 1.369 . S
C1360 C1362 1.419 . S
C1360 H1364 0.930 . S
C1361 C1360 1.369 . S
C1361 C1370 1.429 . S
C1362 C1360 1.419 . S
C1362 C1363 1.363 . S
C1362 H1365 0.929 . S
C1363 C1362 1.363 . S
C1363 C1369 1.428 . S
H1364 C1360 0.930 . S
H1365 C1362 0.929 . S
S1366 N1367 1.613 . S
S1366 N1368 1.610 . S
N1367 S1366 1.613 . S
N1367 C1370 1.350 . S
N1368 S1366 1.610 . S
N1368 C1369 1.351 . S
C1369 C1363 1.428 . S
C1369 N1368 1.351 . S
C1369 C1370 1.434 . S
C1370 C1361 1.429 . S
C1370 N1367 1.350 . S
C1370 C1369 1.434 . S
C1371 C1372 1.369 . S
C1371 C1373 1.419 . S
C1371 H1375 0.930 . S
C1372 C1371 1.369 . S
C1372 C1381 1.429 . S
C1373 C1371 1.419 . S
C1373 C1374 1.363 . S
C1373 H1376 0.929 . S
C1374 C1373 1.363 . S
C1374 C1380 1.428 . S
H1375 C1371 0.930 . S
H1376 C1373 0.929 . S
S1377 N1378 1.613 . S
S1377 N1379 1.610 . S
N1378 S1377 1.613 . S
N1378 C1381 1.350 . S
N1379 S1377 1.610 . S
N1379 C1380 1.351 . S
C1380 C1374 1.428 . S
C1380 N1379 1.351 . S
C1380 C1381 1.434 . S
C1381 C1372 1.429 . S
C1381 N1378 1.350 . S
C1381 C1380 1.434 . S
C1382 C1383 1.369 . S
C1382 C1384 1.419 . S
C1382 H1386 0.930 . S
C1383 C1382 1.369 . S
C1383 C1392 1.429 . S
C1384 C1382 1.419 . S
C1384 C1385 1.363 . S
C1384 H1387 0.929 . S
C1385 C1384 1.363 . S
C1385 C1391 1.428 . S
H1386 C1382 0.930 . S
H1387 C1384 0.929 . S
S1388 N1389 1.613 . S
S1388 N1390 1.610 . S
N1389 S1388 1.613 . S
N1389 C1392 1.350 . S
N1390 S1388 1.610 . S
N1390 C1391 1.351 . S
C1391 C1385 1.428 . S
C1391 N1390 1.351 . S
C1391 C1392 1.434 . S
C1392 C1383 1.429 . S
C1392 N1389 1.350 . S
C1392 C1391 1.434 . S
C1393 C1394 1.369 . S
C1393 C1395 1.419 . S
C1393 H1397 0.930 . S
C1394 C1393 1.369 . S
C1394 C1403 1.429 . S
C1395 C1393 1.419 . S
C1395 C1396 1.363 . S
C1395 H1398 0.929 . S
C1396 C1395 1.363 . S
C1396 C1402 1.428 . S
H1397 C1393 0.930 . S
H1398 C1395 0.929 . S
S1399 N1400 1.613 . S
S1399 N1401 1.610 . S
N1400 S1399 1.613 . S
N1400 C1403 1.350 . S
N1401 S1399 1.610 . S
N1401 C1402 1.351 . S
C1402 C1396 1.428 . S
C1402 N1401 1.351 . S
C1402 C1403 1.434 . S
C1403 C1394 1.429 . S
C1403 N1400 1.350 . S
C1403 C1402 1.434 . S
C1009 C238 1.283 . S
C1011 C67 1.359 . S
C1020 C310 1.284 . S
C1022 C140 1.364 . S
C1031 C235 1.366 . S
C1033 C406 1.287 . S
C1042 C308 1.364 . S
C1044 C478 1.282 . S
C1053 C70 1.282 . S
C1055 C403 1.359 . S
C1064 C142 1.291 . S
C1066 C476 1.363 . S
C1075 C898 1.275 . S
C1077 C560 1.358 . S
C1086 C655 1.361 . S
C1088 C994 1.279 . S
C1097 C728 1.363 . S
C1099 C562 1.280 . S
C1108 C823 1.356 . S
C1110 C658 1.277 . S
C1119 C896 1.356 . S
C1121 C730 1.280 . S
C1130 C826 1.290 . S
C1132 C991 1.365 . S
C1141 C326 1.901 . S
C1143 C63 1.902 . S
C1152 C158 1.900 . S
C1154 C399 1.901 . S
C1163 C231 1.901 . S
C1165 C494 1.901 . S
C1174 C578 1.899 . S
C1176 C819 1.900 . S
C1185 C651 1.903 . S
C1187 C914 1.904 . S
C1196 C746 1.901 . S
C1198 C987 1.902 . S
C1207 C662 2.211 . S
C1209 C74 2.205 . S
C1218 C147 2.211 . S
C1220 C735 2.205 . S
C1229 C830 2.212 . S
C1231 C242 2.207 . S
C1240 C315 2.210 . S
C1242 C903 2.205 . S
C1251 C410 2.211 . S
C1253 C998 2.210 . S
C1262 C567 2.204 . S
C1264 C483 2.206 . S
C1273 C226 1.331 . S
C1275 C56 1.404 . S
C1284 C151 1.400 . S
C1286 C322 1.337 . S
C1295 C224 1.403 . S
C1297 C394 1.337 . S
C1306 C319 1.394 . S
C1308 C490 1.334 . S
C1317 C58 1.323 . S
C1319 C392 1.400 . S
C1328 C154 1.335 . S
C1330 C487 1.404 . S
C1339 C910 1.328 . S
C1341 C571 1.394 . S
C1350 C644 1.398 . S
C1352 C982 1.325 . S
C1361 C739 1.394 . S
C1363 C574 1.333 . S
C1372 C646 1.336 . S
C1374 C812 1.396 . S
C1383 C907 1.393 . S
C1385 C742 1.328 . S
C1394 C980 1.393 . S
C1396 C814 1.328 . S
