# Generated by pormake.
# Topology snz, (6)-cn, num edge types: 1
# Building blocks:
#     Node 0, Type 0, BuildingBlock: CUKXOW_clean_sbu_0, # of connection points: 6
#     Node 1, Type 0, BuildingBlock: CUKXOW_clean_sbu_0, # of connection points: 6
#     Node 2, Type 0, BuildingBlock: CUKXOW_clean_sbu_0, # of connection points: 6
#     Node 3, Type 0, BuildingBlock: CUKXOW_clean_sbu_0, # of connection points: 6
#     Node 4, Type 0, BuildingBlock: CUKXOW_clean_sbu_0, # of connection points: 6
#     Node 5, Type 0, BuildingBlock: CUKXOW_clean_sbu_0, # of connection points: 6
#     Node 6, Type 0, BuildingBlock: CUKXOW_clean_sbu_0, # of connection points: 6
#     Node 7, Type 0, BuildingBlock: CUKXOW_clean_sbu_0, # of connection points: 6
#     Node 8, Type 0, BuildingBlock: CUKXOW_clean_sbu_0, # of connection points: 6
#     Edge 9, Type (0, 0), BuildingBlock: OJICUG_clean_linker_0, # of connection points: 2
#     Edge 10, Type (0, 0), BuildingBlock: OJICUG_clean_linker_0, # of connection points: 2
#     Edge 11, Type (0, 0), BuildingBlock: OJICUG_clean_linker_0, # of connection points: 2
#     Edge 12, Type (0, 0), BuildingBlock: OJICUG_clean_linker_0, # of connection points: 2
#     Edge 13, Type (0, 0), BuildingBlock: OJICUG_clean_linker_0, # of connection points: 2
#     Edge 14, Type (0, 0), BuildingBlock: OJICUG_clean_linker_0, # of connection points: 2
#     Edge 15, Type (0, 0), BuildingBlock: OJICUG_clean_linker_0, # of connection points: 2
#     Edge 16, Type (0, 0), BuildingBlock: OJICUG_clean_linker_0, # of connection points: 2
#     Edge 17, Type (0, 0), BuildingBlock: OJICUG_clean_linker_0, # of connection points: 2
#     Edge 18, Type (0, 0), BuildingBlock: OJICUG_clean_linker_0, # of connection points: 2
#     Edge 19, Type (0, 0), BuildingBlock: OJICUG_clean_linker_0, # of connection points: 2
#     Edge 20, Type (0, 0), BuildingBlock: OJICUG_clean_linker_0, # of connection points: 2
#     Edge 21, Type (0, 0), BuildingBlock: OJICUG_clean_linker_0, # of connection points: 2
#     Edge 22, Type (0, 0), BuildingBlock: OJICUG_clean_linker_0, # of connection points: 2
#     Edge 23, Type (0, 0), BuildingBlock: OJICUG_clean_linker_0, # of connection points: 2
#     Edge 24, Type (0, 0), BuildingBlock: OJICUG_clean_linker_0, # of connection points: 2
#     Edge 25, Type (0, 0), BuildingBlock: OJICUG_clean_linker_0, # of connection points: 2
#     Edge 26, Type (0, 0), BuildingBlock: OJICUG_clean_linker_0, # of connection points: 2
#     Edge 27, Type (0, 0), BuildingBlock: OJICUG_clean_linker_0, # of connection points: 2
#     Edge 28, Type (0, 0), BuildingBlock: OJICUG_clean_linker_0, # of connection points: 2
#     Edge 29, Type (0, 0), BuildingBlock: OJICUG_clean_linker_0, # of connection points: 2
#     Edge 30, Type (0, 0), BuildingBlock: OJICUG_clean_linker_0, # of connection points: 2
#     Edge 31, Type (0, 0), BuildingBlock: OJICUG_clean_linker_0, # of connection points: 2
#     Edge 32, Type (0, 0), BuildingBlock: OJICUG_clean_linker_0, # of connection points: 2
#     Edge 33, Type (0, 0), BuildingBlock: OJICUG_clean_linker_0, # of connection points: 2
#     Edge 34, Type (0, 0), BuildingBlock: OJICUG_clean_linker_0, # of connection points: 2
#     Edge 35, Type (0, 0), BuildingBlock: OJICUG_clean_linker_0, # of connection points: 2
# Relax obj value: 0.115
# Max RMSD: 0.182
# Mean RMSD: 0.133
data_MOF--net-snz--node1-CUKXOW_clean_sbu_0--edge1-OJICUG_clean_linker_0
_symmetry_space_group_name_H-M    P1
_symmetry_Int_Tables_number       1
_symmetry_cell_setting            triclinic
loop_
_symmetry_equiv_pos_as_xyz
'x, y, z'
_cell_length_a     35.8034
_cell_length_b     42.735297
_cell_length_c     10.612299
_cell_angle_alpha  92.645068
_cell_angle_beta   91.788441
_cell_angle_gamma 118.90086
loop_
_atom_site_label
_atom_site_type_symbol
_atom_site_fract_x
_atom_site_fract_y
_atom_site_fract_z
_atom_type_partial_charge
Tb0 Tb 0.05229 0.42097 0.8649 0.0
C1 C 0.10629 0.46989 0.66547 0.0
Tb2 Tb 0.11743 0.50277 0.93619 0.0
O3 O 1.00943 0.43562 0.75497 0.0
O4 O 0.05104 0.46963 0.8983 0.0
O5 O 0.09633 0.43963 0.71747 0.0
C6 C 0.15515 0.57142 0.01355 0.0
O7 O 0.11214 0.49897 0.7324 0.0
C8 C 0.15462 0.46265 0.96936 0.0
C9 C 0.06419 0.4535 0.1388 0.0
O10 O 0.15152 0.55929 0.89648 0.0
O11 O 0.13682 0.54502 0.08505 0.0
O12 O 0.17372 0.49716 0.98842 0.0
O13 O 0.11694 0.45326 0.93035 0.0
O14 O 0.07574 0.48452 0.08972 0.0
O15 O 0.05693 0.42423 0.06954 0.0
C16 C 1.01842 0.35118 0.80162 0.0
O17 O 1.00436 0.36477 0.88842 0.0
O18 O 0.05114 0.37672 0.75372 0.0
C19 C 1.02588 0.46767 0.81007 0.0
Tb20 Tb 0.63553 0.50698 0.02174 0.0
C21 C 0.63191 0.45888 0.23177 0.0
Tb22 Tb 0.6081 0.42658 0.95824 0.0
O23 O 0.57242 0.50089 0.06366 0.0
O24 O 0.57922 0.4573 0.01284 0.0
O25 O 0.65691 0.48926 0.18176 0.0
C26 C 0.57861 0.35702 0.9136 0.0
O27 O 0.60594 0.42951 0.16103 0.0
C28 C 0.68541 0.47365 0.89588 0.0
C29 C 0.60317 0.47208 0.74974 0.0
O30 O 0.6129 0.37821 0.98373 0.0
O31 O 0.55996 0.37473 0.87477 0.0
O32 O 0.66221 0.44239 0.83821 0.0
O33 O 0.66665 0.47596 0.99135 0.0
O34 O 0.58194 0.44084 0.79961 0.0
O35 O 0.62962 0.50205 0.81784 0.0
C36 C 0.68202 0.57541 0.09878 0.0
O37 O 0.67788 0.5628 0.98207 0.0
O38 O 0.65948 0.54978 0.16951 0.0
C39 C 0.5521 0.46622 0.04579 0.0
Tb40 Tb 0.64022 0.98436 0.13582 0.0
C41 C 0.63646 0.93518 0.90349 0.0
Tb42 Tb 0.67108 0.93278 0.16842 0.0
O43 O 0.70582 0.02855 0.16379 0.0
O44 O 0.69458 0.98114 0.07509 0.0
O45 O 0.61664 0.95037 0.96192 0.0
C46 C 0.71734 0.90147 0.23836 0.0
O47 O 0.66407 0.92824 0.96501 0.0
C48 C 0.58694 0.90302 0.16686 0.0
C49 C 0.66507 0.97561 0.40038 0.0
O50 O 0.7291 0.9271 0.16244 0.0
O51 O 0.67934 0.89305 0.27198 0.0
O52 O 0.60768 0.88712 0.12513 0.0
O53 O 0.61347 0.93368 0.21657 0.0
O54 O 0.69163 0.96805 0.34 0.0
O55 O 0.63529 0.97903 0.33575 0.0
C56 C 0.60623 0.02429 0.05675 0.0
O57 O 0.63042 0.03127 0.15903 0.0
O58 O 0.59904 -0.00623 0.0047 0.0
C59 C 0.72385 0.01197 0.11086 0.0
Tb60 Tb 0.84152 0.78554 0.39786 0.0
C61 C 0.90101 0.82987 0.19067 0.0
Tb62 Tb 0.90996 0.86343 0.46071 0.0
O63 O 0.79164 0.7994 0.43743 0.0
O64 O 0.84764 0.83692 0.36537 0.0
O65 O 0.88099 0.7981 0.23793 0.0
C66 C 0.94331 0.93311 0.52327 0.0
O67 O 0.91274 0.86036 0.25848 0.0
C68 C 0.93326 0.81541 0.52122 0.0
C69 C 0.85894 0.81642 0.66826 0.0
O70 O 0.96183 0.9192 0.454 0.0
O71 O 0.90661 0.90801 0.55345 0.0
O72 O 0.95121 0.84786 0.57357 0.0
O73 O 0.90836 0.81365 0.43225 0.0
O74 O 0.86919 0.84663 0.61635 0.0
O75 O 0.85023 0.78698 0.5995 0.0
C76 C 0.79289 0.71884 0.3022 0.0
O77 O 0.81087 0.72778 0.41587 0.0
O78 O 0.80206 0.74728 0.24324 0.0
C79 C 0.81257 0.83205 0.40547 0.0
Tb80 Tb 0.3533 0.86114 0.35587 0.0
C81 C 0.35765 0.81516 0.56392 0.0
Tb82 Tb 0.32424 0.78044 0.29182 0.0
O83 O 0.29912 0.84574 0.47578 0.0
O84 O 0.29427 0.81229 0.32169 0.0
O85 O 0.37898 0.84644 0.51443 0.0
C86 C 0.2749 0.71245 0.21546 0.0
O87 O 0.33102 0.78525 0.49573 0.0
C88 C 0.40771 0.82016 0.26766 0.0
C89 C 0.32945 0.82907 0.0819 0.0
O90 O 0.27738 0.72581 0.33013 0.0
O91 O 0.30121 0.73697 0.14682 0.0
O92 O 0.38688 0.78546 0.24993 0.0
O93 O 0.38105 0.8296 0.30089 0.0
O94 O 0.30387 0.79882 0.13163 0.0
O95 O 0.3557 0.85829 0.15297 0.0
C96 C 0.38472 0.93089 0.40094 0.0
O97 O 0.34992 0.91019 0.33203 0.0
O98 O 0.40269 0.91255 0.43855 0.0
C99 C 0.2755 0.81472 0.41693 0.0
Tb100 Tb 0.28893 0.35187 0.1572 0.0
C101 C 0.29487 0.30931 0.9215 0.0
Tb102 Tb 0.32016 0.30133 0.18859 0.0
O103 O 0.3523 0.39826 0.18769 0.0
O104 O 0.34636 0.35119 0.10212 0.0
O105 O 0.27042 0.31986 0.97919 0.0
C106 C 0.35457 0.26183 0.26895 0.0
O107 O 0.32375 0.30491 0.98718 0.0
C108 C 0.23664 0.27343 0.21893 0.0
C109 C 0.3244 0.34965 0.41925 0.0
O110 O 0.35988 0.29146 0.32365 0.0
O111 O 0.33193 0.25545 0.16382 0.0
O112 O 0.25449 0.25717 0.1628 0.0
O113 O 0.26593 0.30425 0.2547 0.0
O114 O 0.34656 0.33741 0.35728 0.0
O115 O 0.29375 0.35306 0.35954 0.0
C116 C 0.24203 0.38384 0.10216 0.0
O117 O 0.28214 0.39976 0.13936 0.0
O118 O 0.22783 0.34957 0.09726 0.0
C119 C 0.37299 0.38238 0.14691 0.0
Tb120 Tb 0.44586 0.14833 0.6369 0.0
C121 C 0.53272 0.21701 0.69788 0.0
Tb122 Tb 0.52193 0.14052 0.67838 0.0
O123 O 0.44673 0.16385 0.8393 0.0
O124 O 0.46868 0.12871 0.78936 0.0
O125 O 0.49664 0.20253 0.62729 0.0
C126 C 0.58033 0.12614 0.78463 0.0
O127 O 0.5494 0.19731 0.73776 0.0
C128 C 0.50195 0.14182 0.43227 0.0
C129 C 0.43497 0.07189 0.61641 0.0
O130 O 0.56435 0.14438 0.83891 0.0
O131 O 0.56621 0.11909 0.66715 0.0
O132 O 0.52123 0.12515 0.47575 0.0
O133 O 0.49914 0.16011 0.52596 0.0
O134 O 0.47104 0.08626 0.68698 0.0
O135 O 0.4183 0.09164 0.57722 0.0
C136 C 0.38666 0.16194 0.53212 0.0
O137 O 0.40074 0.16887 0.6496 0.0
O138 O 0.40341 0.14451 0.47656 0.0
C139 C 0.4658 0.14703 0.88285 0.0
Tb140 Tb 0.93412 0.12223 0.67547 0.0
C141 C 0.9825 0.07805 0.64749 0.0
Tb142 Tb 1.02765 0.16177 0.65612 0.0
O143 O 0.92138 0.10535 0.47034 0.0
O144 O 0.97505 0.15251 0.53116 0.0
O145 O 0.94998 0.0797 0.69693 0.0
C146 C 0.10221 0.19239 0.54628 0.0
O147 O 1.01635 0.10711 0.61405 0.0
C148 C 1.00432 0.15317 0.89702 0.0
C149 C 0.97936 0.20595 0.68422 0.0
O150 O 0.06986 0.16136 0.51227 0.0
O151 O 0.0936 0.20527 0.64771 0.0
O152 O 0.04013 0.17872 0.86134 0.0
O153 O 0.98673 0.13151 0.80025 0.0
O154 O 1.01179 0.2043 0.63419 0.0
O155 O 0.94561 0.17691 0.71816 0.0
C156 C 0.85959 0.09182 0.78569 0.0
O157 O 0.89197 0.12286 0.81922 0.0
O158 O 0.86815 0.07878 0.68459 0.0
C159 C 0.95721 0.13084 0.43452 0.0
Tb160 Tb 1.03209 0.66899 0.66003 0.0
C161 C 0.99781 0.58588 0.68613 0.0
Tb162 Tb 0.93128 0.61575 0.66067 0.0
O163 O 0.0455 0.67666 0.86809 0.0
O164 O 0.98469 0.6448 0.79177 0.0
O165 O 1.03076 0.61725 0.66153 0.0
C166 C 0.85264 0.57371 0.73653 0.0
O167 O 0.95828 0.5805 0.69896 0.0
C168 C 0.95708 0.62844 0.42364 0.0
C169 C 0.96524 0.69868 0.6355 0.0
O170 O 0.87119 0.56515 0.64863 0.0
O171 O 0.87847 0.60628 0.78235 0.0
O172 O 0.91789 0.608 0.45258 0.0
O173 O 0.97866 0.64001 0.52888 0.0
O174 O 0.93242 0.66729 0.65992 0.0
O175 O 1.00484 0.7042 0.62267 0.0
C176 C 0.11055 0.71187 0.58394 0.0
O177 O 0.09203 0.71979 0.67364 0.0
O178 O 0.08485 0.67941 0.53677 0.0
C179 C 1.00629 0.65629 0.897 0.0
C180 C 0.09589 0.43775 0.45703 0.0
C181 C 0.0987 0.46729 0.52913 0.0
H182 H 0.08082 0.40928 0.27596 0.0
C183 C 0.0866 0.49043 0.47395 0.0
H184 H 0.10453 0.41924 0.49841 0.0
C185 C 0.07199 0.48415 0.34802 0.0
C186 C 0.06972 0.4549 0.27547 0.0
H187 H 0.08724 0.51276 0.52856 0.0
H188 H 0.06344 0.50272 0.30665 0.0
C189 C 0.08132 0.4315 0.3309 0.0
C190 C 0.64386 0.49735 0.5631 0.0
C191 C 0.6071 0.47079 0.61369 0.0
H192 H 0.68186 0.51332 0.40398 0.0
C193 C 0.57919 0.43963 0.53877 0.0
H194 H 0.66648 0.5213 0.6195 0.0
C195 C 0.58847 0.43471 0.41577 0.0
C196 C 0.62564 0.46102 0.36614 0.0
H197 H 0.55081 0.41859 0.57624 0.0
H198 H 0.56612 0.41069 0.35919 0.0
C199 C 0.6532 0.49238 0.44059 0.0
C200 C 0.61157 0.94825 0.70377 0.0
C201 C 0.63867 0.93821 0.76753 0.0
H202 H 0.6001 0.97001 0.5399 0.0
C203 C 0.67427 0.94027 0.70904 0.0
H204 H 0.58387 0.94694 0.74701 0.0
C205 C 0.68425 0.95446 0.59215 0.0
C206 C 0.65819 0.96597 0.53081 0.0
H207 H 0.69587 0.93293 0.7563 0.0
H208 H 0.71228 0.95619 0.54985 0.0
C209 C 0.62144 0.96229 0.58667 0.0
C210 C 0.87664 0.79332 0.85687 0.0
C211 C 0.86908 0.81918 0.80291 0.0
H212 H 0.89567 0.77766 0.02431 0.0
C213 C 0.87803 0.85079 0.87403 0.0
H214 H 0.87131 0.76928 0.80246 0.0
C215 C 0.89337 0.85615 -0.00138 0.0
C216 C 0.89903 0.8296 0.05432 0.0
H217 H 0.87313 0.87146 0.83366 0.0
H218 H 0.89802 0.87999 0.05306 0.0
C219 C 0.89166 0.79856 0.98223 0.0
C220 C 0.3825 0.84729 0.77525 0.0
C221 C 0.35394 0.8164 0.7001 0.0
H222 H 0.39626 0.87627 0.95505 0.0
C223 C 0.31677 0.79036 0.75056 0.0
H224 H 0.41123 0.86793 0.73785 0.0
C225 C 0.30763 0.79563 0.87303 0.0
C226 C 0.3358 0.82676 0.94763 0.0
H227 H 0.29365 0.76666 0.69398 0.0
H228 H 0.27859 0.77511 0.90943 0.0
C229 C 0.37344 0.85249 0.89828 0.0
C230 C 0.34701 0.3327 0.61526 0.0
C231 C 0.32146 0.3447 0.55381 0.0
H232 H 0.35721 0.31008 0.77906 0.0
C233 C 0.28647 0.34365 0.61276 0.0
H234 H 0.37408 0.33301 0.57126 0.0
C235 C 0.27564 0.32895 0.72792 0.0
C236 C 0.30083 0.31662 0.78918 0.0
H237 H 0.26605 0.35257 0.56759 0.0
H238 H 0.24809 0.32822 0.77023 0.0
C239 C 0.33668 0.31864 0.73235 0.0
C240 C 0.50013 0.12265 0.19857 0.0
C241 C 0.49261 0.14349 0.29178 0.0
H242 H 0.49786 0.107 0.00048 0.0
C243 C 0.47619 0.16534 0.24771 0.0
H244 H 0.51268 0.10535 0.22709 0.0
C245 C 0.46768 0.16627 0.11656 0.0
C246 C 0.47518 0.14542 0.02336 0.0
H247 H 0.46994 0.1819 0.31467 0.0
H248 H 0.45514 0.18357 0.08802 0.0
C249 C 0.49161 0.12357 0.06743 0.0
C250 C 0.94363 0.11182 0.19659 0.0
C251 C 0.96948 0.13682 0.29697 0.0
H252 H 0.93361 0.09684 -0.00423 0.0
C253 C 1.00687 0.16712 0.26298 0.0
H254 H 0.91459 0.08808 0.21703 0.0
C255 C 1.01782 0.17214 0.13488 0.0
C256 C 0.99198 0.14715 0.0345 0.0
H257 H 1.02785 0.18713 0.33567 0.0
H258 H 0.04686 0.1959 0.11445 0.0
C259 C 0.95459 0.11685 0.06847 0.0
C260 C 0.94012 0.61794 0.18654 0.0
C261 C 0.97051 0.63587 0.28957 0.0
H262 H 0.92683 0.60966 0.98424 0.0
C263 C 1.01229 0.66049 0.26092 0.0
H264 H 0.90749 0.59873 0.20394 0.0
C265 C 1.02324 0.66678 0.13407 0.0
C266 C 0.99285 0.64884 0.03104 0.0
H267 H 1.03651 0.6751 0.33632 0.0
H268 H 0.05586 0.68598 0.11668 0.0
C269 C 0.95106 0.62424 0.05967 0.0
C270 C 0.23947 0.44004 0.07515 0.0
C271 C 0.21798 0.40253 0.06665 0.0
H272 H 0.23626 0.48782 0.05009 0.0
C273 C 0.17459 0.38401 0.02285 0.0
H274 H 0.27285 0.45511 0.10809 0.0
C275 C 0.15318 0.40303 0.98891 0.0
C276 C 0.1751 0.4407 -0.00169 0.0
H277 H 0.1573 0.355 0.01508 0.0
H278 H 0.11975 0.38844 0.95648 0.0
C279 C 0.21839 0.4588 0.04144 0.0
C280 C 0.72083 0.61934 0.27906 0.0
C281 C 0.71059 0.61225 0.14839 0.0
H282 H 0.75583 0.65893 0.43001 0.0
C283 C 0.72817 0.64027 0.06782 0.0
H284 H 0.70784 0.59799 0.3429 0.0
C285 C 0.75513 0.67524 0.11813 0.0
C286 C 0.76533 0.68221 0.24892 0.0
H287 H 0.72072 0.63524 0.96673 0.0
H288 H 0.76813 0.69673 0.0549 0.0
C289 C 0.74836 0.65406 0.32888 0.0
C290 C 0.51966 0.89997 0.24997 0.0
C291 C 0.54071 0.88327 0.19025 0.0
H292 H 0.46055 0.89321 0.32115 0.0
C293 C 0.51737 0.84643 0.15527 0.0
H294 H 0.53686 0.92837 0.27796 0.0
C295 C 0.47446 0.82652 0.18134 0.0
C296 C 0.4533 0.84285 0.24175 0.0
H297 H 0.53244 0.83269 0.10892 0.0
H298 H 0.45776 0.79809 0.15372 0.0
C299 C 0.47612 0.87992 0.27487 0.0
C300 C 0.59233 0.04619 0.85776 0.0
C301 C 0.59994 0.05096 0.98963 0.0
H302 H 0.58246 0.06725 0.68898 0.0
C303 C 0.60525 0.08257 0.05288 0.0
H304 H 0.58897 0.02239 0.8062 0.0
C305 C 0.60126 0.10836 0.98539 0.0
C306 C 0.59307 0.10326 0.85346 0.0
H307 H 0.61178 0.08705 0.15438 0.0
H308 H 0.60348 0.13178 0.03659 0.0
C309 C 0.58941 0.07222 0.79028 0.0
C310 C 1.01 0.26908 0.63009 0.0
C311 C 0.98247 0.24157 0.70313 0.0
H312 H 0.04229 0.325 0.60385 0.0
C313 C 0.96277 0.24975 0.80245 0.0
H314 H 1.0253 0.26358 0.55212 0.0
C315 C 0.97281 0.28542 0.83294 0.0
C316 C 1.00245 0.31303 0.76389 0.0
H317 H 0.94156 0.22899 0.86061 0.0
H318 H 0.95892 0.29152 0.91324 0.0
C319 C 1.0198 0.30433 0.65997 0.0
C320 C 0.78367 0.51672 0.70786 0.0
C321 C 0.80932 0.54948 0.77742 0.0
H322 H 0.72454 0.46762 0.6903 0.0
C323 C 0.79345 0.55799 0.88589 0.0
H324 H 0.79486 0.50946 0.62357 0.0
C325 C 0.7529 0.53366 0.92519 0.0
C326 C 0.72764 0.50065 0.85592 0.0
H327 H 0.81261 0.58311 0.94131 0.0
H328 H 0.74158 0.54045 0.01009 0.0
C329 C 0.74332 0.49271 0.74626 0.0
C330 C 0.97871 0.52088 0.65662 0.0
C331 C 1.00599 0.55576 0.71063 0.0
H332 H 0.96432 0.46567 0.64237 0.0
C333 C 0.03974 0.56128 0.79562 0.0
H334 H 0.95222 0.51588 0.59139 0.0
C335 C 0.04547 0.53246 0.82845 0.0
C336 C 1.01882 0.49767 0.77336 0.0
H337 H 0.06076 0.58769 0.84049 0.0
H338 H 0.0706 0.53736 0.89829 0.0
C339 C 0.98555 0.49219 0.68591 0.0
C340 C 0.54038 0.30714 0.75184 0.0
C341 C 0.56833 0.32143 0.85966 0.0
H342 H 0.50927 0.26396 0.61201 0.0
C343 C 0.58849 0.30285 0.90717 0.0
H344 H 0.52522 0.32135 0.71148 0.0
C345 C 0.57916 0.26945 0.85012 0.0
C346 C 0.55008 0.25472 0.74408 0.0
H347 H 0.61079 0.31383 0.98926 0.0
H348 H 0.59339 0.2547 0.89158 0.0
C349 C 0.53171 0.27439 0.69391 0.0
C350 C 0.7978 0.03442 0.8424 0.0
C351 C 0.8243 0.07146 0.86722 0.0
H352 H 0.74641 0.98621 0.90342 0.0
C353 C 0.81954 0.08831 0.97766 0.0
H354 H 0.80135 0.02063 0.75924 0.0
C355 C 0.78807 0.06863 0.06018 0.0
C356 C 0.7611 0.03165 0.03456 0.0
H357 H 0.84009 0.11675 0.00018 0.0
H358 H 0.78434 0.08247 0.14289 0.0
C359 C 0.76672 0.01465 0.92581 0.0
C360 C 0.78485 0.89674 0.24605 0.0
C361 C 0.74318 0.88528 0.28427 0.0
H362 H 0.84009 0.8892 0.25598 0.0
C363 C 0.72608 0.85808 0.36865 0.0
H364 H 0.79894 0.91786 0.18177 0.0
C365 C 0.74952 0.84192 0.41126 0.0
C366 C 0.79069 0.85257 0.37074 0.0
H367 H 0.69424 0.84892 0.40072 0.0
H368 H 0.73499 0.82049 0.47425 0.0
C369 C 0.80848 0.88054 0.28914 0.0
C370 C 0.21478 0.65166 0.24306 0.0
C371 C 0.24338 0.67657 0.16446 0.0
H372 H 0.16347 0.59838 0.25511 0.0
C373 C 0.24061 0.66762 0.03421 0.0
H374 H 0.21605 0.65828 0.34345 0.0
C375 C 0.21026 0.63377 0.98345 0.0
C376 C 0.18259 0.60845 0.0626 0.0
H377 H 0.26205 0.6867 0.97151 0.0
H378 H 0.20935 0.62709 0.88326 0.0
C379 C 0.18459 0.61767 0.19237 0.0
C380 C 0.48482 0.45936 0.1287 0.0
C381 C 0.50649 0.44316 0.07069 0.0
H382 H 0.42656 0.45294 0.19919 0.0
C383 C 0.48412 0.40599 0.03913 0.0
H384 H 0.5011 0.48787 0.155 0.0
C385 C 0.44054 0.38568 0.06372 0.0
C386 C 0.41905 0.40228 0.12141 0.0
H387 H 0.5001 0.39279 0.99464 0.0
H388 H 0.42371 0.35717 0.0375 0.0
C389 C 0.44193 0.43925 0.15431 0.0
C390 C 0.9838 0.76353 0.66498 0.0
C391 C 0.95661 0.72858 0.61176 0.0
H392 H 0.99699 0.8184 0.68145 0.0
C393 C 0.92186 0.72255 0.53009 0.0
H394 H 1.01096 0.76891 0.72788 0.0
C395 C 0.91494 0.75095 0.49991 0.0
C396 C 0.94148 0.7858 0.55455 0.0
H397 H 0.90081 0.69602 0.48611 0.0
H398 H 0.88895 0.74565 0.4327 0.0
C399 C 0.97584 0.7918 0.63841 0.0
C400 C 0.43652 0.01463 0.61518 0.0
C401 C 0.41732 0.03419 0.56973 0.0
H402 H 0.44224 0.96735 0.59413 0.0
C403 C 0.38645 0.0192 0.468 0.0
H404 H 0.46043 0.0253 0.69346 0.0
C405 C 0.37591 0.98553 0.41091 0.0
C406 C 0.39654 0.96689 0.45412 0.0
H407 H 0.37153 0.03386 0.43012 0.0
H408 H 0.35212 0.97431 0.33243 0.0
C409 C 0.42654 0.98155 0.55728 0.0
C410 C 0.1633 0.25012 0.48917 0.0
C411 C 0.1373 0.21301 0.46455 0.0
H412 H 0.21382 0.29866 0.42721 0.0
C413 C 0.14221 0.19635 0.35389 0.0
H414 H 0.15958 0.26377 0.57244 0.0
C415 C 0.17333 0.2163 0.27087 0.0
C416 C 0.1998 0.25337 0.29624 0.0
H417 H 0.12202 0.16786 0.33149 0.0
H418 H 0.17717 0.20262 0.1879 0.0
C419 C 0.194 0.27015 0.40523 0.0
C420 C 0.36513 0.17983 0.33275 0.0
C421 C 0.37206 0.18389 0.46511 0.0
H422 H 0.35422 0.20166 0.16569 0.0
C423 C 0.37255 0.21331 0.53116 0.0
H424 H 0.36531 0.15767 0.27946 0.0
C425 C 0.36795 0.23896 0.46615 0.0
C426 C 0.36185 0.23537 0.33387 0.0
H427 H 0.37834 0.21741 0.63295 0.0
H428 H 0.36899 0.26159 0.51986 0.0
C429 C 0.35952 0.20521 0.26762 0.0
C430 C 0.93965 0.97908 0.66301 0.0
C431 C 0.95953 0.97108 0.56442 0.0
H432 H 0.93226 0.01912 0.76846 0.0
C433 C 0.9916 -0.00079 0.50304 0.0
H434 H 0.9153 0.95796 0.71346 0.0
C435 C 1.00144 0.03479 0.53485 0.0
C436 C 0.97929 0.04235 0.62832 0.0
H437 H 1.00742 -0.00639 0.42689 0.0
H438 H 1.02454 0.05602 0.48192 0.0
C439 C 0.94945 0.01422 0.69475 0.0
C440 C 0.1794 0.76916 0.61308 0.0
C441 C 0.15341 0.73681 0.54142 0.0
H442 H 0.23823 0.81861 0.6304 0.0
C443 C 0.16833 0.72952 0.42862 0.0
H444 H 0.16891 0.77551 0.70058 0.0
C445 C 0.20816 0.75461 0.38727 0.0
C446 C 0.23384 0.78715 0.45887 0.0
H447 H 0.14888 0.70482 0.37127 0.0
H448 H 0.21855 0.7488 0.29874 0.0
C449 C 0.21913 0.79391 0.57266 0.0
loop_
_geom_bond_atom_site_label_1
_geom_bond_atom_site_label_2
_geom_bond_distance
_geom_bond_site_symmetry_2
_ccdc_geom_bond_type
Tb0 O3 2.453 . S
Tb0 O4 2.596 1_655 S
Tb0 O5 2.374 1_654 S
Tb0 O13 2.343 1_655 S
Tb0 O15 2.353 1_655 S
Tb0 O17 2.427 . S
Tb0 O18 2.513 1_554 S
C1 O5 1.251 . S
C1 O7 1.263 . S
Tb2 O4 2.343 . S
Tb2 O7 2.353 1_554 S
Tb2 O10 2.427 . S
Tb2 O11 2.513 . S
Tb2 O12 2.453 . S
Tb2 O13 2.596 . S
Tb2 O14 2.374 . S
O3 Tb0 2.453 . S
O3 C19 1.245 1_655 S
O4 Tb0 2.596 1_455 S
O4 Tb2 2.343 . S
O4 C19 1.259 . S
O5 Tb0 2.374 1_456 S
O5 C1 1.251 . S
C6 O10 1.275 . S
C6 O11 1.246 . S
O7 C1 1.263 . S
O7 Tb2 2.353 1_556 S
C8 O12 1.245 . S
C8 O13 1.259 . S
C9 O14 1.250 . S
C9 O15 1.263 . S
O10 Tb2 2.427 . S
O10 C6 1.275 . S
O11 Tb2 2.513 . S
O11 C6 1.246 . S
O12 Tb2 2.453 . S
O12 C8 1.245 . S
O13 Tb0 2.343 1_455 S
O13 Tb2 2.596 . S
O13 C8 1.259 . S
O14 Tb2 2.374 . S
O14 C9 1.250 . S
O15 Tb0 2.353 1_455 S
O15 C9 1.263 . S
C16 O17 1.275 1_556 S
C16 O18 1.246 . S
O17 Tb0 2.427 . S
O17 C16 1.275 1_554 S
O18 Tb0 2.513 1_556 S
O18 C16 1.246 . S
C19 O3 1.245 1_455 S
C19 O4 1.259 . S
Tb20 O23 2.453 . S
Tb20 O24 2.596 . S
Tb20 O25 2.374 . S
Tb20 O33 2.343 . S
Tb20 O35 2.353 1_554 S
Tb20 O37 2.427 . S
Tb20 O38 2.513 . S
C21 O25 1.251 . S
C21 O27 1.263 . S
Tb22 O24 2.343 . S
Tb22 O27 2.353 . S
Tb22 O30 2.427 . S
Tb22 O31 2.513 1_554 S
Tb22 O32 2.453 . S
Tb22 O33 2.596 . S
Tb22 O34 2.374 1_554 S
O23 Tb20 2.453 . S
O23 C39 1.245 . S
O24 Tb20 2.596 . S
O24 Tb22 2.343 . S
O24 C39 1.259 . S
O25 Tb20 2.374 . S
O25 C21 1.251 . S
C26 O30 1.275 . S
C26 O31 1.246 1_554 S
O27 C21 1.263 . S
O27 Tb22 2.353 . S
C28 O32 1.245 . S
C28 O33 1.259 . S
C29 O34 1.250 . S
C29 O35 1.263 . S
O30 Tb22 2.427 . S
O30 C26 1.275 . S
O31 Tb22 2.513 1_556 S
O31 C26 1.246 1_556 S
O32 Tb22 2.453 . S
O32 C28 1.245 . S
O33 Tb20 2.343 . S
O33 Tb22 2.596 . S
O33 C28 1.259 . S
O34 Tb22 2.374 1_556 S
O34 C29 1.250 . S
O35 Tb20 2.353 1_556 S
O35 C29 1.263 . S
C36 O37 1.275 . S
C36 O38 1.246 . S
O37 Tb20 2.427 . S
O37 C36 1.275 . S
O38 Tb20 2.513 . S
O38 C36 1.246 . S
C39 O23 1.245 . S
C39 O24 1.259 . S
Tb40 O43 2.453 . S
Tb40 O44 2.596 . S
Tb40 O45 2.374 1_554 S
Tb40 O53 2.326 1_545 S
Tb40 O55 2.353 . S
Tb40 O57 2.427 . S
Tb40 O58 2.513 . S
C41 O45 1.249 1_565 S
C41 O47 1.264 . S
Tb42 O44 2.343 1_565 S
Tb42 O47 2.353 1_554 S
Tb42 O50 2.427 . S
Tb42 O51 2.513 . S
Tb42 O52 2.453 . S
Tb42 O53 2.617 . S
Tb42 O54 2.374 . S
O43 Tb40 2.453 . S
O43 C59 1.245 . S
O44 Tb40 2.596 . S
O44 Tb42 2.343 1_545 S
O44 C59 1.259 . S
O45 Tb40 2.374 1_556 S
O45 C41 1.249 1_545 S
C46 O50 1.275 . S
C46 O51 1.246 . S
O47 C41 1.264 . S
O47 Tb42 2.353 1_556 S
C48 O52 1.245 . S
C48 O53 1.271 . S
C49 O54 1.250 1_545 S
C49 O55 1.263 . S
O50 Tb42 2.427 . S
O50 C46 1.275 . S
O51 Tb42 2.513 . S
O51 C46 1.246 . S
O52 Tb42 2.453 . S
O52 C48 1.245 . S
O53 Tb40 2.326 1_565 S
O53 Tb42 2.617 . S
O53 C48 1.271 . S
O54 Tb42 2.374 . S
O54 C49 1.250 1_565 S
O55 Tb40 2.353 . S
O55 C49 1.263 . S
C56 O57 1.275 . S
C56 O58 1.246 . S
O57 Tb40 2.427 . S
O57 C56 1.275 . S
O58 Tb40 2.513 . S
O58 C56 1.246 . S
C59 O43 1.245 . S
C59 O44 1.259 . S
Tb60 O63 2.453 . S
Tb60 O64 2.596 . S
Tb60 O65 2.374 . S
Tb60 O73 2.343 . S
Tb60 O75 2.353 . S
Tb60 O77 2.427 . S
Tb60 O78 2.513 . S
C61 O65 1.251 . S
C61 O67 1.263 . S
Tb62 O64 2.343 . S
Tb62 O67 2.353 . S
Tb62 O70 2.427 . S
Tb62 O71 2.513 . S
Tb62 O72 2.453 . S
Tb62 O73 2.596 . S
Tb62 O74 2.374 . S
O63 Tb60 2.453 . S
O63 C79 1.245 . S
O64 Tb60 2.596 . S
O64 Tb62 2.343 . S
O64 C79 1.259 . S
O65 Tb60 2.374 . S
O65 C61 1.251 . S
C66 O70 1.275 . S
C66 O71 1.246 . S
O67 C61 1.263 . S
O67 Tb62 2.353 . S
C68 O72 1.245 . S
C68 O73 1.259 . S
C69 O74 1.250 . S
C69 O75 1.263 . S
O70 Tb62 2.427 . S
O70 C66 1.275 . S
O71 Tb62 2.513 . S
O71 C66 1.246 . S
O72 Tb62 2.453 . S
O72 C68 1.245 . S
O73 Tb60 2.343 . S
O73 Tb62 2.596 . S
O73 C68 1.259 . S
O74 Tb62 2.374 . S
O74 C69 1.250 . S
O75 Tb60 2.353 . S
O75 C69 1.263 . S
C76 O77 1.275 . S
C76 O78 1.246 . S
O77 Tb60 2.427 . S
O77 C76 1.275 . S
O78 Tb60 2.513 . S
O78 C76 1.246 . S
C79 O63 1.245 . S
C79 O64 1.259 . S
Tb80 O83 2.453 . S
Tb80 O84 2.596 . S
Tb80 O85 2.374 . S
Tb80 O93 2.343 . S
Tb80 O95 2.353 . S
Tb80 O97 2.427 . S
Tb80 O98 2.513 . S
C81 O85 1.251 . S
C81 O87 1.263 . S
Tb82 O84 2.343 . S
Tb82 O87 2.353 . S
Tb82 O90 2.427 . S
Tb82 O91 2.513 . S
Tb82 O92 2.453 . S
Tb82 O93 2.596 . S
Tb82 O94 2.374 . S
O83 Tb80 2.453 . S
O83 C99 1.245 . S
O84 Tb80 2.596 . S
O84 Tb82 2.343 . S
O84 C99 1.259 . S
O85 Tb80 2.374 . S
O85 C81 1.251 . S
C86 O90 1.275 . S
C86 O91 1.246 . S
O87 C81 1.263 . S
O87 Tb82 2.353 . S
C88 O92 1.245 . S
C88 O93 1.259 . S
C89 O94 1.250 1_556 S
C89 O95 1.263 1_556 S
O90 Tb82 2.427 . S
O90 C86 1.275 . S
O91 Tb82 2.513 . S
O91 C86 1.246 . S
O92 Tb82 2.453 . S
O92 C88 1.245 . S
O93 Tb80 2.343 . S
O93 Tb82 2.596 . S
O93 C88 1.259 . S
O94 Tb82 2.374 . S
O94 C89 1.250 1_554 S
O95 Tb80 2.353 . S
O95 C89 1.263 1_554 S
C96 O97 1.275 . S
C96 O98 1.246 . S
O97 Tb80 2.427 . S
O97 C96 1.275 . S
O98 Tb80 2.513 . S
O98 C96 1.246 . S
C99 O83 1.245 . S
C99 O84 1.259 . S
Tb100 O103 2.453 . S
Tb100 O104 2.596 . S
Tb100 O105 2.374 1_554 S
Tb100 O113 2.343 . S
Tb100 O115 2.353 . S
Tb100 O117 2.427 . S
Tb100 O118 2.513 . S
C101 O105 1.251 . S
C101 O107 1.263 . S
Tb102 O104 2.343 . S
Tb102 O107 2.353 1_554 S
Tb102 O110 2.427 . S
Tb102 O111 2.513 . S
Tb102 O112 2.453 . S
Tb102 O113 2.596 . S
Tb102 O114 2.374 . S
O103 Tb100 2.453 . S
O103 C119 1.245 . S
O104 Tb100 2.596 . S
O104 Tb102 2.343 . S
O104 C119 1.259 . S
O105 Tb100 2.374 1_556 S
O105 C101 1.251 . S
C106 O110 1.275 . S
C106 O111 1.246 . S
O107 C101 1.263 . S
O107 Tb102 2.353 1_556 S
C108 O112 1.245 . S
C108 O113 1.259 . S
C109 O114 1.250 . S
C109 O115 1.263 . S
O110 Tb102 2.427 . S
O110 C106 1.275 . S
O111 Tb102 2.513 . S
O111 C106 1.246 . S
O112 Tb102 2.453 . S
O112 C108 1.245 . S
O113 Tb100 2.343 . S
O113 Tb102 2.596 . S
O113 C108 1.259 . S
O114 Tb102 2.374 . S
O114 C109 1.250 . S
O115 Tb100 2.353 . S
O115 C109 1.263 . S
C116 O117 1.275 . S
C116 O118 1.246 . S
O117 Tb100 2.427 . S
O117 C116 1.275 . S
O118 Tb100 2.513 . S
O118 C116 1.246 . S
C119 O103 1.245 . S
C119 O104 1.259 . S
Tb120 O123 2.453 . S
Tb120 O124 2.596 . S
Tb120 O125 2.374 . S
Tb120 O133 2.343 . S
Tb120 O135 2.353 . S
Tb120 O137 2.427 . S
Tb120 O138 2.513 . S
C121 O125 1.251 . S
C121 O127 1.263 . S
Tb122 O124 2.343 . S
Tb122 O127 2.353 . S
Tb122 O130 2.427 . S
Tb122 O131 2.513 . S
Tb122 O132 2.453 . S
Tb122 O133 2.596 . S
Tb122 O134 2.374 . S
O123 Tb120 2.453 . S
O123 C139 1.245 . S
O124 Tb120 2.596 . S
O124 Tb122 2.343 . S
O124 C139 1.259 . S
O125 Tb120 2.374 . S
O125 C121 1.251 . S
C126 O130 1.275 . S
C126 O131 1.246 . S
O127 C121 1.263 . S
O127 Tb122 2.353 . S
C128 O132 1.245 . S
C128 O133 1.259 . S
C129 O134 1.250 . S
C129 O135 1.263 . S
O130 Tb122 2.427 . S
O130 C126 1.275 . S
O131 Tb122 2.513 . S
O131 C126 1.246 . S
O132 Tb122 2.453 . S
O132 C128 1.245 . S
O133 Tb120 2.343 . S
O133 Tb122 2.596 . S
O133 C128 1.259 . S
O134 Tb122 2.374 . S
O134 C129 1.250 . S
O135 Tb120 2.353 . S
O135 C129 1.263 . S
C136 O137 1.275 . S
C136 O138 1.246 . S
O137 Tb120 2.427 . S
O137 C136 1.275 . S
O138 Tb120 2.513 . S
O138 C136 1.246 . S
C139 O123 1.245 . S
C139 O124 1.259 . S
Tb140 O143 2.453 . S
Tb140 O144 2.596 . S
Tb140 O145 2.374 . S
Tb140 O153 2.343 . S
Tb140 O155 2.353 . S
Tb140 O157 2.427 . S
Tb140 O158 2.513 . S
C141 O145 1.251 . S
C141 O147 1.263 . S
Tb142 O144 2.331 1_455 S
Tb142 O147 2.352 1_455 S
Tb142 O150 2.439 . S
Tb142 O151 2.518 . S
Tb142 O152 2.450 1_455 S
Tb142 O153 2.580 1_455 S
Tb142 O154 2.362 1_455 S
O143 Tb140 2.453 . S
O143 C159 1.245 . S
O144 Tb140 2.596 . S
O144 Tb142 2.331 1_655 S
O144 C159 1.259 . S
O145 Tb140 2.374 . S
O145 C141 1.251 . S
C146 O150 1.275 . S
C146 O151 1.246 . S
O147 C141 1.263 . S
O147 Tb142 2.352 1_655 S
C148 O152 1.245 . S
C148 O153 1.259 . S
C149 O154 1.250 . S
C149 O155 1.263 . S
O150 Tb142 2.439 . S
O150 C146 1.275 . S
O151 Tb142 2.518 . S
O151 C146 1.246 . S
O152 Tb142 2.450 1_655 S
O152 C148 1.245 . S
O153 Tb140 2.343 . S
O153 Tb142 2.580 1_655 S
O153 C148 1.259 . S
O154 Tb142 2.362 1_655 S
O154 C149 1.250 . S
O155 Tb140 2.353 . S
O155 C149 1.263 . S
C156 O157 1.275 . S
C156 O158 1.246 . S
O157 Tb140 2.427 . S
O157 C156 1.275 . S
O158 Tb140 2.513 . S
O158 C156 1.246 . S
C159 O143 1.245 . S
C159 O144 1.259 . S
Tb160 O163 2.453 . S
Tb160 O164 2.596 . S
Tb160 O165 2.374 . S
Tb160 O173 2.343 . S
Tb160 O175 2.353 . S
Tb160 O177 2.427 1_655 S
Tb160 O178 2.513 1_655 S
C161 O165 1.251 . S
C161 O167 1.263 . S
Tb162 O164 2.343 . S
Tb162 O167 2.353 . S
Tb162 O170 2.427 . S
Tb162 O171 2.513 . S
Tb162 O172 2.453 . S
Tb162 O173 2.596 . S
Tb162 O174 2.374 . S
O163 Tb160 2.453 . S
O163 C179 1.245 . S
O164 Tb160 2.596 . S
O164 Tb162 2.343 . S
O164 C179 1.259 . S
O165 Tb160 2.374 . S
O165 C161 1.251 . S
C166 O170 1.275 . S
C166 O171 1.246 . S
O167 C161 1.263 . S
O167 Tb162 2.353 . S
C168 O172 1.245 . S
C168 O173 1.259 . S
C169 O174 1.250 . S
C169 O175 1.263 . S
O170 Tb162 2.427 . S
O170 C166 1.275 . S
O171 Tb162 2.513 . S
O171 C166 1.246 . S
O172 Tb162 2.453 . S
O172 C168 1.245 . S
O173 Tb160 2.343 . S
O173 Tb162 2.596 . S
O173 C168 1.259 . S
O174 Tb162 2.374 . S
O174 C169 1.250 . S
O175 Tb160 2.353 . S
O175 C169 1.263 . S
C176 O177 1.275 . S
C176 O178 1.246 . S
O177 Tb160 2.427 1_455 S
O177 C176 1.275 . S
O178 Tb160 2.513 1_455 S
O178 C176 1.246 . S
C179 O163 1.245 . S
C179 O164 1.259 . S
C180 C181 1.387 . S
C180 H184 0.950 . S
C180 C189 1.390 . S
C181 C180 1.387 . S
C181 C183 1.387 . S
H182 C189 0.950 . S
C183 C181 1.387 . S
C183 C185 1.390 . S
C183 H187 0.950 . S
H184 C180 0.950 . S
C185 C183 1.390 . S
C185 C186 1.387 . S
C185 H188 0.936 1_455 S
C186 C185 1.387 . S
C186 C189 1.387 . S
H187 C183 0.950 . S
H188 C185 0.936 1_655 S
C189 C180 1.390 . S
C189 H182 0.950 . S
C189 C186 1.387 . S
C190 C191 1.387 . S
C190 H194 0.950 . S
C190 C199 1.390 . S
C191 C190 1.387 . S
C191 C193 1.387 . S
H192 C199 0.950 . S
C193 C191 1.387 . S
C193 C195 1.390 . S
C193 H197 0.950 . S
H194 C190 0.950 . S
C195 C193 1.390 . S
C195 C196 1.387 . S
C195 H198 0.950 . S
C196 C195 1.387 . S
C196 C199 1.387 . S
H197 C193 0.950 . S
H198 C195 0.950 . S
C199 C190 1.390 . S
C199 H192 0.950 . S
C199 C196 1.387 . S
C200 C201 1.387 1_565 S
C200 H204 0.950 . S
C200 C209 1.390 . S
C201 C200 1.387 1_545 S
C201 C203 1.387 . S
H202 C209 0.950 . S
C203 C201 1.387 . S
C203 C205 1.390 . S
C203 H207 0.950 . S
H204 C200 0.950 . S
C205 C203 1.390 . S
C205 C206 1.387 . S
C205 H208 0.950 . S
C206 C205 1.387 . S
C206 C209 1.387 1_545 S
H207 C203 0.950 . S
H208 C205 0.950 . S
C209 C200 1.390 . S
C209 H202 0.950 . S
C209 C206 1.387 1_565 S
C210 C211 1.387 . S
C210 H214 0.950 . S
C210 C219 1.390 . S
C211 C210 1.387 . S
C211 C213 1.387 . S
H212 C219 0.950 . S
C213 C211 1.387 . S
C213 C215 1.390 . S
C213 H217 0.950 . S
H214 C210 0.950 . S
C215 C213 1.390 . S
C215 C216 1.387 . S
C215 H218 0.950 . S
C216 C215 1.387 . S
C216 C219 1.387 . S
H217 C213 0.950 . S
H218 C215 0.950 . S
C219 C210 1.390 . S
C219 H212 0.950 . S
C219 C216 1.387 . S
C220 C221 1.387 . S
C220 H224 0.950 . S
C220 C229 1.390 . S
C221 C220 1.387 . S
C221 C223 1.387 . S
H222 C229 0.950 . S
C223 C221 1.387 . S
C223 C225 1.390 . S
C223 H227 0.950 . S
H224 C220 0.950 . S
C225 C223 1.390 . S
C225 C226 1.387 . S
C225 H228 0.950 . S
C226 C225 1.387 . S
C226 C229 1.387 . S
H227 C223 0.950 . S
H228 C225 0.950 . S
C229 C220 1.390 . S
C229 H222 0.950 . S
C229 C226 1.387 . S
C230 C231 1.387 . S
C230 H234 0.950 . S
C230 C239 1.390 . S
C231 C230 1.387 . S
C231 C233 1.387 . S
H232 C239 0.950 . S
C233 C231 1.387 . S
C233 C235 1.390 . S
C233 H237 0.950 . S
H234 C230 0.950 . S
C235 C233 1.390 . S
C235 C236 1.387 . S
C235 H238 0.950 . S
C236 C235 1.387 . S
C236 C239 1.387 . S
H237 C233 0.950 . S
H238 C235 0.950 . S
C239 C230 1.390 . S
C239 H232 0.950 . S
C239 C236 1.387 . S
C240 C241 1.387 . S
C240 H244 0.950 . S
C240 C249 1.390 . S
C241 C240 1.387 . S
C241 C243 1.387 . S
H242 C249 0.950 . S
C243 C241 1.387 . S
C243 C245 1.390 . S
C243 H247 0.950 . S
H244 C240 0.950 . S
C245 C243 1.390 . S
C245 C246 1.387 . S
C245 H248 0.950 . S
C246 C245 1.387 . S
C246 C249 1.387 . S
H247 C243 0.950 . S
H248 C245 0.950 . S
C249 C240 1.390 . S
C249 H242 0.950 . S
C249 C246 1.387 . S
C250 C251 1.387 . S
C250 H254 0.950 . S
C250 C259 1.390 . S
C251 C250 1.387 . S
C251 C253 1.387 . S
H252 C259 0.950 . S
C253 C251 1.387 . S
C253 C255 1.390 . S
C253 H257 0.950 . S
H254 C250 0.950 . S
C255 C253 1.390 . S
C255 C256 1.387 . S
C255 H258 0.950 . S
C256 C255 1.387 . S
C256 C259 1.387 . S
H257 C253 0.950 . S
H258 C255 0.950 . S
C259 C250 1.390 . S
C259 H252 0.950 . S
C259 C256 1.387 . S
C260 C261 1.387 . S
C260 H264 0.950 . S
C260 C269 1.390 . S
C261 C260 1.387 . S
C261 C263 1.387 . S
H262 C269 0.950 . S
C263 C261 1.387 . S
C263 C265 1.390 . S
C263 H267 0.950 . S
H264 C260 0.950 . S
C265 C263 1.390 . S
C265 C266 1.387 . S
C265 H268 0.950 . S
C266 C265 1.387 . S
C266 C269 1.387 . S
H267 C263 0.950 . S
H268 C265 0.950 . S
C269 C260 1.390 . S
C269 H262 0.950 . S
C269 C266 1.387 . S
C270 C271 1.387 . S
C270 H274 0.950 . S
C270 C279 1.390 . S
C271 C270 1.387 . S
C271 C273 1.387 . S
H272 C279 0.950 . S
C273 C271 1.387 . S
C273 C275 1.390 . S
C273 H277 0.950 1_554 S
H274 C270 0.950 . S
C275 C273 1.390 . S
C275 C276 1.387 . S
C275 H278 0.950 1_554 S
C276 C275 1.387 . S
C276 C279 1.387 . S
H277 C273 0.950 1_556 S
H278 C275 0.950 1_556 S
C279 C270 1.390 . S
C279 H272 0.950 . S
C279 C276 1.387 . S
C280 C281 1.387 . S
C280 H284 0.950 . S
C280 C289 1.390 . S
C281 C280 1.387 . S
C281 C283 1.387 . S
H282 C289 0.950 . S
C283 C281 1.387 . S
C283 C285 1.390 . S
C283 H287 0.950 1_554 S
H284 C280 0.950 . S
C285 C283 1.390 . S
C285 C286 1.387 . S
C285 H288 0.950 . S
C286 C285 1.387 . S
C286 C289 1.387 . S
H287 C283 0.950 1_556 S
H288 C285 0.950 . S
C289 C280 1.390 . S
C289 H282 0.950 . S
C289 C286 1.387 . S
C290 C291 1.387 . S
C290 H294 0.950 . S
C290 C299 1.390 . S
C291 C290 1.387 . S
C291 C293 1.387 . S
H292 C299 0.950 . S
C293 C291 1.387 . S
C293 C295 1.390 . S
C293 H297 0.950 . S
H294 C290 0.950 . S
C295 C293 1.390 . S
C295 C296 1.387 . S
C295 H298 0.950 1_554 S
C296 C295 1.387 . S
C296 C299 1.387 . S
H297 C293 0.950 . S
H298 C295 0.950 1_556 S
C299 C290 1.390 . S
C299 H292 0.950 . S
C299 C296 1.387 . S
C300 C301 1.387 . S
C300 H304 0.950 . S
C300 C309 1.390 1_554 S
C301 C300 1.387 . S
C301 C303 1.387 . S
H302 C309 0.950 . S
C303 C301 1.387 . S
C303 C305 1.390 . S
C303 H307 0.950 . S
H304 C300 0.950 . S
C305 C303 1.390 . S
C305 C306 1.387 1_554 S
C305 H308 0.950 . S
C306 C305 1.387 1_556 S
C306 C309 1.387 . S
H307 C303 0.950 . S
H308 C305 0.950 . S
C309 C300 1.390 1_556 S
C309 H302 0.950 . S
C309 C306 1.387 . S
C310 C311 1.387 . S
C310 H314 0.950 . S
C310 C319 1.390 . S
C311 C310 1.387 . S
C311 C313 1.387 . S
H312 C319 0.950 . S
C313 C311 1.387 . S
C313 C315 1.390 1_556 S
C313 H317 0.950 . S
H314 C310 0.950 . S
C315 C313 1.390 1_554 S
C315 C316 1.387 1_554 S
C315 H318 0.950 . S
C316 C315 1.387 1_556 S
C316 C319 1.387 . S
H317 C313 0.950 . S
H318 C315 0.950 . S
C319 C310 1.390 . S
C319 H312 0.950 . S
C319 C316 1.387 . S
C320 C321 1.387 . S
C320 H324 0.950 . S
C320 C329 1.390 . S
C321 C320 1.387 . S
C321 C323 1.387 1_556 S
H322 C329 0.950 . S
C323 C321 1.387 1_554 S
C323 C325 1.390 . S
C323 H327 0.950 . S
H324 C320 0.950 . S
C325 C323 1.390 . S
C325 C326 1.387 . S
C325 H328 0.950 . S
C326 C325 1.387 . S
C326 C329 1.387 1_554 S
H327 C323 0.950 . S
H328 C325 0.950 . S
C329 C320 1.390 . S
C329 H322 0.950 . S
C329 C326 1.387 1_556 S
C330 C331 1.387 . S
C330 H334 0.950 . S
C330 C339 1.390 . S
C331 C330 1.387 . S
C331 C333 1.387 . S
H332 C339 0.950 . S
C333 C331 1.387 . S
C333 C335 1.390 1_656 S
C333 H337 0.950 . S
H334 C330 0.950 . S
C335 C333 1.390 1_454 S
C335 C336 1.387 1_454 S
C335 H338 0.950 . S
C336 C335 1.387 1_656 S
C336 C339 1.387 . S
H337 C333 0.950 . S
H338 C335 0.950 . S
C339 C330 1.390 . S
C339 H332 0.950 . S
C339 C336 1.387 . S
C340 C341 1.387 . S
C340 H344 0.950 . S
C340 C349 1.390 1_554 S
C341 C340 1.387 . S
C341 C343 1.387 1_554 S
H342 C349 0.950 . S
C343 C341 1.387 1_556 S
C343 C345 1.390 . S
C343 H347 0.950 . S
H344 C340 0.950 . S
C345 C343 1.390 . S
C345 C346 1.387 . S
C345 H348 0.950 . S
C346 C345 1.387 . S
C346 C349 1.387 . S
H347 C343 0.950 . S
H348 C345 0.950 . S
C349 C340 1.390 1_556 S
C349 H342 0.950 . S
C349 C346 1.387 . S
C350 C351 1.387 1_554 S
C350 H354 0.950 . S
C350 C359 1.390 . S
C351 C350 1.387 1_556 S
C351 C353 1.387 . S
H352 C359 0.950 . S
C353 C351 1.387 . S
C353 C355 1.390 . S
C353 H357 0.950 . S
H354 C350 0.950 . S
C355 C353 1.390 . S
C355 C356 1.387 1_556 S
C355 H358 0.950 . S
C356 C355 1.387 1_554 S
C356 C359 1.387 . S
H357 C353 0.950 . S
H358 C355 0.950 . S
C359 C350 1.390 . S
C359 H352 0.950 . S
C359 C356 1.387 . S
C360 C361 1.387 . S
C360 H364 0.950 . S
C360 C369 1.390 . S
C361 C360 1.387 . S
C361 C363 1.387 . S
H362 C369 0.950 . S
C363 C361 1.387 . S
C363 C365 1.390 . S
C363 H367 0.950 . S
H364 C360 0.950 . S
C365 C363 1.390 . S
C365 C366 1.387 . S
C365 H368 0.950 . S
C366 C365 1.387 . S
C366 C369 1.387 . S
H367 C363 0.950 . S
H368 C365 0.950 . S
C369 C360 1.390 . S
C369 H362 0.950 . S
C369 C366 1.387 . S
C370 C371 1.387 . S
C370 H374 0.950 . S
C370 C379 1.390 . S
C371 C370 1.387 . S
C371 C373 1.387 . S
H372 C379 0.950 . S
C373 C371 1.387 . S
C373 C375 1.390 . S
C373 H377 0.950 1_554 S
H374 C370 0.950 . S
C375 C373 1.390 . S
C375 C376 1.387 . S
C375 H378 0.950 1_554 S
C376 C375 1.387 . S
C376 C379 1.387 . S
H377 C373 0.950 1_556 S
H378 C375 0.950 1_556 S
C379 C370 1.390 . S
C379 H372 0.950 . S
C379 C376 1.387 . S
C380 C381 1.387 . S
C380 H384 0.950 . S
C380 C389 1.390 . S
C381 C380 1.387 . S
C381 C383 1.387 . S
H382 C389 0.950 . S
C383 C381 1.387 . S
C383 C385 1.390 . S
C383 H387 0.950 1_554 S
H384 C380 0.950 . S
C385 C383 1.390 . S
C385 C386 1.387 . S
C385 H388 0.950 1_554 S
C386 C385 1.387 . S
C386 C389 1.387 . S
H387 C383 0.950 1_556 S
H388 C385 0.950 1_556 S
C389 C380 1.390 . S
C389 H382 0.950 . S
C389 C386 1.387 . S
C390 C391 1.387 . S
C390 H394 0.950 . S
C390 C399 1.390 . S
C391 C390 1.387 . S
C391 C393 1.387 . S
H392 C399 0.950 . S
C393 C391 1.387 . S
C393 C395 1.390 . S
C393 H397 0.950 . S
H394 C390 0.950 . S
C395 C393 1.390 . S
C395 C396 1.387 . S
C395 H398 0.950 . S
C396 C395 1.387 . S
C396 C399 1.387 . S
H397 C393 0.950 . S
H398 C395 0.950 . S
C399 C390 1.390 . S
C399 H392 0.950 . S
C399 C396 1.387 . S
C400 C401 1.387 . S
C400 H404 0.950 . S
C400 C409 1.390 1_545 S
C401 C400 1.387 . S
C401 C403 1.387 . S
H402 C409 0.950 . S
C403 C401 1.387 . S
C403 C405 1.390 . S
C403 H407 0.950 . S
H404 C400 0.950 . S
C405 C403 1.390 . S
C405 C406 1.387 1_545 S
C405 H408 0.950 . S
C406 C405 1.387 1_565 S
C406 C409 1.387 . S
H407 C403 0.950 . S
H408 C405 0.950 . S
C409 C400 1.390 1_565 S
C409 H402 0.950 . S
C409 C406 1.387 . S
C410 C411 1.387 . S
C410 H414 0.950 . S
C410 C419 1.390 . S
C411 C410 1.387 . S
C411 C413 1.387 . S
H412 C419 0.950 . S
C413 C411 1.387 . S
C413 C415 1.390 . S
C413 H417 0.950 . S
H414 C410 0.950 . S
C415 C413 1.390 . S
C415 C416 1.387 . S
C415 H418 0.950 . S
C416 C415 1.387 . S
C416 C419 1.387 . S
H417 C413 0.950 . S
H418 C415 0.950 . S
C419 C410 1.390 . S
C419 H412 0.950 . S
C419 C416 1.387 . S
C420 C421 1.387 . S
C420 H424 0.950 . S
C420 C429 1.390 . S
C421 C420 1.387 . S
C421 C423 1.387 . S
H422 C429 0.950 . S
C423 C421 1.387 . S
C423 C425 1.390 . S
C423 H427 0.950 . S
H424 C420 0.950 . S
C425 C423 1.390 . S
C425 C426 1.387 . S
C425 H428 0.950 . S
C426 C425 1.387 . S
C426 C429 1.387 . S
H427 C423 0.950 . S
H428 C425 0.950 . S
C429 C420 1.390 . S
C429 H422 0.950 . S
C429 C426 1.387 . S
C430 C431 1.387 . S
C430 H434 0.950 . S
C430 C439 1.390 1_565 S
C431 C430 1.387 . S
C431 C433 1.387 1_565 S
H432 C439 0.950 . S
C433 C431 1.387 1_545 S
C433 C435 1.390 . S
C433 H437 0.950 . S
H434 C430 0.950 . S
C435 C433 1.390 . S
C435 C436 1.387 . S
C435 H438 0.950 . S
C436 C435 1.387 . S
C436 C439 1.387 . S
H437 C433 0.950 . S
H438 C435 0.950 . S
C439 C430 1.390 1_545 S
C439 H432 0.950 . S
C439 C436 1.387 . S
C440 C441 1.387 . S
C440 H444 0.950 . S
C440 C449 1.390 . S
C441 C440 1.387 . S
C441 C443 1.387 . S
H442 C449 0.950 . S
C443 C441 1.387 . S
C443 C445 1.390 . S
C443 H447 0.950 . S
H444 C440 0.950 . S
C445 C443 1.390 . S
C445 C446 1.387 . S
C445 H448 0.950 . S
C446 C445 1.387 . S
C446 C449 1.387 . S
H447 C443 0.950 . S
H448 C445 0.950 . S
C449 C440 1.390 . S
C449 H442 0.950 . S
C449 C446 1.387 . S
C181 C1 1.215 . S
C186 C9 1.215 . S
C191 C29 1.225 . S
C196 C21 1.225 . S
C201 C41 1.268 1_545 S
C206 C49 1.268 . S
C211 C69 1.213 . S
C216 C61 1.213 1_556 S
C221 C81 1.224 . S
C226 C89 1.224 . S
C231 C109 1.265 . S
C236 C101 1.265 . S
C241 C128 1.410 . S
C246 C139 1.410 1_554 S
C251 C159 1.409 . S
C256 C148 1.409 1_554 S
C261 C168 1.417 . S
C266 C179 1.417 1_554 S
C271 C116 1.952 . S
C276 C8 1.906 . S
C281 C36 1.540 . S
C286 C76 1.508 . S
C291 C48 2.402 . S
C296 C88 2.350 . S
C301 C56 1.105 . S
C306 C126 1.224 . S
C311 C149 1.455 . S
C316 C16 1.401 . S
C321 C166 1.639 . S
C326 C28 1.621 . S
C331 C161 1.824 . S
C336 C19 1.799 1_656 S
C341 C26 1.137 . S
C346 C121 1.235 . S
C351 C156 1.453 . S
C356 C59 1.353 . S
C361 C46 1.950 . S
C366 C79 1.909 . S
C371 C86 1.540 . S
C376 C6 1.508 . S
C381 C39 2.350 . S
C386 C119 2.402 . S
C391 C169 1.824 . S
C396 C68 1.798 . S
C401 C129 1.234 . S
C406 C96 1.133 . S
C411 C146 1.455 . S
C416 C108 1.354 . S
C421 C136 1.223 . S
C426 C106 1.110 . S
C431 C66 1.403 . S
C436 C141 1.455 . S
C441 C176 1.640 . S
C446 C99 1.622 . S
