# Generated by pormake.
# Topology wjg, (4)-cn, num edge types: 1
# Building blocks:
#     Node 0, Type 0, BuildingBlock: AZAVOO_clean_sbu_0, # of connection points: 4
#     Node 1, Type 0, BuildingBlock: AZAVOO_clean_sbu_0, # of connection points: 4
#     Node 2, Type 0, BuildingBlock: AZAVOO_clean_sbu_0, # of connection points: 4
#     Node 3, Type 0, BuildingBlock: AZAVOO_clean_sbu_0, # of connection points: 4
#     Node 4, Type 0, BuildingBlock: AZAVOO_clean_sbu_0, # of connection points: 4
#     Node 5, Type 0, BuildingBlock: AZAVOO_clean_sbu_0, # of connection points: 4
#     Node 6, Type 0, BuildingBlock: AZAVOO_clean_sbu_0, # of connection points: 4
#     Node 7, Type 0, BuildingBlock: AZAVOO_clean_sbu_0, # of connection points: 4
#     Node 8, Type 0, BuildingBlock: AZAVOO_clean_sbu_0, # of connection points: 4
#     Node 9, Type 0, BuildingBlock: AZAVOO_clean_sbu_0, # of connection points: 4
#     Node 10, Type 0, BuildingBlock: AZAVOO_clean_sbu_0, # of connection points: 4
#     Node 11, Type 0, BuildingBlock: AZAVOO_clean_sbu_0, # of connection points: 4
#     Edge 12, Type (0, 0), BuildingBlock: UVAHIK_clean_linker_0, # of connection points: 2
#     Edge 13, Type (0, 0), BuildingBlock: UVAHIK_clean_linker_0, # of connection points: 2
#     Edge 14, Type (0, 0), BuildingBlock: UVAHIK_clean_linker_0, # of connection points: 2
#     Edge 15, Type (0, 0), BuildingBlock: UVAHIK_clean_linker_0, # of connection points: 2
#     Edge 16, Type (0, 0), BuildingBlock: UVAHIK_clean_linker_0, # of connection points: 2
#     Edge 17, Type (0, 0), BuildingBlock: UVAHIK_clean_linker_0, # of connection points: 2
#     Edge 18, Type (0, 0), BuildingBlock: UVAHIK_clean_linker_0, # of connection points: 2
#     Edge 19, Type (0, 0), BuildingBlock: UVAHIK_clean_linker_0, # of connection points: 2
#     Edge 20, Type (0, 0), BuildingBlock: UVAHIK_clean_linker_0, # of connection points: 2
#     Edge 21, Type (0, 0), BuildingBlock: UVAHIK_clean_linker_0, # of connection points: 2
#     Edge 22, Type (0, 0), BuildingBlock: UVAHIK_clean_linker_0, # of connection points: 2
#     Edge 23, Type (0, 0), BuildingBlock: UVAHIK_clean_linker_0, # of connection points: 2
#     Edge 24, Type (0, 0), BuildingBlock: UVAHIK_clean_linker_0, # of connection points: 2
#     Edge 25, Type (0, 0), BuildingBlock: UVAHIK_clean_linker_0, # of connection points: 2
#     Edge 26, Type (0, 0), BuildingBlock: UVAHIK_clean_linker_0, # of connection points: 2
#     Edge 27, Type (0, 0), BuildingBlock: UVAHIK_clean_linker_0, # of connection points: 2
#     Edge 28, Type (0, 0), BuildingBlock: UVAHIK_clean_linker_0, # of connection points: 2
#     Edge 29, Type (0, 0), BuildingBlock: UVAHIK_clean_linker_0, # of connection points: 2
#     Edge 30, Type (0, 0), BuildingBlock: UVAHIK_clean_linker_0, # of connection points: 2
#     Edge 31, Type (0, 0), BuildingBlock: UVAHIK_clean_linker_0, # of connection points: 2
#     Edge 32, Type (0, 0), BuildingBlock: UVAHIK_clean_linker_0, # of connection points: 2
#     Edge 33, Type (0, 0), BuildingBlock: UVAHIK_clean_linker_0, # of connection points: 2
#     Edge 34, Type (0, 0), BuildingBlock: UVAHIK_clean_linker_0, # of connection points: 2
#     Edge 35, Type (0, 0), BuildingBlock: UVAHIK_clean_linker_0, # of connection points: 2
# Relax obj value: 0.285
# Max RMSD: 0.125
# Mean RMSD: 0.125
data_MOF--net-wjg--node1-AZAVOO_clean_sbu_0--edge1-UVAHIK_clean_linker_0
_symmetry_space_group_name_H-M    P1
_symmetry_Int_Tables_number       1
_symmetry_cell_setting            triclinic
loop_
_symmetry_equiv_pos_as_xyz
'x, y, z'
_cell_length_a     45.358212
_cell_length_b     45.30719
_cell_length_c     48.501995
_cell_angle_alpha  89.986981
_cell_angle_beta   90.170596
_cell_angle_gamma 120.04088
loop_
_atom_site_label
_atom_site_type_symbol
_atom_site_fract_x
_atom_site_fract_y
_atom_site_fract_z
_atom_type_partial_charge
Mg0 Mg 0.13606 0.40254 0.3344 0.0
O1 O 0.17039 0.37798 0.33608 0.0
O2 O 0.19106 0.38594 0.37912 0.0
Mg3 Mg 0.17511 0.41857 0.40347 0.0
C4 C 0.18782 0.37369 0.35486 0.0
C5 C 0.10887 0.36089 0.28087 0.0
O6 O 0.10461 0.33801 0.29946 0.0
O7 O 0.18433 0.4563 0.32976 0.0
O8 O 0.20389 0.46184 0.37289 0.0
O9 O 0.09394 0.354 0.35263 0.0
O10 O 0.13024 0.39829 0.37732 0.0
C11 C 0.20632 0.4735 0.34853 0.0
C12 C 0.10642 0.36697 0.37647 0.0
O13 O 0.12556 0.39228 0.28767 0.0
Mg14 Mg 0.73194 0.14192 0.66742 0.0
O15 O 0.79056 0.17775 0.66542 0.0
O16 O 0.80629 0.20037 0.70779 0.0
Mg17 Mg 0.75949 0.18596 0.7341 0.0
C18 C 0.81343 0.19606 0.68321 0.0
C19 C 0.70389 0.09635 0.61927 0.0
O20 O 0.68747 0.0804 0.64172 0.0
O21 O 0.72429 0.18843 0.6615 0.0
O22 O 0.74132 0.21178 0.70329 0.0
O23 O 0.74203 0.10243 0.68601 0.0
O24 O 0.73423 0.13915 0.71029 0.0
C25 C 0.72979 0.21167 0.6792 0.0
C26 C 0.74281 0.11611 0.70958 0.0
O27 O 0.72701 0.12758 0.62143 0.0
Mg28 Mg 0.59126 0.73525 0.98589 0.0
O29 O 0.61285 0.79376 -0.01151 0.0
O30 O 0.60168 0.80337 0.03149 0.0
Mg31 Mg 0.57061 0.75337 0.05476 0.0
C32 C 0.6149 0.8141 0.00775 0.0
C33 C 0.61574 0.71592 0.93721 0.0
O34 O 0.61703 0.69977 0.95928 0.0
O35 O 0.53647 0.72663 0.9799 0.0
O36 O 0.52755 0.73655 0.02343 0.0
O37 O 0.64049 0.74448 0.00521 0.0
O38 O 0.59418 0.7323 0.02862 0.0
C39 C 0.51729 0.7281 -0.00138 0.0
C40 C 0.62587 0.74136 0.02868 0.0
O41 O 0.6033 0.73558 0.93966 0.0
Mg42 Mg 0.85174 0.5935 0.32315 0.0
O43 O 0.81338 0.61337 0.32276 0.0
O44 O 0.79063 0.60262 0.36511 0.0
Mg45 Mg 0.81249 0.57678 0.39189 0.0
C46 C 0.79325 0.61442 0.34075 0.0
C47 C 0.87972 0.63055 0.26705 0.0
O48 O 0.88607 0.65613 0.28347 0.0
O49 O 0.80664 0.53753 0.31986 0.0
O50 O 0.7877 0.53075 0.36325 0.0
O51 O 0.89094 0.64468 0.34011 0.0
O52 O 0.85723 0.60035 0.36578 0.0
C53 C 0.78642 0.51903 0.33908 0.0
C54 C 0.87914 0.63227 0.36419 0.0
O55 O 0.86187 0.60027 0.27624 0.0
Mg56 Mg 0.25108 0.85341 0.66212 0.0
O57 O 0.19242 0.81715 0.66166 0.0
O58 O 0.17912 0.7947 0.70407 0.0
Mg59 Mg 0.22695 0.81186 0.73 0.0
C60 C 0.17047 0.79834 0.67977 0.0
C61 C 0.24248 0.88373 0.60695 0.0
O62 O 0.22441 0.89082 0.62398 0.0
O63 O 0.25913 0.80684 0.65714 0.0
O64 O 0.24501 0.78567 0.69977 0.0
O65 O 0.24163 0.89356 0.68063 0.0
O66 O 0.25053 0.85765 0.70499 0.0
C67 C 0.25536 0.78483 0.67549 0.0
C68 C 0.2419 0.88064 0.70432 0.0
O69 O 0.25411 0.86491 0.61547 0.0
Mg70 Mg 0.4016 0.26016 -0.00795 0.0
O71 O 0.37444 0.20102 -0.008 0.0
O72 O 0.37845 0.18563 0.03523 0.0
Mg73 Mg 0.41351 0.23271 0.06058 0.0
C74 C 0.36748 0.17826 0.01048 0.0
C75 C 0.36281 0.25158 0.93707 0.0
O76 O 0.33788 0.2337 0.95435 0.0
O77 O 0.45402 0.26269 0.98785 0.0
O78 O 0.45664 0.24518 0.03042 0.0
O79 O 0.35365 0.25559 0.01031 0.0
O80 O 0.39705 0.26085 0.03479 0.0
C81 C 0.46932 0.25508 0.00644 0.0
C82 C 0.36648 0.25539 0.03407 0.0
O83 O 0.39336 0.26315 0.94535 0.0
Mg84 Mg 0.59258 0.85568 0.31803 0.0
O85 O 0.6115 0.81659 0.31755 0.0
O86 O 0.59691 0.79174 0.27593 0.0
Mg87 Mg 0.56906 0.81279 0.25063 0.0
C88 C 0.61077 0.79544 0.29962 0.0
C89 C 0.62011 0.90123 0.36667 0.0
O90 O 0.62626 0.91964 0.34423 0.0
O91 O 0.53682 0.81152 0.32471 0.0
O92 O 0.5259 0.79028 0.28183 0.0
O93 O 0.64241 0.89306 0.29797 0.0
O94 O 0.59522 0.85885 0.27526 0.0
C95 C 0.51649 0.7905 0.30656 0.0
C96 C 0.62721 0.88053 0.27477 0.0
O97 O 0.60427 0.86884 0.36419 0.0
Mg98 Mg 0.72933 0.59415 0.63861 0.0
O99 O 0.78789 0.61641 0.63873 0.0
O100 O 0.80106 0.60743 0.59624 0.0
Mg101 Mg 0.75287 0.57699 0.57056 0.0
C102 C 0.80977 0.61958 0.62058 0.0
C103 C 0.74231 0.633 0.6943 0.0
O104 O 0.7633 0.65764 0.67789 0.0
O105 O 0.72131 0.53962 0.64338 0.0
O106 O 0.7349 0.5324 0.6006 0.0
O107 O 0.73882 0.64393 0.6208 0.0
O108 O 0.7297 0.59939 0.59586 0.0
C109 C 0.72479 0.5213 0.62496 0.0
C110 C 0.73855 0.63109 0.59694 0.0
O111 O 0.72696 0.60254 0.68515 0.0
Mg112 Mg 0.1354 0.73438 0.97942 0.0
O113 O 0.1696 0.79337 0.97897 0.0
O114 O 0.18745 0.8075 0.93531 0.0
Mg115 Mg 0.17228 0.75956 0.91014 0.0
C116 C 0.18531 0.81561 0.96013 0.0
C117 C 0.10305 0.70265 0.03387 0.0
O118 O 0.09252 0.67756 0.01598 0.0
O119 O 0.18378 0.7291 0.98248 0.0
O120 O 0.20251 0.74513 0.93947 0.0
O121 O 0.09312 0.74173 0.96308 0.0
O122 O 0.12824 0.73389 0.93679 0.0
C123 C 0.20558 0.7351 0.96336 0.0
C124 C 0.10474 0.74168 0.93879 0.0
O125 O 0.12565 0.73239 0.02616 0.0
Mg126 Mg 0.3955 0.13967 0.31832 0.0
O127 O 0.37273 0.17554 0.31782 0.0
O128 O 0.38061 0.19671 0.27502 0.0
Mg129 Mg 0.41143 0.17928 0.24977 0.0
C130 C 0.36888 0.19365 0.29941 0.0
C131 C 0.39264 0.10553 0.37234 0.0
O132 O 0.40714 0.09504 0.35444 0.0
O133 O 0.45024 0.18669 0.32289 0.0
O134 O 0.45562 0.20651 0.27991 0.0
O135 O 0.34574 0.09896 0.30014 0.0
O136 O 0.39062 0.13429 0.27565 0.0
C137 C 0.46766 0.20839 0.30408 0.0
C138 C 0.35913 0.11107 0.27636 0.0
O139 O 0.38611 0.12862 0.3648 0.0
Mg140 Mg 0.25562 0.40093 0.64891 0.0
O141 O 0.19707 0.37889 0.64859 0.0
O142 O 0.18342 0.38385 0.60496 0.0
Mg143 Mg 0.23161 0.41443 0.57962 0.0
C144 C 0.17509 0.3737 0.62977 0.0
C145 C 0.28772 0.4003 0.70302 0.0
O146 O 0.31235 0.41423 0.68479 0.0
O147 O 0.26371 0.45568 0.65187 0.0
O148 O 0.24887 0.45992 0.60868 0.0
O149 O 0.24546 0.35019 0.63289 0.0
O150 O 0.25521 0.39372 0.60635 0.0
C151 C 0.25933 0.47259 0.63265 0.0
C152 C 0.24578 0.36196 0.60855 0.0
O153 O 0.25797 0.3935 0.69565 0.0
Mg154 Mg 0.85651 0.25826 -0.01076 0.0
O155 O 0.81978 0.1997 0.98686 0.0
O156 O 0.79809 0.18956 0.94408 0.0
Mg157 Mg 0.81689 0.23923 0.92031 0.0
C158 C 0.80103 0.17913 0.96785 0.0
C159 C 0.88534 0.24449 0.04238 0.0
O160 O 0.89071 0.22689 0.02357 0.0
O161 O 0.81008 0.26638 -0.00515 0.0
O162 O 0.79094 0.25663 0.95129 0.0
O163 O 0.89687 0.24979 0.97004 0.0
O164 O 0.86188 0.26058 0.9463 0.0
C165 C 0.78942 0.26508 0.97613 0.0
C166 C 0.88458 0.2516 0.94647 0.0
O167 O 0.8673 0.2578 0.03587 0.0
C168 C 0.24085 0.5244 0.31733 0.0
C169 C 0.23589 0.50806 0.34296 0.0
C170 C 0.26902 0.55719 0.31318 0.0
C171 C 0.33457 0.6332 0.35203 0.0
H172 H 0.38645 0.65352 0.28448 0.0
C173 C 0.47236 0.7485 0.33952 0.0
C174 C 0.48108 0.76417 0.31352 0.0
C175 C 0.44026 0.7194 0.34368 0.0
C176 C 0.37202 0.6485 0.30336 0.0
H177 H 0.25721 0.51364 0.38418 0.0
H178 H 0.30564 0.56962 0.37679 0.0
H179 H 0.33432 0.59878 0.28946 0.0
H180 H 0.46213 0.76335 0.27222 0.0
H181 H 0.40649 0.7136 0.27964 0.0
H182 H 0.37267 0.68276 0.36608 0.0
C183 C 0.28765 0.55772 0.36003 0.0
C184 C 0.34203 0.61706 0.30616 0.0
C185 C 0.25979 0.52526 0.36415 0.0
C186 C 0.4564 0.75156 0.29242 0.0
C187 C 0.42452 0.72284 0.29658 0.0
C188 C 0.36461 0.66464 0.34924 0.0
C189 C 0.29267 0.57428 0.3346 0.0
C190 C 0.32309 0.60882 0.33065 0.0
C191 C 0.41637 0.70566 0.32194 0.0
C192 C 0.38385 0.67262 0.32493 0.0
H193 H 0.22301 0.51199 0.30058 0.0
H194 H 0.27206 0.56928 0.29332 0.0
H195 H 0.32034 0.62796 0.37103 0.0
H196 H 0.4909 0.75751 0.3561 0.0
H197 H 0.43482 0.70676 0.3635 0.0
C198 C 0.72399 0.26151 0.69362 0.0
C199 C 0.72315 0.23986 0.6724 0.0
C200 C 0.71965 0.28926 0.68789 0.0
C201 C 0.72908 0.34832 0.63229 0.0
H202 H 0.67985 0.37477 0.68248 0.0
C203 C 0.71314 0.4639 0.60946 0.0
C204 C 0.71799 0.48635 0.63132 0.0
C205 C 0.71007 0.43216 0.6144 0.0
C206 C 0.69395 0.36792 0.66841 0.0
H207 H 0.7163 0.23029 0.62843 0.0
H208 H 0.70863 0.2791 0.61832 0.0
H209 H 0.68026 0.32172 0.69022 0.0
H210 H 0.72212 0.4923 0.67572 0.0
H211 H 0.71715 0.43665 0.68444 0.0
H212 H 0.74327 0.39468 0.61072 0.0
C213 C 0.71294 0.27449 0.63946 0.0
C214 C 0.69412 0.33744 0.67278 0.0
C215 C 0.71713 0.24641 0.64524 0.0
C216 C 0.71836 0.47561 0.65844 0.0
C217 C 0.71546 0.44369 0.6634 0.0
C218 C 0.72895 0.37878 0.62794 0.0
C219 C 0.71437 0.29637 0.66075 0.0
C220 C 0.71192 0.32739 0.65489 0.0
C221 C 0.71197 0.42188 0.64134 0.0
C222 C 0.71151 0.38909 0.646 0.0
H223 H 0.72842 0.25733 0.71485 0.0
H224 H 0.72141 0.30575 0.70475 0.0
H225 H 0.74356 0.34174 0.6184 0.0
H226 H 0.71217 0.47101 0.5883 0.0
H227 H 0.70651 0.41575 0.59696 0.0
C228 C 0.45823 0.70952 0.01396 0.0
C229 C 0.48215 0.72067 -0.00757 0.0
C230 C 0.42657 0.70702 0.01033 0.0
C231 C 0.36537 0.70491 0.9585 0.0
H232 H 0.33662 0.74057 0.01906 0.0
C233 C 0.2587 0.73745 0.94626 0.0
C234 C 0.23555 0.73051 0.96799 0.0
C235 C 0.28701 0.73342 0.94961 0.0
C236 C 0.34392 0.73 0.00214 0.0
H237 H 0.49078 0.73635 0.94967 0.0
H238 H 0.4351 0.73226 0.94323 0.0
H239 H 0.38912 0.73856 0.02303 0.0
H240 H 0.22445 0.71378 0.01047 0.0
H241 H 0.27427 0.70658 0.01636 0.0
H242 H 0.32029 0.69671 0.93751 0.0
C243 C 0.44099 0.72526 0.96297 0.0
C244 C 0.37412 0.72889 0.00436 0.0
C245 C 0.47287 0.72758 0.9666 0.0
C246 C 0.24169 0.71939 -0.00669 0.0
C247 C 0.2703 0.71539 -0.00331 0.0
C248 C 0.33513 0.706 0.95628 0.0
C249 C 0.41783 0.71581 0.98508 0.0
C250 C 0.38534 0.71646 0.98254 0.0
C251 C 0.29325 0.72227 0.97478 0.0
C252 C 0.32415 0.71884 0.97799 0.0
H253 H 0.46432 0.70344 0.03403 0.0
H254 H 0.4091 0.69871 0.02756 0.0
H255 H 0.37294 0.69474 0.94147 0.0
H256 H 0.25516 0.74624 0.92642 0.0
H257 H 0.30439 0.73969 0.93247 0.0
C258 C 0.5182 0.24387 0.33559 0.0
C259 C 0.50291 0.23697 0.30933 0.0
C260 C 0.55123 0.27177 0.33957 0.0
C261 C 0.62941 0.33297 0.30073 0.0
H262 H 0.64714 0.39171 0.364 0.0
C263 C 0.74434 0.47181 0.3079 0.0
C264 C 0.7593 0.48321 0.334 0.0
C265 C 0.71519 0.43944 0.30487 0.0
C266 C 0.64284 0.37536 0.34636 0.0
H267 H 0.51095 0.25413 0.26666 0.0
H268 H 0.56727 0.30208 0.27371 0.0
H269 H 0.59259 0.33911 0.36 0.0
H270 H 0.7569 0.46859 0.37693 0.0
H271 H 0.70701 0.41254 0.37154 0.0
H272 H 0.67946 0.36965 0.28685 0.0
C273 C 0.55431 0.28592 0.2912 0.0
C274 C 0.61151 0.34509 0.34413 0.0
C275 C 0.52162 0.25837 0.28725 0.0
C276 C 0.74572 0.46087 0.35657 0.0
C277 C 0.71691 0.42873 0.35355 0.0
C278 C 0.66071 0.3633 0.30293 0.0
C279 C 0.56965 0.29314 0.31735 0.0
C280 C 0.60419 0.32368 0.32112 0.0
C281 C 0.70062 0.4179 0.32788 0.0
C282 C 0.66774 0.38504 0.32567 0.0
H283 H 0.50462 0.22798 0.35303 0.0
H284 H 0.56239 0.27652 0.36 0.0
H285 H 0.62489 0.31684 0.28291 0.0
H286 H 0.7541 0.48844 0.29015 0.0
H287 H 0.70324 0.43191 0.28477 0.0
C288 C 0.26536 0.74764 0.64217 0.0
C289 C 0.26247 0.75682 0.6693 0.0
C290 C 0.26939 0.7193 0.6372 0.0
C291 C 0.29276 0.66007 0.67177 0.0
H292 H 0.23676 0.59662 0.61481 0.0
C293 C 0.26765 0.52084 0.66411 0.0
C294 C 0.26567 0.50773 0.63748 0.0
C295 C 0.27056 0.55299 0.66774 0.0
C296 C 0.25294 0.61424 0.6306 0.0
H297 H 0.26291 0.74399 0.71244 0.0
H298 H 0.26958 0.69513 0.70377 0.0
H299 H 0.23717 0.65023 0.62032 0.0
H300 H 0.26711 0.51913 0.5938 0.0
H301 H 0.27263 0.57466 0.60014 0.0
H302 H 0.30815 0.62376 0.68228 0.0
C303 C 0.26899 0.7097 0.68629 0.0
C304 C 0.25324 0.64509 0.63369 0.0
C305 C 0.26482 0.73769 0.69122 0.0
C306 C 0.268 0.52804 0.61467 0.0
C307 C 0.271 0.55996 0.61827 0.0
C308 C 0.29246 0.62917 0.66869 0.0
C309 C 0.27094 0.6998 0.65926 0.0
C310 C 0.27292 0.6683 0.65446 0.0
C311 C 0.27164 0.57265 0.64479 0.0
C312 C 0.27241 0.60577 0.64815 0.0
H313 H 0.26367 0.76179 0.62483 0.0
H314 H 0.27112 0.71253 0.61609 0.0
H315 H 0.30858 0.67754 0.68779 0.0
H316 H 0.26589 0.50589 0.6821 0.0
H317 H 0.27087 0.56195 0.68849 0.0
C318 C 0.74322 0.26192 0.00695 0.0
C319 C 0.76195 0.27268 0.98238 0.0
C320 C 0.71342 0.26387 0.00997 0.0
C321 C 0.6477 0.26796 0.96658 0.0
H322 H 0.61701 0.28467 0.03619 0.0
C323 C 0.52292 0.27474 0.97803 0.0
C324 C 0.50308 0.25808 0.0013 0.0
C325 C 0.55565 0.2789 0.97507 0.0
C326 C 0.62515 0.27979 0.01659 0.0
H327 H 0.76575 0.29625 0.94265 0.0
H328 H 0.71498 0.30079 0.94826 0.0
H329 H 0.67256 0.28863 0.03357 0.0
H330 H 0.50186 0.23156 0.03907 0.0
H331 H 0.55795 0.23861 0.03373 0.0
H332 H 0.60014 0.25893 0.94969 0.0
C333 C 0.72224 0.28964 0.96482 0.0
C334 C 0.65701 0.28197 0.01512 0.0
C335 C 0.75158 0.28734 0.96171 0.0
C336 C 0.5164 0.245 0.02102 0.0
C337 C 0.54883 0.24921 0.0181 0.0
C338 C 0.6159 0.2659 0.96803 0.0
C339 C 0.70207 0.27692 -0.01144 0.0
C340 C 0.66863 0.27583 -0.00985 0.0
C341 C 0.56912 0.2666 -0.00465 0.0
C342 C 0.60404 0.27138 -0.00687 0.0
H343 H 0.75047 0.25027 0.02311 0.0
H344 H 0.69849 0.2537 0.02852 0.0
H345 H 0.65544 0.26244 0.94706 0.0
H346 H 0.5135 0.28511 0.96247 0.0
H347 H 0.57069 0.29242 0.95724 0.0
C348 C 0.20891 0.34557 0.32169 0.0
C349 C 0.20464 0.3535 0.34887 0.0
C350 C 0.22569 0.32726 0.31649 0.0
C351 C 0.28504 0.30341 0.34946 0.0
H352 H 0.25555 0.23707 0.29026 0.0
C353 C 0.34071 0.21397 0.3332 0.0
C354 C 0.34931 0.21098 0.30592 0.0
C355 C 0.32224 0.23046 0.33888 0.0
C356 C 0.2642 0.25568 0.30677 0.0
H357 H 0.21363 0.34726 0.39193 0.0
H358 H 0.24198 0.31493 0.38292 0.0
H359 H 0.22475 0.26746 0.29896 0.0
H360 H 0.34466 0.22259 0.26319 0.0
H361 H 0.31261 0.25112 0.27315 0.0
H362 H 0.32432 0.29135 0.35737 0.0
C363 C 0.23336 0.32363 0.36552 0.0
C364 C 0.24663 0.2732 0.3117 0.0
C365 C 0.21689 0.3421 0.37069 0.0
C366 C 0.33871 0.22455 0.28449 0.0
C367 C 0.32004 0.24069 0.29014 0.0
C368 C 0.30244 0.2857 0.34465 0.0
C369 C 0.23832 0.31624 0.33837 0.0
C370 C 0.25688 0.2974 0.33306 0.0
C371 C 0.31165 0.24393 0.31737 0.0
C372 C 0.29233 0.26176 0.32317 0.0
H373 H 0.1998 0.35399 0.30442 0.0
H374 H 0.22934 0.32235 0.29529 0.0
H375 H 0.2941 0.32228 0.36577 0.0
H376 H 0.3484 0.20377 0.35018 0.0
H377 H 0.31592 0.23236 0.36008 0.0
C378 C 0.86266 0.23066 0.65179 0.0
C379 C 0.84972 0.21166 0.676 0.0
C380 C 0.89775 0.24776 0.6466 0.0
C381 C 0.98131 0.27572 0.68254 0.0
H382 H 0.01552 0.29454 0.60783 0.0
C383 C 0.12552 0.35981 0.66056 0.0
C384 C 0.13844 0.35403 0.63622 0.0
C385 C 0.09036 0.34247 0.6654 0.0
C386 C 0.00663 0.28906 0.6289 0.0
H387 H 0.86254 0.19389 0.71308 0.0
H388 H 0.92306 0.22133 0.70328 0.0
H389 H 0.95479 0.26259 0.61555 0.0
H390 H 0.12529 0.32463 0.59844 0.0
H391 H 0.06456 0.29273 0.60756 0.0
H392 H 0.03309 0.3 0.69588 0.0
C393 C 0.90691 0.22497 0.68886 0.0
C394 C 0.97145 0.2712 0.63336 0.0
C395 C 0.87208 0.20883 0.69439 0.0
C396 C 0.11584 0.32986 0.61724 0.0
C397 C 0.08089 0.31182 0.6224 0.0
C398 C 0.01646 0.29274 0.67807 0.0
C399 C 0.92051 0.24536 0.66519 0.0
C400 C 0.95816 0.26429 0.66027 0.0
C401 C 0.06743 0.31822 0.64633 0.0
C402 C 0.02976 0.29982 0.65117 0.0
H403 H 0.84582 0.23337 0.63743 0.0
H404 H 0.90697 0.26352 0.62837 0.0
H405 H 0.97246 0.2718 0.70364 0.0
H406 H 0.14249 0.37855 0.6754 0.0
H407 H 0.08127 0.34876 0.68383 0.0
C408 C 0.77854 0.12828 -0.00045 0.0
C409 C 0.78275 0.14177 0.9728 0.0
C410 C 0.76098 0.0929 0.00371 0.0
C411 C 0.73508 0.01139 0.96826 0.0
H412 H 0.66546 0.97197 0.02454 0.0
C413 C 0.64368 0.86547 0.97664 0.0
C414 C 0.63427 0.85153 0.00321 0.0
C415 C 0.66206 0.90091 0.9729 0.0
C416 C 0.68515 0.9825 0.00897 0.0
H417 H 0.7723 0.12848 0.92942 0.0
H418 H 0.74207 0.06719 0.93674 0.0
H419 H 0.69806 0.03369 0.01897 0.0
H420 H 0.63764 0.86409 0.04675 0.0
H421 H 0.67012 0.92531 0.04031 0.0
H422 H 0.72262 0.96038 0.95843 0.0
C423 C 0.75226 0.08387 0.95449 0.0
C424 C 0.7038 0.01793 0.00579 0.0
C425 C 0.76939 0.11908 0.95035 0.0
C426 C 0.64398 0.87384 0.02592 0.0
C427 C 0.66255 0.90911 0.02221 0.0
C428 C 0.71665 0.97597 0.97159 0.0
C429 C 0.74774 0.07033 0.98118 0.0
C430 C 0.72886 0.03277 0.98532 0.0
C431 C 0.67173 0.92321 -0.00433 0.0
C432 C 0.69134 0.961 -0.00806 0.0
H433 H 0.78855 0.14501 0.01728 0.0
H434 H 0.75809 0.08318 0.02453 0.0
H435 H 0.75451 0.0221 0.95248 0.0
H436 H 0.63657 0.84903 0.95871 0.0
H437 H 0.66828 0.91079 0.9521 0.0
C438 C 0.65346 0.78592 0.32563 0.0
C439 C 0.62766 0.7753 0.30556 0.0
C440 C 0.67114 0.76816 0.32928 0.0
C441 C 0.66436 0.6847 0.31782 0.0
H442 H 0.7631 0.73465 0.32066 0.0
C443 C 0.74397 0.62319 0.34979 0.0
C444 C 0.77291 0.63086 0.33401 0.0
C445 C 0.7259 0.64022 0.34523 0.0
C446 C 0.73554 0.72039 0.31971 0.0
H447 H 0.59958 0.73712 0.27419 0.0
H448 H 0.62992 0.70603 0.28092 0.0
H449 H 0.73201 0.76574 0.31629 0.0
H450 H 0.80538 0.66231 0.30085 0.0
H451 H 0.77381 0.69251 0.29305 0.0
H452 H 0.66779 0.63939 0.32137 0.0
C453 C 0.63664 0.72812 0.29371 0.0
C454 C 0.71776 0.73817 0.31754 0.0
C455 C 0.61935 0.74606 0.28981 0.0
C456 C 0.78309 0.65569 0.31323 0.0
C457 C 0.76521 0.67316 0.30893 0.0
C458 C 0.68209 0.66697 0.32032 0.0
C459 C 0.66297 0.73915 0.31326 0.0
C460 C 0.68196 0.72049 0.3165 0.0
C461 C 0.73652 0.66567 0.32501 0.0
C462 C 0.71787 0.6846 0.32127 0.0
H463 H 0.6606 0.80843 0.33799 0.0
H464 H 0.69116 0.77706 0.34466 0.0
H465 H 0.63678 0.67038 0.31719 0.0
H466 H 0.73537 0.60416 0.36593 0.0
H467 H 0.70408 0.63406 0.35809 0.0
C468 C 0.12183 0.77729 0.6458 0.0
C469 C 0.13356 0.78084 0.67312 0.0
C470 C 0.08681 0.76038 0.64006 0.0
C471 C 0.00288 0.70018 0.67158 0.0
H472 H 0.96724 0.73169 0.61293 0.0
C473 C 0.85823 0.64711 0.65469 0.0
C474 C 0.84667 0.63877 0.62732 0.0
C475 C 0.8932 0.66507 0.66058 0.0
C476 C 0.97686 0.72249 0.62929 0.0
H477 H 0.11755 0.77027 0.71588 0.0
H478 H 0.05708 0.74181 0.70597 0.0
H479 H 0.02836 0.76171 0.62218 0.0
H480 H 0.86297 0.64344 0.58467 0.0
H481 H 0.92357 0.67469 0.595 0.0
H482 H 0.95125 0.66122 0.67885 0.0
C483 C 0.07468 0.75104 0.68884 0.0
C484 C 0.01192 0.73959 0.63451 0.0
C485 C 0.10951 0.76759 0.69453 0.0
C486 C 0.87087 0.64918 0.60602 0.0
C487 C 0.90568 0.66738 0.61189 0.0
C488 C 0.96782 0.68328 0.6665 0.0
C489 C 0.06277 0.74694 0.66153 0.0
C490 C 0.02544 0.72864 0.65571 0.0
C491 C 0.91728 0.67544 0.63921 0.0
C492 C 0.95442 0.69416 0.64524 0.0
H493 H 0.13967 0.78717 0.62883 0.0
H494 H 0.07862 0.7574 0.61875 0.0
H495 H 0.01233 0.69056 0.68772 0.0
H496 H 0.8403 0.63955 0.67156 0.0
H497 H 0.90141 0.67115 0.68184 0.0
C498 C 0.32064 0.12015 0.02228 0.0
C499 C 0.34558 0.14191 0.00355 0.0
C500 C 0.30128 0.08519 0.01708 0.0
C501 C 0.28086 0.0191 0.96221 0.0
H502 H 0.25053 0.95888 0.02546 0.0
C503 C 0.19758 0.87391 0.9477 0.0
C504 C 0.20075 0.8522 0.96659 0.0
C505 C 0.21343 0.90892 0.95267 0.0
C506 C 0.25917 0.97513 0.00746 0.0
H507 H 0.36991 0.14455 0.96464 0.0
H508 H 0.33771 0.08324 0.95614 0.0
H509 H 0.28259 0.01983 0.03248 0.0
H510 H 0.22282 0.84978 0.00549 0.0
H511 H 0.25239 0.91119 0.01359 0.0
H512 H 0.25982 0.97441 0.93719 0.0
C513 C 0.33189 0.09303 0.97441 0.0
C514 C 0.27708 0.01044 0.01151 0.0
C515 C 0.35057 0.12823 0.97927 0.0
C516 C 0.21983 0.86604 -0.00927 0.0
C517 C 0.23658 0.9013 -0.00463 0.0
C518 C 0.26374 0.9838 0.95816 0.0
C519 C 0.30712 0.07087 -0.00661 0.0
C520 C 0.28803 0.03306 -0.01105 0.0
C521 C 0.2338 0.92336 0.97631 0.0
C522 C 0.25237 0.96118 0.98072 0.0
H523 H 0.31606 0.13023 0.04103 0.0
H524 H 0.28182 0.06949 0.03181 0.0
H525 H 0.28826 0.03535 0.94421 0.0
H526 H 0.18257 0.86371 0.92906 0.0
H527 H 0.20956 0.92455 0.93787 0.0
C528 C 0.93058 0.24464 0.07211 0.0
C529 C 0.90527 0.25361 0.06856 0.0
C530 C 0.95241 0.25617 0.0949 0.0
C531 C 0.98473 0.32205 0.15068 0.0
H532 H 0.02053 0.26635 0.17922 0.0
C533 C 0.09123 0.37292 0.23454 0.0
C534 C 0.0893 0.34954 0.25454 0.0
C535 C 0.06977 0.3617 0.21128 0.0
C536 C 0.01061 0.28224 0.17185 0.0
H537 H 0.8825 0.28103 0.08691 0.0
H538 H 0.91972 0.30004 0.12748 0.0
H539 H 0.97881 0.24455 0.14246 0.0
H540 H 0.06341 0.29588 0.26541 0.0
H541 H 0.02582 0.27669 0.22589 0.0
H542 H 0.01542 0.35906 0.18119 0.0
C543 C 0.92336 0.28485 0.11211 0.0
C544 C 0.9869 0.26986 0.15028 0.0
C545 C 0.90169 0.27361 0.08898 0.0
C546 C 0.06593 0.31471 0.25041 0.0
C547 C 0.04433 0.30359 0.22747 0.0
C548 C 0.00816 0.33427 0.17261 0.0
C549 C 0.94937 0.27663 0.11524 0.0
C550 C 0.97368 0.28959 0.13918 0.0
C551 C 0.04566 0.32685 0.20758 0.0
C552 C 0.02148 0.31454 0.18355 0.0
H553 H 0.93443 0.22955 0.05675 0.0
H554 H 0.97237 0.24974 0.09603 0.0
H555 H 0.97563 0.33832 0.14257 0.0
H556 H 0.1089 0.39994 0.23706 0.0
H557 H 0.07208 0.38041 0.19626 0.0
C558 C 0.67181 0.04202 0.59271 0.0
C559 C 0.69609 0.07704 0.59292 0.0
C560 C 0.66453 0.02278 0.56859 0.0
C561 C 0.69894 0.02207 0.49948 0.0
H562 H 0.60589 0.95092 0.48505 0.0
C563 C 0.65454 0.95412 0.39431 0.0
C564 C 0.63108 0.91889 0.39372 0.0
C565 C 0.66366 0.97217 0.41912 0.0
C566 C 0.63208 0.97033 0.48896 0.0
H567 H 0.73163 0.11931 0.56761 0.0
H568 H 0.71843 0.08572 0.52508 0.0
H569 H 0.61889 0.98617 0.52621 0.0
H570 H 0.59934 0.87484 0.41899 0.0
H571 H 0.61522 0.90661 0.4627 0.0
H572 H 0.71191 0.0065 0.46188 0.0
C573 C 0.70538 0.07306 0.54386 0.0
C574 C 0.63959 0.99066 0.51258 0.0
C575 C 0.71281 0.09241 0.56818 0.0
C576 C 0.61748 0.90193 0.41876 0.0
C577 C 0.62642 0.92018 0.44372 0.0
C578 C 0.69138 0.00184 0.47578 0.0
C579 C 0.68113 0.03792 0.54379 0.0
C580 C 0.67313 0.01683 0.51819 0.0
C581 C 0.64945 0.95561 0.44413 0.0
C582 C 0.65784 0.97576 0.47018 0.0
H583 H 0.65851 0.02913 0.61136 0.0
H584 H 0.64623 0.99576 0.56959 0.0
H585 H 0.72513 0.04151 0.50331 0.0
H586 H 0.66565 0.96805 0.37545 0.0
H587 H 0.68114 -0.00058 0.41858 0.0
C588 C 0.65288 0.69911 0.91216 0.0
C589 C 0.63009 0.71162 0.91103 0.0
C590 C 0.66603 0.69334 0.88813 0.0
C591 C 0.64812 0.67256 0.81525 0.0
H592 H 0.7439 0.69977 0.81201 0.0
C593 C 0.70209 0.61792 0.73433 0.0
C594 C 0.73219 0.64162 0.72089 0.0
C595 C 0.69019 0.62769 0.75724 0.0
C596 C 0.71714 0.69213 0.81249 0.0
H597 H 0.60338 0.72808 0.88359 0.0
H598 H 0.62612 0.71728 0.84107 0.0
H599 H 0.72229 0.71676 0.85135 0.0
H600 H 0.774 0.69385 0.72172 0.0
H601 H 0.75358 0.71063 0.76188 0.0
H602 H 0.64294 0.64754 0.77649 0.0
C603 C 0.6338 0.71217 0.86084 0.0
C604 C 0.70473 0.70175 0.83509 0.0
C605 C 0.62094 0.71852 0.88511 0.0
C606 C 0.75076 0.67491 0.73157 0.0
C607 C 0.73906 0.68456 0.75463 0.0
C608 C 0.66049 0.66261 0.79274 0.0
C609 C 0.65654 0.69952 0.86217 0.0
C610 C 0.67003 0.69184 0.83687 0.0
C611 C 0.70831 0.66125 0.76745 0.0
C612 C 0.69512 0.67209 0.7912 0.0
H613 H 0.66064 0.69363 0.93175 0.0
H614 H 0.68314 0.68324 0.8899 0.0
H615 H 0.62123 0.66432 0.81613 0.0
H616 H 0.68706 0.59211 0.7266 0.0
H617 H 0.66667 0.60898 0.76691 0.0
C618 C 0.08663 0.72368 0.07612 0.0
C619 C 0.08473 0.69661 0.06052 0.0
C620 C 0.06532 0.71717 0.099 0.0
C621 C 0.00897 0.64906 0.14833 0.0
H622 H 0.96395 0.70226 0.15525 0.0
C623 C 0.89839 0.6109 0.22532 0.0
C624 C 0.89861 0.63741 0.24057 0.0
C625 C 0.92021 0.61815 0.20272 0.0
C626 C 0.97651 0.68733 0.15384 0.0
H627 H 0.05995 0.64151 0.05756 0.0
H628 H 0.0232 0.63029 0.09721 0.0
H629 H 0.00604 0.71591 0.11904 0.0
H630 H 0.92108 0.69235 0.24311 0.0
H631 H 0.959 0.70489 0.20409 0.0
H632 H 0.97957 0.62053 0.18312 0.0
C633 C 0.04108 0.65654 0.09194 0.0
C634 C 0.00078 0.69526 0.13308 0.0
C635 C 0.06214 0.66301 0.06906 0.0
C636 C 0.92012 0.67122 0.23189 0.0
C637 C 0.94189 0.67846 0.20936 0.0
C638 C 0.98477 0.64118 0.16911 0.0
C639 C 0.04185 0.68347 0.10693 0.0
C640 C 0.01727 0.67616 0.12996 0.0
C641 C 0.94279 0.65209 0.19477 0.0
C642 C 0.96808 0.66011 0.17214 0.0
H643 H 0.10364 0.74986 0.07007 0.0
H644 H 0.06694 0.73856 0.1103 0.0
H645 H 0.02145 0.63406 0.14682 0.0
H646 H 0.88218 0.58457 0.23137 0.0
H647 H 0.91968 0.59712 0.19168 0.0
C648 C 0.35577 0.08971 0.41487 0.0
C649 C 0.38013 0.08699 0.3989 0.0
C650 C 0.34096 0.06854 0.43786 0.0
C651 C 0.35195 0.01113 0.4867 0.0
H652 H 0.25418 0.96876 0.4956 0.0
C653 C 0.27926 0.90128 0.56439 0.0
C654 C 0.25414 0.9026 0.58041 0.0
C655 C 0.29358 0.92292 0.54162 0.0
C656 C 0.28155 0.98057 0.49362 0.0
H657 H 0.40894 0.06075 0.39532 0.0
H658 H 0.38337 0.02419 0.43509 0.0
H659 H 0.28248 0.01039 0.45896 0.0
H660 H 0.22343 0.92682 0.58415 0.0
H661 H 0.24839 0.96442 0.54478 0.0
H662 H 0.35111 0.98141 0.52133 0.0
C663 C 0.37566 0.04265 0.43007 0.0
C664 C 0.29782 0.00458 0.47262 0.0
C665 C 0.39027 0.0636 0.40711 0.0
C666 C 0.2427 0.92503 0.57234 0.0
C667 C 0.25698 0.9466 0.54961 0.0
C668 C 0.33571 0.98717 0.50771 0.0
C669 C 0.35038 0.04436 0.44551 0.0
C670 C 0.33324 0.02009 0.46879 0.0
C671 C 0.28313 0.94638 0.53426 0.0
C672 C 0.30025 0.97143 0.51142 0.0
H673 H 0.3473 0.10737 0.40909 0.0
H674 H 0.3219 0.07088 0.4495 0.0
H675 H 0.37931 0.02287 0.48467 0.0
H676 H 0.28868 0.88433 0.56995 0.0
H677 H 0.31319 0.92154 0.52998 0.0
C678 C 0.3815 0.28831 0.8944 0.0
C679 C 0.35527 0.26318 0.9106 0.0
C680 C 0.37388 0.3026 0.87173 0.0
C681 C 0.30349 0.29035 0.82437 0.0
H682 H 0.35883 0.38821 0.81506 0.0
C683 C 0.26735 0.36407 0.74598 0.0
C684 C 0.29418 0.38832 0.72971 0.0
C685 C 0.27408 0.3495 0.76899 0.0
C686 C 0.34324 0.36082 0.8172 0.0
H687 H 0.30039 0.23239 0.91479 0.0
H688 H 0.28723 0.25729 0.87561 0.0
H689 H 0.37266 0.36011 0.85153 0.0
H690 H 0.34917 0.41728 0.72566 0.0
H691 H 0.36079 0.39212 0.76546 0.0
H692 H 0.27406 0.29113 0.79001 0.0
C693 C 0.3137 0.26592 0.8802 0.0
C694 C 0.35128 0.34464 0.83809 0.0
C695 C 0.3213 0.25167 0.90282 0.0
C696 C 0.32784 0.39867 0.73768 0.0
C697 C 0.33455 0.38431 0.76066 0.0
C698 C 0.29542 0.30655 0.80349 0.0
C699 C 0.33986 0.29208 0.86465 0.0
C700 C 0.33161 0.30915 0.84193 0.0
C701 C 0.30779 0.35905 0.77635 0.0
C702 C 0.31527 0.342 0.79954 0.0
H703 H 0.40794 0.29778 0.89974 0.0
H704 H 0.39471 0.32223 0.85993 0.0
H705 H 0.28796 0.26295 0.82646 0.0
H706 H 0.24113 0.35543 0.74039 0.0
H707 H 0.25285 0.33046 0.78083 0.0
C708 C 0.09913 0.31383 0.39827 0.0
C709 C 0.1006 0.34542 0.40087 0.0
C710 C 0.10357 0.29806 0.4215 0.0
C711 C 0.1108 0.30224 0.49809 0.0
H712 H 0.19121 0.29458 0.4861 0.0
C713 C 0.23928 0.35016 0.55843 0.0
C714 C 0.22753 0.33924 0.58527 0.0
C715 C 0.21785 0.33484 0.53585 0.0
C716 C 0.16835 0.29592 0.48977 0.0
H717 H 0.10486 0.38387 0.42963 0.0
H718 H 0.11168 0.35611 0.47013 0.0
H719 H 0.15903 0.29695 0.44662 0.0
H720 H 0.18501 0.30258 0.60971 0.0
H721 H 0.1471 0.27596 0.57009 0.0
H722 H 0.12173 0.30402 0.54117 0.0
C723 C 0.10722 0.3434 0.45037 0.0
C724 C 0.14974 0.29701 0.46716 0.0
C725 C 0.10342 0.3594 0.42718 0.0
C726 C 0.19483 0.31102 0.58912 0.0
C727 C 0.17306 0.29604 0.56651 0.0
C728 C 0.12929 0.30094 0.52069 0.0
C729 C 0.10891 0.31339 0.44764 0.0
C730 C 0.12184 0.302 0.47109 0.0
C731 C 0.18398 0.30872 0.53974 0.0
C732 C 0.15929 0.2996 0.5167 0.0
H733 H 0.09744 0.30279 0.37811 0.0
H734 H 0.10472 0.27492 0.41882 0.0
H735 H 0.08922 0.30579 0.5017 0.0
H736 H 0.26427 0.37214 0.55504 0.0
H737 H 0.22694 0.34553 0.51558 0.0
C738 C 0.8887 0.20476 0.92312 0.0
C739 C 0.8893 0.236 0.92151 0.0
C740 C 0.88321 0.18512 0.89933 0.0
C741 C 0.83545 0.14152 0.85278 0.0
H742 H 0.86662 0.17807 0.77955 0.0
C743 C 0.74896 0.11325 0.76008 0.0
C744 C 0.76047 0.11218 0.73353 0.0
C745 C 0.76961 0.11827 0.78298 0.0
C746 C 0.85811 0.16701 0.79981 0.0
H747 H 0.8876 0.27266 0.89393 0.0
H748 H 0.87904 0.23907 0.85241 0.0
H749 H 0.89971 0.20985 0.81983 0.0
H750 H 0.8018 0.11403 0.70991 0.0
H751 H 0.83853 0.1237 0.75012 0.0
H752 H 0.79252 0.09996 0.83284 0.0
C753 C 0.88266 0.22951 0.87185 0.0
C754 C 0.87695 0.18534 0.82286 0.0
C755 C 0.88747 0.24874 0.89561 0.0
C756 C 0.79216 0.11415 0.73029 0.0
C757 C 0.81324 0.11995 0.75322 0.0
C758 C 0.81647 0.12335 0.82974 0.0
C759 C 0.87892 0.19684 0.8736 0.0
C760 C 0.86496 0.17353 0.84958 0.0
C761 C 0.80252 0.12309 0.77969 0.0
C762 C 0.8268 0.13672 0.80312 0.0
H763 H 0.88958 0.1942 0.94295 0.0
H764 H 0.88043 0.16003 0.90123 0.0
H765 H 0.82542 0.13186 0.87311 0.0
H766 H 0.72475 0.11216 0.76298 0.0
H767 H 0.76081 0.12106 0.80303 0.0
C768 C 0.63159 0.8864 0.22423 0.0
C769 C 0.64597 0.88425 0.2492 0.0
C770 C 0.64145 0.87832 0.19953 0.0
C771 C 0.69788 0.85472 0.16347 0.0
H772 H 0.612 0.7829 0.1342 0.0
C773 C 0.67163 0.78953 0.05519 0.0
C774 C 0.64537 0.75535 0.05421 0.0
C775 C 0.68157 0.80673 0.08051 0.0
C776 C 0.63628 0.80257 0.14225 0.0
H777 H 0.68392 0.87498 0.26805 0.0
H778 H 0.70089 0.86011 0.22456 0.0
H779 H 0.61203 0.81555 0.17366 0.0
H780 H 0.61168 0.71118 0.07848 0.0
H781 H 0.62995 0.74062 0.12267 0.0
H782 H 0.7219 0.84145 0.13135 0.0
C783 C 0.68248 0.86869 0.22408 0.0
C784 C 0.63625 0.82166 0.16461 0.0
C785 C 0.67286 0.87727 0.24891 0.0
C786 C 0.63206 0.73753 0.07885 0.0
C787 C 0.64235 0.75445 0.10406 0.0
C788 C 0.6979 0.83568 0.14061 0.0
C789 C 0.66538 0.86725 0.19947 0.0
C790 C 0.66691 0.84808 0.17535 0.0
C791 C 0.66545 0.78972 0.10497 0.0
C792 C 0.66699 0.80928 0.12994 0.0
H793 H 0.61077 0.89167 0.22406 0.0
H794 H 0.62823 0.87785 0.18074 0.0
H795 H 0.72184 0.87487 0.17156 0.0
H796 H 0.6818 0.80387 0.03632 0.0
H797 H 0.69932 0.83392 0.08061 0.0
C798 C 0.88321 0.64189 0.41464 0.0
C799 C 0.88381 0.65426 0.38804 0.0
C800 C 0.87841 0.6576 0.43753 0.0
C801 C 0.82922 0.69705 0.45366 0.0
H802 H 0.86175 0.69653 0.52758 0.0
C803 C 0.78641 0.68337 0.57594 0.0
C804 C 0.75535 0.65276 0.57288 0.0
C805 C 0.80707 0.69891 0.55295 0.0
C806 C 0.85283 0.69777 0.5071 0.0
H807 H 0.88198 0.69386 0.36439 0.0
H808 H 0.87284 0.72115 0.40459 0.0
H809 H 0.89512 0.69736 0.48792 0.0
H810 H 0.72013 0.61588 0.54358 0.0
H811 H 0.75548 0.64333 0.50347 0.0
H812 H 0.78568 0.69487 0.47285 0.0
C813 C 0.87656 0.69956 0.40772 0.0
C814 C 0.87184 0.69799 0.4844 0.0
C815 C 0.88204 0.68414 0.38478 0.0
C816 C 0.74388 0.63961 0.54637 0.0
C817 C 0.76412 0.65544 0.52342 0.0
C818 C 0.81009 0.69658 0.47637 0.0
C819 C 0.87346 0.68565 0.4342 0.0
C820 C 0.85936 0.69588 0.45749 0.0
C821 C 0.79658 0.68438 0.52659 0.0
C822 C 0.82089 0.69519 0.50328 0.0
H823 H 0.88429 0.61874 0.4176 0.0
H824 H 0.87572 0.64597 0.45757 0.0
H825 H 0.81881 0.69522 0.4332 0.0
H826 H 0.79599 0.69371 0.59627 0.0
H827 H 0.83198 0.72118 0.55596 0.0
C828 C 0.09816 0.74629 0.88859 0.0
C829 C 0.09885 0.75855 0.91524 0.0
C830 C 0.10296 0.76682 0.86568 0.0
C831 C 0.15404 0.85555 0.84911 0.0
H832 H 0.11967 0.82264 0.77552 0.0
C833 C 0.19431 0.88469 0.72621 0.0
C834 C 0.2255 0.88538 0.72871 0.0
C835 C 0.17409 0.87939 0.74954 0.0
C836 C 0.12914 0.83276 0.79591 0.0
H837 H 0.10313 0.80097 0.93903 0.0
H838 H 0.11212 0.83732 0.89883 0.0
H839 H 0.08679 0.79045 0.81552 0.0
H840 H 0.26138 0.88389 0.75736 0.0
H841 H 0.22681 0.87566 0.79802 0.0
H842 H 0.1975 0.89659 0.82948 0.0
C843 C 0.10735 0.81163 0.89564 0.0
C844 C 0.1104 0.81416 0.81882 0.0
C845 C 0.10187 0.79074 0.91859 0.0
C846 C 0.23752 0.88371 0.75499 0.0
C847 C 0.21772 0.87909 0.77827 0.0
C848 C 0.17286 0.87404 0.82621 0.0
C849 C 0.10926 0.80031 0.86905 0.0
C850 C 0.12347 0.82448 0.8456 0.0
C851 C 0.18515 0.87538 0.77568 0.0
C852 C 0.16138 0.86192 0.79938 0.0
H853 H 0.09629 0.7217 0.88558 0.0
H854 H 0.10472 0.75745 0.84556 0.0
H855 H 0.16492 0.86411 0.86946 0.0
H856 H 0.1843 0.88541 0.70607 0.0
H857 H 0.1491 0.87664 0.74696 0.0
C858 C 0.31399 0.11605 0.25132 0.0
C859 C 0.33848 0.10573 0.25153 0.0
C860 C 0.30435 0.12445 0.22636 0.0
C861 C 0.34961 0.1646 0.1645 0.0
H862 H 0.26576 0.15615 0.13583 0.0
C863 C 0.35894 0.25696 0.08417 0.0
C864 C 0.34546 0.24106 0.05879 0.0
C865 C 0.34773 0.23847 0.1086 0.0
C866 C 0.28925 0.15864 0.14376 0.0
H867 H 0.36926 0.09243 0.22622 0.0
H868 H 0.35149 0.10568 0.18267 0.0
H869 H 0.26394 0.12127 0.17568 0.0
H870 H 0.30778 0.19444 0.03893 0.0
H871 H 0.28826 0.16175 0.08193 0.0
H872 H 0.37516 0.20203 0.13335 0.0
C873 C 0.34017 0.10795 0.20162 0.0
C874 C 0.28822 0.13877 0.16641 0.0
C875 C 0.35012 0.10006 0.22647 0.0
C876 C 0.31802 0.2074 0.05837 0.0
C877 C 0.30699 0.18867 0.08293 0.0
C878 C 0.35066 0.18459 0.14239 0.0
C879 C 0.31904 0.1224 0.20147 0.0
C880 C 0.31849 0.14149 0.17682 0.0
C881 C 0.32327 0.2036 0.10799 0.0
C882 C 0.32064 0.18207 0.13187 0.0
H883 H 0.30526 0.12126 0.27051 0.0
H884 H 0.28817 0.1357 0.22684 0.0
H885 H 0.37343 0.1678 0.17235 0.0
H886 H 0.38034 0.28277 0.0849 0.0
H887 H 0.36046 0.2506 0.12771 0.0
loop_
_geom_bond_atom_site_label_1
_geom_bond_atom_site_label_2
_geom_bond_distance
_geom_bond_site_symmetry_2
_ccdc_geom_bond_type
Mg0 O1 2.028 . S
Mg0 O7 1.986 . S
Mg0 O9 2.114 . S
Mg0 O10 2.251 . S
Mg0 O13 2.010 . S
O1 Mg0 2.028 . S
O1 C4 1.250 . S
O2 Mg3 2.028 . S
O2 C4 1.248 . S
Mg3 O2 2.028 . S
Mg3 O8 2.032 . S
Mg3 O10 2.079 . S
C4 O1 1.250 . S
C4 O2 1.248 . S
C5 O6 1.264 . S
C5 O13 1.249 . S
O6 C5 1.264 . S
O7 Mg0 1.986 . S
O7 C11 1.246 . S
O8 Mg3 2.032 . S
O8 C11 1.259 . S
O9 Mg0 2.114 . S
O9 C12 1.252 . S
O10 Mg0 2.251 . S
O10 Mg3 2.079 . S
O10 C12 1.273 . S
C11 O7 1.246 . S
C11 O8 1.259 . S
C12 O9 1.252 . S
C12 O10 1.273 . S
O13 Mg0 2.010 . S
O13 C5 1.249 . S
Mg14 O15 2.028 . S
Mg14 O21 1.986 . S
Mg14 O23 2.114 . S
Mg14 O24 2.251 . S
Mg14 O27 2.010 . S
O15 Mg14 2.028 . S
O15 C18 1.250 . S
O16 Mg17 2.028 . S
O16 C18 1.248 . S
Mg17 O16 2.028 . S
Mg17 O22 2.032 . S
Mg17 O24 2.079 . S
C18 O15 1.250 . S
C18 O16 1.248 . S
C19 O20 1.264 . S
C19 O27 1.249 . S
O20 C19 1.264 . S
O21 Mg14 1.986 . S
O21 C25 1.246 . S
O22 Mg17 2.032 . S
O22 C25 1.259 . S
O23 Mg14 2.114 . S
O23 C26 1.252 . S
O24 Mg14 2.251 . S
O24 Mg17 2.079 . S
O24 C26 1.273 . S
C25 O21 1.246 . S
C25 O22 1.259 . S
C26 O23 1.252 . S
C26 O24 1.273 . S
O27 Mg14 2.010 . S
O27 C19 1.249 . S
Mg28 O29 2.028 1_554 S
Mg28 O35 1.986 1_554 S
Mg28 O37 2.114 . S
Mg28 O38 2.251 . S
Mg28 O41 2.010 1_554 S
O29 Mg28 2.028 1_556 S
O29 C32 1.250 . S
O30 Mg31 2.028 . S
O30 C32 1.248 1_554 S
Mg31 O30 2.028 . S
Mg31 O36 2.032 . S
Mg31 O38 2.079 . S
C32 O29 1.250 . S
C32 O30 1.248 1_556 S
C33 O34 1.264 . S
C33 O41 1.249 . S
O34 C33 1.264 . S
O35 Mg28 1.986 1_556 S
O35 C39 1.246 . S
O36 Mg31 2.032 . S
O36 C39 1.259 1_554 S
O37 Mg28 2.114 . S
O37 C40 1.252 . S
O38 Mg28 2.251 . S
O38 Mg31 2.079 . S
O38 C40 1.273 . S
C39 O35 1.246 . S
C39 O36 1.259 1_556 S
C40 O37 1.252 . S
C40 O38 1.273 . S
O41 Mg28 2.010 1_556 S
O41 C33 1.249 . S
Mg42 O43 2.028 . S
Mg42 O49 1.986 . S
Mg42 O51 2.114 . S
Mg42 O52 2.251 . S
Mg42 O55 2.010 . S
O43 Mg42 2.028 . S
O43 C46 1.250 . S
O44 Mg45 2.028 . S
O44 C46 1.248 . S
Mg45 O44 2.028 . S
Mg45 O50 2.032 . S
Mg45 O52 2.079 . S
C46 O43 1.250 . S
C46 O44 1.248 . S
C47 O48 1.264 . S
C47 O55 1.249 . S
O48 C47 1.264 . S
O49 Mg42 1.986 . S
O49 C53 1.246 . S
O50 Mg45 2.032 . S
O50 C53 1.259 . S
O51 Mg42 2.114 . S
O51 C54 1.252 . S
O52 Mg42 2.251 . S
O52 Mg45 2.079 . S
O52 C54 1.273 . S
C53 O49 1.246 . S
C53 O50 1.259 . S
C54 O51 1.252 . S
C54 O52 1.273 . S
O55 Mg42 2.010 . S
O55 C47 1.249 . S
Mg56 O57 2.028 . S
Mg56 O63 1.986 . S
Mg56 O65 2.114 . S
Mg56 O66 2.251 . S
Mg56 O69 2.010 . S
O57 Mg56 2.028 . S
O57 C60 1.250 . S
O58 Mg59 2.028 . S
O58 C60 1.248 . S
Mg59 O58 2.028 . S
Mg59 O64 2.032 . S
Mg59 O66 2.079 . S
C60 O57 1.250 . S
C60 O58 1.248 . S
C61 O62 1.264 . S
C61 O69 1.249 . S
O62 C61 1.264 . S
O63 Mg56 1.986 . S
O63 C67 1.246 . S
O64 Mg59 2.032 . S
O64 C67 1.259 . S
O65 Mg56 2.114 . S
O65 C68 1.252 . S
O66 Mg56 2.251 . S
O66 Mg59 2.079 . S
O66 C68 1.273 . S
C67 O63 1.246 . S
C67 O64 1.259 . S
C68 O65 1.252 . S
C68 O66 1.273 . S
O69 Mg56 2.010 . S
O69 C61 1.249 . S
Mg70 O71 2.028 1_554 S
Mg70 O77 1.986 1_554 S
Mg70 O79 2.114 . S
Mg70 O80 2.251 . S
Mg70 O83 2.010 1_554 S
O71 Mg70 2.028 1_556 S
O71 C74 1.250 . S
O72 Mg73 2.028 . S
O72 C74 1.248 1_554 S
Mg73 O72 2.028 . S
Mg73 O78 2.032 . S
Mg73 O80 2.079 . S
C74 O71 1.250 . S
C74 O72 1.248 1_556 S
C75 O76 1.264 . S
C75 O83 1.249 . S
O76 C75 1.264 . S
O77 Mg70 1.986 1_556 S
O77 C81 1.246 . S
O78 Mg73 2.032 . S
O78 C81 1.259 1_554 S
O79 Mg70 2.114 . S
O79 C82 1.252 . S
O80 Mg70 2.251 . S
O80 Mg73 2.079 . S
O80 C82 1.273 . S
C81 O77 1.246 . S
C81 O78 1.259 1_556 S
C82 O79 1.252 . S
C82 O80 1.273 . S
O83 Mg70 2.010 1_556 S
O83 C75 1.249 . S
Mg84 O85 2.028 . S
Mg84 O91 1.986 . S
Mg84 O93 2.114 . S
Mg84 O94 2.251 . S
Mg84 O97 2.010 . S
O85 Mg84 2.028 . S
O85 C88 1.250 . S
O86 Mg87 2.028 . S
O86 C88 1.248 . S
Mg87 O86 2.028 . S
Mg87 O92 2.032 . S
Mg87 O94 2.079 . S
C88 O85 1.250 . S
C88 O86 1.248 . S
C89 O90 1.264 . S
C89 O97 1.249 . S
O90 C89 1.264 . S
O91 Mg84 1.986 . S
O91 C95 1.246 . S
O92 Mg87 2.032 . S
O92 C95 1.259 . S
O93 Mg84 2.114 . S
O93 C96 1.252 . S
O94 Mg84 2.251 . S
O94 Mg87 2.079 . S
O94 C96 1.273 . S
C95 O91 1.246 . S
C95 O92 1.259 . S
C96 O93 1.252 . S
C96 O94 1.273 . S
O97 Mg84 2.010 . S
O97 C89 1.249 . S
Mg98 O99 2.028 . S
Mg98 O105 1.986 . S
Mg98 O107 2.114 . S
Mg98 O108 2.251 . S
Mg98 O111 2.010 . S
O99 Mg98 2.028 . S
O99 C102 1.250 . S
O100 Mg101 2.028 . S
O100 C102 1.248 . S
Mg101 O100 2.028 . S
Mg101 O106 2.032 . S
Mg101 O108 2.079 . S
C102 O99 1.250 . S
C102 O100 1.248 . S
C103 O104 1.264 . S
C103 O111 1.249 . S
O104 C103 1.264 . S
O105 Mg98 1.986 . S
O105 C109 1.246 . S
O106 Mg101 2.032 . S
O106 C109 1.259 . S
O107 Mg98 2.114 . S
O107 C110 1.252 . S
O108 Mg98 2.251 . S
O108 Mg101 2.079 . S
O108 C110 1.273 . S
C109 O105 1.246 . S
C109 O106 1.259 . S
C110 O107 1.252 . S
C110 O108 1.273 . S
O111 Mg98 2.010 . S
O111 C103 1.249 . S
Mg112 O113 2.028 1_556 S
Mg112 O119 1.986 1_556 S
Mg112 O121 2.114 . S
Mg112 O122 2.251 . S
Mg112 O125 2.010 1_556 S
O113 Mg112 2.028 1_554 S
O113 C116 1.248 1_554 S
O114 Mg115 2.028 . S
O114 C116 1.253 . S
Mg115 O114 2.028 . S
Mg115 O120 2.032 . S
Mg115 O122 2.079 . S
C116 O113 1.248 1_556 S
C116 O114 1.253 . S
C117 O118 1.264 . S
C117 O125 1.249 . S
O118 C117 1.264 . S
O119 Mg112 1.986 1_554 S
O119 C123 1.246 . S
O120 Mg115 2.032 . S
O120 C123 1.259 1_556 S
O121 Mg112 2.114 . S
O121 C124 1.252 . S
O122 Mg112 2.251 . S
O122 Mg115 2.079 . S
O122 C124 1.273 . S
C123 O119 1.246 . S
C123 O120 1.259 1_554 S
C124 O121 1.252 . S
C124 O122 1.273 . S
O125 Mg112 2.010 1_554 S
O125 C117 1.249 . S
Mg126 O127 2.028 . S
Mg126 O133 1.986 . S
Mg126 O135 2.114 . S
Mg126 O136 2.251 . S
Mg126 O139 2.010 . S
O127 Mg126 2.028 . S
O127 C130 1.250 . S
O128 Mg129 2.028 . S
O128 C130 1.248 . S
Mg129 O128 2.028 . S
Mg129 O134 2.032 . S
Mg129 O136 2.079 . S
C130 O127 1.250 . S
C130 O128 1.248 . S
C131 O132 1.264 . S
C131 O139 1.249 . S
O132 C131 1.264 . S
O133 Mg126 1.986 . S
O133 C137 1.246 . S
O134 Mg129 2.032 . S
O134 C137 1.259 . S
O135 Mg126 2.114 . S
O135 C138 1.252 . S
O136 Mg126 2.251 . S
O136 Mg129 2.079 . S
O136 C138 1.273 . S
C137 O133 1.246 . S
C137 O134 1.259 . S
C138 O135 1.252 . S
C138 O136 1.273 . S
O139 Mg126 2.010 . S
O139 C131 1.249 . S
Mg140 O141 2.028 . S
Mg140 O147 1.986 . S
Mg140 O149 2.114 . S
Mg140 O150 2.251 . S
Mg140 O153 2.010 . S
O141 Mg140 2.028 . S
O141 C144 1.250 . S
O142 Mg143 2.028 . S
O142 C144 1.248 . S
Mg143 O142 2.028 . S
Mg143 O148 2.032 . S
Mg143 O150 2.079 . S
C144 O141 1.250 . S
C144 O142 1.248 . S
C145 O146 1.264 . S
C145 O153 1.249 . S
O146 C145 1.264 . S
O147 Mg140 1.986 . S
O147 C151 1.246 . S
O148 Mg143 2.032 . S
O148 C151 1.259 . S
O149 Mg140 2.114 . S
O149 C152 1.252 . S
O150 Mg140 2.251 . S
O150 Mg143 2.079 . S
O150 C152 1.273 . S
C151 O147 1.246 . S
C151 O148 1.259 . S
C152 O149 1.252 . S
C152 O150 1.273 . S
O153 Mg140 2.010 . S
O153 C145 1.249 . S
Mg154 O155 2.028 1_556 S
Mg154 O161 1.986 1_556 S
Mg154 O163 2.114 . S
Mg154 O164 2.251 . S
Mg154 O167 2.010 1_556 S
O155 Mg154 2.028 1_554 S
O155 C158 1.248 1_554 S
O156 Mg157 2.028 . S
O156 C158 1.253 . S
Mg157 O156 2.028 . S
Mg157 O162 2.032 . S
Mg157 O164 2.079 . S
C158 O155 1.248 1_556 S
C158 O156 1.253 . S
C159 O160 1.264 . S
C159 O167 1.249 . S
O160 C159 1.264 . S
O161 Mg154 1.986 1_554 S
O161 C165 1.246 . S
O162 Mg157 2.032 . S
O162 C165 1.259 1_556 S
O163 Mg154 2.114 . S
O163 C166 1.252 . S
O164 Mg154 2.251 . S
O164 Mg157 2.079 . S
O164 C166 1.273 . S
C165 O161 1.246 . S
C165 O162 1.259 1_554 S
C166 O163 1.252 . S
C166 O164 1.273 . S
O167 Mg154 2.010 1_554 S
O167 C159 1.249 . S
C168 C169 1.349 . S
C168 C170 1.327 . S
C168 H193 0.950 . S
C169 C168 1.349 . S
C169 C185 1.349 . S
C170 C168 1.327 . S
C170 C189 1.429 . S
C170 H194 0.950 . S
C171 C188 1.574 . S
C171 C190 1.368 . S
C171 H195 0.949 . S
H172 C176 0.949 . S
C173 C174 1.349 . S
C173 C175 1.327 . S
C173 H196 0.950 . S
C174 C173 1.349 . S
C174 C186 1.349 . S
C175 C173 1.327 . S
C175 C191 1.429 . S
C175 H197 0.950 . S
C176 H172 0.949 . S
C176 C184 1.574 . S
C176 C192 1.368 . S
H177 C185 0.950 . S
H178 C183 0.950 . S
H179 C184 0.949 . S
H180 C186 0.950 . S
H181 C187 0.950 . S
H182 C188 0.949 . S
C183 H178 0.950 . S
C183 C185 1.327 . S
C183 C189 1.429 . S
C184 C176 1.574 . S
C184 H179 0.949 . S
C184 C190 1.368 . S
C185 C169 1.349 . S
C185 H177 0.950 . S
C185 C183 1.327 . S
C186 C174 1.349 . S
C186 H180 0.950 . S
C186 C187 1.327 . S
C187 H181 0.950 . S
C187 C186 1.327 . S
C187 C191 1.429 . S
C188 C171 1.574 . S
C188 H182 0.949 . S
C188 C192 1.368 . S
C189 C170 1.429 . S
C189 C183 1.429 . S
C189 C190 1.523 . S
C190 C171 1.368 . S
C190 C184 1.368 . S
C190 C189 1.523 . S
C191 C175 1.429 . S
C191 C187 1.429 . S
C191 C192 1.523 . S
C192 C176 1.368 . S
C192 C188 1.368 . S
C192 C191 1.523 . S
H193 C168 0.950 . S
H194 C170 0.950 . S
H195 C171 0.949 . S
H196 C173 0.950 . S
H197 C175 0.950 . S
C198 C199 1.349 . S
C198 C200 1.327 . S
C198 H223 0.950 . S
C199 C198 1.349 . S
C199 C215 1.349 . S
C200 C198 1.327 . S
C200 C219 1.429 . S
C200 H224 0.950 . S
C201 C218 1.574 . S
C201 C220 1.368 . S
C201 H225 0.949 . S
H202 C206 0.949 . S
C203 C204 1.349 . S
C203 C205 1.327 . S
C203 H226 0.950 . S
C204 C203 1.349 . S
C204 C216 1.349 . S
C205 C203 1.327 . S
C205 C221 1.429 . S
C205 H227 0.950 . S
C206 H202 0.949 . S
C206 C214 1.574 . S
C206 C222 1.368 . S
H207 C215 0.950 . S
H208 C213 0.950 . S
H209 C214 0.949 . S
H210 C216 0.950 . S
H211 C217 0.950 . S
H212 C218 0.949 . S
C213 H208 0.950 . S
C213 C215 1.327 . S
C213 C219 1.429 . S
C214 C206 1.574 . S
C214 H209 0.949 . S
C214 C220 1.368 . S
C215 C199 1.349 . S
C215 H207 0.950 . S
C215 C213 1.327 . S
C216 C204 1.349 . S
C216 H210 0.950 . S
C216 C217 1.327 . S
C217 H211 0.950 . S
C217 C216 1.327 . S
C217 C221 1.429 . S
C218 C201 1.574 . S
C218 H212 0.949 . S
C218 C222 1.368 . S
C219 C200 1.429 . S
C219 C213 1.429 . S
C219 C220 1.523 . S
C220 C201 1.368 . S
C220 C214 1.368 . S
C220 C219 1.523 . S
C221 C205 1.429 . S
C221 C217 1.429 . S
C221 C222 1.523 . S
C222 C206 1.368 . S
C222 C218 1.368 . S
C222 C221 1.523 . S
H223 C198 0.950 . S
H224 C200 0.950 . S
H225 C201 0.949 . S
H226 C203 0.950 . S
H227 C205 0.950 . S
C228 C229 1.349 1_554 S
C228 C230 1.327 . S
C228 H253 0.950 . S
C229 C228 1.349 1_556 S
C229 C245 1.349 . S
C230 C228 1.327 . S
C230 C249 1.429 1_554 S
C230 H254 0.950 . S
C231 C248 1.574 . S
C231 C250 1.368 . S
C231 H255 0.949 . S
H232 C236 0.949 . S
C233 C234 1.349 1_556 S
C233 C235 1.327 . S
C233 H256 0.950 . S
C234 C233 1.349 1_554 S
C234 C246 1.349 . S
C235 C233 1.327 . S
C235 C251 1.429 1_556 S
C235 H257 0.950 . S
C236 H232 0.949 . S
C236 C244 1.574 . S
C236 C252 1.368 . S
H237 C245 0.950 . S
H238 C243 0.950 . S
H239 C244 0.949 . S
H240 C246 0.950 . S
H241 C247 0.950 . S
H242 C248 0.949 . S
C243 H238 0.950 . S
C243 C245 1.327 . S
C243 C249 1.429 . S
C244 C236 1.574 . S
C244 H239 0.949 . S
C244 C250 1.368 1_554 S
C245 C229 1.349 . S
C245 H237 0.950 . S
C245 C243 1.327 . S
C246 C234 1.349 . S
C246 H240 0.950 . S
C246 C247 1.327 . S
C247 H241 0.950 . S
C247 C246 1.327 . S
C247 C251 1.429 . S
C248 C231 1.574 . S
C248 H242 0.949 . S
C248 C252 1.368 1_556 S
C249 C230 1.429 1_556 S
C249 C243 1.429 . S
C249 C250 1.523 . S
C250 C231 1.368 . S
C250 C244 1.368 1_556 S
C250 C249 1.523 . S
C251 C235 1.429 1_554 S
C251 C247 1.429 . S
C251 C252 1.523 . S
C252 C236 1.368 . S
C252 C248 1.368 1_554 S
C252 C251 1.523 . S
H253 C228 0.950 . S
H254 C230 0.950 . S
H255 C231 0.949 . S
H256 C233 0.950 . S
H257 C235 0.950 . S
C258 C259 1.349 . S
C258 C260 1.327 . S
C258 H283 0.950 . S
C259 C258 1.349 . S
C259 C275 1.349 . S
C260 C258 1.327 . S
C260 C279 1.429 . S
C260 H284 0.950 . S
C261 C278 1.574 . S
C261 C280 1.368 . S
C261 H285 0.949 . S
H262 C266 0.949 . S
C263 C264 1.349 . S
C263 C265 1.327 . S
C263 H286 0.950 . S
C264 C263 1.349 . S
C264 C276 1.349 . S
C265 C263 1.327 . S
C265 C281 1.429 . S
C265 H287 0.950 . S
C266 H262 0.949 . S
C266 C274 1.574 . S
C266 C282 1.368 . S
H267 C275 0.950 . S
H268 C273 0.950 . S
H269 C274 0.949 . S
H270 C276 0.950 . S
H271 C277 0.950 . S
H272 C278 0.949 . S
C273 H268 0.950 . S
C273 C275 1.327 . S
C273 C279 1.429 . S
C274 C266 1.574 . S
C274 H269 0.949 . S
C274 C280 1.368 . S
C275 C259 1.349 . S
C275 H267 0.950 . S
C275 C273 1.327 . S
C276 C264 1.349 . S
C276 H270 0.950 . S
C276 C277 1.327 . S
C277 H271 0.950 . S
C277 C276 1.327 . S
C277 C281 1.429 . S
C278 C261 1.574 . S
C278 H272 0.949 . S
C278 C282 1.368 . S
C279 C260 1.429 . S
C279 C273 1.429 . S
C279 C280 1.523 . S
C280 C261 1.368 . S
C280 C274 1.368 . S
C280 C279 1.523 . S
C281 C265 1.429 . S
C281 C277 1.429 . S
C281 C282 1.523 . S
C282 C266 1.368 . S
C282 C278 1.368 . S
C282 C281 1.523 . S
H283 C258 0.950 . S
H284 C260 0.950 . S
H285 C261 0.949 . S
H286 C263 0.950 . S
H287 C265 0.950 . S
C288 C289 1.349 . S
C288 C290 1.327 . S
C288 H313 0.950 . S
C289 C288 1.349 . S
C289 C305 1.349 . S
C290 C288 1.327 . S
C290 C309 1.429 . S
C290 H314 0.950 . S
C291 C308 1.574 . S
C291 C310 1.368 . S
C291 H315 0.949 . S
H292 C296 0.949 . S
C293 C294 1.349 . S
C293 C295 1.327 . S
C293 H316 0.950 . S
C294 C293 1.349 . S
C294 C306 1.349 . S
C295 C293 1.327 . S
C295 C311 1.429 . S
C295 H317 0.950 . S
C296 H292 0.949 . S
C296 C304 1.574 . S
C296 C312 1.368 . S
H297 C305 0.950 . S
H298 C303 0.950 . S
H299 C304 0.949 . S
H300 C306 0.950 . S
H301 C307 0.950 . S
H302 C308 0.949 . S
C303 H298 0.950 . S
C303 C305 1.327 . S
C303 C309 1.429 . S
C304 C296 1.574 . S
C304 H299 0.949 . S
C304 C310 1.368 . S
C305 C289 1.349 . S
C305 H297 0.950 . S
C305 C303 1.327 . S
C306 C294 1.349 . S
C306 H300 0.950 . S
C306 C307 1.327 . S
C307 H301 0.950 . S
C307 C306 1.327 . S
C307 C311 1.429 . S
C308 C291 1.574 . S
C308 H302 0.949 . S
C308 C312 1.368 . S
C309 C290 1.429 . S
C309 C303 1.429 . S
C309 C310 1.523 . S
C310 C291 1.368 . S
C310 C304 1.368 . S
C310 C309 1.523 . S
C311 C295 1.429 . S
C311 C307 1.429 . S
C311 C312 1.523 . S
C312 C296 1.368 . S
C312 C308 1.368 . S
C312 C311 1.523 . S
H313 C288 0.950 . S
H314 C290 0.950 . S
H315 C291 0.949 . S
H316 C293 0.950 . S
H317 C295 0.950 . S
C318 C319 1.349 . S
C318 C320 1.327 . S
C318 H343 0.950 . S
C319 C318 1.349 . S
C319 C335 1.349 1_554 S
C320 C318 1.327 . S
C320 C339 1.429 . S
C320 H344 0.950 . S
C321 C338 1.574 . S
C321 C340 1.368 1_556 S
C321 H345 0.949 . S
H322 C326 0.949 . S
C323 C324 1.349 . S
C323 C325 1.327 . S
C323 H346 0.950 . S
C324 C323 1.349 . S
C324 C336 1.349 1_556 S
C325 C323 1.327 . S
C325 C341 1.429 . S
C325 H347 0.950 . S
C326 H322 0.949 . S
C326 C334 1.574 . S
C326 C342 1.368 1_554 S
H327 C335 0.950 . S
H328 C333 0.950 . S
H329 C334 0.949 . S
H330 C336 0.950 . S
H331 C337 0.950 . S
H332 C338 0.949 . S
C333 H328 0.950 . S
C333 C335 1.327 . S
C333 C339 1.429 1_556 S
C334 C326 1.574 . S
C334 H329 0.949 . S
C334 C340 1.368 . S
C335 C319 1.349 1_556 S
C335 H327 0.950 . S
C335 C333 1.327 . S
C336 C324 1.349 1_554 S
C336 H330 0.950 . S
C336 C337 1.327 . S
C337 H331 0.950 . S
C337 C336 1.327 . S
C337 C341 1.429 1_554 S
C338 C321 1.574 . S
C338 H332 0.949 . S
C338 C342 1.368 . S
C339 C320 1.429 . S
C339 C333 1.429 1_554 S
C339 C340 1.523 . S
C340 C321 1.368 1_554 S
C340 C334 1.368 . S
C340 C339 1.523 . S
C341 C325 1.429 . S
C341 C337 1.429 1_556 S
C341 C342 1.523 . S
C342 C326 1.368 1_556 S
C342 C338 1.368 . S
C342 C341 1.523 . S
H343 C318 0.950 . S
H344 C320 0.950 . S
H345 C321 0.949 . S
H346 C323 0.950 . S
H347 C325 0.950 . S
C348 C349 1.349 . S
C348 C350 1.327 . S
C348 H373 0.950 . S
C349 C348 1.349 . S
C349 C365 1.349 . S
C350 C348 1.327 . S
C350 C369 1.429 . S
C350 H374 0.950 . S
C351 C368 1.574 . S
C351 C370 1.368 . S
C351 H375 0.949 . S
H352 C356 0.949 . S
C353 C354 1.349 . S
C353 C355 1.327 . S
C353 H376 0.950 . S
C354 C353 1.349 . S
C354 C366 1.349 . S
C355 C353 1.327 . S
C355 C371 1.429 . S
C355 H377 0.950 . S
C356 H352 0.949 . S
C356 C364 1.574 . S
C356 C372 1.368 . S
H357 C365 0.950 . S
H358 C363 0.950 . S
H359 C364 0.949 . S
H360 C366 0.950 . S
H361 C367 0.950 . S
H362 C368 0.949 . S
C363 H358 0.950 . S
C363 C365 1.327 . S
C363 C369 1.429 . S
C364 C356 1.574 . S
C364 H359 0.949 . S
C364 C370 1.368 . S
C365 C349 1.349 . S
C365 H357 0.950 . S
C365 C363 1.327 . S
C366 C354 1.349 . S
C366 H360 0.950 . S
C366 C367 1.327 . S
C367 H361 0.950 . S
C367 C366 1.327 . S
C367 C371 1.429 . S
C368 C351 1.574 . S
C368 H362 0.949 . S
C368 C372 1.368 . S
C369 C350 1.429 . S
C369 C363 1.429 . S
C369 C370 1.523 . S
C370 C351 1.368 . S
C370 C364 1.368 . S
C370 C369 1.523 . S
C371 C355 1.429 . S
C371 C367 1.429 . S
C371 C372 1.523 . S
C372 C356 1.368 . S
C372 C368 1.368 . S
C372 C371 1.523 . S
H373 C348 0.950 . S
H374 C350 0.950 . S
H375 C351 0.949 . S
H376 C353 0.950 . S
H377 C355 0.950 . S
C378 C379 1.349 . S
C378 C380 1.327 . S
C378 H403 0.950 . S
C379 C378 1.349 . S
C379 C395 1.349 . S
C380 C378 1.327 . S
C380 C399 1.429 . S
C380 H404 0.950 . S
C381 C398 1.574 1_655 S
C381 C400 1.368 . S
C381 H405 0.949 . S
H382 C386 0.949 . S
C383 C384 1.349 . S
C383 C385 1.327 . S
C383 H406 0.950 . S
C384 C383 1.349 . S
C384 C396 1.349 . S
C385 C383 1.327 . S
C385 C401 1.429 . S
C385 H407 0.950 . S
C386 H382 0.949 . S
C386 C394 1.574 1_455 S
C386 C402 1.368 . S
H387 C395 0.950 . S
H388 C393 0.950 . S
H389 C394 0.949 . S
H390 C396 0.950 . S
H391 C397 0.950 . S
H392 C398 0.949 . S
C393 H388 0.950 . S
C393 C395 1.327 . S
C393 C399 1.429 . S
C394 C386 1.574 1_655 S
C394 H389 0.949 . S
C394 C400 1.368 . S
C395 C379 1.349 . S
C395 H387 0.950 . S
C395 C393 1.327 . S
C396 C384 1.349 . S
C396 H390 0.950 . S
C396 C397 1.327 . S
C397 H391 0.950 . S
C397 C396 1.327 . S
C397 C401 1.429 . S
C398 C381 1.574 1_455 S
C398 H392 0.949 . S
C398 C402 1.368 . S
C399 C380 1.429 . S
C399 C393 1.429 . S
C399 C400 1.523 . S
C400 C381 1.368 . S
C400 C394 1.368 . S
C400 C399 1.523 . S
C401 C385 1.429 . S
C401 C397 1.429 . S
C401 C402 1.523 . S
C402 C386 1.368 . S
C402 C398 1.368 . S
C402 C401 1.523 . S
H403 C378 0.950 . S
H404 C380 0.950 . S
H405 C381 0.949 . S
H406 C383 0.950 . S
H407 C385 0.950 . S
C408 C409 1.349 . S
C408 C410 1.327 . S
C408 H433 0.950 . S
C409 C408 1.349 . S
C409 C425 1.349 1_554 S
C410 C408 1.327 . S
C410 C429 1.429 . S
C410 H434 0.950 . S
C411 C428 1.574 1_545 S
C411 C430 1.368 1_556 S
C411 H435 0.949 . S
H412 C416 0.949 . S
C413 C414 1.349 . S
C413 C415 1.327 . S
C413 H436 0.950 . S
C414 C413 1.349 . S
C414 C426 1.349 1_556 S
C415 C413 1.327 . S
C415 C431 1.429 . S
C415 H437 0.950 . S
C416 H412 0.949 . S
C416 C424 1.574 1_565 S
C416 C432 1.368 1_554 S
H417 C425 0.950 . S
H418 C423 0.950 . S
H419 C424 0.949 . S
H420 C426 0.950 . S
H421 C427 0.950 . S
H422 C428 0.949 . S
C423 H418 0.950 . S
C423 C425 1.327 . S
C423 C429 1.429 1_556 S
C424 C416 1.574 1_545 S
C424 H419 0.949 . S
C424 C430 1.368 . S
C425 C409 1.349 1_556 S
C425 H417 0.950 . S
C425 C423 1.327 . S
C426 C414 1.349 1_554 S
C426 H420 0.950 . S
C426 C427 1.327 . S
C427 H421 0.950 . S
C427 C426 1.327 . S
C427 C431 1.429 1_554 S
C428 C411 1.574 1_565 S
C428 H422 0.949 . S
C428 C432 1.368 . S
C429 C410 1.429 . S
C429 C423 1.429 1_554 S
C429 C430 1.523 . S
C430 C411 1.368 1_554 S
C430 C424 1.368 . S
C430 C429 1.523 . S
C431 C415 1.429 . S
C431 C427 1.429 1_556 S
C431 C432 1.523 . S
C432 C416 1.368 1_556 S
C432 C428 1.368 . S
C432 C431 1.523 . S
H433 C408 0.950 . S
H434 C410 0.950 . S
H435 C411 0.949 . S
H436 C413 0.950 . S
H437 C415 0.950 . S
C438 C439 1.349 . S
C438 C440 1.327 . S
C438 H463 0.950 . S
C439 C438 1.349 . S
C439 C455 1.349 . S
C440 C438 1.327 . S
C440 C459 1.429 . S
C440 H464 0.950 . S
C441 C458 1.574 . S
C441 C460 1.368 . S
C441 H465 0.949 . S
H442 C446 0.949 . S
C443 C444 1.349 . S
C443 C445 1.327 . S
C443 H466 0.950 . S
C444 C443 1.349 . S
C444 C456 1.349 . S
C445 C443 1.327 . S
C445 C461 1.429 . S
C445 H467 0.950 . S
C446 H442 0.949 . S
C446 C454 1.574 . S
C446 C462 1.368 . S
H447 C455 0.950 . S
H448 C453 0.950 . S
H449 C454 0.949 . S
H450 C456 0.950 . S
H451 C457 0.950 . S
H452 C458 0.949 . S
C453 H448 0.950 . S
C453 C455 1.327 . S
C453 C459 1.429 . S
C454 C446 1.574 . S
C454 H449 0.949 . S
C454 C460 1.368 . S
C455 C439 1.349 . S
C455 H447 0.950 . S
C455 C453 1.327 . S
C456 C444 1.349 . S
C456 H450 0.950 . S
C456 C457 1.327 . S
C457 H451 0.950 . S
C457 C456 1.327 . S
C457 C461 1.429 . S
C458 C441 1.574 . S
C458 H452 0.949 . S
C458 C462 1.368 . S
C459 C440 1.429 . S
C459 C453 1.429 . S
C459 C460 1.523 . S
C460 C441 1.368 . S
C460 C454 1.368 . S
C460 C459 1.523 . S
C461 C445 1.429 . S
C461 C457 1.429 . S
C461 C462 1.523 . S
C462 C446 1.368 . S
C462 C458 1.368 . S
C462 C461 1.523 . S
H463 C438 0.950 . S
H464 C440 0.950 . S
H465 C441 0.949 . S
H466 C443 0.950 . S
H467 C445 0.950 . S
C468 C469 1.349 . S
C468 C470 1.327 . S
C468 H493 0.950 . S
C469 C468 1.349 . S
C469 C485 1.349 . S
C470 C468 1.327 . S
C470 C489 1.429 . S
C470 H494 0.950 . S
C471 C488 1.574 1_455 S
C471 C490 1.368 . S
C471 H495 0.949 . S
H472 C476 0.949 . S
C473 C474 1.349 . S
C473 C475 1.327 . S
C473 H496 0.950 . S
C474 C473 1.349 . S
C474 C486 1.349 . S
C475 C473 1.327 . S
C475 C491 1.429 . S
C475 H497 0.950 . S
C476 H472 0.949 . S
C476 C484 1.574 1_655 S
C476 C492 1.368 . S
H477 C485 0.950 . S
H478 C483 0.950 . S
H479 C484 0.949 . S
H480 C486 0.950 . S
H481 C487 0.950 . S
H482 C488 0.949 . S
C483 H478 0.950 . S
C483 C485 1.327 . S
C483 C489 1.429 . S
C484 C476 1.574 1_455 S
C484 H479 0.949 . S
C484 C490 1.368 . S
C485 C469 1.349 . S
C485 H477 0.950 . S
C485 C483 1.327 . S
C486 C474 1.349 . S
C486 H480 0.950 . S
C486 C487 1.327 . S
C487 H481 0.950 . S
C487 C486 1.327 . S
C487 C491 1.429 . S
C488 C471 1.574 1_655 S
C488 H482 0.949 . S
C488 C492 1.368 . S
C489 C470 1.429 . S
C489 C483 1.429 . S
C489 C490 1.523 . S
C490 C471 1.368 . S
C490 C484 1.368 . S
C490 C489 1.523 . S
C491 C475 1.429 . S
C491 C487 1.429 . S
C491 C492 1.523 . S
C492 C476 1.368 . S
C492 C488 1.368 . S
C492 C491 1.523 . S
H493 C468 0.950 . S
H494 C470 0.950 . S
H495 C471 0.949 . S
H496 C473 0.950 . S
H497 C475 0.950 . S
C498 C499 1.349 1_554 S
C498 C500 1.327 . S
C498 H523 0.950 . S
C499 C498 1.349 1_556 S
C499 C515 1.349 . S
C500 C498 1.327 . S
C500 C519 1.429 1_554 S
C500 H524 0.950 . S
C501 C518 1.574 1_545 S
C501 C520 1.368 . S
C501 H525 0.949 . S
H502 C506 0.949 . S
C503 C504 1.349 1_556 S
C503 C505 1.327 . S
C503 H526 0.950 . S
C504 C503 1.349 1_554 S
C504 C516 1.349 . S
C505 C503 1.327 . S
C505 C521 1.429 1_556 S
C505 H527 0.950 . S
C506 H502 0.949 . S
C506 C514 1.574 1_565 S
C506 C522 1.368 . S
H507 C515 0.950 . S
H508 C513 0.950 . S
H509 C514 0.949 . S
H510 C516 0.950 . S
H511 C517 0.950 . S
H512 C518 0.949 . S
C513 H508 0.950 . S
C513 C515 1.327 . S
C513 C519 1.429 . S
C514 C506 1.574 1_545 S
C514 H509 0.949 . S
C514 C520 1.368 1_554 S
C515 C499 1.349 . S
C515 H507 0.950 . S
C515 C513 1.327 . S
C516 C504 1.349 . S
C516 H510 0.950 . S
C516 C517 1.327 . S
C517 H511 0.950 . S
C517 C516 1.327 . S
C517 C521 1.429 . S
C518 C501 1.574 1_565 S
C518 H512 0.949 . S
C518 C522 1.368 1_556 S
C519 C500 1.429 1_556 S
C519 C513 1.429 . S
C519 C520 1.523 . S
C520 C501 1.368 . S
C520 C514 1.368 1_556 S
C520 C519 1.523 . S
C521 C505 1.429 1_554 S
C521 C517 1.429 . S
C521 C522 1.523 . S
C522 C506 1.368 . S
C522 C518 1.368 1_554 S
C522 C521 1.523 . S
H523 C498 0.950 . S
H524 C500 0.950 . S
H525 C501 0.949 . S
H526 C503 0.950 . S
H527 C505 0.950 . S
C528 C529 1.349 . S
C528 C530 1.327 . S
C528 H553 0.950 . S
C529 C528 1.349 . S
C529 C545 1.349 . S
C530 C528 1.327 . S
C530 C549 1.429 . S
C530 H554 0.950 . S
C531 C548 1.574 1_655 S
C531 C550 1.368 . S
C531 H555 0.949 . S
H532 C536 0.949 . S
C533 C534 1.349 . S
C533 C535 1.327 . S
C533 H556 0.950 . S
C534 C533 1.349 . S
C534 C546 1.349 . S
C535 C533 1.327 . S
C535 C551 1.429 . S
C535 H557 0.950 . S
C536 H532 0.949 . S
C536 C544 1.574 1_455 S
C536 C552 1.368 . S
H537 C545 0.950 . S
H538 C543 0.950 . S
H539 C544 0.949 . S
H540 C546 0.950 . S
H541 C547 0.950 . S
H542 C548 0.949 . S
C543 H538 0.950 . S
C543 C545 1.327 . S
C543 C549 1.429 . S
C544 C536 1.574 1_655 S
C544 H539 0.949 . S
C544 C550 1.368 . S
C545 C529 1.349 . S
C545 H537 0.950 . S
C545 C543 1.327 . S
C546 C534 1.349 . S
C546 H540 0.950 . S
C546 C547 1.327 . S
C547 H541 0.950 . S
C547 C546 1.327 . S
C547 C551 1.429 . S
C548 C531 1.574 1_455 S
C548 H542 0.949 . S
C548 C552 1.368 . S
C549 C530 1.429 . S
C549 C543 1.429 . S
C549 C550 1.523 . S
C550 C531 1.368 . S
C550 C544 1.368 . S
C550 C549 1.523 . S
C551 C535 1.429 . S
C551 C547 1.429 . S
C551 C552 1.523 . S
C552 C536 1.368 . S
C552 C548 1.368 . S
C552 C551 1.523 . S
H553 C528 0.950 . S
H554 C530 0.950 . S
H555 C531 0.949 . S
H556 C533 0.950 . S
H557 C535 0.950 . S
C558 C559 1.349 . S
C558 C560 1.327 . S
C558 H583 0.950 . S
C559 C558 1.349 . S
C559 C575 1.349 . S
C560 C558 1.327 . S
C560 C579 1.429 . S
C560 H584 0.950 . S
C561 C578 1.574 . S
C561 C580 1.368 . S
C561 H585 0.949 . S
H562 C566 0.949 . S
C563 C564 1.349 . S
C563 C565 1.327 . S
C563 H586 0.950 . S
C564 C563 1.349 . S
C564 C576 1.349 . S
C565 C563 1.327 . S
C565 C581 1.429 . S
C565 H587 0.950 . S
C566 H562 0.949 . S
C566 C574 1.574 . S
C566 C582 1.368 . S
H567 C575 0.950 . S
H568 C573 0.950 . S
H569 C574 0.949 . S
H570 C576 0.950 . S
H571 C577 0.950 . S
H572 C578 0.949 . S
C573 H568 0.950 . S
C573 C575 1.327 . S
C573 C579 1.429 . S
C574 C566 1.574 . S
C574 H569 0.949 . S
C574 C580 1.368 1_565 S
C575 C559 1.349 . S
C575 H567 0.950 . S
C575 C573 1.327 . S
C576 C564 1.349 . S
C576 H570 0.950 . S
C576 C577 1.327 . S
C577 H571 0.950 . S
C577 C576 1.327 . S
C577 C581 1.429 . S
C578 C561 1.574 . S
C578 H572 0.949 . S
C578 C582 1.368 1_545 S
C579 C560 1.429 . S
C579 C573 1.429 . S
C579 C580 1.523 . S
C580 C561 1.368 . S
C580 C574 1.368 1_545 S
C580 C579 1.523 . S
C581 C565 1.429 . S
C581 C577 1.429 . S
C581 C582 1.523 . S
C582 C566 1.368 . S
C582 C578 1.368 1_565 S
C582 C581 1.523 . S
H583 C558 0.950 . S
H584 C560 0.950 . S
H585 C561 0.949 . S
H586 C563 0.950 . S
H587 C565 0.950 . S
C588 C589 1.349 . S
C588 C590 1.327 . S
C588 H613 0.950 . S
C589 C588 1.349 . S
C589 C605 1.349 . S
C590 C588 1.327 . S
C590 C609 1.429 . S
C590 H614 0.950 . S
C591 C608 1.574 . S
C591 C610 1.368 . S
C591 H615 0.949 . S
H592 C596 0.949 . S
C593 C594 1.349 . S
C593 C595 1.327 . S
C593 H616 0.950 . S
C594 C593 1.349 . S
C594 C606 1.349 . S
C595 C593 1.327 . S
C595 C611 1.429 . S
C595 H617 0.950 . S
C596 H592 0.949 . S
C596 C604 1.574 . S
C596 C612 1.368 . S
H597 C605 0.950 . S
H598 C603 0.950 . S
H599 C604 0.949 . S
H600 C606 0.950 . S
H601 C607 0.950 . S
H602 C608 0.949 . S
C603 H598 0.950 . S
C603 C605 1.327 . S
C603 C609 1.429 . S
C604 C596 1.574 . S
C604 H599 0.949 . S
C604 C610 1.368 . S
C605 C589 1.349 . S
C605 H597 0.950 . S
C605 C603 1.327 . S
C606 C594 1.349 . S
C606 H600 0.950 . S
C606 C607 1.327 . S
C607 H601 0.950 . S
C607 C606 1.327 . S
C607 C611 1.429 . S
C608 C591 1.574 . S
C608 H602 0.949 . S
C608 C612 1.368 . S
C609 C590 1.429 . S
C609 C603 1.429 . S
C609 C610 1.523 . S
C610 C591 1.368 . S
C610 C604 1.368 . S
C610 C609 1.523 . S
C611 C595 1.429 . S
C611 C607 1.429 . S
C611 C612 1.523 . S
C612 C596 1.368 . S
C612 C608 1.368 . S
C612 C611 1.523 . S
H613 C588 0.950 . S
H614 C590 0.950 . S
H615 C591 0.949 . S
H616 C593 0.950 . S
H617 C595 0.950 . S
C618 C619 1.349 . S
C618 C620 1.327 . S
C618 H643 0.950 . S
C619 C618 1.349 . S
C619 C635 1.349 . S
C620 C618 1.327 . S
C620 C639 1.429 . S
C620 H644 0.950 . S
C621 C638 1.574 1_455 S
C621 C640 1.368 . S
C621 H645 0.949 . S
H622 C626 0.949 . S
C623 C624 1.349 . S
C623 C625 1.327 . S
C623 H646 0.950 . S
C624 C623 1.349 . S
C624 C636 1.349 . S
C625 C623 1.327 . S
C625 C641 1.429 . S
C625 H647 0.950 . S
C626 H622 0.949 . S
C626 C634 1.574 1_655 S
C626 C642 1.368 . S
H627 C635 0.950 . S
H628 C633 0.950 . S
H629 C634 0.949 . S
H630 C636 0.950 . S
H631 C637 0.950 . S
H632 C638 0.949 . S
C633 H628 0.950 . S
C633 C635 1.327 . S
C633 C639 1.429 . S
C634 C626 1.574 1_455 S
C634 H629 0.949 . S
C634 C640 1.368 . S
C635 C619 1.349 . S
C635 H627 0.950 . S
C635 C633 1.327 . S
C636 C624 1.349 . S
C636 H630 0.950 . S
C636 C637 1.327 . S
C637 H631 0.950 . S
C637 C636 1.327 . S
C637 C641 1.429 . S
C638 C621 1.574 1_655 S
C638 H632 0.949 . S
C638 C642 1.368 . S
C639 C620 1.429 . S
C639 C633 1.429 . S
C639 C640 1.523 . S
C640 C621 1.368 . S
C640 C634 1.368 . S
C640 C639 1.523 . S
C641 C625 1.429 . S
C641 C637 1.429 . S
C641 C642 1.523 . S
C642 C626 1.368 . S
C642 C638 1.368 . S
C642 C641 1.523 . S
H643 C618 0.950 . S
H644 C620 0.950 . S
H645 C621 0.949 . S
H646 C623 0.950 . S
H647 C625 0.950 . S
C648 C649 1.349 . S
C648 C650 1.327 . S
C648 H673 0.950 . S
C649 C648 1.349 . S
C649 C665 1.349 . S
C650 C648 1.327 . S
C650 C669 1.429 . S
C650 H674 0.950 . S
C651 C668 1.574 . S
C651 C670 1.368 1_565 S
C651 H675 0.949 . S
H652 C656 0.949 . S
C653 C654 1.349 . S
C653 C655 1.327 . S
C653 H676 0.950 . S
C654 C653 1.349 . S
C654 C666 1.349 . S
C655 C653 1.327 . S
C655 C671 1.429 . S
C655 H677 0.950 . S
C656 H652 0.949 . S
C656 C664 1.574 . S
C656 C672 1.368 1_545 S
H657 C665 0.950 . S
H658 C663 0.950 . S
H659 C664 0.949 . S
H660 C666 0.950 . S
H661 C667 0.950 . S
H662 C668 0.949 . S
C663 H658 0.950 . S
C663 C665 1.327 . S
C663 C669 1.429 . S
C664 C656 1.574 . S
C664 H659 0.949 . S
C664 C670 1.368 . S
C665 C649 1.349 . S
C665 H657 0.950 . S
C665 C663 1.327 . S
C666 C654 1.349 . S
C666 H660 0.950 . S
C666 C667 1.327 . S
C667 H661 0.950 . S
C667 C666 1.327 . S
C667 C671 1.429 . S
C668 C651 1.574 . S
C668 H662 0.949 . S
C668 C672 1.368 . S
C669 C650 1.429 . S
C669 C663 1.429 . S
C669 C670 1.523 . S
C670 C651 1.368 1_545 S
C670 C664 1.368 . S
C670 C669 1.523 . S
C671 C655 1.429 . S
C671 C667 1.429 . S
C671 C672 1.523 . S
C672 C656 1.368 1_565 S
C672 C668 1.368 . S
C672 C671 1.523 . S
H673 C648 0.950 . S
H674 C650 0.950 . S
H675 C651 0.949 . S
H676 C653 0.950 . S
H677 C655 0.950 . S
C678 C679 1.349 . S
C678 C680 1.327 . S
C678 H703 0.950 . S
C679 C678 1.349 . S
C679 C695 1.349 . S
C680 C678 1.327 . S
C680 C699 1.429 . S
C680 H704 0.950 . S
C681 C698 1.574 . S
C681 C700 1.368 . S
C681 H705 0.949 . S
H682 C686 0.949 . S
C683 C684 1.349 . S
C683 C685 1.327 . S
C683 H706 0.950 . S
C684 C683 1.349 . S
C684 C696 1.349 . S
C685 C683 1.327 . S
C685 C701 1.429 . S
C685 H707 0.950 . S
C686 H682 0.949 . S
C686 C694 1.574 . S
C686 C702 1.368 . S
H687 C695 0.950 . S
H688 C693 0.950 . S
H689 C694 0.949 . S
H690 C696 0.950 . S
H691 C697 0.950 . S
H692 C698 0.949 . S
C693 H688 0.950 . S
C693 C695 1.327 . S
C693 C699 1.429 . S
C694 C686 1.574 . S
C694 H689 0.949 . S
C694 C700 1.368 . S
C695 C679 1.349 . S
C695 H687 0.950 . S
C695 C693 1.327 . S
C696 C684 1.349 . S
C696 H690 0.950 . S
C696 C697 1.327 . S
C697 H691 0.950 . S
C697 C696 1.327 . S
C697 C701 1.429 . S
C698 C681 1.574 . S
C698 H692 0.949 . S
C698 C702 1.368 . S
C699 C680 1.429 . S
C699 C693 1.429 . S
C699 C700 1.523 . S
C700 C681 1.368 . S
C700 C694 1.368 . S
C700 C699 1.523 . S
C701 C685 1.429 . S
C701 C697 1.429 . S
C701 C702 1.523 . S
C702 C686 1.368 . S
C702 C698 1.368 . S
C702 C701 1.523 . S
H703 C678 0.950 . S
H704 C680 0.950 . S
H705 C681 0.949 . S
H706 C683 0.950 . S
H707 C685 0.950 . S
C708 C709 1.349 . S
C708 C710 1.327 . S
C708 H733 0.950 . S
C709 C708 1.349 . S
C709 C725 1.349 . S
C710 C708 1.327 . S
C710 C729 1.429 . S
C710 H734 0.950 . S
C711 C728 1.574 . S
C711 C730 1.368 . S
C711 H735 0.949 . S
H712 C716 0.949 . S
C713 C714 1.349 . S
C713 C715 1.327 . S
C713 H736 0.950 . S
C714 C713 1.349 . S
C714 C726 1.349 . S
C715 C713 1.327 . S
C715 C731 1.429 . S
C715 H737 0.950 . S
C716 H712 0.949 . S
C716 C724 1.574 . S
C716 C732 1.368 . S
H717 C725 0.950 . S
H718 C723 0.950 . S
H719 C724 0.949 . S
H720 C726 0.950 . S
H721 C727 0.950 . S
H722 C728 0.949 . S
C723 H718 0.950 . S
C723 C725 1.327 . S
C723 C729 1.429 . S
C724 C716 1.574 . S
C724 H719 0.949 . S
C724 C730 1.368 . S
C725 C709 1.349 . S
C725 H717 0.950 . S
C725 C723 1.327 . S
C726 C714 1.349 . S
C726 H720 0.950 . S
C726 C727 1.327 . S
C727 H721 0.950 . S
C727 C726 1.327 . S
C727 C731 1.429 . S
C728 C711 1.574 . S
C728 H722 0.949 . S
C728 C732 1.368 . S
C729 C710 1.429 . S
C729 C723 1.429 . S
C729 C730 1.523 . S
C730 C711 1.368 . S
C730 C724 1.368 . S
C730 C729 1.523 . S
C731 C715 1.429 . S
C731 C727 1.429 . S
C731 C732 1.523 . S
C732 C716 1.368 . S
C732 C728 1.368 . S
C732 C731 1.523 . S
H733 C708 0.950 . S
H734 C710 0.950 . S
H735 C711 0.949 . S
H736 C713 0.950 . S
H737 C715 0.950 . S
C738 C739 1.349 . S
C738 C740 1.327 . S
C738 H763 0.950 . S
C739 C738 1.349 . S
C739 C755 1.349 . S
C740 C738 1.327 . S
C740 C759 1.429 . S
C740 H764 0.950 . S
C741 C758 1.574 . S
C741 C760 1.368 . S
C741 H765 0.949 . S
H742 C746 0.949 . S
C743 C744 1.349 . S
C743 C745 1.327 . S
C743 H766 0.950 . S
C744 C743 1.349 . S
C744 C756 1.349 . S
C745 C743 1.327 . S
C745 C761 1.429 . S
C745 H767 0.950 . S
C746 H742 0.949 . S
C746 C754 1.574 . S
C746 C762 1.368 . S
H747 C755 0.950 . S
H748 C753 0.950 . S
H749 C754 0.949 . S
H750 C756 0.950 . S
H751 C757 0.950 . S
H752 C758 0.949 . S
C753 H748 0.950 . S
C753 C755 1.327 . S
C753 C759 1.429 . S
C754 C746 1.574 . S
C754 H749 0.949 . S
C754 C760 1.368 . S
C755 C739 1.349 . S
C755 H747 0.950 . S
C755 C753 1.327 . S
C756 C744 1.349 . S
C756 H750 0.950 . S
C756 C757 1.327 . S
C757 H751 0.950 . S
C757 C756 1.327 . S
C757 C761 1.429 . S
C758 C741 1.574 . S
C758 H752 0.949 . S
C758 C762 1.368 . S
C759 C740 1.429 . S
C759 C753 1.429 . S
C759 C760 1.523 . S
C760 C741 1.368 . S
C760 C754 1.368 . S
C760 C759 1.523 . S
C761 C745 1.429 . S
C761 C757 1.429 . S
C761 C762 1.523 . S
C762 C746 1.368 . S
C762 C758 1.368 . S
C762 C761 1.523 . S
H763 C738 0.950 . S
H764 C740 0.950 . S
H765 C741 0.949 . S
H766 C743 0.950 . S
H767 C745 0.950 . S
C768 C769 1.349 . S
C768 C770 1.327 . S
C768 H793 0.950 . S
C769 C768 1.349 . S
C769 C785 1.349 . S
C770 C768 1.327 . S
C770 C789 1.429 . S
C770 H794 0.950 . S
C771 C788 1.574 . S
C771 C790 1.368 . S
C771 H795 0.949 . S
H772 C776 0.949 . S
C773 C774 1.349 . S
C773 C775 1.327 . S
C773 H796 0.950 . S
C774 C773 1.349 . S
C774 C786 1.349 . S
C775 C773 1.327 . S
C775 C791 1.429 . S
C775 H797 0.950 . S
C776 H772 0.949 . S
C776 C784 1.574 . S
C776 C792 1.368 . S
H777 C785 0.950 . S
H778 C783 0.950 . S
H779 C784 0.949 . S
H780 C786 0.950 . S
H781 C787 0.950 . S
H782 C788 0.949 . S
C783 H778 0.950 . S
C783 C785 1.327 . S
C783 C789 1.429 . S
C784 C776 1.574 . S
C784 H779 0.949 . S
C784 C790 1.368 . S
C785 C769 1.349 . S
C785 H777 0.950 . S
C785 C783 1.327 . S
C786 C774 1.349 . S
C786 H780 0.950 . S
C786 C787 1.327 . S
C787 H781 0.950 . S
C787 C786 1.327 . S
C787 C791 1.429 . S
C788 C771 1.574 . S
C788 H782 0.949 . S
C788 C792 1.368 . S
C789 C770 1.429 . S
C789 C783 1.429 . S
C789 C790 1.523 . S
C790 C771 1.368 . S
C790 C784 1.368 . S
C790 C789 1.523 . S
C791 C775 1.429 . S
C791 C787 1.429 . S
C791 C792 1.523 . S
C792 C776 1.368 . S
C792 C788 1.368 . S
C792 C791 1.523 . S
H793 C768 0.950 . S
H794 C770 0.950 . S
H795 C771 0.949 . S
H796 C773 0.950 . S
H797 C775 0.950 . S
C798 C799 1.349 . S
C798 C800 1.327 . S
C798 H823 0.950 . S
C799 C798 1.349 . S
C799 C815 1.349 . S
C800 C798 1.327 . S
C800 C819 1.429 . S
C800 H824 0.950 . S
C801 C818 1.574 . S
C801 C820 1.368 . S
C801 H825 0.949 . S
H802 C806 0.949 . S
C803 C804 1.349 . S
C803 C805 1.327 . S
C803 H826 0.950 . S
C804 C803 1.349 . S
C804 C816 1.349 . S
C805 C803 1.327 . S
C805 C821 1.429 . S
C805 H827 0.950 . S
C806 H802 0.949 . S
C806 C814 1.574 . S
C806 C822 1.368 . S
H807 C815 0.950 . S
H808 C813 0.950 . S
H809 C814 0.949 . S
H810 C816 0.950 . S
H811 C817 0.950 . S
H812 C818 0.949 . S
C813 H808 0.950 . S
C813 C815 1.327 . S
C813 C819 1.429 . S
C814 C806 1.574 . S
C814 H809 0.949 . S
C814 C820 1.368 . S
C815 C799 1.349 . S
C815 H807 0.950 . S
C815 C813 1.327 . S
C816 C804 1.349 . S
C816 H810 0.950 . S
C816 C817 1.327 . S
C817 H811 0.950 . S
C817 C816 1.327 . S
C817 C821 1.429 . S
C818 C801 1.574 . S
C818 H812 0.949 . S
C818 C822 1.368 . S
C819 C800 1.429 . S
C819 C813 1.429 . S
C819 C820 1.523 . S
C820 C801 1.368 . S
C820 C814 1.368 . S
C820 C819 1.523 . S
C821 C805 1.429 . S
C821 C817 1.429 . S
C821 C822 1.523 . S
C822 C806 1.368 . S
C822 C818 1.368 . S
C822 C821 1.523 . S
H823 C798 0.950 . S
H824 C800 0.950 . S
H825 C801 0.949 . S
H826 C803 0.950 . S
H827 C805 0.950 . S
C828 C829 1.349 . S
C828 C830 1.327 . S
C828 H853 0.950 . S
C829 C828 1.349 . S
C829 C845 1.349 . S
C830 C828 1.327 . S
C830 C849 1.429 . S
C830 H854 0.950 . S
C831 C848 1.574 . S
C831 C850 1.368 . S
C831 H855 0.949 . S
H832 C836 0.949 . S
C833 C834 1.349 . S
C833 C835 1.327 . S
C833 H856 0.950 . S
C834 C833 1.349 . S
C834 C846 1.349 . S
C835 C833 1.327 . S
C835 C851 1.429 . S
C835 H857 0.950 . S
C836 H832 0.949 . S
C836 C844 1.574 . S
C836 C852 1.368 . S
H837 C845 0.950 . S
H838 C843 0.950 . S
H839 C844 0.949 . S
H840 C846 0.950 . S
H841 C847 0.950 . S
H842 C848 0.949 . S
C843 H838 0.950 . S
C843 C845 1.327 . S
C843 C849 1.429 . S
C844 C836 1.574 . S
C844 H839 0.949 . S
C844 C850 1.368 . S
C845 C829 1.349 . S
C845 H837 0.950 . S
C845 C843 1.327 . S
C846 C834 1.349 . S
C846 H840 0.950 . S
C846 C847 1.327 . S
C847 H841 0.950 . S
C847 C846 1.327 . S
C847 C851 1.429 . S
C848 C831 1.574 . S
C848 H842 0.949 . S
C848 C852 1.368 . S
C849 C830 1.429 . S
C849 C843 1.429 . S
C849 C850 1.523 . S
C850 C831 1.368 . S
C850 C844 1.368 . S
C850 C849 1.523 . S
C851 C835 1.429 . S
C851 C847 1.429 . S
C851 C852 1.523 . S
C852 C836 1.368 . S
C852 C848 1.368 . S
C852 C851 1.523 . S
H853 C828 0.950 . S
H854 C830 0.950 . S
H855 C831 0.949 . S
H856 C833 0.950 . S
H857 C835 0.950 . S
C858 C859 1.349 . S
C858 C860 1.327 . S
C858 H883 0.950 . S
C859 C858 1.349 . S
C859 C875 1.349 . S
C860 C858 1.327 . S
C860 C879 1.429 . S
C860 H884 0.950 . S
C861 C878 1.574 . S
C861 C880 1.368 . S
C861 H885 0.949 . S
H862 C866 0.949 . S
C863 C864 1.349 . S
C863 C865 1.327 . S
C863 H886 0.950 . S
C864 C863 1.349 . S
C864 C876 1.349 . S
C865 C863 1.327 . S
C865 C881 1.429 . S
C865 H887 0.950 . S
C866 H862 0.949 . S
C866 C874 1.574 . S
C866 C882 1.368 . S
H867 C875 0.950 . S
H868 C873 0.950 . S
H869 C874 0.949 . S
H870 C876 0.950 . S
H871 C877 0.950 . S
H872 C878 0.949 . S
C873 H868 0.950 . S
C873 C875 1.327 . S
C873 C879 1.429 . S
C874 C866 1.574 . S
C874 H869 0.949 . S
C874 C880 1.368 . S
C875 C859 1.349 . S
C875 H867 0.950 . S
C875 C873 1.327 . S
C876 C864 1.349 . S
C876 H870 0.950 . S
C876 C877 1.327 . S
C877 H871 0.950 . S
C877 C876 1.327 . S
C877 C881 1.429 . S
C878 C861 1.574 . S
C878 H872 0.949 . S
C878 C882 1.368 . S
C879 C860 1.429 . S
C879 C873 1.429 . S
C879 C880 1.523 . S
C880 C861 1.368 . S
C880 C874 1.368 . S
C880 C879 1.523 . S
C881 C865 1.429 . S
C881 C877 1.429 . S
C881 C882 1.523 . S
C882 C866 1.368 . S
C882 C878 1.368 . S
C882 C881 1.523 . S
H883 C858 0.950 . S
H884 C860 0.950 . S
H885 C861 0.949 . S
H886 C863 0.950 . S
H887 C865 0.950 . S
C169 C11 1.263 . S
C174 C95 1.263 . S
C199 C25 1.263 . S
C204 C109 1.263 . S
C229 C39 1.263 . S
C234 C123 1.263 . S
C259 C137 1.263 . S
C264 C53 1.263 . S
C289 C67 1.263 . S
C294 C151 1.263 . S
C319 C165 1.263 . S
C324 C81 1.263 . S
C349 C4 0.588 . S
C354 C130 0.588 . S
C379 C18 0.588 . S
C384 C144 0.588 . S
C409 C158 0.584 1_554 S
C414 C32 0.586 . S
C439 C88 0.588 . S
C444 C46 0.588 . S
C469 C60 0.588 . S
C474 C102 0.588 . S
C499 C74 0.588 . S
C504 C116 0.583 1_554 S
C529 C159 1.712 . S
C534 C5 1.711 . S
C559 C19 1.712 . S
C564 C89 1.712 . S
C589 C33 1.713 . S
C594 C103 1.713 . S
C619 C117 1.713 . S
C624 C47 1.711 . S
C649 C131 1.712 . S
C654 C61 1.712 . S
C679 C75 1.713 . S
C684 C145 1.713 . S
C709 C12 0.443 . S
C714 C152 0.443 . S
C739 C166 0.443 . S
C744 C26 0.443 . S
C769 C96 0.443 . S
C774 C40 0.443 . S
C799 C54 0.443 . S
C804 C110 0.443 . S
C829 C124 0.443 . S
C834 C68 0.443 . S
C859 C138 0.443 . S
C864 C82 0.443 . S
