# Generated by pormake.
# Topology snp, (6)-cn, num edge types: 1
# Building blocks:
#     Node 0, Type 0, BuildingBlock: CUWYAW_clean_sbu_0, # of connection points: 6
#     Node 1, Type 0, BuildingBlock: CUWYAW_clean_sbu_0, # of connection points: 6
#     Node 2, Type 0, BuildingBlock: CUWYAW_clean_sbu_0, # of connection points: 6
#     Node 3, Type 0, BuildingBlock: CUWYAW_clean_sbu_0, # of connection points: 6
#     Edge 4, Type (0, 0), BuildingBlock: FUNLAD_clean_linker_1, # of connection points: 2
#     Edge 5, Type (0, 0), BuildingBlock: FUNLAD_clean_linker_1, # of connection points: 2
#     Edge 6, Type (0, 0), BuildingBlock: FUNLAD_clean_linker_1, # of connection points: 2
#     Edge 7, Type (0, 0), BuildingBlock: FUNLAD_clean_linker_1, # of connection points: 2
#     Edge 8, Type (0, 0), BuildingBlock: FUNLAD_clean_linker_1, # of connection points: 2
#     Edge 9, Type (0, 0), BuildingBlock: FUNLAD_clean_linker_1, # of connection points: 2
#     Edge 10, Type (0, 0), BuildingBlock: FUNLAD_clean_linker_1, # of connection points: 2
#     Edge 11, Type (0, 0), BuildingBlock: FUNLAD_clean_linker_1, # of connection points: 2
#     Edge 12, Type (0, 0), BuildingBlock: FUNLAD_clean_linker_1, # of connection points: 2
#     Edge 13, Type (0, 0), BuildingBlock: FUNLAD_clean_linker_1, # of connection points: 2
#     Edge 14, Type (0, 0), BuildingBlock: FUNLAD_clean_linker_1, # of connection points: 2
#     Edge 15, Type (0, 0), BuildingBlock: FUNLAD_clean_linker_1, # of connection points: 2
# Relax obj value: 0.338
# Max RMSD: 0.224
# Mean RMSD: 0.208
data_MOF--net-snp--node1-CUWYAW_clean_sbu_0--edge1-FUNLAD_clean_linker_1
_symmetry_space_group_name_H-M    P1
_symmetry_Int_Tables_number       1
_symmetry_cell_setting            triclinic
loop_
_symmetry_equiv_pos_as_xyz
'x, y, z'
_cell_length_a     25.332067
_cell_length_b     25.021276
_cell_length_c     35.56405
_cell_angle_alpha  94.135664
_cell_angle_beta   79.66788
_cell_angle_gamma 122.15153
loop_
_atom_site_label
_atom_site_type_symbol
_atom_site_fract_x
_atom_site_fract_y
_atom_site_fract_z
_atom_type_partial_charge
C0 C 0.25539 0.92436 0.16163 0.0
Eu1 Eu 0.25935 0.01354 0.20464 0.0
C2 C 0.28966 0.93548 0.12245 0.0
C3 C 0.2653 0.89113 0.09417 0.0
C4 C 0.29012 0.90925 0.05559 0.0
C5 C 0.33851 0.97242 1.04522 0.0
C6 C 0.36585 0.01463 0.07387 0.0
C7 C 0.34166 -0.00357 0.11205 0.0
C8 C 0.16985 0.03146 0.24534 0.0
C9 C 0.27977 0.12771 0.15092 0.0
C10 C 0.33557 0.2448 0.27634 0.0
Eu11 Eu 0.30995 0.14376 0.23726 0.0
C12 C 0.35916 0.27367 0.31219 0.0
C13 C 0.42083 0.29386 0.31737 0.0
C14 C 0.44235 0.32231 0.35129 0.0
C15 C 0.40301 0.33157 0.3806 0.0
C16 C 0.34102 0.31066 0.37542 0.0
C17 C 0.31967 0.28253 0.3415 0.0
C18 C 0.40043 0.12289 0.19876 0.0
C19 C 0.25928 0.02134 0.2954 0.0
O20 O 0.29167 0.94895 0.18785 0.0
O21 O 0.21047 0.93675 0.16654 0.0
O22 O 0.16448 0.97672 0.24249 0.0
O23 O 0.21823 0.07138 0.22302 0.0
O24 O 0.2784 0.07391 0.15149 0.0
O25 O 0.28354 0.15995 0.18273 0.0
O26 O 0.27915 0.19359 0.27961 0.0
O27 O 0.3755 0.24229 0.24851 0.0
O28 O 0.40296 0.17573 0.19769 0.0
O29 O 0.3518 0.08416 0.22146 0.0
O30 O 0.28138 0.08264 0.29163 0.0
O31 O 0.25213 0.98517 0.26528 0.0
H32 H 0.22501 0.84393 0.10175 0.0
H33 H 0.26904 0.87454 1.03432 0.0
H34 H 0.40274 0.06346 0.06679 0.0
H35 H 0.36053 0.03174 0.13341 0.0
H36 H 0.45254 0.28768 0.29532 0.0
H37 H 0.48993 0.3371 0.35465 0.0
H38 H 0.30805 0.31447 0.39765 0.0
H39 H 0.27192 0.26728 0.33826 0.0
C40 C 0.22427 0.32034 0.7696 0.0
Eu41 Eu 0.18761 0.32325 0.7048 0.0
C42 C 0.22536 0.28771 0.80377 0.0
C43 C 0.19596 0.29071 0.84098 0.0
C44 C 0.20255 0.26681 0.8737 0.0
C45 C 0.23891 0.23873 0.8705 0.0
C46 C 0.2675 0.23495 0.83328 0.0
C47 C 0.26193 0.25992 0.80076 0.0
C48 C 0.14875 0.399 0.68467 0.0
C49 C 0.04417 0.21201 0.69836 0.0
C50 C 0.07643 0.25927 0.56604 0.0
Eu51 Eu 0.1383 0.2949 0.62398 0.0
C52 C 0.0605 0.2413 0.52638 0.0
C53 C 0.05316 0.18535 0.50947 0.0
C54 C 0.0287 0.16432 0.47491 0.0
C55 C 0.01035 0.19846 0.45628 0.0
C56 C 0.01922 0.25497 0.47293 0.0
C57 C 0.04376 0.27597 0.50722 0.0
C58 C 0.21541 0.25543 0.63595 0.0
C59 C 0.27669 0.40903 0.62839 0.0
O60 O 0.25324 0.31837 0.73541 0.0
O61 O 0.17539 0.32479 0.76792 0.0
O62 O 0.19198 0.41672 0.7058 0.0
O63 O 0.12448 0.34103 0.67787 0.0
O64 O 0.0929 0.23194 0.71611 0.0
O65 O 0.0487 0.23683 0.66569 0.0
O66 O 0.1069 0.3183 0.57679 0.0
O67 O 0.08132 0.22112 0.58659 0.0
O68 O 0.2178 0.27622 0.603 0.0
O69 O 0.17164 0.25371 0.65977 0.0
O70 O 0.22485 0.39239 0.61463 0.0
O71 O 0.27535 0.38254 0.66009 0.0
H72 H 0.16874 0.31294 0.84498 0.0
H73 H 0.17855 0.26989 0.90142 0.0
H74 H 0.29564 0.21361 0.82927 0.0
H75 H 0.28682 0.25769 0.77317 0.0
H76 H 0.06452 0.15662 0.52352 0.0
H77 H 0.02248 0.12033 0.46374 0.0
H78 H 0.0058 0.28271 0.45971 0.0
H79 H 0.04759 0.31856 0.51947 0.0
C80 C 0.92449 0.17329 0.07507 0.0
Eu81 Eu 0.87175 0.057 0.09734 0.0
C82 C 0.95802 0.2018 1.03733 0.0
C83 C 0.97542 0.16752 1.01074 0.0
C84 C -0.00568 0.18574 0.97239 0.0
C85 C -0.0052 0.23805 0.95983 0.0
C86 C 0.98075 0.27441 0.98688 0.0
C87 C 0.96249 0.25639 1.02558 0.0
C88 C 0.92946 0.99302 0.10374 0.0
C89 C 0.84205 0.947 1.03637 0.0
C90 C 0.71349 0.81524 0.16104 0.0
Eu91 Eu 0.78178 0.92573 0.12669 0.0
C92 C 0.71679 0.78839 0.19506 0.0
C93 C 0.6655 0.73062 0.21124 0.0
C94 C 0.6685 0.70643 0.24451 0.0
C95 C 0.72333 0.73919 0.26122 0.0
C96 C 0.77452 0.79717 0.24488 0.0
C97 C 0.7709 0.8217 0.21226 0.0
C98 C 0.72568 0.98268 0.1035 0.0
C99 C 0.85115 0.03554 0.18911 0.0
O100 O 0.86427 0.13124 0.07575 0.0
O101 O 0.95211 0.1539 0.09327 0.0
O102 O 0.94872 0.03499 0.0768 0.0
O103 O 0.88298 0.98971 0.12571 0.0
O104 O 0.85491 0.00567 1.04047 0.0
O105 O 0.81984 0.90874 0.06672 0.0
O106 O 0.75969 0.8297 0.13235 0.0
O107 O 0.7004 0.85942 0.16747 0.0
O108 O 0.71283 0.92664 0.09412 0.0
O109 O 0.76974 0.00684 0.12285 0.0
O110 O 0.81412 0.97415 0.18333 0.0
O111 O 0.8771 0.07711 0.16029 0.0
H112 H 0.97062 0.12422 1.01927 0.0
H113 H 0.00309 0.15531 0.95273 0.0
H114 H 0.98022 0.31452 0.97781 0.0
H115 H 0.94801 0.28256 1.04581 0.0
H116 H 0.62304 0.70477 0.19848 0.0
H117 H 0.62815 0.66225 0.25718 0.0
H118 H 0.81645 0.82472 0.258 0.0
H119 H 0.80984 0.86723 0.20087 0.0
C120 C 0.21063 0.97786 0.68874 0.0
Eu121 Eu 0.09368 0.9009 0.68051 0.0
C122 C 0.24648 0.01742 0.71797 0.0
C123 C 0.21706 0.03276 0.75041 0.0
C124 C 0.2474 0.05691 0.78216 0.0
C125 C 0.307 0.06503 0.78158 0.0
C126 C 0.33819 0.05485 0.74778 0.0
C127 C 0.30817 0.03138 0.71606 0.0
C128 C 0.00593 0.93033 0.67954 0.0
C129 C 0.97699 0.84223 0.74972 0.0
C130 C 0.86876 0.7196 0.6329 0.0
Eu131 Eu 0.97115 0.79451 0.66114 0.0
C132 C 0.85347 0.721 0.59538 0.0
C133 C 0.80586 0.66606 0.58094 0.0
C134 C 0.79838 0.66516 0.54284 0.0
C135 C 0.83964 0.71876 0.51886 0.0
C136 C 0.88604 0.77403 0.53361 0.0
C137 C 0.89215 0.77552 0.57184 0.0
C138 C 0.04076 0.75559 0.68688 0.0
C139 C 0.08665 0.88014 0.59026 0.0
O140 O 0.17973 0.91694 0.6962 0.0
O141 O 0.17795 -0.00457 0.67437 0.0
O142 O 0.04602 0.9542 0.7032 0.0
O143 O 0.01691 0.89625 0.65594 0.0
O144 O 0.03911 0.86783 0.74122 0.0
O145 O 0.94108 0.81601 0.72262 0.0
O146 O 0.87543 0.766 0.6553 0.0
O147 O 0.91394 0.70847 0.63181 0.0
O148 O 0.98001 0.72868 0.69617 0.0
O149 O 0.06206 0.80187 0.66417 0.0
O150 O 0.02714 0.83279 0.60004 0.0
O151 O 0.12171 0.91188 0.61646 0.0
H152 H 0.16909 0.02177 0.75223 0.0
H153 H 0.2216 0.06324 0.80803 0.0
H154 H 0.38391 0.06051 0.74688 0.0
H155 H 0.33123 0.01962 0.6911 0.0
H156 H 0.77599 0.6235 0.59871 0.0
H157 H 0.76237 0.62205 0.53168 0.0
H158 H 0.91774 0.81593 0.51548 0.0
H159 H 0.92841 0.81871 0.58266 0.0
H160 H 0.0245 0.01526 0.10965 0.0
C161 C 0.97428 0.98546 0.12055 0.0
H162 H 0.90395 0.92888 0.16572 0.0
H163 H 0.02813 0.91595 0.29376 0.0
H164 H 0.97237 0.80619 0.27545 0.0
H165 H 0.92617 0.77555 0.21624 0.0
H166 H 0.93591 0.85433 0.17485 0.0
C167 C 0.95425 0.96 0.15614 0.0
C168 C 0.99316 0.98153 0.18702 0.0
C169 C 0.98832 0.93489 0.21035 0.0
C170 C 0.01524 0.95236 0.24426 0.0
C171 C 0.009 0.90497 0.26742 0.0
C172 C 0.97707 0.84189 0.25729 0.0
C173 C 0.95094 0.82464 0.22401 0.0
C174 C 0.95657 0.87036 0.20063 0.0
H175 H 0.17029 0.06898 0.30371 0.0
C176 C 0.14268 0.0484 0.28086 0.0
H177 H 0.06514 0.04885 0.3133 0.0
H178 H 0.00113 0.08419 0.15439 0.0
H179 H 0.05715 0.19184 0.17315 0.0
H180 H 0.10852 0.22156 0.23027 0.0
H181 H 0.10419 0.1425 0.26825 0.0
C182 C 0.08373 0.0364 0.2865 0.0
C183 C 0.04762 0.01639 0.25449 0.0
C184 C 0.05159 0.06302 0.23199 0.0
C185 C 0.02376 0.04583 0.19838 0.0
C186 C 0.02551 0.09369 0.17809 0.0
C187 C 0.05658 0.15632 0.1892 0.0
C188 C 0.08515 0.173 0.22141 0.0
C189 C 0.08243 0.12706 0.24285 0.0
H190 H 0.90771 0.90354 0.67773 0.0
C191 C 0.95505 0.9427 0.68002 0.0
H192 H 0.929 0.01027 0.68277 0.0
H193 H 0.22272 0.14148 0.59324 0.0
H194 H 0.1691 0.10162 0.53817 0.0
H195 H 0.05261 0.04333 0.54629 0.0
H196 H 0.98916 0.02281 0.60963 0.0
C197 C 0.96689 0.00175 0.68228 0.0
C198 C 0.03335 0.05572 0.67757 0.0
C199 C 0.06954 0.07111 0.64035 0.0
C200 C 0.13637 0.10716 0.63563 0.0
C201 C 0.17161 0.11662 0.5983 0.0
C202 C 0.14145 0.0936 0.5665 0.0
C203 C 0.07589 0.06055 0.57106 0.0
C204 C 0.04009 0.04902 0.60751 0.0
H205 H 0.30873 0.27028 0.63902 0.0
C206 C 0.25823 0.23735 0.64525 0.0
H207 H 0.26784 0.17038 0.67086 0.0
H208 H 0.9771 0.03317 0.75249 0.0
H209 H 0.02984 0.07754 0.80756 0.0
H210 H 0.14578 0.14715 0.79931 0.0
H211 H 0.21016 0.17291 0.73585 0.0
C212 C 0.23552 0.18131 0.66225 0.0
C213 C 0.16669 0.1328 0.66801 0.0
C214 C 0.13041 0.11883 0.70521 0.0
C215 C 0.06352 0.07954 0.71 0.0
C216 C 0.02813 0.06363 0.74743 0.0
C217 C 0.05778 0.08873 0.77919 0.0
C218 C 0.12314 0.12823 0.77449 0.0
C219 C 0.15939 0.14296 0.738 0.0
H220 H 0.63436 0.96778 0.09522 0.0
C221 C 0.67612 -0.00152 0.10819 0.0
H222 H 0.71768 0.07225 0.14629 0.0
H223 H 0.47659 0.09119 0.11128 0.0
H224 H 0.52852 0.11425 1.04532 0.0
H225 H 0.62459 0.1104 1.02413 0.0
H226 H 0.66835 0.08216 0.06875 0.0
C227 C 0.67731 0.04367 0.13176 0.0
C228 C 0.62021 0.04859 0.14432 0.0
C229 C 0.59625 0.06737 0.11828 0.0
C230 C 0.5419 0.07181 0.13092 0.0
C231 C 0.51809 0.08829 0.1037 0.0
C232 C 0.54753 0.10164 0.06562 0.0
C233 C 0.6015 0.09931 0.05367 0.0
C234 C 0.62592 0.08264 0.07957 0.0
H235 H 0.4985 0.159 0.17013 0.0
C236 C 0.45538 0.11684 0.18305 0.0
H237 H 0.41209 0.02088 0.19786 0.0
H238 H 0.6522 0.00976 0.20181 0.0
H239 H 0.60173 0.98894 0.26813 0.0
H240 H 0.51066 0.0008 0.29055 0.0
H241 H 0.46924 0.03316 0.24675 0.0
C242 C 0.45446 0.06265 0.18399 0.0
C243 C 0.51224 0.05912 0.16997 0.0
C244 C 0.53674 0.04091 0.196 0.0
C245 C 0.59033 0.03542 0.1832 0.0
C246 C 0.61258 0.01596 0.20993 0.0
C247 C 0.58389 0.00359 0.24815 0.0
C248 C 0.53255 0.01013 0.26076 0.0
C249 C 0.50909 0.02855 0.23518 0.0
H250 H 0.08226 0.41528 0.66184 0.0
C251 C 0.12196 0.43689 0.67724 0.0
H252 H 0.18392 0.51758 0.70542 0.0
H253 H 0.14415 0.71118 0.62853 0.0
H254 H 0.24334 0.73394 0.59041 0.0
H255 H 0.28589 0.66678 0.59602 0.0
H256 H 0.22839 0.57526 0.63923 0.0
C257 C 0.14339 0.49559 0.69071 0.0
C258 C 0.11511 0.53394 0.68582 0.0
C259 C 0.15041 0.58921 0.6619 0.0
C260 C 0.12704 0.62972 0.65991 0.0
C261 C 0.16106 0.68103 0.63308 0.0
C262 C 0.21787 0.69422 0.61057 0.0
C263 C 0.24177 0.65632 0.61365 0.0
C264 C 0.20845 0.60415 0.63875 0.0
H265 H 0.12182 0.74649 0.69212 0.0
C266 C 0.07285 0.72047 0.68788 0.0
H267 H -0.00585 0.63345 0.67686 0.0
H268 H 0.03121 0.42901 0.73148 0.0
H269 H 0.93396 0.40755 0.77156 0.0
H270 H 0.89836 0.48231 0.77298 0.0
H271 H 0.9596 0.57843 0.73408 0.0
C272 C 0.04275 0.6577 0.6818 0.0
C273 C 0.06992 0.61722 0.68374 0.0
C274 C 0.03452 0.56163 0.70758 0.0
C275 C 0.0562 0.51938 0.70785 0.0
C276 C 0.0184 0.46362 0.73102 0.0
C277 C 0.96203 0.45047 0.75403 0.0
C278 C 0.9419 0.49242 0.75472 0.0
C279 C 0.97747 0.54735 0.73193 0.0
H280 H 0.33246 0.46614 0.57686 0.0
C281 C 0.33629 0.44584 0.60149 0.0
H282 H 0.38509 0.41233 0.62304 0.0
H283 H 0.37733 0.27622 0.47117 0.0
H284 H 0.36138 0.20257 0.51874 0.0
H285 H 0.378 0.23544 0.58483 0.0
H286 H 0.40833 0.34211 0.60376 0.0
C287 C 0.38383 0.43547 0.5989 0.0
C288 C 0.41644 0.43235 0.55993 0.0
C289 C 0.4085 0.37358 0.54809 0.0
C290 C 0.40445 0.3566 0.5092 0.0
C291 C 0.38524 0.29353 0.49954 0.0
C292 C 0.37541 0.25036 0.52673 0.0
C293 C 0.38438 0.26872 0.56399 0.0
C294 C 0.40066 0.3296 0.57468 0.0
H295 H 0.46637 0.35817 0.4234 0.0
C296 C 0.42649 0.35918 0.41701 0.0
H297 H 0.36278 0.38931 0.43629 0.0
H298 H 0.46014 0.55614 0.57222 0.0
H299 H 0.4947 0.63764 0.52357 0.0
H300 H 0.4946 0.61151 0.45525 0.0
H301 H 0.46011 0.50422 0.43503 0.0
C302 C 0.39894 0.38252 0.44304 0.0
C303 C 0.41668 0.40195 0.48165 0.0
C304 C 0.43836 0.46499 0.49266 0.0
C305 C 0.43833 0.48018 0.53193 0.0
C306 C 0.45878 0.54287 0.54257 0.0
C307 C 0.47887 0.58969 0.51503 0.0
C308 C 0.47881 0.57496 0.47654 0.0
C309 C 0.4587 0.51332 0.46531 0.0
H310 H 0.9815 0.12959 0.73238 0.0
C311 C 0.98179 0.16739 0.71935 0.0
H312 H 0.94702 0.22661 0.7269 0.0
H313 H 0.94817 0.10281 0.89106 0.0
H314 H 0.87163 -0.00033 0.87045 0.0
H315 H 0.8315 0.98821 0.8102 0.0
H316 H 0.86886 0.08017 0.76989 0.0
C317 C 0.95185 0.19261 0.7408 0.0
C318 C 0.96019 0.202 0.78165 0.0
C319 C 0.93481 0.14848 0.8061 0.0
C320 C 0.95663 0.15532 0.8412 0.0
C321 C 0.93299 0.10057 0.86413 0.0
C322 C 0.88887 0.04097 0.8527 0.0
C323 C 0.86635 0.03452 0.81877 0.0
C324 C 0.88846 0.08752 0.7958 0.0
H325 H 0.97527 0.27229 0.91204 0.0
C326 C -0.00204 0.24843 0.91898 0.0
H327 H 0.04339 0.1995 0.89596 0.0
H328 H 0.01876 0.31702 0.74252 0.0
H329 H 0.09591 0.41892 0.76384 0.0
H330 H 0.12882 0.43006 0.82607 0.0
H331 H 0.08679 0.3389 0.86733 0.0
C332 C 0.01961 0.22298 0.8907 0.0
C333 C 0.00096 0.21619 0.8528 0.0
C334 C 0.02416 0.27015 0.82949 0.0
C335 C 0.00411 0.2633 0.79369 0.0
C336 C 0.03091 0.31827 0.77024 0.0
C337 C 0.07526 0.37753 0.78207 0.0
C338 C 0.09408 0.38395 0.81719 0.0
C339 C 0.06914 0.33112 0.84068 0.0
H340 H 0.88062 0.73498 0.45778 0.0
C341 C 0.83678 0.71758 0.47798 0.0
H342 H 0.74031 0.68723 0.48588 0.0
H343 H 0.87196 0.83307 0.31315 0.0
H344 H 0.9423 0.92533 0.34591 0.0
H345 H 0.93671 0.92135 0.41558 0.0
H346 H 0.86256 0.82486 0.45255 0.0
C347 C 0.78394 0.70341 0.46569 0.0
C348 C 0.7834 0.70814 0.4244 0.0
C349 C 0.82494 0.76643 0.40362 0.0
C350 C 0.82612 0.76941 0.36374 0.0
C351 C 0.86914 0.82768 0.34343 0.0
C352 C 0.90985 0.88126 0.36189 0.0
C353 C 0.90694 0.87898 0.40109 0.0
C354 C 0.86439 0.82281 0.42194 0.0
H355 H 0.68248 0.69639 0.31928 0.0
C356 C 0.72478 0.71578 0.2976 0.0
H357 H 0.8197 0.74035 0.28355 0.0
H358 H 0.69853 0.58909 0.45569 0.0
H359 H 0.62958 0.49636 0.42232 0.0
H360 H 0.63174 0.50201 0.35305 0.0
H361 H 0.70267 0.60073 0.31684 0.0
C362 C 0.77768 0.722 0.30537 0.0
C363 C 0.7833 0.71519 0.34526 0.0
C364 C 0.74255 0.65687 0.36581 0.0
C365 C 0.74217 0.65346 0.40554 0.0
C366 C 0.70073 0.59462 0.42546 0.0
C367 C 0.661 0.54087 0.40663 0.0
C368 C 0.66213 0.54407 0.36765 0.0
C369 C 0.70261 0.60116 0.34728 0.0
H370 H 0.35295 0.04232 0.81835 0.0
C371 C 0.33047 0.06892 0.81724 0.0
H372 H 0.2959 0.12189 0.8483 0.0
H373 H 0.21836 0.97396 1.00394 0.0
H374 H 0.12672 0.979 0.99953 0.0
H375 H 0.12109 0.0227 0.94156 0.0
H376 H 0.20817 0.06467 0.88856 0.0
C377 C 0.31808 0.09514 0.8491 0.0
C378 C 0.32372 0.07708 0.88642 0.0
C379 C 0.26975 0.04805 0.91553 0.0
C380 C 0.27081 0.01819 0.94755 0.0
C381 C 0.21878 -0.00559 0.97802 0.0
C382 C 0.16595 -0.00279 0.97597 0.0
C383 C 0.16295 0.02216 0.94339 0.0
C384 C 0.21373 0.04664 0.91325 0.0
H385 H 0.39494 0.04848 1.00124 0.0
C386 C 0.35594 -0.0004 1.00612 0.0
H387 H 0.27695 0.92565 0.98406 0.0
H388 H 0.44164 0.14851 0.84417 0.0
H389 H 0.53423 0.14425 0.84847 0.0
H390 H 0.52903 0.07448 0.89656 0.0
H391 H 0.43269 0.01124 0.94163 0.0
C392 C 0.31882 0.97269 0.97943 0.0
C393 C 0.32308 0.01201 0.94845 0.0
C394 C 0.37831 0.0441 0.92057 0.0
C395 C 0.37976 0.08001 0.8909 0.0
C396 C 0.43732 0.11742 0.86575 0.0
C397 C 0.4907 0.11574 0.86812 0.0
C398 C 0.48785 0.0767 0.89531 0.0
C399 C 0.43234 0.04097 0.92122 0.0
H400 H 0.85366 0.87814 0.99871 0.0
C401 C 0.85825 0.92382 0.99826 0.0
H402 H 0.8871 0.00276 0.96389 0.0
H403 H 0.07108 0.98894 0.82554 0.0
H404 H 0.13792 0.0889 0.85319 0.0
H405 H 0.09921 0.12026 0.91392 0.0
H406 H -0.00573 0.05049 0.94849 0.0
C407 C 0.88088 0.95635 0.96425 0.0
C408 C 0.90424 0.93447 0.92718 0.0
C409 C 0.96661 0.97486 0.90697 0.0
C410 C 0.98936 0.9561 0.87169 0.0
C411 C 0.05145 -0.00092 0.85264 0.0
C412 C 0.09036 0.05732 0.86794 0.0
C413 C 0.0686 0.075 0.90215 0.0
C414 C 0.00785 0.03442 0.92162 0.0
H415 H 0.90027 0.84404 0.79008 0.0
C416 C 0.94748 0.85267 0.78817 0.0
H417 H 0.02467 0.88553 0.81655 0.0
H418 H 0.77903 0.84923 0.95225 0.0
H419 H 0.71523 0.74428 0.92879 0.0
H420 H 0.75983 0.70515 0.87459 0.0
H421 H 0.86753 0.77157 0.84247 0.0
C422 C 0.97712 0.87626 0.81915 0.0
C423 C 0.95069 0.89573 0.85619 0.0
C424 C 0.88903 0.85446 0.8772 0.0
C425 C 0.86501 0.87492 0.91123 0.0
C426 C 0.80119 0.83476 0.9284 0.0
C427 C 0.76374 0.77452 0.91495 0.0
C428 C 0.7887 0.75267 0.88424 0.0
C429 C 0.85051 0.7918 0.86562 0.0
H430 H 0.21686 0.93886 0.33512 0.0
C431 C 0.23464 0.98908 0.33428 0.0
H432 H 0.24171 0.06591 0.36637 0.0
H433 H 0.0282 0.93668 0.50778 0.0
H434 H -0.00435 -0.00454 0.47727 0.0
H435 H 0.04946 0.04511 0.41327 0.0
H436 H 0.13694 0.03756 0.37959 0.0
C437 C 0.22685 0.01645 0.36747 0.0
C438 C 0.19073 0.98014 0.40537 0.0
C439 C 0.13758 0.98253 0.42459 0.0
C440 C 0.10489 0.95187 0.46133 0.0
C441 C 0.05388 0.95774 0.47979 0.0
C442 C 0.03475 0.99154 0.46265 0.0
C443 C 0.06519 0.0197 0.42667 0.0
C444 C 0.11569 0.01518 0.40769 0.0
H445 H 0.16752 0.93903 0.54542 0.0
C446 C 0.11748 0.90259 0.54957 0.0
H447 H 0.03812 0.85146 0.5219 0.0
H448 H 0.29443 0.97123 0.38089 0.0
H449 H 0.324 0.90866 0.41012 0.0
H450 H 0.26087 0.84672 0.46975 0.0
H451 H 0.16861 0.8483 0.50117 0.0
C452 C 0.08876 0.88521 0.51837 0.0
C453 C 0.12376 0.91703 0.47919 0.0
C454 C 0.1758 0.91314 0.45956 0.0
C455 C 0.21021 0.946 0.42351 0.0
C456 C 0.26459 0.94472 0.40683 0.0
C457 C 0.2825 0.90939 0.42353 0.0
C458 C 0.24713 0.87475 0.45722 0.0
C459 C 0.19447 0.87645 0.47512 0.0
H460 H 0.25464 0.17244 0.89829 0.0
C461 C 0.24592 0.21028 0.90447 0.0
H462 H 0.23768 0.26892 0.94733 0.0
H463 H 0.1631 0.124 0.10252 0.0
H464 H 0.07906 0.14301 0.10243 0.0
H465 H 0.0708 0.18551 1.0455 0.0
H466 H 0.14474 0.20758 0.9869 0.0
C467 C 0.2449 0.22991 0.94134 0.0
C468 C 0.24991 0.19967 0.97582 0.0
C469 C 0.20472 0.18396 1.01012 0.0
C470 C 0.21031 0.16015 1.04403 0.0
C471 C 0.16307 0.14425 0.07671 0.0
C472 C 0.11388 0.15405 0.07701 0.0
C473 C 0.10897 0.17774 1.04471 0.0
C474 C 0.1527 0.1913 1.01141 0.0
H475 H 0.27733 0.19769 0.11717 0.0
C476 C 0.27514 0.15305 0.1148 0.0
H477 H 0.26648 0.08063 0.07717 0.0
H478 H 0.35295 0.23445 0.91996 0.0
H479 H 0.43852 0.21822 0.92057 0.0
H480 H 0.44253 0.16846 0.97638 0.0
H481 H 0.36238 0.13739 1.03296 0.0
C482 C 0.26703 0.12443 0.08026 0.0
C483 C 0.26134 0.15144 1.04465 0.0
C484 C 0.30587 0.16587 1.01021 0.0
C485 C 0.30147 0.19157 0.97662 0.0
C486 C 0.35109 0.21125 0.94501 0.0
C487 C 0.40123 0.20299 0.94518 0.0
C488 C 0.40366 0.17523 0.97669 0.0
C489 C 0.35703 0.15725 1.00894 0.0
H490 H 0.9283 0.09329 0.22151 0.0
C491 C 0.87826 0.05842 0.22529 0.0
H492 H 0.79583 0.00724 0.26524 0.0
H493 H 0.88713 0.01535 0.41866 0.0
H494 H 0.80345 0.9063 0.41426 0.0
H495 H 0.75914 0.86702 0.35485 0.0
H496 H 0.79438 0.93726 0.30049 0.0
C497 C 0.84638 0.04135 0.26148 0.0
C498 C 0.8785 0.06559 0.29689 0.0
C499 C 0.86174 0.02273 0.32754 0.0
C500 C 0.89096 0.04448 0.3611 0.0
C501 C 0.86846 0.00126 0.39217 0.0
C502 C 0.82029 0.93847 0.39009 0.0
C503 C 0.79507 0.91642 0.3567 0.0
C504 C 0.81563 0.95761 0.32568 0.0
H505 H 0.95877 0.20198 0.41291 0.0
C506 C 0.97929 0.17662 0.42084 0.0
H507 H -0.00628 0.10162 0.40525 0.0
H508 H 0.90868 0.16733 0.25299 0.0
H509 H -0.0025 0.27435 0.25477 0.0
H510 H 0.06538 0.30511 0.30392 0.0
H511 H 0.04224 0.22987 0.35298 0.0
C512 C 0.97493 0.1289 0.39798 0.0
C513 C 0.94109 0.10824 0.36343 0.0
C514 C 0.95925 0.15068 0.33238 0.0
C515 C 0.92497 0.13071 0.3009 0.0
C516 C 0.93765 0.17753 0.27455 0.0
C517 C 0.98777 0.23964 0.27575 0.0
C518 C 0.02563 0.25709 0.30362 0.0
C519 C 0.01148 0.21348 0.33182 0.0
loop_
_geom_bond_atom_site_label_1
_geom_bond_atom_site_label_2
_geom_bond_distance
_geom_bond_site_symmetry_2
_ccdc_geom_bond_type
C0 Eu1 2.835 . S
C0 C2 1.500 . S
C0 O20 1.257 . S
C0 O21 1.260 . S
Eu1 C0 2.835 . S
Eu1 O20 2.473 . S
Eu1 O21 2.480 . S
Eu1 O22 2.430 . S
Eu1 O23 2.670 . S
Eu1 O24 2.394 . S
Eu1 O29 2.355 . S
Eu1 O31 2.374 . S
C2 C0 1.500 . S
C2 C3 1.377 1_545 S
C2 C7 1.377 . S
C3 C2 1.377 1_565 S
C3 C4 1.395 1_554 S
C3 H32 0.931 . S
C4 C3 1.395 1_556 S
C4 C5 1.383 . S
C4 H33 0.931 . S
C5 C4 1.383 . S
C5 C6 1.394 . S
C6 C5 1.394 . S
C6 C7 1.378 1_566 S
C6 H34 0.931 1_565 S
C7 C2 1.377 . S
C7 C6 1.378 1_544 S
C7 H35 0.931 . S
C8 O22 1.259 . S
C8 O23 1.270 . S
C9 O24 1.251 . S
C9 O25 1.251 . S
C10 Eu11 2.835 . S
C10 C12 1.500 . S
C10 O26 1.257 . S
C10 O27 1.260 . S
Eu11 C10 2.835 . S
Eu11 O23 2.355 . S
Eu11 O25 2.374 . S
Eu11 O26 2.473 . S
Eu11 O27 2.480 . S
Eu11 O28 2.430 . S
Eu11 O29 2.670 . S
Eu11 O30 2.394 . S
C12 C10 1.500 . S
C12 C13 1.377 . S
C12 C17 1.377 . S
C13 C12 1.377 . S
C13 C14 1.395 . S
C13 H36 0.931 . S
C14 C13 1.395 . S
C14 C15 1.383 . S
C14 H37 0.931 . S
C15 C14 1.383 . S
C15 C16 1.394 . S
C16 C15 1.394 . S
C16 C17 1.378 . S
C16 H38 0.931 . S
C17 C12 1.377 . S
C17 C16 1.378 . S
C17 H39 0.931 . S
C18 O28 1.259 . S
C18 O29 1.270 . S
C19 O30 1.251 . S
C19 O31 1.251 . S
O20 C0 1.257 . S
O20 Eu1 2.473 . S
O21 C0 1.260 . S
O21 Eu1 2.480 . S
O22 Eu1 2.430 . S
O22 C8 1.259 . S
O23 Eu1 2.670 . S
O23 C8 1.270 . S
O23 Eu11 2.355 . S
O24 Eu1 2.394 . S
O24 C9 1.251 . S
O25 C9 1.251 . S
O25 Eu11 2.374 . S
O26 C10 1.257 . S
O26 Eu11 2.473 . S
O27 C10 1.260 . S
O27 Eu11 2.480 . S
O28 Eu11 2.430 . S
O28 C18 1.259 . S
O29 Eu1 2.355 . S
O29 Eu11 2.670 . S
O29 C18 1.270 . S
O30 Eu11 2.394 . S
O30 C19 1.251 . S
O31 Eu1 2.374 . S
O31 C19 1.251 . S
H32 C3 0.931 . S
H33 C4 0.931 . S
H34 C6 0.931 1_545 S
H35 C7 0.931 . S
H36 C13 0.931 . S
H37 C14 0.931 . S
H38 C16 0.931 . S
H39 C17 0.931 . S
C40 Eu41 2.835 . S
C40 C42 1.500 . S
C40 O60 1.257 . S
C40 O61 1.260 . S
Eu41 C40 2.835 . S
Eu41 O60 2.473 . S
Eu41 O61 2.480 . S
Eu41 O62 2.430 . S
Eu41 O63 2.670 . S
Eu41 O64 2.394 . S
Eu41 O69 2.355 . S
Eu41 O71 2.374 . S
C42 C40 1.500 . S
C42 C43 1.377 . S
C42 C47 1.377 . S
C43 C42 1.377 . S
C43 C44 1.395 . S
C43 H72 0.931 . S
C44 C43 1.395 . S
C44 C45 1.383 . S
C44 H73 0.931 . S
C45 C44 1.383 . S
C45 C46 1.394 . S
C46 C45 1.394 . S
C46 C47 1.378 . S
C46 H74 0.931 . S
C47 C42 1.377 . S
C47 C46 1.378 . S
C47 H75 0.931 . S
C48 O62 1.259 . S
C48 O63 1.270 . S
C49 O64 1.251 . S
C49 O65 1.251 . S
C50 Eu51 2.835 . S
C50 C52 1.500 . S
C50 O66 1.257 . S
C50 O67 1.260 . S
Eu51 C50 2.835 . S
Eu51 O63 2.355 . S
Eu51 O65 2.374 . S
Eu51 O66 2.473 . S
Eu51 O67 2.480 . S
Eu51 O68 2.430 . S
Eu51 O69 2.670 . S
Eu51 O70 2.394 . S
C52 C50 1.500 . S
C52 C53 1.377 . S
C52 C57 1.377 . S
C53 C52 1.377 . S
C53 C54 1.395 1_455 S
C53 H76 0.931 . S
C54 C53 1.395 1_655 S
C54 C55 1.381 . S
C54 H77 0.931 . S
C55 C54 1.381 . S
C55 C56 1.393 1_655 S
C56 C55 1.393 1_455 S
C56 C57 1.378 . S
C56 H78 0.931 . S
C57 C52 1.377 . S
C57 C56 1.378 . S
C57 H79 0.931 . S
C58 O68 1.259 . S
C58 O69 1.270 . S
C59 O70 1.251 . S
C59 O71 1.251 . S
O60 C40 1.257 . S
O60 Eu41 2.473 . S
O61 C40 1.260 . S
O61 Eu41 2.480 . S
O62 Eu41 2.430 . S
O62 C48 1.259 . S
O63 Eu41 2.670 . S
O63 C48 1.270 . S
O63 Eu51 2.355 . S
O64 Eu41 2.394 . S
O64 C49 1.251 . S
O65 C49 1.251 . S
O65 Eu51 2.374 . S
O66 C50 1.257 . S
O66 Eu51 2.473 . S
O67 C50 1.260 . S
O67 Eu51 2.480 . S
O68 Eu51 2.430 . S
O68 C58 1.259 . S
O69 Eu41 2.355 . S
O69 Eu51 2.670 . S
O69 C58 1.270 . S
O70 Eu51 2.394 . S
O70 C59 1.251 . S
O71 Eu41 2.374 . S
O71 C59 1.251 . S
H72 C43 0.931 . S
H73 C44 0.931 . S
H74 C46 0.931 . S
H75 C47 0.931 . S
H76 C53 0.931 . S
H77 C54 0.931 . S
H78 C56 0.931 . S
H79 C57 0.931 . S
C80 Eu81 2.835 1_556 S
C80 C82 1.500 . S
C80 O100 1.257 1_556 S
C80 O101 1.252 1_556 S
Eu81 C80 2.835 1_554 S
Eu81 O100 2.473 . S
Eu81 O101 2.494 . S
Eu81 O102 2.430 . S
Eu81 O103 2.670 . S
Eu81 O104 2.389 1_545 S
Eu81 O109 2.355 . S
Eu81 O111 2.374 . S
C82 C80 1.500 . S
C82 C83 1.377 . S
C82 C87 1.377 . S
C83 C82 1.377 . S
C83 C84 1.395 . S
C83 H112 0.915 1_655 S
C84 C83 1.395 . S
C84 C85 1.383 . S
C84 H113 0.931 1_655 S
C85 C84 1.383 . S
C85 C86 1.394 . S
C86 C85 1.394 . S
C86 C87 1.378 . S
C86 H114 0.931 . S
C87 C82 1.377 . S
C87 C86 1.378 . S
C87 H115 0.931 . S
C88 O102 1.259 . S
C88 O103 1.270 . S
C89 O104 1.255 . S
C89 O105 1.251 . S
C90 Eu91 2.835 . S
C90 C92 1.500 . S
C90 O106 1.257 . S
C90 O107 1.260 . S
Eu91 C90 2.835 . S
Eu91 O103 2.355 1_565 S
Eu91 O105 2.374 . S
Eu91 O106 2.473 . S
Eu91 O107 2.480 . S
Eu91 O108 2.430 . S
Eu91 O109 2.670 1_565 S
Eu91 O110 2.394 1_565 S
C92 C90 1.500 . S
C92 C93 1.377 . S
C92 C97 1.377 . S
C93 C92 1.377 . S
C93 C94 1.395 . S
C93 H116 0.931 . S
C94 C93 1.395 . S
C94 C95 1.383 . S
C94 H117 0.931 . S
C95 C94 1.383 . S
C95 C96 1.394 . S
C96 C95 1.394 . S
C96 C97 1.378 . S
C96 H118 0.931 . S
C97 C92 1.377 . S
C97 C96 1.378 . S
C97 H119 0.931 . S
C98 O108 1.259 . S
C98 O109 1.270 1_565 S
C99 O110 1.251 . S
C99 O111 1.251 . S
O100 C80 1.257 1_554 S
O100 Eu81 2.473 . S
O101 C80 1.252 1_554 S
O101 Eu81 2.494 . S
O102 Eu81 2.430 . S
O102 C88 1.259 . S
O103 Eu81 2.670 . S
O103 C88 1.270 . S
O103 Eu91 2.355 1_545 S
O104 Eu81 2.389 1_565 S
O104 C89 1.255 . S
O105 C89 1.251 . S
O105 Eu91 2.374 . S
O106 C90 1.257 . S
O106 Eu91 2.473 . S
O107 C90 1.260 . S
O107 Eu91 2.480 . S
O108 Eu91 2.430 . S
O108 C98 1.259 . S
O109 Eu81 2.355 . S
O109 Eu91 2.670 1_545 S
O109 C98 1.270 1_545 S
O110 Eu91 2.394 1_545 S
O110 C99 1.251 . S
O111 Eu81 2.374 . S
O111 C99 1.251 . S
H112 C83 0.915 1_455 S
H113 C84 0.931 1_455 S
H114 C86 0.931 . S
H115 C87 0.931 . S
H116 C93 0.931 . S
H117 C94 0.931 . S
H118 C96 0.931 . S
H119 C97 0.931 . S
C120 Eu121 2.835 . S
C120 C122 1.500 . S
C120 O140 1.257 . S
C120 O141 1.260 . S
Eu121 C120 2.835 . S
Eu121 O140 2.473 . S
Eu121 O141 2.480 . S
Eu121 O142 2.430 . S
Eu121 O143 2.670 . S
Eu121 O144 2.394 1_455 S
Eu121 O149 2.355 . S
Eu121 O151 2.374 . S
C122 C120 1.500 . S
C122 C123 1.377 . S
C122 C127 1.377 . S
C123 C122 1.377 . S
C123 C124 1.395 . S
C123 H152 0.931 . S
C124 C123 1.395 . S
C124 C125 1.383 . S
C124 H153 0.931 . S
C125 C124 1.383 . S
C125 C126 1.394 . S
C126 C125 1.394 . S
C126 C127 1.378 . S
C126 H154 0.931 . S
C127 C122 1.377 . S
C127 C126 1.378 . S
C127 H155 0.931 . S
C128 O142 1.259 . S
C128 O143 1.270 . S
C129 O144 1.251 . S
C129 O145 1.251 . S
C130 Eu131 2.835 . S
C130 C132 1.500 . S
C130 O146 1.257 . S
C130 O147 1.260 . S
Eu131 C130 2.835 . S
Eu131 O143 2.355 1_655 S
Eu131 O145 2.374 . S
Eu131 O146 2.473 . S
Eu131 O147 2.480 . S
Eu131 O148 2.430 . S
Eu131 O149 2.670 1_655 S
Eu131 O150 2.394 1_655 S
C132 C130 1.500 . S
C132 C133 1.377 . S
C132 C137 1.377 . S
C133 C132 1.377 . S
C133 C134 1.395 . S
C133 H156 0.931 . S
C134 C133 1.395 . S
C134 C135 1.383 . S
C134 H157 0.931 . S
C135 C134 1.383 . S
C135 C136 1.394 . S
C136 C135 1.394 . S
C136 C137 1.378 . S
C136 H158 0.931 . S
C137 C132 1.377 . S
C137 C136 1.378 . S
C137 H159 0.931 . S
C138 O148 1.259 . S
C138 O149 1.270 1_655 S
C139 O150 1.251 . S
C139 O151 1.251 . S
O140 C120 1.257 . S
O140 Eu121 2.473 . S
O141 C120 1.260 . S
O141 Eu121 2.480 . S
O142 Eu121 2.430 . S
O142 C128 1.259 . S
O143 Eu121 2.670 . S
O143 C128 1.270 . S
O143 Eu131 2.355 1_455 S
O144 Eu121 2.394 1_655 S
O144 C129 1.251 . S
O145 C129 1.251 . S
O145 Eu131 2.374 . S
O146 C130 1.257 . S
O146 Eu131 2.473 . S
O147 C130 1.260 . S
O147 Eu131 2.480 . S
O148 Eu131 2.430 . S
O148 C138 1.259 . S
O149 Eu121 2.355 . S
O149 Eu131 2.670 1_455 S
O149 C138 1.270 1_455 S
O150 Eu131 2.394 1_455 S
O150 C139 1.251 . S
O151 Eu121 2.374 . S
O151 C139 1.251 . S
H152 C123 0.931 . S
H153 C124 0.931 . S
H154 C126 0.931 . S
H155 C127 0.931 . S
H156 C133 0.931 . S
H157 C134 0.931 . S
H158 C136 0.931 . S
H159 C137 0.931 . S
H160 C161 0.951 . S
C161 H160 0.951 . S
C161 C167 1.265 . S
H162 C167 0.950 . S
H163 C171 0.949 . S
H164 C172 0.950 . S
H165 C173 0.951 . S
H166 C174 0.951 . S
C167 C161 1.265 . S
C167 H162 0.950 . S
C167 C168 1.478 1_655 S
C168 C167 1.478 1_455 S
C168 C169 1.397 . S
C168 C185 1.394 . S
C169 C168 1.397 . S
C169 C170 1.438 . S
C169 C174 1.429 1_445 S
C170 C169 1.438 . S
C170 C171 1.428 . S
C170 C183 1.394 . S
C171 H163 0.949 . S
C171 C170 1.428 . S
C171 C172 1.345 1_545 S
C172 H164 0.950 . S
C172 C171 1.345 1_565 S
C172 C173 1.424 1_455 S
C173 H165 0.951 . S
C173 C172 1.424 1_655 S
C173 C174 1.347 . S
C174 H166 0.951 . S
C174 C169 1.429 1_665 S
C174 C173 1.347 . S
H175 C176 0.951 . S
C176 H175 0.951 . S
C176 C182 1.265 . S
H177 C182 0.950 . S
H178 C186 0.949 . S
H179 C187 0.950 . S
H180 C188 0.951 . S
H181 C189 0.951 . S
C182 C176 1.265 . S
C182 H177 0.950 . S
C182 C183 1.478 . S
C183 C170 1.394 . S
C183 C182 1.478 . S
C183 C184 1.397 . S
C184 C183 1.397 . S
C184 C185 1.438 . S
C184 C189 1.429 . S
C185 C168 1.394 . S
C185 C184 1.438 . S
C185 C186 1.428 . S
C186 H178 0.949 . S
C186 C185 1.428 . S
C186 C187 1.345 . S
C187 H179 0.950 . S
C187 C186 1.345 . S
C187 C188 1.424 . S
C188 H180 0.951 . S
C188 C187 1.424 . S
C188 C189 1.347 . S
C189 H181 0.951 . S
C189 C184 1.429 . S
C189 C188 1.347 . S
H190 C191 0.951 . S
C191 H190 0.951 . S
C191 C197 1.265 1_655 S
H192 C197 0.950 . S
H193 C201 0.949 . S
H194 C202 0.950 . S
H195 C203 0.951 . S
H196 C204 0.951 1_565 S
C197 C191 1.265 1_455 S
C197 H192 0.950 . S
C197 C198 1.478 . S
C198 C197 1.478 . S
C198 C199 1.397 1_565 S
C198 C215 1.394 1_565 S
C199 C198 1.397 1_545 S
C199 C200 1.438 . S
C199 C204 1.429 . S
C200 C199 1.438 . S
C200 C201 1.428 . S
C200 C213 1.394 . S
C201 H193 0.949 . S
C201 C200 1.428 . S
C201 C202 1.345 . S
C202 H194 0.950 . S
C202 C201 1.345 . S
C202 C203 1.424 . S
C203 H195 0.951 . S
C203 C202 1.424 . S
C203 C204 1.347 . S
C204 H196 0.951 1_545 S
C204 C199 1.429 . S
C204 C203 1.347 . S
H205 C206 0.951 . S
C206 H205 0.951 . S
C206 C212 1.265 . S
H207 C212 0.950 . S
H208 C216 0.949 . S
H209 C217 0.950 1_665 S
H210 C218 0.951 . S
H211 C219 0.951 . S
C212 C206 1.265 . S
C212 H207 0.950 . S
C212 C213 1.478 . S
C213 C200 1.394 . S
C213 C212 1.478 . S
C213 C214 1.397 . S
C214 C213 1.397 . S
C214 C215 1.438 . S
C214 C219 1.429 . S
C215 C198 1.394 1_545 S
C215 C214 1.438 . S
C215 C216 1.428 1_545 S
C216 H208 0.949 . S
C216 C215 1.428 1_565 S
C216 C217 1.345 1_565 S
C217 H209 0.950 1_445 S
C217 C216 1.345 1_545 S
C217 C218 1.424 . S
C218 H210 0.951 . S
C218 C217 1.424 . S
C218 C219 1.347 . S
C219 H211 0.951 . S
C219 C214 1.429 . S
C219 C218 1.347 . S
H220 C221 0.951 . S
C221 H220 0.951 . S
C221 C227 1.265 1_565 S
H222 C227 0.950 . S
H223 C231 0.949 . S
H224 C232 0.950 . S
H225 C233 0.951 . S
H226 C234 0.951 . S
C227 C221 1.265 1_545 S
C227 H222 0.950 . S
C227 C228 1.478 . S
C228 C227 1.478 . S
C228 C229 1.397 . S
C228 C245 1.394 . S
C229 C228 1.397 . S
C229 C230 1.438 . S
C229 C234 1.429 . S
C230 C229 1.438 . S
C230 C231 1.428 . S
C230 C243 1.394 . S
C231 H223 0.949 . S
C231 C230 1.428 . S
C231 C232 1.345 . S
C232 H224 0.950 . S
C232 C231 1.345 . S
C232 C233 1.424 . S
C233 H225 0.951 . S
C233 C232 1.424 . S
C233 C234 1.347 . S
C234 H226 0.951 . S
C234 C229 1.429 . S
C234 C233 1.347 . S
H235 C236 0.951 . S
C236 H235 0.951 . S
C236 C242 1.265 . S
H237 C242 0.950 . S
H238 C246 0.949 . S
H239 C247 0.950 . S
H240 C248 0.951 . S
H241 C249 0.951 . S
C242 C236 1.265 . S
C242 H237 0.950 . S
C242 C243 1.478 . S
C243 C230 1.394 . S
C243 C242 1.478 . S
C243 C244 1.397 . S
C244 C243 1.397 . S
C244 C245 1.438 . S
C244 C249 1.429 . S
C245 C228 1.394 . S
C245 C244 1.438 . S
C245 C246 1.428 1_545 S
C246 H238 0.949 . S
C246 C245 1.428 1_565 S
C246 C247 1.345 . S
C247 H239 0.950 . S
C247 C246 1.345 . S
C247 C248 1.424 . S
C248 H240 0.951 . S
C248 C247 1.424 . S
C248 C249 1.347 1_565 S
C249 H241 0.951 . S
C249 C244 1.429 . S
C249 C248 1.347 1_545 S
H250 C251 0.951 . S
C251 H250 0.951 . S
C251 C257 1.265 . S
H252 C257 0.950 . S
H253 C261 0.949 . S
H254 C262 0.950 1_655 S
H255 C263 0.951 . S
H256 C264 0.951 . S
C257 C251 1.265 . S
C257 H252 0.950 . S
C257 C258 1.478 . S
C258 C257 1.478 . S
C258 C259 1.397 . S
C258 C275 1.394 . S
C259 C258 1.397 . S
C259 C260 1.438 . S
C259 C264 1.429 . S
C260 C259 1.438 . S
C260 C261 1.428 . S
C260 C273 1.394 . S
C261 H253 0.949 . S
C261 C260 1.428 . S
C261 C262 1.345 . S
C262 H254 0.950 1_455 S
C262 C261 1.345 . S
C262 C263 1.424 . S
C263 H255 0.951 . S
C263 C262 1.424 . S
C263 C264 1.347 . S
C264 H256 0.951 . S
C264 C259 1.429 . S
C264 C263 1.347 . S
H265 C266 0.951 . S
C266 H265 0.951 . S
C266 C272 1.265 1_655 S
H267 C272 0.950 . S
H268 C276 0.949 . S
H269 C277 0.950 . S
H270 C278 0.951 . S
H271 C279 0.951 . S
C272 C266 1.265 1_455 S
C272 H267 0.950 . S
C272 C273 1.478 . S
C273 C260 1.394 . S
C273 C272 1.478 . S
C273 C274 1.397 . S
C274 C273 1.397 . S
C274 C275 1.438 . S
C274 C279 1.429 . S
C275 C258 1.394 . S
C275 C274 1.438 . S
C275 C276 1.428 . S
C276 H268 0.949 . S
C276 C275 1.428 . S
C276 C277 1.345 . S
C277 H269 0.950 . S
C277 C276 1.345 . S
C277 C278 1.424 . S
C278 H270 0.951 . S
C278 C277 1.424 . S
C278 C279 1.347 . S
C279 H271 0.951 . S
C279 C274 1.429 . S
C279 C278 1.347 . S
H280 C281 0.951 . S
C281 H280 0.951 . S
C281 C287 1.265 . S
H282 C287 0.950 . S
H283 C291 0.949 . S
H284 C292 0.950 . S
H285 C293 0.951 . S
H286 C294 0.951 . S
C287 C281 1.265 . S
C287 H282 0.950 . S
C287 C288 1.478 . S
C288 C287 1.478 . S
C288 C289 1.397 . S
C288 C305 1.394 . S
C289 C288 1.397 . S
C289 C290 1.438 . S
C289 C294 1.429 . S
C290 C289 1.438 . S
C290 C291 1.428 . S
C290 C303 1.394 . S
C291 H283 0.949 . S
C291 C290 1.428 . S
C291 C292 1.345 . S
C292 H284 0.950 . S
C292 C291 1.345 . S
C292 C293 1.424 . S
C293 H285 0.951 . S
C293 C292 1.424 . S
C293 C294 1.347 . S
C294 H286 0.951 . S
C294 C289 1.429 . S
C294 C293 1.347 . S
H295 C296 0.951 . S
C296 H295 0.951 . S
C296 C302 1.265 . S
H297 C302 0.950 . S
H298 C306 0.949 . S
H299 C307 0.950 . S
H300 C308 0.951 . S
H301 C309 0.951 . S
C302 C296 1.265 . S
C302 H297 0.950 . S
C302 C303 1.478 . S
C303 C290 1.394 . S
C303 C302 1.478 . S
C303 C304 1.397 . S
C304 C303 1.397 . S
C304 C305 1.438 . S
C304 C309 1.429 . S
C305 C288 1.394 . S
C305 C304 1.438 . S
C305 C306 1.428 . S
C306 H298 0.949 . S
C306 C305 1.428 . S
C306 C307 1.345 . S
C307 H299 0.950 . S
C307 C306 1.345 . S
C307 C308 1.424 . S
C308 H300 0.951 . S
C308 C307 1.424 . S
C308 C309 1.347 . S
C309 H301 0.951 . S
C309 C304 1.429 . S
C309 C308 1.347 . S
H310 C311 0.951 . S
C311 H310 0.951 . S
C311 C317 1.265 . S
H312 C317 0.950 . S
H313 C321 0.949 . S
H314 C322 0.950 . S
H315 C323 0.951 . S
H316 C324 0.951 1_455 S
C317 C311 1.265 . S
C317 H312 0.950 . S
C317 C318 1.478 . S
C318 C317 1.478 . S
C318 C319 1.396 . S
C318 C335 1.394 . S
C319 C318 1.396 . S
C319 C320 1.437 1_455 S
C319 C324 1.430 1_455 S
C320 C319 1.437 1_655 S
C320 C321 1.428 . S
C320 C333 1.394 . S
C321 H313 0.949 . S
C321 C320 1.428 . S
C321 C322 1.345 . S
C322 H314 0.950 . S
C322 C321 1.345 . S
C322 C323 1.424 . S
C323 H315 0.951 . S
C323 C322 1.424 . S
C323 C324 1.347 . S
C324 H316 0.951 1_655 S
C324 C319 1.430 1_655 S
C324 C323 1.347 . S
H325 C326 0.951 . S
C326 H325 0.951 . S
C326 C332 1.265 . S
H327 C332 0.950 1_455 S
H328 C336 0.949 . S
H329 C337 0.950 . S
H330 C338 0.951 . S
H331 C339 0.951 . S
C332 C326 1.265 . S
C332 H327 0.950 1_655 S
C332 C333 1.478 . S
C333 C320 1.394 . S
C333 C332 1.478 . S
C333 C334 1.397 1_655 S
C334 C333 1.397 1_455 S
C334 C335 1.438 . S
C334 C339 1.429 . S
C335 C318 1.394 . S
C335 C334 1.438 . S
C335 C336 1.428 . S
C336 H328 0.949 . S
C336 C335 1.428 . S
C336 C337 1.345 . S
C337 H329 0.950 . S
C337 C336 1.345 . S
C337 C338 1.424 . S
C338 H330 0.951 . S
C338 C337 1.424 . S
C338 C339 1.347 . S
C339 H331 0.951 . S
C339 C334 1.429 . S
C339 C338 1.347 . S
H340 C341 0.951 . S
C341 H340 0.951 . S
C341 C347 1.265 . S
H342 C347 0.950 . S
H343 C351 0.949 . S
H344 C352 0.950 . S
H345 C353 0.951 . S
H346 C354 0.951 . S
C347 C341 1.265 . S
C347 H342 0.950 . S
C347 C348 1.478 . S
C348 C347 1.478 . S
C348 C349 1.397 . S
C348 C365 1.394 . S
C349 C348 1.397 . S
C349 C350 1.438 . S
C349 C354 1.429 . S
C350 C349 1.438 . S
C350 C351 1.428 . S
C350 C363 1.394 . S
C351 H343 0.949 . S
C351 C350 1.428 . S
C351 C352 1.345 . S
C352 H344 0.950 . S
C352 C351 1.345 . S
C352 C353 1.424 . S
C353 H345 0.951 . S
C353 C352 1.424 . S
C353 C354 1.347 . S
C354 H346 0.951 . S
C354 C349 1.429 . S
C354 C353 1.347 . S
H355 C356 0.951 . S
C356 H355 0.951 . S
C356 C362 1.265 . S
H357 C362 0.950 . S
H358 C366 0.949 . S
H359 C367 0.950 . S
H360 C368 0.951 . S
H361 C369 0.951 . S
C362 C356 1.265 . S
C362 H357 0.950 . S
C362 C363 1.478 . S
C363 C350 1.394 . S
C363 C362 1.478 . S
C363 C364 1.397 . S
C364 C363 1.397 . S
C364 C365 1.438 . S
C364 C369 1.429 . S
C365 C348 1.394 . S
C365 C364 1.438 . S
C365 C366 1.428 . S
C366 H358 0.949 . S
C366 C365 1.428 . S
C366 C367 1.345 . S
C367 H359 0.950 . S
C367 C366 1.345 . S
C367 C368 1.424 . S
C368 H360 0.951 . S
C368 C367 1.424 . S
C368 C369 1.347 . S
C369 H361 0.951 . S
C369 C364 1.429 . S
C369 C368 1.347 . S
H370 C371 0.951 . S
C371 H370 0.951 . S
C371 C377 1.265 . S
H372 C377 0.950 . S
H373 C381 0.949 . S
H374 C382 0.950 . S
H375 C383 0.951 . S
H376 C384 0.951 . S
C377 C371 1.265 . S
C377 H372 0.950 . S
C377 C378 1.478 . S
C378 C377 1.478 . S
C378 C379 1.397 . S
C378 C395 1.394 . S
C379 C378 1.397 . S
C379 C380 1.438 . S
C379 C384 1.429 . S
C380 C379 1.438 . S
C380 C381 1.428 . S
C380 C393 1.394 . S
C381 H373 0.949 . S
C381 C380 1.428 . S
C381 C382 1.345 . S
C382 H374 0.950 . S
C382 C381 1.345 . S
C382 C383 1.424 . S
C383 H375 0.951 . S
C383 C382 1.424 . S
C383 C384 1.347 . S
C384 H376 0.951 . S
C384 C379 1.429 . S
C384 C383 1.347 . S
H385 C386 0.951 1_545 S
C386 H385 0.951 1_565 S
C386 C392 1.265 . S
H387 C392 0.950 . S
H388 C396 0.949 . S
H389 C397 0.950 . S
H390 C398 0.951 . S
H391 C399 0.951 . S
C392 C386 1.265 . S
C392 H387 0.950 . S
C392 C393 1.478 . S
C393 C380 1.394 . S
C393 C392 1.478 . S
C393 C394 1.397 . S
C394 C393 1.397 . S
C394 C395 1.438 . S
C394 C399 1.429 . S
C395 C378 1.394 . S
C395 C394 1.438 . S
C395 C396 1.428 . S
C396 H388 0.949 . S
C396 C395 1.428 . S
C396 C397 1.345 . S
C397 H389 0.950 . S
C397 C396 1.345 . S
C397 C398 1.424 . S
C398 H390 0.951 . S
C398 C397 1.424 . S
C398 C399 1.347 . S
C399 H391 0.951 . S
C399 C394 1.429 . S
C399 C398 1.347 . S
H400 C401 0.951 . S
C401 H400 0.951 . S
C401 C407 1.265 . S
H402 C407 0.950 . S
H403 C411 0.949 . S
H404 C412 0.950 1_545 S
H405 C413 0.951 . S
H406 C414 0.951 . S
C407 C401 1.265 . S
C407 H402 0.950 . S
C407 C408 1.478 . S
C408 C407 1.478 . S
C408 C409 1.397 . S
C408 C425 1.394 . S
C409 C408 1.397 . S
C409 C410 1.438 . S
C409 C414 1.429 . S
C410 C409 1.438 . S
C410 C411 1.428 . S
C410 C423 1.394 . S
C411 H403 0.949 . S
C411 C410 1.428 . S
C411 C412 1.345 . S
C412 H404 0.950 1_565 S
C412 C411 1.345 . S
C412 C413 1.424 1_565 S
C413 H405 0.951 . S
C413 C412 1.424 1_545 S
C413 C414 1.347 1_545 S
C414 H406 0.951 . S
C414 C409 1.429 . S
C414 C413 1.347 1_565 S
H415 C416 0.951 . S
C416 H415 0.951 . S
C416 C422 1.265 . S
H417 C422 0.950 . S
H418 C426 0.949 . S
H419 C427 0.950 . S
H420 C428 0.951 . S
H421 C429 0.951 . S
C422 C416 1.265 . S
C422 H417 0.950 . S
C422 C423 1.478 . S
C423 C410 1.394 . S
C423 C422 1.478 . S
C423 C424 1.397 . S
C424 C423 1.397 . S
C424 C425 1.438 . S
C424 C429 1.429 . S
C425 C408 1.394 . S
C425 C424 1.438 . S
C425 C426 1.428 . S
C426 H418 0.949 . S
C426 C425 1.428 . S
C426 C427 1.345 . S
C427 H419 0.950 . S
C427 C426 1.345 . S
C427 C428 1.424 . S
C428 H420 0.951 . S
C428 C427 1.424 . S
C428 C429 1.347 . S
C429 H421 0.951 . S
C429 C424 1.429 . S
C429 C428 1.347 . S
H430 C431 0.951 1_565 S
C431 H430 0.951 1_545 S
C431 C437 1.265 . S
H432 C437 0.950 . S
H433 C441 0.949 . S
H434 C442 0.950 . S
H435 C443 0.951 . S
H436 C444 0.951 . S
C437 C431 1.265 . S
C437 H432 0.950 . S
C437 C438 1.478 1_545 S
C438 C437 1.478 1_565 S
C438 C439 1.397 . S
C438 C455 1.394 . S
C439 C438 1.397 . S
C439 C440 1.438 . S
C439 C444 1.429 1_565 S
C440 C439 1.438 . S
C440 C441 1.428 . S
C440 C453 1.394 . S
C441 H433 0.949 . S
C441 C440 1.428 . S
C441 C442 1.345 1_565 S
C442 H434 0.950 . S
C442 C441 1.345 1_545 S
C442 C443 1.424 . S
C443 H435 0.951 . S
C443 C442 1.424 . S
C443 C444 1.347 . S
C444 H436 0.951 . S
C444 C439 1.429 1_545 S
C444 C443 1.347 . S
H445 C446 0.951 . S
C446 H445 0.951 . S
C446 C452 1.265 . S
H447 C452 0.950 . S
H448 C456 0.949 . S
H449 C457 0.950 . S
H450 C458 0.951 . S
H451 C459 0.951 . S
C452 C446 1.265 . S
C452 H447 0.950 . S
C452 C453 1.478 . S
C453 C440 1.394 . S
C453 C452 1.478 . S
C453 C454 1.397 . S
C454 C453 1.397 . S
C454 C455 1.438 . S
C454 C459 1.429 . S
C455 C438 1.394 . S
C455 C454 1.438 . S
C455 C456 1.428 . S
C456 H448 0.949 . S
C456 C455 1.428 . S
C456 C457 1.345 . S
C457 H449 0.950 . S
C457 C456 1.345 . S
C457 C458 1.424 . S
C458 H450 0.951 . S
C458 C457 1.424 . S
C458 C459 1.347 . S
C459 H451 0.951 . S
C459 C454 1.429 . S
C459 C458 1.347 . S
H460 C461 0.951 . S
C461 H460 0.951 . S
C461 C467 1.265 . S
H462 C467 0.950 . S
H463 C471 0.949 . S
H464 C472 0.950 . S
H465 C473 0.951 . S
H466 C474 0.951 . S
C467 C461 1.265 . S
C467 H462 0.950 . S
C467 C468 1.478 . S
C468 C467 1.478 . S
C468 C469 1.397 . S
C468 C485 1.394 . S
C469 C468 1.397 . S
C469 C470 1.438 . S
C469 C474 1.429 . S
C470 C469 1.438 . S
C470 C471 1.428 1_556 S
C470 C483 1.394 . S
C471 H463 0.949 . S
C471 C470 1.428 1_554 S
C471 C472 1.345 . S
C472 H464 0.950 . S
C472 C471 1.345 . S
C472 C473 1.424 1_554 S
C473 H465 0.951 . S
C473 C472 1.424 1_556 S
C473 C474 1.347 . S
C474 H466 0.951 . S
C474 C469 1.429 . S
C474 C473 1.347 . S
H475 C476 0.951 . S
C476 H475 0.951 . S
C476 C482 1.268 1_554 S
H477 C482 0.950 1_554 S
H478 C486 0.949 . S
H479 C487 0.950 . S
H480 C488 0.951 . S
H481 C489 0.951 . S
C482 C476 1.268 1_556 S
C482 H477 0.950 1_556 S
C482 C483 1.476 . S
C483 C470 1.394 . S
C483 C482 1.476 . S
C483 C484 1.397 . S
C484 C483 1.397 . S
C484 C485 1.438 . S
C484 C489 1.429 . S
C485 C468 1.394 . S
C485 C484 1.438 . S
C485 C486 1.428 . S
C486 H478 0.949 . S
C486 C485 1.428 . S
C486 C487 1.345 . S
C487 H479 0.950 . S
C487 C486 1.345 . S
C487 C488 1.424 . S
C488 H480 0.951 . S
C488 C487 1.424 . S
C488 C489 1.347 . S
C489 H481 0.951 . S
C489 C484 1.429 . S
C489 C488 1.347 . S
H490 C491 0.951 . S
C491 H490 0.951 . S
C491 C497 1.265 . S
H492 C497 0.950 . S
H493 C501 0.949 . S
H494 C502 0.950 . S
H495 C503 0.951 1_565 S
H496 C504 0.951 . S
C497 C491 1.265 . S
C497 H492 0.950 . S
C497 C498 1.478 . S
C498 C497 1.478 . S
C498 C499 1.397 . S
C498 C515 1.394 . S
C499 C498 1.397 . S
C499 C500 1.438 . S
C499 C504 1.429 . S
C500 C499 1.438 . S
C500 C501 1.428 . S
C500 C513 1.394 . S
C501 H493 0.949 . S
C501 C500 1.428 . S
C501 C502 1.345 . S
C502 H494 0.950 . S
C502 C501 1.345 . S
C502 C503 1.424 . S
C503 H495 0.951 1_545 S
C503 C502 1.424 . S
C503 C504 1.347 . S
C504 H496 0.951 . S
C504 C499 1.429 . S
C504 C503 1.347 . S
H505 C506 0.951 . S
C506 H505 0.951 . S
C506 C512 1.265 . S
H507 C512 0.950 1_455 S
H508 C516 0.949 . S
H509 C517 0.950 . S
H510 C518 0.951 . S
H511 C519 0.951 . S
C512 C506 1.265 . S
C512 H507 0.950 1_655 S
C512 C513 1.478 . S
C513 C500 1.394 . S
C513 C512 1.478 . S
C513 C514 1.397 . S
C514 C513 1.397 . S
C514 C515 1.438 . S
C514 C519 1.429 1_655 S
C515 C498 1.394 . S
C515 C514 1.438 . S
C515 C516 1.428 . S
C516 H508 0.949 . S
C516 C515 1.428 . S
C516 C517 1.345 1_655 S
C517 H509 0.950 . S
C517 C516 1.345 1_455 S
C517 C518 1.424 . S
C518 H510 0.951 . S
C518 C517 1.424 . S
C518 C519 1.347 . S
C519 H511 0.951 . S
C519 C514 1.429 1_455 S
C519 C518 1.347 . S
C161 C88 0.741 . S
C176 C8 0.840 . S
C191 C128 0.809 1_655 S
C206 C58 0.809 . S
C221 C98 1.220 . S
C236 C18 1.222 . S
C251 C48 1.244 . S
C266 C138 1.244 . S
C281 C59 0.676 . S
C296 C15 0.684 . S
C311 C49 0.552 . S
C326 C85 0.645 . S
C341 C135 0.384 . S
C356 C95 0.500 . S
C371 C125 0.431 . S
C386 C5 0.407 . S
C401 C89 3.331 1_556 S
C416 C129 3.289 . S
C431 C19 3.370 . S
C446 C139 3.365 . S
C461 C45 2.820 . S
C476 C9 2.836 . S
C491 C99 2.508 . S
C506 C55 2.470 . S
