# Generated by pormake.
# Topology fnu, (5)-cn, num edge types: 1
# Building blocks:
#     Node 0, Type 0, BuildingBlock: XOMCOT_clean_sbu_1, # of connection points: 5
#     Node 1, Type 0, BuildingBlock: XOMCOT_clean_sbu_1, # of connection points: 5
#     Node 2, Type 0, BuildingBlock: XOMCOT_clean_sbu_1, # of connection points: 5
#     Node 3, Type 0, BuildingBlock: XOMCOT_clean_sbu_1, # of connection points: 5
#     Node 4, Type 0, BuildingBlock: XOMCOT_clean_sbu_1, # of connection points: 5
#     Node 5, Type 0, BuildingBlock: XOMCOT_clean_sbu_1, # of connection points: 5
#     Edge 6, Type (0, 0), BuildingBlock: AJUNOK_clean_linker_0, # of connection points: 2
#     Edge 7, Type (0, 0), BuildingBlock: AJUNOK_clean_linker_0, # of connection points: 2
#     Edge 8, Type (0, 0), BuildingBlock: AJUNOK_clean_linker_0, # of connection points: 2
#     Edge 9, Type (0, 0), BuildingBlock: AJUNOK_clean_linker_0, # of connection points: 2
#     Edge 10, Type (0, 0), BuildingBlock: AJUNOK_clean_linker_0, # of connection points: 2
#     Edge 11, Type (0, 0), BuildingBlock: AJUNOK_clean_linker_0, # of connection points: 2
#     Edge 12, Type (0, 0), BuildingBlock: AJUNOK_clean_linker_0, # of connection points: 2
#     Edge 13, Type (0, 0), BuildingBlock: AJUNOK_clean_linker_0, # of connection points: 2
#     Edge 14, Type (0, 0), BuildingBlock: AJUNOK_clean_linker_0, # of connection points: 2
#     Edge 15, Type (0, 0), BuildingBlock: AJUNOK_clean_linker_0, # of connection points: 2
#     Edge 16, Type (0, 0), BuildingBlock: AJUNOK_clean_linker_0, # of connection points: 2
#     Edge 17, Type (0, 0), BuildingBlock: AJUNOK_clean_linker_0, # of connection points: 2
#     Edge 18, Type (0, 0), BuildingBlock: AJUNOK_clean_linker_0, # of connection points: 2
#     Edge 19, Type (0, 0), BuildingBlock: AJUNOK_clean_linker_0, # of connection points: 2
#     Edge 20, Type (0, 0), BuildingBlock: AJUNOK_clean_linker_0, # of connection points: 2
# Relax obj value: 0.208
# Max RMSD: 0.145
# Mean RMSD: 0.145
data_MOF--net-fnu--node1-XOMCOT_clean_sbu_1--edge1-AJUNOK_clean_linker_0
_symmetry_space_group_name_H-M    P1
_symmetry_Int_Tables_number       1
_symmetry_cell_setting            triclinic
loop_
_symmetry_equiv_pos_as_xyz
'x, y, z'
_cell_length_a     19.691417
_cell_length_b     20.140703
_cell_length_c     25.536954
_cell_angle_alpha  91.141752
_cell_angle_beta   94.330018
_cell_angle_gamma 120.252
loop_
_atom_site_label
_atom_site_type_symbol
_atom_site_fract_x
_atom_site_fract_y
_atom_site_fract_z
_atom_type_partial_charge
C0 C 0.30228 0.19372 0.38257 0.0
C1 C 0.28674 0.1914 0.43433 0.0
N2 N 0.20882 0.14484 0.43634 0.0
N3 N 0.23457 0.14876 0.3512 0.0
C4 C 0.17861 0.11895 0.38573 0.0
H5 H 0.36034 0.22625 0.36941 0.0
Co6 Co 0.2276 0.12943 0.27647 0.0
C7 C 0.10931 0.18743 0.27698 0.0
O8 O 1.07551 0.15403 0.31876 0.0
N9 N 0.2219 0.11134 0.20374 0.0
C10 C 0.21925 0.1352 0.11942 0.0
C11 C 0.23207 0.16537 0.16991 0.0
C12 C 0.20067 1.04749 0.17243 0.0
N13 N 0.19876 0.06084 0.12084 0.0
O14 O 0.32364 0.22794 0.27058 0.0
H15 H 0.24237 0.22186 0.18118 0.0
H16 H 0.18088 0.99103 0.18673 0.0
O17 O 0.16505 0.17932 0.26165 0.0
C18 C 0.38565 0.22292 0.26956 0.0
O19 O 0.38113 0.15763 0.28116 0.0
N20 N 0.13855 1.03018 0.27923 0.0
C21 C 1.03903 0.8726 0.2512 0.0
C22 C 1.01503 0.92598 0.23895 0.0
C23 C 1.06614 1.0047 0.25243 0.0
C24 C 0.15936 0.97855 0.2964 0.0
C25 C 0.11083 0.89955 0.28248 0.0
H26 H 1.05046 1.04474 0.23625 0.0
H27 H 0.21785 0.99954 0.31603 0.0
H28 H 0.11706 0.07726 0.3744 0.0
H29 H 0.32936 0.22245 0.46793 0.0
H30 H 0.21605 0.16315 0.08427 0.0
H31 H 0.95965 0.90776 0.21548 0.0
H32 H 0.13279 0.86127 0.29231 0.0
C33 C 0.95235 1.03816 0.6767 0.0
C34 C 0.97042 0.05234 0.62583 0.0
N35 N 1.04941 0.08882 0.62539 0.0
N36 N 1.01917 0.06487 0.70943 0.0
C37 C 1.07768 0.09542 0.6767 0.0
H38 H 0.89311 1.00654 0.68816 0.0
Co39 Co 1.01909 1.04463 0.78208 0.0
C40 C 0.13018 0.19202 0.84545 0.0
O41 O 0.15067 0.15335 0.87737 0.0
N42 N 1.01548 1.02193 0.85378 0.0
C43 C 0.99186 1.02548 0.93715 0.0
C44 C 0.98634 1.05012 0.88865 0.0
C45 C 1.03901 0.98022 0.88294 0.0
N46 N 1.02495 0.98138 0.93385 0.0
O47 O 0.92259 1.0472 0.78713 0.0
H48 H 0.96638 0.09027 0.8802 0.0
H49 H 1.06968 0.95296 0.86833 0.0
O50 O 0.08305 0.15737 0.80362 0.0
C51 C 0.86538 0.97839 0.78943 0.0
O52 O 0.87438 0.92217 0.77096 0.0
N53 N 0.1071 1.03221 0.77767 0.0
C54 C 0.21017 0.97576 0.79094 0.0
C55 C 0.23855 0.05513 0.79793 0.0
C56 C 0.18601 0.08265 0.78987 0.0
C57 C 0.08053 0.95642 0.76524 0.0
C58 C 0.13095 0.92685 0.77178 0.0
H59 H 0.20882 0.14372 0.79499 0.0
H60 H 1.01816 0.9175 0.75433 0.0
H61 H 0.13961 0.11983 0.6899 0.0
H62 H 0.92779 1.03264 0.5915 0.0
H63 H 0.97947 1.04489 0.97313 0.0
H64 H 0.30026 0.09513 0.81049 0.0
H65 H 0.10696 0.86542 0.76504 0.0
C66 C 0.85732 0.44652 0.67291 0.0
C67 C 0.86931 0.45551 0.72687 0.0
N68 N 0.79906 0.42956 0.74566 0.0
N69 N 0.7796 0.4151 0.65685 0.0
C70 C 0.7454 0.40483 0.70266 0.0
H71 H 0.90299 0.45956 0.64729 0.0
Co72 Co 0.74 0.38188 0.58494 0.0
C73 C 0.63243 0.44711 0.60421 0.0
O74 O 0.60027 0.40566 0.64386 0.0
N75 N 0.70429 0.34772 0.51498 0.0
C76 C 0.66019 0.33149 0.43085 0.0
C77 C 0.67212 0.3726 0.47756 0.0
C78 C 0.71029 0.29121 0.4905 0.0
N79 N 0.68506 0.28075 0.43888 0.0
O80 O 0.83108 0.472 0.56153 0.0
H81 H 0.66149 0.41984 0.48303 0.0
H82 H 0.73579 0.26056 0.51005 0.0
O83 O 0.68473 0.44018 0.58209 0.0
C84 C 0.87921 0.45646 0.54136 0.0
O85 O 0.86977 0.38756 0.54604 0.0
N86 N 0.65253 0.28977 0.60324 0.0
C87 C 0.55989 0.13439 0.56784 0.0
C88 C 0.53223 0.18565 0.55881 0.0
C89 C 0.579 0.26309 0.57749 0.0
C90 C 0.67509 0.23885 0.61892 0.0
C91 C 0.62965 0.16082 0.60153 0.0
H92 H 0.56187 0.30279 0.56256 0.0
H93 H 0.73409 0.26029 0.63778 0.0
H94 H 0.6824 0.37558 0.70496 0.0
H95 H 0.92535 0.47853 0.75062 0.0
H96 H 0.64131 0.34299 0.3929 0.0
H97 H 0.47965 0.16875 0.53244 0.0
H98 H 0.65279 0.12315 0.61028 0.0
C99 C 0.70679 0.42297 0.04149 0.0
C100 C 0.69894 0.42916 0.98842 0.0
N101 N 0.76201 0.43424 0.9677 0.0
N102 N 0.77449 0.42322 0.05585 0.0
C103 C 0.80673 0.42994 1.0094 0.0
H104 H 0.66336 0.41685 0.06715 0.0
Co105 Co 0.80296 0.40117 0.12468 0.0
C106 C 0.85709 0.56554 0.14345 0.0
O107 O 0.79033 0.55247 0.11853 0.0
N108 N 0.82829 0.37612 0.19014 0.0
C109 C 0.88463 0.37675 0.26864 0.0
C110 C 0.892 0.41762 0.22509 0.0
C111 C 0.78414 0.3096 0.21277 0.0
N112 N 0.81632 0.30849 0.2612 0.0
O113 O 0.71798 0.40624 0.15449 0.0
H114 H 0.94013 0.47481 0.22008 0.0
H115 H 0.72759 0.2641 0.19485 0.0
O116 O 0.87275 0.51127 0.14628 0.0
C117 C 0.64968 0.3464 0.1527 0.0
O118 O 0.6348 0.28425 0.1248 0.0
N119 N 0.8843 0.39013 0.09985 0.0
C120 C 0.97361 0.32561 0.13534 0.0
C121 C 1.00771 0.40608 0.1368 0.0
C122 C 0.96203 0.4377 0.11778 0.0
C123 C 0.85595 0.31375 0.08856 0.0
C124 C 0.89979 0.28004 0.10625 0.0
H125 H 0.98527 0.49863 0.12575 0.0
H126 H 0.79427 0.27672 0.07454 0.0
H127 H 0.86092 0.42957 1.00583 0.0
H128 H 0.64785 0.42569 0.96667 0.0
H129 H 0.92354 0.39915 0.30476 0.0
H130 H 1.0653 0.44361 0.15781 0.0
H131 H 0.87252 0.21792 0.10236 0.0
C132 C 0.48155 0.87995 1.01135 0.0
C133 C 0.46467 0.88175 0.06266 0.0
N134 N 0.42959 0.80937 0.07804 0.0
N135 N 0.45814 0.8068 0.9945 0.0
C136 C 0.42655 0.76524 0.03634 0.0
H137 H 0.50958 0.92924 0.98792 0.0
Co138 Co 0.47243 0.77452 0.92809 0.0
C139 C 0.38556 0.8204 0.84685 0.0
O140 O 0.39382 0.78195 0.80837 0.0
N141 N 0.48942 0.74205 0.86161 0.0
C142 C 0.52685 0.74752 0.78077 0.0
C143 C 0.54078 0.78777 0.82796 0.0
C144 C 0.4472 0.67302 0.83354 0.0
N145 N 0.46576 0.67584 0.78359 0.0
O146 O 0.56818 0.87222 0.9249 0.0
H147 H 0.57832 0.84925 0.83357 0.0
H148 H 0.39758 0.62302 0.8467 0.0
O149 O 0.4117 0.81904 0.89412 0.0
C150 C 0.63263 0.87569 0.94132 0.0
O151 O 0.62865 0.82294 0.9725 0.0
N152 N 0.38179 0.67636 0.93146 0.0
C153 C 0.27726 0.51792 0.91292 0.0
C154 C 0.25373 0.57094 0.89849 0.0
C155 C 0.3069 0.65044 0.90855 0.0
C156 C 0.4024 0.62555 0.95058 0.0
C157 C 0.35109 0.54624 0.94185 0.0
H158 H 0.28951 0.69025 0.89428 0.0
H159 H 0.46192 0.64693 0.96848 0.0
H160 H 0.40264 0.70383 0.03696 0.0
H161 H 0.47622 0.93202 0.08656 0.0
H162 H 0.55133 0.77283 0.7448 0.0
H163 H 0.19632 0.55139 0.87746 0.0
H164 H 0.37172 0.50771 0.95411 0.0
C165 C 0.26977 0.60556 0.33516 0.0
C166 C 0.27705 0.61706 0.28285 0.0
N167 N 0.32166 0.69308 0.27742 0.0
N168 N 0.31123 0.67336 0.36402 0.0
C169 C 0.34191 0.72625 0.32732 0.0
H170 H 0.23656 0.55009 0.35116 0.0
Co171 Co 0.30832 0.67205 0.43817 0.0
C172 C 0.43248 0.84269 0.44078 0.0
O173 O 0.48112 0.83107 0.41481 0.0
N174 N 0.30115 0.66696 0.50974 0.0
C175 C 0.28919 0.69378 0.5917 0.0
C176 C 0.28935 0.71412 0.54097 0.0
C177 C 0.30729 0.61779 0.54218 0.0
N178 N 0.30068 0.63329 0.59245 0.0
O179 O 0.20889 0.67048 0.43143 0.0
H180 H 0.28368 0.76186 0.52799 0.0
H181 H 0.32059 0.57426 0.52974 0.0
O182 O 0.3655 0.78534 0.44891 0.0
C183 C 0.15113 0.60184 0.43257 0.0
O184 O 0.16591 0.54517 0.43021 0.0
N185 N 0.40223 0.6658 0.44806 0.0
C186 C 0.49805 0.61084 0.49181 0.0
C187 C 0.51127 0.68336 0.50865 0.0
C188 C 0.46221 0.70961 0.48662 0.0
C189 C 0.39307 0.59766 0.42885 0.0
C190 C 0.44033 0.56935 0.45001 0.0
H191 H 0.46638 0.7601 0.50554 0.0
H192 H 0.34316 0.5599 0.40148 0.0
H193 H 0.37664 0.78771 0.3364 0.0
H194 H 0.25284 0.57215 0.25135 0.0
H195 H 0.2871 0.72497 0.626 0.0
H196 H 0.55402 0.71608 0.54187 0.0
H197 H 0.42752 0.51243 0.43665 0.0
C198 C 0.53188 0.2954 0.26924 0.0
C199 C 0.45795 0.28174 0.24707 0.0
C200 C 0.5978 0.3266 0.24013 0.0
C201 C 0.59087 0.34161 0.18719 0.0
H202 H 0.53736 0.27716 0.30813 0.0
H203 H 0.65278 0.33335 0.25773 0.0
S204 S 0.41728 0.33445 0.11473 0.0
N205 N 0.38826 0.30364 0.17293 0.0
N206 N 0.50949 0.35369 0.11648 0.0
C207 C 0.52026 0.33597 0.16633 0.0
C208 C 0.45434 0.30817 0.19686 0.0
C209 C 0.12082 0.27909 0.20752 0.0
C210 C 1.0747 0.224 0.24234 0.0
C211 C 0.08827 0.31175 0.17289 0.0
C212 C 1.00784 0.28937 0.17086 0.0
H213 H 0.18284 0.29771 0.20731 0.0
H214 H 0.12614 0.35426 0.14718 0.0
S215 S 0.86147 0.14802 0.25401 0.0
N216 N 0.94429 0.14947 0.27273 0.0
N217 N 0.88342 0.21005 0.20796 0.0
C218 C 0.96127 0.23465 0.20567 0.0
C219 C 0.99454 0.20228 0.24129 0.0
C220 C 0.92532 0.70841 0.14511 0.0
C221 C 0.91012 0.64232 0.17108 0.0
C222 C 0.9675 0.78172 0.1714 0.0
C223 C 0.99484 0.79258 0.22525 0.0
H224 H 0.90409 0.70344 0.10399 0.0
H225 H 0.97901 0.83038 0.14902 0.0
S226 S 0.96694 0.63676 0.31212 0.0
N227 N 0.92419 0.59134 0.254 0.0
N228 N 1.00224 0.72926 0.30387 0.0
C229 C 0.9804 0.72664 0.25177 0.0
C230 C 0.93818 0.65161 0.22463 0.0
C231 C 0.18587 0.30084 0.91435 0.0
C232 C 0.15996 0.27451 0.86101 0.0
C233 C 0.21967 0.37873 0.93102 0.0
C234 C 0.22938 0.43424 0.89519 0.0
H235 H 0.18107 0.26104 0.94375 0.0
H236 H 0.24011 0.39593 0.9723 0.0
S237 S 0.1701 0.39573 0.75118 0.0
N238 N 0.14416 0.31005 0.77256 0.0
N239 N 0.20884 0.45682 0.8037 0.0
C240 C 0.20138 0.40846 0.84194 0.0
C241 C 0.16646 0.32865 0.82491 0.0
C242 C 0.74639 0.87919 0.90238 0.0
C243 C 0.70129 0.9144 0.9095 0.0
C244 C 0.79853 0.90084 0.86346 0.0
C245 C 0.80994 0.96014 0.83052 0.0
H246 H 0.73833 0.83121 0.92497 0.0
H247 H 0.83015 0.87023 0.85911 0.0
S248 S 0.71448 0.07794 0.83706 0.0
N249 N 0.67609 1.01597 0.8828 0.0
N250 N 0.77761 0.05897 0.81083 0.0
C251 C 0.76977 0.99981 0.83941 0.0
C252 C 0.71479 0.9765 0.8786 0.0
C253 C 0.26497 0.89153 0.76904 0.0
C254 C 0.26079 0.94235 0.80532 0.0
C255 C 0.30582 0.85323 0.78302 0.0
C256 C 0.34365 0.8633 0.83417 0.0
H257 H 0.23573 0.88072 0.72952 0.0
H258 H 0.30658 0.81445 0.75336 0.0
S259 S 0.34896 0.98975 0.94418 0.0
N260 N 0.29737 1.00088 0.89466 0.0
N261 N 0.37403 0.92863 0.92126 0.0
C262 C 0.34025 0.91445 0.87086 0.0
C263 C 0.29905 0.95411 0.85634 0.0
C264 C 0.94051 0.47647 0.45779 0.0
C265 C 0.93782 0.50823 0.50652 0.0
C266 C 1.00713 0.51306 0.42993 0.0
C267 C 1.07336 0.58367 0.44934 0.0
H268 H 0.89274 0.42026 0.44281 0.0
H269 H 1.00941 0.48262 0.39523 0.0
S270 S 0.08766 0.69979 0.56878 0.0
N271 N 1.00096 0.62 0.56883 0.0
N272 N 0.1254 0.69111 0.51517 0.0
C273 C 1.06688 0.62113 0.49431 0.0
C274 C 0.99916 0.58279 0.52336 0.0
C275 C 0.64506 0.55346 0.54785 0.0
C276 C 0.59927 0.49239 0.57914 0.0
C277 C 0.61311 0.59339 0.52073 0.0
C278 C 0.53375 0.57248 0.52297 0.0
H279 H 0.70597 0.57023 0.54399 0.0
H280 H 0.65008 0.63955 0.49687 0.0
S281 S 0.38818 0.41721 0.59835 0.0
N282 N 0.47015 0.41437 0.6109 0.0
N283 N 0.41015 0.48743 0.5586 0.0
C284 C 0.48753 0.51209 0.55413 0.0
C285 C 0.52024 0.4726 0.58258 0.0
C286 C 0.54376 0.97086 0.47949 0.0
C287 C 0.4619 0.91874 0.47023 0.0
C288 C 0.57418 1.03925 0.51145 0.0
C289 C 0.52435 0.05911 0.53585 0.0
H290 H 0.58526 0.95823 0.46275 0.0
H291 H 0.63766 0.07741 0.5166 0.0
S292 S 0.30506 0.94531 0.52188 0.0
N293 N 0.3311 0.89445 0.48574 0.0
N294 N 0.38836 1.02168 0.54702 0.0
C295 C 0.44222 1.0085 0.52604 0.0
C296 C 0.41109 0.93878 0.49313 0.0
C297 C 0.15981 0.10132 0.57655 0.0
C298 C 0.09165 0.10719 0.57858 0.0
C299 C 0.19736 0.11296 0.5299 0.0
C300 C 0.16768 0.12981 0.48322 0.0
H301 H 0.18335 0.08602 0.61087 0.0
H302 H 0.24947 0.1077 0.53005 0.0
S303 S 0.9977 0.16132 0.46878 0.0
N304 N 1.00141 0.13911 0.53042 0.0
N305 N 1.07037 0.15787 0.44305 0.0
C306 C 0.10098 0.13753 0.48494 0.0
C307 C 1.0635 0.12708 0.53247 0.0
C308 C 0.81324 0.40123 0.89103 0.0
C309 C 0.7731 0.43558 0.91192 0.0
C310 C 0.82029 0.39823 0.83663 0.0
C311 C 0.78629 0.42811 0.80072 0.0
H312 H 0.83846 0.37545 0.91672 0.0
H313 H 0.85216 0.37183 0.82233 0.0
S314 S 0.68301 0.53155 0.83439 0.0
N315 N 0.70559 0.50697 0.89157 0.0
N316 N 0.71585 0.49726 0.78974 0.0
C317 C 0.747 0.46326 0.82078 0.0
C318 C 0.74122 0.46805 0.87616 0.0
C319 C 0.42182 0.79127 0.2247 0.0
C320 C 0.34521 0.72835 0.22803 0.0
C321 C 0.44865 0.81894 0.17564 0.0
C322 C 0.40018 0.78401 0.12828 0.0
H323 H 0.46221 0.81729 0.25998 0.0
H324 H 0.50856 0.86614 0.17451 0.0
S325 S 0.19112 0.62671 0.1156 0.0
N326 N 0.21808 0.63937 0.17951 0.0
N327 N 0.27 0.68932 0.08798 0.0
C328 C 0.32266 0.72374 0.1312 0.0
C329 C 0.2948 0.69651 0.18087 0.0
C330 C 0.18713 1.01067 0.03092 0.0
C331 C 0.15224 1.00646 0.07766 0.0
C332 C 0.1419 0.98984 0.98196 0.0
C333 C 1.06076 0.96469 0.97885 0.0
H334 H 0.25085 1.03946 0.03191 0.0
H335 H 0.1724 1.00368 0.94671 0.0
S336 S 0.93997 0.93065 0.09001 0.0
N337 N 1.03116 0.96688 0.11784 0.0
N338 N 0.94517 0.92166 0.0263 0.0
C339 C 1.02368 0.94823 0.02555 0.0
C340 C 1.06982 0.97117 0.07508 0.0
C341 C 0.69292 0.22982 0.30204 0.0
C342 C 0.77509 0.26121 0.30276 0.0
C343 C 0.65861 0.22332 0.34907 0.0
C344 C 0.70522 0.24599 0.39761 0.0
H345 H 0.65666 0.22007 0.26558 0.0
H346 H 0.59794 0.21009 0.34725 0.0
S347 S 0.91006 0.28236 0.41929 0.0
N348 N 0.89267 0.27985 0.3548 0.0
N349 N 0.82801 0.26613 0.44356 0.0
C350 C 0.78154 0.25628 0.39861 0.0
C351 C 0.81667 0.26398 0.3507 0.0
C352 C 0.40036 0.61514 0.6427 0.0
C353 C 0.32644 0.61034 0.63893 0.0
C354 C 0.44219 0.62548 0.69187 0.0
C355 C 0.4116 0.63223 0.7384 0.0
H356 H 0.43013 0.62064 0.60776 0.0
H357 H 0.50249 0.6375 0.69329 0.0
S358 S 0.21234 0.60678 0.74818 0.0
N359 N 0.21773 0.59765 0.68455 0.0
N360 N 0.29655 0.62023 0.77708 0.0
C361 C 0.3329 0.61656 0.73491 0.0
C362 C 0.29026 0.60492 0.68492 0.0
loop_
_geom_bond_atom_site_label_1
_geom_bond_atom_site_label_2
_geom_bond_distance
_geom_bond_site_symmetry_2
_ccdc_geom_bond_type
C0 C1 1.351 . S
C0 N3 1.368 . S
C0 H5 0.931 . S
C1 C0 1.351 . S
C1 N2 1.373 . S
C1 H29 0.930 . S
N2 C1 1.373 . S
N2 C4 1.340 . S
N3 C0 1.368 . S
N3 C4 1.321 . S
N3 Co6 2.135 . S
C4 N2 1.340 . S
C4 N3 1.321 . S
C4 H28 0.930 1_455 S
H5 C0 0.931 . S
Co6 N3 2.135 . S
Co6 N9 2.121 . S
Co6 O14 2.055 . S
Co6 O17 2.039 . S
Co6 N20 2.140 1_445 S
C7 O8 1.227 . S
C7 O17 1.265 1_655 S
O8 C7 1.227 . S
N9 Co6 2.121 . S
N9 C11 1.375 1_455 S
N9 C12 1.313 . S
C10 C11 1.338 . S
C10 N13 1.377 1_655 S
C10 H30 0.929 . S
C11 N9 1.375 1_655 S
C11 C10 1.338 . S
C11 H15 0.931 . S
C12 N9 1.313 . S
C12 N13 1.344 . S
C12 H16 0.930 . S
N13 C10 1.377 1_455 S
N13 C12 1.344 . S
O14 Co6 2.055 . S
O14 C18 1.253 . S
H15 C11 0.931 . S
H16 C12 0.930 . S
O17 Co6 2.039 . S
O17 C7 1.265 1_455 S
C18 O14 1.253 . S
C18 O19 1.227 . S
O19 C18 1.227 . S
N20 Co6 2.140 1_665 S
N20 C23 1.346 . S
N20 C24 1.345 . S
C21 C22 1.387 . S
C21 C25 1.391 . S
C22 C21 1.387 . S
C22 C23 1.369 . S
C22 H31 0.929 . S
C23 N20 1.346 . S
C23 C22 1.369 . S
C23 H26 0.928 . S
C24 N20 1.345 . S
C24 C25 1.371 . S
C24 H27 0.931 1_655 S
C25 C21 1.391 . S
C25 C24 1.371 . S
C25 H32 0.930 . S
H26 C23 0.928 . S
H27 C24 0.931 1_455 S
H28 C4 0.930 1_655 S
H29 C1 0.930 . S
H30 C10 0.929 . S
H31 C22 0.929 . S
H32 C25 0.930 . S
C33 C34 1.351 . S
C33 N36 1.377 . S
C33 H38 0.931 . S
C34 C33 1.351 . S
C34 N35 1.373 1_565 S
C34 H62 0.930 . S
N35 C34 1.373 1_545 S
N35 C37 1.340 . S
N36 C33 1.377 . S
N36 C37 1.316 1_565 S
N36 Co39 2.134 1_565 S
C37 N35 1.340 . S
C37 N36 1.316 1_545 S
C37 H61 0.930 1_655 S
H38 C33 0.931 . S
Co39 N36 2.134 1_545 S
Co39 N42 2.121 1_655 S
Co39 O47 2.055 1_545 S
Co39 O50 2.039 1_655 S
Co39 N53 2.140 1_645 S
C40 O41 1.227 . S
C40 O50 1.265 . S
O41 C40 1.227 . S
N42 Co39 2.121 1_455 S
N42 C44 1.375 . S
N42 C45 1.313 1_455 S
C43 C44 1.338 . S
C43 N46 1.377 1_455 S
C43 H63 0.930 . S
C44 N42 1.375 . S
C44 C43 1.338 . S
C44 H48 0.931 . S
C45 N42 1.313 1_655 S
C45 N46 1.344 . S
C45 H49 0.930 1_545 S
N46 C43 1.377 1_655 S
N46 C45 1.344 . S
O47 Co39 2.055 1_565 S
O47 C51 1.253 . S
H48 C44 0.931 . S
H49 C45 0.930 1_565 S
O50 Co39 2.039 1_455 S
O50 C40 1.265 . S
C51 O47 1.253 . S
C51 O52 1.227 . S
O52 C51 1.227 . S
N53 Co39 2.140 1_465 S
N53 C56 1.346 . S
N53 C57 1.345 . S
C54 C55 1.387 . S
C54 C58 1.391 . S
C55 C54 1.387 . S
C55 C56 1.369 . S
C55 H64 0.929 . S
C56 N53 1.346 . S
C56 C55 1.369 . S
C56 H59 0.928 1_565 S
C57 N53 1.345 . S
C57 C58 1.371 . S
C57 H60 0.931 . S
C58 C54 1.391 . S
C58 C57 1.371 . S
C58 H65 0.930 . S
H59 C56 0.928 1_545 S
H60 C57 0.931 . S
H61 C37 0.930 1_455 S
H62 C34 0.930 . S
H63 C43 0.930 . S
H64 C55 0.929 . S
H65 C58 0.930 . S
C66 C67 1.351 . S
C66 N69 1.368 . S
C66 H71 0.931 . S
C67 C66 1.351 . S
C67 N68 1.373 . S
C67 H95 0.930 . S
N68 C67 1.373 . S
N68 C70 1.340 . S
N69 C66 1.368 . S
N69 C70 1.321 . S
N69 Co72 2.135 . S
C70 N68 1.340 . S
C70 N69 1.321 . S
C70 H94 0.930 . S
H71 C66 0.931 . S
Co72 N69 2.135 . S
Co72 N75 2.121 . S
Co72 O80 2.055 . S
Co72 O83 2.039 . S
Co72 N86 2.140 . S
C73 O74 1.227 . S
C73 O83 1.265 . S
O74 C73 1.227 . S
N75 Co72 2.121 . S
N75 C77 1.375 . S
N75 C78 1.313 . S
C76 C77 1.338 . S
C76 N79 1.377 . S
C76 H96 0.930 . S
C77 N75 1.375 . S
C77 C76 1.338 . S
C77 H81 0.931 . S
C78 N75 1.313 . S
C78 N79 1.344 . S
C78 H82 0.930 . S
N79 C76 1.377 . S
N79 C78 1.344 . S
O80 Co72 2.055 . S
O80 C84 1.253 . S
H81 C77 0.931 . S
H82 C78 0.930 . S
O83 Co72 2.039 . S
O83 C73 1.265 . S
C84 O80 1.253 . S
C84 O85 1.227 . S
O85 C84 1.227 . S
N86 Co72 2.140 . S
N86 C89 1.346 . S
N86 C90 1.345 . S
C87 C88 1.387 . S
C87 C91 1.391 . S
C88 C87 1.387 . S
C88 C89 1.369 . S
C88 H97 0.929 . S
C89 N86 1.346 . S
C89 C88 1.369 . S
C89 H92 0.928 . S
C90 N86 1.345 . S
C90 C91 1.371 . S
C90 H93 0.931 . S
C91 C87 1.391 . S
C91 C90 1.371 . S
C91 H98 0.930 . S
H92 C89 0.928 . S
H93 C90 0.931 . S
H94 C70 0.930 . S
H95 C67 0.930 . S
H96 C76 0.930 . S
H97 C88 0.929 . S
H98 C91 0.930 . S
C99 C100 1.351 1_554 S
C99 N102 1.368 . S
C99 H104 0.931 . S
C100 C99 1.351 1_556 S
C100 N101 1.373 . S
C100 H128 0.930 . S
N101 C100 1.373 . S
N101 C103 1.340 1_556 S
N102 C99 1.368 . S
N102 C103 1.321 . S
N102 Co105 2.135 . S
C103 N101 1.340 1_554 S
C103 N102 1.321 . S
C103 H127 0.930 . S
H104 C99 0.931 . S
Co105 N102 2.135 . S
Co105 N108 2.121 . S
Co105 O113 2.055 . S
Co105 O116 2.039 . S
Co105 N119 2.140 . S
C106 O107 1.227 . S
C106 O116 1.265 . S
O107 C106 1.227 . S
N108 Co105 2.121 . S
N108 C110 1.375 . S
N108 C111 1.313 . S
C109 C110 1.338 . S
C109 N112 1.377 . S
C109 H129 0.930 . S
C110 N108 1.375 . S
C110 C109 1.338 . S
C110 H114 0.931 . S
C111 N108 1.313 . S
C111 N112 1.344 . S
C111 H115 0.930 . S
N112 C109 1.377 . S
N112 C111 1.344 . S
O113 Co105 2.055 . S
O113 C117 1.253 . S
H114 C110 0.931 . S
H115 C111 0.930 . S
O116 Co105 2.039 . S
O116 C106 1.265 . S
C117 O113 1.253 . S
C117 O118 1.227 . S
O118 C117 1.227 . S
N119 Co105 2.140 . S
N119 C122 1.346 . S
N119 C123 1.345 . S
C120 C121 1.387 . S
C120 C124 1.391 . S
C121 C120 1.387 . S
C121 C122 1.369 . S
C121 H130 0.929 . S
C122 N119 1.346 . S
C122 C121 1.369 . S
C122 H125 0.928 . S
C123 N119 1.345 . S
C123 C124 1.371 . S
C123 H126 0.931 . S
C124 C120 1.391 . S
C124 C123 1.371 . S
C124 H131 0.930 . S
H125 C122 0.928 . S
H126 C123 0.931 . S
H127 C103 0.930 . S
H128 C100 0.930 . S
H129 C109 0.930 . S
H130 C121 0.929 . S
H131 C124 0.930 . S
C132 C133 1.351 1_556 S
C132 N135 1.368 . S
C132 H137 0.931 . S
C133 C132 1.351 1_554 S
C133 N134 1.373 . S
C133 H161 0.930 . S
N134 C133 1.373 . S
N134 C136 1.340 1_554 S
N135 C132 1.368 . S
N135 C136 1.321 . S
N135 Co138 2.135 . S
C136 N134 1.340 1_556 S
C136 N135 1.321 . S
C136 H160 0.930 . S
H137 C132 0.931 . S
Co138 N135 2.135 . S
Co138 N141 2.121 . S
Co138 O146 2.055 . S
Co138 O149 2.039 . S
Co138 N152 2.140 . S
C139 O140 1.227 . S
C139 O149 1.265 . S
O140 C139 1.227 . S
N141 Co138 2.121 . S
N141 C143 1.375 . S
N141 C144 1.313 . S
C142 C143 1.338 . S
C142 N145 1.377 . S
C142 H162 0.930 . S
C143 N141 1.375 . S
C143 C142 1.338 . S
C143 H147 0.931 . S
C144 N141 1.313 . S
C144 N145 1.344 . S
C144 H148 0.930 . S
N145 C142 1.377 . S
N145 C144 1.344 . S
O146 Co138 2.055 . S
O146 C150 1.253 . S
H147 C143 0.931 . S
H148 C144 0.930 . S
O149 Co138 2.039 . S
O149 C139 1.265 . S
C150 O146 1.253 . S
C150 O151 1.227 . S
O151 C150 1.227 . S
N152 Co138 2.140 . S
N152 C155 1.346 . S
N152 C156 1.345 . S
C153 C154 1.387 . S
C153 C157 1.391 . S
C154 C153 1.387 . S
C154 C155 1.369 . S
C154 H163 0.929 . S
C155 N152 1.346 . S
C155 C154 1.369 . S
C155 H158 0.928 . S
C156 N152 1.345 . S
C156 C157 1.371 . S
C156 H159 0.931 . S
C157 C153 1.391 . S
C157 C156 1.371 . S
C157 H164 0.930 . S
H158 C155 0.928 . S
H159 C156 0.931 . S
H160 C136 0.930 . S
H161 C133 0.930 . S
H162 C142 0.930 . S
H163 C154 0.929 . S
H164 C157 0.930 . S
C165 C166 1.351 . S
C165 N168 1.368 . S
C165 H170 0.931 . S
C166 C165 1.351 . S
C166 N167 1.373 . S
C166 H194 0.930 . S
N167 C166 1.373 . S
N167 C169 1.340 . S
N168 C165 1.368 . S
N168 C169 1.321 . S
N168 Co171 2.135 . S
C169 N167 1.340 . S
C169 N168 1.321 . S
C169 H193 0.930 . S
H170 C165 0.931 . S
Co171 N168 2.135 . S
Co171 N174 2.121 . S
Co171 O179 2.055 . S
Co171 O182 2.039 . S
Co171 N185 2.140 . S
C172 O173 1.227 . S
C172 O182 1.265 . S
O173 C172 1.227 . S
N174 Co171 2.121 . S
N174 C176 1.375 . S
N174 C177 1.313 . S
C175 C176 1.338 . S
C175 N178 1.377 . S
C175 H195 0.930 . S
C176 N174 1.375 . S
C176 C175 1.338 . S
C176 H180 0.931 . S
C177 N174 1.313 . S
C177 N178 1.344 . S
C177 H181 0.930 . S
N178 C175 1.377 . S
N178 C177 1.344 . S
O179 Co171 2.055 . S
O179 C183 1.253 . S
H180 C176 0.931 . S
H181 C177 0.930 . S
O182 Co171 2.039 . S
O182 C172 1.265 . S
C183 O179 1.253 . S
C183 O184 1.227 . S
O184 C183 1.227 . S
N185 Co171 2.140 . S
N185 C188 1.346 . S
N185 C189 1.345 . S
C186 C187 1.387 . S
C186 C190 1.391 . S
C187 C186 1.387 . S
C187 C188 1.369 . S
C187 H196 0.929 . S
C188 N185 1.346 . S
C188 C187 1.369 . S
C188 H191 0.928 . S
C189 N185 1.345 . S
C189 C190 1.371 . S
C189 H192 0.931 . S
C190 C186 1.391 . S
C190 C189 1.371 . S
C190 H197 0.930 . S
H191 C188 0.928 . S
H192 C189 0.931 . S
H193 C169 0.930 . S
H194 C166 0.930 . S
H195 C175 0.930 . S
H196 C187 0.929 . S
H197 C190 0.930 . S
C198 C199 1.369 . S
C198 C200 1.419 . S
C198 H202 0.930 . S
C199 C198 1.369 . S
C199 C208 1.429 . S
C200 C198 1.419 . S
C200 C201 1.363 . S
C200 H203 0.929 . S
C201 C200 1.363 . S
C201 C207 1.428 . S
H202 C198 0.930 . S
H203 C200 0.929 . S
S204 N205 1.613 . S
S204 N206 1.610 . S
N205 S204 1.613 . S
N205 C208 1.350 . S
N206 S204 1.610 . S
N206 C207 1.351 . S
C207 C201 1.428 . S
C207 N206 1.351 . S
C207 C208 1.434 . S
C208 C199 1.429 . S
C208 N205 1.350 . S
C208 C207 1.434 . S
C209 C210 1.369 . S
C209 C211 1.419 . S
C209 H213 0.930 . S
C210 C209 1.369 . S
C210 C219 1.429 . S
C211 C209 1.419 . S
C211 C212 1.363 . S
C211 H214 0.929 . S
C212 C211 1.363 . S
C212 C218 1.428 . S
H213 C209 0.930 . S
H214 C211 0.929 . S
S215 N216 1.613 . S
S215 N217 1.610 . S
N216 S215 1.613 . S
N216 C219 1.350 . S
N217 S215 1.610 . S
N217 C218 1.351 . S
C218 C212 1.428 . S
C218 N217 1.351 . S
C218 C219 1.434 . S
C219 C210 1.429 . S
C219 N216 1.350 . S
C219 C218 1.434 . S
C220 C221 1.369 . S
C220 C222 1.419 . S
C220 H224 0.930 . S
C221 C220 1.369 . S
C221 C230 1.429 . S
C222 C220 1.419 . S
C222 C223 1.363 . S
C222 H225 0.929 . S
C223 C222 1.363 . S
C223 C229 1.428 . S
H224 C220 0.930 . S
H225 C222 0.929 . S
S226 N227 1.613 . S
S226 N228 1.610 . S
N227 S226 1.613 . S
N227 C230 1.350 . S
N228 S226 1.610 . S
N228 C229 1.351 . S
C229 C223 1.428 . S
C229 N228 1.351 . S
C229 C230 1.434 . S
C230 C221 1.429 . S
C230 N227 1.350 . S
C230 C229 1.434 . S
C231 C232 1.369 . S
C231 C233 1.419 . S
C231 H235 0.930 . S
C232 C231 1.369 . S
C232 C241 1.429 . S
C233 C231 1.419 . S
C233 C234 1.363 . S
C233 H236 0.929 . S
C234 C233 1.363 . S
C234 C240 1.428 . S
H235 C231 0.930 . S
H236 C233 0.929 . S
S237 N238 1.613 . S
S237 N239 1.610 . S
N238 S237 1.613 . S
N238 C241 1.350 . S
N239 S237 1.610 . S
N239 C240 1.351 . S
C240 C234 1.428 . S
C240 N239 1.351 . S
C240 C241 1.434 . S
C241 C232 1.429 . S
C241 N238 1.350 . S
C241 C240 1.434 . S
C242 C243 1.369 . S
C242 C244 1.419 . S
C242 H246 0.930 . S
C243 C242 1.369 . S
C243 C252 1.429 . S
C244 C242 1.419 . S
C244 C245 1.363 . S
C244 H247 0.929 . S
C245 C244 1.363 . S
C245 C251 1.428 . S
H246 C242 0.930 . S
H247 C244 0.929 . S
S248 N249 1.613 . S
S248 N250 1.610 . S
N249 S248 1.613 . S
N249 C252 1.350 . S
N250 S248 1.610 . S
N250 C251 1.351 . S
C251 C245 1.428 . S
C251 N250 1.351 . S
C251 C252 1.434 . S
C252 C243 1.429 . S
C252 N249 1.350 . S
C252 C251 1.434 . S
C253 C254 1.369 . S
C253 C255 1.419 . S
C253 H257 0.930 . S
C254 C253 1.369 . S
C254 C263 1.429 . S
C255 C253 1.419 . S
C255 C256 1.363 . S
C255 H258 0.929 . S
C256 C255 1.363 . S
C256 C262 1.428 . S
H257 C253 0.930 . S
H258 C255 0.929 . S
S259 N260 1.613 . S
S259 N261 1.610 . S
N260 S259 1.613 . S
N260 C263 1.350 . S
N261 S259 1.610 . S
N261 C262 1.351 . S
C262 C256 1.428 . S
C262 N261 1.351 . S
C262 C263 1.434 . S
C263 C254 1.429 . S
C263 N260 1.350 . S
C263 C262 1.434 . S
C264 C265 1.369 . S
C264 C266 1.419 1_655 S
C264 H268 0.930 . S
C265 C264 1.369 . S
C265 C274 1.429 1_655 S
C266 C264 1.419 1_455 S
C266 C267 1.363 . S
C266 H269 0.929 . S
C267 C266 1.363 . S
C267 C273 1.428 . S
H268 C264 0.930 . S
H269 C266 0.929 . S
S270 N271 1.613 . S
S270 N272 1.610 . S
N271 S270 1.613 . S
N271 C274 1.350 . S
N272 S270 1.610 . S
N272 C273 1.351 . S
C273 C267 1.428 . S
C273 N272 1.351 . S
C273 C274 1.434 . S
C274 C265 1.429 1_455 S
C274 N271 1.350 . S
C274 C273 1.434 . S
C275 C276 1.369 . S
C275 C277 1.419 . S
C275 H279 0.930 . S
C276 C275 1.369 . S
C276 C285 1.429 . S
C277 C275 1.419 . S
C277 C278 1.363 . S
C277 H280 0.929 . S
C278 C277 1.363 . S
C278 C284 1.428 . S
H279 C275 0.930 . S
H280 C277 0.929 . S
S281 N282 1.613 . S
S281 N283 1.610 . S
N282 S281 1.613 . S
N282 C285 1.350 . S
N283 S281 1.610 . S
N283 C284 1.351 . S
C284 C278 1.428 . S
C284 N283 1.351 . S
C284 C285 1.434 . S
C285 C276 1.429 . S
C285 N282 1.350 . S
C285 C284 1.434 . S
C286 C287 1.369 . S
C286 C288 1.419 1_565 S
C286 H290 0.930 . S
C287 C286 1.369 . S
C287 C296 1.429 . S
C288 C286 1.419 1_545 S
C288 C289 1.363 . S
C288 H291 0.929 . S
C289 C288 1.363 . S
C289 C295 1.428 1_545 S
H290 C286 0.930 . S
H291 C288 0.929 . S
S292 N293 1.613 . S
S292 N294 1.610 . S
N293 S292 1.613 . S
N293 C296 1.350 . S
N294 S292 1.610 . S
N294 C295 1.351 . S
C295 C289 1.428 1_565 S
C295 N294 1.351 . S
C295 C296 1.434 . S
C296 C287 1.429 . S
C296 N293 1.350 . S
C296 C295 1.434 . S
C297 C298 1.369 . S
C297 C299 1.419 . S
C297 H301 0.930 1_545 S
C298 C297 1.369 . S
C298 C307 1.429 1_455 S
C299 C297 1.419 . S
C299 C300 1.363 . S
C299 H302 0.926 1_545 S
C300 C299 1.363 . S
C300 C306 1.428 1_455 S
H301 C297 0.930 1_565 S
H302 C299 0.926 1_565 S
S303 N304 1.613 . S
S303 N305 1.610 . S
N304 S303 1.613 . S
N304 C307 1.350 . S
N305 S303 1.610 . S
N305 C306 1.351 . S
C306 C300 1.428 1_655 S
C306 N305 1.351 . S
C306 C307 1.434 . S
C307 C298 1.429 1_655 S
C307 N304 1.350 . S
C307 C306 1.434 . S
C308 C309 1.369 . S
C308 C310 1.419 . S
C308 H312 0.930 . S
C309 C308 1.369 . S
C309 C318 1.429 . S
C310 C308 1.419 . S
C310 C311 1.363 . S
C310 H313 0.929 . S
C311 C310 1.363 . S
C311 C317 1.428 . S
H312 C308 0.930 . S
H313 C310 0.929 . S
S314 N315 1.613 . S
S314 N316 1.610 . S
N315 S314 1.613 . S
N315 C318 1.350 . S
N316 S314 1.610 . S
N316 C317 1.351 . S
C317 C311 1.428 . S
C317 N316 1.351 . S
C317 C318 1.434 . S
C318 C309 1.429 . S
C318 N315 1.350 . S
C318 C317 1.434 . S
C319 C320 1.369 . S
C319 C321 1.419 . S
C319 H323 0.930 . S
C320 C319 1.369 . S
C320 C329 1.429 . S
C321 C319 1.419 . S
C321 C322 1.363 . S
C321 H324 0.929 . S
C322 C321 1.363 . S
C322 C328 1.428 . S
H323 C319 0.930 . S
H324 C321 0.929 . S
S325 N326 1.613 . S
S325 N327 1.610 . S
N326 S325 1.613 . S
N326 C329 1.350 . S
N327 S325 1.610 . S
N327 C328 1.351 . S
C328 C322 1.428 . S
C328 N327 1.351 . S
C328 C329 1.434 . S
C329 C320 1.429 . S
C329 N326 1.350 . S
C329 C328 1.434 . S
C330 C331 1.369 . S
C330 C332 1.419 1_554 S
C330 H334 0.929 1_554 S
C331 C330 1.369 . S
C331 C340 1.429 1_445 S
C332 C330 1.419 1_556 S
C332 C333 1.363 1_445 S
C332 H335 0.929 . S
C333 C332 1.363 1_665 S
C333 C339 1.418 1_556 S
H334 C330 0.929 1_556 S
H335 C332 0.929 . S
S336 N337 1.613 . S
S336 N338 1.610 . S
N337 S336 1.613 . S
N337 C340 1.350 . S
N338 S336 1.610 . S
N338 C339 1.354 . S
C339 C333 1.418 1_554 S
C339 N338 1.354 . S
C339 C340 1.442 . S
C340 C331 1.429 1_665 S
C340 N337 1.350 . S
C340 C339 1.442 . S
C341 C342 1.369 . S
C341 C343 1.419 . S
C341 H345 0.930 . S
C342 C341 1.369 . S
C342 C351 1.429 . S
C343 C341 1.419 . S
C343 C344 1.363 . S
C343 H346 0.929 . S
C344 C343 1.363 . S
C344 C350 1.428 . S
H345 C341 0.930 . S
H346 C343 0.929 . S
S347 N348 1.613 . S
S347 N349 1.610 . S
N348 S347 1.613 . S
N348 C351 1.350 . S
N349 S347 1.610 . S
N349 C350 1.351 . S
C350 C344 1.428 . S
C350 N349 1.351 . S
C350 C351 1.434 . S
C351 C342 1.429 . S
C351 N348 1.350 . S
C351 C350 1.434 . S
C352 C353 1.369 . S
C352 C354 1.419 . S
C352 H356 0.930 . S
C353 C352 1.369 . S
C353 C362 1.429 . S
C354 C352 1.419 . S
C354 C355 1.363 . S
C354 H357 0.929 . S
C355 C354 1.363 . S
C355 C361 1.428 . S
H356 C352 0.930 . S
H357 C354 0.929 . S
S358 N359 1.613 . S
S358 N360 1.610 . S
N359 S358 1.613 . S
N359 C362 1.350 . S
N360 S358 1.610 . S
N360 C361 1.351 . S
C361 C355 1.428 . S
C361 N360 1.351 . S
C361 C362 1.434 . S
C362 C353 1.429 . S
C362 N359 1.350 . S
C362 C361 1.434 . S
C199 C18 1.939 . S
C201 C117 1.943 . S
C210 C7 1.645 . S
C212 C120 1.618 . S
C221 C106 1.639 . S
C223 C21 1.623 . S
C232 C40 1.644 . S
C234 C153 1.620 . S
C243 C150 1.938 . S
C245 C51 1.944 . S
C254 C54 1.622 . S
C256 C139 1.642 . S
C265 C84 1.944 . S
C267 C183 1.939 . S
C276 C73 1.643 . S
C278 C186 1.620 . S
C287 C172 1.640 . S
C289 C87 1.623 . S
C298 N35 2.091 1_455 S
C300 N2 2.094 . S
C309 N101 2.090 . S
C311 N68 2.093 . S
C320 N167 2.090 . S
C322 N134 2.093 . S
C331 N13 0.681 . S
C333 N46 0.705 1_565 S
C342 N112 0.705 . S
C344 N79 0.688 . S
C353 N178 0.705 . S
C355 N145 0.680 . S
