# Generated by pormake.
# Topology msp, (4)-cn, num edge types: 1
# Building blocks:
#     Node 0, Type 0, BuildingBlock: ESEHIV_clean_sbu_0, # of connection points: 4
#     Node 1, Type 0, BuildingBlock: ESEHIV_clean_sbu_0, # of connection points: 4
#     Node 2, Type 0, BuildingBlock: ESEHIV_clean_sbu_0, # of connection points: 4
#     Node 3, Type 0, BuildingBlock: ESEHIV_clean_sbu_0, # of connection points: 4
#     Node 4, Type 0, BuildingBlock: ESEHIV_clean_sbu_0, # of connection points: 4
#     Node 5, Type 0, BuildingBlock: ESEHIV_clean_sbu_0, # of connection points: 4
#     Node 6, Type 0, BuildingBlock: ESEHIV_clean_sbu_0, # of connection points: 4
#     Node 7, Type 0, BuildingBlock: ESEHIV_clean_sbu_0, # of connection points: 4
#     Edge 8, Type (0, 0), BuildingBlock: ZUJKAS_clean_linker_0, # of connection points: 2
#     Edge 9, Type (0, 0), BuildingBlock: ZUJKAS_clean_linker_0, # of connection points: 2
#     Edge 10, Type (0, 0), BuildingBlock: ZUJKAS_clean_linker_0, # of connection points: 2
#     Edge 11, Type (0, 0), BuildingBlock: ZUJKAS_clean_linker_0, # of connection points: 2
#     Edge 12, Type (0, 0), BuildingBlock: ZUJKAS_clean_linker_0, # of connection points: 2
#     Edge 13, Type (0, 0), BuildingBlock: ZUJKAS_clean_linker_0, # of connection points: 2
#     Edge 14, Type (0, 0), BuildingBlock: ZUJKAS_clean_linker_0, # of connection points: 2
#     Edge 15, Type (0, 0), BuildingBlock: ZUJKAS_clean_linker_0, # of connection points: 2
#     Edge 16, Type (0, 0), BuildingBlock: ZUJKAS_clean_linker_0, # of connection points: 2
#     Edge 17, Type (0, 0), BuildingBlock: ZUJKAS_clean_linker_0, # of connection points: 2
#     Edge 18, Type (0, 0), BuildingBlock: ZUJKAS_clean_linker_0, # of connection points: 2
#     Edge 19, Type (0, 0), BuildingBlock: ZUJKAS_clean_linker_0, # of connection points: 2
#     Edge 20, Type (0, 0), BuildingBlock: ZUJKAS_clean_linker_0, # of connection points: 2
#     Edge 21, Type (0, 0), BuildingBlock: ZUJKAS_clean_linker_0, # of connection points: 2
#     Edge 22, Type (0, 0), BuildingBlock: ZUJKAS_clean_linker_0, # of connection points: 2
#     Edge 23, Type (0, 0), BuildingBlock: ZUJKAS_clean_linker_0, # of connection points: 2
# Relax obj value: 0.063
# Max RMSD: 0.171
# Mean RMSD: 0.156
data_MOF--net-msp--node1-ESEHIV_clean_sbu_0--edge1-ZUJKAS_clean_linker_0
_symmetry_space_group_name_H-M    P1
_symmetry_Int_Tables_number       1
_symmetry_cell_setting            triclinic
loop_
_symmetry_equiv_pos_as_xyz
'x, y, z'
_cell_length_a     28.885143
_cell_length_b     28.097357
_cell_length_c     63.093582
_cell_angle_alpha  90.132435
_cell_angle_beta   98.660134
_cell_angle_gamma 90.075482
loop_
_atom_site_label
_atom_site_type_symbol
_atom_site_fract_x
_atom_site_fract_y
_atom_site_fract_z
_atom_type_partial_charge
Cu0 Cu 0.03534 0.29983 0.37177 0.0
N1 N 0.06755 0.25497 0.39009 0.0
N2 N 0.11405 0.22564 0.41857 0.0
C3 C 0.08817 0.26307 0.41033 0.0
C4 C 0.10871 0.1923 0.40292 0.0
C5 C 0.08004 0.21056 0.38535 0.0
O6 O 0.02579 0.35531 0.38905 0.0
C7 C 0.11493 0.30901 0.35087 0.0
O8 O 0.13787 0.30295 0.37029 0.0
H9 H 0.08514 0.29631 0.41864 0.0
H10 H 0.07064 0.19356 0.3699 0.0
N11 N 0.97681 0.27523 0.36074 0.0
N12 N 0.90863 0.26271 0.33957 0.0
C13 C 0.95019 0.28579 0.34194 0.0
C14 C 0.95148 0.24443 0.37057 0.0
C15 C 0.90941 0.23662 0.35757 0.0
C16 C 0.05865 0.38203 0.39802 0.0
O17 O 0.10101 0.37664 0.39323 0.0
H18 H 0.96072 0.3107 0.33049 0.0
H19 H 0.96276 0.22906 0.3862 0.0
O20 O 0.07041 0.31157 0.34824 0.0
H21 H 0.1261 0.15813 0.40366 0.0
H22 H 0.88171 0.21326 0.36106 0.0
Cu23 Cu 0.51328 0.32396 0.66044 0.0
N24 N 0.47836 0.27923 0.64297 0.0
N25 N 0.43087 0.2468 0.6155 0.0
C26 C 0.45528 0.28594 0.62305 0.0
C27 C 0.43929 0.21427 0.63134 0.0
C28 C 0.4685 0.23443 0.64826 0.0
O29 O 0.5263 0.3774 0.64259 0.0
C30 C 0.43454 0.33931 0.68143 0.0
O31 O 0.41119 0.33608 0.66193 0.0
H32 H 0.45613 0.31907 0.61442 0.0
H33 H 0.48089 0.21805 0.66356 0.0
N34 N 0.57003 0.29586 0.67177 0.0
N35 N 0.63556 0.27703 0.6937 0.0
C36 C 0.59773 0.30588 0.6904 0.0
C37 C 0.59107 0.25978 0.66294 0.0
C38 C 0.63141 0.24802 0.67643 0.0
C39 C 0.4984 0.41132 0.63636 0.0
O40 O 0.45815 0.41417 0.64356 0.0
H41 H 0.58978 0.33309 0.70148 0.0
H42 H 0.57778 0.24306 0.64778 0.0
O43 O 0.47914 0.33875 0.68403 0.0
H44 H 0.42427 0.17893 0.63105 0.0
H45 H 0.65602 0.22055 0.67361 0.0
Cu46 Cu 0.94727 0.65708 0.64338 0.0
N47 N 0.9104 0.63556 0.66326 0.0
N48 N 0.86402 0.63843 0.68858 0.0
C49 C 0.88974 0.66369 0.67636 0.0
C50 C 0.86881 0.59251 0.68288 0.0
C51 C 0.89749 0.59086 0.66727 0.0
O52 O 0.996 0.69663 0.65917 0.0
C53 C 0.87287 0.66472 0.61123 0.0
O54 O 0.86798 0.62091 0.61782 0.0
H55 H 0.89281 0.70208 0.67652 0.0
H56 H 0.90781 0.55939 0.65927 0.0
N57 N 0.97417 0.60648 0.63037 0.0
N58 N 0.99774 0.56277 0.60432 0.0
C59 C 0.97583 0.60283 0.60923 0.0
C60 C 0.99607 0.5676 0.6393 0.0
C61 C 1.01066 0.54051 0.62325 0.0
C62 C 0.03779 0.69904 0.6551 0.0
O63 O 0.04823 0.67851 0.63771 0.0
H64 H 0.96186 0.62963 0.59775 0.0
H65 H 1.00106 0.55959 0.65625 0.0
O66 O 0.90645 0.68986 0.62079 0.0
H67 H 0.85304 0.5622 0.68959 0.0
H68 H 0.02882 0.50679 0.62536 0.0
Cu69 Cu 0.57922 0.7301 0.39267 0.0
N70 N 0.63577 0.72916 0.38143 0.0
N71 N 0.68887 0.74057 0.35944 0.0
C72 C 0.64489 0.74998 0.36326 0.0
C73 C 0.70787 0.71265 0.37586 0.0
C74 C 0.67514 0.7056 0.38929 0.0
O75 O 0.52945 0.7172 0.36906 0.0
C76 C 0.57715 0.81875 0.41951 0.0
O77 O 0.55937 0.86172 0.41986 0.0
H78 H 0.61967 0.77147 0.35307 0.0
H79 H 0.67967 0.68436 0.40372 0.0
N80 N 0.57939 0.68186 0.41328 0.0
N81 N 0.57716 0.63996 0.4433 0.0
C82 C 0.56841 0.68244 0.43338 0.0
C83 C 0.59409 0.63732 0.41029 0.0
C84 C 0.59298 0.61156 0.42868 0.0
C85 C 0.48676 0.72141 0.37157 0.0
O86 O 0.47688 0.7318 0.39071 0.0
H87 H 0.55566 0.71356 0.44079 0.0
H88 H 0.60564 0.6247 0.39575 0.0
O89 O 0.56662 0.79418 0.40244 0.0
H90 H 0.74256 0.69725 0.3778 0.0
H91 H 0.603 0.57464 0.43106 0.0
Cu92 Cu 0.52009 0.79292 0.87091 0.0
N93 N 0.54708 0.74726 0.89039 0.0
N94 N 0.58929 0.71527 0.91949 0.0
C95 C 0.57169 0.75566 0.9099 0.0
C96 C 0.57483 0.68002 0.90543 0.0
C97 C 0.54874 0.69989 0.88751 0.0
O98 O 0.51212 0.85055 0.88707 0.0
C99 C 0.60275 0.79425 0.85181 0.0
O100 O 0.62356 0.78842 0.87161 0.0
H101 H 0.57809 0.79093 0.91657 0.0
H102 H 0.53285 0.68131 0.87322 0.0
N103 N 0.46064 0.77204 0.85889 0.0
N104 N 0.39462 0.76003 0.83605 0.0
C105 C 0.4388 0.77742 0.8386 0.0
C106 C 0.42948 0.75041 0.86948 0.0
C107 C 0.38876 0.74295 0.85546 0.0
C108 C 0.54525 0.87717 0.89584 0.0
O109 O 0.58798 0.86964 0.89187 0.0
H110 H 0.45457 0.7948 0.82615 0.0
H111 H 0.43589 0.74122 0.8863 0.0
O112 O 0.55851 0.79977 0.84824 0.0
H113 H 0.58273 0.64261 0.90781 0.0
H114 H 0.35736 0.72602 0.85926 0.0
Cu115 Cu 1.00122 0.79594 0.15668 0.0
N116 N 0.96681 0.74927 0.1402 0.0
N117 N 0.91616 0.71697 0.11382 0.0
C118 C 0.93484 0.75763 0.12281 0.0
C119 C 0.9375 0.68157 0.12602 0.0
C120 C 0.96871 0.70167 0.14235 0.0
O121 O 1.00396 0.84956 0.1374 0.0
C122 C 0.92597 0.8191 0.17877 0.0
O123 O 0.90235 0.82198 0.15932 0.0
H124 H 0.92614 0.79296 0.11668 0.0
H125 H 0.99134 0.68299 0.15482 0.0
N126 N 0.06107 0.77256 0.16652 0.0
N127 N 0.12749 0.75402 0.18798 0.0
C128 C 0.08506 0.77516 0.18654 0.0
C129 C 0.089 0.74894 0.1549 0.0
C130 C 0.12997 0.7375 0.16805 0.0
C131 C 0.04066 0.87334 0.13551 0.0
O132 O 0.0792 0.86593 0.14903 0.0
H133 H 0.07176 0.79269 0.19966 0.0
H134 H 0.08 0.74046 0.13805 0.0
O135 O 0.9697 0.81054 0.18106 0.0
H136 H 0.93077 0.64393 0.12347 0.0
H137 H 0.15894 0.71783 0.16332 0.0
Cu138 Cu 0.46073 0.17985 0.14109 0.0
N139 N 0.42028 0.16223 0.16029 0.0
N140 N 0.37062 0.16724 0.1842 0.0
C141 C 0.39795 0.19149 0.17234 0.0
C142 C 0.37597 0.12094 0.17934 0.0
C143 C 0.40652 0.118 0.1646 0.0
O144 O 0.51853 0.20327 0.15738 0.0
C145 C 0.38737 0.21932 0.11335 0.0
O146 O 0.36535 0.18305 0.12038 0.0
H147 H 0.4009 0.22984 0.17204 0.0
H148 H 0.4177 0.0858 0.15746 0.0
N149 N 0.47578 0.12699 0.12554 0.0
N150 N 0.4905 0.08137 0.09822 0.0
C151 C 0.47331 0.12335 0.1041 0.0
C152 C 0.4952 0.08613 0.13354 0.0
C153 C 0.50412 0.05785 0.11676 0.0
C154 C 0.52142 0.24032 0.16912 0.0
O155 O 0.48417 0.26696 0.16933 0.0
H156 H 0.4607 0.15165 0.09313 0.0
H157 H 0.50311 0.07791 0.15044 0.0
O158 O 0.43033 0.22604 0.1208 0.0
H159 H 0.35949 0.09119 0.18613 0.0
H160 H 0.51964 0.02276 0.11819 0.0
Cu161 Cu 0.09233 0.1882 0.89011 0.0
N162 N 0.14311 0.17914 0.87541 0.0
N163 N 0.19457 0.19012 0.85268 0.0
C164 C 0.15258 0.20268 0.85797 0.0
C165 C 0.21177 0.15708 0.86728 0.0
C166 C 0.17998 0.15041 0.88125 0.0
O167 O 0.03697 0.20324 0.86985 0.0
C168 C 0.13953 0.26752 0.91231 0.0
O169 O 0.15888 0.27391 0.89498 0.0
H170 H 0.13004 0.22994 0.84993 0.0
H171 H 0.18389 0.12707 0.89501 0.0
N172 N 0.08075 0.13241 0.90445 0.0
N173 N 0.07066 0.08322 0.93123 0.0
C174 C 0.08496 0.12679 0.92587 0.0
C175 C 0.06342 0.09101 0.89592 0.0
C176 C 0.0571 0.06059 0.9124 0.0
C177 C 0.02464 0.24495 0.86359 0.0
O178 O 0.04982 0.28164 0.87148 0.0
H179 H 0.0968 0.15472 0.93725 0.0
H180 H 0.05517 0.08384 0.87892 0.0
O181 O 0.10797 0.23589 0.91231 0.0
H182 H 0.24511 0.13918 0.86794 0.0
H183 H 0.04347 0.02467 0.91063 0.0
H184 H 0.12347 0.4347 0.42443 0.0
H185 H 0.11421 0.47043 0.45898 0.0
H186 H 0.96873 0.42937 0.44947 0.0
H187 H 0.9775 0.39346 0.41498 0.0
H188 H 0.04918 0.54146 0.47138 0.0
H189 H 0.02884 0.36244 0.50613 0.0
H190 H 0.05212 0.37108 0.48141 0.0
H191 H 0.99014 0.37469 0.48168 0.0
C192 C 0.08927 0.43397 0.42949 0.0
C193 C 0.05134 0.41078 0.417 0.0
C194 C 0.0841 0.45435 0.44926 0.0
C195 C 0.04103 0.45173 0.45691 0.0
C196 C 1.00246 0.43106 0.44397 0.0
H197 H 0.94676 0.58681 0.56611 0.0
H198 H 0.95994 0.56153 0.5305 0.0
C199 C 1.00752 0.41078 0.4242 0.0
C200 C 0.03695 0.46828 0.47888 0.0
H201 H 1.01634 0.4288 0.52776 0.0
C202 C 0.04209 0.51691 0.48375 0.0
C203 C 0.02852 0.43598 0.49505 0.0
C204 C 0.02497 0.38306 0.49096 0.0
C205 C 0.03781 0.53429 0.50428 0.0
C206 C 0.02769 0.50217 0.52023 0.0
C207 C 0.02372 0.4534 0.51547 0.0
C208 C 0.02053 0.51841 0.5419 0.0
C209 C 0.04465 0.58678 0.50879 0.0
C210 C 0.04956 0.50171 0.56021 0.0
C211 C 0.04215 0.51616 0.58068 0.0
C212 C 1.00535 0.54742 0.58324 0.0
C213 C 0.97604 0.56359 0.5648 0.0
C214 C 0.98351 0.54917 0.54437 0.0
H215 H 0.06411 0.60419 0.49701 0.0
H216 H 1.00991 0.60417 0.50772 0.0
H217 H 0.06392 0.59295 0.52517 0.0
H218 H 0.07819 0.47771 0.55866 0.0
H219 H 0.06562 0.5033 0.59446 0.0
H220 H 0.51558 0.67571 0.46788 0.0
H221 H 0.50484 0.64921 0.50389 0.0
H222 H 0.61648 0.54758 0.50361 0.0
H223 H 0.62828 0.57479 0.4682 0.0
H224 H 0.47934 0.56058 0.51468 0.0
H225 H 0.64991 0.60555 0.56222 0.0
H226 H 0.63489 0.62398 0.53469 0.0
H227 H 0.65788 0.56541 0.54097 0.0
C228 C 0.53834 0.64834 0.47568 0.0
C229 C 0.5725 0.62711 0.46505 0.0
C230 C 0.53209 0.63309 0.49623 0.0
C231 C 0.56021 0.59672 0.50662 0.0
C232 C 0.59492 0.57628 0.49618 0.0
H233 H 0.56958 0.40434 0.61239 0.0
H234 H 0.58303 0.45367 0.58211 0.0
C235 C 0.60116 0.59144 0.47573 0.0
C236 C 0.55089 0.57704 0.52748 0.0
H237 H 0.6037 0.54598 0.57769 0.0
C238 C 0.50629 0.55812 0.52859 0.0
C239 C 0.58623 0.57327 0.54559 0.0
C240 C 0.63471 0.5936 0.54584 0.0
C241 C 0.49661 0.53368 0.54686 0.0
C242 C 0.53216 0.52923 0.56485 0.0
C243 C 0.57639 0.54938 0.56396 0.0
C244 C 0.52509 0.50136 0.58419 0.0
C245 C 0.44912 0.51075 0.54621 0.0
C246 C 0.48873 0.5123 0.59589 0.0
C247 C 0.48059 0.48374 0.61314 0.0
C248 C 0.50918 0.44411 0.61929 0.0
C249 C 0.54682 0.43453 0.60813 0.0
C250 C 0.5546 0.46276 0.59077 0.0
H251 H 0.43062 0.50679 0.52954 0.0
H252 H 0.45218 0.47507 0.55382 0.0
H253 H 0.42714 0.53341 0.55512 0.0
H254 H 0.46626 0.54264 0.59154 0.0
H255 H 0.45158 0.49242 0.6215 0.0
H256 H 0.55278 0.01721 0.087 0.0
H257 H 0.56018 0.98979 0.05097 0.0
H258 H 0.44729 0.08236 0.02453 0.0
H259 H 0.43929 0.10983 0.06065 0.0
H260 H 0.4924 0.94467 0.0218 0.0
H261 H 0.5507 0.11349 0.9884 0.0
H262 H 0.55204 0.10427 0.0168 0.0
H263 H 0.49773 0.11764 1.00002 0.0
C264 C 0.52927 0.03166 0.0736 0.0
C265 C 0.49533 0.06575 0.07682 0.0
C266 C 0.53379 0.01612 0.05296 0.0
C267 C 0.50471 0.03444 0.03503 0.0
C268 C 0.47079 0.06847 0.0381 0.0
H269 H 0.46211 0.89655 0.90991 0.0
H270 H 0.45073 0.93872 0.94265 0.0
C271 C 0.46623 0.0841 0.05878 0.0
C272 C 0.50885 0.0162 1.01329 0.0
H273 H 0.53487 0.04865 0.96421 0.0
C274 C 0.50159 0.96743 1.00921 0.0
C275 C 0.5213 0.04589 0.99694 0.0
C276 C 0.53132 0.09818 1.00072 0.0
C277 C 0.50626 0.94753 0.98922 0.0
C278 C 0.51787 0.97732 0.97274 0.0
C279 C 0.52547 0.02606 0.97682 0.0
C280 C 0.52366 0.95774 0.95145 0.0
C281 C 0.49974 0.89454 0.98602 0.0
C282 C 0.56812 0.95637 0.94506 0.0
C283 C 0.5748 0.93238 0.92629 0.0
C284 C 0.53705 0.90945 0.91356 0.0
C285 C 0.49204 0.91349 0.91938 0.0
C286 C 0.48545 0.93743 0.93814 0.0
H287 H 0.5007 0.87546 1.00149 0.0
H288 H 0.46524 0.88759 0.97615 0.0
H289 H 0.52727 0.87956 0.97743 0.0
H290 H 0.59803 0.97203 0.9551 0.0
H291 H 0.60989 0.93008 0.92228 0.0
H292 H 0.11115 0.93239 0.12692 0.0
H293 H 0.11575 0.97585 0.09372 0.0
H294 H 0.97834 0.92461 0.06719 0.0
H295 H 0.9729 0.88233 0.10044 0.0
H296 H 0.11592 0.93919 0.05478 0.0
H297 H 0.9655 0.06211 0.05095 0.0
H298 H 0.98786 0.02964 0.07495 0.0
H299 H 0.94831 0.00142 0.05382 0.0
C300 C 0.08152 0.93112 0.11417 0.0
C301 C 0.04158 0.90399 0.11642 0.0
C302 C 0.08426 0.9559 0.09516 0.0
C303 C 0.04716 0.95411 0.07799 0.0
C304 C 1.00694 0.9277 0.08035 0.0
H305 H 1.00923 0.01866 0.9428 0.0
H306 H 1.00517 0.98905 0.97896 0.0
C307 C 1.004 0.90325 0.0994 0.0
C308 C 0.05188 0.97677 0.05709 0.0
H309 H 0.99693 0.05056 0.01818 0.0
C310 C 0.09019 0.96403 0.04694 0.0
C311 C 1.01834 0.00922 0.04677 0.0
C312 C 0.97797 0.02678 0.0573 0.0
C313 C 0.09508 0.98164 0.02656 0.0
C314 C 0.06086 0.0129 1.01605 0.0
C315 C 0.02294 0.0263 0.02626 0.0
C316 C 0.06345 0.03129 0.99424 0.0
C317 C 0.1361 0.96577 1.01608 0.0
C318 C 0.09743 0.06506 0.99089 0.0
C319 C 0.0998 0.08213 0.97025 0.0
C320 C 0.06837 0.06552 0.95253 0.0
C321 C 0.03435 0.03169 0.95601 0.0
C322 C 0.03176 0.01498 0.97668 0.0
H323 H 0.15587 0.93628 0.02498 0.0
H324 H 0.12396 0.95395 0.99936 0.0
H325 H 0.16036 0.99622 1.01543 0.0
H326 H 0.12206 0.07826 1.00428 0.0
H327 H 0.1266 0.10787 0.96812 0.0
H328 H 0.60535 0.1941 0.17175 0.0
H329 H 0.67388 0.20336 0.19931 0.0
H330 H 0.60444 0.31594 0.22874 0.0
H331 H 0.53583 0.30748 0.20102 0.0
H332 H 0.70026 0.33405 0.22769 0.0
H333 H 0.67155 0.15494 0.26042 0.0
H334 H 0.67697 0.15514 0.23244 0.0
H335 H 0.62807 0.1844 0.24141 0.0
C336 C 0.60475 0.22121 0.18394 0.0
C337 C 0.56486 0.24971 0.18431 0.0
C338 C 0.64391 0.22628 0.19974 0.0
C339 C 0.64384 0.25965 0.21631 0.0
C340 C 0.60506 0.28977 0.21615 0.0
H341 H 0.81607 0.25017 0.34075 0.0
H342 H 0.75246 0.25238 0.31053 0.0
C343 C 0.56588 0.28485 0.2003 0.0
C344 C 0.68322 0.26154 0.23434 0.0
H345 H 0.74092 0.1952 0.27526 0.0
C346 C 0.70922 0.30376 0.23812 0.0
C347 C 0.69432 0.22217 0.2481 0.0
C348 C 0.66605 0.17672 0.24558 0.0
C349 C 0.74648 0.30745 0.25518 0.0
C350 C 0.75836 0.2676 0.26857 0.0
C351 C 0.73201 0.22559 0.26488 0.0
C352 C 0.79716 0.26877 0.28691 0.0
C353 C 0.77209 0.35424 0.25898 0.0
C354 C 0.84352 0.27715 0.28369 0.0
C355 C 0.88006 0.27586 0.30099 0.0
C356 C 0.87096 0.26563 0.32179 0.0
C357 C 0.82442 0.25748 0.32492 0.0
C358 C 0.78796 0.25899 0.30767 0.0
H359 H 0.75129 0.3842 0.25102 0.0
H360 H 0.78055 0.36213 0.27639 0.0
H361 H 0.80544 0.35225 0.2523 0.0
H362 H 0.85161 0.28366 0.26773 0.0
H363 H 0.91554 0.28164 0.29798 0.0
H364 H 0.6868 0.20121 0.70974 0.0
H365 H 0.75137 0.2008 0.73956 0.0
H366 H 0.73382 0.35161 0.74843 0.0
H367 H 0.66868 0.35208 0.71866 0.0
H368 H 0.83385 0.24822 0.74297 0.0
H369 H 0.73821 0.30301 0.80907 0.0
H370 H 0.70844 0.28429 0.78317 0.0
H371 H 0.73217 0.34344 0.78683 0.0
C372 C 0.69664 0.2343 0.71802 0.0
C373 C 0.6726 0.2767 0.71181 0.0
C374 C 0.73346 0.23399 0.73513 0.0
C375 C 0.74714 0.27604 0.74643 0.0
C376 C 0.72321 0.31849 0.74031 0.0
H377 H 0.98427 0.32876 0.84804 0.0
H378 H 0.91704 0.33876 0.81961 0.0
C379 C 0.68605 0.31875 0.72325 0.0
C380 C 0.78774 0.27538 0.76397 0.0
H381 H 0.82082 0.29678 0.81749 0.0
C382 C 0.83092 0.25883 0.75926 0.0
C383 C 0.78399 0.2894 0.78523 0.0
C384 C 0.73814 0.30564 0.79149 0.0
C385 C 0.87031 0.25569 0.77519 0.0
C386 C 0.8664 0.26914 0.79644 0.0
C387 C 0.82361 0.28659 0.80114 0.0
C388 C 0.90602 0.26333 0.8141 0.0
C389 C 0.91594 0.23805 0.76919 0.0
C390 C 0.92147 0.21763 0.8206 0.0
C391 C 0.95959 0.21176 0.83684 0.0
C392 C 0.98313 0.25155 0.84691 0.0
C393 C 0.96706 0.29738 0.84058 0.0
C394 C 0.92864 0.30319 0.82437 0.0
H395 H 0.91599 0.23915 0.75159 0.0
H396 H 0.9458 0.2596 0.77724 0.0
H397 H 0.92156 0.20063 0.77456 0.0
H398 H 0.90409 0.18642 0.81302 0.0
H399 H 0.97088 0.17595 0.84133 0.0
H400 H 0.0297 0.73293 0.69508 0.0
H401 H 0.093 0.75138 0.7242 0.0
H402 H 0.19481 0.7243 0.68224 0.0
H403 H 0.13171 0.7057 0.65292 0.0
H404 H 0.16413 0.68071 0.73856 0.0
H405 H 0.24004 0.85069 0.71437 0.0
H406 H 0.18106 0.83202 0.70396 0.0
H407 H 0.22998 0.80463 0.69433 0.0
C408 C 0.06547 0.7318 0.69185 0.0
C409 C 0.07558 0.71756 0.67164 0.0
C410 C 0.10161 0.74232 0.70855 0.0
C411 C 0.14854 0.7394 0.70535 0.0
C412 C 0.15879 0.72737 0.68497 0.0
H413 H 0.41086 0.75653 0.79476 0.0
H414 H 0.35196 0.75237 0.76243 0.0
C415 C 0.12264 0.71658 0.66825 0.0
C416 C 0.18649 0.74409 0.72389 0.0
H417 H 0.27948 0.81292 0.74542 0.0
C418 C 0.18928 0.7097 0.7401 0.0
C419 C 0.21959 0.78154 0.72567 0.0
C420 C 0.21762 0.81962 0.70877 0.0
C421 C 0.2243 0.71163 0.75808 0.0
C422 C 0.25675 0.74979 0.76022 0.0
C423 C 0.25445 0.78386 0.74382 0.0
C424 C 0.29258 0.75517 0.77961 0.0
C425 C 0.22669 0.67221 0.77443 0.0
C426 C 0.2788 0.75938 0.79993 0.0
C427 C 0.31226 0.76151 0.81835 0.0
C428 C 0.36033 0.7601 0.81688 0.0
C429 C 0.37414 0.75779 0.79644 0.0
C430 C 0.34053 0.75532 0.77797 0.0
H431 H 0.20903 0.63936 0.76746 0.0
H432 H 0.26353 0.66343 0.78099 0.0
H433 H 0.20864 0.68381 0.78788 0.0
H434 H 0.24202 0.76067 0.80156 0.0
H435 H 0.30044 0.76444 0.83378 0.0
H436 H 0.39236 0.72913 0.37156 0.0
H437 H 0.33027 0.73038 0.3406 0.0
H438 H 0.43292 0.7107 0.29832 0.0
H439 H 0.49522 0.7087 0.32921 0.0
H440 H 0.32061 0.79463 0.30733 0.0
H441 H 0.33467 0.61129 0.27619 0.0
H442 H 0.3617 0.62901 0.30271 0.0
H443 H 0.38895 0.64361 0.27974 0.0
C444 C 0.40175 0.72447 0.3557 0.0
C445 C 0.44883 0.71872 0.35289 0.0
C446 C 0.36617 0.72528 0.33801 0.0
C447 C 0.37681 0.7201 0.31715 0.0
C448 C 0.42371 0.71378 0.31428 0.0
H449 H 0.22112 0.7419 0.18902 0.0
H450 H 0.2805 0.73361 0.2207 0.0
C451 C 0.45935 0.71288 0.33198 0.0
C452 C 0.33917 0.72398 0.29837 0.0
H453 H 0.28687 0.66528 0.25357 0.0
C454 C 0.31299 0.7662 0.29566 0.0
C455 C 0.32933 0.68693 0.28311 0.0
C456 C 0.35481 0.63997 0.28563 0.0
C457 C 0.27798 0.77282 0.27789 0.0
C458 C 0.26834 0.73589 0.26257 0.0
C459 C 0.29435 0.69357 0.26531 0.0
C460 C 0.23183 0.74073 0.24342 0.0
C461 C 0.25246 0.81977 0.27536 0.0
C462 C 0.18458 0.747 0.24563 0.0
C463 C 0.1504 0.75158 0.2275 0.0
C464 C 0.16273 0.74968 0.20675 0.0
C465 C 0.21014 0.74301 0.20466 0.0
C466 C 0.24425 0.73845 0.22279 0.0
H467 H 0.27159 0.84811 0.28545 0.0
H468 H 0.24731 0.83156 0.25838 0.0
H469 H 0.21747 0.81558 0.28036 0.0
H470 H 0.17405 0.74789 0.26139 0.0
H471 H 0.11425 0.75581 0.22977 0.0
H472 H 0.29276 0.12774 0.19609 0.0
H473 H 0.24664 0.15853 0.22251 0.0
H474 H 0.33742 0.281 0.23276 0.0
H475 H 0.3839 0.25034 0.2064 0.0
H476 H 0.27805 0.1758 0.26508 0.0
H477 H 0.20714 0.34129 0.22478 0.0
H478 H 0.23286 0.29438 0.2108 0.0
H479 H 0.26968 0.33589 0.22728 0.0
C480 C 0.30298 0.16121 0.20394 0.0
C481 C 0.34215 0.18649 0.19911 0.0
C482 C 0.27639 0.17892 0.21896 0.0
C483 C 0.28819 0.22238 0.22941 0.0
C484 C 0.32699 0.24796 0.22453 0.0
H485 H 0.20947 0.30575 0.35125 0.0
H486 H 0.25111 0.28842 0.32119 0.0
C487 C 0.35359 0.2303 0.20946 0.0
C488 C 0.26163 0.23921 0.24638 0.0
H489 H 0.19642 0.33154 0.26125 0.0
C490 C 0.26008 0.20979 0.2642 0.0
C491 C 0.23782 0.28336 0.2451 0.0
C492 C 0.23647 0.31543 0.22588 0.0
C493 C 0.23599 0.22354 0.28092 0.0
C494 C 0.21346 0.26834 0.28 0.0
C495 C 0.21421 0.29748 0.26201 0.0
C496 C 0.18862 0.2849 0.29757 0.0
C497 C 0.23435 0.18967 0.29934 0.0
C498 C 0.13985 0.29093 0.29405 0.0
C499 C 0.11583 0.30114 0.31122 0.0
C500 C 0.14031 0.30553 0.33218 0.0
C501 C 0.18946 0.30214 0.33537 0.0
C502 C 0.21336 0.29206 0.31822 0.0
H503 H 0.24334 0.15273 0.29515 0.0
H504 H 0.26006 0.20133 0.31325 0.0
H505 H 0.19908 0.18946 0.30432 0.0
H506 H 0.12016 0.28581 0.27819 0.0
H507 H 0.078 0.30364 0.30819 0.0
H508 H 0.47109 0.32265 0.72346 0.0
H509 H 0.42783 0.30366 0.75288 0.0
H510 H 0.2974 0.32793 0.71126 0.0
H511 H 0.34024 0.34592 0.68166 0.0
H512 H 0.36328 0.35146 0.77329 0.0
H513 H 0.28198 0.19196 0.73076 0.0
H514 H 0.32957 0.22396 0.72177 0.0
H515 H 0.2707 0.24629 0.716 0.0
C516 C 0.43321 0.32457 0.72062 0.0
C517 C 0.40912 0.33528 0.70011 0.0
C518 C 0.40852 0.3136 0.73746 0.0
C519 C 0.35934 0.31318 0.73413 0.0
C520 C 0.3353 0.32672 0.71405 0.0
H521 H 0.15327 0.228 0.81498 0.0
H522 H 0.19248 0.26114 0.78645 0.0
C523 C 0.3599 0.33736 0.69717 0.0
C524 C 0.33327 0.29689 0.7514 0.0
H525 H 0.25626 0.21223 0.76348 0.0
C526 C 0.33991 0.32102 0.77115 0.0
C527 C 0.30285 0.25701 0.74863 0.0
C528 C 0.29609 0.22797 0.72824 0.0
C529 C 0.3166 0.30665 0.7881 0.0
C530 C 0.28629 0.26679 0.7853 0.0
C531 C 0.27934 0.24293 0.76553 0.0
C532 C 0.26257 0.24825 0.80291 0.0
C533 C 0.32418 0.33452 0.8088 0.0
C534 C 0.28894 0.22958 0.82151 0.0
C535 C 0.26666 0.21058 0.8378 0.0
C536 C 0.21747 0.20978 0.83582 0.0
C537 C 0.19114 0.22854 0.81713 0.0
C538 C 0.21349 0.24731 0.80078 0.0
H539 H 0.33875 0.37049 0.80661 0.0
H540 H 0.2909 0.33843 0.81544 0.0
H541 H 0.3494 0.31519 0.82074 0.0
H542 H 0.32683 0.22923 0.82334 0.0
H543 H 0.28806 0.19693 0.85202 0.0
H544 H 0.56925 0.78758 0.8088 0.0
H545 H 0.61328 0.76536 0.78 0.0
H546 H 0.74109 0.76348 0.82517 0.0
H547 H 0.69747 0.78501 0.85407 0.0
H548 H 0.69077 0.80579 0.76395 0.0
H549 H 0.73291 0.62819 0.80007 0.0
H550 H 0.68932 0.66677 0.80862 0.0
H551 H 0.75048 0.67716 0.81782 0.0
C552 C 0.60682 0.78302 0.81257 0.0
C553 C 0.62975 0.78751 0.8338 0.0
C554 C 0.63191 0.77028 0.79609 0.0
C555 C 0.68027 0.76176 0.80054 0.0
C556 C 0.70361 0.76883 0.82147 0.0
H557 H 0.87861 0.72069 0.71129 0.0
H558 H 0.83244 0.75178 0.73763 0.0
C559 C 0.67861 0.78139 0.83796 0.0
C560 C 0.70604 0.74354 0.78356 0.0
H561 H 0.77034 0.64894 0.77043 0.0
C562 C 0.70811 0.77148 0.76531 0.0
C563 C 0.72796 0.69839 0.78522 0.0
C564 C 0.72479 0.66561 0.80388 0.0
C565 C 0.73239 0.75586 0.74887 0.0
C566 C 0.75569 0.71142 0.75091 0.0
C567 C 0.75282 0.68316 0.76898 0.0
C568 C 0.78307 0.69328 0.73448 0.0
C569 C 0.73223 0.78672 0.72933 0.0
C570 C 0.7714 0.64948 0.72429 0.0
C571 C 0.79788 0.63148 0.70927 0.0
C572 C 0.83673 0.65686 0.70415 0.0
C573 C 0.84846 0.70062 0.71451 0.0
C574 C 0.82202 0.71853 0.72957 0.0
H575 H 0.7029 0.81265 0.72756 0.0
H576 H 0.76549 0.80712 0.73089 0.0
H577 H 0.72943 0.76478 0.71453 0.0
H578 H 0.74159 0.62928 0.72791 0.0
H579 H 0.78753 0.59797 0.70148 0.0
H580 H 0.83211 0.83102 0.17918 0.0
H581 H 0.79002 0.82586 0.20995 0.0
H582 H 0.92049 0.8036 0.25182 0.0
H583 H 0.963 0.80915 0.22118 0.0
H584 H 0.78899 0.74702 0.23648 0.0
H585 H 0.85688 0.90565 0.28375 0.0
H586 H 0.8629 0.89811 0.25586 0.0
H587 H 0.90174 0.8676 0.27633 0.0
C588 C 0.85201 0.82573 0.19497 0.0
C589 C 0.901 0.82054 0.19769 0.0
C590 C 0.82783 0.82271 0.21254 0.0
C591 C 0.8521 0.81484 0.23322 0.0
C592 C 0.90109 0.81062 0.23608 0.0
H593 H 0.78197 0.74889 0.35792 0.0
H594 H 0.81916 0.76843 0.32679 0.0
C595 C 0.92533 0.81357 0.21851 0.0
C596 C 0.82592 0.80773 0.25153 0.0
H597 H 0.8143 0.84925 0.3014 0.0
C598 C 0.79415 0.76964 0.25059 0.0
C599 C 0.83285 0.83717 0.26996 0.0
C600 C 0.86511 0.87971 0.27154 0.0
C601 C 0.77015 0.75932 0.26782 0.0
C602 C 0.77737 0.78849 0.28635 0.0
C603 C 0.80874 0.82695 0.28719 0.0
C604 C 0.75413 0.7785 0.30535 0.0
C605 C 0.73855 0.71622 0.26632 0.0
C606 C 0.7051 0.77854 0.30381 0.0
C607 C 0.68361 0.76689 0.32159 0.0
C608 C 0.71074 0.75519 0.34133 0.0
C609 C 0.75988 0.75671 0.34293 0.0
C610 C 0.78128 0.76828 0.32516 0.0
H611 H 0.74568 0.69132 0.25349 0.0
H612 H 0.74275 0.69668 0.28176 0.0
H613 H 0.70156 0.72789 0.26252 0.0
H614 H 0.68342 0.78722 0.28878 0.0
H615 H 0.64577 0.76598 0.31969 0.0
H616 H 0.40399 0.16446 0.59443 0.0
H617 H 0.35098 0.15596 0.56055 0.0
H618 H 0.33554 0.30838 0.55662 0.0
H619 H 0.38763 0.31732 0.59058 0.0
H620 H 0.25598 0.18967 0.55058 0.0
H621 H 0.37337 0.26934 0.4982 0.0
H622 H 0.39443 0.24831 0.52494 0.0
H623 H 0.36565 0.30497 0.52108 0.0
C624 C 0.38919 0.19621 0.58646 0.0
C625 C 0.40039 0.24162 0.59527 0.0
C626 C 0.35906 0.19125 0.56704 0.0
C627 C 0.33992 0.23156 0.55598 0.0
C628 C 0.35074 0.27686 0.56472 0.0
H629 H 0.15253 0.30083 0.44212 0.0
H630 H 0.20595 0.2983 0.47577 0.0
C631 C 0.3807 0.28188 0.58414 0.0
C632 C 0.30772 0.22646 0.53552 0.0
H633 H 0.29399 0.25725 0.48268 0.0
C634 C 0.26435 0.20398 0.53566 0.0
C635 C 0.31892 0.24516 0.51614 0.0
C636 C 0.36578 0.26794 0.51494 0.0
C637 C 0.23102 0.20134 0.51702 0.0
C638 C 0.24188 0.22092 0.49772 0.0
C639 C 0.28572 0.2424 0.49752 0.0
C640 C 0.20766 0.22147 0.47771 0.0
C641 C 0.18388 0.17926 0.51831 0.0
C642 C 0.19076 0.17901 0.4676 0.0
C643 C 0.15955 0.18027 0.44835 0.0
C644 C 0.14492 0.22404 0.43881 0.0
C645 C 0.16208 0.26644 0.44908 0.0
C646 C 0.19308 0.26511 0.46829 0.0
H647 H 0.17733 0.17585 0.53515 0.0
H648 H 0.15529 0.20069 0.50924 0.0
H649 H 0.18254 0.14311 0.51113 0.0
H650 H 0.20219 0.14491 0.47443 0.0
H651 H 0.14692 0.14699 0.44097 0.0
H652 H 0.80433 0.61511 0.58618 0.0
H653 H 0.75486 0.64137 0.55365 0.0
H654 H 0.81968 0.78008 0.56034 0.0
H655 H 0.8705 0.75357 0.59285 0.0
H656 H 0.69066 0.71052 0.5468 0.0
H657 H 0.83386 0.7454 0.49933 0.0
H658 H 0.84327 0.71421 0.52457 0.0
H659 H 0.83974 0.77812 0.52406 0.0
C660 C 0.80823 0.65126 0.58079 0.0
C661 C 0.84164 0.6822 0.59206 0.0
C662 C 0.77982 0.6662 0.56216 0.0
C663 C 0.78409 0.71239 0.55433 0.0
C664 C 0.81658 0.74388 0.5658 0.0
H665 H 0.57586 0.84743 0.46043 0.0
H666 H 0.62631 0.82164 0.49279 0.0
C667 C 0.84534 0.72883 0.58446 0.0
C668 C 0.7541 0.72728 0.53425 0.0
H669 H 0.75757 0.76979 0.48386 0.0
C670 C 0.70528 0.72344 0.53302 0.0
C671 C 0.77323 0.74312 0.51613 0.0
C672 C 0.82539 0.74504 0.51594 0.0
C673 C 0.67504 0.73587 0.51432 0.0
C674 C 0.69413 0.75355 0.49648 0.0
C675 C 0.74296 0.75658 0.49758 0.0
C676 C 0.66405 0.76969 0.47665 0.0
C677 C 0.62299 0.72921 0.51374 0.0
C678 C 0.67 0.75098 0.45656 0.0
C679 C 0.64203 0.76692 0.43789 0.0
C680 C 0.60704 0.80096 0.43898 0.0
C681 C 0.60191 0.82035 0.45905 0.0
C682 C 0.63037 0.80521 0.47764 0.0
H683 H 0.61505 0.70334 0.52596 0.0
H684 H 0.60704 0.76364 0.5173 0.0
H685 H 0.6061 0.71689 0.4977 0.0
H686 H 0.69629 0.72407 0.45532 0.0
H687 H 0.64787 0.75287 0.42266 0.0
H688 H 0.84868 0.78087 0.09947 0.0
H689 H 0.79177 0.77576 0.06675 0.0
H690 H 0.84747 0.63904 0.05244 0.0
H691 H 0.90457 0.64389 0.08528 0.0
H692 H 0.81003 0.76945 0.02543 0.0
H693 H 0.70732 0.61251 0.0449 0.0
H694 H 0.74725 0.6439 0.06494 0.0
H695 H 0.76924 0.60239 0.04717 0.0
C696 C 0.84889 0.7497 0.08938 0.0
C697 C 0.88127 0.71282 0.09498 0.0
C698 C 0.81617 0.74673 0.07073 0.0
C699 C 0.81497 0.70679 0.05727 0.0
C700 C 0.84704 0.66972 0.06283 0.0
H701 H 0.65286 0.6457 0.93206 0.0
H702 H 0.70753 0.64234 0.96565 0.0
C703 C 0.87971 0.67257 0.08159 0.0
C704 C 0.78155 0.7053 0.03696 0.0
H705 H 0.68998 0.64272 1.00951 0.0
C706 C 0.7837 0.74181 0.02198 0.0
C707 C 0.74736 0.66907 0.03245 0.0
C708 C 0.74222 0.62994 0.04827 0.0
C709 C 0.75275 0.74303 1.00259 0.0
C710 C 0.71829 0.70711 0.99818 0.0
C711 C 0.71644 0.67022 1.01299 0.0
C712 C 0.68348 0.70782 0.97836 0.0
C713 C 0.75756 0.78244 0.98685 0.0
C714 C 0.6511 0.74513 0.97464 0.0
C715 C 0.61964 0.74704 0.95554 0.0
C716 C 0.61981 0.71157 0.93976 0.0
C717 C 0.65143 0.67342 0.94387 0.0
C718 C 0.68289 0.67153 0.96302 0.0
H719 H 0.79237 0.80005 0.99019 0.0
H720 H 0.75242 0.76865 0.97015 0.0
H721 H 0.73039 0.80979 0.98805 0.0
H722 H 0.65034 0.77297 0.98649 0.0
H723 H 0.59518 0.77636 0.95317 0.0
H724 H 0.42669 0.28067 0.08725 0.0
H725 H 0.3877 0.31743 0.05407 0.0
H726 H 0.25594 0.2574 0.06511 0.0
H727 H 0.29424 0.22123 0.09815 0.0
H728 H 0.34527 0.26353 0.0206 0.0
H729 H 0.21616 0.38975 0.04446 0.0
H730 H 0.26523 0.36809 0.0631 0.0
H731 H 0.21257 0.33307 0.05711 0.0
C732 C 0.38919 0.27641 0.08287 0.0
C733 C 0.36357 0.24781 0.09524 0.0
C734 C 0.36699 0.29742 0.06393 0.0
C735 C 0.31878 0.29073 0.05726 0.0
C736 C 0.2929 0.26408 0.07016 0.0
H737 H 0.11385 0.25412 0.95182 0.0
H738 H 0.15985 0.27329 0.9864 0.0
C739 C 0.315 0.24295 0.08897 0.0
C740 C 0.2965 0.30508 0.0355 0.0
H741 H 0.1973 0.35568 1.00867 0.0
C742 C 0.31364 0.28483 0.01789 0.0
C743 C 0.25519 0.33274 0.03204 0.0
C744 C 0.23651 0.35754 0.05021 0.0
C745 C 0.28862 0.28822 0.9971 0.0
C746 C 0.24575 0.31348 0.9938 0.0
C747 C 0.23011 0.3363 1.01123 0.0
C748 C 0.21408 0.31096 0.97305 0.0
C749 C 0.30655 0.26171 0.97913 0.0
C750 C 0.2281 0.32789 0.95408 0.0
C751 C 0.20196 0.31669 0.93418 0.0
C752 C 0.16125 0.28862 0.93298 0.0
C753 C 0.14522 0.27544 0.95211 0.0
C754 C 0.17144 0.28647 0.97195 0.0
H755 H 0.33596 0.23746 0.98511 0.0
H756 H 0.27808 0.24037 0.9698 0.0
H757 H 0.31926 0.28764 0.96808 0.0
H758 H 0.26046 0.34768 0.95463 0.0
H759 H 0.21505 0.32781 0.91976 0.0
loop_
_geom_bond_atom_site_label_1
_geom_bond_atom_site_label_2
_geom_bond_distance
_geom_bond_site_symmetry_2
_ccdc_geom_bond_type
Cu0 N1 1.999 . S
Cu0 O6 1.974 1_455 S
Cu0 N11 1.985 1_455 S
Cu0 O20 1.959 . S
N1 Cu0 1.999 . S
N1 C3 1.263 . S
N1 C5 1.389 . S
N2 C3 1.358 . S
N2 C4 1.400 . S
C3 N1 1.263 . S
C3 N2 1.358 . S
C3 H9 0.930 . S
C4 N2 1.400 . S
C4 C5 1.351 . S
C4 H21 0.930 . S
C5 N1 1.389 . S
C5 C4 1.351 . S
C5 H10 0.930 . S
O6 Cu0 1.974 1_655 S
O6 C16 1.282 . S
C7 O8 1.261 . S
C7 O20 1.251 . S
O8 C7 1.261 . S
H9 C3 0.930 . S
H10 C5 0.930 . S
N11 Cu0 1.985 1_655 S
N11 C13 1.335 . S
N11 C14 1.390 . S
N12 C13 1.345 . S
N12 C15 1.336 . S
C13 N11 1.335 . S
C13 N12 1.345 . S
C13 H18 0.930 . S
C14 N11 1.390 . S
C14 C15 1.346 . S
C14 H19 0.930 . S
C15 N12 1.336 . S
C15 C14 1.346 . S
C15 H22 0.929 . S
C16 O6 1.282 . S
C16 O17 1.216 1_655 S
O17 C16 1.216 1_455 S
H18 C13 0.930 . S
H19 C14 0.930 . S
O20 Cu0 1.959 . S
O20 C7 1.251 . S
H21 C4 0.930 . S
H22 C15 0.929 . S
Cu23 N24 1.999 . S
Cu23 O29 1.974 . S
Cu23 N34 1.985 . S
Cu23 O43 1.959 . S
N24 Cu23 1.999 . S
N24 C26 1.263 . S
N24 C28 1.389 . S
N25 C26 1.358 . S
N25 C27 1.400 . S
C26 N24 1.263 . S
C26 N25 1.358 . S
C26 H32 0.930 . S
C27 N25 1.400 . S
C27 C28 1.351 . S
C27 H44 0.930 . S
C28 N24 1.389 . S
C28 C27 1.351 . S
C28 H33 0.930 . S
O29 Cu23 1.974 . S
O29 C39 1.282 . S
C30 O31 1.261 . S
C30 O43 1.251 . S
O31 C30 1.261 . S
H32 C26 0.930 . S
H33 C28 0.930 . S
N34 Cu23 1.985 . S
N34 C36 1.335 . S
N34 C37 1.390 . S
N35 C36 1.345 . S
N35 C38 1.336 . S
C36 N34 1.335 . S
C36 N35 1.345 . S
C36 H41 0.930 . S
C37 N34 1.390 . S
C37 C38 1.346 . S
C37 H42 0.930 . S
C38 N35 1.336 . S
C38 C37 1.346 . S
C38 H45 0.929 . S
C39 O29 1.282 . S
C39 O40 1.216 . S
O40 C39 1.216 . S
H41 C36 0.930 . S
H42 C37 0.930 . S
O43 Cu23 1.959 . S
O43 C30 1.251 . S
H44 C27 0.930 . S
H45 C38 0.929 . S
Cu46 N47 1.999 . S
Cu46 O52 1.974 . S
Cu46 N57 1.985 . S
Cu46 O66 1.959 . S
N47 Cu46 1.999 . S
N47 C49 1.263 . S
N47 C51 1.389 . S
N48 C49 1.358 . S
N48 C50 1.400 . S
C49 N47 1.263 . S
C49 N48 1.358 . S
C49 H55 0.930 . S
C50 N48 1.400 . S
C50 C51 1.351 . S
C50 H67 0.930 . S
C51 N47 1.389 . S
C51 C50 1.351 . S
C51 H56 0.930 . S
O52 Cu46 1.974 . S
O52 C62 1.291 . S
C53 O54 1.261 . S
C53 O66 1.251 . S
O54 C53 1.261 . S
H55 C49 0.930 . S
H56 C51 0.930 . S
N57 Cu46 1.985 . S
N57 C59 1.335 . S
N57 C60 1.390 1_655 S
N58 C59 1.345 . S
N58 C61 1.336 1_655 S
C59 N57 1.335 . S
C59 N58 1.345 . S
C59 H64 0.930 . S
C60 N57 1.390 1_455 S
C60 C61 1.346 . S
C60 H65 0.930 . S
C61 N58 1.336 1_455 S
C61 C60 1.346 . S
C61 H68 0.929 . S
C62 O52 1.291 . S
C62 O63 1.216 . S
O63 C62 1.216 . S
H64 C59 0.930 . S
H65 C60 0.930 . S
O66 Cu46 1.959 . S
O66 C53 1.251 . S
H67 C50 0.930 . S
H68 C61 0.929 . S
Cu69 N70 1.999 . S
Cu69 O75 1.974 . S
Cu69 N80 1.985 . S
Cu69 O89 1.959 . S
N70 Cu69 1.999 . S
N70 C72 1.263 . S
N70 C74 1.389 . S
N71 C72 1.358 . S
N71 C73 1.400 . S
C72 N70 1.263 . S
C72 N71 1.358 . S
C72 H78 0.930 . S
C73 N71 1.400 . S
C73 C74 1.351 . S
C73 H90 0.930 . S
C74 N70 1.389 . S
C74 C73 1.351 . S
C74 H79 0.930 . S
O75 Cu69 1.974 . S
O75 C85 1.282 . S
C76 O77 1.261 . S
C76 O89 1.251 . S
O77 C76 1.261 . S
H78 C72 0.930 . S
H79 C74 0.930 . S
N80 Cu69 1.985 . S
N80 C82 1.335 . S
N80 C83 1.390 . S
N81 C82 1.345 . S
N81 C84 1.336 . S
C82 N80 1.335 . S
C82 N81 1.345 . S
C82 H87 0.930 . S
C83 N80 1.390 . S
C83 C84 1.346 . S
C83 H88 0.930 . S
C84 N81 1.336 . S
C84 C83 1.346 . S
C84 H91 0.929 . S
C85 O75 1.282 . S
C85 O86 1.216 . S
O86 C85 1.216 . S
H87 C82 0.930 . S
H88 C83 0.930 . S
O89 Cu69 1.959 . S
O89 C76 1.251 . S
H90 C73 0.930 . S
H91 C84 0.929 . S
Cu92 N93 1.999 . S
Cu92 O98 1.974 . S
Cu92 N103 1.985 . S
Cu92 O112 1.959 . S
N93 Cu92 1.999 . S
N93 C95 1.263 . S
N93 C97 1.389 . S
N94 C95 1.358 . S
N94 C96 1.400 . S
C95 N93 1.263 . S
C95 N94 1.358 . S
C95 H101 0.930 . S
C96 N94 1.400 . S
C96 C97 1.351 . S
C96 H113 0.930 . S
C97 N93 1.389 . S
C97 C96 1.351 . S
C97 H102 0.930 . S
O98 Cu92 1.974 . S
O98 C108 1.282 . S
C99 O100 1.261 . S
C99 O112 1.251 . S
O100 C99 1.261 . S
H101 C95 0.930 . S
H102 C97 0.930 . S
N103 Cu92 1.985 . S
N103 C105 1.335 . S
N103 C106 1.390 . S
N104 C105 1.345 . S
N104 C107 1.336 . S
C105 N103 1.335 . S
C105 N104 1.345 . S
C105 H110 0.930 . S
C106 N103 1.390 . S
C106 C107 1.346 . S
C106 H111 0.930 . S
C107 N104 1.336 . S
C107 C106 1.346 . S
C107 H114 0.929 . S
C108 O98 1.282 . S
C108 O109 1.216 . S
O109 C108 1.216 . S
H110 C105 0.930 . S
H111 C106 0.930 . S
O112 Cu92 1.959 . S
O112 C99 1.251 . S
H113 C96 0.930 . S
H114 C107 0.929 . S
Cu115 N116 1.999 . S
Cu115 O121 1.974 1_655 S
Cu115 N126 1.985 1_655 S
Cu115 O135 1.959 . S
N116 Cu115 1.999 . S
N116 C118 1.263 . S
N116 C120 1.389 . S
N117 C118 1.358 . S
N117 C119 1.400 . S
C118 N116 1.263 . S
C118 N117 1.358 . S
C118 H124 0.930 . S
C119 N117 1.400 . S
C119 C120 1.351 . S
C119 H136 0.930 . S
C120 N116 1.389 . S
C120 C119 1.351 . S
C120 H125 0.930 . S
O121 Cu115 1.974 1_455 S
O121 C131 1.282 . S
C122 O123 1.261 . S
C122 O135 1.251 . S
O123 C122 1.261 . S
H124 C118 0.930 . S
H125 C120 0.930 . S
N126 Cu115 1.985 1_455 S
N126 C128 1.335 . S
N126 C129 1.390 . S
N127 C128 1.345 . S
N127 C130 1.336 . S
C128 N126 1.335 . S
C128 N127 1.345 . S
C128 H133 0.930 . S
C129 N126 1.390 . S
C129 C130 1.346 . S
C129 H134 0.930 . S
C130 N127 1.336 . S
C130 C129 1.346 . S
C130 H137 0.929 . S
C131 O121 1.282 . S
C131 O132 1.216 1_455 S
O132 C131 1.216 1_655 S
H133 C128 0.930 . S
H134 C129 0.930 . S
O135 Cu115 1.959 . S
O135 C122 1.251 . S
H136 C119 0.930 . S
H137 C130 0.929 . S
Cu138 N139 1.999 . S
Cu138 O144 1.974 . S
Cu138 N149 1.985 . S
Cu138 O158 1.959 . S
N139 Cu138 1.999 . S
N139 C141 1.263 . S
N139 C143 1.389 . S
N140 C141 1.358 . S
N140 C142 1.400 . S
C141 N139 1.263 . S
C141 N140 1.358 . S
C141 H147 0.930 . S
C142 N140 1.400 . S
C142 C143 1.351 . S
C142 H159 0.930 . S
C143 N139 1.389 . S
C143 C142 1.351 . S
C143 H148 0.930 . S
O144 Cu138 1.974 . S
O144 C154 1.282 . S
C145 O146 1.261 . S
C145 O158 1.251 . S
O146 C145 1.261 . S
H147 C141 0.930 . S
H148 C143 0.930 . S
N149 Cu138 1.985 . S
N149 C151 1.335 . S
N149 C152 1.390 . S
N150 C151 1.345 . S
N150 C153 1.336 . S
C151 N149 1.335 . S
C151 N150 1.345 . S
C151 H156 0.930 . S
C152 N149 1.390 . S
C152 C153 1.346 . S
C152 H157 0.930 . S
C153 N150 1.336 . S
C153 C152 1.346 . S
C153 H160 0.929 . S
C154 O144 1.282 . S
C154 O155 1.216 . S
O155 C154 1.216 . S
H156 C151 0.930 . S
H157 C152 0.930 . S
O158 Cu138 1.959 . S
O158 C145 1.251 . S
H159 C142 0.930 . S
H160 C153 0.929 . S
Cu161 N162 1.999 . S
Cu161 O167 1.974 . S
Cu161 N172 1.985 . S
Cu161 O181 1.959 . S
N162 Cu161 1.999 . S
N162 C164 1.263 . S
N162 C166 1.389 . S
N163 C164 1.358 . S
N163 C165 1.400 . S
C164 N162 1.263 . S
C164 N163 1.358 . S
C164 H170 0.930 . S
C165 N163 1.400 . S
C165 C166 1.351 . S
C165 H182 0.930 . S
C166 N162 1.389 . S
C166 C165 1.351 . S
C166 H171 0.930 . S
O167 Cu161 1.974 . S
O167 C177 1.291 . S
C168 O169 1.261 . S
C168 O181 1.251 . S
O169 C168 1.261 . S
H170 C164 0.930 . S
H171 C166 0.930 . S
N172 Cu161 1.985 . S
N172 C174 1.335 . S
N172 C175 1.390 1_455 S
N173 C174 1.345 . S
N173 C176 1.336 1_455 S
C174 N172 1.335 . S
C174 N173 1.345 . S
C174 H179 0.930 . S
C175 N172 1.390 1_655 S
C175 C176 1.346 . S
C175 H180 0.930 . S
C176 N173 1.336 1_655 S
C176 C175 1.346 . S
C176 H183 0.929 . S
C177 O167 1.291 . S
C177 O178 1.216 . S
O178 C177 1.216 . S
H179 C174 0.930 . S
H180 C175 0.930 . S
O181 Cu161 1.959 . S
O181 C168 1.251 . S
H182 C165 0.930 . S
H183 C176 0.929 . S
H184 C192 0.929 . S
H185 C194 0.930 . S
H186 C196 0.930 . S
H187 C199 0.929 . S
H188 C202 0.930 . S
H189 C204 0.960 . S
H190 C204 0.960 1_455 S
H191 C204 0.960 . S
C192 H184 0.929 . S
C192 C193 1.377 1_455 S
C192 C194 1.384 . S
C193 C192 1.377 1_655 S
C193 C199 1.390 . S
C194 H185 0.930 . S
C194 C192 1.384 . S
C194 C195 1.372 1_455 S
C195 C194 1.372 1_655 S
C195 C196 1.400 . S
C195 C200 1.490 . S
C196 H186 0.930 . S
C196 C195 1.400 . S
C196 C199 1.386 . S
H197 C213 0.930 . S
H198 C214 0.931 . S
C199 H187 0.929 . S
C199 C193 1.390 . S
C199 C196 1.386 . S
C200 C195 1.490 . S
C200 C202 1.395 . S
C200 C203 1.403 . S
H201 C207 0.930 . S
C202 H188 0.930 . S
C202 C200 1.395 . S
C202 C205 1.403 . S
C203 C200 1.403 . S
C203 C204 1.524 . S
C203 C207 1.400 . S
C204 H189 0.960 . S
C204 H190 0.960 1_655 S
C204 H191 0.960 . S
C204 C203 1.524 . S
C205 C202 1.403 . S
C205 C206 1.392 . S
C205 C209 1.495 . S
C206 C205 1.392 . S
C206 C207 1.385 . S
C206 C208 1.478 . S
C207 H201 0.930 . S
C207 C203 1.400 . S
C207 C206 1.385 . S
C208 C206 1.478 . S
C208 C210 1.381 1_655 S
C208 C214 1.383 . S
C209 C205 1.495 . S
C209 H215 0.959 . S
C209 H216 0.961 . S
C209 H217 0.960 1_655 S
C210 C208 1.381 1_455 S
C210 C211 1.394 . S
C210 H218 0.930 . S
C211 C210 1.394 . S
C211 C212 1.383 1_455 S
C211 H219 0.929 . S
C212 C211 1.383 1_655 S
C212 C213 1.377 . S
C213 H197 0.930 . S
C213 C212 1.377 . S
C213 C214 1.379 . S
C214 H198 0.931 . S
C214 C208 1.383 . S
C214 C213 1.379 . S
H215 C209 0.959 . S
H216 C209 0.961 . S
H217 C209 0.960 1_455 S
H218 C210 0.930 . S
H219 C211 0.929 . S
H220 C228 0.929 . S
H221 C230 0.930 . S
H222 C232 0.930 . S
H223 C235 0.929 . S
H224 C238 0.930 . S
H225 C240 0.960 . S
H226 C240 0.960 . S
H227 C240 0.960 . S
C228 H220 0.929 . S
C228 C229 1.377 . S
C228 C230 1.384 . S
C229 C228 1.377 . S
C229 C235 1.390 . S
C230 H221 0.930 . S
C230 C228 1.384 . S
C230 C231 1.372 . S
C231 C230 1.372 . S
C231 C232 1.400 . S
C231 C236 1.490 . S
C232 H222 0.930 . S
C232 C231 1.400 . S
C232 C235 1.386 . S
H233 C249 0.930 . S
H234 C250 0.931 . S
C235 H223 0.929 . S
C235 C229 1.390 . S
C235 C232 1.386 . S
C236 C231 1.490 . S
C236 C238 1.395 . S
C236 C239 1.403 . S
H237 C243 0.930 . S
C238 H224 0.930 . S
C238 C236 1.395 . S
C238 C241 1.403 . S
C239 C236 1.403 . S
C239 C240 1.524 . S
C239 C243 1.400 . S
C240 H225 0.960 . S
C240 H226 0.960 . S
C240 H227 0.960 . S
C240 C239 1.524 . S
C241 C238 1.403 . S
C241 C242 1.392 . S
C241 C245 1.495 . S
C242 C241 1.392 . S
C242 C243 1.385 . S
C242 C244 1.478 . S
C243 H237 0.930 . S
C243 C239 1.400 . S
C243 C242 1.385 . S
C244 C242 1.478 . S
C244 C246 1.381 . S
C244 C250 1.383 . S
C245 C241 1.495 . S
C245 H251 0.959 . S
C245 H252 0.961 . S
C245 H253 0.960 . S
C246 C244 1.381 . S
C246 C247 1.394 . S
C246 H254 0.930 . S
C247 C246 1.394 . S
C247 C248 1.383 . S
C247 H255 0.929 . S
C248 C247 1.383 . S
C248 C249 1.377 . S
C249 H233 0.930 . S
C249 C248 1.377 . S
C249 C250 1.379 . S
C250 H234 0.931 . S
C250 C244 1.383 . S
C250 C249 1.379 . S
H251 C245 0.959 . S
H252 C245 0.961 . S
H253 C245 0.960 . S
H254 C246 0.930 . S
H255 C247 0.929 . S
H256 C264 0.929 . S
H257 C266 0.930 . S
H258 C268 0.930 . S
H259 C271 0.929 . S
H260 C274 0.930 . S
H261 C276 0.960 . S
H262 C276 0.960 . S
H263 C276 0.960 . S
C264 H256 0.929 . S
C264 C265 1.377 . S
C264 C266 1.384 . S
C265 C264 1.377 . S
C265 C271 1.390 . S
C266 H257 0.930 . S
C266 C264 1.384 . S
C266 C267 1.372 . S
C267 C266 1.372 . S
C267 C268 1.400 . S
C267 C272 1.490 1_554 S
C268 H258 0.930 . S
C268 C267 1.400 . S
C268 C271 1.386 . S
H269 C285 0.930 . S
H270 C286 0.931 . S
C271 H259 0.929 . S
C271 C265 1.390 . S
C271 C268 1.386 . S
C272 C267 1.490 1_556 S
C272 C274 1.395 1_546 S
C272 C275 1.403 . S
H273 C279 0.930 . S
C274 H260 0.930 . S
C274 C272 1.395 1_564 S
C274 C277 1.403 1_554 S
C275 C272 1.403 . S
C275 C276 1.524 . S
C275 C279 1.400 1_545 S
C276 H261 0.960 . S
C276 H262 0.960 . S
C276 H263 0.960 . S
C276 C275 1.524 . S
C277 C274 1.403 1_556 S
C277 C278 1.392 . S
C277 C281 1.495 . S
C278 C277 1.392 . S
C278 C279 1.385 . S
C278 C280 1.478 . S
C279 H273 0.930 . S
C279 C275 1.400 1_565 S
C279 C278 1.385 . S
C280 C278 1.478 . S
C280 C282 1.381 . S
C280 C286 1.383 . S
C281 C277 1.495 . S
C281 H287 0.959 1_556 S
C281 H288 0.961 . S
C281 H289 0.960 . S
C282 C280 1.381 . S
C282 C283 1.394 . S
C282 H290 0.930 . S
C283 C282 1.394 . S
C283 C284 1.383 . S
C283 H291 0.929 . S
C284 C283 1.383 . S
C284 C285 1.377 . S
C285 H269 0.930 . S
C285 C284 1.377 . S
C285 C286 1.379 . S
C286 H270 0.931 . S
C286 C280 1.383 . S
C286 C285 1.379 . S
H287 C281 0.959 1_554 S
H288 C281 0.961 . S
H289 C281 0.960 . S
H290 C282 0.930 . S
H291 C283 0.929 . S
H292 C300 0.929 . S
H293 C302 0.930 . S
H294 C304 0.930 . S
H295 C307 0.929 . S
H296 C310 0.930 . S
H297 C312 0.960 . S
H298 C312 0.960 . S
H299 C312 0.960 . S
C300 H292 0.929 . S
C300 C301 1.377 . S
C300 C302 1.384 . S
C301 C300 1.377 . S
C301 C307 1.390 1_455 S
C302 H293 0.930 . S
C302 C300 1.384 . S
C302 C303 1.372 . S
C303 C302 1.372 . S
C303 C304 1.400 1_455 S
C303 C308 1.490 . S
C304 H294 0.930 . S
C304 C303 1.400 1_655 S
C304 C307 1.386 . S
H305 C321 0.930 . S
H306 C322 0.931 1_655 S
C307 H295 0.929 . S
C307 C301 1.390 1_655 S
C307 C304 1.386 . S
C308 C303 1.490 . S
C308 C310 1.395 . S
C308 C311 1.403 1_455 S
H309 C315 0.937 . S
C310 H296 0.930 . S
C310 C308 1.395 . S
C310 C313 1.403 1_565 S
C311 C308 1.403 1_655 S
C311 C312 1.524 . S
C311 C315 1.400 1_565 S
C312 H297 0.960 . S
C312 H298 0.960 . S
C312 H299 0.960 . S
C312 C311 1.524 . S
C313 C310 1.403 1_545 S
C313 C314 1.392 . S
C313 C317 1.495 . S
C314 C313 1.392 . S
C314 C315 1.385 1_455 S
C314 C316 1.478 1_554 S
C315 H309 0.937 . S
C315 C311 1.400 1_545 S
C315 C314 1.385 1_655 S
C316 C314 1.478 1_556 S
C316 C318 1.381 . S
C316 C322 1.383 . S
C317 C313 1.495 . S
C317 H323 0.959 1_545 S
C317 H324 0.961 1_554 S
C317 H325 0.960 . S
C318 C316 1.381 . S
C318 C319 1.394 . S
C318 H326 0.900 1_556 S
C319 C318 1.394 . S
C319 C320 1.383 . S
C319 H327 0.929 . S
C320 C319 1.383 . S
C320 C321 1.377 1_455 S
C321 H305 0.930 . S
C321 C320 1.377 1_655 S
C321 C322 1.379 1_655 S
C322 H306 0.931 1_455 S
C322 C316 1.383 . S
C322 C321 1.379 1_455 S
H323 C317 0.959 1_565 S
H324 C317 0.961 1_556 S
H325 C317 0.960 . S
H326 C318 0.900 1_554 S
H327 C319 0.929 . S
H328 C336 0.929 . S
H329 C338 0.930 . S
H330 C340 0.930 . S
H331 C343 0.929 . S
H332 C346 0.930 . S
H333 C348 0.960 . S
H334 C348 0.960 . S
H335 C348 0.960 . S
C336 H328 0.929 . S
C336 C337 1.377 . S
C336 C338 1.384 . S
C337 C336 1.377 . S
C337 C343 1.390 . S
C338 H329 0.930 . S
C338 C336 1.384 . S
C338 C339 1.372 . S
C339 C338 1.372 . S
C339 C340 1.400 . S
C339 C344 1.490 . S
C340 H330 0.930 . S
C340 C339 1.400 . S
C340 C343 1.386 . S
H341 C357 0.930 . S
H342 C358 0.931 . S
C343 H331 0.929 . S
C343 C337 1.390 . S
C343 C340 1.386 . S
C344 C339 1.490 . S
C344 C346 1.395 . S
C344 C347 1.403 . S
H345 C351 0.930 . S
C346 H332 0.930 . S
C346 C344 1.395 . S
C346 C349 1.403 . S
C347 C344 1.403 . S
C347 C348 1.524 . S
C347 C351 1.400 . S
C348 H333 0.960 . S
C348 H334 0.960 . S
C348 H335 0.960 . S
C348 C347 1.524 . S
C349 C346 1.403 . S
C349 C350 1.392 . S
C349 C353 1.495 . S
C350 C349 1.392 . S
C350 C351 1.385 . S
C350 C352 1.478 . S
C351 H345 0.930 . S
C351 C347 1.400 . S
C351 C350 1.385 . S
C352 C350 1.478 . S
C352 C354 1.381 . S
C352 C358 1.383 . S
C353 C349 1.495 . S
C353 H359 0.959 . S
C353 H360 0.961 . S
C353 H361 0.960 . S
C354 C352 1.381 . S
C354 C355 1.394 . S
C354 H362 0.930 . S
C355 C354 1.394 . S
C355 C356 1.383 . S
C355 H363 0.929 . S
C356 C355 1.383 . S
C356 C357 1.377 . S
C357 H341 0.930 . S
C357 C356 1.377 . S
C357 C358 1.379 . S
C358 H342 0.931 . S
C358 C352 1.383 . S
C358 C357 1.379 . S
H359 C353 0.959 . S
H360 C353 0.961 . S
H361 C353 0.960 . S
H362 C354 0.930 . S
H363 C355 0.929 . S
H364 C372 0.929 . S
H365 C374 0.930 . S
H366 C376 0.930 . S
H367 C379 0.929 . S
H368 C382 0.930 . S
H369 C384 0.960 . S
H370 C384 0.960 . S
H371 C384 0.960 . S
C372 H364 0.929 . S
C372 C373 1.377 . S
C372 C374 1.384 . S
C373 C372 1.377 . S
C373 C379 1.390 . S
C374 H365 0.930 . S
C374 C372 1.384 . S
C374 C375 1.372 . S
C375 C374 1.372 . S
C375 C376 1.400 . S
C375 C380 1.490 . S
C376 H366 0.930 . S
C376 C375 1.400 . S
C376 C379 1.386 . S
H377 C393 0.930 . S
H378 C394 0.931 . S
C379 H367 0.929 . S
C379 C373 1.390 . S
C379 C376 1.386 . S
C380 C375 1.490 . S
C380 C382 1.395 . S
C380 C383 1.403 . S
H381 C387 0.930 . S
C382 H368 0.930 . S
C382 C380 1.395 . S
C382 C385 1.403 . S
C383 C380 1.403 . S
C383 C384 1.524 . S
C383 C387 1.400 . S
C384 H369 0.960 . S
C384 H370 0.960 . S
C384 H371 0.960 . S
C384 C383 1.524 . S
C385 C382 1.403 . S
C385 C386 1.392 . S
C385 C389 1.495 . S
C386 C385 1.392 . S
C386 C387 1.385 . S
C386 C388 1.478 . S
C387 H381 0.930 . S
C387 C383 1.400 . S
C387 C386 1.385 . S
C388 C386 1.478 . S
C388 C390 1.381 . S
C388 C394 1.383 . S
C389 C385 1.495 . S
C389 H395 0.959 . S
C389 H396 0.961 . S
C389 H397 0.960 . S
C390 C388 1.381 . S
C390 C391 1.394 . S
C390 H398 0.930 . S
C391 C390 1.394 . S
C391 C392 1.383 . S
C391 H399 0.929 . S
C392 C391 1.383 . S
C392 C393 1.377 . S
C393 H377 0.930 . S
C393 C392 1.377 . S
C393 C394 1.379 . S
C394 H378 0.931 . S
C394 C388 1.383 . S
C394 C393 1.379 . S
H395 C389 0.959 . S
H396 C389 0.961 . S
H397 C389 0.960 . S
H398 C390 0.930 . S
H399 C391 0.929 . S
H400 C408 0.929 . S
H401 C410 0.930 . S
H402 C412 0.930 . S
H403 C415 0.929 . S
H404 C418 0.930 . S
H405 C420 0.960 . S
H406 C420 0.960 . S
H407 C420 0.960 . S
C408 H400 0.929 . S
C408 C409 1.377 . S
C408 C410 1.384 . S
C409 C408 1.377 . S
C409 C415 1.390 . S
C410 H401 0.930 . S
C410 C408 1.384 . S
C410 C411 1.372 . S
C411 C410 1.372 . S
C411 C412 1.400 . S
C411 C416 1.490 . S
C412 H402 0.930 . S
C412 C411 1.400 . S
C412 C415 1.386 . S
H413 C429 0.930 . S
H414 C430 0.931 . S
C415 H403 0.929 . S
C415 C409 1.390 . S
C415 C412 1.386 . S
C416 C411 1.490 . S
C416 C418 1.395 . S
C416 C419 1.403 . S
H417 C423 0.930 . S
C418 H404 0.930 . S
C418 C416 1.395 . S
C418 C421 1.403 . S
C419 C416 1.403 . S
C419 C420 1.524 . S
C419 C423 1.400 . S
C420 H405 0.960 . S
C420 H406 0.960 . S
C420 H407 0.960 . S
C420 C419 1.524 . S
C421 C418 1.403 . S
C421 C422 1.392 . S
C421 C425 1.495 . S
C422 C421 1.392 . S
C422 C423 1.385 . S
C422 C424 1.478 . S
C423 H417 0.930 . S
C423 C419 1.400 . S
C423 C422 1.385 . S
C424 C422 1.478 . S
C424 C426 1.381 . S
C424 C430 1.383 . S
C425 C421 1.495 . S
C425 H431 0.959 . S
C425 H432 0.961 . S
C425 H433 0.960 . S
C426 C424 1.381 . S
C426 C427 1.394 . S
C426 H434 0.930 . S
C427 C426 1.394 . S
C427 C428 1.383 . S
C427 H435 0.929 . S
C428 C427 1.383 . S
C428 C429 1.377 . S
C429 H413 0.930 . S
C429 C428 1.377 . S
C429 C430 1.379 . S
C430 H414 0.931 . S
C430 C424 1.383 . S
C430 C429 1.379 . S
H431 C425 0.959 . S
H432 C425 0.961 . S
H433 C425 0.960 . S
H434 C426 0.930 . S
H435 C427 0.929 . S
H436 C444 0.929 . S
H437 C446 0.930 . S
H438 C448 0.930 . S
H439 C451 0.929 . S
H440 C454 0.930 . S
H441 C456 0.960 . S
H442 C456 0.960 . S
H443 C456 0.960 . S
C444 H436 0.929 . S
C444 C445 1.377 . S
C444 C446 1.384 . S
C445 C444 1.377 . S
C445 C451 1.390 . S
C446 H437 0.930 . S
C446 C444 1.384 . S
C446 C447 1.372 . S
C447 C446 1.372 . S
C447 C448 1.400 . S
C447 C452 1.490 . S
C448 H438 0.930 . S
C448 C447 1.400 . S
C448 C451 1.386 . S
H449 C465 0.930 . S
H450 C466 0.931 . S
C451 H439 0.929 . S
C451 C445 1.390 . S
C451 C448 1.386 . S
C452 C447 1.490 . S
C452 C454 1.395 . S
C452 C455 1.403 . S
H453 C459 0.930 . S
C454 H440 0.930 . S
C454 C452 1.395 . S
C454 C457 1.403 . S
C455 C452 1.403 . S
C455 C456 1.524 . S
C455 C459 1.400 . S
C456 H441 0.960 . S
C456 H442 0.960 . S
C456 H443 0.960 . S
C456 C455 1.524 . S
C457 C454 1.403 . S
C457 C458 1.392 . S
C457 C461 1.495 . S
C458 C457 1.392 . S
C458 C459 1.385 . S
C458 C460 1.478 . S
C459 H453 0.930 . S
C459 C455 1.400 . S
C459 C458 1.385 . S
C460 C458 1.478 . S
C460 C462 1.381 . S
C460 C466 1.383 . S
C461 C457 1.495 . S
C461 H467 0.959 . S
C461 H468 0.961 . S
C461 H469 0.960 . S
C462 C460 1.381 . S
C462 C463 1.394 . S
C462 H470 0.930 . S
C463 C462 1.394 . S
C463 C464 1.383 . S
C463 H471 0.929 . S
C464 C463 1.383 . S
C464 C465 1.377 . S
C465 H449 0.930 . S
C465 C464 1.377 . S
C465 C466 1.379 . S
C466 H450 0.931 . S
C466 C460 1.383 . S
C466 C465 1.379 . S
H467 C461 0.959 . S
H468 C461 0.961 . S
H469 C461 0.960 . S
H470 C462 0.930 . S
H471 C463 0.929 . S
H472 C480 0.929 . S
H473 C482 0.930 . S
H474 C484 0.930 . S
H475 C487 0.929 . S
H476 C490 0.930 . S
H477 C492 0.960 . S
H478 C492 0.960 . S
H479 C492 0.960 . S
C480 H472 0.929 . S
C480 C481 1.377 . S
C480 C482 1.384 . S
C481 C480 1.377 . S
C481 C487 1.390 . S
C482 H473 0.930 . S
C482 C480 1.384 . S
C482 C483 1.372 . S
C483 C482 1.372 . S
C483 C484 1.400 . S
C483 C488 1.490 . S
C484 H474 0.930 . S
C484 C483 1.400 . S
C484 C487 1.386 . S
H485 C501 0.930 . S
H486 C502 0.931 . S
C487 H475 0.929 . S
C487 C481 1.390 . S
C487 C484 1.386 . S
C488 C483 1.490 . S
C488 C490 1.395 . S
C488 C491 1.403 . S
H489 C495 0.930 . S
C490 H476 0.930 . S
C490 C488 1.395 . S
C490 C493 1.403 . S
C491 C488 1.403 . S
C491 C492 1.524 . S
C491 C495 1.400 . S
C492 H477 0.960 . S
C492 H478 0.960 . S
C492 H479 0.960 . S
C492 C491 1.524 . S
C493 C490 1.403 . S
C493 C494 1.392 . S
C493 C497 1.495 . S
C494 C493 1.392 . S
C494 C495 1.385 . S
C494 C496 1.478 . S
C495 H489 0.930 . S
C495 C491 1.400 . S
C495 C494 1.385 . S
C496 C494 1.478 . S
C496 C498 1.381 . S
C496 C502 1.383 . S
C497 C493 1.495 . S
C497 H503 0.959 . S
C497 H504 0.961 . S
C497 H505 0.960 . S
C498 C496 1.381 . S
C498 C499 1.394 . S
C498 H506 0.930 . S
C499 C498 1.394 . S
C499 C500 1.383 . S
C499 H507 0.929 . S
C500 C499 1.383 . S
C500 C501 1.377 . S
C501 H485 0.930 . S
C501 C500 1.377 . S
C501 C502 1.379 . S
C502 H486 0.931 . S
C502 C496 1.383 . S
C502 C501 1.379 . S
H503 C497 0.959 . S
H504 C497 0.961 . S
H505 C497 0.960 . S
H506 C498 0.930 . S
H507 C499 0.929 . S
H508 C516 0.929 . S
H509 C518 0.930 . S
H510 C520 0.930 . S
H511 C523 0.929 . S
H512 C526 0.930 . S
H513 C528 0.960 . S
H514 C528 0.960 . S
H515 C528 0.960 . S
C516 H508 0.929 . S
C516 C517 1.377 . S
C516 C518 1.384 . S
C517 C516 1.377 . S
C517 C523 1.390 . S
C518 H509 0.930 . S
C518 C516 1.384 . S
C518 C519 1.372 . S
C519 C518 1.372 . S
C519 C520 1.400 . S
C519 C524 1.490 . S
C520 H510 0.930 . S
C520 C519 1.400 . S
C520 C523 1.386 . S
H521 C537 0.930 . S
H522 C538 0.931 . S
C523 H511 0.929 . S
C523 C517 1.390 . S
C523 C520 1.386 . S
C524 C519 1.490 . S
C524 C526 1.395 . S
C524 C527 1.403 . S
H525 C531 0.930 . S
C526 H512 0.930 . S
C526 C524 1.395 . S
C526 C529 1.403 . S
C527 C524 1.403 . S
C527 C528 1.524 . S
C527 C531 1.400 . S
C528 H513 0.960 . S
C528 H514 0.960 . S
C528 H515 0.960 . S
C528 C527 1.524 . S
C529 C526 1.403 . S
C529 C530 1.392 . S
C529 C533 1.495 . S
C530 C529 1.392 . S
C530 C531 1.385 . S
C530 C532 1.478 . S
C531 H525 0.930 . S
C531 C527 1.400 . S
C531 C530 1.385 . S
C532 C530 1.478 . S
C532 C534 1.381 . S
C532 C538 1.383 . S
C533 C529 1.495 . S
C533 H539 0.959 . S
C533 H540 0.961 . S
C533 H541 0.960 . S
C534 C532 1.381 . S
C534 C535 1.394 . S
C534 H542 0.930 . S
C535 C534 1.394 . S
C535 C536 1.383 . S
C535 H543 0.929 . S
C536 C535 1.383 . S
C536 C537 1.377 . S
C537 H521 0.930 . S
C537 C536 1.377 . S
C537 C538 1.379 . S
C538 H522 0.931 . S
C538 C532 1.383 . S
C538 C537 1.379 . S
H539 C533 0.959 . S
H540 C533 0.961 . S
H541 C533 0.960 . S
H542 C534 0.930 . S
H543 C535 0.929 . S
H544 C552 0.929 . S
H545 C554 0.930 . S
H546 C556 0.930 . S
H547 C559 0.929 . S
H548 C562 0.930 . S
H549 C564 0.960 . S
H550 C564 0.960 . S
H551 C564 0.960 . S
C552 H544 0.929 . S
C552 C553 1.377 . S
C552 C554 1.384 . S
C553 C552 1.377 . S
C553 C559 1.390 . S
C554 H545 0.930 . S
C554 C552 1.384 . S
C554 C555 1.372 . S
C555 C554 1.372 . S
C555 C556 1.400 . S
C555 C560 1.490 . S
C556 H546 0.930 . S
C556 C555 1.400 . S
C556 C559 1.386 . S
H557 C573 0.930 . S
H558 C574 0.931 . S
C559 H547 0.929 . S
C559 C553 1.390 . S
C559 C556 1.386 . S
C560 C555 1.490 . S
C560 C562 1.395 . S
C560 C563 1.403 . S
H561 C567 0.930 . S
C562 H548 0.930 . S
C562 C560 1.395 . S
C562 C565 1.403 . S
C563 C560 1.403 . S
C563 C564 1.524 . S
C563 C567 1.400 . S
C564 H549 0.960 . S
C564 H550 0.960 . S
C564 H551 0.960 . S
C564 C563 1.524 . S
C565 C562 1.403 . S
C565 C566 1.392 . S
C565 C569 1.495 . S
C566 C565 1.392 . S
C566 C567 1.385 . S
C566 C568 1.478 . S
C567 H561 0.930 . S
C567 C563 1.400 . S
C567 C566 1.385 . S
C568 C566 1.478 . S
C568 C570 1.381 . S
C568 C574 1.383 . S
C569 C565 1.495 . S
C569 H575 0.959 . S
C569 H576 0.961 . S
C569 H577 0.960 . S
C570 C568 1.381 . S
C570 C571 1.394 . S
C570 H578 0.930 . S
C571 C570 1.394 . S
C571 C572 1.383 . S
C571 H579 0.929 . S
C572 C571 1.383 . S
C572 C573 1.377 . S
C573 H557 0.930 . S
C573 C572 1.377 . S
C573 C574 1.379 . S
C574 H558 0.931 . S
C574 C568 1.383 . S
C574 C573 1.379 . S
H575 C569 0.959 . S
H576 C569 0.961 . S
H577 C569 0.960 . S
H578 C570 0.930 . S
H579 C571 0.929 . S
H580 C588 0.929 . S
H581 C590 0.930 . S
H582 C592 0.930 . S
H583 C595 0.929 . S
H584 C598 0.930 . S
H585 C600 0.960 . S
H586 C600 0.960 . S
H587 C600 0.960 . S
C588 H580 0.929 . S
C588 C589 1.377 . S
C588 C590 1.384 . S
C589 C588 1.377 . S
C589 C595 1.390 . S
C590 H581 0.930 . S
C590 C588 1.384 . S
C590 C591 1.372 . S
C591 C590 1.372 . S
C591 C592 1.400 . S
C591 C596 1.490 . S
C592 H582 0.930 . S
C592 C591 1.400 . S
C592 C595 1.386 . S
H593 C609 0.930 . S
H594 C610 0.931 . S
C595 H583 0.929 . S
C595 C589 1.390 . S
C595 C592 1.386 . S
C596 C591 1.490 . S
C596 C598 1.395 . S
C596 C599 1.403 . S
H597 C603 0.930 . S
C598 H584 0.930 . S
C598 C596 1.395 . S
C598 C601 1.403 . S
C599 C596 1.403 . S
C599 C600 1.524 . S
C599 C603 1.400 . S
C600 H585 0.960 . S
C600 H586 0.960 . S
C600 H587 0.960 . S
C600 C599 1.524 . S
C601 C598 1.403 . S
C601 C602 1.392 . S
C601 C605 1.495 . S
C602 C601 1.392 . S
C602 C603 1.385 . S
C602 C604 1.478 . S
C603 H597 0.930 . S
C603 C599 1.400 . S
C603 C602 1.385 . S
C604 C602 1.478 . S
C604 C606 1.381 . S
C604 C610 1.383 . S
C605 C601 1.495 . S
C605 H611 0.959 . S
C605 H612 0.961 . S
C605 H613 0.960 . S
C606 C604 1.381 . S
C606 C607 1.394 . S
C606 H614 0.930 . S
C607 C606 1.394 . S
C607 C608 1.383 . S
C607 H615 0.929 . S
C608 C607 1.383 . S
C608 C609 1.377 . S
C609 H593 0.930 . S
C609 C608 1.377 . S
C609 C610 1.379 . S
C610 H594 0.931 . S
C610 C604 1.383 . S
C610 C609 1.379 . S
H611 C605 0.959 . S
H612 C605 0.961 . S
H613 C605 0.960 . S
H614 C606 0.930 . S
H615 C607 0.929 . S
H616 C624 0.929 . S
H617 C626 0.930 . S
H618 C628 0.930 . S
H619 C631 0.929 . S
H620 C634 0.930 . S
H621 C636 0.960 . S
H622 C636 0.960 . S
H623 C636 0.960 . S
C624 H616 0.929 . S
C624 C625 1.377 . S
C624 C626 1.384 . S
C625 C624 1.377 . S
C625 C631 1.390 . S
C626 H617 0.930 . S
C626 C624 1.384 . S
C626 C627 1.372 . S
C627 C626 1.372 . S
C627 C628 1.400 . S
C627 C632 1.490 . S
C628 H618 0.930 . S
C628 C627 1.400 . S
C628 C631 1.386 . S
H629 C645 0.930 . S
H630 C646 0.931 . S
C631 H619 0.929 . S
C631 C625 1.390 . S
C631 C628 1.386 . S
C632 C627 1.490 . S
C632 C634 1.395 . S
C632 C635 1.403 . S
H633 C639 0.930 . S
C634 H620 0.930 . S
C634 C632 1.395 . S
C634 C637 1.403 . S
C635 C632 1.403 . S
C635 C636 1.524 . S
C635 C639 1.400 . S
C636 H621 0.960 . S
C636 H622 0.960 . S
C636 H623 0.960 . S
C636 C635 1.524 . S
C637 C634 1.403 . S
C637 C638 1.392 . S
C637 C641 1.495 . S
C638 C637 1.392 . S
C638 C639 1.385 . S
C638 C640 1.478 . S
C639 H633 0.930 . S
C639 C635 1.400 . S
C639 C638 1.385 . S
C640 C638 1.478 . S
C640 C642 1.381 . S
C640 C646 1.383 . S
C641 C637 1.495 . S
C641 H647 0.959 . S
C641 H648 0.961 . S
C641 H649 0.960 . S
C642 C640 1.381 . S
C642 C643 1.394 . S
C642 H650 0.930 . S
C643 C642 1.394 . S
C643 C644 1.383 . S
C643 H651 0.929 . S
C644 C643 1.383 . S
C644 C645 1.377 . S
C645 H629 0.930 . S
C645 C644 1.377 . S
C645 C646 1.379 . S
C646 H630 0.931 . S
C646 C640 1.383 . S
C646 C645 1.379 . S
H647 C641 0.959 . S
H648 C641 0.961 . S
H649 C641 0.960 . S
H650 C642 0.930 . S
H651 C643 0.929 . S
H652 C660 0.929 . S
H653 C662 0.930 . S
H654 C664 0.930 . S
H655 C667 0.929 . S
H656 C670 0.930 . S
H657 C672 0.960 . S
H658 C672 0.960 . S
H659 C672 0.960 . S
C660 H652 0.929 . S
C660 C661 1.377 . S
C660 C662 1.384 . S
C661 C660 1.377 . S
C661 C667 1.390 . S
C662 H653 0.930 . S
C662 C660 1.384 . S
C662 C663 1.372 . S
C663 C662 1.372 . S
C663 C664 1.400 . S
C663 C668 1.490 . S
C664 H654 0.930 . S
C664 C663 1.400 . S
C664 C667 1.386 . S
H665 C681 0.930 . S
H666 C682 0.931 . S
C667 H655 0.929 . S
C667 C661 1.390 . S
C667 C664 1.386 . S
C668 C663 1.490 . S
C668 C670 1.395 . S
C668 C671 1.403 . S
H669 C675 0.930 . S
C670 H656 0.930 . S
C670 C668 1.395 . S
C670 C673 1.403 . S
C671 C668 1.403 . S
C671 C672 1.524 . S
C671 C675 1.400 . S
C672 H657 0.960 . S
C672 H658 0.960 . S
C672 H659 0.960 . S
C672 C671 1.524 . S
C673 C670 1.403 . S
C673 C674 1.392 . S
C673 C677 1.495 . S
C674 C673 1.392 . S
C674 C675 1.385 . S
C674 C676 1.478 . S
C675 H669 0.930 . S
C675 C671 1.400 . S
C675 C674 1.385 . S
C676 C674 1.478 . S
C676 C678 1.381 . S
C676 C682 1.383 . S
C677 C673 1.495 . S
C677 H683 0.959 . S
C677 H684 0.961 . S
C677 H685 0.960 . S
C678 C676 1.381 . S
C678 C679 1.394 . S
C678 H686 0.930 . S
C679 C678 1.394 . S
C679 C680 1.383 . S
C679 H687 0.929 . S
C680 C679 1.383 . S
C680 C681 1.377 . S
C681 H665 0.930 . S
C681 C680 1.377 . S
C681 C682 1.379 . S
C682 H666 0.931 . S
C682 C676 1.383 . S
C682 C681 1.379 . S
H683 C677 0.959 . S
H684 C677 0.961 . S
H685 C677 0.960 . S
H686 C678 0.930 . S
H687 C679 0.929 . S
H688 C696 0.929 . S
H689 C698 0.930 . S
H690 C700 0.930 . S
H691 C703 0.929 . S
H692 C706 0.930 . S
H693 C708 0.960 . S
H694 C708 0.960 . S
H695 C708 0.960 . S
C696 H688 0.929 . S
C696 C697 1.377 . S
C696 C698 1.384 . S
C697 C696 1.377 . S
C697 C703 1.390 . S
C698 H689 0.930 . S
C698 C696 1.384 . S
C698 C699 1.372 . S
C699 C698 1.372 . S
C699 C700 1.400 . S
C699 C704 1.490 . S
C700 H690 0.930 . S
C700 C699 1.400 . S
C700 C703 1.386 . S
H701 C717 0.930 . S
H702 C718 0.931 . S
C703 H691 0.929 . S
C703 C697 1.390 . S
C703 C700 1.386 . S
C704 C699 1.490 . S
C704 C706 1.395 . S
C704 C707 1.403 . S
H705 C711 0.930 . S
C706 H692 0.930 . S
C706 C704 1.395 . S
C706 C709 1.403 1_554 S
C707 C704 1.403 . S
C707 C708 1.524 . S
C707 C711 1.400 1_554 S
C708 H693 0.960 . S
C708 H694 0.960 . S
C708 H695 0.960 . S
C708 C707 1.524 . S
C709 C706 1.403 1_556 S
C709 C710 1.392 . S
C709 C713 1.495 . S
C710 C709 1.392 . S
C710 C711 1.385 . S
C710 C712 1.478 . S
C711 H705 0.930 . S
C711 C707 1.400 1_556 S
C711 C710 1.385 . S
C712 C710 1.478 . S
C712 C714 1.381 . S
C712 C718 1.383 . S
C713 C709 1.495 . S
C713 H719 0.959 . S
C713 H720 0.961 . S
C713 H721 0.960 . S
C714 C712 1.381 . S
C714 C715 1.394 . S
C714 H722 0.930 . S
C715 C714 1.394 . S
C715 C716 1.383 . S
C715 H723 0.929 . S
C716 C715 1.383 . S
C716 C717 1.377 . S
C717 H701 0.930 . S
C717 C716 1.377 . S
C717 C718 1.379 . S
C718 H702 0.931 . S
C718 C712 1.383 . S
C718 C717 1.379 . S
H719 C713 0.959 . S
H720 C713 0.961 . S
H721 C713 0.960 . S
H722 C714 0.930 . S
H723 C715 0.929 . S
H724 C732 0.929 . S
H725 C734 0.930 . S
H726 C736 0.930 . S
H727 C739 0.929 . S
H728 C742 0.930 . S
H729 C744 0.960 . S
H730 C744 0.960 . S
H731 C744 0.960 . S
C732 H724 0.929 . S
C732 C733 1.377 . S
C732 C734 1.384 . S
C733 C732 1.377 . S
C733 C739 1.390 . S
C734 H725 0.930 . S
C734 C732 1.384 . S
C734 C735 1.372 . S
C735 C734 1.372 . S
C735 C736 1.400 . S
C735 C740 1.490 . S
C736 H726 0.930 . S
C736 C735 1.400 . S
C736 C739 1.386 . S
H737 C753 0.930 . S
H738 C754 0.931 . S
C739 H727 0.929 . S
C739 C733 1.390 . S
C739 C736 1.386 . S
C740 C735 1.490 . S
C740 C742 1.395 . S
C740 C743 1.403 . S
H741 C747 0.930 . S
C742 H728 0.930 . S
C742 C740 1.395 . S
C742 C745 1.403 1_554 S
C743 C740 1.403 . S
C743 C744 1.524 . S
C743 C747 1.400 1_554 S
C744 H729 0.960 . S
C744 H730 0.960 . S
C744 H731 0.960 . S
C744 C743 1.524 . S
C745 C742 1.403 1_556 S
C745 C746 1.392 . S
C745 C749 1.495 . S
C746 C745 1.392 . S
C746 C747 1.385 . S
C746 C748 1.478 . S
C747 H741 0.930 . S
C747 C743 1.400 1_556 S
C747 C746 1.385 . S
C748 C746 1.478 . S
C748 C750 1.381 . S
C748 C754 1.383 . S
C749 C745 1.495 . S
C749 H755 0.959 . S
C749 H756 0.961 . S
C749 H757 0.960 . S
C750 C748 1.381 . S
C750 C751 1.394 . S
C750 H758 0.930 . S
C751 C750 1.394 . S
C751 C752 1.383 . S
C751 H759 0.929 . S
C752 C751 1.383 . S
C752 C753 1.377 . S
C753 H737 0.930 . S
C753 C752 1.377 . S
C753 C754 1.379 . S
C754 H738 0.931 . S
C754 C748 1.383 . S
C754 C753 1.379 . S
H755 C749 0.959 . S
H756 C749 0.961 . S
H757 C749 0.960 . S
H758 C750 0.930 . S
H759 C751 0.929 . S
C193 C16 1.664 . S
C212 N58 1.738 . S
C229 N81 1.732 . S
C248 C39 1.644 . S
C265 N150 1.732 . S
C284 C108 1.671 . S
C301 C131 1.661 . S
C320 N173 1.724 . S
C337 C154 1.963 . S
C356 N12 1.946 . S
C373 N35 1.942 . S
C392 C177 1.961 1_655 S
C409 C62 1.953 1_455 S
C428 N104 1.938 . S
C445 C85 1.962 . S
C464 N127 1.936 . S
C481 N140 1.924 . S
C500 C7 2.062 . S
C517 C30 2.060 . S
C536 N163 1.922 . S
C553 C99 2.059 . S
C572 N48 1.916 . S
C589 C122 2.053 . S
C608 N71 1.899 . S
C625 N25 0.561 . S
C644 N2 0.571 . S
C661 C53 0.288 . S
C680 C76 0.260 . S
C697 N117 0.572 . S
C716 N94 0.625 . S
C733 C145 0.301 . S
C752 C168 0.353 . S
