# Generated by pormake.
# Topology ulj, (4)-cn, num edge types: 1
# Building blocks:
#     Node 0, Type 0, BuildingBlock: QUQFOY_clean_sbu_1, # of connection points: 4
#     Node 1, Type 0, BuildingBlock: QUQFOY_clean_sbu_1, # of connection points: 4
#     Node 2, Type 0, BuildingBlock: QUQFOY_clean_sbu_1, # of connection points: 4
#     Node 3, Type 0, BuildingBlock: QUQFOY_clean_sbu_1, # of connection points: 4
#     Node 4, Type 0, BuildingBlock: QUQFOY_clean_sbu_1, # of connection points: 4
#     Node 5, Type 0, BuildingBlock: QUQFOY_clean_sbu_1, # of connection points: 4
#     Node 6, Type 0, BuildingBlock: QUQFOY_clean_sbu_1, # of connection points: 4
#     Node 7, Type 0, BuildingBlock: QUQFOY_clean_sbu_1, # of connection points: 4
#     Node 8, Type 0, BuildingBlock: QUQFOY_clean_sbu_1, # of connection points: 4
#     Node 9, Type 0, BuildingBlock: QUQFOY_clean_sbu_1, # of connection points: 4
#     Node 10, Type 0, BuildingBlock: QUQFOY_clean_sbu_1, # of connection points: 4
#     Node 11, Type 0, BuildingBlock: QUQFOY_clean_sbu_1, # of connection points: 4
#     Node 12, Type 0, BuildingBlock: QUQFOY_clean_sbu_1, # of connection points: 4
#     Node 13, Type 0, BuildingBlock: QUQFOY_clean_sbu_1, # of connection points: 4
#     Node 14, Type 0, BuildingBlock: QUQFOY_clean_sbu_1, # of connection points: 4
#     Node 15, Type 0, BuildingBlock: QUQFOY_clean_sbu_1, # of connection points: 4
#     Node 16, Type 0, BuildingBlock: QUQFOY_clean_sbu_1, # of connection points: 4
#     Node 17, Type 0, BuildingBlock: QUQFOY_clean_sbu_1, # of connection points: 4
#     Node 18, Type 0, BuildingBlock: QUQFOY_clean_sbu_1, # of connection points: 4
#     Node 19, Type 0, BuildingBlock: QUQFOY_clean_sbu_1, # of connection points: 4
#     Node 20, Type 0, BuildingBlock: QUQFOY_clean_sbu_1, # of connection points: 4
#     Node 21, Type 0, BuildingBlock: QUQFOY_clean_sbu_1, # of connection points: 4
#     Node 22, Type 0, BuildingBlock: QUQFOY_clean_sbu_1, # of connection points: 4
#     Node 23, Type 0, BuildingBlock: QUQFOY_clean_sbu_1, # of connection points: 4
#     Node 24, Type 0, BuildingBlock: QUQFOY_clean_sbu_1, # of connection points: 4
#     Node 25, Type 0, BuildingBlock: QUQFOY_clean_sbu_1, # of connection points: 4
#     Node 26, Type 0, BuildingBlock: QUQFOY_clean_sbu_1, # of connection points: 4
#     Node 27, Type 0, BuildingBlock: QUQFOY_clean_sbu_1, # of connection points: 4
#     Node 28, Type 0, BuildingBlock: QUQFOY_clean_sbu_1, # of connection points: 4
#     Node 29, Type 0, BuildingBlock: QUQFOY_clean_sbu_1, # of connection points: 4
#     Node 30, Type 0, BuildingBlock: QUQFOY_clean_sbu_1, # of connection points: 4
#     Node 31, Type 0, BuildingBlock: QUQFOY_clean_sbu_1, # of connection points: 4
#     Node 32, Type 0, BuildingBlock: QUQFOY_clean_sbu_1, # of connection points: 4
#     Node 33, Type 0, BuildingBlock: QUQFOY_clean_sbu_1, # of connection points: 4
#     Node 34, Type 0, BuildingBlock: QUQFOY_clean_sbu_1, # of connection points: 4
#     Node 35, Type 0, BuildingBlock: QUQFOY_clean_sbu_1, # of connection points: 4
#     Node 36, Type 0, BuildingBlock: QUQFOY_clean_sbu_1, # of connection points: 4
#     Node 37, Type 0, BuildingBlock: QUQFOY_clean_sbu_1, # of connection points: 4
#     Node 38, Type 0, BuildingBlock: QUQFOY_clean_sbu_1, # of connection points: 4
#     Node 39, Type 0, BuildingBlock: QUQFOY_clean_sbu_1, # of connection points: 4
#     Node 40, Type 0, BuildingBlock: QUQFOY_clean_sbu_1, # of connection points: 4
#     Node 41, Type 0, BuildingBlock: QUQFOY_clean_sbu_1, # of connection points: 4
#     Node 42, Type 0, BuildingBlock: QUQFOY_clean_sbu_1, # of connection points: 4
#     Node 43, Type 0, BuildingBlock: QUQFOY_clean_sbu_1, # of connection points: 4
#     Node 44, Type 0, BuildingBlock: QUQFOY_clean_sbu_1, # of connection points: 4
#     Node 45, Type 0, BuildingBlock: QUQFOY_clean_sbu_1, # of connection points: 4
#     Node 46, Type 0, BuildingBlock: QUQFOY_clean_sbu_1, # of connection points: 4
#     Node 47, Type 0, BuildingBlock: QUQFOY_clean_sbu_1, # of connection points: 4
#     Edge 48, Type (0, 0), BuildingBlock: XIVTED_clean_linker_0, # of connection points: 2
#     Edge 49, Type (0, 0), BuildingBlock: XIVTED_clean_linker_0, # of connection points: 2
#     Edge 50, Type (0, 0), BuildingBlock: XIVTED_clean_linker_0, # of connection points: 2
#     Edge 51, Type (0, 0), BuildingBlock: XIVTED_clean_linker_0, # of connection points: 2
#     Edge 52, Type (0, 0), BuildingBlock: XIVTED_clean_linker_0, # of connection points: 2
#     Edge 53, Type (0, 0), BuildingBlock: XIVTED_clean_linker_0, # of connection points: 2
#     Edge 54, Type (0, 0), BuildingBlock: XIVTED_clean_linker_0, # of connection points: 2
#     Edge 55, Type (0, 0), BuildingBlock: XIVTED_clean_linker_0, # of connection points: 2
#     Edge 56, Type (0, 0), BuildingBlock: XIVTED_clean_linker_0, # of connection points: 2
#     Edge 57, Type (0, 0), BuildingBlock: XIVTED_clean_linker_0, # of connection points: 2
#     Edge 58, Type (0, 0), BuildingBlock: XIVTED_clean_linker_0, # of connection points: 2
#     Edge 59, Type (0, 0), BuildingBlock: XIVTED_clean_linker_0, # of connection points: 2
#     Edge 60, Type (0, 0), BuildingBlock: XIVTED_clean_linker_0, # of connection points: 2
#     Edge 61, Type (0, 0), BuildingBlock: XIVTED_clean_linker_0, # of connection points: 2
#     Edge 62, Type (0, 0), BuildingBlock: XIVTED_clean_linker_0, # of connection points: 2
#     Edge 63, Type (0, 0), BuildingBlock: XIVTED_clean_linker_0, # of connection points: 2
#     Edge 64, Type (0, 0), BuildingBlock: XIVTED_clean_linker_0, # of connection points: 2
#     Edge 65, Type (0, 0), BuildingBlock: XIVTED_clean_linker_0, # of connection points: 2
#     Edge 66, Type (0, 0), BuildingBlock: XIVTED_clean_linker_0, # of connection points: 2
#     Edge 67, Type (0, 0), BuildingBlock: XIVTED_clean_linker_0, # of connection points: 2
#     Edge 68, Type (0, 0), BuildingBlock: XIVTED_clean_linker_0, # of connection points: 2
#     Edge 69, Type (0, 0), BuildingBlock: XIVTED_clean_linker_0, # of connection points: 2
#     Edge 70, Type (0, 0), BuildingBlock: XIVTED_clean_linker_0, # of connection points: 2
#     Edge 71, Type (0, 0), BuildingBlock: XIVTED_clean_linker_0, # of connection points: 2
#     Edge 72, Type (0, 0), BuildingBlock: XIVTED_clean_linker_0, # of connection points: 2
#     Edge 73, Type (0, 0), BuildingBlock: XIVTED_clean_linker_0, # of connection points: 2
#     Edge 74, Type (0, 0), BuildingBlock: XIVTED_clean_linker_0, # of connection points: 2
#     Edge 75, Type (0, 0), BuildingBlock: XIVTED_clean_linker_0, # of connection points: 2
#     Edge 76, Type (0, 0), BuildingBlock: XIVTED_clean_linker_0, # of connection points: 2
#     Edge 77, Type (0, 0), BuildingBlock: XIVTED_clean_linker_0, # of connection points: 2
#     Edge 78, Type (0, 0), BuildingBlock: XIVTED_clean_linker_0, # of connection points: 2
#     Edge 79, Type (0, 0), BuildingBlock: XIVTED_clean_linker_0, # of connection points: 2
#     Edge 80, Type (0, 0), BuildingBlock: XIVTED_clean_linker_0, # of connection points: 2
#     Edge 81, Type (0, 0), BuildingBlock: XIVTED_clean_linker_0, # of connection points: 2
#     Edge 82, Type (0, 0), BuildingBlock: XIVTED_clean_linker_0, # of connection points: 2
#     Edge 83, Type (0, 0), BuildingBlock: XIVTED_clean_linker_0, # of connection points: 2
#     Edge 84, Type (0, 0), BuildingBlock: XIVTED_clean_linker_0, # of connection points: 2
#     Edge 85, Type (0, 0), BuildingBlock: XIVTED_clean_linker_0, # of connection points: 2
#     Edge 86, Type (0, 0), BuildingBlock: XIVTED_clean_linker_0, # of connection points: 2
#     Edge 87, Type (0, 0), BuildingBlock: XIVTED_clean_linker_0, # of connection points: 2
#     Edge 88, Type (0, 0), BuildingBlock: XIVTED_clean_linker_0, # of connection points: 2
#     Edge 89, Type (0, 0), BuildingBlock: XIVTED_clean_linker_0, # of connection points: 2
#     Edge 90, Type (0, 0), BuildingBlock: XIVTED_clean_linker_0, # of connection points: 2
#     Edge 91, Type (0, 0), BuildingBlock: XIVTED_clean_linker_0, # of connection points: 2
#     Edge 92, Type (0, 0), BuildingBlock: XIVTED_clean_linker_0, # of connection points: 2
#     Edge 93, Type (0, 0), BuildingBlock: XIVTED_clean_linker_0, # of connection points: 2
#     Edge 94, Type (0, 0), BuildingBlock: XIVTED_clean_linker_0, # of connection points: 2
#     Edge 95, Type (0, 0), BuildingBlock: XIVTED_clean_linker_0, # of connection points: 2
#     Edge 96, Type (0, 0), BuildingBlock: XIVTED_clean_linker_0, # of connection points: 2
#     Edge 97, Type (0, 0), BuildingBlock: XIVTED_clean_linker_0, # of connection points: 2
#     Edge 98, Type (0, 0), BuildingBlock: XIVTED_clean_linker_0, # of connection points: 2
#     Edge 99, Type (0, 0), BuildingBlock: XIVTED_clean_linker_0, # of connection points: 2
#     Edge 100, Type (0, 0), BuildingBlock: XIVTED_clean_linker_0, # of connection points: 2
#     Edge 101, Type (0, 0), BuildingBlock: XIVTED_clean_linker_0, # of connection points: 2
#     Edge 102, Type (0, 0), BuildingBlock: XIVTED_clean_linker_0, # of connection points: 2
#     Edge 103, Type (0, 0), BuildingBlock: XIVTED_clean_linker_0, # of connection points: 2
#     Edge 104, Type (0, 0), BuildingBlock: XIVTED_clean_linker_0, # of connection points: 2
#     Edge 105, Type (0, 0), BuildingBlock: XIVTED_clean_linker_0, # of connection points: 2
#     Edge 106, Type (0, 0), BuildingBlock: XIVTED_clean_linker_0, # of connection points: 2
#     Edge 107, Type (0, 0), BuildingBlock: XIVTED_clean_linker_0, # of connection points: 2
#     Edge 108, Type (0, 0), BuildingBlock: XIVTED_clean_linker_0, # of connection points: 2
#     Edge 109, Type (0, 0), BuildingBlock: XIVTED_clean_linker_0, # of connection points: 2
#     Edge 110, Type (0, 0), BuildingBlock: XIVTED_clean_linker_0, # of connection points: 2
#     Edge 111, Type (0, 0), BuildingBlock: XIVTED_clean_linker_0, # of connection points: 2
#     Edge 112, Type (0, 0), BuildingBlock: XIVTED_clean_linker_0, # of connection points: 2
#     Edge 113, Type (0, 0), BuildingBlock: XIVTED_clean_linker_0, # of connection points: 2
#     Edge 114, Type (0, 0), BuildingBlock: XIVTED_clean_linker_0, # of connection points: 2
#     Edge 115, Type (0, 0), BuildingBlock: XIVTED_clean_linker_0, # of connection points: 2
#     Edge 116, Type (0, 0), BuildingBlock: XIVTED_clean_linker_0, # of connection points: 2
#     Edge 117, Type (0, 0), BuildingBlock: XIVTED_clean_linker_0, # of connection points: 2
#     Edge 118, Type (0, 0), BuildingBlock: XIVTED_clean_linker_0, # of connection points: 2
#     Edge 119, Type (0, 0), BuildingBlock: XIVTED_clean_linker_0, # of connection points: 2
#     Edge 120, Type (0, 0), BuildingBlock: XIVTED_clean_linker_0, # of connection points: 2
#     Edge 121, Type (0, 0), BuildingBlock: XIVTED_clean_linker_0, # of connection points: 2
#     Edge 122, Type (0, 0), BuildingBlock: XIVTED_clean_linker_0, # of connection points: 2
#     Edge 123, Type (0, 0), BuildingBlock: XIVTED_clean_linker_0, # of connection points: 2
#     Edge 124, Type (0, 0), BuildingBlock: XIVTED_clean_linker_0, # of connection points: 2
#     Edge 125, Type (0, 0), BuildingBlock: XIVTED_clean_linker_0, # of connection points: 2
#     Edge 126, Type (0, 0), BuildingBlock: XIVTED_clean_linker_0, # of connection points: 2
#     Edge 127, Type (0, 0), BuildingBlock: XIVTED_clean_linker_0, # of connection points: 2
#     Edge 128, Type (0, 0), BuildingBlock: XIVTED_clean_linker_0, # of connection points: 2
#     Edge 129, Type (0, 0), BuildingBlock: XIVTED_clean_linker_0, # of connection points: 2
#     Edge 130, Type (0, 0), BuildingBlock: XIVTED_clean_linker_0, # of connection points: 2
#     Edge 131, Type (0, 0), BuildingBlock: XIVTED_clean_linker_0, # of connection points: 2
#     Edge 132, Type (0, 0), BuildingBlock: XIVTED_clean_linker_0, # of connection points: 2
#     Edge 133, Type (0, 0), BuildingBlock: XIVTED_clean_linker_0, # of connection points: 2
#     Edge 134, Type (0, 0), BuildingBlock: XIVTED_clean_linker_0, # of connection points: 2
#     Edge 135, Type (0, 0), BuildingBlock: XIVTED_clean_linker_0, # of connection points: 2
#     Edge 136, Type (0, 0), BuildingBlock: XIVTED_clean_linker_0, # of connection points: 2
#     Edge 137, Type (0, 0), BuildingBlock: XIVTED_clean_linker_0, # of connection points: 2
#     Edge 138, Type (0, 0), BuildingBlock: XIVTED_clean_linker_0, # of connection points: 2
#     Edge 139, Type (0, 0), BuildingBlock: XIVTED_clean_linker_0, # of connection points: 2
#     Edge 140, Type (0, 0), BuildingBlock: XIVTED_clean_linker_0, # of connection points: 2
#     Edge 141, Type (0, 0), BuildingBlock: XIVTED_clean_linker_0, # of connection points: 2
#     Edge 142, Type (0, 0), BuildingBlock: XIVTED_clean_linker_0, # of connection points: 2
#     Edge 143, Type (0, 0), BuildingBlock: XIVTED_clean_linker_0, # of connection points: 2
# Relax obj value: 0.218
# Max RMSD: 0.293
# Mean RMSD: 0.263
data_MOF--net-ulj--node1-QUQFOY_clean_sbu_1--edge1-XIVTED_clean_linker_0
_symmetry_space_group_name_H-M    P1
_symmetry_Int_Tables_number       1
_symmetry_cell_setting            triclinic
loop_
_symmetry_equiv_pos_as_xyz
'x, y, z'
_cell_length_a     59.908026
_cell_length_b     64.684298
_cell_length_c     67.372167
_cell_angle_alpha  90.035107
_cell_angle_beta   89.974146
_cell_angle_gamma 90.002362
loop_
_atom_site_label
_atom_site_type_symbol
_atom_site_fract_x
_atom_site_fract_y
_atom_site_fract_z
_atom_type_partial_charge
O0 O 0.10665 0.17735 0.3384 0.0
Cd1 Cd 0.13476 0.19436 0.3313 0.0
Cd2 Cd 0.11609 0.19159 0.29406 0.0
O3 O 0.08976 0.17869 0.30925 0.0
O4 O 0.14439 0.21094 0.35511 0.0
O5 O 0.13115 0.22463 0.32745 0.0
C6 C 0.13863 0.22718 0.34521 0.0
C7 C 0.11243 0.2197 0.27264 0.0
C8 C 0.08999 0.17319 0.32738 0.0
C9 C 0.1607 0.17113 0.30058 0.0
O10 O 0.14375 0.17336 0.28943 0.0
O11 O 0.16123 0.17936 0.31775 0.0
O12 O 0.10602 0.20147 0.26729 0.0
O13 O 0.11981 0.22203 0.29046 0.0
O14 O 0.39322 0.61599 0.89368 0.0
Cd15 Cd 0.41617 0.59283 0.89872 0.0
Cd16 Cd 0.40998 0.60415 0.93698 0.0
O17 O 0.39469 0.6293 0.92379 0.0
O18 O 0.43596 0.59111 0.87493 0.0
O19 O 0.44697 0.60252 0.90437 0.0
C20 C 0.45141 0.59905 0.88593 0.0
C21 C 0.4369 0.60877 0.96172 0.0
C22 C 0.38827 0.63033 0.90582 0.0
C23 C 0.39649 0.56097 0.92485 0.0
O24 O 0.39446 0.57562 0.93733 0.0
O25 O 0.40633 0.56399 0.90839 0.0
O26 O 0.41592 0.61113 0.96543 0.0
O27 O 0.44265 0.60451 0.94373 0.0
O28 O 0.8923 0.31625 0.34029 0.0
Cd29 Cd 0.86376 0.30025 0.33273 0.0
Cd30 Cd 0.8845 0.29999 0.29637 0.0
O31 O 0.91094 0.31172 0.31229 0.0
O32 O 0.8527 0.28405 0.35628 0.0
O33 O 0.86666 0.27 0.329 0.0
C34 C 0.85855 0.26767 0.34657 0.0
C35 C 0.88704 0.27181 0.27481 0.0
C36 C 0.90993 0.31854 0.32999 0.0
C37 C 0.84129 0.32367 0.30039 0.0
O38 O 0.85873 0.31997 0.29023 0.0
O39 O 0.83896 0.31602 0.31768 0.0
O40 O 0.89522 0.28956 0.26996 0.0
O41 O 0.87867 0.26985 0.29232 0.0
O42 O 0.5971 0.87258 0.89097 0.0
Cd43 Cd 0.575 0.89637 0.89628 0.0
Cd44 Cd 0.58109 0.88448 0.93441 0.0
O45 O 0.59476 0.85874 0.92082 0.0
O46 O 0.55451 0.89833 0.87292 0.0
O47 O 0.5442 0.88731 0.90268 0.0
C48 C 0.53928 0.89062 0.88432 0.0
C49 C 0.55418 0.88143 0.95941 0.0
C50 C 0.60128 0.85781 0.90287 0.0
C51 C 0.59688 0.92698 0.92236 0.0
O52 O 0.59849 0.91204 0.93455 0.0
O53 O 0.58623 0.92476 0.90618 0.0
O54 O 0.57497 0.87772 0.96292 0.0
O55 O 0.54858 0.8861 0.9415 0.0
O56 O 0.10426 0.81957 0.15876 0.0
Cd57 Cd 0.13279 0.80352 0.16635 0.0
Cd58 Cd 0.1122 0.80376 0.20286 0.0
O59 O 0.0859 0.81587 0.18702 0.0
O60 O 0.1438 0.78724 0.14281 0.0
O61 O 0.12998 0.77325 0.17015 0.0
C62 C 0.13808 0.77088 0.15257 0.0
C63 C 0.10909 0.77549 0.22424 0.0
C64 C 0.08679 0.82232 0.16919 0.0
C65 C 0.15579 0.82682 0.1986 0.0
O66 O 0.13844 0.82326 0.20892 0.0
O67 O 0.15778 0.81925 0.18123 0.0
O68 O 0.10141 0.7934 0.22926 0.0
O69 O 0.11732 0.77347 0.20669 0.0
O70 O 0.09886 0.62037 0.10397 0.0
Cd71 Cd 0.07559 0.5976 0.09844 0.0
Cd72 Cd 0.08194 0.60963 0.06059 0.0
O73 O 0.09702 0.6346 0.07429 0.0
O74 O 0.05581 0.59578 0.12225 0.0
O75 O 0.04495 0.60791 0.09304 0.0
C76 C 0.04053 0.60429 0.11147 0.0
C77 C 0.05522 0.61448 0.03571 0.0
C78 C 0.10366 0.63508 0.09221 0.0
C79 C 0.09564 0.56633 0.07193 0.0
O80 O 0.09789 0.58131 0.05987 0.0
O81 O 0.0853 0.56887 0.08822 0.0
O82 O 0.07621 0.61711 0.03224 0.0
O83 O 0.04932 0.60979 0.05357 0.0
O84 O 0.89189 0.68096 0.16017 0.0
Cd85 Cd 0.86363 0.69738 0.168 0.0
Cd86 Cd 0.88338 0.69375 0.20502 0.0
O87 O 0.9093 0.681 0.18912 0.0
O88 O 0.85329 0.71417 0.14455 0.0
O89 O 0.86658 0.72765 0.17231 0.0
C90 C 0.85882 0.73035 0.15467 0.0
C91 C 0.88727 0.72201 0.22628 0.0
C92 C 0.90873 0.67629 0.17079 0.0
C93 C 0.83857 0.67333 0.19868 0.0
O94 O 0.85564 0.67561 0.20966 0.0
O95 O 0.8377 0.68171 0.1816 0.0
O96 O 0.89341 0.70376 0.23182 0.0
O97 O 0.88007 0.72422 0.20839 0.0
O98 O 0.89551 0.88218 0.10818 0.0
Cd99 Cd 0.91901 0.90473 0.1026 0.0
Cd100 Cd 0.91117 0.89384 0.06461 0.0
O101 O 0.89627 0.86868 0.07814 0.0
O102 O 0.93948 0.90562 0.12597 0.0
O103 O 0.94927 0.89401 0.09626 0.0
C104 C 0.95427 0.89709 0.11465 0.0
C105 C 0.93728 0.88925 0.03919 0.0
C106 C 0.89022 0.86778 0.09621 0.0
C107 C 0.89897 0.93709 0.07727 0.0
O108 O 0.89583 0.92245 0.06497 0.0
O109 O 0.90977 0.9339 0.09322 0.0
O110 O 0.91619 0.88697 0.03599 0.0
O111 O 0.9436 0.89344 0.05704 0.0
O112 O 0.35281 0.08637 0.22801 0.0
Cd113 Cd 0.32548 0.08815 0.2092 0.0
Cd114 Cd 0.33567 0.12693 0.21147 0.0
O115 O 0.36593 0.11762 0.22212 0.0
O116 O 0.32165 0.06093 0.19556 0.0
O117 O 0.33223 0.08953 0.18015 0.0
C118 C 0.32811 0.06996 0.17945 0.0
C119 C 0.32959 0.15006 0.18586 0.0
C120 C 0.36794 0.10001 0.23024 0.0
C121 C 0.29434 0.11407 0.23209 0.0
O122 O 0.31031 0.12694 0.23182 0.0
O123 O 0.29538 0.09774 0.2216 0.0
O124 O 0.33781 0.15611 0.20258 0.0
O125 O 0.32666 0.13049 0.18315 0.0
O126 O 0.37828 0.36584 0.04796 0.0
Cd127 Cd 0.40712 0.36921 0.03148 0.0
Cd128 Cd 0.38723 0.4044 0.02035 0.0
O129 O 0.35962 0.38872 0.03035 0.0
O130 O 0.41652 0.34185 0.02096 0.0
O131 O 0.40401 0.36765 0.0022 0.0
C132 C 0.41074 0.3487 0.00368 0.0
C133 C 0.38075 0.42887 0.99535 0.0
C134 C 0.36 0.3746 0.0434 0.0
C135 C 0.42807 0.40545 0.04759 0.0
O136 O 0.41051 0.4141 0.04102 0.0
O137 O 0.4322 0.38667 0.04355 0.0
O138 O 0.37323 0.43118 0.01308 0.0
O139 O 0.39183 0.41225 0.99145 0.0
O140 O 0.66466 0.42878 0.22998 0.0
Cd141 Cd 0.68883 0.42341 0.20868 0.0
Cd142 Cd 0.6712 0.38759 0.21183 0.0
O143 O 0.64334 0.4022 0.2225 0.0
O144 O 0.69501 0.44969 0.19407 0.0
O145 O 0.67832 0.42252 0.1806 0.0
C146 C 0.68505 0.44142 0.17901 0.0
C147 C 0.67326 0.36246 0.18746 0.0
C148 C 0.64649 0.41882 0.23215 0.0
C149 C 0.71545 0.39379 0.23049 0.0
O150 O 0.69677 0.38466 0.23185 0.0
O151 O 0.71764 0.40906 0.21875 0.0
O152 O 0.66414 0.35857 0.20442 0.0
O153 O 0.67909 0.38127 0.1837 0.0
O154 O 0.6305 0.12419 0.03715 0.0
Cd155 Cd 0.60088 0.1152 0.02411 0.0
Cd156 Cd 0.62376 0.07973 0.02004 0.0
O157 O 0.65063 0.09691 0.02902 0.0
O158 O 0.58686 0.14136 0.015 0.0
O159 O 0.59954 0.11713 0.99459 0.0
C160 C 0.59124 0.13541 0.99712 0.0
C161 C 0.62777 0.05607 0.99414 0.0
C162 C 0.64913 0.11481 0.03659 0.0
C163 C 0.58352 0.08001 0.04703 0.0
O164 O 0.60139 0.07108 0.04159 0.0
O165 O 0.57853 0.09779 0.04035 0.0
O166 O 0.63699 0.05314 0.01117 0.0
O167 O 0.6167 0.07297 0.99148 0.0
O168 O 0.33648 0.92593 0.26971 0.0
Cd169 Cd 0.3117 0.9217 0.2907 0.0
Cd170 Cd 0.32742 0.88521 0.28773 0.0
O171 O 0.35626 0.89845 0.27746 0.0
O172 O 0.30641 0.94844 0.30484 0.0
O173 O 0.32164 0.92093 0.31898 0.0
C174 C 0.3157 0.94008 0.32018 0.0
C175 C 0.32335 0.86056 0.31233 0.0
C176 C 0.35415 0.91518 0.26778 0.0
C177 C 0.2839 0.89321 0.26855 0.0
O178 O 0.30214 0.88332 0.26731 0.0
O179 O 0.28234 0.90852 0.28034 0.0
O180 O 0.3327 0.85602 0.29561 0.0
O181 O 0.31845 0.87967 0.31576 0.0
O182 O 0.12006 0.37051 0.95062 0.0
Cd183 Cd 0.09119 0.37507 0.96677 0.0
Cd184 Cd 0.11227 0.40959 0.97708 0.0
O185 O 0.13969 0.39318 0.96767 0.0
O186 O 0.08048 0.34814 0.97727 0.0
O187 O 0.09361 0.37364 0.99609 0.0
C188 C 0.08611 0.35495 0.99462 0.0
C189 C 0.11741 0.43377 0.00259 0.0
C190 C 0.13869 0.37878 0.9549 0.0
C191 C 0.07203 0.41142 0.94942 0.0
O192 O 0.08998 0.41959 0.95573 0.0
O193 O 0.06696 0.39303 0.95415 0.0
O194 O 0.12612 0.43618 0.9853 0.0
O195 O 0.10617 0.41708 0.00581 0.0
O196 O 0.64569 0.58853 0.27078 0.0
Cd197 Cd 0.6731 0.59152 0.28936 0.0
Cd198 Cd 0.66234 0.62997 0.28547 0.0
O199 O 0.63206 0.61979 0.27557 0.0
O200 O 0.67699 0.56514 0.30438 0.0
O201 O 0.66663 0.59462 0.31834 0.0
C202 C 0.67068 0.5751 0.32003 0.0
C203 C 0.66837 0.65485 0.30961 0.0
C204 C 0.63029 0.60182 0.26815 0.0
C205 C 0.70368 0.61652 0.26516 0.0
O206 O 0.68746 0.62912 0.26491 0.0
O207 O 0.70303 0.60076 0.27644 0.0
O208 O 0.6599 0.65967 0.29262 0.0
O209 O 0.67161 0.63554 0.31347 0.0
O210 O 0.8811 0.13438 0.95762 0.0
Cd211 Cd 0.90988 0.13061 0.97404 0.0
Cd212 Cd 0.88915 0.09583 0.98496 0.0
O213 O 0.86169 0.11196 0.97514 0.0
O214 O 0.92014 0.15807 0.98356 0.0
O215 O 0.90733 0.13321 0.00332 0.0
C216 C 0.91452 0.15194 0.00114 0.0
C217 C 0.8831 0.07131 0.01004 0.0
C218 C 0.86256 0.12604 0.96206 0.0
C219 C 0.9298 0.09414 0.95754 0.0
O220 O 0.91196 0.08585 0.96397 0.0
O221 O 0.93452 0.11271 0.9619 0.0
O222 O 0.87503 0.06915 0.99248 0.0
O223 O 0.8943 0.08791 0.01376 0.0
O224 O 0.21851 0.30605 0.10019 0.0
Cd225 Cd 0.19875 0.28166 0.10892 0.0
Cd226 Cd 0.20761 0.2982 0.1441 0.0
O227 O 0.22074 0.32277 0.12871 0.0
O228 O 0.18133 0.27348 0.08492 0.0
O229 O 0.1661 0.28723 0.11178 0.0
C230 C 0.16391 0.28074 0.09379 0.0
C231 C 0.17918 0.2992 0.16748 0.0
C232 C 0.22509 0.32151 0.11028 0.0
C233 C 0.22833 0.25707 0.13467 0.0
O234 O 0.22822 0.27296 0.14577 0.0
O235 O 0.21565 0.25615 0.11956 0.0
O236 O 0.19897 0.30574 0.17184 0.0
O237 O 0.17535 0.2935 0.14944 0.0
O238 O 0.2143 0.70741 0.40264 0.0
Cd239 Cd 0.19392 0.72978 0.39088 0.0
Cd240 Cd 0.20398 0.70821 0.3584 0.0
O241 O 0.21454 0.68541 0.3776 0.0
O242 O 0.17478 0.7396 0.41338 0.0
O243 O 0.1619 0.72228 0.3875 0.0
C244 C 0.15837 0.7303 0.40473 0.0
C245 C 0.17638 0.70513 0.33434 0.0
C246 C 0.2197 0.68995 0.3954 0.0
C247 C 0.22453 0.75046 0.36347 0.0
O248 O 0.22547 0.73283 0.35513 0.0
O249 O 0.21036 0.75387 0.37717 0.0
O250 O 0.19611 0.6977 0.33124 0.0
O251 O 0.17221 0.71309 0.35149 0.0
O252 O 0.92421 0.58244 0.86888 0.0
Cd253 Cd 0.9203 0.5689 0.89648 0.0
Cd254 Cd 0.95955 0.55119 0.88749 0.0
O255 O 0.94937 0.55956 0.85959 0.0
O256 O 0.88823 0.56064 0.89992 0.0
O257 O 0.91596 0.53855 0.89497 0.0
C258 C 0.89482 0.54188 0.89678 0.0
C259 C 0.97668 0.51908 0.89101 0.0
C260 C 0.93581 0.57394 0.85532 0.0
C261 C 0.95805 0.5821 0.92114 0.0
O262 O 0.96956 0.57316 0.9078 0.0
O263 O 0.93685 0.58083 0.92097 0.0
O264 O 0.98685 0.5344 0.8828 0.0
O265 O 0.95646 0.52187 0.89699 0.0
O266 O 0.7797 0.8096 0.39709 0.0
Cd267 Cd 0.79928 0.78521 0.38803 0.0
Cd268 Cd 0.79226 0.80352 0.35364 0.0
O269 O 0.78025 0.8282 0.36962 0.0
O270 O 0.81579 0.77609 0.41223 0.0
O271 O 0.83205 0.79065 0.38627 0.0
C272 C 0.83352 0.7837 0.40416 0.0
C273 C 0.82088 0.80368 0.3304 0.0
C274 C 0.77462 0.82598 0.3877 0.0
C275 C 0.76934 0.76297 0.36095 0.0
O276 O 0.77007 0.7796 0.35093 0.0
O277 O 0.78217 0.76051 0.37581 0.0
O278 O 0.80157 0.81145 0.3262 0.0
O279 O 0.82425 0.79725 0.34827 0.0
O280 O 0.58368 0.43416 0.37808 0.0
Cd281 Cd 0.57857 0.44835 0.40517 0.0
Cd282 Cd 0.53697 0.45287 0.38936 0.0
O283 O 0.55245 0.44409 0.36361 0.0
O284 O 0.60831 0.46024 0.41271 0.0
O285 O 0.57912 0.47901 0.4037 0.0
C286 C 0.60004 0.47806 0.40809 0.0
C287 C 0.51621 0.48319 0.39024 0.0
C288 C 0.57166 0.43591 0.36262 0.0
C289 C 0.54158 0.42686 0.42619 0.0
O290 O 0.53001 0.43142 0.41099 0.0
O291 O 0.5615 0.43352 0.42794 0.0
O292 O 0.50822 0.46661 0.3823 0.0
O293 O 0.5362 0.48259 0.39727 0.0
O294 O 0.27634 0.68856 0.60297 0.0
Cd295 Cd 0.29593 0.71248 0.61315 0.0
Cd296 Cd 0.28571 0.69389 0.64735 0.0
O297 O 0.27377 0.66993 0.63036 0.0
O298 O 0.3142 0.72147 0.58981 0.0
O299 O 0.32841 0.70638 0.61638 0.0
C300 C 0.33122 0.71346 0.59869 0.0
C301 C 0.31409 0.69276 0.67073 0.0
C302 C 0.26981 0.67237 0.61196 0.0
C303 C 0.26512 0.7354 0.63924 0.0
O304 O 0.26465 0.71876 0.64926 0.0
O305 O 0.27877 0.73744 0.62489 0.0
O306 O 0.29446 0.6857 0.67495 0.0
O307 O 0.31774 0.69905 0.65287 0.0
O308 O 0.92564 0.41793 0.62547 0.0
Cd309 Cd 0.92222 0.43171 0.59795 0.0
Cd310 Cd 0.96152 0.44911 0.60763 0.0
O311 O 0.95065 0.44067 0.63539 0.0
O312 O 0.89023 0.44011 0.59424 0.0
O313 O 0.91799 0.46205 0.59961 0.0
C314 C 0.89688 0.45882 0.59754 0.0
C315 C 0.97865 0.48123 0.60395 0.0
C316 C 0.93692 0.42629 0.6393 0.0
C317 C 0.96028 0.4186 0.57358 0.0
O318 O 0.97164 0.42727 0.58718 0.0
O319 O 0.93909 0.41997 0.57357 0.0
O320 O 0.98877 0.46601 0.61239 0.0
O321 O 0.95844 0.47838 0.598 0.0
O322 O 0.07946 0.06792 0.62451 0.0
Cd323 Cd 0.07384 0.05303 0.59782 0.0
Cd324 Cd 0.03192 0.05201 0.61362 0.0
O325 O 0.04757 0.06064 0.63933 0.0
O326 O 0.10365 0.04112 0.59045 0.0
O327 O 0.07465 0.02231 0.59984 0.0
C328 C 0.09555 0.02333 0.59535 0.0
C329 C 0.01113 0.02183 0.61207 0.0
C330 C 0.06738 0.06754 0.64004 0.0
C331 C 0.03815 0.07564 0.5758 0.0
O332 O 0.02643 0.07304 0.59133 0.0
O333 O 0.05742 0.06745 0.57439 0.0
O334 O 0.00284 0.03841 0.61981 0.0
O335 O 0.03145 0.02237 0.60579 0.0
O336 O 0.60367 0.67079 0.83917 0.0
Cd337 Cd 0.63176 0.68743 0.83138 0.0
Cd338 Cd 0.61226 0.68435 0.7945 0.0
O339 O 0.58606 0.67219 0.81037 0.0
O340 O 0.64173 0.70451 0.85473 0.0
O341 O 0.62807 0.71757 0.82692 0.0
C342 C 0.63573 0.72051 0.84457 0.0
C343 C 0.60844 0.71194 0.77247 0.0
C344 C 0.58663 0.66686 0.82854 0.0
C345 C 0.65678 0.66356 0.80062 0.0
O346 O 0.63956 0.66569 0.78979 0.0
O347 O 0.65786 0.67213 0.81761 0.0
O348 O 0.60173 0.69364 0.76767 0.0
O349 O 0.61625 0.71464 0.7901 0.0
O350 O 0.8997 0.11626 0.39202 0.0
Cd351 Cd 0.92274 0.09325 0.39728 0.0
Cd352 Cd 0.917 0.10547 0.43528 0.0
O353 O 0.90236 0.13067 0.4216 0.0
O354 O 0.94301 0.09162 0.37372 0.0
O355 O 0.95328 0.10331 0.40326 0.0
C356 C 0.95809 0.09992 0.38489 0.0
C357 C 0.94403 0.10968 0.46004 0.0
C358 C 0.89534 0.1311 0.40379 0.0
C359 C 0.90215 0.06247 0.42386 0.0
O360 O 0.90034 0.07753 0.43592 0.0
O361 O 0.91254 0.06469 0.40755 0.0
O362 O 0.92316 0.11289 0.46364 0.0
O363 O 0.94962 0.10478 0.44216 0.0
O364 O 0.38786 0.81651 0.84042 0.0
Cd365 Cd 0.3591 0.80021 0.83399 0.0
Cd366 Cd 0.37791 0.801 0.7964 0.0
O367 O 0.40459 0.81375 0.81126 0.0
O368 O 0.34931 0.78379 0.8579 0.0
O369 O 0.36189 0.76996 0.83002 0.0
C370 C 0.35457 0.76748 0.84784 0.0
C371 C 0.38092 0.77225 0.77557 0.0
C372 C 0.40461 0.81983 0.82922 0.0
C373 C 0.33393 0.82301 0.80258 0.0
O374 O 0.35069 0.81969 0.79144 0.0
O375 O 0.33318 0.81559 0.82007 0.0
O376 O 0.38764 0.79023 0.76977 0.0
O377 O 0.3736 0.77054 0.79346 0.0
O378 O 0.10079 0.37969 0.39031 0.0
Cd379 Cd 0.07723 0.40213 0.39589 0.0
Cd380 Cd 0.08473 0.39124 0.43391 0.0
O381 O 0.09962 0.36604 0.42026 0.0
O382 O 0.05671 0.40287 0.37259 0.0
O383 O 0.04706 0.39137 0.40238 0.0
C384 C 0.042 0.39435 0.38399 0.0
C385 C 0.05883 0.38655 0.45953 0.0
C386 C 0.10588 0.36522 0.40223 0.0
C387 C 0.09707 0.43453 0.42115 0.0
O388 O 0.1 0.41995 0.43355 0.0
O389 O 0.08648 0.43129 0.40511 0.0
O390 O 0.07996 0.38432 0.46256 0.0
O391 O 0.05234 0.39076 0.44174 0.0
O392 O 0.60696 0.31744 0.65994 0.0
Cd393 Cd 0.63587 0.3016 0.66688 0.0
Cd394 Cd 0.61688 0.30326 0.70409 0.0
O395 O 0.5898 0.31478 0.68889 0.0
O396 O 0.64616 0.28532 0.64305 0.0
O397 O 0.63365 0.27127 0.67084 0.0
C398 C 0.64113 0.26892 0.65305 0.0
C399 C 0.6153 0.27496 0.72552 0.0
C400 C 0.58995 0.32061 0.67086 0.0
C401 C 0.66016 0.32611 0.69762 0.0
O402 O 0.64324 0.32308 0.70864 0.0
O403 O 0.66144 0.31776 0.68053 0.0
O404 O 0.60757 0.29274 0.73089 0.0
O405 O 0.62277 0.27312 0.70768 0.0
O406 O 0.60453 0.11735 0.60583 0.0
Cd407 Cd 0.58116 0.09457 0.60069 0.0
Cd408 Cd 0.5871 0.10618 0.56259 0.0
O409 O 0.60223 0.13128 0.57605 0.0
O410 O 0.56127 0.09329 0.62444 0.0
O411 O 0.55066 0.10496 0.59498 0.0
C412 C 0.54611 0.10168 0.61344 0.0
C413 C 0.56041 0.11097 0.53767 0.0
C414 C 0.60908 0.13198 0.59391 0.0
C415 C 0.6005 0.06288 0.57426 0.0
O416 O 0.60281 0.07773 0.56206 0.0
O417 O 0.59043 0.06567 0.59065 0.0
O418 O 0.58141 0.11347 0.53418 0.0
O419 O 0.55449 0.10643 0.55555 0.0
O420 O 0.39732 0.17696 0.66239 0.0
Cd421 Cd 0.36866 0.19303 0.66954 0.0
Cd422 Cd 0.38896 0.19254 0.70638 0.0
O423 O 0.41544 0.18036 0.6908 0.0
O424 O 0.35787 0.20859 0.64549 0.0
O425 O 0.37109 0.22342 0.67265 0.0
C426 C 0.36324 0.22525 0.65495 0.0
C427 C 0.39122 0.22153 0.72691 0.0
C428 C 0.41467 0.17406 0.67292 0.0
C429 C 0.34519 0.16991 0.70169 0.0
O430 O 0.36248 0.17323 0.71214 0.0
O431 O 0.34345 0.17753 0.68434 0.0
O432 O 0.39888 0.20388 0.73271 0.0
O433 O 0.38357 0.22283 0.70909 0.0
O434 O 0.39967 0.37596 0.60539 0.0
Cd435 Cd 0.42227 0.39944 0.60066 0.0
Cd436 Cd 0.41773 0.38712 0.56254 0.0
O437 O 0.40389 0.36139 0.57602 0.0
O438 O 0.44217 0.40119 0.62447 0.0
O439 O 0.45302 0.38984 0.59497 0.0
C440 C 0.45752 0.39312 0.61342 0.0
C441 C 0.44546 0.38425 0.53821 0.0
C442 C 0.39631 0.36087 0.59365 0.0
C443 C 0.40136 0.42967 0.57374 0.0
O444 O 0.40004 0.41449 0.56178 0.0
O445 O 0.41168 0.42779 0.59013 0.0
O446 O 0.42484 0.38021 0.53421 0.0
O447 O 0.45042 0.3891 0.55623 0.0
O448 O 0.84859 0.58027 0.72644 0.0
Cd449 Cd 0.82051 0.58066 0.70845 0.0
Cd450 Cd 0.83005 0.61944 0.70807 0.0
O451 O 0.86091 0.61116 0.71811 0.0
O452 O 0.8168 0.55266 0.69656 0.0
O453 O 0.82594 0.58046 0.67913 0.0
C454 C 0.82237 0.56077 0.67975 0.0
C455 C 0.82354 0.64284 0.68269 0.0
C456 C 0.86359 0.59419 0.72725 0.0
C457 C 0.78993 0.60714 0.73098 0.0
O458 O 0.80559 0.62022 0.72931 0.0
O459 O 0.79078 0.59022 0.72138 0.0
O460 O 0.83224 0.64859 0.6993 0.0
O461 O 0.82014 0.62334 0.67988 0.0
O462 O 0.86689 0.87286 0.55067 0.0
Cd463 Cd 0.89643 0.87772 0.53569 0.0
Cd464 Cd 0.87541 0.9118 0.52402 0.0
O465 O 0.84779 0.8953 0.5329 0.0
O466 O 0.90823 0.85079 0.52597 0.0
O467 O 0.8955 0.87572 0.5063 0.0
C468 C 0.90329 0.85719 0.50833 0.0
C469 C 0.87157 0.93444 0.49714 0.0
C470 C 0.84839 0.88093 0.5457 0.0
C471 C 0.91432 0.91503 0.55296 0.0
O472 O 0.89668 0.92294 0.54571 0.0
O473 O 0.91954 0.89645 0.54903 0.0
O474 O 0.86177 0.93773 0.51384 0.0
O475 O 0.88315 0.91773 0.49531 0.0
O476 O 0.14292 0.90969 0.73003 0.0
Cd477 Cd 0.17004 0.90653 0.71114 0.0
Cd478 Cd 0.15866 0.86837 0.71455 0.0
O479 O 0.12849 0.8789 0.72441 0.0
O480 O 0.17463 0.93322 0.69683 0.0
O481 O 0.16291 0.90453 0.68217 0.0
C482 C 0.16763 0.92398 0.68101 0.0
C483 C 0.16457 0.84389 0.69004 0.0
C484 C 0.12717 0.89668 0.73232 0.0
C485 C 0.20015 0.88072 0.73495 0.0
O486 O 0.18359 0.86852 0.7353 0.0
O487 O 0.19988 0.89646 0.72364 0.0
O488 O 0.15569 0.83889 0.70683 0.0
O489 O 0.16829 0.86321 0.68657 0.0
O490 O 0.1207 0.62938 0.5428 0.0
Cd491 Cd 0.09145 0.62617 0.52692 0.0
Cd492 Cd 0.11213 0.59194 0.51429 0.0
O493 O 0.13973 0.60804 0.52375 0.0
O494 O 0.08057 0.65397 0.51901 0.0
O495 O 0.09291 0.63029 0.49773 0.0
C496 C 0.08556 0.6488 0.50101 0.0
C497 C 0.11782 0.56782 0.48877 0.0
C498 C 0.13916 0.62144 0.5375 0.0
C499 C 0.07249 0.58897 0.54272 0.0
O500 O 0.09025 0.58111 0.53565 0.0
O501 O 0.06737 0.60759 0.53897 0.0
O502 O 0.12651 0.5656 0.50607 0.0
O503 O 0.10619 0.58426 0.48552 0.0
O504 O 0.84789 0.41965 0.76851 0.0
Cd505 Cd 0.82015 0.41828 0.78689 0.0
Cd506 Cd 0.83144 0.37991 0.78725 0.0
O507 O 0.86185 0.3894 0.77695 0.0
O508 O 0.81564 0.44605 0.79915 0.0
O509 O 0.82623 0.41837 0.81608 0.0
C510 C 0.82196 0.43794 0.81574 0.0
C511 C 0.82569 0.35646 0.81279 0.0
C512 C 0.86356 0.40639 0.76765 0.0
C513 C 0.7906 0.39054 0.76471 0.0
O514 O 0.80699 0.37822 0.76611 0.0
O515 O 0.79064 0.40742 0.77442 0.0
O516 O 0.83476 0.3509 0.79626 0.0
O517 O 0.82154 0.37585 0.81545 0.0
O518 O 0.62175 0.86876 0.44943 0.0
Cd519 Cd 0.59198 0.87143 0.46467 0.0
Cd520 Cd 0.61097 0.90664 0.47762 0.0
O521 O 0.63921 0.89151 0.46817 0.0
O522 O 0.5818 0.84364 0.47333 0.0
O523 O 0.59297 0.86839 0.49398 0.0
C524 C 0.58618 0.84961 0.49123 0.0
C525 C 0.61627 0.93076 0.5032 0.0
C526 C 0.63965 0.87766 0.45484 0.0
C527 C 0.57136 0.90803 0.44893 0.0
O528 O 0.5884 0.91672 0.45649 0.0
O529 O 0.56744 0.88905 0.45209 0.0
O530 O 0.62438 0.93342 0.48574 0.0
O531 O 0.60529 0.91395 0.50653 0.0
O532 O 0.16266 0.07303 0.77162 0.0
Cd533 Cd 0.18704 0.07766 0.79289 0.0
Cd534 Cd 0.17113 0.11407 0.78988 0.0
O535 O 0.14273 0.10056 0.77897 0.0
O536 O 0.19229 0.0512 0.80738 0.0
O537 O 0.17682 0.07888 0.82107 0.0
C538 C 0.18287 0.05978 0.82256 0.0
C539 C 0.17334 0.13957 0.81394 0.0
C540 C 0.14502 0.08376 0.76941 0.0
C541 C 0.21519 0.10624 0.77126 0.0
O542 O 0.19704 0.11627 0.77003 0.0
O543 O 0.2165 0.09071 0.78278 0.0
O544 O 0.16467 0.14331 0.79678 0.0
O545 O 0.17876 0.12074 0.81807 0.0
O546 O 0.36472 0.62686 0.45927 0.0
Cd547 Cd 0.39476 0.61809 0.4717 0.0
Cd548 Cd 0.37292 0.5819 0.47485 0.0
O549 O 0.34561 0.59859 0.46612 0.0
O550 O 0.40827 0.64406 0.48194 0.0
O551 O 0.39648 0.61852 0.50125 0.0
C552 C 0.40442 0.63702 0.49954 0.0
C553 C 0.36949 0.5579 0.50049 0.0
C554 C 0.34645 0.61686 0.45935 0.0
C555 C 0.41317 0.58388 0.44794 0.0
O556 O 0.39571 0.57423 0.4533 0.0
O557 O 0.41742 0.60175 0.45482 0.0
O558 O 0.3605 0.55487 0.48337 0.0
O559 O 0.38004 0.57506 0.50337 0.0
O560 O 0.71211 0.80006 0.59793 0.0
Cd561 Cd 0.69336 0.77487 0.60647 0.0
Cd562 Cd 0.7009 0.79171 0.64151 0.0
O563 O 0.71176 0.81725 0.62624 0.0
O564 O 0.67627 0.76639 0.5824 0.0
O565 O 0.66058 0.77963 0.60931 0.0
C566 C 0.65865 0.7733 0.59123 0.0
C567 C 0.67283 0.79102 0.66528 0.0
C568 C 0.71692 0.8161 0.60797 0.0
C569 C 0.72415 0.75179 0.63211 0.0
O570 O 0.72352 0.76794 0.64285 0.0
O571 O 0.71104 0.74989 0.61738 0.0
O572 O 0.6922 0.79871 0.66937 0.0
O573 O 0.66914 0.78496 0.64733 0.0
O574 O 0.7232 0.19549 0.90036 0.0
Cd575 Cd 0.70263 0.21886 0.89052 0.0
Cd576 Cd 0.71346 0.20113 0.85591 0.0
O577 O 0.72615 0.17734 0.87267 0.0
O578 O 0.68271 0.22617 0.91337 0.0
O579 O 0.67086 0.2111 0.88585 0.0
C580 C 0.6667 0.21748 0.90359 0.0
C581 C 0.68611 0.19906 0.83153 0.0
C582 C 0.73016 0.17961 0.89108 0.0
C583 C 0.73244 0.24323 0.86485 0.0
O584 O 0.73356 0.22672 0.85466 0.0
O585 O 0.71868 0.24471 0.87918 0.0
O586 O 0.70622 0.19285 0.82793 0.0
O587 O 0.68144 0.20506 0.8493 0.0
O588 O 0.42455 0.08177 0.37374 0.0
Cd589 Cd 0.42102 0.06722 0.4009 0.0
Cd590 Cd 0.45975 0.04926 0.39062 0.0
O591 O 0.44933 0.05911 0.36323 0.0
O592 O 0.38893 0.05931 0.40469 0.0
O593 O 0.41616 0.03699 0.39854 0.0
C594 C 0.39513 0.04056 0.40088 0.0
C595 C 0.47687 0.01697 0.39244 0.0
C596 C 0.43589 0.07382 0.35973 0.0
C597 C 0.4594 0.07898 0.4254 0.0
O598 O 0.47047 0.07015 0.41171 0.0
O599 O 0.43817 0.07822 0.42542 0.0
O600 O 0.48688 0.03267 0.38475 0.0
O601 O 0.45676 0.01947 0.39882 0.0
O602 O 0.27626 0.30453 0.89602 0.0
Cd603 Cd 0.29559 0.27985 0.88717 0.0
Cd604 Cd 0.28644 0.29679 0.85191 0.0
O605 O 0.27381 0.32139 0.86759 0.0
O606 O 0.31257 0.2713 0.91138 0.0
O607 O 0.32842 0.28491 0.88478 0.0
C608 C 0.33024 0.27836 0.90277 0.0
C609 C 0.31592 0.29762 0.82957 0.0
C610 C 0.26978 0.32012 0.88608 0.0
C611 C 0.26554 0.25571 0.86111 0.0
O612 O 0.26556 0.27171 0.85017 0.0
O613 O 0.27843 0.25458 0.87608 0.0
O614 O 0.29639 0.30422 0.82445 0.0
O615 O 0.31879 0.29175 0.84769 0.0
O616 O 0.07174 0.92036 0.8748 0.0
Cd617 Cd 0.07595 0.93412 0.90225 0.0
Cd618 Cd 0.03766 0.95319 0.89268 0.0
O619 O 0.04769 0.94397 0.86491 0.0
O620 O 0.10825 0.94129 0.90605 0.0
O621 O 0.08149 0.96428 0.90063 0.0
C622 C 0.10245 0.96025 0.90278 0.0
C623 C 0.02152 0.98582 0.89589 0.0
C624 C 0.06061 0.92896 0.86102 0.0
C625 C 0.03746 0.92248 0.92661 0.0
O626 O 0.02652 0.93185 0.91317 0.0
O627 O 0.05869 0.92288 0.92657 0.0
O628 O 0.011 0.97073 0.88761 0.0
O629 O 0.0416 0.98254 0.90199 0.0
O630 O 0.7788 0.20629 0.09704 0.0
Cd631 Cd 0.79883 0.22853 0.10954 0.0
Cd632 Cd 0.7875 0.20676 0.14173 0.0
O633 O 0.7773 0.18428 0.12202 0.0
O634 O 0.81832 0.23895 0.08753 0.0
O635 O 0.83089 0.22126 0.11327 0.0
C636 C 0.83469 0.22973 0.0963 0.0
C637 C 0.81507 0.20327 0.16574 0.0
C638 C 0.77293 0.18888 0.10408 0.0
C639 C 0.76762 0.24919 0.13668 0.0
O640 O 0.76623 0.23157 0.14495 0.0
O641 O 0.7821 0.25245 0.12321 0.0
O642 O 0.79531 0.19587 0.16876 0.0
O643 O 0.81923 0.2115 0.14872 0.0
O644 O 0.41888 0.92803 0.12259 0.0
Cd645 Cd 0.42345 0.94253 0.0956 0.0
Cd646 Cd 0.46518 0.94676 0.11098 0.0
O647 O 0.45008 0.93815 0.13699 0.0
O648 O 0.39318 0.95343 0.0884 0.0
O649 O 0.42168 0.97319 0.09719 0.0
C650 C 0.40076 0.97151 0.093 0.0
C651 C 0.48504 0.97751 0.109 0.0
C652 C 0.43093 0.92986 0.13803 0.0
C653 C 0.46021 0.92119 0.07402 0.0
O654 O 0.47187 0.92525 0.0893 0.0
O655 O 0.44039 0.92814 0.07247 0.0
O656 O 0.4937 0.96134 0.11717 0.0
O657 O 0.46486 0.97626 0.10248 0.0
O658 O 0.5727 0.57944 0.12547 0.0
Cd659 Cd 0.57631 0.56513 0.09821 0.0
Cd660 Cd 0.53818 0.54637 0.10886 0.0
O661 O 0.5489 0.55605 0.13629 0.0
O662 O 0.60853 0.55782 0.09411 0.0
O663 O 0.5818 0.53499 0.10025 0.0
C664 C 0.60272 0.53894 0.09777 0.0
C665 C 0.52184 0.51374 0.10643 0.0
C666 C 0.56191 0.57114 0.13963 0.0
C667 C 0.53732 0.5765 0.07445 0.0
O668 O 0.52668 0.56746 0.08828 0.0
O669 O 0.55855 0.57595 0.07401 0.0
O670 O 0.51158 0.52899 0.11468 0.0
O671 O 0.54179 0.51685 0.0999 0.0
H672 H 0.18171 0.30928 0.20694 0.0
H673 H 0.09773 0.22034 0.23412 0.0
H674 H 0.13891 0.27965 0.16396 0.0
H675 H 0.1311 0.25787 0.27802 0.0
H676 H 0.1076 0.24572 0.20878 0.0
H677 H 0.15867 0.29507 0.23353 0.0
C678 C 0.16717 0.30018 0.20307 0.0
C679 C 0.16251 0.29528 0.18322 0.0
C680 C 0.1124 0.24863 0.22402 0.0
C681 C 0.13631 0.27862 0.21358 0.0
C682 C 0.10676 0.23412 0.23851 0.0
C683 C 0.11399 0.23678 0.25813 0.0
C684 C 0.12566 0.26574 0.22916 0.0
C685 C 0.12545 0.25503 0.263 0.0
C686 C 0.15402 0.29202 0.21828 0.0
C687 C 0.14333 0.28357 0.17908 0.0
N688 N 0.13132 0.26861 0.24854 0.0
N689 N 0.13121 0.27527 0.19415 0.0
H690 H 0.49453 0.59036 0.07616 0.0
H691 H 0.48216 0.60252 0.95922 0.0
H692 H 0.55054 0.58516 0.03618 0.0
H693 H 0.42962 0.61587 0.00117 0.0
H694 H 0.5084 0.59896 0.98687 0.0
H695 H 0.47154 0.6026 0.04884 0.0
C696 C 0.50206 0.59199 0.06163 0.0
C697 C 0.52443 0.58654 0.0584 0.0
C698 C 0.4912 0.60294 0.98999 0.0
C699 C 0.49802 0.60035 0.02684 0.0
C700 C 0.4762 0.60498 0.97421 0.0
C701 C 0.45359 0.60928 0.9779 0.0
C702 C 0.48348 0.60509 0.00958 0.0
C703 C 0.44683 0.61237 0.99762 0.0
C704 C 0.48891 0.59902 0.046 0.0
C705 C 0.53334 0.58917 0.03929 0.0
N706 N 0.46165 0.61 0.01269 0.0
N707 N 0.52001 0.59561 0.02413 0.0
H708 H 0.9036 0.27039 0.23692 0.0
H709 H 0.81036 0.19161 0.2047 0.0
H710 H 0.86397 0.23555 0.27868 0.0
H711 H 0.85721 0.21925 0.16388 0.0
H712 H 0.83421 0.20221 0.2323 0.0
H713 H 0.89176 0.24692 0.21058 0.0
C714 C 0.89278 0.25755 0.24063 0.0
C715 C 0.88439 0.25519 0.25993 0.0
C716 C 0.83952 0.20559 0.21728 0.0
C717 C 0.8704 0.22848 0.22979 0.0
C718 C 0.8259 0.19949 0.2015 0.0
C719 C 0.83154 0.20498 0.18199 0.0
C720 C 0.85873 0.21745 0.2135 0.0
C721 C 0.85198 0.21503 0.17872 0.0
C722 C 0.88598 0.24414 0.22557 0.0
C723 C 0.8706 0.23813 0.26393 0.0
N724 N 0.8646 0.22131 0.19433 0.0
N725 N 0.86365 0.22569 0.2489 0.0
H726 H 0.5099 0.89205 0.9574 0.0
H727 H 0.49821 0.89803 0.0752 0.0
H728 H 0.56078 0.87239 0.99862 0.0
H729 H 0.44677 0.91875 0.03501 0.0
H730 H 0.51882 0.88387 0.04718 0.0
H731 H 0.48432 0.89734 0.98528 0.0
C732 C 0.51561 0.88857 0.97228 0.0
C733 C 0.53762 0.88199 0.97571 0.0
C734 C 0.50292 0.89131 0.04444 0.0
C735 C 0.50846 0.88812 0.00766 0.0
C736 C 0.4911 0.89941 0.06047 0.0
C737 C 0.47085 0.90984 0.05743 0.0
C738 C 0.4946 0.89381 0.02512 0.0
C739 C 0.46237 0.91091 0.03803 0.0
C740 C 0.501 0.89163 0.98819 0.0
C741 C 0.54405 0.87766 0.99528 0.0
N742 N 0.47445 0.90325 0.02255 0.0
N743 N 0.52962 0.88098 0.01051 0.0
H744 H 0.13409 0.7208 0.3364 0.0
H745 H 0.13003 0.73821 0.21963 0.0
H746 H 0.18152 0.69482 0.29508 0.0
H747 H 0.09346 0.77454 0.26246 0.0
H748 H 0.14074 0.71435 0.24607 0.0
H749 H 0.11118 0.73211 0.30852 0.0
C750 C 0.13947 0.71706 0.32147 0.0
C751 C 0.16003 0.70727 0.31805 0.0
C752 C 0.13001 0.72732 0.2496 0.0
C753 C 0.13394 0.72036 0.28608 0.0
C754 C 0.12382 0.74093 0.23451 0.0
C755 C 0.11122 0.75865 0.23894 0.0
C756 C 0.12352 0.73145 0.26922 0.0
C757 C 0.10349 0.76126 0.25844 0.0
C758 C 0.12638 0.72359 0.30556 0.0
C759 C 0.16596 0.7026 0.2984 0.0
N760 N 0.11005 0.74799 0.27292 0.0
N761 N 0.15317 0.70952 0.28312 0.0
H762 H 0.01009 0.60714 0.03754 0.0
H763 H -0.00014 0.59833 0.92016 0.0
H764 H 0.06278 0.62312 0.9966 0.0
H765 H 0.94367 0.5895 0.95932 0.0
H766 H 0.02181 0.61086 0.94806 0.0
H767 H 0.98431 0.60389 0.00949 0.0
C768 C 0.01617 0.61025 0.02269 0.0
C769 C 0.03871 0.61517 0.01939 0.0
C770 C 0.00461 0.60644 0.9506 0.0
C771 C 0.00934 0.61136 0.98726 0.0
C772 C 0.99205 0.59927 0.93464 0.0
C773 C 0.96997 0.59267 0.93746 0.0
C774 C 0.99521 0.60674 0.96969 0.0
C775 C 0.96066 0.59441 0.95652 0.0
C776 C 0.00144 0.60838 0.00669 0.0
C777 C 0.04562 0.6191 -0.00014 0.0
N778 N 0.97345 0.60098 0.97201 0.0
N779 N 0.03107 0.61689 0.98456 0.0
H780 H 0.87657 0.76237 0.21867 0.0
H781 H 0.81838 0.8139 0.29104 0.0
H782 H 0.89426 0.72111 0.26646 0.0
H783 H 0.86047 0.78286 0.33359 0.0
H784 H 0.84048 0.79919 0.26432 0.0
H785 H 0.86668 0.78874 0.24298 0.0
C786 C 0.87857 0.75892 0.2343 0.0
C787 C 0.88573 0.73931 0.24056 0.0
C788 C 0.84552 0.7961 0.27944 0.0
C789 C 0.87354 0.76917 0.26856 0.0
C790 C 0.83272 0.80448 0.29478 0.0
C791 C 0.83734 0.79935 0.31457 0.0
C792 C 0.86304 0.78239 0.28394 0.0
C793 C 0.85614 0.78706 0.31852 0.0
C794 C 0.87264 0.77394 0.24822 0.0
C795 C 0.88846 0.73588 0.26097 0.0
N796 N 0.86799 0.77865 0.30333 0.0
N797 N 0.88202 0.75055 0.27424 0.0
H798 H 0.05202 0.91226 0.96411 0.0
H799 H 0.92886 0.88182 -3e-05 0.0
H800 H 0.99417 0.90978 0.92603 0.0
H801 H 0.98257 0.89562 0.04057 0.0
H802 H 0.95481 0.88534 0.97229 0.0
H803 H 0.02894 0.89971 0.99175 0.0
C804 C 0.03459 0.90876 0.96149 0.0
C805 C 0.02494 0.91229 0.94281 0.0
C806 C 0.961 0.88742 0.98726 0.0
C807 C -0.00146 0.89799 0.97423 0.0
C808 C 0.94618 0.88536 0.00309 0.0
C809 C 0.95348 0.88868 0.02261 0.0
C810 C 0.98332 0.8929 0.9909 0.0
C811 C 0.97618 0.8931 0.02573 0.0
C812 C 0.02142 0.9017 0.97726 0.0
C813 C 0.00226 0.90755 0.94023 0.0
N814 N 0.99027 0.89528 0.01002 0.0
N815 N 0.98985 0.90077 0.95576 0.0
H816 H 0.25167 0.09889 0.22831 0.0
H817 H 0.20329 0.17034 0.31548 0.0
H818 H 0.29198 0.1401 0.26374 0.0
H819 H 0.16249 0.14546 0.26835 0.0
H820 H 0.23585 0.15331 0.30083 0.0
H821 H 0.21862 0.10995 0.24713 0.0
C822 C 0.2536 0.11005 0.24018 0.0
C823 C 0.27452 0.11877 0.24433 0.0
C824 C 0.21972 0.15148 0.2938 0.0
C825 C 0.23701 0.13134 0.26588 0.0
C826 C 0.20113 0.16113 0.30218 0.0
C827 C 0.18019 0.15952 0.293 0.0
C828 C 0.21731 0.13997 0.27624 0.0
C829 C 0.17837 0.14733 0.2758 0.0
C830 C 0.23477 0.11641 0.25084 0.0
C831 C 0.27611 0.13318 0.25987 0.0
N832 N 0.19671 0.13808 0.26793 0.0
N833 N 0.25762 0.13905 0.27003 0.0
H834 H 0.40976 0.5237 0.90918 0.0
H835 H 0.35172 0.46105 0.99728 0.0
H836 H 0.36681 0.55042 0.95379 0.0
H837 H 0.4034 0.43505 0.96026 0.0
H838 H 0.35103 0.49163 0.97629 0.0
H839 H 0.40179 0.48928 0.92273 0.0
C840 C 0.39833 0.5223 0.92156 0.0
C841 C 0.38915 0.53997 0.93055 0.0
C842 C 0.36239 0.47918 0.97258 0.0
C843 C 0.38003 0.50077 0.94606 0.0
C844 C 0.36277 0.46168 0.98456 0.0
C845 C 0.37791 0.44564 0.9807 0.0
C846 C 0.37741 0.48083 0.95667 0.0
C847 C 0.39159 0.44716 0.96384 0.0
C848 C 0.39388 0.50267 0.92933 0.0
C849 C 0.37449 0.53727 0.94656 0.0
N850 N 0.39127 0.46464 0.95258 0.0
N851 N 0.37053 0.51808 0.95388 0.0
H852 H 0.84378 0.34769 0.2671 0.0
H853 H 0.71339 0.36918 0.26314 0.0
H854 H 0.79832 0.3291 0.31354 0.0
H855 H 0.76038 0.40088 0.22528 0.0
H856 H 0.74437 0.35437 0.28168 0.0
H857 H 0.81369 0.36722 0.25148 0.0
C858 C 0.82748 0.34778 0.27408 0.0
C859 C 0.82351 0.33659 0.29159 0.0
C860 C 0.74795 0.36469 0.26943 0.0
C861 C 0.78899 0.35889 0.27369 0.0
C862 C 0.73027 0.3731 0.25877 0.0
C863 C 0.73433 0.38616 0.24252 0.0
C864 C 0.76994 0.36911 0.26369 0.0
C865 C 0.75652 0.39086 0.23768 0.0
C866 C 0.81035 0.35902 0.26517 0.0
C867 C 0.80212 0.33744 0.30002 0.0
N868 N 0.77355 0.38214 0.2481 0.0
N869 N 0.7856 0.34823 0.29088 0.0
H870 H 0.58531 0.96537 0.9082 0.0
H871 H 0.65467 0.02218 0.99354 0.0
H872 H 0.62915 0.93494 0.94975 0.0
H873 H 0.60219 0.05214 0.96044 0.0
H874 H 0.65141 0.99212 0.972 0.0
H875 H 0.59695 -0.0011 0.92183 0.0
C876 C 0.59767 0.96575 0.91992 0.0
C877 C 0.60607 0.94734 0.92806 0.0
C878 C 0.64075 0.00533 0.96926 0.0
C879 C 0.61939 0.98549 0.94362 0.0
C880 C 0.64263 0.02254 0.98155 0.0
C881 C 0.62842 0.03956 0.97898 0.0
C882 C 0.62439 0.00498 0.95435 0.0
C883 C 0.61335 0.03926 0.96302 0.0
C884 C 0.60422 0.98487 0.92773 0.0
C885 C 0.62201 0.94872 0.94323 0.0
N886 N 0.61149 0.02207 0.95146 0.0
N887 N 0.62802 0.96743 0.95059 0.0
H888 H 0.15413 0.85077 0.23202 0.0
H889 H 0.28508 0.86889 0.23563 0.0
H890 H 0.19873 0.83155 0.18514 0.0
H891 H 0.23927 0.9017 0.27379 0.0
H892 H 0.25357 0.85516 0.21701 0.0
H893 H 0.18483 0.86955 0.24757 0.0
C894 C 0.17037 0.85058 0.22492 0.0
C895 C 0.17391 0.83941 0.20731 0.0
C896 C 0.25036 0.86549 0.22933 0.0
C897 C 0.20914 0.86084 0.22514 0.0
C898 C 0.26835 0.87329 0.24004 0.0
C899 C 0.26477 0.88633 0.2564 0.0
C900 C 0.22855 0.8705 0.23514 0.0
C901 C 0.24276 0.89167 0.2613 0.0
C902 C 0.18785 0.86139 0.2338 0.0
C903 C 0.19525 0.83988 0.19873 0.0
N904 N 0.22542 0.88353 0.25083 0.0
N905 N 0.21211 0.85024 0.20785 0.0
H906 H 0.09347 0.43858 0.03719 0.0
H907 H 0.12739 0.55716 0.04437 0.0
H908 H 0.1444 0.46755 0.00142 0.0
H909 H 0.08201 0.5284 0.08574 0.0
H910 H 0.13685 0.52322 0.03124 0.0
H911 H 0.09199 0.46975 0.05796 0.0
C912 C 0.10462 0.45132 0.03393 0.0
C913 C 0.11883 0.45061 0.01737 0.0
C914 C 0.12501 0.52422 0.04335 0.0
C915 C 0.11711 0.48625 0.04088 0.0
C916 C 0.11958 0.54364 0.05084 0.0
C917 C 0.1037 0.54563 0.066 0.0
C918 C 0.11421 0.50657 0.05081 0.0
C919 C 0.09429 0.52755 0.07397 0.0
C920 C 0.10373 0.46912 0.04575 0.0
C921 C 0.13294 0.46753 0.01385 0.0
N922 N 0.09942 0.50876 0.06606 0.0
N923 N 0.13153 0.48469 0.02533 0.0
H924 H 0.83733 0.64787 0.23106 0.0
H925 H 0.70537 0.64067 0.23219 0.0
H926 H 0.79596 0.67167 0.18384 0.0
H927 H 0.74684 0.60297 0.27 0.0
H928 H 0.73843 0.65144 0.21385 0.0
H929 H 0.80472 0.63065 0.24518 0.0
C930 C 0.82141 0.64937 0.22357 0.0
C931 C 0.81933 0.66142 0.20633 0.0
C932 C 0.74033 0.64063 0.22601 0.0
C933 C 0.78192 0.6418 0.22252 0.0
C934 C 0.72146 0.63452 0.23654 0.0
C935 C 0.72341 0.62105 0.25277 0.0
C936 C 0.76142 0.63352 0.23192 0.0
C937 C 0.74463 0.61341 0.25761 0.0
C938 C 0.80283 0.63945 0.23162 0.0
C939 C 0.79833 0.66263 0.19719 0.0
N940 N 0.76289 0.61999 0.24739 0.0
N941 N 0.78039 0.65315 0.20553 0.0
H942 H 0.90637 0.06531 0.04482 0.0
H943 H 0.86703 0.94797 0.05049 0.0
H944 H 0.85494 0.03843 0.00814 0.0
H945 H 0.91449 0.97422 0.09154 0.0
H946 H 0.85902 0.98246 0.03796 0.0
H947 H 0.90635 0.03386 0.06522 0.0
C948 C 0.8948 0.05298 0.04129 0.0
C949 C 0.88088 0.05434 0.02459 0.0
C950 C 0.87101 0.98079 0.04988 0.0
C951 C 0.88088 0.01839 0.04767 0.0
C952 C 0.87559 0.96106 0.05703 0.0
C953 C 0.89164 0.95819 0.07191 0.0
C954 C 0.88283 0.99786 0.05738 0.0
C955 C 0.90204 0.97575 0.07999 0.0
C956 C 0.89484 0.03502 0.05289 0.0
C957 C 0.86621 0.03793 0.02069 0.0
N958 N 0.89773 0.99484 0.07239 0.0
N959 N 0.86678 0.0206 0.03199 0.0
H960 H 0.23534 0.22091 0.11391 0.0
H961 H 0.30264 0.14279 0.15378 0.0
H962 H 0.25875 0.25553 0.16464 0.0
H963 H 0.33421 0.19199 0.18673 0.0
H964 H 0.27913 0.16817 0.13726 0.0
H965 H 0.26354 0.19454 0.12075 0.0
C966 C 0.24624 0.22285 0.1266 0.0
C967 C 0.24445 0.24033 0.13887 0.0
C968 C 0.29164 0.17359 0.14758 0.0
C969 C 0.27669 0.2102 0.1469 0.0
C970 C 0.30514 0.15902 0.15705 0.0
C971 C 0.32016 0.16527 0.17189 0.0
C972 C 0.29327 0.19452 0.15302 0.0
C973 C 0.32264 0.18646 0.17558 0.0
C974 C 0.26235 0.20775 0.13054 0.0
C975 C 0.25928 0.24224 0.15488 0.0
N976 N 0.30905 0.20027 0.16647 0.0
N977 N 0.2747 0.22738 0.1584 0.0
H978 H 0.2967 0.86445 0.34518 0.0
H979 H 0.25937 0.74657 0.33766 0.0
H980 H 0.32939 0.8189 0.30842 0.0
H981 H 0.22789 0.7905 0.37704 0.0
H982 H 0.2873 0.77236 0.32926 0.0
H983 H 0.27459 0.83693 0.36039 0.0
C984 C 0.29965 0.84861 0.34066 0.0
C985 C 0.31467 0.844 0.32527 0.0
C986 C 0.27436 0.7764 0.3398 0.0
C987 C 0.28911 0.81255 0.34231 0.0
C988 C 0.25826 0.76169 0.34452 0.0
C989 C 0.24107 0.76643 0.35795 0.0
C990 C 0.27328 0.79612 0.34843 0.0
C991 C 0.24072 0.78623 0.36649 0.0
C992 C 0.28687 0.83293 0.34924 0.0
C993 C 0.31782 0.82321 0.32005 0.0
N994 N 0.25652 0.80041 0.36149 0.0
N995 N 0.30489 0.8083 0.32834 0.0
H996 H 0.96158 0.48487 0.91102 0.0
H997 H 0.08415 0.4427 0.92502 0.0
H998 H 0.01891 0.50886 0.87973 0.0
H999 H 0.0266 0.40821 0.94471 0.0
H1000 H 0.05977 0.46561 0.90642 0.0
H1001 H 0.98391 0.45507 0.92142 0.0
C1002 C 0.97874 0.48371 0.90608 0.0
C1003 C 0.98855 0.49954 0.89481 0.0
C1004 C 0.05239 0.45292 0.91459 0.0
C1005 C 0.0141 0.46569 0.90671 0.0
C1006 C 0.06631 0.4399 0.9253 0.0
C1007 C 0.0573 0.42376 0.9366 0.0
C1008 C 0.02918 0.45008 0.91548 0.0
C1009 C 0.03414 0.42059 0.93622 0.0
C1010 C 0.99145 0.4667 0.912 0.0
C1011 C 0.01076 0.49719 0.88868 0.0
N1012 N 0.02077 0.4339 0.92608 0.0
N1013 N 0.02286 0.48074 0.89494 0.0
H1014 H 0.73527 0.76691 0.33456 0.0
H1015 H 0.69515 0.65013 0.34228 0.0
H1016 H 0.76424 0.72356 0.37592 0.0
H1017 H 0.66327 0.69658 0.30608 0.0
H1018 H 0.71768 0.67718 0.35787 0.0
H1019 H 0.70688 0.74166 0.32625 0.0
C1020 C 0.73574 0.75201 0.34187 0.0
C1021 C 0.75237 0.74727 0.35581 0.0
C1022 C 0.70547 0.68148 0.34678 0.0
C1023 C 0.71959 0.71813 0.34635 0.0
C1024 C 0.69247 0.66607 0.33797 0.0
C1025 C 0.67757 0.67109 0.32262 0.0
C1026 C 0.70354 0.70196 0.34011 0.0
C1027 C 0.67477 0.69197 0.31765 0.0
C1028 C 0.71934 0.73761 0.33721 0.0
C1029 C 0.75184 0.72779 0.36497 0.0
N1030 N 0.68788 0.70658 0.32616 0.0
N1031 N 0.7358 0.71383 0.35995 0.0
H1032 H 0.45787 0.59158 0.44256 0.0
H1033 H 0.47314 0.48891 0.37813 0.0
H1034 H 0.40405 0.5525 0.42238 0.0
H1035 H 0.5274 0.51974 0.40819 0.0
H1036 H 0.4485 0.5174 0.3872 0.0
H1037 H 0.48415 0.57048 0.42328 0.0
C1038 C 0.45156 0.5788 0.43382 0.0
C1039 C 0.42886 0.57351 0.43433 0.0
C1040 C 0.46587 0.51806 0.39161 0.0
C1041 C 0.45862 0.5495 0.41232 0.0
C1042 C 0.47995 0.50181 0.3864 0.0
C1043 C 0.50222 0.50177 0.39277 0.0
C1044 C 0.47408 0.53433 0.40334 0.0
C1045 C 0.51022 0.51902 0.40324 0.0
C1046 C 0.46653 0.56676 0.42288 0.0
C1047 C 0.4215 0.55687 0.4227 0.0
N1048 N 0.49606 0.5345 0.40846 0.0
N1049 N 0.43636 0.54536 0.41231 0.0
H1050 H 0.26227 0.77488 0.62396 0.0
H1051 H 0.15667 0.8024 0.69162 0.0
H1052 H 0.22982 0.73281 0.66453 0.0
H1053 H 0.19379 0.84845 0.65906 0.0
H1054 H 0.17889 0.77548 0.67586 0.0
H1055 H 0.23391 0.80104 0.63191 0.0
C1056 C 0.24922 0.77114 0.6345 0.0
C1057 C 0.2486 0.75171 0.64378 0.0
C1058 C 0.18201 0.79145 0.67193 0.0
C1059 C 0.21602 0.78131 0.65261 0.0
C1060 C 0.16919 0.80683 0.68083 0.0
C1061 C 0.17364 0.8277 0.67689 0.0
C1062 C 0.19955 0.79698 0.65914 0.0
C1063 C 0.18994 0.83253 0.66263 0.0
C1064 C 0.23301 0.78602 0.63895 0.0
C1065 C 0.2312 0.74764 0.65718 0.0
N1066 N 0.20262 0.81727 0.65451 0.0
N1067 N 0.21569 0.76229 0.6612 0.0
H1068 H 0.08526 0.55614 0.56489 0.0
H1069 H 0.96308 0.51558 0.58447 0.0
H1070 H 0.02741 0.59256 0.54964 0.0
H1071 H 0.02154 0.491 0.61357 0.0
H1072 H 0.98532 0.54504 0.57304 0.0
H1073 H 0.06157 0.53298 0.58393 0.0
C1074 C 0.06751 0.55929 0.56564 0.0
C1075 C 0.0582 0.57611 0.5555 0.0
C1076 C 0.99314 0.53335 0.58221 0.0
C1077 C 0.03087 0.54954 0.5772 0.0
C1078 C 0.98048 0.51654 0.58872 0.0
C1079 C 0.9906 0.50065 0.59969 0.0
C1080 C 0.01604 0.53409 0.58657 0.0
C1081 C 0.01313 0.50274 0.60491 0.0
C1082 C 0.054 0.54614 0.57663 0.0
C1083 C 0.03518 0.57967 0.5572 0.0
N1084 N 0.02516 0.51899 0.59806 0.0
N1085 N 0.02217 0.56626 0.56762 0.0
H1086 H 0.95826 0.90877 0.563 0.0
H1087 H 0.96657 0.01724 0.61955 0.0
H1088 H 0.90296 0.95053 0.57211 0.0
H1089 H 0.02398 0.98438 0.597 0.0
H1090 H 0.94283 0.98852 0.60921 0.0
H1091 H 0.98224 0.93234 0.58199 0.0
C1092 C 0.95112 0.92275 0.56917 0.0
C1093 C 0.9287 0.92788 0.56575 0.0
C1094 C 0.96066 0.9875 0.60673 0.0
C1095 C 0.95584 0.95467 0.5875 0.0
C1096 C 0.97423 0.00386 0.61269 0.0
C1097 C 0.99722 0.00333 0.60883 0.0
C1098 C 0.97016 0.97052 0.59685 0.0
C1099 C 0.00627 0.98552 0.60002 0.0
C1100 C 0.96479 0.93618 0.57996 0.0
C1101 C 0.92025 0.94614 0.57412 0.0
N1102 N 0.99267 0.96988 0.59412 0.0
N1103 N 0.93385 0.95891 0.58452 0.0
H1104 H 0.67516 0.80185 0.70455 0.0
H1105 H 0.59345 0.71152 0.73404 0.0
H1106 H 0.63363 0.76958 0.66235 0.0
H1107 H 0.62684 0.75034 0.77687 0.0
H1108 H 0.60282 0.73638 0.70808 0.0
H1109 H 0.65279 0.78748 0.73151 0.0
C1110 C 0.66105 0.79209 0.70093 0.0
C1111 C 0.65655 0.78656 0.6812 0.0
C1112 C 0.60775 0.73968 0.72322 0.0
C1113 C 0.63111 0.76975 0.71199 0.0
C1114 C 0.60238 0.72547 0.73806 0.0
C1115 C 0.60976 0.72865 0.75757 0.0
C1116 C 0.62085 0.75704 0.7279 0.0
C1117 C 0.62109 0.7471 0.76196 0.0
C1118 C 0.64828 0.78385 0.71634 0.0
C1119 C 0.63791 0.77402 0.67737 0.0
N1120 N 0.62666 0.7604 0.74717 0.0
N1121 N 0.62616 0.76569 0.69264 0.0
H1122 H 0.98834 0.09917 0.45814 0.0
H1123 H 0.00149 0.10063 0.57601 0.0
H1124 H 0.93772 0.12064 0.49884 0.0
H1125 H 0.05119 0.07507 0.53661 0.0
H1126 H 0.98099 0.11351 0.54739 0.0
H1127 H 0.01423 0.09549 0.48602 0.0
C1128 C 0.98276 0.10339 0.47289 0.0
C1129 C 0.96073 0.11 0.4762 0.0
C1130 C 0.9965 0.10529 0.54495 0.0
C1131 C 0.99025 0.10574 0.50815 0.0
C1132 C 0.00826 0.09794 0.56132 0.0
C1133 C 0.02795 0.08648 0.55871 0.0
C1134 C 0.0043 0.10103 0.52573 0.0
C1135 C 0.03603 0.08373 0.53931 0.0
C1136 C 0.99755 0.10124 0.4888 0.0
C1137 C 0.95446 0.1153 0.49561 0.0
N1138 N 0.02399 0.09069 0.52353 0.0
N1139 N 0.96907 0.11288 0.51084 0.0
H1140 H 0.3625 0.73422 0.78236 0.0
H1141 H 0.35547 0.71006 0.66671 0.0
H1142 H 0.39452 0.77052 0.73675 0.0
H1143 H 0.31067 0.68466 0.71059 0.0
H1144 H 0.37846 0.72423 0.69335 0.0
H1145 H 0.35228 0.70856 0.75735 0.0
C1146 C 0.36781 0.7366 0.76716 0.0
C1147 C 0.37898 0.75477 0.76154 0.0
C1148 C 0.36385 0.7152 0.69715 0.0
C1149 C 0.36726 0.72547 0.7329 0.0
C1150 C 0.35073 0.70703 0.68196 0.0
C1151 C 0.33082 0.69656 0.68644 0.0
C1152 C 0.35701 0.71289 0.71694 0.0
C1153 C 0.32569 0.69291 0.70646 0.0
C1154 C 0.3619 0.72195 0.75289 0.0
C1155 C 0.3856 0.75691 0.74167 0.0
N1156 N 0.3385 0.70138 0.72099 0.0
N1157 N 0.37935 0.74257 0.72801 0.0
H1158 H 0.06756 0.37836 0.49855 0.0
H1159 H 0.94525 0.40984 0.53587 0.0
H1160 H 0.01359 0.39336 0.45865 0.0
H1161 H 0.00303 0.40437 0.57373 0.0
H1162 H 0.96785 0.3976 0.50779 0.0
H1163 H 0.0419 0.38149 0.52649 0.0
C1164 C 0.05024 0.38209 0.49563 0.0
C1165 C 0.04279 0.38584 0.47624 0.0
C1166 C 0.97546 0.39885 0.52231 0.0
C1167 C 0.01327 0.38962 0.50826 0.0
C1168 C 0.96255 0.40572 0.53835 0.0
C1169 C 0.97234 0.40835 0.55711 0.0
C1170 C 0.99822 0.39444 0.52516 0.0
C1171 C 0.99485 0.40284 0.55948 0.0
C1172 C 0.03559 0.38393 0.51162 0.0
C1173 C 0.0201 0.3905 0.47338 0.0
N1174 N 0.00702 0.3963 0.5437 0.0
N1175 N 0.00618 0.39246 0.48924 0.0
H1176 H 0.60033 0.27307 0.76392 0.0
H1177 H 0.6911 0.19032 0.79191 0.0
H1178 H 0.63732 0.23836 0.72016 0.0
H1179 H 0.64422 0.2155 0.83416 0.0
H1180 H 0.6678 0.20338 0.76492 0.0
H1181 H 0.612 0.24833 0.78923 0.0
C1182 C 0.61055 0.26003 0.75956 0.0
C1183 C 0.6182 0.258 0.73999 0.0
C1184 C 0.66236 0.20568 0.78009 0.0
C1185 C 0.63195 0.2298 0.76892 0.0
C1186 C 0.67565 0.19818 0.79552 0.0
C1187 C 0.66984 0.20221 0.81532 0.0
C1188 C 0.64332 0.21753 0.78454 0.0
C1189 C 0.64955 0.21233 0.81911 0.0
C1190 C 0.61723 0.24587 0.77403 0.0
C1191 C 0.63126 0.24068 0.73514 0.0
N1192 N 0.63726 0.22001 0.80388 0.0
N1193 N 0.63809 0.22748 0.74959 0.0
H1194 H 0.44509 0.08753 0.46341 0.0
H1195 H 0.56794 0.11979 0.49859 0.0
H1196 H 0.5022 0.09293 0.4247 0.0
H1197 H 0.5153 0.10355 0.53949 0.0
H1198 H 0.54162 0.11657 0.47119 0.0
H1199 H 0.46823 0.09973 0.49116 0.0
C1200 C 0.46235 0.0916 0.46068 0.0
C1201 C 0.47181 0.08899 0.44178 0.0
C1202 C 0.53574 0.11388 0.48617 0.0
C1203 C 0.49826 0.10289 0.47332 0.0
C1204 C 0.55077 0.11577 0.50185 0.0
C1205 C 0.5439 0.11168 0.52135 0.0
C1206 C 0.51363 0.1078 0.48995 0.0
C1207 C 0.52137 0.10667 0.52466 0.0
C1208 C 0.47556 0.09846 0.47652 0.0
C1209 C 0.49428 0.09445 0.43907 0.0
N1210 N 0.50707 0.10466 0.50908 0.0
N1211 N 0.50673 0.10101 0.45466 0.0
H1212 H 0.37195 0.25912 0.7198 0.0
H1213 H 0.35724 0.28068 0.83532 0.0
H1214 H 0.40338 0.22338 0.7661 0.0
H1215 H 0.31478 0.30613 0.78971 0.0
H1216 H 0.38234 0.26765 0.80964 0.0
H1217 H 0.35947 0.28402 0.7447 0.0
C1218 C 0.37667 0.25673 0.73515 0.0
C1219 C 0.38832 0.23889 0.74095 0.0
C1220 C 0.36775 0.27643 0.80527 0.0
C1221 C 0.37394 0.26727 0.7695 0.0
C1222 C 0.35342 0.28394 0.81992 0.0
C1223 C 0.3336 0.29412 0.81462 0.0
C1224 C 0.36221 0.27911 0.7852 0.0
C1225 C 0.32969 0.29808 0.79445 0.0
C1226 C 0.36946 0.27094 0.74936 0.0
C1227 C 0.39414 0.23674 0.76101 0.0
N1228 N 0.34368 0.29027 0.78044 0.0
N1229 N 0.38658 0.25059 0.77462 0.0
H1230 H 0.50394 0.40335 0.42395 0.0
H1231 H 0.48948 0.39544 0.54131 0.0
H1232 H 0.55425 0.42383 0.46537 0.0
H1233 H 0.44016 0.37527 0.49881 0.0
H1234 H 0.51572 0.40139 0.51406 0.0
H1235 H 0.48296 0.38839 0.45132 0.0
C1236 C 0.51072 0.40451 0.43881 0.0
C1237 C 0.53076 0.41511 0.4424 0.0
C1238 C 0.49925 0.39542 0.51073 0.0
C1239 C 0.50656 0.39815 0.47398 0.0
C1240 C 0.48426 0.39197 0.52628 0.0
C1241 C 0.46248 0.38508 0.52231 0.0
C1242 C 0.49239 0.39198 0.49107 0.0
C1243 C 0.45669 0.38078 0.50257 0.0
C1244 C 0.49869 0.39594 0.45447 0.0
C1245 C 0.53882 0.41588 0.46195 0.0
N1246 N 0.47147 0.3845 0.4877 0.0
N1247 N 0.52653 0.40778 0.47707 0.0
H1248 H 0.65725 0.63657 0.76939 0.0
H1249 H 0.78886 0.63461 0.76152 0.0
H1250 H 0.70008 0.66377 0.81382 0.0
H1251 H 0.74733 0.59139 0.72962 0.0
H1252 H 0.75648 0.64544 0.78082 0.0
H1253 H 0.68974 0.61976 0.75458 0.0
C1254 C 0.67347 0.63889 0.77613 0.0
C1255 C 0.67599 0.65176 0.79277 0.0
C1256 C 0.75446 0.63343 0.76976 0.0
C1257 C 0.71324 0.63267 0.77577 0.0
C1258 C 0.77291 0.6273 0.75866 0.0
C1259 C 0.77071 0.6122 0.74382 0.0
C1260 C 0.73351 0.62469 0.76578 0.0
C1261 C 0.74972 0.6031 0.7409 0.0
C1262 C 0.69199 0.6292 0.7677 0.0
C1263 C 0.69737 0.65404 0.80097 0.0
N1264 N 0.73181 0.6097 0.7516 0.0
N1265 N 0.71523 0.6448 0.79222 0.0
H1266 H 0.84358 0.96745 0.49474 0.0
H1267 H 0.9147 0.02404 0.41041 0.0
H1268 H 0.89844 0.93812 0.46419 0.0
H1269 H 0.86963 0.05445 0.451 0.0
H1270 H 0.90328 0.99053 0.42423 0.0
H1271 H 0.84697 0.99709 0.47271 0.0
C1272 C 0.85617 0.96712 0.48319 0.0
C1273 C 0.87101 0.95045 0.48151 0.0
C1274 C 0.8957 0.00455 0.42988 0.0
C1275 C 0.87518 0.98454 0.45635 0.0
C1276 C 0.90213 0.02365 0.42196 0.0
C1277 C 0.8933 0.04206 0.42977 0.0
C1278 C 0.88019 0.00395 0.44552 0.0
C1279 C 0.8771 0.04067 0.44473 0.0
C1280 C 0.85813 0.98409 0.47063 0.0
C1281 C 0.88678 0.95075 0.46609 0.0
N1282 N 0.8712 0.02199 0.45219 0.0
N1283 N 0.8887 0.96772 0.45426 0.0
H1284 H 0.20137 0.8565 0.76791 0.0
H1285 H 0.3331 0.84741 0.76948 0.0
H1286 H 0.24357 0.89355 0.73009 0.0
H1287 H 0.2914 0.82582 0.81747 0.0
H1288 H 0.3008 0.86471 0.75492 0.0
H1289 H 0.23419 0.84543 0.78641 0.0
C1290 C 0.21757 0.86243 0.76358 0.0
C1291 C 0.21979 0.87583 0.74732 0.0
C1292 C 0.29876 0.85638 0.76875 0.0
C1293 C 0.2575 0.86303 0.76837 0.0
C1294 C 0.31717 0.84641 0.77704 0.0
C1295 C 0.3149 0.83497 0.79464 0.0
C1296 C 0.27784 0.85466 0.77795 0.0
C1297 C 0.2939 0.83439 0.80385 0.0
C1298 C 0.2363 0.85616 0.77421 0.0
C1299 C 0.24114 0.88318 0.74251 0.0
N1300 N 0.27612 0.84389 0.79527 0.0
N1301 N 0.25926 0.87645 0.75283 0.0
H1302 H 0.14732 0.53593 0.48909 0.0
H1303 H 0.08286 0.47157 0.40569 0.0
H1304 H 0.0926 0.5611 0.45521 0.0
H1305 H 0.12813 0.44554 0.44877 0.0
H1306 H 0.0918 0.50623 0.41823 0.0
H1307 H 0.14633 0.50493 0.46864 0.0
C1308 C 0.13526 0.53505 0.47714 0.0
C1309 C 0.11977 0.55097 0.47405 0.0
C1310 C 0.09997 0.49293 0.42472 0.0
C1311 C 0.11835 0.51529 0.45068 0.0
C1312 C 0.09496 0.47316 0.41753 0.0
C1313 C 0.10457 0.45563 0.42638 0.0
C1314 C 0.11484 0.49511 0.4407 0.0
C1315 C 0.1201 0.45858 0.44168 0.0
C1316 C 0.13468 0.5173 0.46548 0.0
C1317 C 0.10474 0.5491 0.45817 0.0
N1318 N 0.12462 0.4779 0.44842 0.0
N1319 N 0.10416 0.53139 0.44723 0.0
H1320 H 0.79085 0.36375 0.73365 0.0
H1321 H 0.65953 0.35267 0.72918 0.0
H1322 H 0.74696 0.40345 0.76726 0.0
H1323 H 0.70303 0.32871 0.68353 0.0
H1324 H 0.69104 0.37154 0.74334 0.0
H1325 H 0.75884 0.35092 0.71503 0.0
C1326 C 0.77445 0.36989 0.73701 0.0
C1327 C 0.7715 0.38455 0.75214 0.0
C1328 C 0.69364 0.36234 0.7301 0.0
C1329 C 0.73473 0.36975 0.73099 0.0
C1330 C 0.67569 0.35148 0.72205 0.0
C1331 C 0.67871 0.33892 0.70524 0.0
C1332 C 0.71485 0.36041 0.72147 0.0
C1333 C 0.69996 0.33813 0.69653 0.0
C1334 C 0.75619 0.36261 0.72631 0.0
C1335 C 0.74993 0.39212 0.75573 0.0
N1336 N 0.71729 0.34852 0.7049 0.0
N1337 N 0.73227 0.38439 0.7454 0.0
H1338 H 0.59292 0.93579 0.53813 0.0
H1339 H 0.63202 0.05294 0.54675 0.0
H1340 H 0.64436 0.96369 0.50216 0.0
H1341 H 0.58554 0.02532 0.58788 0.0
H1342 H 0.63999 0.01885 0.53321 0.0
H1343 H 0.59302 0.96663 0.55944 0.0
C1344 C 0.6045 0.94822 0.53493 0.0
C1345 C 0.61839 0.94734 0.51818 0.0
C1346 C 0.62823 0.02011 0.54536 0.0
C1347 C 0.61852 0.98256 0.5423 0.0
C1348 C 0.62368 0.03962 0.5531 0.0
C1349 C 0.60791 0.04199 0.5683 0.0
C1350 C 0.61665 0.00279 0.5526 0.0
C1351 C 0.59777 0.02417 0.5761 0.0
C1352 C 0.60451 0.96582 0.54706 0.0
C1353 C 0.63309 0.96383 0.51473 0.0
N1354 N 0.60203 0.00532 0.56792 0.0
N1355 N 0.63258 0.98081 0.52653 0.0
H1356 H 0.34619 0.14558 0.73484 0.0
H1357 H 0.21471 0.13161 0.73906 0.0
H1358 H 0.30212 0.16642 0.68826 0.0
H1359 H 0.25953 0.09646 0.77616 0.0
H1360 H 0.2466 0.14471 0.72051 0.0
H1361 H 0.3149 0.12762 0.75037 0.0
C1362 C 0.32995 0.14629 0.7278 0.0
C1363 C 0.32673 0.15767 0.71028 0.0
C1364 C 0.24949 0.134 0.73259 0.0
C1365 C 0.29083 0.13722 0.72809 0.0
C1366 C 0.23129 0.12657 0.74327 0.0
C1367 C 0.23449 0.11303 0.7593 0.0
C1368 C 0.27114 0.12811 0.73811 0.0
C1369 C 0.25633 0.1069 0.76393 0.0
C1370 C 0.31212 0.13595 0.73666 0.0
C1371 C 0.30537 0.15789 0.70177 0.0
N1372 N 0.27389 0.11467 0.75351 0.0
N1373 N 0.28817 0.148 0.71088 0.0
H1374 H 0.41227 0.46841 0.58754 0.0
H1375 H 0.3437 0.52327 0.50056 0.0
H1376 H 0.36967 0.4369 0.54566 0.0
H1377 H 0.39456 0.55457 0.53455 0.0
H1378 H 0.34728 0.49337 0.52222 0.0
H1379 H 0.40048 0.50161 0.57331 0.0
C1380 C 0.40015 0.46849 0.57561 0.0
C1381 C 0.39215 0.44987 0.56758 0.0
C1382 C 0.35752 0.50683 0.52511 0.0
C1383 C 0.37865 0.48764 0.55133 0.0
C1384 C 0.35546 0.52395 0.51275 0.0
C1385 C 0.36911 0.54131 0.51556 0.0
C1386 C 0.37351 0.50692 0.54035 0.0
C1387 C 0.38384 0.54141 0.53178 0.0
C1388 C 0.39352 0.48741 0.56746 0.0
C1389 C 0.37651 0.45085 0.55213 0.0
N1390 N 0.38589 0.52432 0.54342 0.0
N1391 N 0.37042 0.46938 0.54444 0.0
H1392 H 0.79399 0.63716 0.65207 0.0
H1393 H 0.76048 0.75565 0.65596 0.0
H1394 H 0.83175 0.68424 0.68263 0.0
H1395 H 0.72702 0.71197 0.61768 0.0
H1396 H 0.78852 0.72976 0.6634 0.0
H1397 H 0.77196 0.66427 0.63597 0.0
C1398 C 0.79806 0.65319 0.65498 0.0
C1399 C 0.81446 0.65848 0.66898 0.0
C1400 C 0.77516 0.72578 0.65327 0.0
C1401 C 0.78912 0.68944 0.65095 0.0
C1402 C 0.75899 0.74055 0.64913 0.0
C1403 C 0.74118 0.73588 0.63638 0.0
C1404 C 0.77348 0.70599 0.64484 0.0
C1405 C 0.74038 0.71615 0.62772 0.0
C1406 C 0.78537 0.66866 0.64589 0.0
C1407 C 0.81903 0.67946 0.67218 0.0
N1408 N 0.7562 0.7018 0.6323 0.0
N1409 N 0.8062 0.69415 0.66349 0.0
H1410 H 0.79524 0.36128 0.84288 0.0
H1411 H 0.76979 0.24082 0.84213 0.0
H1412 H 0.83596 0.31547 0.81355 0.0
H1413 H 0.73181 0.2838 0.87774 0.0
H1414 H 0.79602 0.2681 0.83425 0.0
H1415 H 0.77449 0.33346 0.85927 0.0
C1416 C 0.80022 0.3454 0.8403 0.0
C1417 C 0.81712 0.34064 0.82659 0.0
C1418 C 0.78205 0.27166 0.84388 0.0
C1419 C 0.79326 0.30886 0.84497 0.0
C1420 C 0.7669 0.25607 0.84828 0.0
C1421 C 0.74835 0.26009 0.8604 0.0
C1422 C 0.77861 0.29164 0.8514 0.0
C1423 C 0.74579 0.28009 0.86819 0.0
C1424 C 0.78825 0.32954 0.84955 0.0
C1425 C 0.82284 0.31984 0.82378 0.0
N1426 N 0.76064 0.29523 0.86337 0.0
N1427 N 0.81073 0.30474 0.83265 0.0
H1428 H 0.52644 0.9027 0.44244 0.0
H1429 H 0.5187 0.00721 0.37968 0.0
H1430 H 0.58236 0.94154 0.42696 0.0
H1431 H 0.46253 0.98206 0.41179 0.0
H1432 H 0.54075 0.97717 0.38914 0.0
H1433 H 0.50165 0.92623 0.42404 0.0
C1434 C 0.5335 0.91599 0.43494 0.0
C1435 C 0.55636 0.92043 0.43641 0.0
C1436 C 0.52352 0.9781 0.39393 0.0
C1437 C 0.52843 0.94697 0.41532 0.0
C1438 C 0.5109 0.99523 0.38851 0.0
C1439 C 0.4889 0.99732 0.39531 0.0
C1440 C 0.51412 0.96298 0.40629 0.0
C1441 C 0.47956 0.98116 0.40647 0.0
C1442 C 0.5194 0.92937 0.42452 0.0
C1443 C 0.56476 0.93777 0.42645 0.0
N1444 N 0.49234 0.96473 0.41187 0.0
N1445 N 0.55079 0.95043 0.41639 0.0
H1446 H 0.231 0.25659 0.83485 0.0
H1447 H 0.19996 0.13795 0.847 0.0
H1448 H 0.26292 0.21692 0.87786 0.0
H1449 H 0.1642 0.18064 0.80943 0.0
H1450 H 0.22 0.16708 0.86176 0.0
H1451 H 0.20428 0.22936 0.82777 0.0
C1452 C 0.23245 0.2421 0.8428 0.0
C1453 C 0.24945 0.23896 0.85681 0.0
C1454 C 0.20746 0.1701 0.85056 0.0
C1455 C 0.21863 0.20757 0.84878 0.0
C1456 C 0.19587 0.15348 0.84223 0.0
C1457 C 0.18066 0.15685 0.8267 0.0
C1458 C 0.20384 0.19013 0.84322 0.0
C1459 C 0.17602 0.17728 0.82115 0.0
C1460 C 0.21703 0.22657 0.83884 0.0
C1461 C 0.25021 0.21994 0.86682 0.0
N1462 N 0.18783 0.19311 0.82916 0.0
N1463 N 0.23513 0.20486 0.86248 0.0
H1464 H 0.98001 0.99732 0.88369 0.0
H1465 H 0.9751 0.0982 0.95209 0.0
H1466 H 0.03685 0.01924 0.91701 0.0
H1467 H 0.91806 0.06217 0.93381 0.0
H1468 H -0.00067 0.07498 0.93271 0.0
H1469 H 0.95881 0.02729 0.8948 0.0
C1470 C 0.98814 0.00859 0.89314 0.0
C1471 C 0.01007 0.00558 0.89978 0.0
C1472 C 0.98147 0.07239 0.93283 0.0
C1473 C 0.98582 0.03983 0.91266 0.0
C1474 C 0.96769 0.08559 0.94381 0.0
C1475 C 0.94465 0.08185 0.94474 0.0
C1476 C 0.97197 0.05568 0.92253 0.0
C1477 C 0.9358 0.06538 0.93375 0.0
C1478 C 0.97601 0.02567 0.89951 0.0
C1479 C 0.01986 0.02085 0.91177 0.0
N1480 N 0.94948 0.05288 0.92316 0.0
N1481 N 0.00754 0.03724 0.91809 0.0
H1482 H 0.73257 0.24617 0.16245 0.0
H1483 H 0.69861 0.36484 0.15369 0.0
H1484 H 0.76513 0.28909 0.12279 0.0
H1485 H 0.66589 0.32108 0.19235 0.0
H1486 H 0.71926 0.3364 0.13846 0.0
H1487 H 0.7053 0.27267 0.1707 0.0
C1488 C 0.73405 0.2612 0.15549 0.0
C1489 C 0.75135 0.26546 0.14205 0.0
C1490 C 0.70728 0.33298 0.15004 0.0
C1491 C 0.71993 0.29594 0.15138 0.0
C1492 C 0.69532 0.3492 0.15864 0.0
C1493 C 0.68078 0.34537 0.17457 0.0
C1494 C 0.70471 0.31285 0.15749 0.0
C1495 C 0.67715 0.32479 0.1803 0.0
C1496 C 0.71833 0.27631 0.16013 0.0
C1497 C 0.7522 0.28517 0.13336 0.0
N1498 N 0.68932 0.30935 0.17198 0.0
N1499 N 0.73678 0.29973 0.13828 0.0
H1500 H 0.53865 0.08632 0.05317 0.0
H1501 H 0.52846 0.98439 0.1195 0.0
H1502 H 0.59419 0.04869 0.07212 0.0
H1503 H 0.47225 0.01333 0.09059 0.0
H1504 H 0.55202 0.01309 0.10893 0.0
H1505 H 0.5136 0.06466 0.07316 0.0
C1506 C 0.5456 0.07372 0.06175 0.0
C1507 C 0.56843 0.06904 0.06074 0.0
C1508 C 0.53447 0.01329 0.1051 0.0
C1509 C 0.54007 0.04442 0.08358 0.0
C1510 C 0.52099 0.99693 0.11117 0.0
C1511 C 0.49847 0.99629 0.10559 0.0
C1512 C 0.52538 0.02908 0.0933 0.0
C1513 C 0.48963 0.01308 0.09498 0.0
C1514 C 0.53132 0.06136 0.0731 0.0
C1515 C 0.57661 0.0526 0.07219 0.0
N1516 N 0.50319 0.02869 0.08892 0.0
N1517 N 0.56243 0.04081 0.08301 0.0
H1518 H 0.48064 0.50252 0.11969 0.0
H1519 H 0.47341 0.40092 0.05242 0.0
H1520 H 0.53649 0.47998 0.08539 0.0
H1521 H 0.41712 0.43757 0.0714 0.0
H1522 H 0.49828 0.42412 0.07119 0.0
H1523 H 0.45904 0.47247 0.10941 0.0
C1524 C 0.48848 0.4911 0.1102 0.0
C1525 C 0.51023 0.49395 0.10305 0.0
C1526 C 0.48044 0.42684 0.07138 0.0
C1527 C 0.48551 0.45961 0.09111 0.0
C1528 C 0.4663 0.41365 0.06075 0.0
C1529 C 0.44328 0.41759 0.06017 0.0
C1530 C 0.47131 0.44373 0.08169 0.0
C1531 C 0.43483 0.43421 0.0712 0.0
C1532 C 0.47611 0.47397 0.10431 0.0
C1533 C 0.51964 0.47848 0.09103 0.0
N1534 N 0.44884 0.44669 0.08144 0.0
N1535 N 0.50709 0.46205 0.08518 0.0
H1536 H 0.14469 0.23776 0.38434 0.0
H1537 H 0.1196 0.35746 0.36418 0.0
H1538 H 0.13399 0.2642 0.32631 0.0
H1539 H 0.11694 0.32976 0.42244 0.0
H1540 H 0.13233 0.32456 0.3506 0.0
H1541 H 0.14164 0.27242 0.39887 0.0
C1542 C 0.14199 0.25087 0.37464 0.0
C1543 C 0.13936 0.24807 0.35411 0.0
C1544 C 0.12918 0.32572 0.3664 0.0
C1545 C 0.13589 0.28767 0.3706 0.0
C1546 C 0.12197 0.34455 0.37419 0.0
C1547 C 0.11689 0.34634 0.39447 0.0
C1548 C 0.13134 0.3085 0.37892 0.0
C1549 C 0.12046 0.32906 0.40669 0.0
C1550 C 0.14019 0.27062 0.38294 0.0
C1551 C 0.1359 0.2656 0.34224 0.0
N1552 N 0.12725 0.31079 0.3987 0.0
N1553 N 0.13415 0.28461 0.35066 0.0
H1554 H 0.58009 0.65619 0.86746 0.0
H1555 H 0.46374 0.59933 0.84681 0.0
H1556 H 0.5498 0.65153 0.80946 0.0
H1557 H 0.48792 0.61416 0.90548 0.0
H1558 H 0.49766 0.61432 0.83269 0.0
H1559 H 0.54853 0.63724 0.88145 0.0
C1560 C 0.56682 0.65119 0.85766 0.0
C1561 C 0.56755 0.65557 0.83726 0.0
C1562 C 0.4956 0.61416 0.84866 0.0
C1563 C 0.53146 0.63374 0.85318 0.0
C1564 C 0.4763 0.6055 0.85674 0.0
C1565 C 0.47294 0.60563 0.87734 0.0
C1566 C 0.51167 0.62293 0.86129 0.0
C1567 C 0.48977 0.61385 0.8895 0.0
C1568 C 0.54881 0.64036 0.86566 0.0
C1569 C 0.54989 0.64863 0.82528 0.0
N1570 N 0.50836 0.62227 0.88128 0.0
N1571 N 0.53257 0.63807 0.83343 0.0
H1572 H 0.85309 0.2575 0.38585 0.0
H1573 H 0.88001 0.13809 0.36611 0.0
H1574 H 0.86224 0.23051 0.32781 0.0
H1575 H 0.88462 0.16673 0.42389 0.0
H1576 H 0.86574 0.17046 0.35265 0.0
H1577 H 0.85699 0.22303 0.40061 0.0
C1578 C 0.85555 0.2443 0.3762 0.0
C1579 C 0.8576 0.24688 0.3556 0.0
C1580 C 0.86966 0.16962 0.36831 0.0
C1581 C 0.8621 0.20754 0.37233 0.0
C1582 C 0.87778 0.1511 0.37604 0.0
C1583 C 0.88384 0.14974 0.39613 0.0
C1584 C 0.86757 0.18696 0.38071 0.0
C1585 C 0.88038 0.16712 0.40827 0.0
C1586 C 0.85787 0.22466 0.38463 0.0
C1587 C 0.8608 0.22925 0.34379 0.0
N1588 N 0.87268 0.18508 0.40033 0.0
N1589 N 0.8631 0.21038 0.35233 0.0
H1590 H 0.50273 0.87749 0.90503 0.0
H1591 H 0.44108 0.83396 0.80872 0.0
H1592 H 0.5266 0.88775 0.84538 0.0
H1593 H 0.41216 0.83252 0.86744 0.0
H1594 H 0.47251 0.85373 0.82184 0.0
H1595 H 0.46902 0.86169 0.89149 0.0
C1596 C 0.50075 0.87665 0.88906 0.0
C1597 C 0.51755 0.88384 0.8763 0.0
C1598 C 0.45925 0.84915 0.83183 0.0
C1599 C 0.47914 0.86549 0.8607 0.0
C1600 C 0.44134 0.83775 0.82438 0.0
C1601 C 0.42397 0.83148 0.83701 0.0
C1602 C 0.4599 0.8542 0.8521 0.0
C1603 C 0.42518 0.83697 0.85715 0.0
C1604 C 0.48151 0.86758 0.88134 0.0
C1605 C 0.51407 0.8824 0.85575 0.0
N1606 N 0.44288 0.84794 0.86407 0.0
N1607 N 0.49535 0.87318 0.84859 0.0
H1608 H 0.135 0.73379 0.17153 0.0
H1609 H 0.11567 0.67027 0.07201 0.0
H1610 H 0.1434 0.7605 0.11333 0.0
H1611 H 0.11722 0.64265 0.13034 0.0
H1612 H 0.12926 0.70265 0.08633 0.0
H1613 H 0.1319 0.69969 0.15641 0.0
C1614 C 0.13644 0.73244 0.15555 0.0
C1615 C 0.13923 0.75004 0.14364 0.0
C1616 C 0.12691 0.68942 0.09594 0.0
C1617 C 0.13541 0.71097 0.12615 0.0
C1618 C 0.11915 0.6709 0.08777 0.0
C1619 C 0.115 0.65375 0.10002 0.0
C1620 C 0.13038 0.69085 0.11652 0.0
C1621 C 0.11996 0.65549 0.12032 0.0
C1622 C 0.13468 0.71293 0.14691 0.0
C1623 C 0.14117 0.74734 0.12304 0.0
N1624 N 0.1271 0.67376 0.12795 0.0
N1625 N 0.1389 0.72819 0.11491 0.0
H1626 H 0.91493 0.66639 0.13164 0.0
H1627 H 0.02865 0.6046 0.15072 0.0
H1628 H 0.94507 0.65939 0.18947 0.0
H1629 H 0.00444 0.62089 0.09244 0.0
H1630 H 0.99566 0.62084 0.16533 0.0
H1631 H 0.94556 0.64656 0.1172 0.0
C1632 C 0.92799 0.66071 0.14132 0.0
C1633 C 0.92746 0.66467 0.16181 0.0
C1634 C 0.9975 0.62072 0.14934 0.0
C1635 C 0.96252 0.64179 0.14535 0.0
C1636 C 0.01626 0.61134 0.14098 0.0
C1637 C 0.01936 0.6115 0.12033 0.0
C1638 C 0.98171 0.63027 0.13696 0.0
C1639 C 0.00278 0.6205 0.10844 0.0
C1640 C 0.94547 0.64936 0.13305 0.0
C1641 C 0.94484 0.65684 0.17359 0.0
N1642 N 0.98472 0.62962 0.11693 0.0
N1643 N 0.96165 0.64577 0.16519 0.0
H1644 H 0.86237 0.76708 0.17426 0.0
H1645 H 0.87774 0.833 0.07558 0.0
H1646 H 0.85287 0.74149 0.11569 0.0
H1647 H 0.87804 0.85926 0.13453 0.0
H1648 H 0.86514 0.80014 0.08958 0.0
H1649 H 0.8648 0.80151 0.15976 0.0
C1650 C 0.86058 0.76874 0.15833 0.0
C1651 C 0.85763 0.75137 0.14613 0.0
C1652 C 0.86768 0.81317 0.0994 0.0
C1653 C 0.86064 0.79083 0.12937 0.0
C1654 C 0.87485 0.83198 0.09143 0.0
C1655 C 0.87925 0.84889 0.10392 0.0
C1656 C 0.86504 0.81122 0.12004 0.0
C1657 C 0.87509 0.84663 0.12432 0.0
C1658 C 0.86194 0.78844 0.15006 0.0
C1659 C 0.85524 0.75447 0.12563 0.0
N1660 N 0.8685 0.82809 0.13174 0.0
N1661 N 0.85709 0.77381 0.11785 0.0
H1662 H 0.96685 0.89492 0.15364 0.0
H1663 H 0.08061 0.83465 0.13069 0.0
H1664 H 0.98977 0.88095 0.09436 0.0
H1665 H 0.04979 0.83686 0.18862 0.0
H1666 H 0.04967 0.85498 0.11742 0.0
H1667 H -0.00011 0.8777 0.16703 0.0
C1668 C 0.97898 0.88848 0.14343 0.0
C1669 C 0.9755 0.88926 0.12285 0.0
C1670 C 0.04968 0.85099 0.13302 0.0
C1671 C 0.0132 0.8694 0.13808 0.0
C1672 C 0.06733 0.83936 0.14062 0.0
C1673 C 0.06777 0.83395 0.16079 0.0
C1674 C 0.03243 0.85741 0.14571 0.0
C1675 C 0.0501 0.84055 0.17295 0.0
C1676 C 0.99775 0.87853 0.15109 0.0
C1677 C 0.99174 0.88061 0.11033 0.0
N1678 N 0.03318 0.85197 0.16523 0.0
N1679 N 0.00984 0.87096 0.11815 0.0
H1680 H 0.38471 0.06331 0.24378 0.0
H1681 H 0.41652 0.10951 0.34607 0.0
H1682 H 0.39019 0.12937 0.25148 0.0
H1683 H 0.44583 0.05213 0.32618 0.0
H1684 H 0.40607 0.11723 0.31169 0.0
H1685 H 0.40708 0.0584 0.27381 0.0
C1686 C 0.39105 0.07676 0.25154 0.0
C1687 C 0.38547 0.09675 0.24525 0.0
C1688 C 0.41515 0.10314 0.31486 0.0
C1689 C 0.41039 0.09127 0.27978 0.0
C1690 C 0.42099 0.09868 0.33445 0.0
C1691 C 0.43188 0.08009 0.33898 0.0
C1692 C 0.41975 0.08866 0.29987 0.0
C1693 C 0.43739 0.06663 0.32335 0.0
C1694 C 0.40379 0.07396 0.26865 0.0
C1695 C 0.39411 0.11367 0.25583 0.0
N1696 N 0.43088 0.07099 0.30452 0.0
N1697 N 0.40571 0.11055 0.27288 0.0
H1698 H 0.40909 0.3065 0.0041 0.0
H1699 H 0.36568 0.30267 0.89249 0.0
H1700 H 0.40789 0.35878 0.96436 0.0
H1701 H 0.34146 0.26304 0.93932 0.0
H1702 H 0.39404 0.31618 0.91515 0.0
H1703 H 0.39725 0.28417 0.97669 0.0
C1704 C 0.40697 0.31319 0.98949 0.0
C1705 C 0.40904 0.33458 0.98654 0.0
C1706 C 0.38287 0.30414 0.92026 0.0
C1707 C 0.39566 0.30916 0.95527 0.0
C1708 C 0.36674 0.29633 0.90734 0.0
C1709 C 0.35087 0.28206 0.91421 0.0
C1710 C 0.38321 0.29744 0.94006 0.0
C1711 C 0.35312 0.27433 0.93355 0.0
C1712 C 0.40015 0.30044 0.97391 0.0
C1713 C 0.40611 0.34241 0.96732 0.0
N1714 N 0.36878 0.28236 0.94593 0.0
N1715 N 0.39929 0.32973 0.95243 0.0
H1716 H 0.60498 0.4029 0.24082 0.0
H1717 H 0.61567 0.43353 0.35302 0.0
H1718 H 0.65443 0.44625 0.26197 0.0
H1719 H 0.54976 0.42838 0.32755 0.0
H1720 H 0.63167 0.43095 0.31981 0.0
H1721 H 0.58489 0.4067 0.27246 0.0
C1722 C 0.61137 0.41349 0.25191 0.0
C1723 C 0.63153 0.42413 0.24881 0.0
C1724 C 0.61371 0.43027 0.32154 0.0
C1725 C 0.60914 0.42792 0.28493 0.0
C1726 C 0.60457 0.43148 0.34048 0.0
C1727 C 0.58135 0.4312 0.34302 0.0
C1728 C 0.59959 0.42836 0.30506 0.0
C1729 C 0.56776 0.42872 0.32618 0.0
C1730 C 0.59996 0.41556 0.26991 0.0
C1731 C 0.63905 0.43765 0.26369 0.0
N1732 N 0.5771 0.42731 0.30781 0.0
N1733 N 0.62809 0.43884 0.28125 0.0
H1734 H 0.5862 0.17733 -0.00075 0.0
H1735 H 0.63461 0.19091 0.89021 0.0
H1736 H 0.59525 0.12757 0.95729 0.0
H1737 H 0.65115 0.23021 0.93988 0.0
H1738 H 0.6063 0.17387 0.91057 0.0
H1739 H 0.59581 0.20211 0.97324 0.0
C1740 C 0.5895 0.17162 0.98442 0.0
C1741 C 0.59045 0.1503 0.98053 0.0
C1742 C 0.61573 0.18661 0.9168 0.0
C1743 C 0.60138 0.17859 0.95081 0.0
C1744 C 0.63184 0.19642 0.9052 0.0
C1745 C 0.64565 0.21166 0.91355 0.0
C1746 C 0.6133 0.19224 0.93679 0.0
C1747 C 0.64116 0.21826 0.93298 0.0
C1748 C 0.59507 0.1858 0.96963 0.0
C1749 C 0.59472 0.14385 0.96101 0.0
N1750 N 0.6256 0.20826 0.94408 0.0
N1751 N 0.6004 0.15793 0.94693 0.0
H1752 H 0.39499 0.89748 0.25961 0.0
H1753 H 0.38692 0.92711 0.14742 0.0
H1754 H 0.34815 0.94296 0.23794 0.0
H1755 H 0.45268 0.92287 0.17335 0.0
H1756 H 0.37068 0.92489 0.18054 0.0
H1757 H 0.41583 0.90051 0.22825 0.0
C1758 C 0.38934 0.90836 0.24848 0.0
C1759 C 0.36967 0.91985 0.25133 0.0
C1760 C 0.38867 0.9243 0.17892 0.0
C1761 C 0.39288 0.92277 0.21555 0.0
C1762 C 0.39795 0.92532 0.16004 0.0
C1763 C 0.4212 0.92522 0.15765 0.0
C1764 C 0.40266 0.92276 0.19551 0.0
C1765 C 0.43467 0.92307 0.1746 0.0
C1766 C 0.40118 0.90999 0.23064 0.0
C1767 C 0.36312 0.93371 0.23641 0.0
N1768 N 0.42518 0.92184 0.19293 0.0
N1769 N 0.37443 0.93446 0.21901 0.0
H1770 H 0.15161 0.26495 0.05773 0.0
H1771 H 0.08853 0.36532 0.03388 0.0
H1772 H 0.1295 0.30629 0.10403 0.0
H1773 H 0.08598 0.31273 0.99452 0.0
H1774 H 0.09878 0.34231 0.0611 0.0
H1775 H 0.12328 0.27938 0.03569 0.0
C1776 C 0.1404 0.27668 0.06342 0.0
C1777 C 0.14323 0.28478 0.08256 0.0
C1778 C 0.09542 0.33569 0.04663 0.0
C1779 C 0.11119 0.30168 0.05733 0.0
C1780 C 0.08963 0.34885 0.03108 0.0
C1781 C 0.08684 0.34095 0.01187 0.0
C1782 C 0.09902 0.3146 0.04279 0.0
C1783 C 0.08823 0.31948 0.00908 0.0
C1784 C 0.1242 0.28491 0.05084 0.0
C1785 C 0.1281 0.2998 0.08927 0.0
N1786 N 0.09481 0.30709 0.02427 0.0
N1787 N 0.11311 0.3082 0.07648 0.0
H1788 H 0.61477 0.56427 0.25548 0.0
H1789 H 0.57945 0.60777 0.15285 0.0
H1790 H 0.60653 0.62992 0.24661 0.0
H1791 H 0.55395 0.54914 0.17342 0.0
H1792 H 0.58994 0.61632 0.18703 0.0
H1793 H 0.5923 0.55794 0.22575 0.0
C1794 C 0.6078 0.57732 0.24754 0.0
C1795 C 0.61267 0.59763 0.2534 0.0
C1796 C 0.58169 0.60175 0.18406 0.0
C1797 C 0.5876 0.59054 0.2192 0.0
C1798 C 0.57583 0.59682 0.16458 0.0
C1799 C 0.56599 0.57767 0.1603 0.0
C1800 C 0.57817 0.5872 0.19922 0.0
C1801 C 0.56156 0.56407 0.17607 0.0
C1802 C 0.59501 0.57371 0.23059 0.0
C1803 C 0.60322 0.61401 0.24259 0.0
N1804 N 0.56807 0.56893 0.1948 0.0
N1805 N 0.59156 0.61011 0.22572 0.0
H1806 H 0.84839 0.24491 0.0603 0.0
H1807 H 0.91181 0.14334 0.04078 0.0
H1808 H 0.86885 0.20454 0.10793 0.0
H1809 H 0.91419 0.19413 -0.00066 0.0
H1810 H 0.90115 0.16747 0.06698 0.0
H1811 H 0.87721 0.22973 0.0392 0.0
C1812 C 0.85935 0.23327 0.06651 0.0
C1813 C 0.85582 0.22558 0.08571 0.0
C1814 C 0.90454 0.17346 0.05228 0.0
C1815 C 0.88844 0.20783 0.06155 0.0
C1816 C 0.91057 0.15965 0.03731 0.0
C1817 C 0.91345 0.1667 0.01781 0.0
C1818 C 0.90079 0.19434 0.04757 0.0
C1819 C 0.91188 0.18802 0.01415 0.0
C1820 C 0.87581 0.22457 0.05444 0.0
C1821 C 0.87068 0.21065 0.09306 0.0
N1822 N 0.90507 0.20104 0.02879 0.0
N1823 N 0.88595 0.20185 0.08079 0.0
H1824 H 0.35554 0.35697 0.08002 0.0
H1825 H 0.22809 0.33263 0.07133 0.0
H1826 H 0.31718 0.3801 0.03057 0.0
H1827 H 0.25949 0.34169 0.1283 0.0
H1828 H 0.26032 0.3489 0.05533 0.0
H1829 H 0.32068 0.34883 0.09734 0.0
C1830 C 0.33979 0.36025 0.07279 0.0
C1831 C 0.3392 0.36909 0.05381 0.0
C1832 C 0.25991 0.34772 0.07136 0.0
C1833 C 0.29944 0.35987 0.07347 0.0
C1834 C 0.24153 0.33852 0.08048 0.0
C1835 C 0.24122 0.33578 0.10113 0.0
C1836 C 0.27828 0.35363 0.08295 0.0
C1837 C 0.25906 0.34359 0.11234 0.0
C1838 C 0.31995 0.35583 0.08276 0.0
C1839 C 0.31834 0.37326 0.04519 0.0
N1840 N 0.27715 0.35176 0.10305 0.0
N1841 N 0.29924 0.36837 0.055 0.0
H1842 H 0.23398 0.65049 0.38651 0.0
H1843 H 0.33654 0.65787 0.45832 0.0
H1844 H 0.23973 0.69867 0.43067 0.0
H1845 H 0.31028 0.59797 0.44246 0.0
H1846 H 0.30298 0.67397 0.44465 0.0
H1847 H 0.26333 0.63105 0.40386 0.0
C1848 C 0.24114 0.65683 0.39996 0.0
C1849 C 0.23455 0.67633 0.40702 0.0
C1850 C 0.30452 0.65729 0.44429 0.0
C1851 C 0.26819 0.6545 0.42651 0.0
C1852 C 0.32369 0.64813 0.45194 0.0
C1853 C 0.32611 0.62661 0.45148 0.0
C1854 C 0.28794 0.64486 0.43568 0.0
C1855 C 0.30893 0.61464 0.44315 0.0
C1856 C 0.25783 0.64575 0.40982 0.0
C1857 C 0.24435 0.68379 0.42456 0.0
N1858 N 0.2906 0.62397 0.43531 0.0
N1859 N 0.26093 0.67303 0.4335 0.0
H1860 H 0.85099 0.54544 0.88586 0.0
H1861 H 0.84545 0.42802 0.84925 0.0
H1862 H 0.90247 0.50024 0.89694 0.0
H1863 H 0.80921 0.47809 0.82184 0.0
H1864 H 0.85867 0.45198 0.87482 0.0
H1865 H 0.828 0.51832 0.87079 0.0
C1866 C 0.8572 0.52971 0.88565 0.0
C1867 C 0.87879 0.52512 0.8924 0.0
C1868 C 0.84749 0.45761 0.8634 0.0
C1869 C 0.85267 0.49415 0.87513 0.0
C1870 C 0.83987 0.44394 0.84884 0.0
C1871 C 0.82649 0.45116 0.83321 0.0
C1872 C 0.84152 0.47857 0.86241 0.0
C1873 C 0.81976 0.47194 0.83347 0.0
C1874 C 0.84414 0.51429 0.87691 0.0
C1875 C 0.88602 0.50449 0.89168 0.0
N1876 N 0.82752 0.48497 0.84772 0.0
N1877 N 0.87309 0.4898 0.88297 0.0
H1878 H 0.68172 0.88208 0.46982 0.0
H1879 H 0.74226 0.84865 0.36942 0.0
H1880 H 0.64605 0.86257 0.41741 0.0
H1881 H 0.77 0.83498 0.42703 0.0
H1882 H 0.70996 0.86462 0.3857 0.0
H1883 H 0.71706 0.87434 0.45295 0.0
C1884 C 0.68135 0.87623 0.45476 0.0
C1885 C 0.66098 0.87271 0.44504 0.0
C1886 C 0.72339 0.85849 0.39471 0.0
C1887 C 0.70114 0.86449 0.42562 0.0
C1888 C 0.74191 0.84963 0.38547 0.0
C1889 C 0.75868 0.84037 0.39695 0.0
C1890 C 0.72193 0.85839 0.41549 0.0
C1891 C 0.75729 0.84183 0.41769 0.0
C1892 C 0.70146 0.87189 0.44518 0.0
C1893 C 0.66139 0.8652 0.42551 0.0
N1894 N 0.73911 0.85054 0.42635 0.0
N1895 N 0.6812 0.86141 0.41638 0.0
H1896 H 0.58796 0.51865 0.40515 0.0
H1897 H 0.65014 0.59003 0.35346 0.0
H1898 H 0.6449 0.47809 0.40072 0.0
H1899 H 0.68054 0.53495 0.3294 0.0
H1900 H 0.6369 0.56986 0.38182 0.0
H1901 H 0.60941 0.54583 0.38896 0.0
C1902 C 0.60526 0.51571 0.40139 0.0
C1903 C 0.61459 0.49603 0.40413 0.0
C1904 C 0.64654 0.56222 0.37038 0.0
C1905 C 0.63929 0.52704 0.38538 0.0
C1906 C 0.65428 0.57375 0.35426 0.0
C1907 C 0.66604 0.56405 0.33881 0.0
C1908 C 0.65058 0.54083 0.371 0.0
C1909 C 0.67118 0.54298 0.34078 0.0
C1910 C 0.61758 0.5313 0.39218 0.0
C1911 C 0.63704 0.49303 0.39888 0.0
N1912 N 0.66322 0.53204 0.35647 0.0
N1913 N 0.64843 0.5082 0.38925 0.0
H1914 H 0.1821 0.61852 0.52402 0.0
H1915 H 0.2361 0.64948 0.62803 0.0
H1916 H 0.14325 0.63562 0.57544 0.0
H1917 H 0.26758 0.66447 0.57224 0.0
H1918 H 0.20494 0.63395 0.6098 0.0
H1919 H 0.21633 0.62632 0.5426 0.0
C1920 C 0.1808 0.62389 0.53921 0.0
C1921 C 0.15986 0.62667 0.54818 0.0
C1922 C 0.21891 0.6403 0.60162 0.0
C1923 C 0.19873 0.63495 0.56952 0.0
C1924 C 0.23679 0.64893 0.61197 0.0
C1925 C 0.25429 0.65841 0.60158 0.0
C1926 C 0.21881 0.64089 0.5808 0.0
C1927 C 0.25426 0.65746 0.58077 0.0
C1928 C 0.20027 0.62826 0.54977 0.0
C1929 C 0.15906 0.63356 0.56791 0.0
N1930 N 0.23666 0.64898 0.57101 0.0
N1931 N 0.17825 0.63738 0.57797 0.0
H1932 H 0.80942 0.52069 0.67388 0.0
H1933 H 0.90455 0.50043 0.59692 0.0
H1934 H 0.84588 0.57045 0.64618 0.0
H1935 H 0.8532 0.45538 0.60894 0.0
H1936 H 0.88121 0.5271 0.61203 0.0
H1937 H 0.82272 0.49721 0.64803 0.0
C1938 C 0.81992 0.52675 0.66216 0.0
C1939 C 0.82681 0.54748 0.66233 0.0
C1940 C 0.87479 0.51149 0.61096 0.0
C1941 C 0.84239 0.52063 0.63287 0.0
C1942 C 0.88811 0.49625 0.60231 0.0
C1943 C 0.8809 0.47562 0.60189 0.0
C1944 C 0.85433 0.50596 0.61966 0.0
C1945 C 0.85944 0.47108 0.60903 0.0
C1946 C 0.82747 0.51335 0.64736 0.0
C1947 C 0.84028 0.55455 0.64669 0.0
N1948 N 0.84711 0.48604 0.61804 0.0
N1949 N 0.84801 0.54105 0.63281 0.0
H1950 H 0.18297 0.96239 0.67093 0.0
H1951 H 0.08384 0.98265 0.59893 0.0
H1952 H 0.14116 0.91275 0.64974 0.0
H1953 H 0.14054 0.02364 0.60199 0.0
H1954 H 0.1061 0.95557 0.61466 0.0
H1955 H 0.16969 0.98409 0.64369 0.0
C1956 C 0.17128 0.95594 0.66034 0.0
C1957 C 0.16293 0.93584 0.66274 0.0
C1958 C 0.11387 0.97031 0.61144 0.0
C1959 C 0.14738 0.96068 0.63174 0.0
C1960 C 0.10117 0.98576 0.60242 0.0
C1961 C 0.11028 0.00549 0.59938 0.0
C1962 C 0.13564 0.9748 0.61789 0.0
C1963 C 0.13283 0.00868 0.60415 0.0
C1964 C 0.16375 0.96831 0.64474 0.0
C1965 C 0.14793 0.92822 0.6485 0.0
N1966 N 0.14458 0.99366 0.61363 0.0
N1967 N 0.14026 0.94079 0.63384 0.0
H1968 H 0.63133 0.75714 0.82498 0.0
H1969 H 0.61256 0.8227 0.9235 0.0
H1970 H 0.64082 0.73177 0.8836 0.0
H1971 H 0.61403 0.84924 0.86471 0.0
H1972 H 0.62559 0.7899 0.90962 0.0
H1973 H 0.62762 0.79149 0.83951 0.0
C1974 C 0.63286 0.75883 0.84093 0.0
C1975 C 0.63619 0.74155 0.85313 0.0
C1976 C 0.62332 0.80298 0.89981 0.0
C1977 C 0.6317 0.78088 0.86993 0.0
C1978 C 0.61588 0.82174 0.90772 0.0
C1979 C 0.61194 0.83873 0.89523 0.0
C1980 C 0.62667 0.80116 0.87924 0.0
C1981 C 0.61664 0.83655 0.87491 0.0
C1982 C 0.63076 0.77848 0.84922 0.0
C1983 C 0.63819 0.74469 0.87367 0.0
N1984 N 0.6235 0.81807 0.86755 0.0
N1985 N 0.63562 0.76395 0.88146 0.0
H1986 H 0.99433 0.11459 0.40506 0.0
H1987 H 0.05388 0.15751 0.30743 0.0
H1988 H 0.97032 0.1024 0.34579 0.0
H1989 H 0.08303 0.16137 0.36594 0.0
H1990 H 0.02317 0.13725 0.32118 0.0
H1991 H 0.02738 0.13107 0.39097 0.0
C1992 C 0.99614 0.11516 0.38907 0.0
C1993 C 0.97949 0.10721 0.37657 0.0
C1994 C 0.03632 0.14247 0.331 0.0
C1995 C 0.01714 0.12634 0.36034 0.0
C1996 C 0.05381 0.15415 0.32318 0.0
C1997 C 0.07104 0.16125 0.33556 0.0
C1998 C 0.03594 0.13795 0.35138 0.0
C1999 C 0.07011 0.15627 0.35583 0.0
C2000 C 0.015 0.12461 0.38103 0.0
C2001 C 0.98274 0.10834 0.35597 0.0
N2002 N 0.05281 0.14501 0.36311 0.0
N2003 N 0.00109 0.11793 0.34849 0.0
H2004 H 0.37685 0.66526 0.92675 0.0
H2005 H 0.3568 0.73061 0.8284 0.0
H2006 H 0.37453 0.63878 0.86793 0.0
H2007 H 0.35045 0.75667 0.88711 0.0
H2008 H 0.35982 0.69629 0.843 0.0
H2009 H 0.36364 0.69807 0.91311 0.0
C2010 C 0.37327 0.66623 0.91102 0.0
C2011 C 0.3771 0.64926 0.89844 0.0
C2012 C 0.35752 0.70944 0.85273 0.0
C2013 C 0.36216 0.68686 0.88272 0.0
C2014 C 0.35582 0.72908 0.84439 0.0
C2015 C 0.3536 0.74655 0.85658 0.0
C2016 C 0.3573 0.70721 0.87347 0.0
C2017 C 0.35223 0.74361 0.87719 0.0
C2018 C 0.36574 0.685 0.90325 0.0
C2019 C 0.37204 0.65145 0.8782 0.0
N2020 N 0.35441 0.72432 0.88501 0.0
N2021 N 0.36511 0.66995 0.87096 0.0
H2022 H 0.02943 0.39178 0.34503 0.0
H2023 H 0.91591 0.33139 0.36837 0.0
H2024 H 0.00659 0.37827 0.40442 0.0
H2025 H 0.94711 0.33262 0.31057 0.0
H2026 H 0.94675 0.35197 0.3815 0.0
H2027 H 0.99652 0.37424 0.33177 0.0
C2028 C 0.01734 0.38538 0.35529 0.0
C2029 C 0.02081 0.38638 0.37586 0.0
C2030 C 0.94684 0.3477 0.36595 0.0
C2031 C 0.98327 0.36613 0.36079 0.0
C2032 C 0.92927 0.33593 0.35844 0.0
C2033 C 0.92896 0.33019 0.33834 0.0
C2034 C 0.96416 0.35395 0.35325 0.0
C2035 C 0.94671 0.33657 0.32618 0.0
C2036 C -0.00135 0.37524 0.34771 0.0
C2037 C 0.00463 0.37776 0.38845 0.0
N2038 N 0.96356 0.34815 0.33382 0.0
N2039 N 0.9866 0.36792 0.38071 0.0
H2040 H 0.63912 0.23191 0.67226 0.0
H2041 H 0.62029 0.16715 0.57333 0.0
H2042 H 0.64585 0.25836 0.61377 0.0
H2043 H 0.62284 0.14011 0.63188 0.0
H2044 H 0.63321 0.19992 0.58731 0.0
H2045 H 0.63662 0.19763 0.6574 0.0
C2046 C 0.6403 0.23048 0.65627 0.0
C2047 C 0.64247 0.24804 0.64421 0.0
C2048 C 0.63123 0.18674 0.59704 0.0
C2049 C 0.63936 0.20876 0.62703 0.0
C2050 C 0.62387 0.16799 0.58907 0.0
C2051 C 0.62018 0.15088 0.60148 0.0
C2052 C 0.63476 0.18844 0.61759 0.0
C2053 C 0.62522 0.1529 0.62174 0.0
C2054 C 0.6389 0.21087 0.64778 0.0
C2055 C 0.6441 0.24523 0.6236 0.0
N2056 N 0.63198 0.17139 0.62918 0.0
N2057 N 0.6422 0.22597 0.61563 0.0
H2058 H 0.45202 0.15995 0.69214 0.0
H2059 H 0.50959 0.11649 0.59376 0.0
H2060 H 0.42071 0.16171 0.63442 0.0
H2061 H 0.53469 0.10439 0.65268 0.0
H2062 H 0.47682 0.13301 0.60837 0.0
H2063 H 0.48281 0.14012 0.67788 0.0
C2064 C 0.45164 0.15623 0.67646 0.0
C2065 C 0.43377 0.16257 0.66444 0.0
C2066 C 0.48938 0.12657 0.6181 0.0
C2067 C 0.46893 0.1398 0.64807 0.0
C2068 C 0.50808 0.1171 0.60979 0.0
C2069 C 0.52494 0.10914 0.62204 0.0
C2070 C 0.48764 0.1283 0.63883 0.0
C2071 C 0.52209 0.11033 0.64269 0.0
C2072 C 0.46918 0.1448 0.66837 0.0
C2073 C 0.43413 0.15718 0.64425 0.0
N2074 N 0.5039 0.11994 0.65043 0.0
N2075 N 0.45148 0.14618 0.6367 0.0
H2076 H 0.38745 0.32474 0.57363 0.0
H2077 H 0.36448 0.26275 0.67327 0.0
H2078 H 0.38061 0.35358 0.63114 0.0
H2079 H 0.35948 0.23464 0.61534 0.0
H2080 H 0.3674 0.29658 0.65764 0.0
H2081 H 0.37426 0.29219 0.58791 0.0
C2082 C 0.3829 0.32433 0.58919 0.0
C2083 C 0.38543 0.34189 0.60125 0.0
C2084 C 0.36539 0.28308 0.6483 0.0
C2085 C 0.37051 0.30463 0.6177 0.0
C2086 C 0.36375 0.26373 0.65723 0.0
C2087 C 0.36194 0.24584 0.64557 0.0
C2088 C 0.36559 0.2846 0.6275 0.0
C2089 C 0.36091 0.24805 0.62487 0.0
C2090 C 0.37537 0.30572 0.59732 0.0
C2091 C 0.37915 0.34042 0.62129 0.0
N2092 N 0.36308 0.26708 0.61646 0.0
N2093 N 0.37226 0.32208 0.62891 0.0
H2094 H 0.49438 0.37958 0.59344 0.0
H2095 H 0.5529 0.33455 0.69071 0.0
H2096 H 0.46893 0.38957 0.65264 0.0
H2097 H 0.58309 0.33303 0.6325 0.0
H2098 H 0.52188 0.35451 0.67707 0.0
H2099 H 0.52732 0.36302 0.60758 0.0
C2100 C 0.49586 0.37852 0.60945 0.0
C2101 C 0.47884 0.38588 0.62189 0.0
C2102 C 0.53531 0.34985 0.66731 0.0
C2103 C 0.51637 0.36662 0.63817 0.0
C2104 C 0.55298 0.33834 0.67505 0.0
C2105 C 0.57062 0.33203 0.66272 0.0
C2106 C 0.53519 0.35499 0.64705 0.0
C2107 C 0.56986 0.33751 0.64257 0.0
C2108 C 0.51466 0.369 0.6175 0.0
C2109 C 0.48166 0.38411 0.6425 0.0
N2110 N 0.55242 0.34862 0.63537 0.0
N2111 N 0.49997 0.37447 0.64999 0.0
H2112 H 0.94596 0.55041 0.82299 0.0
H2113 H 0.88644 0.62524 0.7456 0.0
H2114 H 0.91624 0.60869 0.83974 0.0
H2115 H 0.8816 0.55872 0.74251 0.0
H2116 H 0.90987 0.62191 0.77518 0.0
H2117 H 0.93443 0.55646 0.78867 0.0
C2118 C 0.93741 0.56468 0.8194 0.0
C2119 C 0.93178 0.57899 0.83428 0.0
C2120 C 0.90406 0.60809 0.76771 0.0
C2121 C 0.91891 0.58599 0.79508 0.0
C2122 C 0.89085 0.60992 0.75077 0.0
C2123 C 0.88187 0.59219 0.74175 0.0
C2124 C 0.90863 0.58842 0.77537 0.0
C2125 C 0.88801 0.57276 0.74916 0.0
C2126 C 0.93082 0.56804 0.79984 0.0
C2127 C 0.92066 0.59718 0.82875 0.0
N2128 N 0.90092 0.57137 0.76567 0.0
N2129 N 0.91448 0.60013 0.80955 0.0
H2130 H 0.90409 0.81495 0.50895 0.0
H2131 H 0.86848 0.80922 0.39532 0.0
H2132 H 0.90294 0.86695 0.46886 0.0
H2133 H 0.84388 0.76815 0.44082 0.0
H2134 H 0.89484 0.82377 0.41923 0.0
H2135 H 0.8957 0.79196 0.48104 0.0
C2136 C 0.90272 0.82147 0.4942 0.0
C2137 C 0.90376 0.84292 0.49124 0.0
C2138 C 0.88408 0.81118 0.42379 0.0
C2139 C 0.89432 0.81675 0.45939 0.0
C2140 C 0.8691 0.80277 0.41015 0.0
C2141 C 0.85358 0.7878 0.41626 0.0
C2142 C 0.88363 0.80442 0.44356 0.0
C2143 C 0.85526 0.77997 0.43562 0.0
C2144 C 0.89787 0.80834 0.47832 0.0
C2145 C 0.90189 0.85053 0.47182 0.0
N2146 N 0.86975 0.78862 0.44871 0.0
N2147 N 0.89697 0.83747 0.45665 0.0
H2148 H 0.10271 0.8685 0.75316 0.0
H2149 H 0.05245 0.9519 0.82788 0.0
H2150 H 0.11248 0.93418 0.74587 0.0
H2151 H 0.07702 0.89231 0.84669 0.0
H2152 H 0.06259 0.94332 0.79366 0.0
H2153 H 0.08083 0.87532 0.78314 0.0
C2154 C 0.09971 0.88438 0.75751 0.0
C2155 C 0.10965 0.90083 0.74717 0.0
C2156 C 0.06541 0.93205 0.80527 0.0
C2157 C 0.08468 0.90859 0.7813 0.0
C2158 C 0.0596 0.93686 0.82477 0.0
C2159 C 0.06415 0.92285 0.84016 0.0
C2160 C 0.07541 0.91296 0.80112 0.0
C2161 C 0.07348 0.90363 0.83529 0.0
C2162 C 0.08739 0.8882 0.77469 0.0
C2163 C 0.1053 0.92108 0.75356 0.0
N2164 N 0.07889 0.89925 0.81615 0.0
N2165 N 0.09325 0.9244 0.77034 0.0
H2166 H 0.08443 0.69087 0.5047 0.0
H2167 H 0.12417 0.70517 0.39298 0.0
H2168 H 0.08726 0.64219 0.46094 0.0
H2169 H 0.14567 0.74371 0.44169 0.0
H2170 H 0.09696 0.68879 0.41491 0.0
H2171 H 0.09335 0.71606 0.47877 0.0
C2172 C 0.08631 0.68554 0.48955 0.0
C2173 C 0.08558 0.66436 0.485 0.0
C2174 C 0.10724 0.70122 0.42062 0.0
C2175 C 0.09563 0.69306 0.4554 0.0
C2176 C 0.12272 0.71067 0.40811 0.0
C2177 C 0.13766 0.72542 0.41569 0.0
C2178 C 0.10664 0.70668 0.44077 0.0
C2179 C 0.1348 0.73209 0.43535 0.0
C2180 C 0.09145 0.69992 0.4748 0.0
C2181 C 0.08807 0.65833 0.46513 0.0
N2182 N 0.11989 0.72237 0.44735 0.0
N2183 N 0.09328 0.67259 0.45108 0.0
H2184 H 0.87989 0.44255 0.75242 0.0
H2185 H 0.91747 0.39115 0.65412 0.0
H2186 H 0.88738 0.3763 0.74881 0.0
H2187 H 0.94531 0.44984 0.67201 0.0
H2188 H 0.9055 0.38526 0.68846 0.0
H2189 H 0.90355 0.44611 0.72296 0.0
C2190 C 0.88692 0.4288 0.74569 0.0
C2191 C 0.88158 0.40911 0.75296 0.0
C2192 C 0.9146 0.39924 0.68488 0.0
C2193 C 0.90799 0.41302 0.71908 0.0
C2194 C 0.92132 0.40264 0.66531 0.0
C2195 C 0.93225 0.42106 0.66021 0.0
C2196 C 0.91832 0.41459 0.69925 0.0
C2197 C 0.93691 0.43542 0.6753 0.0
C2198 C 0.9004 0.43083 0.72891 0.0
C2199 C 0.8911 0.39177 0.74369 0.0
N2200 N 0.92952 0.43208 0.69408 0.0
N2201 N 0.90343 0.3941 0.72691 0.0
H2202 H 0.58577 0.80742 0.48907 0.0
H2203 H 0.62357 0.79796 0.60178 0.0
H2204 H 0.58689 0.85785 0.53104 0.0
H2205 H 0.64728 0.75863 0.55448 0.0
H2206 H 0.59632 0.81297 0.57896 0.0
H2207 H 0.59454 0.78343 0.51604 0.0
C2208 C 0.58724 0.81339 0.50404 0.0
C2209 C 0.58611 0.83471 0.50779 0.0
C2210 C 0.60708 0.80064 0.57377 0.0
C2211 C 0.59598 0.80738 0.53858 0.0
C2212 C 0.62257 0.79197 0.58679 0.0
C2213 C 0.6381 0.77741 0.57983 0.0
C2214 C 0.60706 0.79455 0.55378 0.0
C2215 C 0.63591 0.77014 0.56031 0.0
C2216 C 0.59229 0.79968 0.51939 0.0
C2217 C 0.58805 0.84156 0.52747 0.0
N2218 N 0.62095 0.77906 0.54783 0.0
N2219 N 0.5932 0.82796 0.54211 0.0
H2220 H 0.1116 0.06837 0.64906 0.0
H2221 H 0.10415 0.10117 0.76099 0.0
H2222 H 0.04642 0.07667 0.67531 0.0
H2223 H 0.15144 0.05589 0.73966 0.0
H2224 H 0.0834 0.09774 0.72966 0.0
H2225 H 0.12826 0.07096 0.68197 0.0
C2226 C 0.1008 0.07111 0.6617 0.0
C2227 C 0.07757 0.07227 0.65946 0.0
C2228 C 0.09814 0.08839 0.7321 0.0
C2229 C 0.09659 0.07511 0.69712 0.0
C2230 C 0.10993 0.09026 0.74993 0.0
C2231 C 0.12967 0.07892 0.75289 0.0
C2232 C 0.10654 0.07552 0.7171 0.0
C2233 C 0.1364 0.06501 0.73805 0.0
C2234 C 0.11032 0.07232 0.68048 0.0
C2235 C 0.06441 0.07563 0.67644 0.0
N2236 N 0.1251 0.064 0.72066 0.0
N2237 N 0.07413 0.07701 0.69465 0.0
H2238 H 0.40271 0.62661 0.5389 0.0
H2239 H 0.34446 0.72907 0.56279 0.0
H2240 H 0.4079 0.67912 0.49969 0.0
H2241 H 0.36485 0.68716 0.60918 0.0
H2242 H 0.37247 0.71381 0.5409 0.0
H2243 H 0.39416 0.65005 0.56629 0.0
C2244 C 0.40263 0.64311 0.53617 0.0
C2245 C 0.40552 0.6509 0.51692 0.0
C2246 C 0.37127 0.70833 0.55605 0.0
C2247 C 0.39524 0.67776 0.54804 0.0
C2248 C 0.35526 0.71705 0.56855 0.0
C2249 C 0.35197 0.70903 0.58765 0.0
C2250 C 0.38362 0.69115 0.56258 0.0
C2251 C 0.36658 0.6936 0.59443 0.0
C2252 C 0.39778 0.65652 0.55182 0.0
C2253 C 0.40546 0.67243 0.51425 0.0
N2254 N 0.38135 0.68474 0.58171 0.0
N2255 N 0.39975 0.68509 0.52952 0.0
H2256 H 0.84369 0.8636 0.58231 0.0
H2257 H 0.72106 0.82624 0.56881 0.0
H2258 H 0.80585 0.88314 0.53115 0.0
H2259 H 0.74743 0.84041 0.62684 0.0
H2260 H 0.7518 0.84574 0.55381 0.0
H2261 H 0.80898 0.85256 0.59825 0.0
C2262 C 0.82807 0.86551 0.57443 0.0
C2263 C 0.82759 0.87414 0.55536 0.0
C2264 C 0.75054 0.84494 0.56983 0.0
C2265 C 0.78798 0.86155 0.57343 0.0
C2266 C 0.73304 0.83387 0.57839 0.0
C2267 C 0.73183 0.83164 0.59907 0.0
C2268 C 0.7672 0.85328 0.58207 0.0
C2269 C 0.74774 0.84178 0.61083 0.0
C2270 C 0.80829 0.85943 0.5836 0.0
C2271 C 0.80688 0.87651 0.54587 0.0
N2272 N 0.76511 0.85179 0.60214 0.0
N2273 N 0.78787 0.86996 0.55491 0.0
H2274 H 0.85932 0.14297 0.9251 0.0
H2275 H 0.7324 0.17064 0.9306 0.0
H2276 H 0.81929 0.12201 0.97443 0.0
H2277 H 0.76478 0.15829 0.87461 0.0
H2278 H 0.76392 0.15453 0.94783 0.0
H2279 H 0.82512 0.1516 0.90707 0.0
C2280 C 0.84333 0.14029 0.93216 0.0
C2281 C 0.84209 0.13189 0.95131 0.0
C2282 C 0.76387 0.15498 0.93176 0.0
C2283 C 0.80305 0.14169 0.93082 0.0
C2284 C 0.74592 0.16411 0.92194 0.0
C2285 C 0.74608 0.16583 0.90118 0.0
C2286 C 0.7823 0.1481 0.92075 0.0
C2287 C 0.76399 0.15719 0.89063 0.0
C2288 C 0.82386 0.14499 0.92179 0.0
C2289 C 0.82094 0.12849 0.95969 0.0
N2290 N 0.78166 0.14908 0.90057 0.0
N2291 N 0.8022 0.13365 0.94947 0.0
H2292 H 0.34206 0.92906 0.3516 0.0
H2293 H 0.35084 0.045 0.39177 0.0
H2294 H 0.30324 0.97992 0.32864 0.0
H2295 H 0.40219 0.99887 0.39918 0.0
H2296 H 0.32665 0.01868 0.37689 0.0
H2297 H 0.35728 0.95203 0.37705 0.0
C2298 C 0.33638 0.94494 0.35214 0.0
C2299 C 0.32163 0.95267 0.33775 0.0
C2300 C 0.34305 0.01427 0.38215 0.0
C2301 C 0.33902 0.979 0.36684 0.0
C2302 C 0.35681 0.02923 0.39078 0.0
C2303 C 0.37867 0.02416 0.39646 0.0
C2304 C 0.35117 0.9941 0.37939 0.0
C2305 C 0.38554 0.00349 0.39477 0.0
C2306 C 0.34514 0.95805 0.36664 0.0
C2307 C 0.3148 0.97338 0.33927 0.0
N2308 N 0.37193 0.98926 0.38619 0.0
N2309 N 0.32374 0.98589 0.35341 0.0
H2310 H 0.26782 0.33091 0.9252 0.0
H2311 H 0.14176 0.36084 0.91836 0.0
H2312 H 0.23599 0.34176 0.86871 0.0
H2313 H 0.18198 0.3827 0.96721 0.0
H2314 H 0.17587 0.35119 0.90064 0.0
H2315 H 0.23677 0.34855 0.94174 0.0
C2316 C 0.25454 0.33744 0.91626 0.0
C2317 C 0.25436 0.33482 0.89559 0.0
C2318 C 0.17719 0.35824 0.91518 0.0
C2319 C 0.21866 0.3543 0.91439 0.0
C2320 C 0.15777 0.36352 0.92538 0.0
C2321 C 0.1591 0.37244 0.94431 0.0
C2322 C 0.19802 0.36147 0.92417 0.0
C2323 C 0.18027 0.37582 0.95263 0.0
C2324 C 0.23685 0.34744 0.9257 0.0
C2325 C 0.23678 0.34351 0.88468 0.0
N2326 N 0.19895 0.37008 0.9426 0.0
N2327 N 0.21933 0.35248 0.89426 0.0
H2328 H 0.14671 0.95531 0.89375 0.0
H2329 H 0.15642 0.07116 0.85385 0.0
H2330 H 0.09614 0.00206 0.90186 0.0
H2331 H 0.19547 0.02013 0.83148 0.0
H2332 H 0.14116 0.04845 0.87948 0.0
H2333 H 0.17134 0.98148 0.87925 0.0
C2334 C 0.14101 0.97118 0.89299 0.0
C2335 C 0.11922 0.97647 0.89872 0.0
C2336 C 0.15336 0.04233 0.86916 0.0
C2337 C 0.14721 0.00637 0.88206 0.0
C2338 C 0.16215 0.0553 0.85456 0.0
C2339 C 0.17695 0.04743 0.84027 0.0
C2340 C 0.1595 0.02139 0.86954 0.0
C2341 C 0.18385 0.02677 0.84201 0.0
C2342 C 0.15502 0.98607 0.88459 0.0
C2343 C 0.1127 0.99726 0.89737 0.0
N2344 N 0.17486 0.01439 0.85622 0.0
N2345 N 0.12653 0.01141 0.88895 0.0
H2346 H 0.65771 0.156 0.03906 0.0
H2347 H 0.75933 0.14898 0.1118 0.0
H2348 H 0.68577 0.09631 0.05304 0.0
H2349 H 0.75314 0.19824 0.06887 0.0
H2350 H 0.73077 0.12942 0.09353 0.0
H2351 H 0.69057 0.17252 0.05361 0.0
C2352 C 0.67081 0.1464 0.0452 0.0
C2353 C 0.66911 0.12481 0.04489 0.0
C2354 C 0.73601 0.14439 0.08805 0.0
C2355 C 0.70646 0.14354 0.0617 0.0
C2356 C 0.75223 0.15555 0.09843 0.0
C2357 C 0.75848 0.17535 0.09196 0.0
C2358 C 0.72575 0.15337 0.07143 0.0
C2359 C 0.74879 0.1831 0.0745 0.0
C2360 C 0.68958 0.1558 0.05336 0.0
C2361 C 0.68658 0.11303 0.05294 0.0
N2362 N 0.73264 0.17224 0.06505 0.0
N2363 N 0.70449 0.12257 0.0613 0.0
H2364 H 0.41107 0.01258 0.09562 0.0
H2365 H 0.31413 0.03078 0.17051 0.0
H2366 H 0.35606 0.96989 0.10088 0.0
H2367 H 0.35305 0.08142 0.14728 0.0
H2368 H 0.32722 0.00906 0.14317 0.0
H2369 H 0.38842 0.03917 0.11172 0.0
C2370 C 0.394 0.00898 0.09966 0.0
C2371 C 0.38552 0.98894 0.09714 0.0
C2372 C 0.33255 0.02504 0.14382 0.0
C2373 C 0.35976 0.01907 0.1161 0.0
C2374 C 0.32515 0.03742 0.15947 0.0
C2375 C 0.33275 0.05784 0.16131 0.0
C2376 C 0.34807 0.033 0.13016 0.0
C2377 C 0.34688 0.06571 0.14649 0.0
C2378 C 0.38108 0.02416 0.10891 0.0
C2379 C 0.36329 0.98512 0.10262 0.0
N2380 N 0.35446 0.05315 0.13177 0.0
N2381 N 0.35136 -0.00011 0.11231 0.0
H2382 H 0.69823 0.48094 0.1701 0.0
H2383 H 0.59663 0.49712 0.09811 0.0
H2384 H 0.65816 0.43052 0.14792 0.0
H2385 H 0.64668 0.54401 0.10774 0.0
H2386 H 0.62158 0.4715 0.11273 0.0
H2387 H 0.68266 0.5033 0.14436 0.0
C2388 C 0.68647 0.47446 0.15959 0.0
C2389 C 0.67922 0.45392 0.16137 0.0
C2390 C 0.62735 0.48729 0.11128 0.0
C2391 C 0.66108 0.4795 0.13205 0.0
C2392 C 0.61309 0.50193 0.1029 0.0
C2393 C 0.61949 0.52277 0.10194 0.0
C2394 C 0.64796 0.49361 0.11916 0.0
C2395 C 0.64105 0.52812 0.10827 0.0
C2396 C 0.67759 0.48724 0.14487 0.0
C2397 C 0.66406 0.44632 0.14725 0.0
N2398 N 0.65434 0.51372 0.11702 0.0
N2399 N 0.65519 0.45921 0.13342 0.0
loop_
_geom_bond_atom_site_label_1
_geom_bond_atom_site_label_2
_geom_bond_distance
_geom_bond_site_symmetry_2
_ccdc_geom_bond_type
O0 Cd1 2.223 . S
O0 C8 1.315 . S
Cd1 O0 2.223 . S
Cd1 O4 2.297 . S
Cd1 O5 2.439 . S
Cd1 O11 2.240 . S
Cd2 O3 2.240 . S
Cd2 O10 2.223 . S
Cd2 O12 2.297 . S
Cd2 O13 2.439 . S
O3 Cd2 2.240 . S
O3 C8 1.279 . S
O4 Cd1 2.297 . S
O4 C6 1.247 . S
O5 Cd1 2.439 . S
O5 C6 1.208 . S
C6 O4 1.247 . S
C6 O5 1.208 . S
C7 O12 1.247 . S
C7 O13 1.208 . S
C8 O0 1.315 . S
C8 O3 1.279 . S
C9 O10 1.315 . S
C9 O11 1.279 . S
O10 Cd2 2.223 . S
O10 C9 1.315 . S
O11 Cd1 2.240 . S
O11 C9 1.279 . S
O12 Cd2 2.297 . S
O12 C7 1.247 . S
O13 Cd2 2.439 . S
O13 C7 1.208 . S
O14 Cd15 2.223 . S
O14 C22 1.315 . S
Cd15 O14 2.223 . S
Cd15 O18 2.297 . S
Cd15 O19 2.439 . S
Cd15 O25 2.240 . S
Cd16 O17 2.240 . S
Cd16 O24 2.223 . S
Cd16 O26 2.297 . S
Cd16 O27 2.439 . S
O17 Cd16 2.240 . S
O17 C22 1.279 . S
O18 Cd15 2.297 . S
O18 C20 1.247 . S
O19 Cd15 2.439 . S
O19 C20 1.208 . S
C20 O18 1.247 . S
C20 O19 1.208 . S
C21 O26 1.247 . S
C21 O27 1.208 . S
C22 O14 1.315 . S
C22 O17 1.279 . S
C23 O24 1.315 . S
C23 O25 1.279 . S
O24 Cd16 2.223 . S
O24 C23 1.315 . S
O25 Cd15 2.240 . S
O25 C23 1.279 . S
O26 Cd16 2.297 . S
O26 C21 1.247 . S
O27 Cd16 2.439 . S
O27 C21 1.208 . S
O28 Cd29 2.223 . S
O28 C36 1.315 . S
Cd29 O28 2.223 . S
Cd29 O32 2.297 . S
Cd29 O33 2.439 . S
Cd29 O39 2.240 . S
Cd30 O31 2.240 . S
Cd30 O38 2.223 . S
Cd30 O40 2.297 . S
Cd30 O41 2.439 . S
O31 Cd30 2.240 . S
O31 C36 1.279 . S
O32 Cd29 2.297 . S
O32 C34 1.247 . S
O33 Cd29 2.439 . S
O33 C34 1.208 . S
C34 O32 1.247 . S
C34 O33 1.208 . S
C35 O40 1.247 . S
C35 O41 1.208 . S
C36 O28 1.315 . S
C36 O31 1.279 . S
C37 O38 1.315 . S
C37 O39 1.279 . S
O38 Cd30 2.223 . S
O38 C37 1.315 . S
O39 Cd29 2.240 . S
O39 C37 1.279 . S
O40 Cd30 2.297 . S
O40 C35 1.247 . S
O41 Cd30 2.439 . S
O41 C35 1.208 . S
O42 Cd43 2.223 . S
O42 C50 1.315 . S
Cd43 O42 2.223 . S
Cd43 O46 2.297 . S
Cd43 O47 2.439 . S
Cd43 O53 2.240 . S
Cd44 O45 2.240 . S
Cd44 O52 2.223 . S
Cd44 O54 2.297 . S
Cd44 O55 2.439 . S
O45 Cd44 2.240 . S
O45 C50 1.279 . S
O46 Cd43 2.297 . S
O46 C48 1.247 . S
O47 Cd43 2.439 . S
O47 C48 1.208 . S
C48 O46 1.247 . S
C48 O47 1.208 . S
C49 O54 1.247 . S
C49 O55 1.208 . S
C50 O42 1.315 . S
C50 O45 1.279 . S
C51 O52 1.315 . S
C51 O53 1.279 . S
O52 Cd44 2.223 . S
O52 C51 1.315 . S
O53 Cd43 2.240 . S
O53 C51 1.279 . S
O54 Cd44 2.297 . S
O54 C49 1.247 . S
O55 Cd44 2.439 . S
O55 C49 1.208 . S
O56 Cd57 2.223 . S
O56 C64 1.315 . S
Cd57 O56 2.223 . S
Cd57 O60 2.297 . S
Cd57 O61 2.439 . S
Cd57 O67 2.240 . S
Cd58 O59 2.240 . S
Cd58 O66 2.223 . S
Cd58 O68 2.297 . S
Cd58 O69 2.439 . S
O59 Cd58 2.240 . S
O59 C64 1.279 . S
O60 Cd57 2.297 . S
O60 C62 1.247 . S
O61 Cd57 2.439 . S
O61 C62 1.208 . S
C62 O60 1.247 . S
C62 O61 1.208 . S
C63 O68 1.247 . S
C63 O69 1.208 . S
C64 O56 1.315 . S
C64 O59 1.279 . S
C65 O66 1.315 . S
C65 O67 1.279 . S
O66 Cd58 2.223 . S
O66 C65 1.315 . S
O67 Cd57 2.240 . S
O67 C65 1.279 . S
O68 Cd58 2.297 . S
O68 C63 1.247 . S
O69 Cd58 2.439 . S
O69 C63 1.208 . S
O70 Cd71 2.223 1_455 S
O70 C78 1.315 . S
Cd71 O70 2.223 1_655 S
Cd71 O74 2.297 . S
Cd71 O75 2.439 . S
Cd71 O81 2.240 1_655 S
Cd72 O73 2.240 . S
Cd72 O80 2.223 . S
Cd72 O82 2.281 1_455 S
Cd72 O83 2.439 1_455 S
O73 Cd72 2.240 . S
O73 C78 1.279 . S
O74 Cd71 2.297 . S
O74 C76 1.247 . S
O75 Cd71 2.439 . S
O75 C76 1.208 . S
C76 O74 1.247 . S
C76 O75 1.208 . S
C77 O82 1.286 . S
C77 O83 1.208 . S
C78 O70 1.315 . S
C78 O73 1.279 . S
C79 O80 1.315 . S
C79 O81 1.279 . S
O80 Cd72 2.223 . S
O80 C79 1.315 . S
O81 Cd71 2.240 1_455 S
O81 C79 1.279 . S
O82 Cd72 2.281 1_655 S
O82 C77 1.286 . S
O83 Cd72 2.439 1_655 S
O83 C77 1.208 . S
O84 Cd85 2.223 . S
O84 C92 1.315 . S
Cd85 O84 2.223 . S
Cd85 O88 2.297 . S
Cd85 O89 2.439 . S
Cd85 O95 2.240 . S
Cd86 O87 2.240 . S
Cd86 O94 2.223 . S
Cd86 O96 2.297 . S
Cd86 O97 2.439 . S
O87 Cd86 2.240 . S
O87 C92 1.279 . S
O88 Cd85 2.297 . S
O88 C90 1.247 . S
O89 Cd85 2.439 . S
O89 C90 1.208 . S
C90 O88 1.247 . S
C90 O89 1.208 . S
C91 O96 1.247 . S
C91 O97 1.208 . S
C92 O84 1.315 . S
C92 O87 1.279 . S
C93 O94 1.315 . S
C93 O95 1.279 . S
O94 Cd86 2.223 . S
O94 C93 1.315 . S
O95 Cd85 2.240 . S
O95 C93 1.279 . S
O96 Cd86 2.297 . S
O96 C91 1.247 . S
O97 Cd86 2.439 . S
O97 C91 1.208 . S
O98 Cd99 2.223 1_655 S
O98 C106 1.315 . S
Cd99 O98 2.223 1_455 S
Cd99 O102 2.297 . S
Cd99 O103 2.439 . S
Cd99 O109 2.240 1_455 S
Cd100 O101 2.240 . S
Cd100 O108 2.223 . S
Cd100 O110 2.280 1_655 S
Cd100 O111 2.439 1_655 S
O101 Cd100 2.240 . S
O101 C106 1.279 . S
O102 Cd99 2.297 . S
O102 C104 1.247 . S
O103 Cd99 2.439 . S
O103 C104 1.208 . S
C104 O102 1.247 . S
C104 O103 1.208 . S
C105 O110 1.289 . S
C105 O111 1.208 . S
C106 O98 1.315 . S
C106 O101 1.279 . S
C107 O108 1.315 . S
C107 O109 1.279 . S
O108 Cd100 2.223 . S
O108 C107 1.315 . S
O109 Cd99 2.240 1_655 S
O109 C107 1.279 . S
O110 Cd100 2.280 1_455 S
O110 C105 1.289 . S
O111 Cd100 2.439 1_455 S
O111 C105 1.208 . S
O112 Cd113 2.223 . S
O112 C120 1.315 . S
Cd113 O112 2.223 . S
Cd113 O116 2.297 . S
Cd113 O117 2.439 . S
Cd113 O123 2.240 . S
Cd114 O115 2.240 . S
Cd114 O122 2.223 . S
Cd114 O124 2.297 . S
Cd114 O125 2.439 . S
O115 Cd114 2.240 . S
O115 C120 1.279 . S
O116 Cd113 2.297 . S
O116 C118 1.247 . S
O117 Cd113 2.439 . S
O117 C118 1.208 . S
C118 O116 1.247 . S
C118 O117 1.208 . S
C119 O124 1.247 . S
C119 O125 1.208 . S
C120 O112 1.315 . S
C120 O115 1.279 . S
C121 O122 1.315 . S
C121 O123 1.279 . S
O122 Cd114 2.223 . S
O122 C121 1.315 . S
O123 Cd113 2.240 . S
O123 C121 1.279 . S
O124 Cd114 2.297 . S
O124 C119 1.247 . S
O125 Cd114 2.439 . S
O125 C119 1.208 . S
O126 Cd127 2.223 1_554 S
O126 C134 1.315 . S
Cd127 O126 2.223 1_556 S
Cd127 O130 2.297 . S
Cd127 O131 2.439 . S
Cd127 O137 2.240 1_556 S
Cd128 O129 2.240 . S
Cd128 O136 2.223 . S
Cd128 O138 2.309 . S
Cd128 O139 2.439 1_554 S
O129 Cd128 2.240 . S
O129 C134 1.279 . S
O130 Cd127 2.297 . S
O130 C132 1.247 . S
O131 Cd127 2.439 . S
O131 C132 1.208 . S
C132 O130 1.247 . S
C132 O131 1.208 . S
C133 O138 1.217 1_556 S
C133 O139 1.208 . S
C134 O126 1.315 . S
C134 O129 1.279 . S
C135 O136 1.315 . S
C135 O137 1.279 . S
O136 Cd128 2.223 . S
O136 C135 1.315 . S
O137 Cd127 2.240 1_554 S
O137 C135 1.279 . S
O138 Cd128 2.309 . S
O138 C133 1.217 1_554 S
O139 Cd128 2.439 1_556 S
O139 C133 1.208 . S
O140 Cd141 2.223 . S
O140 C148 1.315 . S
Cd141 O140 2.223 . S
Cd141 O144 2.297 . S
Cd141 O145 2.439 . S
Cd141 O151 2.240 . S
Cd142 O143 2.240 . S
Cd142 O150 2.223 . S
Cd142 O152 2.297 . S
Cd142 O153 2.439 . S
O143 Cd142 2.240 . S
O143 C148 1.279 . S
O144 Cd141 2.297 . S
O144 C146 1.247 . S
O145 Cd141 2.439 . S
O145 C146 1.208 . S
C146 O144 1.247 . S
C146 O145 1.208 . S
C147 O152 1.247 . S
C147 O153 1.208 . S
C148 O140 1.315 . S
C148 O143 1.279 . S
C149 O150 1.315 . S
C149 O151 1.279 . S
O150 Cd142 2.223 . S
O150 C149 1.315 . S
O151 Cd141 2.240 . S
O151 C149 1.279 . S
O152 Cd142 2.297 . S
O152 C147 1.247 . S
O153 Cd142 2.439 . S
O153 C147 1.208 . S
O154 Cd155 2.223 1_554 S
O154 C162 1.315 . S
Cd155 O154 2.223 1_556 S
Cd155 O158 2.297 . S
Cd155 O159 2.439 . S
Cd155 O165 2.240 1_556 S
Cd156 O157 2.240 . S
Cd156 O164 2.223 . S
Cd156 O166 2.308 . S
Cd156 O167 2.439 1_554 S
O157 Cd156 2.240 . S
O157 C162 1.279 . S
O158 Cd155 2.297 . S
O158 C160 1.247 . S
O159 Cd155 2.439 . S
O159 C160 1.208 . S
C160 O158 1.247 . S
C160 O159 1.208 . S
C161 O166 1.221 1_556 S
C161 O167 1.208 . S
C162 O154 1.315 . S
C162 O157 1.279 . S
C163 O164 1.315 . S
C163 O165 1.279 . S
O164 Cd156 2.223 . S
O164 C163 1.315 . S
O165 Cd155 2.240 1_554 S
O165 C163 1.279 . S
O166 Cd156 2.308 . S
O166 C161 1.221 1_554 S
O167 Cd156 2.439 1_556 S
O167 C161 1.208 . S
O168 Cd169 2.223 . S
O168 C176 1.315 . S
Cd169 O168 2.223 . S
Cd169 O172 2.297 . S
Cd169 O173 2.439 . S
Cd169 O179 2.240 . S
Cd170 O171 2.240 . S
Cd170 O178 2.223 . S
Cd170 O180 2.297 . S
Cd170 O181 2.439 . S
O171 Cd170 2.240 . S
O171 C176 1.279 . S
O172 Cd169 2.297 . S
O172 C174 1.247 . S
O173 Cd169 2.439 . S
O173 C174 1.208 . S
C174 O172 1.247 . S
C174 O173 1.208 . S
C175 O180 1.247 . S
C175 O181 1.208 . S
C176 O168 1.315 . S
C176 O171 1.279 . S
C177 O178 1.315 . S
C177 O179 1.279 . S
O178 Cd170 2.223 . S
O178 C177 1.315 . S
O179 Cd169 2.240 . S
O179 C177 1.279 . S
O180 Cd170 2.297 . S
O180 C175 1.247 . S
O181 Cd170 2.439 . S
O181 C175 1.208 . S
O182 Cd183 2.223 1_556 S
O182 C190 1.315 . S
Cd183 O182 2.223 1_554 S
Cd183 O186 2.297 . S
Cd183 O187 2.439 . S
Cd183 O193 2.240 1_554 S
Cd184 O185 2.240 . S
Cd184 O192 2.223 . S
Cd184 O194 2.297 . S
Cd184 O195 2.439 1_556 S
O185 Cd184 2.240 . S
O185 C190 1.279 . S
O186 Cd183 2.297 . S
O186 C188 1.247 . S
O187 Cd183 2.439 . S
O187 C188 1.208 . S
C188 O186 1.247 . S
C188 O187 1.208 . S
C189 O194 1.247 1_554 S
C189 O195 1.208 . S
C190 O182 1.315 . S
C190 O185 1.279 . S
C191 O192 1.315 . S
C191 O193 1.279 . S
O192 Cd184 2.223 . S
O192 C191 1.315 . S
O193 Cd183 2.240 1_556 S
O193 C191 1.279 . S
O194 Cd184 2.297 . S
O194 C189 1.247 1_556 S
O195 Cd184 2.439 1_554 S
O195 C189 1.208 . S
O196 Cd197 2.223 . S
O196 C204 1.315 . S
Cd197 O196 2.223 . S
Cd197 O200 2.297 . S
Cd197 O201 2.439 . S
Cd197 O207 2.240 . S
Cd198 O199 2.240 . S
Cd198 O206 2.223 . S
Cd198 O208 2.297 . S
Cd198 O209 2.439 . S
O199 Cd198 2.240 . S
O199 C204 1.279 . S
O200 Cd197 2.297 . S
O200 C202 1.247 . S
O201 Cd197 2.439 . S
O201 C202 1.208 . S
C202 O200 1.247 . S
C202 O201 1.208 . S
C203 O208 1.247 . S
C203 O209 1.208 . S
C204 O196 1.315 . S
C204 O199 1.279 . S
C205 O206 1.315 . S
C205 O207 1.279 . S
O206 Cd198 2.223 . S
O206 C205 1.315 . S
O207 Cd197 2.240 . S
O207 C205 1.279 . S
O208 Cd198 2.297 . S
O208 C203 1.247 . S
O209 Cd198 2.439 . S
O209 C203 1.208 . S
O210 Cd211 2.223 1_556 S
O210 C218 1.315 . S
Cd211 O210 2.223 1_554 S
Cd211 O214 2.297 . S
Cd211 O215 2.439 . S
Cd211 O221 2.240 1_554 S
Cd212 O213 2.240 . S
Cd212 O220 2.223 . S
Cd212 O222 2.297 . S
Cd212 O223 2.439 1_556 S
O213 Cd212 2.240 . S
O213 C218 1.279 . S
O214 Cd211 2.297 . S
O214 C216 1.247 . S
O215 Cd211 2.439 . S
O215 C216 1.208 . S
C216 O214 1.247 . S
C216 O215 1.208 . S
C217 O222 1.247 1_554 S
C217 O223 1.208 . S
C218 O210 1.315 . S
C218 O213 1.279 . S
C219 O220 1.315 . S
C219 O221 1.279 . S
O220 Cd212 2.223 . S
O220 C219 1.315 . S
O221 Cd211 2.240 1_556 S
O221 C219 1.279 . S
O222 Cd212 2.297 . S
O222 C217 1.247 1_556 S
O223 Cd212 2.439 1_554 S
O223 C217 1.208 . S
O224 Cd225 2.223 . S
O224 C232 1.315 . S
Cd225 O224 2.223 . S
Cd225 O228 2.297 . S
Cd225 O229 2.439 . S
Cd225 O235 2.240 . S
Cd226 O227 2.240 . S
Cd226 O234 2.223 . S
Cd226 O236 2.297 . S
Cd226 O237 2.439 . S
O227 Cd226 2.240 . S
O227 C232 1.279 . S
O228 Cd225 2.297 . S
O228 C230 1.247 . S
O229 Cd225 2.439 . S
O229 C230 1.208 . S
C230 O228 1.247 . S
C230 O229 1.208 . S
C231 O236 1.247 . S
C231 O237 1.208 . S
C232 O224 1.315 . S
C232 O227 1.279 . S
C233 O234 1.315 . S
C233 O235 1.279 . S
O234 Cd226 2.223 . S
O234 C233 1.315 . S
O235 Cd225 2.240 . S
O235 C233 1.279 . S
O236 Cd226 2.297 . S
O236 C231 1.247 . S
O237 Cd226 2.439 . S
O237 C231 1.208 . S
O238 Cd239 2.223 . S
O238 C246 1.315 . S
Cd239 O238 2.223 . S
Cd239 O242 2.297 . S
Cd239 O243 2.439 . S
Cd239 O249 2.240 . S
Cd240 O241 2.240 . S
Cd240 O248 2.223 . S
Cd240 O250 2.297 . S
Cd240 O251 2.439 . S
O241 Cd240 2.240 . S
O241 C246 1.279 . S
O242 Cd239 2.297 . S
O242 C244 1.247 . S
O243 Cd239 2.439 . S
O243 C244 1.208 . S
C244 O242 1.247 . S
C244 O243 1.208 . S
C245 O250 1.247 . S
C245 O251 1.208 . S
C246 O238 1.315 . S
C246 O241 1.279 . S
C247 O248 1.315 . S
C247 O249 1.279 . S
O248 Cd240 2.223 . S
O248 C247 1.315 . S
O249 Cd239 2.240 . S
O249 C247 1.279 . S
O250 Cd240 2.297 . S
O250 C245 1.247 . S
O251 Cd240 2.439 . S
O251 C245 1.208 . S
O252 Cd253 2.223 . S
O252 C260 1.315 . S
Cd253 O252 2.223 . S
Cd253 O256 2.297 . S
Cd253 O257 2.439 . S
Cd253 O263 2.240 . S
Cd254 O255 2.240 . S
Cd254 O262 2.223 . S
Cd254 O264 2.297 . S
Cd254 O265 2.439 . S
O255 Cd254 2.240 . S
O255 C260 1.279 . S
O256 Cd253 2.297 . S
O256 C258 1.247 . S
O257 Cd253 2.439 . S
O257 C258 1.208 . S
C258 O256 1.247 . S
C258 O257 1.208 . S
C259 O264 1.247 . S
C259 O265 1.208 . S
C260 O252 1.315 . S
C260 O255 1.279 . S
C261 O262 1.315 . S
C261 O263 1.279 . S
O262 Cd254 2.223 . S
O262 C261 1.315 . S
O263 Cd253 2.240 . S
O263 C261 1.279 . S
O264 Cd254 2.297 . S
O264 C259 1.247 . S
O265 Cd254 2.439 . S
O265 C259 1.208 . S
O266 Cd267 2.223 . S
O266 C274 1.315 . S
Cd267 O266 2.223 . S
Cd267 O270 2.297 . S
Cd267 O271 2.439 . S
Cd267 O277 2.240 . S
Cd268 O269 2.240 . S
Cd268 O276 2.223 . S
Cd268 O278 2.297 . S
Cd268 O279 2.439 . S
O269 Cd268 2.240 . S
O269 C274 1.279 . S
O270 Cd267 2.297 . S
O270 C272 1.247 . S
O271 Cd267 2.439 . S
O271 C272 1.208 . S
C272 O270 1.247 . S
C272 O271 1.208 . S
C273 O278 1.247 . S
C273 O279 1.208 . S
C274 O266 1.315 . S
C274 O269 1.279 . S
C275 O276 1.315 . S
C275 O277 1.279 . S
O276 Cd268 2.223 . S
O276 C275 1.315 . S
O277 Cd267 2.240 . S
O277 C275 1.279 . S
O278 Cd268 2.297 . S
O278 C273 1.247 . S
O279 Cd268 2.439 . S
O279 C273 1.208 . S
O280 Cd281 2.223 . S
O280 C288 1.315 . S
Cd281 O280 2.223 . S
Cd281 O284 2.297 . S
Cd281 O285 2.439 . S
Cd281 O291 2.240 . S
Cd282 O283 2.240 . S
Cd282 O290 2.223 . S
Cd282 O292 2.297 . S
Cd282 O293 2.439 . S
O283 Cd282 2.240 . S
O283 C288 1.279 . S
O284 Cd281 2.297 . S
O284 C286 1.247 . S
O285 Cd281 2.439 . S
O285 C286 1.208 . S
C286 O284 1.247 . S
C286 O285 1.208 . S
C287 O292 1.247 . S
C287 O293 1.208 . S
C288 O280 1.315 . S
C288 O283 1.279 . S
C289 O290 1.315 . S
C289 O291 1.279 . S
O290 Cd282 2.223 . S
O290 C289 1.315 . S
O291 Cd281 2.240 . S
O291 C289 1.279 . S
O292 Cd282 2.297 . S
O292 C287 1.247 . S
O293 Cd282 2.439 . S
O293 C287 1.208 . S
O294 Cd295 2.223 . S
O294 C302 1.315 . S
Cd295 O294 2.223 . S
Cd295 O298 2.297 . S
Cd295 O299 2.439 . S
Cd295 O305 2.240 . S
Cd296 O297 2.240 . S
Cd296 O304 2.223 . S
Cd296 O306 2.297 . S
Cd296 O307 2.439 . S
O297 Cd296 2.240 . S
O297 C302 1.279 . S
O298 Cd295 2.297 . S
O298 C300 1.247 . S
O299 Cd295 2.439 . S
O299 C300 1.208 . S
C300 O298 1.247 . S
C300 O299 1.208 . S
C301 O306 1.247 . S
C301 O307 1.208 . S
C302 O294 1.315 . S
C302 O297 1.279 . S
C303 O304 1.315 . S
C303 O305 1.279 . S
O304 Cd296 2.223 . S
O304 C303 1.315 . S
O305 Cd295 2.240 . S
O305 C303 1.279 . S
O306 Cd296 2.297 . S
O306 C301 1.247 . S
O307 Cd296 2.439 . S
O307 C301 1.208 . S
O308 Cd309 2.223 . S
O308 C316 1.315 . S
Cd309 O308 2.223 . S
Cd309 O312 2.297 . S
Cd309 O313 2.439 . S
Cd309 O319 2.240 . S
Cd310 O311 2.240 . S
Cd310 O318 2.223 . S
Cd310 O320 2.297 . S
Cd310 O321 2.439 . S
O311 Cd310 2.240 . S
O311 C316 1.279 . S
O312 Cd309 2.297 . S
O312 C314 1.247 . S
O313 Cd309 2.439 . S
O313 C314 1.208 . S
C314 O312 1.247 . S
C314 O313 1.208 . S
C315 O320 1.247 . S
C315 O321 1.208 . S
C316 O308 1.315 . S
C316 O311 1.279 . S
C317 O318 1.315 . S
C317 O319 1.279 . S
O318 Cd310 2.223 . S
O318 C317 1.315 . S
O319 Cd309 2.240 . S
O319 C317 1.279 . S
O320 Cd310 2.297 . S
O320 C315 1.247 . S
O321 Cd310 2.439 . S
O321 C315 1.208 . S
O322 Cd323 2.223 1_545 S
O322 C330 1.315 . S
Cd323 O322 2.223 1_565 S
Cd323 O326 2.297 . S
Cd323 O327 2.439 . S
Cd323 O333 2.240 1_565 S
Cd324 O325 2.240 . S
Cd324 O332 2.223 . S
Cd324 O334 2.297 1_545 S
Cd324 O335 2.439 1_545 S
O325 Cd324 2.240 . S
O325 C330 1.279 . S
O326 Cd323 2.297 . S
O326 C328 1.247 . S
O327 Cd323 2.439 . S
O327 C328 1.208 . S
C328 O326 1.247 . S
C328 O327 1.208 . S
C329 O334 1.247 . S
C329 O335 1.208 . S
C330 O322 1.315 . S
C330 O325 1.279 . S
C331 O332 1.315 . S
C331 O333 1.279 . S
O332 Cd324 2.223 . S
O332 C331 1.315 . S
O333 Cd323 2.240 1_545 S
O333 C331 1.279 . S
O334 Cd324 2.297 1_565 S
O334 C329 1.247 . S
O335 Cd324 2.439 1_565 S
O335 C329 1.208 . S
O336 Cd337 2.223 . S
O336 C344 1.315 . S
Cd337 O336 2.223 . S
Cd337 O340 2.297 . S
Cd337 O341 2.439 . S
Cd337 O347 2.240 . S
Cd338 O339 2.240 . S
Cd338 O346 2.223 . S
Cd338 O348 2.297 . S
Cd338 O349 2.439 . S
O339 Cd338 2.240 . S
O339 C344 1.279 . S
O340 Cd337 2.297 . S
O340 C342 1.247 . S
O341 Cd337 2.439 . S
O341 C342 1.208 . S
C342 O340 1.247 . S
C342 O341 1.208 . S
C343 O348 1.247 . S
C343 O349 1.208 . S
C344 O336 1.315 . S
C344 O339 1.279 . S
C345 O346 1.315 . S
C345 O347 1.279 . S
O346 Cd338 2.223 . S
O346 C345 1.315 . S
O347 Cd337 2.240 . S
O347 C345 1.279 . S
O348 Cd338 2.297 . S
O348 C343 1.247 . S
O349 Cd338 2.439 . S
O349 C343 1.208 . S
O350 Cd351 2.223 1_655 S
O350 C358 1.315 . S
Cd351 O350 2.223 1_455 S
Cd351 O354 2.297 . S
Cd351 O355 2.439 . S
Cd351 O361 2.240 1_455 S
Cd352 O353 2.240 . S
Cd352 O360 2.223 . S
Cd352 O362 2.280 1_655 S
Cd352 O363 2.439 1_655 S
O353 Cd352 2.240 . S
O353 C358 1.279 . S
O354 Cd351 2.297 . S
O354 C356 1.247 . S
O355 Cd351 2.439 . S
O355 C356 1.208 . S
C356 O354 1.247 . S
C356 O355 1.208 . S
C357 O362 1.288 . S
C357 O363 1.208 . S
C358 O350 1.315 . S
C358 O353 1.279 . S
C359 O360 1.315 . S
C359 O361 1.279 . S
O360 Cd352 2.223 . S
O360 C359 1.315 . S
O361 Cd351 2.240 1_655 S
O361 C359 1.279 . S
O362 Cd352 2.280 1_455 S
O362 C357 1.288 . S
O363 Cd352 2.439 1_455 S
O363 C357 1.208 . S
O364 Cd365 2.223 . S
O364 C372 1.315 . S
Cd365 O364 2.223 . S
Cd365 O368 2.297 . S
Cd365 O369 2.439 . S
Cd365 O375 2.240 . S
Cd366 O367 2.240 . S
Cd366 O374 2.223 . S
Cd366 O376 2.297 . S
Cd366 O377 2.439 . S
O367 Cd366 2.240 . S
O367 C372 1.279 . S
O368 Cd365 2.297 . S
O368 C370 1.247 . S
O369 Cd365 2.439 . S
O369 C370 1.208 . S
C370 O368 1.247 . S
C370 O369 1.208 . S
C371 O376 1.247 . S
C371 O377 1.208 . S
C372 O364 1.315 . S
C372 O367 1.279 . S
C373 O374 1.315 . S
C373 O375 1.279 . S
O374 Cd366 2.223 . S
O374 C373 1.315 . S
O375 Cd365 2.240 . S
O375 C373 1.279 . S
O376 Cd366 2.297 . S
O376 C371 1.247 . S
O377 Cd366 2.439 . S
O377 C371 1.208 . S
O378 Cd379 2.223 1_455 S
O378 C386 1.315 . S
Cd379 O378 2.223 1_655 S
Cd379 O382 2.297 . S
Cd379 O383 2.439 . S
Cd379 O389 2.240 1_655 S
Cd380 O381 2.240 . S
Cd380 O388 2.223 . S
Cd380 O390 2.281 1_455 S
Cd380 O391 2.439 1_455 S
O381 Cd380 2.240 . S
O381 C386 1.279 . S
O382 Cd379 2.297 . S
O382 C384 1.247 . S
O383 Cd379 2.439 . S
O383 C384 1.208 . S
C384 O382 1.247 . S
C384 O383 1.208 . S
C385 O390 1.287 . S
C385 O391 1.208 . S
C386 O378 1.315 . S
C386 O381 1.279 . S
C387 O388 1.315 . S
C387 O389 1.279 . S
O388 Cd380 2.223 . S
O388 C387 1.315 . S
O389 Cd379 2.240 1_455 S
O389 C387 1.279 . S
O390 Cd380 2.281 1_655 S
O390 C385 1.287 . S
O391 Cd380 2.439 1_655 S
O391 C385 1.208 . S
O392 Cd393 2.223 . S
O392 C400 1.315 . S
Cd393 O392 2.223 . S
Cd393 O396 2.297 . S
Cd393 O397 2.439 . S
Cd393 O403 2.240 . S
Cd394 O395 2.240 . S
Cd394 O402 2.223 . S
Cd394 O404 2.297 . S
Cd394 O405 2.439 . S
O395 Cd394 2.240 . S
O395 C400 1.279 . S
O396 Cd393 2.297 . S
O396 C398 1.247 . S
O397 Cd393 2.439 . S
O397 C398 1.208 . S
C398 O396 1.247 . S
C398 O397 1.208 . S
C399 O404 1.247 . S
C399 O405 1.208 . S
C400 O392 1.315 . S
C400 O395 1.279 . S
C401 O402 1.315 . S
C401 O403 1.279 . S
O402 Cd394 2.223 . S
O402 C401 1.315 . S
O403 Cd393 2.240 . S
O403 C401 1.279 . S
O404 Cd394 2.297 . S
O404 C399 1.247 . S
O405 Cd394 2.439 . S
O405 C399 1.208 . S
O406 Cd407 2.223 . S
O406 C414 1.315 . S
Cd407 O406 2.223 . S
Cd407 O410 2.297 . S
Cd407 O411 2.439 . S
Cd407 O417 2.240 . S
Cd408 O409 2.240 . S
Cd408 O416 2.223 . S
Cd408 O418 2.297 . S
Cd408 O419 2.439 . S
O409 Cd408 2.240 . S
O409 C414 1.279 . S
O410 Cd407 2.297 . S
O410 C412 1.247 . S
O411 Cd407 2.439 . S
O411 C412 1.208 . S
C412 O410 1.247 . S
C412 O411 1.208 . S
C413 O418 1.247 . S
C413 O419 1.208 . S
C414 O406 1.315 . S
C414 O409 1.279 . S
C415 O416 1.315 . S
C415 O417 1.279 . S
O416 Cd408 2.223 . S
O416 C415 1.315 . S
O417 Cd407 2.240 . S
O417 C415 1.279 . S
O418 Cd408 2.297 . S
O418 C413 1.247 . S
O419 Cd408 2.439 . S
O419 C413 1.208 . S
O420 Cd421 2.223 . S
O420 C428 1.315 . S
Cd421 O420 2.223 . S
Cd421 O424 2.297 . S
Cd421 O425 2.439 . S
Cd421 O431 2.240 . S
Cd422 O423 2.240 . S
Cd422 O430 2.223 . S
Cd422 O432 2.297 . S
Cd422 O433 2.439 . S
O423 Cd422 2.240 . S
O423 C428 1.279 . S
O424 Cd421 2.297 . S
O424 C426 1.247 . S
O425 Cd421 2.439 . S
O425 C426 1.208 . S
C426 O424 1.247 . S
C426 O425 1.208 . S
C427 O432 1.247 . S
C427 O433 1.208 . S
C428 O420 1.315 . S
C428 O423 1.279 . S
C429 O430 1.315 . S
C429 O431 1.279 . S
O430 Cd422 2.223 . S
O430 C429 1.315 . S
O431 Cd421 2.240 . S
O431 C429 1.279 . S
O432 Cd422 2.297 . S
O432 C427 1.247 . S
O433 Cd422 2.439 . S
O433 C427 1.208 . S
O434 Cd435 2.223 . S
O434 C442 1.315 . S
Cd435 O434 2.223 . S
Cd435 O438 2.297 . S
Cd435 O439 2.439 . S
Cd435 O445 2.240 . S
Cd436 O437 2.240 . S
Cd436 O444 2.223 . S
Cd436 O446 2.297 . S
Cd436 O447 2.439 . S
O437 Cd436 2.240 . S
O437 C442 1.279 . S
O438 Cd435 2.297 . S
O438 C440 1.247 . S
O439 Cd435 2.439 . S
O439 C440 1.208 . S
C440 O438 1.247 . S
C440 O439 1.208 . S
C441 O446 1.247 . S
C441 O447 1.208 . S
C442 O434 1.315 . S
C442 O437 1.279 . S
C443 O444 1.315 . S
C443 O445 1.279 . S
O444 Cd436 2.223 . S
O444 C443 1.315 . S
O445 Cd435 2.240 . S
O445 C443 1.279 . S
O446 Cd436 2.297 . S
O446 C441 1.247 . S
O447 Cd436 2.439 . S
O447 C441 1.208 . S
O448 Cd449 2.223 . S
O448 C456 1.315 . S
Cd449 O448 2.223 . S
Cd449 O452 2.297 . S
Cd449 O453 2.439 . S
Cd449 O459 2.240 . S
Cd450 O451 2.240 . S
Cd450 O458 2.223 . S
Cd450 O460 2.297 . S
Cd450 O461 2.439 . S
O451 Cd450 2.240 . S
O451 C456 1.279 . S
O452 Cd449 2.297 . S
O452 C454 1.247 . S
O453 Cd449 2.439 . S
O453 C454 1.208 . S
C454 O452 1.247 . S
C454 O453 1.208 . S
C455 O460 1.247 . S
C455 O461 1.208 . S
C456 O448 1.315 . S
C456 O451 1.279 . S
C457 O458 1.315 . S
C457 O459 1.279 . S
O458 Cd450 2.223 . S
O458 C457 1.315 . S
O459 Cd449 2.240 . S
O459 C457 1.279 . S
O460 Cd450 2.297 . S
O460 C455 1.247 . S
O461 Cd450 2.439 . S
O461 C455 1.208 . S
O462 Cd463 2.223 . S
O462 C470 1.315 . S
Cd463 O462 2.223 . S
Cd463 O466 2.297 . S
Cd463 O467 2.439 . S
Cd463 O473 2.240 . S
Cd464 O465 2.240 . S
Cd464 O472 2.223 . S
Cd464 O474 2.297 . S
Cd464 O475 2.439 . S
O465 Cd464 2.240 . S
O465 C470 1.279 . S
O466 Cd463 2.297 . S
O466 C468 1.247 . S
O467 Cd463 2.439 . S
O467 C468 1.208 . S
C468 O466 1.247 . S
C468 O467 1.208 . S
C469 O474 1.247 . S
C469 O475 1.208 . S
C470 O462 1.315 . S
C470 O465 1.279 . S
C471 O472 1.315 . S
C471 O473 1.279 . S
O472 Cd464 2.223 . S
O472 C471 1.315 . S
O473 Cd463 2.240 . S
O473 C471 1.279 . S
O474 Cd464 2.297 . S
O474 C469 1.247 . S
O475 Cd464 2.439 . S
O475 C469 1.208 . S
O476 Cd477 2.223 . S
O476 C484 1.315 . S
Cd477 O476 2.223 . S
Cd477 O480 2.297 . S
Cd477 O481 2.439 . S
Cd477 O487 2.240 . S
Cd478 O479 2.240 . S
Cd478 O486 2.223 . S
Cd478 O488 2.297 . S
Cd478 O489 2.439 . S
O479 Cd478 2.240 . S
O479 C484 1.279 . S
O480 Cd477 2.297 . S
O480 C482 1.247 . S
O481 Cd477 2.439 . S
O481 C482 1.208 . S
C482 O480 1.247 . S
C482 O481 1.208 . S
C483 O488 1.247 . S
C483 O489 1.208 . S
C484 O476 1.315 . S
C484 O479 1.279 . S
C485 O486 1.315 . S
C485 O487 1.279 . S
O486 Cd478 2.223 . S
O486 C485 1.315 . S
O487 Cd477 2.240 . S
O487 C485 1.279 . S
O488 Cd478 2.297 . S
O488 C483 1.247 . S
O489 Cd478 2.439 . S
O489 C483 1.208 . S
O490 Cd491 2.223 . S
O490 C498 1.315 . S
Cd491 O490 2.223 . S
Cd491 O494 2.297 . S
Cd491 O495 2.439 . S
Cd491 O501 2.240 . S
Cd492 O493 2.240 . S
Cd492 O500 2.223 . S
Cd492 O502 2.297 . S
Cd492 O503 2.439 . S
O493 Cd492 2.240 . S
O493 C498 1.279 . S
O494 Cd491 2.297 . S
O494 C496 1.247 . S
O495 Cd491 2.439 . S
O495 C496 1.208 . S
C496 O494 1.247 . S
C496 O495 1.208 . S
C497 O502 1.247 . S
C497 O503 1.208 . S
C498 O490 1.315 . S
C498 O493 1.279 . S
C499 O500 1.315 . S
C499 O501 1.279 . S
O500 Cd492 2.223 . S
O500 C499 1.315 . S
O501 Cd491 2.240 . S
O501 C499 1.279 . S
O502 Cd492 2.297 . S
O502 C497 1.247 . S
O503 Cd492 2.439 . S
O503 C497 1.208 . S
O504 Cd505 2.223 . S
O504 C512 1.315 . S
Cd505 O504 2.223 . S
Cd505 O508 2.297 . S
Cd505 O509 2.439 . S
Cd505 O515 2.240 . S
Cd506 O507 2.240 . S
Cd506 O514 2.223 . S
Cd506 O516 2.297 . S
Cd506 O517 2.439 . S
O507 Cd506 2.240 . S
O507 C512 1.279 . S
O508 Cd505 2.297 . S
O508 C510 1.247 . S
O509 Cd505 2.439 . S
O509 C510 1.208 . S
C510 O508 1.247 . S
C510 O509 1.208 . S
C511 O516 1.247 . S
C511 O517 1.208 . S
C512 O504 1.315 . S
C512 O507 1.279 . S
C513 O514 1.315 . S
C513 O515 1.279 . S
O514 Cd506 2.223 . S
O514 C513 1.315 . S
O515 Cd505 2.240 . S
O515 C513 1.279 . S
O516 Cd506 2.297 . S
O516 C511 1.247 . S
O517 Cd506 2.439 . S
O517 C511 1.208 . S
O518 Cd519 2.223 . S
O518 C526 1.315 . S
Cd519 O518 2.223 . S
Cd519 O522 2.297 . S
Cd519 O523 2.439 . S
Cd519 O529 2.240 . S
Cd520 O521 2.240 . S
Cd520 O528 2.223 . S
Cd520 O530 2.297 . S
Cd520 O531 2.439 . S
O521 Cd520 2.240 . S
O521 C526 1.279 . S
O522 Cd519 2.297 . S
O522 C524 1.247 . S
O523 Cd519 2.439 . S
O523 C524 1.208 . S
C524 O522 1.247 . S
C524 O523 1.208 . S
C525 O530 1.247 . S
C525 O531 1.208 . S
C526 O518 1.315 . S
C526 O521 1.279 . S
C527 O528 1.315 . S
C527 O529 1.279 . S
O528 Cd520 2.223 . S
O528 C527 1.315 . S
O529 Cd519 2.240 . S
O529 C527 1.279 . S
O530 Cd520 2.297 . S
O530 C525 1.247 . S
O531 Cd520 2.439 . S
O531 C525 1.208 . S
O532 Cd533 2.223 . S
O532 C540 1.315 . S
Cd533 O532 2.223 . S
Cd533 O536 2.297 . S
Cd533 O537 2.439 . S
Cd533 O543 2.240 . S
Cd534 O535 2.240 . S
Cd534 O542 2.223 . S
Cd534 O544 2.297 . S
Cd534 O545 2.439 . S
O535 Cd534 2.240 . S
O535 C540 1.279 . S
O536 Cd533 2.297 . S
O536 C538 1.247 . S
O537 Cd533 2.439 . S
O537 C538 1.208 . S
C538 O536 1.247 . S
C538 O537 1.208 . S
C539 O544 1.247 . S
C539 O545 1.208 . S
C540 O532 1.315 . S
C540 O535 1.279 . S
C541 O542 1.315 . S
C541 O543 1.279 . S
O542 Cd534 2.223 . S
O542 C541 1.315 . S
O543 Cd533 2.240 . S
O543 C541 1.279 . S
O544 Cd534 2.297 . S
O544 C539 1.247 . S
O545 Cd534 2.439 . S
O545 C539 1.208 . S
O546 Cd547 2.223 . S
O546 C554 1.315 . S
Cd547 O546 2.223 . S
Cd547 O550 2.297 . S
Cd547 O551 2.439 . S
Cd547 O557 2.240 . S
Cd548 O549 2.240 . S
Cd548 O556 2.223 . S
Cd548 O558 2.297 . S
Cd548 O559 2.439 . S
O549 Cd548 2.240 . S
O549 C554 1.279 . S
O550 Cd547 2.297 . S
O550 C552 1.247 . S
O551 Cd547 2.439 . S
O551 C552 1.208 . S
C552 O550 1.247 . S
C552 O551 1.208 . S
C553 O558 1.247 . S
C553 O559 1.208 . S
C554 O546 1.315 . S
C554 O549 1.279 . S
C555 O556 1.315 . S
C555 O557 1.279 . S
O556 Cd548 2.223 . S
O556 C555 1.315 . S
O557 Cd547 2.240 . S
O557 C555 1.279 . S
O558 Cd548 2.297 . S
O558 C553 1.247 . S
O559 Cd548 2.439 . S
O559 C553 1.208 . S
O560 Cd561 2.223 . S
O560 C568 1.315 . S
Cd561 O560 2.223 . S
Cd561 O564 2.297 . S
Cd561 O565 2.439 . S
Cd561 O571 2.240 . S
Cd562 O563 2.240 . S
Cd562 O570 2.223 . S
Cd562 O572 2.297 . S
Cd562 O573 2.439 . S
O563 Cd562 2.240 . S
O563 C568 1.279 . S
O564 Cd561 2.297 . S
O564 C566 1.247 . S
O565 Cd561 2.439 . S
O565 C566 1.208 . S
C566 O564 1.247 . S
C566 O565 1.208 . S
C567 O572 1.247 . S
C567 O573 1.208 . S
C568 O560 1.315 . S
C568 O563 1.279 . S
C569 O570 1.315 . S
C569 O571 1.279 . S
O570 Cd562 2.223 . S
O570 C569 1.315 . S
O571 Cd561 2.240 . S
O571 C569 1.279 . S
O572 Cd562 2.297 . S
O572 C567 1.247 . S
O573 Cd562 2.439 . S
O573 C567 1.208 . S
O574 Cd575 2.223 . S
O574 C582 1.315 . S
Cd575 O574 2.223 . S
Cd575 O578 2.297 . S
Cd575 O579 2.439 . S
Cd575 O585 2.240 . S
Cd576 O577 2.240 . S
Cd576 O584 2.223 . S
Cd576 O586 2.297 . S
Cd576 O587 2.439 . S
O577 Cd576 2.240 . S
O577 C582 1.279 . S
O578 Cd575 2.297 . S
O578 C580 1.247 . S
O579 Cd575 2.439 . S
O579 C580 1.208 . S
C580 O578 1.247 . S
C580 O579 1.208 . S
C581 O586 1.247 . S
C581 O587 1.208 . S
C582 O574 1.315 . S
C582 O577 1.279 . S
C583 O584 1.315 . S
C583 O585 1.279 . S
O584 Cd576 2.223 . S
O584 C583 1.315 . S
O585 Cd575 2.240 . S
O585 C583 1.279 . S
O586 Cd576 2.297 . S
O586 C581 1.247 . S
O587 Cd576 2.439 . S
O587 C581 1.208 . S
O588 Cd589 2.223 1_545 S
O588 C596 1.315 . S
Cd589 O588 2.223 1_565 S
Cd589 O592 2.297 . S
Cd589 O593 2.439 . S
Cd589 O599 2.240 1_565 S
Cd590 O591 2.240 . S
Cd590 O598 2.223 . S
Cd590 O600 2.281 1_545 S
Cd590 O601 2.439 1_545 S
O591 Cd590 2.240 . S
O591 C596 1.279 . S
O592 Cd589 2.297 . S
O592 C594 1.247 . S
O593 Cd589 2.439 . S
O593 C594 1.208 . S
C594 O592 1.247 . S
C594 O593 1.208 . S
C595 O600 1.289 . S
C595 O601 1.208 . S
C596 O588 1.315 . S
C596 O591 1.279 . S
C597 O598 1.315 . S
C597 O599 1.279 . S
O598 Cd590 2.223 . S
O598 C597 1.315 . S
O599 Cd589 2.240 1_545 S
O599 C597 1.279 . S
O600 Cd590 2.281 1_565 S
O600 C595 1.289 . S
O601 Cd590 2.439 1_565 S
O601 C595 1.208 . S
O602 Cd603 2.223 . S
O602 C610 1.315 . S
Cd603 O602 2.223 . S
Cd603 O606 2.297 . S
Cd603 O607 2.439 . S
Cd603 O613 2.240 . S
Cd604 O605 2.240 . S
Cd604 O612 2.223 . S
Cd604 O614 2.297 . S
Cd604 O615 2.439 . S
O605 Cd604 2.240 . S
O605 C610 1.279 . S
O606 Cd603 2.297 . S
O606 C608 1.247 . S
O607 Cd603 2.439 . S
O607 C608 1.208 . S
C608 O606 1.247 . S
C608 O607 1.208 . S
C609 O614 1.247 . S
C609 O615 1.208 . S
C610 O602 1.315 . S
C610 O605 1.279 . S
C611 O612 1.315 . S
C611 O613 1.279 . S
O612 Cd604 2.223 . S
O612 C611 1.315 . S
O613 Cd603 2.240 . S
O613 C611 1.279 . S
O614 Cd604 2.297 . S
O614 C609 1.247 . S
O615 Cd604 2.439 . S
O615 C609 1.208 . S
O616 Cd617 2.223 1_565 S
O616 C624 1.315 . S
Cd617 O616 2.223 1_545 S
Cd617 O620 2.297 . S
Cd617 O621 2.439 . S
Cd617 O627 2.240 1_545 S
Cd618 O619 2.240 . S
Cd618 O626 2.223 . S
Cd618 O628 2.297 1_565 S
Cd618 O629 2.439 1_565 S
O619 Cd618 2.240 . S
O619 C624 1.279 . S
O620 Cd617 2.297 . S
O620 C622 1.247 . S
O621 Cd617 2.439 . S
O621 C622 1.208 . S
C622 O620 1.247 . S
C622 O621 1.208 . S
C623 O628 1.247 . S
C623 O629 1.208 . S
C624 O616 1.315 . S
C624 O619 1.279 . S
C625 O626 1.315 . S
C625 O627 1.279 . S
O626 Cd618 2.223 . S
O626 C625 1.315 . S
O627 Cd617 2.240 1_565 S
O627 C625 1.279 . S
O628 Cd618 2.297 1_545 S
O628 C623 1.247 . S
O629 Cd618 2.439 1_545 S
O629 C623 1.208 . S
O630 Cd631 2.223 . S
O630 C638 1.315 . S
Cd631 O630 2.223 . S
Cd631 O634 2.297 . S
Cd631 O635 2.439 . S
Cd631 O641 2.240 . S
Cd632 O633 2.240 . S
Cd632 O640 2.223 . S
Cd632 O642 2.297 . S
Cd632 O643 2.439 . S
O633 Cd632 2.240 . S
O633 C638 1.279 . S
O634 Cd631 2.297 . S
O634 C636 1.247 . S
O635 Cd631 2.439 . S
O635 C636 1.208 . S
C636 O634 1.247 . S
C636 O635 1.208 . S
C637 O642 1.247 . S
C637 O643 1.208 . S
C638 O630 1.315 . S
C638 O633 1.279 . S
C639 O640 1.315 . S
C639 O641 1.279 . S
O640 Cd632 2.223 . S
O640 C639 1.315 . S
O641 Cd631 2.240 . S
O641 C639 1.279 . S
O642 Cd632 2.297 . S
O642 C637 1.247 . S
O643 Cd632 2.439 . S
O643 C637 1.208 . S
O644 Cd645 2.223 1_565 S
O644 C652 1.315 . S
Cd645 O644 2.223 1_545 S
Cd645 O648 2.297 . S
Cd645 O649 2.439 . S
Cd645 O655 2.240 1_545 S
Cd646 O647 2.240 . S
Cd646 O654 2.223 . S
Cd646 O656 2.282 1_565 S
Cd646 O657 2.439 1_565 S
O647 Cd646 2.240 . S
O647 C652 1.279 . S
O648 Cd645 2.297 . S
O648 C650 1.247 . S
O649 Cd645 2.439 . S
O649 C650 1.208 . S
C650 O648 1.247 . S
C650 O649 1.208 . S
C651 O656 1.287 . S
C651 O657 1.208 . S
C652 O644 1.315 . S
C652 O647 1.279 . S
C653 O654 1.315 . S
C653 O655 1.279 . S
O654 Cd646 2.223 . S
O654 C653 1.315 . S
O655 Cd645 2.240 1_565 S
O655 C653 1.279 . S
O656 Cd646 2.282 1_545 S
O656 C651 1.287 . S
O657 Cd646 2.439 1_545 S
O657 C651 1.208 . S
O658 Cd659 2.223 . S
O658 C666 1.315 . S
Cd659 O658 2.223 . S
Cd659 O662 2.297 . S
Cd659 O663 2.439 . S
Cd659 O669 2.240 . S
Cd660 O661 2.240 . S
Cd660 O668 2.223 . S
Cd660 O670 2.297 . S
Cd660 O671 2.439 . S
O661 Cd660 2.240 . S
O661 C666 1.279 . S
O662 Cd659 2.297 . S
O662 C664 1.247 . S
O663 Cd659 2.439 . S
O663 C664 1.208 . S
C664 O662 1.247 . S
C664 O663 1.208 . S
C665 O670 1.247 . S
C665 O671 1.208 . S
C666 O658 1.315 . S
C666 O661 1.279 . S
C667 O668 1.315 . S
C667 O669 1.279 . S
O668 Cd660 2.223 . S
O668 C667 1.315 . S
O669 Cd659 2.240 . S
O669 C667 1.279 . S
O670 Cd660 2.297 . S
O670 C665 1.247 . S
O671 Cd660 2.439 . S
O671 C665 1.208 . S
H672 C678 0.930 . S
H673 C682 0.930 . S
H674 C687 0.929 . S
H675 C685 0.929 . S
H676 C680 0.929 . S
H677 C686 0.929 . S
C678 H672 0.930 . S
C678 C679 1.367 . S
C678 C686 1.378 . S
C679 C678 1.367 . S
C679 C687 1.433 . S
C680 H676 0.929 . S
C680 C682 1.378 . S
C680 C684 1.350 . S
C681 C684 1.463 . S
C681 C686 1.350 . S
C681 N689 1.427 . S
C682 H673 0.930 . S
C682 C680 1.378 . S
C682 C683 1.367 . S
C683 C682 1.367 . S
C683 C685 1.433 . S
C684 C680 1.350 . S
C684 C681 1.463 . S
C684 N688 1.427 . S
C685 H675 0.929 . S
C685 C683 1.433 . S
C685 N688 1.384 . S
C686 H677 0.929 . S
C686 C678 1.378 . S
C686 C681 1.350 . S
C687 H674 0.929 . S
C687 C679 1.433 . S
C687 N689 1.384 . S
N688 C684 1.427 . S
N688 C685 1.384 . S
N689 C681 1.427 . S
N689 C687 1.384 . S
H690 C696 0.930 . S
H691 C700 0.930 . S
H692 C705 0.929 . S
H693 C703 0.929 . S
H694 C698 0.929 . S
H695 C704 0.929 . S
C696 H690 0.930 . S
C696 C697 1.367 . S
C696 C704 1.378 . S
C697 C696 1.367 . S
C697 C705 1.433 . S
C698 H694 0.929 . S
C698 C700 1.378 1_554 S
C698 C702 1.350 . S
C699 C702 1.463 . S
C699 C704 1.350 . S
C699 N707 1.427 . S
C700 H691 0.930 . S
C700 C698 1.378 1_556 S
C700 C701 1.367 . S
C701 C700 1.367 . S
C701 C703 1.433 . S
C702 C698 1.350 . S
C702 C699 1.463 . S
C702 N706 1.427 . S
C703 H693 0.929 . S
C703 C701 1.433 . S
C703 N706 1.384 1_556 S
C704 H695 0.929 . S
C704 C696 1.378 . S
C704 C699 1.350 . S
C705 H692 0.929 . S
C705 C697 1.433 . S
C705 N707 1.384 . S
N706 C702 1.427 . S
N706 C703 1.384 1_554 S
N707 C699 1.427 . S
N707 C705 1.384 . S
H708 C714 0.930 . S
H709 C718 0.930 . S
H710 C723 0.929 . S
H711 C721 0.929 . S
H712 C716 0.929 . S
H713 C722 0.929 . S
C714 H708 0.930 . S
C714 C715 1.367 . S
C714 C722 1.378 . S
C715 C714 1.367 . S
C715 C723 1.433 . S
C716 H712 0.929 . S
C716 C718 1.378 . S
C716 C720 1.350 . S
C717 C720 1.463 . S
C717 C722 1.350 . S
C717 N725 1.427 . S
C718 H709 0.930 . S
C718 C716 1.378 . S
C718 C719 1.367 . S
C719 C718 1.367 . S
C719 C721 1.433 . S
C720 C716 1.350 . S
C720 C717 1.463 . S
C720 N724 1.427 . S
C721 H711 0.929 . S
C721 C719 1.433 . S
C721 N724 1.384 . S
C722 H713 0.929 . S
C722 C714 1.378 . S
C722 C717 1.350 . S
C723 H710 0.929 . S
C723 C715 1.433 . S
C723 N725 1.384 . S
N724 C720 1.427 . S
N724 C721 1.384 . S
N725 C717 1.427 . S
N725 C723 1.384 . S
H726 C732 0.930 . S
H727 C736 0.930 . S
H728 C741 0.929 . S
H729 C739 0.929 . S
H730 C734 0.929 . S
H731 C740 0.923 1_554 S
C732 H726 0.930 . S
C732 C733 1.367 . S
C732 C740 1.412 . S
C733 C732 1.367 . S
C733 C741 1.433 . S
C734 H730 0.929 . S
C734 C736 1.378 . S
C734 C738 1.350 . S
C735 C738 1.463 . S
C735 C740 1.322 1_554 S
C735 N743 1.427 . S
C736 H727 0.930 . S
C736 C734 1.378 . S
C736 C737 1.367 . S
C737 C736 1.367 . S
C737 C739 1.433 . S
C738 C734 1.350 . S
C738 C735 1.463 . S
C738 N742 1.427 . S
C739 H729 0.929 . S
C739 C737 1.433 . S
C739 N742 1.384 . S
C740 H731 0.923 1_556 S
C740 C732 1.412 . S
C740 C735 1.322 1_556 S
C741 H728 0.929 . S
C741 C733 1.433 . S
C741 N743 1.384 1_556 S
N742 C738 1.427 . S
N742 C739 1.384 . S
N743 C735 1.427 . S
N743 C741 1.384 1_554 S
H744 C750 0.930 . S
H745 C754 0.930 . S
H746 C759 0.929 . S
H747 C757 0.929 . S
H748 C752 0.929 . S
H749 C758 0.929 . S
C750 H744 0.930 . S
C750 C751 1.367 . S
C750 C758 1.378 . S
C751 C750 1.367 . S
C751 C759 1.433 . S
C752 H748 0.929 . S
C752 C754 1.378 . S
C752 C756 1.350 . S
C753 C756 1.463 . S
C753 C758 1.350 . S
C753 N761 1.427 . S
C754 H745 0.930 . S
C754 C752 1.378 . S
C754 C755 1.367 . S
C755 C754 1.367 . S
C755 C757 1.433 . S
C756 C752 1.350 . S
C756 C753 1.463 . S
C756 N760 1.427 . S
C757 H747 0.929 . S
C757 C755 1.433 . S
C757 N760 1.384 . S
C758 H749 0.929 . S
C758 C750 1.378 . S
C758 C753 1.350 . S
C759 H746 0.929 . S
C759 C751 1.433 . S
C759 N761 1.384 . S
N760 C756 1.427 . S
N760 C757 1.384 . S
N761 C753 1.427 . S
N761 C759 1.384 . S
H762 C768 0.930 . S
H763 C772 0.930 . S
H764 C777 0.929 . S
H765 C775 0.929 . S
H766 C770 0.929 . S
H767 C776 0.929 . S
C768 H762 0.930 . S
C768 C769 1.367 . S
C768 C776 1.378 . S
C769 C768 1.367 . S
C769 C777 1.433 1_554 S
C770 H766 0.929 . S
C770 C772 1.378 . S
C770 C774 1.350 . S
C771 C774 1.463 . S
C771 C776 1.350 1_556 S
C771 N779 1.427 . S
C772 H763 0.930 . S
C772 C770 1.378 . S
C772 C773 1.367 . S
C773 C772 1.367 . S
C773 C775 1.433 . S
C774 C770 1.350 . S
C774 C771 1.463 . S
C774 N778 1.427 . S
C775 H765 0.929 . S
C775 C773 1.433 . S
C775 N778 1.384 . S
C776 H767 0.929 . S
C776 C768 1.378 . S
C776 C771 1.350 1_554 S
C777 H764 0.929 . S
C777 C769 1.433 1_556 S
C777 N779 1.384 . S
N778 C774 1.427 . S
N778 C775 1.384 . S
N779 C771 1.427 . S
N779 C777 1.384 . S
H780 C786 0.930 . S
H781 C790 0.930 . S
H782 C795 0.929 . S
H783 C793 0.929 . S
H784 C788 0.929 . S
H785 C794 0.929 . S
C786 H780 0.930 . S
C786 C787 1.367 . S
C786 C794 1.378 . S
C787 C786 1.367 . S
C787 C795 1.433 . S
C788 H784 0.929 . S
C788 C790 1.378 . S
C788 C792 1.350 . S
C789 C792 1.463 . S
C789 C794 1.350 . S
C789 N797 1.427 . S
C790 H781 0.930 . S
C790 C788 1.378 . S
C790 C791 1.367 . S
C791 C790 1.367 . S
C791 C793 1.433 . S
C792 C788 1.350 . S
C792 C789 1.463 . S
C792 N796 1.427 . S
C793 H783 0.929 . S
C793 C791 1.433 . S
C793 N796 1.384 . S
C794 H785 0.929 . S
C794 C786 1.378 . S
C794 C789 1.350 . S
C795 H782 0.929 . S
C795 C787 1.433 . S
C795 N797 1.384 . S
N796 C792 1.427 . S
N796 C793 1.384 . S
N797 C789 1.427 . S
N797 C795 1.384 . S
H798 C804 0.930 . S
H799 C808 0.930 . S
H800 C813 0.929 . S
H801 C811 0.929 . S
H802 C806 0.929 . S
H803 C812 0.929 . S
C804 H798 0.930 . S
C804 C805 1.367 . S
C804 C812 1.378 . S
C805 C804 1.367 . S
C805 C813 1.433 . S
C806 H802 0.929 . S
C806 C808 1.378 . S
C806 C810 1.350 . S
C807 C810 1.463 . S
C807 C812 1.350 . S
C807 N815 1.427 . S
C808 H799 0.930 . S
C808 C806 1.378 . S
C808 C809 1.367 1_556 S
C809 C808 1.367 1_554 S
C809 C811 1.433 . S
C810 C806 1.350 . S
C810 C807 1.463 . S
C810 N814 1.427 . S
C811 H801 0.929 . S
C811 C809 1.433 . S
C811 N814 1.384 1_554 S
C812 H803 0.929 . S
C812 C804 1.378 . S
C812 C807 1.350 . S
C813 H800 0.929 . S
C813 C805 1.433 . S
C813 N815 1.384 . S
N814 C810 1.427 . S
N814 C811 1.384 1_556 S
N815 C807 1.427 . S
N815 C813 1.384 . S
H816 C822 0.930 . S
H817 C826 0.930 . S
H818 C831 0.929 . S
H819 C829 0.929 . S
H820 C824 0.929 . S
H821 C830 0.929 . S
C822 H816 0.930 . S
C822 C823 1.367 . S
C822 C830 1.378 . S
C823 C822 1.367 . S
C823 C831 1.433 . S
C824 H820 0.929 . S
C824 C826 1.378 . S
C824 C828 1.350 . S
C825 C828 1.463 . S
C825 C830 1.350 . S
C825 N833 1.427 . S
C826 H817 0.930 . S
C826 C824 1.378 . S
C826 C827 1.367 . S
C827 C826 1.367 . S
C827 C829 1.433 . S
C828 C824 1.350 . S
C828 C825 1.463 . S
C828 N832 1.427 . S
C829 H819 0.929 . S
C829 C827 1.433 . S
C829 N832 1.384 . S
C830 H821 0.929 . S
C830 C822 1.378 . S
C830 C825 1.350 . S
C831 H818 0.929 . S
C831 C823 1.433 . S
C831 N833 1.384 . S
N832 C828 1.427 . S
N832 C829 1.384 . S
N833 C825 1.427 . S
N833 C831 1.384 . S
H834 C840 0.930 . S
H835 C844 0.930 . S
H836 C849 0.929 . S
H837 C847 0.929 . S
H838 C842 0.929 . S
H839 C848 0.929 . S
C840 H834 0.930 . S
C840 C841 1.367 . S
C840 C848 1.378 . S
C841 C840 1.367 . S
C841 C849 1.433 . S
C842 H838 0.929 . S
C842 C844 1.378 . S
C842 C846 1.350 . S
C843 C846 1.463 . S
C843 C848 1.350 . S
C843 N851 1.427 . S
C844 H835 0.930 . S
C844 C842 1.378 . S
C844 C845 1.367 . S
C845 C844 1.367 . S
C845 C847 1.433 . S
C846 C842 1.350 . S
C846 C843 1.463 . S
C846 N850 1.427 . S
C847 H837 0.929 . S
C847 C845 1.433 . S
C847 N850 1.384 . S
C848 H839 0.929 . S
C848 C840 1.378 . S
C848 C843 1.350 . S
C849 H836 0.929 . S
C849 C841 1.433 . S
C849 N851 1.384 . S
N850 C846 1.427 . S
N850 C847 1.384 . S
N851 C843 1.427 . S
N851 C849 1.384 . S
H852 C858 0.930 . S
H853 C862 0.930 . S
H854 C867 0.929 . S
H855 C865 0.929 . S
H856 C860 0.929 . S
H857 C866 0.929 . S
C858 H852 0.930 . S
C858 C859 1.367 . S
C858 C866 1.378 . S
C859 C858 1.367 . S
C859 C867 1.433 . S
C860 H856 0.929 . S
C860 C862 1.378 . S
C860 C864 1.350 . S
C861 C864 1.463 . S
C861 C866 1.350 . S
C861 N869 1.427 . S
C862 H853 0.930 . S
C862 C860 1.378 . S
C862 C863 1.367 . S
C863 C862 1.367 . S
C863 C865 1.433 . S
C864 C860 1.350 . S
C864 C861 1.463 . S
C864 N868 1.427 . S
C865 H855 0.929 . S
C865 C863 1.433 . S
C865 N868 1.384 . S
C866 H857 0.929 . S
C866 C858 1.378 . S
C866 C861 1.350 . S
C867 H854 0.929 . S
C867 C859 1.433 . S
C867 N869 1.384 . S
N868 C864 1.427 . S
N868 C865 1.384 . S
N869 C861 1.427 . S
N869 C867 1.384 . S
H870 C876 0.930 . S
H871 C880 0.930 . S
H872 C885 0.929 . S
H873 C883 0.929 . S
H874 C878 0.940 . S
H875 C884 0.929 . S
C876 H870 0.930 . S
C876 C877 1.367 . S
C876 C884 1.378 . S
C877 C876 1.367 . S
C877 C885 1.433 . S
C878 H874 0.940 . S
C878 C880 1.365 1_565 S
C878 C882 1.351 . S
C879 C882 1.463 . S
C879 C884 1.350 . S
C879 N887 1.427 . S
C880 H871 0.930 . S
C880 C878 1.365 1_545 S
C880 C881 1.367 . S
C881 C880 1.367 . S
C881 C883 1.433 . S
C882 C878 1.351 . S
C882 C879 1.463 . S
C882 N886 1.427 1_565 S
C883 H873 0.929 . S
C883 C881 1.433 . S
C883 N886 1.384 . S
C884 H875 0.929 . S
C884 C876 1.378 . S
C884 C879 1.350 . S
C885 H872 0.929 . S
C885 C877 1.433 . S
C885 N887 1.384 . S
N886 C882 1.427 1_545 S
N886 C883 1.384 . S
N887 C879 1.427 . S
N887 C885 1.384 . S
H888 C894 0.930 . S
H889 C898 0.930 . S
H890 C903 0.929 . S
H891 C901 0.929 . S
H892 C896 0.929 . S
H893 C902 0.929 . S
C894 H888 0.930 . S
C894 C895 1.367 . S
C894 C902 1.378 . S
C895 C894 1.367 . S
C895 C903 1.433 . S
C896 H892 0.929 . S
C896 C898 1.378 . S
C896 C900 1.350 . S
C897 C900 1.463 . S
C897 C902 1.350 . S
C897 N905 1.427 . S
C898 H889 0.930 . S
C898 C896 1.378 . S
C898 C899 1.367 . S
C899 C898 1.367 . S
C899 C901 1.433 . S
C900 C896 1.350 . S
C900 C897 1.463 . S
C900 N904 1.427 . S
C901 H891 0.929 . S
C901 C899 1.433 . S
C901 N904 1.384 . S
C902 H893 0.929 . S
C902 C894 1.378 . S
C902 C897 1.350 . S
C903 H890 0.929 . S
C903 C895 1.433 . S
C903 N905 1.384 . S
N904 C900 1.427 . S
N904 C901 1.384 . S
N905 C897 1.427 . S
N905 C903 1.384 . S
H906 C912 0.930 . S
H907 C916 0.930 . S
H908 C921 0.929 1_556 S
H909 C919 0.929 . S
H910 C914 0.929 . S
H911 C920 0.929 . S
C912 H906 0.930 . S
C912 C913 1.367 . S
C912 C920 1.378 . S
C913 C912 1.367 . S
C913 C921 1.433 . S
C914 H910 0.929 . S
C914 C916 1.378 . S
C914 C918 1.350 . S
C915 C918 1.463 . S
C915 C920 1.350 . S
C915 N923 1.427 . S
C916 H907 0.930 . S
C916 C914 1.378 . S
C916 C917 1.367 . S
C917 C916 1.367 . S
C917 C919 1.433 . S
C918 C914 1.350 . S
C918 C915 1.463 . S
C918 N922 1.427 . S
C919 H909 0.929 . S
C919 C917 1.433 . S
C919 N922 1.384 . S
C920 H911 0.929 . S
C920 C912 1.378 . S
C920 C915 1.350 . S
C921 H908 0.929 1_554 S
C921 C913 1.433 . S
C921 N923 1.384 . S
N922 C918 1.427 . S
N922 C919 1.384 . S
N923 C915 1.427 . S
N923 C921 1.384 . S
H924 C930 0.930 . S
H925 C934 0.930 . S
H926 C939 0.929 . S
H927 C937 0.929 . S
H928 C932 0.929 . S
H929 C938 0.929 . S
C930 H924 0.930 . S
C930 C931 1.367 . S
C930 C938 1.378 . S
C931 C930 1.367 . S
C931 C939 1.433 . S
C932 H928 0.929 . S
C932 C934 1.378 . S
C932 C936 1.350 . S
C933 C936 1.463 . S
C933 C938 1.350 . S
C933 N941 1.427 . S
C934 H925 0.930 . S
C934 C932 1.378 . S
C934 C935 1.367 . S
C935 C934 1.367 . S
C935 C937 1.433 . S
C936 C932 1.350 . S
C936 C933 1.463 . S
C936 N940 1.427 . S
C937 H927 0.929 . S
C937 C935 1.433 . S
C937 N940 1.384 . S
C938 H929 0.929 . S
C938 C930 1.378 . S
C938 C933 1.350 . S
C939 H926 0.929 . S
C939 C931 1.433 . S
C939 N941 1.384 . S
N940 C936 1.427 . S
N940 C937 1.384 . S
N941 C933 1.427 . S
N941 C939 1.384 . S
H942 C948 0.930 . S
H943 C952 0.930 . S
H944 C957 0.929 1_556 S
H945 C955 0.929 . S
H946 C950 0.929 . S
H947 C956 0.929 . S
C948 H942 0.930 . S
C948 C949 1.367 . S
C948 C956 1.378 . S
C949 C948 1.367 . S
C949 C957 1.433 . S
C950 H946 0.929 . S
C950 C952 1.378 . S
C950 C954 1.350 . S
C951 C954 1.463 . S
C951 C956 1.350 1_565 S
C951 N959 1.427 . S
C952 H943 0.930 . S
C952 C950 1.378 . S
C952 C953 1.367 . S
C953 C952 1.367 . S
C953 C955 1.433 . S
C954 C950 1.350 . S
C954 C951 1.463 . S
C954 N958 1.427 . S
C955 H945 0.929 . S
C955 C953 1.433 . S
C955 N958 1.384 . S
C956 H947 0.929 . S
C956 C948 1.378 . S
C956 C951 1.350 1_545 S
C957 H944 0.929 1_554 S
C957 C949 1.433 . S
C957 N959 1.384 1_545 S
N958 C954 1.427 . S
N958 C955 1.384 . S
N959 C951 1.427 . S
N959 C957 1.384 1_565 S
H960 C966 0.930 . S
H961 C970 0.930 . S
H962 C975 0.929 . S
H963 C973 0.929 . S
H964 C968 0.929 . S
H965 C974 0.929 . S
C966 H960 0.930 . S
C966 C967 1.367 . S
C966 C974 1.378 . S
C967 C966 1.367 . S
C967 C975 1.433 . S
C968 H964 0.929 . S
C968 C970 1.378 . S
C968 C972 1.350 . S
C969 C972 1.463 . S
C969 C974 1.350 . S
C969 N977 1.427 . S
C970 H961 0.930 . S
C970 C968 1.378 . S
C970 C971 1.367 . S
C971 C970 1.367 . S
C971 C973 1.433 . S
C972 C968 1.350 . S
C972 C969 1.463 . S
C972 N976 1.427 . S
C973 H963 0.929 . S
C973 C971 1.433 . S
C973 N976 1.384 . S
C974 H965 0.929 . S
C974 C966 1.378 . S
C974 C969 1.350 . S
C975 H962 0.929 . S
C975 C967 1.433 . S
C975 N977 1.384 . S
N976 C972 1.427 . S
N976 C973 1.384 . S
N977 C969 1.427 . S
N977 C975 1.384 . S
H978 C984 0.930 . S
H979 C988 0.930 . S
H980 C993 0.929 . S
H981 C991 0.929 . S
H982 C986 0.929 . S
H983 C992 0.929 . S
C984 H978 0.930 . S
C984 C985 1.367 . S
C984 C992 1.378 . S
C985 C984 1.367 . S
C985 C993 1.433 . S
C986 H982 0.929 . S
C986 C988 1.378 . S
C986 C990 1.350 . S
C987 C990 1.463 . S
C987 C992 1.350 . S
C987 N995 1.427 . S
C988 H979 0.930 . S
C988 C986 1.378 . S
C988 C989 1.367 . S
C989 C988 1.367 . S
C989 C991 1.433 . S
C990 C986 1.350 . S
C990 C987 1.463 . S
C990 N994 1.427 . S
C991 H981 0.929 . S
C991 C989 1.433 . S
C991 N994 1.384 . S
C992 H983 0.929 . S
C992 C984 1.378 . S
C992 C987 1.350 . S
C993 H980 0.929 . S
C993 C985 1.433 . S
C993 N995 1.384 . S
N994 C990 1.427 . S
N994 C991 1.384 . S
N995 C987 1.427 . S
N995 C993 1.384 . S
H996 C1002 0.930 . S
H997 C1006 0.930 . S
H998 C1011 0.929 . S
H999 C1009 0.929 . S
H1000 C1004 0.929 . S
H1001 C1010 0.929 . S
C1002 H996 0.930 . S
C1002 C1003 1.367 . S
C1002 C1010 1.378 . S
C1003 C1002 1.367 . S
C1003 C1011 1.433 . S
C1004 H1000 0.929 . S
C1004 C1006 1.378 . S
C1004 C1008 1.350 . S
C1005 C1008 1.463 1_655 S
C1005 C1010 1.350 . S
C1005 N1013 1.427 . S
C1006 H997 0.930 . S
C1006 C1004 1.378 . S
C1006 C1007 1.367 . S
C1007 C1006 1.367 . S
C1007 C1009 1.433 . S
C1008 C1004 1.350 . S
C1008 C1005 1.463 1_455 S
C1008 N1012 1.429 . S
C1009 H999 0.929 . S
C1009 C1007 1.433 . S
C1009 N1012 1.387 . S
C1010 H1001 0.929 . S
C1010 C1002 1.378 . S
C1010 C1005 1.350 . S
C1011 H998 0.929 . S
C1011 C1003 1.433 . S
C1011 N1013 1.384 . S
N1012 C1008 1.429 . S
N1012 C1009 1.387 . S
N1013 C1005 1.427 . S
N1013 C1011 1.384 . S
H1014 C1020 0.930 . S
H1015 C1024 0.930 . S
H1016 C1029 0.929 . S
H1017 C1027 0.929 . S
H1018 C1022 0.929 . S
H1019 C1028 0.929 . S
C1020 H1014 0.930 . S
C1020 C1021 1.367 . S
C1020 C1028 1.378 . S
C1021 C1020 1.367 . S
C1021 C1029 1.433 . S
C1022 H1018 0.929 . S
C1022 C1024 1.378 . S
C1022 C1026 1.350 . S
C1023 C1026 1.463 . S
C1023 C1028 1.350 . S
C1023 N1031 1.427 . S
C1024 H1015 0.930 . S
C1024 C1022 1.378 . S
C1024 C1025 1.367 . S
C1025 C1024 1.367 . S
C1025 C1027 1.433 . S
C1026 C1022 1.350 . S
C1026 C1023 1.463 . S
C1026 N1030 1.427 . S
C1027 H1017 0.929 . S
C1027 C1025 1.433 . S
C1027 N1030 1.384 . S
C1028 H1019 0.929 . S
C1028 C1020 1.378 . S
C1028 C1023 1.350 . S
C1029 H1016 0.929 . S
C1029 C1021 1.433 . S
C1029 N1031 1.384 . S
N1030 C1026 1.427 . S
N1030 C1027 1.384 . S
N1031 C1023 1.427 . S
N1031 C1029 1.384 . S
H1032 C1038 0.930 . S
H1033 C1042 0.930 . S
H1034 C1047 0.929 . S
H1035 C1045 0.929 . S
H1036 C1040 0.929 . S
H1037 C1046 0.929 . S
C1038 H1032 0.930 . S
C1038 C1039 1.367 . S
C1038 C1046 1.378 . S
C1039 C1038 1.367 . S
C1039 C1047 1.433 . S
C1040 H1036 0.929 . S
C1040 C1042 1.378 . S
C1040 C1044 1.350 . S
C1041 C1044 1.463 . S
C1041 C1046 1.350 . S
C1041 N1049 1.427 . S
C1042 H1033 0.930 . S
C1042 C1040 1.378 . S
C1042 C1043 1.367 . S
C1043 C1042 1.367 . S
C1043 C1045 1.433 . S
C1044 C1040 1.350 . S
C1044 C1041 1.463 . S
C1044 N1048 1.427 . S
C1045 H1035 0.929 . S
C1045 C1043 1.433 . S
C1045 N1048 1.384 . S
C1046 H1037 0.929 . S
C1046 C1038 1.378 . S
C1046 C1041 1.350 . S
C1047 H1034 0.929 . S
C1047 C1039 1.433 . S
C1047 N1049 1.384 . S
N1048 C1044 1.427 . S
N1048 C1045 1.384 . S
N1049 C1041 1.427 . S
N1049 C1047 1.384 . S
H1050 C1056 0.930 . S
H1051 C1060 0.930 . S
H1052 C1065 0.929 . S
H1053 C1063 0.929 . S
H1054 C1058 0.929 . S
H1055 C1064 0.929 . S
C1056 H1050 0.930 . S
C1056 C1057 1.367 . S
C1056 C1064 1.378 . S
C1057 C1056 1.367 . S
C1057 C1065 1.433 . S
C1058 H1054 0.929 . S
C1058 C1060 1.378 . S
C1058 C1062 1.350 . S
C1059 C1062 1.463 . S
C1059 C1064 1.350 . S
C1059 N1067 1.427 . S
C1060 H1051 0.930 . S
C1060 C1058 1.378 . S
C1060 C1061 1.367 . S
C1061 C1060 1.367 . S
C1061 C1063 1.433 . S
C1062 C1058 1.350 . S
C1062 C1059 1.463 . S
C1062 N1066 1.427 . S
C1063 H1053 0.929 . S
C1063 C1061 1.433 . S
C1063 N1066 1.384 . S
C1064 H1055 0.929 . S
C1064 C1056 1.378 . S
C1064 C1059 1.350 . S
C1065 H1052 0.929 . S
C1065 C1057 1.433 . S
C1065 N1067 1.384 . S
N1066 C1062 1.427 . S
N1066 C1063 1.384 . S
N1067 C1059 1.427 . S
N1067 C1065 1.384 . S
H1068 C1074 0.930 . S
H1069 C1078 0.930 . S
H1070 C1083 0.929 . S
H1071 C1081 0.929 . S
H1072 C1076 0.929 . S
H1073 C1082 0.929 . S
C1074 H1068 0.930 . S
C1074 C1075 1.367 . S
C1074 C1082 1.378 . S
C1075 C1074 1.367 . S
C1075 C1083 1.433 . S
C1076 H1072 0.929 . S
C1076 C1078 1.378 . S
C1076 C1080 1.350 . S
C1077 C1080 1.463 1_455 S
C1077 C1082 1.350 . S
C1077 N1085 1.427 . S
C1078 H1069 0.930 . S
C1078 C1076 1.378 . S
C1078 C1079 1.367 . S
C1079 C1078 1.367 . S
C1079 C1081 1.433 . S
C1080 C1076 1.350 . S
C1080 C1077 1.463 1_655 S
C1080 N1084 1.427 . S
C1081 H1071 0.929 . S
C1081 C1079 1.433 . S
C1081 N1084 1.384 . S
C1082 H1073 0.929 . S
C1082 C1074 1.378 . S
C1082 C1077 1.350 . S
C1083 H1070 0.929 . S
C1083 C1075 1.433 . S
C1083 N1085 1.384 . S
N1084 C1080 1.427 . S
N1084 C1081 1.384 . S
N1085 C1077 1.427 . S
N1085 C1083 1.384 . S
H1086 C1092 0.930 . S
H1087 C1096 0.930 . S
H1088 C1101 0.929 . S
H1089 C1099 0.929 . S
H1090 C1094 0.929 . S
H1091 C1100 0.909 1_455 S
C1092 H1086 0.930 . S
C1092 C1093 1.367 . S
C1092 C1100 1.378 . S
C1093 C1092 1.367 . S
C1093 C1101 1.433 . S
C1094 H1090 0.929 . S
C1094 C1096 1.378 . S
C1094 C1098 1.350 . S
C1095 C1098 1.463 1_655 S
C1095 C1100 1.350 . S
C1095 N1103 1.427 . S
C1096 H1087 0.930 . S
C1096 C1094 1.378 . S
C1096 C1097 1.367 . S
C1097 C1096 1.367 . S
C1097 C1099 1.433 . S
C1098 C1094 1.350 . S
C1098 C1095 1.463 1_455 S
C1098 N1102 1.427 . S
C1099 H1089 0.929 . S
C1099 C1097 1.433 . S
C1099 N1102 1.384 . S
C1100 H1091 0.909 1_655 S
C1100 C1092 1.378 . S
C1100 C1095 1.350 . S
C1101 H1088 0.929 . S
C1101 C1093 1.433 . S
C1101 N1103 1.384 . S
N1102 C1098 1.427 . S
N1102 C1099 1.384 . S
N1103 C1095 1.427 . S
N1103 C1101 1.384 . S
H1104 C1110 0.930 . S
H1105 C1114 0.930 . S
H1106 C1119 0.929 . S
H1107 C1117 0.929 . S
H1108 C1112 0.929 . S
H1109 C1118 0.929 . S
C1110 H1104 0.930 . S
C1110 C1111 1.367 . S
C1110 C1118 1.378 . S
C1111 C1110 1.367 . S
C1111 C1119 1.433 . S
C1112 H1108 0.929 . S
C1112 C1114 1.378 . S
C1112 C1116 1.350 . S
C1113 C1116 1.463 . S
C1113 C1118 1.350 . S
C1113 N1121 1.427 . S
C1114 H1105 0.930 . S
C1114 C1112 1.378 . S
C1114 C1115 1.367 . S
C1115 C1114 1.367 . S
C1115 C1117 1.433 . S
C1116 C1112 1.350 . S
C1116 C1113 1.463 . S
C1116 N1120 1.427 . S
C1117 H1107 0.929 . S
C1117 C1115 1.433 . S
C1117 N1120 1.384 . S
C1118 H1109 0.929 . S
C1118 C1110 1.378 . S
C1118 C1113 1.350 . S
C1119 H1106 0.929 . S
C1119 C1111 1.433 . S
C1119 N1121 1.384 . S
N1120 C1116 1.427 . S
N1120 C1117 1.384 . S
N1121 C1113 1.427 . S
N1121 C1119 1.384 . S
H1122 C1128 0.930 . S
H1123 C1132 0.930 . S
H1124 C1137 0.929 . S
H1125 C1135 0.929 . S
H1126 C1130 0.929 . S
H1127 C1136 0.929 . S
C1128 H1122 0.930 . S
C1128 C1129 1.367 . S
C1128 C1136 1.378 . S
C1129 C1128 1.367 . S
C1129 C1137 1.433 . S
C1130 H1126 0.929 . S
C1130 C1132 1.378 . S
C1130 C1134 1.350 . S
C1131 C1134 1.463 . S
C1131 C1136 1.350 . S
C1131 N1139 1.427 . S
C1132 H1123 0.930 . S
C1132 C1130 1.378 . S
C1132 C1133 1.367 . S
C1133 C1132 1.367 . S
C1133 C1135 1.433 . S
C1134 C1130 1.350 . S
C1134 C1131 1.463 . S
C1134 N1138 1.427 . S
C1135 H1125 0.929 . S
C1135 C1133 1.433 . S
C1135 N1138 1.384 . S
C1136 H1127 0.929 . S
C1136 C1128 1.378 . S
C1136 C1131 1.350 . S
C1137 H1124 0.929 . S
C1137 C1129 1.433 . S
C1137 N1139 1.384 . S
N1138 C1134 1.427 . S
N1138 C1135 1.384 . S
N1139 C1131 1.427 . S
N1139 C1137 1.384 . S
H1140 C1146 0.930 . S
H1141 C1150 0.930 . S
H1142 C1155 0.929 . S
H1143 C1153 0.929 . S
H1144 C1148 0.929 . S
H1145 C1154 0.929 . S
C1146 H1140 0.930 . S
C1146 C1147 1.367 . S
C1146 C1154 1.378 . S
C1147 C1146 1.367 . S
C1147 C1155 1.433 . S
C1148 H1144 0.929 . S
C1148 C1150 1.378 . S
C1148 C1152 1.350 . S
C1149 C1152 1.463 . S
C1149 C1154 1.350 . S
C1149 N1157 1.427 . S
C1150 H1141 0.930 . S
C1150 C1148 1.378 . S
C1150 C1151 1.367 . S
C1151 C1150 1.367 . S
C1151 C1153 1.433 . S
C1152 C1148 1.350 . S
C1152 C1149 1.463 . S
C1152 N1156 1.427 . S
C1153 H1143 0.929 . S
C1153 C1151 1.433 . S
C1153 N1156 1.384 . S
C1154 H1145 0.929 . S
C1154 C1146 1.378 . S
C1154 C1149 1.350 . S
C1155 H1142 0.929 . S
C1155 C1147 1.433 . S
C1155 N1157 1.384 . S
N1156 C1152 1.427 . S
N1156 C1153 1.384 . S
N1157 C1149 1.427 . S
N1157 C1155 1.384 . S
H1158 C1164 0.930 . S
H1159 C1168 0.930 . S
H1160 C1173 0.929 . S
H1161 C1171 0.929 . S
H1162 C1166 0.929 . S
H1163 C1172 0.929 . S
C1164 H1158 0.930 . S
C1164 C1165 1.367 . S
C1164 C1172 1.378 . S
C1165 C1164 1.367 . S
C1165 C1173 1.433 . S
C1166 H1162 0.929 . S
C1166 C1168 1.378 . S
C1166 C1170 1.350 . S
C1167 C1170 1.463 . S
C1167 C1172 1.350 . S
C1167 N1175 1.427 . S
C1168 H1159 0.930 . S
C1168 C1166 1.378 . S
C1168 C1169 1.367 . S
C1169 C1168 1.367 . S
C1169 C1171 1.433 . S
C1170 C1166 1.350 . S
C1170 C1167 1.463 . S
C1170 N1174 1.427 . S
C1171 H1161 0.929 . S
C1171 C1169 1.433 . S
C1171 N1174 1.384 . S
C1172 H1163 0.929 . S
C1172 C1164 1.378 . S
C1172 C1167 1.350 . S
C1173 H1160 0.929 . S
C1173 C1165 1.433 . S
C1173 N1175 1.384 . S
N1174 C1170 1.427 . S
N1174 C1171 1.384 . S
N1175 C1167 1.427 . S
N1175 C1173 1.384 . S
H1176 C1182 0.930 . S
H1177 C1186 0.930 . S
H1178 C1191 0.929 . S
H1179 C1189 0.929 . S
H1180 C1184 0.929 . S
H1181 C1190 0.929 . S
C1182 H1176 0.930 . S
C1182 C1183 1.367 . S
C1182 C1190 1.378 . S
C1183 C1182 1.367 . S
C1183 C1191 1.433 . S
C1184 H1180 0.929 . S
C1184 C1186 1.378 . S
C1184 C1188 1.350 . S
C1185 C1188 1.463 . S
C1185 C1190 1.350 . S
C1185 N1193 1.427 . S
C1186 H1177 0.930 . S
C1186 C1184 1.378 . S
C1186 C1187 1.367 . S
C1187 C1186 1.367 . S
C1187 C1189 1.433 . S
C1188 C1184 1.350 . S
C1188 C1185 1.463 . S
C1188 N1192 1.427 . S
C1189 H1179 0.929 . S
C1189 C1187 1.433 . S
C1189 N1192 1.384 . S
C1190 H1181 0.929 . S
C1190 C1182 1.378 . S
C1190 C1185 1.350 . S
C1191 H1178 0.929 . S
C1191 C1183 1.433 . S
C1191 N1193 1.384 . S
N1192 C1188 1.427 . S
N1192 C1189 1.384 . S
N1193 C1185 1.427 . S
N1193 C1191 1.384 . S
H1194 C1200 0.930 . S
H1195 C1204 0.930 . S
H1196 C1209 0.929 . S
H1197 C1207 0.929 . S
H1198 C1202 0.929 . S
H1199 C1208 0.929 . S
C1200 H1194 0.930 . S
C1200 C1201 1.367 . S
C1200 C1208 1.378 . S
C1201 C1200 1.367 . S
C1201 C1209 1.433 . S
C1202 H1198 0.929 . S
C1202 C1204 1.378 . S
C1202 C1206 1.350 . S
C1203 C1206 1.463 . S
C1203 C1208 1.350 . S
C1203 N1211 1.427 . S
C1204 H1195 0.930 . S
C1204 C1202 1.378 . S
C1204 C1205 1.367 . S
C1205 C1204 1.367 . S
C1205 C1207 1.433 . S
C1206 C1202 1.350 . S
C1206 C1203 1.463 . S
C1206 N1210 1.427 . S
C1207 H1197 0.929 . S
C1207 C1205 1.433 . S
C1207 N1210 1.384 . S
C1208 H1199 0.929 . S
C1208 C1200 1.378 . S
C1208 C1203 1.350 . S
C1209 H1196 0.929 . S
C1209 C1201 1.433 . S
C1209 N1211 1.384 . S
N1210 C1206 1.427 . S
N1210 C1207 1.384 . S
N1211 C1203 1.427 . S
N1211 C1209 1.384 . S
H1212 C1218 0.930 . S
H1213 C1222 0.930 . S
H1214 C1227 0.929 . S
H1215 C1225 0.929 . S
H1216 C1220 0.929 . S
H1217 C1226 0.929 . S
C1218 H1212 0.930 . S
C1218 C1219 1.367 . S
C1218 C1226 1.378 . S
C1219 C1218 1.367 . S
C1219 C1227 1.433 . S
C1220 H1216 0.929 . S
C1220 C1222 1.378 . S
C1220 C1224 1.350 . S
C1221 C1224 1.463 . S
C1221 C1226 1.350 . S
C1221 N1229 1.427 . S
C1222 H1213 0.930 . S
C1222 C1220 1.378 . S
C1222 C1223 1.367 . S
C1223 C1222 1.367 . S
C1223 C1225 1.433 . S
C1224 C1220 1.350 . S
C1224 C1221 1.463 . S
C1224 N1228 1.427 . S
C1225 H1215 0.929 . S
C1225 C1223 1.433 . S
C1225 N1228 1.384 . S
C1226 H1217 0.929 . S
C1226 C1218 1.378 . S
C1226 C1221 1.350 . S
C1227 H1214 0.929 . S
C1227 C1219 1.433 . S
C1227 N1229 1.384 . S
N1228 C1224 1.427 . S
N1228 C1225 1.384 . S
N1229 C1221 1.427 . S
N1229 C1227 1.384 . S
H1230 C1236 0.930 . S
H1231 C1240 0.930 . S
H1232 C1245 0.929 . S
H1233 C1243 0.929 . S
H1234 C1238 0.929 . S
H1235 C1244 0.929 . S
C1236 H1230 0.930 . S
C1236 C1237 1.367 . S
C1236 C1244 1.378 . S
C1237 C1236 1.367 . S
C1237 C1245 1.433 . S
C1238 H1234 0.929 . S
C1238 C1240 1.378 . S
C1238 C1242 1.350 . S
C1239 C1242 1.463 . S
C1239 C1244 1.350 . S
C1239 N1247 1.427 . S
C1240 H1231 0.930 . S
C1240 C1238 1.378 . S
C1240 C1241 1.367 . S
C1241 C1240 1.367 . S
C1241 C1243 1.433 . S
C1242 C1238 1.350 . S
C1242 C1239 1.463 . S
C1242 N1246 1.427 . S
C1243 H1233 0.929 . S
C1243 C1241 1.433 . S
C1243 N1246 1.384 . S
C1244 H1235 0.929 . S
C1244 C1236 1.378 . S
C1244 C1239 1.350 . S
C1245 H1232 0.929 . S
C1245 C1237 1.433 . S
C1245 N1247 1.384 . S
N1246 C1242 1.427 . S
N1246 C1243 1.384 . S
N1247 C1239 1.427 . S
N1247 C1245 1.384 . S
H1248 C1254 0.930 . S
H1249 C1258 0.930 . S
H1250 C1263 0.929 . S
H1251 C1261 0.929 . S
H1252 C1256 0.929 . S
H1253 C1262 0.929 . S
C1254 H1248 0.930 . S
C1254 C1255 1.367 . S
C1254 C1262 1.378 . S
C1255 C1254 1.367 . S
C1255 C1263 1.433 . S
C1256 H1252 0.929 . S
C1256 C1258 1.378 . S
C1256 C1260 1.350 . S
C1257 C1260 1.463 . S
C1257 C1262 1.350 . S
C1257 N1265 1.427 . S
C1258 H1249 0.930 . S
C1258 C1256 1.378 . S
C1258 C1259 1.367 . S
C1259 C1258 1.367 . S
C1259 C1261 1.433 . S
C1260 C1256 1.350 . S
C1260 C1257 1.463 . S
C1260 N1264 1.427 . S
C1261 H1251 0.929 . S
C1261 C1259 1.433 . S
C1261 N1264 1.384 . S
C1262 H1253 0.929 . S
C1262 C1254 1.378 . S
C1262 C1257 1.350 . S
C1263 H1250 0.929 . S
C1263 C1255 1.433 . S
C1263 N1265 1.384 . S
N1264 C1260 1.427 . S
N1264 C1261 1.384 . S
N1265 C1257 1.427 . S
N1265 C1263 1.384 . S
H1266 C1272 0.930 . S
H1267 C1276 0.930 . S
H1268 C1281 0.929 . S
H1269 C1279 0.929 . S
H1270 C1274 0.929 . S
H1271 C1280 0.940 . S
C1272 H1266 0.930 . S
C1272 C1273 1.367 . S
C1272 C1280 1.358 1_565 S
C1273 C1272 1.367 . S
C1273 C1281 1.433 . S
C1274 H1270 0.929 . S
C1274 C1276 1.378 . S
C1274 C1278 1.350 . S
C1275 C1278 1.463 . S
C1275 C1280 1.359 . S
C1275 N1283 1.427 1_545 S
C1276 H1267 0.930 . S
C1276 C1274 1.378 . S
C1276 C1277 1.367 . S
C1277 C1276 1.367 . S
C1277 C1279 1.433 . S
C1278 C1274 1.350 . S
C1278 C1275 1.463 . S
C1278 N1282 1.427 . S
C1279 H1269 0.929 . S
C1279 C1277 1.433 . S
C1279 N1282 1.384 . S
C1280 H1271 0.940 . S
C1280 C1272 1.358 1_545 S
C1280 C1275 1.359 . S
C1281 H1268 0.929 . S
C1281 C1273 1.433 . S
C1281 N1283 1.384 . S
N1282 C1278 1.427 . S
N1282 C1279 1.384 . S
N1283 C1275 1.427 1_565 S
N1283 C1281 1.384 . S
H1284 C1290 0.930 . S
H1285 C1294 0.930 . S
H1286 C1299 0.929 . S
H1287 C1297 0.929 . S
H1288 C1292 0.929 . S
H1289 C1298 0.929 . S
C1290 H1284 0.930 . S
C1290 C1291 1.367 . S
C1290 C1298 1.378 . S
C1291 C1290 1.367 . S
C1291 C1299 1.433 . S
C1292 H1288 0.929 . S
C1292 C1294 1.378 . S
C1292 C1296 1.350 . S
C1293 C1296 1.463 . S
C1293 C1298 1.350 . S
C1293 N1301 1.427 . S
C1294 H1285 0.930 . S
C1294 C1292 1.378 . S
C1294 C1295 1.367 . S
C1295 C1294 1.367 . S
C1295 C1297 1.433 . S
C1296 C1292 1.350 . S
C1296 C1293 1.463 . S
C1296 N1300 1.427 . S
C1297 H1287 0.929 . S
C1297 C1295 1.433 . S
C1297 N1300 1.384 . S
C1298 H1289 0.929 . S
C1298 C1290 1.378 . S
C1298 C1293 1.350 . S
C1299 H1286 0.929 . S
C1299 C1291 1.433 . S
C1299 N1301 1.384 . S
N1300 C1296 1.427 . S
N1300 C1297 1.384 . S
N1301 C1293 1.427 . S
N1301 C1299 1.384 . S
H1302 C1308 0.930 . S
H1303 C1312 0.930 . S
H1304 C1317 0.929 . S
H1305 C1315 0.929 . S
H1306 C1310 0.929 . S
H1307 C1316 0.929 . S
C1308 H1302 0.930 . S
C1308 C1309 1.367 . S
C1308 C1316 1.378 . S
C1309 C1308 1.367 . S
C1309 C1317 1.433 . S
C1310 H1306 0.929 . S
C1310 C1312 1.378 . S
C1310 C1314 1.350 . S
C1311 C1314 1.463 . S
C1311 C1316 1.350 . S
C1311 N1319 1.427 . S
C1312 H1303 0.930 . S
C1312 C1310 1.378 . S
C1312 C1313 1.367 . S
C1313 C1312 1.367 . S
C1313 C1315 1.433 . S
C1314 C1310 1.350 . S
C1314 C1311 1.463 . S
C1314 N1318 1.427 . S
C1315 H1305 0.929 . S
C1315 C1313 1.433 . S
C1315 N1318 1.384 . S
C1316 H1307 0.929 . S
C1316 C1308 1.378 . S
C1316 C1311 1.350 . S
C1317 H1304 0.929 . S
C1317 C1309 1.433 . S
C1317 N1319 1.384 . S
N1318 C1314 1.427 . S
N1318 C1315 1.384 . S
N1319 C1311 1.427 . S
N1319 C1317 1.384 . S
H1320 C1326 0.930 . S
H1321 C1330 0.930 . S
H1322 C1335 0.929 . S
H1323 C1333 0.929 . S
H1324 C1328 0.929 . S
H1325 C1334 0.929 . S
C1326 H1320 0.930 . S
C1326 C1327 1.367 . S
C1326 C1334 1.378 . S
C1327 C1326 1.367 . S
C1327 C1335 1.433 . S
C1328 H1324 0.929 . S
C1328 C1330 1.378 . S
C1328 C1332 1.350 . S
C1329 C1332 1.463 . S
C1329 C1334 1.350 . S
C1329 N1337 1.427 . S
C1330 H1321 0.930 . S
C1330 C1328 1.378 . S
C1330 C1331 1.367 . S
C1331 C1330 1.367 . S
C1331 C1333 1.433 . S
C1332 C1328 1.350 . S
C1332 C1329 1.463 . S
C1332 N1336 1.427 . S
C1333 H1323 0.929 . S
C1333 C1331 1.433 . S
C1333 N1336 1.384 . S
C1334 H1325 0.929 . S
C1334 C1326 1.378 . S
C1334 C1329 1.350 . S
C1335 H1322 0.929 . S
C1335 C1327 1.433 . S
C1335 N1337 1.384 . S
N1336 C1332 1.427 . S
N1336 C1333 1.384 . S
N1337 C1329 1.427 . S
N1337 C1335 1.384 . S
H1338 C1344 0.930 . S
H1339 C1348 0.930 . S
H1340 C1353 0.929 . S
H1341 C1351 0.929 . S
H1342 C1346 0.929 . S
H1343 C1352 0.929 . S
C1344 H1338 0.930 . S
C1344 C1345 1.367 . S
C1344 C1352 1.378 . S
C1345 C1344 1.367 . S
C1345 C1353 1.433 . S
C1346 H1342 0.929 . S
C1346 C1348 1.378 . S
C1346 C1350 1.350 . S
C1347 C1350 1.463 . S
C1347 C1352 1.350 1_545 S
C1347 N1355 1.427 . S
C1348 H1339 0.930 . S
C1348 C1346 1.378 . S
C1348 C1349 1.367 . S
C1349 C1348 1.367 . S
C1349 C1351 1.433 . S
C1350 C1346 1.350 . S
C1350 C1347 1.463 . S
C1350 N1354 1.427 . S
C1351 H1341 0.929 . S
C1351 C1349 1.433 . S
C1351 N1354 1.384 . S
C1352 H1343 0.929 . S
C1352 C1344 1.378 . S
C1352 C1347 1.350 1_565 S
C1353 H1340 0.929 . S
C1353 C1345 1.433 . S
C1353 N1355 1.384 1_565 S
N1354 C1350 1.427 . S
N1354 C1351 1.384 . S
N1355 C1347 1.427 . S
N1355 C1353 1.384 1_545 S
H1356 C1362 0.930 . S
H1357 C1366 0.930 . S
H1358 C1371 0.929 . S
H1359 C1369 0.929 . S
H1360 C1364 0.929 . S
H1361 C1370 0.929 . S
C1362 H1356 0.930 . S
C1362 C1363 1.367 . S
C1362 C1370 1.378 . S
C1363 C1362 1.367 . S
C1363 C1371 1.433 . S
C1364 H1360 0.929 . S
C1364 C1366 1.378 . S
C1364 C1368 1.350 . S
C1365 C1368 1.463 . S
C1365 C1370 1.350 . S
C1365 N1373 1.427 . S
C1366 H1357 0.930 . S
C1366 C1364 1.378 . S
C1366 C1367 1.367 . S
C1367 C1366 1.367 . S
C1367 C1369 1.433 . S
C1368 C1364 1.350 . S
C1368 C1365 1.463 . S
C1368 N1372 1.427 . S
C1369 H1359 0.929 . S
C1369 C1367 1.433 . S
C1369 N1372 1.384 . S
C1370 H1361 0.929 . S
C1370 C1362 1.378 . S
C1370 C1365 1.350 . S
C1371 H1358 0.929 . S
C1371 C1363 1.433 . S
C1371 N1373 1.384 . S
N1372 C1368 1.427 . S
N1372 C1369 1.384 . S
N1373 C1365 1.427 . S
N1373 C1371 1.384 . S
H1374 C1380 0.930 . S
H1375 C1384 0.930 . S
H1376 C1389 0.929 . S
H1377 C1387 0.929 . S
H1378 C1382 0.929 . S
H1379 C1388 0.929 . S
C1380 H1374 0.930 . S
C1380 C1381 1.367 . S
C1380 C1388 1.378 . S
C1381 C1380 1.367 . S
C1381 C1389 1.433 . S
C1382 H1378 0.929 . S
C1382 C1384 1.378 . S
C1382 C1386 1.350 . S
C1383 C1386 1.463 . S
C1383 C1388 1.350 . S
C1383 N1391 1.427 . S
C1384 H1375 0.930 . S
C1384 C1382 1.378 . S
C1384 C1385 1.367 . S
C1385 C1384 1.367 . S
C1385 C1387 1.433 . S
C1386 C1382 1.350 . S
C1386 C1383 1.463 . S
C1386 N1390 1.427 . S
C1387 H1377 0.929 . S
C1387 C1385 1.433 . S
C1387 N1390 1.384 . S
C1388 H1379 0.929 . S
C1388 C1380 1.378 . S
C1388 C1383 1.350 . S
C1389 H1376 0.929 . S
C1389 C1381 1.433 . S
C1389 N1391 1.384 . S
N1390 C1386 1.427 . S
N1390 C1387 1.384 . S
N1391 C1383 1.427 . S
N1391 C1389 1.384 . S
H1392 C1398 0.930 . S
H1393 C1402 0.930 . S
H1394 C1407 0.929 . S
H1395 C1405 0.929 . S
H1396 C1400 0.929 . S
H1397 C1406 0.929 . S
C1398 H1392 0.930 . S
C1398 C1399 1.367 . S
C1398 C1406 1.378 . S
C1399 C1398 1.367 . S
C1399 C1407 1.433 . S
C1400 H1396 0.929 . S
C1400 C1402 1.378 . S
C1400 C1404 1.350 . S
C1401 C1404 1.463 . S
C1401 C1406 1.350 . S
C1401 N1409 1.427 . S
C1402 H1393 0.930 . S
C1402 C1400 1.378 . S
C1402 C1403 1.367 . S
C1403 C1402 1.367 . S
C1403 C1405 1.433 . S
C1404 C1400 1.350 . S
C1404 C1401 1.463 . S
C1404 N1408 1.427 . S
C1405 H1395 0.929 . S
C1405 C1403 1.433 . S
C1405 N1408 1.384 . S
C1406 H1397 0.929 . S
C1406 C1398 1.378 . S
C1406 C1401 1.350 . S
C1407 H1394 0.929 . S
C1407 C1399 1.433 . S
C1407 N1409 1.384 . S
N1408 C1404 1.427 . S
N1408 C1405 1.384 . S
N1409 C1401 1.427 . S
N1409 C1407 1.384 . S
H1410 C1416 0.930 . S
H1411 C1420 0.930 . S
H1412 C1425 0.929 . S
H1413 C1423 0.929 . S
H1414 C1418 0.929 . S
H1415 C1424 0.929 . S
C1416 H1410 0.930 . S
C1416 C1417 1.367 . S
C1416 C1424 1.378 . S
C1417 C1416 1.367 . S
C1417 C1425 1.433 . S
C1418 H1414 0.929 . S
C1418 C1420 1.378 . S
C1418 C1422 1.350 . S
C1419 C1422 1.463 . S
C1419 C1424 1.350 . S
C1419 N1427 1.427 . S
C1420 H1411 0.930 . S
C1420 C1418 1.378 . S
C1420 C1421 1.367 . S
C1421 C1420 1.367 . S
C1421 C1423 1.433 . S
C1422 C1418 1.350 . S
C1422 C1419 1.463 . S
C1422 N1426 1.427 . S
C1423 H1413 0.929 . S
C1423 C1421 1.433 . S
C1423 N1426 1.384 . S
C1424 H1415 0.929 . S
C1424 C1416 1.378 . S
C1424 C1419 1.350 . S
C1425 H1412 0.929 . S
C1425 C1417 1.433 . S
C1425 N1427 1.384 . S
N1426 C1422 1.427 . S
N1426 C1423 1.384 . S
N1427 C1419 1.427 . S
N1427 C1425 1.384 . S
H1428 C1434 0.930 . S
H1429 C1438 0.930 . S
H1430 C1443 0.929 . S
H1431 C1441 0.929 . S
H1432 C1436 0.929 . S
H1433 C1442 0.929 . S
C1434 H1428 0.930 . S
C1434 C1435 1.367 . S
C1434 C1442 1.378 . S
C1435 C1434 1.367 . S
C1435 C1443 1.433 . S
C1436 H1432 0.929 . S
C1436 C1438 1.378 . S
C1436 C1440 1.350 . S
C1437 C1440 1.463 . S
C1437 C1442 1.350 . S
C1437 N1445 1.427 . S
C1438 H1429 0.930 . S
C1438 C1436 1.378 . S
C1438 C1439 1.367 . S
C1439 C1438 1.367 . S
C1439 C1441 1.433 . S
C1440 C1436 1.350 . S
C1440 C1437 1.463 . S
C1440 N1444 1.427 . S
C1441 H1431 0.929 . S
C1441 C1439 1.433 . S
C1441 N1444 1.384 . S
C1442 H1433 0.929 . S
C1442 C1434 1.378 . S
C1442 C1437 1.350 . S
C1443 H1430 0.929 . S
C1443 C1435 1.433 . S
C1443 N1445 1.384 . S
N1444 C1440 1.427 . S
N1444 C1441 1.384 . S
N1445 C1437 1.427 . S
N1445 C1443 1.384 . S
H1446 C1452 0.930 . S
H1447 C1456 0.930 . S
H1448 C1461 0.929 . S
H1449 C1459 0.929 . S
H1450 C1454 0.929 . S
H1451 C1460 0.929 . S
C1452 H1446 0.930 . S
C1452 C1453 1.367 . S
C1452 C1460 1.378 . S
C1453 C1452 1.367 . S
C1453 C1461 1.433 . S
C1454 H1450 0.929 . S
C1454 C1456 1.378 . S
C1454 C1458 1.350 . S
C1455 C1458 1.463 . S
C1455 C1460 1.350 . S
C1455 N1463 1.427 . S
C1456 H1447 0.930 . S
C1456 C1454 1.378 . S
C1456 C1457 1.367 . S
C1457 C1456 1.367 . S
C1457 C1459 1.433 . S
C1458 C1454 1.350 . S
C1458 C1455 1.463 . S
C1458 N1462 1.427 . S
C1459 H1449 0.929 . S
C1459 C1457 1.433 . S
C1459 N1462 1.384 . S
C1460 H1451 0.929 . S
C1460 C1452 1.378 . S
C1460 C1455 1.350 . S
C1461 H1448 0.929 . S
C1461 C1453 1.433 . S
C1461 N1463 1.384 . S
N1462 C1458 1.427 . S
N1462 C1459 1.384 . S
N1463 C1455 1.427 . S
N1463 C1461 1.384 . S
H1464 C1470 0.930 . S
H1465 C1474 0.930 . S
H1466 C1479 0.929 . S
H1467 C1477 0.929 . S
H1468 C1472 0.929 . S
H1469 C1478 0.929 . S
C1470 H1464 0.930 . S
C1470 C1471 1.367 . S
C1470 C1478 1.378 . S
C1471 C1470 1.367 . S
C1471 C1479 1.433 . S
C1472 H1468 0.929 . S
C1472 C1474 1.378 . S
C1472 C1476 1.350 . S
C1473 C1476 1.463 1_455 S
C1473 C1478 1.350 . S
C1473 N1481 1.427 . S
C1474 H1465 0.930 . S
C1474 C1472 1.378 . S
C1474 C1475 1.367 . S
C1475 C1474 1.367 . S
C1475 C1477 1.433 . S
C1476 C1472 1.350 . S
C1476 C1473 1.463 1_655 S
C1476 N1480 1.427 . S
C1477 H1467 0.929 . S
C1477 C1475 1.433 . S
C1477 N1480 1.384 . S
C1478 H1469 0.929 . S
C1478 C1470 1.378 . S
C1478 C1473 1.350 . S
C1479 H1466 0.929 . S
C1479 C1471 1.433 . S
C1479 N1481 1.384 . S
N1480 C1476 1.427 . S
N1480 C1477 1.384 . S
N1481 C1473 1.427 . S
N1481 C1479 1.384 . S
H1482 C1488 0.930 . S
H1483 C1492 0.930 . S
H1484 C1497 0.929 . S
H1485 C1495 0.929 . S
H1486 C1490 0.929 . S
H1487 C1496 0.929 . S
C1488 H1482 0.930 . S
C1488 C1489 1.367 . S
C1488 C1496 1.378 . S
C1489 C1488 1.367 . S
C1489 C1497 1.433 . S
C1490 H1486 0.929 . S
C1490 C1492 1.378 . S
C1490 C1494 1.350 . S
C1491 C1494 1.463 . S
C1491 C1496 1.350 . S
C1491 N1499 1.427 . S
C1492 H1483 0.930 . S
C1492 C1490 1.378 . S
C1492 C1493 1.367 . S
C1493 C1492 1.367 . S
C1493 C1495 1.433 . S
C1494 C1490 1.350 . S
C1494 C1491 1.463 . S
C1494 N1498 1.427 . S
C1495 H1485 0.929 . S
C1495 C1493 1.433 . S
C1495 N1498 1.384 . S
C1496 H1487 0.929 . S
C1496 C1488 1.378 . S
C1496 C1491 1.350 . S
C1497 H1484 0.929 . S
C1497 C1489 1.433 . S
C1497 N1499 1.384 . S
N1498 C1494 1.427 . S
N1498 C1495 1.384 . S
N1499 C1491 1.427 . S
N1499 C1497 1.384 . S
H1500 C1506 0.930 . S
H1501 C1510 0.930 . S
H1502 C1515 0.929 . S
H1503 C1513 0.929 . S
H1504 C1508 0.929 . S
H1505 C1514 0.929 . S
C1506 H1500 0.930 . S
C1506 C1507 1.367 . S
C1506 C1514 1.378 . S
C1507 C1506 1.367 . S
C1507 C1515 1.433 . S
C1508 H1504 0.929 . S
C1508 C1510 1.378 . S
C1508 C1512 1.350 . S
C1509 C1512 1.463 . S
C1509 C1514 1.350 . S
C1509 N1517 1.427 . S
C1510 H1501 0.930 . S
C1510 C1508 1.378 . S
C1510 C1511 1.367 . S
C1511 C1510 1.367 . S
C1511 C1513 1.433 . S
C1512 C1508 1.350 . S
C1512 C1509 1.463 . S
C1512 N1516 1.427 . S
C1513 H1503 0.929 . S
C1513 C1511 1.433 . S
C1513 N1516 1.384 . S
C1514 H1505 0.929 . S
C1514 C1506 1.378 . S
C1514 C1509 1.350 . S
C1515 H1502 0.929 . S
C1515 C1507 1.433 . S
C1515 N1517 1.384 . S
N1516 C1512 1.427 . S
N1516 C1513 1.384 . S
N1517 C1509 1.427 . S
N1517 C1515 1.384 . S
H1518 C1524 0.930 . S
H1519 C1528 0.930 . S
H1520 C1533 0.929 . S
H1521 C1531 0.929 . S
H1522 C1526 0.929 . S
H1523 C1532 0.929 . S
C1524 H1518 0.930 . S
C1524 C1525 1.367 . S
C1524 C1532 1.378 . S
C1525 C1524 1.367 . S
C1525 C1533 1.433 . S
C1526 H1522 0.929 . S
C1526 C1528 1.378 . S
C1526 C1530 1.350 . S
C1527 C1530 1.463 . S
C1527 C1532 1.350 . S
C1527 N1535 1.427 . S
C1528 H1519 0.930 . S
C1528 C1526 1.378 . S
C1528 C1529 1.367 . S
C1529 C1528 1.367 . S
C1529 C1531 1.433 . S
C1530 C1526 1.350 . S
C1530 C1527 1.463 . S
C1530 N1534 1.427 . S
C1531 H1521 0.929 . S
C1531 C1529 1.433 . S
C1531 N1534 1.384 . S
C1532 H1523 0.929 . S
C1532 C1524 1.378 . S
C1532 C1527 1.350 . S
C1533 H1520 0.929 . S
C1533 C1525 1.433 . S
C1533 N1535 1.384 . S
N1534 C1530 1.427 . S
N1534 C1531 1.384 . S
N1535 C1527 1.427 . S
N1535 C1533 1.384 . S
H1536 C1542 0.930 . S
H1537 C1546 0.930 . S
H1538 C1551 0.929 . S
H1539 C1549 0.929 . S
H1540 C1544 0.929 . S
H1541 C1550 0.929 . S
C1542 H1536 0.930 . S
C1542 C1543 1.367 . S
C1542 C1550 1.378 . S
C1543 C1542 1.367 . S
C1543 C1551 1.433 . S
C1544 H1540 0.929 . S
C1544 C1546 1.378 . S
C1544 C1548 1.350 . S
C1545 C1548 1.463 . S
C1545 C1550 1.350 . S
C1545 N1553 1.427 . S
C1546 H1537 0.930 . S
C1546 C1544 1.378 . S
C1546 C1547 1.367 . S
C1547 C1546 1.367 . S
C1547 C1549 1.433 . S
C1548 C1544 1.350 . S
C1548 C1545 1.463 . S
C1548 N1552 1.427 . S
C1549 H1539 0.929 . S
C1549 C1547 1.433 . S
C1549 N1552 1.384 . S
C1550 H1541 0.929 . S
C1550 C1542 1.378 . S
C1550 C1545 1.350 . S
C1551 H1538 0.929 . S
C1551 C1543 1.433 . S
C1551 N1553 1.384 . S
N1552 C1548 1.427 . S
N1552 C1549 1.384 . S
N1553 C1545 1.427 . S
N1553 C1551 1.384 . S
H1554 C1560 0.930 . S
H1555 C1564 0.930 . S
H1556 C1569 0.929 . S
H1557 C1567 0.929 . S
H1558 C1562 0.929 . S
H1559 C1568 0.929 . S
C1560 H1554 0.930 . S
C1560 C1561 1.367 . S
C1560 C1568 1.378 . S
C1561 C1560 1.367 . S
C1561 C1569 1.433 . S
C1562 H1558 0.929 . S
C1562 C1564 1.378 . S
C1562 C1566 1.350 . S
C1563 C1566 1.463 . S
C1563 C1568 1.350 . S
C1563 N1571 1.427 . S
C1564 H1555 0.930 . S
C1564 C1562 1.378 . S
C1564 C1565 1.367 . S
C1565 C1564 1.367 . S
C1565 C1567 1.433 . S
C1566 C1562 1.350 . S
C1566 C1563 1.463 . S
C1566 N1570 1.427 . S
C1567 H1557 0.929 . S
C1567 C1565 1.433 . S
C1567 N1570 1.384 . S
C1568 H1559 0.929 . S
C1568 C1560 1.378 . S
C1568 C1563 1.350 . S
C1569 H1556 0.929 . S
C1569 C1561 1.433 . S
C1569 N1571 1.384 . S
N1570 C1566 1.427 . S
N1570 C1567 1.384 . S
N1571 C1563 1.427 . S
N1571 C1569 1.384 . S
H1572 C1578 0.930 . S
H1573 C1582 0.930 . S
H1574 C1587 0.929 . S
H1575 C1585 0.929 . S
H1576 C1580 0.929 . S
H1577 C1586 0.929 . S
C1578 H1572 0.930 . S
C1578 C1579 1.367 . S
C1578 C1586 1.378 . S
C1579 C1578 1.367 . S
C1579 C1587 1.433 . S
C1580 H1576 0.929 . S
C1580 C1582 1.378 . S
C1580 C1584 1.350 . S
C1581 C1584 1.463 . S
C1581 C1586 1.350 . S
C1581 N1589 1.427 . S
C1582 H1573 0.930 . S
C1582 C1580 1.378 . S
C1582 C1583 1.367 . S
C1583 C1582 1.367 . S
C1583 C1585 1.433 . S
C1584 C1580 1.350 . S
C1584 C1581 1.463 . S
C1584 N1588 1.427 . S
C1585 H1575 0.929 . S
C1585 C1583 1.433 . S
C1585 N1588 1.384 . S
C1586 H1577 0.929 . S
C1586 C1578 1.378 . S
C1586 C1581 1.350 . S
C1587 H1574 0.929 . S
C1587 C1579 1.433 . S
C1587 N1589 1.384 . S
N1588 C1584 1.427 . S
N1588 C1585 1.384 . S
N1589 C1581 1.427 . S
N1589 C1587 1.384 . S
H1590 C1596 0.930 . S
H1591 C1600 0.930 . S
H1592 C1605 0.929 . S
H1593 C1603 0.929 . S
H1594 C1598 0.929 . S
H1595 C1604 0.929 . S
C1596 H1590 0.930 . S
C1596 C1597 1.367 . S
C1596 C1604 1.378 . S
C1597 C1596 1.367 . S
C1597 C1605 1.433 . S
C1598 H1594 0.929 . S
C1598 C1600 1.378 . S
C1598 C1602 1.350 . S
C1599 C1602 1.463 . S
C1599 C1604 1.350 . S
C1599 N1607 1.427 . S
C1600 H1591 0.930 . S
C1600 C1598 1.378 . S
C1600 C1601 1.367 . S
C1601 C1600 1.367 . S
C1601 C1603 1.433 . S
C1602 C1598 1.350 . S
C1602 C1599 1.463 . S
C1602 N1606 1.427 . S
C1603 H1593 0.929 . S
C1603 C1601 1.433 . S
C1603 N1606 1.384 . S
C1604 H1595 0.929 . S
C1604 C1596 1.378 . S
C1604 C1599 1.350 . S
C1605 H1592 0.929 . S
C1605 C1597 1.433 . S
C1605 N1607 1.384 . S
N1606 C1602 1.427 . S
N1606 C1603 1.384 . S
N1607 C1599 1.427 . S
N1607 C1605 1.384 . S
H1608 C1614 0.930 . S
H1609 C1618 0.930 . S
H1610 C1623 0.929 . S
H1611 C1621 0.929 . S
H1612 C1616 0.929 . S
H1613 C1622 0.929 . S
C1614 H1608 0.930 . S
C1614 C1615 1.367 . S
C1614 C1622 1.378 . S
C1615 C1614 1.367 . S
C1615 C1623 1.433 . S
C1616 H1612 0.929 . S
C1616 C1618 1.378 . S
C1616 C1620 1.350 . S
C1617 C1620 1.463 . S
C1617 C1622 1.350 . S
C1617 N1625 1.427 . S
C1618 H1609 0.930 . S
C1618 C1616 1.378 . S
C1618 C1619 1.367 . S
C1619 C1618 1.367 . S
C1619 C1621 1.433 . S
C1620 C1616 1.350 . S
C1620 C1617 1.463 . S
C1620 N1624 1.427 . S
C1621 H1611 0.929 . S
C1621 C1619 1.433 . S
C1621 N1624 1.384 . S
C1622 H1613 0.929 . S
C1622 C1614 1.378 . S
C1622 C1617 1.350 . S
C1623 H1610 0.929 . S
C1623 C1615 1.433 . S
C1623 N1625 1.384 . S
N1624 C1620 1.427 . S
N1624 C1621 1.384 . S
N1625 C1617 1.427 . S
N1625 C1623 1.384 . S
H1626 C1632 0.930 . S
H1627 C1636 0.930 . S
H1628 C1641 0.929 . S
H1629 C1639 0.929 . S
H1630 C1634 0.929 . S
H1631 C1640 0.929 . S
C1632 H1626 0.930 . S
C1632 C1633 1.367 . S
C1632 C1640 1.378 . S
C1633 C1632 1.367 . S
C1633 C1641 1.433 . S
C1634 H1630 0.929 . S
C1634 C1636 1.378 . S
C1634 C1638 1.350 . S
C1635 C1638 1.463 . S
C1635 C1640 1.350 . S
C1635 N1643 1.427 . S
C1636 H1627 0.930 . S
C1636 C1634 1.378 . S
C1636 C1637 1.367 . S
C1637 C1636 1.367 . S
C1637 C1639 1.433 . S
C1638 C1634 1.350 . S
C1638 C1635 1.463 . S
C1638 N1642 1.427 . S
C1639 H1629 0.929 . S
C1639 C1637 1.433 . S
C1639 N1642 1.384 . S
C1640 H1631 0.929 . S
C1640 C1632 1.378 . S
C1640 C1635 1.350 . S
C1641 H1628 0.929 . S
C1641 C1633 1.433 . S
C1641 N1643 1.384 . S
N1642 C1638 1.427 . S
N1642 C1639 1.384 . S
N1643 C1635 1.427 . S
N1643 C1641 1.384 . S
H1644 C1650 0.930 . S
H1645 C1654 0.930 . S
H1646 C1659 0.929 . S
H1647 C1657 0.929 . S
H1648 C1652 0.929 . S
H1649 C1658 0.929 . S
C1650 H1644 0.930 . S
C1650 C1651 1.367 . S
C1650 C1658 1.378 . S
C1651 C1650 1.367 . S
C1651 C1659 1.433 . S
C1652 H1648 0.929 . S
C1652 C1654 1.378 . S
C1652 C1656 1.350 . S
C1653 C1656 1.463 . S
C1653 C1658 1.350 . S
C1653 N1661 1.427 . S
C1654 H1645 0.930 . S
C1654 C1652 1.378 . S
C1654 C1655 1.367 . S
C1655 C1654 1.367 . S
C1655 C1657 1.433 . S
C1656 C1652 1.350 . S
C1656 C1653 1.463 . S
C1656 N1660 1.427 . S
C1657 H1647 0.929 . S
C1657 C1655 1.433 . S
C1657 N1660 1.384 . S
C1658 H1649 0.929 . S
C1658 C1650 1.378 . S
C1658 C1653 1.350 . S
C1659 H1646 0.929 . S
C1659 C1651 1.433 . S
C1659 N1661 1.384 . S
N1660 C1656 1.427 . S
N1660 C1657 1.384 . S
N1661 C1653 1.427 . S
N1661 C1659 1.384 . S
H1662 C1668 0.930 . S
H1663 C1672 0.930 . S
H1664 C1677 0.929 . S
H1665 C1675 0.929 . S
H1666 C1670 0.929 . S
H1667 C1676 0.929 . S
C1668 H1662 0.930 . S
C1668 C1669 1.367 . S
C1668 C1676 1.378 . S
C1669 C1668 1.367 . S
C1669 C1677 1.433 . S
C1670 H1666 0.929 . S
C1670 C1672 1.378 . S
C1670 C1674 1.350 . S
C1671 C1674 1.463 . S
C1671 C1676 1.350 . S
C1671 N1679 1.427 . S
C1672 H1663 0.930 . S
C1672 C1670 1.378 . S
C1672 C1673 1.367 . S
C1673 C1672 1.367 . S
C1673 C1675 1.433 . S
C1674 C1670 1.350 . S
C1674 C1671 1.463 . S
C1674 N1678 1.427 . S
C1675 H1665 0.929 . S
C1675 C1673 1.433 . S
C1675 N1678 1.384 . S
C1676 H1667 0.929 . S
C1676 C1668 1.378 . S
C1676 C1671 1.350 . S
C1677 H1664 0.929 . S
C1677 C1669 1.433 . S
C1677 N1679 1.384 . S
N1678 C1674 1.427 . S
N1678 C1675 1.384 . S
N1679 C1671 1.427 . S
N1679 C1677 1.384 . S
H1680 C1686 0.930 . S
H1681 C1690 0.930 . S
H1682 C1695 0.929 . S
H1683 C1693 0.929 . S
H1684 C1688 0.929 . S
H1685 C1694 0.929 . S
C1686 H1680 0.930 . S
C1686 C1687 1.367 . S
C1686 C1694 1.378 . S
C1687 C1686 1.367 . S
C1687 C1695 1.433 . S
C1688 H1684 0.929 . S
C1688 C1690 1.378 . S
C1688 C1692 1.350 . S
C1689 C1692 1.463 . S
C1689 C1694 1.350 . S
C1689 N1697 1.427 . S
C1690 H1681 0.930 . S
C1690 C1688 1.378 . S
C1690 C1691 1.367 . S
C1691 C1690 1.367 . S
C1691 C1693 1.433 . S
C1692 C1688 1.350 . S
C1692 C1689 1.463 . S
C1692 N1696 1.427 . S
C1693 H1683 0.929 . S
C1693 C1691 1.433 . S
C1693 N1696 1.384 . S
C1694 H1685 0.929 . S
C1694 C1686 1.378 . S
C1694 C1689 1.350 . S
C1695 H1682 0.929 . S
C1695 C1687 1.433 . S
C1695 N1697 1.384 . S
N1696 C1692 1.427 . S
N1696 C1693 1.384 . S
N1697 C1689 1.427 . S
N1697 C1695 1.384 . S
H1698 C1704 0.930 . S
H1699 C1708 0.930 . S
H1700 C1713 0.929 . S
H1701 C1711 0.929 . S
H1702 C1706 0.929 . S
H1703 C1712 0.929 . S
C1704 H1698 0.930 . S
C1704 C1705 1.367 . S
C1704 C1712 1.378 . S
C1705 C1704 1.367 . S
C1705 C1713 1.433 . S
C1706 H1702 0.929 . S
C1706 C1708 1.378 . S
C1706 C1710 1.350 . S
C1707 C1710 1.463 . S
C1707 C1712 1.350 . S
C1707 N1715 1.427 . S
C1708 H1699 0.930 . S
C1708 C1706 1.378 . S
C1708 C1709 1.367 . S
C1709 C1708 1.367 . S
C1709 C1711 1.433 . S
C1710 C1706 1.350 . S
C1710 C1707 1.463 . S
C1710 N1714 1.427 . S
C1711 H1701 0.929 . S
C1711 C1709 1.433 . S
C1711 N1714 1.384 . S
C1712 H1703 0.929 . S
C1712 C1704 1.378 . S
C1712 C1707 1.350 . S
C1713 H1700 0.929 . S
C1713 C1705 1.433 . S
C1713 N1715 1.384 . S
N1714 C1710 1.427 . S
N1714 C1711 1.384 . S
N1715 C1707 1.427 . S
N1715 C1713 1.384 . S
H1716 C1722 0.930 . S
H1717 C1726 0.930 . S
H1718 C1731 0.929 . S
H1719 C1729 0.929 . S
H1720 C1724 0.929 . S
H1721 C1730 0.929 . S
C1722 H1716 0.930 . S
C1722 C1723 1.367 . S
C1722 C1730 1.378 . S
C1723 C1722 1.367 . S
C1723 C1731 1.433 . S
C1724 H1720 0.929 . S
C1724 C1726 1.378 . S
C1724 C1728 1.350 . S
C1725 C1728 1.463 . S
C1725 C1730 1.350 . S
C1725 N1733 1.427 . S
C1726 H1717 0.930 . S
C1726 C1724 1.378 . S
C1726 C1727 1.367 . S
C1727 C1726 1.367 . S
C1727 C1729 1.433 . S
C1728 C1724 1.350 . S
C1728 C1725 1.463 . S
C1728 N1732 1.427 . S
C1729 H1719 0.929 . S
C1729 C1727 1.433 . S
C1729 N1732 1.384 . S
C1730 H1721 0.929 . S
C1730 C1722 1.378 . S
C1730 C1725 1.350 . S
C1731 H1718 0.929 . S
C1731 C1723 1.433 . S
C1731 N1733 1.384 . S
N1732 C1728 1.427 . S
N1732 C1729 1.384 . S
N1733 C1725 1.427 . S
N1733 C1731 1.384 . S
H1734 C1740 0.930 . S
H1735 C1744 0.930 . S
H1736 C1749 0.929 . S
H1737 C1747 0.929 . S
H1738 C1742 0.929 . S
H1739 C1748 0.929 . S
C1740 H1734 0.930 . S
C1740 C1741 1.367 . S
C1740 C1748 1.378 . S
C1741 C1740 1.367 . S
C1741 C1749 1.433 . S
C1742 H1738 0.929 . S
C1742 C1744 1.378 . S
C1742 C1746 1.350 . S
C1743 C1746 1.463 . S
C1743 C1748 1.350 . S
C1743 N1751 1.427 . S
C1744 H1735 0.930 . S
C1744 C1742 1.378 . S
C1744 C1745 1.367 . S
C1745 C1744 1.367 . S
C1745 C1747 1.433 . S
C1746 C1742 1.350 . S
C1746 C1743 1.463 . S
C1746 N1750 1.427 . S
C1747 H1737 0.929 . S
C1747 C1745 1.433 . S
C1747 N1750 1.384 . S
C1748 H1739 0.929 . S
C1748 C1740 1.378 . S
C1748 C1743 1.350 . S
C1749 H1736 0.929 . S
C1749 C1741 1.433 . S
C1749 N1751 1.384 . S
N1750 C1746 1.427 . S
N1750 C1747 1.384 . S
N1751 C1743 1.427 . S
N1751 C1749 1.384 . S
H1752 C1758 0.930 . S
H1753 C1762 0.930 . S
H1754 C1767 0.929 . S
H1755 C1765 0.929 . S
H1756 C1760 0.929 . S
H1757 C1766 0.929 . S
C1758 H1752 0.930 . S
C1758 C1759 1.367 . S
C1758 C1766 1.378 . S
C1759 C1758 1.367 . S
C1759 C1767 1.433 . S
C1760 H1756 0.929 . S
C1760 C1762 1.378 . S
C1760 C1764 1.350 . S
C1761 C1764 1.463 . S
C1761 C1766 1.350 . S
C1761 N1769 1.427 . S
C1762 H1753 0.930 . S
C1762 C1760 1.378 . S
C1762 C1763 1.367 . S
C1763 C1762 1.367 . S
C1763 C1765 1.433 . S
C1764 C1760 1.350 . S
C1764 C1761 1.463 . S
C1764 N1768 1.427 . S
C1765 H1755 0.929 . S
C1765 C1763 1.433 . S
C1765 N1768 1.384 . S
C1766 H1757 0.929 . S
C1766 C1758 1.378 . S
C1766 C1761 1.350 . S
C1767 H1754 0.929 . S
C1767 C1759 1.433 . S
C1767 N1769 1.384 . S
N1768 C1764 1.427 . S
N1768 C1765 1.384 . S
N1769 C1761 1.427 . S
N1769 C1767 1.384 . S
H1770 C1776 0.930 . S
H1771 C1780 0.930 . S
H1772 C1785 0.929 . S
H1773 C1783 0.929 . S
H1774 C1778 0.929 . S
H1775 C1784 0.929 . S
C1776 H1770 0.930 . S
C1776 C1777 1.367 . S
C1776 C1784 1.378 . S
C1777 C1776 1.367 . S
C1777 C1785 1.433 . S
C1778 H1774 0.929 . S
C1778 C1780 1.378 . S
C1778 C1782 1.350 . S
C1779 C1782 1.463 . S
C1779 C1784 1.350 . S
C1779 N1787 1.427 . S
C1780 H1771 0.930 . S
C1780 C1778 1.378 . S
C1780 C1781 1.367 . S
C1781 C1780 1.367 . S
C1781 C1783 1.433 . S
C1782 C1778 1.350 . S
C1782 C1779 1.463 . S
C1782 N1786 1.427 . S
C1783 H1773 0.929 . S
C1783 C1781 1.433 . S
C1783 N1786 1.384 . S
C1784 H1775 0.929 . S
C1784 C1776 1.378 . S
C1784 C1779 1.350 . S
C1785 H1772 0.929 . S
C1785 C1777 1.433 . S
C1785 N1787 1.384 . S
N1786 C1782 1.427 . S
N1786 C1783 1.384 . S
N1787 C1779 1.427 . S
N1787 C1785 1.384 . S
H1788 C1794 0.930 . S
H1789 C1798 0.930 . S
H1790 C1803 0.929 . S
H1791 C1801 0.929 . S
H1792 C1796 0.929 . S
H1793 C1802 0.929 . S
C1794 H1788 0.930 . S
C1794 C1795 1.367 . S
C1794 C1802 1.378 . S
C1795 C1794 1.367 . S
C1795 C1803 1.433 . S
C1796 H1792 0.929 . S
C1796 C1798 1.378 . S
C1796 C1800 1.350 . S
C1797 C1800 1.463 . S
C1797 C1802 1.350 . S
C1797 N1805 1.427 . S
C1798 H1789 0.930 . S
C1798 C1796 1.378 . S
C1798 C1799 1.367 . S
C1799 C1798 1.367 . S
C1799 C1801 1.433 . S
C1800 C1796 1.350 . S
C1800 C1797 1.463 . S
C1800 N1804 1.427 . S
C1801 H1791 0.929 . S
C1801 C1799 1.433 . S
C1801 N1804 1.384 . S
C1802 H1793 0.929 . S
C1802 C1794 1.378 . S
C1802 C1797 1.350 . S
C1803 H1790 0.929 . S
C1803 C1795 1.433 . S
C1803 N1805 1.384 . S
N1804 C1800 1.427 . S
N1804 C1801 1.384 . S
N1805 C1797 1.427 . S
N1805 C1803 1.384 . S
H1806 C1812 0.930 . S
H1807 C1816 0.930 . S
H1808 C1821 0.929 . S
H1809 C1819 0.929 . S
H1810 C1814 0.929 . S
H1811 C1820 0.929 . S
C1812 H1806 0.930 . S
C1812 C1813 1.367 . S
C1812 C1820 1.378 . S
C1813 C1812 1.367 . S
C1813 C1821 1.433 . S
C1814 H1810 0.929 . S
C1814 C1816 1.378 . S
C1814 C1818 1.350 . S
C1815 C1818 1.463 . S
C1815 C1820 1.350 . S
C1815 N1823 1.427 . S
C1816 H1807 0.930 . S
C1816 C1814 1.378 . S
C1816 C1817 1.367 . S
C1817 C1816 1.367 . S
C1817 C1819 1.433 . S
C1818 C1814 1.350 . S
C1818 C1815 1.463 . S
C1818 N1822 1.427 . S
C1819 H1809 0.929 . S
C1819 C1817 1.433 . S
C1819 N1822 1.384 . S
C1820 H1811 0.929 . S
C1820 C1812 1.378 . S
C1820 C1815 1.350 . S
C1821 H1808 0.929 . S
C1821 C1813 1.433 . S
C1821 N1823 1.384 . S
N1822 C1818 1.427 . S
N1822 C1819 1.384 . S
N1823 C1815 1.427 . S
N1823 C1821 1.384 . S
H1824 C1830 0.930 . S
H1825 C1834 0.930 . S
H1826 C1839 0.929 . S
H1827 C1837 0.929 . S
H1828 C1832 0.929 . S
H1829 C1838 0.929 . S
C1830 H1824 0.930 . S
C1830 C1831 1.367 . S
C1830 C1838 1.378 . S
C1831 C1830 1.367 . S
C1831 C1839 1.433 . S
C1832 H1828 0.929 . S
C1832 C1834 1.378 . S
C1832 C1836 1.350 . S
C1833 C1836 1.463 . S
C1833 C1838 1.350 . S
C1833 N1841 1.427 . S
C1834 H1825 0.930 . S
C1834 C1832 1.378 . S
C1834 C1835 1.367 . S
C1835 C1834 1.367 . S
C1835 C1837 1.433 . S
C1836 C1832 1.350 . S
C1836 C1833 1.463 . S
C1836 N1840 1.427 . S
C1837 H1827 0.929 . S
C1837 C1835 1.433 . S
C1837 N1840 1.384 . S
C1838 H1829 0.929 . S
C1838 C1830 1.378 . S
C1838 C1833 1.350 . S
C1839 H1826 0.929 . S
C1839 C1831 1.433 . S
C1839 N1841 1.384 . S
N1840 C1836 1.427 . S
N1840 C1837 1.384 . S
N1841 C1833 1.427 . S
N1841 C1839 1.384 . S
H1842 C1848 0.930 . S
H1843 C1852 0.930 . S
H1844 C1857 0.929 . S
H1845 C1855 0.929 . S
H1846 C1850 0.929 . S
H1847 C1856 0.929 . S
C1848 H1842 0.930 . S
C1848 C1849 1.367 . S
C1848 C1856 1.378 . S
C1849 C1848 1.367 . S
C1849 C1857 1.433 . S
C1850 H1846 0.929 . S
C1850 C1852 1.378 . S
C1850 C1854 1.350 . S
C1851 C1854 1.463 . S
C1851 C1856 1.350 . S
C1851 N1859 1.427 . S
C1852 H1843 0.930 . S
C1852 C1850 1.378 . S
C1852 C1853 1.367 . S
C1853 C1852 1.367 . S
C1853 C1855 1.433 . S
C1854 C1850 1.350 . S
C1854 C1851 1.463 . S
C1854 N1858 1.427 . S
C1855 H1845 0.929 . S
C1855 C1853 1.433 . S
C1855 N1858 1.384 . S
C1856 H1847 0.929 . S
C1856 C1848 1.378 . S
C1856 C1851 1.350 . S
C1857 H1844 0.929 . S
C1857 C1849 1.433 . S
C1857 N1859 1.384 . S
N1858 C1854 1.427 . S
N1858 C1855 1.384 . S
N1859 C1851 1.427 . S
N1859 C1857 1.384 . S
H1860 C1866 0.930 . S
H1861 C1870 0.930 . S
H1862 C1875 0.929 . S
H1863 C1873 0.929 . S
H1864 C1868 0.929 . S
H1865 C1874 0.929 . S
C1866 H1860 0.930 . S
C1866 C1867 1.367 . S
C1866 C1874 1.378 . S
C1867 C1866 1.367 . S
C1867 C1875 1.433 . S
C1868 H1864 0.929 . S
C1868 C1870 1.378 . S
C1868 C1872 1.350 . S
C1869 C1872 1.463 . S
C1869 C1874 1.350 . S
C1869 N1877 1.427 . S
C1870 H1861 0.930 . S
C1870 C1868 1.378 . S
C1870 C1871 1.367 . S
C1871 C1870 1.367 . S
C1871 C1873 1.433 . S
C1872 C1868 1.350 . S
C1872 C1869 1.463 . S
C1872 N1876 1.427 . S
C1873 H1863 0.929 . S
C1873 C1871 1.433 . S
C1873 N1876 1.384 . S
C1874 H1865 0.929 . S
C1874 C1866 1.378 . S
C1874 C1869 1.350 . S
C1875 H1862 0.929 . S
C1875 C1867 1.433 . S
C1875 N1877 1.384 . S
N1876 C1872 1.427 . S
N1876 C1873 1.384 . S
N1877 C1869 1.427 . S
N1877 C1875 1.384 . S
H1878 C1884 0.930 . S
H1879 C1888 0.930 . S
H1880 C1893 0.929 . S
H1881 C1891 0.929 . S
H1882 C1886 0.929 . S
H1883 C1892 0.929 . S
C1884 H1878 0.930 . S
C1884 C1885 1.367 . S
C1884 C1892 1.378 . S
C1885 C1884 1.367 . S
C1885 C1893 1.433 . S
C1886 H1882 0.929 . S
C1886 C1888 1.378 . S
C1886 C1890 1.350 . S
C1887 C1890 1.463 . S
C1887 C1892 1.350 . S
C1887 N1895 1.427 . S
C1888 H1879 0.930 . S
C1888 C1886 1.378 . S
C1888 C1889 1.367 . S
C1889 C1888 1.367 . S
C1889 C1891 1.433 . S
C1890 C1886 1.350 . S
C1890 C1887 1.463 . S
C1890 N1894 1.427 . S
C1891 H1881 0.929 . S
C1891 C1889 1.433 . S
C1891 N1894 1.384 . S
C1892 H1883 0.929 . S
C1892 C1884 1.378 . S
C1892 C1887 1.350 . S
C1893 H1880 0.929 . S
C1893 C1885 1.433 . S
C1893 N1895 1.384 . S
N1894 C1890 1.427 . S
N1894 C1891 1.384 . S
N1895 C1887 1.427 . S
N1895 C1893 1.384 . S
H1896 C1902 0.930 . S
H1897 C1906 0.930 . S
H1898 C1911 0.929 . S
H1899 C1909 0.929 . S
H1900 C1904 0.929 . S
H1901 C1910 0.929 . S
C1902 H1896 0.930 . S
C1902 C1903 1.367 . S
C1902 C1910 1.378 . S
C1903 C1902 1.367 . S
C1903 C1911 1.433 . S
C1904 H1900 0.929 . S
C1904 C1906 1.378 . S
C1904 C1908 1.350 . S
C1905 C1908 1.463 . S
C1905 C1910 1.350 . S
C1905 N1913 1.427 . S
C1906 H1897 0.930 . S
C1906 C1904 1.378 . S
C1906 C1907 1.367 . S
C1907 C1906 1.367 . S
C1907 C1909 1.433 . S
C1908 C1904 1.350 . S
C1908 C1905 1.463 . S
C1908 N1912 1.427 . S
C1909 H1899 0.929 . S
C1909 C1907 1.433 . S
C1909 N1912 1.384 . S
C1910 H1901 0.929 . S
C1910 C1902 1.378 . S
C1910 C1905 1.350 . S
C1911 H1898 0.929 . S
C1911 C1903 1.433 . S
C1911 N1913 1.384 . S
N1912 C1908 1.427 . S
N1912 C1909 1.384 . S
N1913 C1905 1.427 . S
N1913 C1911 1.384 . S
H1914 C1920 0.930 . S
H1915 C1924 0.930 . S
H1916 C1929 0.929 . S
H1917 C1927 0.929 . S
H1918 C1922 0.929 . S
H1919 C1928 0.929 . S
C1920 H1914 0.930 . S
C1920 C1921 1.367 . S
C1920 C1928 1.378 . S
C1921 C1920 1.367 . S
C1921 C1929 1.433 . S
C1922 H1918 0.929 . S
C1922 C1924 1.378 . S
C1922 C1926 1.350 . S
C1923 C1926 1.463 . S
C1923 C1928 1.350 . S
C1923 N1931 1.427 . S
C1924 H1915 0.930 . S
C1924 C1922 1.378 . S
C1924 C1925 1.367 . S
C1925 C1924 1.367 . S
C1925 C1927 1.433 . S
C1926 C1922 1.350 . S
C1926 C1923 1.463 . S
C1926 N1930 1.427 . S
C1927 H1917 0.929 . S
C1927 C1925 1.433 . S
C1927 N1930 1.384 . S
C1928 H1919 0.929 . S
C1928 C1920 1.378 . S
C1928 C1923 1.350 . S
C1929 H1916 0.929 . S
C1929 C1921 1.433 . S
C1929 N1931 1.384 . S
N1930 C1926 1.427 . S
N1930 C1927 1.384 . S
N1931 C1923 1.427 . S
N1931 C1929 1.384 . S
H1932 C1938 0.930 . S
H1933 C1942 0.930 . S
H1934 C1947 0.929 . S
H1935 C1945 0.929 . S
H1936 C1940 0.929 . S
H1937 C1946 0.929 . S
C1938 H1932 0.930 . S
C1938 C1939 1.367 . S
C1938 C1946 1.378 . S
C1939 C1938 1.367 . S
C1939 C1947 1.433 . S
C1940 H1936 0.929 . S
C1940 C1942 1.378 . S
C1940 C1944 1.350 . S
C1941 C1944 1.463 . S
C1941 C1946 1.350 . S
C1941 N1949 1.427 . S
C1942 H1933 0.930 . S
C1942 C1940 1.378 . S
C1942 C1943 1.367 . S
C1943 C1942 1.367 . S
C1943 C1945 1.433 . S
C1944 C1940 1.350 . S
C1944 C1941 1.463 . S
C1944 N1948 1.427 . S
C1945 H1935 0.929 . S
C1945 C1943 1.433 . S
C1945 N1948 1.384 . S
C1946 H1937 0.929 . S
C1946 C1938 1.378 . S
C1946 C1941 1.350 . S
C1947 H1934 0.929 . S
C1947 C1939 1.433 . S
C1947 N1949 1.384 . S
N1948 C1944 1.427 . S
N1948 C1945 1.384 . S
N1949 C1941 1.427 . S
N1949 C1947 1.384 . S
H1950 C1956 0.930 . S
H1951 C1960 0.930 . S
H1952 C1965 0.929 . S
H1953 C1963 0.929 . S
H1954 C1958 0.929 . S
H1955 C1964 0.929 . S
C1956 H1950 0.930 . S
C1956 C1957 1.367 . S
C1956 C1964 1.378 . S
C1957 C1956 1.367 . S
C1957 C1965 1.433 . S
C1958 H1954 0.929 . S
C1958 C1960 1.378 . S
C1958 C1962 1.350 . S
C1959 C1962 1.463 . S
C1959 C1964 1.350 . S
C1959 N1967 1.427 . S
C1960 H1951 0.930 . S
C1960 C1958 1.378 . S
C1960 C1961 1.367 . S
C1961 C1960 1.367 . S
C1961 C1963 1.433 . S
C1962 C1958 1.350 . S
C1962 C1959 1.463 . S
C1962 N1966 1.427 . S
C1963 H1953 0.929 . S
C1963 C1961 1.433 . S
C1963 N1966 1.384 . S
C1964 H1955 0.929 . S
C1964 C1956 1.378 . S
C1964 C1959 1.350 . S
C1965 H1952 0.929 . S
C1965 C1957 1.433 . S
C1965 N1967 1.384 . S
N1966 C1962 1.427 . S
N1966 C1963 1.384 . S
N1967 C1959 1.427 . S
N1967 C1965 1.384 . S
H1968 C1974 0.930 . S
H1969 C1978 0.930 . S
H1970 C1983 0.929 . S
H1971 C1981 0.929 . S
H1972 C1976 0.929 . S
H1973 C1982 0.929 . S
C1974 H1968 0.930 . S
C1974 C1975 1.367 . S
C1974 C1982 1.378 . S
C1975 C1974 1.367 . S
C1975 C1983 1.433 . S
C1976 H1972 0.929 . S
C1976 C1978 1.378 . S
C1976 C1980 1.350 . S
C1977 C1980 1.463 . S
C1977 C1982 1.350 . S
C1977 N1985 1.427 . S
C1978 H1969 0.930 . S
C1978 C1976 1.378 . S
C1978 C1979 1.367 . S
C1979 C1978 1.367 . S
C1979 C1981 1.433 . S
C1980 C1976 1.350 . S
C1980 C1977 1.463 . S
C1980 N1984 1.427 . S
C1981 H1971 0.929 . S
C1981 C1979 1.433 . S
C1981 N1984 1.384 . S
C1982 H1973 0.929 . S
C1982 C1974 1.378 . S
C1982 C1977 1.350 . S
C1983 H1970 0.929 . S
C1983 C1975 1.433 . S
C1983 N1985 1.384 . S
N1984 C1980 1.427 . S
N1984 C1981 1.384 . S
N1985 C1977 1.427 . S
N1985 C1983 1.384 . S
H1986 C1992 0.930 . S
H1987 C1996 0.930 . S
H1988 C2001 0.929 . S
H1989 C1999 0.929 . S
H1990 C1994 0.929 . S
H1991 C2000 0.929 . S
C1992 H1986 0.930 . S
C1992 C1993 1.367 . S
C1992 C2000 1.378 . S
C1993 C1992 1.367 . S
C1993 C2001 1.433 . S
C1994 H1990 0.929 . S
C1994 C1996 1.378 . S
C1994 C1998 1.350 . S
C1995 C1998 1.463 . S
C1995 C2000 1.350 . S
C1995 N2003 1.427 . S
C1996 H1987 0.930 . S
C1996 C1994 1.378 . S
C1996 C1997 1.367 . S
C1997 C1996 1.367 . S
C1997 C1999 1.433 . S
C1998 C1994 1.350 . S
C1998 C1995 1.463 . S
C1998 N2002 1.427 . S
C1999 H1989 0.929 . S
C1999 C1997 1.433 . S
C1999 N2002 1.384 . S
C2000 H1991 0.929 . S
C2000 C1992 1.378 . S
C2000 C1995 1.350 . S
C2001 H1988 0.929 . S
C2001 C1993 1.433 . S
C2001 N2003 1.384 . S
N2002 C1998 1.427 . S
N2002 C1999 1.384 . S
N2003 C1995 1.427 . S
N2003 C2001 1.384 . S
H2004 C2010 0.930 . S
H2005 C2014 0.930 . S
H2006 C2019 0.929 . S
H2007 C2017 0.929 . S
H2008 C2012 0.929 . S
H2009 C2018 0.929 . S
C2010 H2004 0.930 . S
C2010 C2011 1.367 . S
C2010 C2018 1.378 . S
C2011 C2010 1.367 . S
C2011 C2019 1.433 . S
C2012 H2008 0.929 . S
C2012 C2014 1.378 . S
C2012 C2016 1.350 . S
C2013 C2016 1.463 . S
C2013 C2018 1.350 . S
C2013 N2021 1.427 . S
C2014 H2005 0.930 . S
C2014 C2012 1.378 . S
C2014 C2015 1.367 . S
C2015 C2014 1.367 . S
C2015 C2017 1.433 . S
C2016 C2012 1.350 . S
C2016 C2013 1.463 . S
C2016 N2020 1.427 . S
C2017 H2007 0.929 . S
C2017 C2015 1.433 . S
C2017 N2020 1.384 . S
C2018 H2009 0.929 . S
C2018 C2010 1.378 . S
C2018 C2013 1.350 . S
C2019 H2006 0.929 . S
C2019 C2011 1.433 . S
C2019 N2021 1.384 . S
N2020 C2016 1.427 . S
N2020 C2017 1.384 . S
N2021 C2013 1.427 . S
N2021 C2019 1.384 . S
H2022 C2028 0.930 . S
H2023 C2032 0.930 . S
H2024 C2037 0.929 . S
H2025 C2035 0.929 . S
H2026 C2030 0.929 . S
H2027 C2036 0.929 . S
C2028 H2022 0.930 . S
C2028 C2029 1.367 . S
C2028 C2036 1.378 . S
C2029 C2028 1.367 . S
C2029 C2037 1.433 . S
C2030 H2026 0.929 . S
C2030 C2032 1.378 . S
C2030 C2034 1.350 . S
C2031 C2034 1.463 . S
C2031 C2036 1.350 . S
C2031 N2039 1.427 . S
C2032 H2023 0.930 . S
C2032 C2030 1.378 . S
C2032 C2033 1.367 . S
C2033 C2032 1.367 . S
C2033 C2035 1.433 . S
C2034 C2030 1.350 . S
C2034 C2031 1.463 . S
C2034 N2038 1.427 . S
C2035 H2025 0.929 . S
C2035 C2033 1.433 . S
C2035 N2038 1.384 . S
C2036 H2027 0.929 . S
C2036 C2028 1.378 . S
C2036 C2031 1.350 . S
C2037 H2024 0.929 . S
C2037 C2029 1.433 . S
C2037 N2039 1.384 . S
N2038 C2034 1.427 . S
N2038 C2035 1.384 . S
N2039 C2031 1.427 . S
N2039 C2037 1.384 . S
H2040 C2046 0.930 . S
H2041 C2050 0.930 . S
H2042 C2055 0.929 . S
H2043 C2053 0.929 . S
H2044 C2048 0.929 . S
H2045 C2054 0.929 . S
C2046 H2040 0.930 . S
C2046 C2047 1.367 . S
C2046 C2054 1.378 . S
C2047 C2046 1.367 . S
C2047 C2055 1.433 . S
C2048 H2044 0.929 . S
C2048 C2050 1.378 . S
C2048 C2052 1.350 . S
C2049 C2052 1.463 . S
C2049 C2054 1.350 . S
C2049 N2057 1.427 . S
C2050 H2041 0.930 . S
C2050 C2048 1.378 . S
C2050 C2051 1.367 . S
C2051 C2050 1.367 . S
C2051 C2053 1.433 . S
C2052 C2048 1.350 . S
C2052 C2049 1.463 . S
C2052 N2056 1.427 . S
C2053 H2043 0.929 . S
C2053 C2051 1.433 . S
C2053 N2056 1.384 . S
C2054 H2045 0.929 . S
C2054 C2046 1.378 . S
C2054 C2049 1.350 . S
C2055 H2042 0.929 . S
C2055 C2047 1.433 . S
C2055 N2057 1.384 . S
N2056 C2052 1.427 . S
N2056 C2053 1.384 . S
N2057 C2049 1.427 . S
N2057 C2055 1.384 . S
H2058 C2064 0.930 . S
H2059 C2068 0.930 . S
H2060 C2073 0.929 . S
H2061 C2071 0.929 . S
H2062 C2066 0.929 . S
H2063 C2072 0.929 . S
C2064 H2058 0.930 . S
C2064 C2065 1.367 . S
C2064 C2072 1.378 . S
C2065 C2064 1.367 . S
C2065 C2073 1.433 . S
C2066 H2062 0.929 . S
C2066 C2068 1.378 . S
C2066 C2070 1.350 . S
C2067 C2070 1.463 . S
C2067 C2072 1.350 . S
C2067 N2075 1.427 . S
C2068 H2059 0.930 . S
C2068 C2066 1.378 . S
C2068 C2069 1.367 . S
C2069 C2068 1.367 . S
C2069 C2071 1.433 . S
C2070 C2066 1.350 . S
C2070 C2067 1.463 . S
C2070 N2074 1.427 . S
C2071 H2061 0.929 . S
C2071 C2069 1.433 . S
C2071 N2074 1.384 . S
C2072 H2063 0.929 . S
C2072 C2064 1.378 . S
C2072 C2067 1.350 . S
C2073 H2060 0.929 . S
C2073 C2065 1.433 . S
C2073 N2075 1.384 . S
N2074 C2070 1.427 . S
N2074 C2071 1.384 . S
N2075 C2067 1.427 . S
N2075 C2073 1.384 . S
H2076 C2082 0.930 . S
H2077 C2086 0.930 . S
H2078 C2091 0.929 . S
H2079 C2089 0.929 . S
H2080 C2084 0.929 . S
H2081 C2090 0.929 . S
C2082 H2076 0.930 . S
C2082 C2083 1.367 . S
C2082 C2090 1.378 . S
C2083 C2082 1.367 . S
C2083 C2091 1.433 . S
C2084 H2080 0.929 . S
C2084 C2086 1.378 . S
C2084 C2088 1.350 . S
C2085 C2088 1.463 . S
C2085 C2090 1.350 . S
C2085 N2093 1.427 . S
C2086 H2077 0.930 . S
C2086 C2084 1.378 . S
C2086 C2087 1.367 . S
C2087 C2086 1.367 . S
C2087 C2089 1.433 . S
C2088 C2084 1.350 . S
C2088 C2085 1.463 . S
C2088 N2092 1.427 . S
C2089 H2079 0.929 . S
C2089 C2087 1.433 . S
C2089 N2092 1.384 . S
C2090 H2081 0.929 . S
C2090 C2082 1.378 . S
C2090 C2085 1.350 . S
C2091 H2078 0.929 . S
C2091 C2083 1.433 . S
C2091 N2093 1.384 . S
N2092 C2088 1.427 . S
N2092 C2089 1.384 . S
N2093 C2085 1.427 . S
N2093 C2091 1.384 . S
H2094 C2100 0.930 . S
H2095 C2104 0.930 . S
H2096 C2109 0.929 . S
H2097 C2107 0.929 . S
H2098 C2102 0.929 . S
H2099 C2108 0.929 . S
C2100 H2094 0.930 . S
C2100 C2101 1.367 . S
C2100 C2108 1.378 . S
C2101 C2100 1.367 . S
C2101 C2109 1.433 . S
C2102 H2098 0.929 . S
C2102 C2104 1.378 . S
C2102 C2106 1.350 . S
C2103 C2106 1.463 . S
C2103 C2108 1.350 . S
C2103 N2111 1.427 . S
C2104 H2095 0.930 . S
C2104 C2102 1.378 . S
C2104 C2105 1.367 . S
C2105 C2104 1.367 . S
C2105 C2107 1.433 . S
C2106 C2102 1.350 . S
C2106 C2103 1.463 . S
C2106 N2110 1.427 . S
C2107 H2097 0.929 . S
C2107 C2105 1.433 . S
C2107 N2110 1.384 . S
C2108 H2099 0.929 . S
C2108 C2100 1.378 . S
C2108 C2103 1.350 . S
C2109 H2096 0.929 . S
C2109 C2101 1.433 . S
C2109 N2111 1.384 . S
N2110 C2106 1.427 . S
N2110 C2107 1.384 . S
N2111 C2103 1.427 . S
N2111 C2109 1.384 . S
H2112 C2118 0.930 . S
H2113 C2122 0.930 . S
H2114 C2127 0.929 . S
H2115 C2125 0.929 . S
H2116 C2120 0.929 . S
H2117 C2126 0.929 . S
C2118 H2112 0.930 . S
C2118 C2119 1.367 . S
C2118 C2126 1.378 . S
C2119 C2118 1.367 . S
C2119 C2127 1.433 . S
C2120 H2116 0.929 . S
C2120 C2122 1.378 . S
C2120 C2124 1.350 . S
C2121 C2124 1.463 . S
C2121 C2126 1.350 . S
C2121 N2129 1.427 . S
C2122 H2113 0.930 . S
C2122 C2120 1.378 . S
C2122 C2123 1.367 . S
C2123 C2122 1.367 . S
C2123 C2125 1.433 . S
C2124 C2120 1.350 . S
C2124 C2121 1.463 . S
C2124 N2128 1.427 . S
C2125 H2115 0.929 . S
C2125 C2123 1.433 . S
C2125 N2128 1.384 . S
C2126 H2117 0.929 . S
C2126 C2118 1.378 . S
C2126 C2121 1.350 . S
C2127 H2114 0.929 . S
C2127 C2119 1.433 . S
C2127 N2129 1.384 . S
N2128 C2124 1.427 . S
N2128 C2125 1.384 . S
N2129 C2121 1.427 . S
N2129 C2127 1.384 . S
H2130 C2136 0.930 . S
H2131 C2140 0.930 . S
H2132 C2145 0.929 . S
H2133 C2143 0.929 . S
H2134 C2138 0.929 . S
H2135 C2144 0.929 . S
C2136 H2130 0.930 . S
C2136 C2137 1.367 . S
C2136 C2144 1.378 . S
C2137 C2136 1.367 . S
C2137 C2145 1.433 . S
C2138 H2134 0.929 . S
C2138 C2140 1.378 . S
C2138 C2142 1.350 . S
C2139 C2142 1.463 . S
C2139 C2144 1.350 . S
C2139 N2147 1.427 . S
C2140 H2131 0.930 . S
C2140 C2138 1.378 . S
C2140 C2141 1.367 . S
C2141 C2140 1.367 . S
C2141 C2143 1.433 . S
C2142 C2138 1.350 . S
C2142 C2139 1.463 . S
C2142 N2146 1.427 . S
C2143 H2133 0.929 . S
C2143 C2141 1.433 . S
C2143 N2146 1.384 . S
C2144 H2135 0.929 . S
C2144 C2136 1.378 . S
C2144 C2139 1.350 . S
C2145 H2132 0.929 . S
C2145 C2137 1.433 . S
C2145 N2147 1.384 . S
N2146 C2142 1.427 . S
N2146 C2143 1.384 . S
N2147 C2139 1.427 . S
N2147 C2145 1.384 . S
H2148 C2154 0.930 . S
H2149 C2158 0.930 . S
H2150 C2163 0.929 . S
H2151 C2161 0.929 . S
H2152 C2156 0.929 . S
H2153 C2162 0.929 . S
C2154 H2148 0.930 . S
C2154 C2155 1.367 . S
C2154 C2162 1.378 . S
C2155 C2154 1.367 . S
C2155 C2163 1.433 . S
C2156 H2152 0.929 . S
C2156 C2158 1.378 . S
C2156 C2160 1.350 . S
C2157 C2160 1.463 . S
C2157 C2162 1.350 . S
C2157 N2165 1.427 . S
C2158 H2149 0.930 . S
C2158 C2156 1.378 . S
C2158 C2159 1.367 . S
C2159 C2158 1.367 . S
C2159 C2161 1.433 . S
C2160 C2156 1.350 . S
C2160 C2157 1.463 . S
C2160 N2164 1.427 . S
C2161 H2151 0.929 . S
C2161 C2159 1.433 . S
C2161 N2164 1.384 . S
C2162 H2153 0.929 . S
C2162 C2154 1.378 . S
C2162 C2157 1.350 . S
C2163 H2150 0.929 . S
C2163 C2155 1.433 . S
C2163 N2165 1.384 . S
N2164 C2160 1.427 . S
N2164 C2161 1.384 . S
N2165 C2157 1.427 . S
N2165 C2163 1.384 . S
H2166 C2172 0.930 . S
H2167 C2176 0.930 . S
H2168 C2181 0.929 . S
H2169 C2179 0.929 . S
H2170 C2174 0.929 . S
H2171 C2180 0.929 . S
C2172 H2166 0.930 . S
C2172 C2173 1.367 . S
C2172 C2180 1.378 . S
C2173 C2172 1.367 . S
C2173 C2181 1.433 . S
C2174 H2170 0.929 . S
C2174 C2176 1.378 . S
C2174 C2178 1.350 . S
C2175 C2178 1.463 . S
C2175 C2180 1.350 . S
C2175 N2183 1.427 . S
C2176 H2167 0.930 . S
C2176 C2174 1.378 . S
C2176 C2177 1.367 . S
C2177 C2176 1.367 . S
C2177 C2179 1.433 . S
C2178 C2174 1.350 . S
C2178 C2175 1.463 . S
C2178 N2182 1.427 . S
C2179 H2169 0.929 . S
C2179 C2177 1.433 . S
C2179 N2182 1.384 . S
C2180 H2171 0.929 . S
C2180 C2172 1.378 . S
C2180 C2175 1.350 . S
C2181 H2168 0.929 . S
C2181 C2173 1.433 . S
C2181 N2183 1.384 . S
N2182 C2178 1.427 . S
N2182 C2179 1.384 . S
N2183 C2175 1.427 . S
N2183 C2181 1.384 . S
H2184 C2190 0.930 . S
H2185 C2194 0.930 . S
H2186 C2199 0.929 . S
H2187 C2197 0.929 . S
H2188 C2192 0.929 . S
H2189 C2198 0.929 . S
C2190 H2184 0.930 . S
C2190 C2191 1.367 . S
C2190 C2198 1.378 . S
C2191 C2190 1.367 . S
C2191 C2199 1.433 . S
C2192 H2188 0.929 . S
C2192 C2194 1.378 . S
C2192 C2196 1.350 . S
C2193 C2196 1.463 . S
C2193 C2198 1.350 . S
C2193 N2201 1.427 . S
C2194 H2185 0.930 . S
C2194 C2192 1.378 . S
C2194 C2195 1.367 . S
C2195 C2194 1.367 . S
C2195 C2197 1.433 . S
C2196 C2192 1.350 . S
C2196 C2193 1.463 . S
C2196 N2200 1.427 . S
C2197 H2187 0.929 . S
C2197 C2195 1.433 . S
C2197 N2200 1.384 . S
C2198 H2189 0.929 . S
C2198 C2190 1.378 . S
C2198 C2193 1.350 . S
C2199 H2186 0.929 . S
C2199 C2191 1.433 . S
C2199 N2201 1.384 . S
N2200 C2196 1.427 . S
N2200 C2197 1.384 . S
N2201 C2193 1.427 . S
N2201 C2199 1.384 . S
H2202 C2208 0.930 . S
H2203 C2212 0.930 . S
H2204 C2217 0.929 . S
H2205 C2215 0.929 . S
H2206 C2210 0.929 . S
H2207 C2216 0.929 . S
C2208 H2202 0.930 . S
C2208 C2209 1.367 . S
C2208 C2216 1.378 . S
C2209 C2208 1.367 . S
C2209 C2217 1.433 . S
C2210 H2206 0.929 . S
C2210 C2212 1.378 . S
C2210 C2214 1.350 . S
C2211 C2214 1.463 . S
C2211 C2216 1.350 . S
C2211 N2219 1.427 . S
C2212 H2203 0.930 . S
C2212 C2210 1.378 . S
C2212 C2213 1.367 . S
C2213 C2212 1.367 . S
C2213 C2215 1.433 . S
C2214 C2210 1.350 . S
C2214 C2211 1.463 . S
C2214 N2218 1.427 . S
C2215 H2205 0.929 . S
C2215 C2213 1.433 . S
C2215 N2218 1.384 . S
C2216 H2207 0.929 . S
C2216 C2208 1.378 . S
C2216 C2211 1.350 . S
C2217 H2204 0.929 . S
C2217 C2209 1.433 . S
C2217 N2219 1.384 . S
N2218 C2214 1.427 . S
N2218 C2215 1.384 . S
N2219 C2211 1.427 . S
N2219 C2217 1.384 . S
H2220 C2226 0.930 . S
H2221 C2230 0.930 . S
H2222 C2235 0.929 . S
H2223 C2233 0.929 . S
H2224 C2228 0.929 . S
H2225 C2234 0.929 . S
C2226 H2220 0.930 . S
C2226 C2227 1.367 . S
C2226 C2234 1.378 . S
C2227 C2226 1.367 . S
C2227 C2235 1.433 . S
C2228 H2224 0.929 . S
C2228 C2230 1.378 . S
C2228 C2232 1.350 . S
C2229 C2232 1.463 . S
C2229 C2234 1.350 . S
C2229 N2237 1.427 . S
C2230 H2221 0.930 . S
C2230 C2228 1.378 . S
C2230 C2231 1.367 . S
C2231 C2230 1.367 . S
C2231 C2233 1.433 . S
C2232 C2228 1.350 . S
C2232 C2229 1.463 . S
C2232 N2236 1.427 . S
C2233 H2223 0.929 . S
C2233 C2231 1.433 . S
C2233 N2236 1.384 . S
C2234 H2225 0.929 . S
C2234 C2226 1.378 . S
C2234 C2229 1.350 . S
C2235 H2222 0.929 . S
C2235 C2227 1.433 . S
C2235 N2237 1.384 . S
N2236 C2232 1.427 . S
N2236 C2233 1.384 . S
N2237 C2229 1.427 . S
N2237 C2235 1.384 . S
H2238 C2244 0.930 . S
H2239 C2248 0.930 . S
H2240 C2253 0.929 . S
H2241 C2251 0.929 . S
H2242 C2246 0.929 . S
H2243 C2252 0.929 . S
C2244 H2238 0.930 . S
C2244 C2245 1.367 . S
C2244 C2252 1.378 . S
C2245 C2244 1.367 . S
C2245 C2253 1.433 . S
C2246 H2242 0.929 . S
C2246 C2248 1.378 . S
C2246 C2250 1.350 . S
C2247 C2250 1.463 . S
C2247 C2252 1.350 . S
C2247 N2255 1.427 . S
C2248 H2239 0.930 . S
C2248 C2246 1.378 . S
C2248 C2249 1.367 . S
C2249 C2248 1.367 . S
C2249 C2251 1.433 . S
C2250 C2246 1.350 . S
C2250 C2247 1.463 . S
C2250 N2254 1.427 . S
C2251 H2241 0.929 . S
C2251 C2249 1.433 . S
C2251 N2254 1.384 . S
C2252 H2243 0.929 . S
C2252 C2244 1.378 . S
C2252 C2247 1.350 . S
C2253 H2240 0.929 . S
C2253 C2245 1.433 . S
C2253 N2255 1.384 . S
N2254 C2250 1.427 . S
N2254 C2251 1.384 . S
N2255 C2247 1.427 . S
N2255 C2253 1.384 . S
H2256 C2262 0.930 . S
H2257 C2266 0.930 . S
H2258 C2271 0.929 . S
H2259 C2269 0.929 . S
H2260 C2264 0.929 . S
H2261 C2270 0.929 . S
C2262 H2256 0.930 . S
C2262 C2263 1.367 . S
C2262 C2270 1.378 . S
C2263 C2262 1.367 . S
C2263 C2271 1.433 . S
C2264 H2260 0.929 . S
C2264 C2266 1.378 . S
C2264 C2268 1.350 . S
C2265 C2268 1.463 . S
C2265 C2270 1.350 . S
C2265 N2273 1.427 . S
C2266 H2257 0.930 . S
C2266 C2264 1.378 . S
C2266 C2267 1.367 . S
C2267 C2266 1.367 . S
C2267 C2269 1.433 . S
C2268 C2264 1.350 . S
C2268 C2265 1.463 . S
C2268 N2272 1.427 . S
C2269 H2259 0.929 . S
C2269 C2267 1.433 . S
C2269 N2272 1.384 . S
C2270 H2261 0.929 . S
C2270 C2262 1.378 . S
C2270 C2265 1.350 . S
C2271 H2258 0.929 . S
C2271 C2263 1.433 . S
C2271 N2273 1.384 . S
N2272 C2268 1.427 . S
N2272 C2269 1.384 . S
N2273 C2265 1.427 . S
N2273 C2271 1.384 . S
H2274 C2280 0.930 . S
H2275 C2284 0.930 . S
H2276 C2289 0.929 . S
H2277 C2287 0.929 . S
H2278 C2282 0.929 . S
H2279 C2288 0.929 . S
C2280 H2274 0.930 . S
C2280 C2281 1.367 . S
C2280 C2288 1.378 . S
C2281 C2280 1.367 . S
C2281 C2289 1.433 . S
C2282 H2278 0.929 . S
C2282 C2284 1.378 . S
C2282 C2286 1.350 . S
C2283 C2286 1.463 . S
C2283 C2288 1.350 . S
C2283 N2291 1.427 . S
C2284 H2275 0.930 . S
C2284 C2282 1.378 . S
C2284 C2285 1.367 . S
C2285 C2284 1.367 . S
C2285 C2287 1.433 . S
C2286 C2282 1.350 . S
C2286 C2283 1.463 . S
C2286 N2290 1.427 . S
C2287 H2277 0.929 . S
C2287 C2285 1.433 . S
C2287 N2290 1.384 . S
C2288 H2279 0.929 . S
C2288 C2280 1.378 . S
C2288 C2283 1.350 . S
C2289 H2276 0.929 . S
C2289 C2281 1.433 . S
C2289 N2291 1.384 . S
N2290 C2286 1.427 . S
N2290 C2287 1.384 . S
N2291 C2283 1.427 . S
N2291 C2289 1.384 . S
H2292 C2298 0.930 . S
H2293 C2302 0.930 . S
H2294 C2307 0.929 . S
H2295 C2305 0.929 . S
H2296 C2300 0.929 . S
H2297 C2306 0.929 . S
C2298 H2292 0.930 . S
C2298 C2299 1.367 . S
C2298 C2306 1.378 . S
C2299 C2298 1.367 . S
C2299 C2307 1.433 . S
C2300 H2296 0.929 . S
C2300 C2302 1.378 . S
C2300 C2304 1.350 . S
C2301 C2304 1.463 . S
C2301 C2306 1.350 . S
C2301 N2309 1.427 . S
C2302 H2293 0.930 . S
C2302 C2300 1.378 . S
C2302 C2303 1.367 . S
C2303 C2302 1.367 . S
C2303 C2305 1.433 . S
C2304 C2300 1.350 . S
C2304 C2301 1.463 . S
C2304 N2308 1.427 . S
C2305 H2295 0.929 . S
C2305 C2303 1.433 . S
C2305 N2308 1.384 . S
C2306 H2297 0.929 . S
C2306 C2298 1.378 . S
C2306 C2301 1.350 . S
C2307 H2294 0.929 . S
C2307 C2299 1.433 . S
C2307 N2309 1.384 . S
N2308 C2304 1.427 . S
N2308 C2305 1.384 . S
N2309 C2301 1.427 . S
N2309 C2307 1.384 . S
H2310 C2316 0.930 . S
H2311 C2320 0.930 . S
H2312 C2325 0.929 . S
H2313 C2323 0.929 . S
H2314 C2318 0.929 . S
H2315 C2324 0.929 . S
C2316 H2310 0.930 . S
C2316 C2317 1.367 . S
C2316 C2324 1.378 . S
C2317 C2316 1.367 . S
C2317 C2325 1.433 . S
C2318 H2314 0.929 . S
C2318 C2320 1.378 . S
C2318 C2322 1.350 . S
C2319 C2322 1.463 . S
C2319 C2324 1.350 . S
C2319 N2327 1.427 . S
C2320 H2311 0.930 . S
C2320 C2318 1.378 . S
C2320 C2321 1.367 . S
C2321 C2320 1.367 . S
C2321 C2323 1.433 . S
C2322 C2318 1.350 . S
C2322 C2319 1.463 . S
C2322 N2326 1.427 . S
C2323 H2313 0.929 . S
C2323 C2321 1.433 . S
C2323 N2326 1.384 . S
C2324 H2315 0.929 . S
C2324 C2316 1.378 . S
C2324 C2319 1.350 . S
C2325 H2312 0.929 . S
C2325 C2317 1.433 . S
C2325 N2327 1.384 . S
N2326 C2322 1.427 . S
N2326 C2323 1.384 . S
N2327 C2319 1.427 . S
N2327 C2325 1.384 . S
H2328 C2334 0.930 . S
H2329 C2338 0.930 . S
H2330 C2343 0.929 . S
H2331 C2341 0.929 . S
H2332 C2336 0.929 . S
H2333 C2342 0.929 . S
C2334 H2328 0.930 . S
C2334 C2335 1.367 . S
C2334 C2342 1.378 . S
C2335 C2334 1.367 . S
C2335 C2343 1.433 . S
C2336 H2332 0.929 . S
C2336 C2338 1.378 . S
C2336 C2340 1.350 . S
C2337 C2340 1.463 . S
C2337 C2342 1.350 . S
C2337 N2345 1.427 . S
C2338 H2329 0.930 . S
C2338 C2336 1.378 . S
C2338 C2339 1.367 . S
C2339 C2338 1.367 . S
C2339 C2341 1.433 . S
C2340 C2336 1.350 . S
C2340 C2337 1.463 . S
C2340 N2344 1.427 . S
C2341 H2331 0.929 . S
C2341 C2339 1.433 . S
C2341 N2344 1.384 . S
C2342 H2333 0.929 . S
C2342 C2334 1.378 . S
C2342 C2337 1.350 . S
C2343 H2330 0.929 . S
C2343 C2335 1.433 . S
C2343 N2345 1.384 . S
N2344 C2340 1.427 . S
N2344 C2341 1.384 . S
N2345 C2337 1.427 . S
N2345 C2343 1.384 . S
H2346 C2352 0.930 . S
H2347 C2356 0.930 . S
H2348 C2361 0.929 . S
H2349 C2359 0.929 . S
H2350 C2354 0.929 . S
H2351 C2360 0.929 . S
C2352 H2346 0.930 . S
C2352 C2353 1.367 . S
C2352 C2360 1.378 . S
C2353 C2352 1.367 . S
C2353 C2361 1.433 . S
C2354 H2350 0.929 . S
C2354 C2356 1.378 . S
C2354 C2358 1.350 . S
C2355 C2358 1.463 . S
C2355 C2360 1.350 . S
C2355 N2363 1.427 . S
C2356 H2347 0.930 . S
C2356 C2354 1.378 . S
C2356 C2357 1.367 . S
C2357 C2356 1.367 . S
C2357 C2359 1.433 . S
C2358 C2354 1.350 . S
C2358 C2355 1.463 . S
C2358 N2362 1.427 . S
C2359 H2349 0.929 . S
C2359 C2357 1.433 . S
C2359 N2362 1.384 . S
C2360 H2351 0.929 . S
C2360 C2352 1.378 . S
C2360 C2355 1.350 . S
C2361 H2348 0.929 . S
C2361 C2353 1.433 . S
C2361 N2363 1.384 . S
N2362 C2358 1.427 . S
N2362 C2359 1.384 . S
N2363 C2355 1.427 . S
N2363 C2361 1.384 . S
H2364 C2370 0.930 . S
H2365 C2374 0.930 . S
H2366 C2379 0.929 . S
H2367 C2377 0.929 . S
H2368 C2372 0.929 . S
H2369 C2378 0.929 . S
C2370 H2364 0.930 . S
C2370 C2371 1.367 . S
C2370 C2378 1.378 . S
C2371 C2370 1.367 . S
C2371 C2379 1.433 . S
C2372 H2368 0.929 . S
C2372 C2374 1.378 . S
C2372 C2376 1.350 . S
C2373 C2376 1.463 . S
C2373 C2378 1.350 . S
C2373 N2381 1.427 . S
C2374 H2365 0.930 . S
C2374 C2372 1.378 . S
C2374 C2375 1.367 . S
C2375 C2374 1.367 . S
C2375 C2377 1.433 . S
C2376 C2372 1.350 . S
C2376 C2373 1.463 . S
C2376 N2380 1.427 . S
C2377 H2367 0.929 . S
C2377 C2375 1.433 . S
C2377 N2380 1.384 . S
C2378 H2369 0.929 . S
C2378 C2370 1.378 . S
C2378 C2373 1.350 . S
C2379 H2366 0.929 . S
C2379 C2371 1.433 . S
C2379 N2381 1.384 . S
N2380 C2376 1.427 . S
N2380 C2377 1.384 . S
N2381 C2373 1.427 . S
N2381 C2379 1.384 . S
H2382 C2388 0.930 . S
H2383 C2392 0.930 . S
H2384 C2397 0.929 . S
H2385 C2395 0.929 . S
H2386 C2390 0.929 . S
H2387 C2396 0.929 . S
C2388 H2382 0.930 . S
C2388 C2389 1.367 . S
C2388 C2396 1.378 . S
C2389 C2388 1.367 . S
C2389 C2397 1.433 . S
C2390 H2386 0.929 . S
C2390 C2392 1.378 . S
C2390 C2394 1.350 . S
C2391 C2394 1.463 . S
C2391 C2396 1.350 . S
C2391 N2399 1.427 . S
C2392 H2383 0.930 . S
C2392 C2390 1.378 . S
C2392 C2393 1.367 . S
C2393 C2392 1.367 . S
C2393 C2395 1.433 . S
C2394 C2390 1.350 . S
C2394 C2391 1.463 . S
C2394 N2398 1.427 . S
C2395 H2385 0.929 . S
C2395 C2393 1.433 . S
C2395 N2398 1.384 . S
C2396 H2387 0.929 . S
C2396 C2388 1.378 . S
C2396 C2391 1.350 . S
C2397 H2384 0.929 . S
C2397 C2389 1.433 . S
C2397 N2399 1.384 . S
N2398 C2394 1.427 . S
N2398 C2395 1.384 . S
N2399 C2391 1.427 . S
N2399 C2397 1.384 . S
C679 C231 1.173 . S
C683 C7 1.202 . S
C697 C667 0.896 . S
C701 C21 1.011 . S
C715 C35 1.208 . S
C719 C637 1.169 . S
C733 C49 0.954 . S
C737 C653 0.883 . S
C751 C245 1.209 . S
C755 C63 1.261 . S
C769 C77 1.261 . S
C773 C261 1.045 . S
C787 C91 1.265 . S
C791 C273 1.206 . S
C805 C625 1.056 . S
C809 C105 1.240 . S
C823 C121 1.285 . S
C827 C9 1.141 . S
C841 C23 1.080 . S
C845 C133 1.221 . S
C859 C37 1.126 . S
C863 C149 1.267 . S
C877 C51 1.092 . S
C881 C161 1.216 . S
C895 C65 1.154 . S
C899 C177 1.295 . S
C913 C189 0.909 . S
C917 C79 0.824 . S
C931 C93 1.160 . S
C935 C205 1.281 . S
C949 C217 0.914 . S
C953 C107 0.828 . S
C967 C233 1.262 . S
C971 C119 1.320 . S
C985 C175 1.293 . S
C989 C247 1.235 . S
C1003 C259 1.120 . S
C1007 C191 0.965 . S
C1021 C275 1.271 . S
C1025 C203 1.333 . S
C1039 C555 0.982 . S
C1043 C287 1.170 . S
C1057 C303 1.319 . S
C1061 C483 1.347 . S
C1075 C499 1.026 . S
C1079 C315 1.172 . S
C1093 C471 1.056 . S
C1097 C329 1.202 . S
C1111 C567 1.083 . S
C1115 C343 1.093 . S
C1129 C357 1.240 . S
C1133 C331 1.018 . S
C1147 C371 1.090 . S
C1151 C301 1.056 . S
C1165 C385 1.260 . S
C1169 C317 1.065 . S
C1183 C399 1.045 . S
C1187 C581 1.038 . S
C1201 C597 0.867 . S
C1205 C413 0.951 . S
C1219 C427 1.042 . S
C1223 C609 1.007 . S
C1237 C289 0.905 . S
C1241 C441 0.995 . S
C1255 C345 1.417 . S
C1259 C457 1.581 . S
C1273 C469 0.858 . S
C1277 C359 0.840 . S
C1291 C485 1.618 . S
C1295 C373 1.425 . S
C1309 C497 0.850 . S
C1313 C387 0.839 . S
C1327 C513 1.566 . S
C1331 C401 1.384 . S
C1345 C525 1.179 . S
C1349 C415 1.034 . S
C1363 C429 1.415 . S
C1367 C541 1.587 . S
C1381 C443 1.048 . S
C1385 C553 1.172 . S
C1399 C455 1.380 . S
C1403 C569 1.325 . S
C1417 C511 1.408 . S
C1421 C583 1.351 . S
C1435 C527 1.033 . S
C1439 C595 1.201 . S
C1453 C611 1.325 . S
C1457 C539 1.380 . S
C1471 C623 1.143 . S
C1475 C219 1.005 . S
C1489 C639 1.301 . S
C1493 C147 1.363 . S
C1507 C163 0.998 . S
C1511 C651 1.146 . S
C1525 C665 1.106 . S
C1529 C135 0.974 . S
C1543 C6 0.889 . S
C1547 C386 0.880 . S
C1561 C344 1.468 . S
C1565 C20 1.472 . S
C1579 C34 0.869 . S
C1583 C358 0.858 . S
C1597 C48 1.454 . S
C1601 C372 1.457 . S
C1615 C62 0.949 . S
C1619 C78 0.949 . S
C1633 C92 1.891 . S
C1637 C76 1.934 . S
C1651 C90 0.921 . S
C1655 C106 0.931 . S
C1669 C104 1.926 . S
C1673 C64 1.891 . S
C1687 C120 1.404 . S
C1691 C596 1.525 . S
C1705 C132 1.633 . S
C1709 C608 1.577 . S
C1723 C148 1.520 . S
C1727 C288 1.657 . S
C1741 C160 1.658 . S
C1745 C580 1.600 . S
C1759 C176 1.366 . S
C1763 C652 1.485 . S
C1777 C230 1.498 . S
C1781 C188 1.576 . S
C1795 C204 1.474 . S
C1799 C666 1.616 . S
C1813 C636 1.519 . S
C1817 C216 1.601 . S
C1831 C134 1.742 . S
C1835 C232 1.616 . S
C1849 C246 1.764 . S
C1853 C554 1.894 . S
C1867 C258 1.461 . S
C1871 C510 1.434 . S
C1885 C526 1.915 . S
C1889 C274 1.780 . S
C1903 C286 1.262 . S
C1907 C202 1.229 . S
C1921 C498 1.701 . S
C1925 C302 1.566 . S
C1939 C454 1.446 . S
C1943 C314 1.481 . S
C1957 C482 1.482 . S
C1961 C328 1.523 . S
C1975 C342 1.859 . S
C1979 C50 1.888 . S
C1993 C356 1.879 . S
C1997 C8 1.849 . S
C2011 C22 1.915 . S
C2015 C370 1.886 . S
C2029 C384 1.885 . S
C2033 C36 1.854 . S
C2047 C398 1.823 . S
C2051 C414 1.851 . S
C2065 C428 1.409 . S
C2069 C412 1.405 . S
C2083 C442 1.878 . S
C2087 C426 1.852 . S
C2101 C440 1.422 . S
C2105 C400 1.426 . S
C2119 C260 1.806 . S
C2123 C456 1.656 . S
C2137 C468 1.541 . S
C2141 C272 1.479 . S
C2155 C484 1.587 . S
C2159 C624 1.735 . S
C2173 C496 1.516 . S
C2177 C244 1.454 . S
C2191 C512 1.686 . S
C2195 C316 1.841 . S
C2209 C524 1.597 . S
C2213 C566 1.540 . S
C2227 C330 1.775 . S
C2231 C540 1.627 . S
C2245 C552 1.571 . S
C2249 C300 1.506 . S
C2263 C470 1.721 . S
C2267 C568 1.600 . S
C2281 C218 1.566 . S
C2285 C582 1.440 . S
C2299 C174 1.283 . S
C2303 C594 1.317 . S
C2317 C610 1.420 . S
C2321 C190 1.534 . S
C2335 C622 1.503 . S
C2339 C538 1.475 . S
C2353 C162 1.771 . S
C2357 C638 1.644 . S
C2371 C650 1.295 . S
C2375 C118 1.259 . S
C2389 C146 1.207 . S
C2393 C664 1.245 . S
