# Generated by pormake.
# Topology fcg, (5)-cn, num edge types: 1
# Building blocks:
#     Node 0, Type 0, BuildingBlock: XOMCOT_clean_sbu_1, # of connection points: 5
#     Node 1, Type 0, BuildingBlock: XOMCOT_clean_sbu_1, # of connection points: 5
#     Node 2, Type 0, BuildingBlock: XOMCOT_clean_sbu_1, # of connection points: 5
#     Node 3, Type 0, BuildingBlock: XOMCOT_clean_sbu_1, # of connection points: 5
#     Node 4, Type 0, BuildingBlock: XOMCOT_clean_sbu_1, # of connection points: 5
#     Node 5, Type 0, BuildingBlock: XOMCOT_clean_sbu_1, # of connection points: 5
#     Node 6, Type 0, BuildingBlock: XOMCOT_clean_sbu_1, # of connection points: 5
#     Node 7, Type 0, BuildingBlock: XOMCOT_clean_sbu_1, # of connection points: 5
#     Node 8, Type 0, BuildingBlock: XOMCOT_clean_sbu_1, # of connection points: 5
#     Node 9, Type 0, BuildingBlock: XOMCOT_clean_sbu_1, # of connection points: 5
#     Node 10, Type 0, BuildingBlock: XOMCOT_clean_sbu_1, # of connection points: 5
#     Node 11, Type 0, BuildingBlock: XOMCOT_clean_sbu_1, # of connection points: 5
#     Node 12, Type 0, BuildingBlock: XOMCOT_clean_sbu_1, # of connection points: 5
#     Node 13, Type 0, BuildingBlock: XOMCOT_clean_sbu_1, # of connection points: 5
#     Node 14, Type 0, BuildingBlock: XOMCOT_clean_sbu_1, # of connection points: 5
#     Node 15, Type 0, BuildingBlock: XOMCOT_clean_sbu_1, # of connection points: 5
#     Node 16, Type 0, BuildingBlock: XOMCOT_clean_sbu_1, # of connection points: 5
#     Node 17, Type 0, BuildingBlock: XOMCOT_clean_sbu_1, # of connection points: 5
#     Node 18, Type 0, BuildingBlock: XOMCOT_clean_sbu_1, # of connection points: 5
#     Node 19, Type 0, BuildingBlock: XOMCOT_clean_sbu_1, # of connection points: 5
#     Node 20, Type 0, BuildingBlock: XOMCOT_clean_sbu_1, # of connection points: 5
#     Node 21, Type 0, BuildingBlock: XOMCOT_clean_sbu_1, # of connection points: 5
#     Node 22, Type 0, BuildingBlock: XOMCOT_clean_sbu_1, # of connection points: 5
#     Node 23, Type 0, BuildingBlock: XOMCOT_clean_sbu_1, # of connection points: 5
#     Node 24, Type 0, BuildingBlock: XOMCOT_clean_sbu_1, # of connection points: 5
#     Node 25, Type 0, BuildingBlock: XOMCOT_clean_sbu_1, # of connection points: 5
#     Node 26, Type 0, BuildingBlock: XOMCOT_clean_sbu_1, # of connection points: 5
#     Node 27, Type 0, BuildingBlock: XOMCOT_clean_sbu_1, # of connection points: 5
#     Node 28, Type 0, BuildingBlock: XOMCOT_clean_sbu_1, # of connection points: 5
#     Node 29, Type 0, BuildingBlock: XOMCOT_clean_sbu_1, # of connection points: 5
#     Node 30, Type 0, BuildingBlock: XOMCOT_clean_sbu_1, # of connection points: 5
#     Node 31, Type 0, BuildingBlock: XOMCOT_clean_sbu_1, # of connection points: 5
#     Node 32, Type 0, BuildingBlock: XOMCOT_clean_sbu_1, # of connection points: 5
#     Node 33, Type 0, BuildingBlock: XOMCOT_clean_sbu_1, # of connection points: 5
#     Node 34, Type 0, BuildingBlock: XOMCOT_clean_sbu_1, # of connection points: 5
#     Node 35, Type 0, BuildingBlock: XOMCOT_clean_sbu_1, # of connection points: 5
#     Node 36, Type 0, BuildingBlock: XOMCOT_clean_sbu_1, # of connection points: 5
#     Node 37, Type 0, BuildingBlock: XOMCOT_clean_sbu_1, # of connection points: 5
#     Node 38, Type 0, BuildingBlock: XOMCOT_clean_sbu_1, # of connection points: 5
#     Node 39, Type 0, BuildingBlock: XOMCOT_clean_sbu_1, # of connection points: 5
#     Node 40, Type 0, BuildingBlock: XOMCOT_clean_sbu_1, # of connection points: 5
#     Node 41, Type 0, BuildingBlock: XOMCOT_clean_sbu_1, # of connection points: 5
#     Node 42, Type 0, BuildingBlock: XOMCOT_clean_sbu_1, # of connection points: 5
#     Node 43, Type 0, BuildingBlock: XOMCOT_clean_sbu_1, # of connection points: 5
#     Node 44, Type 0, BuildingBlock: XOMCOT_clean_sbu_1, # of connection points: 5
#     Node 45, Type 0, BuildingBlock: XOMCOT_clean_sbu_1, # of connection points: 5
#     Node 46, Type 0, BuildingBlock: XOMCOT_clean_sbu_1, # of connection points: 5
#     Node 47, Type 0, BuildingBlock: XOMCOT_clean_sbu_1, # of connection points: 5
#     Edge 48, Type (0, 0), BuildingBlock: OJICUG_clean_linker_0, # of connection points: 2
#     Edge 49, Type (0, 0), BuildingBlock: OJICUG_clean_linker_0, # of connection points: 2
#     Edge 50, Type (0, 0), BuildingBlock: OJICUG_clean_linker_0, # of connection points: 2
#     Edge 51, Type (0, 0), BuildingBlock: OJICUG_clean_linker_0, # of connection points: 2
#     Edge 52, Type (0, 0), BuildingBlock: OJICUG_clean_linker_0, # of connection points: 2
#     Edge 53, Type (0, 0), BuildingBlock: OJICUG_clean_linker_0, # of connection points: 2
#     Edge 54, Type (0, 0), BuildingBlock: OJICUG_clean_linker_0, # of connection points: 2
#     Edge 55, Type (0, 0), BuildingBlock: OJICUG_clean_linker_0, # of connection points: 2
#     Edge 56, Type (0, 0), BuildingBlock: OJICUG_clean_linker_0, # of connection points: 2
#     Edge 57, Type (0, 0), BuildingBlock: OJICUG_clean_linker_0, # of connection points: 2
#     Edge 58, Type (0, 0), BuildingBlock: OJICUG_clean_linker_0, # of connection points: 2
#     Edge 59, Type (0, 0), BuildingBlock: OJICUG_clean_linker_0, # of connection points: 2
#     Edge 60, Type (0, 0), BuildingBlock: OJICUG_clean_linker_0, # of connection points: 2
#     Edge 61, Type (0, 0), BuildingBlock: OJICUG_clean_linker_0, # of connection points: 2
#     Edge 62, Type (0, 0), BuildingBlock: OJICUG_clean_linker_0, # of connection points: 2
#     Edge 63, Type (0, 0), BuildingBlock: OJICUG_clean_linker_0, # of connection points: 2
#     Edge 64, Type (0, 0), BuildingBlock: OJICUG_clean_linker_0, # of connection points: 2
#     Edge 65, Type (0, 0), BuildingBlock: OJICUG_clean_linker_0, # of connection points: 2
#     Edge 66, Type (0, 0), BuildingBlock: OJICUG_clean_linker_0, # of connection points: 2
#     Edge 67, Type (0, 0), BuildingBlock: OJICUG_clean_linker_0, # of connection points: 2
#     Edge 68, Type (0, 0), BuildingBlock: OJICUG_clean_linker_0, # of connection points: 2
#     Edge 69, Type (0, 0), BuildingBlock: OJICUG_clean_linker_0, # of connection points: 2
#     Edge 70, Type (0, 0), BuildingBlock: OJICUG_clean_linker_0, # of connection points: 2
#     Edge 71, Type (0, 0), BuildingBlock: OJICUG_clean_linker_0, # of connection points: 2
#     Edge 72, Type (0, 0), BuildingBlock: OJICUG_clean_linker_0, # of connection points: 2
#     Edge 73, Type (0, 0), BuildingBlock: OJICUG_clean_linker_0, # of connection points: 2
#     Edge 74, Type (0, 0), BuildingBlock: OJICUG_clean_linker_0, # of connection points: 2
#     Edge 75, Type (0, 0), BuildingBlock: OJICUG_clean_linker_0, # of connection points: 2
#     Edge 76, Type (0, 0), BuildingBlock: OJICUG_clean_linker_0, # of connection points: 2
#     Edge 77, Type (0, 0), BuildingBlock: OJICUG_clean_linker_0, # of connection points: 2
#     Edge 78, Type (0, 0), BuildingBlock: OJICUG_clean_linker_0, # of connection points: 2
#     Edge 79, Type (0, 0), BuildingBlock: OJICUG_clean_linker_0, # of connection points: 2
#     Edge 80, Type (0, 0), BuildingBlock: OJICUG_clean_linker_0, # of connection points: 2
#     Edge 81, Type (0, 0), BuildingBlock: OJICUG_clean_linker_0, # of connection points: 2
#     Edge 82, Type (0, 0), BuildingBlock: OJICUG_clean_linker_0, # of connection points: 2
#     Edge 83, Type (0, 0), BuildingBlock: OJICUG_clean_linker_0, # of connection points: 2
#     Edge 84, Type (0, 0), BuildingBlock: OJICUG_clean_linker_0, # of connection points: 2
#     Edge 85, Type (0, 0), BuildingBlock: OJICUG_clean_linker_0, # of connection points: 2
#     Edge 86, Type (0, 0), BuildingBlock: OJICUG_clean_linker_0, # of connection points: 2
#     Edge 87, Type (0, 0), BuildingBlock: OJICUG_clean_linker_0, # of connection points: 2
#     Edge 88, Type (0, 0), BuildingBlock: OJICUG_clean_linker_0, # of connection points: 2
#     Edge 89, Type (0, 0), BuildingBlock: OJICUG_clean_linker_0, # of connection points: 2
#     Edge 90, Type (0, 0), BuildingBlock: OJICUG_clean_linker_0, # of connection points: 2
#     Edge 91, Type (0, 0), BuildingBlock: OJICUG_clean_linker_0, # of connection points: 2
#     Edge 92, Type (0, 0), BuildingBlock: OJICUG_clean_linker_0, # of connection points: 2
#     Edge 93, Type (0, 0), BuildingBlock: OJICUG_clean_linker_0, # of connection points: 2
#     Edge 94, Type (0, 0), BuildingBlock: OJICUG_clean_linker_0, # of connection points: 2
#     Edge 95, Type (0, 0), BuildingBlock: OJICUG_clean_linker_0, # of connection points: 2
#     Edge 96, Type (0, 0), BuildingBlock: OJICUG_clean_linker_0, # of connection points: 2
#     Edge 97, Type (0, 0), BuildingBlock: OJICUG_clean_linker_0, # of connection points: 2
#     Edge 98, Type (0, 0), BuildingBlock: OJICUG_clean_linker_0, # of connection points: 2
#     Edge 99, Type (0, 0), BuildingBlock: OJICUG_clean_linker_0, # of connection points: 2
#     Edge 100, Type (0, 0), BuildingBlock: OJICUG_clean_linker_0, # of connection points: 2
#     Edge 101, Type (0, 0), BuildingBlock: OJICUG_clean_linker_0, # of connection points: 2
#     Edge 102, Type (0, 0), BuildingBlock: OJICUG_clean_linker_0, # of connection points: 2
#     Edge 103, Type (0, 0), BuildingBlock: OJICUG_clean_linker_0, # of connection points: 2
#     Edge 104, Type (0, 0), BuildingBlock: OJICUG_clean_linker_0, # of connection points: 2
#     Edge 105, Type (0, 0), BuildingBlock: OJICUG_clean_linker_0, # of connection points: 2
#     Edge 106, Type (0, 0), BuildingBlock: OJICUG_clean_linker_0, # of connection points: 2
#     Edge 107, Type (0, 0), BuildingBlock: OJICUG_clean_linker_0, # of connection points: 2
#     Edge 108, Type (0, 0), BuildingBlock: OJICUG_clean_linker_0, # of connection points: 2
#     Edge 109, Type (0, 0), BuildingBlock: OJICUG_clean_linker_0, # of connection points: 2
#     Edge 110, Type (0, 0), BuildingBlock: OJICUG_clean_linker_0, # of connection points: 2
#     Edge 111, Type (0, 0), BuildingBlock: OJICUG_clean_linker_0, # of connection points: 2
#     Edge 112, Type (0, 0), BuildingBlock: OJICUG_clean_linker_0, # of connection points: 2
#     Edge 113, Type (0, 0), BuildingBlock: OJICUG_clean_linker_0, # of connection points: 2
#     Edge 114, Type (0, 0), BuildingBlock: OJICUG_clean_linker_0, # of connection points: 2
#     Edge 115, Type (0, 0), BuildingBlock: OJICUG_clean_linker_0, # of connection points: 2
#     Edge 116, Type (0, 0), BuildingBlock: OJICUG_clean_linker_0, # of connection points: 2
#     Edge 117, Type (0, 0), BuildingBlock: OJICUG_clean_linker_0, # of connection points: 2
#     Edge 118, Type (0, 0), BuildingBlock: OJICUG_clean_linker_0, # of connection points: 2
#     Edge 119, Type (0, 0), BuildingBlock: OJICUG_clean_linker_0, # of connection points: 2
#     Edge 120, Type (0, 0), BuildingBlock: OJICUG_clean_linker_0, # of connection points: 2
#     Edge 121, Type (0, 0), BuildingBlock: OJICUG_clean_linker_0, # of connection points: 2
#     Edge 122, Type (0, 0), BuildingBlock: OJICUG_clean_linker_0, # of connection points: 2
#     Edge 123, Type (0, 0), BuildingBlock: OJICUG_clean_linker_0, # of connection points: 2
#     Edge 124, Type (0, 0), BuildingBlock: OJICUG_clean_linker_0, # of connection points: 2
#     Edge 125, Type (0, 0), BuildingBlock: OJICUG_clean_linker_0, # of connection points: 2
#     Edge 126, Type (0, 0), BuildingBlock: OJICUG_clean_linker_0, # of connection points: 2
#     Edge 127, Type (0, 0), BuildingBlock: OJICUG_clean_linker_0, # of connection points: 2
#     Edge 128, Type (0, 0), BuildingBlock: OJICUG_clean_linker_0, # of connection points: 2
#     Edge 129, Type (0, 0), BuildingBlock: OJICUG_clean_linker_0, # of connection points: 2
#     Edge 130, Type (0, 0), BuildingBlock: OJICUG_clean_linker_0, # of connection points: 2
#     Edge 131, Type (0, 0), BuildingBlock: OJICUG_clean_linker_0, # of connection points: 2
#     Edge 132, Type (0, 0), BuildingBlock: OJICUG_clean_linker_0, # of connection points: 2
#     Edge 133, Type (0, 0), BuildingBlock: OJICUG_clean_linker_0, # of connection points: 2
#     Edge 134, Type (0, 0), BuildingBlock: OJICUG_clean_linker_0, # of connection points: 2
#     Edge 135, Type (0, 0), BuildingBlock: OJICUG_clean_linker_0, # of connection points: 2
#     Edge 136, Type (0, 0), BuildingBlock: OJICUG_clean_linker_0, # of connection points: 2
#     Edge 137, Type (0, 0), BuildingBlock: OJICUG_clean_linker_0, # of connection points: 2
#     Edge 138, Type (0, 0), BuildingBlock: OJICUG_clean_linker_0, # of connection points: 2
#     Edge 139, Type (0, 0), BuildingBlock: OJICUG_clean_linker_0, # of connection points: 2
#     Edge 140, Type (0, 0), BuildingBlock: OJICUG_clean_linker_0, # of connection points: 2
#     Edge 141, Type (0, 0), BuildingBlock: OJICUG_clean_linker_0, # of connection points: 2
#     Edge 142, Type (0, 0), BuildingBlock: OJICUG_clean_linker_0, # of connection points: 2
#     Edge 143, Type (0, 0), BuildingBlock: OJICUG_clean_linker_0, # of connection points: 2
#     Edge 144, Type (0, 0), BuildingBlock: OJICUG_clean_linker_0, # of connection points: 2
#     Edge 145, Type (0, 0), BuildingBlock: OJICUG_clean_linker_0, # of connection points: 2
#     Edge 146, Type (0, 0), BuildingBlock: OJICUG_clean_linker_0, # of connection points: 2
#     Edge 147, Type (0, 0), BuildingBlock: OJICUG_clean_linker_0, # of connection points: 2
#     Edge 148, Type (0, 0), BuildingBlock: OJICUG_clean_linker_0, # of connection points: 2
#     Edge 149, Type (0, 0), BuildingBlock: OJICUG_clean_linker_0, # of connection points: 2
#     Edge 150, Type (0, 0), BuildingBlock: OJICUG_clean_linker_0, # of connection points: 2
#     Edge 151, Type (0, 0), BuildingBlock: OJICUG_clean_linker_0, # of connection points: 2
#     Edge 152, Type (0, 0), BuildingBlock: OJICUG_clean_linker_0, # of connection points: 2
#     Edge 153, Type (0, 0), BuildingBlock: OJICUG_clean_linker_0, # of connection points: 2
#     Edge 154, Type (0, 0), BuildingBlock: OJICUG_clean_linker_0, # of connection points: 2
#     Edge 155, Type (0, 0), BuildingBlock: OJICUG_clean_linker_0, # of connection points: 2
#     Edge 156, Type (0, 0), BuildingBlock: OJICUG_clean_linker_0, # of connection points: 2
#     Edge 157, Type (0, 0), BuildingBlock: OJICUG_clean_linker_0, # of connection points: 2
#     Edge 158, Type (0, 0), BuildingBlock: OJICUG_clean_linker_0, # of connection points: 2
#     Edge 159, Type (0, 0), BuildingBlock: OJICUG_clean_linker_0, # of connection points: 2
#     Edge 160, Type (0, 0), BuildingBlock: OJICUG_clean_linker_0, # of connection points: 2
#     Edge 161, Type (0, 0), BuildingBlock: OJICUG_clean_linker_0, # of connection points: 2
#     Edge 162, Type (0, 0), BuildingBlock: OJICUG_clean_linker_0, # of connection points: 2
#     Edge 163, Type (0, 0), BuildingBlock: OJICUG_clean_linker_0, # of connection points: 2
#     Edge 164, Type (0, 0), BuildingBlock: OJICUG_clean_linker_0, # of connection points: 2
#     Edge 165, Type (0, 0), BuildingBlock: OJICUG_clean_linker_0, # of connection points: 2
#     Edge 166, Type (0, 0), BuildingBlock: OJICUG_clean_linker_0, # of connection points: 2
#     Edge 167, Type (0, 0), BuildingBlock: OJICUG_clean_linker_0, # of connection points: 2
# Relax obj value: 0.361
# Max RMSD: 0.246
# Mean RMSD: 0.246
data_MOF--net-fcg--node1-XOMCOT_clean_sbu_1--edge1-OJICUG_clean_linker_0
_symmetry_space_group_name_H-M    P1
_symmetry_Int_Tables_number       1
_symmetry_cell_setting            triclinic
loop_
_symmetry_equiv_pos_as_xyz
'x, y, z'
_cell_length_a     50.946784
_cell_length_b     50.926856
_cell_length_c     50.945611
_cell_angle_alpha  90.011039
_cell_angle_beta   89.990248
_cell_angle_gamma 90.002786
loop_
_atom_site_label
_atom_site_type_symbol
_atom_site_fract_x
_atom_site_fract_y
_atom_site_fract_z
_atom_type_partial_charge
C0 C 0.15709 0.28607 0.11237 0.0
C1 C 0.17505 0.26772 0.10365 0.0
N2 N 0.16449 0.24372 0.10705 0.0
N3 N 0.1355 0.27345 0.12104 0.0
C4 C 0.14068 0.24774 0.11755 0.0
H5 H 0.15881 0.30716 0.11063 0.0
Co6 Co 0.10253 0.28723 0.12631 0.0
C7 C 0.07675 0.25146 0.16458 0.0
O8 O 0.06237 0.27119 0.17289 0.0
N9 N 0.06829 0.30088 0.1303 0.0
C10 C 0.03297 0.32623 0.13427 0.0
C11 C 0.05951 0.32444 0.13881 0.0
C12 C 0.04658 0.28878 0.12081 0.0
N13 N 0.02494 0.3038 0.12285 0.0
O14 O 0.09322 0.2739 0.09244 0.0
H15 H 0.07137 0.33994 0.14693 0.0
H16 H 0.04684 0.26964 0.11157 0.0
O17 O 0.09209 0.25482 0.14493 0.0
C18 C 0.09581 0.29381 0.07744 0.0
O19 O 0.10006 0.31682 0.08836 0.0
N20 N 0.11436 0.30279 0.15765 0.0
C21 C 0.13811 0.33062 0.19843 0.0
C22 C 0.13337 0.30361 0.20077 0.0
C23 C 0.12221 0.28988 0.17983 0.0
C24 C 0.12023 0.32873 0.15458 0.0
C25 C 0.1317 0.34314 0.17483 0.0
H26 H 0.12131 0.26882 0.18119 0.0
H27 H 0.11627 0.33825 0.13603 0.0
H28 H 0.12637 0.23227 0.12009 0.0
H29 H 0.19384 0.27168 0.09455 0.0
H30 H 0.02063 0.343 0.13853 0.0
H31 H 0.13929 0.29298 0.21821 0.0
H32 H 0.13562 0.36385 0.17199 0.0
C33 C 0.72112 0.15756 0.13274 0.0
C34 C 0.73991 0.1764 0.12774 0.0
N35 N 0.76268 0.16416 0.12196 0.0
N36 N 0.73212 0.13365 0.13019 0.0
C37 C 0.75738 0.13832 0.12369 0.0
H38 H 0.70058 0.16104 0.13686 0.0
Co39 Co 0.7163 0.10086 0.12963 0.0
C40 C 0.75029 0.06894 0.16407 0.0
O41 O 0.72958 0.0553 0.17118 0.0
N42 N 0.70112 0.06718 0.12775 0.0
C43 C 0.67509 0.0322 0.1252 0.0
C44 C 0.67654 0.05823 0.13223 0.0
C45 C 0.714 0.04621 0.11764 0.0
N46 N 0.69872 0.02472 0.11606 0.0
O47 O 0.72872 0.0965 0.09447 0.0
H48 H 0.66028 0.06959 0.13953 0.0
H49 H 0.73422 0.04685 0.11113 0.0
O50 O 0.74807 0.08609 0.14578 0.0
C51 C 0.70981 0.1068 0.08162 0.0
O52 O 0.68868 0.1139 0.09465 0.0
N53 N 0.70143 0.10793 0.16275 0.0
C54 C 0.67543 0.12829 0.20648 0.0
C55 C 0.70236 0.12287 0.2075 0.0
C56 C 0.71517 0.11352 0.18514 0.0
C57 C 0.67543 0.11408 0.16129 0.0
C58 C 0.66193 0.12379 0.183 0.0
H59 H 0.73628 0.11276 0.18548 0.0
H60 H 0.66536 0.11288 0.14267 0.0
H61 H 0.7712 0.12299 0.11864 0.0
H62 H 0.73687 0.19743 0.12775 0.0
H63 H 0.65796 0.01973 0.12676 0.0
H64 H 0.71375 0.12748 0.22486 0.0
H65 H 0.64129 0.12855 0.18115 0.0
C66 C 0.85707 0.72246 0.11671 0.0
C67 C 0.83698 0.73873 0.10863 0.0
N68 N 0.84438 0.7637 0.11312 0.0
N69 N 0.87692 0.73727 0.12603 0.0
C70 C 0.86854 0.7623 0.12362 0.0
H71 H 0.858 0.7014 0.11409 0.0
Co72 Co 0.91105 0.72604 0.1308 0.0
C73 C 0.93594 0.76529 0.16606 0.0
O74 O 0.95325 0.74773 0.17358 0.0
N75 N 0.94629 0.7146 0.13413 0.0
C76 C 0.98257 0.69051 0.13769 0.0
C77 C 0.95643 0.69213 0.14403 0.0
C78 C 0.967 0.7264 0.12222 0.0
N79 N 0.9891 0.71204 0.12393 0.0
O80 O 0.91831 0.73908 0.09674 0.0
H81 H 0.94573 0.67696 0.1541 0.0
H82 H 0.96559 0.74449 0.11116 0.0
O83 O 0.91989 0.75968 0.14754 0.0
C84 C 0.91869 0.72021 0.08035 0.0
O85 O 0.91954 0.69602 0.08929 0.0
N86 N 0.9012 0.7113 0.16319 0.0
C87 C 0.88023 0.68552 0.20677 0.0
C88 C 0.88298 0.71288 0.20662 0.0
C89 C 0.89277 0.72543 0.18438 0.0
C90 C 0.89705 0.68487 0.16238 0.0
C91 C 0.88718 0.67146 0.18414 0.0
H92 H 0.89183 0.74651 0.18386 0.0
H93 H 0.90113 0.67415 0.1445 0.0
H94 H 0.88072 0.77932 0.12702 0.0
H95 H 0.8189 0.73281 0.09917 0.0
H96 H 0.99557 0.67421 0.14188 0.0
H97 H 0.87632 0.72465 0.22304 0.0
H98 H 0.88469 0.65037 0.18311 0.0
C99 C 0.28965 0.84767 0.13447 0.0
C100 C 0.27562 0.82656 0.12519 0.0
N101 N 0.25126 0.8348 0.11906 0.0
N102 N 0.27417 0.86913 0.13432 0.0
C103 C 0.25075 0.86058 0.12516 0.0
H104 H 0.31045 0.84779 0.13863 0.0
Co105 Co 0.28619 0.90354 0.13469 0.0
C106 C 0.25177 0.93276 0.17092 0.0
O107 O 0.2722 0.94721 0.17718 0.0
N108 N 0.29841 0.9385 0.13334 0.0
C109 C 0.32287 0.97452 0.12995 0.0
C110 C 0.32254 0.94871 0.13767 0.0
C111 C 0.28454 0.95867 0.12291 0.0
N112 N 0.29898 0.98066 0.12059 0.0
O113 O 0.27061 0.90803 0.10117 0.0
H114 H 0.33944 0.93828 0.14483 0.0
H115 H 0.26447 0.95692 0.11613 0.0
O116 O 0.25406 0.91505 0.1531 0.0
C117 C 0.28812 0.90642 0.08342 0.0
O118 O 0.31294 0.90603 0.09043 0.0
N119 N 0.30344 0.89693 0.1667 0.0
C120 C 0.33275 0.88109 0.21004 0.0
C121 C 0.30553 0.88414 0.21197 0.0
C122 C 0.29112 0.89117 0.18984 0.0
C123 C 0.32975 0.89263 0.16423 0.0
C124 C 0.34489 0.88509 0.18574 0.0
H125 H 0.27004 0.89041 0.19119 0.0
H126 H 0.33887 0.89408 0.14512 0.0
H127 H 0.23466 0.87356 0.12022 0.0
H128 H 0.28326 0.80706 0.12154 0.0
H129 H 0.33958 0.98764 0.13067 0.0
H130 H 0.29527 0.87955 0.23004 0.0
H131 H 0.36575 0.88176 0.18325 0.0
C132 C 0.15388 0.70826 0.88105 0.0
C133 C 0.17306 0.72465 0.89089 0.0
N134 N 0.16682 0.74943 0.88418 0.0
N135 N 0.13575 0.72284 0.86842 0.0
C136 C 0.14431 0.7478 0.87056 0.0
H137 H 0.15191 0.68751 0.88509 0.0
Co138 Co 0.10166 0.71279 0.86197 0.0
C139 C 0.08037 0.75075 0.82248 0.0
O140 O 0.06273 0.73354 0.8149 0.0
N141 N 0.06646 0.70249 0.85673 0.0
C142 C 0.03011 0.67917 0.85034 0.0
C143 C 0.05663 0.68039 0.84576 0.0
C144 C 0.04527 0.71456 0.86736 0.0
N145 N 0.0231 0.7006 0.86405 0.0
O146 O 0.09257 0.72957 0.89415 0.0
H147 H 0.06779 0.66531 0.83601 0.0
H148 H 0.04624 0.73249 0.87871 0.0
O149 O 0.09591 0.74509 0.84141 0.0
C150 C 0.09124 0.71181 0.91172 0.0
O151 O 0.0906 0.68714 0.90411 0.0
N152 N 0.11298 0.69411 0.83238 0.0
C153 C 0.13399 0.66069 0.79452 0.0
C154 C 0.12984 0.68733 0.78896 0.0
C155 C 0.11991 0.70389 0.80839 0.0
C156 C 0.118 0.66851 0.8384 0.0
C157 C 0.12823 0.65135 0.81969 0.0
H158 H 0.11901 0.72455 0.80418 0.0
H159 H 0.11381 0.66137 0.85796 0.0
H160 H 0.13284 0.76478 0.86512 0.0
H161 H 0.18939 0.71904 0.90327 0.0
H162 H 0.01714 0.66319 0.845 0.0
H163 H 0.13522 0.6955 0.77008 0.0
H164 H 0.13158 0.631 0.82488 0.0
C165 C 0.28751 0.14886 0.87553 0.0
C166 C 0.27628 0.17207 0.88395 0.0
N167 N 0.25001 0.16886 0.88464 0.0
N168 N 0.26833 0.13123 0.87098 0.0
C169 C 0.24579 0.14401 0.87666 0.0
H170 H 0.30827 0.14472 0.87392 0.0
Co171 Co 0.27107 0.09543 0.86456 0.0
C172 C 0.21809 0.08133 0.84378 0.0
O173 O 0.21658 0.05849 0.85566 0.0
N174 N 0.27303 0.05898 0.85827 0.0
C175 C 0.26829 0.02005 0.83885 0.0
C176 C 0.26984 0.04672 0.83491 0.0
C177 C 0.27398 0.03921 0.87597 0.0
N178 N 0.27081 0.01548 0.86471 0.0
O179 O 0.25567 0.08994 0.898 0.0
H180 H 0.26729 0.0566 0.81629 0.0
H181 H 0.2756 0.04197 0.89691 0.0
O182 O 0.23773 0.09628 0.84737 0.0
C183 C 0.27411 0.09047 0.91488 0.0
O184 O 0.2985 0.08937 0.90653 0.0
N185 N 0.28789 0.10218 0.83269 0.0
C186 C 0.31625 0.11269 0.78717 0.0
C187 C 0.29036 0.12165 0.78998 0.0
C188 C 0.27659 0.11643 0.81301 0.0
C189 C 0.31312 0.09357 0.83053 0.0
C190 C 0.32767 0.0985 0.80782 0.0
H191 H 0.25712 0.12451 0.81519 0.0
H192 H 0.32198 0.08289 0.8466 0.0
H193 H 0.22669 0.13472 0.87666 0.0
H194 H 0.28667 0.18973 0.88961 0.0
H195 H 0.26513 0.00521 0.82396 0.0
H196 H 0.28112 0.13345 0.7749 0.0
H197 H 0.34767 0.09142 0.80649 0.0
C198 C 0.84872 0.27328 0.88197 0.0
C199 C 0.828 0.258 0.89037 0.0
N200 N 0.83393 0.23275 0.88534 0.0
N201 N 0.8675 0.25757 0.8719 0.0
C202 C 0.85787 0.233 0.87426 0.0
H203 H 0.85076 0.29425 0.88462 0.0
Co204 Co 0.90175 0.2673 0.86527 0.0
C205 C 0.92458 0.22521 0.83107 0.0
O206 O 0.94362 0.24086 0.82358 0.0
N207 N 0.93715 0.27749 0.85981 0.0
C208 C 0.97367 0.2998 0.8508 0.0
C209 C 0.94719 0.29792 0.8461 0.0
C210 C 0.95826 0.26709 0.87233 0.0
N211 N 0.98051 0.28033 0.86719 0.0
O212 O 0.91017 0.25457 0.89932 0.0
H213 H 0.93624 0.31149 0.83417 0.0
H214 H 0.95721 0.25087 0.88601 0.0
O215 O 0.90841 0.23289 0.84875 0.0
C216 C 0.91186 0.27355 0.91555 0.0
O217 O 0.91307 0.29762 0.90636 0.0
N218 N 0.89086 0.28187 0.83316 0.0
C219 C 0.86803 0.30806 0.79076 0.0
C220 C 0.87173 0.2808 0.79012 0.0
C221 C 0.88258 0.26801 0.81173 0.0
C222 C 0.88627 0.30821 0.83459 0.0
C223 C 0.87531 0.32181 0.81346 0.0
H224 H 0.88272 0.24692 0.81149 0.0
H225 H 0.89112 0.31872 0.85241 0.0
H226 H 0.86895 0.21541 0.87019 0.0
H227 H 0.81042 0.26476 0.90022 0.0
H228 H 0.98672 0.31501 0.84371 0.0
H229 H 0.86515 0.26925 0.77352 0.0
H230 H 0.87242 0.34282 0.81498 0.0
C231 C 0.71976 0.83964 0.8849 0.0
C232 C 0.73697 0.82071 0.89381 0.0
N233 N 0.76151 0.82876 0.88823 0.0
N234 N 0.73358 0.85937 0.87391 0.0
C235 C 0.75891 0.85208 0.87623 0.0
H236 H 0.6988 0.84006 0.88823 0.0
Co237 Co 0.72173 0.89306 0.86815 0.0
C238 C 0.76051 0.91768 0.83102 0.0
O239 O 0.74356 0.93585 0.82417 0.0
N240 N 0.7096 0.92783 0.86366 0.0
C241 C 0.68404 0.96284 0.85826 0.0
C242 C 0.68682 0.93651 0.85315 0.0
C243 C 0.72041 0.94952 0.87472 0.0
N244 N 0.70513 0.97091 0.87191 0.0
O245 O 0.73694 0.90216 0.90108 0.0
H246 H 0.67234 0.9246 0.84339 0.0
H247 H 0.73849 0.9494 0.88586 0.0
O248 O 0.75434 0.90107 0.84884 0.0
C249 C 0.71923 0.90295 0.91874 0.0
O250 O 0.69448 0.90272 0.91146 0.0
N251 N 0.70473 0.88159 0.8374 0.0
C252 C 0.6745 0.85954 0.79734 0.0
C253 C 0.70095 0.86585 0.79313 0.0
C254 C 0.71591 0.87627 0.81359 0.0
C255 C 0.67932 0.87457 0.84208 0.0
C256 C 0.66375 0.86377 0.82228 0.0
H257 H 0.73656 0.87879 0.81024 0.0
H258 H 0.67109 0.87751 0.86144 0.0
H259 H 0.77536 0.86475 0.87193 0.0
H260 H 0.73199 0.80313 0.90466 0.0
H261 H 0.66735 0.97496 0.85315 0.0
H262 H 0.71029 0.86179 0.77446 0.0
H263 H 0.6435 0.85882 0.82646 0.0
C264 C 0.12076 0.16681 0.2843 0.0
C265 C 0.11316 0.18811 0.26954 0.0
N266 N 0.11035 0.18027 0.24443 0.0
N267 N 0.12283 0.14569 0.26852 0.0
C268 C 0.11652 0.15451 0.2443 0.0
H269 H 0.12284 0.16636 0.30541 0.0
Co270 Co 0.12463 0.11114 0.27955 0.0
C271 C 0.16129 0.08486 0.24306 0.0
O272 O 0.16832 0.06927 0.26236 0.0
N273 N 0.12492 0.07572 0.29072 0.0
C274 C 0.12298 0.03934 0.3148 0.0
C275 C 0.12957 0.06545 0.31476 0.0
C276 C 0.11541 0.05524 0.27658 0.0
N277 N 0.11406 0.03302 0.29081 0.0
O278 O 0.09085 0.10584 0.26463 0.0
H279 H 0.13602 0.07605 0.33184 0.0
H280 H 0.10849 0.0569 0.25655 0.0
O281 O 0.1428 0.10158 0.24676 0.0
C282 C 0.07405 0.10661 0.28315 0.0
O283 O 0.08245 0.10759 0.30752 0.0
N284 N 0.15668 0.11856 0.29648 0.0
C285 C 0.19988 0.13434 0.32608 0.0
C286 C 0.20175 0.13209 0.29876 0.0
C287 C 0.17965 0.1251 0.28423 0.0
C288 C 0.15419 0.12237 0.32285 0.0
C289 C 0.17563 0.12983 0.33814 0.0
H290 H 0.18092 0.12642 0.26318 0.0
H291 H 0.13514 0.1203 0.33201 0.0
H292 H 0.11423 0.14186 0.22737 0.0
H293 H 0.10891 0.2076 0.27689 0.0
H294 H 0.124 0.02611 0.33141 0.0
H295 H 0.21976 0.1371 0.28861 0.0
H296 H 0.17317 0.13249 0.3591 0.0
C297 C 0.83497 0.11034 0.28516 0.0
C298 C 0.81422 0.09929 0.27163 0.0
N299 N 0.82106 0.09722 0.24613 0.0
N300 N 0.8546 0.1152 0.26812 0.0
C301 C 0.84558 0.10689 0.24466 0.0
H302 H 0.83589 0.11419 0.30602 0.0
Co303 Co 0.88854 0.12696 0.27383 0.0
C304 C 0.90433 0.14664 0.22093 0.0
O305 O 0.92707 0.13448 0.22088 0.0
N306 N 0.92334 0.13883 0.2785 0.0
C307 C 0.95921 0.16353 0.2741 0.0
C308 C 0.9322 0.16356 0.27443 0.0
C309 C 0.94541 0.12434 0.28123 0.0
N310 N 0.96735 0.13878 0.27828 0.0
O311 O 0.90057 0.09383 0.26099 0.0
H312 H 0.91985 0.18029 0.27013 0.0
H313 H 0.94573 0.10329 0.28357 0.0
O314 O 0.88839 0.14323 0.23982 0.0
C315 C 0.90056 0.07989 0.28181 0.0
O316 O 0.89627 0.09166 0.3044 0.0
N317 N 0.87562 0.1579 0.2887 0.0
C318 C 0.85734 0.2026 0.3141 0.0
C319 C 0.85073 0.19779 0.28787 0.0
C320 C 0.85967 0.17501 0.27565 0.0
C321 C 0.88167 0.1619 0.31445 0.0
C322 C 0.87268 0.18422 0.32761 0.0
H323 H 0.85332 0.17094 0.25591 0.0
H324 H 0.89363 0.1477 0.32477 0.0
H325 H 0.8572 0.10705 0.22688 0.0
H326 H 0.79553 0.09342 0.27988 0.0
H327 H 0.97184 0.1802 0.27032 0.0
H328 H 0.83825 0.21123 0.2771 0.0
H329 H 0.87789 0.18723 0.348 0.0
C330 C 0.87487 0.83856 0.28524 0.0
C331 C 0.8843 0.81847 0.26984 0.0
N332 N 0.88951 0.8282 0.24581 0.0
N333 N 0.87415 0.86076 0.27089 0.0
C334 C 0.88289 0.85377 0.24686 0.0
H335 H 0.87096 0.83753 0.30608 0.0
Co336 Co 0.87223 0.89465 0.28382 0.0
C337 C 0.83593 0.92216 0.24812 0.0
O338 O 0.82818 0.93638 0.2682 0.0
N339 N 0.87189 0.92927 0.29681 0.0
C340 C 0.87403 0.96479 0.32214 0.0
C341 C 0.86776 0.9386 0.32132 0.0
C342 C 0.88094 0.95032 0.28324 0.0
N343 N 0.88236 0.97207 0.2982 0.0
O344 O 0.90655 0.90074 0.27029 0.0
H345 H 0.86176 0.92736 0.33814 0.0
H346 H 0.88733 0.94944 0.26299 0.0
O347 O 0.85498 0.90595 0.2511 0.0
C348 C 0.92168 0.8921 0.28823 0.0
O349 O 0.9112 0.88495 0.31071 0.0
N350 N 0.83964 0.88634 0.29926 0.0
C351 C 0.79564 0.86724 0.32577 0.0
C352 C 0.79553 0.86973 0.29838 0.0
C353 C 0.81797 0.87857 0.28546 0.0
C354 C 0.84065 0.8822 0.32567 0.0
C355 C 0.8187 0.87338 0.33944 0.0
H356 H 0.81822 0.8775 0.26435 0.0
H357 H 0.85901 0.88456 0.336 0.0
H358 H 0.88694 0.8677 0.23132 0.0
H359 H 0.88847 0.79863 0.27623 0.0
H360 H 0.87299 0.97744 0.33919 0.0
H361 H 0.77874 0.86359 0.28687 0.0
H362 H 0.82001 0.87085 0.3605 0.0
C363 C 0.16241 0.89066 0.28576 0.0
C364 C 0.18369 0.90285 0.27423 0.0
N365 N 0.176 0.91275 0.25095 0.0
N366 N 0.14153 0.89263 0.26957 0.0
C367 C 0.15029 0.9071 0.2491 0.0
H368 H 0.16265 0.88008 0.30413 0.0
Co369 Co 0.10747 0.87874 0.27162 0.0
C370 C 0.12994 0.85428 0.22259 0.0
O371 O 0.15419 0.85767 0.23061 0.0
N372 N 0.07296 0.86544 0.27309 0.0
C373 C 0.0386 0.83845 0.27071 0.0
C374 C 0.06548 0.84013 0.27001 0.0
C375 C 0.05004 0.87874 0.2753 0.0
N376 N 0.02899 0.86281 0.27385 0.0
O377 O 0.09507 0.91104 0.2568 0.0
H378 H 0.07853 0.82377 0.26693 0.0
H379 H 0.04849 0.89969 0.27804 0.0
O380 O 0.11075 0.86196 0.23692 0.0
C381 C 0.09236 0.92592 0.27678 0.0
O382 O 0.09447 0.91531 0.30021 0.0
N383 N 0.11986 0.84856 0.28937 0.0
C384 C 0.13556 0.80794 0.32266 0.0
C385 C 0.13682 0.80502 0.29537 0.0
C386 C 0.12887 0.82546 0.2791 0.0
C387 C 0.11831 0.85165 0.31593 0.0
C388 C 0.12627 0.83168 0.33298 0.0
H389 H 0.12917 0.82174 0.25847 0.0
H390 H 0.11092 0.86987 0.32392 0.0
H391 H 0.13853 0.91143 0.23194 0.0
H392 H 0.20366 0.90276 0.2815 0.0
H393 H 0.02699 0.82077 0.26861 0.0
H394 H 0.14398 0.78703 0.28657 0.0
H395 H 0.12482 0.83465 0.35398 0.0
C396 C 0.12692 0.84426 0.70901 0.0
C397 C 0.11936 0.82136 0.72124 0.0
N398 N 0.11642 0.8263 0.74708 0.0
N399 N 0.12878 0.86346 0.7271 0.0
C400 C 0.12238 0.85192 0.75011 0.0
H401 H 0.12944 0.8471 0.68812 0.0
Co402 Co 0.13179 0.89912 0.72076 0.0
C403 C 0.16777 0.91945 0.76142 0.0
O404 O 0.17479 0.93799 0.74498 0.0
N405 N 0.13364 0.936 0.71459 0.0
C406 C 0.14119 0.97668 0.70016 0.0
C407 C 0.14691 0.95056 0.69666 0.0
C408 C 0.12 0.95406 0.72864 0.0
N409 N 0.12446 0.97871 0.72036 0.0
O410 O 0.09703 0.90309 0.73455 0.0
H411 H 0.16003 0.94327 0.68181 0.0
H412 H 0.10674 0.94935 0.74454 0.0
O413 O 0.14908 0.90372 0.7552 0.0
C414 C 0.08268 0.90322 0.71401 0.0
O415 O 0.09443 0.90365 0.69102 0.0
N416 N 0.16422 0.89297 0.70433 0.0
C417 C 0.2074 0.87749 0.67432 0.0
C418 C 0.20763 0.8749 0.70175 0.0
C419 C 0.18566 0.88223 0.71633 0.0
C420 C 0.16309 0.89413 0.67763 0.0
C421 C 0.18468 0.88728 0.66228 0.0
H422 H 0.18547 0.87764 0.73698 0.0
H423 H 0.14515 0.9004 0.66816 0.0
H424 H 0.12017 0.86254 0.76838 0.0
H425 H 0.11544 0.80275 0.71175 0.0
H426 H 0.14806 0.9929 0.68826 0.0
H427 H 0.22409 0.86598 0.71181 0.0
H428 H 0.18333 0.88922 0.64116 0.0
C429 C 0.14142 0.10698 0.71267 0.0
C430 C 0.16301 0.098 0.72645 0.0
N431 N 0.16161 0.10781 0.75093 0.0
N432 N 0.1265 0.12187 0.72872 0.0
C433 C 0.13958 0.12217 0.75171 0.0
H434 H 0.13575 0.10102 0.6931 0.0
Co435 Co 0.09128 0.13022 0.72458 0.0
C436 C 0.07661 0.15214 0.77722 0.0
O437 O 0.05348 0.14084 0.77851 0.0
N438 N 0.05563 0.13836 0.72083 0.0
C439 C 0.01714 0.15892 0.72377 0.0
C440 C 0.044 0.162 0.7243 0.0
C441 C 0.03551 0.12151 0.71741 0.0
N442 N 0.01207 0.13339 0.71943 0.0
O443 O 0.08334 0.09773 0.74136 0.0
H444 H 0.05434 0.1801 0.7284 0.0
H445 H 0.03758 0.10061 0.71482 0.0
O446 O 0.09142 0.14867 0.75746 0.0
C447 C 0.08282 0.0797 0.72404 0.0
O448 O 0.08316 0.08649 0.69915 0.0
N449 N 0.10038 0.16076 0.70678 0.0
C450 C 0.1156 0.20307 0.67588 0.0
C451 C 0.12118 0.20273 0.70281 0.0
C452 C 0.11371 0.18119 0.71791 0.0
C453 C 0.09466 0.16077 0.68068 0.0
C454 C 0.10212 0.1818 0.66478 0.0
H455 H 0.11937 0.18075 0.73833 0.0
H456 H 0.0846 0.14413 0.67213 0.0
H457 H 0.13192 0.13019 0.76972 0.0
H458 H 0.17763 0.08419 0.71957 0.0
H459 H 0.00254 0.17405 0.72682 0.0
H460 H 0.13218 0.21849 0.71192 0.0
H461 H 0.09762 0.18133 0.644 0.0
C462 C 0.86672 0.1473 0.71317 0.0
C463 C 0.87632 0.16769 0.72804 0.0
N464 N 0.87947 0.1591 0.75285 0.0
N465 N 0.8638 0.12601 0.72859 0.0
C466 C 0.87149 0.13387 0.75274 0.0
H467 H 0.86417 0.14736 0.6921 0.0
Co468 Co 0.86059 0.09194 0.71659 0.0
C469 C 0.82553 0.06482 0.75398 0.0
O470 O 0.81806 0.04901 0.73504 0.0
N471 N 0.85883 0.05695 0.70419 0.0
C472 C 0.85675 0.02115 0.67921 0.0
C473 C 0.85 0.04714 0.68113 0.0
C474 C 0.87065 0.0362 0.71598 0.0
N475 N 0.8698 0.0144 0.70108 0.0
O476 O 0.89443 0.08548 0.73022 0.0
H477 H 0.84022 0.0579 0.66584 0.0
H478 H 0.88082 0.03735 0.7346 0.0
O479 O 0.84365 0.08174 0.74962 0.0
C480 C 0.91118 0.08683 0.71176 0.0
O481 O 0.9028 0.08712 0.68737 0.0
N482 N 0.82829 0.1008 0.70144 0.0
C483 C 0.78483 0.12072 0.67497 0.0
C484 C 0.78429 0.11744 0.70226 0.0
C485 C 0.80646 0.10811 0.71521 0.0
C486 C 0.82969 0.10554 0.67516 0.0
C487 C 0.80799 0.11484 0.66137 0.0
H488 H 0.80633 0.10845 0.73632 0.0
H489 H 0.84802 0.10244 0.66489 0.0
H490 H 0.87386 0.12065 0.76921 0.0
H491 H 0.882 0.18688 0.72087 0.0
H492 H 0.85306 0.00836 0.66264 0.0
H493 H 0.76735 0.1233 0.71371 0.0
H494 H 0.80951 0.11776 0.64037 0.0
C495 C 0.84393 0.86679 0.71293 0.0
C496 C 0.82293 0.87573 0.72734 0.0
N497 N 0.83086 0.87928 0.75231 0.0
N498 N 0.86499 0.8646 0.72877 0.0
C499 C 0.8564 0.87224 0.75272 0.0
H500 H 0.84425 0.86376 0.69193 0.0
Co501 Co 0.89933 0.86058 0.7174 0.0
C502 C 0.92504 0.82542 0.75555 0.0
O503 O 0.94092 0.81762 0.7368 0.0
N504 N 0.93461 0.858 0.70571 0.0
C505 C 0.97087 0.85502 0.68152 0.0
C506 C 0.94464 0.84902 0.68282 0.0
C507 C 0.95541 0.86926 0.71799 0.0
N508 N 0.97756 0.86775 0.70363 0.0
O509 O 0.90627 0.89517 0.72991 0.0
H510 H 0.93383 0.83974 0.66723 0.0
H511 H 0.95408 0.87951 0.73656 0.0
O512 O 0.90869 0.84405 0.75104 0.0
C513 C 0.9045 0.90948 0.70945 0.0
O514 O 0.90137 0.89782 0.68663 0.0
N515 N 0.89016 0.82786 0.7027 0.0
C516 C 0.86999 0.78428 0.67643 0.0
C517 C 0.87337 0.7838 0.70367 0.0
C518 C 0.8826 0.80613 0.71655 0.0
C519 C 0.8857 0.82897 0.67633 0.0
C520 C 0.87596 0.8073 0.6627 0.0
H521 H 0.88196 0.80621 0.73765 0.0
H522 H 0.88907 0.84714 0.66588 0.0
H523 H 0.86911 0.87464 0.76957 0.0
H524 H 0.80358 0.88027 0.71983 0.0
H525 H 0.98389 0.85114 0.66517 0.0
H526 H 0.86749 0.76684 0.71508 0.0
H527 H 0.87268 0.80869 0.64174 0.0
C528 C 0.27933 0.12275 0.15139 0.0
C529 C 0.26667 0.11449 0.17391 0.0
N530 N 0.24089 0.11201 0.16848 0.0
N531 N 0.2615 0.12535 0.13204 0.0
C532 C 0.23836 0.11857 0.14305 0.0
H533 H 0.30017 0.12609 0.1491 0.0
Co534 Co 0.26661 0.13284 0.09678 0.0
C535 C 0.21301 0.14803 0.07854 0.0
O536 O 0.21478 0.1371 0.05527 0.0
N537 N 0.27088 0.14043 0.06072 0.0
C538 C 0.26677 0.16068 0.02213 0.0
C539 C 0.26719 0.16398 0.04894 0.0
C540 C 0.27327 0.12333 0.04055 0.0
N541 N 0.27049 0.13506 0.01704 0.0
O542 O 0.2563 0.09769 0.08924 0.0
H543 H 0.26316 0.18217 0.05912 0.0
H544 H 0.27517 0.10235 0.04274 0.0
O545 O 0.23164 0.14605 0.09495 0.0
C546 C 0.27811 0.08545 0.09076 0.0
O547 O 0.29976 0.09931 0.09318 0.0
N548 N 0.27914 0.16603 0.10564 0.0
C549 C 0.30436 0.21146 0.12237 0.0
C550 C 0.27722 0.20848 0.12587 0.0
C551 C 0.26495 0.18537 0.11764 0.0
C552 C 0.3054 0.16883 0.10163 0.0
C553 C 0.31844 0.19144 0.1098 0.0
H554 H 0.24433 0.18278 0.12181 0.0
H555 H 0.31638 0.15307 0.09257 0.0
H556 H 0.22005 0.11737 0.13237 0.0
H557 H 0.27569 0.11059 0.19274 0.0
H558 H 0.26318 0.17575 0.00759 0.0
H559 H 0.26581 0.22332 0.13597 0.0
H560 H 0.33942 0.19305 0.10674 0.0
C561 C 0.28719 0.87533 0.84888 0.0
C562 C 0.27462 0.88411 0.82649 0.0
N563 N 0.24852 0.88327 0.83081 0.0
N564 N 0.26896 0.86922 0.86704 0.0
C565 C 0.2457 0.87426 0.8554 0.0
H566 H 0.30815 0.87483 0.85223 0.0
Co567 Co 0.27286 0.86233 0.90252 0.0
C568 C 0.21959 0.842 0.91708 0.0
O569 O 0.21826 0.85335 0.94019 0.0
N570 N 0.27588 0.85557 0.93859 0.0
C571 C 0.27191 0.83624 0.9776 0.0
C572 C 0.27182 0.83236 0.95088 0.0
C573 C 0.27904 0.87304 0.95826 0.0
N574 N 0.27639 0.86187 0.98205 0.0
O575 O 0.25755 0.89576 0.90897 0.0
H576 H 0.26772 0.814 0.94103 0.0
H577 H 0.28199 0.89383 0.95547 0.0
O578 O 0.2395 0.84517 0.90243 0.0
C579 C 0.27567 0.91297 0.90793 0.0
O580 O 0.30022 0.90504 0.90769 0.0
N581 N 0.28946 0.83057 0.89486 0.0
C582 C 0.31732 0.78503 0.88291 0.0
C583 C 0.29154 0.78859 0.87382 0.0
C584 C 0.27799 0.81154 0.87988 0.0
C585 C 0.31461 0.82778 0.90351 0.0
C586 C 0.32886 0.80501 0.89797 0.0
H587 H 0.25853 0.81425 0.87191 0.0
H588 H 0.32364 0.84335 0.91478 0.0
H589 H 0.22702 0.87349 0.86545 0.0
H590 H 0.28391 0.89133 0.8088 0.0
H591 H 0.2686 0.82152 0.99256 0.0
H592 H 0.28214 0.77415 0.86136 0.0
H593 H 0.34871 0.80315 0.90532 0.0
C594 C 0.11731 0.28556 0.84094 0.0
C595 C 0.10731 0.26885 0.82213 0.0
N596 N 0.11137 0.24402 0.83024 0.0
N597 N 0.12752 0.27118 0.86066 0.0
C598 C 0.12369 0.24598 0.8535 0.0
H599 H 0.11523 0.30669 0.84127 0.0
Co600 Co 0.13412 0.28275 0.89429 0.0
C601 C 0.17425 0.24622 0.91653 0.0
O602 O 0.18211 0.26457 0.93285 0.0
N603 N 0.13947 0.29453 0.92912 0.0
C604 C 0.14512 0.3196 0.96443 0.0
C605 C 0.14984 0.31731 0.938 0.0
C606 C 0.12908 0.28314 0.95084 0.0
N607 N 0.13194 0.29816 0.97239 0.0
O608 O 0.10179 0.26659 0.90437 0.0
H609 H 0.15913 0.33218 0.92619 0.0
H610 H 0.11809 0.26496 0.95062 0.0
O611 O 0.15474 0.2507 0.90128 0.0
C612 C 0.08465 0.28483 0.90468 0.0
O613 O 0.0928 0.30926 0.90285 0.0
N614 N 0.16382 0.3009 0.88192 0.0
C615 C 0.20139 0.33283 0.85807 0.0
C616 C 0.20664 0.30628 0.86302 0.0
C617 C 0.18732 0.29044 0.8743 0.0
C618 C 0.1581 0.32645 0.87624 0.0
C619 C 0.17666 0.34286 0.86457 0.0
H620 H 0.19112 0.26971 0.87556 0.0
H621 H 0.13882 0.3341 0.88081 0.0
H622 H 0.12726 0.22939 0.86626 0.0
H623 H 0.09677 0.27446 0.80456 0.0
H624 H 0.14991 0.33631 0.97667 0.0
H625 H 0.22513 0.29755 0.85715 0.0
H626 H 0.17169 0.36315 0.86061 0.0
C627 C 0.70718 0.10685 0.84211 0.0
C628 C 0.72022 0.0959 0.82104 0.0
N629 N 0.74606 0.09525 0.82673 0.0
N630 N 0.72484 0.11303 0.86078 0.0
C631 C 0.74826 0.10566 0.85089 0.0
H632 H 0.6862 0.10948 0.84402 0.0
Co633 Co 0.71898 0.12456 0.89462 0.0
C634 C 0.77108 0.14421 0.91236 0.0
O635 O 0.76858 0.13492 0.93626 0.0
N636 N 0.71357 0.13625 0.92944 0.0
C637 C 0.7111 0.16221 0.96455 0.0
C638 C 0.71222 0.16149 0.93765 0.0
C639 C 0.71346 0.12206 0.95195 0.0
N640 N 0.71212 0.1374 0.97347 0.0
O641 O 0.73142 0.09124 0.9064 0.0
H642 H 0.71315 0.17856 0.9251 0.0
H643 H 0.71498 0.10093 0.95284 0.0
O644 O 0.75342 0.14005 0.89521 0.0
C645 C 0.71093 0.07682 0.90647 0.0
O646 O 0.68798 0.08846 0.90435 0.0
N647 N 0.70458 0.15564 0.88135 0.0
C648 C 0.67775 0.1985 0.86053 0.0
C649 C 0.70516 0.19685 0.85858 0.0
C650 C 0.71824 0.17501 0.86877 0.0
C651 C 0.67793 0.15683 0.88325 0.0
C652 C 0.66408 0.17811 0.87294 0.0
H653 H 0.73921 0.17367 0.8661 0.0
H654 H 0.6674 0.14101 0.89273 0.0
H655 H 0.76652 0.10675 0.86166 0.0
H656 H 0.7114 0.08892 0.80301 0.0
H657 H 0.71058 0.17967 0.97666 0.0
H658 H 0.71632 0.21199 0.84865 0.0
H659 H 0.64291 0.17868 0.87479 0.0
C660 C 0.88088 0.70816 0.84517 0.0
C661 C 0.88967 0.72065 0.82274 0.0
N662 N 0.89225 0.74644 0.82814 0.0
N663 N 0.87811 0.72614 0.86438 0.0
C664 C 0.88522 0.74915 0.85339 0.0
H665 H 0.8777 0.6873 0.84762 0.0
Co666 Co 0.87155 0.72168 0.89981 0.0
C667 C 0.85498 0.77548 0.91691 0.0
O668 O 0.86603 0.77466 0.94018 0.0
N669 N 0.86498 0.71808 0.93602 0.0
C670 C 0.84579 0.72267 0.97507 0.0
C671 C 0.8417 0.72144 0.9484 0.0
C672 C 0.88273 0.71668 0.95568 0.0
N673 N 0.87165 0.71978 0.97945 0.0
O674 O 0.90654 0.73329 0.90615 0.0
H675 H 0.82313 0.72472 0.93866 0.0
H676 H 0.90368 0.71529 0.95284 0.0
O677 O 0.85726 0.75637 0.90106 0.0
C678 C 0.91952 0.71194 0.90403 0.0
O679 O 0.90631 0.68976 0.90308 0.0
N680 N 0.83866 0.70788 0.89203 0.0
C681 C 0.794 0.68086 0.8762 0.0
C682 C 0.79607 0.70801 0.87211 0.0
C683 C 0.81879 0.72119 0.8799 0.0
C684 C 0.83676 0.68162 0.8966 0.0
C685 C 0.81454 0.66768 0.88887 0.0
H686 H 0.8207 0.74178 0.87521 0.0
H687 H 0.85296 0.67135 0.9057 0.0
H688 H 0.88677 0.76743 0.8641 0.0
H689 H 0.89417 0.71147 0.80411 0.0
H690 H 0.83109 0.72627 0.98998 0.0
H691 H 0.78082 0.71874 0.8619 0.0
H692 H 0.81362 0.64672 0.89236 0.0
C693 C 0.71824 0.88187 0.15743 0.0
C694 C 0.73097 0.89117 0.17949 0.0
N695 N 0.75664 0.89398 0.17369 0.0
N696 N 0.73591 0.8789 0.13797 0.0
C697 C 0.75902 0.88654 0.14847 0.0
H698 H 0.69745 0.87803 0.15551 0.0
Co699 Co 0.7307 0.86997 0.10303 0.0
C700 C 0.78437 0.85375 0.08539 0.0
O701 O 0.78244 0.86399 0.06182 0.0
N702 N 0.72631 0.86097 0.06724 0.0
C703 C 0.73003 0.83915 0.02945 0.0
C704 C 0.72977 0.83695 0.05638 0.0
C705 C 0.72394 0.87726 0.04636 0.0
N706 N 0.72648 0.86457 0.02329 0.0
O707 O 0.74112 0.90491 0.09399 0.0
H708 H 0.73363 0.81915 0.06726 0.0
H709 H 0.7221 0.89832 0.04774 0.0
O710 O 0.7658 0.85626 0.10186 0.0
C711 C 0.71927 0.91719 0.09518 0.0
O712 O 0.69772 0.90339 0.0986 0.0
N713 N 0.71765 0.83727 0.11332 0.0
C714 C 0.69124 0.79351 0.1326 0.0
C715 C 0.71871 0.79485 0.13375 0.0
C716 C 0.73162 0.81719 0.12434 0.0
C717 C 0.69101 0.83595 0.11151 0.0
C718 C 0.67737 0.81428 0.12118 0.0
H719 H 0.75264 0.81849 0.12668 0.0
H720 H 0.68026 0.85222 0.10315 0.0
H721 H 0.77719 0.88764 0.13753 0.0
H722 H 0.72206 0.89546 0.1983 0.0
H723 H 0.73327 0.82343 0.01552 0.0
H724 H 0.72998 0.77925 0.14281 0.0
H725 H 0.65614 0.81389 0.11999 0.0
C726 C 0.13222 0.72145 0.14733 0.0
C727 C 0.12712 0.73831 0.16802 0.0
N728 N 0.1278 0.76304 0.1587 0.0
N729 N 0.13618 0.73576 0.12541 0.0
C730 C 0.13297 0.76089 0.133 0.0
H731 H 0.13283 0.70024 0.14817 0.0
Co732 Co 0.14151 0.72555 0.09101 0.0
C733 C 0.17785 0.76629 0.0692 0.0
O734 O 0.18651 0.74992 0.05126 0.0
N735 N 0.14602 0.71575 0.0554 0.0
C736 C 0.15313 0.69421 0.01803 0.0
C737 C 0.15855 0.69503 0.04444 0.0
C738 C 0.13362 0.72742 0.03495 0.0
N739 N 0.13758 0.71467 0.01219 0.0
O740 O 0.10737 0.73916 0.08337 0.0
H741 H 0.16998 0.68053 0.05473 0.0
H742 H 0.12063 0.74412 0.03685 0.0
O743 O 0.15911 0.75922 0.08434 0.0
C744 C 0.09254 0.71897 0.08383 0.0
O745 O 0.10372 0.69573 0.08499 0.0
N746 N 0.17311 0.70937 0.10103 0.0
C747 C 0.21339 0.67929 0.1229 0.0
C748 C 0.2163 0.7065 0.11971 0.0
C749 C 0.19566 0.72132 0.10932 0.0
C750 C 0.16973 0.68309 0.10483 0.0
C751 C 0.1897 0.66761 0.1153 0.0
H752 H 0.1975 0.74235 0.10952 0.0
H753 H 0.15115 0.67411 0.09987 0.0
H754 H 0.13365 0.77752 0.11986 0.0
H755 H 0.12375 0.73292 0.18829 0.0
H756 H 0.15889 0.67893 0.00442 0.0
H757 H 0.23384 0.71646 0.12645 0.0
H758 H 0.18647 0.64673 0.11774 0.0
C759 C 0.86833 0.28104 0.15612 0.0
C760 C 0.87411 0.26511 0.17731 0.0
N761 N 0.88789 0.24435 0.16847 0.0
N762 N 0.87765 0.26964 0.13407 0.0
C763 C 0.89004 0.2478 0.14249 0.0
H764 H 0.85618 0.29845 0.15658 0.0
Co765 Co 0.87079 0.27523 0.09848 0.0
C766 C 0.85848 0.21569 0.09359 0.0
O767 O 0.8815 0.20432 0.09127 0.0
N768 N 0.86387 0.279 0.06231 0.0
C769 C 0.84398 0.27242 0.0239 0.0
C770 C 0.84048 0.27452 0.05056 0.0
C771 C 0.88119 0.27993 0.04216 0.0
N772 N 0.86965 0.27566 0.01875 0.0
O773 O 0.90623 0.26497 0.0913 0.0
H774 H 0.82218 0.27124 0.06076 0.0
H775 H 0.90218 0.28172 0.0445 0.0
O776 O 0.85676 0.24045 0.09612 0.0
C777 C 0.91822 0.28689 0.09369 0.0
O778 O 0.90398 0.30829 0.09631 0.0
N779 N 0.83741 0.28817 0.10678 0.0
C780 C 0.79255 0.31382 0.1245 0.0
C781 C 0.79562 0.28675 0.12838 0.0
C782 C 0.81842 0.27431 0.11969 0.0
C783 C 0.83444 0.31436 0.10223 0.0
C784 C 0.81212 0.32762 0.11097 0.0
H785 H 0.82142 0.25399 0.12483 0.0
H786 H 0.84994 0.32516 0.09255 0.0
H787 H 0.89844 0.23327 0.12952 0.0
H788 H 0.86724 0.26763 0.19726 0.0
H789 H 0.82898 0.26799 0.00951 0.0
H790 H 0.78118 0.27556 0.13928 0.0
H791 H 0.81041 0.34855 0.1076 0.0
C792 C 0.65209 0.77451 0.63773 0.0
C793 C 0.67339 0.75887 0.63154 0.0
N794 N 0.66469 0.73849 0.61711 0.0
N795 N 0.63012 0.76334 0.62793 0.0
C796 C 0.63871 0.74189 0.61499 0.0
H797 H 0.65243 0.79166 0.65025 0.0
Co798 Co 0.59439 0.76879 0.63423 0.0
C799 C 0.58986 0.70955 0.64619 0.0
O800 O 0.58827 0.69862 0.62289 0.0
N801 N 0.55826 0.77246 0.64051 0.0
C802 C 0.51934 0.76399 0.65858 0.0
C803 C 0.54585 0.76625 0.66315 0.0
C804 C 0.53872 0.77456 0.62268 0.0
N805 N 0.51507 0.76906 0.63306 0.0
O806 O 0.58763 0.75774 0.59893 0.0
H807 H 0.55556 0.76189 0.68148 0.0
H808 H 0.54165 0.77809 0.60199 0.0
O809 O 0.59209 0.73426 0.64853 0.0
C810 C 0.59031 0.77899 0.58593 0.0
O811 O 0.59349 0.80099 0.59908 0.0
N812 N 0.60203 0.78218 0.66765 0.0
C813 C 0.61929 0.80832 0.71249 0.0
C814 C 0.62298 0.78116 0.7098 0.0
C815 C 0.61446 0.76846 0.68708 0.0
C816 C 0.59743 0.80838 0.67032 0.0
C817 C 0.60592 0.82189 0.69261 0.0
H818 H 0.61946 0.74805 0.68448 0.0
H819 H 0.58803 0.81904 0.65455 0.0
H820 H 0.6259 0.7276 0.60596 0.0
H821 H 0.69336 0.76141 0.63833 0.0
H822 H 0.50448 0.75826 0.67266 0.0
H823 H 0.63374 0.77009 0.72442 0.0
H824 H 0.60265 0.84286 0.69398 0.0
C825 C 0.21015 0.63917 0.63924 0.0
C826 C 0.2213 0.66379 0.63739 0.0
N827 N 0.2462 0.66096 0.62885 0.0
N828 N 0.22824 0.6211 0.63239 0.0
C829 C 0.24968 0.63503 0.62562 0.0
H830 H 0.19071 0.63468 0.6465 0.0
Co831 Co 0.22773 0.58483 0.63497 0.0
C832 C 0.28345 0.57231 0.65184 0.0
O833 O 0.28515 0.54874 0.64154 0.0
N834 N 0.22796 0.54803 0.63764 0.0
C835 C 0.23446 0.50752 0.65279 0.0
C836 C 0.2328 0.53364 0.65944 0.0
C837 C 0.22622 0.53009 0.61816 0.0
N838 N 0.23038 0.50546 0.6268 0.0
O839 O 0.23904 0.58338 0.59912 0.0
H840 H 0.23612 0.54167 0.67881 0.0
H841 H 0.22288 0.53484 0.59778 0.0
O842 O 0.26291 0.5861 0.64866 0.0
C843 C 0.21755 0.58524 0.58633 0.0
O844 O 0.19543 0.58372 0.59956 0.0
N845 N 0.21417 0.58767 0.66893 0.0
C846 C 0.18628 0.60158 0.71372 0.0
C847 C 0.21333 0.60631 0.7121 0.0
C848 C 0.22692 0.59948 0.68937 0.0
C849 C 0.18824 0.58145 0.6708 0.0
C850 C 0.17384 0.5883 0.69307 0.0
H851 H 0.24713 0.60554 0.6877 0.0
H852 H 0.17835 0.57262 0.65421 0.0
H853 H 0.26819 0.62617 0.62011 0.0
H854 H 0.2122 0.68218 0.64291 0.0
H855 H 0.23839 0.49133 0.66598 0.0
H856 H 0.22352 0.617 0.7274 0.0
H857 H 0.15296 0.58433 0.69365 0.0
C858 C 0.33549 0.19604 0.6103 0.0
C859 C 0.31413 0.20775 0.59819 0.0
N860 N 0.31796 0.23391 0.59812 0.0
N861 N 0.35254 0.21486 0.6181 0.0
C862 C 0.34121 0.23744 0.60997 0.0
H863 H 0.33864 0.17516 0.61181 0.0
Co864 Co 0.38775 0.21655 0.62999 0.0
C865 C 0.35903 0.25123 0.66615 0.0
O866 O 0.34022 0.23356 0.66702 0.0
N867 N 0.4228 0.21993 0.64044 0.0
C868 C 0.45971 0.23785 0.65546 0.0
C869 C 0.43301 0.23655 0.65849 0.0
C870 C 0.44384 0.21119 0.62692 0.0
N871 N 0.46642 0.22218 0.63533 0.0
O872 O 0.39506 0.2369 0.59936 0.0
H873 H 0.42193 0.24854 0.67197 0.0
H874 H 0.44251 0.19862 0.60991 0.0
O875 O 0.37879 0.24768 0.65098 0.0
C876 C 0.39857 0.22071 0.58058 0.0
O877 O 0.39997 0.19556 0.58621 0.0
N878 N 0.38128 0.19411 0.65888 0.0
C879 C 0.36852 0.15905 0.69893 0.0
C880 C 0.37833 0.18404 0.7048 0.0
C881 C 0.38504 0.20107 0.68453 0.0
C882 C 0.37466 0.16889 0.65288 0.0
C883 C 0.36748 0.15116 0.67258 0.0
H884 H 0.39249 0.22011 0.6898 0.0
H885 H 0.37478 0.16249 0.63268 0.0
H886 H 0.35077 0.25634 0.6114 0.0
H887 H 0.29746 0.19772 0.58966 0.0
H888 H 0.47299 0.25025 0.66648 0.0
H889 H 0.37982 0.19089 0.72487 0.0
H890 H 0.36101 0.13162 0.66726 0.0
C891 C 0.77807 0.33343 0.61859 0.0
C892 C 0.76298 0.31284 0.60977 0.0
N893 N 0.73793 0.32114 0.608 0.0
N894 N 0.7625 0.35447 0.62238 0.0
C895 C 0.73813 0.34638 0.61585 0.0
H896 H 0.79919 0.33352 0.62063 0.0
Co897 Co 0.77376 0.38842 0.62756 0.0
C898 C 0.73521 0.41276 0.66349 0.0
O899 O 0.75414 0.4279 0.67227 0.0
N900 N 0.78533 0.42348 0.63144 0.0
C901 C 0.80948 0.45973 0.63471 0.0
C902 C 0.80854 0.4333 0.63985 0.0
C903 C 0.77256 0.44456 0.62138 0.0
N904 N 0.78686 0.46668 0.6231 0.0
O905 O 0.76153 0.39674 0.59293 0.0
H906 H 0.82457 0.42224 0.64801 0.0
H907 H 0.75365 0.44345 0.61176 0.0
O908 O 0.73983 0.39708 0.64432 0.0
C909 C 0.78215 0.39546 0.57876 0.0
O910 O 0.80467 0.39066 0.59041 0.0
N911 N 0.78834 0.37811 0.65999 0.0
C912 C 0.81522 0.35714 0.70295 0.0
C913 C 0.78784 0.35985 0.70348 0.0
C914 C 0.77469 0.3697 0.68153 0.0
C915 C 0.81474 0.37406 0.65864 0.0
C916 C 0.82867 0.36422 0.68003 0.0
H917 H 0.75357 0.36908 0.68157 0.0
H918 H 0.82506 0.37806 0.64052 0.0
H919 H 0.72125 0.35925 0.61493 0.0
H920 H 0.76998 0.29355 0.60422 0.0
H921 H 0.82592 0.47271 0.63835 0.0
H922 H 0.77654 0.35326 0.72025 0.0
H923 H 0.84974 0.36189 0.67846 0.0
C924 C 0.65314 0.21621 0.38112 0.0
C925 C 0.67454 0.23019 0.39016 0.0
N926 N 0.66783 0.25578 0.39128 0.0
N927 N 0.63321 0.23302 0.37668 0.0
C928 C 0.64278 0.25688 0.38312 0.0
H929 H 0.6519 0.19514 0.37874 0.0
Co930 Co 0.59849 0.22567 0.36839 0.0
C931 C 0.58928 0.28261 0.35185 0.0
O932 O 0.58314 0.29399 0.37416 0.0
N933 N 0.56294 0.2196 0.35997 0.0
C934 C 0.5252 0.2229 0.33804 0.0
C935 C 0.55209 0.22165 0.33581 0.0
C936 C 0.5421 0.21911 0.37643 0.0
N937 N 0.51911 0.22142 0.36365 0.0
O938 O 0.58903 0.23921 0.40192 0.0
H939 H 0.563 0.22386 0.31777 0.0
H940 H 0.54345 0.2191 0.39756 0.0
O941 O 0.59502 0.25841 0.35102 0.0
C942 C 0.59069 0.21847 0.41588 0.0
O943 O 0.59496 0.19594 0.40397 0.0
N944 N 0.60925 0.21012 0.33707 0.0
C945 C 0.62816 0.18234 0.29407 0.0
C946 C 0.63235 0.20946 0.29613 0.0
C947 C 0.62307 0.22298 0.31805 0.0
C948 C 0.60505 0.18375 0.33545 0.0
C949 C 0.61436 0.16942 0.31404 0.0
H950 H 0.62776 0.24356 0.32004 0.0
H951 H 0.59476 0.17377 0.35111 0.0
H952 H 0.63126 0.27465 0.38329 0.0
H953 H 0.69342 0.22218 0.3957 0.0
H954 H 0.5113 0.22557 0.32219 0.0
H955 H 0.64349 0.21997 0.28138 0.0
H956 H 0.61086 0.14846 0.31314 0.0
C957 C 0.7845 0.66294 0.37829 0.0
C958 C 0.76886 0.68261 0.38817 0.0
N959 N 0.74414 0.67339 0.39008 0.0
N960 N 0.76964 0.64151 0.37389 0.0
C961 C 0.74508 0.64852 0.38106 0.0
H962 H 0.80562 0.66357 0.37636 0.0
Co963 Co 0.78247 0.60791 0.36939 0.0
C964 C 0.7485 0.58253 0.32993 0.0
O965 O 0.76895 0.56865 0.32257 0.0
N966 N 0.79562 0.57321 0.36644 0.0
C967 C 0.8212 0.53786 0.3643 0.0
C968 C 0.81965 0.5643 0.35948 0.0
C969 C 0.78298 0.55151 0.37537 0.0
N970 N 0.79819 0.52989 0.37443 0.0
O971 O 0.76714 0.59912 0.40231 0.0
H972 H 0.83575 0.57592 0.35234 0.0
H973 H 0.76335 0.55178 0.3835 0.0
O974 O 0.75051 0.59803 0.34971 0.0
C975 C 0.78461 0.59879 0.4202 0.0
O976 O 0.80943 0.60032 0.41334 0.0
N977 N 0.79928 0.61897 0.33826 0.0
C978 C 0.82761 0.63924 0.29597 0.0
C979 C 0.80025 0.63686 0.29467 0.0
C980 C 0.78639 0.62745 0.3163 0.0
C981 C 0.82556 0.62339 0.34065 0.0
C982 C 0.84026 0.63288 0.31955 0.0
H983 H 0.76528 0.62825 0.31558 0.0
H984 H 0.83517 0.61977 0.35923 0.0
H985 H 0.72876 0.63493 0.38203 0.0
H986 H 0.77537 0.70178 0.39466 0.0
H987 H 0.83822 0.52552 0.36115 0.0
H988 H 0.78951 0.64319 0.27745 0.0
H989 H 0.86126 0.63528 0.32176 0.0
C990 C 0.3399 0.79297 0.38255 0.0
C991 C 0.31855 0.78246 0.39574 0.0
N992 N 0.32572 0.75901 0.40569 0.0
N993 N 0.36014 0.77592 0.38391 0.0
C994 C 0.35096 0.75604 0.39883 0.0
H995 H 0.34047 0.81163 0.37242 0.0
Co996 Co 0.39514 0.77716 0.37206 0.0
C997 C 0.37348 0.72831 0.34412 0.0
O998 O 0.34975 0.72967 0.35395 0.0
N999 N 0.43028 0.7777 0.36127 0.0
C1000 C 0.46734 0.76788 0.3403 0.0
C1001 C 0.44038 0.76891 0.33836 0.0
C1002 C 0.45144 0.78258 0.37644 0.0
N1003 N 0.47411 0.77641 0.36436 0.0
O1004 O 0.40507 0.75943 0.40347 0.0
H1005 H 0.42885 0.76251 0.32172 0.0
H1006 H 0.45043 0.78906 0.39658 0.0
O1007 O 0.3913 0.74439 0.35159 0.0
C1008 C 0.40567 0.77741 0.42092 0.0
O1009 O 0.40505 0.80198 0.41296 0.0
N1010 N 0.38554 0.79693 0.34254 0.0
C1011 C 0.37467 0.82846 0.29944 0.0
C1012 C 0.36189 0.80442 0.30265 0.0
C1013 C 0.36721 0.78917 0.32462 0.0
C1014 C 0.39748 0.82081 0.34019 0.0
C1015 C 0.39227 0.83703 0.31869 0.0
H1016 H 0.35592 0.77163 0.32736 0.0
H1017 H 0.41123 0.82723 0.35504 0.0
H1018 H 0.36229 0.7387 0.40341 0.0
H1019 H 0.2991 0.79091 0.397 0.0
H1020 H 0.48085 0.76092 0.32544 0.0
H1021 H 0.34742 0.79775 0.28855 0.0
H1022 H 0.40204 0.85584 0.31695 0.0
C1023 C 0.2184 0.35545 0.36183 0.0
C1024 C 0.23384 0.33417 0.36861 0.0
N1025 N 0.25626 0.3432 0.37954 0.0
N1026 N 0.23123 0.37763 0.36837 0.0
C1027 C 0.25379 0.36946 0.37946 0.0
H1028 H 0.19971 0.35478 0.35179 0.0
Co1029 Co 0.22506 0.41301 0.36229 0.0
C1030 C 0.27956 0.43152 0.34744 0.0
O1031 O 0.27799 0.45562 0.35645 0.0
N1032 N 0.22029 0.4492 0.35616 0.0
C1033 C 0.22456 0.48861 0.33764 0.0
C1034 C 0.22407 0.46197 0.33317 0.0
C1035 C 0.21792 0.46861 0.37414 0.0
N1036 N 0.22082 0.49261 0.36345 0.0
O1037 O 0.23446 0.41924 0.39802 0.0
H1038 H 0.22822 0.45258 0.3146 0.0
H1039 H 0.21596 0.46545 0.395 0.0
O1040 O 0.26041 0.41576 0.34988 0.0
C1041 C 0.2128 0.41572 0.41012 0.0
O1042 O 0.19114 0.41473 0.39611 0.0
N1043 N 0.21329 0.40518 0.32848 0.0
C1044 C 0.18865 0.38573 0.28379 0.0
C1045 C 0.21604 0.38445 0.28631 0.0
C1046 C 0.22804 0.39405 0.30902 0.0
C1047 C 0.18681 0.40758 0.32585 0.0
C1048 C 0.17406 0.39797 0.30364 0.0
H1049 H 0.24889 0.39115 0.31142 0.0
H1050 H 0.17542 0.41595 0.3417 0.0
H1051 H 0.26849 0.38286 0.38686 0.0
H1052 H 0.22934 0.3138 0.36464 0.0
H1053 H 0.22825 0.5038 0.32324 0.0
H1054 H 0.22793 0.37477 0.27156 0.0
H1055 H 0.15288 0.39944 0.30234 0.0
C1056 C 0.63002 0.65227 0.78329 0.0
C1057 C 0.62363 0.67101 0.76482 0.0
N1058 N 0.61988 0.65887 0.74158 0.0
N1059 N 0.6304 0.62857 0.77158 0.0
C1060 C 0.62422 0.63324 0.74626 0.0
H1061 H 0.63296 0.65555 0.80405 0.0
Co1062 Co 0.63217 0.59558 0.78636 0.0
C1063 C 0.66847 0.56621 0.75158 0.0
O1064 O 0.67609 0.55206 0.77175 0.0
N1065 N 0.63276 0.56142 0.80075 0.0
C1066 C 0.63267 0.52647 0.82693 0.0
C1067 C 0.63936 0.55253 0.82487 0.0
C1068 C 0.62218 0.54023 0.7886 0.0
N1069 N 0.62177 0.51884 0.80412 0.0
O1070 O 0.59798 0.5892 0.7727 0.0
H1071 H 0.64759 0.56403 0.84057 0.0
H1072 H 0.61393 0.54078 0.76903 0.0
O1073 O 0.64976 0.58279 0.75448 0.0
C1074 C 0.58151 0.59202 0.79134 0.0
O1075 O 0.59033 0.59382 0.8155 0.0
N1076 N 0.66436 0.60469 0.8019 0.0
C1077 C 0.70667 0.62679 0.82868 0.0
C1078 C 0.70845 0.62132 0.8018 0.0
C1079 C 0.68679 0.61106 0.78859 0.0
C1080 C 0.66198 0.61108 0.82778 0.0
C1081 C 0.68301 0.62174 0.84169 0.0
H1082 H 0.68773 0.61004 0.76752 0.0
H1083 H 0.64324 0.60876 0.83747 0.0
H1084 H 0.62107 0.61787 0.73195 0.0
H1085 H 0.62123 0.69182 0.76841 0.0
H1086 H 0.63517 0.5142 0.8441 0.0
H1087 H 0.72594 0.62633 0.79078 0.0
H1088 H 0.6806 0.62647 0.86228 0.0
C1089 C 0.35003 0.60856 0.78586 0.0
C1090 C 0.33098 0.59796 0.76971 0.0
N1091 N 0.33545 0.60641 0.74505 0.0
N1092 N 0.36642 0.62334 0.77125 0.0
C1093 C 0.35681 0.62183 0.74659 0.0
H1094 H 0.35321 0.60374 0.80629 0.0
Co1095 Co 0.40076 0.633 0.77915 0.0
C1096 C 0.41515 0.66288 0.73109 0.0
O1097 O 0.4349 0.64732 0.72533 0.0
N1098 N 0.43595 0.64202 0.78601 0.0
C1099 C 0.47427 0.6631 0.78483 0.0
C1100 C 0.44735 0.66594 0.78421 0.0
C1101 C 0.45628 0.62522 0.78869 0.0
N1102 N 0.47967 0.63739 0.78757 0.0
O1103 O 0.41157 0.60439 0.75756 0.0
H1104 H 0.43684 0.68412 0.78099 0.0
H1105 H 0.4544 0.60416 0.78976 0.0
O1106 O 0.40062 0.65786 0.75073 0.0
C1107 C 0.41094 0.58408 0.77218 0.0
O1108 O 0.40819 0.58741 0.79763 0.0
N1109 N 0.38876 0.65966 0.80148 0.0
C1110 C 0.3692 0.69775 0.83523 0.0
C1111 C 0.35931 0.69536 0.80979 0.0
C1112 C 0.36933 0.67617 0.7932 0.0
C1113 C 0.39824 0.66131 0.82649 0.0
C1114 C 0.38895 0.68064 0.8437 0.0
H1115 H 0.36104 0.67428 0.77379 0.0
H1116 H 0.413 0.64758 0.83315 0.0
H1117 H 0.36697 0.62931 0.72951 0.0
H1118 H 0.31602 0.58395 0.77534 0.0
H1119 H 0.48872 0.67854 0.78269 0.0
H1120 H 0.34387 0.70823 0.80282 0.0
H1121 H 0.39673 0.68194 0.86344 0.0
C1122 C 0.35439 0.35215 0.78265 0.0
C1123 C 0.35536 0.32683 0.77301 0.0
N1124 N 0.36504 0.32772 0.74838 0.0
N1125 N 0.36295 0.36874 0.76387 0.0
C1126 C 0.36998 0.3532 0.74369 0.0
H1127 H 0.34617 0.35815 0.80127 0.0
Co1128 Co 0.36047 0.405 0.76101 0.0
C1129 C 0.34725 0.41175 0.70336 0.0
O1130 O 0.35853 0.43465 0.69976 0.0
N1131 N 0.35783 0.44157 0.75723 0.0
C1132 C 0.34307 0.48128 0.74645 0.0
C1133 C 0.33645 0.45528 0.74949 0.0
C1134 C 0.37703 0.45977 0.75909 0.0
N1135 N 0.36866 0.48399 0.75242 0.0
O1136 O 0.39688 0.40566 0.75102 0.0
H1137 H 0.31741 0.44681 0.74547 0.0
H1138 H 0.39701 0.45542 0.76465 0.0
O1139 O 0.34828 0.40048 0.72557 0.0
C1140 C 0.40895 0.40517 0.77301 0.0
O1141 O 0.39482 0.40739 0.79451 0.0
N1142 N 0.32597 0.40331 0.77348 0.0
C1143 C 0.28112 0.38998 0.80161 0.0
C1144 C 0.28304 0.38408 0.7748 0.0
C1145 C 0.30581 0.39066 0.76107 0.0
C1146 C 0.32358 0.41099 0.79898 0.0
C1147 C 0.30131 0.40442 0.8135 0.0
H1148 H 0.30782 0.38367 0.74119 0.0
H1149 H 0.33993 0.42054 0.8086 0.0
H1150 H 0.37649 0.36068 0.7249 0.0
H1151 H 0.34816 0.30939 0.78278 0.0
H1152 H 0.33001 0.497 0.74062 0.0
H1153 H 0.26802 0.37261 0.76504 0.0
H1154 H 0.30046 0.40938 0.83416 0.0
C1155 C 0.64862 0.37174 0.78239 0.0
C1156 C 0.66994 0.37944 0.7677 0.0
N1157 N 0.66231 0.38146 0.74246 0.0
N1158 N 0.62772 0.36896 0.76644 0.0
C1159 C 0.63667 0.37499 0.74219 0.0
H1160 H 0.64802 0.36971 0.80351 0.0
Co1161 Co 0.59331 0.36486 0.77727 0.0
C1162 C 0.56755 0.33289 0.73604 0.0
O1163 O 0.55058 0.32461 0.75358 0.0
N1164 N 0.55785 0.36199 0.78834 0.0
C1165 C 0.52097 0.3564 0.81109 0.0
C1166 C 0.54736 0.35101 0.81012 0.0
C1167 C 0.5372 0.374 0.77649 0.0
N1168 N 0.51462 0.37084 0.78993 0.0
O1169 O 0.58706 0.40047 0.76712 0.0
H1170 H 0.55791 0.3403 0.82496 0.0
H1171 H 0.53884 0.38546 0.75868 0.0
O1172 O 0.58429 0.35058 0.74244 0.0
C1173 C 0.58934 0.4131 0.78866 0.0
O1174 O 0.59229 0.39956 0.81044 0.0
N1175 N 0.60199 0.33116 0.79006 0.0
C1176 C 0.62397 0.28707 0.81421 0.0
C1177 C 0.61971 0.2875 0.78705 0.0
C1178 C 0.60946 0.31004 0.77525 0.0
C1179 C 0.60677 0.33123 0.8164 0.0
C1180 C 0.6174 0.30932 0.82894 0.0
H1181 H 0.60944 0.31085 0.75417 0.0
H1182 H 0.60312 0.34884 0.82768 0.0
H1183 H 0.62427 0.37652 0.72502 0.0
H1184 H 0.68932 0.38405 0.77507 0.0
H1185 H 0.5075 0.35049 0.82643 0.0
H1186 H 0.62574 0.27115 0.77484 0.0
H1187 H 0.62095 0.31 0.84989 0.0
C1188 C 0.62746 0.34078 0.21451 0.0
C1189 C 0.62126 0.32183 0.23281 0.0
N1190 N 0.61417 0.33394 0.25529 0.0
N1191 N 0.62448 0.3646 0.2256 0.0
C1192 C 0.61621 0.35978 0.25025 0.0
H1193 H 0.63351 0.33738 0.19445 0.0
Co1194 Co 0.62809 0.39785 0.21177 0.0
C1195 C 0.66118 0.4258 0.2511 0.0
O1196 O 0.67021 0.44137 0.23262 0.0
N1197 N 0.63071 0.43218 0.19819 0.0
C1198 C 0.63427 0.46736 0.17261 0.0
C1199 C 0.63951 0.441 0.17477 0.0
C1200 C 0.62011 0.45365 0.20979 0.0
N1201 N 0.62205 0.47523 0.19465 0.0
O1202 O 0.59283 0.40508 0.22255 0.0
H1203 H 0.64843 0.42929 0.1596 0.0
H1204 H 0.61046 0.4533 0.22871 0.0
O1205 O 0.64322 0.40916 0.24546 0.0
C1206 C 0.57932 0.40085 0.20189 0.0
O1207 O 0.59193 0.39575 0.17995 0.0
N1208 N 0.66126 0.38834 0.19848 0.0
C1209 C 0.70454 0.36604 0.17333 0.0
C1210 C 0.70551 0.37211 0.20015 0.0
C1211 C 0.68338 0.38256 0.21255 0.0
C1212 C 0.65985 0.3817 0.17259 0.0
C1213 C 0.6813 0.37088 0.15953 0.0
H1214 H 0.68379 0.3843 0.23357 0.0
H1215 H 0.64153 0.38409 0.16214 0.0
H1216 H 0.611 0.37509 0.26401 0.0
H1217 H 0.62206 0.30082 0.22976 0.0
H1218 H 0.63882 0.47975 0.15595 0.0
H1219 H 0.72275 0.36751 0.21171 0.0
H1220 H 0.67957 0.36595 0.13892 0.0
C1221 C 0.66005 0.6199 0.20942 0.0
C1222 C 0.68211 0.61158 0.22279 0.0
N1223 N 0.6758 0.60894 0.24835 0.0
N1224 N 0.64007 0.62244 0.22658 0.0
C1225 C 0.65028 0.61548 0.25002 0.0
H1226 H 0.65853 0.62348 0.18855 0.0
Co1227 Co 0.60517 0.63062 0.21983 0.0
C1228 C 0.59582 0.64266 0.27795 0.0
O1229 O 0.59083 0.61933 0.28774 0.0
N1230 N 0.56938 0.63898 0.21436 0.0
C1231 C 0.53181 0.66106 0.21868 0.0
C1232 C 0.55865 0.66317 0.21673 0.0
C1233 C 0.54843 0.62257 0.21453 0.0
N1234 N 0.52552 0.63548 0.21743 0.0
O1235 O 0.59626 0.59591 0.23082 0.0
H1236 H 0.56961 0.68121 0.21884 0.0
H1237 H 0.54975 0.60141 0.2146 0.0
O1238 O 0.60126 0.64546 0.25381 0.0
C1239 C 0.59794 0.58314 0.2093 0.0
O1240 O 0.60143 0.59651 0.18749 0.0
N1241 N 0.61569 0.66324 0.20659 0.0
C1242 C 0.63719 0.70678 0.18153 0.0
C1243 C 0.63866 0.7043 0.20887 0.0
C1244 C 0.62823 0.68207 0.22103 0.0
C1245 C 0.61363 0.66561 0.18003 0.0
C1246 C 0.62439 0.68722 0.16703 0.0
H1247 H 0.63131 0.6796 0.24184 0.0
H1248 H 0.60436 0.65014 0.16882 0.0
H1249 H 0.63907 0.61413 0.26793 0.0
H1250 H 0.70127 0.60782 0.2144 0.0
H1251 H 0.51807 0.677 0.22171 0.0
H1252 H 0.64889 0.71881 0.22058 0.0
H1253 H 0.62304 0.68849 0.14585 0.0
C1254 C 0.36673 0.65895 0.20902 0.0
C1255 C 0.37045 0.68281 0.22138 0.0
N1256 N 0.38288 0.67844 0.2443 0.0
N1257 N 0.37611 0.63969 0.22462 0.0
C1258 C 0.38645 0.65239 0.24542 0.0
H1259 H 0.35538 0.6559 0.19137 0.0
Co1260 Co 0.36973 0.60361 0.22644 0.0
C1261 C 0.35424 0.60214 0.28425 0.0
O1262 O 0.36942 0.58268 0.29171 0.0
N1263 N 0.36333 0.56762 0.22957 0.0
C1264 C 0.3459 0.52949 0.24181 0.0
C1265 C 0.34195 0.55617 0.2403 0.0
C1266 C 0.37975 0.54748 0.2243 0.0
N1267 N 0.36975 0.52413 0.23181 0.0
O1268 O 0.40424 0.59936 0.24065 0.0
H1269 H 0.32483 0.56659 0.24728 0.0
H1270 H 0.39906 0.5498 0.21589 0.0
O1271 O 0.35432 0.60969 0.26046 0.0
C1272 C 0.42038 0.59812 0.22154 0.0
O1273 O 0.41096 0.59621 0.19759 0.0
N1274 N 0.33706 0.6082 0.21005 0.0
C1275 C 0.29472 0.62369 0.17913 0.0
C1276 C 0.29308 0.62459 0.20657 0.0
C1277 C 0.3145 0.61684 0.22173 0.0
C1278 C 0.33828 0.6053 0.18349 0.0
C1279 C 0.31739 0.6132 0.16757 0.0
H1280 H 0.31299 0.61891 0.24267 0.0
H1281 H 0.35628 0.59842 0.17456 0.0
H1282 H 0.39311 0.64244 0.26298 0.0
H1283 H 0.3622 0.70145 0.21535 0.0
H1284 H 0.33226 0.51516 0.24958 0.0
H1285 H 0.27595 0.63262 0.21628 0.0
H1286 H 0.31929 0.61191 0.14644 0.0
C1287 C 0.34208 0.38703 0.21627 0.0
C1288 C 0.32457 0.39796 0.23374 0.0
N1289 N 0.33402 0.39432 0.25814 0.0
N1290 N 0.36236 0.37667 0.22974 0.0
C1291 C 0.3568 0.38127 0.25523 0.0
H1292 H 0.34127 0.3886 0.19511 0.0
Co1293 Co 0.39485 0.3697 0.21564 0.0
C1294 C 0.4195 0.32939 0.24993 0.0
O1295 O 0.43366 0.32129 0.22997 0.0
N1296 N 0.42858 0.36418 0.20107 0.0
C1297 C 0.4623 0.35812 0.17398 0.0
C1298 C 0.4359 0.35419 0.17759 0.0
C1299 C 0.45118 0.37373 0.21142 0.0
N1300 N 0.47183 0.37062 0.19519 0.0
O1301 O 0.40638 0.40184 0.23072 0.0
H1302 H 0.42314 0.34541 0.16323 0.0
H1303 H 0.45229 0.38398 0.22999 0.0
O1304 O 0.40457 0.34949 0.24723 0.0
C1305 C 0.40635 0.4202 0.21375 0.0
O1306 O 0.40393 0.41395 0.18884 0.0
N1307 N 0.38087 0.33954 0.19938 0.0
C1308 C 0.35595 0.29913 0.17214 0.0
C1309 C 0.36081 0.29691 0.19907 0.0
C1310 C 0.37249 0.31766 0.21249 0.0
C1311 C 0.37441 0.34281 0.1736 0.0
C1312 C 0.3623 0.32267 0.15943 0.0
H1313 H 0.37352 0.31632 0.23353 0.0
H1314 H 0.37882 0.36121 0.16395 0.0
H1315 H 0.3704 0.37772 0.27114 0.0
H1316 H 0.30699 0.40886 0.22889 0.0
H1317 H 0.47351 0.35283 0.15672 0.0
H1318 H 0.35478 0.2796 0.20987 0.0
H1319 H 0.35811 0.32541 0.13876 0.0
C1320 C 0.78539 0.60597 0.65931 0.0
C1321 C 0.77312 0.59592 0.68133 0.0
N1322 N 0.74716 0.59426 0.67639 0.0
N1323 N 0.76712 0.61059 0.64076 0.0
C1324 C 0.74417 0.60317 0.65171 0.0
H1325 H 0.80622 0.6092 0.65678 0.0
Co1326 Co 0.77072 0.62098 0.60602 0.0
C1327 C 0.71718 0.64202 0.59415 0.0
O1328 O 0.71476 0.6298 0.57157 0.0
N1329 N 0.77328 0.63145 0.57061 0.0
C1330 C 0.76829 0.65497 0.53407 0.0
C1331 C 0.76873 0.65581 0.56106 0.0
C1332 C 0.77612 0.61632 0.54897 0.0
N1333 N 0.77287 0.63007 0.52662 0.0
O1334 O 0.75585 0.58804 0.59615 0.0
H1335 H 0.76469 0.67292 0.57298 0.0
H1336 H 0.77927 0.59537 0.54932 0.0
O1337 O 0.73743 0.63838 0.60823 0.0
C1338 C 0.77609 0.57328 0.59552 0.0
O1339 O 0.79932 0.58439 0.59761 0.0
N1340 N 0.78761 0.65173 0.61665 0.0
C1341 C 0.81646 0.69529 0.63232 0.0
C1342 C 0.79035 0.69228 0.6403 0.0
C1343 C 0.77638 0.67005 0.63265 0.0
C1344 C 0.81314 0.65413 0.60902 0.0
C1345 C 0.82803 0.67583 0.61671 0.0
H1346 H 0.75684 0.66734 0.64018 0.0
H1347 H 0.82199 0.63901 0.597 0.0
H1348 H 0.72564 0.60332 0.64135 0.0
H1349 H 0.78256 0.59036 0.69953 0.0
H1350 H 0.76461 0.67129 0.52096 0.0
H1351 H 0.78108 0.7066 0.653 0.0
H1352 H 0.8483 0.67745 0.61048 0.0
C1353 C 0.77756 0.37954 0.33647 0.0
C1354 C 0.76246 0.38831 0.31594 0.0
N1355 N 0.73772 0.3916 0.32464 0.0
N1356 N 0.76239 0.37724 0.35801 0.0
C1357 C 0.73811 0.38463 0.3502 0.0
H1358 H 0.79858 0.37668 0.33615 0.0
Co1359 Co 0.77551 0.37311 0.39164 0.0
C1360 C 0.73881 0.33785 0.41938 0.0
O1361 O 0.75874 0.32987 0.43365 0.0
N1362 N 0.78925 0.37049 0.42615 0.0
C1363 C 0.81555 0.36759 0.4609 0.0
C1364 C 0.81322 0.36273 0.43452 0.0
C1365 C 0.77755 0.38026 0.44803 0.0
N1366 N 0.79312 0.37862 0.46934 0.0
O1367 O 0.76398 0.408 0.39947 0.0
H1368 H 0.82871 0.35487 0.42253 0.0
H1369 H 0.75821 0.38907 0.44814 0.0
O1370 O 0.74213 0.35675 0.40298 0.0
C1371 C 0.78468 0.42172 0.3962 0.0
O1372 O 0.80665 0.4095 0.39032 0.0
N1373 N 0.78922 0.3401 0.38165 0.0
C1374 C 0.81362 0.29533 0.3617 0.0
C1375 C 0.78647 0.29578 0.36571 0.0
C1376 C 0.77452 0.3187 0.37474 0.0
C1377 C 0.81541 0.34044 0.3761 0.0
C1378 C 0.82813 0.31815 0.3665 0.0
H1379 H 0.75343 0.31943 0.37469 0.0
H1380 H 0.82642 0.35843 0.37847 0.0
H1381 H 0.72159 0.38684 0.36339 0.0
H1382 H 0.76932 0.39294 0.29636 0.0
H1383 H 0.8326 0.3636 0.47293 0.0
H1384 H 0.77442 0.27899 0.36065 0.0
H1385 H 0.84902 0.31885 0.36259 0.0
C1386 C 0.62833 0.7775 0.34487 0.0
C1387 C 0.62302 0.76008 0.32485 0.0
N1388 N 0.61746 0.73648 0.33555 0.0
N1389 N 0.62632 0.76479 0.36795 0.0
C1390 C 0.61958 0.73998 0.36165 0.0
H1391 H 0.63287 0.79813 0.34274 0.0
Co1392 Co 0.62854 0.77755 0.40175 0.0
C1393 C 0.66271 0.73898 0.4292 0.0
O1394 O 0.67013 0.75716 0.44592 0.0
N1395 N 0.62968 0.79018 0.43664 0.0
C1396 C 0.63148 0.8151 0.47247 0.0
C1397 C 0.63787 0.8135 0.44637 0.0
C1398 C 0.6184 0.778 0.45747 0.0
N1399 N 0.61918 0.79281 0.47937 0.0
O1400 O 0.59411 0.76455 0.40758 0.0
H1401 H 0.64708 0.82909 0.43552 0.0
H1402 H 0.60894 0.759 0.45636 0.0
O1403 O 0.64483 0.74429 0.41239 0.0
C1404 C 0.57794 0.78347 0.40529 0.0
O1405 O 0.58715 0.80754 0.40393 0.0
N1406 N 0.66132 0.7924 0.39353 0.0
C1407 C 0.70527 0.81883 0.37427 0.0
C1408 C 0.70577 0.79156 0.37795 0.0
C1409 C 0.68339 0.77863 0.38694 0.0
C1410 C 0.66003 0.81864 0.38846 0.0
C1411 C 0.68192 0.83239 0.3795 0.0
H1412 H 0.68354 0.75753 0.3868 0.0
H1413 H 0.6416 0.8289 0.39091 0.0
H1414 H 0.61522 0.72503 0.37608 0.0
H1415 H 0.62318 0.76453 0.30409 0.0
H1416 H 0.6352 0.83162 0.48532 0.0
H1417 H 0.72287 0.78009 0.37264 0.0
H1418 H 0.68039 0.85335 0.3763 0.0
C1419 C 0.22566 0.6521 0.3518 0.0
C1420 C 0.24441 0.64868 0.33257 0.0
N1421 N 0.26648 0.63958 0.34397 0.0
N1422 N 0.23606 0.64557 0.37525 0.0
C1423 C 0.26088 0.63788 0.36977 0.0
H1424 H 0.20568 0.65858 0.3488 0.0
Co1425 Co 0.22067 0.64488 0.40843 0.0
C1426 C 0.25408 0.68011 0.4398 0.0
O1427 O 0.23342 0.68692 0.45365 0.0
N1428 N 0.20595 0.64304 0.44262 0.0
C1429 C 0.17977 0.64016 0.47749 0.0
C1430 C 0.18176 0.64871 0.452 0.0
C1431 C 0.21824 0.63122 0.46309 0.0
N1432 N 0.2027 0.62905 0.48437 0.0
O1433 O 0.23449 0.6104 0.41279 0.0
H1434 H 0.16588 0.65748 0.44121 0.0
H1435 H 0.23789 0.62321 0.46198 0.0
O1436 O 0.25207 0.66172 0.42272 0.0
C1437 C 0.21604 0.59377 0.40977 0.0
O1438 O 0.19176 0.60233 0.40814 0.0
N1439 N 0.20499 0.67771 0.40146 0.0
C1440 C 0.17844 0.72155 0.38188 0.0
C1441 C 0.20557 0.72241 0.38636 0.0
C1442 C 0.21856 0.70009 0.39542 0.0
C1443 C 0.17885 0.67623 0.39601 0.0
C1444 C 0.16503 0.69805 0.38693 0.0
H1445 H 0.23969 0.70037 0.39544 0.0
H1446 H 0.16885 0.65757 0.3975 0.0
H1447 H 0.27456 0.63094 0.38447 0.0
H1448 H 0.24175 0.6518 0.31172 0.0
H1449 H 0.16252 0.64144 0.48983 0.0
H1450 H 0.21698 0.73959 0.38118 0.0
H1451 H 0.14423 0.69621 0.38299 0.0
C1452 C 0.37882 0.21235 0.34246 0.0
C1453 C 0.38798 0.22452 0.32001 0.0
N1454 N 0.38866 0.25064 0.32436 0.0
N1455 N 0.37376 0.23082 0.36071 0.0
C1456 C 0.37994 0.25383 0.34909 0.0
H1457 H 0.37693 0.19144 0.34564 0.0
Co1458 Co 0.36587 0.227 0.39609 0.0
C1459 C 0.34865 0.2833 0.4031 0.0
O1460 O 0.37013 0.29291 0.41364 0.0
N1461 N 0.358 0.22459 0.43212 0.0
C1462 C 0.33678 0.23112 0.46982 0.0
C1463 C 0.33419 0.22896 0.44304 0.0
C1464 C 0.37464 0.22386 0.45279 0.0
N1465 N 0.3623 0.22806 0.47583 0.0
O1466 O 0.39884 0.24268 0.4034 0.0
H1467 H 0.31621 0.23178 0.43214 0.0
H1468 H 0.39565 0.22181 0.45113 0.0
O1469 O 0.34752 0.25947 0.39605 0.0
C1470 C 0.41529 0.22382 0.40359 0.0
O1471 O 0.40631 0.19962 0.40402 0.0
N1472 N 0.33468 0.20979 0.38747 0.0
C1473 C 0.29004 0.1818 0.37355 0.0
C1474 C 0.29348 0.20766 0.36501 0.0
C1475 C 0.31621 0.22117 0.37173 0.0
C1476 C 0.33191 0.18446 0.39564 0.0
C1477 C 0.30962 0.16997 0.3888 0.0
H1478 H 0.31913 0.24059 0.36374 0.0
H1479 H 0.34717 0.17545 0.40733 0.0
H1480 H 0.3797 0.27251 0.35915 0.0
H1481 H 0.39403 0.21486 0.30208 0.0
H1482 H 0.3212 0.23503 0.48372 0.0
H1483 H 0.27909 0.21707 0.35249 0.0
H1484 H 0.30768 0.14982 0.39533 0.0
C1485 C 0.21502 0.36768 0.64099 0.0
C1486 C 0.23235 0.37602 0.66003 0.0
N1487 N 0.2569 0.37234 0.65098 0.0
N1488 N 0.22872 0.35903 0.62006 0.0
C1489 C 0.25419 0.36207 0.6268 0.0
H1490 H 0.19393 0.37008 0.64136 0.0
Co1491 Co 0.21588 0.35555 0.58632 0.0
C1492 C 0.24963 0.31528 0.5609 0.0
O1493 O 0.23044 0.30871 0.54498 0.0
N1494 N 0.20313 0.35341 0.55147 0.0
C1495 C 0.17766 0.35284 0.516 0.0
C1496 C 0.17966 0.34555 0.54188 0.0
C1497 C 0.21521 0.36476 0.53064 0.0
N1498 N 0.19994 0.3652 0.5091 0.0
O1499 O 0.23306 0.38768 0.57836 0.0
H1500 H 0.16414 0.33636 0.55288 0.0
H1501 H 0.23418 0.37424 0.5317 0.0
O1502 O 0.24666 0.33467 0.57667 0.0
C1503 C 0.21666 0.40655 0.57827 0.0
O1504 O 0.19147 0.401 0.57826 0.0
N1505 N 0.19729 0.32547 0.59683 0.0
C1506 C 0.16632 0.28598 0.61861 0.0
C1507 C 0.19321 0.28205 0.61461 0.0
C1508 C 0.20851 0.30233 0.6045 0.0
C1509 C 0.17144 0.33008 0.60199 0.0
C1510 C 0.15544 0.31047 0.6125 0.0
H1511 H 0.22944 0.29968 0.60447 0.0
H1512 H 0.16326 0.34931 0.59815 0.0
H1513 H 0.27034 0.3598 0.61322 0.0
H1514 H 0.22738 0.38564 0.67832 0.0
H1515 H 0.16062 0.3503 0.50355 0.0
H1516 H 0.20261 0.26392 0.62057 0.0
H1517 H 0.13488 0.31451 0.61611 0.0
C1518 C 0.61338 0.21199 0.65596 0.0
C1519 C 0.6051 0.22758 0.67641 0.0
N1520 N 0.6037 0.25253 0.66776 0.0
N1521 N 0.61711 0.22714 0.63462 0.0
C1522 C 0.61118 0.25178 0.64243 0.0
H1523 H 0.61471 0.1908 0.65608 0.0
Co1524 Co 0.62028 0.2153 0.6006 0.0
C1525 C 0.65652 0.25235 0.5746 0.0
O1526 O 0.66425 0.23317 0.55918 0.0
N1527 N 0.62202 0.2033 0.56565 0.0
C1528 C 0.62224 0.17891 0.52943 0.0
C1529 C 0.62816 0.17944 0.55568 0.0
C1530 C 0.61236 0.21681 0.54487 0.0
N1531 N 0.61228 0.2024 0.52277 0.0
O1532 O 0.58658 0.22918 0.59388 0.0
H1533 H 0.63534 0.1628 0.56651 0.0
H1534 H 0.60452 0.23653 0.54618 0.0
O1535 O 0.63778 0.2483 0.59089 0.0
C1536 C 0.57021 0.21039 0.5958 0.0
O1537 O 0.57926 0.1863 0.59786 0.0
N1538 N 0.6523 0.1996 0.60948 0.0
C1539 C 0.69552 0.17177 0.62801 0.0
C1540 C 0.69641 0.19918 0.62584 0.0
C1541 C 0.67434 0.2128 0.61721 0.0
C1542 C 0.6505 0.17322 0.61343 0.0
C1543 C 0.67206 0.15876 0.62196 0.0
H1544 H 0.67473 0.2339 0.61826 0.0
H1545 H 0.63193 0.16338 0.61045 0.0
H1546 H 0.60997 0.26841 0.62926 0.0
H1547 H 0.5993 0.22096 0.69576 0.0
H1548 H 0.62451 0.16232 0.51633 0.0
H1549 H 0.71359 0.21014 0.63192 0.0
H1550 H 0.67022 0.13769 0.62415 0.0
C1551 C 0.37492 0.79209 0.65628 0.0
C1552 C 0.38536 0.78048 0.67856 0.0
N1553 N 0.39287 0.75595 0.67228 0.0
N1554 N 0.3752 0.77454 0.63629 0.0
C1555 C 0.38658 0.75302 0.64691 0.0
H1556 H 0.36697 0.8117 0.65541 0.0
Co1557 Co 0.36366 0.77219 0.60081 0.0
C1558 C 0.32974 0.73625 0.63043 0.0
O1559 O 0.32902 0.7542 0.64896 0.0
N1560 N 0.35359 0.76825 0.56576 0.0
C1561 C 0.34082 0.74893 0.52869 0.0
C1562 C 0.33658 0.75074 0.55527 0.0
C1563 C 0.36748 0.77713 0.54505 0.0
N1564 N 0.36058 0.76528 0.52243 0.0
O1565 O 0.39541 0.75376 0.59335 0.0
H1566 H 0.32326 0.73843 0.56624 0.0
H1567 H 0.38394 0.79035 0.54678 0.0
O1568 O 0.34414 0.73994 0.61008 0.0
C1569 C 0.41285 0.77152 0.59042 0.0
O1570 O 0.40513 0.79615 0.58971 0.0
N1571 N 0.33387 0.79315 0.60702 0.0
C1572 C 0.29309 0.82715 0.62011 0.0
C1573 C 0.28779 0.80158 0.61136 0.0
C1574 C 0.30842 0.78513 0.60424 0.0
C1575 C 0.33918 0.81881 0.61235 0.0
C1576 C 0.31913 0.83608 0.61951 0.0
H1577 H 0.30372 0.7657 0.59734 0.0
H1578 H 0.35927 0.82567 0.61195 0.0
H1579 H 0.38857 0.73453 0.63663 0.0
H1580 H 0.38676 0.78915 0.69791 0.0
H1581 H 0.331 0.73568 0.51529 0.0
H1582 H 0.268 0.79385 0.61099 0.0
H1583 H 0.32405 0.85604 0.62496 0.0
C1584 C 0.10558 0.31614 0.0083 0.0
C1585 C 0.11911 0.2949 0.99727 0.0
H1586 H 0.08643 0.33178 0.04205 0.0
C1587 C 0.12089 0.27123 0.01136 0.0
H1588 H 0.10344 0.33433 0.99752 0.0
C1589 C 0.11118 0.26969 0.03714 0.0
C1590 C 0.09934 0.29176 0.04878 0.0
H1591 H 0.13115 0.25458 0.00302 0.0
H1592 H 0.11456 0.25202 0.04848 0.0
C1593 C 0.09565 0.31453 0.03367 0.0
C1594 C 0.72758 0.10073 0.03574 0.0
C1595 C 0.71176 0.11433 0.05374 0.0
H1596 H 0.73974 0.0973 0.99543 0.0
C1597 C 0.69651 0.13557 0.0449 0.0
H1598 H 0.73948 0.08429 0.04209 0.0
C1599 C 0.69684 0.14305 0.01868 0.0
C1600 C 0.71214 0.1293 0.00049 0.0
H1601 H 0.68426 0.14663 0.05832 0.0
H1602 H 0.68474 0.1594 0.01251 0.0
C1603 C 0.72754 0.10801 0.00915 0.0
C1604 C 0.91915 0.7066 0.0337 0.0
C1605 C 0.91039 0.72412 0.05306 0.0
H1606 H 0.91349 0.69159 0.99485 0.0
C1607 C 0.8898 0.74152 0.0473 0.0
H1608 H 0.93477 0.69278 0.03789 0.0
C1609 C 0.87715 0.74028 0.02299 0.0
C1610 C 0.88527 0.722 0.00399 0.0
H1611 H 0.88237 0.75486 0.06212 0.0
H1612 H 0.86078 0.75328 0.01917 0.0
C1613 C 0.90689 0.70577 0.00924 0.0
C1614 C 0.26012 0.86783 0.02726 0.0
C1615 C 0.27725 0.87507 0.0069 0.0
H1616 H 0.24941 0.87313 0.06759 0.0
C1617 C 0.29561 0.89515 0.01117 0.0
H1618 H 0.24558 0.85262 0.02423 0.0
C1619 C 0.29794 0.90668 0.03586 0.0
C1620 C 0.2815 0.89878 0.05649 0.0
H1621 H 0.309 0.901 0.99574 0.0
H1622 H 0.31327 0.92107 0.03914 0.0
C1623 C 0.26203 0.87984 0.05185 0.0
C1624 C 0.12742 0.73764 0.97083 0.0
C1625 C 0.12237 0.71735 0.98875 0.0
H1626 H 0.12089 0.75218 0.93178 0.0
C1627 C 0.10361 0.69822 0.98271 0.0
H1628 H 0.14191 0.75253 0.97535 0.0
C1629 C 0.09135 0.69818 0.95829 0.0
C1630 C 0.09783 0.71716 0.93937 0.0
H1631 H 0.0994 0.68262 0.99653 0.0
H1632 H 0.07805 0.68225 0.95359 0.0
C1633 C 0.11521 0.73756 0.94614 0.0
C1634 C 0.28661 0.08955 0.96182 0.0
C1635 C 0.26943 0.09835 0.94219 0.0
H1636 H 0.30029 0.09447 0.00126 0.0
C1637 C 0.25138 0.11836 0.94796 0.0
H1638 H 0.30091 0.07435 0.95766 0.0
C1639 C 0.25158 0.13039 0.97265 0.0
C1640 C 0.26943 0.12216 0.992 0.0
H1641 H 0.23826 0.12579 0.93297 0.0
H1642 H 0.23804 0.14631 0.97653 0.0
C1643 C 0.28639 0.10114 0.98662 0.0
C1644 C 0.87363 0.25407 0.9755 0.0
C1645 C 0.88251 0.27274 0.9938 0.0
H1646 H 0.87685 0.23893 0.93636 0.0
C1647 C 0.90372 0.28901 0.98716 0.0
H1648 H 0.85757 0.24101 0.98034 0.0
C1649 C 0.91467 0.28789 0.96205 0.0
C1650 C 0.90502 0.27005 0.94338 0.0
H1651 H 0.91091 0.30351 0.00094 0.0
H1652 H 0.92993 0.30177 0.95684 0.0
C1653 C 0.88497 0.25255 0.95055 0.0
C1654 C 0.71011 0.8972 0.99161 0.0
C1655 C 0.72699 0.87627 0.9976 0.0
H1656 H 0.69464 0.9223 0.96162 0.0
C1657 C 0.74398 0.86669 0.97805 0.0
H1658 H 0.69684 0.9049 0.00633 0.0
C1659 C 0.74327 0.87717 0.95265 0.0
C1660 C 0.72519 0.89701 0.94635 0.0
H1661 H 0.75744 0.85081 0.9823 0.0
H1662 H 0.75561 0.86858 0.9376 0.0
C1663 C 0.70898 0.90725 0.96614 0.0
C1664 C 0.0275 0.10058 0.29553 0.0
C1665 C 0.04607 0.11134 0.27828 0.0
H1666 H 0.98767 0.10097 0.30891 0.0
C1667 C 0.03814 0.13024 0.25987 0.0
H1668 H 0.03333 0.08621 0.3101 0.0
C1669 C 0.01217 0.13921 0.25971 0.0
C1670 C 0.99378 0.12901 0.2776 0.0
H1671 H 0.05229 0.13917 0.24674 0.0
H1672 H 0.00651 0.15431 0.24587 0.0
C1673 C 0.00151 0.1091 0.29498 0.0
C1674 C 0.88437 0.00929 0.26701 0.0
C1675 C 0.89179 0.99763 0.29092 0.0
H1676 H 0.88166 0.04525 0.24498 0.0
C1677 C 0.90655 0.01222 0.30895 0.0
H1678 H 0.87298 0.9983 0.25282 0.0
C1679 C 0.91178 0.03862 0.30438 0.0
C1680 C 0.90222 0.05106 0.28173 0.0
H1681 H 0.91298 0.00347 0.32723 0.0
H1682 H 0.92183 0.04978 0.31946 0.0
C1683 C 0.8895 0.036 0.26244 0.0
C1684 C 0.98459 0.85377 0.29009 0.0
C1685 C 0.00186 0.87008 0.27625 0.0
H1686 H 0.94575 0.84824 0.30472 0.0
C1687 C 0.99236 0.89358 0.26522 0.0
H1688 H 0.99146 0.83566 0.29883 0.0
C1689 C 0.96593 0.90067 0.26822 0.0
C1690 C 0.94901 0.88465 0.28287 0.0
H1691 H 0.00535 0.90633 0.25424 0.0
H1692 H 0.95892 0.9189 0.25978 0.0
C1693 C 0.95853 0.86109 0.29358 0.0
C1694 C 0.10619 0.96858 0.25637 0.0
C1695 C 0.09138 0.95478 0.27513 0.0
H1696 H 0.12519 0.00517 0.24688 0.0
C1697 C 0.08048 0.96853 0.29639 0.0
H1698 H 0.11502 0.95836 0.23995 0.0
C1699 C 0.08659 0.99484 0.30047 0.0
C1700 C 0.10347 0.00803 0.28325 0.0
H1701 H 0.06884 0.9584 0.31104 0.0
H1702 H 0.07933 0.00454 0.31795 0.0
C1703 C 0.11215 0.99521 0.2604 0.0
C1704 C 0.01561 0.87681 0.73252 0.0
C1705 C 0.00227 0.88033 0.70862 0.0
H1706 H 0.05215 0.88147 0.75328 0.0
C1707 C 0.0142 0.89488 0.6886 0.0
H1708 H 0.00661 0.86567 0.74822 0.0
C1709 C 0.03966 0.90425 0.69158 0.0
C1710 C 0.054 0.89896 0.71454 0.0
H1711 H 0.00403 0.89824 0.67023 0.0
H1712 H 0.0486 0.9145 0.67522 0.0
C1713 C 0.04149 0.88597 0.73545 0.0
C1714 C 0.11057 0.0459 0.74543 0.0
C1715 C 0.08829 0.05219 0.73046 0.0
H1716 H 0.14012 0.01678 0.75338 0.0
C1717 C 0.07579 0.03248 0.71582 0.0
H1718 H 0.12085 0.06098 0.75637 0.0
C1719 C 0.08659 0.00736 0.71446 0.0
C1720 C 0.1102 0.00181 0.72734 0.0
H1721 H 0.05884 0.03708 0.70383 0.0
H1722 H 0.07775 0.99285 0.70167 0.0
C1723 C 0.12169 0.02083 0.74359 0.0
C1724 C 0.96739 0.1273 0.73686 0.0
C1725 C 0.9871 0.12051 0.71886 0.0
H1726 H 0.92783 0.12078 0.74952 0.0
C1727 C 0.98249 0.10044 0.70057 0.0
H1728 H 0.97076 0.14247 0.75136 0.0
C1729 C 0.95807 0.08821 0.69938 0.0
C1730 C 0.93812 0.09541 0.7169 0.0
H1731 H 0.99751 0.09492 0.68658 0.0
H1732 H 0.95449 0.07372 0.68422 0.0
C1733 C 0.9431 0.11459 0.7361 0.0
C1734 C 0.89676 0.9781 0.68501 0.0
C1735 C 0.88287 0.98989 0.70559 0.0
H1736 H 0.91553 0.94355 0.67071 0.0
C1737 C 0.88027 0.97653 0.72958 0.0
H1738 H 0.89945 0.98833 0.66657 0.0
C1739 C 0.88943 0.95065 0.73203 0.0
C1740 C 0.90142 0.93819 0.71053 0.0
H1741 H 0.86966 0.98545 0.7457 0.0
H1742 H 0.88542 0.93986 0.74992 0.0
C1743 C 0.90607 0.95258 0.68749 0.0
C1744 C 0.26083 0.04186 0.1058 0.0
C1745 C 0.28008 0.05673 0.09281 0.0
H1746 H 0.25205 0.00538 0.12518 0.0
C1747 C 0.30402 0.04486 0.08607 0.0
H1748 H 0.24233 0.05071 0.11142 0.0
C1749 C 0.30962 0.01941 0.09415 0.0
C1750 C 0.29137 0.0052 0.10901 0.0
H1751 H 0.3191 0.05581 0.07582 0.0
H1752 H 0.32868 0.01114 0.08963 0.0
C1753 C 0.26645 0.01611 0.11381 0.0
C1754 C 0.25202 0.97101 0.86923 0.0
C1755 C 0.26947 0.99058 0.87787 0.0
H1756 H 0.23949 0.93098 0.87301 0.0
C1757 C 0.28624 0.98525 0.89904 0.0
H1758 H 0.23868 0.97482 0.85313 0.0
C1759 C 0.28685 0.96024 0.91022 0.0
C1760 C 0.27021 0.94038 0.90088 0.0
H1761 H 0.29986 1e-05 0.90599 0.0
H1762 H 0.30115 0.95608 0.92541 0.0
C1763 C 0.25218 0.94614 0.88086 0.0
C1764 C 0.04761 0.25768 0.88668 0.0
C1765 C 0.05641 0.27971 0.90086 0.0
H1766 H 0.01576 0.24074 0.86456 0.0
C1767 C 0.03856 0.29991 0.90671 0.0
H1768 H 0.06107 0.24203 0.88157 0.0
C1769 C 0.01316 0.29932 0.89667 0.0
C1770 C 0.00497 0.27838 0.88089 0.0
H1771 H 0.04476 0.31708 0.91765 0.0
H1772 H 0.00018 0.3158 0.90017 0.0
C1773 C 0.02189 0.25702 0.87678 0.0
C1774 C 0.73242 0.00959 0.88308 0.0
C1775 C 0.70837 0.99609 0.8842 0.0
H1776 H 0.75236 0.04628 0.88948 0.0
C1777 C 0.68685 0.00803 0.89645 0.0
H1778 H 0.74929 0.00059 0.87379 0.0
C1779 C 0.68869 0.0336 0.90588 0.0
C1780 C 0.71201 0.04805 0.90291 0.0
H1781 H 0.66831 0.99775 0.89807 0.0
H1782 H 0.6713 0.04256 0.91423 0.0
C1783 C 0.73421 0.03555 0.89224 0.0
C1784 C 0.98565 0.68369 0.8889 0.0
C1785 C 0.99837 0.70485 0.87683 0.0
H1786 H 0.95121 0.66981 0.90803 0.0
C1787 C 0.98644 0.72974 0.87706 0.0
H1788 H 0.9948 0.66452 0.88957 0.0
C1789 C 0.96116 0.73288 0.88758 0.0
C1790 C 0.94786 0.71118 0.89827 0.0
H1791 H 0.99613 0.74634 0.86799 0.0
H1792 H 0.95155 0.7518 0.88608 0.0
C1793 C 0.96079 0.68685 0.89966 0.0
C1794 C 0.73654 0.96213 0.1061 0.0
C1795 C 0.717 0.94605 0.09518 0.0
H1796 H 0.74581 0.00026 0.12164 0.0
C1797 C 0.69273 0.95721 0.08831 0.0
H1798 H 0.7553 0.95392 0.11182 0.0
C1799 C 0.68724 0.98334 0.09414 0.0
C1800 C 0.70593 -0.001 0.10683 0.0
H1801 H 0.67738 0.94534 0.0796 0.0
H1802 H 0.66801 0.99108 0.08947 0.0
C1803 C 0.73104 0.98853 0.11185 0.0
C1804 C 0.04897 0.69766 0.08465 0.0
C1805 C 0.064 0.72046 0.08861 0.0
H1806 H 0.01332 0.67719 0.09315 0.0
C1807 C 0.05254 0.742 0.10155 0.0
H1808 H 0.05714 0.68082 0.07453 0.0
C1809 C 0.02714 0.73986 0.11208 0.0
C1810 C 0.01325 0.7161 0.11003 0.0
H1811 H 0.06377 0.75972 0.10507 0.0
H1812 H 0.019 0.75605 0.12319 0.0
C1813 C 0.02399 0.69544 0.09542 0.0
C1814 C 0.98843 0.27281 0.11387 0.0
C1815 C -0.00081 0.29826 0.11268 0.0
H1816 H 0.95395 0.24894 0.10859 0.0
C1817 C 0.98415 0.31863 0.10197 0.0
H1818 H -0.00025 0.25675 0.12198 0.0
C1819 C 0.95843 0.31414 0.09401 0.0
C1820 C 0.94695 0.28919 0.09676 0.0
H1821 H 0.99216 0.33823 0.10016 0.0
H1822 H 0.94716 0.3306 0.08663 0.0
C1823 C 0.96238 0.2683 0.10605 0.0
C1824 C 0.58789 0.8039 0.54443 0.0
C1825 C 0.59242 0.77984 0.55709 0.0
H1826 H 0.59278 0.82671 0.5096 0.0
C1827 C 0.60279 0.75875 0.54261 0.0
H1828 H 0.5796 0.82041 0.555 0.0
C1829 C 0.61036 0.76247 0.51635 0.0
C1830 C 0.60776 0.78731 0.50455 0.0
H1831 H 0.60664 0.74006 0.552 0.0
H1832 H 0.6197 0.74653 0.50584 0.0
C1833 C 0.59555 0.80761 0.51851 0.0
C1834 C 0.18817 0.60078 0.52057 0.0
C1835 C 0.20814 0.61527 0.50843 0.0
H1836 H 0.17596 0.57912 0.55419 0.0
C1837 C 0.23289 0.6168 0.52061 0.0
H1838 H 0.16915 0.59869 0.51131 0.0
C1839 C 0.23691 0.60553 0.54548 0.0
C1840 C 0.21626 0.5924 0.55823 0.0
H1841 H 0.24863 0.62781 0.51151 0.0
H1842 H 0.25559 0.6083 0.55524 0.0
C1843 C 0.1922 0.5894 0.54507 0.0
C1844 C 0.39575 0.21365 0.50757 0.0
C1845 C 0.37414 0.22957 0.50141 0.0
H1846 H 0.42081 0.19882 0.53781 0.0
C1847 C 0.36367 0.24612 0.52091 0.0
H1848 H 0.40421 0.20074 0.49296 0.0
C1849 C 0.37362 0.2455 0.5465 0.0
C1850 C 0.39381 0.22792 0.55304 0.0
H1851 H 0.34732 0.25896 0.51653 0.0
H1852 H 0.36424 0.25732 0.56147 0.0
C1853 C 0.40534 0.21267 0.53319 0.0
C1854 C 0.80515 0.40372 0.5369 0.0
C1855 C 0.78183 0.39671 0.54982 0.0
H1856 H 0.82681 0.40362 0.501 0.0
C1857 C 0.76065 0.38706 0.535 0.0
H1858 H 0.82169 0.41152 0.54776 0.0
C1859 C 0.76369 0.38253 0.50793 0.0
C1860 C 0.78793 0.38749 0.49563 0.0
H1861 H 0.74254 0.38133 0.54454 0.0
H1862 H 0.7478 0.37358 0.49702 0.0
C1863 C 0.80818 0.3991 0.51017 0.0
C1864 C 0.60847 0.23362 0.48585 0.0
C1865 C 0.60198 0.20949 0.49759 0.0
H1866 H 0.60963 0.25579 0.44991 0.0
C1867 C 0.58724 0.19112 0.48345 0.0
H1868 H 0.61981 0.24805 0.49659 0.0
C1869 C 0.58112 0.19563 0.45728 0.0
C1870 C 0.58983 0.21852 0.44466 0.0
H1871 H 0.58156 0.17266 0.49236 0.0
H1872 H 0.57109 0.18034 0.44639 0.0
C1873 C 0.60249 0.23812 0.45935 0.0
C1874 C 0.79428 0.59233 0.46743 0.0
C1875 C 0.77789 0.60282 0.44795 0.0
H1876 H 0.80532 0.59277 0.50798 0.0
C1877 C 0.7584 0.62099 0.45501 0.0
H1878 H 0.80963 0.57851 0.46233 0.0
C1879 C 0.75643 0.62969 0.48099 0.0
C1880 C 0.77355 0.61991 0.50031 0.0
H1881 H 0.74585 0.62972 0.44023 0.0
H1882 H 0.7419 0.64439 0.48593 0.0
C1883 C 0.79191 0.60055 0.49345 0.0
C1884 C 0.38711 0.79046 0.49091 0.0
C1885 C 0.37418 0.76715 0.49776 0.0
H1886 H 0.40808 0.81157 0.4615 0.0
C1887 C 0.37515 0.74567 0.48039 0.0
H1888 H 0.38684 0.80729 0.50388 0.0
C1889 C 0.38764 0.748 0.45605 0.0
C1890 C 0.39895 0.772 0.44855 0.0
H1891 H 0.36603 0.72716 0.48546 0.0
H1892 H 0.38723 0.73148 0.44268 0.0
C1893 C 0.39939 0.79285 0.46662 0.0
C1894 C 0.22941 0.38174 0.47406 0.0
C1895 C 0.20434 0.38016 0.48555 0.0
H1896 H 0.25206 0.39462 0.44084 0.0
C1897 C 0.18338 0.39354 0.4738 0.0
H1898 H 0.24592 0.37173 0.48294 0.0
C1899 C 0.18694 0.40696 0.45028 0.0
C1900 C 0.2115 0.40714 0.43776 0.0
H1901 H 0.16406 0.39335 0.48264 0.0
H1902 H 0.17005 0.41627 0.44131 0.0
C1903 C 0.23297 0.39505 0.45019 0.0
C1904 C 0.52435 0.63296 0.76919 0.0
C1905 C 0.50483 0.62469 0.78684 0.0
H1906 H 0.56404 0.62799 0.7559 0.0
C1907 C 0.5099 0.60333 0.80348 0.0
H1908 H 0.52068 0.64914 0.75591 0.0
C1909 C 0.53453 0.59138 0.80356 0.0
C1910 C 0.55429 0.60007 0.78646 0.0
H1911 H 0.4951 0.5966 0.81717 0.0
H1912 H 0.53849 0.57595 0.81767 0.0
C1913 C 0.54887 0.62054 0.76881 0.0
C1914 C 0.41431 0.53596 0.77659 0.0
C1915 C 0.4063 0.55766 0.76163 0.0
H1916 H 0.40846 0.49543 0.78544 0.0
C1917 C 0.38855 0.55393 0.7409 0.0
H1918 H 0.42785 0.53845 0.7928 0.0
C1919 C 0.37705 0.52928 0.73694 0.0
C1920 C 0.38343 0.50806 0.75344 0.0
H1921 H 0.38188 0.57042 0.72926 0.0
H1922 H 0.36236 0.52709 0.72176 0.0
C1923 C 0.40311 0.51135 0.77244 0.0
C1924 C 0.47424 0.39213 0.80514 0.0
C1925 C 0.48933 0.38217 0.78444 0.0
H1926 H 0.43764 0.40791 0.81752 0.0
C1927 C 0.47879 0.38231 0.7589 0.0
H1928 H 0.48209 0.39273 0.82488 0.0
C1929 C 0.45288 0.39086 0.75453 0.0
C1930 C 0.43742 0.39969 0.77564 0.0
H1931 H 0.49015 0.37471 0.74262 0.0
H1932 H 0.4447 0.38962 0.73495 0.0
C1933 C 0.44876 0.40093 0.8008 0.0
C1934 C 0.6038 0.45624 0.7693 0.0
C1935 C 0.5927 0.44184 0.79005 0.0
H1936 H 0.62211 0.49251 0.75771 0.0
C1937 C 0.58878 0.45426 0.81437 0.0
H1938 H 0.60727 0.44705 0.75044 0.0
C1939 C 0.59752 0.47979 0.81858 0.0
C1940 C 0.61023 0.49367 0.79853 0.0
H1941 H 0.58002 0.44376 0.83067 0.0
H1942 H 0.59493 0.48849 0.8378 0.0
C1943 C 0.61244 0.4821 0.77351 0.0
C1944 C 0.53713 0.39899 0.17799 0.0
C1945 C 0.55051 0.39778 0.20207 0.0
H1946 H 0.50167 0.39138 0.15705 0.0
C1947 C 0.53678 0.38986 0.22465 0.0
H1948 H 0.54708 0.40531 0.16029 0.0
C1949 C 0.5105 0.38172 0.22269 0.0
C1950 C 0.49782 0.38127 0.19814 0.0
H1951 H 0.5467 0.38854 0.24341 0.0
H1952 H 0.5005 0.37461 0.24004 0.0
C1953 C 0.51118 0.39077 0.17605 0.0
C1954 C 0.60148 0.516 0.17949 0.0
C1955 C 0.61211 0.50109 0.19999 0.0
H1956 H 0.58771 0.55339 0.16682 0.0
C1957 C 0.61433 0.51239 0.2251 0.0
H1958 H 0.59899 0.50754 0.16015 0.0
C1959 C 0.60788 0.53892 0.22904 0.0
C1960 C 0.59898 0.55423 0.2079 0.0
H1961 H 0.62245 0.50117 0.24122 0.0
H1962 H 0.61139 0.54777 0.24806 0.0
C1963 C 0.59487 0.54219 0.18342 0.0
C1964 C 0.45668 0.62443 0.2413 0.0
C1965 C 0.44849 0.60406 0.22465 0.0
H1966 H 0.48784 0.65088 0.25157 0.0
C1967 C 0.46663 0.59284 0.20717 0.0
H1968 H 0.44298 0.63366 0.25468 0.0
C1969 C 0.49224 0.60249 0.20557 0.0
C1970 C 0.49995 0.62401 0.22092 0.0
H1971 H 0.46067 0.57726 0.19396 0.0
H1972 H 0.50564 0.59404 0.1914 0.0
C1973 C 0.48216 0.63454 0.23923 0.0
C1974 C 0.39845 0.49329 0.20797 0.0
C1975 C 0.38192 0.49875 0.22935 0.0
H1976 H 0.41948 0.46392 0.18649 0.0
C1977 C 0.3766 0.47873 0.24761 0.0
H1978 H 0.40281 0.50828 0.19355 0.0
C1979 C 0.38656 0.45342 0.24384 0.0
C1980 C 0.40166 0.44765 0.22149 0.0
H1981 H 0.36423 0.48251 0.26447 0.0
H1982 H 0.38104 0.43806 0.25748 0.0
C1983 C 0.40804 0.46794 0.20397 0.0
C1984 C 0.75766 0.50502 0.61742 0.0
C1985 C 0.78118 0.49177 0.61171 0.0
H1986 H 0.73726 0.54201 0.61646 0.0
C1987 C 0.80033 0.50422 0.59646 0.0
H1988 H 0.74266 0.49557 0.62914 0.0
C1989 C 0.7971 0.53021 0.58881 0.0
C1990 C 0.7748 0.54443 0.59659 0.0
H1991 H 0.81835 0.4941 0.59147 0.0
H1992 H 0.81295 0.53972 0.57827 0.0
C1993 C 0.75451 0.53138 0.60999 0.0
C1994 C 0.76417 0.46543 0.38579 0.0
C1995 C 0.78494 0.45064 0.39631 0.0
H1996 H 0.75231 0.50295 0.37029 0.0
C1997 C 0.80856 0.46329 0.40269 0.0
H1998 H 0.74586 0.45602 0.38046 0.0
C1999 C 0.81228 0.48965 0.39669 0.0
C2000 C 0.79244 0.50405 0.38422 0.0
H2001 H 0.8248 0.45239 0.41107 0.0
H2002 H 0.8311 0.49857 0.40089 0.0
C2003 C 0.76791 0.49212 0.37982 0.0
C2004 C 0.54331 0.75808 0.38168 0.0
C2005 C 0.55033 0.77901 0.39821 0.0
H2006 H 0.51334 0.74121 0.35733 0.0
C2007 C 0.53164 0.7983 0.40428 0.0
H2008 H 0.55756 0.74322 0.37634 0.0
C2009 C 0.50653 0.79714 0.39348 0.0
C2010 C 0.49979 0.77695 0.37599 0.0
H2011 H 0.53671 0.81477 0.41676 0.0
H2012 H 0.49264 0.81257 0.39804 0.0
C2013 C 0.51825 0.7572 0.37045 0.0
C2014 C 0.2042 0.52216 0.3978 0.0
C2015 C 0.22189 0.51713 0.37731 0.0
H2016 H 0.18869 0.55078 0.42442 0.0
C2017 C 0.24026 0.5365 0.37028 0.0
H2018 H 0.18994 0.50748 0.40354 0.0
C2019 C 0.24013 0.56096 0.38279 0.0
C2020 C 0.22124 0.56649 0.40206 0.0
H2021 H 0.25435 0.53285 0.35479 0.0
H2022 H 0.25356 0.57605 0.37614 0.0
C2023 C 0.20364 0.54677 0.40982 0.0
C2024 C 0.487 0.20927 0.39753 0.0
C2025 C 0.49371 0.22436 0.3755 0.0
H2026 H 0.45651 0.19762 0.424 0.0
C2027 C 0.47533 0.24219 0.36523 0.0
H2028 H 0.50089 0.19546 0.40577 0.0
C2029 C 0.45022 0.24407 0.37619 0.0
C2030 C 0.44307 0.22771 0.39717 0.0
H2031 H 0.48026 0.25433 0.3485 0.0
H2032 H 0.43594 0.25697 0.36715 0.0
C2033 C 0.46178 0.21069 0.40806 0.0
C2034 C 0.2471 0.46099 0.61737 0.0
C2035 C 0.23 0.4818 0.61148 0.0
H2036 H 0.25701 0.42069 0.61041 0.0
C2037 C 0.21148 0.47872 0.59133 0.0
H2038 H 0.26183 0.46314 0.63253 0.0
C2039 C 0.20864 0.45454 0.57879 0.0
C2040 C 0.22462 0.43323 0.58582 0.0
H2041 H 0.1981 0.49449 0.58644 0.0
H2042 H 0.19298 0.45208 0.56461 0.0
C2043 C 0.24461 0.43691 0.60444 0.0
C2044 C 0.53455 0.239 0.61324 0.0
C2045 C 0.54243 0.21522 0.60182 0.0
H2046 H 0.50397 0.25982 0.63306 0.0
C2047 C 0.52439 0.19445 0.59995 0.0
H2048 H 0.54816 0.25524 0.61515 0.0
C2049 C 0.49925 0.19695 0.61043 0.0
C2050 C 0.49177 0.2202 0.62315 0.0
H2051 H 0.53003 0.17587 0.59126 0.0
H2052 H 0.48604 0.18033 0.60953 0.0
C2053 C 0.50943 0.24143 0.62391 0.0
C2054 C 0.48415 0.78588 0.6002 0.0
C2055 C 0.49073 0.76701 0.61908 0.0
H2056 H 0.454 0.80173 0.57574 0.0
C2057 C 0.47305 0.74653 0.62447 0.0
H2058 H 0.49765 0.80163 0.59553 0.0
C2059 C 0.44839 0.74601 0.61242 0.0
C2060 C 0.4408 0.76651 0.5957 0.0
H2061 H 0.47811 0.73133 0.63844 0.0
H2062 H 0.43465 0.73066 0.61755 0.0
C2063 C 0.4593 0.78578 0.58877 0.0
C2064 C 0.18418 0.37561 0.23578 0.0
C2065 C 0.17521 0.37251 0.26166 0.0
H2066 H 0.17933 0.36486 0.1954 0.0
C2067 C 0.15377 0.35583 0.26653 0.0
H2068 H 0.20066 0.38837 0.23152 0.0
C2069 C 0.14172 0.34228 0.24598 0.0
C2070 C 0.15068 0.34536 0.22011 0.0
H2071 H 0.14665 0.35281 0.28635 0.0
H2072 H 0.12533 0.32944 0.25031 0.0
C2073 C 0.1719 0.36231 0.21516 0.0
C2074 C 0.6538 0.14462 0.2757 0.0
C2075 C 0.63904 0.16757 0.27158 0.0
H2076 H 0.67709 0.11421 0.25818 0.0
C2077 C 0.63558 0.17692 0.2459 0.0
H2078 H 0.65692 0.13716 0.29536 0.0
C2079 C 0.6469 0.16375 0.22473 0.0
C2080 C 0.66215 0.14114 0.22887 0.0
H2081 H 0.6242 0.19451 0.24223 0.0
H2082 H 0.6443 0.17167 0.20516 0.0
C2083 C 0.66544 0.13163 0.25452 0.0
C2084 C 0.84901 0.65275 0.22607 0.0
C2085 C 0.86826 0.67217 0.22969 0.0
H2086 H 0.82125 0.62697 0.24423 0.0
C2087 C 0.87497 0.67976 0.25535 0.0
H2088 H 0.84319 0.64668 0.20654 0.0
C2089 C 0.86225 0.66863 0.27693 0.0
C2090 C 0.84247 0.64974 0.27326 0.0
H2091 H 0.88989 0.69454 0.25874 0.0
H2092 H 0.86734 0.67541 0.29642 0.0
C2093 C 0.83623 0.64168 0.24763 0.0
C2094 C 0.35513 0.86854 0.27951 0.0
C2095 C 0.36843 0.84464 0.27641 0.0
H2096 H 0.33316 0.89899 0.26048 0.0
C2097 C 0.37255 0.83446 0.25117 0.0
H2098 H 0.35159 0.8765 0.29892 0.0
C2099 C 0.36238 0.84738 0.2293 0.0
C2100 C 0.34755 0.87039 0.23248 0.0
H2101 H 0.38266 0.81593 0.24851 0.0
H2102 H 0.36472 0.83851 0.21011 0.0
C2103 C 0.34454 0.88124 0.25766 0.0
C2104 C 0.13622 0.64359 0.74859 0.0
C2105 C 0.14562 0.64319 0.77448 0.0
H2106 H 0.14159 0.63035 0.70911 0.0
C2107 C 0.16707 0.62703 0.78077 0.0
H2108 H 0.11958 0.65574 0.7433 0.0
C2109 C 0.17968 0.6125 0.76123 0.0
C2110 C 0.17083 0.61363 0.73514 0.0
H2111 H 0.17478 0.62649 0.80058 0.0
H2112 H 0.19676 0.60091 0.76635 0.0
C2113 C 0.14863 0.62884 0.72912 0.0
C2114 C 0.37003 0.14117 0.74476 0.0
C2115 C 0.35755 0.14251 0.72019 0.0
H2116 H 0.36672 0.13066 0.78527 0.0
C2117 C 0.33279 0.13078 0.7171 0.0
H2118 H 0.38927 0.14977 0.74761 0.0
C2119 C 0.31993 0.11972 0.73863 0.0
C2120 C 0.33163 0.12008 0.76361 0.0
H2121 H 0.32262 0.1316 0.69845 0.0
H2122 H 0.30037 0.1118 0.73594 0.0
C2123 C 0.3572 0.13004 0.76627 0.0
C2124 C 0.82294 0.35237 0.75139 0.0
C2125 C 0.82946 0.34542 0.72549 0.0
H2126 H 0.83001 0.34604 0.79233 0.0
C2127 C 0.84931 0.32673 0.72126 0.0
H2128 H 0.80786 0.36686 0.75525 0.0
C2129 C 0.86211 0.31497 0.74244 0.0
C2130 C 0.85539 0.32167 0.76833 0.0
H2131 H 0.85459 0.32071 0.70156 0.0
H2132 H 0.87724 0.30054 0.73853 0.0
C2133 C 0.83583 0.34067 0.77259 0.0
C2134 C 0.65975 0.85774 0.75048 0.0
C2135 C 0.65871 0.84751 0.77606 0.0
H2136 H 0.64792 0.85347 0.71041 0.0
C2137 C 0.64333 0.82511 0.78092 0.0
H2138 H 0.6713 0.87509 0.74623 0.0
C2139 C 0.62997 0.81269 0.76041 0.0
C2140 C 0.63145 0.82264 0.73472 0.0
H2141 H 0.64232 0.81669 0.80042 0.0
H2142 H 0.6187 0.79513 0.76456 0.0
C2143 C 0.64616 0.84552 0.73005 0.0
C2144 C 0.24747 0.13291 0.33798 0.0
C2145 C 0.22249 0.1441 0.34133 0.0
H2146 H 0.28864 0.13594 0.3463 0.0
C2147 C 0.2196 0.16614 0.35762 0.0
H2148 H 0.25009 0.11586 0.32553 0.0
C2149 C 0.24156 0.17771 0.36918 0.0
C2150 C 0.26664 0.16714 0.36499 0.0
H2151 H 0.20056 0.17523 0.36032 0.0
H2152 H 0.23908 0.19543 0.3807 0.0
C2153 C 0.2694 0.14423 0.34994 0.0
C2154 C 0.82233 0.24704 0.36209 0.0
C2155 C 0.82626 0.27177 0.35054 0.0
H2156 H 0.82962 0.20562 0.35969 0.0
C2157 C 0.84137 0.27374 0.32759 0.0
H2158 H 0.81075 0.24513 0.37982 0.0
C2159 C 0.85176 0.25122 0.31592 0.0
C2160 C 0.84761 0.22647 0.3273 0.0
H2161 H 0.84447 0.2926 0.31825 0.0
H2162 H 0.86291 0.2531 0.2979 0.0
C2163 C 0.83317 0.22456 0.35069 0.0
C2164 C 0.72518 0.85183 0.34367 0.0
C2165 C 0.72838 0.83259 0.36319 0.0
H2166 H 0.74393 0.87814 0.31685 0.0
C2167 C 0.75386 0.82577 0.37121 0.0
H2168 H 0.70582 0.85731 0.33682 0.0
C2169 C 0.7757 0.83746 0.35951 0.0
C2170 C 0.77251 0.85625 0.33956 0.0
H2171 H 0.75694 0.81118 0.38637 0.0
H2172 H 0.79508 0.83117 0.36556 0.0
C2173 C 0.74701 0.86355 0.33201 0.0
C2174 C 0.14747 0.73931 0.34818 0.0
C2175 C 0.16504 0.74392 0.36893 0.0
H2176 H 0.12406 0.75598 0.31762 0.0
C2177 C 0.17117 0.76998 0.37574 0.0
H2178 H 0.14255 0.71951 0.3422 0.0
C2179 C 0.16074 0.79094 0.3614 0.0
C2180 C 0.14413 0.78618 0.33992 0.0
H2181 H 0.18449 0.77413 0.39179 0.0
H2182 H 0.16653 0.81077 0.36644 0.0
C2183 C 0.13712 0.7602 0.33387 0.0
C2184 C 0.27645 0.85831 0.65437 0.0
C2185 C 0.27181 0.84344 0.63158 0.0
H2186 H 0.25988 0.88123 0.68539 0.0
C2187 C 0.24615 0.84218 0.62152 0.0
H2188 H 0.29593 0.85958 0.66279 0.0
C2189 C 0.22538 0.85405 0.63485 0.0
C2190 C 0.22982 0.86774 0.65842 0.0
H2191 H 0.24195 0.83129 0.60375 0.0
H2192 H 0.20571 0.85141 0.62726 0.0
C2193 C 0.25571 0.87041 0.66757 0.0
C2194 C 0.13995 0.219 0.63645 0.0
C2195 C 0.12564 0.22466 0.65932 0.0
H2196 H 0.1641 0.23419 0.60555 0.0
C2197 C 0.12288 0.2509 0.66737 0.0
H2198 H 0.14254 0.19892 0.62994 0.0
C2199 C 0.13507 0.27105 0.65335 0.0
C2200 C 0.15048 0.26523 0.63124 0.0
H2201 H 0.11181 0.25573 0.68488 0.0
H2202 H 0.13344 0.29102 0.6605 0.0
C2203 C 0.15241 0.23911 0.62262 0.0
C2204 C 0.76554 0.15171 0.64212 0.0
C2205 C 0.76198 0.13218 0.66126 0.0
H2206 H 0.74723 0.17929 0.61631 0.0
C2207 C 0.73639 0.12471 0.66828 0.0
H2208 H 0.78503 0.15809 0.6365 0.0
C2209 C 0.71477 0.13712 0.65701 0.0
C2210 C 0.71834 0.15719 0.63843 0.0
H2211 H 0.73308 0.10953 0.6828 0.0
H2212 H 0.69531 0.13156 0.66351 0.0
C2213 C 0.74392 0.16408 0.63079 0.0
C2214 C 0.82194 0.74367 0.63735 0.0
C2215 C 0.83167 0.7182 0.64133 0.0
H2216 H 0.82687 0.78472 0.6451 0.0
C2217 C 0.85502 0.71467 0.65551 0.0
H2218 H 0.80395 0.74677 0.62644 0.0
C2219 C 0.86788 0.73627 0.6665 0.0
C2220 C 0.85785 0.7617 0.66296 0.0
H2221 H 0.86273 0.69514 0.65894 0.0
H2222 H 0.88544 0.73311 0.67807 0.0
C2223 C 0.83507 0.76529 0.64787 0.0
C2224 C 0.35333 0.25155 0.161 0.0
C2225 C 0.34357 0.27712 0.15785 0.0
H2226 H 0.34858 0.21079 0.15211 0.0
C2227 C 0.32136 0.28123 0.14203 0.0
H2228 H 0.3705 0.24791 0.17301 0.0
C2229 C 0.30868 0.25994 0.13019 0.0
C2230 C 0.3183 0.23431 0.13364 0.0
H2231 H 0.31339 0.30078 0.13947 0.0
H2232 H 0.29132 0.26346 0.11843 0.0
C2233 C 0.34091 0.23037 0.1489 0.0
C2234 C 0.3197 0.73682 0.87315 0.0
C2235 C 0.33236 0.7613 0.87512 0.0
H2236 H 0.32183 0.69725 0.85894 0.0
C2237 C 0.35878 0.76334 0.86725 0.0
H2238 H 0.29956 0.73444 0.87951 0.0
C2239 C 0.37163 0.74184 0.85602 0.0
C2240 C 0.35823 0.71808 0.85247 0.0
H2241 H 0.36905 0.78193 0.86826 0.0
H2242 H 0.39143 0.74423 0.84862 0.0
C2243 C 0.33246 0.71547 0.8617 0.0
C2244 C 0.23379 0.37849 0.80911 0.0
C2245 C 0.26001 0.37803 0.81762 0.0
H2246 H 0.19455 0.36468 0.8155 0.0
C2247 C 0.26649 0.36383 0.84037 0.0
H2248 H 0.22832 0.38925 0.7916 0.0
C2249 C 0.24732 0.34957 0.8538 0.0
C2250 C 0.22124 0.34952 0.84495 0.0
H2251 H 0.28662 0.36282 0.84716 0.0
H2252 H 0.25295 0.33827 0.87091 0.0
C2253 C 0.21452 0.36453 0.8228 0.0
C2254 C 0.6287 0.23862 0.82153 0.0
C2255 C 0.63713 0.26436 0.82673 0.0
H2256 H 0.63487 0.19754 0.82843 0.0
C2257 C 0.65874 0.26831 0.8434 0.0
H2258 H 0.61206 0.23507 0.80878 0.0
C2259 C 0.67192 0.24691 0.85438 0.0
C2260 C 0.6635 0.22117 0.84922 0.0
H2261 H 0.66581 0.28795 0.84751 0.0
H2262 H 0.68864 0.25048 0.86703 0.0
C2263 C 0.64164 0.21721 0.83286 0.0
C2264 C 0.74566 0.67534 0.86917 0.0
C2265 C 0.77138 0.66608 0.86561 0.0
H2266 H 0.7049 0.66992 0.86038 0.0
C2267 C 0.77555 0.64318 0.8508 0.0
H2268 H 0.74195 0.6929 0.88058 0.0
C2269 C 0.75445 0.63014 0.83919 0.0
C2270 C 0.72877 0.63959 0.84243 0.0
H2271 H 0.79522 0.63579 0.84754 0.0
H2272 H 0.75821 0.61278 0.82748 0.0
C2273 C 0.72451 0.6621 0.85781 0.0
C2274 C 0.68276 0.74529 0.13725 0.0
C2275 C 0.67696 0.77123 0.14452 0.0
H2276 H 0.67414 0.70444 0.14301 0.0
C2277 C 0.65758 0.7759 0.16358 0.0
H2278 H 0.6976 0.74128 0.12255 0.0
C2279 C 0.64453 0.75494 0.17554 0.0
C2280 C 0.65024 0.729 0.1682 0.0
H2281 H 0.65291 0.79576 0.1696 0.0
H2282 H 0.62995 0.75895 0.19049 0.0
C2283 C 0.66928 0.72433 0.14879 0.0
C2284 C 0.28034 0.65339 0.14267 0.0
C2285 C 0.2738 0.63579 0.16291 0.0
H2286 H 0.26633 0.68099 0.11416 0.0
C2287 C 0.24722 0.63163 0.16894 0.0
H2288 H 0.30068 0.65723 0.1378 0.0
C2289 C 0.22762 0.64526 0.15548 0.0
C2290 C 0.23418 0.6635 0.13582 0.0
H2291 H 0.24162 0.61814 0.1844 0.0
H2292 H 0.20734 0.64215 0.16108 0.0
C2293 C 0.26072 0.6672 0.12935 0.0
C2294 C 0.77376 0.3506 0.1511 0.0
C2295 C 0.76985 0.32781 0.13603 0.0
H2296 H 0.75607 0.38047 0.17493 0.0
C2297 C 0.74432 0.31792 0.13298 0.0
H2298 H 0.79331 0.35844 0.154 0.0
C2299 C 0.72306 0.33059 0.14479 0.0
C2300 C 0.72701 0.35316 0.16018 0.0
H2301 H 0.74081 0.3004 0.12144 0.0
H2302 H 0.70358 0.32243 0.14233 0.0
C2303 C 0.75254 0.36306 0.16323 0.0
C2304 C 0.10975 0.19336 0.19765 0.0
C2305 C 0.09955 0.19544 0.22318 0.0
H2306 H 0.11035 0.20928 0.1587 0.0
C2307 C 0.07916 0.2133 0.228 0.0
H2308 H 0.12536 0.17954 0.19345 0.0
C2309 C 0.0702 0.22991 0.20815 0.0
C2310 C 0.08176 0.22942 0.18306 0.0
H2311 H 0.0705 0.21481 0.24735 0.0
H2312 H 0.05516 0.24414 0.213 0.0
C2313 C 0.10106 0.21032 0.17777 0.0
C2314 C 0.78648 0.06799 0.22869 0.0
C2315 C 0.80556 0.08743 0.22459 0.0
H2316 H 0.75476 0.04594 0.2124 0.0
C2317 C 0.80884 0.09774 0.19918 0.0
H2318 H 0.7839 0.05929 0.2479 0.0
C2319 C 0.79226 0.09005 0.17872 0.0
C2320 C 0.77206 0.07181 0.18321 0.0
H2321 H 0.82336 0.11279 0.19537 0.0
H2322 H 0.79436 0.09953 0.1598 0.0
C2323 C 0.77004 0.06011 0.20818 0.0
C2324 C 0.90861 0.80437 0.17887 0.0
C2325 C 0.92828 0.78598 0.18507 0.0
H2326 H 0.88063 0.83228 0.19369 0.0
C2327 C 0.93688 0.78409 0.21125 0.0
H2328 H 0.90169 0.8065 0.1589 0.0
C2329 C 0.92448 0.79838 0.23104 0.0
C2330 C 0.90361 0.81529 0.22507 0.0
H2331 H 0.95202 0.77026 0.21686 0.0
H2332 H 0.93083 0.79577 0.25115 0.0
C2333 C 0.89647 0.81903 0.19872 0.0
C2334 C 0.20731 0.91636 0.18446 0.0
C2335 C 0.22975 0.93139 0.18986 0.0
H2336 H 0.17228 0.89895 0.19977 0.0
C2337 C 0.23271 0.9424 0.21509 0.0
H2338 H 0.20451 0.90755 0.16531 0.0
C2339 C 0.21459 0.93698 0.23494 0.0
C2340 C 0.19281 0.92104 0.22985 0.0
H2341 H 0.24979 0.95404 0.22003 0.0
H2342 H 0.21792 0.94467 0.25448 0.0
C2343 C 0.18887 0.91145 0.20421 0.0
C2344 C 0.10609 0.79156 0.81134 0.0
C2345 C 0.08726 0.77257 0.8044 0.0
H2346 H 0.13017 0.82368 0.79835 0.0
C2347 C 0.07716 0.77271 0.77869 0.0
H2348 H 0.11423 0.79207 0.83095 0.0
C2349 C 0.08659 0.79045 0.76005 0.0
C2350 C 0.10604 0.80879 0.76671 0.0
H2351 H 0.06267 0.75842 0.77256 0.0
H2352 H 0.07875 0.78973 0.74032 0.0
C2353 C 0.11524 0.80963 0.79271 0.0
C2354 C 0.18175 0.07441 0.77963 0.0
C2355 C 0.17659 0.10082 0.77368 0.0
H2356 H 0.19823 0.0473 0.80739 0.0
C2357 C 0.1835 0.12039 0.79177 0.0
H2358 H 0.17599 0.05902 0.76614 0.0
C2359 C 0.19596 0.11381 0.81518 0.0
C2360 C 0.20123 0.08745 0.82122 0.0
H2361 H 0.17932 0.14082 0.78762 0.0
H2362 H 0.20181 0.12938 0.82846 0.0
C2363 C 0.19384 0.06773 0.80339 0.0
C2364 C 0.91537 0.18757 0.76806 0.0
C2365 C 0.89296 0.17259 0.77364 0.0
H2366 H 0.94365 0.21504 0.78209 0.0
C2367 C 0.88353 0.1717 0.79951 0.0
H2368 H 0.92343 0.18796 0.74839 0.0
C2369 C 0.89507 0.18733 0.81902 0.0
C2370 C 0.91643 0.20382 0.81298 0.0
H2371 H 0.86645 0.15998 0.80428 0.0
H2372 H 0.88654 0.18733 0.83845 0.0
C2373 C 0.92713 0.20281 0.78753 0.0
C2374 C 0.78204 0.92184 0.78709 0.0
C2375 C 0.78213 0.91107 0.81253 0.0
H2376 H 0.79735 0.91992 0.748 0.0
C2377 C 0.80056 0.89133 0.81845 0.0
H2378 H 0.76823 0.93708 0.78172 0.0
C2379 C 0.81743 0.8816 0.79896 0.0
C2380 C 0.81587 0.89114 0.77315 0.0
H2381 H 0.80133 0.88272 0.83783 0.0
H2382 H 0.83079 0.86576 0.80372 0.0
C2383 C 0.79853 0.91183 0.76762 0.0
C2384 C 0.19496 0.11474 0.18384 0.0
C2385 C 0.22017 0.10364 0.18576 0.0
H2386 H 0.15633 0.11742 0.20034 0.0
C2387 C 0.22486 0.08438 0.20482 0.0
H2388 H 0.19085 0.12967 0.16928 0.0
C2389 C 0.20502 0.07694 0.2222 0.0
C2390 C 0.18014 0.08899 0.22125 0.0
H2391 H 0.24397 0.0752 0.20638 0.0
H2392 H 0.20963 0.06252 0.23712 0.0
C2393 C 0.17517 0.10763 0.20153 0.0
C2394 C 0.87097 0.20603 0.1921 0.0
C2395 C 0.89223 0.21978 0.18144 0.0
H2396 H 0.85781 0.17099 0.21093 0.0
C2397 C 0.91711 0.20793 0.18091 0.0
H2398 H 0.85144 0.21441 0.19161 0.0
C2399 C 0.921 0.18327 0.19245 0.0
C2400 C 0.89986 0.16988 0.2041 0.0
H2401 H 0.93355 0.21806 0.17203 0.0
H2402 H 0.94064 0.17517 0.19305 0.0
C2403 C 0.87466 0.18117 0.20294 0.0
C2404 C 0.77244 0.92217 0.20977 0.0
C2405 C 0.7774 0.90307 0.1906 0.0
H2406 H 0.78734 0.94406 0.24224 0.0
C2407 C 0.80287 0.89261 0.18842 0.0
H2408 H 0.75314 0.9309 0.21154 0.0
C2409 C 0.82259 0.90004 0.20606 0.0
C2410 C 0.81729 0.91832 0.22605 0.0
H2411 H 0.80724 0.87781 0.17381 0.0
H2412 H 0.84161 0.89061 0.20473 0.0
C2413 C 0.7922 0.9299 0.22714 0.0
C2414 C 0.14453 0.83009 0.18299 0.0
C2415 C 0.12566 0.83376 0.20269 0.0
H2416 H 0.15994 0.80435 0.15363 0.0
C2417 C 0.10608 0.8146 0.20636 0.0
H2418 H 0.15995 0.84444 0.17994 0.0
C2419 C 0.10663 0.79127 0.19187 0.0
C2420 C 0.12623 0.78722 0.173 0.0
H2421 H 0.09144 0.81682 0.22157 0.0
H2422 H 0.09207 0.77624 0.19559 0.0
C2423 C 0.14464 0.80714 0.16811 0.0
C2424 C 0.21087 0.92553 0.78404 0.0
C2425 C 0.18682 0.91197 0.78213 0.0
H2426 H 0.24952 0.92666 0.80062 0.0
C2427 C 0.1831 0.88933 0.79746 0.0
H2428 H 0.21451 0.94307 0.77259 0.0
C2429 C 0.20332 0.88005 0.81361 0.0
C2430 C 0.22771 0.89299 0.81442 0.0
H2431 H 0.16495 0.8783 0.79635 0.0
H2432 H 0.2002 0.86232 0.8249 0.0
C2433 C 0.23115 0.916 0.7998 0.0
C2434 C 0.10837 0.17469 0.8064 0.0
C2435 C 0.08342 0.17391 0.79479 0.0
H2436 H 0.13673 0.19791 0.82708 0.0
C2437 C 0.06722 0.19615 0.79595 0.0
H2438 H 0.12127 0.15783 0.80549 0.0
C2439 C 0.07636 0.21928 0.80763 0.0
C2440 C 0.10161 0.22025 0.81866 0.0
H2441 H 0.04812 0.19609 0.78659 0.0
H2442 H 0.06383 0.23645 0.8079 0.0
C2443 C 0.11725 0.19757 0.81857 0.0
C2444 C 0.8119 0.08933 0.79444 0.0
C2445 C 0.80725 0.06918 0.77616 0.0
H2446 H 0.79579 0.11364 0.82469 0.0
C2447 C 0.78287 0.05615 0.77658 0.0
H2448 H 0.83039 0.09982 0.79461 0.0
C2449 C 0.76296 0.06437 0.79352 0.0
C2450 C 0.76713 0.08547 0.81069 0.0
H2451 H 0.7786 0.04047 0.76287 0.0
H2452 H 0.74414 0.05453 0.79287 0.0
C2453 C 0.79204 0.09732 0.8116 0.0
C2454 C 0.93128 0.78171 0.77692 0.0
C2455 C 0.91973 0.80686 0.77731 0.0
H2456 H 0.93111 0.74261 0.79246 0.0
C2457 C 0.90009 0.81217 0.79594 0.0
H2458 H 0.94646 0.77684 0.76285 0.0
C2459 C 0.89143 0.79243 0.81293 0.0
C2460 C 0.90198 0.76695 0.8114 0.0
H2461 H 0.89066 0.83122 0.79666 0.0
H2462 H 0.87576 0.79678 0.82662 0.0
C2463 C 0.9223 0.76192 0.79359 0.0
C2464 C 0.17227 0.19685 0.11502 0.0
C2465 C 0.17454 0.21884 0.09858 0.0
H2466 H 0.1827 0.15655 0.1212 0.0
C2467 C 0.18612 0.21606 0.07375 0.0
H2468 H 0.16327 0.19865 0.1342 0.0
C2469 C 0.1962 0.19177 0.06587 0.0
C2470 C 0.19526 0.17018 0.08298 0.0
H2471 H 0.18764 0.23275 0.06067 0.0
H2472 H 0.20635 0.19036 0.04723 0.0
C2473 C 0.18294 0.17279 0.10745 0.0
C2474 C 0.1941 0.81738 0.88389 0.0
C2475 C 0.20199 0.82032 0.91011 0.0
H2476 H 0.17644 0.79219 0.85519 0.0
C2477 C 0.19734 0.79993 0.92805 0.0
H2478 H 0.19791 0.83272 0.86965 0.0
C2479 C 0.18595 0.77643 0.91953 0.0
C2480 C 0.17866 0.77332 0.89313 0.0
H2481 H 0.20384 0.8016 0.94823 0.0
H2482 H 0.1829 0.76065 0.93346 0.0
C2483 C 0.18216 0.79421 0.87556 0.0
C2484 C 0.20501 0.18715 0.88294 0.0
C2485 C 0.23042 0.18718 0.89377 0.0
H2486 H 0.1672 0.20552 0.88174 0.0
C2487 C 0.23631 0.20525 0.91372 0.0
H2488 H 0.1999 0.17345 0.86752 0.0
C2489 C 0.2175 0.22339 0.92213 0.0
C2490 C 0.1924 0.22414 0.91057 0.0
H2491 H 0.25552 0.20539 0.9228 0.0
H2492 H 0.22302 0.2374 0.93714 0.0
C2493 C 0.18625 0.2055 0.89115 0.0
C2494 C 0.79491 0.18493 0.92522 0.0
C2495 C 0.79029 0.16501 0.90671 0.0
H2496 H 0.81206 0.22279 0.93247 0.0
C2497 C 0.80098 0.16732 0.88141 0.0
H2498 H 0.78643 0.1838 0.94469 0.0
C2499 C 0.81583 0.18935 0.87463 0.0
C2500 C 0.81943 0.20979 0.89274 0.0
H2501 H 0.79737 0.15234 0.86674 0.0
H2502 H 0.82378 0.19092 0.85498 0.0
C2503 C 0.80912 0.20734 0.91816 0.0
C2504 C 0.80696 0.81598 0.87874 0.0
C2505 C 0.78584 0.81723 0.89637 0.0
H2506 H 0.84589 0.80169 0.8717 0.0
C2507 C 0.78902 0.80769 0.92202 0.0
H2508 H 0.80487 0.82341 0.85893 0.0
C2509 C 0.81277 0.79622 0.92965 0.0
C2510 C 0.83338 0.79372 0.91152 0.0
H2511 H 0.77305 0.80892 0.936 0.0
H2512 H 0.81442 0.78786 0.94913 0.0
C2513 C 0.83041 0.80393 0.88612 0.0
C2514 C 0.8208 0.78978 0.07989 0.0
C2515 C 0.83111 0.78727 0.10532 0.0
H2516 H 0.7987 0.81373 0.05321 0.0
C2517 C 0.82853 0.80816 0.12308 0.0
H2518 H 0.82295 0.77398 0.06583 0.0
C2519 C 0.81449 0.83065 0.11605 0.0
C2520 C 0.80364 0.83296 0.09082 0.0
H2521 H 0.8365 0.80656 0.14272 0.0
H2522 H 0.81141 0.84591 0.13056 0.0
C2523 C 0.80741 0.81263 0.07258 0.0
C2524 C 0.2219 0.78785 0.07069 0.0
C2525 C 0.19532 0.78789 0.07814 0.0
H2526 H 0.26053 0.80262 0.07815 0.0
C2527 C 0.18702 0.80586 0.09746 0.0
H2528 H 0.22909 0.77439 0.05589 0.0
C2529 C 0.20521 0.8221 0.11025 0.0
C2530 C 0.23203 0.82039 0.10417 0.0
H2531 H 0.16666 0.80663 0.10343 0.0
H2532 H 0.19856 0.83505 0.12575 0.0
C2533 C 0.24005 0.80375 0.0837 0.0
C2534 C 0.7865 0.19964 0.09923 0.0
C2535 C 0.78688 0.17592 0.1132 0.0
H2536 H 0.80886 0.23009 0.08112 0.0
C2537 C 0.81123 0.16384 0.11833 0.0
H2538 H 0.76811 0.2091 0.09439 0.0
C2539 C 0.83475 0.17592 0.11065 0.0
C2540 C 0.83426 0.20023 0.09767 0.0
H2541 H 0.81212 0.14553 0.12908 0.0
H2542 H 0.85325 0.16687 0.11593 0.0
C2543 C 0.80988 0.21154 0.09143 0.0
C2544 C 0.60892 0.67063 0.66951 0.0
C2545 C 0.594 0.69377 0.67011 0.0
H2546 H 0.62948 0.64164 0.69205 0.0
C2547 C 0.58631 0.70415 0.69449 0.0
H2548 H 0.61541 0.66242 0.651 0.0
C2549 C 0.59455 0.69257 0.71784 0.0
C2550 C 0.61054 0.67017 0.7174 0.0
H2551 H 0.57463 0.72186 0.69553 0.0
H2552 H 0.58855 0.70131 0.73626 0.0
C2553 C 0.61713 0.65891 0.693 0.0
C2554 C 0.3176 0.57073 0.7174 0.0
C2555 C 0.3235 0.59742 0.72111 0.0
H2556 H 0.30132 0.54155 0.69173 0.0
C2557 C 0.31864 0.61521 0.70063 0.0
H2558 H 0.32153 0.55662 0.7328 0.0
C2559 C 0.30696 0.60671 0.67732 0.0
C2560 C 0.30069 0.58009 0.67372 0.0
H2561 H 0.32314 0.63585 0.70306 0.0
H2562 H 0.30212 0.62105 0.66236 0.0
C2563 C 0.30656 0.56207 0.69376 0.0
C2564 C 0.34217 0.271 0.70774 0.0
C2565 C 0.36017 0.27155 0.6868 0.0
H2566 H 0.32989 0.28821 0.74403 0.0
C2567 C 0.38037 0.29029 0.68702 0.0
H2568 H 0.32646 0.25668 0.70829 0.0
C2569 C 0.38248 0.30812 0.70773 0.0
C2570 C 0.36447 0.30756 0.72864 0.0
H2571 H 0.39464 0.29114 0.67127 0.0
H2572 H 0.39817 0.32245 0.70738 0.0
C2573 C 0.34436 0.28875 0.72849 0.0
C2574 C 0.69493 0.38704 0.67665 0.0
C2575 C 0.71254 0.40789 0.68117 0.0
H2576 H 0.6648 0.36231 0.69297 0.0
C2577 C 0.71103 0.42154 0.70515 0.0
H2578 H 0.69558 0.37607 0.65845 0.0
C2579 C 0.69403 0.41323 0.72492 0.0
C2580 C 0.67766 0.39148 0.72102 0.0
H2581 H 0.72405 0.43782 0.70934 0.0
H2582 H 0.69408 0.42344 0.74356 0.0
C2583 C 0.67745 0.37905 0.69639 0.0
C2584 C 0.60157 0.32346 0.32733 0.0
C2585 C 0.59227 0.29758 0.32731 0.0
H2586 H 0.61663 0.35517 0.30434 0.0
C2587 C 0.58872 0.28454 0.30325 0.0
H2588 H 0.60476 0.3338 0.34563 0.0
C2589 C 0.59541 0.29662 0.27969 0.0
C2590 C 0.60588 0.32207 0.27959 0.0
H2591 H 0.58134 0.26463 0.30264 0.0
H2592 H 0.59259 0.28588 0.26159 0.0
C2593 C 0.60843 0.33559 0.30364 0.0
C2594 C 0.7068 0.60453 0.31512 0.0
C2595 C 0.72707 0.58637 0.31057 0.0
H2596 H 0.67459 0.62607 0.29865 0.0
C2597 C 0.72894 0.57451 0.28564 0.0
H2598 H 0.70488 0.61416 0.33398 0.0
C2599 C 0.712 0.58174 0.26536 0.0
C2600 C 0.69245 0.6006 0.2696 0.0
H2601 H 0.74425 0.56039 0.28135 0.0
H2602 H 0.71432 0.57273 0.24625 0.0
C2603 C 0.68954 0.61144 0.29486 0.0
C2604 C 0.35459 0.71317 0.30174 0.0
C2605 C 0.37657 0.71553 0.3183 0.0
H2606 H 0.33979 0.70045 0.26454 0.0
C2607 C 0.40129 0.70769 0.30896 0.0
H2608 H 0.33531 0.71948 0.30812 0.0
C2609 C 0.4037 0.69668 0.28387 0.0
C2610 C 0.38164 0.69428 0.2675 0.0
H2611 H 0.41856 0.70956 0.32122 0.0
H2612 H 0.42261 0.68945 0.27737 0.0
C2613 C 0.35716 0.7029 0.27654 0.0
C2614 C 0.30319 0.44095 0.30586 0.0
C2615 C 0.29914 0.4244 0.32751 0.0
H2616 H 0.31719 0.44389 0.2662 0.0
C2617 C 0.3089 0.39861 0.32681 0.0
H2618 H 0.2953 0.46071 0.30573 0.0
C2619 C 0.32153 0.38914 0.3044 0.0
C2620 C 0.32381 0.40505 0.28208 0.0
H2621 H 0.3055 0.38536 0.34309 0.0
H2622 H 0.32815 0.36893 0.3039 0.0
C2623 C 0.3152 0.43123 0.28316 0.0
C2624 C 0.71211 0.55826 0.7303 0.0
C2625 C 0.68698 0.56977 0.72936 0.0
H2626 H 0.75102 0.55723 0.71433 0.0
C2627 C 0.68151 0.58796 0.70935 0.0
H2628 H 0.71709 0.54418 0.74543 0.0
C2629 C 0.70107 0.59548 0.69162 0.0
C2630 C 0.7266 0.58508 0.69355 0.0
H2631 H 0.66246 0.59733 0.70808 0.0
H2632 H 0.6965 0.61033 0.67713 0.0
C2633 C 0.73172 0.56596 0.7127 0.0
C2634 C 0.39401 0.70721 0.72699 0.0
C2635 C 0.4111 0.68791 0.71684 0.0
H2636 H 0.37518 0.74442 0.72089 0.0
C2637 C 0.42431 0.69301 0.69326 0.0
H2638 H 0.3839 0.70423 0.7454 0.0
C2639 C 0.41945 0.71622 0.67948 0.0
C2640 C 0.40146 0.73489 0.689 0.0
H2641 H 0.43787 0.67881 0.68509 0.0
H2642 H 0.42923 0.71928 0.66095 0.0
C2643 C 0.3893 0.7305 0.71324 0.0
C2644 C 0.3244 0.37564 0.67961 0.0
C2645 C 0.32658 0.40254 0.68543 0.0
H2646 H 0.30028 0.34504 0.66332 0.0
C2647 C 0.30596 0.41951 0.67865 0.0
H2648 H 0.33984 0.36212 0.68523 0.0
C2649 C 0.28302 0.40954 0.66733 0.0
C2650 C 0.28069 0.38262 0.66196 0.0
H2651 H 0.30689 0.44018 0.68363 0.0
H2652 H 0.2669 0.42272 0.66308 0.0
C2653 C 0.3018 0.36585 0.66745 0.0
C2654 C 0.60499 0.29897 0.68156 0.0
C2655 C 0.59243 0.27444 0.68142 0.0
H2656 H 0.60676 0.33729 0.69891 0.0
C2657 C 0.56916 0.27115 0.69567 0.0
H2658 H 0.62284 0.3019 0.6704 0.0
C2659 C 0.55953 0.29142 0.71133 0.0
C2660 C 0.57338 0.31523 0.71361 0.0
H2661 H 0.55882 0.25257 0.69524 0.0
H2662 H 0.54216 0.28766 0.72299 0.0
C2663 C 0.59564 0.31921 0.69771 0.0
C2664 C 0.72125 0.42511 0.29414 0.0
C2665 C 0.7165 0.40317 0.31008 0.0
H2666 H 0.70704 0.4503 0.26387 0.0
C2667 C 0.69153 0.39154 0.30979 0.0
H2668 H 0.74023 0.43468 0.29444 0.0
C2669 C 0.67239 0.40029 0.29202 0.0
C2670 C 0.6779 0.42104 0.27453 0.0
H2671 H 0.68746 0.37465 0.32205 0.0
H2672 H 0.65396 0.38977 0.29089 0.0
C2673 C 0.7021 0.43414 0.27678 0.0
C2674 C 0.60818 0.66478 0.32013 0.0
C2675 C 0.59795 0.66617 0.29464 0.0
H2676 H 0.62317 0.68626 0.35299 0.0
C2677 C 0.59265 0.69088 0.28359 0.0
H2678 H 0.61272 0.64597 0.32895 0.0
C2679 C 0.59858 0.71384 0.29718 0.0
C2680 C 0.60999 0.71267 0.32219 0.0
H2681 H 0.5845 0.6925 0.26403 0.0
H2682 H 0.59442 0.73251 0.28793 0.0
C2683 C 0.61425 0.68788 0.33379 0.0
C2684 C 0.29939 0.64566 0.30902 0.0
C2685 C 0.29034 0.6317 0.33095 0.0
H2686 H 0.32738 0.64796 0.2779 0.0
C2687 C 0.30429 0.60932 0.33921 0.0
H2688 H 0.28936 0.66326 0.30259 0.0
C2689 C 0.32595 0.60021 0.32483 0.0
C2690 C 0.33415 0.61348 0.30207 0.0
H2691 H 0.2977 0.59818 0.35607 0.0
H2692 H 0.33552 0.58221 0.33089 0.0
C2693 C 0.32118 0.63684 0.29494 0.0
C2694 C 0.39557 0.31614 0.29104 0.0
C2695 C 0.41452 0.31065 0.27174 0.0
H2696 H 0.3722 0.30119 0.32261 0.0
C2697 C 0.42597 0.28548 0.2712 0.0
H2698 H 0.38623 0.33521 0.29199 0.0
C2699 C 0.41769 0.2659 0.28856 0.0
C2700 C 0.39798 0.27107 0.30709 0.0
H2701 H 0.44065 0.28049 0.25665 0.0
H2702 H 0.42658 0.24663 0.28734 0.0
C2703 C 0.38745 0.29658 0.30855 0.0
C2704 C 0.70194 0.67609 0.62585 0.0
C2705 C 0.70079 0.66513 0.6005 0.0
H2706 H 0.69223 0.70872 0.65063 0.0
C2707 C 0.68694 0.67857 0.5808 0.0
H2708 H 0.71168 0.66582 0.6417 0.0
C2709 C 0.67538 0.70293 0.58619 0.0
C2710 C 0.67797 0.71442 0.61113 0.0
H2711 H 0.68574 0.67073 0.56108 0.0
H2712 H 0.66473 0.71307 0.57084 0.0
C2713 C 0.69102 0.70066 0.631 0.0
C2714 C 0.70101 0.27423 0.42119 0.0
C2715 C 0.68346 0.2775 0.4003 0.0
H2716 H 0.73124 0.29122 0.44458 0.0
C2717 C 0.68153 0.30224 0.38815 0.0
H2718 H 0.7024 0.25557 0.43127 0.0
C2719 C 0.69819 0.32282 0.3956 0.0
C2720 C 0.71684 0.31908 0.41559 0.0
H2721 H 0.668 0.30527 0.37204 0.0
H2722 H 0.69737 0.34112 0.38481 0.0
C2723 C 0.71729 0.29485 0.42896 0.0
C2724 C 0.72643 0.7018 0.42493 0.0
C2725 C 0.72233 0.6863 0.40253 0.0
H2726 H 0.71041 0.72967 0.45179 0.0
C2727 C 0.69699 0.68466 0.39184 0.0
H2728 H 0.74565 0.70281 0.43395 0.0
C2729 C 0.67664 0.70014 0.402 0.0
C2730 C 0.68128 0.71729 0.42321 0.0
H2731 H 0.69336 0.67261 0.3747 0.0
H2732 H 0.65777 0.69985 0.39222 0.0
C2733 C 0.70609 0.71693 0.43532 0.0
C2734 C 0.31465 0.71231 0.41257 0.0
C2735 C 0.30947 0.73905 0.41744 0.0
H2736 H 0.3015 0.6726 0.41633 0.0
C2737 C 0.28784 0.74575 0.43308 0.0
H2738 H 0.33103 0.70637 0.40044 0.0
C2739 C 0.27106 0.72618 0.44261 0.0
C2740 C 0.27535 0.69958 0.43622 0.0
H2741 H 0.2836 0.76613 0.4374 0.0
H2742 H 0.25381 0.73212 0.45353 0.0
C2743 C 0.29776 0.69284 0.42176 0.0
C2744 C 0.30403 0.34098 0.38939 0.0
C2745 C 0.2793 0.32856 0.38722 0.0
H2746 H 0.34536 0.3365 0.39631 0.0
C2747 C 0.27769 0.30151 0.39206 0.0
H2748 H 0.30635 0.36172 0.38567 0.0
C2749 C 0.3002 0.28715 0.39802 0.0
C2750 C 0.32492 0.29943 0.39932 0.0
H2751 H 0.25907 0.29134 0.39116 0.0
H2752 H 0.2982 0.26628 0.40147 0.0
C2753 C 0.32657 0.32657 0.39551 0.0
C2754 C 0.28449 0.24968 0.56637 0.0
C2755 C 0.30188 0.25453 0.5872 0.0
H2756 H 0.25482 0.26533 0.54102 0.0
C2757 C 0.30377 0.28025 0.59718 0.0
H2758 H 0.2829 0.23025 0.55792 0.0
C2759 C 0.28824 0.3004 0.58719 0.0
C2760 C 0.27 0.29541 0.56717 0.0
H2761 H 0.31667 0.28477 0.61343 0.0
H2762 H 0.28975 0.31966 0.59604 0.0
C2763 C 0.26873 0.26994 0.55641 0.0
C2764 C 0.69114 0.30852 0.60875 0.0
C2765 C 0.71614 0.30684 0.59726 0.0
H2766 H 0.6522 0.29265 0.6104 0.0
C2767 C 0.71991 0.29021 0.57566 0.0
H2768 H 0.6878 0.3214 0.62533 0.0
C2769 C 0.69956 0.27427 0.56671 0.0
C2770 C 0.6751 0.27419 0.57955 0.0
H2771 H 0.73885 0.2891 0.56609 0.0
H2772 H 0.70359 0.26088 0.55069 0.0
C2773 C 0.67078 0.29218 0.60008 0.0
C2774 C 0.28732 0.67855 0.61015 0.0
C2775 C 0.26672 0.6803 0.62847 0.0
H2776 H 0.32365 0.69482 0.59637 0.0
C2777 C 0.26756 0.69987 0.64775 0.0
H2778 H 0.28709 0.66351 0.59512 0.0
C2779 C 0.28857 0.71733 0.64882 0.0
C2780 C 0.30909 0.71588 0.63036 0.0
H2781 H 0.25225 0.70129 0.66243 0.0
H2782 H 0.28843 0.73225 0.66397 0.0
C2783 C 0.30825 0.69632 0.61096 0.0
loop_
_geom_bond_atom_site_label_1
_geom_bond_atom_site_label_2
_geom_bond_distance
_geom_bond_site_symmetry_2
_ccdc_geom_bond_type
C0 C1 1.351 . S
C0 N3 1.368 . S
C0 H5 0.931 . S
C1 C0 1.351 . S
C1 N2 1.373 . S
C1 H29 0.930 . S
N2 C1 1.373 . S
N2 C4 1.340 . S
N3 C0 1.368 . S
N3 C4 1.321 . S
N3 Co6 2.135 . S
C4 N2 1.340 . S
C4 N3 1.321 . S
C4 H28 0.930 . S
H5 C0 0.931 . S
Co6 N3 2.135 . S
Co6 N9 2.121 . S
Co6 O14 2.055 . S
Co6 O17 2.039 . S
Co6 N20 2.140 . S
C7 O8 1.227 . S
C7 O17 1.265 . S
O8 C7 1.227 . S
N9 Co6 2.121 . S
N9 C11 1.375 . S
N9 C12 1.313 . S
C10 C11 1.338 . S
C10 N13 1.377 . S
C10 H30 0.930 . S
C11 N9 1.375 . S
C11 C10 1.338 . S
C11 H15 0.931 . S
C12 N9 1.313 . S
C12 N13 1.344 . S
C12 H16 0.930 . S
N13 C10 1.377 . S
N13 C12 1.344 . S
O14 Co6 2.055 . S
O14 C18 1.253 . S
H15 C11 0.931 . S
H16 C12 0.930 . S
O17 Co6 2.039 . S
O17 C7 1.265 . S
C18 O14 1.253 . S
C18 O19 1.227 . S
O19 C18 1.227 . S
N20 Co6 2.140 . S
N20 C23 1.346 . S
N20 C24 1.345 . S
C21 C22 1.387 . S
C21 C25 1.391 . S
C22 C21 1.387 . S
C22 C23 1.369 . S
C22 H31 0.929 . S
C23 N20 1.346 . S
C23 C22 1.369 . S
C23 H26 0.928 . S
C24 N20 1.345 . S
C24 C25 1.371 . S
C24 H27 0.931 . S
C25 C21 1.391 . S
C25 C24 1.371 . S
C25 H32 0.930 . S
H26 C23 0.928 . S
H27 C24 0.931 . S
H28 C4 0.930 . S
H29 C1 0.930 . S
H30 C10 0.930 . S
H31 C22 0.929 . S
H32 C25 0.930 . S
C33 C34 1.351 . S
C33 N36 1.368 . S
C33 H38 0.931 . S
C34 C33 1.351 . S
C34 N35 1.373 . S
C34 H62 0.930 . S
N35 C34 1.373 . S
N35 C37 1.340 . S
N36 C33 1.368 . S
N36 C37 1.321 . S
N36 Co39 2.135 . S
C37 N35 1.340 . S
C37 N36 1.321 . S
C37 H61 0.930 . S
H38 C33 0.931 . S
Co39 N36 2.135 . S
Co39 N42 2.121 . S
Co39 O47 2.055 . S
Co39 O50 2.039 . S
Co39 N53 2.140 . S
C40 O41 1.227 . S
C40 O50 1.265 . S
O41 C40 1.227 . S
N42 Co39 2.121 . S
N42 C44 1.375 . S
N42 C45 1.313 . S
C43 C44 1.338 . S
C43 N46 1.377 . S
C43 H63 0.930 . S
C44 N42 1.375 . S
C44 C43 1.338 . S
C44 H48 0.931 . S
C45 N42 1.313 . S
C45 N46 1.344 . S
C45 H49 0.930 . S
N46 C43 1.377 . S
N46 C45 1.344 . S
O47 Co39 2.055 . S
O47 C51 1.253 . S
H48 C44 0.931 . S
H49 C45 0.930 . S
O50 Co39 2.039 . S
O50 C40 1.265 . S
C51 O47 1.253 . S
C51 O52 1.227 . S
O52 C51 1.227 . S
N53 Co39 2.140 . S
N53 C56 1.346 . S
N53 C57 1.345 . S
C54 C55 1.387 . S
C54 C58 1.391 . S
C55 C54 1.387 . S
C55 C56 1.369 . S
C55 H64 0.929 . S
C56 N53 1.346 . S
C56 C55 1.369 . S
C56 H59 0.928 . S
C57 N53 1.345 . S
C57 C58 1.371 . S
C57 H60 0.931 . S
C58 C54 1.391 . S
C58 C57 1.371 . S
C58 H65 0.930 . S
H59 C56 0.928 . S
H60 C57 0.931 . S
H61 C37 0.930 . S
H62 C34 0.930 . S
H63 C43 0.930 . S
H64 C55 0.929 . S
H65 C58 0.930 . S
C66 C67 1.351 . S
C66 N69 1.368 . S
C66 H71 0.931 . S
C67 C66 1.351 . S
C67 N68 1.373 . S
C67 H95 0.930 . S
N68 C67 1.373 . S
N68 C70 1.340 . S
N69 C66 1.368 . S
N69 C70 1.321 . S
N69 Co72 2.135 . S
C70 N68 1.340 . S
C70 N69 1.321 . S
C70 H94 0.930 . S
H71 C66 0.931 . S
Co72 N69 2.135 . S
Co72 N75 2.121 . S
Co72 O80 2.055 . S
Co72 O83 2.039 . S
Co72 N86 2.140 . S
C73 O74 1.227 . S
C73 O83 1.265 . S
O74 C73 1.227 . S
N75 Co72 2.121 . S
N75 C77 1.375 . S
N75 C78 1.313 . S
C76 C77 1.338 . S
C76 N79 1.377 . S
C76 H96 0.930 . S
C77 N75 1.375 . S
C77 C76 1.338 . S
C77 H81 0.931 . S
C78 N75 1.313 . S
C78 N79 1.344 . S
C78 H82 0.930 . S
N79 C76 1.377 . S
N79 C78 1.344 . S
O80 Co72 2.055 . S
O80 C84 1.253 . S
H81 C77 0.931 . S
H82 C78 0.930 . S
O83 Co72 2.039 . S
O83 C73 1.265 . S
C84 O80 1.253 . S
C84 O85 1.227 . S
O85 C84 1.227 . S
N86 Co72 2.140 . S
N86 C89 1.346 . S
N86 C90 1.345 . S
C87 C88 1.387 . S
C87 C91 1.391 . S
C88 C87 1.387 . S
C88 C89 1.369 . S
C88 H97 0.929 . S
C89 N86 1.346 . S
C89 C88 1.369 . S
C89 H92 0.928 . S
C90 N86 1.345 . S
C90 C91 1.371 . S
C90 H93 0.931 . S
C91 C87 1.391 . S
C91 C90 1.371 . S
C91 H98 0.930 . S
H92 C89 0.928 . S
H93 C90 0.931 . S
H94 C70 0.930 . S
H95 C67 0.930 . S
H96 C76 0.930 . S
H97 C88 0.929 . S
H98 C91 0.930 . S
C99 C100 1.351 . S
C99 N102 1.368 . S
C99 H104 0.931 . S
C100 C99 1.351 . S
C100 N101 1.373 . S
C100 H128 0.930 . S
N101 C100 1.373 . S
N101 C103 1.340 . S
N102 C99 1.368 . S
N102 C103 1.321 . S
N102 Co105 2.135 . S
C103 N101 1.340 . S
C103 N102 1.321 . S
C103 H127 0.930 . S
H104 C99 0.931 . S
Co105 N102 2.135 . S
Co105 N108 2.121 . S
Co105 O113 2.055 . S
Co105 O116 2.039 . S
Co105 N119 2.140 . S
C106 O107 1.227 . S
C106 O116 1.265 . S
O107 C106 1.227 . S
N108 Co105 2.121 . S
N108 C110 1.375 . S
N108 C111 1.313 . S
C109 C110 1.338 . S
C109 N112 1.377 . S
C109 H129 0.930 . S
C110 N108 1.375 . S
C110 C109 1.338 . S
C110 H114 0.931 . S
C111 N108 1.313 . S
C111 N112 1.344 . S
C111 H115 0.930 . S
N112 C109 1.377 . S
N112 C111 1.344 . S
O113 Co105 2.055 . S
O113 C117 1.253 . S
H114 C110 0.931 . S
H115 C111 0.930 . S
O116 Co105 2.039 . S
O116 C106 1.265 . S
C117 O113 1.253 . S
C117 O118 1.227 . S
O118 C117 1.227 . S
N119 Co105 2.140 . S
N119 C122 1.346 . S
N119 C123 1.345 . S
C120 C121 1.387 . S
C120 C124 1.391 . S
C121 C120 1.387 . S
C121 C122 1.369 . S
C121 H130 0.929 . S
C122 N119 1.346 . S
C122 C121 1.369 . S
C122 H125 0.928 . S
C123 N119 1.345 . S
C123 C124 1.371 . S
C123 H126 0.931 . S
C124 C120 1.391 . S
C124 C123 1.371 . S
C124 H131 0.930 . S
H125 C122 0.928 . S
H126 C123 0.931 . S
H127 C103 0.930 . S
H128 C100 0.930 . S
H129 C109 0.930 . S
H130 C121 0.929 . S
H131 C124 0.930 . S
C132 C133 1.351 . S
C132 N135 1.368 . S
C132 H137 0.931 . S
C133 C132 1.351 . S
C133 N134 1.373 . S
C133 H161 0.930 . S
N134 C133 1.373 . S
N134 C136 1.340 . S
N135 C132 1.368 . S
N135 C136 1.321 . S
N135 Co138 2.135 . S
C136 N134 1.340 . S
C136 N135 1.321 . S
C136 H160 0.930 . S
H137 C132 0.931 . S
Co138 N135 2.135 . S
Co138 N141 2.121 . S
Co138 O146 2.055 . S
Co138 O149 2.039 . S
Co138 N152 2.140 . S
C139 O140 1.227 . S
C139 O149 1.265 . S
O140 C139 1.227 . S
N141 Co138 2.121 . S
N141 C143 1.375 . S
N141 C144 1.313 . S
C142 C143 1.338 . S
C142 N145 1.377 . S
C142 H162 0.930 . S
C143 N141 1.375 . S
C143 C142 1.338 . S
C143 H147 0.931 . S
C144 N141 1.313 . S
C144 N145 1.344 . S
C144 H148 0.930 . S
N145 C142 1.377 . S
N145 C144 1.344 . S
O146 Co138 2.055 . S
O146 C150 1.253 . S
H147 C143 0.931 . S
H148 C144 0.930 . S
O149 Co138 2.039 . S
O149 C139 1.265 . S
C150 O146 1.253 . S
C150 O151 1.227 . S
O151 C150 1.227 . S
N152 Co138 2.140 . S
N152 C155 1.346 . S
N152 C156 1.345 . S
C153 C154 1.387 . S
C153 C157 1.391 . S
C154 C153 1.387 . S
C154 C155 1.369 . S
C154 H163 0.929 . S
C155 N152 1.346 . S
C155 C154 1.369 . S
C155 H158 0.928 . S
C156 N152 1.345 . S
C156 C157 1.371 . S
C156 H159 0.931 . S
C157 C153 1.391 . S
C157 C156 1.371 . S
C157 H164 0.930 . S
H158 C155 0.928 . S
H159 C156 0.931 . S
H160 C136 0.930 . S
H161 C133 0.930 . S
H162 C142 0.930 . S
H163 C154 0.929 . S
H164 C157 0.930 . S
C165 C166 1.351 . S
C165 N168 1.368 . S
C165 H170 0.931 . S
C166 C165 1.351 . S
C166 N167 1.373 . S
C166 H194 0.930 . S
N167 C166 1.373 . S
N167 C169 1.340 . S
N168 C165 1.368 . S
N168 C169 1.321 . S
N168 Co171 2.135 . S
C169 N167 1.340 . S
C169 N168 1.321 . S
C169 H193 0.930 . S
H170 C165 0.931 . S
Co171 N168 2.135 . S
Co171 N174 2.121 . S
Co171 O179 2.055 . S
Co171 O182 2.039 . S
Co171 N185 2.140 . S
C172 O173 1.227 . S
C172 O182 1.265 . S
O173 C172 1.227 . S
N174 Co171 2.121 . S
N174 C176 1.375 . S
N174 C177 1.313 . S
C175 C176 1.338 . S
C175 N178 1.377 . S
C175 H195 0.930 . S
C176 N174 1.375 . S
C176 C175 1.338 . S
C176 H180 0.931 . S
C177 N174 1.313 . S
C177 N178 1.344 . S
C177 H181 0.930 . S
N178 C175 1.377 . S
N178 C177 1.344 . S
O179 Co171 2.055 . S
O179 C183 1.253 . S
H180 C176 0.931 . S
H181 C177 0.930 . S
O182 Co171 2.039 . S
O182 C172 1.265 . S
C183 O179 1.253 . S
C183 O184 1.227 . S
O184 C183 1.227 . S
N185 Co171 2.140 . S
N185 C188 1.346 . S
N185 C189 1.345 . S
C186 C187 1.387 . S
C186 C190 1.391 . S
C187 C186 1.387 . S
C187 C188 1.369 . S
C187 H196 0.929 . S
C188 N185 1.346 . S
C188 C187 1.369 . S
C188 H191 0.928 . S
C189 N185 1.345 . S
C189 C190 1.371 . S
C189 H192 0.931 . S
C190 C186 1.391 . S
C190 C189 1.371 . S
C190 H197 0.930 . S
H191 C188 0.928 . S
H192 C189 0.931 . S
H193 C169 0.930 . S
H194 C166 0.930 . S
H195 C175 0.930 . S
H196 C187 0.929 . S
H197 C190 0.930 . S
C198 C199 1.351 . S
C198 N201 1.368 . S
C198 H203 0.931 . S
C199 C198 1.351 . S
C199 N200 1.373 . S
C199 H227 0.930 . S
N200 C199 1.373 . S
N200 C202 1.340 . S
N201 C198 1.368 . S
N201 C202 1.321 . S
N201 Co204 2.135 . S
C202 N200 1.340 . S
C202 N201 1.321 . S
C202 H226 0.930 . S
H203 C198 0.931 . S
Co204 N201 2.135 . S
Co204 N207 2.121 . S
Co204 O212 2.055 . S
Co204 O215 2.039 . S
Co204 N218 2.140 . S
C205 O206 1.227 . S
C205 O215 1.265 . S
O206 C205 1.227 . S
N207 Co204 2.121 . S
N207 C209 1.375 . S
N207 C210 1.313 . S
C208 C209 1.338 . S
C208 N211 1.377 . S
C208 H228 0.930 . S
C209 N207 1.375 . S
C209 C208 1.338 . S
C209 H213 0.931 . S
C210 N207 1.313 . S
C210 N211 1.344 . S
C210 H214 0.930 . S
N211 C208 1.377 . S
N211 C210 1.344 . S
O212 Co204 2.055 . S
O212 C216 1.253 . S
H213 C209 0.931 . S
H214 C210 0.930 . S
O215 Co204 2.039 . S
O215 C205 1.265 . S
C216 O212 1.253 . S
C216 O217 1.227 . S
O217 C216 1.227 . S
N218 Co204 2.140 . S
N218 C221 1.346 . S
N218 C222 1.345 . S
C219 C220 1.387 . S
C219 C223 1.391 . S
C220 C219 1.387 . S
C220 C221 1.369 . S
C220 H229 0.929 . S
C221 N218 1.346 . S
C221 C220 1.369 . S
C221 H224 0.928 . S
C222 N218 1.345 . S
C222 C223 1.371 . S
C222 H225 0.931 . S
C223 C219 1.391 . S
C223 C222 1.371 . S
C223 H230 0.930 . S
H224 C221 0.928 . S
H225 C222 0.931 . S
H226 C202 0.930 . S
H227 C199 0.930 . S
H228 C208 0.930 . S
H229 C220 0.929 . S
H230 C223 0.930 . S
C231 C232 1.351 . S
C231 N234 1.368 . S
C231 H236 0.931 . S
C232 C231 1.351 . S
C232 N233 1.373 . S
C232 H260 0.930 . S
N233 C232 1.373 . S
N233 C235 1.340 . S
N234 C231 1.368 . S
N234 C235 1.321 . S
N234 Co237 2.135 . S
C235 N233 1.340 . S
C235 N234 1.321 . S
C235 H259 0.930 . S
H236 C231 0.931 . S
Co237 N234 2.135 . S
Co237 N240 2.121 . S
Co237 O245 2.055 . S
Co237 O248 2.039 . S
Co237 N251 2.140 . S
C238 O239 1.227 . S
C238 O248 1.265 . S
O239 C238 1.227 . S
N240 Co237 2.121 . S
N240 C242 1.375 . S
N240 C243 1.313 . S
C241 C242 1.338 . S
C241 N244 1.377 . S
C241 H261 0.930 . S
C242 N240 1.375 . S
C242 C241 1.338 . S
C242 H246 0.931 . S
C243 N240 1.313 . S
C243 N244 1.344 . S
C243 H247 0.930 . S
N244 C241 1.377 . S
N244 C243 1.344 . S
O245 Co237 2.055 . S
O245 C249 1.253 . S
H246 C242 0.931 . S
H247 C243 0.930 . S
O248 Co237 2.039 . S
O248 C238 1.265 . S
C249 O245 1.253 . S
C249 O250 1.227 . S
O250 C249 1.227 . S
N251 Co237 2.140 . S
N251 C254 1.346 . S
N251 C255 1.345 . S
C252 C253 1.387 . S
C252 C256 1.391 . S
C253 C252 1.387 . S
C253 C254 1.369 . S
C253 H262 0.929 . S
C254 N251 1.346 . S
C254 C253 1.369 . S
C254 H257 0.928 . S
C255 N251 1.345 . S
C255 C256 1.371 . S
C255 H258 0.931 . S
C256 C252 1.391 . S
C256 C255 1.371 . S
C256 H263 0.930 . S
H257 C254 0.928 . S
H258 C255 0.931 . S
H259 C235 0.930 . S
H260 C232 0.930 . S
H261 C241 0.930 . S
H262 C253 0.929 . S
H263 C256 0.930 . S
C264 C265 1.351 . S
C264 N267 1.368 . S
C264 H269 0.931 . S
C265 C264 1.351 . S
C265 N266 1.373 . S
C265 H293 0.930 . S
N266 C265 1.373 . S
N266 C268 1.340 . S
N267 C264 1.368 . S
N267 C268 1.321 . S
N267 Co270 2.135 . S
C268 N266 1.340 . S
C268 N267 1.321 . S
C268 H292 0.930 . S
H269 C264 0.931 . S
Co270 N267 2.135 . S
Co270 N273 2.121 . S
Co270 O278 2.055 . S
Co270 O281 2.039 . S
Co270 N284 2.140 . S
C271 O272 1.227 . S
C271 O281 1.265 . S
O272 C271 1.227 . S
N273 Co270 2.121 . S
N273 C275 1.375 . S
N273 C276 1.313 . S
C274 C275 1.338 . S
C274 N277 1.377 . S
C274 H294 0.930 . S
C275 N273 1.375 . S
C275 C274 1.338 . S
C275 H279 0.931 . S
C276 N273 1.313 . S
C276 N277 1.344 . S
C276 H280 0.930 . S
N277 C274 1.377 . S
N277 C276 1.344 . S
O278 Co270 2.055 . S
O278 C282 1.253 . S
H279 C275 0.931 . S
H280 C276 0.930 . S
O281 Co270 2.039 . S
O281 C271 1.265 . S
C282 O278 1.253 . S
C282 O283 1.227 . S
O283 C282 1.227 . S
N284 Co270 2.140 . S
N284 C287 1.346 . S
N284 C288 1.345 . S
C285 C286 1.387 . S
C285 C289 1.391 . S
C286 C285 1.387 . S
C286 C287 1.369 . S
C286 H295 0.929 . S
C287 N284 1.346 . S
C287 C286 1.369 . S
C287 H290 0.928 . S
C288 N284 1.345 . S
C288 C289 1.371 . S
C288 H291 0.931 . S
C289 C285 1.391 . S
C289 C288 1.371 . S
C289 H296 0.930 . S
H290 C287 0.928 . S
H291 C288 0.931 . S
H292 C268 0.930 . S
H293 C265 0.930 . S
H294 C274 0.930 . S
H295 C286 0.929 . S
H296 C289 0.930 . S
C297 C298 1.351 . S
C297 N300 1.368 . S
C297 H302 0.931 . S
C298 C297 1.351 . S
C298 N299 1.373 . S
C298 H326 0.930 . S
N299 C298 1.373 . S
N299 C301 1.340 . S
N300 C297 1.368 . S
N300 C301 1.321 . S
N300 Co303 2.135 . S
C301 N299 1.340 . S
C301 N300 1.321 . S
C301 H325 0.930 . S
H302 C297 0.931 . S
Co303 N300 2.135 . S
Co303 N306 2.121 . S
Co303 O311 2.055 . S
Co303 O314 2.039 . S
Co303 N317 2.140 . S
C304 O305 1.227 . S
C304 O314 1.265 . S
O305 C304 1.227 . S
N306 Co303 2.121 . S
N306 C308 1.375 . S
N306 C309 1.313 . S
C307 C308 1.338 . S
C307 N310 1.377 . S
C307 H327 0.930 . S
C308 N306 1.375 . S
C308 C307 1.338 . S
C308 H312 0.931 . S
C309 N306 1.313 . S
C309 N310 1.344 . S
C309 H313 0.930 . S
N310 C307 1.377 . S
N310 C309 1.344 . S
O311 Co303 2.055 . S
O311 C315 1.253 . S
H312 C308 0.931 . S
H313 C309 0.930 . S
O314 Co303 2.039 . S
O314 C304 1.265 . S
C315 O311 1.253 . S
C315 O316 1.227 . S
O316 C315 1.227 . S
N317 Co303 2.140 . S
N317 C320 1.346 . S
N317 C321 1.345 . S
C318 C319 1.387 . S
C318 C322 1.391 . S
C319 C318 1.387 . S
C319 C320 1.369 . S
C319 H328 0.929 . S
C320 N317 1.346 . S
C320 C319 1.369 . S
C320 H323 0.928 . S
C321 N317 1.345 . S
C321 C322 1.371 . S
C321 H324 0.931 . S
C322 C318 1.391 . S
C322 C321 1.371 . S
C322 H329 0.930 . S
H323 C320 0.928 . S
H324 C321 0.931 . S
H325 C301 0.930 . S
H326 C298 0.930 . S
H327 C307 0.930 . S
H328 C319 0.929 . S
H329 C322 0.930 . S
C330 C331 1.351 . S
C330 N333 1.368 . S
C330 H335 0.931 . S
C331 C330 1.351 . S
C331 N332 1.373 . S
C331 H359 0.930 . S
N332 C331 1.373 . S
N332 C334 1.340 . S
N333 C330 1.368 . S
N333 C334 1.321 . S
N333 Co336 2.135 . S
C334 N332 1.340 . S
C334 N333 1.321 . S
C334 H358 0.930 . S
H335 C330 0.931 . S
Co336 N333 2.135 . S
Co336 N339 2.121 . S
Co336 O344 2.055 . S
Co336 O347 2.039 . S
Co336 N350 2.140 . S
C337 O338 1.227 . S
C337 O347 1.265 . S
O338 C337 1.227 . S
N339 Co336 2.121 . S
N339 C341 1.375 . S
N339 C342 1.313 . S
C340 C341 1.338 . S
C340 N343 1.377 . S
C340 H360 0.930 . S
C341 N339 1.375 . S
C341 C340 1.338 . S
C341 H345 0.931 . S
C342 N339 1.313 . S
C342 N343 1.344 . S
C342 H346 0.930 . S
N343 C340 1.377 . S
N343 C342 1.344 . S
O344 Co336 2.055 . S
O344 C348 1.253 . S
H345 C341 0.931 . S
H346 C342 0.930 . S
O347 Co336 2.039 . S
O347 C337 1.265 . S
C348 O344 1.253 . S
C348 O349 1.227 . S
O349 C348 1.227 . S
N350 Co336 2.140 . S
N350 C353 1.346 . S
N350 C354 1.345 . S
C351 C352 1.387 . S
C351 C355 1.391 . S
C352 C351 1.387 . S
C352 C353 1.369 . S
C352 H361 0.929 . S
C353 N350 1.346 . S
C353 C352 1.369 . S
C353 H356 0.928 . S
C354 N350 1.345 . S
C354 C355 1.371 . S
C354 H357 0.931 . S
C355 C351 1.391 . S
C355 C354 1.371 . S
C355 H362 0.930 . S
H356 C353 0.928 . S
H357 C354 0.931 . S
H358 C334 0.930 . S
H359 C331 0.930 . S
H360 C340 0.930 . S
H361 C352 0.929 . S
H362 C355 0.930 . S
C363 C364 1.351 . S
C363 N366 1.368 . S
C363 H368 0.931 . S
C364 C363 1.351 . S
C364 N365 1.373 . S
C364 H392 0.930 . S
N365 C364 1.373 . S
N365 C367 1.340 . S
N366 C363 1.368 . S
N366 C367 1.321 . S
N366 Co369 2.135 . S
C367 N365 1.340 . S
C367 N366 1.321 . S
C367 H391 0.930 . S
H368 C363 0.931 . S
Co369 N366 2.135 . S
Co369 N372 2.121 . S
Co369 O377 2.055 . S
Co369 O380 2.039 . S
Co369 N383 2.140 . S
C370 O371 1.227 . S
C370 O380 1.265 . S
O371 C370 1.227 . S
N372 Co369 2.121 . S
N372 C374 1.375 . S
N372 C375 1.313 . S
C373 C374 1.338 . S
C373 N376 1.377 . S
C373 H393 0.930 . S
C374 N372 1.375 . S
C374 C373 1.338 . S
C374 H378 0.931 . S
C375 N372 1.313 . S
C375 N376 1.344 . S
C375 H379 0.930 . S
N376 C373 1.377 . S
N376 C375 1.344 . S
O377 Co369 2.055 . S
O377 C381 1.253 . S
H378 C374 0.931 . S
H379 C375 0.930 . S
O380 Co369 2.039 . S
O380 C370 1.265 . S
C381 O377 1.253 . S
C381 O382 1.227 . S
O382 C381 1.227 . S
N383 Co369 2.140 . S
N383 C386 1.346 . S
N383 C387 1.345 . S
C384 C385 1.387 . S
C384 C388 1.391 . S
C385 C384 1.387 . S
C385 C386 1.369 . S
C385 H394 0.929 . S
C386 N383 1.346 . S
C386 C385 1.369 . S
C386 H389 0.928 . S
C387 N383 1.345 . S
C387 C388 1.371 . S
C387 H390 0.931 . S
C388 C384 1.391 . S
C388 C387 1.371 . S
C388 H395 0.930 . S
H389 C386 0.928 . S
H390 C387 0.931 . S
H391 C367 0.930 . S
H392 C364 0.930 . S
H393 C373 0.930 . S
H394 C385 0.929 . S
H395 C388 0.930 . S
C396 C397 1.351 . S
C396 N399 1.368 . S
C396 H401 0.931 . S
C397 C396 1.351 . S
C397 N398 1.373 . S
C397 H425 0.930 . S
N398 C397 1.373 . S
N398 C400 1.340 . S
N399 C396 1.368 . S
N399 C400 1.321 . S
N399 Co402 2.135 . S
C400 N398 1.340 . S
C400 N399 1.321 . S
C400 H424 0.930 . S
H401 C396 0.931 . S
Co402 N399 2.135 . S
Co402 N405 2.121 . S
Co402 O410 2.055 . S
Co402 O413 2.039 . S
Co402 N416 2.140 . S
C403 O404 1.227 . S
C403 O413 1.265 . S
O404 C403 1.227 . S
N405 Co402 2.121 . S
N405 C407 1.375 . S
N405 C408 1.313 . S
C406 C407 1.338 . S
C406 N409 1.377 . S
C406 H426 0.930 . S
C407 N405 1.375 . S
C407 C406 1.338 . S
C407 H411 0.931 . S
C408 N405 1.313 . S
C408 N409 1.344 . S
C408 H412 0.930 . S
N409 C406 1.377 . S
N409 C408 1.344 . S
O410 Co402 2.055 . S
O410 C414 1.253 . S
H411 C407 0.931 . S
H412 C408 0.930 . S
O413 Co402 2.039 . S
O413 C403 1.265 . S
C414 O410 1.253 . S
C414 O415 1.227 . S
O415 C414 1.227 . S
N416 Co402 2.140 . S
N416 C419 1.346 . S
N416 C420 1.345 . S
C417 C418 1.387 . S
C417 C421 1.391 . S
C418 C417 1.387 . S
C418 C419 1.369 . S
C418 H427 0.929 . S
C419 N416 1.346 . S
C419 C418 1.369 . S
C419 H422 0.928 . S
C420 N416 1.345 . S
C420 C421 1.371 . S
C420 H423 0.931 . S
C421 C417 1.391 . S
C421 C420 1.371 . S
C421 H428 0.930 . S
H422 C419 0.928 . S
H423 C420 0.931 . S
H424 C400 0.930 . S
H425 C397 0.930 . S
H426 C406 0.930 . S
H427 C418 0.929 . S
H428 C421 0.930 . S
C429 C430 1.351 . S
C429 N432 1.368 . S
C429 H434 0.931 . S
C430 C429 1.351 . S
C430 N431 1.373 . S
C430 H458 0.930 . S
N431 C430 1.373 . S
N431 C433 1.340 . S
N432 C429 1.368 . S
N432 C433 1.321 . S
N432 Co435 2.135 . S
C433 N431 1.340 . S
C433 N432 1.321 . S
C433 H457 0.930 . S
H434 C429 0.931 . S
Co435 N432 2.135 . S
Co435 N438 2.121 . S
Co435 O443 2.055 . S
Co435 O446 2.039 . S
Co435 N449 2.140 . S
C436 O437 1.227 . S
C436 O446 1.265 . S
O437 C436 1.227 . S
N438 Co435 2.121 . S
N438 C440 1.375 . S
N438 C441 1.313 . S
C439 C440 1.338 . S
C439 N442 1.377 . S
C439 H459 0.930 . S
C440 N438 1.375 . S
C440 C439 1.338 . S
C440 H444 0.931 . S
C441 N438 1.313 . S
C441 N442 1.344 . S
C441 H445 0.930 . S
N442 C439 1.377 . S
N442 C441 1.344 . S
O443 Co435 2.055 . S
O443 C447 1.253 . S
H444 C440 0.931 . S
H445 C441 0.930 . S
O446 Co435 2.039 . S
O446 C436 1.265 . S
C447 O443 1.253 . S
C447 O448 1.227 . S
O448 C447 1.227 . S
N449 Co435 2.140 . S
N449 C452 1.346 . S
N449 C453 1.345 . S
C450 C451 1.387 . S
C450 C454 1.391 . S
C451 C450 1.387 . S
C451 C452 1.369 . S
C451 H460 0.929 . S
C452 N449 1.346 . S
C452 C451 1.369 . S
C452 H455 0.928 . S
C453 N449 1.345 . S
C453 C454 1.371 . S
C453 H456 0.931 . S
C454 C450 1.391 . S
C454 C453 1.371 . S
C454 H461 0.930 . S
H455 C452 0.928 . S
H456 C453 0.931 . S
H457 C433 0.930 . S
H458 C430 0.930 . S
H459 C439 0.930 . S
H460 C451 0.929 . S
H461 C454 0.930 . S
C462 C463 1.351 . S
C462 N465 1.368 . S
C462 H467 0.931 . S
C463 C462 1.351 . S
C463 N464 1.373 . S
C463 H491 0.930 . S
N464 C463 1.373 . S
N464 C466 1.340 . S
N465 C462 1.368 . S
N465 C466 1.321 . S
N465 Co468 2.135 . S
C466 N464 1.340 . S
C466 N465 1.321 . S
C466 H490 0.930 . S
H467 C462 0.931 . S
Co468 N465 2.135 . S
Co468 N471 2.121 . S
Co468 O476 2.055 . S
Co468 O479 2.039 . S
Co468 N482 2.140 . S
C469 O470 1.227 . S
C469 O479 1.265 . S
O470 C469 1.227 . S
N471 Co468 2.121 . S
N471 C473 1.375 . S
N471 C474 1.313 . S
C472 C473 1.338 . S
C472 N475 1.377 . S
C472 H492 0.930 . S
C473 N471 1.375 . S
C473 C472 1.338 . S
C473 H477 0.931 . S
C474 N471 1.313 . S
C474 N475 1.344 . S
C474 H478 0.930 . S
N475 C472 1.377 . S
N475 C474 1.344 . S
O476 Co468 2.055 . S
O476 C480 1.253 . S
H477 C473 0.931 . S
H478 C474 0.930 . S
O479 Co468 2.039 . S
O479 C469 1.265 . S
C480 O476 1.253 . S
C480 O481 1.227 . S
O481 C480 1.227 . S
N482 Co468 2.140 . S
N482 C485 1.346 . S
N482 C486 1.345 . S
C483 C484 1.387 . S
C483 C487 1.391 . S
C484 C483 1.387 . S
C484 C485 1.369 . S
C484 H493 0.929 . S
C485 N482 1.346 . S
C485 C484 1.369 . S
C485 H488 0.928 . S
C486 N482 1.345 . S
C486 C487 1.371 . S
C486 H489 0.931 . S
C487 C483 1.391 . S
C487 C486 1.371 . S
C487 H494 0.930 . S
H488 C485 0.928 . S
H489 C486 0.931 . S
H490 C466 0.930 . S
H491 C463 0.930 . S
H492 C472 0.930 . S
H493 C484 0.929 . S
H494 C487 0.930 . S
C495 C496 1.351 . S
C495 N498 1.368 . S
C495 H500 0.931 . S
C496 C495 1.351 . S
C496 N497 1.373 . S
C496 H524 0.930 . S
N497 C496 1.373 . S
N497 C499 1.340 . S
N498 C495 1.368 . S
N498 C499 1.321 . S
N498 Co501 2.135 . S
C499 N497 1.340 . S
C499 N498 1.321 . S
C499 H523 0.930 . S
H500 C495 0.931 . S
Co501 N498 2.135 . S
Co501 N504 2.121 . S
Co501 O509 2.055 . S
Co501 O512 2.039 . S
Co501 N515 2.140 . S
C502 O503 1.227 . S
C502 O512 1.265 . S
O503 C502 1.227 . S
N504 Co501 2.121 . S
N504 C506 1.375 . S
N504 C507 1.313 . S
C505 C506 1.338 . S
C505 N508 1.377 . S
C505 H525 0.930 . S
C506 N504 1.375 . S
C506 C505 1.338 . S
C506 H510 0.931 . S
C507 N504 1.313 . S
C507 N508 1.344 . S
C507 H511 0.930 . S
N508 C505 1.377 . S
N508 C507 1.344 . S
O509 Co501 2.055 . S
O509 C513 1.253 . S
H510 C506 0.931 . S
H511 C507 0.930 . S
O512 Co501 2.039 . S
O512 C502 1.265 . S
C513 O509 1.253 . S
C513 O514 1.227 . S
O514 C513 1.227 . S
N515 Co501 2.140 . S
N515 C518 1.346 . S
N515 C519 1.345 . S
C516 C517 1.387 . S
C516 C520 1.391 . S
C517 C516 1.387 . S
C517 C518 1.369 . S
C517 H526 0.929 . S
C518 N515 1.346 . S
C518 C517 1.369 . S
C518 H521 0.928 . S
C519 N515 1.345 . S
C519 C520 1.371 . S
C519 H522 0.931 . S
C520 C516 1.391 . S
C520 C519 1.371 . S
C520 H527 0.930 . S
H521 C518 0.928 . S
H522 C519 0.931 . S
H523 C499 0.930 . S
H524 C496 0.930 . S
H525 C505 0.930 . S
H526 C517 0.929 . S
H527 C520 0.930 . S
C528 C529 1.351 . S
C528 N531 1.368 . S
C528 H533 0.931 . S
C529 C528 1.351 . S
C529 N530 1.373 . S
C529 H557 0.930 . S
N530 C529 1.373 . S
N530 C532 1.340 . S
N531 C528 1.368 . S
N531 C532 1.321 . S
N531 Co534 2.135 . S
C532 N530 1.340 . S
C532 N531 1.321 . S
C532 H556 0.930 . S
H533 C528 0.931 . S
Co534 N531 2.135 . S
Co534 N537 2.121 . S
Co534 O542 2.055 . S
Co534 O545 2.039 . S
Co534 N548 2.140 . S
C535 O536 1.227 . S
C535 O545 1.265 . S
O536 C535 1.227 . S
N537 Co534 2.121 . S
N537 C539 1.375 . S
N537 C540 1.313 . S
C538 C539 1.338 . S
C538 N541 1.377 . S
C538 H558 0.930 . S
C539 N537 1.375 . S
C539 C538 1.338 . S
C539 H543 0.931 . S
C540 N537 1.313 . S
C540 N541 1.344 . S
C540 H544 0.930 . S
N541 C538 1.377 . S
N541 C540 1.344 . S
O542 Co534 2.055 . S
O542 C546 1.253 . S
H543 C539 0.931 . S
H544 C540 0.930 . S
O545 Co534 2.039 . S
O545 C535 1.265 . S
C546 O542 1.253 . S
C546 O547 1.227 . S
O547 C546 1.227 . S
N548 Co534 2.140 . S
N548 C551 1.346 . S
N548 C552 1.345 . S
C549 C550 1.387 . S
C549 C553 1.391 . S
C550 C549 1.387 . S
C550 C551 1.369 . S
C550 H559 0.929 . S
C551 N548 1.346 . S
C551 C550 1.369 . S
C551 H554 0.928 . S
C552 N548 1.345 . S
C552 C553 1.371 . S
C552 H555 0.931 . S
C553 C549 1.391 . S
C553 C552 1.371 . S
C553 H560 0.930 . S
H554 C551 0.928 . S
H555 C552 0.931 . S
H556 C532 0.930 . S
H557 C529 0.930 . S
H558 C538 0.930 . S
H559 C550 0.929 . S
H560 C553 0.930 . S
C561 C562 1.351 . S
C561 N564 1.368 . S
C561 H566 0.931 . S
C562 C561 1.351 . S
C562 N563 1.373 . S
C562 H590 0.930 . S
N563 C562 1.373 . S
N563 C565 1.340 . S
N564 C561 1.368 . S
N564 C565 1.321 . S
N564 Co567 2.135 . S
C565 N563 1.340 . S
C565 N564 1.321 . S
C565 H589 0.930 . S
H566 C561 0.931 . S
Co567 N564 2.135 . S
Co567 N570 2.121 . S
Co567 O575 2.055 . S
Co567 O578 2.039 . S
Co567 N581 2.140 . S
C568 O569 1.227 . S
C568 O578 1.265 . S
O569 C568 1.227 . S
N570 Co567 2.121 . S
N570 C572 1.375 . S
N570 C573 1.313 . S
C571 C572 1.338 . S
C571 N574 1.377 . S
C571 H591 0.930 . S
C572 N570 1.375 . S
C572 C571 1.338 . S
C572 H576 0.931 . S
C573 N570 1.313 . S
C573 N574 1.344 . S
C573 H577 0.930 . S
N574 C571 1.377 . S
N574 C573 1.344 . S
O575 Co567 2.055 . S
O575 C579 1.253 . S
H576 C572 0.931 . S
H577 C573 0.930 . S
O578 Co567 2.039 . S
O578 C568 1.265 . S
C579 O575 1.253 . S
C579 O580 1.227 . S
O580 C579 1.227 . S
N581 Co567 2.140 . S
N581 C584 1.346 . S
N581 C585 1.345 . S
C582 C583 1.387 . S
C582 C586 1.391 . S
C583 C582 1.387 . S
C583 C584 1.369 . S
C583 H592 0.929 . S
C584 N581 1.346 . S
C584 C583 1.369 . S
C584 H587 0.928 . S
C585 N581 1.345 . S
C585 C586 1.371 . S
C585 H588 0.931 . S
C586 C582 1.391 . S
C586 C585 1.371 . S
C586 H593 0.930 . S
H587 C584 0.928 . S
H588 C585 0.931 . S
H589 C565 0.930 . S
H590 C562 0.930 . S
H591 C571 0.930 . S
H592 C583 0.929 . S
H593 C586 0.930 . S
C594 C595 1.351 . S
C594 N597 1.368 . S
C594 H599 0.931 . S
C595 C594 1.351 . S
C595 N596 1.373 . S
C595 H623 0.930 . S
N596 C595 1.373 . S
N596 C598 1.340 . S
N597 C594 1.368 . S
N597 C598 1.321 . S
N597 Co600 2.135 . S
C598 N596 1.340 . S
C598 N597 1.321 . S
C598 H622 0.930 . S
H599 C594 0.931 . S
Co600 N597 2.135 . S
Co600 N603 2.121 . S
Co600 O608 2.055 . S
Co600 O611 2.039 . S
Co600 N614 2.140 . S
C601 O602 1.227 . S
C601 O611 1.265 . S
O602 C601 1.227 . S
N603 Co600 2.121 . S
N603 C605 1.375 . S
N603 C606 1.313 . S
C604 C605 1.338 . S
C604 N607 1.377 . S
C604 H624 0.930 . S
C605 N603 1.375 . S
C605 C604 1.338 . S
C605 H609 0.931 . S
C606 N603 1.313 . S
C606 N607 1.344 . S
C606 H610 0.930 . S
N607 C604 1.377 . S
N607 C606 1.344 . S
O608 Co600 2.055 . S
O608 C612 1.253 . S
H609 C605 0.931 . S
H610 C606 0.930 . S
O611 Co600 2.039 . S
O611 C601 1.265 . S
C612 O608 1.253 . S
C612 O613 1.227 . S
O613 C612 1.227 . S
N614 Co600 2.140 . S
N614 C617 1.346 . S
N614 C618 1.345 . S
C615 C616 1.387 . S
C615 C619 1.391 . S
C616 C615 1.387 . S
C616 C617 1.369 . S
C616 H625 0.929 . S
C617 N614 1.346 . S
C617 C616 1.369 . S
C617 H620 0.928 . S
C618 N614 1.345 . S
C618 C619 1.371 . S
C618 H621 0.931 . S
C619 C615 1.391 . S
C619 C618 1.371 . S
C619 H626 0.930 . S
H620 C617 0.928 . S
H621 C618 0.931 . S
H622 C598 0.930 . S
H623 C595 0.930 . S
H624 C604 0.930 . S
H625 C616 0.929 . S
H626 C619 0.930 . S
C627 C628 1.351 . S
C627 N630 1.368 . S
C627 H632 0.931 . S
C628 C627 1.351 . S
C628 N629 1.373 . S
C628 H656 0.930 . S
N629 C628 1.373 . S
N629 C631 1.340 . S
N630 C627 1.368 . S
N630 C631 1.321 . S
N630 Co633 2.135 . S
C631 N629 1.340 . S
C631 N630 1.321 . S
C631 H655 0.930 . S
H632 C627 0.931 . S
Co633 N630 2.135 . S
Co633 N636 2.121 . S
Co633 O641 2.055 . S
Co633 O644 2.039 . S
Co633 N647 2.140 . S
C634 O635 1.227 . S
C634 O644 1.265 . S
O635 C634 1.227 . S
N636 Co633 2.121 . S
N636 C638 1.375 . S
N636 C639 1.313 . S
C637 C638 1.338 . S
C637 N640 1.377 . S
C637 H657 0.930 . S
C638 N636 1.375 . S
C638 C637 1.338 . S
C638 H642 0.931 . S
C639 N636 1.313 . S
C639 N640 1.344 . S
C639 H643 0.930 . S
N640 C637 1.377 . S
N640 C639 1.344 . S
O641 Co633 2.055 . S
O641 C645 1.253 . S
H642 C638 0.931 . S
H643 C639 0.930 . S
O644 Co633 2.039 . S
O644 C634 1.265 . S
C645 O641 1.253 . S
C645 O646 1.227 . S
O646 C645 1.227 . S
N647 Co633 2.140 . S
N647 C650 1.346 . S
N647 C651 1.345 . S
C648 C649 1.387 . S
C648 C652 1.391 . S
C649 C648 1.387 . S
C649 C650 1.369 . S
C649 H658 0.929 . S
C650 N647 1.346 . S
C650 C649 1.369 . S
C650 H653 0.928 . S
C651 N647 1.345 . S
C651 C652 1.371 . S
C651 H654 0.931 . S
C652 C648 1.391 . S
C652 C651 1.371 . S
C652 H659 0.930 . S
H653 C650 0.928 . S
H654 C651 0.931 . S
H655 C631 0.930 . S
H656 C628 0.930 . S
H657 C637 0.930 . S
H658 C649 0.929 . S
H659 C652 0.930 . S
C660 C661 1.351 . S
C660 N663 1.368 . S
C660 H665 0.931 . S
C661 C660 1.351 . S
C661 N662 1.373 . S
C661 H689 0.930 . S
N662 C661 1.373 . S
N662 C664 1.340 . S
N663 C660 1.368 . S
N663 C664 1.321 . S
N663 Co666 2.135 . S
C664 N662 1.340 . S
C664 N663 1.321 . S
C664 H688 0.930 . S
H665 C660 0.931 . S
Co666 N663 2.135 . S
Co666 N669 2.121 . S
Co666 O674 2.055 . S
Co666 O677 2.039 . S
Co666 N680 2.140 . S
C667 O668 1.227 . S
C667 O677 1.265 . S
O668 C667 1.227 . S
N669 Co666 2.121 . S
N669 C671 1.375 . S
N669 C672 1.313 . S
C670 C671 1.338 . S
C670 N673 1.377 . S
C670 H690 0.930 . S
C671 N669 1.375 . S
C671 C670 1.338 . S
C671 H675 0.931 . S
C672 N669 1.313 . S
C672 N673 1.344 . S
C672 H676 0.930 . S
N673 C670 1.377 . S
N673 C672 1.344 . S
O674 Co666 2.055 . S
O674 C678 1.253 . S
H675 C671 0.931 . S
H676 C672 0.930 . S
O677 Co666 2.039 . S
O677 C667 1.265 . S
C678 O674 1.253 . S
C678 O679 1.227 . S
O679 C678 1.227 . S
N680 Co666 2.140 . S
N680 C683 1.346 . S
N680 C684 1.345 . S
C681 C682 1.387 . S
C681 C685 1.391 . S
C682 C681 1.387 . S
C682 C683 1.369 . S
C682 H691 0.929 . S
C683 N680 1.346 . S
C683 C682 1.369 . S
C683 H686 0.928 . S
C684 N680 1.345 . S
C684 C685 1.371 . S
C684 H687 0.931 . S
C685 C681 1.391 . S
C685 C684 1.371 . S
C685 H692 0.930 . S
H686 C683 0.928 . S
H687 C684 0.931 . S
H688 C664 0.930 . S
H689 C661 0.930 . S
H690 C670 0.930 . S
H691 C682 0.929 . S
H692 C685 0.930 . S
C693 C694 1.351 . S
C693 N696 1.368 . S
C693 H698 0.931 . S
C694 C693 1.351 . S
C694 N695 1.373 . S
C694 H722 0.930 . S
N695 C694 1.373 . S
N695 C697 1.340 . S
N696 C693 1.368 . S
N696 C697 1.321 . S
N696 Co699 2.135 . S
C697 N695 1.340 . S
C697 N696 1.321 . S
C697 H721 0.930 . S
H698 C693 0.931 . S
Co699 N696 2.135 . S
Co699 N702 2.121 . S
Co699 O707 2.055 . S
Co699 O710 2.039 . S
Co699 N713 2.140 . S
C700 O701 1.227 . S
C700 O710 1.265 . S
O701 C700 1.227 . S
N702 Co699 2.121 . S
N702 C704 1.375 . S
N702 C705 1.313 . S
C703 C704 1.338 . S
C703 N706 1.377 . S
C703 H723 0.930 . S
C704 N702 1.375 . S
C704 C703 1.338 . S
C704 H708 0.931 . S
C705 N702 1.313 . S
C705 N706 1.344 . S
C705 H709 0.930 . S
N706 C703 1.377 . S
N706 C705 1.344 . S
O707 Co699 2.055 . S
O707 C711 1.253 . S
H708 C704 0.931 . S
H709 C705 0.930 . S
O710 Co699 2.039 . S
O710 C700 1.265 . S
C711 O707 1.253 . S
C711 O712 1.227 . S
O712 C711 1.227 . S
N713 Co699 2.140 . S
N713 C716 1.346 . S
N713 C717 1.345 . S
C714 C715 1.387 . S
C714 C718 1.391 . S
C715 C714 1.387 . S
C715 C716 1.369 . S
C715 H724 0.929 . S
C716 N713 1.346 . S
C716 C715 1.369 . S
C716 H719 0.928 . S
C717 N713 1.345 . S
C717 C718 1.371 . S
C717 H720 0.931 . S
C718 C714 1.391 . S
C718 C717 1.371 . S
C718 H725 0.930 . S
H719 C716 0.928 . S
H720 C717 0.931 . S
H721 C697 0.930 . S
H722 C694 0.930 . S
H723 C703 0.930 . S
H724 C715 0.929 . S
H725 C718 0.930 . S
C726 C727 1.351 . S
C726 N729 1.368 . S
C726 H731 0.931 . S
C727 C726 1.351 . S
C727 N728 1.373 . S
C727 H755 0.930 . S
N728 C727 1.373 . S
N728 C730 1.340 . S
N729 C726 1.368 . S
N729 C730 1.321 . S
N729 Co732 2.135 . S
C730 N728 1.340 . S
C730 N729 1.321 . S
C730 H754 0.930 . S
H731 C726 0.931 . S
Co732 N729 2.135 . S
Co732 N735 2.121 . S
Co732 O740 2.055 . S
Co732 O743 2.039 . S
Co732 N746 2.140 . S
C733 O734 1.227 . S
C733 O743 1.265 . S
O734 C733 1.227 . S
N735 Co732 2.121 . S
N735 C737 1.375 . S
N735 C738 1.313 . S
C736 C737 1.338 . S
C736 N739 1.377 . S
C736 H756 0.930 . S
C737 N735 1.375 . S
C737 C736 1.338 . S
C737 H741 0.931 . S
C738 N735 1.313 . S
C738 N739 1.344 . S
C738 H742 0.930 . S
N739 C736 1.377 . S
N739 C738 1.344 . S
O740 Co732 2.055 . S
O740 C744 1.253 . S
H741 C737 0.931 . S
H742 C738 0.930 . S
O743 Co732 2.039 . S
O743 C733 1.265 . S
C744 O740 1.253 . S
C744 O745 1.227 . S
O745 C744 1.227 . S
N746 Co732 2.140 . S
N746 C749 1.346 . S
N746 C750 1.345 . S
C747 C748 1.387 . S
C747 C751 1.391 . S
C748 C747 1.387 . S
C748 C749 1.369 . S
C748 H757 0.929 . S
C749 N746 1.346 . S
C749 C748 1.369 . S
C749 H752 0.928 . S
C750 N746 1.345 . S
C750 C751 1.371 . S
C750 H753 0.931 . S
C751 C747 1.391 . S
C751 C750 1.371 . S
C751 H758 0.930 . S
H752 C749 0.928 . S
H753 C750 0.931 . S
H754 C730 0.930 . S
H755 C727 0.930 . S
H756 C736 0.930 . S
H757 C748 0.929 . S
H758 C751 0.930 . S
C759 C760 1.351 . S
C759 N762 1.368 . S
C759 H764 0.931 . S
C760 C759 1.351 . S
C760 N761 1.373 . S
C760 H788 0.930 . S
N761 C760 1.373 . S
N761 C763 1.340 . S
N762 C759 1.368 . S
N762 C763 1.321 . S
N762 Co765 2.135 . S
C763 N761 1.340 . S
C763 N762 1.321 . S
C763 H787 0.930 . S
H764 C759 0.931 . S
Co765 N762 2.135 . S
Co765 N768 2.121 . S
Co765 O773 2.055 . S
Co765 O776 2.039 . S
Co765 N779 2.140 . S
C766 O767 1.227 . S
C766 O776 1.265 . S
O767 C766 1.227 . S
N768 Co765 2.121 . S
N768 C770 1.375 . S
N768 C771 1.313 . S
C769 C770 1.338 . S
C769 N772 1.377 . S
C769 H789 0.930 . S
C770 N768 1.375 . S
C770 C769 1.338 . S
C770 H774 0.931 . S
C771 N768 1.313 . S
C771 N772 1.344 . S
C771 H775 0.930 . S
N772 C769 1.377 . S
N772 C771 1.344 . S
O773 Co765 2.055 . S
O773 C777 1.253 . S
H774 C770 0.931 . S
H775 C771 0.930 . S
O776 Co765 2.039 . S
O776 C766 1.265 . S
C777 O773 1.253 . S
C777 O778 1.227 . S
O778 C777 1.227 . S
N779 Co765 2.140 . S
N779 C782 1.346 . S
N779 C783 1.345 . S
C780 C781 1.387 . S
C780 C784 1.391 . S
C781 C780 1.387 . S
C781 C782 1.369 . S
C781 H790 0.929 . S
C782 N779 1.346 . S
C782 C781 1.369 . S
C782 H785 0.928 . S
C783 N779 1.345 . S
C783 C784 1.371 . S
C783 H786 0.931 . S
C784 C780 1.391 . S
C784 C783 1.371 . S
C784 H791 0.930 . S
H785 C782 0.928 . S
H786 C783 0.931 . S
H787 C763 0.930 . S
H788 C760 0.930 . S
H789 C769 0.930 . S
H790 C781 0.929 . S
H791 C784 0.930 . S
C792 C793 1.351 . S
C792 N795 1.368 . S
C792 H797 0.931 . S
C793 C792 1.351 . S
C793 N794 1.373 . S
C793 H821 0.930 . S
N794 C793 1.373 . S
N794 C796 1.340 . S
N795 C792 1.368 . S
N795 C796 1.321 . S
N795 Co798 2.135 . S
C796 N794 1.340 . S
C796 N795 1.321 . S
C796 H820 0.930 . S
H797 C792 0.931 . S
Co798 N795 2.135 . S
Co798 N801 2.121 . S
Co798 O806 2.055 . S
Co798 O809 2.039 . S
Co798 N812 2.140 . S
C799 O800 1.227 . S
C799 O809 1.265 . S
O800 C799 1.227 . S
N801 Co798 2.121 . S
N801 C803 1.375 . S
N801 C804 1.313 . S
C802 C803 1.338 . S
C802 N805 1.377 . S
C802 H822 0.930 . S
C803 N801 1.375 . S
C803 C802 1.338 . S
C803 H807 0.931 . S
C804 N801 1.313 . S
C804 N805 1.344 . S
C804 H808 0.930 . S
N805 C802 1.377 . S
N805 C804 1.344 . S
O806 Co798 2.055 . S
O806 C810 1.253 . S
H807 C803 0.931 . S
H808 C804 0.930 . S
O809 Co798 2.039 . S
O809 C799 1.265 . S
C810 O806 1.253 . S
C810 O811 1.227 . S
O811 C810 1.227 . S
N812 Co798 2.140 . S
N812 C815 1.346 . S
N812 C816 1.345 . S
C813 C814 1.387 . S
C813 C817 1.391 . S
C814 C813 1.387 . S
C814 C815 1.369 . S
C814 H823 0.929 . S
C815 N812 1.346 . S
C815 C814 1.369 . S
C815 H818 0.928 . S
C816 N812 1.345 . S
C816 C817 1.371 . S
C816 H819 0.931 . S
C817 C813 1.391 . S
C817 C816 1.371 . S
C817 H824 0.930 . S
H818 C815 0.928 . S
H819 C816 0.931 . S
H820 C796 0.930 . S
H821 C793 0.930 . S
H822 C802 0.930 . S
H823 C814 0.929 . S
H824 C817 0.930 . S
C825 C826 1.351 . S
C825 N828 1.368 . S
C825 H830 0.931 . S
C826 C825 1.351 . S
C826 N827 1.373 . S
C826 H854 0.930 . S
N827 C826 1.373 . S
N827 C829 1.340 . S
N828 C825 1.368 . S
N828 C829 1.321 . S
N828 Co831 2.135 . S
C829 N827 1.340 . S
C829 N828 1.321 . S
C829 H853 0.930 . S
H830 C825 0.931 . S
Co831 N828 2.135 . S
Co831 N834 2.121 . S
Co831 O839 2.055 . S
Co831 O842 2.039 . S
Co831 N845 2.140 . S
C832 O833 1.227 . S
C832 O842 1.265 . S
O833 C832 1.227 . S
N834 Co831 2.121 . S
N834 C836 1.375 . S
N834 C837 1.313 . S
C835 C836 1.338 . S
C835 N838 1.377 . S
C835 H855 0.930 . S
C836 N834 1.375 . S
C836 C835 1.338 . S
C836 H840 0.931 . S
C837 N834 1.313 . S
C837 N838 1.344 . S
C837 H841 0.930 . S
N838 C835 1.377 . S
N838 C837 1.344 . S
O839 Co831 2.055 . S
O839 C843 1.253 . S
H840 C836 0.931 . S
H841 C837 0.930 . S
O842 Co831 2.039 . S
O842 C832 1.265 . S
C843 O839 1.253 . S
C843 O844 1.227 . S
O844 C843 1.227 . S
N845 Co831 2.140 . S
N845 C848 1.346 . S
N845 C849 1.345 . S
C846 C847 1.387 . S
C846 C850 1.391 . S
C847 C846 1.387 . S
C847 C848 1.369 . S
C847 H856 0.929 . S
C848 N845 1.346 . S
C848 C847 1.369 . S
C848 H851 0.928 . S
C849 N845 1.345 . S
C849 C850 1.371 . S
C849 H852 0.931 . S
C850 C846 1.391 . S
C850 C849 1.371 . S
C850 H857 0.930 . S
H851 C848 0.928 . S
H852 C849 0.931 . S
H853 C829 0.930 . S
H854 C826 0.930 . S
H855 C835 0.930 . S
H856 C847 0.929 . S
H857 C850 0.930 . S
C858 C859 1.351 . S
C858 N861 1.368 . S
C858 H863 0.931 . S
C859 C858 1.351 . S
C859 N860 1.373 . S
C859 H887 0.930 . S
N860 C859 1.373 . S
N860 C862 1.340 . S
N861 C858 1.368 . S
N861 C862 1.321 . S
N861 Co864 2.135 . S
C862 N860 1.340 . S
C862 N861 1.321 . S
C862 H886 0.930 . S
H863 C858 0.931 . S
Co864 N861 2.135 . S
Co864 N867 2.121 . S
Co864 O872 2.055 . S
Co864 O875 2.039 . S
Co864 N878 2.140 . S
C865 O866 1.227 . S
C865 O875 1.265 . S
O866 C865 1.227 . S
N867 Co864 2.121 . S
N867 C869 1.375 . S
N867 C870 1.313 . S
C868 C869 1.338 . S
C868 N871 1.377 . S
C868 H888 0.930 . S
C869 N867 1.375 . S
C869 C868 1.338 . S
C869 H873 0.931 . S
C870 N867 1.313 . S
C870 N871 1.344 . S
C870 H874 0.930 . S
N871 C868 1.377 . S
N871 C870 1.344 . S
O872 Co864 2.055 . S
O872 C876 1.253 . S
H873 C869 0.931 . S
H874 C870 0.930 . S
O875 Co864 2.039 . S
O875 C865 1.265 . S
C876 O872 1.253 . S
C876 O877 1.227 . S
O877 C876 1.227 . S
N878 Co864 2.140 . S
N878 C881 1.346 . S
N878 C882 1.345 . S
C879 C880 1.387 . S
C879 C883 1.391 . S
C880 C879 1.387 . S
C880 C881 1.369 . S
C880 H889 0.929 . S
C881 N878 1.346 . S
C881 C880 1.369 . S
C881 H884 0.928 . S
C882 N878 1.345 . S
C882 C883 1.371 . S
C882 H885 0.931 . S
C883 C879 1.391 . S
C883 C882 1.371 . S
C883 H890 0.930 . S
H884 C881 0.928 . S
H885 C882 0.931 . S
H886 C862 0.930 . S
H887 C859 0.930 . S
H888 C868 0.930 . S
H889 C880 0.929 . S
H890 C883 0.930 . S
C891 C892 1.351 . S
C891 N894 1.368 . S
C891 H896 0.931 . S
C892 C891 1.351 . S
C892 N893 1.373 . S
C892 H920 0.930 . S
N893 C892 1.373 . S
N893 C895 1.340 . S
N894 C891 1.368 . S
N894 C895 1.321 . S
N894 Co897 2.135 . S
C895 N893 1.340 . S
C895 N894 1.321 . S
C895 H919 0.930 . S
H896 C891 0.931 . S
Co897 N894 2.135 . S
Co897 N900 2.121 . S
Co897 O905 2.055 . S
Co897 O908 2.039 . S
Co897 N911 2.140 . S
C898 O899 1.227 . S
C898 O908 1.265 . S
O899 C898 1.227 . S
N900 Co897 2.121 . S
N900 C902 1.375 . S
N900 C903 1.313 . S
C901 C902 1.338 . S
C901 N904 1.377 . S
C901 H921 0.930 . S
C902 N900 1.375 . S
C902 C901 1.338 . S
C902 H906 0.931 . S
C903 N900 1.313 . S
C903 N904 1.344 . S
C903 H907 0.930 . S
N904 C901 1.377 . S
N904 C903 1.344 . S
O905 Co897 2.055 . S
O905 C909 1.253 . S
H906 C902 0.931 . S
H907 C903 0.930 . S
O908 Co897 2.039 . S
O908 C898 1.265 . S
C909 O905 1.253 . S
C909 O910 1.227 . S
O910 C909 1.227 . S
N911 Co897 2.140 . S
N911 C914 1.346 . S
N911 C915 1.345 . S
C912 C913 1.387 . S
C912 C916 1.391 . S
C913 C912 1.387 . S
C913 C914 1.369 . S
C913 H922 0.929 . S
C914 N911 1.346 . S
C914 C913 1.369 . S
C914 H917 0.928 . S
C915 N911 1.345 . S
C915 C916 1.371 . S
C915 H918 0.931 . S
C916 C912 1.391 . S
C916 C915 1.371 . S
C916 H923 0.930 . S
H917 C914 0.928 . S
H918 C915 0.931 . S
H919 C895 0.930 . S
H920 C892 0.930 . S
H921 C901 0.930 . S
H922 C913 0.929 . S
H923 C916 0.930 . S
C924 C925 1.351 . S
C924 N927 1.368 . S
C924 H929 0.931 . S
C925 C924 1.351 . S
C925 N926 1.373 . S
C925 H953 0.930 . S
N926 C925 1.373 . S
N926 C928 1.340 . S
N927 C924 1.368 . S
N927 C928 1.321 . S
N927 Co930 2.135 . S
C928 N926 1.340 . S
C928 N927 1.321 . S
C928 H952 0.930 . S
H929 C924 0.931 . S
Co930 N927 2.135 . S
Co930 N933 2.121 . S
Co930 O938 2.055 . S
Co930 O941 2.039 . S
Co930 N944 2.140 . S
C931 O932 1.227 . S
C931 O941 1.265 . S
O932 C931 1.227 . S
N933 Co930 2.121 . S
N933 C935 1.375 . S
N933 C936 1.313 . S
C934 C935 1.338 . S
C934 N937 1.377 . S
C934 H954 0.930 . S
C935 N933 1.375 . S
C935 C934 1.338 . S
C935 H939 0.931 . S
C936 N933 1.313 . S
C936 N937 1.344 . S
C936 H940 0.930 . S
N937 C934 1.377 . S
N937 C936 1.344 . S
O938 Co930 2.055 . S
O938 C942 1.253 . S
H939 C935 0.931 . S
H940 C936 0.930 . S
O941 Co930 2.039 . S
O941 C931 1.265 . S
C942 O938 1.253 . S
C942 O943 1.227 . S
O943 C942 1.227 . S
N944 Co930 2.140 . S
N944 C947 1.346 . S
N944 C948 1.345 . S
C945 C946 1.387 . S
C945 C949 1.391 . S
C946 C945 1.387 . S
C946 C947 1.369 . S
C946 H955 0.929 . S
C947 N944 1.346 . S
C947 C946 1.369 . S
C947 H950 0.928 . S
C948 N944 1.345 . S
C948 C949 1.371 . S
C948 H951 0.931 . S
C949 C945 1.391 . S
C949 C948 1.371 . S
C949 H956 0.930 . S
H950 C947 0.928 . S
H951 C948 0.931 . S
H952 C928 0.930 . S
H953 C925 0.930 . S
H954 C934 0.930 . S
H955 C946 0.929 . S
H956 C949 0.930 . S
C957 C958 1.351 . S
C957 N960 1.368 . S
C957 H962 0.931 . S
C958 C957 1.351 . S
C958 N959 1.373 . S
C958 H986 0.930 . S
N959 C958 1.373 . S
N959 C961 1.340 . S
N960 C957 1.368 . S
N960 C961 1.321 . S
N960 Co963 2.135 . S
C961 N959 1.340 . S
C961 N960 1.321 . S
C961 H985 0.930 . S
H962 C957 0.931 . S
Co963 N960 2.135 . S
Co963 N966 2.121 . S
Co963 O971 2.055 . S
Co963 O974 2.039 . S
Co963 N977 2.140 . S
C964 O965 1.227 . S
C964 O974 1.265 . S
O965 C964 1.227 . S
N966 Co963 2.121 . S
N966 C968 1.375 . S
N966 C969 1.313 . S
C967 C968 1.338 . S
C967 N970 1.377 . S
C967 H987 0.930 . S
C968 N966 1.375 . S
C968 C967 1.338 . S
C968 H972 0.931 . S
C969 N966 1.313 . S
C969 N970 1.344 . S
C969 H973 0.930 . S
N970 C967 1.377 . S
N970 C969 1.344 . S
O971 Co963 2.055 . S
O971 C975 1.253 . S
H972 C968 0.931 . S
H973 C969 0.930 . S
O974 Co963 2.039 . S
O974 C964 1.265 . S
C975 O971 1.253 . S
C975 O976 1.227 . S
O976 C975 1.227 . S
N977 Co963 2.140 . S
N977 C980 1.346 . S
N977 C981 1.345 . S
C978 C979 1.387 . S
C978 C982 1.391 . S
C979 C978 1.387 . S
C979 C980 1.369 . S
C979 H988 0.929 . S
C980 N977 1.346 . S
C980 C979 1.369 . S
C980 H983 0.928 . S
C981 N977 1.345 . S
C981 C982 1.371 . S
C981 H984 0.931 . S
C982 C978 1.391 . S
C982 C981 1.371 . S
C982 H989 0.930 . S
H983 C980 0.928 . S
H984 C981 0.931 . S
H985 C961 0.930 . S
H986 C958 0.930 . S
H987 C967 0.930 . S
H988 C979 0.929 . S
H989 C982 0.930 . S
C990 C991 1.351 . S
C990 N993 1.368 . S
C990 H995 0.931 . S
C991 C990 1.351 . S
C991 N992 1.373 . S
C991 H1019 0.930 . S
N992 C991 1.373 . S
N992 C994 1.340 . S
N993 C990 1.368 . S
N993 C994 1.321 . S
N993 Co996 2.135 . S
C994 N992 1.340 . S
C994 N993 1.321 . S
C994 H1018 0.930 . S
H995 C990 0.931 . S
Co996 N993 2.135 . S
Co996 N999 2.121 . S
Co996 O1004 2.055 . S
Co996 O1007 2.039 . S
Co996 N1010 2.140 . S
C997 O998 1.227 . S
C997 O1007 1.265 . S
O998 C997 1.227 . S
N999 Co996 2.121 . S
N999 C1001 1.375 . S
N999 C1002 1.313 . S
C1000 C1001 1.338 . S
C1000 N1003 1.377 . S
C1000 H1020 0.930 . S
C1001 N999 1.375 . S
C1001 C1000 1.338 . S
C1001 H1005 0.931 . S
C1002 N999 1.313 . S
C1002 N1003 1.344 . S
C1002 H1006 0.930 . S
N1003 C1000 1.377 . S
N1003 C1002 1.344 . S
O1004 Co996 2.055 . S
O1004 C1008 1.253 . S
H1005 C1001 0.931 . S
H1006 C1002 0.930 . S
O1007 Co996 2.039 . S
O1007 C997 1.265 . S
C1008 O1004 1.253 . S
C1008 O1009 1.227 . S
O1009 C1008 1.227 . S
N1010 Co996 2.140 . S
N1010 C1013 1.346 . S
N1010 C1014 1.345 . S
C1011 C1012 1.387 . S
C1011 C1015 1.391 . S
C1012 C1011 1.387 . S
C1012 C1013 1.369 . S
C1012 H1021 0.929 . S
C1013 N1010 1.346 . S
C1013 C1012 1.369 . S
C1013 H1016 0.928 . S
C1014 N1010 1.345 . S
C1014 C1015 1.371 . S
C1014 H1017 0.931 . S
C1015 C1011 1.391 . S
C1015 C1014 1.371 . S
C1015 H1022 0.930 . S
H1016 C1013 0.928 . S
H1017 C1014 0.931 . S
H1018 C994 0.930 . S
H1019 C991 0.930 . S
H1020 C1000 0.930 . S
H1021 C1012 0.929 . S
H1022 C1015 0.930 . S
C1023 C1024 1.351 . S
C1023 N1026 1.368 . S
C1023 H1028 0.931 . S
C1024 C1023 1.351 . S
C1024 N1025 1.373 . S
C1024 H1052 0.930 . S
N1025 C1024 1.373 . S
N1025 C1027 1.340 . S
N1026 C1023 1.368 . S
N1026 C1027 1.321 . S
N1026 Co1029 2.135 . S
C1027 N1025 1.340 . S
C1027 N1026 1.321 . S
C1027 H1051 0.930 . S
H1028 C1023 0.931 . S
Co1029 N1026 2.135 . S
Co1029 N1032 2.121 . S
Co1029 O1037 2.055 . S
Co1029 O1040 2.039 . S
Co1029 N1043 2.140 . S
C1030 O1031 1.227 . S
C1030 O1040 1.265 . S
O1031 C1030 1.227 . S
N1032 Co1029 2.121 . S
N1032 C1034 1.375 . S
N1032 C1035 1.313 . S
C1033 C1034 1.338 . S
C1033 N1036 1.377 . S
C1033 H1053 0.930 . S
C1034 N1032 1.375 . S
C1034 C1033 1.338 . S
C1034 H1038 0.931 . S
C1035 N1032 1.313 . S
C1035 N1036 1.344 . S
C1035 H1039 0.930 . S
N1036 C1033 1.377 . S
N1036 C1035 1.344 . S
O1037 Co1029 2.055 . S
O1037 C1041 1.253 . S
H1038 C1034 0.931 . S
H1039 C1035 0.930 . S
O1040 Co1029 2.039 . S
O1040 C1030 1.265 . S
C1041 O1037 1.253 . S
C1041 O1042 1.227 . S
O1042 C1041 1.227 . S
N1043 Co1029 2.140 . S
N1043 C1046 1.346 . S
N1043 C1047 1.345 . S
C1044 C1045 1.387 . S
C1044 C1048 1.391 . S
C1045 C1044 1.387 . S
C1045 C1046 1.369 . S
C1045 H1054 0.929 . S
C1046 N1043 1.346 . S
C1046 C1045 1.369 . S
C1046 H1049 0.928 . S
C1047 N1043 1.345 . S
C1047 C1048 1.371 . S
C1047 H1050 0.931 . S
C1048 C1044 1.391 . S
C1048 C1047 1.371 . S
C1048 H1055 0.930 . S
H1049 C1046 0.928 . S
H1050 C1047 0.931 . S
H1051 C1027 0.930 . S
H1052 C1024 0.930 . S
H1053 C1033 0.930 . S
H1054 C1045 0.929 . S
H1055 C1048 0.930 . S
C1056 C1057 1.351 . S
C1056 N1059 1.368 . S
C1056 H1061 0.931 . S
C1057 C1056 1.351 . S
C1057 N1058 1.373 . S
C1057 H1085 0.930 . S
N1058 C1057 1.373 . S
N1058 C1060 1.340 . S
N1059 C1056 1.368 . S
N1059 C1060 1.321 . S
N1059 Co1062 2.135 . S
C1060 N1058 1.340 . S
C1060 N1059 1.321 . S
C1060 H1084 0.930 . S
H1061 C1056 0.931 . S
Co1062 N1059 2.135 . S
Co1062 N1065 2.121 . S
Co1062 O1070 2.055 . S
Co1062 O1073 2.039 . S
Co1062 N1076 2.140 . S
C1063 O1064 1.227 . S
C1063 O1073 1.265 . S
O1064 C1063 1.227 . S
N1065 Co1062 2.121 . S
N1065 C1067 1.375 . S
N1065 C1068 1.313 . S
C1066 C1067 1.338 . S
C1066 N1069 1.377 . S
C1066 H1086 0.930 . S
C1067 N1065 1.375 . S
C1067 C1066 1.338 . S
C1067 H1071 0.931 . S
C1068 N1065 1.313 . S
C1068 N1069 1.344 . S
C1068 H1072 0.930 . S
N1069 C1066 1.377 . S
N1069 C1068 1.344 . S
O1070 Co1062 2.055 . S
O1070 C1074 1.253 . S
H1071 C1067 0.931 . S
H1072 C1068 0.930 . S
O1073 Co1062 2.039 . S
O1073 C1063 1.265 . S
C1074 O1070 1.253 . S
C1074 O1075 1.227 . S
O1075 C1074 1.227 . S
N1076 Co1062 2.140 . S
N1076 C1079 1.346 . S
N1076 C1080 1.345 . S
C1077 C1078 1.387 . S
C1077 C1081 1.391 . S
C1078 C1077 1.387 . S
C1078 C1079 1.369 . S
C1078 H1087 0.929 . S
C1079 N1076 1.346 . S
C1079 C1078 1.369 . S
C1079 H1082 0.928 . S
C1080 N1076 1.345 . S
C1080 C1081 1.371 . S
C1080 H1083 0.931 . S
C1081 C1077 1.391 . S
C1081 C1080 1.371 . S
C1081 H1088 0.930 . S
H1082 C1079 0.928 . S
H1083 C1080 0.931 . S
H1084 C1060 0.930 . S
H1085 C1057 0.930 . S
H1086 C1066 0.930 . S
H1087 C1078 0.929 . S
H1088 C1081 0.930 . S
C1089 C1090 1.351 . S
C1089 N1092 1.368 . S
C1089 H1094 0.931 . S
C1090 C1089 1.351 . S
C1090 N1091 1.373 . S
C1090 H1118 0.930 . S
N1091 C1090 1.373 . S
N1091 C1093 1.340 . S
N1092 C1089 1.368 . S
N1092 C1093 1.321 . S
N1092 Co1095 2.135 . S
C1093 N1091 1.340 . S
C1093 N1092 1.321 . S
C1093 H1117 0.930 . S
H1094 C1089 0.931 . S
Co1095 N1092 2.135 . S
Co1095 N1098 2.121 . S
Co1095 O1103 2.055 . S
Co1095 O1106 2.039 . S
Co1095 N1109 2.140 . S
C1096 O1097 1.227 . S
C1096 O1106 1.265 . S
O1097 C1096 1.227 . S
N1098 Co1095 2.121 . S
N1098 C1100 1.375 . S
N1098 C1101 1.313 . S
C1099 C1100 1.338 . S
C1099 N1102 1.377 . S
C1099 H1119 0.930 . S
C1100 N1098 1.375 . S
C1100 C1099 1.338 . S
C1100 H1104 0.931 . S
C1101 N1098 1.313 . S
C1101 N1102 1.344 . S
C1101 H1105 0.930 . S
N1102 C1099 1.377 . S
N1102 C1101 1.344 . S
O1103 Co1095 2.055 . S
O1103 C1107 1.253 . S
H1104 C1100 0.931 . S
H1105 C1101 0.930 . S
O1106 Co1095 2.039 . S
O1106 C1096 1.265 . S
C1107 O1103 1.253 . S
C1107 O1108 1.227 . S
O1108 C1107 1.227 . S
N1109 Co1095 2.140 . S
N1109 C1112 1.346 . S
N1109 C1113 1.345 . S
C1110 C1111 1.387 . S
C1110 C1114 1.391 . S
C1111 C1110 1.387 . S
C1111 C1112 1.369 . S
C1111 H1120 0.929 . S
C1112 N1109 1.346 . S
C1112 C1111 1.369 . S
C1112 H1115 0.928 . S
C1113 N1109 1.345 . S
C1113 C1114 1.371 . S
C1113 H1116 0.931 . S
C1114 C1110 1.391 . S
C1114 C1113 1.371 . S
C1114 H1121 0.930 . S
H1115 C1112 0.928 . S
H1116 C1113 0.931 . S
H1117 C1093 0.930 . S
H1118 C1090 0.930 . S
H1119 C1099 0.930 . S
H1120 C1111 0.929 . S
H1121 C1114 0.930 . S
C1122 C1123 1.351 . S
C1122 N1125 1.368 . S
C1122 H1127 0.931 . S
C1123 C1122 1.351 . S
C1123 N1124 1.373 . S
C1123 H1151 0.930 . S
N1124 C1123 1.373 . S
N1124 C1126 1.340 . S
N1125 C1122 1.368 . S
N1125 C1126 1.321 . S
N1125 Co1128 2.135 . S
C1126 N1124 1.340 . S
C1126 N1125 1.321 . S
C1126 H1150 0.930 . S
H1127 C1122 0.931 . S
Co1128 N1125 2.135 . S
Co1128 N1131 2.121 . S
Co1128 O1136 2.055 . S
Co1128 O1139 2.039 . S
Co1128 N1142 2.140 . S
C1129 O1130 1.227 . S
C1129 O1139 1.265 . S
O1130 C1129 1.227 . S
N1131 Co1128 2.121 . S
N1131 C1133 1.375 . S
N1131 C1134 1.313 . S
C1132 C1133 1.338 . S
C1132 N1135 1.377 . S
C1132 H1152 0.930 . S
C1133 N1131 1.375 . S
C1133 C1132 1.338 . S
C1133 H1137 0.931 . S
C1134 N1131 1.313 . S
C1134 N1135 1.344 . S
C1134 H1138 0.930 . S
N1135 C1132 1.377 . S
N1135 C1134 1.344 . S
O1136 Co1128 2.055 . S
O1136 C1140 1.253 . S
H1137 C1133 0.931 . S
H1138 C1134 0.930 . S
O1139 Co1128 2.039 . S
O1139 C1129 1.265 . S
C1140 O1136 1.253 . S
C1140 O1141 1.227 . S
O1141 C1140 1.227 . S
N1142 Co1128 2.140 . S
N1142 C1145 1.346 . S
N1142 C1146 1.345 . S
C1143 C1144 1.387 . S
C1143 C1147 1.391 . S
C1144 C1143 1.387 . S
C1144 C1145 1.369 . S
C1144 H1153 0.929 . S
C1145 N1142 1.346 . S
C1145 C1144 1.369 . S
C1145 H1148 0.928 . S
C1146 N1142 1.345 . S
C1146 C1147 1.371 . S
C1146 H1149 0.931 . S
C1147 C1143 1.391 . S
C1147 C1146 1.371 . S
C1147 H1154 0.930 . S
H1148 C1145 0.928 . S
H1149 C1146 0.931 . S
H1150 C1126 0.930 . S
H1151 C1123 0.930 . S
H1152 C1132 0.930 . S
H1153 C1144 0.929 . S
H1154 C1147 0.930 . S
C1155 C1156 1.351 . S
C1155 N1158 1.368 . S
C1155 H1160 0.931 . S
C1156 C1155 1.351 . S
C1156 N1157 1.373 . S
C1156 H1184 0.930 . S
N1157 C1156 1.373 . S
N1157 C1159 1.340 . S
N1158 C1155 1.368 . S
N1158 C1159 1.321 . S
N1158 Co1161 2.135 . S
C1159 N1157 1.340 . S
C1159 N1158 1.321 . S
C1159 H1183 0.930 . S
H1160 C1155 0.931 . S
Co1161 N1158 2.135 . S
Co1161 N1164 2.121 . S
Co1161 O1169 2.055 . S
Co1161 O1172 2.039 . S
Co1161 N1175 2.140 . S
C1162 O1163 1.227 . S
C1162 O1172 1.265 . S
O1163 C1162 1.227 . S
N1164 Co1161 2.121 . S
N1164 C1166 1.375 . S
N1164 C1167 1.313 . S
C1165 C1166 1.338 . S
C1165 N1168 1.377 . S
C1165 H1185 0.930 . S
C1166 N1164 1.375 . S
C1166 C1165 1.338 . S
C1166 H1170 0.931 . S
C1167 N1164 1.313 . S
C1167 N1168 1.344 . S
C1167 H1171 0.930 . S
N1168 C1165 1.377 . S
N1168 C1167 1.344 . S
O1169 Co1161 2.055 . S
O1169 C1173 1.253 . S
H1170 C1166 0.931 . S
H1171 C1167 0.930 . S
O1172 Co1161 2.039 . S
O1172 C1162 1.265 . S
C1173 O1169 1.253 . S
C1173 O1174 1.227 . S
O1174 C1173 1.227 . S
N1175 Co1161 2.140 . S
N1175 C1178 1.346 . S
N1175 C1179 1.345 . S
C1176 C1177 1.387 . S
C1176 C1180 1.391 . S
C1177 C1176 1.387 . S
C1177 C1178 1.369 . S
C1177 H1186 0.929 . S
C1178 N1175 1.346 . S
C1178 C1177 1.369 . S
C1178 H1181 0.928 . S
C1179 N1175 1.345 . S
C1179 C1180 1.371 . S
C1179 H1182 0.931 . S
C1180 C1176 1.391 . S
C1180 C1179 1.371 . S
C1180 H1187 0.930 . S
H1181 C1178 0.928 . S
H1182 C1179 0.931 . S
H1183 C1159 0.930 . S
H1184 C1156 0.930 . S
H1185 C1165 0.930 . S
H1186 C1177 0.929 . S
H1187 C1180 0.930 . S
C1188 C1189 1.351 . S
C1188 N1191 1.368 . S
C1188 H1193 0.931 . S
C1189 C1188 1.351 . S
C1189 N1190 1.373 . S
C1189 H1217 0.930 . S
N1190 C1189 1.373 . S
N1190 C1192 1.340 . S
N1191 C1188 1.368 . S
N1191 C1192 1.321 . S
N1191 Co1194 2.135 . S
C1192 N1190 1.340 . S
C1192 N1191 1.321 . S
C1192 H1216 0.930 . S
H1193 C1188 0.931 . S
Co1194 N1191 2.135 . S
Co1194 N1197 2.121 . S
Co1194 O1202 2.055 . S
Co1194 O1205 2.039 . S
Co1194 N1208 2.140 . S
C1195 O1196 1.227 . S
C1195 O1205 1.265 . S
O1196 C1195 1.227 . S
N1197 Co1194 2.121 . S
N1197 C1199 1.375 . S
N1197 C1200 1.313 . S
C1198 C1199 1.338 . S
C1198 N1201 1.377 . S
C1198 H1218 0.930 . S
C1199 N1197 1.375 . S
C1199 C1198 1.338 . S
C1199 H1203 0.931 . S
C1200 N1197 1.313 . S
C1200 N1201 1.344 . S
C1200 H1204 0.930 . S
N1201 C1198 1.377 . S
N1201 C1200 1.344 . S
O1202 Co1194 2.055 . S
O1202 C1206 1.253 . S
H1203 C1199 0.931 . S
H1204 C1200 0.930 . S
O1205 Co1194 2.039 . S
O1205 C1195 1.265 . S
C1206 O1202 1.253 . S
C1206 O1207 1.227 . S
O1207 C1206 1.227 . S
N1208 Co1194 2.140 . S
N1208 C1211 1.346 . S
N1208 C1212 1.345 . S
C1209 C1210 1.387 . S
C1209 C1213 1.391 . S
C1210 C1209 1.387 . S
C1210 C1211 1.369 . S
C1210 H1219 0.929 . S
C1211 N1208 1.346 . S
C1211 C1210 1.369 . S
C1211 H1214 0.928 . S
C1212 N1208 1.345 . S
C1212 C1213 1.371 . S
C1212 H1215 0.931 . S
C1213 C1209 1.391 . S
C1213 C1212 1.371 . S
C1213 H1220 0.930 . S
H1214 C1211 0.928 . S
H1215 C1212 0.931 . S
H1216 C1192 0.930 . S
H1217 C1189 0.930 . S
H1218 C1198 0.930 . S
H1219 C1210 0.929 . S
H1220 C1213 0.930 . S
C1221 C1222 1.351 . S
C1221 N1224 1.368 . S
C1221 H1226 0.931 . S
C1222 C1221 1.351 . S
C1222 N1223 1.373 . S
C1222 H1250 0.930 . S
N1223 C1222 1.373 . S
N1223 C1225 1.340 . S
N1224 C1221 1.368 . S
N1224 C1225 1.321 . S
N1224 Co1227 2.135 . S
C1225 N1223 1.340 . S
C1225 N1224 1.321 . S
C1225 H1249 0.930 . S
H1226 C1221 0.931 . S
Co1227 N1224 2.135 . S
Co1227 N1230 2.121 . S
Co1227 O1235 2.055 . S
Co1227 O1238 2.039 . S
Co1227 N1241 2.140 . S
C1228 O1229 1.227 . S
C1228 O1238 1.265 . S
O1229 C1228 1.227 . S
N1230 Co1227 2.121 . S
N1230 C1232 1.375 . S
N1230 C1233 1.313 . S
C1231 C1232 1.338 . S
C1231 N1234 1.377 . S
C1231 H1251 0.930 . S
C1232 N1230 1.375 . S
C1232 C1231 1.338 . S
C1232 H1236 0.931 . S
C1233 N1230 1.313 . S
C1233 N1234 1.344 . S
C1233 H1237 0.930 . S
N1234 C1231 1.377 . S
N1234 C1233 1.344 . S
O1235 Co1227 2.055 . S
O1235 C1239 1.253 . S
H1236 C1232 0.931 . S
H1237 C1233 0.930 . S
O1238 Co1227 2.039 . S
O1238 C1228 1.265 . S
C1239 O1235 1.253 . S
C1239 O1240 1.227 . S
O1240 C1239 1.227 . S
N1241 Co1227 2.140 . S
N1241 C1244 1.346 . S
N1241 C1245 1.345 . S
C1242 C1243 1.387 . S
C1242 C1246 1.391 . S
C1243 C1242 1.387 . S
C1243 C1244 1.369 . S
C1243 H1252 0.929 . S
C1244 N1241 1.346 . S
C1244 C1243 1.369 . S
C1244 H1247 0.928 . S
C1245 N1241 1.345 . S
C1245 C1246 1.371 . S
C1245 H1248 0.931 . S
C1246 C1242 1.391 . S
C1246 C1245 1.371 . S
C1246 H1253 0.930 . S
H1247 C1244 0.928 . S
H1248 C1245 0.931 . S
H1249 C1225 0.930 . S
H1250 C1222 0.930 . S
H1251 C1231 0.930 . S
H1252 C1243 0.929 . S
H1253 C1246 0.930 . S
C1254 C1255 1.351 . S
C1254 N1257 1.368 . S
C1254 H1259 0.931 . S
C1255 C1254 1.351 . S
C1255 N1256 1.373 . S
C1255 H1283 0.930 . S
N1256 C1255 1.373 . S
N1256 C1258 1.340 . S
N1257 C1254 1.368 . S
N1257 C1258 1.321 . S
N1257 Co1260 2.135 . S
C1258 N1256 1.340 . S
C1258 N1257 1.321 . S
C1258 H1282 0.930 . S
H1259 C1254 0.931 . S
Co1260 N1257 2.135 . S
Co1260 N1263 2.121 . S
Co1260 O1268 2.055 . S
Co1260 O1271 2.039 . S
Co1260 N1274 2.140 . S
C1261 O1262 1.227 . S
C1261 O1271 1.265 . S
O1262 C1261 1.227 . S
N1263 Co1260 2.121 . S
N1263 C1265 1.375 . S
N1263 C1266 1.313 . S
C1264 C1265 1.338 . S
C1264 N1267 1.377 . S
C1264 H1284 0.930 . S
C1265 N1263 1.375 . S
C1265 C1264 1.338 . S
C1265 H1269 0.931 . S
C1266 N1263 1.313 . S
C1266 N1267 1.344 . S
C1266 H1270 0.930 . S
N1267 C1264 1.377 . S
N1267 C1266 1.344 . S
O1268 Co1260 2.055 . S
O1268 C1272 1.253 . S
H1269 C1265 0.931 . S
H1270 C1266 0.930 . S
O1271 Co1260 2.039 . S
O1271 C1261 1.265 . S
C1272 O1268 1.253 . S
C1272 O1273 1.227 . S
O1273 C1272 1.227 . S
N1274 Co1260 2.140 . S
N1274 C1277 1.346 . S
N1274 C1278 1.345 . S
C1275 C1276 1.387 . S
C1275 C1279 1.391 . S
C1276 C1275 1.387 . S
C1276 C1277 1.369 . S
C1276 H1285 0.929 . S
C1277 N1274 1.346 . S
C1277 C1276 1.369 . S
C1277 H1280 0.928 . S
C1278 N1274 1.345 . S
C1278 C1279 1.371 . S
C1278 H1281 0.931 . S
C1279 C1275 1.391 . S
C1279 C1278 1.371 . S
C1279 H1286 0.930 . S
H1280 C1277 0.928 . S
H1281 C1278 0.931 . S
H1282 C1258 0.930 . S
H1283 C1255 0.930 . S
H1284 C1264 0.930 . S
H1285 C1276 0.929 . S
H1286 C1279 0.930 . S
C1287 C1288 1.351 . S
C1287 N1290 1.368 . S
C1287 H1292 0.931 . S
C1288 C1287 1.351 . S
C1288 N1289 1.373 . S
C1288 H1316 0.930 . S
N1289 C1288 1.373 . S
N1289 C1291 1.340 . S
N1290 C1287 1.368 . S
N1290 C1291 1.321 . S
N1290 Co1293 2.135 . S
C1291 N1289 1.340 . S
C1291 N1290 1.321 . S
C1291 H1315 0.930 . S
H1292 C1287 0.931 . S
Co1293 N1290 2.135 . S
Co1293 N1296 2.121 . S
Co1293 O1301 2.055 . S
Co1293 O1304 2.039 . S
Co1293 N1307 2.140 . S
C1294 O1295 1.227 . S
C1294 O1304 1.265 . S
O1295 C1294 1.227 . S
N1296 Co1293 2.121 . S
N1296 C1298 1.375 . S
N1296 C1299 1.313 . S
C1297 C1298 1.338 . S
C1297 N1300 1.377 . S
C1297 H1317 0.930 . S
C1298 N1296 1.375 . S
C1298 C1297 1.338 . S
C1298 H1302 0.931 . S
C1299 N1296 1.313 . S
C1299 N1300 1.344 . S
C1299 H1303 0.930 . S
N1300 C1297 1.377 . S
N1300 C1299 1.344 . S
O1301 Co1293 2.055 . S
O1301 C1305 1.253 . S
H1302 C1298 0.931 . S
H1303 C1299 0.930 . S
O1304 Co1293 2.039 . S
O1304 C1294 1.265 . S
C1305 O1301 1.253 . S
C1305 O1306 1.227 . S
O1306 C1305 1.227 . S
N1307 Co1293 2.140 . S
N1307 C1310 1.346 . S
N1307 C1311 1.345 . S
C1308 C1309 1.387 . S
C1308 C1312 1.391 . S
C1309 C1308 1.387 . S
C1309 C1310 1.369 . S
C1309 H1318 0.929 . S
C1310 N1307 1.346 . S
C1310 C1309 1.369 . S
C1310 H1313 0.928 . S
C1311 N1307 1.345 . S
C1311 C1312 1.371 . S
C1311 H1314 0.931 . S
C1312 C1308 1.391 . S
C1312 C1311 1.371 . S
C1312 H1319 0.930 . S
H1313 C1310 0.928 . S
H1314 C1311 0.931 . S
H1315 C1291 0.930 . S
H1316 C1288 0.930 . S
H1317 C1297 0.930 . S
H1318 C1309 0.929 . S
H1319 C1312 0.930 . S
C1320 C1321 1.351 . S
C1320 N1323 1.368 . S
C1320 H1325 0.931 . S
C1321 C1320 1.351 . S
C1321 N1322 1.373 . S
C1321 H1349 0.930 . S
N1322 C1321 1.373 . S
N1322 C1324 1.340 . S
N1323 C1320 1.368 . S
N1323 C1324 1.321 . S
N1323 Co1326 2.135 . S
C1324 N1322 1.340 . S
C1324 N1323 1.321 . S
C1324 H1348 0.930 . S
H1325 C1320 0.931 . S
Co1326 N1323 2.135 . S
Co1326 N1329 2.121 . S
Co1326 O1334 2.055 . S
Co1326 O1337 2.039 . S
Co1326 N1340 2.140 . S
C1327 O1328 1.227 . S
C1327 O1337 1.265 . S
O1328 C1327 1.227 . S
N1329 Co1326 2.121 . S
N1329 C1331 1.375 . S
N1329 C1332 1.313 . S
C1330 C1331 1.338 . S
C1330 N1333 1.377 . S
C1330 H1350 0.930 . S
C1331 N1329 1.375 . S
C1331 C1330 1.338 . S
C1331 H1335 0.931 . S
C1332 N1329 1.313 . S
C1332 N1333 1.344 . S
C1332 H1336 0.930 . S
N1333 C1330 1.377 . S
N1333 C1332 1.344 . S
O1334 Co1326 2.055 . S
O1334 C1338 1.253 . S
H1335 C1331 0.931 . S
H1336 C1332 0.930 . S
O1337 Co1326 2.039 . S
O1337 C1327 1.265 . S
C1338 O1334 1.253 . S
C1338 O1339 1.227 . S
O1339 C1338 1.227 . S
N1340 Co1326 2.140 . S
N1340 C1343 1.346 . S
N1340 C1344 1.345 . S
C1341 C1342 1.387 . S
C1341 C1345 1.391 . S
C1342 C1341 1.387 . S
C1342 C1343 1.369 . S
C1342 H1351 0.929 . S
C1343 N1340 1.346 . S
C1343 C1342 1.369 . S
C1343 H1346 0.928 . S
C1344 N1340 1.345 . S
C1344 C1345 1.371 . S
C1344 H1347 0.931 . S
C1345 C1341 1.391 . S
C1345 C1344 1.371 . S
C1345 H1352 0.930 . S
H1346 C1343 0.928 . S
H1347 C1344 0.931 . S
H1348 C1324 0.930 . S
H1349 C1321 0.930 . S
H1350 C1330 0.930 . S
H1351 C1342 0.929 . S
H1352 C1345 0.930 . S
C1353 C1354 1.351 . S
C1353 N1356 1.368 . S
C1353 H1358 0.931 . S
C1354 C1353 1.351 . S
C1354 N1355 1.373 . S
C1354 H1382 0.930 . S
N1355 C1354 1.373 . S
N1355 C1357 1.340 . S
N1356 C1353 1.368 . S
N1356 C1357 1.321 . S
N1356 Co1359 2.135 . S
C1357 N1355 1.340 . S
C1357 N1356 1.321 . S
C1357 H1381 0.930 . S
H1358 C1353 0.931 . S
Co1359 N1356 2.135 . S
Co1359 N1362 2.121 . S
Co1359 O1367 2.055 . S
Co1359 O1370 2.039 . S
Co1359 N1373 2.140 . S
C1360 O1361 1.227 . S
C1360 O1370 1.265 . S
O1361 C1360 1.227 . S
N1362 Co1359 2.121 . S
N1362 C1364 1.375 . S
N1362 C1365 1.313 . S
C1363 C1364 1.338 . S
C1363 N1366 1.377 . S
C1363 H1383 0.930 . S
C1364 N1362 1.375 . S
C1364 C1363 1.338 . S
C1364 H1368 0.931 . S
C1365 N1362 1.313 . S
C1365 N1366 1.344 . S
C1365 H1369 0.930 . S
N1366 C1363 1.377 . S
N1366 C1365 1.344 . S
O1367 Co1359 2.055 . S
O1367 C1371 1.253 . S
H1368 C1364 0.931 . S
H1369 C1365 0.930 . S
O1370 Co1359 2.039 . S
O1370 C1360 1.265 . S
C1371 O1367 1.253 . S
C1371 O1372 1.227 . S
O1372 C1371 1.227 . S
N1373 Co1359 2.140 . S
N1373 C1376 1.346 . S
N1373 C1377 1.345 . S
C1374 C1375 1.387 . S
C1374 C1378 1.391 . S
C1375 C1374 1.387 . S
C1375 C1376 1.369 . S
C1375 H1384 0.929 . S
C1376 N1373 1.346 . S
C1376 C1375 1.369 . S
C1376 H1379 0.928 . S
C1377 N1373 1.345 . S
C1377 C1378 1.371 . S
C1377 H1380 0.931 . S
C1378 C1374 1.391 . S
C1378 C1377 1.371 . S
C1378 H1385 0.930 . S
H1379 C1376 0.928 . S
H1380 C1377 0.931 . S
H1381 C1357 0.930 . S
H1382 C1354 0.930 . S
H1383 C1363 0.930 . S
H1384 C1375 0.929 . S
H1385 C1378 0.930 . S
C1386 C1387 1.351 . S
C1386 N1389 1.368 . S
C1386 H1391 0.931 . S
C1387 C1386 1.351 . S
C1387 N1388 1.373 . S
C1387 H1415 0.930 . S
N1388 C1387 1.373 . S
N1388 C1390 1.340 . S
N1389 C1386 1.368 . S
N1389 C1390 1.321 . S
N1389 Co1392 2.135 . S
C1390 N1388 1.340 . S
C1390 N1389 1.321 . S
C1390 H1414 0.930 . S
H1391 C1386 0.931 . S
Co1392 N1389 2.135 . S
Co1392 N1395 2.121 . S
Co1392 O1400 2.055 . S
Co1392 O1403 2.039 . S
Co1392 N1406 2.140 . S
C1393 O1394 1.227 . S
C1393 O1403 1.265 . S
O1394 C1393 1.227 . S
N1395 Co1392 2.121 . S
N1395 C1397 1.375 . S
N1395 C1398 1.313 . S
C1396 C1397 1.338 . S
C1396 N1399 1.377 . S
C1396 H1416 0.930 . S
C1397 N1395 1.375 . S
C1397 C1396 1.338 . S
C1397 H1401 0.931 . S
C1398 N1395 1.313 . S
C1398 N1399 1.344 . S
C1398 H1402 0.930 . S
N1399 C1396 1.377 . S
N1399 C1398 1.344 . S
O1400 Co1392 2.055 . S
O1400 C1404 1.253 . S
H1401 C1397 0.931 . S
H1402 C1398 0.930 . S
O1403 Co1392 2.039 . S
O1403 C1393 1.265 . S
C1404 O1400 1.253 . S
C1404 O1405 1.227 . S
O1405 C1404 1.227 . S
N1406 Co1392 2.140 . S
N1406 C1409 1.346 . S
N1406 C1410 1.345 . S
C1407 C1408 1.387 . S
C1407 C1411 1.391 . S
C1408 C1407 1.387 . S
C1408 C1409 1.369 . S
C1408 H1417 0.929 . S
C1409 N1406 1.346 . S
C1409 C1408 1.369 . S
C1409 H1412 0.928 . S
C1410 N1406 1.345 . S
C1410 C1411 1.371 . S
C1410 H1413 0.931 . S
C1411 C1407 1.391 . S
C1411 C1410 1.371 . S
C1411 H1418 0.930 . S
H1412 C1409 0.928 . S
H1413 C1410 0.931 . S
H1414 C1390 0.930 . S
H1415 C1387 0.930 . S
H1416 C1396 0.930 . S
H1417 C1408 0.929 . S
H1418 C1411 0.930 . S
C1419 C1420 1.351 . S
C1419 N1422 1.368 . S
C1419 H1424 0.931 . S
C1420 C1419 1.351 . S
C1420 N1421 1.373 . S
C1420 H1448 0.930 . S
N1421 C1420 1.373 . S
N1421 C1423 1.340 . S
N1422 C1419 1.368 . S
N1422 C1423 1.321 . S
N1422 Co1425 2.135 . S
C1423 N1421 1.340 . S
C1423 N1422 1.321 . S
C1423 H1447 0.930 . S
H1424 C1419 0.931 . S
Co1425 N1422 2.135 . S
Co1425 N1428 2.121 . S
Co1425 O1433 2.055 . S
Co1425 O1436 2.039 . S
Co1425 N1439 2.140 . S
C1426 O1427 1.227 . S
C1426 O1436 1.265 . S
O1427 C1426 1.227 . S
N1428 Co1425 2.121 . S
N1428 C1430 1.375 . S
N1428 C1431 1.313 . S
C1429 C1430 1.338 . S
C1429 N1432 1.377 . S
C1429 H1449 0.930 . S
C1430 N1428 1.375 . S
C1430 C1429 1.338 . S
C1430 H1434 0.931 . S
C1431 N1428 1.313 . S
C1431 N1432 1.344 . S
C1431 H1435 0.930 . S
N1432 C1429 1.377 . S
N1432 C1431 1.344 . S
O1433 Co1425 2.055 . S
O1433 C1437 1.253 . S
H1434 C1430 0.931 . S
H1435 C1431 0.930 . S
O1436 Co1425 2.039 . S
O1436 C1426 1.265 . S
C1437 O1433 1.253 . S
C1437 O1438 1.227 . S
O1438 C1437 1.227 . S
N1439 Co1425 2.140 . S
N1439 C1442 1.346 . S
N1439 C1443 1.345 . S
C1440 C1441 1.387 . S
C1440 C1444 1.391 . S
C1441 C1440 1.387 . S
C1441 C1442 1.369 . S
C1441 H1450 0.929 . S
C1442 N1439 1.346 . S
C1442 C1441 1.369 . S
C1442 H1445 0.928 . S
C1443 N1439 1.345 . S
C1443 C1444 1.371 . S
C1443 H1446 0.931 . S
C1444 C1440 1.391 . S
C1444 C1443 1.371 . S
C1444 H1451 0.930 . S
H1445 C1442 0.928 . S
H1446 C1443 0.931 . S
H1447 C1423 0.930 . S
H1448 C1420 0.930 . S
H1449 C1429 0.930 . S
H1450 C1441 0.929 . S
H1451 C1444 0.930 . S
C1452 C1453 1.351 . S
C1452 N1455 1.368 . S
C1452 H1457 0.931 . S
C1453 C1452 1.351 . S
C1453 N1454 1.373 . S
C1453 H1481 0.930 . S
N1454 C1453 1.373 . S
N1454 C1456 1.340 . S
N1455 C1452 1.368 . S
N1455 C1456 1.321 . S
N1455 Co1458 2.135 . S
C1456 N1454 1.340 . S
C1456 N1455 1.321 . S
C1456 H1480 0.930 . S
H1457 C1452 0.931 . S
Co1458 N1455 2.135 . S
Co1458 N1461 2.121 . S
Co1458 O1466 2.055 . S
Co1458 O1469 2.039 . S
Co1458 N1472 2.140 . S
C1459 O1460 1.227 . S
C1459 O1469 1.265 . S
O1460 C1459 1.227 . S
N1461 Co1458 2.121 . S
N1461 C1463 1.375 . S
N1461 C1464 1.313 . S
C1462 C1463 1.338 . S
C1462 N1465 1.377 . S
C1462 H1482 0.930 . S
C1463 N1461 1.375 . S
C1463 C1462 1.338 . S
C1463 H1467 0.931 . S
C1464 N1461 1.313 . S
C1464 N1465 1.344 . S
C1464 H1468 0.930 . S
N1465 C1462 1.377 . S
N1465 C1464 1.344 . S
O1466 Co1458 2.055 . S
O1466 C1470 1.253 . S
H1467 C1463 0.931 . S
H1468 C1464 0.930 . S
O1469 Co1458 2.039 . S
O1469 C1459 1.265 . S
C1470 O1466 1.253 . S
C1470 O1471 1.227 . S
O1471 C1470 1.227 . S
N1472 Co1458 2.140 . S
N1472 C1475 1.346 . S
N1472 C1476 1.345 . S
C1473 C1474 1.387 . S
C1473 C1477 1.391 . S
C1474 C1473 1.387 . S
C1474 C1475 1.369 . S
C1474 H1483 0.929 . S
C1475 N1472 1.346 . S
C1475 C1474 1.369 . S
C1475 H1478 0.928 . S
C1476 N1472 1.345 . S
C1476 C1477 1.371 . S
C1476 H1479 0.931 . S
C1477 C1473 1.391 . S
C1477 C1476 1.371 . S
C1477 H1484 0.930 . S
H1478 C1475 0.928 . S
H1479 C1476 0.931 . S
H1480 C1456 0.930 . S
H1481 C1453 0.930 . S
H1482 C1462 0.930 . S
H1483 C1474 0.929 . S
H1484 C1477 0.930 . S
C1485 C1486 1.351 . S
C1485 N1488 1.368 . S
C1485 H1490 0.931 . S
C1486 C1485 1.351 . S
C1486 N1487 1.373 . S
C1486 H1514 0.930 . S
N1487 C1486 1.373 . S
N1487 C1489 1.340 . S
N1488 C1485 1.368 . S
N1488 C1489 1.321 . S
N1488 Co1491 2.135 . S
C1489 N1487 1.340 . S
C1489 N1488 1.321 . S
C1489 H1513 0.930 . S
H1490 C1485 0.931 . S
Co1491 N1488 2.135 . S
Co1491 N1494 2.121 . S
Co1491 O1499 2.055 . S
Co1491 O1502 2.039 . S
Co1491 N1505 2.140 . S
C1492 O1493 1.227 . S
C1492 O1502 1.265 . S
O1493 C1492 1.227 . S
N1494 Co1491 2.121 . S
N1494 C1496 1.375 . S
N1494 C1497 1.313 . S
C1495 C1496 1.338 . S
C1495 N1498 1.377 . S
C1495 H1515 0.930 . S
C1496 N1494 1.375 . S
C1496 C1495 1.338 . S
C1496 H1500 0.931 . S
C1497 N1494 1.313 . S
C1497 N1498 1.344 . S
C1497 H1501 0.930 . S
N1498 C1495 1.377 . S
N1498 C1497 1.344 . S
O1499 Co1491 2.055 . S
O1499 C1503 1.253 . S
H1500 C1496 0.931 . S
H1501 C1497 0.930 . S
O1502 Co1491 2.039 . S
O1502 C1492 1.265 . S
C1503 O1499 1.253 . S
C1503 O1504 1.227 . S
O1504 C1503 1.227 . S
N1505 Co1491 2.140 . S
N1505 C1508 1.346 . S
N1505 C1509 1.345 . S
C1506 C1507 1.387 . S
C1506 C1510 1.391 . S
C1507 C1506 1.387 . S
C1507 C1508 1.369 . S
C1507 H1516 0.929 . S
C1508 N1505 1.346 . S
C1508 C1507 1.369 . S
C1508 H1511 0.928 . S
C1509 N1505 1.345 . S
C1509 C1510 1.371 . S
C1509 H1512 0.931 . S
C1510 C1506 1.391 . S
C1510 C1509 1.371 . S
C1510 H1517 0.930 . S
H1511 C1508 0.928 . S
H1512 C1509 0.931 . S
H1513 C1489 0.930 . S
H1514 C1486 0.930 . S
H1515 C1495 0.930 . S
H1516 C1507 0.929 . S
H1517 C1510 0.930 . S
C1518 C1519 1.351 . S
C1518 N1521 1.368 . S
C1518 H1523 0.931 . S
C1519 C1518 1.351 . S
C1519 N1520 1.373 . S
C1519 H1547 0.930 . S
N1520 C1519 1.373 . S
N1520 C1522 1.340 . S
N1521 C1518 1.368 . S
N1521 C1522 1.321 . S
N1521 Co1524 2.135 . S
C1522 N1520 1.340 . S
C1522 N1521 1.321 . S
C1522 H1546 0.930 . S
H1523 C1518 0.931 . S
Co1524 N1521 2.135 . S
Co1524 N1527 2.121 . S
Co1524 O1532 2.055 . S
Co1524 O1535 2.039 . S
Co1524 N1538 2.140 . S
C1525 O1526 1.227 . S
C1525 O1535 1.265 . S
O1526 C1525 1.227 . S
N1527 Co1524 2.121 . S
N1527 C1529 1.375 . S
N1527 C1530 1.313 . S
C1528 C1529 1.338 . S
C1528 N1531 1.377 . S
C1528 H1548 0.930 . S
C1529 N1527 1.375 . S
C1529 C1528 1.338 . S
C1529 H1533 0.931 . S
C1530 N1527 1.313 . S
C1530 N1531 1.344 . S
C1530 H1534 0.930 . S
N1531 C1528 1.377 . S
N1531 C1530 1.344 . S
O1532 Co1524 2.055 . S
O1532 C1536 1.253 . S
H1533 C1529 0.931 . S
H1534 C1530 0.930 . S
O1535 Co1524 2.039 . S
O1535 C1525 1.265 . S
C1536 O1532 1.253 . S
C1536 O1537 1.227 . S
O1537 C1536 1.227 . S
N1538 Co1524 2.140 . S
N1538 C1541 1.346 . S
N1538 C1542 1.345 . S
C1539 C1540 1.387 . S
C1539 C1543 1.391 . S
C1540 C1539 1.387 . S
C1540 C1541 1.369 . S
C1540 H1549 0.929 . S
C1541 N1538 1.346 . S
C1541 C1540 1.369 . S
C1541 H1544 0.928 . S
C1542 N1538 1.345 . S
C1542 C1543 1.371 . S
C1542 H1545 0.931 . S
C1543 C1539 1.391 . S
C1543 C1542 1.371 . S
C1543 H1550 0.930 . S
H1544 C1541 0.928 . S
H1545 C1542 0.931 . S
H1546 C1522 0.930 . S
H1547 C1519 0.930 . S
H1548 C1528 0.930 . S
H1549 C1540 0.929 . S
H1550 C1543 0.930 . S
C1551 C1552 1.351 . S
C1551 N1554 1.368 . S
C1551 H1556 0.931 . S
C1552 C1551 1.351 . S
C1552 N1553 1.373 . S
C1552 H1580 0.930 . S
N1553 C1552 1.373 . S
N1553 C1555 1.340 . S
N1554 C1551 1.368 . S
N1554 C1555 1.321 . S
N1554 Co1557 2.135 . S
C1555 N1553 1.340 . S
C1555 N1554 1.321 . S
C1555 H1579 0.930 . S
H1556 C1551 0.931 . S
Co1557 N1554 2.135 . S
Co1557 N1560 2.121 . S
Co1557 O1565 2.055 . S
Co1557 O1568 2.039 . S
Co1557 N1571 2.140 . S
C1558 O1559 1.227 . S
C1558 O1568 1.265 . S
O1559 C1558 1.227 . S
N1560 Co1557 2.121 . S
N1560 C1562 1.375 . S
N1560 C1563 1.313 . S
C1561 C1562 1.338 . S
C1561 N1564 1.377 . S
C1561 H1581 0.930 . S
C1562 N1560 1.375 . S
C1562 C1561 1.338 . S
C1562 H1566 0.931 . S
C1563 N1560 1.313 . S
C1563 N1564 1.344 . S
C1563 H1567 0.930 . S
N1564 C1561 1.377 . S
N1564 C1563 1.344 . S
O1565 Co1557 2.055 . S
O1565 C1569 1.253 . S
H1566 C1562 0.931 . S
H1567 C1563 0.930 . S
O1568 Co1557 2.039 . S
O1568 C1558 1.265 . S
C1569 O1565 1.253 . S
C1569 O1570 1.227 . S
O1570 C1569 1.227 . S
N1571 Co1557 2.140 . S
N1571 C1574 1.346 . S
N1571 C1575 1.345 . S
C1572 C1573 1.387 . S
C1572 C1576 1.391 . S
C1573 C1572 1.387 . S
C1573 C1574 1.369 . S
C1573 H1582 0.929 . S
C1574 N1571 1.346 . S
C1574 C1573 1.369 . S
C1574 H1577 0.928 . S
C1575 N1571 1.345 . S
C1575 C1576 1.371 . S
C1575 H1578 0.931 . S
C1576 C1572 1.391 . S
C1576 C1575 1.371 . S
C1576 H1583 0.930 . S
H1577 C1574 0.928 . S
H1578 C1575 0.931 . S
H1579 C1555 0.930 . S
H1580 C1552 0.930 . S
H1581 C1561 0.930 . S
H1582 C1573 0.929 . S
H1583 C1576 0.930 . S
C1584 C1585 1.387 . S
C1584 H1588 0.950 . S
C1584 C1593 1.390 . S
C1585 C1584 1.387 . S
C1585 C1587 1.387 . S
H1586 C1593 0.950 . S
C1587 C1585 1.387 . S
C1587 C1589 1.390 . S
C1587 H1591 0.950 . S
H1588 C1584 0.950 . S
C1589 C1587 1.390 . S
C1589 C1590 1.387 . S
C1589 H1592 0.950 . S
C1590 C1589 1.387 . S
C1590 C1593 1.387 . S
H1591 C1587 0.950 . S
H1592 C1589 0.950 . S
C1593 C1584 1.390 . S
C1593 H1586 0.950 . S
C1593 C1590 1.387 . S
C1594 C1595 1.387 . S
C1594 H1598 0.950 . S
C1594 C1603 1.390 . S
C1595 C1594 1.387 . S
C1595 C1597 1.387 . S
H1596 C1603 0.950 1_556 S
C1597 C1595 1.387 . S
C1597 C1599 1.390 . S
C1597 H1601 0.950 . S
H1598 C1594 0.950 . S
C1599 C1597 1.390 . S
C1599 C1600 1.387 . S
C1599 H1602 0.950 . S
C1600 C1599 1.387 . S
C1600 C1603 1.387 . S
H1601 C1597 0.950 . S
H1602 C1599 0.950 . S
C1603 C1594 1.390 . S
C1603 H1596 0.950 1_554 S
C1603 C1600 1.387 . S
C1604 C1605 1.387 . S
C1604 H1608 0.950 . S
C1604 C1613 1.390 . S
C1605 C1604 1.387 . S
C1605 C1607 1.387 . S
H1606 C1613 0.950 . S
C1607 C1605 1.387 . S
C1607 C1609 1.390 . S
C1607 H1611 0.950 . S
H1608 C1604 0.950 . S
C1609 C1607 1.390 . S
C1609 C1610 1.387 . S
C1609 H1612 0.950 . S
C1610 C1609 1.387 . S
C1610 C1613 1.387 . S
H1611 C1607 0.950 . S
H1612 C1609 0.950 . S
C1613 C1604 1.390 . S
C1613 H1606 0.950 . S
C1613 C1610 1.387 . S
C1614 C1615 1.387 . S
C1614 H1618 0.950 . S
C1614 C1623 1.390 . S
C1615 C1614 1.387 . S
C1615 C1617 1.387 . S
H1616 C1623 0.950 . S
C1617 C1615 1.387 . S
C1617 C1619 1.390 . S
C1617 H1621 0.950 1_554 S
H1618 C1614 0.950 . S
C1619 C1617 1.390 . S
C1619 C1620 1.387 . S
C1619 H1622 0.950 . S
C1620 C1619 1.387 . S
C1620 C1623 1.387 . S
H1621 C1617 0.950 1_556 S
H1622 C1619 0.950 . S
C1623 C1614 1.390 . S
C1623 H1616 0.950 . S
C1623 C1620 1.387 . S
C1624 C1625 1.387 . S
C1624 H1628 0.950 . S
C1624 C1633 1.390 . S
C1625 C1624 1.387 . S
C1625 C1627 1.387 . S
H1626 C1633 0.950 . S
C1627 C1625 1.387 . S
C1627 C1629 1.390 . S
C1627 H1631 0.950 . S
H1628 C1624 0.950 . S
C1629 C1627 1.390 . S
C1629 C1630 1.387 . S
C1629 H1632 0.950 . S
C1630 C1629 1.387 . S
C1630 C1633 1.387 . S
H1631 C1627 0.950 . S
H1632 C1629 0.950 . S
C1633 C1624 1.390 . S
C1633 H1626 0.950 . S
C1633 C1630 1.387 . S
C1634 C1635 1.387 . S
C1634 H1638 0.950 . S
C1634 C1643 1.390 . S
C1635 C1634 1.387 . S
C1635 C1637 1.387 . S
H1636 C1643 0.950 1_554 S
C1637 C1635 1.387 . S
C1637 C1639 1.390 . S
C1637 H1641 0.950 . S
H1638 C1634 0.950 . S
C1639 C1637 1.390 . S
C1639 C1640 1.387 . S
C1639 H1642 0.950 . S
C1640 C1639 1.387 . S
C1640 C1643 1.387 . S
H1641 C1637 0.950 . S
H1642 C1639 0.950 . S
C1643 C1634 1.390 . S
C1643 H1636 0.950 1_556 S
C1643 C1640 1.387 . S
C1644 C1645 1.387 . S
C1644 H1648 0.950 . S
C1644 C1653 1.390 . S
C1645 C1644 1.387 . S
C1645 C1647 1.387 . S
H1646 C1653 0.950 . S
C1647 C1645 1.387 . S
C1647 C1649 1.390 . S
C1647 H1651 0.950 . S
H1648 C1644 0.950 . S
C1649 C1647 1.390 . S
C1649 C1650 1.387 . S
C1649 H1652 0.950 . S
C1650 C1649 1.387 . S
C1650 C1653 1.387 . S
H1651 C1647 0.950 . S
H1652 C1649 0.950 . S
C1653 C1644 1.390 . S
C1653 H1646 0.950 . S
C1653 C1650 1.387 . S
C1654 C1655 1.387 . S
C1654 H1658 0.950 1_556 S
C1654 C1663 1.390 . S
C1655 C1654 1.387 . S
C1655 C1657 1.387 . S
H1656 C1663 0.950 . S
C1657 C1655 1.387 . S
C1657 C1659 1.390 . S
C1657 H1661 0.950 . S
H1658 C1654 0.950 1_554 S
C1659 C1657 1.390 . S
C1659 C1660 1.387 . S
C1659 H1662 0.950 . S
C1660 C1659 1.387 . S
C1660 C1663 1.387 . S
H1661 C1657 0.950 . S
H1662 C1659 0.950 . S
C1663 C1654 1.390 . S
C1663 H1656 0.950 . S
C1663 C1660 1.387 . S
C1664 C1665 1.387 . S
C1664 H1668 0.950 . S
C1664 C1673 1.390 . S
C1665 C1664 1.387 . S
C1665 C1667 1.387 . S
H1666 C1673 0.950 . S
C1667 C1665 1.387 . S
C1667 C1669 1.390 . S
C1667 H1671 0.950 . S
H1668 C1664 0.950 . S
C1669 C1667 1.390 . S
C1669 C1670 1.387 . S
C1669 H1672 0.950 . S
C1670 C1669 1.387 . S
C1670 C1673 1.387 . S
H1671 C1667 0.950 . S
H1672 C1669 0.950 . S
C1673 C1664 1.390 . S
C1673 H1666 0.950 . S
C1673 C1670 1.387 . S
C1674 C1675 1.387 . S
C1674 H1678 0.950 1_545 S
C1674 C1683 1.390 . S
C1675 C1674 1.387 . S
C1675 C1677 1.387 . S
H1676 C1683 0.950 . S
C1677 C1675 1.387 . S
C1677 C1679 1.390 . S
C1677 H1681 0.950 . S
H1678 C1674 0.950 1_565 S
C1679 C1677 1.390 . S
C1679 C1680 1.387 . S
C1679 H1682 0.950 . S
C1680 C1679 1.387 . S
C1680 C1683 1.387 . S
H1681 C1677 0.950 . S
H1682 C1679 0.950 . S
C1683 C1674 1.390 . S
C1683 H1676 0.950 . S
C1683 C1680 1.387 . S
C1684 C1685 1.387 . S
C1684 H1688 0.950 . S
C1684 C1693 1.390 . S
C1685 C1684 1.387 . S
C1685 C1687 1.387 . S
H1686 C1693 0.950 . S
C1687 C1685 1.387 . S
C1687 C1689 1.390 . S
C1687 H1691 0.950 1_655 S
H1688 C1684 0.950 . S
C1689 C1687 1.390 . S
C1689 C1690 1.387 . S
C1689 H1692 0.950 . S
C1690 C1689 1.387 . S
C1690 C1693 1.387 . S
H1691 C1687 0.950 1_455 S
H1692 C1689 0.950 . S
C1693 C1684 1.390 . S
C1693 H1686 0.950 . S
C1693 C1690 1.387 . S
C1694 C1695 1.387 . S
C1694 H1698 0.950 . S
C1694 C1703 1.390 . S
C1695 C1694 1.387 . S
C1695 C1697 1.387 . S
H1696 C1703 0.950 . S
C1697 C1695 1.387 . S
C1697 C1699 1.390 . S
C1697 H1701 0.950 . S
H1698 C1694 0.950 . S
C1699 C1697 1.390 . S
C1699 C1700 1.387 . S
C1699 H1702 0.950 . S
C1700 C1699 1.387 . S
C1700 C1703 1.387 . S
H1701 C1697 0.950 . S
H1702 C1699 0.950 . S
C1703 C1694 1.390 . S
C1703 H1696 0.950 . S
C1703 C1700 1.387 . S
C1704 C1705 1.387 . S
C1704 H1708 0.950 . S
C1704 C1713 1.390 . S
C1705 C1704 1.387 . S
C1705 C1707 1.387 . S
H1706 C1713 0.950 . S
C1707 C1705 1.387 . S
C1707 C1709 1.390 . S
C1707 H1711 0.929 1_455 S
H1708 C1704 0.950 . S
C1709 C1707 1.390 . S
C1709 C1710 1.387 . S
C1709 H1712 0.950 . S
C1710 C1709 1.387 . S
C1710 C1713 1.387 . S
H1711 C1707 0.929 1_655 S
H1712 C1709 0.950 . S
C1713 C1704 1.390 . S
C1713 H1706 0.950 . S
C1713 C1710 1.387 . S
C1714 C1715 1.387 . S
C1714 H1718 0.950 . S
C1714 C1723 1.390 . S
C1715 C1714 1.387 . S
C1715 C1717 1.387 . S
H1716 C1723 0.950 . S
C1717 C1715 1.387 . S
C1717 C1719 1.390 . S
C1717 H1721 0.950 . S
H1718 C1714 0.950 . S
C1719 C1717 1.390 . S
C1719 C1720 1.387 . S
C1719 H1722 0.950 . S
C1720 C1719 1.387 . S
C1720 C1723 1.387 . S
H1721 C1717 0.950 . S
H1722 C1719 0.950 . S
C1723 C1714 1.390 . S
C1723 H1716 0.950 . S
C1723 C1720 1.387 . S
C1724 C1725 1.387 . S
C1724 H1728 0.950 . S
C1724 C1733 1.390 . S
C1725 C1724 1.387 . S
C1725 C1727 1.387 . S
H1726 C1733 0.950 . S
C1727 C1725 1.387 . S
C1727 C1729 1.390 . S
C1727 H1731 0.950 1_655 S
H1728 C1724 0.950 . S
C1729 C1727 1.390 . S
C1729 C1730 1.387 . S
C1729 H1732 0.950 . S
C1730 C1729 1.387 . S
C1730 C1733 1.387 . S
H1731 C1727 0.950 1_455 S
H1732 C1729 0.950 . S
C1733 C1724 1.390 . S
C1733 H1726 0.950 . S
C1733 C1730 1.387 . S
C1734 C1735 1.387 . S
C1734 H1738 0.950 . S
C1734 C1743 1.390 . S
C1735 C1734 1.387 . S
C1735 C1737 1.387 . S
H1736 C1743 0.950 . S
C1737 C1735 1.387 . S
C1737 C1739 1.390 . S
C1737 H1741 0.950 . S
H1738 C1734 0.950 . S
C1739 C1737 1.390 . S
C1739 C1740 1.387 . S
C1739 H1742 0.950 . S
C1740 C1739 1.387 . S
C1740 C1743 1.387 . S
H1741 C1737 0.950 . S
H1742 C1739 0.950 . S
C1743 C1734 1.390 . S
C1743 H1736 0.950 . S
C1743 C1740 1.387 . S
C1744 C1745 1.387 . S
C1744 H1748 0.950 . S
C1744 C1753 1.390 . S
C1745 C1744 1.387 . S
C1745 C1747 1.387 . S
H1746 C1753 0.950 1_565 S
C1747 C1745 1.387 . S
C1747 C1749 1.390 . S
C1747 H1751 0.950 . S
H1748 C1744 0.950 . S
C1749 C1747 1.390 . S
C1749 C1750 1.387 . S
C1749 H1752 0.950 . S
C1750 C1749 1.387 . S
C1750 C1753 1.387 . S
H1751 C1747 0.950 . S
H1752 C1749 0.950 . S
C1753 C1744 1.390 . S
C1753 H1746 0.950 1_545 S
C1753 C1750 1.387 . S
C1754 C1755 1.387 . S
C1754 H1758 0.950 . S
C1754 C1763 1.390 . S
C1755 C1754 1.387 . S
C1755 C1757 1.387 . S
H1756 C1763 0.950 . S
C1757 C1755 1.387 . S
C1757 C1759 1.390 . S
C1757 H1761 0.950 1_565 S
H1758 C1754 0.950 . S
C1759 C1757 1.390 . S
C1759 C1760 1.387 . S
C1759 H1762 0.950 . S
C1760 C1759 1.387 . S
C1760 C1763 1.387 . S
H1761 C1757 0.950 1_545 S
H1762 C1759 0.950 . S
C1763 C1754 1.390 . S
C1763 H1756 0.950 . S
C1763 C1760 1.387 . S
C1764 C1765 1.387 . S
C1764 H1768 0.950 . S
C1764 C1773 1.390 . S
C1765 C1764 1.387 . S
C1765 C1767 1.387 . S
H1766 C1773 0.950 . S
C1767 C1765 1.387 . S
C1767 C1769 1.390 . S
C1767 H1771 0.950 . S
H1768 C1764 0.950 . S
C1769 C1767 1.390 . S
C1769 C1770 1.387 . S
C1769 H1772 0.950 . S
C1770 C1769 1.387 . S
C1770 C1773 1.387 . S
H1771 C1767 0.950 . S
H1772 C1769 0.950 . S
C1773 C1764 1.390 . S
C1773 H1766 0.950 . S
C1773 C1770 1.387 . S
C1774 C1775 1.387 . S
C1774 H1778 0.950 1_545 S
C1774 C1783 1.390 . S
C1775 C1774 1.387 . S
C1775 C1777 1.387 . S
H1776 C1783 0.950 . S
C1777 C1775 1.387 . S
C1777 C1779 1.390 . S
C1777 H1781 0.950 . S
H1778 C1774 0.950 1_565 S
C1779 C1777 1.390 . S
C1779 C1780 1.387 . S
C1779 H1782 0.950 . S
C1780 C1779 1.387 . S
C1780 C1783 1.387 . S
H1781 C1777 0.950 . S
H1782 C1779 0.950 . S
C1783 C1774 1.390 . S
C1783 H1776 0.950 . S
C1783 C1780 1.387 . S
C1784 C1785 1.387 . S
C1784 H1788 0.950 . S
C1784 C1793 1.390 . S
C1785 C1784 1.387 . S
C1785 C1787 1.387 . S
H1786 C1793 0.950 . S
C1787 C1785 1.387 . S
C1787 C1789 1.390 . S
C1787 H1791 0.950 . S
H1788 C1784 0.950 . S
C1789 C1787 1.390 . S
C1789 C1790 1.387 . S
C1789 H1792 0.950 . S
C1790 C1789 1.387 . S
C1790 C1793 1.387 . S
H1791 C1787 0.950 . S
H1792 C1789 0.950 . S
C1793 C1784 1.390 . S
C1793 H1786 0.950 . S
C1793 C1790 1.387 . S
C1794 C1795 1.387 . S
C1794 H1798 0.950 . S
C1794 C1803 1.390 . S
C1795 C1794 1.387 . S
C1795 C1797 1.387 . S
H1796 C1803 0.950 1_545 S
C1797 C1795 1.387 . S
C1797 C1799 1.390 . S
C1797 H1801 0.950 . S
H1798 C1794 0.950 . S
C1799 C1797 1.390 . S
C1799 C1800 1.387 . S
C1799 H1802 0.950 . S
C1800 C1799 1.387 . S
C1800 C1803 1.387 . S
H1801 C1797 0.950 . S
H1802 C1799 0.950 . S
C1803 C1794 1.390 . S
C1803 H1796 0.950 1_565 S
C1803 C1800 1.387 . S
C1804 C1805 1.387 . S
C1804 H1808 0.950 . S
C1804 C1813 1.390 . S
C1805 C1804 1.387 . S
C1805 C1807 1.387 . S
H1806 C1813 0.950 . S
C1807 C1805 1.387 . S
C1807 C1809 1.390 . S
C1807 H1811 0.950 . S
H1808 C1804 0.950 . S
C1809 C1807 1.390 . S
C1809 C1810 1.387 . S
C1809 H1812 0.950 . S
C1810 C1809 1.387 . S
C1810 C1813 1.387 . S
H1811 C1807 0.950 . S
H1812 C1809 0.950 . S
C1813 C1804 1.390 . S
C1813 H1806 0.950 . S
C1813 C1810 1.387 . S
C1814 C1815 1.387 . S
C1814 H1818 0.936 1_655 S
C1814 C1823 1.390 . S
C1815 C1814 1.387 . S
C1815 C1817 1.387 . S
H1816 C1823 0.950 . S
C1817 C1815 1.387 . S
C1817 C1819 1.390 . S
C1817 H1821 0.950 . S
H1818 C1814 0.936 1_455 S
C1819 C1817 1.390 . S
C1819 C1820 1.387 . S
C1819 H1822 0.950 . S
C1820 C1819 1.387 . S
C1820 C1823 1.387 . S
H1821 C1817 0.950 . S
H1822 C1819 0.950 . S
C1823 C1814 1.390 . S
C1823 H1816 0.950 . S
C1823 C1820 1.387 . S
C1824 C1825 1.387 . S
C1824 H1828 0.950 . S
C1824 C1833 1.390 . S
C1825 C1824 1.387 . S
C1825 C1827 1.387 . S
H1826 C1833 0.950 . S
C1827 C1825 1.387 . S
C1827 C1829 1.390 . S
C1827 H1831 0.950 . S
H1828 C1824 0.950 . S
C1829 C1827 1.390 . S
C1829 C1830 1.387 . S
C1829 H1832 0.950 . S
C1830 C1829 1.387 . S
C1830 C1833 1.387 . S
H1831 C1827 0.950 . S
H1832 C1829 0.950 . S
C1833 C1824 1.390 . S
C1833 H1826 0.950 . S
C1833 C1830 1.387 . S
C1834 C1835 1.387 . S
C1834 H1838 0.950 . S
C1834 C1843 1.390 . S
C1835 C1834 1.387 . S
C1835 C1837 1.387 . S
H1836 C1843 0.950 . S
C1837 C1835 1.387 . S
C1837 C1839 1.390 . S
C1837 H1841 0.950 . S
H1838 C1834 0.950 . S
C1839 C1837 1.390 . S
C1839 C1840 1.387 . S
C1839 H1842 0.950 . S
C1840 C1839 1.387 . S
C1840 C1843 1.387 . S
H1841 C1837 0.950 . S
H1842 C1839 0.950 . S
C1843 C1834 1.390 . S
C1843 H1836 0.950 . S
C1843 C1840 1.387 . S
C1844 C1845 1.387 . S
C1844 H1848 0.950 . S
C1844 C1853 1.390 . S
C1845 C1844 1.387 . S
C1845 C1847 1.387 . S
H1846 C1853 0.950 . S
C1847 C1845 1.387 . S
C1847 C1849 1.390 . S
C1847 H1851 0.950 . S
H1848 C1844 0.950 . S
C1849 C1847 1.390 . S
C1849 C1850 1.387 . S
C1849 H1852 0.950 . S
C1850 C1849 1.387 . S
C1850 C1853 1.387 . S
H1851 C1847 0.950 . S
H1852 C1849 0.950 . S
C1853 C1844 1.390 . S
C1853 H1846 0.950 . S
C1853 C1850 1.387 . S
C1854 C1855 1.387 . S
C1854 H1858 0.950 . S
C1854 C1863 1.390 . S
C1855 C1854 1.387 . S
C1855 C1857 1.387 . S
H1856 C1863 0.950 . S
C1857 C1855 1.387 . S
C1857 C1859 1.390 . S
C1857 H1861 0.950 . S
H1858 C1854 0.950 . S
C1859 C1857 1.390 . S
C1859 C1860 1.387 . S
C1859 H1862 0.950 . S
C1860 C1859 1.387 . S
C1860 C1863 1.387 . S
H1861 C1857 0.950 . S
H1862 C1859 0.950 . S
C1863 C1854 1.390 . S
C1863 H1856 0.950 . S
C1863 C1860 1.387 . S
C1864 C1865 1.387 . S
C1864 H1868 0.950 . S
C1864 C1873 1.390 . S
C1865 C1864 1.387 . S
C1865 C1867 1.387 . S
H1866 C1873 0.950 . S
C1867 C1865 1.387 . S
C1867 C1869 1.390 . S
C1867 H1871 0.950 . S
H1868 C1864 0.950 . S
C1869 C1867 1.390 . S
C1869 C1870 1.387 . S
C1869 H1872 0.950 . S
C1870 C1869 1.387 . S
C1870 C1873 1.387 . S
H1871 C1867 0.950 . S
H1872 C1869 0.950 . S
C1873 C1864 1.390 . S
C1873 H1866 0.950 . S
C1873 C1870 1.387 . S
C1874 C1875 1.387 . S
C1874 H1878 0.950 . S
C1874 C1883 1.390 . S
C1875 C1874 1.387 . S
C1875 C1877 1.387 . S
H1876 C1883 0.950 . S
C1877 C1875 1.387 . S
C1877 C1879 1.390 . S
C1877 H1881 0.950 . S
H1878 C1874 0.950 . S
C1879 C1877 1.390 . S
C1879 C1880 1.387 . S
C1879 H1882 0.950 . S
C1880 C1879 1.387 . S
C1880 C1883 1.387 . S
H1881 C1877 0.950 . S
H1882 C1879 0.950 . S
C1883 C1874 1.390 . S
C1883 H1876 0.950 . S
C1883 C1880 1.387 . S
C1884 C1885 1.387 . S
C1884 H1888 0.950 . S
C1884 C1893 1.390 . S
C1885 C1884 1.387 . S
C1885 C1887 1.387 . S
H1886 C1893 0.950 . S
C1887 C1885 1.387 . S
C1887 C1889 1.390 . S
C1887 H1891 0.950 . S
H1888 C1884 0.950 . S
C1889 C1887 1.390 . S
C1889 C1890 1.387 . S
C1889 H1892 0.950 . S
C1890 C1889 1.387 . S
C1890 C1893 1.387 . S
H1891 C1887 0.950 . S
H1892 C1889 0.950 . S
C1893 C1884 1.390 . S
C1893 H1886 0.950 . S
C1893 C1890 1.387 . S
C1894 C1895 1.387 . S
C1894 H1898 0.950 . S
C1894 C1903 1.390 . S
C1895 C1894 1.387 . S
C1895 C1897 1.387 . S
H1896 C1903 0.950 . S
C1897 C1895 1.387 . S
C1897 C1899 1.390 . S
C1897 H1901 0.950 . S
H1898 C1894 0.950 . S
C1899 C1897 1.390 . S
C1899 C1900 1.387 . S
C1899 H1902 0.950 . S
C1900 C1899 1.387 . S
C1900 C1903 1.387 . S
H1901 C1897 0.950 . S
H1902 C1899 0.950 . S
C1903 C1894 1.390 . S
C1903 H1896 0.950 . S
C1903 C1900 1.387 . S
C1904 C1905 1.387 . S
C1904 H1908 0.950 . S
C1904 C1913 1.390 . S
C1905 C1904 1.387 . S
C1905 C1907 1.387 . S
H1906 C1913 0.950 . S
C1907 C1905 1.387 . S
C1907 C1909 1.390 . S
C1907 H1911 0.950 . S
H1908 C1904 0.950 . S
C1909 C1907 1.390 . S
C1909 C1910 1.387 . S
C1909 H1912 0.950 . S
C1910 C1909 1.387 . S
C1910 C1913 1.387 . S
H1911 C1907 0.950 . S
H1912 C1909 0.950 . S
C1913 C1904 1.390 . S
C1913 H1906 0.950 . S
C1913 C1910 1.387 . S
C1914 C1915 1.387 . S
C1914 H1918 0.950 . S
C1914 C1923 1.390 . S
C1915 C1914 1.387 . S
C1915 C1917 1.387 . S
H1916 C1923 0.950 . S
C1917 C1915 1.387 . S
C1917 C1919 1.390 . S
C1917 H1921 0.950 . S
H1918 C1914 0.950 . S
C1919 C1917 1.390 . S
C1919 C1920 1.387 . S
C1919 H1922 0.950 . S
C1920 C1919 1.387 . S
C1920 C1923 1.387 . S
H1921 C1917 0.950 . S
H1922 C1919 0.950 . S
C1923 C1914 1.390 . S
C1923 H1916 0.950 . S
C1923 C1920 1.387 . S
C1924 C1925 1.387 . S
C1924 H1928 0.950 . S
C1924 C1933 1.390 . S
C1925 C1924 1.387 . S
C1925 C1927 1.387 . S
H1926 C1933 0.950 . S
C1927 C1925 1.387 . S
C1927 C1929 1.390 . S
C1927 H1931 0.950 . S
H1928 C1924 0.950 . S
C1929 C1927 1.390 . S
C1929 C1930 1.387 . S
C1929 H1932 0.950 . S
C1930 C1929 1.387 . S
C1930 C1933 1.387 . S
H1931 C1927 0.950 . S
H1932 C1929 0.950 . S
C1933 C1924 1.390 . S
C1933 H1926 0.950 . S
C1933 C1930 1.387 . S
C1934 C1935 1.387 . S
C1934 H1938 0.950 . S
C1934 C1943 1.390 . S
C1935 C1934 1.387 . S
C1935 C1937 1.387 . S
H1936 C1943 0.950 . S
C1937 C1935 1.387 . S
C1937 C1939 1.390 . S
C1937 H1941 0.950 . S
H1938 C1934 0.950 . S
C1939 C1937 1.390 . S
C1939 C1940 1.387 . S
C1939 H1942 0.950 . S
C1940 C1939 1.387 . S
C1940 C1943 1.387 . S
H1941 C1937 0.950 . S
H1942 C1939 0.950 . S
C1943 C1934 1.390 . S
C1943 H1936 0.950 . S
C1943 C1940 1.387 . S
C1944 C1945 1.387 . S
C1944 H1948 0.950 . S
C1944 C1953 1.390 . S
C1945 C1944 1.387 . S
C1945 C1947 1.387 . S
H1946 C1953 0.950 . S
C1947 C1945 1.387 . S
C1947 C1949 1.390 . S
C1947 H1951 0.950 . S
H1948 C1944 0.950 . S
C1949 C1947 1.390 . S
C1949 C1950 1.387 . S
C1949 H1952 0.950 . S
C1950 C1949 1.387 . S
C1950 C1953 1.387 . S
H1951 C1947 0.950 . S
H1952 C1949 0.950 . S
C1953 C1944 1.390 . S
C1953 H1946 0.950 . S
C1953 C1950 1.387 . S
C1954 C1955 1.387 . S
C1954 H1958 0.950 . S
C1954 C1963 1.390 . S
C1955 C1954 1.387 . S
C1955 C1957 1.387 . S
H1956 C1963 0.950 . S
C1957 C1955 1.387 . S
C1957 C1959 1.390 . S
C1957 H1961 0.950 . S
H1958 C1954 0.950 . S
C1959 C1957 1.390 . S
C1959 C1960 1.387 . S
C1959 H1962 0.950 . S
C1960 C1959 1.387 . S
C1960 C1963 1.387 . S
H1961 C1957 0.950 . S
H1962 C1959 0.950 . S
C1963 C1954 1.390 . S
C1963 H1956 0.950 . S
C1963 C1960 1.387 . S
C1964 C1965 1.387 . S
C1964 H1968 0.950 . S
C1964 C1973 1.390 . S
C1965 C1964 1.387 . S
C1965 C1967 1.387 . S
H1966 C1973 0.950 . S
C1967 C1965 1.387 . S
C1967 C1969 1.390 . S
C1967 H1971 0.950 . S
H1968 C1964 0.950 . S
C1969 C1967 1.390 . S
C1969 C1970 1.387 . S
C1969 H1972 0.950 . S
C1970 C1969 1.387 . S
C1970 C1973 1.387 . S
H1971 C1967 0.950 . S
H1972 C1969 0.950 . S
C1973 C1964 1.390 . S
C1973 H1966 0.950 . S
C1973 C1970 1.387 . S
C1974 C1975 1.387 . S
C1974 H1978 0.950 . S
C1974 C1983 1.390 . S
C1975 C1974 1.387 . S
C1975 C1977 1.387 . S
H1976 C1983 0.950 . S
C1977 C1975 1.387 . S
C1977 C1979 1.390 . S
C1977 H1981 0.950 . S
H1978 C1974 0.950 . S
C1979 C1977 1.390 . S
C1979 C1980 1.387 . S
C1979 H1982 0.950 . S
C1980 C1979 1.387 . S
C1980 C1983 1.387 . S
H1981 C1977 0.950 . S
H1982 C1979 0.950 . S
C1983 C1974 1.390 . S
C1983 H1976 0.950 . S
C1983 C1980 1.387 . S
C1984 C1985 1.387 . S
C1984 H1988 0.950 . S
C1984 C1993 1.390 . S
C1985 C1984 1.387 . S
C1985 C1987 1.387 . S
H1986 C1993 0.950 . S
C1987 C1985 1.387 . S
C1987 C1989 1.390 . S
C1987 H1991 0.950 . S
H1988 C1984 0.950 . S
C1989 C1987 1.390 . S
C1989 C1990 1.387 . S
C1989 H1992 0.950 . S
C1990 C1989 1.387 . S
C1990 C1993 1.387 . S
H1991 C1987 0.950 . S
H1992 C1989 0.950 . S
C1993 C1984 1.390 . S
C1993 H1986 0.950 . S
C1993 C1990 1.387 . S
C1994 C1995 1.387 . S
C1994 H1998 0.950 . S
C1994 C2003 1.390 . S
C1995 C1994 1.387 . S
C1995 C1997 1.387 . S
H1996 C2003 0.950 . S
C1997 C1995 1.387 . S
C1997 C1999 1.390 . S
C1997 H2001 0.950 . S
H1998 C1994 0.950 . S
C1999 C1997 1.390 . S
C1999 C2000 1.387 . S
C1999 H2002 0.950 . S
C2000 C1999 1.387 . S
C2000 C2003 1.387 . S
H2001 C1997 0.950 . S
H2002 C1999 0.950 . S
C2003 C1994 1.390 . S
C2003 H1996 0.950 . S
C2003 C2000 1.387 . S
C2004 C2005 1.387 . S
C2004 H2008 0.950 . S
C2004 C2013 1.390 . S
C2005 C2004 1.387 . S
C2005 C2007 1.387 . S
H2006 C2013 0.950 . S
C2007 C2005 1.387 . S
C2007 C2009 1.390 . S
C2007 H2011 0.950 . S
H2008 C2004 0.950 . S
C2009 C2007 1.390 . S
C2009 C2010 1.387 . S
C2009 H2012 0.950 . S
C2010 C2009 1.387 . S
C2010 C2013 1.387 . S
H2011 C2007 0.950 . S
H2012 C2009 0.950 . S
C2013 C2004 1.390 . S
C2013 H2006 0.950 . S
C2013 C2010 1.387 . S
C2014 C2015 1.387 . S
C2014 H2018 0.950 . S
C2014 C2023 1.390 . S
C2015 C2014 1.387 . S
C2015 C2017 1.387 . S
H2016 C2023 0.950 . S
C2017 C2015 1.387 . S
C2017 C2019 1.390 . S
C2017 H2021 0.950 . S
H2018 C2014 0.950 . S
C2019 C2017 1.390 . S
C2019 C2020 1.387 . S
C2019 H2022 0.950 . S
C2020 C2019 1.387 . S
C2020 C2023 1.387 . S
H2021 C2017 0.950 . S
H2022 C2019 0.950 . S
C2023 C2014 1.390 . S
C2023 H2016 0.950 . S
C2023 C2020 1.387 . S
C2024 C2025 1.387 . S
C2024 H2028 0.950 . S
C2024 C2033 1.390 . S
C2025 C2024 1.387 . S
C2025 C2027 1.387 . S
H2026 C2033 0.950 . S
C2027 C2025 1.387 . S
C2027 C2029 1.390 . S
C2027 H2031 0.950 . S
H2028 C2024 0.950 . S
C2029 C2027 1.390 . S
C2029 C2030 1.387 . S
C2029 H2032 0.950 . S
C2030 C2029 1.387 . S
C2030 C2033 1.387 . S
H2031 C2027 0.950 . S
H2032 C2029 0.950 . S
C2033 C2024 1.390 . S
C2033 H2026 0.950 . S
C2033 C2030 1.387 . S
C2034 C2035 1.387 . S
C2034 H2038 0.950 . S
C2034 C2043 1.390 . S
C2035 C2034 1.387 . S
C2035 C2037 1.387 . S
H2036 C2043 0.950 . S
C2037 C2035 1.387 . S
C2037 C2039 1.390 . S
C2037 H2041 0.950 . S
H2038 C2034 0.950 . S
C2039 C2037 1.390 . S
C2039 C2040 1.387 . S
C2039 H2042 0.950 . S
C2040 C2039 1.387 . S
C2040 C2043 1.387 . S
H2041 C2037 0.950 . S
H2042 C2039 0.950 . S
C2043 C2034 1.390 . S
C2043 H2036 0.950 . S
C2043 C2040 1.387 . S
C2044 C2045 1.387 . S
C2044 H2048 0.950 . S
C2044 C2053 1.390 . S
C2045 C2044 1.387 . S
C2045 C2047 1.387 . S
H2046 C2053 0.950 . S
C2047 C2045 1.387 . S
C2047 C2049 1.390 . S
C2047 H2051 0.950 . S
H2048 C2044 0.950 . S
C2049 C2047 1.390 . S
C2049 C2050 1.387 . S
C2049 H2052 0.950 . S
C2050 C2049 1.387 . S
C2050 C2053 1.387 . S
H2051 C2047 0.950 . S
H2052 C2049 0.950 . S
C2053 C2044 1.390 . S
C2053 H2046 0.950 . S
C2053 C2050 1.387 . S
C2054 C2055 1.387 . S
C2054 H2058 0.950 . S
C2054 C2063 1.390 . S
C2055 C2054 1.387 . S
C2055 C2057 1.387 . S
H2056 C2063 0.950 . S
C2057 C2055 1.387 . S
C2057 C2059 1.390 . S
C2057 H2061 0.950 . S
H2058 C2054 0.950 . S
C2059 C2057 1.390 . S
C2059 C2060 1.387 . S
C2059 H2062 0.950 . S
C2060 C2059 1.387 . S
C2060 C2063 1.387 . S
H2061 C2057 0.950 . S
H2062 C2059 0.950 . S
C2063 C2054 1.390 . S
C2063 H2056 0.950 . S
C2063 C2060 1.387 . S
C2064 C2065 1.387 . S
C2064 H2068 0.950 . S
C2064 C2073 1.390 . S
C2065 C2064 1.387 . S
C2065 C2067 1.387 . S
H2066 C2073 0.950 . S
C2067 C2065 1.387 . S
C2067 C2069 1.390 . S
C2067 H2071 0.950 . S
H2068 C2064 0.950 . S
C2069 C2067 1.390 . S
C2069 C2070 1.387 . S
C2069 H2072 0.950 . S
C2070 C2069 1.387 . S
C2070 C2073 1.387 . S
H2071 C2067 0.950 . S
H2072 C2069 0.950 . S
C2073 C2064 1.390 . S
C2073 H2066 0.950 . S
C2073 C2070 1.387 . S
C2074 C2075 1.387 . S
C2074 H2078 0.950 . S
C2074 C2083 1.390 . S
C2075 C2074 1.387 . S
C2075 C2077 1.387 . S
H2076 C2083 0.950 . S
C2077 C2075 1.387 . S
C2077 C2079 1.390 . S
C2077 H2081 0.950 . S
H2078 C2074 0.950 . S
C2079 C2077 1.390 . S
C2079 C2080 1.387 . S
C2079 H2082 0.950 . S
C2080 C2079 1.387 . S
C2080 C2083 1.387 . S
H2081 C2077 0.950 . S
H2082 C2079 0.950 . S
C2083 C2074 1.390 . S
C2083 H2076 0.950 . S
C2083 C2080 1.387 . S
C2084 C2085 1.387 . S
C2084 H2088 0.950 . S
C2084 C2093 1.390 . S
C2085 C2084 1.387 . S
C2085 C2087 1.387 . S
H2086 C2093 0.950 . S
C2087 C2085 1.387 . S
C2087 C2089 1.390 . S
C2087 H2091 0.950 . S
H2088 C2084 0.950 . S
C2089 C2087 1.390 . S
C2089 C2090 1.387 . S
C2089 H2092 0.950 . S
C2090 C2089 1.387 . S
C2090 C2093 1.387 . S
H2091 C2087 0.950 . S
H2092 C2089 0.950 . S
C2093 C2084 1.390 . S
C2093 H2086 0.950 . S
C2093 C2090 1.387 . S
C2094 C2095 1.387 . S
C2094 H2098 0.950 . S
C2094 C2103 1.390 . S
C2095 C2094 1.387 . S
C2095 C2097 1.387 . S
H2096 C2103 0.950 . S
C2097 C2095 1.387 . S
C2097 C2099 1.390 . S
C2097 H2101 0.950 . S
H2098 C2094 0.950 . S
C2099 C2097 1.390 . S
C2099 C2100 1.387 . S
C2099 H2102 0.950 . S
C2100 C2099 1.387 . S
C2100 C2103 1.387 . S
H2101 C2097 0.950 . S
H2102 C2099 0.950 . S
C2103 C2094 1.390 . S
C2103 H2096 0.950 . S
C2103 C2100 1.387 . S
C2104 C2105 1.387 . S
C2104 H2108 0.950 . S
C2104 C2113 1.390 . S
C2105 C2104 1.387 . S
C2105 C2107 1.387 . S
H2106 C2113 0.950 . S
C2107 C2105 1.387 . S
C2107 C2109 1.390 . S
C2107 H2111 0.950 . S
H2108 C2104 0.950 . S
C2109 C2107 1.390 . S
C2109 C2110 1.387 . S
C2109 H2112 0.950 . S
C2110 C2109 1.387 . S
C2110 C2113 1.387 . S
H2111 C2107 0.950 . S
H2112 C2109 0.950 . S
C2113 C2104 1.390 . S
C2113 H2106 0.950 . S
C2113 C2110 1.387 . S
C2114 C2115 1.387 . S
C2114 H2118 0.950 . S
C2114 C2123 1.390 . S
C2115 C2114 1.387 . S
C2115 C2117 1.387 . S
H2116 C2123 0.950 . S
C2117 C2115 1.387 . S
C2117 C2119 1.390 . S
C2117 H2121 0.950 . S
H2118 C2114 0.950 . S
C2119 C2117 1.390 . S
C2119 C2120 1.387 . S
C2119 H2122 0.950 . S
C2120 C2119 1.387 . S
C2120 C2123 1.387 . S
H2121 C2117 0.950 . S
H2122 C2119 0.950 . S
C2123 C2114 1.390 . S
C2123 H2116 0.950 . S
C2123 C2120 1.387 . S
C2124 C2125 1.387 . S
C2124 H2128 0.950 . S
C2124 C2133 1.390 . S
C2125 C2124 1.387 . S
C2125 C2127 1.387 . S
H2126 C2133 0.950 . S
C2127 C2125 1.387 . S
C2127 C2129 1.390 . S
C2127 H2131 0.950 . S
H2128 C2124 0.950 . S
C2129 C2127 1.390 . S
C2129 C2130 1.387 . S
C2129 H2132 0.950 . S
C2130 C2129 1.387 . S
C2130 C2133 1.387 . S
H2131 C2127 0.950 . S
H2132 C2129 0.950 . S
C2133 C2124 1.390 . S
C2133 H2126 0.950 . S
C2133 C2130 1.387 . S
C2134 C2135 1.387 . S
C2134 H2138 0.950 . S
C2134 C2143 1.390 . S
C2135 C2134 1.387 . S
C2135 C2137 1.387 . S
H2136 C2143 0.950 . S
C2137 C2135 1.387 . S
C2137 C2139 1.390 . S
C2137 H2141 0.950 . S
H2138 C2134 0.950 . S
C2139 C2137 1.390 . S
C2139 C2140 1.387 . S
C2139 H2142 0.950 . S
C2140 C2139 1.387 . S
C2140 C2143 1.387 . S
H2141 C2137 0.950 . S
H2142 C2139 0.950 . S
C2143 C2134 1.390 . S
C2143 H2136 0.950 . S
C2143 C2140 1.387 . S
C2144 C2145 1.387 . S
C2144 H2148 0.950 . S
C2144 C2153 1.390 . S
C2145 C2144 1.387 . S
C2145 C2147 1.387 . S
H2146 C2153 0.950 . S
C2147 C2145 1.387 . S
C2147 C2149 1.390 . S
C2147 H2151 0.950 . S
H2148 C2144 0.950 . S
C2149 C2147 1.390 . S
C2149 C2150 1.387 . S
C2149 H2152 0.950 . S
C2150 C2149 1.387 . S
C2150 C2153 1.387 . S
H2151 C2147 0.950 . S
H2152 C2149 0.950 . S
C2153 C2144 1.390 . S
C2153 H2146 0.950 . S
C2153 C2150 1.387 . S
C2154 C2155 1.387 . S
C2154 H2158 0.950 . S
C2154 C2163 1.390 . S
C2155 C2154 1.387 . S
C2155 C2157 1.387 . S
H2156 C2163 0.950 . S
C2157 C2155 1.387 . S
C2157 C2159 1.390 . S
C2157 H2161 0.950 . S
H2158 C2154 0.950 . S
C2159 C2157 1.390 . S
C2159 C2160 1.387 . S
C2159 H2162 0.950 . S
C2160 C2159 1.387 . S
C2160 C2163 1.387 . S
H2161 C2157 0.950 . S
H2162 C2159 0.950 . S
C2163 C2154 1.390 . S
C2163 H2156 0.950 . S
C2163 C2160 1.387 . S
C2164 C2165 1.387 . S
C2164 H2168 0.950 . S
C2164 C2173 1.390 . S
C2165 C2164 1.387 . S
C2165 C2167 1.387 . S
H2166 C2173 0.950 . S
C2167 C2165 1.387 . S
C2167 C2169 1.390 . S
C2167 H2171 0.950 . S
H2168 C2164 0.950 . S
C2169 C2167 1.390 . S
C2169 C2170 1.387 . S
C2169 H2172 0.950 . S
C2170 C2169 1.387 . S
C2170 C2173 1.387 . S
H2171 C2167 0.950 . S
H2172 C2169 0.950 . S
C2173 C2164 1.390 . S
C2173 H2166 0.950 . S
C2173 C2170 1.387 . S
C2174 C2175 1.387 . S
C2174 H2178 0.950 . S
C2174 C2183 1.390 . S
C2175 C2174 1.387 . S
C2175 C2177 1.387 . S
H2176 C2183 0.950 . S
C2177 C2175 1.387 . S
C2177 C2179 1.390 . S
C2177 H2181 0.950 . S
H2178 C2174 0.950 . S
C2179 C2177 1.390 . S
C2179 C2180 1.387 . S
C2179 H2182 0.950 . S
C2180 C2179 1.387 . S
C2180 C2183 1.387 . S
H2181 C2177 0.950 . S
H2182 C2179 0.950 . S
C2183 C2174 1.390 . S
C2183 H2176 0.950 . S
C2183 C2180 1.387 . S
C2184 C2185 1.387 . S
C2184 H2188 0.950 . S
C2184 C2193 1.390 . S
C2185 C2184 1.387 . S
C2185 C2187 1.387 . S
H2186 C2193 0.950 . S
C2187 C2185 1.387 . S
C2187 C2189 1.390 . S
C2187 H2191 0.950 . S
H2188 C2184 0.950 . S
C2189 C2187 1.390 . S
C2189 C2190 1.387 . S
C2189 H2192 0.950 . S
C2190 C2189 1.387 . S
C2190 C2193 1.387 . S
H2191 C2187 0.950 . S
H2192 C2189 0.950 . S
C2193 C2184 1.390 . S
C2193 H2186 0.950 . S
C2193 C2190 1.387 . S
C2194 C2195 1.387 . S
C2194 H2198 0.950 . S
C2194 C2203 1.390 . S
C2195 C2194 1.387 . S
C2195 C2197 1.387 . S
H2196 C2203 0.950 . S
C2197 C2195 1.387 . S
C2197 C2199 1.390 . S
C2197 H2201 0.950 . S
H2198 C2194 0.950 . S
C2199 C2197 1.390 . S
C2199 C2200 1.387 . S
C2199 H2202 0.950 . S
C2200 C2199 1.387 . S
C2200 C2203 1.387 . S
H2201 C2197 0.950 . S
H2202 C2199 0.950 . S
C2203 C2194 1.390 . S
C2203 H2196 0.950 . S
C2203 C2200 1.387 . S
C2204 C2205 1.387 . S
C2204 H2208 0.950 . S
C2204 C2213 1.390 . S
C2205 C2204 1.387 . S
C2205 C2207 1.387 . S
H2206 C2213 0.950 . S
C2207 C2205 1.387 . S
C2207 C2209 1.390 . S
C2207 H2211 0.950 . S
H2208 C2204 0.950 . S
C2209 C2207 1.390 . S
C2209 C2210 1.387 . S
C2209 H2212 0.950 . S
C2210 C2209 1.387 . S
C2210 C2213 1.387 . S
H2211 C2207 0.950 . S
H2212 C2209 0.950 . S
C2213 C2204 1.390 . S
C2213 H2206 0.950 . S
C2213 C2210 1.387 . S
C2214 C2215 1.387 . S
C2214 H2218 0.950 . S
C2214 C2223 1.390 . S
C2215 C2214 1.387 . S
C2215 C2217 1.387 . S
H2216 C2223 0.950 . S
C2217 C2215 1.387 . S
C2217 C2219 1.390 . S
C2217 H2221 0.950 . S
H2218 C2214 0.950 . S
C2219 C2217 1.390 . S
C2219 C2220 1.387 . S
C2219 H2222 0.950 . S
C2220 C2219 1.387 . S
C2220 C2223 1.387 . S
H2221 C2217 0.950 . S
H2222 C2219 0.950 . S
C2223 C2214 1.390 . S
C2223 H2216 0.950 . S
C2223 C2220 1.387 . S
C2224 C2225 1.387 . S
C2224 H2228 0.950 . S
C2224 C2233 1.390 . S
C2225 C2224 1.387 . S
C2225 C2227 1.387 . S
H2226 C2233 0.950 . S
C2227 C2225 1.387 . S
C2227 C2229 1.390 . S
C2227 H2231 0.950 . S
H2228 C2224 0.950 . S
C2229 C2227 1.390 . S
C2229 C2230 1.387 . S
C2229 H2232 0.950 . S
C2230 C2229 1.387 . S
C2230 C2233 1.387 . S
H2231 C2227 0.950 . S
H2232 C2229 0.950 . S
C2233 C2224 1.390 . S
C2233 H2226 0.950 . S
C2233 C2230 1.387 . S
C2234 C2235 1.387 . S
C2234 H2238 0.950 . S
C2234 C2243 1.390 . S
C2235 C2234 1.387 . S
C2235 C2237 1.387 . S
H2236 C2243 0.950 . S
C2237 C2235 1.387 . S
C2237 C2239 1.390 . S
C2237 H2241 0.950 . S
H2238 C2234 0.950 . S
C2239 C2237 1.390 . S
C2239 C2240 1.387 . S
C2239 H2242 0.950 . S
C2240 C2239 1.387 . S
C2240 C2243 1.387 . S
H2241 C2237 0.950 . S
H2242 C2239 0.950 . S
C2243 C2234 1.390 . S
C2243 H2236 0.950 . S
C2243 C2240 1.387 . S
C2244 C2245 1.387 . S
C2244 H2248 0.950 . S
C2244 C2253 1.390 . S
C2245 C2244 1.387 . S
C2245 C2247 1.387 . S
H2246 C2253 0.950 . S
C2247 C2245 1.387 . S
C2247 C2249 1.390 . S
C2247 H2251 0.950 . S
H2248 C2244 0.950 . S
C2249 C2247 1.390 . S
C2249 C2250 1.387 . S
C2249 H2252 0.950 . S
C2250 C2249 1.387 . S
C2250 C2253 1.387 . S
H2251 C2247 0.950 . S
H2252 C2249 0.950 . S
C2253 C2244 1.390 . S
C2253 H2246 0.950 . S
C2253 C2250 1.387 . S
C2254 C2255 1.387 . S
C2254 H2258 0.950 . S
C2254 C2263 1.390 . S
C2255 C2254 1.387 . S
C2255 C2257 1.387 . S
H2256 C2263 0.950 . S
C2257 C2255 1.387 . S
C2257 C2259 1.390 . S
C2257 H2261 0.950 . S
H2258 C2254 0.950 . S
C2259 C2257 1.390 . S
C2259 C2260 1.387 . S
C2259 H2262 0.950 . S
C2260 C2259 1.387 . S
C2260 C2263 1.387 . S
H2261 C2257 0.950 . S
H2262 C2259 0.950 . S
C2263 C2254 1.390 . S
C2263 H2256 0.950 . S
C2263 C2260 1.387 . S
C2264 C2265 1.387 . S
C2264 H2268 0.950 . S
C2264 C2273 1.390 . S
C2265 C2264 1.387 . S
C2265 C2267 1.387 . S
H2266 C2273 0.950 . S
C2267 C2265 1.387 . S
C2267 C2269 1.390 . S
C2267 H2271 0.950 . S
H2268 C2264 0.950 . S
C2269 C2267 1.390 . S
C2269 C2270 1.387 . S
C2269 H2272 0.950 . S
C2270 C2269 1.387 . S
C2270 C2273 1.387 . S
H2271 C2267 0.950 . S
H2272 C2269 0.950 . S
C2273 C2264 1.390 . S
C2273 H2266 0.950 . S
C2273 C2270 1.387 . S
C2274 C2275 1.387 . S
C2274 H2278 0.950 . S
C2274 C2283 1.390 . S
C2275 C2274 1.387 . S
C2275 C2277 1.387 . S
H2276 C2283 0.950 . S
C2277 C2275 1.387 . S
C2277 C2279 1.390 . S
C2277 H2281 0.950 . S
H2278 C2274 0.950 . S
C2279 C2277 1.390 . S
C2279 C2280 1.387 . S
C2279 H2282 0.950 . S
C2280 C2279 1.387 . S
C2280 C2283 1.387 . S
H2281 C2277 0.950 . S
H2282 C2279 0.950 . S
C2283 C2274 1.390 . S
C2283 H2276 0.950 . S
C2283 C2280 1.387 . S
C2284 C2285 1.387 . S
C2284 H2288 0.950 . S
C2284 C2293 1.390 . S
C2285 C2284 1.387 . S
C2285 C2287 1.387 . S
H2286 C2293 0.950 . S
C2287 C2285 1.387 . S
C2287 C2289 1.390 . S
C2287 H2291 0.950 . S
H2288 C2284 0.950 . S
C2289 C2287 1.390 . S
C2289 C2290 1.387 . S
C2289 H2292 0.950 . S
C2290 C2289 1.387 . S
C2290 C2293 1.387 . S
H2291 C2287 0.950 . S
H2292 C2289 0.950 . S
C2293 C2284 1.390 . S
C2293 H2286 0.950 . S
C2293 C2290 1.387 . S
C2294 C2295 1.387 . S
C2294 H2298 0.950 . S
C2294 C2303 1.390 . S
C2295 C2294 1.387 . S
C2295 C2297 1.387 . S
H2296 C2303 0.950 . S
C2297 C2295 1.387 . S
C2297 C2299 1.390 . S
C2297 H2301 0.950 . S
H2298 C2294 0.950 . S
C2299 C2297 1.390 . S
C2299 C2300 1.387 . S
C2299 H2302 0.950 . S
C2300 C2299 1.387 . S
C2300 C2303 1.387 . S
H2301 C2297 0.950 . S
H2302 C2299 0.950 . S
C2303 C2294 1.390 . S
C2303 H2296 0.950 . S
C2303 C2300 1.387 . S
C2304 C2305 1.387 . S
C2304 H2308 0.950 . S
C2304 C2313 1.390 . S
C2305 C2304 1.387 . S
C2305 C2307 1.387 . S
H2306 C2313 0.950 . S
C2307 C2305 1.387 . S
C2307 C2309 1.390 . S
C2307 H2311 0.950 . S
H2308 C2304 0.950 . S
C2309 C2307 1.390 . S
C2309 C2310 1.387 . S
C2309 H2312 0.950 . S
C2310 C2309 1.387 . S
C2310 C2313 1.387 . S
H2311 C2307 0.950 . S
H2312 C2309 0.950 . S
C2313 C2304 1.390 . S
C2313 H2306 0.950 . S
C2313 C2310 1.387 . S
C2314 C2315 1.387 . S
C2314 H2318 0.950 . S
C2314 C2323 1.390 . S
C2315 C2314 1.387 . S
C2315 C2317 1.387 . S
H2316 C2323 0.950 . S
C2317 C2315 1.387 . S
C2317 C2319 1.390 . S
C2317 H2321 0.950 . S
H2318 C2314 0.950 . S
C2319 C2317 1.390 . S
C2319 C2320 1.387 . S
C2319 H2322 0.950 . S
C2320 C2319 1.387 . S
C2320 C2323 1.387 . S
H2321 C2317 0.950 . S
H2322 C2319 0.950 . S
C2323 C2314 1.390 . S
C2323 H2316 0.950 . S
C2323 C2320 1.387 . S
C2324 C2325 1.387 . S
C2324 H2328 0.950 . S
C2324 C2333 1.390 . S
C2325 C2324 1.387 . S
C2325 C2327 1.387 . S
H2326 C2333 0.950 . S
C2327 C2325 1.387 . S
C2327 C2329 1.390 . S
C2327 H2331 0.950 . S
H2328 C2324 0.950 . S
C2329 C2327 1.390 . S
C2329 C2330 1.387 . S
C2329 H2332 0.950 . S
C2330 C2329 1.387 . S
C2330 C2333 1.387 . S
H2331 C2327 0.950 . S
H2332 C2329 0.950 . S
C2333 C2324 1.390 . S
C2333 H2326 0.950 . S
C2333 C2330 1.387 . S
C2334 C2335 1.387 . S
C2334 H2338 0.950 . S
C2334 C2343 1.390 . S
C2335 C2334 1.387 . S
C2335 C2337 1.387 . S
H2336 C2343 0.950 . S
C2337 C2335 1.387 . S
C2337 C2339 1.390 . S
C2337 H2341 0.950 . S
H2338 C2334 0.950 . S
C2339 C2337 1.390 . S
C2339 C2340 1.387 . S
C2339 H2342 0.950 . S
C2340 C2339 1.387 . S
C2340 C2343 1.387 . S
H2341 C2337 0.950 . S
H2342 C2339 0.950 . S
C2343 C2334 1.390 . S
C2343 H2336 0.950 . S
C2343 C2340 1.387 . S
C2344 C2345 1.387 . S
C2344 H2348 0.950 . S
C2344 C2353 1.390 . S
C2345 C2344 1.387 . S
C2345 C2347 1.387 . S
H2346 C2353 0.950 . S
C2347 C2345 1.387 . S
C2347 C2349 1.390 . S
C2347 H2351 0.950 . S
H2348 C2344 0.950 . S
C2349 C2347 1.390 . S
C2349 C2350 1.387 . S
C2349 H2352 0.950 . S
C2350 C2349 1.387 . S
C2350 C2353 1.387 . S
H2351 C2347 0.950 . S
H2352 C2349 0.950 . S
C2353 C2344 1.390 . S
C2353 H2346 0.950 . S
C2353 C2350 1.387 . S
C2354 C2355 1.387 . S
C2354 H2358 0.950 . S
C2354 C2363 1.390 . S
C2355 C2354 1.387 . S
C2355 C2357 1.387 . S
H2356 C2363 0.950 . S
C2357 C2355 1.387 . S
C2357 C2359 1.390 . S
C2357 H2361 0.950 . S
H2358 C2354 0.950 . S
C2359 C2357 1.390 . S
C2359 C2360 1.387 . S
C2359 H2362 0.950 . S
C2360 C2359 1.387 . S
C2360 C2363 1.387 . S
H2361 C2357 0.950 . S
H2362 C2359 0.950 . S
C2363 C2354 1.390 . S
C2363 H2356 0.950 . S
C2363 C2360 1.387 . S
C2364 C2365 1.387 . S
C2364 H2368 0.950 . S
C2364 C2373 1.390 . S
C2365 C2364 1.387 . S
C2365 C2367 1.387 . S
H2366 C2373 0.950 . S
C2367 C2365 1.387 . S
C2367 C2369 1.390 . S
C2367 H2371 0.950 . S
H2368 C2364 0.950 . S
C2369 C2367 1.390 . S
C2369 C2370 1.387 . S
C2369 H2372 0.950 . S
C2370 C2369 1.387 . S
C2370 C2373 1.387 . S
H2371 C2367 0.950 . S
H2372 C2369 0.950 . S
C2373 C2364 1.390 . S
C2373 H2366 0.950 . S
C2373 C2370 1.387 . S
C2374 C2375 1.387 . S
C2374 H2378 0.950 . S
C2374 C2383 1.390 . S
C2375 C2374 1.387 . S
C2375 C2377 1.387 . S
H2376 C2383 0.950 . S
C2377 C2375 1.387 . S
C2377 C2379 1.390 . S
C2377 H2381 0.950 . S
H2378 C2374 0.950 . S
C2379 C2377 1.390 . S
C2379 C2380 1.387 . S
C2379 H2382 0.950 . S
C2380 C2379 1.387 . S
C2380 C2383 1.387 . S
H2381 C2377 0.950 . S
H2382 C2379 0.950 . S
C2383 C2374 1.390 . S
C2383 H2376 0.950 . S
C2383 C2380 1.387 . S
C2384 C2385 1.387 . S
C2384 H2388 0.950 . S
C2384 C2393 1.390 . S
C2385 C2384 1.387 . S
C2385 C2387 1.387 . S
H2386 C2393 0.950 . S
C2387 C2385 1.387 . S
C2387 C2389 1.390 . S
C2387 H2391 0.950 . S
H2388 C2384 0.950 . S
C2389 C2387 1.390 . S
C2389 C2390 1.387 . S
C2389 H2392 0.950 . S
C2390 C2389 1.387 . S
C2390 C2393 1.387 . S
H2391 C2387 0.950 . S
H2392 C2389 0.950 . S
C2393 C2384 1.390 . S
C2393 H2386 0.950 . S
C2393 C2390 1.387 . S
C2394 C2395 1.387 . S
C2394 H2398 0.950 . S
C2394 C2403 1.390 . S
C2395 C2394 1.387 . S
C2395 C2397 1.387 . S
H2396 C2403 0.950 . S
C2397 C2395 1.387 . S
C2397 C2399 1.390 . S
C2397 H2401 0.950 . S
H2398 C2394 0.950 . S
C2399 C2397 1.390 . S
C2399 C2400 1.387 . S
C2399 H2402 0.950 . S
C2400 C2399 1.387 . S
C2400 C2403 1.387 . S
H2401 C2397 0.950 . S
H2402 C2399 0.950 . S
C2403 C2394 1.390 . S
C2403 H2396 0.950 . S
C2403 C2400 1.387 . S
C2404 C2405 1.387 . S
C2404 H2408 0.950 . S
C2404 C2413 1.390 . S
C2405 C2404 1.387 . S
C2405 C2407 1.387 . S
H2406 C2413 0.950 . S
C2407 C2405 1.387 . S
C2407 C2409 1.390 . S
C2407 H2411 0.950 . S
H2408 C2404 0.950 . S
C2409 C2407 1.390 . S
C2409 C2410 1.387 . S
C2409 H2412 0.950 . S
C2410 C2409 1.387 . S
C2410 C2413 1.387 . S
H2411 C2407 0.950 . S
H2412 C2409 0.950 . S
C2413 C2404 1.390 . S
C2413 H2406 0.950 . S
C2413 C2410 1.387 . S
C2414 C2415 1.387 . S
C2414 H2418 0.950 . S
C2414 C2423 1.390 . S
C2415 C2414 1.387 . S
C2415 C2417 1.387 . S
H2416 C2423 0.950 . S
C2417 C2415 1.387 . S
C2417 C2419 1.390 . S
C2417 H2421 0.950 . S
H2418 C2414 0.950 . S
C2419 C2417 1.390 . S
C2419 C2420 1.387 . S
C2419 H2422 0.950 . S
C2420 C2419 1.387 . S
C2420 C2423 1.387 . S
H2421 C2417 0.950 . S
H2422 C2419 0.950 . S
C2423 C2414 1.390 . S
C2423 H2416 0.950 . S
C2423 C2420 1.387 . S
C2424 C2425 1.387 . S
C2424 H2428 0.950 . S
C2424 C2433 1.390 . S
C2425 C2424 1.387 . S
C2425 C2427 1.387 . S
H2426 C2433 0.950 . S
C2427 C2425 1.387 . S
C2427 C2429 1.390 . S
C2427 H2431 0.950 . S
H2428 C2424 0.950 . S
C2429 C2427 1.390 . S
C2429 C2430 1.387 . S
C2429 H2432 0.950 . S
C2430 C2429 1.387 . S
C2430 C2433 1.387 . S
H2431 C2427 0.950 . S
H2432 C2429 0.950 . S
C2433 C2424 1.390 . S
C2433 H2426 0.950 . S
C2433 C2430 1.387 . S
C2434 C2435 1.387 . S
C2434 H2438 0.950 . S
C2434 C2443 1.390 . S
C2435 C2434 1.387 . S
C2435 C2437 1.387 . S
H2436 C2443 0.950 . S
C2437 C2435 1.387 . S
C2437 C2439 1.390 . S
C2437 H2441 0.950 . S
H2438 C2434 0.950 . S
C2439 C2437 1.390 . S
C2439 C2440 1.387 . S
C2439 H2442 0.950 . S
C2440 C2439 1.387 . S
C2440 C2443 1.387 . S
H2441 C2437 0.950 . S
H2442 C2439 0.950 . S
C2443 C2434 1.390 . S
C2443 H2436 0.950 . S
C2443 C2440 1.387 . S
C2444 C2445 1.387 . S
C2444 H2448 0.950 . S
C2444 C2453 1.390 . S
C2445 C2444 1.387 . S
C2445 C2447 1.387 . S
H2446 C2453 0.950 . S
C2447 C2445 1.387 . S
C2447 C2449 1.390 . S
C2447 H2451 0.950 . S
H2448 C2444 0.950 . S
C2449 C2447 1.390 . S
C2449 C2450 1.387 . S
C2449 H2452 0.950 . S
C2450 C2449 1.387 . S
C2450 C2453 1.387 . S
H2451 C2447 0.950 . S
H2452 C2449 0.950 . S
C2453 C2444 1.390 . S
C2453 H2446 0.950 . S
C2453 C2450 1.387 . S
C2454 C2455 1.387 . S
C2454 H2458 0.950 . S
C2454 C2463 1.390 . S
C2455 C2454 1.387 . S
C2455 C2457 1.387 . S
H2456 C2463 0.950 . S
C2457 C2455 1.387 . S
C2457 C2459 1.390 . S
C2457 H2461 0.950 . S
H2458 C2454 0.950 . S
C2459 C2457 1.390 . S
C2459 C2460 1.387 . S
C2459 H2462 0.950 . S
C2460 C2459 1.387 . S
C2460 C2463 1.387 . S
H2461 C2457 0.950 . S
H2462 C2459 0.950 . S
C2463 C2454 1.390 . S
C2463 H2456 0.950 . S
C2463 C2460 1.387 . S
C2464 C2465 1.387 . S
C2464 H2468 0.950 . S
C2464 C2473 1.390 . S
C2465 C2464 1.387 . S
C2465 C2467 1.387 . S
H2466 C2473 0.950 . S
C2467 C2465 1.387 . S
C2467 C2469 1.390 . S
C2467 H2471 0.950 . S
H2468 C2464 0.950 . S
C2469 C2467 1.390 . S
C2469 C2470 1.387 . S
C2469 H2472 0.950 . S
C2470 C2469 1.387 . S
C2470 C2473 1.387 . S
H2471 C2467 0.950 . S
H2472 C2469 0.950 . S
C2473 C2464 1.390 . S
C2473 H2466 0.950 . S
C2473 C2470 1.387 . S
C2474 C2475 1.387 . S
C2474 H2478 0.950 . S
C2474 C2483 1.390 . S
C2475 C2474 1.387 . S
C2475 C2477 1.387 . S
H2476 C2483 0.950 . S
C2477 C2475 1.387 . S
C2477 C2479 1.390 . S
C2477 H2481 0.950 . S
H2478 C2474 0.950 . S
C2479 C2477 1.390 . S
C2479 C2480 1.387 . S
C2479 H2482 0.950 . S
C2480 C2479 1.387 . S
C2480 C2483 1.387 . S
H2481 C2477 0.950 . S
H2482 C2479 0.950 . S
C2483 C2474 1.390 . S
C2483 H2476 0.950 . S
C2483 C2480 1.387 . S
C2484 C2485 1.387 . S
C2484 H2488 0.950 . S
C2484 C2493 1.390 . S
C2485 C2484 1.387 . S
C2485 C2487 1.387 . S
H2486 C2493 0.950 . S
C2487 C2485 1.387 . S
C2487 C2489 1.390 . S
C2487 H2491 0.950 . S
H2488 C2484 0.950 . S
C2489 C2487 1.390 . S
C2489 C2490 1.387 . S
C2489 H2492 0.950 . S
C2490 C2489 1.387 . S
C2490 C2493 1.387 . S
H2491 C2487 0.950 . S
H2492 C2489 0.950 . S
C2493 C2484 1.390 . S
C2493 H2486 0.950 . S
C2493 C2490 1.387 . S
C2494 C2495 1.387 . S
C2494 H2498 0.950 . S
C2494 C2503 1.390 . S
C2495 C2494 1.387 . S
C2495 C2497 1.387 . S
H2496 C2503 0.950 . S
C2497 C2495 1.387 . S
C2497 C2499 1.390 . S
C2497 H2501 0.950 . S
H2498 C2494 0.950 . S
C2499 C2497 1.390 . S
C2499 C2500 1.387 . S
C2499 H2502 0.950 . S
C2500 C2499 1.387 . S
C2500 C2503 1.387 . S
H2501 C2497 0.950 . S
H2502 C2499 0.950 . S
C2503 C2494 1.390 . S
C2503 H2496 0.950 . S
C2503 C2500 1.387 . S
C2504 C2505 1.387 . S
C2504 H2508 0.950 . S
C2504 C2513 1.390 . S
C2505 C2504 1.387 . S
C2505 C2507 1.387 . S
H2506 C2513 0.950 . S
C2507 C2505 1.387 . S
C2507 C2509 1.390 . S
C2507 H2511 0.950 . S
H2508 C2504 0.950 . S
C2509 C2507 1.390 . S
C2509 C2510 1.387 . S
C2509 H2512 0.950 . S
C2510 C2509 1.387 . S
C2510 C2513 1.387 . S
H2511 C2507 0.950 . S
H2512 C2509 0.950 . S
C2513 C2504 1.390 . S
C2513 H2506 0.950 . S
C2513 C2510 1.387 . S
C2514 C2515 1.387 . S
C2514 H2518 0.950 . S
C2514 C2523 1.390 . S
C2515 C2514 1.387 . S
C2515 C2517 1.387 . S
H2516 C2523 0.950 . S
C2517 C2515 1.387 . S
C2517 C2519 1.390 . S
C2517 H2521 0.950 . S
H2518 C2514 0.950 . S
C2519 C2517 1.390 . S
C2519 C2520 1.387 . S
C2519 H2522 0.950 . S
C2520 C2519 1.387 . S
C2520 C2523 1.387 . S
H2521 C2517 0.950 . S
H2522 C2519 0.950 . S
C2523 C2514 1.390 . S
C2523 H2516 0.950 . S
C2523 C2520 1.387 . S
C2524 C2525 1.387 . S
C2524 H2528 0.950 . S
C2524 C2533 1.390 . S
C2525 C2524 1.387 . S
C2525 C2527 1.387 . S
H2526 C2533 0.950 . S
C2527 C2525 1.387 . S
C2527 C2529 1.390 . S
C2527 H2531 0.950 . S
H2528 C2524 0.950 . S
C2529 C2527 1.390 . S
C2529 C2530 1.387 . S
C2529 H2532 0.950 . S
C2530 C2529 1.387 . S
C2530 C2533 1.387 . S
H2531 C2527 0.950 . S
H2532 C2529 0.950 . S
C2533 C2524 1.390 . S
C2533 H2526 0.950 . S
C2533 C2530 1.387 . S
C2534 C2535 1.387 . S
C2534 H2538 0.950 . S
C2534 C2543 1.390 . S
C2535 C2534 1.387 . S
C2535 C2537 1.387 . S
H2536 C2543 0.950 . S
C2537 C2535 1.387 . S
C2537 C2539 1.390 . S
C2537 H2541 0.950 . S
H2538 C2534 0.950 . S
C2539 C2537 1.390 . S
C2539 C2540 1.387 . S
C2539 H2542 0.950 . S
C2540 C2539 1.387 . S
C2540 C2543 1.387 . S
H2541 C2537 0.950 . S
H2542 C2539 0.950 . S
C2543 C2534 1.390 . S
C2543 H2536 0.950 . S
C2543 C2540 1.387 . S
C2544 C2545 1.387 . S
C2544 H2548 0.950 . S
C2544 C2553 1.390 . S
C2545 C2544 1.387 . S
C2545 C2547 1.387 . S
H2546 C2553 0.950 . S
C2547 C2545 1.387 . S
C2547 C2549 1.390 . S
C2547 H2551 0.950 . S
H2548 C2544 0.950 . S
C2549 C2547 1.390 . S
C2549 C2550 1.387 . S
C2549 H2552 0.950 . S
C2550 C2549 1.387 . S
C2550 C2553 1.387 . S
H2551 C2547 0.950 . S
H2552 C2549 0.950 . S
C2553 C2544 1.390 . S
C2553 H2546 0.950 . S
C2553 C2550 1.387 . S
C2554 C2555 1.387 . S
C2554 H2558 0.950 . S
C2554 C2563 1.390 . S
C2555 C2554 1.387 . S
C2555 C2557 1.387 . S
H2556 C2563 0.950 . S
C2557 C2555 1.387 . S
C2557 C2559 1.390 . S
C2557 H2561 0.950 . S
H2558 C2554 0.950 . S
C2559 C2557 1.390 . S
C2559 C2560 1.387 . S
C2559 H2562 0.950 . S
C2560 C2559 1.387 . S
C2560 C2563 1.387 . S
H2561 C2557 0.950 . S
H2562 C2559 0.950 . S
C2563 C2554 1.390 . S
C2563 H2556 0.950 . S
C2563 C2560 1.387 . S
C2564 C2565 1.387 . S
C2564 H2568 0.950 . S
C2564 C2573 1.390 . S
C2565 C2564 1.387 . S
C2565 C2567 1.387 . S
H2566 C2573 0.950 . S
C2567 C2565 1.387 . S
C2567 C2569 1.390 . S
C2567 H2571 0.950 . S
H2568 C2564 0.950 . S
C2569 C2567 1.390 . S
C2569 C2570 1.387 . S
C2569 H2572 0.950 . S
C2570 C2569 1.387 . S
C2570 C2573 1.387 . S
H2571 C2567 0.950 . S
H2572 C2569 0.950 . S
C2573 C2564 1.390 . S
C2573 H2566 0.950 . S
C2573 C2570 1.387 . S
C2574 C2575 1.387 . S
C2574 H2578 0.950 . S
C2574 C2583 1.390 . S
C2575 C2574 1.387 . S
C2575 C2577 1.387 . S
H2576 C2583 0.950 . S
C2577 C2575 1.387 . S
C2577 C2579 1.390 . S
C2577 H2581 0.950 . S
H2578 C2574 0.950 . S
C2579 C2577 1.390 . S
C2579 C2580 1.387 . S
C2579 H2582 0.950 . S
C2580 C2579 1.387 . S
C2580 C2583 1.387 . S
H2581 C2577 0.950 . S
H2582 C2579 0.950 . S
C2583 C2574 1.390 . S
C2583 H2576 0.950 . S
C2583 C2580 1.387 . S
C2584 C2585 1.387 . S
C2584 H2588 0.950 . S
C2584 C2593 1.390 . S
C2585 C2584 1.387 . S
C2585 C2587 1.387 . S
H2586 C2593 0.950 . S
C2587 C2585 1.387 . S
C2587 C2589 1.390 . S
C2587 H2591 0.950 . S
H2588 C2584 0.950 . S
C2589 C2587 1.390 . S
C2589 C2590 1.387 . S
C2589 H2592 0.950 . S
C2590 C2589 1.387 . S
C2590 C2593 1.387 . S
H2591 C2587 0.950 . S
H2592 C2589 0.950 . S
C2593 C2584 1.390 . S
C2593 H2586 0.950 . S
C2593 C2590 1.387 . S
C2594 C2595 1.387 . S
C2594 H2598 0.950 . S
C2594 C2603 1.390 . S
C2595 C2594 1.387 . S
C2595 C2597 1.387 . S
H2596 C2603 0.950 . S
C2597 C2595 1.387 . S
C2597 C2599 1.390 . S
C2597 H2601 0.950 . S
H2598 C2594 0.950 . S
C2599 C2597 1.390 . S
C2599 C2600 1.387 . S
C2599 H2602 0.950 . S
C2600 C2599 1.387 . S
C2600 C2603 1.387 . S
H2601 C2597 0.950 . S
H2602 C2599 0.950 . S
C2603 C2594 1.390 . S
C2603 H2596 0.950 . S
C2603 C2600 1.387 . S
C2604 C2605 1.387 . S
C2604 H2608 0.950 . S
C2604 C2613 1.390 . S
C2605 C2604 1.387 . S
C2605 C2607 1.387 . S
H2606 C2613 0.950 . S
C2607 C2605 1.387 . S
C2607 C2609 1.390 . S
C2607 H2611 0.950 . S
H2608 C2604 0.950 . S
C2609 C2607 1.390 . S
C2609 C2610 1.387 . S
C2609 H2612 0.950 . S
C2610 C2609 1.387 . S
C2610 C2613 1.387 . S
H2611 C2607 0.950 . S
H2612 C2609 0.950 . S
C2613 C2604 1.390 . S
C2613 H2606 0.950 . S
C2613 C2610 1.387 . S
C2614 C2615 1.387 . S
C2614 H2618 0.950 . S
C2614 C2623 1.390 . S
C2615 C2614 1.387 . S
C2615 C2617 1.387 . S
H2616 C2623 0.950 . S
C2617 C2615 1.387 . S
C2617 C2619 1.390 . S
C2617 H2621 0.950 . S
H2618 C2614 0.950 . S
C2619 C2617 1.390 . S
C2619 C2620 1.387 . S
C2619 H2622 0.950 . S
C2620 C2619 1.387 . S
C2620 C2623 1.387 . S
H2621 C2617 0.950 . S
H2622 C2619 0.950 . S
C2623 C2614 1.390 . S
C2623 H2616 0.950 . S
C2623 C2620 1.387 . S
C2624 C2625 1.387 . S
C2624 H2628 0.950 . S
C2624 C2633 1.390 . S
C2625 C2624 1.387 . S
C2625 C2627 1.387 . S
H2626 C2633 0.950 . S
C2627 C2625 1.387 . S
C2627 C2629 1.390 . S
C2627 H2631 0.950 . S
H2628 C2624 0.950 . S
C2629 C2627 1.390 . S
C2629 C2630 1.387 . S
C2629 H2632 0.950 . S
C2630 C2629 1.387 . S
C2630 C2633 1.387 . S
H2631 C2627 0.950 . S
H2632 C2629 0.950 . S
C2633 C2624 1.390 . S
C2633 H2626 0.950 . S
C2633 C2630 1.387 . S
C2634 C2635 1.387 . S
C2634 H2638 0.950 . S
C2634 C2643 1.390 . S
C2635 C2634 1.387 . S
C2635 C2637 1.387 . S
H2636 C2643 0.950 . S
C2637 C2635 1.387 . S
C2637 C2639 1.390 . S
C2637 H2641 0.950 . S
H2638 C2634 0.950 . S
C2639 C2637 1.390 . S
C2639 C2640 1.387 . S
C2639 H2642 0.950 . S
C2640 C2639 1.387 . S
C2640 C2643 1.387 . S
H2641 C2637 0.950 . S
H2642 C2639 0.950 . S
C2643 C2634 1.390 . S
C2643 H2636 0.950 . S
C2643 C2640 1.387 . S
C2644 C2645 1.387 . S
C2644 H2648 0.950 . S
C2644 C2653 1.390 . S
C2645 C2644 1.387 . S
C2645 C2647 1.387 . S
H2646 C2653 0.950 . S
C2647 C2645 1.387 . S
C2647 C2649 1.390 . S
C2647 H2651 0.950 . S
H2648 C2644 0.950 . S
C2649 C2647 1.390 . S
C2649 C2650 1.387 . S
C2649 H2652 0.950 . S
C2650 C2649 1.387 . S
C2650 C2653 1.387 . S
H2651 C2647 0.950 . S
H2652 C2649 0.950 . S
C2653 C2644 1.390 . S
C2653 H2646 0.950 . S
C2653 C2650 1.387 . S
C2654 C2655 1.387 . S
C2654 H2658 0.950 . S
C2654 C2663 1.390 . S
C2655 C2654 1.387 . S
C2655 C2657 1.387 . S
H2656 C2663 0.950 . S
C2657 C2655 1.387 . S
C2657 C2659 1.390 . S
C2657 H2661 0.950 . S
H2658 C2654 0.950 . S
C2659 C2657 1.390 . S
C2659 C2660 1.387 . S
C2659 H2662 0.950 . S
C2660 C2659 1.387 . S
C2660 C2663 1.387 . S
H2661 C2657 0.950 . S
H2662 C2659 0.950 . S
C2663 C2654 1.390 . S
C2663 H2656 0.950 . S
C2663 C2660 1.387 . S
C2664 C2665 1.387 . S
C2664 H2668 0.950 . S
C2664 C2673 1.390 . S
C2665 C2664 1.387 . S
C2665 C2667 1.387 . S
H2666 C2673 0.950 . S
C2667 C2665 1.387 . S
C2667 C2669 1.390 . S
C2667 H2671 0.950 . S
H2668 C2664 0.950 . S
C2669 C2667 1.390 . S
C2669 C2670 1.387 . S
C2669 H2672 0.950 . S
C2670 C2669 1.387 . S
C2670 C2673 1.387 . S
H2671 C2667 0.950 . S
H2672 C2669 0.950 . S
C2673 C2664 1.390 . S
C2673 H2666 0.950 . S
C2673 C2670 1.387 . S
C2674 C2675 1.387 . S
C2674 H2678 0.950 . S
C2674 C2683 1.390 . S
C2675 C2674 1.387 . S
C2675 C2677 1.387 . S
H2676 C2683 0.950 . S
C2677 C2675 1.387 . S
C2677 C2679 1.390 . S
C2677 H2681 0.950 . S
H2678 C2674 0.950 . S
C2679 C2677 1.390 . S
C2679 C2680 1.387 . S
C2679 H2682 0.950 . S
C2680 C2679 1.387 . S
C2680 C2683 1.387 . S
H2681 C2677 0.950 . S
H2682 C2679 0.950 . S
C2683 C2674 1.390 . S
C2683 H2676 0.950 . S
C2683 C2680 1.387 . S
C2684 C2685 1.387 . S
C2684 H2688 0.950 . S
C2684 C2693 1.390 . S
C2685 C2684 1.387 . S
C2685 C2687 1.387 . S
H2686 C2693 0.950 . S
C2687 C2685 1.387 . S
C2687 C2689 1.390 . S
C2687 H2691 0.950 . S
H2688 C2684 0.950 . S
C2689 C2687 1.390 . S
C2689 C2690 1.387 . S
C2689 H2692 0.950 . S
C2690 C2689 1.387 . S
C2690 C2693 1.387 . S
H2691 C2687 0.950 . S
H2692 C2689 0.950 . S
C2693 C2684 1.390 . S
C2693 H2686 0.950 . S
C2693 C2690 1.387 . S
C2694 C2695 1.387 . S
C2694 H2698 0.950 . S
C2694 C2703 1.390 . S
C2695 C2694 1.387 . S
C2695 C2697 1.387 . S
H2696 C2703 0.950 . S
C2697 C2695 1.387 . S
C2697 C2699 1.390 . S
C2697 H2701 0.950 . S
H2698 C2694 0.950 . S
C2699 C2697 1.390 . S
C2699 C2700 1.387 . S
C2699 H2702 0.950 . S
C2700 C2699 1.387 . S
C2700 C2703 1.387 . S
H2701 C2697 0.950 . S
H2702 C2699 0.950 . S
C2703 C2694 1.390 . S
C2703 H2696 0.950 . S
C2703 C2700 1.387 . S
C2704 C2705 1.387 . S
C2704 H2708 0.950 . S
C2704 C2713 1.390 . S
C2705 C2704 1.387 . S
C2705 C2707 1.387 . S
H2706 C2713 0.950 . S
C2707 C2705 1.387 . S
C2707 C2709 1.390 . S
C2707 H2711 0.950 . S
H2708 C2704 0.950 . S
C2709 C2707 1.390 . S
C2709 C2710 1.387 . S
C2709 H2712 0.950 . S
C2710 C2709 1.387 . S
C2710 C2713 1.387 . S
H2711 C2707 0.950 . S
H2712 C2709 0.950 . S
C2713 C2704 1.390 . S
C2713 H2706 0.950 . S
C2713 C2710 1.387 . S
C2714 C2715 1.387 . S
C2714 H2718 0.950 . S
C2714 C2723 1.390 . S
C2715 C2714 1.387 . S
C2715 C2717 1.387 . S
H2716 C2723 0.950 . S
C2717 C2715 1.387 . S
C2717 C2719 1.390 . S
C2717 H2721 0.950 . S
H2718 C2714 0.950 . S
C2719 C2717 1.390 . S
C2719 C2720 1.387 . S
C2719 H2722 0.950 . S
C2720 C2719 1.387 . S
C2720 C2723 1.387 . S
H2721 C2717 0.950 . S
H2722 C2719 0.950 . S
C2723 C2714 1.390 . S
C2723 H2716 0.950 . S
C2723 C2720 1.387 . S
C2724 C2725 1.387 . S
C2724 H2728 0.950 . S
C2724 C2733 1.390 . S
C2725 C2724 1.387 . S
C2725 C2727 1.387 . S
H2726 C2733 0.950 . S
C2727 C2725 1.387 . S
C2727 C2729 1.390 . S
C2727 H2731 0.950 . S
H2728 C2724 0.950 . S
C2729 C2727 1.390 . S
C2729 C2730 1.387 . S
C2729 H2732 0.950 . S
C2730 C2729 1.387 . S
C2730 C2733 1.387 . S
H2731 C2727 0.950 . S
H2732 C2729 0.950 . S
C2733 C2724 1.390 . S
C2733 H2726 0.950 . S
C2733 C2730 1.387 . S
C2734 C2735 1.387 . S
C2734 H2738 0.950 . S
C2734 C2743 1.390 . S
C2735 C2734 1.387 . S
C2735 C2737 1.387 . S
H2736 C2743 0.950 . S
C2737 C2735 1.387 . S
C2737 C2739 1.390 . S
C2737 H2741 0.950 . S
H2738 C2734 0.950 . S
C2739 C2737 1.390 . S
C2739 C2740 1.387 . S
C2739 H2742 0.950 . S
C2740 C2739 1.387 . S
C2740 C2743 1.387 . S
H2741 C2737 0.950 . S
H2742 C2739 0.950 . S
C2743 C2734 1.390 . S
C2743 H2736 0.950 . S
C2743 C2740 1.387 . S
C2744 C2745 1.387 . S
C2744 H2748 0.950 . S
C2744 C2753 1.390 . S
C2745 C2744 1.387 . S
C2745 C2747 1.387 . S
H2746 C2753 0.950 . S
C2747 C2745 1.387 . S
C2747 C2749 1.390 . S
C2747 H2751 0.950 . S
H2748 C2744 0.950 . S
C2749 C2747 1.390 . S
C2749 C2750 1.387 . S
C2749 H2752 0.950 . S
C2750 C2749 1.387 . S
C2750 C2753 1.387 . S
H2751 C2747 0.950 . S
H2752 C2749 0.950 . S
C2753 C2744 1.390 . S
C2753 H2746 0.950 . S
C2753 C2750 1.387 . S
C2754 C2755 1.387 . S
C2754 H2758 0.950 . S
C2754 C2763 1.390 . S
C2755 C2754 1.387 . S
C2755 C2757 1.387 . S
H2756 C2763 0.950 . S
C2757 C2755 1.387 . S
C2757 C2759 1.390 . S
C2757 H2761 0.950 . S
H2758 C2754 0.950 . S
C2759 C2757 1.390 . S
C2759 C2760 1.387 . S
C2759 H2762 0.950 . S
C2760 C2759 1.387 . S
C2760 C2763 1.387 . S
H2761 C2757 0.950 . S
H2762 C2759 0.950 . S
C2763 C2754 1.390 . S
C2763 H2756 0.950 . S
C2763 C2760 1.387 . S
C2764 C2765 1.387 . S
C2764 H2768 0.950 . S
C2764 C2773 1.390 . S
C2765 C2764 1.387 . S
C2765 C2767 1.387 . S
H2766 C2773 0.950 . S
C2767 C2765 1.387 . S
C2767 C2769 1.390 . S
C2767 H2771 0.950 . S
H2768 C2764 0.950 . S
C2769 C2767 1.390 . S
C2769 C2770 1.387 . S
C2769 H2772 0.950 . S
C2770 C2769 1.387 . S
C2770 C2773 1.387 . S
H2771 C2767 0.950 . S
H2772 C2769 0.950 . S
C2773 C2764 1.390 . S
C2773 H2766 0.950 . S
C2773 C2770 1.387 . S
C2774 C2775 1.387 . S
C2774 H2778 0.950 . S
C2774 C2783 1.390 . S
C2775 C2774 1.387 . S
C2775 C2777 1.387 . S
H2776 C2783 0.950 . S
C2777 C2775 1.387 . S
C2777 C2779 1.390 . S
C2777 H2781 0.950 . S
H2778 C2774 0.950 . S
C2779 C2777 1.390 . S
C2779 C2780 1.387 . S
C2779 H2782 0.950 . S
C2780 C2779 1.387 . S
C2780 C2783 1.387 . S
H2781 C2777 0.950 . S
H2782 C2779 0.950 . S
C2783 C2774 1.390 . S
C2783 H2776 0.950 . S
C2783 C2780 1.387 . S
C1585 N607 1.551 1_554 S
C1590 C18 1.584 . S
C1595 C51 1.582 . S
C1600 N640 1.552 1_554 S
C1605 C84 1.584 . S
C1610 N673 1.551 1_554 S
C1615 N574 1.549 1_554 S
C1620 C117 1.582 . S
C1625 N739 1.551 1_556 S
C1630 C150 1.581 . S
C1635 C183 1.583 . S
C1640 N541 1.552 1_556 S
C1645 N772 1.550 1_556 S
C1650 C216 1.582 . S
C1655 N706 1.552 1_556 S
C1660 C249 1.582 . S
C1665 C282 1.584 . S
C1670 N310 1.552 1_455 S
C1675 N343 1.551 1_545 S
C1680 C315 1.581 . S
C1685 N376 1.549 1_655 S
C1690 C348 1.584 . S
C1695 C381 1.581 . S
C1700 N277 1.551 1_565 S
C1705 N508 1.549 1_455 S
C1710 C414 1.582 . S
C1715 C447 1.581 . S
C1720 N409 1.551 1_545 S
C1725 N442 1.549 1_655 S
C1730 C480 1.582 . S
C1735 N475 1.551 1_565 S
C1740 C513 1.584 . S
C1745 C546 1.581 . S
C1750 N112 1.551 1_545 S
C1755 N178 1.549 1_565 S
C1760 C579 1.583 . S
C1765 C612 1.581 . S
C1770 N211 1.550 1_455 S
C1775 N244 1.551 1_545 S
C1780 C645 1.581 . S
C1785 N145 1.551 1_655 S
C1790 C678 1.584 . S
C1795 C711 1.581 . S
C1800 N46 1.551 1_565 S
C1805 C744 1.584 . S
C1810 N79 1.551 1_455 S
C1815 N13 1.551 1_655 S
C1820 C777 1.581 . S
C1825 C810 1.584 . S
C1830 N1399 1.551 . S
C1835 N1432 1.550 . S
C1840 C843 1.584 . S
C1845 N1465 1.550 . S
C1850 C876 1.584 . S
C1855 C909 1.584 . S
C1860 N1366 1.552 . S
C1865 N1531 1.551 . S
C1870 C942 1.581 . S
C1875 C975 1.584 . S
C1880 N1333 1.552 . S
C1885 N1564 1.552 . S
C1890 C1008 1.584 . S
C1895 N1498 1.549 . S
C1900 C1041 1.583 . S
C1905 N1102 1.550 . S
C1910 C1074 1.581 . S
C1915 C1107 1.583 . S
C1920 N1135 1.552 . S
C1925 N1168 1.551 . S
C1930 C1140 1.584 . S
C1935 C1173 1.581 . S
C1940 N1069 1.550 . S
C1945 C1206 1.584 . S
C1950 N1300 1.551 . S
C1955 N1201 1.551 . S
C1960 C1239 1.584 . S
C1965 C1272 1.581 . S
C1970 N1234 1.550 . S
C1975 N1267 1.552 . S
C1980 C1305 1.584 . S
C1985 N904 1.549 . S
C1990 C1338 1.583 . S
C1995 C1371 1.581 . S
C2000 N970 1.551 . S
C2005 C1404 1.581 . S
C2010 N1003 1.550 . S
C2015 N1036 1.552 . S
C2020 C1437 1.583 . S
C2025 N937 1.551 . S
C2030 C1470 1.584 . S
C2035 N838 1.549 . S
C2040 C1503 1.583 . S
C2045 C1536 1.581 . S
C2050 N871 1.550 . S
C2055 N805 1.551 . S
C2060 C1569 1.584 . S
C2065 C1044 1.693 . S
C2070 C21 1.692 . S
C2075 C945 1.690 . S
C2080 C54 1.692 . S
C2085 C87 1.692 . S
C2090 C978 1.693 . S
C2095 C1011 1.690 . S
C2100 C120 1.692 . S
C2105 C153 1.693 . S
C2110 C846 1.691 . S
C2115 C879 1.690 . S
C2120 C186 1.689 . S
C2125 C912 1.691 . S
C2130 C219 1.690 . S
C2135 C252 1.691 . S
C2140 C813 1.689 . S
C2145 C285 1.693 . S
C2150 C1473 1.693 . S
C2155 C1374 1.693 . S
C2160 C318 1.692 . S
C2165 C1407 1.691 . S
C2170 C351 1.693 . S
C2175 C1440 1.689 . S
C2180 C384 1.689 . S
C2185 C1572 1.689 . S
C2190 C417 1.689 . S
C2195 C450 1.692 . S
C2200 C1506 1.693 . S
C2205 C483 1.692 . S
C2210 C1539 1.693 . S
C2215 C1341 1.693 . S
C2220 C516 1.693 . S
C2225 C1308 1.690 . S
C2230 C549 1.689 . S
C2235 C582 1.692 . S
C2240 C1110 1.691 . S
C2245 C1143 1.689 . S
C2250 C615 1.689 . S
C2255 C1176 1.691 . S
C2260 C648 1.689 . S
C2265 C681 1.693 . S
C2270 C1077 1.693 . S
C2275 C714 1.693 . S
C2280 C1242 1.692 . S
C2285 C1275 1.693 . S
C2290 C747 1.693 . S
C2295 C780 1.689 . S
C2300 C1209 1.689 . S
C2305 N266 1.350 . S
C2310 C7 1.342 . S
C2315 N299 1.345 . S
C2320 C40 1.336 . S
C2325 C73 1.341 . S
C2330 N332 1.350 . S
C2335 C106 1.342 . S
C2340 N365 1.350 . S
C2345 C139 1.339 . S
C2350 N398 1.348 . S
C2355 N431 1.345 . S
C2360 C172 1.336 . S
C2365 N464 1.344 . S
C2370 C205 1.336 . S
C2375 C238 1.336 . S
C2380 N497 1.345 . S
C2385 N530 1.348 . S
C2390 C271 1.340 . S
C2395 N761 1.344 . S
C2400 C304 1.336 . S
C2405 N695 1.346 . S
C2410 C337 1.338 . S
C2415 C370 1.341 . S
C2420 N728 1.350 . S
C2425 C403 1.339 . S
C2430 N563 1.347 . S
C2435 C436 1.342 . S
C2440 N596 1.350 . S
C2445 C469 1.339 . S
C2450 N629 1.348 . S
C2455 C502 1.337 . S
C2460 N662 1.346 . S
C2465 N2 1.348 . S
C2470 C535 1.340 . S
C2475 C568 1.342 . S
C2480 N134 1.350 . S
C2485 N167 1.348 . S
C2490 C601 1.340 . S
C2495 C634 1.336 . S
C2500 N200 1.345 . S
C2505 N233 1.348 . S
C2510 C667 1.339 . S
C2515 N68 1.344 . S
C2520 C700 1.336 . S
C2525 C733 1.336 . S
C2530 N101 1.344 . S
C2535 N35 1.345 . S
C2540 C766 1.336 . S
C2545 C799 1.340 . S
C2550 N1058 1.349 . S
C2555 N1091 1.346 . S
C2560 C832 1.338 . S
C2565 C865 1.340 . S
C2570 N1124 1.349 . S
C2575 C898 1.341 . S
C2580 N1157 1.349 . S
C2585 C931 1.341 . S
C2590 N1190 1.350 . S
C2595 C964 1.341 . S
C2600 N1223 1.350 . S
C2605 C997 1.337 . S
C2610 N1256 1.345 . S
C2615 C1030 1.336 . S
C2620 N1289 1.345 . S
C2625 C1063 1.337 . S
C2630 N1322 1.346 . S
C2635 C1096 1.336 . S
C2640 N1553 1.345 . S
C2645 C1129 1.339 . S
C2650 N1487 1.348 . S
C2655 N1520 1.348 . S
C2660 C1162 1.339 . S
C2665 N1355 1.347 . S
C2670 C1195 1.339 . S
C2675 C1228 1.341 . S
C2680 N1388 1.349 . S
C2685 N1421 1.347 . S
C2690 C1261 1.338 . S
C2695 C1294 1.339 . S
C2700 N1454 1.348 . S
C2705 C1327 1.337 . S
C2710 N794 1.345 . S
C2715 N926 1.345 . S
C2720 C1360 1.337 . S
C2725 N959 1.347 . S
C2730 C1393 1.338 . S
C2735 N992 1.349 . S
C2740 C1426 1.340 . S
C2745 N1025 1.350 . S
C2750 C1459 1.341 . S
C2755 N860 1.345 . S
C2760 C1492 1.337 . S
C2765 N893 1.349 . S
C2770 C1525 1.341 . S
C2775 N827 1.345 . S
C2780 C1558 1.337 . S
