# Generated by pormake.
# Topology zfg, (5)-cn, num edge types: 1
# Building blocks:
#     Node 0, Type 0, BuildingBlock: XOMCOT_clean_sbu_0, # of connection points: 5
#     Node 1, Type 0, BuildingBlock: XOMCOT_clean_sbu_0, # of connection points: 5
#     Node 2, Type 0, BuildingBlock: XOMCOT_clean_sbu_0, # of connection points: 5
#     Node 3, Type 0, BuildingBlock: XOMCOT_clean_sbu_0, # of connection points: 5
#     Node 4, Type 0, BuildingBlock: XOMCOT_clean_sbu_0, # of connection points: 5
#     Node 5, Type 0, BuildingBlock: XOMCOT_clean_sbu_0, # of connection points: 5
#     Node 6, Type 0, BuildingBlock: XOMCOT_clean_sbu_0, # of connection points: 5
#     Node 7, Type 0, BuildingBlock: XOMCOT_clean_sbu_0, # of connection points: 5
#     Node 8, Type 0, BuildingBlock: XOMCOT_clean_sbu_0, # of connection points: 5
#     Node 9, Type 0, BuildingBlock: XOMCOT_clean_sbu_0, # of connection points: 5
#     Node 10, Type 0, BuildingBlock: XOMCOT_clean_sbu_0, # of connection points: 5
#     Node 11, Type 0, BuildingBlock: XOMCOT_clean_sbu_0, # of connection points: 5
#     Node 12, Type 0, BuildingBlock: XOMCOT_clean_sbu_0, # of connection points: 5
#     Node 13, Type 0, BuildingBlock: XOMCOT_clean_sbu_0, # of connection points: 5
#     Node 14, Type 0, BuildingBlock: XOMCOT_clean_sbu_0, # of connection points: 5
#     Node 15, Type 0, BuildingBlock: XOMCOT_clean_sbu_0, # of connection points: 5
#     Edge 16, Type (0, 0), BuildingBlock: ZUJKAS_clean_linker_0, # of connection points: 2
#     Edge 17, Type (0, 0), BuildingBlock: ZUJKAS_clean_linker_0, # of connection points: 2
#     Edge 18, Type (0, 0), BuildingBlock: ZUJKAS_clean_linker_0, # of connection points: 2
#     Edge 19, Type (0, 0), BuildingBlock: ZUJKAS_clean_linker_0, # of connection points: 2
#     Edge 20, Type (0, 0), BuildingBlock: ZUJKAS_clean_linker_0, # of connection points: 2
#     Edge 21, Type (0, 0), BuildingBlock: ZUJKAS_clean_linker_0, # of connection points: 2
#     Edge 22, Type (0, 0), BuildingBlock: ZUJKAS_clean_linker_0, # of connection points: 2
#     Edge 23, Type (0, 0), BuildingBlock: ZUJKAS_clean_linker_0, # of connection points: 2
#     Edge 24, Type (0, 0), BuildingBlock: ZUJKAS_clean_linker_0, # of connection points: 2
#     Edge 25, Type (0, 0), BuildingBlock: ZUJKAS_clean_linker_0, # of connection points: 2
#     Edge 26, Type (0, 0), BuildingBlock: ZUJKAS_clean_linker_0, # of connection points: 2
#     Edge 27, Type (0, 0), BuildingBlock: ZUJKAS_clean_linker_0, # of connection points: 2
#     Edge 28, Type (0, 0), BuildingBlock: ZUJKAS_clean_linker_0, # of connection points: 2
#     Edge 29, Type (0, 0), BuildingBlock: ZUJKAS_clean_linker_0, # of connection points: 2
#     Edge 30, Type (0, 0), BuildingBlock: ZUJKAS_clean_linker_0, # of connection points: 2
#     Edge 31, Type (0, 0), BuildingBlock: ZUJKAS_clean_linker_0, # of connection points: 2
#     Edge 32, Type (0, 0), BuildingBlock: ZUJKAS_clean_linker_0, # of connection points: 2
#     Edge 33, Type (0, 0), BuildingBlock: ZUJKAS_clean_linker_0, # of connection points: 2
#     Edge 34, Type (0, 0), BuildingBlock: ZUJKAS_clean_linker_0, # of connection points: 2
#     Edge 35, Type (0, 0), BuildingBlock: ZUJKAS_clean_linker_0, # of connection points: 2
#     Edge 36, Type (0, 0), BuildingBlock: ZUJKAS_clean_linker_0, # of connection points: 2
#     Edge 37, Type (0, 0), BuildingBlock: ZUJKAS_clean_linker_0, # of connection points: 2
#     Edge 38, Type (0, 0), BuildingBlock: ZUJKAS_clean_linker_0, # of connection points: 2
#     Edge 39, Type (0, 0), BuildingBlock: ZUJKAS_clean_linker_0, # of connection points: 2
#     Edge 40, Type (0, 0), BuildingBlock: ZUJKAS_clean_linker_0, # of connection points: 2
#     Edge 41, Type (0, 0), BuildingBlock: ZUJKAS_clean_linker_0, # of connection points: 2
#     Edge 42, Type (0, 0), BuildingBlock: ZUJKAS_clean_linker_0, # of connection points: 2
#     Edge 43, Type (0, 0), BuildingBlock: ZUJKAS_clean_linker_0, # of connection points: 2
#     Edge 44, Type (0, 0), BuildingBlock: ZUJKAS_clean_linker_0, # of connection points: 2
#     Edge 45, Type (0, 0), BuildingBlock: ZUJKAS_clean_linker_0, # of connection points: 2
#     Edge 46, Type (0, 0), BuildingBlock: ZUJKAS_clean_linker_0, # of connection points: 2
#     Edge 47, Type (0, 0), BuildingBlock: ZUJKAS_clean_linker_0, # of connection points: 2
#     Edge 48, Type (0, 0), BuildingBlock: ZUJKAS_clean_linker_0, # of connection points: 2
#     Edge 49, Type (0, 0), BuildingBlock: ZUJKAS_clean_linker_0, # of connection points: 2
#     Edge 50, Type (0, 0), BuildingBlock: ZUJKAS_clean_linker_0, # of connection points: 2
#     Edge 51, Type (0, 0), BuildingBlock: ZUJKAS_clean_linker_0, # of connection points: 2
#     Edge 52, Type (0, 0), BuildingBlock: ZUJKAS_clean_linker_0, # of connection points: 2
#     Edge 53, Type (0, 0), BuildingBlock: ZUJKAS_clean_linker_0, # of connection points: 2
#     Edge 54, Type (0, 0), BuildingBlock: ZUJKAS_clean_linker_0, # of connection points: 2
#     Edge 55, Type (0, 0), BuildingBlock: ZUJKAS_clean_linker_0, # of connection points: 2
# Relax obj value: 0.156
# Max RMSD: 0.183
# Mean RMSD: 0.183
data_MOF--net-zfg--node1-XOMCOT_clean_sbu_0--edge1-ZUJKAS_clean_linker_0
_symmetry_space_group_name_H-M    P1
_symmetry_Int_Tables_number       1
_symmetry_cell_setting            triclinic
loop_
_symmetry_equiv_pos_as_xyz
'x, y, z'
_cell_length_a     52.35779
_cell_length_b     52.388108
_cell_length_c     68.872397
_cell_angle_alpha  89.915296
_cell_angle_beta   89.838409
_cell_angle_gamma 90.078122
loop_
_atom_site_label
_atom_site_type_symbol
_atom_site_fract_x
_atom_site_fract_y
_atom_site_fract_z
_atom_type_partial_charge
Co0 Co 0.0708 0.30976 0.13011 0.0
C1 C 0.10139 0.26113 0.13688 0.0
C2 C 0.12092 0.29577 0.14417 0.0
C3 C 0.13726 0.27575 0.14724 0.0
N4 N 0.09832 0.28681 0.13772 0.0
N5 N 0.12503 0.25397 0.14264 0.0
H6 H 0.08733 0.2478 0.13171 0.0
H7 H 0.1253 0.31575 0.14632 0.0
C8 C 0.07702 0.31805 0.17257 0.0
O9 O 0.07545 0.29321 0.17496 0.0
N10 N 0.04472 0.33385 0.12274 0.0
C11 C 0.02298 0.32967 0.11283 0.0
C12 C 0.01084 0.3528 0.11012 0.0
C13 C 0.0457 0.35924 0.12573 0.0
N14 N 0.02525 0.37137 0.11819 0.0
C15 C 0.03982 0.2648 0.12967 0.0
C16 C 1.00489 0.28002 0.15743 0.0
C17 C 1.00071 0.25699 0.14753 0.0
C18 C 0.0187 0.24939 0.13363 0.0
C19 C 0.02657 0.29477 0.15318 0.0
N20 N 0.04412 0.28683 0.13973 0.0
H21 H 0.05193 0.25959 0.11764 0.0
H22 H 0.02841 0.31324 0.15997 0.0
H23 H 0.0166 0.31122 0.10773 0.0
H24 H 0.06121 0.36858 0.13328 0.0
O25 O 0.07248 0.29747 0.10382 0.0
O26 O 0.09541 0.32962 0.11527 0.0
O27 O 0.07447 0.32789 0.15572 0.0
C28 C 0.08932 0.31521 0.1006 0.0
H29 H 0.15669 0.27711 0.15247 0.0
H30 H 0.99314 0.35574 0.10237 0.0
H31 H 0.99119 0.28693 0.16798 0.0
H32 H 0.01574 0.23237 0.12501 0.0
Co33 Co 0.70444 0.07213 0.12854 0.0
C34 C 0.75344 0.10231 0.13544 0.0
C35 C 0.7189 0.12286 0.14122 0.0
C36 C 0.73918 0.13858 0.14522 0.0
N37 N 0.72763 0.09996 0.13525 0.0
N38 N 0.76091 0.12568 0.14161 0.0
H39 H 0.76673 0.08751 0.13158 0.0
H40 H 0.69893 0.12772 0.14277 0.0
C41 C 0.69768 0.08008 0.17104 0.0
O42 O 0.72269 0.08026 0.17257 0.0
N43 N 0.68006 0.04582 0.12207 0.0
C44 C 0.6838 0.02366 0.11262 0.0
C45 C 0.66042 0.01175 0.11037 0.0
C46 C 0.6547 0.04726 0.12526 0.0
N47 N 0.64213 0.02672 0.11826 0.0
C48 C 0.74947 0.04161 0.12689 0.0
C49 C 0.73667 1.00746 0.1559 0.0
C50 C 0.75915 1.00338 0.14515 0.0
C51 C 0.76548 0.02097 0.13061 0.0
C52 C 0.72127 0.02874 0.15187 0.0
N53 N 0.72802 0.04587 0.13774 0.0
H54 H 0.75399 0.05367 0.11466 0.0
H55 H 0.7033 0.03061 0.15945 0.0
H56 H 0.7021 0.01686 0.10746 0.0
H57 H 0.64567 0.06321 0.13249 0.0
O58 O 0.71577 0.07338 0.10198 0.0
O59 O 0.68392 0.09637 0.11386 0.0
O60 O 0.68726 0.07592 0.1546 0.0
C61 C 0.69799 0.09013 0.09897 0.0
H62 H 0.73801 0.15814 0.15017 0.0
H63 H 0.65711 0.99383 0.10298 0.0
H64 H 0.73073 0.99403 0.167 0.0
H65 H 0.78204 0.01812 0.12141 0.0
Co66 Co 0.94347 0.70678 0.12942 0.0
C67 C 0.91455 0.75591 0.13309 0.0
C68 C 0.89623 0.724 0.147 0.0
C69 C 0.88084 0.74496 0.14904 0.0
N70 N 0.91734 0.73077 0.13706 0.0
N71 N 0.8922 0.76503 0.14025 0.0
H72 H 0.92812 0.76702 0.12471 0.0
H73 H 0.89206 0.70491 0.15211 0.0
C74 C 0.95517 0.67876 0.16675 0.0
O75 O 0.97978 0.67967 0.16304 0.0
N76 N 0.96871 0.6813 0.12197 0.0
C77 C 0.99122 0.68362 0.11252 0.0
C78 C 1.00145 0.65966 0.10977 0.0
C79 C 0.96537 0.65589 0.12429 0.0
N80 N 0.98516 0.64222 0.1172 0.0
C81 C 0.9843 0.74229 0.12476 0.0
C82 C 0.99373 0.75247 0.16338 0.0
C83 C 0.01032 0.76241 0.1492 0.0
C84 C 1.00484 0.75778 0.12971 0.0
C85 C 0.97332 0.73662 0.15773 0.0
N86 N 0.96988 0.73035 0.13861 0.0
H87 H 0.98059 0.7394 0.10955 0.0
H88 H 0.96049 0.72942 0.16874 0.0
H89 H 0.99969 0.70109 0.10736 0.0
H90 H 0.94872 0.64763 0.13123 0.0
O91 O 0.94143 0.71865 0.103 0.0
O92 O 0.91803 0.68724 0.11516 0.0
O93 O 0.93922 0.68944 0.15536 0.0
C94 C 0.92412 0.70131 0.10024 0.0
H95 H 0.86258 0.74536 0.15645 0.0
H96 H 0.0192 0.65542 0.10238 0.0
H97 H 0.99687 0.75636 0.17863 0.0
H98 H 0.01656 0.76594 0.11827 0.0
Co99 Co 0.3073 0.9423 0.13007 0.0
C100 C 0.25756 0.91305 0.13674 0.0
C101 C 0.29158 0.89063 0.13951 0.0
C102 C 0.27094 0.8751 0.14287 0.0
N103 N 0.28343 0.91448 0.13556 0.0
N104 N 0.24952 0.88911 0.14111 0.0
H105 H 0.2447 0.9288 0.13457 0.0
H106 H 0.3114 0.88496 0.14024 0.0
C107 C 0.31136 0.93248 0.17249 0.0
O108 O 0.2863 0.93184 0.17319 0.0
N109 N 0.33219 0.96866 0.12474 0.0
C110 C 0.32897 0.99108 0.11549 0.0
C111 C 0.35254 1.0027 0.11352 0.0
C112 C 0.35748 0.9668 0.1281 0.0
N113 N 0.37047 0.98732 0.12138 0.0
C114 C 0.26301 0.97356 0.12722 0.0
C115 C 0.27443 1.00665 0.15717 0.0
C116 C 0.25367 0.01217 0.14504 0.0
C117 C 0.24779 0.995 0.13017 0.0
C118 C 0.28934 0.98489 0.15366 0.0
N119 N 0.2834 0.96844 0.13892 0.0
H120 H 0.25881 0.96149 0.11496 0.0
H121 H 0.30652 0.98225 0.16204 0.0
H122 H 0.31092 0.99816 0.11012 0.0
H123 H 0.36616 0.95049 0.1351 0.0
O124 O 0.29769 0.94184 0.10312 0.0
O125 O 0.3287 0.91847 0.11574 0.0
O126 O 0.3228 0.93761 0.15656 0.0
C127 C 0.31565 0.92514 0.10049 0.0
H128 H 0.27171 0.85509 0.14676 0.0
H129 H 0.35624 0.02064 0.10623 0.0
H130 H 0.28 0.01978 0.16854 0.0
H131 H 0.23195 0.9985 0.12044 0.0
Co132 Co 0.57358 0.21175 0.37214 0.0
C133 C 0.60009 0.26185 0.36458 0.0
C134 C 0.62274 0.22881 0.35794 0.0
C135 C 0.63649 0.25016 0.35303 0.0
N136 N 0.59993 0.236 0.36509 0.0
N137 N 0.62229 0.27096 0.35706 0.0
H138 H 0.5842 0.27366 0.36906 0.0
H139 H 0.62881 0.20923 0.35615 0.0
C140 C 0.56385 0.18338 0.3346 0.0
O141 O 0.53922 0.18229 0.33825 0.0
N142 N 0.54816 0.18608 0.37898 0.0
C143 C 0.5254 0.1885 0.38802 0.0
C144 C 0.51515 0.16451 0.39094 0.0
C145 C 0.55154 0.16063 0.37692 0.0
N146 N 0.53159 0.147 0.38388 0.0
C147 C 0.53397 0.2485 0.37669 0.0
C148 C 0.52381 0.25803 0.33806 0.0
C149 C 0.50957 0.27075 0.35236 0.0
C150 C 0.51516 0.26604 0.37181 0.0
C151 C 0.54314 0.24088 0.34362 0.0
N152 N 0.54727 0.23539 0.36281 0.0
H153 H 0.53749 0.24541 0.3919 0.0
H154 H 0.55489 0.23255 0.33244 0.0
H155 H 0.5168 0.20614 0.39264 0.0
H156 H 0.56861 0.15229 0.37072 0.0
O157 O 0.57486 0.22305 0.39869 0.0
O158 O 0.59865 0.192 0.38671 0.0
O159 O 0.57887 0.19515 0.3461 0.0
C160 C 0.59206 0.20573 0.40164 0.0
H161 H 0.65559 0.25033 0.34698 0.0
H162 H 0.49693 0.16036 0.39771 0.0
H163 H 0.52037 0.26168 0.32281 0.0
H164 H 0.50467 0.27557 0.38329 0.0
Co165 Co 0.81262 0.57108 0.37216 0.0
C166 C 0.76403 0.60092 0.36864 0.0
C167 C 0.79657 0.61937 0.35568 0.0
C168 C 0.77582 0.63504 0.35361 0.0
N169 N 0.78927 0.598 0.36503 0.0
N170 N 0.75535 0.6236 0.36181 0.0
H171 H 0.7525 0.58713 0.37645 0.0
H172 H 0.81585 0.62344 0.3509 0.0
C173 C 0.84121 0.56026 0.33488 0.0
O174 O 0.84031 0.53556 0.33812 0.0
N175 N 0.83747 0.54498 0.37905 0.0
C176 C 0.83442 0.52048 0.38474 0.0
C177 C 0.85817 0.5097 0.38744 0.0
C178 C 0.86302 0.5487 0.37866 0.0
N179 N 0.87613 0.52749 0.38361 0.0
C180 C 0.77491 0.53231 0.37635 0.0
C181 C 0.76415 0.52398 0.33768 0.0
C182 C 0.75125 0.50948 0.35184 0.0
C183 C 0.75674 0.51415 0.37134 0.0
C184 C 0.78217 0.54249 0.3434 0.0
N185 N 0.78822 0.54565 0.36257 0.0
H186 H 0.77868 0.53497 0.39157 0.0
H187 H 0.79082 0.55436 0.33239 0.0
H188 H 0.81655 0.51069 0.38684 0.0
H189 H 0.87184 0.56651 0.37427 0.0
O190 O 0.8007 0.5726 0.39857 0.0
O191 O 0.83264 0.59571 0.38695 0.0
O192 O 0.83015 0.57584 0.34637 0.0
C193 C 0.81823 0.58957 0.40168 0.0
H194 H 0.77584 0.65349 0.34652 0.0
H195 H 0.86189 0.4903 0.39203 0.0
H196 H 0.76004 0.52136 0.32241 0.0
H197 H 0.74746 0.50337 0.38281 0.0
Co198 Co 0.44884 0.81256 0.37566 0.0
C199 C 0.41854 0.76366 0.3679 0.0
C200 C 0.39674 0.79819 0.36665 0.0
C201 C 0.38086 0.77818 0.36236 0.0
N202 N 0.42046 0.78935 0.37017 0.0
N203 N 0.39452 0.75643 0.36305 0.0
H204 H 0.43417 0.75042 0.36893 0.0
H205 H 0.39138 0.81812 0.36681 0.0
C206 C 0.439 0.81712 0.33348 0.0
O207 O 0.43955 0.79207 0.33283 0.0
N208 N 0.47564 0.83692 0.38098 0.0
C209 C 0.49721 0.83342 0.39123 0.0
C210 C 0.50927 0.85673 0.39326 0.0
C211 C 0.47479 0.86212 0.37697 0.0
N212 N 0.4951 0.87477 0.3843 0.0
C213 C 0.47876 0.7672 0.37705 0.0
C214 C 0.51273 0.77972 0.34781 0.0
C215 C 0.51689 0.75737 0.35864 0.0
C216 C 0.49936 0.75113 0.37328 0.0
C217 C 0.49153 0.79519 0.35191 0.0
N218 N 0.47453 0.7886 0.36619 0.0
H219 H 0.46652 0.76268 0.38921 0.0
H220 H 0.48955 0.81308 0.34425 0.0
H221 H 0.50337 0.81537 0.39723 0.0
H222 H 0.45895 0.87115 0.3696 0.0
O223 O 0.44884 0.802 0.40239 0.0
O224 O 0.4255 0.83368 0.39075 0.0
O225 O 0.44374 0.82869 0.34938 0.0
C226 C 0.43227 0.81988 0.40562 0.0
H227 H 0.36072 0.7796 0.35905 0.0
H228 H 0.52695 0.86014 0.40095 0.0
H229 H 0.52607 0.78554 0.33659 0.0
H230 H 0.50222 0.73461 0.38249 0.0
Co231 Co 0.21105 0.44794 0.3697 0.0
C232 C 0.26022 0.41926 0.36436 0.0
C233 C 0.22769 0.40092 0.35152 0.0
C234 C 0.2488 0.38615 0.34808 0.0
N235 N 0.23475 0.42171 0.36161 0.0
N236 N 0.26932 0.39751 0.35619 0.0
H237 H 0.27169 0.4328 0.37235 0.0
H238 H 0.20839 0.39678 0.34692 0.0
C239 C 0.17811 0.45788 0.33401 0.0
O240 O 0.17106 0.48053 0.34008 0.0
N241 N 0.18632 0.47353 0.37777 0.0
C242 C 0.18979 0.49845 0.38181 0.0
C243 C 0.16631 0.50936 0.38554 0.0
C244 C 0.1609 0.46957 0.37957 0.0
N245 N 0.14806 0.49122 0.38397 0.0
C246 C 0.25192 0.48349 0.37465 0.0
C247 C 0.25194 0.50488 0.33803 0.0
C248 C 0.26839 0.51495 0.35215 0.0
C249 C 0.26848 0.5036 0.37053 0.0
C250 C 0.23573 0.48437 0.3427 0.0
N251 N 0.23515 0.47444 0.3611 0.0
H252 H 0.2523 0.47582 0.38915 0.0
H253 H 0.22381 0.47685 0.3314 0.0
H254 H 0.20783 0.50843 0.38154 0.0
H255 H 0.15199 0.4513 0.3769 0.0
O256 O 0.22227 0.44465 0.3962 0.0
O257 O 0.19095 0.4221 0.38331 0.0
O258 O 0.19435 0.44457 0.34343 0.0
C259 C 0.20474 0.42741 0.39847 0.0
H260 H 0.24896 0.36852 0.33993 0.0
H261 H 0.163 0.52939 0.38838 0.0
H262 H 0.25161 0.51276 0.32348 0.0
H263 H 0.28063 0.51077 0.382 0.0
Co264 Co 0.9487 0.70885 0.87286 0.0
C265 C 0.92001 0.75822 0.86679 0.0
C266 C 0.90115 0.72509 0.85543 0.0
C267 C 0.8864 0.74605 0.85147 0.0
N268 N 0.92229 0.73258 0.86493 0.0
N269 N 0.89814 0.76695 0.85862 0.0
H270 H 0.93368 0.77023 0.87411 0.0
H271 H 0.89683 0.70559 0.85148 0.0
C272 C 0.9571 0.67551 0.83686 0.0
O273 O 0.97858 0.66586 0.84329 0.0
N274 N 0.97431 0.68413 0.8808 0.0
C275 C 0.99881 0.68811 0.88591 0.0
C276 C 0.00991 0.66487 0.89007 0.0
C277 C 0.97065 0.65868 0.88259 0.0
N278 N 0.99223 0.64631 0.88781 0.0
C279 C 0.98153 0.75182 0.87747 0.0
C280 C 0.01105 0.74575 0.84456 0.0
C281 C 0.01826 0.76412 0.85832 0.0
C282 C 1.00263 0.76754 0.87459 0.0
C283 C 0.98952 0.73032 0.84798 0.0
N284 N 0.97541 0.73291 0.86463 0.0
H285 H 0.97054 0.75468 0.89052 0.0
H286 H 0.98504 0.71597 0.83743 0.0
H287 H 1.0082 0.70647 0.88645 0.0
H288 H 0.95287 0.64932 0.87896 0.0
O289 O 0.9456 0.71965 0.89943 0.0
O290 O 0.92281 0.68861 0.88639 0.0
O291 O 0.94529 0.69295 0.84623 0.0
C292 C 0.92826 0.70223 0.90163 0.0
H293 H 0.86858 0.74586 0.84356 0.0
H294 H 0.02957 0.66196 0.89432 0.0
H295 H 0.02253 0.74255 0.83169 0.0
H296 H 1.007 0.78195 0.88535 0.0
Co297 Co 0.31405 0.94889 0.87314 0.0
C298 C 0.26572 0.91929 0.86648 0.0
C299 C 0.29976 0.89964 0.85755 0.0
C300 C 0.27912 0.88458 0.85323 0.0
N301 N 0.29146 0.92141 0.86575 0.0
N302 N 0.25768 0.89691 0.85873 0.0
H303 H 0.25317 0.93385 0.87219 0.0
H304 H 0.31959 0.8951 0.85482 0.0
C305 C 0.34423 0.9603 0.83634 0.0
O306 O 0.34613 0.98469 0.84051 0.0
N307 N 0.33784 0.97573 0.88031 0.0
C308 C 0.33342 1.00028 0.88517 0.0
C309 C 0.35655 0.01232 0.88806 0.0
C310 C 0.36349 0.97315 0.88069 0.0
N311 N 0.37541 0.99521 0.88521 0.0
C312 C 0.27285 0.98369 0.87846 0.0
C313 C 0.27023 1.00348 0.8414 0.0
C314 C 0.25583 0.01497 0.85625 0.0
C315 C 0.2565 1.00394 0.87471 0.0
C316 C 0.28636 0.98276 0.84577 0.0
N317 N 0.28874 0.97413 0.86446 0.0
H318 H 0.27326 0.97663 0.89312 0.0
H319 H 0.2969 0.97413 0.83409 0.0
H320 H 0.31493 1.00918 0.88631 0.0
H321 H 0.37327 0.95566 0.87687 0.0
O322 O 0.30314 0.94593 0.89975 0.0
O323 O 0.33534 0.92442 0.88712 0.0
O324 O 0.33101 0.94529 0.847 0.0
C325 C 0.32133 0.92956 0.90224 0.0
H326 H 0.27989 0.8658 0.84674 0.0
H327 H 0.35925 0.03216 0.89192 0.0
H328 H 0.26972 0.01092 0.82673 0.0
H329 H 0.24491 0.01137 0.88646 0.0
Co330 Co 0.07268 0.31074 0.87237 0.0
C331 C 0.10012 0.26126 0.86534 0.0
C332 C 0.12134 0.29454 0.85666 0.0
C333 C 0.13522 0.27332 0.85174 0.0
N334 N 0.09929 0.28709 0.86502 0.0
N335 N 0.1219 0.25241 0.85709 0.0
H336 H 0.08494 0.24925 0.87093 0.0
H337 H 0.12677 0.31417 0.85405 0.0
C338 C 0.06189 0.33878 0.83471 0.0
O339 O 0.03735 0.34005 0.83862 0.0
N340 N 0.04688 0.33581 0.87947 0.0
C341 C 0.02398 0.33273 0.88819 0.0
C342 C 0.0133 0.35641 0.89133 0.0
C343 C 0.04992 0.36136 0.87784 0.0
N344 N 0.02962 0.37447 0.8848 0.0
C345 C 0.03395 0.27313 0.87739 0.0
C346 C 0.0245 0.26218 0.83889 0.0
C347 C 0.01082 0.24902 0.85334 0.0
C348 C 0.01595 0.25465 0.87274 0.0
C349 C 0.04292 0.28045 0.84423 0.0
N350 N 0.04678 0.28647 0.86334 0.0
H351 H 0.03733 0.27666 0.89255 0.0
H352 H 0.05433 0.2891 0.83295 0.0
H353 H 0.01554 0.31485 0.89253 0.0
H354 H 0.06674 0.37009 0.87152 0.0
O355 O 0.07478 0.29937 0.89886 0.0
O356 O 0.09773 0.33097 0.88657 0.0
O357 O 0.0771 0.32733 0.84624 0.0
C358 C 0.09185 0.31692 0.90154 0.0
H359 H 0.1538 0.27328 0.84481 0.0
H360 H 0.99518 0.35997 0.8984 0.0
H361 H 0.02143 0.25793 0.82368 0.0
H362 H 1.00582 0.24501 0.88438 0.0
Co363 Co 0.71242 0.07303 0.87191 0.0
C364 C 0.76281 0.09956 0.867 0.0
C365 C 0.73067 0.12178 0.85757 0.0
C366 C 0.75241 0.136 0.85487 0.0
N367 N 0.7371 0.09902 0.8652 0.0
N368 N 0.77261 0.1221 0.86079 0.0
H369 H 0.77402 0.08411 0.87298 0.0
H370 H 0.71136 0.12765 0.85426 0.0
C371 C 0.68498 0.06241 0.83415 0.0
O372 O 0.68273 0.03809 0.83851 0.0
N373 N 0.68643 0.04779 0.87844 0.0
C374 C 0.68871 0.02351 0.88473 0.0
C375 C 0.66467 0.01336 0.88735 0.0
C376 C 0.66099 0.05205 0.87763 0.0
N377 N 0.64715 0.03131 0.88288 0.0
C378 C 0.74907 0.03386 0.87831 0.0
C379 C 0.7585 0.02022 0.84028 0.0
C380 C 0.76948 1.00576 0.85529 0.0
C381 C 0.76524 0.01352 0.87442 0.0
C382 C 0.74224 0.04078 0.84486 0.0
N383 N 0.73653 0.04643 0.86379 0.0
H384 H 0.74582 0.03854 0.89332 0.0
H385 H 0.73439 0.05191 0.83315 0.0
H386 H 0.70629 0.01344 0.88727 0.0
H387 H 0.65292 0.07012 0.8732 0.0
O388 O 0.72223 0.07527 0.89877 0.0
O389 O 0.69197 0.09868 0.88533 0.0
O390 O 0.69721 0.0775 0.84532 0.0
C391 C 0.70489 0.09269 0.90079 0.0
H392 H 0.75332 0.15506 0.84881 0.0
H393 H 0.66058 0.99403 0.89193 0.0
H394 H 0.76191 0.01535 0.82523 0.0
H395 H 0.77409 1.00362 0.88648 0.0
Co396 Co 0.44492 0.80895 0.63332 0.0
C397 C 0.41796 0.75899 0.63901 0.0
C398 C 0.39835 0.79091 0.6517 0.0
C399 C 0.38451 0.76922 0.6555 0.0
N400 N 0.41937 0.78456 0.64153 0.0
N401 N 0.3968 0.74912 0.6476 0.0
H402 H 0.43218 0.74788 0.63134 0.0
H403 H 0.39337 0.81012 0.65601 0.0
C404 C 0.45704 0.8374 0.67025 0.0
O405 O 0.48164 0.83608 0.66661 0.0
N406 N 0.46961 0.83481 0.62533 0.0
C407 C 0.49162 0.83285 0.61519 0.0
C408 C 0.50146 0.85695 0.61219 0.0
C409 C 0.46613 0.86018 0.62779 0.0
N410 N 0.48541 0.87414 0.62013 0.0
C411 C 0.48647 0.77438 0.62865 0.0
C412 C 0.49555 0.76377 0.66728 0.0
C413 C 0.51227 0.75409 0.65314 0.0
C414 C 0.50706 0.75901 0.63364 0.0
C415 C 0.47515 0.77957 0.66159 0.0
N416 N 0.47184 0.78601 0.64249 0.0
H417 H 0.48266 0.77719 0.61344 0.0
H418 H 0.46215 0.78652 0.67256 0.0
H419 H 0.49995 0.81555 0.60968 0.0
H420 H 0.44973 0.8682 0.63515 0.0
O421 O 0.44255 0.79668 0.60706 0.0
O422 O 0.41894 0.82784 0.61925 0.0
O423 O 0.44091 0.82665 0.65906 0.0
C424 C 0.425 0.81378 0.60436 0.0
H425 H 0.36648 0.76838 0.6632 0.0
H426 H 0.51875 0.86146 0.60424 0.0
H427 H 0.49852 0.75964 0.68252 0.0
H428 H 0.51893 0.75104 0.62225 0.0
Co429 Co 0.20469 0.44447 0.62707 0.0
C430 C 0.25357 0.41428 0.63428 0.0
C431 C 0.21891 0.39375 0.63993 0.0
C432 C 0.2391 0.37803 0.64411 0.0
N433 N 0.22776 0.41664 0.63394 0.0
N434 N 0.2609 0.39091 0.64059 0.0
H435 H 0.26694 0.42906 0.63042 0.0
H436 H 0.19891 0.38889 0.64136 0.0
C437 C 0.197 0.43614 0.66948 0.0
O438 O 0.22197 0.43594 0.67134 0.0
N439 N 0.18041 0.47076 0.62044 0.0
C440 C 0.18426 0.49309 0.61118 0.0
C441 C 0.16089 0.50493 0.60879 0.0
C442 C 0.155 0.46917 0.62339 0.0
N443 N 0.1425 0.48976 0.61642 0.0
C444 C 0.24972 0.47515 0.62604 0.0
C445 C 0.23664 0.50867 0.65529 0.0
C446 C 0.25933 0.51291 0.64483 0.0
C447 C 0.26575 0.49567 0.63011 0.0
C448 C 0.22115 0.48757 0.65085 0.0
N449 N 0.22808 0.47069 0.63664 0.0
H450 H 0.25441 0.4633 0.61375 0.0
H451 H 0.20304 0.48559 0.65824 0.0
H452 H 0.20262 0.50006 0.60626 0.0
H453 H 0.14589 0.45308 0.63045 0.0
O454 O 0.21652 0.44353 0.60064 0.0
O455 O 0.18446 0.42033 0.61206 0.0
O456 O 0.18697 0.44039 0.65291 0.0
C457 C 0.19879 0.42678 0.59735 0.0
H458 H 0.23783 0.35849 0.64914 0.0
H459 H 0.15766 0.52296 0.60152 0.0
H460 H 0.23062 0.52179 0.66654 0.0
H461 H 0.28247 0.49866 0.62109 0.0
Co462 Co 0.57003 0.20668 0.63129 0.0
C463 C 0.6007 0.25518 0.6387 0.0
C464 C 0.62063 0.22037 0.6447 0.0
C465 C 0.63661 0.2404 0.64879 0.0
N466 N 0.59794 0.22943 0.63857 0.0
N467 N 0.6241 0.2623 0.64505 0.0
H468 H 0.58621 0.26865 0.63455 0.0
H469 H 0.62521 0.20033 0.64618 0.0
C470 C 0.57786 0.19818 0.67359 0.0
O471 O 0.57781 0.22311 0.67567 0.0
N472 N 0.54357 0.1828 0.62418 0.0
C473 C 0.5215 0.18718 0.61478 0.0
C474 C 0.5092 0.1641 0.61209 0.0
C475 C 0.5446 0.15735 0.6269 0.0
N476 N 0.52385 0.14536 0.61967 0.0
C477 C 0.53934 0.25171 0.63096 0.0
C478 C 0.50487 0.23685 0.65922 0.0
C479 C 0.50045 0.25964 0.64902 0.0
C480 C 0.51826 0.26709 0.63491 0.0
C481 C 0.52654 0.22211 0.65498 0.0
N482 N 0.54377 0.22981 0.64118 0.0
H483 H 0.55141 0.25691 0.61887 0.0
H484 H 0.52855 0.20381 0.66203 0.0
H485 H 0.51498 0.20572 0.60999 0.0
H486 H 0.56036 0.14785 0.63401 0.0
O487 O 0.57137 0.21915 0.60502 0.0
O488 O 0.59419 0.18672 0.6161 0.0
O489 O 0.5738 0.18836 0.65691 0.0
C490 C 0.58805 0.20141 0.60157 0.0
H491 H 0.65612 0.23894 0.65382 0.0
H492 H 0.49123 0.16129 0.60466 0.0
H493 H 0.49135 0.23009 0.66999 0.0
H494 H 0.51518 0.28397 0.62612 0.0
Co495 Co 0.8075 0.57257 0.63135 0.0
C496 C 0.75767 0.60114 0.63924 0.0
C497 C 0.79181 0.62304 0.64343 0.0
C498 C 0.77125 0.63845 0.64718 0.0
N499 N 0.78354 0.59959 0.63838 0.0
N500 N 0.74976 0.62476 0.64452 0.0
H501 H 0.74466 0.58586 0.63591 0.0
H502 H 0.81168 0.62856 0.6444 0.0
C503 C 0.81517 0.58064 0.67368 0.0
O504 O 0.79035 0.57841 0.67603 0.0
N505 N 0.83261 0.54708 0.62457 0.0
C506 C 0.82925 0.52486 0.61511 0.0
C507 C 0.85286 0.51364 0.61242 0.0
C508 C 0.858 0.54924 0.62732 0.0
N509 N 0.87094 0.52908 0.62005 0.0
C510 C 0.76347 0.54038 0.63118 0.0
C511 C 0.77914 0.50679 0.65967 0.0
C512 C 0.75629 0.50179 0.64974 0.0
C513 C 0.74848 0.51909 0.63544 0.0
C514 C 0.79347 0.52864 0.6551 0.0
N515 N 0.78527 0.54553 0.64128 0.0
H516 H 0.75795 0.55222 0.61907 0.0
H517 H 0.81178 0.53122 0.662 0.0
H518 H 0.81104 0.51757 0.61022 0.0
H519 H 0.86677 0.56543 0.63442 0.0
O520 O 0.79548 0.57299 0.60496 0.0
O521 O 0.8268 0.59725 0.61614 0.0
O522 O 0.82522 0.57766 0.65694 0.0
C523 C 0.81276 0.59022 0.60151 0.0
H524 H 0.77209 0.65819 0.65176 0.0
H525 H 0.85646 0.49586 0.60492 0.0
H526 H 0.78619 0.49363 0.67054 0.0
H527 H 0.73156 0.51552 0.62684 0.0
H528 H 0.1152 0.35986 0.91613 0.0
H529 H 0.12841 0.36699 0.95001 0.0
H530 H 0.10577 0.29005 0.96443 0.0
H531 H 0.0927 0.2829 0.93103 0.0
H532 H 0.09476 0.36319 0.98189 0.0
H533 H 0.17499 0.2962 0.99117 0.0
H534 H 0.16465 0.3072 0.96758 0.0
H535 H 0.14853 0.28101 0.9794 0.0
C536 C 0.11363 0.34436 0.9265 0.0
C537 C 0.10293 0.32084 0.92099 0.0
C538 C 0.12112 0.34846 0.9458 0.0
C539 C 0.11847 0.3289 0.95966 0.0
C540 C 0.10857 0.30521 0.95392 0.0
H541 H 0.08519 0.28351 0.06966 0.0
H542 H 0.09843 0.29158 0.03625 0.0
C543 C 0.10088 0.30123 0.93483 0.0
C544 C 0.12308 0.3335 0.98059 0.0
H545 H 0.14928 0.30445 0.02017 0.0
C546 C 0.10732 0.35101 0.99029 0.0
C547 C 0.13956 0.31766 0.99149 0.0
C548 C 0.15808 0.29965 0.98182 0.0
C549 C 0.10573 0.35125 0.01067 0.0
C550 C 0.12048 0.3337 0.02148 0.0
C551 C 0.13787 0.31777 0.01182 0.0
C552 C 0.11497 0.3286 0.04222 0.0
C553 C 0.08675 0.36872 0.02042 0.0
C554 C 0.12036 0.34657 0.05675 0.0
C555 C 0.11285 0.34195 0.076 0.0
C556 C 0.09973 0.31937 0.08088 0.0
C557 C 0.09515 0.30114 0.06636 0.0
C558 C 0.10277 0.30568 0.04726 0.0
H559 H 0.07545 0.37996 0.00979 0.0
H560 H 0.07339 0.35742 0.02959 0.0
H561 H 0.09702 0.38221 0.03005 0.0
H562 H 0.12993 0.3643 0.05314 0.0
H563 H 0.11661 0.35633 0.08691 0.0
H564 H 0.66121 0.11629 0.91378 0.0
H565 H 0.65185 0.12968 0.94734 0.0
H566 H 0.72765 0.10698 0.96454 0.0
H567 H 0.73697 0.09363 0.93145 0.0
H568 H 0.65376 0.09579 0.97957 0.0
H569 H 0.71955 0.17681 0.99063 0.0
H570 H 0.70977 0.16635 0.96677 0.0
H571 H 0.73544 0.15044 0.97924 0.0
C572 C 0.67599 0.11473 0.92469 0.0
C573 C 0.6998 0.10393 0.92005 0.0
C574 C 0.67062 0.12232 0.9438 0.0
C575 C 0.6892 0.1197 0.95835 0.0
C576 C 0.71322 0.10972 0.95349 0.0
H577 H 0.73015 0.08678 0.06825 0.0
H578 H 0.72265 0.10031 0.03493 0.0
C579 C 0.71845 0.1019 0.93458 0.0
C580 C 0.68323 0.12447 0.97908 0.0
H581 H 0.70976 0.15123 0.0194 0.0
C582 C 0.66531 0.10856 0.98829 0.0
C583 C 0.69823 0.14124 0.99039 0.0
C584 C 0.71664 0.15987 0.9812 0.0
C585 C 0.66395 0.10706 0.00865 0.0
C586 C 0.68077 0.12204 0.01993 0.0
C587 C 0.69698 0.13965 0.0107 0.0
C588 C 0.68529 0.11623 0.04069 0.0
C589 C 0.64621 0.08785 0.01793 0.0
C590 C 0.66689 0.12112 0.05509 0.0
C591 C 0.67119 0.11341 0.07433 0.0
C592 C 0.69385 0.10059 0.0793 0.0
C593 C 0.71243 0.09646 0.06489 0.0
C594 C 0.70822 0.10428 0.04584 0.0
H595 H 0.6353 0.07671 0.00701 0.0
H596 H 0.65727 0.07438 0.02709 0.0
H597 H 0.63241 0.09787 0.0275 0.0
H598 H 0.64913 0.13047 0.05138 0.0
H599 H 0.65654 0.11682 0.08516 0.0
H600 H 0.92869 0.73454 0.93218 0.0
H601 H 0.91488 0.72615 0.96534 0.0
H602 H 0.88819 0.65151 0.94845 0.0
H603 H 0.90228 0.65982 0.91485 0.0
H604 H 0.86608 0.71179 0.98147 0.0
H605 H 0.94163 0.63806 0.99208 0.0
H606 H 0.9426 0.65993 0.97182 0.0
H607 H 0.91965 0.63449 0.97221 0.0
C608 C 0.91964 0.71641 0.93541 0.0
C609 C 0.91674 0.69775 0.92095 0.0
C610 C 0.91166 0.71168 0.95438 0.0
C611 C 0.90074 0.68814 0.9594 0.0
C612 C 0.8968 0.66973 0.94488 0.0
H613 H 0.90053 0.65849 0.08582 0.0
H614 H 0.8876 0.65097 0.05194 0.0
C615 C 0.9047 0.67454 0.92571 0.0
C616 C 0.89532 0.68296 0.98018 0.0
H617 H 0.92205 0.65463 0.0199 0.0
C618 C 0.87781 0.69877 0.98985 0.0
C619 C 0.91054 0.66588 0.99108 0.0
C620 C 0.92977 0.64861 0.9814 0.0
C621 C 0.87648 0.69932 0.0102 0.0
C622 C 0.89333 0.68392 0.02112 0.0
C623 C 0.90921 0.66647 0.01147 0.0
C624 C 0.89799 0.6888 0.04202 0.0
C625 C 0.85796 0.71733 0.01986 0.0
C626 C 0.90806 0.71249 0.04761 0.0
C627 C 0.91562 0.7167 0.06672 0.0
C628 C 0.91323 0.69732 0.08072 0.0
C629 C 0.90236 0.67382 0.07534 0.0
C630 C 0.89504 0.66949 0.05603 0.0
H631 H 0.84106 0.72084 0.0105 0.0
H632 H 0.85137 0.70974 0.03408 0.0
H633 H 0.86755 0.73594 0.02235 0.0
H634 H 0.91103 0.72748 0.03697 0.0
H635 H 0.92395 0.73499 0.07042 0.0
H636 H 0.28888 0.92978 0.93281 0.0
H637 H 0.29724 0.91625 0.96598 0.0
H638 H 0.37254 0.89107 0.94926 0.0
H639 H 0.36426 0.90486 0.91563 0.0
H640 H 0.31243 0.86734 0.98174 0.0
H641 H 0.38421 0.94466 0.99336 0.0
H642 H 0.36252 0.9455 0.97304 0.0
H643 H 0.38833 0.92304 0.97329 0.0
C644 C 0.30717 0.92115 0.93608 0.0
C645 C 0.326 0.91855 0.92166 0.0
C646 C 0.31187 0.91333 0.95505 0.0
C647 C 0.33555 0.90286 0.96011 0.0
C648 C 0.3542 0.89932 0.94565 0.0
H649 H 0.35955 0.90228 0.08725 0.0
H650 H 0.36928 0.88983 0.05355 0.0
C651 C 0.34941 0.90706 0.92648 0.0
C652 C 0.34051 0.8974 0.98087 0.0
H653 H 0.36679 0.9251 0.02097 0.0
C654 C 0.32489 0.87944 0.9903 0.0
C655 C 0.35688 0.9131 0.992 0.0
C656 C 0.37396 0.93276 0.98254 0.0
C657 C 0.32367 0.87821 0.01063 0.0
C658 C 0.3382 0.89559 0.02174 0.0
C659 C 0.35561 0.91187 0.01237 0.0
C660 C 0.33216 0.90042 0.04243 0.0
C661 C 0.30571 0.85936 0.02005 0.0
C662 C 0.30819 0.91054 0.04724 0.0
C663 C 0.30275 0.91788 0.06624 0.0
C664 C 0.32114 0.91516 0.08089 0.0
C665 C 0.34497 0.90439 0.07624 0.0
C666 C 0.35056 0.89732 0.05705 0.0
H667 H 0.30264 0.84243 0.01064 0.0
H668 H 0.3131 0.85289 0.03434 0.0
H669 H 0.28691 0.86862 0.02242 0.0
H670 H 0.29391 0.91357 0.03612 0.0
H671 H 0.28423 0.92613 0.06937 0.0
H672 H 0.61823 0.16401 0.41558 0.0
H673 H 0.63008 0.15568 0.44959 0.0
H674 H 0.59984 0.2291 0.46601 0.0
H675 H 0.58818 0.23753 0.43242 0.0
H676 H 0.64829 0.21603 0.48352 0.0
H677 H 0.57414 0.14006 0.49142 0.0
H678 H 0.59724 0.13746 0.47211 0.0
H679 H 0.5737 0.16226 0.47136 0.0
C680 C 0.61451 0.17847 0.42644 0.0
C681 C 0.60213 0.20134 0.42139 0.0
C682 C 0.62114 0.17364 0.44584 0.0
C683 C 0.61559 0.19169 0.46031 0.0
C684 C 0.60428 0.21492 0.45507 0.0
H685 H 0.58672 0.23539 0.57192 0.0
H686 H 0.60014 0.22895 0.5384 0.0
C687 C 0.59755 0.21966 0.43585 0.0
C688 C 0.61989 0.18643 0.4812 0.0
H689 H 0.59198 0.15651 0.51991 0.0
C690 C 0.63648 0.20254 0.49147 0.0
C691 C 0.60456 0.16872 0.49152 0.0
C692 C 0.58629 0.15113 0.48116 0.0
C693 C 0.63682 0.20266 0.51183 0.0
C694 C 0.61988 0.18654 0.52216 0.0
C695 C 0.60488 0.1689 0.51193 0.0
C696 C 0.61434 0.19065 0.54304 0.0
C697 C 0.65442 0.22094 0.52214 0.0
C698 C 0.61769 0.17114 0.55681 0.0
C699 C 0.61006 0.17484 0.57615 0.0
C700 C 0.59852 0.19789 0.58181 0.0
C701 C 0.59555 0.21742 0.56801 0.0
C702 C 0.6034 0.21384 0.54886 0.0
H703 H 0.67154 0.22535 0.51317 0.0
H704 H 0.64416 0.23912 0.52485 0.0
H705 H 0.66072 0.21308 0.53633 0.0
H706 H 0.62583 0.153 0.55252 0.0
H707 H 0.6124 0.1594 0.58647 0.0
H708 H 0.78358 0.58938 0.43081 0.0
H709 H 0.78964 0.60253 0.46432 0.0
H710 H 0.86645 0.62683 0.45095 0.0
H711 H 0.86044 0.61352 0.41695 0.0
H712 H 0.86252 0.59337 0.48296 0.0
H713 H 0.79345 0.67214 0.49075 0.0
H714 H 0.77921 0.64518 0.47895 0.0
H715 H 0.80532 0.66176 0.46738 0.0
C716 C 0.80166 0.5979 0.43486 0.0
C717 C 0.82156 0.60041 0.42128 0.0
C718 C 0.80501 0.60563 0.45402 0.0
C719 C 0.82833 0.61607 0.46008 0.0
C720 C 0.84819 0.61911 0.44649 0.0
H721 H 0.85332 0.61816 0.58759 0.0
H722 H 0.86146 0.63048 0.55364 0.0
C723 C 0.84473 0.61156 0.42712 0.0
C724 C 0.83224 0.62099 0.48105 0.0
H725 H 0.80173 0.64722 0.52004 0.0
C726 C 0.84987 0.60578 0.4911 0.0
C727 C 0.81576 0.63726 0.49161 0.0
C728 C 0.79756 0.6552 0.48157 0.0
C729 C 0.84971 0.60458 0.51149 0.0
C730 C 0.83162 0.61914 0.52196 0.0
C731 C 0.81548 0.63594 0.51195 0.0
C732 C 0.82637 0.61409 0.54275 0.0
C733 C 0.8674 0.5862 0.52163 0.0
C734 C 0.80373 0.6014 0.54784 0.0
C735 C 0.7991 0.59433 0.56705 0.0
C736 C 0.81694 0.59999 0.58162 0.0
C737 C 0.83923 0.61358 0.57666 0.0
C738 C 0.84395 0.62052 0.5573 0.0
H739 H 0.87912 0.57496 0.51124 0.0
H740 H 0.88046 0.59696 0.5313 0.0
H741 H 0.85621 0.57279 0.53082 0.0
H742 H 0.78994 0.59627 0.5368 0.0
H743 H 0.78171 0.58398 0.57041 0.0
H744 H 0.40014 0.85613 0.59053 0.0
H745 H 0.38758 0.86442 0.5567 0.0
H746 H 0.41361 0.78928 0.54059 0.0
H747 H 0.42609 0.78096 0.57403 0.0
H748 H 0.42237 0.86382 0.52553 0.0
H749 H 0.34505 0.7943 0.51262 0.0
H750 H 0.35421 0.80432 0.53673 0.0
H751 H 0.37173 0.77955 0.52442 0.0
C752 C 0.40258 0.84121 0.57981 0.0
C753 C 0.41408 0.8179 0.58487 0.0
C754 C 0.39546 0.84599 0.56053 0.0
C755 C 0.39929 0.82732 0.5462 0.0
C756 C 0.40992 0.80374 0.55147 0.0
H757 H 0.43797 0.78867 0.43664 0.0
H758 H 0.42371 0.79558 0.46986 0.0
C759 C 0.41724 0.79909 0.57058 0.0
C760 C 0.39518 0.83295 0.52535 0.0
H761 H 0.37118 0.80545 0.48441 0.0
C762 C 0.41052 0.85169 0.51652 0.0
C763 C 0.37959 0.81722 0.51366 0.0
C764 C 0.36151 0.7979 0.52239 0.0
C765 C 0.41264 0.8533 0.49621 0.0
C766 C 0.3989 0.83586 0.48457 0.0
C767 C 0.38181 0.81871 0.49339 0.0
C768 C 0.40561 0.83183 0.46392 0.0
C769 C 0.43121 0.87206 0.48736 0.0
C770 C 0.39987 0.84986 0.44947 0.0
C771 C 0.40801 0.84592 0.43027 0.0
C772 C 0.42211 0.82399 0.42541 0.0
C773 C 0.42729 0.80584 0.43991 0.0
C774 C 0.41906 0.80969 0.45891 0.0
H775 H 0.44125 0.88358 0.49852 0.0
H776 H 0.44567 0.86174 0.47854 0.0
H777 H 0.42085 0.88523 0.47752 0.0
H778 H 0.38937 0.86702 0.45308 0.0
H779 H 0.40373 0.8602 0.41937 0.0
H780 H 0.23146 0.43057 0.56695 0.0
H781 H 0.22431 0.41784 0.53342 0.0
H782 H 0.15038 0.38761 0.54899 0.0
H783 H 0.15743 0.40047 0.58295 0.0
H784 H 0.21148 0.36771 0.51702 0.0
H785 H 0.13712 0.44235 0.50536 0.0
H786 H 0.15878 0.44394 0.52567 0.0
H787 H 0.13379 0.42052 0.52544 0.0
C788 C 0.21373 0.42103 0.56335 0.0
C789 C 0.19492 0.41667 0.57756 0.0
C790 C 0.20972 0.41367 0.54417 0.0
C791 C 0.18677 0.40197 0.53871 0.0
C792 C 0.16816 0.3968 0.55292 0.0
H793 H 0.16128 0.40382 0.412 0.0
H794 H 0.15264 0.39018 0.44563 0.0
C795 C 0.17225 0.40404 0.57228 0.0
C796 C 0.18242 0.39673 0.51785 0.0
H797 H 0.1552 0.42354 0.47775 0.0
C798 C 0.19867 0.3794 0.50844 0.0
C799 C 0.16556 0.41187 0.50671 0.0
C800 C 0.14779 0.43082 0.51617 0.0
C801 C 0.19985 0.37817 0.48811 0.0
C802 C 0.18472 0.39501 0.47696 0.0
C803 C 0.16685 0.41071 0.48634 0.0
C804 C 0.19032 0.3999 0.45616 0.0
C805 C 0.21822 0.35974 0.47875 0.0
C806 C 0.2143 0.40979 0.45099 0.0
C807 C 0.21915 0.41773 0.43202 0.0
C808 C 0.20013 0.41592 0.41775 0.0
C809 C 0.17635 0.40519 0.4227 0.0
C810 C 0.17138 0.39747 0.44186 0.0
H811 H 0.22122 0.34268 0.48807 0.0
H812 H 0.21126 0.35342 0.46431 0.0
H813 H 0.23699 0.36926 0.47677 0.0
H814 H 0.229 0.4124 0.46185 0.0
H815 H 0.23764 0.42595 0.42865 0.0
H816 H 0.24109 0.04475 0.11581 0.0
H817 H 0.21707 0.08452 0.11784 0.0
H818 H 0.20927 0.07454 0.17977 0.0
H819 H 0.23396 0.03476 0.17783 0.0
H820 H 0.16906 0.09339 0.12916 0.0
H821 H 0.23574 0.14664 0.17687 0.0
H822 H 0.24421 0.11668 0.16573 0.0
H823 H 0.22427 0.11721 0.18703 0.0
C824 C 0.23423 0.05098 0.12988 0.0
C825 C 0.23935 0.03658 0.14667 0.0
C826 C 0.22051 0.07376 0.13102 0.0
C827 C 0.21151 0.08273 0.14896 0.0
C828 C 0.21646 0.06834 0.1658 0.0
H829 H 0.10044 0.20974 0.15135 0.0
H830 H 0.11959 0.16712 0.15409 0.0
C831 C 0.23049 0.04558 0.16469 0.0
C832 C 0.19681 0.10702 0.14972 0.0
H833 H 0.19736 0.16737 0.16843 0.0
C834 C 0.17519 0.10955 0.13781 0.0
C835 C 0.20492 0.12819 0.16088 0.0
C836 C 0.22867 0.12723 0.17322 0.0
C837 C 0.16181 0.13273 0.13642 0.0
C838 C 0.16983 0.15385 0.14766 0.0
C839 C 0.19112 0.15115 0.15989 0.0
C840 C 0.15768 0.17944 0.14598 0.0
C841 C 0.13991 0.13463 0.12228 0.0
C842 C 0.17269 0.20064 0.14088 0.0
C843 C 0.16187 0.22491 0.13957 0.0
C844 C 0.13572 0.22862 0.14326 0.0
C845 C 0.12056 0.20739 0.14818 0.0
C846 C 0.1315 0.18304 0.14971 0.0
H847 H 0.14041 0.11905 0.11136 0.0
H848 H 0.12161 0.13311 0.13035 0.0
H849 H 0.1402 0.15322 0.11451 0.0
H850 H 0.19288 0.19839 0.13785 0.0
H851 H 0.17399 0.24082 0.13552 0.0
H852 H 0.8028 0.11344 0.12023 0.0
H853 H 0.84559 0.1324 0.12287 0.0
H854 H 0.81964 0.17917 0.17043 0.0
H855 H 0.77714 0.16016 0.16803 0.0
H856 H 0.85662 0.18588 0.11916 0.0
H857 H 0.8871 0.14767 0.19062 0.0
H858 H 0.86156 0.13356 0.17665 0.0
H859 H 0.85592 0.16198 0.19059 0.0
C860 C 0.80637 0.12743 0.13144 0.0
C861 C 0.78655 0.13536 0.14387 0.0
C862 C 0.83076 0.13834 0.13288 0.0
C863 C 0.83585 0.15702 0.14697 0.0
C864 C 0.81625 0.16455 0.15963 0.0
H865 H 0.95171 0.27492 0.15009 0.0
H866 H 0.91211 0.24994 0.15061 0.0
C867 C 0.79189 0.15384 0.15811 0.0
C868 C 0.86112 0.1699 0.14775 0.0
H869 H 0.9119 0.18184 0.1775 0.0
C870 C 0.8688 0.18485 0.13185 0.0
C871 C 0.87704 0.16841 0.16428 0.0
C872 C 0.87017 0.15187 0.18146 0.0
C873 C 0.89165 0.19893 0.13225 0.0
C874 C 0.90712 0.19817 0.14905 0.0
C875 C 0.89984 0.18263 0.16474 0.0
C876 C 0.93105 0.21327 0.15042 0.0
C877 C 0.89915 0.21447 0.11467 0.0
C878 C 0.95479 0.20092 0.15082 0.0
C879 C 0.97744 0.21513 0.15059 0.0
C880 C 0.97677 0.24199 0.15015 0.0
C881 C 0.95291 0.2543 0.1506 0.0
C882 C 0.93027 0.24005 0.1507 0.0
H883 H 0.88815 0.20883 0.10158 0.0
H884 H 0.89536 0.23495 0.11759 0.0
H885 H 0.91985 0.21234 0.11151 0.0
H886 H 0.95579 0.18026 0.15073 0.0
H887 H 0.99552 0.2051 0.15042 0.0
H888 H 0.7427 0.954 0.14921 0.0
H889 H 0.76871 0.91515 0.14877 0.0
H890 H 0.83714 0.96077 0.1452 0.0
H891 H 0.81131 0.9997 0.14591 0.0
H892 H 0.80296 0.90284 0.11721 0.0
H893 H 0.85339 0.90746 0.18811 0.0
H894 H 0.82439 0.92505 0.1834 0.0
H895 H 0.85423 0.93592 0.17349 0.0
C896 C 0.7633 0.95579 0.14884 0.0
C897 C 0.77492 0.97996 0.14761 0.0
C898 C 0.77814 0.93357 0.14843 0.0
C899 C 0.80487 0.93506 0.14705 0.0
C900 C 0.81658 0.95915 0.14651 0.0
H901 H 0.91776 0.81031 0.13905 0.0
H902 H 0.89864 0.85327 0.13894 0.0
C903 C 0.80177 0.98137 0.14679 0.0
C904 C 0.82027 0.91145 0.14474 0.0
H905 H 0.86512 0.8741 0.16686 0.0
C906 C 0.81657 0.89657 0.12806 0.0
C907 C 0.83834 0.90353 0.15874 0.0
C908 C 0.84282 0.91866 0.17704 0.0
C909 C 0.83016 0.87381 0.12511 0.0
C910 C 0.84754 0.86534 0.13944 0.0
C911 C 0.85183 0.8806 0.15587 0.0
C912 C 0.85959 0.83968 0.13845 0.0
C913 C 0.82579 0.85905 0.10661 0.0
C914 C 0.84405 0.81787 0.13819 0.0
C915 C 0.85486 0.79356 0.13819 0.0
C916 C 0.88153 0.79034 0.13862 0.0
C917 C 0.89719 0.81218 0.13855 0.0
C918 C 0.88628 0.83668 0.13862 0.0
H919 H 0.81893 0.87169 0.09475 0.0
H920 H 0.84351 0.84936 0.1017 0.0
H921 H 0.81093 0.84431 0.10921 0.0
H922 H 0.82344 0.81963 0.13839 0.0
H923 H 0.84223 0.77719 0.13799 0.0
H924 H 0.20816 0.91562 0.15425 0.0
H925 H 0.16524 0.89838 0.16078 0.0
H926 H 0.18963 0.82457 0.14033 0.0
H927 H 0.23213 0.84152 0.13381 0.0
H928 H 0.12948 0.87462 0.13659 0.0
H929 H 0.16087 0.80766 0.19381 0.0
H930 H 0.18081 0.83345 0.18516 0.0
H931 H 0.17904 0.80391 0.17189 0.0
C932 C 0.20427 0.89578 0.15103 0.0
C933 C 0.22371 0.87986 0.14378 0.0
C934 C 0.17979 0.88592 0.15486 0.0
C935 C 0.1744 0.85999 0.15156 0.0
C936 C 0.19352 0.84441 0.14361 0.0
H937 H 0.05856 0.75176 0.13774 0.0
H938 H 0.09684 0.77799 0.14169 0.0
C939 C 0.21785 0.85417 0.13985 0.0
C940 C 0.14884 0.8489 0.15599 0.0
H941 H 0.12039 0.79821 0.17873 0.0
C942 C 0.12734 0.85828 0.14615 0.0
C943 C 0.14597 0.82769 0.16859 0.0
C944 C 0.16786 0.81776 0.18062 0.0
C945 C 0.10351 0.8459 0.14754 0.0
C946 C 0.10114 0.82372 0.15915 0.0
C947 C 0.12227 0.81518 0.16979 0.0
C948 C 0.07799 0.80734 0.15844 0.0
C949 C 0.08135 0.85567 0.13573 0.0
C950 C 0.05478 0.81483 0.16704 0.0
C951 C 0.03281 0.79962 0.16497 0.0
C952 C 0.03379 0.77695 0.1541 0.0
C953 C 0.05727 0.7692 0.14612 0.0
C954 C 0.07913 0.78415 0.14836 0.0
H955 H 0.08676 0.87217 0.12643 0.0
H956 H 0.0738 0.84019 0.12635 0.0
H957 H 0.06571 0.86168 0.14562 0.0
H958 H 0.05358 0.8326 0.175 0.0
H959 H 0.01491 0.80607 0.17115 0.0
H960 H 0.75663 0.47123 0.32499 0.0
H961 H 0.7299 0.43293 0.32175 0.0
H962 H 0.67834 0.46223 0.36524 0.0
H963 H 0.70448 0.50063 0.36813 0.0
H964 H 0.72244 0.39957 0.35161 0.0
H965 H 0.62832 0.43398 0.32622 0.0
H966 H 0.65691 0.45319 0.32453 0.0
H967 H 0.63964 0.45095 0.3471 0.0
C968 C 0.73913 0.46986 0.33336 0.0
C969 C 0.73274 0.48889 0.34688 0.0
C970 C 0.72395 0.44789 0.33161 0.0
C971 C 0.70197 0.4447 0.34317 0.0
C972 C 0.69487 0.46435 0.3559 0.0
H973 H 0.60929 0.31317 0.3779 0.0
H974 H 0.62707 0.35643 0.37387 0.0
C975 C 0.71 0.48623 0.35766 0.0
C976 C 0.68823 0.41978 0.34369 0.0
H977 H 0.62926 0.3919 0.33995 0.0
C978 C 0.70212 0.39789 0.34883 0.0
C979 C 0.66162 0.41758 0.34033 0.0
C980 C 0.64578 0.44014 0.33406 0.0
C981 C 0.69016 0.37405 0.35102 0.0
C982 C 0.66359 0.37184 0.34772 0.0
C983 C 0.6496 0.39366 0.34256 0.0
C984 C 0.65042 0.34673 0.34899 0.0
C985 C 0.70602 0.35145 0.35725 0.0
C986 C 0.65693 0.32727 0.33595 0.0
C987 C 0.64687 0.30276 0.33822 0.0
C988 C 0.62996 0.29708 0.35355 0.0
C989 C 0.62227 0.31695 0.36597 0.0
C990 C 0.63246 0.34161 0.36371 0.0
H991 H 0.72452 0.35743 0.36367 0.0
H992 H 0.69554 0.33958 0.36802 0.0
H993 H 0.71019 0.33937 0.3444 0.0
H994 H 0.67035 0.33091 0.32426 0.0
H995 H 0.65269 0.28809 0.32809 0.0
H996 H 0.52078 0.70521 0.35824 0.0
H997 H 0.55989 0.67957 0.35879 0.0
H998 H 0.60513 0.74811 0.35411 0.0
H999 H 0.56616 0.77392 0.35386 0.0
H1000 H 0.60303 0.67672 0.33205 0.0
H1001 H 0.62957 0.71273 0.40505 0.0
H1002 H 0.59781 0.71609 0.39523 0.0
H1003 H 0.62297 0.73711 0.38739 0.0
C1004 C 0.53906 0.71482 0.35719 0.0
C1005 C 0.54035 0.74164 0.35614 0.0
C1006 C 0.56137 0.70013 0.35744 0.0
C1007 C 0.58539 0.71196 0.35682 0.0
C1008 C 0.58676 0.73863 0.35488 0.0
H1009 H 0.74308 0.67361 0.36371 0.0
H1010 H 0.70062 0.69235 0.36289 0.0
C1011 C 0.56446 0.75334 0.35453 0.0
C1012 C 0.60903 0.69659 0.35896 0.0
H1013 H 0.66065 0.68806 0.38846 0.0
C1014 C 0.61558 0.67899 0.34443 0.0
C1015 C 0.62519 0.69945 0.37524 0.0
C1016 C 0.61851 0.71718 0.39174 0.0
C1017 C 0.6385 0.66503 0.34532 0.0
C1018 C 0.65501 0.6684 0.36137 0.0
C1019 C 0.64801 0.68546 0.37616 0.0
C1020 C 0.68062 0.65621 0.36237 0.0
C1021 C 0.64537 0.64761 0.32868 0.0
C1022 C 0.68361 0.62953 0.36276 0.0
C1023 C 0.70812 0.61864 0.3631 0.0
C1024 C 0.72998 0.6343 0.36304 0.0
C1025 C 0.72674 0.66096 0.36331 0.0
C1026 C 0.70241 0.67174 0.36298 0.0
H1027 H 0.63326 0.65111 0.31573 0.0
H1028 H 0.66571 0.65012 0.32447 0.0
H1029 H 0.64261 0.62748 0.33326 0.0
H1030 H 0.66705 0.61714 0.3627 0.0
H1031 H 0.70997 0.59807 0.36289 0.0
H1032 H 0.25517 0.55895 0.3331 0.0
H1033 H 0.2796 0.59882 0.33127 0.0
H1034 H 0.3418 0.56325 0.36198 0.0
H1035 H 0.31789 0.52323 0.36332 0.0
H1036 H 0.29459 0.62605 0.36316 0.0
H1037 H 0.37971 0.60085 0.31922 0.0
H1038 H 0.35134 0.58123 0.31986 0.0
H1039 H 0.37426 0.57953 0.33923 0.0
C1040 C 0.27435 0.5594 0.33895 0.0
C1041 C 0.28453 0.53791 0.34842 0.0
C1042 C 0.28822 0.58226 0.33802 0.0
C1043 C 0.31264 0.58402 0.34635 0.0
C1044 C 0.32323 0.56231 0.35513 0.0
H1045 H 0.41226 0.71139 0.37746 0.0
H1046 H 0.39337 0.6689 0.37272 0.0
C1047 C 0.30939 0.53948 0.35607 0.0
C1048 C 0.32595 0.60909 0.34756 0.0
H1049 H 0.38179 0.6401 0.33681 0.0
C1050 C 0.31356 0.62916 0.35723 0.0
C1051 C 0.35083 0.61309 0.34001 0.0
C1052 C 0.36475 0.59261 0.32884 0.0
C1053 C 0.32544 0.65295 0.35979 0.0
C1054 C 0.35029 0.65696 0.35226 0.0
C1055 C 0.36277 0.63693 0.34262 0.0
C1056 C 0.36315 0.68214 0.35389 0.0
C1057 C 0.31147 0.6735 0.37088 0.0
C1058 C 0.35289 0.70347 0.34442 0.0
C1059 C 0.36364 0.72762 0.34703 0.0
C1060 C 0.38496 0.73105 0.35917 0.0
C1061 C 0.39591 0.70944 0.368 0.0
C1062 C 0.38509 0.68517 0.36535 0.0
H1063 H 0.29539 0.6656 0.37957 0.0
H1064 H 0.32466 0.6838 0.38076 0.0
H1065 H 0.30353 0.68756 0.36046 0.0
H1066 H 0.33628 0.70148 0.3352 0.0
H1067 H 0.35509 0.74367 0.33959 0.0
H1068 H 0.31361 0.42463 0.36012 0.0
H1069 H 0.35738 0.40794 0.35761 0.0
H1070 H 0.32764 0.33226 0.34832 0.0
H1071 H 0.28426 0.34832 0.35141 0.0
H1072 H 0.37756 0.35817 0.38141 0.0
H1073 H 0.37978 0.35415 0.30068 0.0
H1074 H 0.36051 0.37703 0.31378 0.0
H1075 H 0.35092 0.3442 0.31285 0.0
C1076 C 0.31637 0.40441 0.35776 0.0
C1077 C 0.29525 0.38794 0.35574 0.0
C1078 C 0.34139 0.39495 0.3562 0.0
C1079 C 0.34564 0.36895 0.35248 0.0
C1080 C 0.32472 0.35245 0.35088 0.0
H1081 H 0.46597 0.26058 0.33215 0.0
H1082 H 0.42726 0.287 0.33106 0.0
C1083 C 0.29986 0.36177 0.35257 0.0
C1084 C 0.37183 0.35853 0.35054 0.0
H1085 H 0.41353 0.33369 0.31734 0.0
C1086 C 0.38569 0.35315 0.36742 0.0
C1087 C 0.38204 0.35165 0.33227 0.0
C1088 C 0.36771 0.3571 0.31377 0.0
C1089 C 0.40922 0.3403 0.36658 0.0
C1090 C 0.41953 0.3333 0.34826 0.0
C1091 C 0.40577 0.33915 0.33134 0.0
C1092 C 0.44394 0.31887 0.34652 0.0
C1093 C 0.42214 0.33325 0.38541 0.0
C1094 C 0.46655 0.32845 0.35469 0.0
C1095 C 0.4885 0.31331 0.35546 0.0
C1096 C 0.48847 0.28854 0.34766 0.0
C1097 C 0.46652 0.2797 0.33811 0.0
C1098 C 0.44439 0.29474 0.33759 0.0
H1099 H 0.40862 0.33374 0.39787 0.0
H1100 H 0.43066 0.31389 0.3846 0.0
H1101 H 0.43763 0.34716 0.38841 0.0
H1102 H 0.46695 0.34728 0.36114 0.0
H1103 H 0.50524 0.32057 0.36284 0.0
H1104 H 0.84899 0.78222 0.85458 0.0
H1105 H 0.83333 0.8255 0.85021 0.0
H1106 H 0.90996 0.85469 0.85568 0.0
H1107 H 0.92609 0.81097 0.8597 0.0
H1108 H 0.87248 0.88105 0.87817 0.0
H1109 H 0.84176 0.87123 0.8017 0.0
H1110 H 0.83003 0.84599 0.817 0.0
H1111 H 0.86385 0.84936 0.81304 0.0
C1112 C 0.8627 0.79768 0.85458 0.0
C1113 C 0.88893 0.79292 0.85722 0.0
C1114 C 0.85364 0.8225 0.85207 0.0
C1115 C 0.87052 0.84329 0.85213 0.0
C1116 C 0.89664 0.83886 0.85534 0.0
H1117 H 0.80807 0.9979 0.8285 0.0
H1118 H 0.83591 0.9601 0.82588 0.0
C1119 C 0.9058 0.81388 0.85778 0.0
C1120 C 0.86033 0.86955 0.84966 0.0
H1121 H 0.82276 0.90568 0.81981 0.0
C1122 C 0.86204 0.88663 0.86526 0.0
C1123 C 0.84697 0.877 0.83272 0.0
C1124 C 0.84573 0.86003 0.81507 0.0
C1125 C 0.84933 0.91023 0.86488 0.0
C1126 C 0.83435 0.91681 0.84853 0.0
C1127 C 0.83403 0.90051 0.83241 0.0
C1128 C 0.81694 0.93916 0.84889 0.0
C1129 C 0.85137 0.92765 0.88223 0.0
C1130 C 0.79655 0.93942 0.8621 0.0
C1131 C 0.78066 0.96067 0.86348 0.0
C1132 C 0.78477 0.98228 0.85171 0.0
C1133 C 0.80445 0.98156 0.83776 0.0
C1134 C 0.82042 0.96009 0.83635 0.0
H1135 H 0.86878 0.92353 0.89087 0.0
H1136 H 0.85175 0.94799 0.87768 0.0
H1137 H 0.8345 0.92471 0.89177 0.0
H1138 H 0.79311 0.92323 0.87156 0.0
H1139 H 0.76531 0.96036 0.87406 0.0
H1140 H 0.2166 0.90708 0.88175 0.0
H1141 H 0.17427 0.88683 0.87989 0.0
H1142 H 0.19829 0.84493 0.82924 0.0
H1143 H 0.24022 0.86516 0.83083 0.0
H1144 H 0.13662 0.88269 0.84737 0.0
H1145 H 0.17786 0.78993 0.87082 0.0
H1146 H 0.19428 0.81992 0.87417 0.0
H1147 H 0.19369 0.8051 0.85068 0.0
C1148 C 0.21269 0.89389 0.87005 0.0
C1149 C 0.23194 0.88739 0.85665 0.0
C1150 C 0.18855 0.88229 0.86903 0.0
C1151 C 0.18335 0.86408 0.85461 0.0
C1152 C 0.20208 0.8586 0.84067 0.0
H1153 H 0.03886 0.78751 0.82596 0.0
H1154 H 0.07864 0.81246 0.82408 0.0
C1155 C 0.22608 0.8701 0.84168 0.0
C1156 C 0.15897 0.84962 0.85465 0.0
H1157 H 0.13461 0.78971 0.86119 0.0
C1158 C 0.1361 0.86238 0.8504 0.0
C1159 C 0.15841 0.82315 0.85871 0.0
C1160 C 0.1823 0.80866 0.86401 0.0
C1161 C 0.11264 0.84923 0.84994 0.0
C1162 C 0.11217 0.82267 0.85372 0.0
C1163 C 0.13505 0.81002 0.8581 0.0
C1164 C 0.08801 0.80782 0.85447 0.0
C1165 C 0.08847 0.86389 0.84586 0.0
C1166 C 0.08045 0.79648 0.87201 0.0
C1167 C 0.05799 0.7822 0.87308 0.0
C1168 C 0.04252 0.77882 0.8566 0.0
C1169 C 0.05035 0.78977 0.83889 0.0
C1170 C 0.07291 0.80423 0.83785 0.0
H1171 H 0.09144 0.88485 0.84692 0.0
H1172 H 0.08186 0.85945 0.83095 0.0
H1173 H 0.07311 0.85821 0.85615 0.0
H1174 H 0.09194 0.79878 0.88496 0.0
H1175 H 0.05281 0.77361 0.88686 0.0
H1176 H 0.25405 0.05604 0.88024 0.0
H1177 H 0.22793 0.0942 0.87743 0.0
H1178 H 0.19872 0.06757 0.82258 0.0
H1179 H 0.22446 0.02847 0.82564 0.0
H1180 H 0.22887 0.13114 0.84988 0.0
H1181 H 0.13322 0.08502 0.85268 0.0
H1182 H 0.16214 0.06832 0.8591 0.0
H1183 H 0.1544 0.07361 0.83404 0.0
C1184 C 0.24188 0.05807 0.86764 0.0
C1185 C 0.24104 0.03895 0.85331 0.0
C1186 C 0.22704 0.08002 0.86601 0.0
C1187 C 0.21099 0.0836 0.84999 0.0
C1188 C 0.21055 0.06497 0.8353 0.0
H1189 H 0.14786 0.23398 0.82635 0.0
H1190 H 0.16728 0.1918 0.82328 0.0
C1191 C 0.22549 0.04279 0.83694 0.0
C1192 C 0.19541 0.10729 0.84882 0.0
H1193 H 0.13412 0.12994 0.84907 0.0
C1194 C 0.20816 0.13085 0.84957 0.0
C1195 C 0.16836 0.1069 0.84874 0.0
C1196 C 0.15361 0.08215 0.84876 0.0
C1197 C 0.19471 0.15397 0.85041 0.0
C1198 C 0.16768 0.15366 0.85004 0.0
C1199 C 0.15483 0.13013 0.84922 0.0
C1200 C 0.15271 0.17773 0.85069 0.0
C1201 C 0.20963 0.17853 0.85228 0.0
C1202 C 0.13689 0.1834 0.86665 0.0
C1203 C 0.12555 0.20757 0.86837 0.0
C1204 C 0.13002 0.2264 0.8542 0.0
C1205 C 0.14457 0.22004 0.8377 0.0
C1206 C 0.15566 0.19594 0.83592 0.0
H1207 H 0.22948 0.17509 0.8573 0.0
H1208 H 0.21067 0.18805 0.8379 0.0
H1209 H 0.20018 0.19178 0.86261 0.0
H1210 H 0.13426 0.16955 0.87817 0.0
H1211 H 0.11444 0.21198 0.88121 0.0
H1212 H 0.81473 0.09325 0.8537 0.0
H1213 H 0.85907 0.10872 0.8507 0.0
H1214 H 0.83387 0.18513 0.86367 0.0
H1215 H 0.78996 0.16989 0.86674 0.0
H1216 H 0.87673 0.15171 0.82398 0.0
H1217 H 0.8941 0.16886 0.90239 0.0
H1218 H 0.8698 0.14716 0.89377 0.0
H1219 H 0.86429 0.18099 0.89335 0.0
C1220 C 0.81879 0.11325 0.85614 0.0
C1221 C 0.79889 0.13038 0.8604 0.0
C1222 C 0.84402 0.12209 0.85428 0.0
C1223 C 0.84969 0.14806 0.857 0.0
C1224 C 0.82991 0.16501 0.86159 0.0
H1225 H 0.96966 0.25394 0.82918 0.0
H1226 H 0.9322 0.22577 0.82782 0.0
C1227 C 0.80481 0.15629 0.86325 0.0
C1228 C 0.87611 0.15794 0.85487 0.0
H1229 H 0.92308 0.18826 0.88018 0.0
C1230 C 0.8871 0.15939 0.83627 0.0
C1231 C 0.88959 0.16782 0.87093 0.0
C1232 C 0.87901 0.166 0.89129 0.0
C1233 C 0.91087 0.17139 0.83325 0.0
C1234 C 0.92378 0.18238 0.84922 0.0
C1235 C 0.91316 0.17999 0.8679 0.0
C1236 C 0.94793 0.19713 0.84708 0.0
C1237 C 0.92188 0.1723 0.81301 0.0
C1238 C 0.9694 0.19024 0.85803 0.0
C1239 C 0.99066 0.20633 0.85888 0.0
C1240 C 0.99089 0.22973 0.84884 0.0
C1241 C 0.9701 0.23589 0.83687 0.0
C1242 C 0.9487 0.21979 0.83609 0.0
H1243 H 0.91374 0.15705 0.80368 0.0
H1244 H 0.91722 0.19098 0.80629 0.0
H1245 H 0.94299 0.17027 0.81327 0.0
H1246 H 0.96928 0.17288 0.86661 0.0
H1247 H 1.00649 0.20104 0.86814 0.0
H1248 H 0.37038 0.72649 0.6766 0.0
H1249 H 0.35116 0.68409 0.67645 0.0
H1250 H 0.38416 0.66954 0.62012 0.0
H1251 H 0.40315 0.71254 0.62004 0.0
H1252 H 0.33196 0.65884 0.62214 0.0
H1253 H 0.38233 0.61347 0.68372 0.0
H1254 H 0.36879 0.64386 0.68991 0.0
H1255 H 0.39387 0.64216 0.67205 0.0
C1256 C 0.37371 0.71424 0.66421 0.0
C1257 C 0.38815 0.72295 0.64826 0.0
C1258 C 0.36292 0.68986 0.66425 0.0
C1259 C 0.36642 0.67348 0.64839 0.0
C1260 C 0.38135 0.68182 0.63258 0.0
H1261 H 0.31155 0.51596 0.64548 0.0
H1262 H 0.33799 0.55448 0.64624 0.0
C1263 C 0.39231 0.70629 0.63259 0.0
C1264 C 0.35284 0.64854 0.64786 0.0
H1265 H 0.34349 0.59334 0.67348 0.0
C1266 C 0.33467 0.6444 0.63325 0.0
C1267 C 0.35649 0.6296 0.66228 0.0
C1268 C 0.37661 0.63234 0.67777 0.0
C1269 C 0.3195 0.62224 0.63301 0.0
C1270 C 0.32227 0.6039 0.64797 0.0
C1271 C 0.34106 0.60761 0.66221 0.0
C1272 C 0.30615 0.58052 0.64884 0.0
C1273 C 0.30073 0.61861 0.61665 0.0
C1274 C 0.27947 0.58225 0.65069 0.0
C1275 C 0.26426 0.56024 0.65022 0.0
C1276 C 0.27546 0.53603 0.64793 0.0
C1277 C 0.30228 0.53432 0.64697 0.0
C1278 C 0.31744 0.55632 0.64747 0.0
H1279 H 0.30554 0.63078 0.60392 0.0
H1280 H 0.30016 0.59837 0.6119 0.0
H1281 H 0.28135 0.62399 0.62174 0.0
H1282 H 0.27036 0.6007 0.65215 0.0
H1283 H 0.2437 0.56228 0.65088 0.0
H1284 H 0.27675 0.35709 0.66764 0.0
H1285 H 0.31911 0.33791 0.67049 0.0
H1286 H 0.34561 0.38323 0.62216 0.0
H1287 H 0.30298 0.40243 0.61913 0.0
H1288 H 0.3559 0.32892 0.6197 0.0
H1289 H 0.38704 0.37022 0.68997 0.0
H1290 H 0.35558 0.35643 0.69016 0.0
H1291 H 0.36189 0.38411 0.67548 0.0
C1292 C 0.2916 0.36306 0.65765 0.0
C1293 C 0.28648 0.38121 0.6431 0.0
C1294 C 0.31587 0.35225 0.65942 0.0
C1295 C 0.33558 0.3593 0.64666 0.0
C1296 C 0.33069 0.37765 0.63225 0.0
H1297 H 0.49504 0.31158 0.65108 0.0
H1298 H 0.45524 0.33615 0.65098 0.0
C1299 C 0.3064 0.38869 0.63058 0.0
C1300 C 0.36074 0.3463 0.64774 0.0
H1301 H 0.4117 0.33567 0.67761 0.0
C1302 C 0.36819 0.33052 0.63229 0.0
C1303 C 0.37678 0.34851 0.66415 0.0
C1304 C 0.37011 0.36589 0.68085 0.0
C1305 C 0.39097 0.31639 0.63302 0.0
C1306 C 0.40661 0.31794 0.64971 0.0
C1307 C 0.39952 0.33426 0.66494 0.0
C1308 C 0.4306 0.303 0.65137 0.0
C1309 C 0.39823 0.29999 0.61589 0.0
C1310 C 0.42993 0.27622 0.65221 0.0
C1311 C 0.45264 0.26212 0.65234 0.0
C1312 C 0.47646 0.27455 0.65156 0.0
C1313 C 0.47701 0.30143 0.65149 0.0
C1314 C 0.45431 0.3155 0.65149 0.0
H1315 H 0.38718 0.30507 0.60269 0.0
H1316 H 0.41892 0.30185 0.61259 0.0
H1317 H 0.39428 0.27969 0.61942 0.0
H1318 H 0.41182 0.26621 0.65237 0.0
H1319 H 0.45151 0.24148 0.65222 0.0
H1320 H 0.61289 0.3042 0.62338 0.0
H1321 H 0.633 0.34649 0.6257 0.0
H1322 H 0.67869 0.32019 0.67369 0.0
H1323 H 0.65853 0.27818 0.67161 0.0
H1324 H 0.65599 0.37049 0.67855 0.0
H1325 H 0.70907 0.35895 0.60899 0.0
H1326 H 0.67514 0.35364 0.60812 0.0
H1327 H 0.69497 0.33227 0.62177 0.0
C1328 C 0.62697 0.30756 0.63457 0.0
C1329 C 0.63431 0.28776 0.64719 0.0
C1330 C 0.63857 0.33164 0.63579 0.0
C1331 C 0.65757 0.33635 0.64971 0.0
C1332 C 0.66419 0.31692 0.66277 0.0
H1333 H 0.77484 0.45316 0.65333 0.0
H1334 H 0.75034 0.4133 0.65472 0.0
C1335 C 0.65277 0.29287 0.66147 0.0
C1336 C 0.67125 0.36117 0.65039 0.0
H1337 H 0.71416 0.39802 0.62549 0.0
C1338 C 0.66862 0.37661 0.66693 0.0
C1339 C 0.688 0.36888 0.63533 0.0
C1340 C 0.69223 0.35256 0.61757 0.0
C1341 C 0.68217 0.39969 0.66871 0.0
C1342 C 0.6987 0.40752 0.65355 0.0
C1343 C 0.70143 0.39199 0.63708 0.0
C1344 C 0.7134 0.43175 0.65442 0.0
C1345 C 0.6791 0.41531 0.68695 0.0
C1346 C 0.70076 0.45533 0.65401 0.0
C1347 C 0.7147 0.47812 0.65324 0.0
C1348 C 0.74159 0.47778 0.65288 0.0
C1349 C 0.75419 0.45412 0.65386 0.0
C1350 C 0.74022 0.43132 0.6545 0.0
H1351 H 0.67008 0.40413 0.69886 0.0
H1352 H 0.69789 0.42255 0.692 0.0
H1353 H 0.66678 0.43203 0.68383 0.0
H1354 H 0.68009 0.4561 0.65371 0.0
H1355 H 0.70443 0.49603 0.65257 0.0
H1356 H 0.51586 0.70847 0.67268 0.0
H1357 H 0.55441 0.6818 0.67622 0.0
H1358 H 0.59915 0.73993 0.64757 0.0
H1359 H 0.56094 0.76625 0.64386 0.0
H1360 H 0.5867 0.66568 0.64247 0.0
H1361 H 0.64034 0.72075 0.69767 0.0
H1362 H 0.60608 0.72307 0.69494 0.0
H1363 H 0.62696 0.73986 0.67855 0.0
C1364 C 0.53408 0.71567 0.66755 0.0
C1365 C 0.53555 0.73942 0.65811 0.0
C1366 C 0.55599 0.70041 0.66946 0.0
C1367 C 0.57966 0.70899 0.66228 0.0
C1368 C 0.58118 0.73307 0.65343 0.0
H1369 H 0.73315 0.6727 0.63775 0.0
H1370 H 0.69052 0.68971 0.64357 0.0
C1371 C 0.55936 0.74808 0.6513 0.0
C1372 C 0.60271 0.69249 0.66271 0.0
H1373 H 0.66459 0.69187 0.67813 0.0
C1374 C 0.60363 0.67101 0.65055 0.0
C1375 C 0.62473 0.69957 0.67322 0.0
C1376 C 0.62453 0.72195 0.68698 0.0
C1377 C 0.62651 0.65739 0.64769 0.0
C1378 C 0.64889 0.66523 0.65755 0.0
C1379 C 0.64752 0.68592 0.67047 0.0
C1380 C 0.67442 0.6539 0.65345 0.0
C1381 C 0.62689 0.63573 0.63329 0.0
C1382 C 0.67965 0.62795 0.65688 0.0
C1383 C 0.70419 0.61809 0.65346 0.0
C1384 C 0.72398 0.6341 0.6468 0.0
C1385 C 0.71849 0.65993 0.64317 0.0
C1386 C 0.69407 0.66969 0.64645 0.0
H1387 H 0.60951 0.63546 0.62408 0.0
H1388 H 0.64394 0.63705 0.62371 0.0
H1389 H 0.62785 0.61733 0.64125 0.0
H1390 H 0.66494 0.61546 0.6626 0.0
H1391 H 0.70789 0.59819 0.6566 0.0
H1392 H 0.12994 0.46519 0.32008 0.0
H1393 H 0.10953 0.44263 0.29308 0.0
H1394 H 0.18062 0.40429 0.2806 0.0
H1395 H 0.20053 0.4256 0.30824 0.0
H1396 H 0.11524 0.44007 0.25596 0.0
H1397 H 0.13555 0.34405 0.28512 0.0
H1398 H 0.14146 0.3726 0.29896 0.0
H1399 H 0.16464 0.36144 0.2815 0.0
C1400 C 0.14119 0.45204 0.31147 0.0
C1401 C 0.16671 0.44691 0.31632 0.0
C1402 C 0.12952 0.43911 0.29608 0.0
C1403 C 0.14329 0.42112 0.28513 0.0
C1404 C 0.16926 0.41725 0.28928 0.0
H1405 H 0.102 0.36361 0.17174 0.0
H1406 H 0.11596 0.38917 0.19934 0.0
C1407 C 0.18072 0.42965 0.30494 0.0
C1408 C 0.13056 0.40629 0.26947 0.0
H1409 H 0.12328 0.34595 0.25169 0.0
C1410 C 0.11678 0.41945 0.25514 0.0
C1411 C 0.13186 0.3793 0.26862 0.0
C1412 C 0.14392 0.36354 0.28451 0.0
C1413 C 0.10503 0.4065 0.23969 0.0
C1414 C 0.10807 0.3797 0.23803 0.0
C1415 C 0.12118 0.36651 0.2527 0.0
C1416 C 0.09836 0.3649 0.22112 0.0
C1417 C 0.0891 0.42172 0.2256 0.0
C1418 C 0.08451 0.34218 0.22404 0.0
C1419 C 0.07728 0.32705 0.20825 0.0
C1420 C 0.08336 0.33459 0.18922 0.0
C1421 C 0.09671 0.35755 0.18625 0.0
C1422 C 0.10451 0.37232 0.20205 0.0
H1423 H 0.08096 0.43896 0.23265 0.0
H1424 H 0.10137 0.4283 0.21342 0.0
H1425 H 0.07315 0.41019 0.21961 0.0
H1426 H 0.07957 0.33594 0.23857 0.0
H1427 H 0.06698 0.30945 0.21094 0.0
H1428 H 0.64549 0.07819 0.17391 0.0
H1429 H 0.61894 0.09189 0.20127 0.0
H1430 H 0.68664 0.11102 0.2337 0.0
H1431 H 0.71332 0.09687 0.20664 0.0
H1432 H 0.65086 0.08608 0.25596 0.0
H1433 H 0.60583 0.16597 0.21538 0.0
H1434 H 0.60194 0.13508 0.20452 0.0
H1435 H 0.63327 0.14895 0.20624 0.0
C1436 C 0.65474 0.08519 0.18691 0.0
C1437 C 0.68155 0.08659 0.18804 0.0
C1438 C 0.63952 0.09317 0.20248 0.0
C1439 C 0.65078 0.10299 0.21938 0.0
C1440 C 0.67752 0.10365 0.22076 0.0
H1441 H 0.6141 0.18001 0.32447 0.0
H1442 H 0.63269 0.15861 0.29644 0.0
C1443 C 0.69276 0.09554 0.20526 0.0
C1444 C 0.6349 0.11287 0.23561 0.0
H1445 H 0.59212 0.15952 0.24768 0.0
C1446 C 0.63792 0.10204 0.25412 0.0
C1447 C 0.61795 0.13369 0.23318 0.0
C1448 C 0.61464 0.14679 0.21382 0.0
C1449 C 0.62477 0.1117 0.2703 0.0
C1450 C 0.60835 0.13288 0.26795 0.0
C1451 C 0.60467 0.14322 0.24938 0.0
C1452 C 0.59655 0.14581 0.28485 0.0
C1453 C 0.62871 0.09933 0.28986 0.0
C1454 C 0.56994 0.14621 0.28739 0.0
C1455 C 0.55912 0.15849 0.30351 0.0
C1456 C 0.57478 0.17082 0.31718 0.0
C1457 C 0.60141 0.17069 0.31431 0.0
C1458 C 0.61214 0.15833 0.29833 0.0
H1459 H 0.63639 0.07966 0.28845 0.0
H1460 H 0.64264 0.11079 0.2983 0.0
H1461 H 0.61055 0.09858 0.29821 0.0
H1462 H 0.55759 0.13679 0.27703 0.0
H1463 H 0.53856 0.15827 0.30527 0.0
H1464 H 0.85418 0.53589 0.30092 0.0
H1465 H 0.87566 0.55452 0.27252 0.0
H1466 H 0.88211 0.62644 0.3026 0.0
H1467 H 0.85979 0.60835 0.33047 0.0
H1468 H 0.86564 0.63455 0.26799 0.0
H1469 H 0.94902 0.57012 0.26209 0.0
H1470 H 0.91926 0.5532 0.261 0.0
H1471 H 0.92797 0.56986 0.28287 0.0
C1472 C 0.86035 0.55562 0.30147 0.0
C1473 C 0.85519 0.57067 0.31789 0.0
C1474 C 0.87283 0.56621 0.28529 0.0
C1475 C 0.88093 0.59184 0.28547 0.0
C1476 C 0.8761 0.60666 0.30204 0.0
H1477 H 0.98126 0.66491 0.19971 0.0
H1478 H 0.96381 0.64383 0.22874 0.0
C1479 C 0.86328 0.59627 0.31799 0.0
C1480 C 0.89305 0.6039 0.26812 0.0
H1481 H 0.94187 0.59825 0.23533 0.0
C1482 C 0.88241 0.62663 0.26095 0.0
C1483 C 0.91519 0.59389 0.25905 0.0
C1484 C 0.92869 0.57058 0.26676 0.0
C1485 C 0.89304 0.63947 0.24497 0.0
C1486 C 0.91439 0.6288 0.23528 0.0
C1487 C 0.92532 0.60627 0.24258 0.0
C1488 C 0.92536 0.64068 0.21747 0.0
C1489 C 0.88154 0.66468 0.23895 0.0
C1490 C 0.90976 0.64539 0.20133 0.0
C1491 C 0.91954 0.65776 0.18495 0.0
C1492 C 0.94535 0.66519 0.18413 0.0
C1493 C 0.96128 0.65954 0.19996 0.0
C1494 C 0.95133 0.64746 0.21653 0.0
H1495 H 0.87142 0.67398 0.25124 0.0
H1496 H 0.89635 0.67803 0.2334 0.0
H1497 H 0.86734 0.66135 0.22729 0.0
H1498 H 0.8899 0.6396 0.20141 0.0
H1499 H 0.90685 0.66138 0.17287 0.0
H1500 H 0.44099 0.8689 0.32762 0.0
H1501 H 0.42353 0.89291 0.30015 0.0
H1502 H 0.39938 0.82246 0.27349 0.0
H1503 H 0.41747 0.79838 0.30045 0.0
H1504 H 0.41904 0.85427 0.24711 0.0
H1505 H 0.34851 0.90623 0.29259 0.0
H1506 H 0.38113 0.91125 0.29954 0.0
H1507 H 0.36715 0.88 0.30182 0.0
C1508 C 0.43214 0.85854 0.31582 0.0
C1509 C 0.43047 0.83174 0.31628 0.0
C1510 C 0.42199 0.8723 0.3002 0.0
C1511 C 0.40962 0.85953 0.28496 0.0
C1512 C 0.40873 0.83275 0.28511 0.0
H1513 H 0.29437 0.9092 0.20557 0.0
H1514 H 0.3199 0.89378 0.23277 0.0
C1515 C 0.4191 0.81899 0.30056 0.0
C1516 C 0.39706 0.87378 0.26896 0.0
H1517 H 0.34947 0.91644 0.25923 0.0
C1518 C 0.40392 0.86797 0.24975 0.0
C1519 C 0.3771 0.89143 0.27244 0.0
C1520 C 0.36782 0.89747 0.29269 0.0
C1521 C 0.39106 0.87887 0.23392 0.0
C1522 C 0.37128 0.89673 0.23739 0.0
C1523 C 0.36477 0.90293 0.2566 0.0
C1524 C 0.35588 0.90775 0.22136 0.0
C1525 C 0.39805 0.87022 0.21369 0.0
C1526 C 0.36748 0.92133 0.2061 0.0
C1527 C 0.35295 0.92989 0.19038 0.0
C1528 C 0.32646 0.92545 0.18982 0.0
C1529 C 0.31472 0.91293 0.20555 0.0
C1530 C 0.32931 0.90411 0.22113 0.0
H1531 H 0.40871 0.8519 0.21385 0.0
H1532 H 0.38076 0.86778 0.20458 0.0
H1533 H 0.41047 0.88482 0.20676 0.0
H1534 H 0.38784 0.92501 0.20622 0.0
H1535 H 0.36251 0.93974 0.17857 0.0
H1536 H 0.96129 0.6278 0.82146 0.0
H1537 H 0.93888 0.61079 0.79318 0.0
H1538 H 0.90591 0.68498 0.7825 0.0
H1539 H 0.92704 0.70156 0.81146 0.0
H1540 H 0.87089 0.65173 0.77969 0.0
H1541 H 0.95255 0.61528 0.737 0.0
H1542 H 0.9515 0.60097 0.76062 0.0
H1543 H 0.95687 0.63484 0.75824 0.0
C1544 C 0.94956 0.64053 0.81288 0.0
C1545 C 0.94597 0.66601 0.81858 0.0
C1546 C 0.93686 0.63084 0.79662 0.0
C1547 C 0.92101 0.64667 0.78539 0.0
C1548 C 0.91801 0.67233 0.79086 0.0
H1549 H 0.86069 0.60571 0.67223 0.0
H1550 H 0.88597 0.62146 0.69947 0.0
C1551 C 0.93016 0.68184 0.80738 0.0
C1552 C 0.90622 0.63623 0.76875 0.0
H1553 H 0.91115 0.60091 0.72726 0.0
C1554 C 0.87979 0.64082 0.76814 0.0
C1555 C 0.91775 0.62222 0.7535 0.0
C1556 C 0.94626 0.61829 0.75225 0.0
C1557 C 0.86462 0.63183 0.75284 0.0
C1558 C 0.87591 0.61667 0.73813 0.0
C1559 C 0.90236 0.61218 0.73866 0.0
C1560 C 0.86085 0.60613 0.72167 0.0
C1561 C 0.83683 0.63948 0.75237 0.0
C1562 C 0.83855 0.59176 0.72497 0.0
C1563 C 0.82372 0.58329 0.70938 0.0
C1564 C 0.83139 0.58827 0.6902 0.0
C1565 C 0.85433 0.60155 0.68688 0.0
C1566 C 0.8688 0.61056 0.70245 0.0
H1567 H 0.83342 0.65728 0.76074 0.0
H1568 H 0.83012 0.64254 0.73726 0.0
H1569 H 0.82512 0.62418 0.75911 0.0
H1570 H 0.83246 0.58724 0.73961 0.0
H1571 H 0.8063 0.57278 0.71234 0.0
H1572 H 0.41063 0.85988 0.67362 0.0
H1573 H 0.39366 0.88397 0.70097 0.0
H1574 H 0.46379 0.87168 0.73242 0.0
H1575 H 0.48142 0.84855 0.70448 0.0
H1576 H 0.38277 0.86874 0.73521 0.0
H1577 H 0.4545 0.94578 0.74255 0.0
H1578 H 0.45379 0.92472 0.72187 0.0
H1579 H 0.46864 0.9147 0.74417 0.0
C1580 C 0.42255 0.86247 0.6863 0.0
C1581 C 0.44736 0.85229 0.68694 0.0
C1582 C 0.41283 0.8763 0.70194 0.0
C1583 C 0.42749 0.88 0.71875 0.0
C1584 C 0.45232 0.86978 0.71945 0.0
H1585 H 0.35657 0.91071 0.82985 0.0
H1586 H 0.37746 0.89236 0.80151 0.0
C1587 C 0.46231 0.85635 0.70355 0.0
C1588 C 0.41593 0.89314 0.7358 0.0
H1589 H 0.42501 0.94087 0.76889 0.0
C1590 C 0.39199 0.88464 0.74245 0.0
C1591 C 0.42766 0.91418 0.74514 0.0
C1592 C 0.45243 0.92556 0.73794 0.0
C1593 C 0.3796 0.8963 0.75817 0.0
C1594 C 0.39194 0.9164 0.76818 0.0
C1595 C 0.41569 0.92525 0.76139 0.0
C1596 C 0.38059 0.92811 0.78587 0.0
C1597 C 0.35312 0.88722 0.76356 0.0
C1598 C 0.37652 0.95459 0.78702 0.0
C1599 C 0.36499 0.9653 0.80351 0.0
C1600 C 0.35717 0.94964 0.81902 0.0
C1601 C 0.36187 0.92325 0.81799 0.0
C1602 C 0.37373 0.91268 0.80173 0.0
H1603 H 0.3433 0.87839 0.75096 0.0
H1604 H 0.35456 0.87246 0.77508 0.0
H1605 H 0.34112 0.90312 0.76905 0.0
H1606 H 0.38186 0.96692 0.77504 0.0
H1607 H 0.36175 0.98571 0.80394 0.0
H1608 H 0.03639 0.36349 0.80517 0.0
H1609 H 0.05497 0.38127 0.77521 0.0
H1610 H 0.12984 0.35748 0.79375 0.0
H1611 H 0.1117 0.33955 0.82326 0.0
H1612 H 0.0933 0.41904 0.77038 0.0
H1613 H 0.12443 0.32664 0.73955 0.0
H1614 H 0.10169 0.32877 0.75924 0.0
H1615 H 0.13541 0.33111 0.76396 0.0
C1616 C 0.05679 0.36197 0.80279 0.0
C1617 C 0.07249 0.34987 0.81656 0.0
C1618 C 0.06736 0.37215 0.7857 0.0
C1619 C 0.09371 0.37024 0.7821 0.0
C1620 C 0.10938 0.35863 0.796 0.0
H1621 H 0.21175 0.4189 0.70519 0.0
H1622 H 0.18434 0.40455 0.73187 0.0
C1623 C 0.09892 0.34847 0.81296 0.0
C1624 C 0.10533 0.38064 0.76407 0.0
H1625 H 0.14443 0.36414 0.72637 0.0
C1626 C 0.10412 0.40702 0.76055 0.0
C1627 C 0.11936 0.36489 0.75123 0.0
C1628 C 0.12011 0.33625 0.75355 0.0
C1629 C 0.1177 0.41821 0.74506 0.0
C1630 C 0.1327 0.40255 0.73284 0.0
C1631 C 0.13311 0.3761 0.73593 0.0
C1632 C 0.14894 0.41322 0.71718 0.0
C1633 C 0.11684 0.44675 0.74228 0.0
C1634 C 0.13806 0.42299 0.70014 0.0
C1635 C 0.15367 0.43111 0.68479 0.0
C1636 C 0.18045 0.42961 0.68626 0.0
C1637 C 0.19124 0.42039 0.70358 0.0
C1638 C 0.17561 0.41214 0.71883 0.0
H1639 H 0.10684 0.45653 0.75442 0.0
H1640 H 0.13651 0.45455 0.74102 0.0
H1641 H 0.10668 0.45121 0.72857 0.0
H1642 H 0.11749 0.42371 0.69853 0.0
H1643 H 0.14474 0.4381 0.67166 0.0
H1644 H 0.57787 0.14585 0.67509 0.0
H1645 H 0.59171 0.11866 0.70203 0.0
H1646 H 0.60774 0.1856 0.7363 0.0
H1647 H 0.59348 0.21282 0.70971 0.0
H1648 H 0.63853 0.11634 0.71856 0.0
H1649 H 0.56758 0.14317 0.77449 0.0
H1650 H 0.5636 0.15116 0.74918 0.0
H1651 H 0.58342 0.17062 0.76457 0.0
C1652 C 0.584 0.15478 0.68847 0.0
C1653 C 0.58444 0.18154 0.69027 0.0
C1654 C 0.59195 0.1392 0.70384 0.0
C1655 C 0.60039 0.15005 0.72131 0.0
C1656 C 0.60068 0.17674 0.72317 0.0
H1657 H 0.68382 0.11219 0.82255 0.0
H1658 H 0.66212 0.13039 0.79452 0.0
C1659 C 0.59264 0.19231 0.70788 0.0
C1660 C 0.61041 0.13369 0.73721 0.0
H1661 H 0.60602 0.12315 0.78607 0.0
C1662 C 0.63114 0.11747 0.73326 0.0
C1663 C 0.60067 0.13506 0.75638 0.0
C1664 C 0.57742 0.15074 0.76138 0.0
C1665 C 0.64319 0.10364 0.74814 0.0
C1666 C 0.63421 0.10605 0.7674 0.0
C1667 C 0.61293 0.12149 0.77126 0.0
C1668 C 0.64779 0.09429 0.78399 0.0
C1669 C 0.66614 0.08743 0.74338 0.0
C1670 C 0.64696 0.06785 0.78731 0.0
C1671 C 0.65934 0.05727 0.80346 0.0
C1672 C 0.67278 0.07299 0.81647 0.0
C1673 C 0.67373 0.09944 0.81286 0.0
C1674 C 0.66128 0.10995 0.79685 0.0
H1675 H 0.67225 0.08954 0.728 0.0
H1676 H 0.68238 0.09262 0.75295 0.0
H1677 H 0.6615 0.06705 0.7461 0.0
H1678 H 0.63647 0.05549 0.77758 0.0
H1679 H 0.65816 0.03686 0.80584 0.0
H1680 H 0.02962 0.61571 0.11703 0.0
H1681 H 0.03481 0.56932 0.1172 0.0
H1682 H 0.95302 0.55991 0.1186 0.0
H1683 H 0.94764 0.6063 0.11799 0.0
H1684 H 0.01665 0.5339 0.14563 0.0
H1685 H 0.97598 0.51465 0.07263 0.0
H1686 H 0.98609 0.5461 0.0801 0.0
H1687 H 0.95624 0.53331 0.08858 0.0
C1688 C 0.01272 0.60382 0.11714 0.0
C1689 C 0.9882 0.61481 0.11739 0.0
C1690 C 0.01572 0.57728 0.11737 0.0
C1691 C 0.99431 0.56116 0.11767 0.0
C1692 C 0.96981 0.572 0.11807 0.0
H1693 H 0.97913 0.39499 0.11649 0.0
H1694 H 0.971 0.44103 0.11697 0.0
C1695 C 0.96678 0.59855 0.11792 0.0
C1696 C 0.99771 0.53301 0.11795 0.0
H1697 H 0.98687 0.47877 0.09171 0.0
C1698 C 0.01017 0.52183 0.13384 0.0
C1699 C 0.98911 0.5173 0.1026 0.0
C1700 C 0.97628 0.52837 0.08491 0.0
C1701 C 0.01412 0.49534 0.13488 0.0
C1702 C 1.00591 0.47964 0.11937 0.0
C1703 C 0.99318 0.4908 0.10358 0.0
C1704 C 0.01084 0.45169 0.11908 0.0
C1705 C 0.02667 0.48438 0.15274 0.0
C1706 C 0.03593 0.44235 0.11976 0.0
C1707 C 0.04062 0.41608 0.11948 0.0
C1708 C 0.02033 0.39851 0.11832 0.0
C1709 C 0.99521 0.40794 0.11728 0.0
C1710 C 0.99052 0.43426 0.11763 0.0
H1711 H 0.0249 0.49744 0.16537 0.0
H1712 H 0.0182 0.46563 0.1567 0.0
H1713 H 0.04732 0.48155 0.14979 0.0
H1714 H 0.05197 0.45541 0.12032 0.0
H1715 H 0.06022 0.40959 0.11986 0.0
H1716 H 0.40745 0.95096 0.12219 0.0
H1717 H 0.45366 0.95763 0.12234 0.0
H1718 H 0.44219 0.03905 0.12037 0.0
H1719 H 0.39587 0.03257 0.12068 0.0
H1720 H 0.48378 0.98298 0.09412 0.0
H1721 H 0.49166 0.02962 0.1662 0.0
H1722 H 0.46365 0.01199 0.15887 0.0
H1723 H 0.46882 0.0439 0.1501 0.0
C1724 C 0.41467 0.97031 0.12208 0.0
C1725 C 0.39783 0.99124 0.12156 0.0
C1726 C 0.44115 0.97408 0.12202 0.0
C1727 C 0.45141 0.99883 0.12162 0.0
C1728 C 0.43472 0.01977 0.12101 0.0
H1729 H 0.60455 0.06238 0.11961 0.0
H1730 H 0.55851 0.05495 0.12021 0.0
C1731 C 0.40822 0.01603 0.12099 0.0
C1732 C 0.47958 1.00267 0.12134 0.0
H1733 H 0.52897 0.02918 0.14665 0.0
C1734 C 0.49371 0.99297 0.10564 0.0
C1735 C 0.49248 0.01575 0.13636 0.0
C1736 C 0.47847 0.02575 0.15394 0.0
C1737 C 0.5203 0.99648 0.10435 0.0
C1738 C 0.53324 0.00955 0.11939 0.0
C1739 C 0.51909 0.01917 0.13512 0.0
C1740 C 0.56138 0.01379 0.11899 0.0
C1741 C 0.53417 0.98675 0.08661 0.0
C1742 C 0.57845 0.99314 0.11832 0.0
C1743 C 0.60489 0.99734 0.11799 0.0
C1744 C 0.61485 0.02229 0.11854 0.0
C1745 C 0.59766 0.04291 0.11941 0.0
C1746 C 0.57126 0.0387 0.11967 0.0
H1747 H 0.52091 0.98356 0.07427 0.0
H1748 H 0.54929 1.00032 0.08191 0.0
H1749 H 0.54335 0.96824 0.09011 0.0
H1750 H 0.57134 0.97372 0.11827 0.0
H1751 H 0.61752 0.98102 0.11763 0.0
H1752 H 0.50419 0.11826 0.40937 0.0
H1753 H 0.49892 0.07187 0.40922 0.0
H1754 H 0.54633 0.06686 0.35808 0.0
H1755 H 0.55183 0.11324 0.35823 0.0
H1756 H 0.47812 0.04057 0.38245 0.0
H1757 H 0.57974 0.01472 0.39302 0.0
H1758 H 0.5681 0.04683 0.39632 0.0
H1759 H 0.57461 0.0349 0.37232 0.0
C1760 C 0.51347 0.10732 0.39806 0.0
C1761 C 0.52857 0.11954 0.38388 0.0
C1762 C 0.5105 0.08075 0.39803 0.0
C1763 C 0.52257 0.06573 0.38383 0.0
C1764 C 0.53738 0.07789 0.3695 0.0
H1765 H 0.47972 0.90831 0.35664 0.0
H1766 H 0.4864 0.95454 0.35623 0.0
C1767 C 0.54049 0.10446 0.36959 0.0
C1768 C 0.51907 0.03746 0.38381 0.0
H1769 H 0.55141 0.98081 0.38509 0.0
C1770 C 0.49415 0.02752 0.38307 0.0
C1771 C 0.53995 0.02035 0.38489 0.0
C1772 C 0.56709 0.02969 0.38688 0.0
C1773 C 0.48955 1.00105 0.38317 0.0
C1774 C 0.51047 0.98393 0.38357 0.0
C1775 C 0.53537 0.99387 0.38455 0.0
C1776 C 0.50691 0.95567 0.38346 0.0
C1777 C 0.46226 0.99174 0.38332 0.0
C1778 C 0.51697 0.94065 0.39853 0.0
C1779 C 0.51338 0.91415 0.39869 0.0
C1780 C 0.49963 0.90201 0.38378 0.0
C1781 C 0.48998 0.91705 0.36853 0.0
C1782 C 0.49373 0.94354 0.36831 0.0
H1783 H 0.44891 1.00673 0.38854 0.0
H1784 H 0.45658 0.98656 0.36832 0.0
H1785 H 0.46003 0.97461 0.39268 0.0
H1786 H 0.52728 0.9495 0.41036 0.0
H1787 H 0.5209 0.90325 0.41074 0.0
H1788 H 0.90286 0.48412 0.37677 0.0
H1789 H 0.94933 0.47882 0.37757 0.0
H1790 H 0.9582 0.55826 0.39228 0.0
H1791 H 0.91168 0.5637 0.39161 0.0
H1792 H 0.98717 0.51039 0.35433 0.0
H1793 H 0.99952 0.51551 0.43449 0.0
H1794 H 0.96948 0.50683 0.42343 0.0
H1795 H 0.97989 0.53945 0.42316 0.0
C1796 C 0.91466 0.50041 0.38036 0.0
C1797 C 0.90353 0.52433 0.38419 0.0
C1798 C 0.94122 0.49738 0.3807 0.0
C1799 C 0.95717 0.51809 0.38513 0.0
C1800 C 0.94619 0.54198 0.38898 0.0
H1801 H 0.12201 0.53093 0.40019 0.0
H1802 H 0.07595 0.53799 0.39989 0.0
C1803 C 0.91963 0.5451 0.38846 0.0
C1804 C 0.98532 0.51475 0.38534 0.0
H1805 H 0.03689 0.51189 0.41553 0.0
C1806 C 0.99809 0.51068 0.36769 0.0
C1807 C 0.99947 0.51539 0.40277 0.0
C1808 C 0.98652 0.51938 0.42212 0.0
C1809 C 0.02473 0.50743 0.36697 0.0
C1810 C 0.03891 0.50745 0.38448 0.0
C1811 C 0.02608 0.51176 0.40213 0.0
C1812 C 0.06702 0.50293 0.38479 0.0
C1813 C 0.03742 0.50464 0.34738 0.0
C1814 C 0.07744 0.48063 0.37675 0.0
C1815 C 0.10387 0.47669 0.37662 0.0
C1816 C 0.12061 0.49477 0.38483 0.0
C1817 C 0.10997 0.51674 0.39342 0.0
C1818 C 0.08352 0.52075 0.39339 0.0
H1819 H 0.02553 0.51293 0.33562 0.0
H1820 H 0.05642 0.51407 0.34711 0.0
H1821 H 0.04007 0.48407 0.34416 0.0
H1822 H 0.06512 0.46623 0.37049 0.0
H1823 H 0.11104 0.45961 0.36973 0.0
H1824 H 0.03714 0.6205 0.88428 0.0
H1825 H 0.04326 0.57431 0.88442 0.0
H1826 H 0.96251 0.56332 0.89343 0.0
H1827 H 0.95618 0.60954 0.8936 0.0
H1828 H 0.03102 0.53745 0.91334 0.0
H1829 H 0.97805 0.51998 0.84486 0.0
H1830 H 0.9887 0.55137 0.85202 0.0
H1831 H 0.96071 0.53757 0.86297 0.0
C1832 C 0.02066 0.60839 0.88654 0.0
C1833 C 0.99609 0.61896 0.88882 0.0
C1834 C 0.02421 0.5819 0.8865 0.0
C1835 C 1.0033 0.56533 0.8886 0.0
C1836 C 0.97886 0.57572 0.89134 0.0
H1837 H 0.98477 0.40045 0.88729 0.0
H1838 H 0.97895 0.44661 0.88889 0.0
C1839 C 0.97528 0.60222 0.89143 0.0
C1840 C 1.00713 0.5372 0.88797 0.0
H1841 H 0.99154 0.48355 0.8624 0.0
C1842 C 0.02247 0.52565 0.90217 0.0
C1843 C 0.99594 0.52183 0.8734 0.0
C1844 C 0.9801 0.53326 0.85732 0.0
C1845 C 0.02652 0.49911 0.90243 0.0
C1846 C 0.01539 0.48372 0.88781 0.0
C1847 C 1.00007 0.4953 0.8736 0.0
C1848 C 0.01923 0.45555 0.88705 0.0
C1849 C 0.04216 0.48773 0.91864 0.0
C1850 C 0.04381 0.44508 0.88525 0.0
C1851 C 0.04725 0.41858 0.88451 0.0
C1852 C 0.02615 0.40189 0.8854 0.0
C1853 C 1.00153 0.41253 0.88691 0.0
C1854 C 0.99813 0.43901 0.88769 0.0
H1855 H 0.04325 0.50074 0.93134 0.0
H1856 H 0.03405 0.46919 0.9235 0.0
H1857 H 0.06191 0.48436 0.91337 0.0
H1858 H 0.06037 0.45742 0.88431 0.0
H1859 H 0.0665 0.41124 0.88346 0.0
H1860 H 0.61916 0.9947 0.90146 0.0
H1861 H 0.57297 0.98953 0.90131 0.0
H1862 H 0.56554 0.05739 0.86632 0.0
H1863 H 0.61181 0.062 0.86542 0.0
H1864 H 0.53581 0.01935 0.91496 0.0
H1865 H 0.52311 1.00828 0.83551 0.0
H1866 H 0.55411 1.00739 0.84685 0.0
H1867 H 0.53884 0.03748 0.84197 0.0
C1868 C 0.6079 1.00837 0.89343 0.0
C1869 C 0.61958 0.02867 0.88329 0.0
C1870 C 0.58134 1.00547 0.89351 0.0
C1871 C 0.56571 0.02278 0.88351 0.0
C1872 C 0.57717 0.04338 0.87374 0.0
H1873 H 0.40022 0.03915 0.87622 0.0
H1874 H 0.4465 0.04642 0.87633 0.0
C1875 C 0.60377 0.04619 0.87349 0.0
C1876 C 0.53745 0.01944 0.8837 0.0
H1877 H 0.48525 0.01274 0.85436 0.0
C1878 C 0.52481 0.01781 0.9017 0.0
C1879 C 0.52301 0.01736 0.86638 0.0
C1880 C 0.53547 0.01746 0.84659 0.0
C1881 C 0.49822 0.01439 0.90284 0.0
C1882 C 0.48387 0.01254 0.88556 0.0
C1883 C 0.49637 0.01432 0.86757 0.0
C1884 C 0.45588 1.00826 0.8859 0.0
C1885 C 0.48551 0.01298 0.92249 0.0
C1886 C 0.4459 0.98436 0.89117 0.0
C1887 C 0.41951 0.98012 0.89104 0.0
C1888 C 0.40259 0.99976 0.88575 0.0
C1889 C 0.4127 0.02375 0.8806 0.0
C1890 C 0.43912 0.02789 0.88054 0.0
H1891 H 0.49863 0.01865 0.93438 0.0
H1892 H 0.46841 0.0255 0.92288 0.0
H1893 H 0.47902 0.99312 0.92522 0.0
H1894 H 0.45857 0.96893 0.89524 0.0
H1895 H 0.41231 0.96152 0.89522 0.0
H1896 H 0.52954 0.90123 0.61836 0.0
H1897 H 0.53429 0.94764 0.61834 0.0
H1898 H 0.4525 0.95603 0.62192 0.0
H1899 H 0.4476 0.9096 0.62197 0.0
H1900 H 0.51593 0.98293 0.59241 0.0
H1901 H 0.47651 1.00165 0.66593 0.0
H1902 H 0.4852 0.97005 0.65788 0.0
H1903 H 0.45548 0.98402 0.65036 0.0
C1904 C 0.51254 0.9129 0.61907 0.0
C1905 C 0.48818 0.9016 0.62023 0.0
C1906 C 0.51529 0.93947 0.61914 0.0
C1907 C 0.49379 0.95536 0.62043 0.0
C1908 C 0.46942 0.94418 0.62141 0.0
H1909 H 0.4777 0.12161 0.61896 0.0
H1910 H 0.46966 0.07548 0.61848 0.0
C1911 C 0.46665 0.91759 0.62141 0.0
C1912 C 0.49696 0.98359 0.62019 0.0
H1913 H 0.48568 0.03784 0.64639 0.0
C1914 C 0.50936 0.99491 0.60424 0.0
C1915 C 0.48831 0.99926 0.6356 0.0
C1916 C 0.47584 0.98817 0.6535 0.0
C1917 C 0.51323 0.02143 0.60323 0.0
C1918 C 0.50477 0.03705 0.61869 0.0
C1919 C 0.4921 0.02582 0.63454 0.0
C1920 C 0.5096 0.065 0.61891 0.0
C1921 C 0.52609 0.03256 0.5855 0.0
C1922 C 0.53468 0.0744 0.61953 0.0
C1923 C 0.53933 0.10069 0.61978 0.0
C1924 C 0.51897 0.1182 0.61946 0.0
C1925 C 0.49381 0.10869 0.61897 0.0
C1926 C 0.48918 0.08235 0.61882 0.0
H1927 H 0.52552 0.01918 0.573 0.0
H1928 H 0.51693 0.05079 0.58114 0.0
H1929 H 0.54641 0.03656 0.58888 0.0
H1930 H 0.55072 0.06137 0.61989 0.0
H1931 H 0.55892 0.10726 0.61997 0.0
H1932 H 0.89654 0.48403 0.61853 0.0
H1933 H 0.94288 0.47788 0.61813 0.0
H1934 H 0.95395 0.55938 0.62042 0.0
H1935 H 0.90776 0.56568 0.62084 0.0
H1936 H 0.97877 0.49461 0.59182 0.0
H1937 H 0.99924 0.53524 0.66446 0.0
H1938 H 0.96732 0.52721 0.65673 0.0
H1939 H 0.98199 0.55651 0.64883 0.0
C1940 C 0.90881 0.50066 0.6189 0.0
C1941 C 0.89832 0.52535 0.61986 0.0
C1942 C 0.93533 0.49711 0.61875 0.0
C1943 C 0.95196 0.51814 0.6196 0.0
C1944 C 0.94156 0.54281 0.62029 0.0
H1945 H 0.11779 0.53536 0.61584 0.0
H1946 H 0.0715 0.5424 0.616 0.0
C1947 C 0.91507 0.54638 0.62052 0.0
C1948 C 0.98014 0.51428 0.61922 0.0
H1949 H 0.0351 0.52626 0.64438 0.0
C1950 C 0.99106 0.50142 0.60336 0.0
C1951 C 0.99623 0.52322 0.63426 0.0
C1952 C 0.98563 0.5361 0.65213 0.0
C1953 C 0.01759 0.4976 0.60199 0.0
C1954 C 0.03365 0.50656 0.61701 0.0
C1955 C 0.02278 0.51948 0.63284 0.0
C1956 C 0.06174 0.50228 0.61673 0.0
C1957 C 0.02826 0.4844 0.58429 0.0
C1958 C 0.07165 0.47742 0.61728 0.0
C1959 C 0.09805 0.47334 0.61715 0.0
C1960 C 0.1152 0.49406 0.61652 0.0
C1961 C 0.10519 0.51898 0.61608 0.0
C1962 C 0.07873 0.52304 0.61629 0.0
H1963 H 0.01451 0.48458 0.57203 0.0
H1964 H 0.04632 0.49357 0.57944 0.0
H1965 H 0.03244 0.4642 0.58794 0.0
H1966 H 0.05893 0.46111 0.61792 0.0
H1967 H 0.10498 0.4539 0.61731 0.0
loop_
_geom_bond_atom_site_label_1
_geom_bond_atom_site_label_2
_geom_bond_distance
_geom_bond_site_symmetry_2
_ccdc_geom_bond_type
Co0 N4 2.148 . S
Co0 N10 2.128 . S
Co0 N20 2.194 . S
Co0 O25 2.351 . S
Co0 O26 2.155 . S
Co0 O27 2.096 . S
C1 N4 1.301 . S
C1 N5 1.328 . S
C1 H6 0.930 . S
C2 C3 1.333 . S
C2 N4 1.317 . S
C2 H7 0.930 . S
C3 C2 1.333 . S
C3 N5 1.350 . S
C3 H29 0.931 . S
N4 Co0 2.148 . S
N4 C1 1.301 . S
N4 C2 1.317 . S
N5 C1 1.328 . S
N5 C3 1.350 . S
H6 C1 0.930 . S
H7 C2 0.930 . S
C8 O9 1.224 . S
C8 O27 1.247 . S
O9 C8 1.224 . S
N10 Co0 2.128 . S
N10 C11 1.355 . S
N10 C13 1.311 . S
C11 N10 1.355 . S
C11 C12 1.363 . S
C11 H23 0.929 . S
C12 C11 1.363 . S
C12 N14 1.375 . S
C12 H30 0.931 . S
C13 N10 1.311 . S
C13 N14 1.347 . S
C13 H24 0.929 . S
N14 C12 1.375 . S
N14 C13 1.347 . S
C15 C18 1.365 . S
C15 N20 1.328 . S
C15 H21 0.929 . S
C16 C17 1.382 . S
C16 C19 1.378 . S
C16 H31 0.929 . S
C17 C16 1.382 . S
C17 C18 1.380 . S
C18 C15 1.365 . S
C18 C17 1.380 . S
C18 H32 0.930 . S
C19 C16 1.378 . S
C19 N20 1.315 . S
C19 H22 0.930 . S
N20 Co0 2.194 . S
N20 C15 1.328 . S
N20 C19 1.315 . S
H21 C15 0.929 . S
H22 C19 0.930 . S
H23 C11 0.929 . S
H24 C13 0.929 . S
O25 Co0 2.351 . S
O25 C28 1.244 . S
O26 Co0 2.155 . S
O26 C28 1.240 . S
O27 Co0 2.096 . S
O27 C8 1.247 . S
C28 O25 1.244 . S
C28 O26 1.240 . S
H29 C3 0.931 . S
H30 C12 0.931 . S
H31 C16 0.929 . S
H32 C18 0.930 . S
Co33 N37 2.148 . S
Co33 N43 2.128 . S
Co33 N53 2.194 . S
Co33 O58 2.351 . S
Co33 O59 2.155 . S
Co33 O60 2.096 . S
C34 N37 1.301 . S
C34 N38 1.328 . S
C34 H39 0.930 . S
C35 C36 1.333 . S
C35 N37 1.317 . S
C35 H40 0.930 . S
C36 C35 1.333 . S
C36 N38 1.350 . S
C36 H62 0.931 . S
N37 Co33 2.148 . S
N37 C34 1.301 . S
N37 C35 1.317 . S
N38 C34 1.328 . S
N38 C36 1.350 . S
H39 C34 0.930 . S
H40 C35 0.930 . S
C41 O42 1.224 . S
C41 O60 1.247 . S
O42 C41 1.224 . S
N43 Co33 2.128 . S
N43 C44 1.355 . S
N43 C46 1.311 . S
C44 N43 1.355 . S
C44 C45 1.363 . S
C44 H56 0.929 . S
C45 C44 1.363 . S
C45 N47 1.375 . S
C45 H63 0.931 . S
C46 N43 1.311 . S
C46 N47 1.347 . S
C46 H57 0.929 . S
N47 C45 1.375 . S
N47 C46 1.347 . S
C48 C51 1.365 . S
C48 N53 1.328 . S
C48 H54 0.929 . S
C49 C50 1.382 . S
C49 C52 1.378 . S
C49 H64 0.929 . S
C50 C49 1.382 . S
C50 C51 1.380 . S
C51 C48 1.365 . S
C51 C50 1.380 . S
C51 H65 0.930 . S
C52 C49 1.378 . S
C52 N53 1.315 . S
C52 H55 0.930 . S
N53 Co33 2.194 . S
N53 C48 1.328 . S
N53 C52 1.315 . S
H54 C48 0.929 . S
H55 C52 0.930 . S
H56 C44 0.929 . S
H57 C46 0.929 . S
O58 Co33 2.351 . S
O58 C61 1.244 . S
O59 Co33 2.155 . S
O59 C61 1.240 . S
O60 Co33 2.096 . S
O60 C41 1.247 . S
C61 O58 1.244 . S
C61 O59 1.240 . S
H62 C36 0.931 . S
H63 C45 0.931 . S
H64 C49 0.929 . S
H65 C51 0.930 . S
Co66 N70 2.148 . S
Co66 N76 2.128 . S
Co66 N86 2.194 . S
Co66 O91 2.351 . S
Co66 O92 2.155 . S
Co66 O93 2.096 . S
C67 N70 1.301 . S
C67 N71 1.328 . S
C67 H72 0.930 . S
C68 C69 1.333 . S
C68 N70 1.317 . S
C68 H73 0.930 . S
C69 C68 1.333 . S
C69 N71 1.350 . S
C69 H95 0.931 . S
N70 Co66 2.148 . S
N70 C67 1.301 . S
N70 C68 1.317 . S
N71 C67 1.328 . S
N71 C69 1.350 . S
H72 C67 0.930 . S
H73 C68 0.930 . S
C74 O75 1.224 . S
C74 O93 1.247 . S
O75 C74 1.224 . S
N76 Co66 2.128 . S
N76 C77 1.355 . S
N76 C79 1.311 . S
C77 N76 1.355 . S
C77 C78 1.363 . S
C77 H89 0.929 . S
C78 C77 1.363 . S
C78 N80 1.375 . S
C78 H96 0.931 . S
C79 N76 1.311 . S
C79 N80 1.347 . S
C79 H90 0.929 . S
N80 C78 1.375 . S
N80 C79 1.347 . S
C81 C84 1.365 . S
C81 N86 1.328 . S
C81 H87 0.929 . S
C82 C83 1.382 . S
C82 C85 1.378 . S
C82 H97 0.929 . S
C83 C82 1.382 . S
C83 C84 1.380 . S
C84 C81 1.365 . S
C84 C83 1.380 . S
C84 H98 0.930 . S
C85 C82 1.378 . S
C85 N86 1.315 . S
C85 H88 0.930 . S
N86 Co66 2.194 . S
N86 C81 1.328 . S
N86 C85 1.315 . S
H87 C81 0.929 . S
H88 C85 0.930 . S
H89 C77 0.929 . S
H90 C79 0.929 . S
O91 Co66 2.351 . S
O91 C94 1.244 . S
O92 Co66 2.155 . S
O92 C94 1.240 . S
O93 Co66 2.096 . S
O93 C74 1.247 . S
C94 O91 1.244 . S
C94 O92 1.240 . S
H95 C69 0.931 . S
H96 C78 0.931 . S
H97 C82 0.929 . S
H98 C84 0.930 . S
Co99 N103 2.148 . S
Co99 N109 2.128 . S
Co99 N119 2.194 . S
Co99 O124 2.351 . S
Co99 O125 2.155 . S
Co99 O126 2.096 . S
C100 N103 1.301 . S
C100 N104 1.328 . S
C100 H105 0.930 . S
C101 C102 1.333 . S
C101 N103 1.317 . S
C101 H106 0.930 . S
C102 C101 1.333 . S
C102 N104 1.350 . S
C102 H128 0.931 . S
N103 Co99 2.148 . S
N103 C100 1.301 . S
N103 C101 1.317 . S
N104 C100 1.328 . S
N104 C102 1.350 . S
H105 C100 0.930 . S
H106 C101 0.930 . S
C107 O108 1.224 . S
C107 O126 1.247 . S
O108 C107 1.224 . S
N109 Co99 2.128 . S
N109 C110 1.355 . S
N109 C112 1.311 . S
C110 N109 1.355 . S
C110 C111 1.363 . S
C110 H122 0.929 . S
C111 C110 1.363 . S
C111 N113 1.375 . S
C111 H129 0.931 . S
C112 N109 1.311 . S
C112 N113 1.347 . S
C112 H123 0.929 . S
N113 C111 1.375 . S
N113 C112 1.347 . S
C114 C117 1.365 . S
C114 N119 1.328 . S
C114 H120 0.929 . S
C115 C116 1.382 . S
C115 C118 1.378 . S
C115 H130 0.929 . S
C116 C115 1.382 . S
C116 C117 1.380 . S
C117 C114 1.365 . S
C117 C116 1.380 . S
C117 H131 0.930 . S
C118 C115 1.378 . S
C118 N119 1.315 . S
C118 H121 0.930 . S
N119 Co99 2.194 . S
N119 C114 1.328 . S
N119 C118 1.315 . S
H120 C114 0.929 . S
H121 C118 0.930 . S
H122 C110 0.929 . S
H123 C112 0.929 . S
O124 Co99 2.351 . S
O124 C127 1.244 . S
O125 Co99 2.155 . S
O125 C127 1.240 . S
O126 Co99 2.096 . S
O126 C107 1.247 . S
C127 O124 1.244 . S
C127 O125 1.240 . S
H128 C102 0.931 . S
H129 C111 0.931 . S
H130 C115 0.929 . S
H131 C117 0.930 . S
Co132 N136 2.148 . S
Co132 N142 2.128 . S
Co132 N152 2.194 . S
Co132 O157 2.351 . S
Co132 O158 2.155 . S
Co132 O159 2.096 . S
C133 N136 1.301 . S
C133 N137 1.328 . S
C133 H138 0.930 . S
C134 C135 1.333 . S
C134 N136 1.317 . S
C134 H139 0.930 . S
C135 C134 1.333 . S
C135 N137 1.350 . S
C135 H161 0.931 . S
N136 Co132 2.148 . S
N136 C133 1.301 . S
N136 C134 1.317 . S
N137 C133 1.328 . S
N137 C135 1.350 . S
H138 C133 0.930 . S
H139 C134 0.930 . S
C140 O141 1.224 . S
C140 O159 1.247 . S
O141 C140 1.224 . S
N142 Co132 2.128 . S
N142 C143 1.355 . S
N142 C145 1.311 . S
C143 N142 1.355 . S
C143 C144 1.363 . S
C143 H155 0.929 . S
C144 C143 1.363 . S
C144 N146 1.375 . S
C144 H162 0.931 . S
C145 N142 1.311 . S
C145 N146 1.347 . S
C145 H156 0.929 . S
N146 C144 1.375 . S
N146 C145 1.347 . S
C147 C150 1.365 . S
C147 N152 1.328 . S
C147 H153 0.929 . S
C148 C149 1.362 . S
C148 C151 1.378 . S
C148 H163 0.929 . S
C149 C148 1.362 . S
C149 C150 1.366 . S
C150 C147 1.365 . S
C150 C149 1.366 . S
C150 H164 0.930 . S
C151 C148 1.378 . S
C151 N152 1.315 . S
C151 H154 0.930 . S
N152 Co132 2.194 . S
N152 C147 1.328 . S
N152 C151 1.315 . S
H153 C147 0.929 . S
H154 C151 0.930 . S
H155 C143 0.929 . S
H156 C145 0.929 . S
O157 Co132 2.351 . S
O157 C160 1.244 . S
O158 Co132 2.155 . S
O158 C160 1.240 . S
O159 Co132 2.096 . S
O159 C140 1.247 . S
C160 O157 1.244 . S
C160 O158 1.240 . S
H161 C135 0.931 . S
H162 C144 0.931 . S
H163 C148 0.929 . S
H164 C150 0.930 . S
Co165 N169 2.148 . S
Co165 N175 2.128 . S
Co165 N185 2.194 . S
Co165 O190 2.351 . S
Co165 O191 2.155 . S
Co165 O192 2.096 . S
C166 N169 1.301 . S
C166 N170 1.328 . S
C166 H171 0.930 . S
C167 C168 1.333 . S
C167 N169 1.317 . S
C167 H172 0.930 . S
C168 C167 1.333 . S
C168 N170 1.350 . S
C168 H194 0.931 . S
N169 Co165 2.148 . S
N169 C166 1.301 . S
N169 C167 1.317 . S
N170 C166 1.328 . S
N170 C168 1.350 . S
H171 C166 0.930 . S
H172 C167 0.930 . S
C173 O174 1.224 . S
C173 O192 1.247 . S
O174 C173 1.224 . S
N175 Co165 2.128 . S
N175 C176 1.355 . S
N175 C178 1.311 . S
C176 N175 1.355 . S
C176 C177 1.363 . S
C176 H188 0.929 . S
C177 C176 1.363 . S
C177 N179 1.375 . S
C177 H195 0.931 . S
C178 N175 1.311 . S
C178 N179 1.347 . S
C178 H189 0.929 . S
N179 C177 1.375 . S
N179 C178 1.347 . S
C180 C183 1.365 . S
C180 N185 1.328 . S
C180 H186 0.929 . S
C181 C182 1.362 . S
C181 C184 1.378 . S
C181 H196 0.929 . S
C182 C181 1.362 . S
C182 C183 1.366 . S
C183 C180 1.365 . S
C183 C182 1.366 . S
C183 H197 0.930 . S
C184 C181 1.378 . S
C184 N185 1.315 . S
C184 H187 0.930 . S
N185 Co165 2.194 . S
N185 C180 1.328 . S
N185 C184 1.315 . S
H186 C180 0.929 . S
H187 C184 0.930 . S
H188 C176 0.929 . S
H189 C178 0.929 . S
O190 Co165 2.351 . S
O190 C193 1.244 . S
O191 Co165 2.155 . S
O191 C193 1.240 . S
O192 Co165 2.096 . S
O192 C173 1.247 . S
C193 O190 1.244 . S
C193 O191 1.240 . S
H194 C168 0.931 . S
H195 C177 0.931 . S
H196 C181 0.929 . S
H197 C183 0.930 . S
Co198 N202 2.148 . S
Co198 N208 2.128 . S
Co198 N218 2.194 . S
Co198 O223 2.351 . S
Co198 O224 2.155 . S
Co198 O225 2.096 . S
C199 N202 1.301 . S
C199 N203 1.328 . S
C199 H204 0.930 . S
C200 C201 1.333 . S
C200 N202 1.317 . S
C200 H205 0.930 . S
C201 C200 1.333 . S
C201 N203 1.350 . S
C201 H227 0.931 . S
N202 Co198 2.148 . S
N202 C199 1.301 . S
N202 C200 1.317 . S
N203 C199 1.328 . S
N203 C201 1.350 . S
H204 C199 0.930 . S
H205 C200 0.930 . S
C206 O207 1.224 . S
C206 O225 1.247 . S
O207 C206 1.224 . S
N208 Co198 2.128 . S
N208 C209 1.355 . S
N208 C211 1.311 . S
C209 N208 1.355 . S
C209 C210 1.363 . S
C209 H221 0.929 . S
C210 C209 1.363 . S
C210 N212 1.375 . S
C210 H228 0.931 . S
C211 N208 1.311 . S
C211 N212 1.347 . S
C211 H222 0.929 . S
N212 C210 1.375 . S
N212 C211 1.347 . S
C213 C216 1.365 . S
C213 N218 1.328 . S
C213 H219 0.929 . S
C214 C215 1.362 . S
C214 C217 1.378 . S
C214 H229 0.929 . S
C215 C214 1.362 . S
C215 C216 1.366 . S
C216 C213 1.365 . S
C216 C215 1.366 . S
C216 H230 0.930 . S
C217 C214 1.378 . S
C217 N218 1.315 . S
C217 H220 0.930 . S
N218 Co198 2.194 . S
N218 C213 1.328 . S
N218 C217 1.315 . S
H219 C213 0.929 . S
H220 C217 0.930 . S
H221 C209 0.929 . S
H222 C211 0.929 . S
O223 Co198 2.351 . S
O223 C226 1.244 . S
O224 Co198 2.155 . S
O224 C226 1.240 . S
O225 Co198 2.096 . S
O225 C206 1.247 . S
C226 O223 1.244 . S
C226 O224 1.240 . S
H227 C201 0.931 . S
H228 C210 0.931 . S
H229 C214 0.929 . S
H230 C216 0.930 . S
Co231 N235 2.148 . S
Co231 N241 2.128 . S
Co231 N251 2.194 . S
Co231 O256 2.351 . S
Co231 O257 2.155 . S
Co231 O258 2.096 . S
C232 N235 1.301 . S
C232 N236 1.328 . S
C232 H237 0.930 . S
C233 C234 1.333 . S
C233 N235 1.317 . S
C233 H238 0.930 . S
C234 C233 1.333 . S
C234 N236 1.350 . S
C234 H260 0.931 . S
N235 Co231 2.148 . S
N235 C232 1.301 . S
N235 C233 1.317 . S
N236 C232 1.328 . S
N236 C234 1.350 . S
H237 C232 0.930 . S
H238 C233 0.930 . S
C239 O240 1.224 . S
C239 O258 1.247 . S
O240 C239 1.224 . S
N241 Co231 2.128 . S
N241 C242 1.355 . S
N241 C244 1.311 . S
C242 N241 1.355 . S
C242 C243 1.363 . S
C242 H254 0.929 . S
C243 C242 1.363 . S
C243 N245 1.375 . S
C243 H261 0.931 . S
C244 N241 1.311 . S
C244 N245 1.347 . S
C244 H255 0.929 . S
N245 C243 1.375 . S
N245 C244 1.347 . S
C246 C249 1.365 . S
C246 N251 1.328 . S
C246 H252 0.929 . S
C247 C248 1.362 . S
C247 C250 1.378 . S
C247 H262 0.929 . S
C248 C247 1.362 . S
C248 C249 1.366 . S
C249 C246 1.365 . S
C249 C248 1.366 . S
C249 H263 0.930 . S
C250 C247 1.378 . S
C250 N251 1.315 . S
C250 H253 0.930 . S
N251 Co231 2.194 . S
N251 C246 1.328 . S
N251 C250 1.315 . S
H252 C246 0.929 . S
H253 C250 0.930 . S
H254 C242 0.929 . S
H255 C244 0.929 . S
O256 Co231 2.351 . S
O256 C259 1.244 . S
O257 Co231 2.155 . S
O257 C259 1.240 . S
O258 Co231 2.096 . S
O258 C239 1.247 . S
C259 O256 1.244 . S
C259 O257 1.240 . S
H260 C234 0.931 . S
H261 C243 0.931 . S
H262 C247 0.929 . S
H263 C249 0.930 . S
Co264 N268 2.148 . S
Co264 N274 2.128 . S
Co264 N284 2.194 . S
Co264 O289 2.351 . S
Co264 O290 2.155 . S
Co264 O291 2.096 . S
C265 N268 1.301 . S
C265 N269 1.328 . S
C265 H270 0.930 . S
C266 C267 1.333 . S
C266 N268 1.317 . S
C266 H271 0.930 . S
C267 C266 1.333 . S
C267 N269 1.350 . S
C267 H293 0.931 . S
N268 Co264 2.148 . S
N268 C265 1.301 . S
N268 C266 1.317 . S
N269 C265 1.328 . S
N269 C267 1.350 . S
H270 C265 0.930 . S
H271 C266 0.930 . S
C272 O273 1.224 . S
C272 O291 1.247 . S
O273 C272 1.224 . S
N274 Co264 2.128 . S
N274 C275 1.355 . S
N274 C277 1.311 . S
C275 N274 1.355 . S
C275 C276 1.363 . S
C275 H287 0.929 . S
C276 C275 1.363 . S
C276 N278 1.375 . S
C276 H294 0.931 . S
C277 N274 1.311 . S
C277 N278 1.347 . S
C277 H288 0.929 . S
N278 C276 1.375 . S
N278 C277 1.347 . S
C279 C282 1.365 . S
C279 N284 1.328 . S
C279 H285 0.929 . S
C280 C281 1.382 . S
C280 C283 1.378 . S
C280 H295 0.929 . S
C281 C280 1.382 . S
C281 C282 1.380 . S
C282 C279 1.365 . S
C282 C281 1.380 . S
C282 H296 0.930 . S
C283 C280 1.378 . S
C283 N284 1.315 . S
C283 H286 0.930 . S
N284 Co264 2.194 . S
N284 C279 1.328 . S
N284 C283 1.315 . S
H285 C279 0.929 . S
H286 C283 0.930 . S
H287 C275 0.929 . S
H288 C277 0.929 . S
O289 Co264 2.351 . S
O289 C292 1.244 . S
O290 Co264 2.155 . S
O290 C292 1.240 . S
O291 Co264 2.096 . S
O291 C272 1.247 . S
C292 O289 1.244 . S
C292 O290 1.240 . S
H293 C267 0.931 . S
H294 C276 0.931 . S
H295 C280 0.929 . S
H296 C282 0.930 . S
Co297 N301 2.148 . S
Co297 N307 2.128 . S
Co297 N317 2.194 . S
Co297 O322 2.351 . S
Co297 O323 2.155 . S
Co297 O324 2.096 . S
C298 N301 1.301 . S
C298 N302 1.328 . S
C298 H303 0.930 . S
C299 C300 1.333 . S
C299 N301 1.317 . S
C299 H304 0.930 . S
C300 C299 1.333 . S
C300 N302 1.350 . S
C300 H326 0.931 . S
N301 Co297 2.148 . S
N301 C298 1.301 . S
N301 C299 1.317 . S
N302 C298 1.328 . S
N302 C300 1.350 . S
H303 C298 0.930 . S
H304 C299 0.930 . S
C305 O306 1.224 . S
C305 O324 1.247 . S
O306 C305 1.224 . S
N307 Co297 2.128 . S
N307 C308 1.355 . S
N307 C310 1.311 . S
C308 N307 1.355 . S
C308 C309 1.363 . S
C308 H320 0.929 . S
C309 C308 1.363 . S
C309 N311 1.375 . S
C309 H327 0.931 . S
C310 N307 1.311 . S
C310 N311 1.347 . S
C310 H321 0.929 . S
N311 C309 1.375 . S
N311 C310 1.347 . S
C312 C315 1.365 . S
C312 N317 1.328 . S
C312 H318 0.929 . S
C313 C314 1.382 . S
C313 C316 1.378 . S
C313 H328 0.929 . S
C314 C313 1.382 . S
C314 C315 1.380 . S
C315 C312 1.365 . S
C315 C314 1.380 . S
C315 H329 0.930 . S
C316 C313 1.378 . S
C316 N317 1.315 . S
C316 H319 0.930 . S
N317 Co297 2.194 . S
N317 C312 1.328 . S
N317 C316 1.315 . S
H318 C312 0.929 . S
H319 C316 0.930 . S
H320 C308 0.929 . S
H321 C310 0.929 . S
O322 Co297 2.351 . S
O322 C325 1.244 . S
O323 Co297 2.155 . S
O323 C325 1.240 . S
O324 Co297 2.096 . S
O324 C305 1.247 . S
C325 O322 1.244 . S
C325 O323 1.240 . S
H326 C300 0.931 . S
H327 C309 0.931 . S
H328 C313 0.929 . S
H329 C315 0.930 . S
Co330 N334 2.148 . S
Co330 N340 2.128 . S
Co330 N350 2.194 . S
Co330 O355 2.351 . S
Co330 O356 2.155 . S
Co330 O357 2.096 . S
C331 N334 1.301 . S
C331 N335 1.328 . S
C331 H336 0.930 . S
C332 C333 1.333 . S
C332 N334 1.317 . S
C332 H337 0.930 . S
C333 C332 1.333 . S
C333 N335 1.350 . S
C333 H359 0.931 . S
N334 Co330 2.148 . S
N334 C331 1.301 . S
N334 C332 1.317 . S
N335 C331 1.328 . S
N335 C333 1.350 . S
H336 C331 0.930 . S
H337 C332 0.930 . S
C338 O339 1.224 . S
C338 O357 1.247 . S
O339 C338 1.224 . S
N340 Co330 2.128 . S
N340 C341 1.355 . S
N340 C343 1.311 . S
C341 N340 1.355 . S
C341 C342 1.363 . S
C341 H353 0.929 . S
C342 C341 1.363 . S
C342 N344 1.375 . S
C342 H360 0.931 . S
C343 N340 1.311 . S
C343 N344 1.347 . S
C343 H354 0.929 . S
N344 C342 1.375 . S
N344 C343 1.347 . S
C345 C348 1.365 . S
C345 N350 1.328 . S
C345 H351 0.929 . S
C346 C347 1.382 . S
C346 C349 1.378 . S
C346 H361 0.929 . S
C347 C346 1.382 . S
C347 C348 1.380 . S
C348 C345 1.365 . S
C348 C347 1.380 . S
C348 H362 0.930 . S
C349 C346 1.378 . S
C349 N350 1.315 . S
C349 H352 0.930 . S
N350 Co330 2.194 . S
N350 C345 1.328 . S
N350 C349 1.315 . S
H351 C345 0.929 . S
H352 C349 0.930 . S
H353 C341 0.929 . S
H354 C343 0.929 . S
O355 Co330 2.351 . S
O355 C358 1.244 . S
O356 Co330 2.155 . S
O356 C358 1.240 . S
O357 Co330 2.096 . S
O357 C338 1.247 . S
C358 O355 1.244 . S
C358 O356 1.240 . S
H359 C333 0.931 . S
H360 C342 0.931 . S
H361 C346 0.929 . S
H362 C348 0.930 . S
Co363 N367 2.148 . S
Co363 N373 2.128 . S
Co363 N383 2.194 . S
Co363 O388 2.351 . S
Co363 O389 2.155 . S
Co363 O390 2.096 . S
C364 N367 1.301 . S
C364 N368 1.328 . S
C364 H369 0.930 . S
C365 C366 1.333 . S
C365 N367 1.317 . S
C365 H370 0.930 . S
C366 C365 1.333 . S
C366 N368 1.350 . S
C366 H392 0.931 . S
N367 Co363 2.148 . S
N367 C364 1.301 . S
N367 C365 1.317 . S
N368 C364 1.328 . S
N368 C366 1.350 . S
H369 C364 0.930 . S
H370 C365 0.930 . S
C371 O372 1.224 . S
C371 O390 1.247 . S
O372 C371 1.224 . S
N373 Co363 2.128 . S
N373 C374 1.355 . S
N373 C376 1.311 . S
C374 N373 1.355 . S
C374 C375 1.363 . S
C374 H386 0.929 . S
C375 C374 1.363 . S
C375 N377 1.375 . S
C375 H393 0.931 . S
C376 N373 1.311 . S
C376 N377 1.347 . S
C376 H387 0.929 . S
N377 C375 1.375 . S
N377 C376 1.347 . S
C378 C381 1.365 . S
C378 N383 1.328 . S
C378 H384 0.929 . S
C379 C380 1.382 . S
C379 C382 1.378 . S
C379 H394 0.929 . S
C380 C379 1.382 . S
C380 C381 1.380 . S
C381 C378 1.365 . S
C381 C380 1.380 . S
C381 H395 0.930 . S
C382 C379 1.378 . S
C382 N383 1.315 . S
C382 H385 0.930 . S
N383 Co363 2.194 . S
N383 C378 1.328 . S
N383 C382 1.315 . S
H384 C378 0.929 . S
H385 C382 0.930 . S
H386 C374 0.929 . S
H387 C376 0.929 . S
O388 Co363 2.351 . S
O388 C391 1.244 . S
O389 Co363 2.155 . S
O389 C391 1.240 . S
O390 Co363 2.096 . S
O390 C371 1.247 . S
C391 O388 1.244 . S
C391 O389 1.240 . S
H392 C366 0.931 . S
H393 C375 0.931 . S
H394 C379 0.929 . S
H395 C381 0.930 . S
Co396 N400 2.148 . S
Co396 N406 2.128 . S
Co396 N416 2.194 . S
Co396 O421 2.351 . S
Co396 O422 2.155 . S
Co396 O423 2.096 . S
C397 N400 1.301 . S
C397 N401 1.328 . S
C397 H402 0.930 . S
C398 C399 1.333 . S
C398 N400 1.317 . S
C398 H403 0.930 . S
C399 C398 1.333 . S
C399 N401 1.350 . S
C399 H425 0.931 . S
N400 Co396 2.148 . S
N400 C397 1.301 . S
N400 C398 1.317 . S
N401 C397 1.328 . S
N401 C399 1.350 . S
H402 C397 0.930 . S
H403 C398 0.930 . S
C404 O405 1.224 . S
C404 O423 1.247 . S
O405 C404 1.224 . S
N406 Co396 2.128 . S
N406 C407 1.355 . S
N406 C409 1.311 . S
C407 N406 1.355 . S
C407 C408 1.363 . S
C407 H419 0.929 . S
C408 C407 1.363 . S
C408 N410 1.375 . S
C408 H426 0.931 . S
C409 N406 1.311 . S
C409 N410 1.347 . S
C409 H420 0.929 . S
N410 C408 1.375 . S
N410 C409 1.347 . S
C411 C414 1.365 . S
C411 N416 1.328 . S
C411 H417 0.929 . S
C412 C413 1.362 . S
C412 C415 1.378 . S
C412 H427 0.929 . S
C413 C412 1.362 . S
C413 C414 1.366 . S
C414 C411 1.365 . S
C414 C413 1.366 . S
C414 H428 0.930 . S
C415 C412 1.378 . S
C415 N416 1.315 . S
C415 H418 0.930 . S
N416 Co396 2.194 . S
N416 C411 1.328 . S
N416 C415 1.315 . S
H417 C411 0.929 . S
H418 C415 0.930 . S
H419 C407 0.929 . S
H420 C409 0.929 . S
O421 Co396 2.351 . S
O421 C424 1.244 . S
O422 Co396 2.155 . S
O422 C424 1.240 . S
O423 Co396 2.096 . S
O423 C404 1.247 . S
C424 O421 1.244 . S
C424 O422 1.240 . S
H425 C399 0.931 . S
H426 C408 0.931 . S
H427 C412 0.929 . S
H428 C414 0.930 . S
Co429 N433 2.148 . S
Co429 N439 2.128 . S
Co429 N449 2.194 . S
Co429 O454 2.351 . S
Co429 O455 2.155 . S
Co429 O456 2.096 . S
C430 N433 1.301 . S
C430 N434 1.328 . S
C430 H435 0.930 . S
C431 C432 1.333 . S
C431 N433 1.317 . S
C431 H436 0.930 . S
C432 C431 1.333 . S
C432 N434 1.350 . S
C432 H458 0.931 . S
N433 Co429 2.148 . S
N433 C430 1.301 . S
N433 C431 1.317 . S
N434 C430 1.328 . S
N434 C432 1.350 . S
H435 C430 0.930 . S
H436 C431 0.930 . S
C437 O438 1.224 . S
C437 O456 1.247 . S
O438 C437 1.224 . S
N439 Co429 2.128 . S
N439 C440 1.355 . S
N439 C442 1.311 . S
C440 N439 1.355 . S
C440 C441 1.363 . S
C440 H452 0.929 . S
C441 C440 1.363 . S
C441 N443 1.375 . S
C441 H459 0.931 . S
C442 N439 1.311 . S
C442 N443 1.347 . S
C442 H453 0.929 . S
N443 C441 1.375 . S
N443 C442 1.347 . S
C444 C447 1.365 . S
C444 N449 1.328 . S
C444 H450 0.929 . S
C445 C446 1.362 . S
C445 C448 1.378 . S
C445 H460 0.929 . S
C446 C445 1.362 . S
C446 C447 1.366 . S
C447 C444 1.365 . S
C447 C446 1.366 . S
C447 H461 0.930 . S
C448 C445 1.378 . S
C448 N449 1.315 . S
C448 H451 0.930 . S
N449 Co429 2.194 . S
N449 C444 1.328 . S
N449 C448 1.315 . S
H450 C444 0.929 . S
H451 C448 0.930 . S
H452 C440 0.929 . S
H453 C442 0.929 . S
O454 Co429 2.351 . S
O454 C457 1.244 . S
O455 Co429 2.155 . S
O455 C457 1.240 . S
O456 Co429 2.096 . S
O456 C437 1.247 . S
C457 O454 1.244 . S
C457 O455 1.240 . S
H458 C432 0.931 . S
H459 C441 0.931 . S
H460 C445 0.929 . S
H461 C447 0.930 . S
Co462 N466 2.148 . S
Co462 N472 2.128 . S
Co462 N482 2.194 . S
Co462 O487 2.351 . S
Co462 O488 2.155 . S
Co462 O489 2.096 . S
C463 N466 1.301 . S
C463 N467 1.328 . S
C463 H468 0.930 . S
C464 C465 1.333 . S
C464 N466 1.317 . S
C464 H469 0.930 . S
C465 C464 1.333 . S
C465 N467 1.350 . S
C465 H491 0.931 . S
N466 Co462 2.148 . S
N466 C463 1.301 . S
N466 C464 1.317 . S
N467 C463 1.328 . S
N467 C465 1.350 . S
H468 C463 0.930 . S
H469 C464 0.930 . S
C470 O471 1.224 . S
C470 O489 1.247 . S
O471 C470 1.224 . S
N472 Co462 2.128 . S
N472 C473 1.355 . S
N472 C475 1.311 . S
C473 N472 1.355 . S
C473 C474 1.363 . S
C473 H485 0.929 . S
C474 C473 1.363 . S
C474 N476 1.375 . S
C474 H492 0.931 . S
C475 N472 1.311 . S
C475 N476 1.347 . S
C475 H486 0.929 . S
N476 C474 1.375 . S
N476 C475 1.347 . S
C477 C480 1.365 . S
C477 N482 1.328 . S
C477 H483 0.929 . S
C478 C479 1.362 . S
C478 C481 1.378 . S
C478 H493 0.929 . S
C479 C478 1.362 . S
C479 C480 1.366 . S
C480 C477 1.365 . S
C480 C479 1.366 . S
C480 H494 0.930 . S
C481 C478 1.378 . S
C481 N482 1.315 . S
C481 H484 0.930 . S
N482 Co462 2.194 . S
N482 C477 1.328 . S
N482 C481 1.315 . S
H483 C477 0.929 . S
H484 C481 0.930 . S
H485 C473 0.929 . S
H486 C475 0.929 . S
O487 Co462 2.351 . S
O487 C490 1.244 . S
O488 Co462 2.155 . S
O488 C490 1.240 . S
O489 Co462 2.096 . S
O489 C470 1.247 . S
C490 O487 1.244 . S
C490 O488 1.240 . S
H491 C465 0.931 . S
H492 C474 0.931 . S
H493 C478 0.929 . S
H494 C480 0.930 . S
Co495 N499 2.148 . S
Co495 N505 2.128 . S
Co495 N515 2.194 . S
Co495 O520 2.351 . S
Co495 O521 2.155 . S
Co495 O522 2.096 . S
C496 N499 1.301 . S
C496 N500 1.328 . S
C496 H501 0.930 . S
C497 C498 1.333 . S
C497 N499 1.317 . S
C497 H502 0.930 . S
C498 C497 1.333 . S
C498 N500 1.350 . S
C498 H524 0.931 . S
N499 Co495 2.148 . S
N499 C496 1.301 . S
N499 C497 1.317 . S
N500 C496 1.328 . S
N500 C498 1.350 . S
H501 C496 0.930 . S
H502 C497 0.930 . S
C503 O504 1.224 . S
C503 O522 1.247 . S
O504 C503 1.224 . S
N505 Co495 2.128 . S
N505 C506 1.355 . S
N505 C508 1.311 . S
C506 N505 1.355 . S
C506 C507 1.363 . S
C506 H518 0.929 . S
C507 C506 1.363 . S
C507 N509 1.375 . S
C507 H525 0.931 . S
C508 N505 1.311 . S
C508 N509 1.347 . S
C508 H519 0.929 . S
N509 C507 1.375 . S
N509 C508 1.347 . S
C510 C513 1.365 . S
C510 N515 1.328 . S
C510 H516 0.929 . S
C511 C512 1.362 . S
C511 C514 1.378 . S
C511 H526 0.929 . S
C512 C511 1.362 . S
C512 C513 1.366 . S
C513 C510 1.365 . S
C513 C512 1.366 . S
C513 H527 0.930 . S
C514 C511 1.378 . S
C514 N515 1.315 . S
C514 H517 0.930 . S
N515 Co495 2.194 . S
N515 C510 1.328 . S
N515 C514 1.315 . S
H516 C510 0.929 . S
H517 C514 0.930 . S
H518 C506 0.929 . S
H519 C508 0.929 . S
O520 Co495 2.351 . S
O520 C523 1.244 . S
O521 Co495 2.155 . S
O521 C523 1.240 . S
O522 Co495 2.096 . S
O522 C503 1.247 . S
C523 O520 1.244 . S
C523 O521 1.240 . S
H524 C498 0.931 . S
H525 C507 0.931 . S
H526 C511 0.929 . S
H527 C513 0.930 . S
H528 C536 0.929 . S
H529 C538 0.930 . S
H530 C540 0.930 . S
H531 C543 0.929 . S
H532 C546 0.930 . S
H533 C548 0.960 . S
H534 C548 0.960 . S
H535 C548 0.960 . S
C536 H528 0.929 . S
C536 C537 1.377 . S
C536 C538 1.384 . S
C537 C536 1.377 . S
C537 C543 1.390 . S
C538 H529 0.930 . S
C538 C536 1.384 . S
C538 C539 1.372 . S
C539 C538 1.372 . S
C539 C540 1.400 . S
C539 C544 1.490 . S
C540 H530 0.930 . S
C540 C539 1.400 . S
C540 C543 1.386 . S
H541 C557 0.930 . S
H542 C558 0.931 . S
C543 H531 0.929 . S
C543 C537 1.390 . S
C543 C540 1.386 . S
C544 C539 1.490 . S
C544 C546 1.395 . S
C544 C547 1.403 . S
H545 C551 0.930 . S
C546 H532 0.930 . S
C546 C544 1.395 . S
C546 C549 1.403 1_556 S
C547 C544 1.403 . S
C547 C548 1.524 . S
C547 C551 1.400 1_556 S
C548 H533 0.960 . S
C548 H534 0.960 . S
C548 H535 0.960 . S
C548 C547 1.524 . S
C549 C546 1.403 1_554 S
C549 C550 1.392 . S
C549 C553 1.495 . S
C550 C549 1.392 . S
C550 C551 1.385 . S
C550 C552 1.478 . S
C551 H545 0.930 . S
C551 C547 1.400 1_554 S
C551 C550 1.385 . S
C552 C550 1.478 . S
C552 C554 1.381 . S
C552 C558 1.383 . S
C553 C549 1.495 . S
C553 H559 0.959 . S
C553 H560 0.961 . S
C553 H561 0.960 . S
C554 C552 1.381 . S
C554 C555 1.394 . S
C554 H562 0.930 . S
C555 C554 1.394 . S
C555 C556 1.383 . S
C555 H563 0.929 . S
C556 C555 1.383 . S
C556 C557 1.377 . S
C557 H541 0.930 . S
C557 C556 1.377 . S
C557 C558 1.379 . S
C558 H542 0.931 . S
C558 C552 1.383 . S
C558 C557 1.379 . S
H559 C553 0.959 . S
H560 C553 0.961 . S
H561 C553 0.960 . S
H562 C554 0.930 . S
H563 C555 0.929 . S
H564 C572 0.929 . S
H565 C574 0.930 . S
H566 C576 0.930 . S
H567 C579 0.929 . S
H568 C582 0.930 . S
H569 C584 0.960 . S
H570 C584 0.960 . S
H571 C584 0.960 . S
C572 H564 0.929 . S
C572 C573 1.377 . S
C572 C574 1.384 . S
C573 C572 1.377 . S
C573 C579 1.390 . S
C574 H565 0.930 . S
C574 C572 1.384 . S
C574 C575 1.372 . S
C575 C574 1.372 . S
C575 C576 1.400 . S
C575 C580 1.490 . S
C576 H566 0.930 . S
C576 C575 1.400 . S
C576 C579 1.386 . S
H577 C593 0.930 . S
H578 C594 0.931 . S
C579 H567 0.929 . S
C579 C573 1.390 . S
C579 C576 1.386 . S
C580 C575 1.490 . S
C580 C582 1.395 . S
C580 C583 1.403 . S
H581 C587 0.930 . S
C582 H568 0.930 . S
C582 C580 1.395 . S
C582 C585 1.403 1_556 S
C583 C580 1.403 . S
C583 C584 1.524 . S
C583 C587 1.400 1_556 S
C584 H569 0.960 . S
C584 H570 0.960 . S
C584 H571 0.960 . S
C584 C583 1.524 . S
C585 C582 1.403 1_554 S
C585 C586 1.392 . S
C585 C589 1.495 . S
C586 C585 1.392 . S
C586 C587 1.385 . S
C586 C588 1.478 . S
C587 H581 0.930 . S
C587 C583 1.400 1_554 S
C587 C586 1.385 . S
C588 C586 1.478 . S
C588 C590 1.381 . S
C588 C594 1.383 . S
C589 C585 1.495 . S
C589 H595 0.959 . S
C589 H596 0.961 . S
C589 H597 0.960 . S
C590 C588 1.381 . S
C590 C591 1.394 . S
C590 H598 0.930 . S
C591 C590 1.394 . S
C591 C592 1.383 . S
C591 H599 0.929 . S
C592 C591 1.383 . S
C592 C593 1.377 . S
C593 H577 0.930 . S
C593 C592 1.377 . S
C593 C594 1.379 . S
C594 H578 0.931 . S
C594 C588 1.383 . S
C594 C593 1.379 . S
H595 C589 0.959 . S
H596 C589 0.961 . S
H597 C589 0.960 . S
H598 C590 0.930 . S
H599 C591 0.929 . S
H600 C608 0.929 . S
H601 C610 0.930 . S
H602 C612 0.930 . S
H603 C615 0.929 . S
H604 C618 0.930 . S
H605 C620 0.960 . S
H606 C620 0.960 . S
H607 C620 0.960 . S
C608 H600 0.929 . S
C608 C609 1.377 . S
C608 C610 1.384 . S
C609 C608 1.377 . S
C609 C615 1.390 . S
C610 H601 0.930 . S
C610 C608 1.384 . S
C610 C611 1.372 . S
C611 C610 1.372 . S
C611 C612 1.400 . S
C611 C616 1.490 . S
C612 H602 0.930 . S
C612 C611 1.400 . S
C612 C615 1.386 . S
H613 C629 0.930 . S
H614 C630 0.931 . S
C615 H603 0.929 . S
C615 C609 1.390 . S
C615 C612 1.386 . S
C616 C611 1.490 . S
C616 C618 1.395 . S
C616 C619 1.403 . S
H617 C623 0.930 . S
C618 H604 0.930 . S
C618 C616 1.395 . S
C618 C621 1.403 1_556 S
C619 C616 1.403 . S
C619 C620 1.524 . S
C619 C623 1.400 1_556 S
C620 H605 0.960 . S
C620 H606 0.960 . S
C620 H607 0.960 . S
C620 C619 1.524 . S
C621 C618 1.403 1_554 S
C621 C622 1.392 . S
C621 C625 1.495 . S
C622 C621 1.392 . S
C622 C623 1.385 . S
C622 C624 1.478 . S
C623 H617 0.930 . S
C623 C619 1.400 1_554 S
C623 C622 1.385 . S
C624 C622 1.478 . S
C624 C626 1.381 . S
C624 C630 1.383 . S
C625 C621 1.495 . S
C625 H631 0.959 . S
C625 H632 0.961 . S
C625 H633 0.960 . S
C626 C624 1.381 . S
C626 C627 1.394 . S
C626 H634 0.930 . S
C627 C626 1.394 . S
C627 C628 1.383 . S
C627 H635 0.929 . S
C628 C627 1.383 . S
C628 C629 1.377 . S
C629 H613 0.930 . S
C629 C628 1.377 . S
C629 C630 1.379 . S
C630 H614 0.931 . S
C630 C624 1.383 . S
C630 C629 1.379 . S
H631 C625 0.959 . S
H632 C625 0.961 . S
H633 C625 0.960 . S
H634 C626 0.930 . S
H635 C627 0.929 . S
H636 C644 0.929 . S
H637 C646 0.930 . S
H638 C648 0.930 . S
H639 C651 0.929 . S
H640 C654 0.930 . S
H641 C656 0.960 . S
H642 C656 0.960 . S
H643 C656 0.960 . S
C644 H636 0.929 . S
C644 C645 1.377 . S
C644 C646 1.384 . S
C645 C644 1.377 . S
C645 C651 1.390 . S
C646 H637 0.930 . S
C646 C644 1.384 . S
C646 C647 1.372 . S
C647 C646 1.372 . S
C647 C648 1.400 . S
C647 C652 1.490 . S
C648 H638 0.930 . S
C648 C647 1.400 . S
C648 C651 1.386 . S
H649 C665 0.930 . S
H650 C666 0.931 . S
C651 H639 0.929 . S
C651 C645 1.390 . S
C651 C648 1.386 . S
C652 C647 1.490 . S
C652 C654 1.395 . S
C652 C655 1.403 . S
H653 C659 0.930 . S
C654 H640 0.930 . S
C654 C652 1.395 . S
C654 C657 1.403 1_556 S
C655 C652 1.403 . S
C655 C656 1.524 . S
C655 C659 1.400 1_556 S
C656 H641 0.960 . S
C656 H642 0.960 . S
C656 H643 0.960 . S
C656 C655 1.524 . S
C657 C654 1.403 1_554 S
C657 C658 1.392 . S
C657 C661 1.495 . S
C658 C657 1.392 . S
C658 C659 1.385 . S
C658 C660 1.478 . S
C659 H653 0.930 . S
C659 C655 1.400 1_554 S
C659 C658 1.385 . S
C660 C658 1.478 . S
C660 C662 1.381 . S
C660 C666 1.383 . S
C661 C657 1.495 . S
C661 H667 0.959 . S
C661 H668 0.961 . S
C661 H669 0.960 . S
C662 C660 1.381 . S
C662 C663 1.394 . S
C662 H670 0.930 . S
C663 C662 1.394 . S
C663 C664 1.383 . S
C663 H671 0.929 . S
C664 C663 1.383 . S
C664 C665 1.377 . S
C665 H649 0.930 . S
C665 C664 1.377 . S
C665 C666 1.379 . S
C666 H650 0.931 . S
C666 C660 1.383 . S
C666 C665 1.379 . S
H667 C661 0.959 . S
H668 C661 0.961 . S
H669 C661 0.960 . S
H670 C662 0.930 . S
H671 C663 0.929 . S
H672 C680 0.929 . S
H673 C682 0.930 . S
H674 C684 0.930 . S
H675 C687 0.929 . S
H676 C690 0.930 . S
H677 C692 0.960 . S
H678 C692 0.960 . S
H679 C692 0.960 . S
C680 H672 0.929 . S
C680 C681 1.377 . S
C680 C682 1.384 . S
C681 C680 1.377 . S
C681 C687 1.390 . S
C682 H673 0.930 . S
C682 C680 1.384 . S
C682 C683 1.372 . S
C683 C682 1.372 . S
C683 C684 1.400 . S
C683 C688 1.490 . S
C684 H674 0.930 . S
C684 C683 1.400 . S
C684 C687 1.386 . S
H685 C701 0.930 . S
H686 C702 0.931 . S
C687 H675 0.929 . S
C687 C681 1.390 . S
C687 C684 1.386 . S
C688 C683 1.490 . S
C688 C690 1.395 . S
C688 C691 1.403 . S
H689 C695 0.930 . S
C690 H676 0.930 . S
C690 C688 1.395 . S
C690 C693 1.403 . S
C691 C688 1.403 . S
C691 C692 1.524 . S
C691 C695 1.400 . S
C692 H677 0.960 . S
C692 H678 0.960 . S
C692 H679 0.960 . S
C692 C691 1.524 . S
C693 C690 1.403 . S
C693 C694 1.392 . S
C693 C697 1.495 . S
C694 C693 1.392 . S
C694 C695 1.385 . S
C694 C696 1.478 . S
C695 H689 0.930 . S
C695 C691 1.400 . S
C695 C694 1.385 . S
C696 C694 1.478 . S
C696 C698 1.381 . S
C696 C702 1.383 . S
C697 C693 1.495 . S
C697 H703 0.959 . S
C697 H704 0.961 . S
C697 H705 0.960 . S
C698 C696 1.381 . S
C698 C699 1.394 . S
C698 H706 0.930 . S
C699 C698 1.394 . S
C699 C700 1.383 . S
C699 H707 0.929 . S
C700 C699 1.383 . S
C700 C701 1.377 . S
C701 H685 0.930 . S
C701 C700 1.377 . S
C701 C702 1.379 . S
C702 H686 0.931 . S
C702 C696 1.383 . S
C702 C701 1.379 . S
H703 C697 0.959 . S
H704 C697 0.961 . S
H705 C697 0.960 . S
H706 C698 0.930 . S
H707 C699 0.929 . S
H708 C716 0.929 . S
H709 C718 0.930 . S
H710 C720 0.930 . S
H711 C723 0.929 . S
H712 C726 0.930 . S
H713 C728 0.960 . S
H714 C728 0.960 . S
H715 C728 0.960 . S
C716 H708 0.929 . S
C716 C717 1.377 . S
C716 C718 1.384 . S
C717 C716 1.377 . S
C717 C723 1.390 . S
C718 H709 0.930 . S
C718 C716 1.384 . S
C718 C719 1.372 . S
C719 C718 1.372 . S
C719 C720 1.400 . S
C719 C724 1.490 . S
C720 H710 0.930 . S
C720 C719 1.400 . S
C720 C723 1.386 . S
H721 C737 0.930 . S
H722 C738 0.931 . S
C723 H711 0.929 . S
C723 C717 1.390 . S
C723 C720 1.386 . S
C724 C719 1.490 . S
C724 C726 1.395 . S
C724 C727 1.403 . S
H725 C731 0.930 . S
C726 H712 0.930 . S
C726 C724 1.395 . S
C726 C729 1.403 . S
C727 C724 1.403 . S
C727 C728 1.524 . S
C727 C731 1.400 . S
C728 H713 0.960 . S
C728 H714 0.960 . S
C728 H715 0.960 . S
C728 C727 1.524 . S
C729 C726 1.403 . S
C729 C730 1.392 . S
C729 C733 1.495 . S
C730 C729 1.392 . S
C730 C731 1.385 . S
C730 C732 1.478 . S
C731 H725 0.930 . S
C731 C727 1.400 . S
C731 C730 1.385 . S
C732 C730 1.478 . S
C732 C734 1.381 . S
C732 C738 1.383 . S
C733 C729 1.495 . S
C733 H739 0.959 . S
C733 H740 0.961 . S
C733 H741 0.960 . S
C734 C732 1.381 . S
C734 C735 1.394 . S
C734 H742 0.930 . S
C735 C734 1.394 . S
C735 C736 1.383 . S
C735 H743 0.929 . S
C736 C735 1.383 . S
C736 C737 1.377 . S
C737 H721 0.930 . S
C737 C736 1.377 . S
C737 C738 1.379 . S
C738 H722 0.931 . S
C738 C732 1.383 . S
C738 C737 1.379 . S
H739 C733 0.959 . S
H740 C733 0.961 . S
H741 C733 0.960 . S
H742 C734 0.930 . S
H743 C735 0.929 . S
H744 C752 0.929 . S
H745 C754 0.930 . S
H746 C756 0.930 . S
H747 C759 0.929 . S
H748 C762 0.930 . S
H749 C764 0.960 . S
H750 C764 0.960 . S
H751 C764 0.960 . S
C752 H744 0.929 . S
C752 C753 1.377 . S
C752 C754 1.384 . S
C753 C752 1.377 . S
C753 C759 1.390 . S
C754 H745 0.930 . S
C754 C752 1.384 . S
C754 C755 1.372 . S
C755 C754 1.372 . S
C755 C756 1.400 . S
C755 C760 1.490 . S
C756 H746 0.930 . S
C756 C755 1.400 . S
C756 C759 1.386 . S
H757 C773 0.930 . S
H758 C774 0.931 . S
C759 H747 0.929 . S
C759 C753 1.390 . S
C759 C756 1.386 . S
C760 C755 1.490 . S
C760 C762 1.395 . S
C760 C763 1.403 . S
H761 C767 0.930 . S
C762 H748 0.930 . S
C762 C760 1.395 . S
C762 C765 1.403 . S
C763 C760 1.403 . S
C763 C764 1.524 . S
C763 C767 1.400 . S
C764 H749 0.960 . S
C764 H750 0.960 . S
C764 H751 0.960 . S
C764 C763 1.524 . S
C765 C762 1.403 . S
C765 C766 1.392 . S
C765 C769 1.495 . S
C766 C765 1.392 . S
C766 C767 1.385 . S
C766 C768 1.478 . S
C767 H761 0.930 . S
C767 C763 1.400 . S
C767 C766 1.385 . S
C768 C766 1.478 . S
C768 C770 1.381 . S
C768 C774 1.383 . S
C769 C765 1.495 . S
C769 H775 0.959 . S
C769 H776 0.961 . S
C769 H777 0.960 . S
C770 C768 1.381 . S
C770 C771 1.394 . S
C770 H778 0.930 . S
C771 C770 1.394 . S
C771 C772 1.383 . S
C771 H779 0.929 . S
C772 C771 1.383 . S
C772 C773 1.377 . S
C773 H757 0.930 . S
C773 C772 1.377 . S
C773 C774 1.379 . S
C774 H758 0.931 . S
C774 C768 1.383 . S
C774 C773 1.379 . S
H775 C769 0.959 . S
H776 C769 0.961 . S
H777 C769 0.960 . S
H778 C770 0.930 . S
H779 C771 0.929 . S
H780 C788 0.929 . S
H781 C790 0.930 . S
H782 C792 0.930 . S
H783 C795 0.929 . S
H784 C798 0.930 . S
H785 C800 0.960 . S
H786 C800 0.960 . S
H787 C800 0.960 . S
C788 H780 0.929 . S
C788 C789 1.377 . S
C788 C790 1.384 . S
C789 C788 1.377 . S
C789 C795 1.390 . S
C790 H781 0.930 . S
C790 C788 1.384 . S
C790 C791 1.372 . S
C791 C790 1.372 . S
C791 C792 1.400 . S
C791 C796 1.490 . S
C792 H782 0.930 . S
C792 C791 1.400 . S
C792 C795 1.386 . S
H793 C809 0.930 . S
H794 C810 0.931 . S
C795 H783 0.929 . S
C795 C789 1.390 . S
C795 C792 1.386 . S
C796 C791 1.490 . S
C796 C798 1.395 . S
C796 C799 1.403 . S
H797 C803 0.930 . S
C798 H784 0.930 . S
C798 C796 1.395 . S
C798 C801 1.403 . S
C799 C796 1.403 . S
C799 C800 1.524 . S
C799 C803 1.400 . S
C800 H785 0.960 . S
C800 H786 0.960 . S
C800 H787 0.960 . S
C800 C799 1.524 . S
C801 C798 1.403 . S
C801 C802 1.392 . S
C801 C805 1.495 . S
C802 C801 1.392 . S
C802 C803 1.385 . S
C802 C804 1.478 . S
C803 H797 0.930 . S
C803 C799 1.400 . S
C803 C802 1.385 . S
C804 C802 1.478 . S
C804 C806 1.381 . S
C804 C810 1.383 . S
C805 C801 1.495 . S
C805 H811 0.959 . S
C805 H812 0.961 . S
C805 H813 0.960 . S
C806 C804 1.381 . S
C806 C807 1.394 . S
C806 H814 0.930 . S
C807 C806 1.394 . S
C807 C808 1.383 . S
C807 H815 0.929 . S
C808 C807 1.383 . S
C808 C809 1.377 . S
C809 H793 0.930 . S
C809 C808 1.377 . S
C809 C810 1.379 . S
C810 H794 0.931 . S
C810 C804 1.383 . S
C810 C809 1.379 . S
H811 C805 0.959 . S
H812 C805 0.961 . S
H813 C805 0.960 . S
H814 C806 0.930 . S
H815 C807 0.929 . S
H816 C824 0.929 . S
H817 C826 0.930 . S
H818 C828 0.930 . S
H819 C831 0.929 . S
H820 C834 0.930 . S
H821 C836 0.960 . S
H822 C836 0.960 . S
H823 C836 0.960 . S
C824 H816 0.929 . S
C824 C825 1.377 . S
C824 C826 1.384 . S
C825 C824 1.377 . S
C825 C831 1.390 . S
C826 H817 0.930 . S
C826 C824 1.384 . S
C826 C827 1.372 . S
C827 C826 1.372 . S
C827 C828 1.400 . S
C827 C832 1.490 . S
C828 H818 0.930 . S
C828 C827 1.400 . S
C828 C831 1.386 . S
H829 C845 0.930 . S
H830 C846 0.931 . S
C831 H819 0.929 . S
C831 C825 1.390 . S
C831 C828 1.386 . S
C832 C827 1.490 . S
C832 C834 1.395 . S
C832 C835 1.403 . S
H833 C839 0.930 . S
C834 H820 0.930 . S
C834 C832 1.395 . S
C834 C837 1.403 . S
C835 C832 1.403 . S
C835 C836 1.524 . S
C835 C839 1.400 . S
C836 H821 0.960 . S
C836 H822 0.960 . S
C836 H823 0.960 . S
C836 C835 1.524 . S
C837 C834 1.403 . S
C837 C838 1.392 . S
C837 C841 1.495 . S
C838 C837 1.392 . S
C838 C839 1.385 . S
C838 C840 1.478 . S
C839 H833 0.930 . S
C839 C835 1.400 . S
C839 C838 1.385 . S
C840 C838 1.478 . S
C840 C842 1.381 . S
C840 C846 1.383 . S
C841 C837 1.495 . S
C841 H847 0.959 . S
C841 H848 0.961 . S
C841 H849 0.960 . S
C842 C840 1.381 . S
C842 C843 1.394 . S
C842 H850 0.930 . S
C843 C842 1.394 . S
C843 C844 1.383 . S
C843 H851 0.929 . S
C844 C843 1.383 . S
C844 C845 1.377 . S
C845 H829 0.930 . S
C845 C844 1.377 . S
C845 C846 1.379 . S
C846 H830 0.931 . S
C846 C840 1.383 . S
C846 C845 1.379 . S
H847 C841 0.959 . S
H848 C841 0.961 . S
H849 C841 0.960 . S
H850 C842 0.930 . S
H851 C843 0.929 . S
H852 C860 0.929 . S
H853 C862 0.930 . S
H854 C864 0.930 . S
H855 C867 0.929 . S
H856 C870 0.930 . S
H857 C872 0.960 . S
H858 C872 0.960 . S
H859 C872 0.960 . S
C860 H852 0.929 . S
C860 C861 1.377 . S
C860 C862 1.384 . S
C861 C860 1.377 . S
C861 C867 1.390 . S
C862 H853 0.930 . S
C862 C860 1.384 . S
C862 C863 1.372 . S
C863 C862 1.372 . S
C863 C864 1.400 . S
C863 C868 1.490 . S
C864 H854 0.930 . S
C864 C863 1.400 . S
C864 C867 1.386 . S
H865 C881 0.930 . S
H866 C882 0.931 . S
C867 H855 0.929 . S
C867 C861 1.390 . S
C867 C864 1.386 . S
C868 C863 1.490 . S
C868 C870 1.395 . S
C868 C871 1.403 . S
H869 C875 0.930 . S
C870 H856 0.930 . S
C870 C868 1.395 . S
C870 C873 1.403 . S
C871 C868 1.403 . S
C871 C872 1.524 . S
C871 C875 1.400 . S
C872 H857 0.960 . S
C872 H858 0.960 . S
C872 H859 0.960 . S
C872 C871 1.524 . S
C873 C870 1.403 . S
C873 C874 1.392 . S
C873 C877 1.495 . S
C874 C873 1.392 . S
C874 C875 1.385 . S
C874 C876 1.478 . S
C875 H869 0.930 . S
C875 C871 1.400 . S
C875 C874 1.385 . S
C876 C874 1.478 . S
C876 C878 1.381 . S
C876 C882 1.383 . S
C877 C873 1.495 . S
C877 H883 0.959 . S
C877 H884 0.961 . S
C877 H885 0.960 . S
C878 C876 1.381 . S
C878 C879 1.394 . S
C878 H886 0.930 . S
C879 C878 1.394 . S
C879 C880 1.383 . S
C879 H887 0.929 . S
C880 C879 1.383 . S
C880 C881 1.377 . S
C881 H865 0.930 . S
C881 C880 1.377 . S
C881 C882 1.379 . S
C882 H866 0.931 . S
C882 C876 1.383 . S
C882 C881 1.379 . S
H883 C877 0.959 . S
H884 C877 0.961 . S
H885 C877 0.960 . S
H886 C878 0.930 . S
H887 C879 0.929 . S
H888 C896 0.929 . S
H889 C898 0.930 . S
H890 C900 0.930 . S
H891 C903 0.929 . S
H892 C906 0.930 . S
H893 C908 0.960 . S
H894 C908 0.960 . S
H895 C908 0.960 . S
C896 H888 0.929 . S
C896 C897 1.377 . S
C896 C898 1.384 . S
C897 C896 1.377 . S
C897 C903 1.390 . S
C898 H889 0.930 . S
C898 C896 1.384 . S
C898 C899 1.372 . S
C899 C898 1.372 . S
C899 C900 1.400 . S
C899 C904 1.490 . S
C900 H890 0.930 . S
C900 C899 1.400 . S
C900 C903 1.386 . S
H901 C917 0.930 . S
H902 C918 0.931 . S
C903 H891 0.929 . S
C903 C897 1.390 . S
C903 C900 1.386 . S
C904 C899 1.490 . S
C904 C906 1.395 . S
C904 C907 1.403 . S
H905 C911 0.930 . S
C906 H892 0.930 . S
C906 C904 1.395 . S
C906 C909 1.403 . S
C907 C904 1.403 . S
C907 C908 1.524 . S
C907 C911 1.400 . S
C908 H893 0.960 . S
C908 H894 0.960 . S
C908 H895 0.960 . S
C908 C907 1.524 . S
C909 C906 1.403 . S
C909 C910 1.392 . S
C909 C913 1.495 . S
C910 C909 1.392 . S
C910 C911 1.385 . S
C910 C912 1.478 . S
C911 H905 0.930 . S
C911 C907 1.400 . S
C911 C910 1.385 . S
C912 C910 1.478 . S
C912 C914 1.381 . S
C912 C918 1.383 . S
C913 C909 1.495 . S
C913 H919 0.959 . S
C913 H920 0.961 . S
C913 H921 0.960 . S
C914 C912 1.381 . S
C914 C915 1.394 . S
C914 H922 0.930 . S
C915 C914 1.394 . S
C915 C916 1.383 . S
C915 H923 0.929 . S
C916 C915 1.383 . S
C916 C917 1.377 . S
C917 H901 0.930 . S
C917 C916 1.377 . S
C917 C918 1.379 . S
C918 H902 0.931 . S
C918 C912 1.383 . S
C918 C917 1.379 . S
H919 C913 0.959 . S
H920 C913 0.961 . S
H921 C913 0.960 . S
H922 C914 0.930 . S
H923 C915 0.929 . S
H924 C932 0.929 . S
H925 C934 0.930 . S
H926 C936 0.930 . S
H927 C939 0.929 . S
H928 C942 0.930 . S
H929 C944 0.960 . S
H930 C944 0.960 . S
H931 C944 0.960 . S
C932 H924 0.929 . S
C932 C933 1.377 . S
C932 C934 1.384 . S
C933 C932 1.377 . S
C933 C939 1.390 . S
C934 H925 0.930 . S
C934 C932 1.384 . S
C934 C935 1.372 . S
C935 C934 1.372 . S
C935 C936 1.400 . S
C935 C940 1.490 . S
C936 H926 0.930 . S
C936 C935 1.400 . S
C936 C939 1.386 . S
H937 C953 0.930 . S
H938 C954 0.931 . S
C939 H927 0.929 . S
C939 C933 1.390 . S
C939 C936 1.386 . S
C940 C935 1.490 . S
C940 C942 1.395 . S
C940 C943 1.403 . S
H941 C947 0.930 . S
C942 H928 0.930 . S
C942 C940 1.395 . S
C942 C945 1.403 . S
C943 C940 1.403 . S
C943 C944 1.524 . S
C943 C947 1.400 . S
C944 H929 0.960 . S
C944 H930 0.960 . S
C944 H931 0.960 . S
C944 C943 1.524 . S
C945 C942 1.403 . S
C945 C946 1.392 . S
C945 C949 1.495 . S
C946 C945 1.392 . S
C946 C947 1.385 . S
C946 C948 1.478 . S
C947 H941 0.930 . S
C947 C943 1.400 . S
C947 C946 1.385 . S
C948 C946 1.478 . S
C948 C950 1.381 . S
C948 C954 1.383 . S
C949 C945 1.495 . S
C949 H955 0.959 . S
C949 H956 0.961 . S
C949 H957 0.960 . S
C950 C948 1.381 . S
C950 C951 1.394 . S
C950 H958 0.930 . S
C951 C950 1.394 . S
C951 C952 1.383 . S
C951 H959 0.929 . S
C952 C951 1.383 . S
C952 C953 1.377 . S
C953 H937 0.930 . S
C953 C952 1.377 . S
C953 C954 1.379 . S
C954 H938 0.931 . S
C954 C948 1.383 . S
C954 C953 1.379 . S
H955 C949 0.959 . S
H956 C949 0.961 . S
H957 C949 0.960 . S
H958 C950 0.930 . S
H959 C951 0.929 . S
H960 C968 0.929 . S
H961 C970 0.930 . S
H962 C972 0.930 . S
H963 C975 0.929 . S
H964 C978 0.930 . S
H965 C980 0.960 . S
H966 C980 0.960 . S
H967 C980 0.960 . S
C968 H960 0.929 . S
C968 C969 1.377 . S
C968 C970 1.384 . S
C969 C968 1.377 . S
C969 C975 1.390 . S
C970 H961 0.930 . S
C970 C968 1.384 . S
C970 C971 1.372 . S
C971 C970 1.372 . S
C971 C972 1.400 . S
C971 C976 1.490 . S
C972 H962 0.930 . S
C972 C971 1.400 . S
C972 C975 1.386 . S
H973 C989 0.930 . S
H974 C990 0.931 . S
C975 H963 0.929 . S
C975 C969 1.390 . S
C975 C972 1.386 . S
C976 C971 1.490 . S
C976 C978 1.395 . S
C976 C979 1.403 . S
H977 C983 0.930 . S
C978 H964 0.930 . S
C978 C976 1.395 . S
C978 C981 1.403 . S
C979 C976 1.403 . S
C979 C980 1.524 . S
C979 C983 1.400 . S
C980 H965 0.960 . S
C980 H966 0.960 . S
C980 H967 0.960 . S
C980 C979 1.524 . S
C981 C978 1.403 . S
C981 C982 1.392 . S
C981 C985 1.495 . S
C982 C981 1.392 . S
C982 C983 1.385 . S
C982 C984 1.478 . S
C983 H977 0.930 . S
C983 C979 1.400 . S
C983 C982 1.385 . S
C984 C982 1.478 . S
C984 C986 1.381 . S
C984 C990 1.383 . S
C985 C981 1.495 . S
C985 H991 0.959 . S
C985 H992 0.961 . S
C985 H993 0.960 . S
C986 C984 1.381 . S
C986 C987 1.394 . S
C986 H994 0.930 . S
C987 C986 1.394 . S
C987 C988 1.383 . S
C987 H995 0.929 . S
C988 C987 1.383 . S
C988 C989 1.377 . S
C989 H973 0.930 . S
C989 C988 1.377 . S
C989 C990 1.379 . S
C990 H974 0.931 . S
C990 C984 1.383 . S
C990 C989 1.379 . S
H991 C985 0.959 . S
H992 C985 0.961 . S
H993 C985 0.960 . S
H994 C986 0.930 . S
H995 C987 0.929 . S
H996 C1004 0.929 . S
H997 C1006 0.930 . S
H998 C1008 0.930 . S
H999 C1011 0.929 . S
H1000 C1014 0.930 . S
H1001 C1016 0.960 . S
H1002 C1016 0.960 . S
H1003 C1016 0.960 . S
C1004 H996 0.929 . S
C1004 C1005 1.377 . S
C1004 C1006 1.384 . S
C1005 C1004 1.377 . S
C1005 C1011 1.390 . S
C1006 H997 0.930 . S
C1006 C1004 1.384 . S
C1006 C1007 1.372 . S
C1007 C1006 1.372 . S
C1007 C1008 1.400 . S
C1007 C1012 1.490 . S
C1008 H998 0.930 . S
C1008 C1007 1.400 . S
C1008 C1011 1.386 . S
H1009 C1025 0.930 . S
H1010 C1026 0.931 . S
C1011 H999 0.929 . S
C1011 C1005 1.390 . S
C1011 C1008 1.386 . S
C1012 C1007 1.490 . S
C1012 C1014 1.395 . S
C1012 C1015 1.403 . S
H1013 C1019 0.930 . S
C1014 H1000 0.930 . S
C1014 C1012 1.395 . S
C1014 C1017 1.403 . S
C1015 C1012 1.403 . S
C1015 C1016 1.524 . S
C1015 C1019 1.400 . S
C1016 H1001 0.960 . S
C1016 H1002 0.960 . S
C1016 H1003 0.960 . S
C1016 C1015 1.524 . S
C1017 C1014 1.403 . S
C1017 C1018 1.392 . S
C1017 C1021 1.495 . S
C1018 C1017 1.392 . S
C1018 C1019 1.385 . S
C1018 C1020 1.478 . S
C1019 H1013 0.930 . S
C1019 C1015 1.400 . S
C1019 C1018 1.385 . S
C1020 C1018 1.478 . S
C1020 C1022 1.381 . S
C1020 C1026 1.383 . S
C1021 C1017 1.495 . S
C1021 H1027 0.959 . S
C1021 H1028 0.961 . S
C1021 H1029 0.960 . S
C1022 C1020 1.381 . S
C1022 C1023 1.394 . S
C1022 H1030 0.930 . S
C1023 C1022 1.394 . S
C1023 C1024 1.383 . S
C1023 H1031 0.929 . S
C1024 C1023 1.383 . S
C1024 C1025 1.377 . S
C1025 H1009 0.930 . S
C1025 C1024 1.377 . S
C1025 C1026 1.379 . S
C1026 H1010 0.931 . S
C1026 C1020 1.383 . S
C1026 C1025 1.379 . S
H1027 C1021 0.959 . S
H1028 C1021 0.961 . S
H1029 C1021 0.960 . S
H1030 C1022 0.930 . S
H1031 C1023 0.929 . S
H1032 C1040 0.929 . S
H1033 C1042 0.930 . S
H1034 C1044 0.930 . S
H1035 C1047 0.929 . S
H1036 C1050 0.930 . S
H1037 C1052 0.960 . S
H1038 C1052 0.960 . S
H1039 C1052 0.960 . S
C1040 H1032 0.929 . S
C1040 C1041 1.377 . S
C1040 C1042 1.384 . S
C1041 C1040 1.377 . S
C1041 C1047 1.390 . S
C1042 H1033 0.930 . S
C1042 C1040 1.384 . S
C1042 C1043 1.372 . S
C1043 C1042 1.372 . S
C1043 C1044 1.400 . S
C1043 C1048 1.490 . S
C1044 H1034 0.930 . S
C1044 C1043 1.400 . S
C1044 C1047 1.386 . S
H1045 C1061 0.930 . S
H1046 C1062 0.931 . S
C1047 H1035 0.929 . S
C1047 C1041 1.390 . S
C1047 C1044 1.386 . S
C1048 C1043 1.490 . S
C1048 C1050 1.395 . S
C1048 C1051 1.403 . S
H1049 C1055 0.930 . S
C1050 H1036 0.930 . S
C1050 C1048 1.395 . S
C1050 C1053 1.403 . S
C1051 C1048 1.403 . S
C1051 C1052 1.524 . S
C1051 C1055 1.400 . S
C1052 H1037 0.960 . S
C1052 H1038 0.960 . S
C1052 H1039 0.960 . S
C1052 C1051 1.524 . S
C1053 C1050 1.403 . S
C1053 C1054 1.392 . S
C1053 C1057 1.495 . S
C1054 C1053 1.392 . S
C1054 C1055 1.385 . S
C1054 C1056 1.478 . S
C1055 H1049 0.930 . S
C1055 C1051 1.400 . S
C1055 C1054 1.385 . S
C1056 C1054 1.478 . S
C1056 C1058 1.381 . S
C1056 C1062 1.383 . S
C1057 C1053 1.495 . S
C1057 H1063 0.959 . S
C1057 H1064 0.961 . S
C1057 H1065 0.960 . S
C1058 C1056 1.381 . S
C1058 C1059 1.394 . S
C1058 H1066 0.930 . S
C1059 C1058 1.394 . S
C1059 C1060 1.383 . S
C1059 H1067 0.929 . S
C1060 C1059 1.383 . S
C1060 C1061 1.377 . S
C1061 H1045 0.930 . S
C1061 C1060 1.377 . S
C1061 C1062 1.379 . S
C1062 H1046 0.931 . S
C1062 C1056 1.383 . S
C1062 C1061 1.379 . S
H1063 C1057 0.959 . S
H1064 C1057 0.961 . S
H1065 C1057 0.960 . S
H1066 C1058 0.930 . S
H1067 C1059 0.929 . S
H1068 C1076 0.929 . S
H1069 C1078 0.930 . S
H1070 C1080 0.930 . S
H1071 C1083 0.929 . S
H1072 C1086 0.930 . S
H1073 C1088 0.960 . S
H1074 C1088 0.960 . S
H1075 C1088 0.960 . S
C1076 H1068 0.929 . S
C1076 C1077 1.377 . S
C1076 C1078 1.384 . S
C1077 C1076 1.377 . S
C1077 C1083 1.390 . S
C1078 H1069 0.930 . S
C1078 C1076 1.384 . S
C1078 C1079 1.372 . S
C1079 C1078 1.372 . S
C1079 C1080 1.400 . S
C1079 C1084 1.490 . S
C1080 H1070 0.930 . S
C1080 C1079 1.400 . S
C1080 C1083 1.386 . S
H1081 C1097 0.930 . S
H1082 C1098 0.931 . S
C1083 H1071 0.929 . S
C1083 C1077 1.390 . S
C1083 C1080 1.386 . S
C1084 C1079 1.490 . S
C1084 C1086 1.395 . S
C1084 C1087 1.403 . S
H1085 C1091 0.930 . S
C1086 H1072 0.930 . S
C1086 C1084 1.395 . S
C1086 C1089 1.403 . S
C1087 C1084 1.403 . S
C1087 C1088 1.524 . S
C1087 C1091 1.400 . S
C1088 H1073 0.960 . S
C1088 H1074 0.960 . S
C1088 H1075 0.960 . S
C1088 C1087 1.524 . S
C1089 C1086 1.403 . S
C1089 C1090 1.392 . S
C1089 C1093 1.495 . S
C1090 C1089 1.392 . S
C1090 C1091 1.385 . S
C1090 C1092 1.478 . S
C1091 H1085 0.930 . S
C1091 C1087 1.400 . S
C1091 C1090 1.385 . S
C1092 C1090 1.478 . S
C1092 C1094 1.381 . S
C1092 C1098 1.383 . S
C1093 C1089 1.495 . S
C1093 H1099 0.959 . S
C1093 H1100 0.961 . S
C1093 H1101 0.960 . S
C1094 C1092 1.381 . S
C1094 C1095 1.394 . S
C1094 H1102 0.930 . S
C1095 C1094 1.394 . S
C1095 C1096 1.383 . S
C1095 H1103 0.929 . S
C1096 C1095 1.383 . S
C1096 C1097 1.377 . S
C1097 H1081 0.930 . S
C1097 C1096 1.377 . S
C1097 C1098 1.379 . S
C1098 H1082 0.931 . S
C1098 C1092 1.383 . S
C1098 C1097 1.379 . S
H1099 C1093 0.959 . S
H1100 C1093 0.961 . S
H1101 C1093 0.960 . S
H1102 C1094 0.930 . S
H1103 C1095 0.929 . S
H1104 C1112 0.929 . S
H1105 C1114 0.930 . S
H1106 C1116 0.930 . S
H1107 C1119 0.929 . S
H1108 C1122 0.930 . S
H1109 C1124 0.960 . S
H1110 C1124 0.960 . S
H1111 C1124 0.960 . S
C1112 H1104 0.929 . S
C1112 C1113 1.377 . S
C1112 C1114 1.384 . S
C1113 C1112 1.377 . S
C1113 C1119 1.390 . S
C1114 H1105 0.930 . S
C1114 C1112 1.384 . S
C1114 C1115 1.372 . S
C1115 C1114 1.372 . S
C1115 C1116 1.400 . S
C1115 C1120 1.490 . S
C1116 H1106 0.930 . S
C1116 C1115 1.400 . S
C1116 C1119 1.386 . S
H1117 C1133 0.930 . S
H1118 C1134 0.931 . S
C1119 H1107 0.929 . S
C1119 C1113 1.390 . S
C1119 C1116 1.386 . S
C1120 C1115 1.490 . S
C1120 C1122 1.395 . S
C1120 C1123 1.403 . S
H1121 C1127 0.930 . S
C1122 H1108 0.930 . S
C1122 C1120 1.395 . S
C1122 C1125 1.403 . S
C1123 C1120 1.403 . S
C1123 C1124 1.524 . S
C1123 C1127 1.400 . S
C1124 H1109 0.960 . S
C1124 H1110 0.960 . S
C1124 H1111 0.960 . S
C1124 C1123 1.524 . S
C1125 C1122 1.403 . S
C1125 C1126 1.392 . S
C1125 C1129 1.495 . S
C1126 C1125 1.392 . S
C1126 C1127 1.385 . S
C1126 C1128 1.478 . S
C1127 H1121 0.930 . S
C1127 C1123 1.400 . S
C1127 C1126 1.385 . S
C1128 C1126 1.478 . S
C1128 C1130 1.381 . S
C1128 C1134 1.383 . S
C1129 C1125 1.495 . S
C1129 H1135 0.959 . S
C1129 H1136 0.961 . S
C1129 H1137 0.960 . S
C1130 C1128 1.381 . S
C1130 C1131 1.394 . S
C1130 H1138 0.930 . S
C1131 C1130 1.394 . S
C1131 C1132 1.383 . S
C1131 H1139 0.929 . S
C1132 C1131 1.383 . S
C1132 C1133 1.377 . S
C1133 H1117 0.930 . S
C1133 C1132 1.377 . S
C1133 C1134 1.379 . S
C1134 H1118 0.931 . S
C1134 C1128 1.383 . S
C1134 C1133 1.379 . S
H1135 C1129 0.959 . S
H1136 C1129 0.961 . S
H1137 C1129 0.960 . S
H1138 C1130 0.930 . S
H1139 C1131 0.929 . S
H1140 C1148 0.929 . S
H1141 C1150 0.930 . S
H1142 C1152 0.930 . S
H1143 C1155 0.929 . S
H1144 C1158 0.930 . S
H1145 C1160 0.960 . S
H1146 C1160 0.960 . S
H1147 C1160 0.960 . S
C1148 H1140 0.929 . S
C1148 C1149 1.377 . S
C1148 C1150 1.384 . S
C1149 C1148 1.377 . S
C1149 C1155 1.390 . S
C1150 H1141 0.930 . S
C1150 C1148 1.384 . S
C1150 C1151 1.372 . S
C1151 C1150 1.372 . S
C1151 C1152 1.400 . S
C1151 C1156 1.490 . S
C1152 H1142 0.930 . S
C1152 C1151 1.400 . S
C1152 C1155 1.386 . S
H1153 C1169 0.930 . S
H1154 C1170 0.931 . S
C1155 H1143 0.929 . S
C1155 C1149 1.390 . S
C1155 C1152 1.386 . S
C1156 C1151 1.490 . S
C1156 C1158 1.395 . S
C1156 C1159 1.403 . S
H1157 C1163 0.930 . S
C1158 H1144 0.930 . S
C1158 C1156 1.395 . S
C1158 C1161 1.403 . S
C1159 C1156 1.403 . S
C1159 C1160 1.524 . S
C1159 C1163 1.400 . S
C1160 H1145 0.960 . S
C1160 H1146 0.960 . S
C1160 H1147 0.960 . S
C1160 C1159 1.524 . S
C1161 C1158 1.403 . S
C1161 C1162 1.392 . S
C1161 C1165 1.495 . S
C1162 C1161 1.392 . S
C1162 C1163 1.385 . S
C1162 C1164 1.478 . S
C1163 H1157 0.930 . S
C1163 C1159 1.400 . S
C1163 C1162 1.385 . S
C1164 C1162 1.478 . S
C1164 C1166 1.381 . S
C1164 C1170 1.383 . S
C1165 C1161 1.495 . S
C1165 H1171 0.959 . S
C1165 H1172 0.961 . S
C1165 H1173 0.960 . S
C1166 C1164 1.381 . S
C1166 C1167 1.394 . S
C1166 H1174 0.930 . S
C1167 C1166 1.394 . S
C1167 C1168 1.383 . S
C1167 H1175 0.929 . S
C1168 C1167 1.383 . S
C1168 C1169 1.377 . S
C1169 H1153 0.930 . S
C1169 C1168 1.377 . S
C1169 C1170 1.379 . S
C1170 H1154 0.931 . S
C1170 C1164 1.383 . S
C1170 C1169 1.379 . S
H1171 C1165 0.959 . S
H1172 C1165 0.961 . S
H1173 C1165 0.960 . S
H1174 C1166 0.930 . S
H1175 C1167 0.929 . S
H1176 C1184 0.929 . S
H1177 C1186 0.930 . S
H1178 C1188 0.930 . S
H1179 C1191 0.929 . S
H1180 C1194 0.930 . S
H1181 C1196 0.960 . S
H1182 C1196 0.960 . S
H1183 C1196 0.960 . S
C1184 H1176 0.929 . S
C1184 C1185 1.377 . S
C1184 C1186 1.384 . S
C1185 C1184 1.377 . S
C1185 C1191 1.390 . S
C1186 H1177 0.930 . S
C1186 C1184 1.384 . S
C1186 C1187 1.372 . S
C1187 C1186 1.372 . S
C1187 C1188 1.400 . S
C1187 C1192 1.490 . S
C1188 H1178 0.930 . S
C1188 C1187 1.400 . S
C1188 C1191 1.386 . S
H1189 C1205 0.930 . S
H1190 C1206 0.931 . S
C1191 H1179 0.929 . S
C1191 C1185 1.390 . S
C1191 C1188 1.386 . S
C1192 C1187 1.490 . S
C1192 C1194 1.395 . S
C1192 C1195 1.403 . S
H1193 C1199 0.930 . S
C1194 H1180 0.930 . S
C1194 C1192 1.395 . S
C1194 C1197 1.403 . S
C1195 C1192 1.403 . S
C1195 C1196 1.524 . S
C1195 C1199 1.400 . S
C1196 H1181 0.960 . S
C1196 H1182 0.960 . S
C1196 H1183 0.960 . S
C1196 C1195 1.524 . S
C1197 C1194 1.403 . S
C1197 C1198 1.392 . S
C1197 C1201 1.495 . S
C1198 C1197 1.392 . S
C1198 C1199 1.385 . S
C1198 C1200 1.478 . S
C1199 H1193 0.930 . S
C1199 C1195 1.400 . S
C1199 C1198 1.385 . S
C1200 C1198 1.478 . S
C1200 C1202 1.381 . S
C1200 C1206 1.383 . S
C1201 C1197 1.495 . S
C1201 H1207 0.959 . S
C1201 H1208 0.961 . S
C1201 H1209 0.960 . S
C1202 C1200 1.381 . S
C1202 C1203 1.394 . S
C1202 H1210 0.930 . S
C1203 C1202 1.394 . S
C1203 C1204 1.383 . S
C1203 H1211 0.929 . S
C1204 C1203 1.383 . S
C1204 C1205 1.377 . S
C1205 H1189 0.930 . S
C1205 C1204 1.377 . S
C1205 C1206 1.379 . S
C1206 H1190 0.931 . S
C1206 C1200 1.383 . S
C1206 C1205 1.379 . S
H1207 C1201 0.959 . S
H1208 C1201 0.961 . S
H1209 C1201 0.960 . S
H1210 C1202 0.930 . S
H1211 C1203 0.929 . S
H1212 C1220 0.929 . S
H1213 C1222 0.930 . S
H1214 C1224 0.930 . S
H1215 C1227 0.929 . S
H1216 C1230 0.930 . S
H1217 C1232 0.960 . S
H1218 C1232 0.960 . S
H1219 C1232 0.960 . S
C1220 H1212 0.929 . S
C1220 C1221 1.377 . S
C1220 C1222 1.384 . S
C1221 C1220 1.377 . S
C1221 C1227 1.390 . S
C1222 H1213 0.930 . S
C1222 C1220 1.384 . S
C1222 C1223 1.372 . S
C1223 C1222 1.372 . S
C1223 C1224 1.400 . S
C1223 C1228 1.490 . S
C1224 H1214 0.930 . S
C1224 C1223 1.400 . S
C1224 C1227 1.386 . S
H1225 C1241 0.930 . S
H1226 C1242 0.931 . S
C1227 H1215 0.929 . S
C1227 C1221 1.390 . S
C1227 C1224 1.386 . S
C1228 C1223 1.490 . S
C1228 C1230 1.395 . S
C1228 C1231 1.403 . S
H1229 C1235 0.930 . S
C1230 H1216 0.930 . S
C1230 C1228 1.395 . S
C1230 C1233 1.403 . S
C1231 C1228 1.403 . S
C1231 C1232 1.524 . S
C1231 C1235 1.400 . S
C1232 H1217 0.960 . S
C1232 H1218 0.960 . S
C1232 H1219 0.960 . S
C1232 C1231 1.524 . S
C1233 C1230 1.403 . S
C1233 C1234 1.392 . S
C1233 C1237 1.495 . S
C1234 C1233 1.392 . S
C1234 C1235 1.385 . S
C1234 C1236 1.478 . S
C1235 H1229 0.930 . S
C1235 C1231 1.400 . S
C1235 C1234 1.385 . S
C1236 C1234 1.478 . S
C1236 C1238 1.381 . S
C1236 C1242 1.383 . S
C1237 C1233 1.495 . S
C1237 H1243 0.959 . S
C1237 H1244 0.961 . S
C1237 H1245 0.960 . S
C1238 C1236 1.381 . S
C1238 C1239 1.394 . S
C1238 H1246 0.930 . S
C1239 C1238 1.394 . S
C1239 C1240 1.383 . S
C1239 H1247 0.929 . S
C1240 C1239 1.383 . S
C1240 C1241 1.377 . S
C1241 H1225 0.930 . S
C1241 C1240 1.377 . S
C1241 C1242 1.379 . S
C1242 H1226 0.931 . S
C1242 C1236 1.383 . S
C1242 C1241 1.379 . S
H1243 C1237 0.959 . S
H1244 C1237 0.961 . S
H1245 C1237 0.960 . S
H1246 C1238 0.930 . S
H1247 C1239 0.929 . S
H1248 C1256 0.929 . S
H1249 C1258 0.930 . S
H1250 C1260 0.930 . S
H1251 C1263 0.929 . S
H1252 C1266 0.930 . S
H1253 C1268 0.960 . S
H1254 C1268 0.960 . S
H1255 C1268 0.960 . S
C1256 H1248 0.929 . S
C1256 C1257 1.377 . S
C1256 C1258 1.384 . S
C1257 C1256 1.377 . S
C1257 C1263 1.390 . S
C1258 H1249 0.930 . S
C1258 C1256 1.384 . S
C1258 C1259 1.372 . S
C1259 C1258 1.372 . S
C1259 C1260 1.400 . S
C1259 C1264 1.490 . S
C1260 H1250 0.930 . S
C1260 C1259 1.400 . S
C1260 C1263 1.386 . S
H1261 C1277 0.930 . S
H1262 C1278 0.931 . S
C1263 H1251 0.929 . S
C1263 C1257 1.390 . S
C1263 C1260 1.386 . S
C1264 C1259 1.490 . S
C1264 C1266 1.395 . S
C1264 C1267 1.403 . S
H1265 C1271 0.930 . S
C1266 H1252 0.930 . S
C1266 C1264 1.395 . S
C1266 C1269 1.403 . S
C1267 C1264 1.403 . S
C1267 C1268 1.524 . S
C1267 C1271 1.400 . S
C1268 H1253 0.960 . S
C1268 H1254 0.960 . S
C1268 H1255 0.960 . S
C1268 C1267 1.524 . S
C1269 C1266 1.403 . S
C1269 C1270 1.392 . S
C1269 C1273 1.495 . S
C1270 C1269 1.392 . S
C1270 C1271 1.385 . S
C1270 C1272 1.478 . S
C1271 H1265 0.930 . S
C1271 C1267 1.400 . S
C1271 C1270 1.385 . S
C1272 C1270 1.478 . S
C1272 C1274 1.381 . S
C1272 C1278 1.383 . S
C1273 C1269 1.495 . S
C1273 H1279 0.959 . S
C1273 H1280 0.961 . S
C1273 H1281 0.960 . S
C1274 C1272 1.381 . S
C1274 C1275 1.394 . S
C1274 H1282 0.930 . S
C1275 C1274 1.394 . S
C1275 C1276 1.383 . S
C1275 H1283 0.929 . S
C1276 C1275 1.383 . S
C1276 C1277 1.377 . S
C1277 H1261 0.930 . S
C1277 C1276 1.377 . S
C1277 C1278 1.379 . S
C1278 H1262 0.931 . S
C1278 C1272 1.383 . S
C1278 C1277 1.379 . S
H1279 C1273 0.959 . S
H1280 C1273 0.961 . S
H1281 C1273 0.960 . S
H1282 C1274 0.930 . S
H1283 C1275 0.929 . S
H1284 C1292 0.929 . S
H1285 C1294 0.930 . S
H1286 C1296 0.930 . S
H1287 C1299 0.929 . S
H1288 C1302 0.930 . S
H1289 C1304 0.960 . S
H1290 C1304 0.960 . S
H1291 C1304 0.960 . S
C1292 H1284 0.929 . S
C1292 C1293 1.377 . S
C1292 C1294 1.384 . S
C1293 C1292 1.377 . S
C1293 C1299 1.390 . S
C1294 H1285 0.930 . S
C1294 C1292 1.384 . S
C1294 C1295 1.372 . S
C1295 C1294 1.372 . S
C1295 C1296 1.400 . S
C1295 C1300 1.490 . S
C1296 H1286 0.930 . S
C1296 C1295 1.400 . S
C1296 C1299 1.386 . S
H1297 C1313 0.930 . S
H1298 C1314 0.931 . S
C1299 H1287 0.929 . S
C1299 C1293 1.390 . S
C1299 C1296 1.386 . S
C1300 C1295 1.490 . S
C1300 C1302 1.395 . S
C1300 C1303 1.403 . S
H1301 C1307 0.930 . S
C1302 H1288 0.930 . S
C1302 C1300 1.395 . S
C1302 C1305 1.403 . S
C1303 C1300 1.403 . S
C1303 C1304 1.524 . S
C1303 C1307 1.400 . S
C1304 H1289 0.960 . S
C1304 H1290 0.960 . S
C1304 H1291 0.960 . S
C1304 C1303 1.524 . S
C1305 C1302 1.403 . S
C1305 C1306 1.392 . S
C1305 C1309 1.495 . S
C1306 C1305 1.392 . S
C1306 C1307 1.385 . S
C1306 C1308 1.478 . S
C1307 H1301 0.930 . S
C1307 C1303 1.400 . S
C1307 C1306 1.385 . S
C1308 C1306 1.478 . S
C1308 C1310 1.381 . S
C1308 C1314 1.383 . S
C1309 C1305 1.495 . S
C1309 H1315 0.959 . S
C1309 H1316 0.961 . S
C1309 H1317 0.960 . S
C1310 C1308 1.381 . S
C1310 C1311 1.394 . S
C1310 H1318 0.930 . S
C1311 C1310 1.394 . S
C1311 C1312 1.383 . S
C1311 H1319 0.929 . S
C1312 C1311 1.383 . S
C1312 C1313 1.377 . S
C1313 H1297 0.930 . S
C1313 C1312 1.377 . S
C1313 C1314 1.379 . S
C1314 H1298 0.931 . S
C1314 C1308 1.383 . S
C1314 C1313 1.379 . S
H1315 C1309 0.959 . S
H1316 C1309 0.961 . S
H1317 C1309 0.960 . S
H1318 C1310 0.930 . S
H1319 C1311 0.929 . S
H1320 C1328 0.929 . S
H1321 C1330 0.930 . S
H1322 C1332 0.930 . S
H1323 C1335 0.929 . S
H1324 C1338 0.930 . S
H1325 C1340 0.960 . S
H1326 C1340 0.960 . S
H1327 C1340 0.960 . S
C1328 H1320 0.929 . S
C1328 C1329 1.377 . S
C1328 C1330 1.384 . S
C1329 C1328 1.377 . S
C1329 C1335 1.390 . S
C1330 H1321 0.930 . S
C1330 C1328 1.384 . S
C1330 C1331 1.372 . S
C1331 C1330 1.372 . S
C1331 C1332 1.400 . S
C1331 C1336 1.490 . S
C1332 H1322 0.930 . S
C1332 C1331 1.400 . S
C1332 C1335 1.386 . S
H1333 C1349 0.930 . S
H1334 C1350 0.931 . S
C1335 H1323 0.929 . S
C1335 C1329 1.390 . S
C1335 C1332 1.386 . S
C1336 C1331 1.490 . S
C1336 C1338 1.395 . S
C1336 C1339 1.403 . S
H1337 C1343 0.930 . S
C1338 H1324 0.930 . S
C1338 C1336 1.395 . S
C1338 C1341 1.403 . S
C1339 C1336 1.403 . S
C1339 C1340 1.524 . S
C1339 C1343 1.400 . S
C1340 H1325 0.960 . S
C1340 H1326 0.960 . S
C1340 H1327 0.960 . S
C1340 C1339 1.524 . S
C1341 C1338 1.403 . S
C1341 C1342 1.392 . S
C1341 C1345 1.495 . S
C1342 C1341 1.392 . S
C1342 C1343 1.385 . S
C1342 C1344 1.478 . S
C1343 H1337 0.930 . S
C1343 C1339 1.400 . S
C1343 C1342 1.385 . S
C1344 C1342 1.478 . S
C1344 C1346 1.381 . S
C1344 C1350 1.383 . S
C1345 C1341 1.495 . S
C1345 H1351 0.959 . S
C1345 H1352 0.961 . S
C1345 H1353 0.960 . S
C1346 C1344 1.381 . S
C1346 C1347 1.394 . S
C1346 H1354 0.930 . S
C1347 C1346 1.394 . S
C1347 C1348 1.383 . S
C1347 H1355 0.929 . S
C1348 C1347 1.383 . S
C1348 C1349 1.377 . S
C1349 H1333 0.930 . S
C1349 C1348 1.377 . S
C1349 C1350 1.379 . S
C1350 H1334 0.931 . S
C1350 C1344 1.383 . S
C1350 C1349 1.379 . S
H1351 C1345 0.959 . S
H1352 C1345 0.961 . S
H1353 C1345 0.960 . S
H1354 C1346 0.930 . S
H1355 C1347 0.929 . S
H1356 C1364 0.929 . S
H1357 C1366 0.930 . S
H1358 C1368 0.930 . S
H1359 C1371 0.929 . S
H1360 C1374 0.930 . S
H1361 C1376 0.960 . S
H1362 C1376 0.960 . S
H1363 C1376 0.960 . S
C1364 H1356 0.929 . S
C1364 C1365 1.377 . S
C1364 C1366 1.384 . S
C1365 C1364 1.377 . S
C1365 C1371 1.390 . S
C1366 H1357 0.930 . S
C1366 C1364 1.384 . S
C1366 C1367 1.372 . S
C1367 C1366 1.372 . S
C1367 C1368 1.400 . S
C1367 C1372 1.490 . S
C1368 H1358 0.930 . S
C1368 C1367 1.400 . S
C1368 C1371 1.386 . S
H1369 C1385 0.930 . S
H1370 C1386 0.931 . S
C1371 H1359 0.929 . S
C1371 C1365 1.390 . S
C1371 C1368 1.386 . S
C1372 C1367 1.490 . S
C1372 C1374 1.395 . S
C1372 C1375 1.403 . S
H1373 C1379 0.930 . S
C1374 H1360 0.930 . S
C1374 C1372 1.395 . S
C1374 C1377 1.403 . S
C1375 C1372 1.403 . S
C1375 C1376 1.524 . S
C1375 C1379 1.400 . S
C1376 H1361 0.960 . S
C1376 H1362 0.960 . S
C1376 H1363 0.960 . S
C1376 C1375 1.524 . S
C1377 C1374 1.403 . S
C1377 C1378 1.392 . S
C1377 C1381 1.495 . S
C1378 C1377 1.392 . S
C1378 C1379 1.385 . S
C1378 C1380 1.478 . S
C1379 H1373 0.930 . S
C1379 C1375 1.400 . S
C1379 C1378 1.385 . S
C1380 C1378 1.478 . S
C1380 C1382 1.381 . S
C1380 C1386 1.383 . S
C1381 C1377 1.495 . S
C1381 H1387 0.959 . S
C1381 H1388 0.961 . S
C1381 H1389 0.960 . S
C1382 C1380 1.381 . S
C1382 C1383 1.394 . S
C1382 H1390 0.930 . S
C1383 C1382 1.394 . S
C1383 C1384 1.383 . S
C1383 H1391 0.929 . S
C1384 C1383 1.383 . S
C1384 C1385 1.377 . S
C1385 H1369 0.930 . S
C1385 C1384 1.377 . S
C1385 C1386 1.379 . S
C1386 H1370 0.931 . S
C1386 C1380 1.383 . S
C1386 C1385 1.379 . S
H1387 C1381 0.959 . S
H1388 C1381 0.961 . S
H1389 C1381 0.960 . S
H1390 C1382 0.930 . S
H1391 C1383 0.929 . S
H1392 C1400 0.929 . S
H1393 C1402 0.930 . S
H1394 C1404 0.930 . S
H1395 C1407 0.929 . S
H1396 C1410 0.930 . S
H1397 C1412 0.960 . S
H1398 C1412 0.960 . S
H1399 C1412 0.960 . S
C1400 H1392 0.929 . S
C1400 C1401 1.377 . S
C1400 C1402 1.384 . S
C1401 C1400 1.377 . S
C1401 C1407 1.390 . S
C1402 H1393 0.930 . S
C1402 C1400 1.384 . S
C1402 C1403 1.372 . S
C1403 C1402 1.372 . S
C1403 C1404 1.400 . S
C1403 C1408 1.490 . S
C1404 H1394 0.930 . S
C1404 C1403 1.400 . S
C1404 C1407 1.386 . S
H1405 C1421 0.930 . S
H1406 C1422 0.931 . S
C1407 H1395 0.929 . S
C1407 C1401 1.390 . S
C1407 C1404 1.386 . S
C1408 C1403 1.490 . S
C1408 C1410 1.395 . S
C1408 C1411 1.403 . S
H1409 C1415 0.930 . S
C1410 H1396 0.930 . S
C1410 C1408 1.395 . S
C1410 C1413 1.403 . S
C1411 C1408 1.403 . S
C1411 C1412 1.524 . S
C1411 C1415 1.400 . S
C1412 H1397 0.960 . S
C1412 H1398 0.960 . S
C1412 H1399 0.960 . S
C1412 C1411 1.524 . S
C1413 C1410 1.403 . S
C1413 C1414 1.392 . S
C1413 C1417 1.495 . S
C1414 C1413 1.392 . S
C1414 C1415 1.385 . S
C1414 C1416 1.478 . S
C1415 H1409 0.930 . S
C1415 C1411 1.400 . S
C1415 C1414 1.385 . S
C1416 C1414 1.478 . S
C1416 C1418 1.381 . S
C1416 C1422 1.383 . S
C1417 C1413 1.495 . S
C1417 H1423 0.959 . S
C1417 H1424 0.961 . S
C1417 H1425 0.960 . S
C1418 C1416 1.381 . S
C1418 C1419 1.394 . S
C1418 H1426 0.930 . S
C1419 C1418 1.394 . S
C1419 C1420 1.383 . S
C1419 H1427 0.929 . S
C1420 C1419 1.383 . S
C1420 C1421 1.377 . S
C1421 H1405 0.930 . S
C1421 C1420 1.377 . S
C1421 C1422 1.379 . S
C1422 H1406 0.931 . S
C1422 C1416 1.383 . S
C1422 C1421 1.379 . S
H1423 C1417 0.959 . S
H1424 C1417 0.961 . S
H1425 C1417 0.960 . S
H1426 C1418 0.930 . S
H1427 C1419 0.929 . S
H1428 C1436 0.929 . S
H1429 C1438 0.930 . S
H1430 C1440 0.930 . S
H1431 C1443 0.929 . S
H1432 C1446 0.930 . S
H1433 C1448 0.960 . S
H1434 C1448 0.960 . S
H1435 C1448 0.960 . S
C1436 H1428 0.929 . S
C1436 C1437 1.377 . S
C1436 C1438 1.384 . S
C1437 C1436 1.377 . S
C1437 C1443 1.390 . S
C1438 H1429 0.930 . S
C1438 C1436 1.384 . S
C1438 C1439 1.372 . S
C1439 C1438 1.372 . S
C1439 C1440 1.400 . S
C1439 C1444 1.490 . S
C1440 H1430 0.930 . S
C1440 C1439 1.400 . S
C1440 C1443 1.386 . S
H1441 C1457 0.930 . S
H1442 C1458 0.931 . S
C1443 H1431 0.929 . S
C1443 C1437 1.390 . S
C1443 C1440 1.386 . S
C1444 C1439 1.490 . S
C1444 C1446 1.395 . S
C1444 C1447 1.403 . S
H1445 C1451 0.930 . S
C1446 H1432 0.930 . S
C1446 C1444 1.395 . S
C1446 C1449 1.403 . S
C1447 C1444 1.403 . S
C1447 C1448 1.524 . S
C1447 C1451 1.400 . S
C1448 H1433 0.960 . S
C1448 H1434 0.960 . S
C1448 H1435 0.960 . S
C1448 C1447 1.524 . S
C1449 C1446 1.403 . S
C1449 C1450 1.392 . S
C1449 C1453 1.495 . S
C1450 C1449 1.392 . S
C1450 C1451 1.385 . S
C1450 C1452 1.478 . S
C1451 H1445 0.930 . S
C1451 C1447 1.400 . S
C1451 C1450 1.385 . S
C1452 C1450 1.478 . S
C1452 C1454 1.381 . S
C1452 C1458 1.383 . S
C1453 C1449 1.495 . S
C1453 H1459 0.959 . S
C1453 H1460 0.961 . S
C1453 H1461 0.960 . S
C1454 C1452 1.381 . S
C1454 C1455 1.394 . S
C1454 H1462 0.930 . S
C1455 C1454 1.394 . S
C1455 C1456 1.383 . S
C1455 H1463 0.929 . S
C1456 C1455 1.383 . S
C1456 C1457 1.377 . S
C1457 H1441 0.930 . S
C1457 C1456 1.377 . S
C1457 C1458 1.379 . S
C1458 H1442 0.931 . S
C1458 C1452 1.383 . S
C1458 C1457 1.379 . S
H1459 C1453 0.959 . S
H1460 C1453 0.961 . S
H1461 C1453 0.960 . S
H1462 C1454 0.930 . S
H1463 C1455 0.929 . S
H1464 C1472 0.929 . S
H1465 C1474 0.930 . S
H1466 C1476 0.930 . S
H1467 C1479 0.929 . S
H1468 C1482 0.930 . S
H1469 C1484 0.960 . S
H1470 C1484 0.960 . S
H1471 C1484 0.960 . S
C1472 H1464 0.929 . S
C1472 C1473 1.377 . S
C1472 C1474 1.384 . S
C1473 C1472 1.377 . S
C1473 C1479 1.390 . S
C1474 H1465 0.930 . S
C1474 C1472 1.384 . S
C1474 C1475 1.372 . S
C1475 C1474 1.372 . S
C1475 C1476 1.400 . S
C1475 C1480 1.490 . S
C1476 H1466 0.930 . S
C1476 C1475 1.400 . S
C1476 C1479 1.386 . S
H1477 C1493 0.930 . S
H1478 C1494 0.931 . S
C1479 H1467 0.929 . S
C1479 C1473 1.390 . S
C1479 C1476 1.386 . S
C1480 C1475 1.490 . S
C1480 C1482 1.395 . S
C1480 C1483 1.403 . S
H1481 C1487 0.930 . S
C1482 H1468 0.930 . S
C1482 C1480 1.395 . S
C1482 C1485 1.403 . S
C1483 C1480 1.403 . S
C1483 C1484 1.524 . S
C1483 C1487 1.400 . S
C1484 H1469 0.960 . S
C1484 H1470 0.960 . S
C1484 H1471 0.960 . S
C1484 C1483 1.524 . S
C1485 C1482 1.403 . S
C1485 C1486 1.392 . S
C1485 C1489 1.495 . S
C1486 C1485 1.392 . S
C1486 C1487 1.385 . S
C1486 C1488 1.478 . S
C1487 H1481 0.930 . S
C1487 C1483 1.400 . S
C1487 C1486 1.385 . S
C1488 C1486 1.478 . S
C1488 C1490 1.381 . S
C1488 C1494 1.383 . S
C1489 C1485 1.495 . S
C1489 H1495 0.959 . S
C1489 H1496 0.961 . S
C1489 H1497 0.960 . S
C1490 C1488 1.381 . S
C1490 C1491 1.394 . S
C1490 H1498 0.930 . S
C1491 C1490 1.394 . S
C1491 C1492 1.383 . S
C1491 H1499 0.929 . S
C1492 C1491 1.383 . S
C1492 C1493 1.377 . S
C1493 H1477 0.930 . S
C1493 C1492 1.377 . S
C1493 C1494 1.379 . S
C1494 H1478 0.931 . S
C1494 C1488 1.383 . S
C1494 C1493 1.379 . S
H1495 C1489 0.959 . S
H1496 C1489 0.961 . S
H1497 C1489 0.960 . S
H1498 C1490 0.930 . S
H1499 C1491 0.929 . S
H1500 C1508 0.929 . S
H1501 C1510 0.930 . S
H1502 C1512 0.930 . S
H1503 C1515 0.929 . S
H1504 C1518 0.930 . S
H1505 C1520 0.960 . S
H1506 C1520 0.960 . S
H1507 C1520 0.960 . S
C1508 H1500 0.929 . S
C1508 C1509 1.377 . S
C1508 C1510 1.384 . S
C1509 C1508 1.377 . S
C1509 C1515 1.390 . S
C1510 H1501 0.930 . S
C1510 C1508 1.384 . S
C1510 C1511 1.372 . S
C1511 C1510 1.372 . S
C1511 C1512 1.400 . S
C1511 C1516 1.490 . S
C1512 H1502 0.930 . S
C1512 C1511 1.400 . S
C1512 C1515 1.386 . S
H1513 C1529 0.930 . S
H1514 C1530 0.931 . S
C1515 H1503 0.929 . S
C1515 C1509 1.390 . S
C1515 C1512 1.386 . S
C1516 C1511 1.490 . S
C1516 C1518 1.395 . S
C1516 C1519 1.403 . S
H1517 C1523 0.930 . S
C1518 H1504 0.930 . S
C1518 C1516 1.395 . S
C1518 C1521 1.403 . S
C1519 C1516 1.403 . S
C1519 C1520 1.524 . S
C1519 C1523 1.400 . S
C1520 H1505 0.960 . S
C1520 H1506 0.960 . S
C1520 H1507 0.960 . S
C1520 C1519 1.524 . S
C1521 C1518 1.403 . S
C1521 C1522 1.392 . S
C1521 C1525 1.495 . S
C1522 C1521 1.392 . S
C1522 C1523 1.385 . S
C1522 C1524 1.478 . S
C1523 H1517 0.930 . S
C1523 C1519 1.400 . S
C1523 C1522 1.385 . S
C1524 C1522 1.478 . S
C1524 C1526 1.381 . S
C1524 C1530 1.383 . S
C1525 C1521 1.495 . S
C1525 H1531 0.959 . S
C1525 H1532 0.961 . S
C1525 H1533 0.960 . S
C1526 C1524 1.381 . S
C1526 C1527 1.394 . S
C1526 H1534 0.930 . S
C1527 C1526 1.394 . S
C1527 C1528 1.383 . S
C1527 H1535 0.929 . S
C1528 C1527 1.383 . S
C1528 C1529 1.377 . S
C1529 H1513 0.930 . S
C1529 C1528 1.377 . S
C1529 C1530 1.379 . S
C1530 H1514 0.931 . S
C1530 C1524 1.383 . S
C1530 C1529 1.379 . S
H1531 C1525 0.959 . S
H1532 C1525 0.961 . S
H1533 C1525 0.960 . S
H1534 C1526 0.930 . S
H1535 C1527 0.929 . S
H1536 C1544 0.929 . S
H1537 C1546 0.930 . S
H1538 C1548 0.930 . S
H1539 C1551 0.929 . S
H1540 C1554 0.930 . S
H1541 C1556 0.960 . S
H1542 C1556 0.960 . S
H1543 C1556 0.960 . S
C1544 H1536 0.929 . S
C1544 C1545 1.377 . S
C1544 C1546 1.384 . S
C1545 C1544 1.377 . S
C1545 C1551 1.390 . S
C1546 H1537 0.930 . S
C1546 C1544 1.384 . S
C1546 C1547 1.372 . S
C1547 C1546 1.372 . S
C1547 C1548 1.400 . S
C1547 C1552 1.490 . S
C1548 H1538 0.930 . S
C1548 C1547 1.400 . S
C1548 C1551 1.386 . S
H1549 C1565 0.930 . S
H1550 C1566 0.931 . S
C1551 H1539 0.929 . S
C1551 C1545 1.390 . S
C1551 C1548 1.386 . S
C1552 C1547 1.490 . S
C1552 C1554 1.395 . S
C1552 C1555 1.403 . S
H1553 C1559 0.930 . S
C1554 H1540 0.930 . S
C1554 C1552 1.395 . S
C1554 C1557 1.403 . S
C1555 C1552 1.403 . S
C1555 C1556 1.524 . S
C1555 C1559 1.400 . S
C1556 H1541 0.960 . S
C1556 H1542 0.960 . S
C1556 H1543 0.960 . S
C1556 C1555 1.524 . S
C1557 C1554 1.403 . S
C1557 C1558 1.392 . S
C1557 C1561 1.495 . S
C1558 C1557 1.392 . S
C1558 C1559 1.385 . S
C1558 C1560 1.478 . S
C1559 H1553 0.930 . S
C1559 C1555 1.400 . S
C1559 C1558 1.385 . S
C1560 C1558 1.478 . S
C1560 C1562 1.381 . S
C1560 C1566 1.383 . S
C1561 C1557 1.495 . S
C1561 H1567 0.959 . S
C1561 H1568 0.961 . S
C1561 H1569 0.960 . S
C1562 C1560 1.381 . S
C1562 C1563 1.394 . S
C1562 H1570 0.930 . S
C1563 C1562 1.394 . S
C1563 C1564 1.383 . S
C1563 H1571 0.929 . S
C1564 C1563 1.383 . S
C1564 C1565 1.377 . S
C1565 H1549 0.930 . S
C1565 C1564 1.377 . S
C1565 C1566 1.379 . S
C1566 H1550 0.931 . S
C1566 C1560 1.383 . S
C1566 C1565 1.379 . S
H1567 C1561 0.959 . S
H1568 C1561 0.961 . S
H1569 C1561 0.960 . S
H1570 C1562 0.930 . S
H1571 C1563 0.929 . S
H1572 C1580 0.929 . S
H1573 C1582 0.930 . S
H1574 C1584 0.930 . S
H1575 C1587 0.929 . S
H1576 C1590 0.930 . S
H1577 C1592 0.960 . S
H1578 C1592 0.960 . S
H1579 C1592 0.960 . S
C1580 H1572 0.929 . S
C1580 C1581 1.377 . S
C1580 C1582 1.384 . S
C1581 C1580 1.377 . S
C1581 C1587 1.390 . S
C1582 H1573 0.930 . S
C1582 C1580 1.384 . S
C1582 C1583 1.372 . S
C1583 C1582 1.372 . S
C1583 C1584 1.400 . S
C1583 C1588 1.490 . S
C1584 H1574 0.930 . S
C1584 C1583 1.400 . S
C1584 C1587 1.386 . S
H1585 C1601 0.930 . S
H1586 C1602 0.931 . S
C1587 H1575 0.929 . S
C1587 C1581 1.390 . S
C1587 C1584 1.386 . S
C1588 C1583 1.490 . S
C1588 C1590 1.395 . S
C1588 C1591 1.403 . S
H1589 C1595 0.930 . S
C1590 H1576 0.930 . S
C1590 C1588 1.395 . S
C1590 C1593 1.403 . S
C1591 C1588 1.403 . S
C1591 C1592 1.524 . S
C1591 C1595 1.400 . S
C1592 H1577 0.960 . S
C1592 H1578 0.960 . S
C1592 H1579 0.960 . S
C1592 C1591 1.524 . S
C1593 C1590 1.403 . S
C1593 C1594 1.392 . S
C1593 C1597 1.495 . S
C1594 C1593 1.392 . S
C1594 C1595 1.385 . S
C1594 C1596 1.478 . S
C1595 H1589 0.930 . S
C1595 C1591 1.400 . S
C1595 C1594 1.385 . S
C1596 C1594 1.478 . S
C1596 C1598 1.381 . S
C1596 C1602 1.383 . S
C1597 C1593 1.495 . S
C1597 H1603 0.959 . S
C1597 H1604 0.961 . S
C1597 H1605 0.960 . S
C1598 C1596 1.381 . S
C1598 C1599 1.394 . S
C1598 H1606 0.930 . S
C1599 C1598 1.394 . S
C1599 C1600 1.383 . S
C1599 H1607 0.929 . S
C1600 C1599 1.383 . S
C1600 C1601 1.377 . S
C1601 H1585 0.930 . S
C1601 C1600 1.377 . S
C1601 C1602 1.379 . S
C1602 H1586 0.931 . S
C1602 C1596 1.383 . S
C1602 C1601 1.379 . S
H1603 C1597 0.959 . S
H1604 C1597 0.961 . S
H1605 C1597 0.960 . S
H1606 C1598 0.930 . S
H1607 C1599 0.929 . S
H1608 C1616 0.929 . S
H1609 C1618 0.930 . S
H1610 C1620 0.930 . S
H1611 C1623 0.929 . S
H1612 C1626 0.930 . S
H1613 C1628 0.960 . S
H1614 C1628 0.960 . S
H1615 C1628 0.960 . S
C1616 H1608 0.929 . S
C1616 C1617 1.377 . S
C1616 C1618 1.384 . S
C1617 C1616 1.377 . S
C1617 C1623 1.390 . S
C1618 H1609 0.930 . S
C1618 C1616 1.384 . S
C1618 C1619 1.372 . S
C1619 C1618 1.372 . S
C1619 C1620 1.400 . S
C1619 C1624 1.490 . S
C1620 H1610 0.930 . S
C1620 C1619 1.400 . S
C1620 C1623 1.386 . S
H1621 C1637 0.930 . S
H1622 C1638 0.931 . S
C1623 H1611 0.929 . S
C1623 C1617 1.390 . S
C1623 C1620 1.386 . S
C1624 C1619 1.490 . S
C1624 C1626 1.395 . S
C1624 C1627 1.403 . S
H1625 C1631 0.930 . S
C1626 H1612 0.930 . S
C1626 C1624 1.395 . S
C1626 C1629 1.403 . S
C1627 C1624 1.403 . S
C1627 C1628 1.524 . S
C1627 C1631 1.400 . S
C1628 H1613 0.960 . S
C1628 H1614 0.960 . S
C1628 H1615 0.960 . S
C1628 C1627 1.524 . S
C1629 C1626 1.403 . S
C1629 C1630 1.392 . S
C1629 C1633 1.495 . S
C1630 C1629 1.392 . S
C1630 C1631 1.385 . S
C1630 C1632 1.478 . S
C1631 H1625 0.930 . S
C1631 C1627 1.400 . S
C1631 C1630 1.385 . S
C1632 C1630 1.478 . S
C1632 C1634 1.381 . S
C1632 C1638 1.383 . S
C1633 C1629 1.495 . S
C1633 H1639 0.959 . S
C1633 H1640 0.961 . S
C1633 H1641 0.960 . S
C1634 C1632 1.381 . S
C1634 C1635 1.394 . S
C1634 H1642 0.930 . S
C1635 C1634 1.394 . S
C1635 C1636 1.383 . S
C1635 H1643 0.929 . S
C1636 C1635 1.383 . S
C1636 C1637 1.377 . S
C1637 H1621 0.930 . S
C1637 C1636 1.377 . S
C1637 C1638 1.379 . S
C1638 H1622 0.931 . S
C1638 C1632 1.383 . S
C1638 C1637 1.379 . S
H1639 C1633 0.959 . S
H1640 C1633 0.961 . S
H1641 C1633 0.960 . S
H1642 C1634 0.930 . S
H1643 C1635 0.929 . S
H1644 C1652 0.929 . S
H1645 C1654 0.930 . S
H1646 C1656 0.930 . S
H1647 C1659 0.929 . S
H1648 C1662 0.930 . S
H1649 C1664 0.960 . S
H1650 C1664 0.960 . S
H1651 C1664 0.960 . S
C1652 H1644 0.929 . S
C1652 C1653 1.377 . S
C1652 C1654 1.384 . S
C1653 C1652 1.377 . S
C1653 C1659 1.390 . S
C1654 H1645 0.930 . S
C1654 C1652 1.384 . S
C1654 C1655 1.372 . S
C1655 C1654 1.372 . S
C1655 C1656 1.400 . S
C1655 C1660 1.490 . S
C1656 H1646 0.930 . S
C1656 C1655 1.400 . S
C1656 C1659 1.386 . S
H1657 C1673 0.930 . S
H1658 C1674 0.931 . S
C1659 H1647 0.929 . S
C1659 C1653 1.390 . S
C1659 C1656 1.386 . S
C1660 C1655 1.490 . S
C1660 C1662 1.395 . S
C1660 C1663 1.403 . S
H1661 C1667 0.930 . S
C1662 H1648 0.930 . S
C1662 C1660 1.395 . S
C1662 C1665 1.403 . S
C1663 C1660 1.403 . S
C1663 C1664 1.524 . S
C1663 C1667 1.400 . S
C1664 H1649 0.960 . S
C1664 H1650 0.960 . S
C1664 H1651 0.960 . S
C1664 C1663 1.524 . S
C1665 C1662 1.403 . S
C1665 C1666 1.392 . S
C1665 C1669 1.495 . S
C1666 C1665 1.392 . S
C1666 C1667 1.385 . S
C1666 C1668 1.478 . S
C1667 H1661 0.930 . S
C1667 C1663 1.400 . S
C1667 C1666 1.385 . S
C1668 C1666 1.478 . S
C1668 C1670 1.381 . S
C1668 C1674 1.383 . S
C1669 C1665 1.495 . S
C1669 H1675 0.959 . S
C1669 H1676 0.961 . S
C1669 H1677 0.960 . S
C1670 C1668 1.381 . S
C1670 C1671 1.394 . S
C1670 H1678 0.930 . S
C1671 C1670 1.394 . S
C1671 C1672 1.383 . S
C1671 H1679 0.929 . S
C1672 C1671 1.383 . S
C1672 C1673 1.377 . S
C1673 H1657 0.930 . S
C1673 C1672 1.377 . S
C1673 C1674 1.379 . S
C1674 H1658 0.931 . S
C1674 C1668 1.383 . S
C1674 C1673 1.379 . S
H1675 C1669 0.959 . S
H1676 C1669 0.961 . S
H1677 C1669 0.960 . S
H1678 C1670 0.930 . S
H1679 C1671 0.929 . S
H1680 C1688 0.929 1_455 S
H1681 C1690 0.913 1_455 S
H1682 C1692 0.930 . S
H1683 C1695 0.929 . S
H1684 C1698 0.930 . S
H1685 C1700 0.953 1_455 S
H1686 C1700 0.960 1_455 S
H1687 C1700 0.960 . S
C1688 H1680 0.929 1_655 S
C1688 C1689 1.377 . S
C1688 C1690 1.390 . S
C1689 C1688 1.377 . S
C1689 C1695 1.390 . S
C1690 H1681 0.913 1_655 S
C1690 C1688 1.390 . S
C1690 C1691 1.383 . S
C1691 C1690 1.383 . S
C1691 C1692 1.400 . S
C1691 C1696 1.490 . S
C1692 H1682 0.930 . S
C1692 C1691 1.400 . S
C1692 C1695 1.386 . S
H1693 C1709 0.930 1_655 S
H1694 C1710 0.927 . S
C1695 H1683 0.929 . S
C1695 C1689 1.390 . S
C1695 C1692 1.386 . S
C1696 C1691 1.490 . S
C1696 C1698 1.395 . S
C1696 C1699 1.403 . S
H1697 C1703 0.930 . S
C1698 H1684 0.930 . S
C1698 C1696 1.395 . S
C1698 C1701 1.403 1_655 S
C1699 C1696 1.403 . S
C1699 C1700 1.524 . S
C1699 C1703 1.400 1_655 S
C1700 H1685 0.953 1_655 S
C1700 H1686 0.960 1_655 S
C1700 H1687 0.960 . S
C1700 C1699 1.524 . S
C1701 C1698 1.403 1_455 S
C1701 C1702 1.392 . S
C1701 C1705 1.495 . S
C1702 C1701 1.392 . S
C1702 C1703 1.385 . S
C1702 C1704 1.478 . S
C1703 H1697 0.930 . S
C1703 C1699 1.400 1_455 S
C1703 C1702 1.385 . S
C1704 C1702 1.478 . S
C1704 C1706 1.381 . S
C1704 C1710 1.385 1_455 S
C1705 C1701 1.495 . S
C1705 H1711 0.959 . S
C1705 H1712 0.961 1_455 S
C1705 H1713 0.960 . S
C1706 C1704 1.381 . S
C1706 C1707 1.394 . S
C1706 H1714 0.930 . S
C1707 C1706 1.394 . S
C1707 C1708 1.383 . S
C1707 H1715 0.929 . S
C1708 C1707 1.383 . S
C1708 C1709 1.377 . S
C1709 H1693 0.930 1_455 S
C1709 C1708 1.377 . S
C1709 C1710 1.381 1_455 S
C1710 H1694 0.927 . S
C1710 C1704 1.385 1_655 S
C1710 C1709 1.381 1_655 S
H1711 C1705 0.959 . S
H1712 C1705 0.961 1_655 S
H1713 C1705 0.960 . S
H1714 C1706 0.930 . S
H1715 C1707 0.929 . S
H1716 C1724 0.929 . S
H1717 C1726 0.930 . S
H1718 C1728 0.930 1_545 S
H1719 C1731 0.929 . S
H1720 C1734 0.930 . S
H1721 C1736 0.960 . S
H1722 C1736 0.960 . S
H1723 C1736 0.960 . S
C1724 H1716 0.929 . S
C1724 C1725 1.377 . S
C1724 C1726 1.384 . S
C1725 C1724 1.377 . S
C1725 C1731 1.390 . S
C1726 H1717 0.930 . S
C1726 C1724 1.384 . S
C1726 C1727 1.372 . S
C1727 C1726 1.372 . S
C1727 C1728 1.400 . S
C1727 C1732 1.490 . S
C1728 H1718 0.930 1_565 S
C1728 C1727 1.400 . S
C1728 C1731 1.386 . S
H1729 C1745 0.930 . S
H1730 C1746 0.931 . S
C1731 H1719 0.929 . S
C1731 C1725 1.390 . S
C1731 C1728 1.386 . S
C1732 C1727 1.490 . S
C1732 C1734 1.395 . S
C1732 C1735 1.403 1_565 S
H1733 C1739 0.930 . S
C1734 H1720 0.930 . S
C1734 C1732 1.395 . S
C1734 C1737 1.403 . S
C1735 C1732 1.403 1_545 S
C1735 C1736 1.524 . S
C1735 C1739 1.400 . S
C1736 H1721 0.960 . S
C1736 H1722 0.960 . S
C1736 H1723 0.960 . S
C1736 C1735 1.524 . S
C1737 C1734 1.403 . S
C1737 C1738 1.392 1_565 S
C1737 C1741 1.495 . S
C1738 C1737 1.392 1_545 S
C1738 C1739 1.385 . S
C1738 C1740 1.478 . S
C1739 H1733 0.930 . S
C1739 C1735 1.400 . S
C1739 C1738 1.385 . S
C1740 C1738 1.478 . S
C1740 C1742 1.381 . S
C1740 C1746 1.383 . S
C1741 C1737 1.495 . S
C1741 H1747 0.959 . S
C1741 H1748 0.961 . S
C1741 H1749 0.960 . S
C1742 C1740 1.381 . S
C1742 C1743 1.394 . S
C1742 H1750 0.930 1_545 S
C1743 C1742 1.394 . S
C1743 C1744 1.383 . S
C1743 H1751 0.929 . S
C1744 C1743 1.383 . S
C1744 C1745 1.377 . S
C1745 H1729 0.930 . S
C1745 C1744 1.377 . S
C1745 C1746 1.379 . S
C1746 H1730 0.931 . S
C1746 C1740 1.383 . S
C1746 C1745 1.379 . S
H1747 C1741 0.959 . S
H1748 C1741 0.961 . S
H1749 C1741 0.960 . S
H1750 C1742 0.930 1_565 S
H1751 C1743 0.929 . S
H1752 C1760 0.929 . S
H1753 C1762 0.930 . S
H1754 C1764 0.930 . S
H1755 C1767 0.929 . S
H1756 C1770 0.930 . S
H1757 C1772 0.960 1_565 S
H1758 C1772 0.960 . S
H1759 C1772 0.960 . S
C1760 H1752 0.929 . S
C1760 C1761 1.377 . S
C1760 C1762 1.384 . S
C1761 C1760 1.377 . S
C1761 C1767 1.390 . S
C1762 H1753 0.930 . S
C1762 C1760 1.384 . S
C1762 C1763 1.372 . S
C1763 C1762 1.372 . S
C1763 C1764 1.400 . S
C1763 C1768 1.490 . S
C1764 H1754 0.930 . S
C1764 C1763 1.400 . S
C1764 C1767 1.386 . S
H1765 C1781 0.930 . S
H1766 C1782 0.931 . S
C1767 H1755 0.929 . S
C1767 C1761 1.390 . S
C1767 C1764 1.386 . S
C1768 C1763 1.490 . S
C1768 C1770 1.395 . S
C1768 C1771 1.403 . S
H1769 C1775 0.930 . S
C1770 H1756 0.930 . S
C1770 C1768 1.395 . S
C1770 C1773 1.403 1_545 S
C1771 C1768 1.403 . S
C1771 C1772 1.524 . S
C1771 C1775 1.400 1_545 S
C1772 H1757 0.960 1_545 S
C1772 H1758 0.960 . S
C1772 H1759 0.960 . S
C1772 C1771 1.524 . S
C1773 C1770 1.403 1_565 S
C1773 C1774 1.392 . S
C1773 C1777 1.495 . S
C1774 C1773 1.392 . S
C1774 C1775 1.385 . S
C1774 C1776 1.478 . S
C1775 H1769 0.930 . S
C1775 C1771 1.400 1_565 S
C1775 C1774 1.385 . S
C1776 C1774 1.478 . S
C1776 C1778 1.381 . S
C1776 C1782 1.383 . S
C1777 C1773 1.495 . S
C1777 H1783 0.959 1_565 S
C1777 H1784 0.961 . S
C1777 H1785 0.960 . S
C1778 C1776 1.381 . S
C1778 C1779 1.394 . S
C1778 H1786 0.930 . S
C1779 C1778 1.394 . S
C1779 C1780 1.383 . S
C1779 H1787 0.929 . S
C1780 C1779 1.383 . S
C1780 C1781 1.377 . S
C1781 H1765 0.930 . S
C1781 C1780 1.377 . S
C1781 C1782 1.379 . S
C1782 H1766 0.931 . S
C1782 C1776 1.383 . S
C1782 C1781 1.379 . S
H1783 C1777 0.959 1_545 S
H1784 C1777 0.961 . S
H1785 C1777 0.960 . S
H1786 C1778 0.930 . S
H1787 C1779 0.929 . S
H1788 C1796 0.929 . S
H1789 C1798 0.930 . S
H1790 C1800 0.930 . S
H1791 C1803 0.929 . S
H1792 C1806 0.930 . S
H1793 C1808 0.960 . S
H1794 C1808 0.960 . S
H1795 C1808 0.960 . S
C1796 H1788 0.929 . S
C1796 C1797 1.377 . S
C1796 C1798 1.384 . S
C1797 C1796 1.377 . S
C1797 C1803 1.390 . S
C1798 H1789 0.930 . S
C1798 C1796 1.384 . S
C1798 C1799 1.372 . S
C1799 C1798 1.372 . S
C1799 C1800 1.400 . S
C1799 C1804 1.490 . S
C1800 H1790 0.930 . S
C1800 C1799 1.400 . S
C1800 C1803 1.386 . S
H1801 C1817 0.930 . S
H1802 C1818 0.931 . S
C1803 H1791 0.929 . S
C1803 C1797 1.390 . S
C1803 C1800 1.386 . S
C1804 C1799 1.490 . S
C1804 C1806 1.395 . S
C1804 C1807 1.403 . S
H1805 C1811 0.930 . S
C1806 H1792 0.930 . S
C1806 C1804 1.395 . S
C1806 C1809 1.403 1_655 S
C1807 C1804 1.403 . S
C1807 C1808 1.524 . S
C1807 C1811 1.400 1_655 S
C1808 H1793 0.960 . S
C1808 H1794 0.960 . S
C1808 H1795 0.960 . S
C1808 C1807 1.524 . S
C1809 C1806 1.403 1_455 S
C1809 C1810 1.392 . S
C1809 C1813 1.495 . S
C1810 C1809 1.392 . S
C1810 C1811 1.385 . S
C1810 C1812 1.478 . S
C1811 H1805 0.930 . S
C1811 C1807 1.400 1_455 S
C1811 C1810 1.385 . S
C1812 C1810 1.478 . S
C1812 C1814 1.381 . S
C1812 C1818 1.383 . S
C1813 C1809 1.495 . S
C1813 H1819 0.959 . S
C1813 H1820 0.961 . S
C1813 H1821 0.960 . S
C1814 C1812 1.381 . S
C1814 C1815 1.394 . S
C1814 H1822 0.930 . S
C1815 C1814 1.394 . S
C1815 C1816 1.383 . S
C1815 H1823 0.929 . S
C1816 C1815 1.383 . S
C1816 C1817 1.377 . S
C1817 H1801 0.930 . S
C1817 C1816 1.377 . S
C1817 C1818 1.379 . S
C1818 H1802 0.931 . S
C1818 C1812 1.383 . S
C1818 C1817 1.379 . S
H1819 C1813 0.959 . S
H1820 C1813 0.961 . S
H1821 C1813 0.960 . S
H1822 C1814 0.930 . S
H1823 C1815 0.929 . S
H1824 C1832 0.929 1_455 S
H1825 C1834 0.930 . S
H1826 C1836 0.930 . S
H1827 C1839 0.929 . S
H1828 C1842 0.930 . S
H1829 C1844 0.960 . S
H1830 C1844 0.960 . S
H1831 C1844 0.960 . S
C1832 H1824 0.929 1_655 S
C1832 C1833 1.377 . S
C1832 C1834 1.384 1_655 S
C1833 C1832 1.377 . S
C1833 C1839 1.390 . S
C1834 H1825 0.930 . S
C1834 C1832 1.384 1_455 S
C1834 C1835 1.372 1_455 S
C1835 C1834 1.372 1_655 S
C1835 C1836 1.400 . S
C1835 C1840 1.490 . S
C1836 H1826 0.930 . S
C1836 C1835 1.400 . S
C1836 C1839 1.386 . S
H1837 C1853 0.930 1_655 S
H1838 C1854 0.931 1_655 S
C1839 H1827 0.929 . S
C1839 C1833 1.390 . S
C1839 C1836 1.386 . S
C1840 C1835 1.490 . S
C1840 C1842 1.395 1_655 S
C1840 C1843 1.403 . S
H1841 C1847 0.930 . S
C1842 H1828 0.930 . S
C1842 C1840 1.395 1_455 S
C1842 C1845 1.403 . S
C1843 C1840 1.403 . S
C1843 C1844 1.524 . S
C1843 C1847 1.400 . S
C1844 H1829 0.960 . S
C1844 H1830 0.960 . S
C1844 H1831 0.960 . S
C1844 C1843 1.524 . S
C1845 C1842 1.403 . S
C1845 C1846 1.392 . S
C1845 C1849 1.495 . S
C1846 C1845 1.392 . S
C1846 C1847 1.385 1_455 S
C1846 C1848 1.478 . S
C1847 H1841 0.930 . S
C1847 C1843 1.400 . S
C1847 C1846 1.385 1_655 S
C1848 C1846 1.478 . S
C1848 C1850 1.381 . S
C1848 C1854 1.383 . S
C1849 C1845 1.495 . S
C1849 H1855 0.959 . S
C1849 H1856 0.961 . S
C1849 H1857 0.960 . S
C1850 C1848 1.381 . S
C1850 C1851 1.394 . S
C1850 H1858 0.930 . S
C1851 C1850 1.394 . S
C1851 C1852 1.383 . S
C1851 H1859 0.929 . S
C1852 C1851 1.383 . S
C1852 C1853 1.377 . S
C1853 H1837 0.930 1_455 S
C1853 C1852 1.377 . S
C1853 C1854 1.379 . S
C1854 H1838 0.931 1_455 S
C1854 C1848 1.383 . S
C1854 C1853 1.379 . S
H1855 C1849 0.959 . S
H1856 C1849 0.961 . S
H1857 C1849 0.960 . S
H1858 C1850 0.930 . S
H1859 C1851 0.929 . S
H1860 C1868 0.929 . S
H1861 C1870 0.930 1_565 S
H1862 C1872 0.930 . S
H1863 C1875 0.929 . S
H1864 C1878 0.930 . S
H1865 C1880 0.960 . S
H1866 C1880 0.960 . S
H1867 C1880 0.960 1_545 S
C1868 H1860 0.929 . S
C1868 C1869 1.377 . S
C1868 C1870 1.384 . S
C1869 C1868 1.377 . S
C1869 C1875 1.390 . S
C1870 H1861 0.930 1_545 S
C1870 C1868 1.384 . S
C1870 C1871 1.372 . S
C1871 C1870 1.372 . S
C1871 C1872 1.400 . S
C1871 C1876 1.490 . S
C1872 H1862 0.930 . S
C1872 C1871 1.400 . S
C1872 C1875 1.386 . S
H1873 C1889 0.930 . S
H1874 C1890 0.931 1_545 S
C1875 H1863 0.929 . S
C1875 C1869 1.390 . S
C1875 C1872 1.386 . S
C1876 C1871 1.490 . S
C1876 C1878 1.395 . S
C1876 C1879 1.403 1_545 S
H1877 C1883 0.930 . S
C1878 H1864 0.930 . S
C1878 C1876 1.395 . S
C1878 C1881 1.403 . S
C1879 C1876 1.403 1_565 S
C1879 C1880 1.524 . S
C1879 C1883 1.400 . S
C1880 H1865 0.960 . S
C1880 H1866 0.960 . S
C1880 H1867 0.960 1_565 S
C1880 C1879 1.524 . S
C1881 C1878 1.403 . S
C1881 C1882 1.392 1_545 S
C1881 C1885 1.495 . S
C1882 C1881 1.392 1_565 S
C1882 C1883 1.385 . S
C1882 C1884 1.478 . S
C1883 H1877 0.930 . S
C1883 C1879 1.400 . S
C1883 C1882 1.385 . S
C1884 C1882 1.478 . S
C1884 C1886 1.381 . S
C1884 C1890 1.383 . S
C1885 C1881 1.495 . S
C1885 H1891 0.959 . S
C1885 H1892 0.961 . S
C1885 H1893 0.960 1_545 S
C1886 C1884 1.381 . S
C1886 C1887 1.394 . S
C1886 H1894 0.930 . S
C1887 C1886 1.394 . S
C1887 C1888 1.383 . S
C1887 H1895 0.929 . S
C1888 C1887 1.383 . S
C1888 C1889 1.377 . S
C1889 H1873 0.930 . S
C1889 C1888 1.377 . S
C1889 C1890 1.379 . S
C1890 H1874 0.931 1_565 S
C1890 C1884 1.383 . S
C1890 C1889 1.379 . S
H1891 C1885 0.959 . S
H1892 C1885 0.961 . S
H1893 C1885 0.960 1_565 S
H1894 C1886 0.930 . S
H1895 C1887 0.929 . S
H1896 C1904 0.929 . S
H1897 C1906 0.930 . S
H1898 C1908 0.930 . S
H1899 C1911 0.929 . S
H1900 C1914 0.930 . S
H1901 C1916 0.960 . S
H1902 C1916 0.960 . S
H1903 C1916 0.960 . S
C1904 H1896 0.929 . S
C1904 C1905 1.377 . S
C1904 C1906 1.384 . S
C1905 C1904 1.377 . S
C1905 C1911 1.390 . S
C1906 H1897 0.930 . S
C1906 C1904 1.384 . S
C1906 C1907 1.372 . S
C1907 C1906 1.372 . S
C1907 C1908 1.400 . S
C1907 C1912 1.490 . S
C1908 H1898 0.930 . S
C1908 C1907 1.400 . S
C1908 C1911 1.386 . S
H1909 C1925 0.930 . S
H1910 C1926 0.931 . S
C1911 H1899 0.929 . S
C1911 C1905 1.390 . S
C1911 C1908 1.386 . S
C1912 C1907 1.490 . S
C1912 C1914 1.395 . S
C1912 C1915 1.403 . S
H1913 C1919 0.930 . S
C1914 H1900 0.930 . S
C1914 C1912 1.395 . S
C1914 C1917 1.403 1_565 S
C1915 C1912 1.403 . S
C1915 C1916 1.524 . S
C1915 C1919 1.400 1_565 S
C1916 H1901 0.960 . S
C1916 H1902 0.960 . S
C1916 H1903 0.960 . S
C1916 C1915 1.524 . S
C1917 C1914 1.403 1_545 S
C1917 C1918 1.392 . S
C1917 C1921 1.495 . S
C1918 C1917 1.392 . S
C1918 C1919 1.385 . S
C1918 C1920 1.478 . S
C1919 H1913 0.930 . S
C1919 C1915 1.400 1_545 S
C1919 C1918 1.385 . S
C1920 C1918 1.478 . S
C1920 C1922 1.381 . S
C1920 C1926 1.383 . S
C1921 C1917 1.495 . S
C1921 H1927 0.959 . S
C1921 H1928 0.961 . S
C1921 H1929 0.960 . S
C1922 C1920 1.381 . S
C1922 C1923 1.394 . S
C1922 H1930 0.930 . S
C1923 C1922 1.394 . S
C1923 C1924 1.383 . S
C1923 H1931 0.929 . S
C1924 C1923 1.383 . S
C1924 C1925 1.377 . S
C1925 H1909 0.930 . S
C1925 C1924 1.377 . S
C1925 C1926 1.379 . S
C1926 H1910 0.931 . S
C1926 C1920 1.383 . S
C1926 C1925 1.379 . S
H1927 C1921 0.959 . S
H1928 C1921 0.961 . S
H1929 C1921 0.960 . S
H1930 C1922 0.930 . S
H1931 C1923 0.929 . S
H1932 C1940 0.929 . S
H1933 C1942 0.930 . S
H1934 C1944 0.930 . S
H1935 C1947 0.929 . S
H1936 C1950 0.930 . S
H1937 C1952 0.960 1_455 S
H1938 C1952 0.960 . S
H1939 C1952 0.960 . S
C1940 H1932 0.929 . S
C1940 C1941 1.377 . S
C1940 C1942 1.384 . S
C1941 C1940 1.377 . S
C1941 C1947 1.390 . S
C1942 H1933 0.930 . S
C1942 C1940 1.384 . S
C1942 C1943 1.372 . S
C1943 C1942 1.372 . S
C1943 C1944 1.400 . S
C1943 C1948 1.490 . S
C1944 H1934 0.930 . S
C1944 C1943 1.400 . S
C1944 C1947 1.386 . S
H1945 C1961 0.930 . S
H1946 C1962 0.931 . S
C1947 H1935 0.929 . S
C1947 C1941 1.390 . S
C1947 C1944 1.386 . S
C1948 C1943 1.490 . S
C1948 C1950 1.395 . S
C1948 C1951 1.403 . S
H1949 C1955 0.930 . S
C1950 H1936 0.930 . S
C1950 C1948 1.395 . S
C1950 C1953 1.403 1_655 S
C1951 C1948 1.403 . S
C1951 C1952 1.524 . S
C1951 C1955 1.400 1_655 S
C1952 H1937 0.960 1_655 S
C1952 H1938 0.960 . S
C1952 H1939 0.960 . S
C1952 C1951 1.524 . S
C1953 C1950 1.403 1_455 S
C1953 C1954 1.392 . S
C1953 C1957 1.495 . S
C1954 C1953 1.392 . S
C1954 C1955 1.385 . S
C1954 C1956 1.478 . S
C1955 H1949 0.930 . S
C1955 C1951 1.400 1_455 S
C1955 C1954 1.385 . S
C1956 C1954 1.478 . S
C1956 C1958 1.381 . S
C1956 C1962 1.383 . S
C1957 C1953 1.495 . S
C1957 H1963 0.959 1_455 S
C1957 H1964 0.961 . S
C1957 H1965 0.960 . S
C1958 C1956 1.381 . S
C1958 C1959 1.394 . S
C1958 H1966 0.930 . S
C1959 C1958 1.394 . S
C1959 C1960 1.383 . S
C1959 H1967 0.929 . S
C1960 C1959 1.383 . S
C1960 C1961 1.377 . S
C1961 H1945 0.930 . S
C1961 C1960 1.377 . S
C1961 C1962 1.379 . S
C1962 H1946 0.931 . S
C1962 C1956 1.383 . S
C1962 C1961 1.379 . S
H1963 C1957 0.959 1_655 S
H1964 C1957 0.961 . S
H1965 C1957 0.960 . S
H1966 C1958 0.930 . S
H1967 C1959 0.929 . S
C537 C358 1.223 . S
C556 C28 1.213 . S
C573 C391 1.221 . S
C592 C61 1.196 . S
C609 C292 1.215 . S
C628 C94 1.219 . S
C645 C325 1.216 . S
C664 C127 1.235 . S
C681 C160 1.223 . S
C700 C490 1.213 . S
C717 C193 1.222 . S
C736 C523 1.198 . S
C753 C424 1.220 . S
C772 C226 1.230 . S
C789 C457 1.215 . S
C808 C259 1.234 . S
C825 C116 1.483 1_545 S
C844 N5 1.498 . S
C861 N38 1.477 . S
C880 C17 1.470 1_655 S
C897 C50 1.486 1_565 S
C916 N71 1.489 . S
C933 N104 1.467 . S
C952 C83 1.473 1_455 S
C969 C182 1.516 . S
C988 N137 1.456 . S
C1005 C215 1.510 . S
C1024 N170 1.457 . S
C1041 C248 1.516 . S
C1060 N203 1.458 . S
C1077 N236 1.472 . S
C1096 C149 1.493 . S
C1113 N269 1.468 . S
C1132 C380 1.463 1_565 S
C1149 N302 1.475 . S
C1168 C281 1.471 1_455 S
C1185 C314 1.479 1_545 S
C1204 N335 1.460 . S
C1221 N368 1.478 . S
C1240 C347 1.483 1_655 S
C1257 N401 1.469 . S
C1276 C446 1.513 . S
C1293 N434 1.469 . S
C1312 C479 1.511 . S
C1329 N467 1.477 . S
C1348 C512 1.505 . S
C1365 C413 1.517 . S
C1384 N500 1.493 . S
C1401 C239 0.688 . S
C1420 C8 0.685 . S
C1437 C41 0.682 . S
C1456 C140 0.712 . S
C1473 C173 0.676 . S
C1492 C74 0.697 . S
C1509 C206 0.685 . S
C1528 C107 0.706 . S
C1545 C272 0.681 . S
C1564 C503 0.666 . S
C1581 C404 0.685 . S
C1600 C305 0.682 . S
C1617 C338 0.681 . S
C1636 C437 0.693 . S
C1653 C470 0.676 . S
C1672 C371 0.659 . S
C1689 N80 1.682 . S
C1708 N14 1.697 . S
C1725 N113 1.688 . S
C1744 N47 1.673 . S
C1761 N146 1.684 . S
C1780 N212 1.677 . S
C1797 N179 1.684 . S
C1816 N245 1.692 . S
C1833 N278 1.687 . S
C1852 N344 1.670 . S
C1869 N377 1.684 . S
C1888 N311 1.664 . S
C1905 N410 1.684 . S
C1924 N476 1.664 . S
C1941 N509 1.688 . S
C1960 N443 1.683 . S
