# Generated by pormake.
# Topology pem, (4)-cn, num edge types: 1
# Building blocks:
#     Node 0, Type 0, BuildingBlock: QUQFOY_clean_sbu_1, # of connection points: 4
#     Node 1, Type 0, BuildingBlock: QUQFOY_clean_sbu_1, # of connection points: 4
#     Node 2, Type 0, BuildingBlock: QUQFOY_clean_sbu_1, # of connection points: 4
#     Node 3, Type 0, BuildingBlock: QUQFOY_clean_sbu_1, # of connection points: 4
#     Node 4, Type 0, BuildingBlock: QUQFOY_clean_sbu_1, # of connection points: 4
#     Node 5, Type 0, BuildingBlock: QUQFOY_clean_sbu_1, # of connection points: 4
#     Node 6, Type 0, BuildingBlock: QUQFOY_clean_sbu_1, # of connection points: 4
#     Node 7, Type 0, BuildingBlock: QUQFOY_clean_sbu_1, # of connection points: 4
#     Node 8, Type 0, BuildingBlock: QUQFOY_clean_sbu_1, # of connection points: 4
#     Node 9, Type 0, BuildingBlock: QUQFOY_clean_sbu_1, # of connection points: 4
#     Node 10, Type 0, BuildingBlock: QUQFOY_clean_sbu_1, # of connection points: 4
#     Node 11, Type 0, BuildingBlock: QUQFOY_clean_sbu_1, # of connection points: 4
#     Node 12, Type 0, BuildingBlock: QUQFOY_clean_sbu_1, # of connection points: 4
#     Node 13, Type 0, BuildingBlock: QUQFOY_clean_sbu_1, # of connection points: 4
#     Node 14, Type 0, BuildingBlock: QUQFOY_clean_sbu_1, # of connection points: 4
#     Node 15, Type 0, BuildingBlock: QUQFOY_clean_sbu_1, # of connection points: 4
#     Node 16, Type 0, BuildingBlock: QUQFOY_clean_sbu_1, # of connection points: 4
#     Node 17, Type 0, BuildingBlock: QUQFOY_clean_sbu_1, # of connection points: 4
#     Node 18, Type 0, BuildingBlock: QUQFOY_clean_sbu_1, # of connection points: 4
#     Node 19, Type 0, BuildingBlock: QUQFOY_clean_sbu_1, # of connection points: 4
#     Node 20, Type 0, BuildingBlock: QUQFOY_clean_sbu_1, # of connection points: 4
#     Node 21, Type 0, BuildingBlock: QUQFOY_clean_sbu_1, # of connection points: 4
#     Node 22, Type 0, BuildingBlock: QUQFOY_clean_sbu_1, # of connection points: 4
#     Node 23, Type 0, BuildingBlock: QUQFOY_clean_sbu_1, # of connection points: 4
#     Node 24, Type 0, BuildingBlock: QUQFOY_clean_sbu_1, # of connection points: 4
#     Node 25, Type 0, BuildingBlock: QUQFOY_clean_sbu_1, # of connection points: 4
#     Node 26, Type 0, BuildingBlock: QUQFOY_clean_sbu_1, # of connection points: 4
#     Node 27, Type 0, BuildingBlock: QUQFOY_clean_sbu_1, # of connection points: 4
#     Node 28, Type 0, BuildingBlock: QUQFOY_clean_sbu_1, # of connection points: 4
#     Node 29, Type 0, BuildingBlock: QUQFOY_clean_sbu_1, # of connection points: 4
#     Node 30, Type 0, BuildingBlock: QUQFOY_clean_sbu_1, # of connection points: 4
#     Node 31, Type 0, BuildingBlock: QUQFOY_clean_sbu_1, # of connection points: 4
#     Edge 32, Type (0, 0), BuildingBlock: ZUJKAS_clean_linker_0, # of connection points: 2
#     Edge 33, Type (0, 0), BuildingBlock: ZUJKAS_clean_linker_0, # of connection points: 2
#     Edge 34, Type (0, 0), BuildingBlock: ZUJKAS_clean_linker_0, # of connection points: 2
#     Edge 35, Type (0, 0), BuildingBlock: ZUJKAS_clean_linker_0, # of connection points: 2
#     Edge 36, Type (0, 0), BuildingBlock: ZUJKAS_clean_linker_0, # of connection points: 2
#     Edge 37, Type (0, 0), BuildingBlock: ZUJKAS_clean_linker_0, # of connection points: 2
#     Edge 38, Type (0, 0), BuildingBlock: ZUJKAS_clean_linker_0, # of connection points: 2
#     Edge 39, Type (0, 0), BuildingBlock: ZUJKAS_clean_linker_0, # of connection points: 2
#     Edge 40, Type (0, 0), BuildingBlock: ZUJKAS_clean_linker_0, # of connection points: 2
#     Edge 41, Type (0, 0), BuildingBlock: ZUJKAS_clean_linker_0, # of connection points: 2
#     Edge 42, Type (0, 0), BuildingBlock: ZUJKAS_clean_linker_0, # of connection points: 2
#     Edge 43, Type (0, 0), BuildingBlock: ZUJKAS_clean_linker_0, # of connection points: 2
#     Edge 44, Type (0, 0), BuildingBlock: ZUJKAS_clean_linker_0, # of connection points: 2
#     Edge 45, Type (0, 0), BuildingBlock: ZUJKAS_clean_linker_0, # of connection points: 2
#     Edge 46, Type (0, 0), BuildingBlock: ZUJKAS_clean_linker_0, # of connection points: 2
#     Edge 47, Type (0, 0), BuildingBlock: ZUJKAS_clean_linker_0, # of connection points: 2
#     Edge 48, Type (0, 0), BuildingBlock: ZUJKAS_clean_linker_0, # of connection points: 2
#     Edge 49, Type (0, 0), BuildingBlock: ZUJKAS_clean_linker_0, # of connection points: 2
#     Edge 50, Type (0, 0), BuildingBlock: ZUJKAS_clean_linker_0, # of connection points: 2
#     Edge 51, Type (0, 0), BuildingBlock: ZUJKAS_clean_linker_0, # of connection points: 2
#     Edge 52, Type (0, 0), BuildingBlock: ZUJKAS_clean_linker_0, # of connection points: 2
#     Edge 53, Type (0, 0), BuildingBlock: ZUJKAS_clean_linker_0, # of connection points: 2
#     Edge 54, Type (0, 0), BuildingBlock: ZUJKAS_clean_linker_0, # of connection points: 2
#     Edge 55, Type (0, 0), BuildingBlock: ZUJKAS_clean_linker_0, # of connection points: 2
#     Edge 56, Type (0, 0), BuildingBlock: ZUJKAS_clean_linker_0, # of connection points: 2
#     Edge 57, Type (0, 0), BuildingBlock: ZUJKAS_clean_linker_0, # of connection points: 2
#     Edge 58, Type (0, 0), BuildingBlock: ZUJKAS_clean_linker_0, # of connection points: 2
#     Edge 59, Type (0, 0), BuildingBlock: ZUJKAS_clean_linker_0, # of connection points: 2
#     Edge 60, Type (0, 0), BuildingBlock: ZUJKAS_clean_linker_0, # of connection points: 2
#     Edge 61, Type (0, 0), BuildingBlock: ZUJKAS_clean_linker_0, # of connection points: 2
#     Edge 62, Type (0, 0), BuildingBlock: ZUJKAS_clean_linker_0, # of connection points: 2
#     Edge 63, Type (0, 0), BuildingBlock: ZUJKAS_clean_linker_0, # of connection points: 2
#     Edge 64, Type (0, 0), BuildingBlock: ZUJKAS_clean_linker_0, # of connection points: 2
#     Edge 65, Type (0, 0), BuildingBlock: ZUJKAS_clean_linker_0, # of connection points: 2
#     Edge 66, Type (0, 0), BuildingBlock: ZUJKAS_clean_linker_0, # of connection points: 2
#     Edge 67, Type (0, 0), BuildingBlock: ZUJKAS_clean_linker_0, # of connection points: 2
#     Edge 68, Type (0, 0), BuildingBlock: ZUJKAS_clean_linker_0, # of connection points: 2
#     Edge 69, Type (0, 0), BuildingBlock: ZUJKAS_clean_linker_0, # of connection points: 2
#     Edge 70, Type (0, 0), BuildingBlock: ZUJKAS_clean_linker_0, # of connection points: 2
#     Edge 71, Type (0, 0), BuildingBlock: ZUJKAS_clean_linker_0, # of connection points: 2
#     Edge 72, Type (0, 0), BuildingBlock: ZUJKAS_clean_linker_0, # of connection points: 2
#     Edge 73, Type (0, 0), BuildingBlock: ZUJKAS_clean_linker_0, # of connection points: 2
#     Edge 74, Type (0, 0), BuildingBlock: ZUJKAS_clean_linker_0, # of connection points: 2
#     Edge 75, Type (0, 0), BuildingBlock: ZUJKAS_clean_linker_0, # of connection points: 2
#     Edge 76, Type (0, 0), BuildingBlock: ZUJKAS_clean_linker_0, # of connection points: 2
#     Edge 77, Type (0, 0), BuildingBlock: ZUJKAS_clean_linker_0, # of connection points: 2
#     Edge 78, Type (0, 0), BuildingBlock: ZUJKAS_clean_linker_0, # of connection points: 2
#     Edge 79, Type (0, 0), BuildingBlock: ZUJKAS_clean_linker_0, # of connection points: 2
#     Edge 80, Type (0, 0), BuildingBlock: ZUJKAS_clean_linker_0, # of connection points: 2
#     Edge 81, Type (0, 0), BuildingBlock: ZUJKAS_clean_linker_0, # of connection points: 2
#     Edge 82, Type (0, 0), BuildingBlock: ZUJKAS_clean_linker_0, # of connection points: 2
#     Edge 83, Type (0, 0), BuildingBlock: ZUJKAS_clean_linker_0, # of connection points: 2
#     Edge 84, Type (0, 0), BuildingBlock: ZUJKAS_clean_linker_0, # of connection points: 2
#     Edge 85, Type (0, 0), BuildingBlock: ZUJKAS_clean_linker_0, # of connection points: 2
#     Edge 86, Type (0, 0), BuildingBlock: ZUJKAS_clean_linker_0, # of connection points: 2
#     Edge 87, Type (0, 0), BuildingBlock: ZUJKAS_clean_linker_0, # of connection points: 2
#     Edge 88, Type (0, 0), BuildingBlock: ZUJKAS_clean_linker_0, # of connection points: 2
#     Edge 89, Type (0, 0), BuildingBlock: ZUJKAS_clean_linker_0, # of connection points: 2
#     Edge 90, Type (0, 0), BuildingBlock: ZUJKAS_clean_linker_0, # of connection points: 2
#     Edge 91, Type (0, 0), BuildingBlock: ZUJKAS_clean_linker_0, # of connection points: 2
#     Edge 92, Type (0, 0), BuildingBlock: ZUJKAS_clean_linker_0, # of connection points: 2
#     Edge 93, Type (0, 0), BuildingBlock: ZUJKAS_clean_linker_0, # of connection points: 2
#     Edge 94, Type (0, 0), BuildingBlock: ZUJKAS_clean_linker_0, # of connection points: 2
#     Edge 95, Type (0, 0), BuildingBlock: ZUJKAS_clean_linker_0, # of connection points: 2
# Relax obj value: 0.281
# Max RMSD: 0.273
# Mean RMSD: 0.235
data_MOF--net-pem--node1-QUQFOY_clean_sbu_1--edge1-ZUJKAS_clean_linker_0
_symmetry_space_group_name_H-M    P1
_symmetry_Int_Tables_number       1
_symmetry_cell_setting            triclinic
loop_
_symmetry_equiv_pos_as_xyz
'x, y, z'
_cell_length_a     56.737831
_cell_length_b     57.565077
_cell_length_c     56.71742
_cell_angle_alpha  89.716202
_cell_angle_beta   89.607206
_cell_angle_gamma 95.831197
loop_
_atom_site_label
_atom_site_type_symbol
_atom_site_fract_x
_atom_site_fract_y
_atom_site_fract_z
_atom_type_partial_charge
O0 O 0.10663 0.08363 0.11263 0.0
Cd1 Cd 0.09583 0.10443 0.08586 0.0
Cd2 Cd 0.06901 0.11829 0.1205 0.0
O3 O 0.08852 0.09898 0.14237 0.0
O4 O 0.11658 0.09589 0.05974 0.0
O5 O 0.1163 0.13218 0.07194 0.0
C6 C 0.12439 0.11755 0.05756 0.0
C7 C 0.06359 0.15752 0.12188 0.0
C8 C 0.10183 0.08423 0.13451 0.0
C9 C 0.04315 0.09258 0.08269 0.0
O10 O 0.04165 0.09953 0.10375 0.0
O11 O 0.06297 0.0946 0.07198 0.0
O12 O 0.05421 0.14304 0.13762 0.0
O13 O 0.07825 0.15004 0.1068 0.0
O14 O 0.13928 0.88698 0.30253 0.0
Cd15 Cd 0.14432 0.85651 0.32073 0.0
Cd16 Cd 0.1889 0.88577 0.33134 0.0
O17 O 0.17405 0.90753 0.30791 0.0
O18 O 0.11758 0.83545 0.30782 0.0
O19 O 0.12179 0.84179 0.34589 0.0
C20 C 0.1105 0.83069 0.32901 0.0
C21 C 0.20318 0.89749 0.36837 0.0
C22 C 0.15367 0.90499 0.2985 0.0
C23 C 0.19361 0.83979 0.31018 0.0
O24 O 0.20479 0.85876 0.31691 0.0
O25 O 0.17114 0.83685 0.31093 0.0
O26 O 0.21403 0.9048 0.34927 0.0
O27 O 0.18335 0.88444 0.36644 0.0
O28 O 0.40015 0.93025 0.61126 0.0
Cd29 Cd 0.39907 0.906 0.58392 0.0
Cd30 Cd 0.44623 0.90285 0.61845 0.0
O31 O 0.42902 0.92649 0.63691 0.0
O32 O 0.38545 0.92288 0.55712 0.0
O33 O 0.36629 0.89209 0.57454 0.0
C34 C 0.36698 0.90799 0.55835 0.0
C35 C 0.46983 0.87671 0.63588 0.0
C36 C 0.41117 0.93637 0.63012 0.0
C37 C 0.44816 0.90359 0.56629 0.0
O38 O 0.45705 0.91217 0.58515 0.0
O39 O 0.42721 0.89356 0.56617 0.0
O40 O 0.47704 0.89862 0.63405 0.0
O41 O 0.44849 0.86992 0.62934 0.0
O42 O 0.33802 0.11443 0.79922 0.0
Cd43 Cd 0.3283 0.14397 0.81584 0.0
Cd44 Cd 0.28884 0.11499 0.82361 0.0
O45 O 0.30692 0.08982 0.80861 0.0
O46 O 0.35542 0.16723 0.80841 0.0
O47 O 0.34549 0.1569 0.845 0.0
C48 C 0.35883 0.16987 0.83064 0.0
C49 C 0.27439 0.11646 0.86137 0.0
C50 C 0.32692 0.09413 0.79848 0.0
C51 C 0.28116 0.15537 0.79545 0.0
O52 O 0.27192 0.13515 0.80108 0.0
O53 O 0.3024 0.16197 0.80104 0.0
O54 O 0.26472 0.10164 0.84637 0.0
O55 O 0.29385 0.1289 0.85549 0.0
O56 O 0.12036 0.93821 0.39694 0.0
Cd57 Cd 0.11058 0.91456 0.42365 0.0
Cd58 Cd 0.08371 0.8972 0.38893 0.0
O59 O 0.10856 0.91552 0.36727 0.0
O60 O 0.13539 0.92172 0.44788 0.0
O61 O 0.12878 0.88711 0.43095 0.0
C62 C 0.14079 0.90063 0.44564 0.0
C63 C 0.06656 0.85925 0.38314 0.0
C64 C 0.11961 0.93422 0.37495 0.0
C65 C 0.06027 0.92092 0.42759 0.0
O66 O 0.06009 0.91662 0.40566 0.0
O67 O 0.07852 0.91807 0.4397 0.0
O68 O 0.06287 0.87586 0.36871 0.0
O69 O 0.08191 0.86372 0.39966 0.0
O70 O 0.39247 0.811 0.59939 0.0
Cd71 Cd 0.36096 0.82079 0.61247 0.0
Cd72 Cd 0.39324 0.84092 0.64809 0.0
O73 O 0.41745 0.82873 0.62493 0.0
O74 O 0.338 0.81294 0.58655 0.0
O75 O 0.34474 0.84843 0.60158 0.0
C76 C 0.33321 0.83431 0.58711 0.0
C77 C 0.40074 0.87593 0.66883 0.0
C78 C 0.41346 0.81611 0.60674 0.0
C79 C 0.35385 0.80362 0.6623 0.0
O80 O 0.37225 0.81683 0.6678 0.0
O81 O 0.34634 0.8029 0.64126 0.0
O82 O 0.4123 0.85828 0.67319 0.0
O83 O 0.38616 0.87434 0.65136 0.0
O84 O 0.38636 0.12463 0.90851 0.0
Cd85 Cd 0.42141 0.1222 0.89938 0.0
Cd86 Cd 0.39974 0.07698 0.88132 0.0
O87 O 0.37081 0.08924 0.89836 0.0
O88 O 0.43791 0.15344 0.90774 0.0
O89 O 0.43966 0.13844 0.87212 0.0
C90 C 0.44639 0.15499 0.88662 0.0
C91 C 0.39483 0.05307 0.84766 0.0
C92 C 0.36888 0.10889 0.90811 0.0
C93 C 0.43918 0.07791 0.91742 0.0
O94 O 0.42584 0.06657 0.90269 0.0
O95 O 0.43908 0.09984 0.91953 0.0
O96 O 0.38689 0.04611 0.86807 0.0
O97 O 0.40438 0.07435 0.84586 0.0
O98 O 0.16083 0.18339 0.13132 0.0
Cd99 Cd 0.18792 0.16152 0.12977 0.0
Cd100 Cd 0.15512 0.13963 0.17031 0.0
O101 O 0.13579 0.16551 0.15752 0.0
O102 O 0.20869 0.17302 0.1027 0.0
O103 O 0.19129 0.137 0.10473 0.0
C104 C 0.20577 0.15234 0.09393 0.0
C105 C 0.13839 0.10842 0.19323 0.0
C106 C 0.14145 0.18218 0.14304 0.0
C107 C 0.20786 0.15636 0.17809 0.0
O108 O 0.18736 0.1484 0.18499 0.0
O109 O 0.21183 0.16282 0.15691 0.0
O110 O 0.13744 0.1296 0.19993 0.0
O111 O 0.14632 0.10498 0.17228 0.0
O112 O 0.60952 0.42728 0.8723 0.0
Cd113 Cd 0.6012 0.40403 0.89983 0.0
Cd114 Cd 0.56437 0.39277 0.87043 0.0
O115 O 0.58605 0.41016 0.84537 0.0
O116 O 0.62872 0.4109 0.92104 0.0
O117 O 0.61994 0.3763 0.90501 0.0
C118 C 0.63355 0.38972 0.91843 0.0
C119 C 0.5428 0.35675 0.86386 0.0
C120 C 0.60242 0.4258 0.8511 0.0
C121 C 0.55388 0.41637 0.9148 0.0
O122 O 0.54782 0.41341 0.89345 0.0
O123 O 0.57364 0.41055 0.92185 0.0
O124 O 0.53781 0.37541 0.85314 0.0
O125 O 0.56108 0.35825 0.87745 0.0
O126 O 0.89168 0.32793 0.08369 0.0
Cd127 Cd 0.85745 0.33681 0.08606 0.0
Cd128 Cd 0.88057 0.36072 0.13084 0.0
O129 O 0.90814 0.34512 0.11537 0.0
O130 O 0.84153 0.32449 0.05672 0.0
O131 O 0.84442 0.36177 0.06663 0.0
C132 C 0.83625 0.34535 0.05253 0.0
C133 C 0.88862 0.39175 0.15744 0.0
C134 C 0.90942 0.33246 0.09711 0.0
C135 C 0.83559 0.32585 0.13387 0.0
O136 O 0.85145 0.34013 0.14289 0.0
O137 O 0.83544 0.32168 0.11193 0.0
O138 O 0.89406 0.37109 0.16208 0.0
O139 O 0.88009 0.39534 0.13689 0.0
O140 O 0.87397 0.62132 0.41259 0.0
Cd141 Cd 0.90607 0.61325 0.39894 0.0
Cd142 Cd 0.87913 0.57217 0.386 0.0
O143 O 0.85269 0.58856 0.40262 0.0
O144 O 0.92821 0.64167 0.40428 0.0
O145 O 0.92148 0.62696 0.36882 0.0
C146 C 0.93315 0.64216 0.3821 0.0
C147 C 0.87551 0.55281 0.35009 0.0
C148 C 0.85445 0.60829 0.41291 0.0
C149 C 0.91904 0.56747 0.41882 0.0
O150 O 0.902 0.557 0.40749 0.0
O151 O 0.92322 0.58952 0.41777 0.0
O152 O 0.8635 0.54507 0.36836 0.0
O153 O 0.88806 0.57279 0.35163 0.0
O154 O 0.86518 0.62451 0.30936 0.0
Cd155 Cd 0.85418 0.65053 0.33124 0.0
Cd156 Cd 0.8144 0.61668 0.33295 0.0
O157 O 0.83633 0.59632 0.31559 0.0
O158 O 0.87952 0.67643 0.32572 0.0
O159 O 0.87186 0.66142 0.36108 0.0
C160 C 0.88355 0.67705 0.34799 0.0
C161 C 0.79467 0.60779 0.36801 0.0
C162 C 0.85592 0.60372 0.30584 0.0
C163 C 0.80551 0.66174 0.31387 0.0
O164 O 0.79814 0.64022 0.31347 0.0
O165 O 0.82586 0.66846 0.32193 0.0
O166 O 0.78839 0.59677 0.34893 0.0
O167 O 0.81359 0.62238 0.36754 0.0
O168 O 0.66344 0.39302 0.81573 0.0
Cd169 Cd 0.66783 0.36629 0.83946 0.0
Cd170 Cd 0.71063 0.4006 0.8475 0.0
O171 O 0.6929 0.41997 0.82407 0.0
O172 O 0.64433 0.34157 0.82664 0.0
O173 O 0.64233 0.35406 0.86311 0.0
C174 C 0.63429 0.33971 0.84699 0.0
C175 C 0.7285 0.41639 0.88164 0.0
C176 C 0.67461 0.41306 0.81214 0.0
C177 C 0.71825 0.35259 0.8323 0.0
O178 O 0.72742 0.37354 0.83389 0.0
O179 O 0.69627 0.34735 0.8358 0.0
O180 O 0.73727 0.4215 0.86101 0.0
O181 O 0.70857 0.40335 0.88285 0.0
O182 O 0.85568 0.87556 0.9283 0.0
Cd183 Cd 0.88044 0.90154 0.91698 0.0
Cd184 Cd 0.91047 0.87373 0.93925 0.0
O185 O 0.87888 0.85522 0.94954 0.0
O186 O 0.8606 0.92231 0.89951 0.0
O187 O 0.89181 0.90841 0.88358 0.0
C188 C 0.87499 0.92184 0.88197 0.0
C189 C 0.94186 0.85457 0.92493 0.0
C190 C 0.85832 0.85926 0.94293 0.0
C191 C 0.90938 0.92212 0.9573 0.0
O192 O 0.91988 0.90369 0.95795 0.0
O193 O 0.89288 0.92414 0.94273 0.0
O194 O 0.9357 0.85346 0.94685 0.0
O195 O 0.9296 0.86613 0.91074 0.0
O196 O 0.88975 0.16716 0.68509 0.0
Cd197 Cd 0.86101 0.14617 0.69813 0.0
Cd198 Cd 0.84121 0.16096 0.65697 0.0
O199 O 0.87579 0.17397 0.6498 0.0
O200 O 0.87402 0.13238 0.72679 0.0
O201 O 0.85821 0.11086 0.69774 0.0
C202 C 0.86777 0.11201 0.71835 0.0
C203 C 0.81736 0.14559 0.62618 0.0
C204 C 0.89239 0.17652 0.66478 0.0
C205 C 0.82272 0.17788 0.70276 0.0
O206 O 0.82352 0.18022 0.68049 0.0
O207 O 0.83502 0.16367 0.71296 0.0
O208 O 0.82568 0.1672 0.62667 0.0
O209 O 0.8231 0.13209 0.64297 0.0
O210 O 0.64571 0.09584 0.4272 0.0
Cd211 Cd 0.6214 0.08085 0.40307 0.0
Cd212 Cd 0.59269 0.11417 0.42702 0.0
O213 O 0.62441 0.12101 0.44478 0.0
O214 O 0.63865 0.0559 0.38868 0.0
O215 O 0.62368 0.08296 0.36747 0.0
C216 C 0.6337 0.06381 0.36826 0.0
C217 C 0.57033 0.14398 0.4147 0.0
C218 C 0.64355 0.11135 0.4428 0.0
C219 C 0.57478 0.06356 0.42798 0.0
O220 O 0.57202 0.08383 0.4355 0.0
O221 O 0.59252 0.05996 0.41534 0.0
O222 O 0.57265 0.13909 0.43671 0.0
O223 O 0.58187 0.13276 0.39953 0.0
O224 O 0.59417 0.82083 0.17131 0.0
Cd225 Cd 0.6222 0.84117 0.18633 0.0
Cd226 Cd 0.64726 0.82185 0.14661 0.0
O227 O 0.61339 0.80626 0.14166 0.0
O228 O 0.60759 0.85969 0.21102 0.0
O229 O 0.62974 0.87604 0.18207 0.0
C230 C 0.61791 0.87833 0.20132 0.0
C231 C 0.67211 0.82564 0.11324 0.0
C232 C 0.59448 0.80744 0.15354 0.0
C233 C 0.66221 0.81289 0.19727 0.0
O234 O 0.66536 0.81121 0.17521 0.0
O235 O 0.6456 0.82375 0.20542 0.0
O236 O 0.6644 0.80563 0.12187 0.0
O237 O 0.6649 0.8439 0.12294 0.0
O238 O 0.88945 0.05707 0.61686 0.0
Cd239 Cd 0.89672 0.07738 0.58691 0.0
Cd240 Cd 0.85333 0.05799 0.57771 0.0
O241 O 0.85081 0.04959 0.61312 0.0
O242 O 0.92891 0.09235 0.59431 0.0
O243 O 0.89874 0.1127 0.58743 0.0
C244 C 0.92089 0.11236 0.59232 0.0
C245 C 0.82841 0.08056 0.55741 0.0
C246 C 0.86953 0.04844 0.62505 0.0
C247 C 0.89118 0.04253 0.54815 0.0
O248 O 0.87083 0.03602 0.55667 0.0
O249 O 0.90319 0.06058 0.55604 0.0
O250 O 0.82147 0.05942 0.56392 0.0
O251 O 0.84919 0.0895 0.56389 0.0
O252 O 0.66137 0.14868 0.31158 0.0
Cd253 Cd 0.67335 0.17518 0.33406 0.0
Cd254 Cd 0.6321 0.18832 0.32145 0.0
O255 O 0.62365 0.15454 0.30987 0.0
O256 O 0.70259 0.16322 0.34606 0.0
O257 O 0.67298 0.1706 0.3694 0.0
C258 C 0.69368 0.1634 0.36695 0.0
C259 C 0.60825 0.2092 0.34494 0.0
C260 C 0.64043 0.14235 0.30481 0.0
C261 C 0.67535 0.2157 0.30241 0.0
O262 O 0.65353 0.20949 0.29915 0.0
O263 O 0.68647 0.20591 0.31835 0.0
O264 O 0.60319 0.20474 0.32318 0.0
O265 O 0.62601 0.2001 0.35409 0.0
O266 O 0.58584 0.93445 0.14896 0.0
Cd267 Cd 0.5701 0.91608 0.12129 0.0
Cd268 Cd 0.61304 0.93149 0.09866 0.0
O269 O 0.61946 0.9471 0.13111 0.0
O270 O 0.54123 0.89885 0.13534 0.0
O271 O 0.56914 0.88116 0.11752 0.0
C272 C 0.54877 0.87978 0.12803 0.0
C273 C 0.6441 0.91732 0.07749 0.0
C274 C 0.60587 0.94653 0.14909 0.0
C275 C 0.56772 0.94638 0.07853 0.0
O276 O 0.59002 0.94641 0.07675 0.0
O277 O 0.5564 0.93552 0.09526 0.0
O278 O 0.64333 0.93926 0.08118 0.0
O279 O 0.62772 0.90299 0.08699 0.0
O280 O 0.83557 0.88662 0.83331 0.0
Cd281 Cd 0.82224 0.85978 0.85561 0.0
Cd282 Cd 0.86898 0.84716 0.8464 0.0
O283 O 0.87283 0.87904 0.82927 0.0
O284 O 0.79171 0.86989 0.86759 0.0
O285 O 0.82088 0.86177 0.89102 0.0
C286 C 0.79975 0.86785 0.88857 0.0
C287 C 0.90081 0.83013 0.86303 0.0
C288 C 0.85619 0.89152 0.82451 0.0
C289 C 0.82649 0.81572 0.82938 0.0
O290 O 0.84864 0.82142 0.82919 0.0
O291 O 0.81259 0.82811 0.84008 0.0
O292 O 0.9002 0.83524 0.84097 0.0
O293 O 0.88437 0.83692 0.87643 0.0
O294 O 0.39892 0.54532 0.14919 0.0
Cd295 Cd 0.41202 0.56634 0.12125 0.0
Cd296 Cd 0.37022 0.54512 0.10185 0.0
O297 O 0.36327 0.5336 0.13567 0.0
O298 O 0.44151 0.58371 0.13342 0.0
O299 O 0.4105 0.60127 0.12219 0.0
C300 C 0.43194 0.60275 0.12993 0.0
C301 C 0.34171 0.55977 0.07839 0.0
C302 C 0.37851 0.5342 0.15202 0.0
C303 C 0.41561 0.53438 0.07995 0.0
O304 O 0.39375 0.52793 0.08275 0.0
O305 O 0.42569 0.55088 0.09213 0.0
O306 O 0.34094 0.53782 0.08323 0.0
O307 O 0.35795 0.57384 0.08814 0.0
O308 O 0.15861 0.62594 0.83701 0.0
Cd309 Cd 0.1767 0.64938 0.85952 0.0
Cd310 Cd 0.14065 0.67731 0.84034 0.0
O311 O 0.13113 0.6466 0.82262 0.0
O312 O 0.2011 0.62983 0.87163 0.0
O313 O 0.17699 0.6466 0.89525 0.0
C314 C 0.19444 0.63407 0.89273 0.0
C315 C 0.11093 0.70034 0.85216 0.0
C316 C 0.14128 0.62791 0.82328 0.0
C317 C 0.19264 0.69312 0.83167 0.0
O318 O 0.1711 0.6965 0.82865 0.0
O319 O 0.19813 0.67581 0.84364 0.0
O320 O 0.11645 0.69803 0.83032 0.0
O321 O 0.12173 0.68878 0.86758 0.0
O322 O 0.08404 0.44286 0.64206 0.0
Cd323 Cd 0.06844 0.4205 0.61761 0.0
Cd324 Cd 0.10978 0.43543 0.59336 0.0
O325 O 0.11837 0.45334 0.62443 0.0
O326 O 0.04185 0.40312 0.63543 0.0
O327 O 0.0695 0.3858 0.61645 0.0
C328 C 0.05022 0.38422 0.62884 0.0
C329 C 0.137 0.41636 0.57145 0.0
C330 C 0.10415 0.45475 0.64168 0.0
C331 C 0.06307 0.44713 0.57339 0.0
O332 O 0.08551 0.44906 0.57172 0.0
O333 O 0.05253 0.43605 0.59044 0.0
O334 O 0.13895 0.43876 0.57346 0.0
O335 O 0.12044 0.40445 0.58343 0.0
O336 O 0.08203 0.32338 0.64926 0.0
Cd337 Cd 0.10562 0.34374 0.66988 0.0
Cd338 Cd 0.13734 0.33669 0.6317 0.0
O339 O 0.10728 0.3165 0.62079 0.0
O340 O 0.08721 0.35738 0.69538 0.0
O341 O 0.11052 0.37886 0.6705 0.0
C342 C 0.09708 0.37764 0.68907 0.0
C343 C 0.1652 0.34904 0.60229 0.0
C344 C 0.08683 0.31326 0.6302 0.0
C345 C 0.14834 0.31981 0.68087 0.0
O346 O 0.15469 0.32385 0.65966 0.0
O347 O 0.12874 0.32565 0.68846 0.0
O348 O 0.15927 0.32741 0.60693 0.0
O349 O 0.15438 0.36423 0.61362 0.0
O350 O 0.37741 0.66692 0.16026 0.0
Cd351 Cd 0.35091 0.6436 0.17427 0.0
Cd352 Cd 0.3293 0.66101 0.13295 0.0
O353 O 0.36354 0.67428 0.12496 0.0
O354 O 0.36763 0.63139 0.20183 0.0
O355 O 0.35052 0.60826 0.17472 0.0
C356 C 0.36208 0.61058 0.19423 0.0
C357 C 0.30315 0.64831 0.10289 0.0
C358 C 0.37989 0.67678 0.14017 0.0
C359 C 0.31178 0.67375 0.18137 0.0
O360 O 0.3128 0.67784 0.15934 0.0
O361 O 0.32407 0.65889 0.19056 0.0
O362 O 0.31157 0.66983 0.10459 0.0
O363 O 0.31045 0.63352 0.11766 0.0
O364 O 0.60895 0.56725 0.61178 0.0
Cd365 Cd 0.59539 0.58712 0.58538 0.0
Cd366 Cd 0.57489 0.6028 0.6223 0.0
O367 O 0.59855 0.58731 0.64249 0.0
O368 O 0.61069 0.57534 0.55692 0.0
O369 O 0.61631 0.61222 0.56774 0.0
C370 C 0.62056 0.59612 0.55302 0.0
C371 C 0.56693 0.64104 0.61984 0.0
C372 C 0.609 0.57073 0.6339 0.0
C373 C 0.54332 0.57519 0.59154 0.0
O374 O 0.54633 0.58068 0.61294 0.0
O375 O 0.56019 0.57928 0.5768 0.0
O376 O 0.56104 0.62849 0.63833 0.0
O377 O 0.58 0.63261 0.60386 0.0
O378 O 0.92795 0.43502 0.12728 0.0
Cd379 Cd 0.91985 0.41292 0.09895 0.0
Cd380 Cd 0.97197 0.3998 0.13094 0.0
O381 O 0.95792 0.42606 0.15003 0.0
O382 O 0.91172 0.43127 0.0707 0.0
O383 O 0.88551 0.40719 0.09029 0.0
C384 C 0.89027 0.42163 0.07301 0.0
C385 C 0.99588 0.37281 0.14647 0.0
C386 C 0.94134 0.43876 0.14516 0.0
C387 C 0.96134 0.39706 0.0806 0.0
O388 O 0.97669 0.4049 0.09543 0.0
O389 O 0.94134 0.3884 0.08832 0.0
O390 O 0.00418 0.3942 0.1425 0.0
O391 O 0.97348 0.36724 0.14331 0.0
O392 O 0.63789 0.69088 0.62583 0.0
Cd393 Cd 0.66604 0.67003 0.62609 0.0
Cd394 Cd 0.63831 0.65303 0.66738 0.0
O395 O 0.61419 0.67332 0.65312 0.0
O396 O 0.68582 0.6813 0.59824 0.0
O397 O 0.67137 0.64452 0.60244 0.0
C398 C 0.68455 0.66018 0.59067 0.0
C399 C 0.6276 0.61869 0.68861 0.0
C400 C 0.61855 0.68927 0.63763 0.0
C401 C 0.68701 0.67699 0.67446 0.0
O402 O 0.66673 0.67074 0.68317 0.0
O403 O 0.69068 0.67612 0.65242 0.0
O404 O 0.62146 0.63845 0.69559 0.0
O405 O 0.6381 0.61801 0.66838 0.0
O406 O 0.36184 0.40267 0.42401 0.0
Cd407 Cd 0.3931 0.41477 0.40701 0.0
Cd408 Cd 0.40252 0.37224 0.42838 0.0
O409 O 0.36634 0.36578 0.43215 0.0
O410 O 0.38419 0.44524 0.39454 0.0
O411 O 0.39715 0.41869 0.37142 0.0
C412 C 0.38995 0.43912 0.37373 0.0
C413 C 0.42883 0.34491 0.41905 0.0
C414 C 0.35379 0.3829 0.43247 0.0
C415 C 0.42339 0.41744 0.44905 0.0
O416 O 0.41654 0.39603 0.45237 0.0
O417 O 0.41914 0.4274 0.42977 0.0
O418 O 0.41726 0.3439 0.43872 0.0
O419 O 0.42393 0.3603 0.40366 0.0
O420 O 0.11046 0.58546 0.92586 0.0
Cd421 Cd 0.08667 0.57151 0.90078 0.0
Cd422 Cd 0.05981 0.60964 0.92562 0.0
O423 O 0.09105 0.61185 0.94403 0.0
O424 O 0.10053 0.54216 0.89223 0.0
O425 O 0.09567 0.56979 0.8662 0.0
C426 C 0.10154 0.54915 0.87069 0.0
C427 C 0.04271 0.64421 0.91806 0.0
C428 C 0.10928 0.60089 0.94173 0.0
C429 C 0.03644 0.56062 0.92254 0.0
O430 O 0.03587 0.58088 0.93105 0.0
O431 O 0.05403 0.55537 0.91051 0.0
O432 O 0.04268 0.63519 0.93888 0.0
O433 O 0.0531 0.63387 0.90136 0.0
O434 O 0.32457 0.35026 0.33962 0.0
Cd435 Cd 0.31585 0.32523 0.3657 0.0
Cd436 Cd 0.36372 0.32072 0.35458 0.0
O437 O 0.36334 0.35474 0.34432 0.0
O438 O 0.28159 0.32751 0.3724 0.0
O439 O 0.30999 0.33704 0.39825 0.0
C440 C 0.28778 0.33509 0.39297 0.0
C441 C 0.39745 0.30426 0.36667 0.0
C442 C 0.34467 0.36157 0.33554 0.0
C443 C 0.32801 0.28324 0.34188 0.0
O444 O 0.34536 0.29651 0.33387 0.0
O445 O 0.31574 0.29004 0.35877 0.0
O446 O 0.39583 0.3129 0.34585 0.0
O447 O 0.381 0.30751 0.3818 0.0
H448 H 0.99751 0.08576 0.09952 0.0
H449 H 0.96402 0.0623 0.08142 0.0
H450 H 0.00823 0.04893 0.02181 0.0
H451 H 0.0414 0.07263 0.03929 0.0
H452 H 0.96272 0.05705 0.00919 0.0
H453 H 0.96291 0.99121 0.08168 0.0
H454 H 0.95809 0.02054 0.08965 0.0
H455 H 0.9864 0.01455 0.07818 0.0
C456 C -3e-05 0.07805 0.08241 0.0
C457 C 0.02218 0.08074 0.07097 0.0
C458 C 0.98086 0.06464 0.07217 0.0
C459 C 0.98384 0.05363 0.05052 0.0
C460 C 0.00561 0.05731 0.03857 0.0
H461 H 0.94932 0.92854 0.98394 0.0
H462 H 0.96179 0.96191 0.0089 0.0
C463 C 0.0246 0.07078 0.04865 0.0
C464 C 0.96529 0.03665 0.04078 0.0
H465 H 0.94123 0.98033 0.04797 0.0
C466 C 0.95751 0.04043 0.01779 0.0
C467 C 0.95869 0.01504 0.05218 0.0
C468 C 0.96699 0.00989 0.07673 0.0
C469 C 0.94489 0.02248 0.00512 0.0
C470 C 0.93945 0.00045 0.01609 0.0
C471 C 0.94556 0.99728 0.03971 0.0
C472 C 0.93057 0.97969 0.00245 0.0
C473 C 0.9392 0.02671 0.97958 0.0
C474 C 0.90873 0.97853 0.99094 0.0
C475 C 0.90174 0.95966 0.97638 0.0
C476 C 0.91635 0.94152 0.97344 0.0
C477 C 0.93775 0.94229 0.98579 0.0
C478 C 0.94484 0.96128 0.00011 0.0
H479 H 0.94829 0.04343 0.97277 0.0
H480 H 0.9444 0.01228 0.96838 0.0
H481 H 0.91983 0.02741 0.97775 0.0
H482 H 0.89729 0.99236 0.99294 0.0
H483 H 0.88496 0.95936 0.96734 0.0
H484 H 0.30242 0.66785 0.2286 0.0
H485 H 0.28058 0.69255 0.25404 0.0
H486 H 0.26774 0.73604 0.19427 0.0
H487 H 0.28889 0.71125 0.16868 0.0
H488 H 0.2909 0.73851 0.26351 0.0
H489 H 0.20238 0.72416 0.22281 0.0
H490 H 0.22559 0.70581 0.21652 0.0
H491 H 0.22487 0.73333 0.20141 0.0
C492 C 0.29465 0.68249 0.22082 0.0
C493 C 0.29728 0.68752 0.1966 0.0
C494 C 0.28225 0.69659 0.23539 0.0
C495 C 0.27227 0.71589 0.22596 0.0
C496 C 0.27479 0.72088 0.2018 0.0
H497 H 0.23856 0.84267 0.29181 0.0
H498 H 0.25822 0.8111 0.27389 0.0
C499 C 0.287 0.70673 0.18721 0.0
C500 C 0.26024 0.73163 0.24145 0.0
H501 H 0.20959 0.75831 0.24685 0.0
C502 C 0.273 0.74263 0.26012 0.0
C503 C 0.23677 0.73667 0.23721 0.0
C504 C 0.22153 0.72417 0.21855 0.0
C505 C 0.2632 0.75929 0.27412 0.0
C506 C 0.24032 0.76547 0.26883 0.0
C507 C 0.22727 0.75379 0.25072 0.0
C508 C 0.22954 0.78423 0.28145 0.0
C509 C 0.27743 0.76996 0.29444 0.0
C510 C 0.20679 0.77969 0.29131 0.0
C511 C 0.19536 0.79774 0.30099 0.0
C512 C 0.20654 0.82068 0.3012 0.0
C513 C 0.22961 0.82513 0.29201 0.0
C514 C 0.24092 0.80707 0.28195 0.0
H515 H 0.29043 0.7582 0.3008 0.0
H516 H 0.28751 0.7865 0.28847 0.0
H517 H 0.2658 0.77388 0.30942 0.0
H518 H 0.19768 0.76222 0.29109 0.0
H519 H 0.17765 0.79375 0.30814 0.0
H520 H 0.4938 0.92213 0.56046 0.0
H521 H 0.51142 0.94028 0.52493 0.0
H522 H 0.44934 0.91535 0.48534 0.0
H523 H 0.43105 0.89767 0.52128 0.0
H524 H 0.52244 0.92862 0.48001 0.0
H525 H 0.44862 0.98568 0.48137 0.0
H526 H 0.45286 0.96562 0.50508 0.0
H527 H 0.44098 0.95489 0.47748 0.0
C528 C 0.48401 0.92008 0.54415 0.0
C529 C 0.46079 0.90903 0.54381 0.0
C530 C 0.49418 0.93037 0.52378 0.0
C531 C 0.4814 0.92968 0.50267 0.0
C532 C 0.45921 0.91655 0.50164 0.0
H533 H 0.56544 0.02319 0.4035 0.0
H534 H 0.53912 0.9887 0.41515 0.0
C535 C 0.44889 0.90633 0.52215 0.0
C536 C 0.49041 0.94538 0.48324 0.0
H537 H 0.48208 0.99829 0.45905 0.0
C538 C 0.51347 0.94361 0.47488 0.0
C539 C 0.47856 0.96492 0.47675 0.0
C540 C 0.45395 0.96811 0.48566 0.0
C541 C 0.52588 0.96186 0.46205 0.0
C542 C 0.51449 0.98202 0.45678 0.0
C543 C 0.4907 0.98282 0.46327 0.0
C544 C 0.52785 0.00366 0.44776 0.0
C545 C 0.55164 0.96018 0.45611 0.0
C546 C 0.52916 0.02394 0.46158 0.0
C547 C 0.54374 0.04384 0.45473 0.0
C548 C 0.55749 0.0436 0.43411 0.0
C549 C 0.55535 0.02365 0.41975 0.0
C550 C 0.5404 0.00392 0.42639 0.0
H551 H 0.5588 0.94542 0.46543 0.0
H552 H 0.55353 0.95736 0.43688 0.0
H553 H 0.56261 0.97656 0.46077 0.0
H554 H 0.51953 0.02411 0.47813 0.0
H555 H 0.545 0.05901 0.46605 0.0
H556 H 0.2963 0.19889 0.77888 0.0
H557 H 0.27232 0.22745 0.76183 0.0
H558 H 0.2099 0.1784 0.76867 0.0
H559 H 0.23381 0.14947 0.78554 0.0
H560 H 0.21472 0.20092 0.72489 0.0
H561 H 0.22575 0.26417 0.79848 0.0
H562 H 0.25322 0.25594 0.78689 0.0
H563 H 0.23276 0.23437 0.8012 0.0
C564 C 0.27748 0.19411 0.77673 0.0
C565 C 0.2669 0.17197 0.78369 0.0
C566 C 0.26381 0.21052 0.76716 0.0
C567 C 0.23934 0.20514 0.76456 0.0
C568 C 0.22878 0.18287 0.77083 0.0
H569 H 0.138 0.30234 0.7252 0.0
H570 H 0.15991 0.27487 0.74719 0.0
C571 C 0.24246 0.16638 0.78037 0.0
C572 C 0.22492 0.22263 0.75467 0.0
H573 H 0.20945 0.27779 0.76283 0.0
C574 C 0.21337 0.21764 0.73326 0.0
C575 C 0.22304 0.24427 0.76586 0.0
C576 C 0.23416 0.24998 0.7895 0.0
C577 C 0.20058 0.23413 0.72227 0.0
C578 C 0.19967 0.25619 0.73289 0.0
C579 C 0.2105 0.26091 0.7547 0.0
C580 C 0.18794 0.27467 0.72117 0.0
C581 C 0.18822 0.22789 0.69934 0.0
C582 C 0.19709 0.2842 0.69985 0.0
C583 C 0.18473 0.29982 0.68731 0.0
C584 C 0.16301 0.30619 0.69593 0.0
C585 C 0.15461 0.29767 0.71804 0.0
C586 C 0.16705 0.28199 0.7306 0.0
H587 H 0.18583 0.20871 0.69656 0.0
H588 H 0.1706 0.23468 0.6988 0.0
H589 H 0.19905 0.23593 0.68449 0.0
H590 H 0.21345 0.27898 0.69258 0.0
H591 H 0.19182 0.30625 0.67045 0.0
H592 H 0.02378 0.93956 0.40578 0.0
H593 H 0.99117 0.9575 0.42436 0.0
H594 H 0.01664 0.93988 0.49301 0.0
H595 H 0.04981 0.92264 0.47459 0.0
H596 H 0.95487 0.94241 0.45416 0.0
H597 H 0.01673 0.00982 0.49722 0.0
H598 H 0.02637 0.9904 0.47512 0.0
H599 H 0.02192 0.98059 0.50516 0.0
C600 C 0.02239 0.93942 0.42484 0.0
C601 C 0.03957 0.93005 0.43877 0.0
C602 C 0.0037 0.9496 0.43541 0.0
C603 C 0.00179 0.95043 0.46004 0.0
C604 C 0.01817 0.93995 0.47396 0.0
H605 H 0.88535 0.99514 0.54315 0.0
H606 H 0.91002 0.97168 0.51919 0.0
C607 C 0.03707 0.93007 0.46343 0.0
C608 C 0.98343 0.96336 0.47112 0.0
H609 H 0.97633 0.00864 0.50806 0.0
C610 C 0.95949 0.95696 0.4659 0.0
C611 C 0.9896 0.98259 0.48606 0.0
C612 C 0.01505 0.99143 0.49105 0.0
C613 C 0.94148 0.96917 0.47547 0.0
C614 C 0.94765 0.98788 0.49103 0.0
C615 C 0.9716 0.99426 0.49614 0.0
C616 C 0.92988 0.00144 0.50234 0.0
C617 C 0.91617 0.96224 0.46841 0.0
C618 C 0.93264 0.0259 0.50063 0.0
C619 C 0.91904 0.03925 0.51468 0.0
C620 C 0.90215 0.02838 0.53043 0.0
C621 C 0.89814 0.0039 0.53096 0.0
C622 C 0.91214 0.99049 0.5172 0.0
H623 H 0.91519 0.95275 0.45138 0.0
H624 H 0.90741 0.95042 0.48208 0.0
H625 H 0.90612 0.97774 0.46682 0.0
H626 H 0.94616 0.03471 0.48923 0.0
H627 H 0.92235 0.05811 0.51386 0.0
H628 H 0.31201 0.77594 0.65786 0.0
H629 H 0.28707 0.75786 0.68959 0.0
H630 H 0.33919 0.78336 0.74075 0.0
H631 H 0.3642 0.80174 0.70924 0.0
H632 H 0.29664 0.72483 0.72449 0.0
H633 H 0.27763 0.80973 0.76285 0.0
H634 H 0.29027 0.80738 0.73377 0.0
H635 H 0.3085 0.80586 0.75938 0.0
C636 C 0.3183 0.77755 0.67583 0.0
C637 C 0.34 0.79046 0.68104 0.0
C638 C 0.30401 0.76723 0.69391 0.0
C639 C 0.31116 0.76971 0.71745 0.0
C640 C 0.33322 0.7817 0.72268 0.0
H641 H 0.24047 0.69062 0.83343 0.0
H642 H 0.27071 0.71069 0.8076 0.0
C643 C 0.34752 0.79205 0.70463 0.0
C644 C 0.29525 0.76005 0.73654 0.0
H645 H 0.26211 0.77557 0.78325 0.0
C646 C 0.28915 0.73586 0.73743 0.0
C647 C 0.28536 0.77464 0.75311 0.0
C648 C 0.29056 0.80087 0.75222 0.0
C649 C 0.27333 0.72578 0.75454 0.0
C650 C 0.26373 0.74032 0.77136 0.0
C651 C 0.2698 0.76453 0.77047 0.0
C652 C 0.24628 0.73071 0.78915 0.0
C653 C 0.26646 0.69975 0.75405 0.0
C654 C 0.22284 0.73631 0.78804 0.0
C655 C 0.20553 0.725 0.80284 0.0
C656 C 0.21144 0.70792 0.81897 0.0
C657 C 0.23528 0.70351 0.82104 0.0
C658 C 0.25257 0.71486 0.80625 0.0
H659 H 0.27147 0.6919 0.73711 0.0
H660 H 0.27566 0.69133 0.76849 0.0
H661 H 0.24708 0.69571 0.75683 0.0
H662 H 0.21775 0.74865 0.775 0.0
H663 H 0.18737 0.72891 0.80088 0.0
H664 H 0.45989 0.09247 0.95887 0.0
H665 H 0.4832 0.07016 0.98516 0.0
H666 H 0.47691 0.01262 0.93636 0.0
H667 H 0.45287 0.03445 0.91044 0.0
H668 H 0.46709 0.99783 0.97967 0.0
H669 H 0.55085 0.05627 0.98054 0.0
H670 H 0.52586 0.07098 0.98932 0.0
H671 H 0.52753 0.0599 0.95978 0.0
C672 C 0.46369 0.07516 0.95364 0.0
C673 C 0.45456 0.06519 0.93261 0.0
C674 C 0.47714 0.06249 0.96861 0.0
C675 C 0.48212 0.03988 0.96253 0.0
C676 C 0.47332 0.03007 0.94136 0.0
H677 H 0.58363 0.96266 0.03542 0.0
H678 H 0.56254 0.98447 0.00672 0.0
C679 C 0.45959 0.04256 0.92657 0.0
C680 C 0.49531 0.02587 0.97882 0.0
H681 H 0.54656 0.02625 0.00995 0.0
C682 C 0.48455 0.00396 0.98615 0.0
C683 C 0.51821 0.03377 0.987 0.0
C684 C 0.53139 0.05641 0.97856 0.0
C685 C 0.49591 0.98985 0.00171 0.0
C686 C 0.51831 0.99824 0.01079 0.0
C687 C 0.52925 0.01998 0.00318 0.0
C688 C 0.5308 0.98469 0.02809 0.0
C689 C 0.48396 0.96593 0.00788 0.0
C690 C 0.52 0.97774 0.04967 0.0
C691 C 0.53186 0.96498 0.06595 0.0
C692 C 0.55494 0.95939 0.06111 0.0
C693 C 0.56586 0.9667 0.03964 0.0
C694 C 0.55386 0.97918 0.02325 0.0
H695 H 0.47105 0.95948 0.99417 0.0
H696 H 0.4971 0.95305 0.00999 0.0
H697 H 0.47409 0.9669 0.02474 0.0
H698 H 0.50247 0.98238 0.05405 0.0
H699 H 0.5231 0.95984 0.08247 0.0
H700 H 0.29764 0.24678 0.3585 0.0
H701 H 0.28402 0.21097 0.33739 0.0
H702 H 0.32967 0.23348 0.27865 0.0
H703 H 0.34401 0.26847 0.29989 0.0
H704 H 0.25979 0.21338 0.29981 0.0
H705 H 0.3354 0.16565 0.27562 0.0
H706 H 0.33747 0.1875 0.29847 0.0
H707 H 0.34247 0.19575 0.26795 0.0
C708 C 0.30515 0.24374 0.34131 0.0
C709 C 0.32159 0.26052 0.33067 0.0
C710 C 0.29753 0.22322 0.32938 0.0
C711 C 0.30607 0.21935 0.30657 0.0
C712 C 0.32338 0.23561 0.2965 0.0
H713 H 0.24884 0.18587 0.17723 0.0
H714 H 0.27587 0.19413 0.21039 0.0
C715 C 0.33127 0.25587 0.30854 0.0
C716 C 0.29363 0.20138 0.29138 0.0
H717 H 0.30311 0.16442 0.24618 0.0
C718 C 0.26916 0.20205 0.28866 0.0
C719 C 0.30584 0.18664 0.27678 0.0
C720 C 0.33171 0.1837 0.2801 0.0
C721 C 0.25696 0.19005 0.27041 0.0
C722 C 0.26959 0.17691 0.25463 0.0
C723 C 0.29366 0.17479 0.25825 0.0
C724 C 0.25815 0.16743 0.23312 0.0
C725 C 0.23098 0.19285 0.26713 0.0
C726 C 0.24009 0.14907 0.23482 0.0
C727 C 0.2245 0.14462 0.21618 0.0
C728 C 0.22694 0.15837 0.19556 0.0
C729 C 0.2465 0.17519 0.19302 0.0
C730 C 0.262 0.17979 0.21182 0.0
H731 H 0.22453 0.2058 0.27944 0.0
H732 H 0.22766 0.19845 0.24879 0.0
H733 H 0.22038 0.17581 0.27024 0.0
H734 H 0.23698 0.13939 0.25117 0.0
H735 H 0.20982 0.13118 0.21839 0.0
H736 H 0.45527 0.55235 0.05617 0.0
H737 H 0.47756 0.53285 0.02642 0.0
H738 H 0.43009 0.4699 0.03564 0.0
H739 H 0.407 0.48974 0.06434 0.0
H740 H 0.50188 0.49775 0.02922 0.0
H741 H 0.42971 0.47444 0.96604 0.0
H742 H 0.42632 0.49372 0.9905 0.0
H743 H 0.42227 0.46249 0.99466 0.0
C744 C 0.44953 0.5344 0.05168 0.0
C745 C 0.42934 0.52258 0.06236 0.0
C746 C 0.46224 0.52328 0.03469 0.0
C747 C 0.45521 0.50005 0.02839 0.0
C748 C 0.43537 0.48806 0.03955 0.0
H749 H 0.55123 0.41121 0.96253 0.0
H750 H 0.5267 0.43109 0.98996 0.0
C751 C 0.42232 0.49935 0.0561 0.0
C752 C 0.46922 0.4881 0.0109 0.0
H753 H 0.46463 0.45476 0.96126 0.0
C754 C 0.49375 0.48855 0.01422 0.0
C755 C 0.45871 0.47642 0.99109 0.0
C756 C 0.43285 0.47696 0.98521 0.0
C757 C 0.50802 0.47737 0.99853 0.0
C758 C 0.49728 0.46446 0.97958 0.0
C759 C 0.47281 0.46433 0.97601 0.0
C760 C 0.51115 0.45135 0.96295 0.0
C761 C 0.53449 0.48009 0.00218 0.0
C762 C 0.50955 0.45512 0.93856 0.0
C763 C 0.52296 0.4432 0.92283 0.0
C764 C 0.53845 0.42759 0.93127 0.0
C765 C 0.53967 0.42343 0.95562 0.0
C766 C 0.52583 0.43493 0.9713 0.0
H767 H 0.54025 0.49625 0.0121 0.0
H768 H 0.53955 0.46507 0.01267 0.0
H769 H 0.54426 0.48068 0.98512 0.0
H770 H 0.49823 0.46759 0.93169 0.0
H771 H 0.52172 0.44674 0.90413 0.0
H772 H 0.82961 0.33302 0.18083 0.0
H773 H 0.79785 0.31579 0.20639 0.0
H774 H 0.76631 0.27695 0.14778 0.0
H775 H 0.79825 0.29411 0.12178 0.0
H776 H 0.74666 0.31708 0.20035 0.0
H777 H 0.77688 0.22785 0.2008 0.0
H778 H 0.79606 0.25331 0.19169 0.0
H779 H 0.77287 0.24138 0.17262 0.0
C780 C 0.81601 0.32078 0.17328 0.0
C781 C 0.81654 0.31482 0.14927 0.0
C782 C 0.79781 0.31108 0.18791 0.0
C783 C 0.77988 0.29517 0.1789 0.0
C784 C 0.78016 0.28916 0.15498 0.0
H785 H 0.65843 0.23601 0.26313 0.0
H786 H 0.68187 0.25748 0.23219 0.0
C787 C 0.7984 0.29894 0.14022 0.0
C788 C 0.76143 0.28447 0.19503 0.0
H789 H 0.74454 0.23412 0.22514 0.0
C790 C 0.7459 0.29887 0.2056 0.0
C791 C 0.76081 0.2608 0.20184 0.0
C792 C 0.77758 0.24485 0.19132 0.0
C793 C 0.73004 0.29026 0.22339 0.0
C794 C 0.72986 0.26675 0.23057 0.0
C795 C 0.7449 0.25219 0.2195 0.0
C796 C 0.71517 0.257 0.25041 0.0
C797 C 0.71429 0.30646 0.23507 0.0
C798 C 0.72621 0.25018 0.27097 0.0
C799 C 0.71297 0.23792 0.28862 0.0
C800 C 0.68849 0.23215 0.28585 0.0
C801 C 0.67728 0.24017 0.26576 0.0
C802 C 0.69058 0.25246 0.24809 0.0
H803 H 0.7188 0.32493 0.22953 0.0
H804 H 0.69557 0.30114 0.23035 0.0
H805 H 0.7157 0.30525 0.25455 0.0
H806 H 0.74522 0.25362 0.27297 0.0
H807 H 0.72212 0.2321 0.30392 0.0
H808 H 0.0183 0.45955 0.57799 0.0
H809 H 0.99522 0.47793 0.54838 0.0
H810 H 0.05272 0.47661 0.49832 0.0
H811 H 0.07637 0.45915 0.5283 0.0
H812 H 0.036 0.51704 0.49693 0.0
H813 H 0.96026 0.44894 0.49361 0.0
H814 H 0.96472 0.45923 0.52316 0.0
H815 H 0.98734 0.44449 0.5087 0.0
C816 C 0.02596 0.46305 0.56062 0.0
C817 C 0.04906 0.45785 0.55537 0.0
C818 C 0.01269 0.47337 0.54366 0.0
C819 C 0.02201 0.47806 0.52096 0.0
C820 C 0.04513 0.47295 0.51569 0.0
H821 H 0.92717 0.52209 0.41264 0.0
H822 H 0.9541 0.49996 0.43505 0.0
C823 C 0.05861 0.46302 0.5328 0.0
C824 C 0.00802 0.4894 0.50318 0.0
H825 H 0.95318 0.48687 0.47865 0.0
C826 C 0.018 0.51027 0.49266 0.0
C827 C 0.98476 0.48029 0.49717 0.0
C828 C 0.97378 0.45686 0.50607 0.0
C829 C 0.00496 0.52281 0.47707 0.0
C830 C 0.98102 0.5147 0.47268 0.0
C831 C 0.9714 0.49331 0.48237 0.0
C832 C 0.9654 0.52837 0.45862 0.0
C833 C 0.01709 0.5445 0.46543 0.0
C834 C 0.9626 0.55156 0.46462 0.0
C835 C 0.94759 0.56434 0.45159 0.0
C836 C 0.9346 0.5539 0.43278 0.0
C837 C 0.93693 0.53051 0.42714 0.0
C838 C 0.95233 0.51789 0.43988 0.0
H839 H 0.03649 0.54353 0.46383 0.0
H840 H 0.00991 0.54723 0.44758 0.0
H841 H 0.01438 0.55991 0.47642 0.0
H842 H 0.97185 0.55974 0.47954 0.0
H843 H 0.94589 0.58228 0.45645 0.0
H844 H 0.81052 0.70831 0.32316 0.0
H845 H 0.78507 0.7376 0.31038 0.0
H846 H 0.74076 0.68454 0.2734 0.0
H847 H 0.76568 0.65493 0.28686 0.0
H848 H 0.77746 0.75141 0.26751 0.0
H849 H 0.69145 0.71742 0.30688 0.0
H850 H 0.71894 0.70649 0.31525 0.0
H851 H 0.7034 0.69555 0.28933 0.0
C852 C 0.79526 0.70283 0.31242 0.0
C853 C 0.79009 0.67933 0.30595 0.0
C854 C 0.78069 0.71958 0.30523 0.0
C855 C 0.76077 0.71319 0.29133 0.0
C856 C 0.75562 0.68974 0.28474 0.0
H857 H 0.69795 0.78701 0.18523 0.0
H858 H 0.72226 0.766 0.21129 0.0
C859 C 0.77001 0.67289 0.29221 0.0
C860 C 0.74655 0.73132 0.28208 0.0
H861 H 0.68977 0.74404 0.27385 0.0
C862 C 0.75831 0.75 0.26927 0.0
C863 C 0.72164 0.72984 0.28484 0.0
C864 C 0.70818 0.71137 0.30006 0.0
C865 C 0.74571 0.76641 0.25789 0.0
C866 C 0.72068 0.76364 0.25882 0.0
C867 C 0.70897 0.74589 0.27288 0.0
C868 C 0.70641 0.77744 0.24348 0.0
C869 C 0.75932 0.78629 0.24461 0.0
C870 C 0.68899 0.79041 0.25295 0.0
C871 C 0.67478 0.80234 0.23801 0.0
C872 C 0.67772 0.8013 0.2134 0.0
C873 C 0.69528 0.78834 0.20408 0.0
C874 C 0.70935 0.77643 0.21897 0.0
H875 H 0.77716 0.79072 0.25232 0.0
H876 H 0.76185 0.781 0.22606 0.0
H877 H 0.74971 0.80217 0.24468 0.0
H878 H 0.68634 0.79118 0.27185 0.0
H879 H 0.66135 0.81211 0.24572 0.0
H880 H 0.81565 0.17625 0.75043 0.0
H881 H 0.79756 0.2046 0.77476 0.0
H882 H 0.78222 0.24329 0.71236 0.0
H883 H 0.79994 0.21486 0.6878 0.0
H884 H 0.81302 0.2519 0.77726 0.0
H885 H 0.71937 0.2377 0.74849 0.0
H886 H 0.74055 0.21708 0.74246 0.0
H887 H 0.74026 0.24298 0.72466 0.0
C888 C 0.80809 0.19058 0.74182 0.0
C889 C 0.80924 0.19332 0.71717 0.0
C890 C 0.79785 0.20678 0.75577 0.0
C891 C 0.78849 0.22591 0.74532 0.0
C892 C 0.78903 0.22841 0.7207 0.0
H893 H 0.7602 0.35731 0.8077 0.0
H894 H 0.77929 0.326 0.78851 0.0
C895 C 0.7992 0.21216 0.70671 0.0
C896 C 0.77933 0.24393 0.76027 0.0
H897 H 0.73012 0.27146 0.77153 0.0
C898 C 0.79485 0.25612 0.77616 0.0
C899 C 0.75561 0.24919 0.75884 0.0
C900 C 0.7379 0.23592 0.74286 0.0
C901 C 0.78732 0.27375 0.79051 0.0
C902 C 0.76379 0.27947 0.78856 0.0
C903 C 0.74821 0.26707 0.77287 0.0
C904 C 0.75465 0.29813 0.80267 0.0
C905 C 0.80447 0.28587 0.80778 0.0
C906 C 0.73474 0.29275 0.81718 0.0
C907 C 0.72372 0.31052 0.82789 0.0
C908 C 0.73244 0.33402 0.8243 0.0
C909 C 0.75321 0.33935 0.81087 0.0
C910 C 0.76414 0.32149 0.79996 0.0
H911 H 0.81951 0.27547 0.81145 0.0
H912 H 0.81182 0.30294 0.80026 0.0
H913 H 0.79545 0.2892 0.82469 0.0
H914 H 0.72721 0.27482 0.81952 0.0
H915 H 0.70785 0.30587 0.83831 0.0
H916 H 0.7809 0.79508 0.82897 0.0
H917 H 0.76474 0.76327 0.8035 0.0
H918 H 0.83416 0.75822 0.77379 0.0
H919 H 0.85061 0.7898 0.79924 0.0
H920 H 0.79543 0.7675 0.74158 0.0
H921 H 0.77361 0.69099 0.80058 0.0
H922 H 0.7656 0.71835 0.81171 0.0
H923 H 0.7963 0.71436 0.80732 0.0
C924 C 0.7928 0.78694 0.81732 0.0
C925 C 0.81696 0.79507 0.81596 0.0
C926 C 0.78359 0.76868 0.80296 0.0
C927 C 0.7984 0.75838 0.78706 0.0
C928 C 0.82261 0.76588 0.78619 0.0
H929 H 0.73464 0.6825 0.66494 0.0
H930 H 0.76628 0.69815 0.6914 0.0
C931 C 0.83189 0.78397 0.80068 0.0
C932 C 0.78788 0.74212 0.76927 0.0
H933 H 0.75387 0.69033 0.76339 0.0
C934 C 0.78674 0.75037 0.74608 0.0
C935 C 0.77674 0.71992 0.77546 0.0
C936 C 0.77822 0.71021 0.80009 0.0
C937 C 0.77301 0.73772 0.72919 0.0
C938 C 0.76075 0.71597 0.73569 0.0
C939 C 0.7633 0.70702 0.75851 0.0
C940 C 0.74255 0.70403 0.72034 0.0
C941 C 0.77032 0.74858 0.70518 0.0
C942 C 0.71897 0.70135 0.72824 0.0
C943 C 0.70103 0.69216 0.7134 0.0
C944 C 0.70632 0.68567 0.69028 0.0
C945 C 0.73005 0.68772 0.68257 0.0
C946 C 0.7481 0.69664 0.69761 0.0
H947 H 0.77746 0.76728 0.70464 0.0
H948 H 0.78013 0.73917 0.6919 0.0
H949 H 0.7514 0.74726 0.69999 0.0
H950 H 0.71435 0.70701 0.74572 0.0
H951 H 0.68293 0.69073 0.71988 0.0
H952 H 0.42625 0.40378 0.49504 0.0
H953 H 0.43588 0.42887 0.52898 0.0
H954 H 0.45134 0.48798 0.48237 0.0
H955 H 0.44127 0.46325 0.44839 0.0
H956 H 0.47625 0.45465 0.54031 0.0
H957 H 0.4058 0.51286 0.52904 0.0
H958 H 0.40541 0.48517 0.5141 0.0
H959 H 0.42194 0.51094 0.50197 0.0
C960 C 0.43188 0.4221 0.49198 0.0
C961 C 0.43283 0.43161 0.46904 0.0
C962 C 0.43714 0.4364 0.51141 0.0
C963 C 0.44342 0.46036 0.50816 0.0
C964 C 0.44559 0.46966 0.48524 0.0
H965 H 0.52646 0.5705 0.54701 0.0
H966 H 0.49438 0.5424 0.53361 0.0
C967 C 0.4402 0.45545 0.46583 0.0
C968 C 0.44929 0.47566 0.52845 0.0
H969 H 0.44205 0.53024 0.54832 0.0
C970 C 0.46827 0.47083 0.54271 0.0
C971 C 0.43845 0.49647 0.53184 0.0
C972 C 0.41658 0.5015 0.51857 0.0
C973 C 0.47857 0.48759 0.55831 0.0
C974 C 0.46951 0.50954 0.55949 0.0
C975 C 0.44898 0.5134 0.54714 0.0
C976 C 0.48431 0.52983 0.56863 0.0
C977 C 0.50048 0.48266 0.57163 0.0
C978 C 0.48839 0.5326 0.59282 0.0
C979 C 0.5067 0.54874 0.60055 0.0
C980 C 0.52118 0.56194 0.58408 0.0
C981 C 0.51576 0.56033 0.56002 0.0
C982 C 0.49736 0.54444 0.55237 0.0
H983 H 0.50524 0.46465 0.56864 0.0
H984 H 0.51569 0.49523 0.56612 0.0
H985 H 0.49758 0.48497 0.59081 0.0
H986 H 0.47839 0.52137 0.60552 0.0
H987 H 0.5105 0.54973 0.61923 0.0
H988 H 0.00989 0.55676 0.9627 0.0
H989 H 0.987 0.52153 0.97754 0.0
H990 H 0.99751 0.48692 0.9115 0.0
H991 H 0.02172 0.52182 0.89708 0.0
H992 H 0.94923 0.49228 0.9672 0.0
H993 H 0.03046 0.44657 0.95486 0.0
H994 H 0.03064 0.47747 0.94982 0.0
H995 H 0.01742 0.45702 0.92864 0.0
C996 C 0.00689 0.54183 0.95115 0.0
C997 C 0.01796 0.54179 0.92898 0.0
C998 C 0.99378 0.52168 0.95962 0.0
C999 C 0.99119 0.50132 0.94589 0.0
C1000 C 0.0 0.50213 0.9227 0.0
H1001 H 0.92896 0.39152 0.04445 0.0
H1002 H 0.9321 0.41084 0.00566 0.0
C1003 C 0.01366 0.52211 0.91444 0.0
C1004 C 0.98191 0.47897 0.95725 0.0
H1005 H 0.00056 0.42846 0.97856 0.0
C1006 C 0.96023 0.47809 0.96943 0.0
C1007 C 0.99619 0.4603 0.95979 0.0
C1008 C 0.02003 0.46031 0.94774 0.0
C1009 C 0.95367 0.46046 0.98607 0.0
C1010 C 0.96885 0.44277 0.98994 0.0
C1011 C 0.98909 0.44218 0.97569 0.0
C1012 C 0.96722 0.42818 0.01165 0.0
C1013 C 0.93144 0.462 0.00042 0.0
C1014 C 0.98634 0.4305 0.02731 0.0
C1015 C 0.98477 0.41929 0.04911 0.0
C1016 C 0.9639 0.40567 0.05598 0.0
C1017 C 0.94519 0.40216 0.03977 0.0
C1018 C 0.94687 0.4133 0.01768 0.0
H1019 H 0.92424 0.47912 0.99825 0.0
H1020 H 0.91778 0.44823 0.99435 0.0
H1021 H 0.93468 0.45924 0.01946 0.0
H1022 H 0.00227 0.44181 0.02308 0.0
H1023 H -0.00033 0.42216 0.06096 0.0
H1024 H 0.08638 0.07341 0.17927 0.0
H1025 H 0.09554 0.04074 0.20355 0.0
H1026 H 0.14156 0.01878 0.14898 0.0
H1027 H 0.13286 0.05197 0.12461 0.0
H1028 H 0.08796 0.99503 0.19685 0.0
H1029 H 0.18523 0.01779 0.20245 0.0
H1030 H 0.16709 0.0351 0.18509 0.0
H1031 H 0.17517 0.00793 0.17399 0.0
C1032 C 0.09881 0.06192 0.17255 0.0
C1033 C 0.10924 0.06564 0.15017 0.0
C1034 C 0.10393 0.04303 0.18644 0.0
C1035 C 0.11975 0.02747 0.17849 0.0
C1036 C 0.12991 0.0309 0.15593 0.0
H1037 H 0.17842 0.91742 0.25895 0.0
H1038 H 0.16858 0.94431 0.22808 0.0
C1039 C 0.12486 0.04989 0.14199 0.0
C1040 C 0.12491 0.00755 0.19382 0.0
H1041 H 0.16903 0.98476 0.22393 0.0
C1042 C 0.10573 0.99263 0.20268 0.0
C1043 C 0.14815 0.00368 0.20067 0.0
C1044 C 0.17003 0.01706 0.19013 0.0
C1045 C 0.109 0.97437 0.21846 0.0
C1046 C 0.13203 0.97194 0.22717 0.0
C1047 C 0.15125 0.98658 0.2178 0.0
C1048 C 0.1369 0.95422 0.24549 0.0
C1049 C 0.08771 0.9575 0.22466 0.0
C1050 C 0.12233 0.95012 0.26563 0.0
C1051 C 0.12716 0.93343 0.28251 0.0
C1052 C 0.14771 0.92195 0.28057 0.0
C1053 C 0.16264 0.92639 0.26095 0.0
C1054 C 0.15703 0.94193 0.24336 0.0
H1055 H 0.0747 0.95613 0.21005 0.0
H1056 H 0.09274 0.93974 0.22849 0.0
H1057 H 0.07859 0.96402 0.24029 0.0
H1058 H 0.10732 0.95992 0.26856 0.0
H1059 H 0.11542 0.93024 0.29758 0.0
H1060 H 0.31938 0.8975 0.56548 0.0
H1061 H 0.28786 0.89883 0.53614 0.0
H1062 H 0.3399 0.92021 0.48271 0.0
H1063 H 0.37139 0.92047 0.51219 0.0
H1064 H 0.2807 0.94033 0.49923 0.0
H1065 H 0.29503 0.85206 0.47093 0.0
H1066 H 0.31624 0.86837 0.48971 0.0
H1067 H 0.31826 0.87157 0.45823 0.0
C1068 C 0.32403 0.90258 0.5475 0.0
C1069 C 0.34777 0.90874 0.54102 0.0
C1070 C 0.30605 0.90326 0.5308 0.0
C1071 C 0.3116 0.90913 0.50724 0.0
C1072 C 0.33528 0.91554 0.5008 0.0
H1073 H 0.23656 0.93302 0.37992 0.0
H1074 H 0.26004 0.93686 0.41601 0.0
C1075 C 0.3532 0.91563 0.51763 0.0
C1076 C 0.29286 0.90758 0.48911 0.0
H1077 H 0.27044 0.87401 0.44347 0.0
C1078 C 0.27827 0.92576 0.48714 0.0
C1079 C 0.28993 0.88867 0.47322 0.0
C1080 C 0.30574 0.86912 0.47338 0.0
C1081 C 0.26123 0.92584 0.46924 0.0
C1082 C 0.25828 0.90687 0.45337 0.0
C1083 C 0.27241 0.88838 0.45585 0.0
C1084 C 0.24186 0.90637 0.43305 0.0
C1085 C 0.2471 0.94658 0.46718 0.0
C1086 C 0.22369 0.88808 0.4307 0.0
C1087 C 0.20986 0.88615 0.41032 0.0
C1088 C 0.21458 0.90201 0.39154 0.0
C1089 C 0.23244 0.9206 0.39414 0.0
C1090 C 0.24584 0.92285 0.41477 0.0
H1091 H 0.24416 0.95422 0.48478 0.0
H1092 H 0.25727 0.96021 0.45625 0.0
H1093 H 0.22968 0.94204 0.45873 0.0
H1094 H 0.22065 0.87489 0.44435 0.0
H1095 H 0.19641 0.87149 0.40874 0.0
H1096 H 0.37262 0.08557 0.78986 0.0
H1097 H 0.38646 0.06027 0.75941 0.0
H1098 H 0.31405 0.04061 0.73874 0.0
H1099 H 0.3003 0.06447 0.77024 0.0
H1100 H 0.33255 0.00589 0.73458 0.0
H1101 H 0.39785 0.07161 0.69383 0.0
H1102 H 0.40634 0.06703 0.72364 0.0
H1103 H 0.37878 0.07909 0.71746 0.0
C1104 C 0.35975 0.07543 0.77904 0.0
C1105 C 0.33544 0.07676 0.78246 0.0
C1106 C 0.36765 0.06118 0.76139 0.0
C1107 C 0.35146 0.04873 0.74622 0.0
C1108 C 0.32708 0.04983 0.7501 0.0
H1109 H 0.37042 0.95749 0.62451 0.0
H1110 H 0.35494 0.98652 0.65016 0.0
C1111 C 0.31916 0.06343 0.76821 0.0
C1112 C 0.35963 0.03407 0.72676 0.0
H1113 H 0.40158 0.03164 0.68355 0.0
C1114 C 0.34739 0.0119 0.72319 0.0
C1115 C 0.37875 0.0417 0.7114 0.0
C1116 C 0.39092 0.06627 0.71163 0.0
C1117 C 0.3538 0.99711 0.70523 0.0
C1118 C 0.3742 0.00398 0.69136 0.0
C1119 C 0.3863 0.02619 0.6946 0.0
C1120 C 0.38426 0.9881 0.67444 0.0
C1121 C 0.33834 0.97441 0.70205 0.0
C1122 C 0.40666 0.9807 0.67868 0.0
C1123 C 0.41572 0.96431 0.66397 0.0
C1124 C 0.40257 0.95516 0.64461 0.0
C1125 C 0.38082 0.96383 0.63952 0.0
C1126 C 0.37188 0.98035 0.65418 0.0
H1127 H 0.3391 0.96348 0.71809 0.0
H1128 H 0.31959 0.9781 0.70023 0.0
H1129 H 0.34293 0.9641 0.68665 0.0
H1130 H 0.41678 0.98707 0.69385 0.0
H1131 H 0.43271 0.95836 0.66815 0.0
H1132 H 0.24048 0.08769 0.88392 0.0
H1133 H 0.21425 0.09793 0.9155 0.0
H1134 H 0.25121 0.16724 0.91809 0.0
H1135 H 0.27839 0.15655 0.88722 0.0
H1136 H 0.24095 0.1557 0.95931 0.0
H1137 H 0.15876 0.13243 0.91099 0.0
H1138 H 0.17433 0.10697 0.91157 0.0
H1139 H 0.18728 0.1331 0.89666 0.0
C1140 C 0.24318 0.10502 0.89142 0.0
C1141 C 0.2614 0.12134 0.88308 0.0
C1142 C 0.22781 0.11108 0.9091 0.0
C1143 C 0.22993 0.13377 0.91844 0.0
C1144 C 0.24889 0.14976 0.91091 0.0
H1145 H 0.13851 0.16217 0.04167 0.0
H1146 H 0.16333 0.17309 0.00672 0.0
C1147 C 0.26457 0.14356 0.89344 0.0
C1148 C 0.2131 0.14003 0.93701 0.0
H1149 H 0.15539 0.12841 0.95435 0.0
C1150 C 0.22214 0.15035 0.95793 0.0
C1151 C 0.18833 0.13402 0.9351 0.0
C1152 C 0.17667 0.12633 0.9122 0.0
C1153 C 0.20745 0.15236 0.97768 0.0
C1154 C 0.18353 0.14303 0.97671 0.0
C1155 C 0.174 0.1349 0.95521 0.0
C1156 C 0.16943 0.13755 0.99836 0.0
C1157 C 0.21766 0.16346 -0.00021 0.0
C1158 C 0.1652 0.11413 0.00535 0.0
C1159 C 0.15126 0.10791 0.02507 0.0
C1160 C 0.14116 0.125 0.03829 0.0
C1161 C 0.14606 0.14864 0.0318 0.0
C1162 C 0.16012 0.15489 0.01186 0.0
H1163 H 0.2372 0.16745 0.99859 0.0
H1164 H 0.20969 0.18 0.00294 0.0
H1165 H 0.21301 0.1519 0.01516 0.0
H1166 H 0.17253 0.10055 0.9953 0.0
H1167 H 0.14804 0.08957 0.02969 0.0
H1168 H 0.16563 0.07327 0.1987 0.0
H1169 H 0.16372 0.04403 0.23034 0.0
H1170 H 0.10296 0.0727 0.26008 0.0
H1171 H 0.105 0.10214 0.22843 0.0
H1172 H 0.16909 0.04822 0.27491 0.0
H1173 H 0.07816 0.00535 0.26128 0.0
H1174 H 0.09311 0.02471 0.2398 0.0
H1175 H 0.07909 0.03636 0.26502 0.0
C1176 C 0.15133 0.0727 0.21151 0.0
C1177 C 0.13488 0.08926 0.21064 0.0
C1178 C 0.15036 0.05613 0.22964 0.0
C1179 C 0.13263 0.05543 0.24706 0.0
C1180 C 0.11623 0.07218 0.24634 0.0
H1181 H 0.10228 0.97586 0.3746 0.0
H1182 H 0.10818 0.0064 0.34434 0.0
C1183 C 0.11744 0.08907 0.22835 0.0
C1184 C 0.13245 0.03805 0.26662 0.0
H1185 H 0.09748 0.99546 0.29609 0.0
C1186 C 0.15345 0.03658 0.27939 0.0
C1187 C 0.11211 0.02273 0.27253 0.0
C1188 C 0.0894 0.02216 0.25883 0.0
C1189 C 0.15448 0.02062 0.2981 0.0
C1190 C 0.13401 0.00576 0.30419 0.0
C1191 C 0.11311 0.00706 0.29142 0.0
C1192 C 0.13347 0.98892 0.32405 0.0
C1193 C 0.17726 0.02009 0.31155 0.0
C1194 C 0.14623 0.96926 0.32296 0.0
C1195 C 0.14238 0.95147 0.33995 0.0
C1196 C 0.12631 0.95358 0.3585 0.0
C1197 C 0.11481 0.97395 0.3604 0.0
C1198 C 0.11813 0.99134 0.34316 0.0
H1199 H 0.19 0.0356 0.30763 0.0
H1200 H 0.1737 0.01926 0.33083 0.0
H1201 H 0.18569 0.00422 0.30659 0.0
H1202 H 0.15821 0.96714 0.30837 0.0
H1203 H 0.15154 0.93595 0.33842 0.0
H1204 H 0.29322 0.85109 0.60289 0.0
H1205 H 0.25848 0.85845 0.57986 0.0
H1206 H 0.2954 0.84221 0.51611 0.0
H1207 H 0.3292 0.83296 0.53949 0.0
H1208 H 0.2483 0.88676 0.5527 0.0
H1209 H 0.2376 0.80729 0.49896 0.0
H1210 H 0.25879 0.81043 0.52245 0.0
H1211 H 0.26651 0.82154 0.4932 0.0
C1212 C 0.29379 0.8492 0.58391 0.0
C1213 C 0.31375 0.84161 0.57284 0.0
C1214 C 0.27391 0.85332 0.57068 0.0
C1215 C 0.27384 0.85056 0.54599 0.0
C1216 C 0.29436 0.84375 0.53501 0.0
H1217 H 0.17939 0.92685 0.46241 0.0
H1218 H 0.21083 0.91412 0.48682 0.0
C1219 C 0.3139 0.83883 0.54833 0.0
C1220 C 0.25299 0.85627 0.53181 0.0
H1221 H 0.2198 0.84042 0.48334 0.0
C1222 C 0.24191 0.87624 0.53782 0.0
C1223 C 0.24391 0.84255 0.51254 0.0
C1224 C 0.25219 0.81914 0.50667 0.0
C1225 C 0.22266 0.88308 0.52508 0.0
C1226 C 0.21504 0.87055 0.50459 0.0
C1227 C 0.22576 0.85037 0.49875 0.0
C1228 C 0.19607 0.87803 0.48903 0.0
C1229 C 0.21045 0.90333 0.53438 0.0
C1230 C 0.17778 0.86176 0.48084 0.0
C1231 C 0.16009 0.86889 0.46613 0.0
C1232 C 0.16016 0.89248 0.45971 0.0
C1233 C 0.17864 0.90861 0.46747 0.0
C1234 C 0.19655 0.90139 0.48164 0.0
H1235 H 0.21201 0.90461 0.55387 0.0
H1236 H 0.21915 0.91987 0.52682 0.0
H1237 H 0.19134 0.90169 0.5299 0.0
H1238 H 0.17695 0.84358 0.48608 0.0
H1239 H 0.14603 0.85609 0.46035 0.0
H1240 H 0.41255 0.06085 0.80269 0.0
H1241 H 0.41392 0.03225 0.7709 0.0
H1242 H 0.37935 0.9788 0.81634 0.0
H1243 H 0.37727 0.0072 0.8477 0.0
H1244 H 0.43447 0.99471 0.76586 0.0
H1245 H 0.33838 0.96764 0.76114 0.0
H1246 H 0.35021 0.99285 0.77755 0.0
H1247 H 0.34917 0.96399 0.79032 0.0
C1248 C 0.40485 0.04309 0.80574 0.0
C1249 C 0.39442 0.03646 0.82764 0.0
C1250 C 0.40572 0.02671 0.78758 0.0
C1251 C 0.39601 0.00345 0.79083 0.0
C1252 C 0.38603 0.99678 0.81288 0.0
H1253 H 0.43234 0.88598 0.70459 0.0
H1254 H 0.43186 0.91684 0.73401 0.0
C1255 C 0.38502 0.01309 0.83094 0.0
C1256 C 0.39705 0.98593 0.7716 0.0
H1257 H 0.36388 0.94203 0.74311 0.0
C1258 C 0.41893 0.98344 0.76061 0.0
C1259 C 0.3768 0.97132 0.76443 0.0
C1260 C 0.3523 0.97426 0.77379 0.0
C1261 C 0.42122 0.96654 0.7431 0.0
C1262 C 0.40119 0.95105 0.73688 0.0
C1263 C 0.37929 0.95377 0.74773 0.0
C1264 C 0.40216 0.93231 0.71881 0.0
C1265 C 0.44509 0.96584 0.73138 0.0
C1266 C 0.3852 0.92993 0.70082 0.0
C1267 C 0.38537 0.91229 0.684 0.0
C1268 C 0.40234 0.89621 0.68497 0.0
C1269 C 0.41927 0.89836 0.70307 0.0
C1270 C 0.41909 0.91612 0.71988 0.0
H1271 H 0.45547 0.98329 0.73161 0.0
H1272 H 0.45532 0.95359 0.74124 0.0
H1273 H 0.44346 0.95996 0.71282 0.0
H1274 H 0.37182 0.94187 0.69965 0.0
H1275 H 0.37185 0.91099 0.67055 0.0
H1276 H 0.33529 0.07532 0.92511 0.0
H1277 H 0.30556 0.07994 0.95559 0.0
H1278 H 0.32433 0.15443 0.95477 0.0
H1279 H 0.35472 0.14986 0.92485 0.0
H1280 H 0.32536 0.13608 -0.00104 0.0
H1281 H 0.24087 0.10133 0.95719 0.0
H1282 H 0.26369 0.08204 0.95717 0.0
H1283 H 0.26781 0.10858 0.94021 0.0
C1284 C 0.33269 0.09277 0.93093 0.0
C1285 C 0.34749 0.11222 0.92253 0.0
C1286 C 0.31557 0.09539 0.94839 0.0
C1287 C 0.3125 0.11757 0.95746 0.0
C1288 C 0.32636 0.13713 0.94813 0.0
H1289 H 0.23873 0.18094 0.06964 0.0
H1290 H 0.26497 0.17072 0.03814 0.0
C1291 C 0.34368 0.1345 0.93091 0.0
C1292 C 0.29654 0.12032 0.97807 0.0
H1293 H 0.23899 0.11195 0.99711 0.0
C1294 C 0.30645 0.13085 0.9985 0.0
C1295 C 0.27201 0.11278 0.9779 0.0
C1296 C 0.26037 0.10069 0.95688 0.0
C1297 C 0.29256 0.13438 0.01852 0.0
C1298 C 0.26774 0.12817 0.01784 0.0
C1299 C 0.25792 0.11697 0.99767 0.0
C1300 C 0.25162 0.13411 0.03735 0.0
C1301 C 0.30487 0.14423 0.04033 0.0
C1302 C 0.2343 0.1173 0.04678 0.0
C1303 C 0.21884 0.12325 0.06468 0.0
C1304 C 0.2203 0.14618 0.07343 0.0
C1305 C 0.23719 0.16306 0.06351 0.0
C1306 C 0.25259 0.15712 0.04572 0.0
H1307 H 0.32336 0.13951 0.04118 0.0
H1308 H 0.30576 0.16357 0.03976 0.0
H1309 H 0.2954 0.13785 0.05667 0.0
H1310 H 0.23291 0.09948 0.04047 0.0
H1311 H 0.20603 0.10982 0.07191 0.0
H1312 H 0.94773 0.332 0.12582 0.0
H1313 H 0.97917 0.30623 0.12337 0.0
H1314 H 0.95063 0.27801 0.05828 0.0
H1315 H 0.91899 0.30388 0.06035 0.0
H1316 H 0.95556 0.24465 0.09332 0.0
H1317 H 0.03872 0.30269 0.0823 0.0
H1318 H 0.02025 0.31222 0.10544 0.0
H1319 H 0.01002 0.31187 0.07552 0.0
C1320 C 0.94859 0.32103 0.11049 0.0
C1321 C 0.93086 0.32017 0.09324 0.0
C1322 C 0.96664 0.30632 0.10915 0.0
C1323 C 0.96744 0.2905 0.09056 0.0
C1324 C 0.95043 0.29026 0.0727 0.0
H1325 H 0.07388 0.18978 0.08651 0.0
H1326 H 0.05209 0.22337 0.07748 0.0
C1327 C 0.93237 0.30508 0.07393 0.0
C1328 C 0.98409 0.27231 0.09173 0.0
H1329 H 0.04239 0.26444 0.09869 0.0
C1330 C 0.9746 0.24896 0.09421 0.0
C1331 C 0.00891 0.27792 0.09262 0.0
C1332 C 0.02012 0.30252 0.0886 0.0
C1333 C 0.98917 0.23121 0.09876 0.0
C1334 C 0.01386 0.23705 0.10139 0.0
C1335 C 0.02347 0.26018 0.09748 0.0
C1336 C 0.02969 0.21931 0.10856 0.0
C1337 C 0.97791 0.20636 0.10076 0.0
C1338 C 0.02535 0.20685 0.12973 0.0
C1339 C 0.03758 0.18761 0.13483 0.0
C1340 C 0.05475 0.18071 0.11907 0.0
C1341 C 0.06064 0.19454 0.09893 0.0
C1342 C 0.04817 0.21371 0.09372 0.0
H1343 H 0.9607 0.20397 0.0914 0.0
H1344 H 0.98971 0.19389 0.09344 0.0
H1345 H 0.97445 0.20197 0.11962 0.0
H1346 H 0.01171 0.21138 0.14183 0.0
H1347 H 0.03284 0.17758 0.15067 0.0
H1348 H 0.5105 0.34558 0.82953 0.0
H1349 H 0.48153 0.31137 0.82764 0.0
H1350 H 0.51051 0.28375 0.89083 0.0
H1351 H 0.53824 0.31913 0.89387 0.0
H1352 H 0.46513 0.25153 0.83163 0.0
H1353 H 0.44224 0.27945 0.90893 0.0
H1354 H 0.46359 0.30106 0.89583 0.0
H1355 H 0.47322 0.27596 0.91058 0.0
C1356 C 0.5107 0.33225 0.84306 0.0
C1357 C 0.52696 0.33484 0.86164 0.0
C1358 C 0.49414 0.31265 0.84195 0.0
C1359 C 0.49345 0.29514 0.85936 0.0
C1360 C 0.51021 0.29728 0.87754 0.0
H1361 H 0.38751 0.16948 0.86959 0.0
H1362 H 0.42065 0.19884 0.87918 0.0
C1363 C 0.52652 0.31719 0.8789 0.0
C1364 C 0.4753 0.27473 0.85785 0.0
H1365 H 0.42732 0.24676 0.88786 0.0
C1366 C 0.4745 0.26295 0.83638 0.0
C1367 C 0.45856 0.26853 0.8763 0.0
C1368 C 0.45932 0.28206 0.89909 0.0
C1369 C 0.45435 0.24257 0.83312 0.0
C1370 C 0.43656 0.23764 0.8528 0.0
C1371 C 0.44002 0.2504 0.87362 0.0
C1372 C 0.41483 0.22147 0.84967 0.0
C1373 C 0.45019 0.22494 0.81019 0.0
C1374 C 0.39958 0.22542 0.83109 0.0
C1375 C 0.38108 0.20872 0.82542 0.0
C1376 C 0.37688 0.18814 0.8388 0.0
C1377 C 0.39068 0.1851 0.85882 0.0
C1378 C 0.40965 0.20174 0.86421 0.0
H1379 H 0.43599 0.23066 0.79887 0.0
H1380 H 0.46652 0.22574 0.7992 0.0
H1381 H 0.44513 0.20666 0.81603 0.0
H1382 H 0.40256 0.24108 0.82036 0.0
H1383 H 0.37024 0.21177 0.81028 0.0
H1384 H 0.96731 0.66644 0.40758 0.0
H1385 H -0.00059 0.69412 0.3938 0.0
H1386 H 0.97625 0.68341 0.32201 0.0
H1387 H 0.94374 0.655 0.33594 0.0
H1388 H 0.03615 0.69498 0.36684 0.0
H1389 H 0.97399 0.75168 0.32664 0.0
H1390 H 0.96416 0.72324 0.33832 0.0
H1391 H 0.97708 0.72603 0.30942 0.0
C1392 C 0.96886 0.67 0.38883 0.0
C1393 C 0.95262 0.6589 0.3729 0.0
C1394 C 0.98741 0.68585 0.38091 0.0
C1395 C 0.98987 0.69171 0.35692 0.0
C1396 C 0.97434 0.67981 0.34072 0.0
H1397 H 0.08183 0.8079 0.29656 0.0
H1398 H 0.05403 0.77326 0.30246 0.0
C1399 C 0.95578 0.66357 0.34866 0.0
C1400 C 0.00811 0.711 0.34965 0.0
H1401 H 0.01464 0.76584 0.32557 0.0
C1402 C 0.03146 0.71039 0.35763 0.0
C1403 C 0.00226 0.73112 0.33733 0.0
C1404 C 0.97796 0.73318 0.32756 0.0
C1405 C 0.04875 0.72943 0.35432 0.0
C1406 C 0.04242 0.74996 0.34323 0.0
C1407 C 0.01942 0.75025 0.33441 0.0
C1408 C 0.05934 0.77126 0.34014 0.0
C1409 C 0.07361 0.72725 0.36269 0.0
C1410 C 0.07124 0.78216 0.35945 0.0
C1411 C 0.08731 0.80205 0.3561 0.0
C1412 C 0.09155 0.81152 0.33342 0.0
C1413 C 0.079 0.80105 0.31429 0.0
C1414 C 0.06309 0.78118 0.31762 0.0
H1415 H 0.07728 0.70868 0.36381 0.0
H1416 H 0.08698 0.73672 0.3508 0.0
H1417 H 0.07574 0.73479 0.38061 0.0
H1418 H 0.06818 0.77532 0.37712 0.0
H1419 H 0.09669 0.80973 0.37119 0.0
H1420 H 0.98424 0.32773 0.16143 0.0
H1421 H 0.01028 0.29635 0.16286 0.0
H1422 H 0.07013 0.34555 0.14459 0.0
H1423 H 0.04412 0.37682 0.14249 0.0
H1424 H 0.06688 0.30753 0.11622 0.0
H1425 H 0.05939 0.27876 0.20946 0.0
H1426 H 0.03119 0.27931 0.19545 0.0
H1427 H 0.04992 0.30612 0.19948 0.0
C1428 C 0.00302 0.33194 0.15813 0.0
C1429 C 0.01204 0.35474 0.15167 0.0
C1430 C 0.01794 0.31399 0.15913 0.0
C1431 C 0.04225 0.31858 0.15403 0.0
C1432 C 0.05146 0.34156 0.14863 0.0
H1433 H 0.15364 0.22648 0.1263 0.0
H1434 H 0.13089 0.26003 0.12927 0.0
C1435 C 0.03655 0.35947 0.14758 0.0
C1436 C 0.05766 0.29918 0.15234 0.0
H1437 H 0.07677 0.25351 0.18287 0.0
C1438 C 0.0691 0.29571 0.1308 0.0
C1439 C 0.06066 0.28385 0.17138 0.0
C1440 C 0.04984 0.28729 0.19532 0.0
C1441 C 0.08252 0.27675 0.12737 0.0
C1442 C 0.08541 0.2612 0.14638 0.0
C1443 C 0.07443 0.26511 0.16814 0.0
C1444 C 0.09948 0.2407 0.14419 0.0
C1445 C 0.09243 0.2731 0.10303 0.0
C1446 C 0.09011 0.21864 0.15262 0.0
C1447 C 0.10341 0.19949 0.15157 0.0
C1448 C 0.12641 0.20183 0.14187 0.0
C1449 C 0.13576 0.22385 0.1333 0.0
C1450 C 0.12262 0.24312 0.13483 0.0
H1451 H 0.08254 0.28176 0.08922 0.0
H1452 H 0.11107 0.281 0.10211 0.0
H1453 H 0.09186 0.25425 0.09877 0.0
H1454 H 0.07251 0.21627 0.1603 0.0
H1455 H 0.09575 0.18288 0.15865 0.0
H1456 H 0.57536 0.69095 0.65908 0.0
H1457 H 0.55076 0.72324 0.65938 0.0
H1458 H 0.60174 0.76345 0.61473 0.0
H1459 H 0.62567 0.73063 0.61313 0.0
H1460 H 0.55754 0.76354 0.67646 0.0
H1461 H 0.54514 0.77698 0.58107 0.0
H1462 H 0.56006 0.75305 0.59196 0.0
H1463 H 0.57594 0.78155 0.5882 0.0
C1464 C 0.5811 0.70646 0.64884 0.0
C1465 C 0.60238 0.70797 0.63576 0.0
C1466 C 0.56704 0.72505 0.64916 0.0
C1467 C 0.57401 0.74583 0.63673 0.0
C1468 C 0.59536 0.74743 0.62378 0.0
H1469 H 0.51708 0.88031 0.62698 0.0
H1470 H 0.54353 0.84944 0.62996 0.0
C1471 C 0.60918 0.72861 0.623 0.0
C1472 C 0.55963 0.76613 0.63853 0.0
H1473 H 0.5349 0.80761 0.60634 0.0
C1474 C 0.55239 0.77297 0.66104 0.0
C1475 C 0.55296 0.77876 0.61852 0.0
C1476 C 0.55875 0.77203 0.59362 0.0
C1477 C 0.53891 0.79194 0.66409 0.0
C1478 C 0.53235 0.80448 0.64412 0.0
C1479 C 0.53983 0.79794 0.62168 0.0
C1480 C 0.51727 0.82412 0.6458 0.0
C1481 C 0.53205 0.79858 0.68871 0.0
C1482 C 0.49385 0.82043 0.65433 0.0
C1483 C 0.47853 0.83792 0.65221 0.0
C1484 C 0.48656 0.8596 0.64204 0.0
C1485 C 0.51043 0.86381 0.63504 0.0
C1486 C 0.52554 0.84614 0.63661 0.0
H1487 H 0.54369 0.79168 0.70217 0.0
H1488 H 0.53285 0.81784 0.69056 0.0
H1489 H 0.51359 0.79108 0.69242 0.0
H1490 H 0.48704 0.80371 0.66166 0.0
H1491 H 0.46021 0.83423 0.65774 0.0
H1492 H 0.90257 0.68126 0.39273 0.0
H1493 H 0.93079 0.71314 0.40731 0.0
H1494 H 0.92856 0.74796 0.33988 0.0
H1495 H 0.90123 0.71653 0.32544 0.0
H1496 H 0.97261 0.72647 0.39621 0.0
H1497 H 0.92625 0.80299 0.37827 0.0
H1498 H 0.91113 0.77396 0.37658 0.0
H1499 H 0.9263 0.78748 0.35107 0.0
C1500 C 0.90814 0.69583 0.38115 0.0
C1501 C 0.89998 0.69617 0.35781 0.0
C1502 C 0.92413 0.71414 0.38953 0.0
C1503 C 0.93165 0.73338 0.37492 0.0
C1504 C 0.92264 0.73392 0.35194 0.0
H1505 H 0.04133 0.84016 0.34603 0.0
H1506 H 0.00949 0.8082 0.34744 0.0
C1507 C 0.90727 0.71554 0.34346 0.0
C1508 C 0.95083 0.75163 0.38214 0.0
H1509 H 0.96972 0.8093 0.37364 0.0
C1510 C 0.97191 0.74456 0.3914 0.0
C1511 C 0.94975 0.77563 0.37712 0.0
C1512 C 0.92697 0.78538 0.37051 0.0
C1513 C 0.99254 0.76021 0.39329 0.0
C1514 C 0.99203 0.78361 0.38573 0.0
C1515 C 0.97043 0.79112 0.37845 0.0
C1516 C 0.01358 0.80065 0.38454 0.0
C1517 C 0.0148 0.75134 0.40262 0.0
C1518 C 0.02713 0.80651 0.40469 0.0
C1519 C 0.04581 0.82437 0.40373 0.0
C1520 C 0.05083 0.83713 0.38278 0.0
C1521 C 0.03784 0.83068 0.36244 0.0
C1522 C 0.01954 0.81251 0.36327 0.0
H1523 H 0.0141 0.73207 0.40175 0.0
H1524 H 0.03065 0.75898 0.39276 0.0
H1525 H 0.01694 0.75636 0.42139 0.0
H1526 H 0.02261 0.79807 0.42144 0.0
H1527 H 0.05526 0.8292 0.41979 0.0
H1528 H 0.45463 0.19751 0.90762 0.0
H1529 H 0.48653 0.2282 0.89917 0.0
H1530 H 0.51303 0.18571 0.84449 0.0
H1531 H 0.47998 0.15567 0.85172 0.0
H1532 H 0.53226 0.22632 0.90405 0.0
H1533 H 0.52617 0.21757 0.81403 0.0
H1534 H 0.51529 0.24549 0.81043 0.0
H1535 H 0.49782 0.22242 0.82606 0.0
C1536 C 0.46694 0.19493 0.89342 0.0
C1537 C 0.46458 0.17431 0.88009 0.0
C1538 C 0.48528 0.21244 0.8887 0.0
C1539 C 0.50213 0.20951 0.87098 0.0
C1540 C 0.49994 0.18878 0.85779 0.0
H1541 H 0.62271 0.30153 0.82001 0.0
H1542 H 0.59279 0.26914 0.82759 0.0
C1543 C 0.48107 0.17156 0.86197 0.0
C1544 C 0.52254 0.22769 0.86748 0.0
H1545 H 0.55046 0.26509 0.82702 0.0
C1546 C 0.53628 0.23481 0.88718 0.0
C1547 C 0.52843 0.23827 0.84533 0.0
C1548 C 0.51601 0.23059 0.82284 0.0
C1549 C 0.55565 0.25203 0.88541 0.0
C1550 C 0.56057 0.26371 0.86358 0.0
C1551 C 0.54681 0.25648 0.84389 0.0
C1552 C 0.58008 0.283 0.86027 0.0
C1553 C 0.57103 0.25659 0.90684 0.0
C1554 C 0.58361 0.3017 0.87622 0.0
C1555 C 0.6012 0.3202 0.8721 0.0
C1556 C 0.61532 0.32063 0.85167 0.0
C1557 C 0.61187 0.30197 0.83577 0.0
C1558 C 0.59467 0.28334 0.84011 0.0
H1559 H 0.57057 0.2408 0.91825 0.0
H1560 H 0.58976 0.26198 0.90191 0.0
H1561 H 0.56415 0.27057 0.91751 0.0
H1562 H 0.57274 0.3022 0.89184 0.0
H1563 H 0.60356 0.33423 0.88476 0.0
H1564 H 0.8608 0.066 0.705 0.0
H1565 H 0.86305 0.03163 0.73017 0.0
H1566 H 0.88195 0.07622 0.78935 0.0
H1567 H 0.88043 0.11046 0.76437 0.0
H1568 H 0.90797 0.04197 0.78953 0.0
H1569 H 0.8148 0.00517 0.77606 0.0
H1570 H 0.83206 0.00765 0.74943 0.0
H1571 H 0.82601 0.0336 0.76502 0.0
C1572 C 0.86559 0.06842 0.72334 0.0
C1573 C 0.87035 0.09094 0.73271 0.0
C1574 C 0.86676 0.04875 0.73773 0.0
C1575 C 0.87235 0.05125 0.76175 0.0
C1576 C 0.8776 0.07376 0.7709 0.0
H1577 H 0.84001 0.94972 0.87323 0.0
H1578 H 0.84023 0.98089 0.84402 0.0
C1579 C 0.87669 0.09336 0.75655 0.0
C1580 C 0.87268 0.03071 0.77767 0.0
H1581 H 0.83841 0.98344 0.79979 0.0
C1582 C 0.89281 0.02902 0.79162 0.0
C1583 C 0.85278 0.01401 0.7807 0.0
C1584 C 0.83011 0.01527 0.76718 0.0
C1585 C 0.89362 0.01123 0.80852 0.0
C1586 C 0.874 0.99409 0.81104 0.0
C1587 C 0.85377 0.996 0.79731 0.0
C1588 C 0.87376 0.9744 0.82818 0.0
C1589 C 0.91522 0.01157 0.82394 0.0
C1590 C 0.89218 0.95979 0.82869 0.0
C1591 C 0.89218 0.94198 0.84556 0.0
C1592 C 0.87359 0.93826 0.86204 0.0
C1593 C 0.85465 0.95217 0.86081 0.0
C1594 C 0.85475 0.97005 0.84409 0.0
H1595 H 0.92458 0.02943 0.82521 0.0
H1596 H 0.9105 0.0052 0.84204 0.0
H1597 H 0.92779 0.00017 0.81609 0.0
H1598 H 0.90673 0.96218 0.81624 0.0
H1599 H 0.90697 0.93149 0.84598 0.0
H1600 H 0.68498 0.091 0.44708 0.0
H1601 H 0.71354 0.09565 0.47909 0.0
H1602 H 0.6732 0.14652 0.51167 0.0
H1603 H 0.64482 0.14239 0.47944 0.0
H1604 H 0.71699 0.16049 0.51617 0.0
H1605 H 0.70641 0.06754 0.54258 0.0
H1606 H 0.71591 0.07077 0.51246 0.0
H1607 H 0.68742 0.0793 0.52117 0.0
C1608 C 0.68231 0.10342 0.46088 0.0
C1609 C 0.66248 0.11625 0.46065 0.0
C1610 C 0.69859 0.10588 0.47935 0.0
C1611 C 0.69535 0.12104 0.49817 0.0
C1612 C 0.67609 0.13456 0.4975 0.0
H1613 H 0.77707 0.11506 0.62974 0.0
H1614 H 0.74593 0.10854 0.59981 0.0
C1615 C 0.65984 0.13219 0.47899 0.0
C1616 C 0.71205 0.12293 0.51846 0.0
H1617 H 0.73998 0.09073 0.55846 0.0
C1618 C 0.72189 0.14519 0.52544 0.0
C1619 C 0.71783 0.10314 0.53138 0.0
C1620 C 0.70611 0.07889 0.5267 0.0
C1621 C 0.7379 0.14811 0.54423 0.0
C1622 C 0.74557 0.12817 0.55546 0.0
C1623 C 0.73477 0.10601 0.5494 0.0
C1624 C 0.76507 0.13008 0.57309 0.0
C1625 C 0.74563 0.17261 0.55247 0.0
C1626 C 0.78668 0.14324 0.5678 0.0
C1627 C 0.80417 0.14716 0.58479 0.0
C1628 C 0.8008 0.13745 0.60738 0.0
C1629 C 0.78009 0.12267 0.61233 0.0
C1630 C 0.76226 0.11908 0.5953 0.0
H1631 H 0.73215 0.18468 0.54823 0.0
H1632 H 0.7487 0.17305 0.57178 0.0
H1633 H 0.76231 0.17937 0.54342 0.0
H1634 H 0.78996 0.15117 0.55075 0.0
H1635 H 0.82014 0.15837 0.58045 0.0
H1636 H 0.64432 0.91981 0.19063 0.0
H1637 H 0.6481 0.9554 0.21444 0.0
H1638 H 0.5959 0.9235 0.26345 0.0
H1639 H 0.59179 0.88822 0.23972 0.0
H1640 H 0.58907 0.96734 0.2567 0.0
H1641 H 0.68452 0.9623 0.27438 0.0
H1642 H 0.67766 0.96519 0.24374 0.0
H1643 H 0.66647 0.93925 0.25973 0.0
C1644 C 0.63344 0.92052 0.20632 0.0
C1645 C 0.61792 0.90109 0.2134 0.0
C1646 C 0.63581 0.94079 0.22006 0.0
C1647 C 0.62268 0.94198 0.24105 0.0
C1648 C 0.60633 0.92302 0.24742 0.0
H1649 H 0.65523 0.02368 0.36504 0.0
H1650 H 0.65257 0.9958 0.33278 0.0
C1651 C 0.60399 0.90281 0.23379 0.0
C1652 C 0.62617 0.96252 0.25694 0.0
H1653 H 0.66724 0.99392 0.29091 0.0
C1654 C 0.60621 0.97334 0.26401 0.0
C1655 C 0.64846 0.97004 0.26686 0.0
C1656 C 0.67047 0.95848 0.26099 0.0
C1657 C 0.60776 0.99115 0.28094 0.0
C1658 C 0.63011 -0.00115 0.29074 0.0
C1659 C 0.65012 0.9882 0.28339 0.0
C1660 C 0.63305 0.01684 0.30964 0.0
C1661 C 0.5851 0.00052 0.28885 0.0
C1662 C 0.62373 0.03842 0.30731 0.0
C1663 C 0.62524 0.0545 0.32581 0.0
C1664 C 0.6362 0.04933 0.34705 0.0
C1665 C 0.64666 0.02827 0.3489 0.0
C1666 C 0.6451 0.01223 0.33043 0.0
H1667 H 0.58539 0.00457 0.30796 0.0
H1668 H 0.5828 0.01672 0.27879 0.0
H1669 H 0.56938 0.98791 0.28537 0.0
H1670 H 0.61476 0.04259 0.29138 0.0
H1671 H 0.61686 0.07047 0.32389 0.0
H1672 H 0.85153 0.81752 0.96757 0.0
H1673 H 0.81927 0.8062 0.99616 0.0
H1674 H 0.78821 0.86941 0.98016 0.0
H1675 H 0.81876 0.88016 0.951 0.0
H1676 H 0.80248 0.85658 0.03196 0.0
H1677 H 0.73904 0.80237 0.97757 0.0
H1678 H 0.76151 0.78505 0.98763 0.0
H1679 H 0.76942 0.80933 0.96818 0.0
C1680 C 0.83725 0.82851 0.96959 0.0
C1681 C 0.8374 0.84947 0.95665 0.0
C1682 C 0.81901 0.82213 0.98596 0.0
C1683 C 0.80121 0.83696 0.98986 0.0
C1684 C 0.80136 0.85757 0.97682 0.0
H1685 H 0.69346 0.86504 0.09144 0.0
H1686 H 0.72466 0.86711 0.06128 0.0
C1687 C 0.8189 0.86358 0.96009 0.0
C1688 C 0.78313 0.83244 0.00857 0.0
H1689 H 0.72724 0.80671 0.01901 0.0
C1690 C 0.78612 0.84543 0.02936 0.0
C1691 C 0.76184 0.81804 0.0049 0.0
C1692 C 0.75781 0.80312 0.98322 0.0
C1693 C 0.76829 0.84452 0.04668 0.0
C1694 C 0.7465 0.83088 0.04264 0.0
C1695 C 0.74376 0.81748 0.02199 0.0
C1696 C 0.72656 0.82977 0.05987 0.0
C1697 C 0.77326 0.85791 0.06922 0.0
C1698 C 0.71642 0.80807 0.0683 0.0
C1699 C 0.69824 0.80681 0.08509 0.0
C1700 C 0.68983 0.82726 0.0939 0.0
C1701 C 0.69957 0.84899 0.08504 0.0
C1702 C 0.71761 0.8502 0.068 0.0
H1703 H 0.79259 0.86107 0.07258 0.0
H1704 H 0.76632 0.87519 0.06773 0.0
H1705 H 0.76468 0.84847 0.08463 0.0
H1706 H 0.72292 0.79204 0.06227 0.0
H1707 H 0.69115 0.78976 0.09154 0.0
H1708 H 0.90462 0.02507 0.64285 0.0
H1709 H 0.90274 -0.00124 0.67671 0.0
H1710 H 0.83159 0.015 0.6919 0.0
H1711 H 0.83286 0.0402 0.65683 0.0
H1712 H 0.89919 0.00349 0.72045 0.0
H1713 H 0.81958 0.94657 0.69393 0.0
H1714 H 0.83382 0.96869 0.67458 0.0
H1715 H 0.8132 0.97625 0.69694 0.0
C1716 C 0.88855 0.02306 0.65341 0.0
C1717 C 0.8688 0.03455 0.64709 0.0
C1718 C 0.88747 0.00794 0.67278 0.0
C1719 C 0.86678 0.00426 0.68659 0.0
C1720 C 0.8474 0.01667 0.68098 0.0
H1721 H 0.82518 0.92223 0.81076 0.0
H1722 H 0.82901 0.9491 0.77737 0.0
C1723 C 0.84823 0.03134 0.66114 0.0
C1724 C 0.86591 0.98781 0.70703 0.0
H1725 H 0.8328 0.94179 0.73317 0.0
C1726 C 0.88471 0.98989 0.72313 0.0
C1727 C 0.84721 0.96984 0.71049 0.0
C1728 C 0.82748 0.96502 0.69291 0.0
C1729 C 0.88511 0.97504 0.74279 0.0
C1730 C 0.86594 0.95765 0.74676 0.0
C1731 C 0.84728 0.95538 0.73049 0.0
C1732 C 0.86445 0.94172 0.76766 0.0
C1733 C 0.90619 0.97842 0.7589 0.0
C1734 C 0.88287 0.92809 0.77319 0.0
C1735 C 0.88068 0.91254 0.79233 0.0
C1736 C 0.85988 0.91006 0.80618 0.0
C1737 C 0.84153 0.92378 0.80065 0.0
C1738 C 0.84371 0.93921 0.7815 0.0
H1739 H 0.91439 0.99678 0.75854 0.0
H1740 H 0.90138 0.97356 0.77728 0.0
H1741 H 0.91979 0.96721 0.75279 0.0
H1742 H 0.89872 0.92898 0.76236 0.0
H1743 H 0.89503 0.90198 0.79584 0.0
H1744 H 0.84154 0.12043 0.53178 0.0
H1745 H 0.8195 0.13657 0.4997 0.0
H1746 H 0.76086 0.08431 0.51305 0.0
H1747 H 0.78273 0.06808 0.54479 0.0
H1748 H 0.76942 0.08536 0.46945 0.0
H1749 H 0.76894 0.17797 0.49601 0.0
H1750 H 0.7982 0.16972 0.49075 0.0
H1751 H 0.78057 0.15664 0.5146 0.0
C1752 C 0.82368 0.11279 0.52826 0.0
C1753 C 0.81387 0.09299 0.54089 0.0
C1754 C 0.81103 0.1221 0.50992 0.0
C1755 C 0.78817 0.11205 0.50418 0.0
C1756 C 0.77827 0.09266 0.51727 0.0
H1757 H 0.68244 0.16504 0.41405 0.0
H1758 H 0.70561 0.15223 0.4472 0.0
C1759 C 0.79083 0.08336 0.53548 0.0
C1760 C 0.77501 0.12022 0.48355 0.0
H1761 H 0.75328 0.16774 0.45848 0.0
C1762 C 0.76585 0.1034 0.46722 0.0
C1763 C 0.77056 0.14382 0.48018 0.0
C1764 C 0.77997 0.1631 0.49638 0.0
C1765 C 0.75205 0.10934 0.44812 0.0
C1766 C 0.74737 0.13279 0.44514 0.0
C1767 C 0.75671 0.1497 0.4611 0.0
C1768 C 0.73325 0.14029 0.42524 0.0
C1769 C 0.74215 0.09032 0.43166 0.0
C1770 C 0.74143 0.13819 0.40208 0.0
C1771 C 0.72844 0.14567 0.38324 0.0
C1772 C 0.70702 0.15542 0.3872 0.0
C1773 C 0.69884 0.15755 0.41045 0.0
C1774 C 0.71201 0.15023 0.42936 0.0
H1775 H 0.74119 0.07284 0.44021 0.0
H1776 H 0.72418 0.09337 0.42553 0.0
H1777 H 0.75391 0.09012 0.41597 0.0
H1778 H 0.758 0.13098 0.39859 0.0
H1779 H 0.73527 0.14382 0.36554 0.0
H1780 H 0.57898 0.95324 0.18825 0.0
H1781 H 0.5852 0.98484 0.21672 0.0
H1782 H 0.65176 0.00865 0.18316 0.0
H1783 H 0.64579 0.97701 0.15457 0.0
H1784 H 0.65423 0.01148 0.23115 0.0
H1785 H 0.57531 0.05115 0.19876 0.0
H1786 H 0.56894 0.02176 0.20938 0.0
H1787 H 0.58743 0.02751 0.18368 0.0
C1788 C 0.59513 0.96497 0.18707 0.0
C1789 C 0.61173 0.96276 0.16888 0.0
C1790 C 0.59857 0.98313 0.20331 0.0
C1791 C 0.61866 -0.00058 0.20171 0.0
C1792 C 0.63601 0.99638 0.18456 0.0
H1793 H 0.67176 0.12696 0.27393 0.0
H1794 H 0.66621 0.09342 0.24797 0.0
C1795 C 0.63257 0.97825 0.16825 0.0
C1796 C 0.62113 0.02023 0.21713 0.0
H1797 H 0.59488 0.06909 0.23145 0.0
C1798 C 0.64127 0.0241 0.23131 0.0
C1799 C 0.60425 0.03672 0.21712 0.0
C1800 C 0.58288 0.03426 0.20127 0.0
C1801 C 0.6449 0.04386 0.24576 0.0
C1802 C 0.62795 0.06041 0.24581 0.0
C1803 C 0.60777 0.0564 0.23164 0.0
C1804 C 0.63069 0.08199 0.26034 0.0
C1805 C 0.66681 0.04647 0.26089 0.0
C1806 C 0.61185 0.08816 0.27456 0.0
C1807 C 0.61469 0.10801 0.28885 0.0
C1808 C 0.6365 0.12182 0.28934 0.0
C1809 C 0.65497 0.11616 0.27447 0.0
C1810 C 0.65191 0.09679 0.25977 0.0
H1811 H 0.67367 0.02941 0.2643 0.0
H1812 H 0.68106 0.05749 0.25143 0.0
H1813 H 0.66345 0.05474 0.27805 0.0
H1814 H 0.59509 0.07731 0.27505 0.0
H1815 H 0.6001 0.11215 0.29996 0.0
H1816 H 0.65002 0.8725 0.06364 0.0
H1817 H 0.67797 0.8606 0.03393 0.0
H1818 H 0.70562 0.93263 0.02395 0.0
H1819 H 0.67855 0.94444 0.05385 0.0
H1820 H 0.68177 0.86961 0.98936 0.0
H1821 H 0.76589 0.9047 0.02888 0.0
H1822 H 0.73831 0.90486 0.04476 0.0
H1823 H 0.74824 0.92846 0.02487 0.0
C1824 C 0.6624 0.88571 0.05541 0.0
C1825 C 0.6622 0.90939 0.0613 0.0
C1826 C 0.6783 0.87891 0.03836 0.0
C1827 C 0.6944 0.89563 0.02707 0.0
C1828 C 0.6941 0.91925 0.03297 0.0
H1829 H 0.7887 0.90894 0.90671 0.0
H1830 H 0.76201 0.91441 0.94014 0.0
C1831 C 0.67841 0.92601 0.05003 0.0
C1832 C 0.71037 0.88892 0.0079 0.0
H1833 H 0.76648 0.90059 0.98601 0.0
C1834 C 0.70045 0.87585 0.98889 0.0
C1835 C 0.73479 0.89702 0.00719 0.0
C1836 C 0.74737 0.9093 0.0277 0.0
C1837 C 0.71398 0.87165 0.96878 0.0
C1838 C 0.73807 0.88081 0.96764 0.0
C1839 C 0.74805 0.89348 0.98682 0.0
C1840 C 0.75335 0.87744 0.94681 0.0
C1841 C 0.70205 0.85833 0.94855 0.0
C1842 C 0.75756 0.8549 0.93963 0.0
C1843 C 0.77318 0.85182 0.92099 0.0
C1844 C 0.78455 0.87124 0.90904 0.0
C1845 C 0.78019 0.89377 0.91591 0.0
C1846 C 0.76491 0.89686 0.93486 0.0
H1847 H 0.68247 0.85818 0.94943 0.0
H1848 H 0.70839 0.86591 0.93132 0.0
H1849 H 0.70631 0.83995 0.9493 0.0
H1850 H 0.74916 0.83972 0.94879 0.0
H1851 H 0.77625 0.83429 0.91579 0.0
H1852 H 0.96956 0.82854 0.95101 0.0
H1853 H 0.00189 0.80744 0.93765 0.0
H1854 H 0.99384 0.83325 0.86685 0.0
H1855 H 0.96083 0.85423 0.88024 0.0
H1856 H 0.99609 0.7909 0.86388 0.0
H1857 H 0.06885 0.81972 0.92337 0.0
H1858 H 0.04381 0.80919 0.94109 0.0
H1859 H 0.04231 0.83442 0.92227 0.0
C1860 C 0.97482 0.83002 0.93263 0.0
C1861 C 0.96247 0.84293 0.91665 0.0
C1862 C 0.9937 0.81819 0.92503 0.0
C1863 C 0.00078 0.81889 0.90124 0.0
C1864 C 0.98886 0.83238 0.88533 0.0
H1865 H 0.09422 0.7337 0.82469 0.0
H1866 H 0.06803 0.76276 0.83602 0.0
C1867 C 0.96992 0.84432 0.89297 0.0
C1868 C 0.01838 0.80325 0.89264 0.0
H1869 H 0.07018 0.78105 0.90663 0.0
C1870 C 0.01227 0.78889 0.87323 0.0
C1871 C 0.03998 0.80081 0.90439 0.0
C1872 C 0.04918 0.8171 0.92374 0.0
C1873 C 0.02603 0.77122 0.86625 0.0
C1874 C 0.04703 0.76811 0.87866 0.0
C1875 C 0.05377 0.78304 0.89748 0.0
C1876 C 0.06275 0.75011 0.87186 0.0
C1877 C 0.01744 0.7558 0.84596 0.0
C1878 C 0.06914 0.73367 0.88844 0.0
C1879 C 0.08455 0.71717 0.88209 0.0
C1880 C 0.09375 0.71683 0.85904 0.0
C1881 C 0.08721 0.73326 0.84251 0.0
C1882 C 0.07211 0.74986 0.84893 0.0
H1883 H 0.99791 0.755 0.84402 0.0
H1884 H 0.02557 0.76319 0.82936 0.0
H1885 H 0.02237 0.73778 0.8481 0.0
H1886 H 0.06219 0.73359 0.90627 0.0
H1887 H 0.08927 0.70474 0.89521 0.0
H1888 H 0.47757 0.61386 0.11717 0.0
H1889 H 0.50142 0.65152 0.12132 0.0
H1890 H 0.44271 0.6798 0.15556 0.0
H1891 H 0.41809 0.64236 0.15005 0.0
H1892 H 0.48445 0.69902 0.10374 0.0
H1893 H 0.50551 0.69118 0.1991 0.0
H1894 H 0.49875 0.6657 0.18095 0.0
H1895 H 0.47567 0.68318 0.18917 0.0
C1896 C 0.4697 0.62818 0.12545 0.0
C1897 C 0.446 0.62541 0.13313 0.0
C1898 C 0.4833 0.64961 0.12776 0.0
C1899 C 0.47365 0.66841 0.13845 0.0
C1900 C 0.4502 0.66553 0.14683 0.0
H1901 H 0.55421 0.7983 0.18018 0.0
H1902 H 0.52379 0.76564 0.17594 0.0
C1903 C 0.43625 0.64426 0.14376 0.0
C1904 C 0.48828 0.69103 0.14049 0.0
H1905 H 0.52365 0.72369 0.17865 0.0
C1906 C 0.49278 0.70474 0.12017 0.0
C1907 C 0.49902 0.69825 0.16192 0.0
C1908 C 0.49467 0.68389 0.18413 0.0
C1909 C 0.50789 0.72561 0.12066 0.0
C1910 C 0.51967 0.7324 0.1419 0.0
C1911 C 0.5147 0.71872 0.16233 0.0
C1912 C 0.53768 0.75309 0.14337 0.0
C1913 C 0.51079 0.74002 0.09835 0.0
C1914 C 0.55638 0.75656 0.12695 0.0
C1915 C 0.57404 0.77514 0.12942 0.0
C1916 C 0.5737 0.79045 0.14865 0.0
C1917 C 0.55486 0.78715 0.16491 0.0
C1918 C 0.53731 0.7685 0.16245 0.0
H1919 H 0.49458 0.73758 0.08741 0.0
H1920 H 0.51475 0.75889 0.1021 0.0
H1921 H 0.52549 0.73414 0.08766 0.0
H1922 H 0.55794 0.74438 0.11269 0.0
H1923 H 0.5885 0.77689 0.11675 0.0
H1924 H 0.03538 0.36542 0.67117 0.0
H1925 H 0.00973 0.32887 0.67782 0.0
H1926 H 0.00665 0.31749 0.60272 0.0
H1927 H 0.03289 0.35345 0.59621 0.0
H1928 H 0.96406 0.30965 0.62251 0.0
H1929 H 0.02766 0.26323 0.67374 0.0
H1930 H 0.02005 0.28907 0.68826 0.0
H1931 H 0.03581 0.29151 0.66064 0.0
C1932 C 0.02956 0.35473 0.65622 0.0
C1933 C 0.03653 0.36164 0.63326 0.0
C1934 C 0.01497 0.33393 0.65999 0.0
C1935 C 0.00689 0.32005 0.64078 0.0
C1936 C 0.01312 0.32762 0.61782 0.0
H1937 H 0.90955 0.19377 0.62221 0.0
H1938 H 0.93903 0.22734 0.61566 0.0
C1939 C 0.02821 0.34801 0.6141 0.0
C1940 C 0.99141 0.29794 0.64437 0.0
H1941 H 0.98805 0.24486 0.67178 0.0
C1942 C 0.96939 0.29534 0.63308 0.0
C1943 C 0.99825 0.27944 0.65843 0.0
C1944 C 0.02183 0.28085 0.67077 0.0
C1945 C 0.95383 0.27492 0.63568 0.0
C1946 C 0.96086 0.25616 0.64935 0.0
C1947 C 0.98279 0.25895 0.6609 0.0
C1948 C 0.94535 0.23393 0.65279 0.0
C1949 C 0.92966 0.27427 0.62457 0.0
C1950 C 0.94069 0.22509 0.67565 0.0
C1951 C 0.92484 0.20522 0.67932 0.0
C1952 C 0.91287 0.19402 0.66023 0.0
C1953 C 0.91842 0.20211 0.63725 0.0
C1954 C 0.9349 0.22159 0.63354 0.0
H1955 H 0.92441 0.29213 0.62165 0.0
H1956 H 0.93008 0.26572 0.60711 0.0
H1957 H 0.91586 0.26442 0.63571 0.0
H1958 H 0.94865 0.23407 0.69082 0.0
H1959 H 0.92089 0.19954 0.69728 0.0
H1960 H 0.04176 0.66986 0.8772 0.0
H1961 H 0.01876 0.7028 0.86963 0.0
H1962 H 0.99147 0.69789 0.94084 0.0
H1963 H 0.01471 0.66545 0.94867 0.0
H1964 H 0.97206 0.70425 0.87038 0.0
H1965 H 0.01059 0.76617 0.93736 0.0
H1966 H 0.02404 0.74024 0.92952 0.0
H1967 H -0.00033 0.73867 0.95022 0.0
C1968 C 0.0311 0.67602 0.89132 0.0
C1969 C 0.03016 0.6651 0.91356 0.0
C1970 C 0.01797 0.69489 0.88699 0.0
C1971 C 0.00377 0.70326 0.90482 0.0
C1972 C 0.00286 0.69233 0.92701 0.0
H1973 H 0.9041 0.81077 0.9073 0.0
H1974 H 0.92797 0.7792 0.91843 0.0
C1975 C 0.01606 0.67362 0.93141 0.0
C1976 C 0.98877 0.72243 0.89992 0.0
H1977 H 0.97368 0.77444 0.92069 0.0
C1978 C 0.97279 0.71986 0.8811 0.0
C1979 C 0.98931 0.74258 0.91419 0.0
C1980 C 0.00699 0.7472 0.93379 0.0
C1981 C 0.95744 0.73687 0.87611 0.0
C1982 C 0.95826 0.75722 0.89015 0.0
C1983 C 0.97352 0.75928 0.90954 0.0
C1984 C 0.94458 0.77716 0.88411 0.0
C1985 C 0.94009 0.73248 0.85618 0.0
C1986 C 0.94678 0.78727 0.86155 0.0
C1987 C 0.93365 0.80552 0.85536 0.0
C1988 C 0.91773 0.81402 0.87149 0.0
C1989 C 0.91621 0.80462 0.89446 0.0
C1990 C 0.92971 0.78646 0.90078 0.0
H1991 H 0.9356 0.71348 0.85326 0.0
H1992 H 0.92344 0.74053 0.85962 0.0
H1993 H 0.94827 0.74004 0.83966 0.0
H1994 H 0.95846 0.78085 0.84847 0.0
H1995 H 0.93539 0.81237 0.83754 0.0
H1996 H 0.42409 0.28385 0.33453 0.0
H1997 H 0.45014 0.25371 0.34101 0.0
H1998 H 0.43874 0.25857 0.41622 0.0
H1999 H 0.41096 0.28745 0.40943 0.0
H2000 H 0.48807 0.25176 0.35672 0.0
H2001 H 0.43262 0.19175 0.41507 0.0
H2002 H 0.4211 0.21646 0.40137 0.0
H2003 H 0.43714 0.21971 0.42881 0.0
C2004 C 0.42721 0.27858 0.3525 0.0
C2005 C 0.41557 0.28819 0.37151 0.0
C2006 C 0.44219 0.26121 0.35623 0.0
C2007 C 0.44658 0.25336 0.37914 0.0
C2008 C 0.43546 0.26355 0.39826 0.0
H2009 H 0.55093 0.17608 0.44192 0.0
H2010 H 0.52014 0.20078 0.43107 0.0
C2011 C 0.41974 0.28042 0.39444 0.0
C2012 C 0.46361 0.23541 0.38263 0.0
H2013 H 0.47449 0.1874 0.41503 0.0
C2014 C 0.48465 0.23743 0.36915 0.0
C2015 C 0.45941 0.21628 0.39853 0.0
C2016 C 0.4362 0.21079 0.4115 0.0
C2017 C 0.50163 0.2215 0.37151 0.0
C2018 C 0.49845 0.20388 0.38898 0.0
C2019 C 0.47724 0.20135 0.40207 0.0
C2020 C 0.51744 0.18888 0.39497 0.0
C2021 C 0.52278 0.22379 0.35519 0.0
C2022 C 0.52644 0.17411 0.37821 0.0
C2023 C 0.54447 0.16028 0.38426 0.0
C2024 C 0.55342 0.16059 0.40733 0.0
C2025 C 0.54445 0.17546 0.424 0.0
C2026 C 0.52671 0.18948 0.41786 0.0
H2027 H 0.52556 0.24141 0.347 0.0
H2028 H 0.53903 0.21999 0.36453 0.0
H2029 H 0.5197 0.21093 0.34075 0.0
H2030 H 0.51933 0.17303 0.36055 0.0
H2031 H 0.5508 0.14879 0.37111 0.0
H2032 H 0.96565 0.11606 0.60956 0.0
H2033 H 0.99297 0.15126 0.61382 0.0
H2034 H 0.94054 0.19275 0.58559 0.0
H2035 H 0.91275 0.1574 0.58145 0.0
H2036 H 0.98851 0.20202 0.56613 0.0
H2037 H 0.98669 0.20182 0.66394 0.0
H2038 H 0.9947 0.17527 0.6512 0.0
H2039 H 0.96543 0.18369 0.64681 0.0
C2040 C 0.9598 0.13266 0.60436 0.0
C2041 C 0.93696 0.13398 0.59531 0.0
C2042 C 0.97545 0.15276 0.60687 0.0
C2043 C 0.96861 0.1746 0.60037 0.0
C2044 C 0.94601 0.17603 0.59092 0.0
H2045 H 0.0527 0.3117 0.59625 0.0
H2046 H 0.02275 0.2788 0.58838 0.0
C2047 C 0.93016 0.15588 0.58864 0.0
C2048 C 0.9853 0.19579 0.60348 0.0
H2049 H 0.01654 0.22768 0.64528 0.0
C2050 C 0.99447 0.20796 0.58342 0.0
C2051 C 0.99336 0.20303 0.62602 0.0
C2052 C 0.9844 0.1904 0.64823 0.0
C2053 C 0.01212 0.22685 0.58524 0.0
C2054 C 0.01994 0.23446 0.60789 0.0
C2055 C 0.01044 0.22226 0.62791 0.0
C2056 C 0.03831 0.25452 0.61158 0.0
C2057 C 0.02302 0.23739 0.56278 0.0
C2058 C 0.05669 0.25229 0.62769 0.0
C2059 C 0.07258 0.2715 0.63332 0.0
C2060 C 0.07084 0.29318 0.62252 0.0
C2061 C 0.05363 0.29527 0.60534 0.0
C2062 C 0.03696 0.27627 0.60043 0.0
H2063 H 0.02152 0.2246 0.54813 0.0
H2064 H 0.01341 0.25239 0.5574 0.0
H2065 H 0.04204 0.24357 0.56508 0.0
H2066 H 0.05845 0.23578 0.6364 0.0
H2067 H 0.08606 0.26952 0.64642 0.0
H2068 H 0.38785 0.71354 0.16842 0.0
H2069 H 0.41733 0.74691 0.1642 0.0
H2070 H 0.44552 0.71568 0.10226 0.0
H2071 H 0.41391 0.68329 0.10521 0.0
H2072 H 0.45888 0.75291 0.16909 0.0
H2073 H 0.44681 0.7774 0.07585 0.0
H2074 H 0.42689 0.7556 0.09053 0.0
H2075 H 0.45442 0.74808 0.07802 0.0
C2076 C 0.4003 0.71394 0.1538 0.0
C2077 C 0.39884 0.69591 0.13723 0.0
C2078 C 0.41728 0.73299 0.15141 0.0
C2079 C 0.43391 0.73415 0.13284 0.0
C2080 C 0.43265 0.71579 0.11637 0.0
H2081 H 0.55717 0.83666 0.11128 0.0
H2082 H 0.53002 0.80067 0.11269 0.0
C2083 C 0.41477 0.69711 0.11816 0.0
C2084 C 0.45258 0.7544 0.1316 0.0
H2085 H 0.48074 0.79591 0.09498 0.0
C2086 C 0.46335 0.76231 0.1528 0.0
C2087 C 0.4585 0.76713 0.11051 0.0
C2088 C 0.44585 0.76178 0.08754 0.0
C2089 C 0.47899 0.78274 0.15366 0.0
C2090 C 0.48591 0.79448 0.13244 0.0
C2091 C 0.47584 0.78639 0.11113 0.0
C2092 C 0.50259 0.81596 0.13214 0.0
C2093 C 0.48679 0.7922 0.17747 0.0
C2094 C 0.49609 0.83639 0.1426 0.0
C2095 C 0.51147 0.85688 0.14185 0.0
C2096 C 0.53363 0.8574 0.13047 0.0
C2097 C 0.54026 0.83681 0.12023 0.0
C2098 C 0.52476 0.81628 0.12093 0.0
H2099 H 0.48633 0.77808 0.19095 0.0
H2100 H 0.50481 0.80166 0.17684 0.0
H2101 H 0.47435 0.80472 0.18335 0.0
H2102 H 0.47893 0.83656 0.15106 0.0
H2103 H 0.50576 0.87243 0.14983 0.0
H2104 H 0.64484 0.39966 0.77587 0.0
H2105 H 0.63607 0.42239 0.74124 0.0
H2106 H 0.67926 0.48197 0.7687 0.0
H2107 H 0.68871 0.45915 0.80302 0.0
H2108 H 0.614 0.45552 0.73362 0.0
H2109 H 0.70455 0.48709 0.70569 0.0
H2110 H 0.69908 0.46582 0.72898 0.0
H2111 H 0.70048 0.49672 0.73521 0.0
C2112 C 0.65242 0.41767 0.7746 0.0
C2113 C 0.66753 0.42757 0.79224 0.0
C2114 C 0.64745 0.43067 0.75468 0.0
C2115 C 0.65725 0.45397 0.75201 0.0
C2116 C 0.67187 0.46397 0.76994 0.0
H2117 H 0.59105 0.55759 0.67676 0.0
H2118 H 0.60212 0.52616 0.7018 0.0
C2119 C 0.6771 0.45093 0.78973 0.0
C2120 C 0.65109 0.46819 0.73128 0.0
H2121 H 0.67373 0.51039 0.69247 0.0
C2122 C 0.62724 0.4672 0.72447 0.0
C2123 C 0.66822 0.48299 0.71847 0.0
C2124 C 0.69451 0.48295 0.72233 0.0
C2125 C 0.61995 0.48121 0.70615 0.0
C2126 C 0.63672 0.4978 0.69514 0.0
C2127 C 0.66071 0.49806 0.70113 0.0
C2128 C 0.62956 0.51605 0.67873 0.0
C2129 C 0.59435 0.47767 0.69871 0.0
C2130 C 0.64172 0.52129 0.65735 0.0
C2131 C 0.63548 0.53945 0.64284 0.0
C2132 C 0.61738 0.55299 0.64976 0.0
C2133 C 0.60535 0.54774 0.6711 0.0
C2134 C 0.61133 0.52945 0.68528 0.0
H2135 H 0.58714 0.4591 0.70087 0.0
H2136 H 0.58365 0.48815 0.7102 0.0
H2137 H 0.59206 0.48286 0.68005 0.0
H2138 H 0.65589 0.51123 0.6518 0.0
H2139 H 0.64477 0.5429 0.62624 0.0
H2140 H 0.89706 0.43156 0.02684 0.0
H2141 H 0.86713 0.43586 0.99671 0.0
H2142 H 0.81224 0.42534 0.04985 0.0
H2143 H 0.84235 0.42085 0.07992 0.0
H2144 H 0.8345 0.40198 0.98456 0.0
H2145 H 0.78876 0.47785 0.01326 0.0
H2146 H 0.81655 0.47136 0.02572 0.0
H2147 H 0.78919 0.4555 0.03537 0.0
C2148 C 0.87866 0.43075 0.03207 0.0
C2149 C 0.87202 0.42603 0.05558 0.0
C2150 C 0.86153 0.43306 0.0149 0.0
C2151 C 0.83735 0.43096 0.02096 0.0
C2152 C 0.83075 0.4273 0.04472 0.0
H2153 H 0.7139 0.41281 0.92766 0.0
H2154 H 0.73902 0.4168 0.96291 0.0
C2155 C 0.84792 0.42451 0.06186 0.0
C2156 C 0.81928 0.43014 0.00202 0.0
H2157 H 0.77116 0.45529 0.9817 0.0
C2158 C 0.82077 0.41377 0.98393 0.0
C2159 C 0.80104 0.44521 0.00135 0.0
C2160 C 0.79886 0.46361 0.01985 0.0
C2161 C 0.80491 0.41231 0.96505 0.0
C2162 C 0.78704 0.4277 0.96407 0.0
C2163 C 0.78496 0.44358 0.98248 0.0
C2164 C 0.77112 0.42803 0.94346 0.0
C2165 C 0.80775 0.39439 0.94617 0.0
C2166 C 0.78066 0.43385 0.92106 0.0
C2167 C 0.76642 0.43135 0.90106 0.0
C2168 C 0.74232 0.42303 0.90308 0.0
C2169 C 0.73245 0.41883 0.92568 0.0
C2170 C 0.74675 0.42122 0.94575 0.0
H2171 H 0.81979 0.4024 0.9322 0.0
H2172 H 0.81574 0.37904 0.95339 0.0
H2173 H 0.7906 0.38827 0.93791 0.0
H2174 H 0.79937 0.43948 0.91897 0.0
H2175 H 0.77461 0.43491 0.88394 0.0
H2176 H 0.89774 0.61291 0.28115 0.0
H2177 H 0.9139 0.58874 0.25091 0.0
H2178 H 0.85488 0.53622 0.26162 0.0
H2179 H 0.83848 0.56033 0.2911 0.0
H2180 H 0.93077 0.55096 0.25087 0.0
H2181 H 0.85279 0.53574 0.19386 0.0
H2182 H 0.85349 0.55613 0.21786 0.0
H2183 H 0.84466 0.5254 0.22282 0.0
C2184 C 0.88821 0.59619 0.277 0.0
C2185 C 0.8668 0.58859 0.28861 0.0
C2186 C 0.89745 0.58237 0.25963 0.0
C2187 C 0.88548 0.56067 0.25343 0.0
C2188 C 0.8642 0.55309 0.26525 0.0
H2189 H 0.95319 0.44564 0.19173 0.0
H2190 H 0.94281 0.4772 0.21719 0.0
C2191 C 0.85496 0.56684 0.28252 0.0
C2192 C 0.89587 0.5453 0.2358 0.0
H2193 H 0.88141 0.50786 0.19056 0.0
C2194 C 0.91999 0.54177 0.23748 0.0
C2195 C 0.88217 0.53357 0.21784 0.0
C2196 C 0.85694 0.53816 0.21286 0.0
C2197 C 0.93048 0.52632 0.22247 0.0
C2198 C 0.91632 0.51335 0.20567 0.0
C2199 C 0.89239 0.51741 0.20356 0.0
C2200 C 0.9256 0.49564 0.18984 0.0
C2201 C 0.95673 0.52461 0.2246 0.0
C2202 C 0.91984 0.4954 0.16578 0.0
C2203 C 0.92545 0.47718 0.15132 0.0
C2204 C 0.93726 0.45882 0.16042 0.0
C2205 C 0.94413 0.45956 0.18418 0.0
C2206 C 0.93823 0.47772 0.19876 0.0
H2207 H 0.96604 0.54112 0.23138 0.0
H2208 H 0.9597 0.51058 0.23741 0.0
H2209 H 0.96484 0.52062 0.20742 0.0
H2210 H 0.9104 0.50905 0.15823 0.0
H2211 H 0.92017 0.47734 0.13301 0.0
H2212 H 0.78907 0.6417 0.39986 0.0
H2213 H 0.75839 0.64174 0.43006 0.0
H2214 H 0.73266 0.57103 0.41264 0.0
H2215 H 0.76263 0.57127 0.38121 0.0
H2216 H 0.71202 0.63653 0.4285 0.0
H2217 H 0.74833 0.57228 0.4826 0.0
H2218 H 0.753 0.5698 0.45141 0.0
H2219 H 0.72833 0.55336 0.46561 0.0
C2220 C 0.77732 0.62591 0.40288 0.0
C2221 C 0.77867 0.60622 0.38866 0.0
C2222 C 0.75986 0.62593 0.4203 0.0
C2223 C 0.74413 0.60596 0.42471 0.0
C2224 C 0.74522 0.58634 0.41024 0.0
H2225 H 0.62883 0.56589 0.51814 0.0
H2226 H 0.65781 0.57128 0.48639 0.0
C2227 C 0.76236 0.58647 0.39236 0.0
C2228 C 0.72585 0.60629 0.44357 0.0
H2229 H 0.70426 0.57863 0.49371 0.0
C2230 C 0.71033 0.62386 0.44278 0.0
C2231 C 0.72358 0.58978 0.46228 0.0
C2232 C 0.73938 0.57043 0.46526 0.0
C2233 C 0.69214 0.62485 0.4596 0.0
C2234 C 0.68989 0.60826 0.47811 0.0
C2235 C 0.70587 0.59124 0.47935 0.0
C2236 C 0.67025 0.60684 0.49561 0.0
C2237 C 0.675 0.64306 0.45688 0.0
C2238 C 0.66703 0.62533 0.51101 0.0
C2239 C 0.65026 0.6223 0.52933 0.0
C2240 C 0.63665 0.60069 0.53254 0.0
C2241 C 0.63923 0.58267 0.5164 0.0
C2242 C 0.6558 0.58572 0.49817 0.0
H2243 H 0.67582 0.65087 0.43891 0.0
H2244 H 0.65656 0.63546 0.46053 0.0
H2245 H 0.67948 0.65731 0.46969 0.0
H2246 H 0.67818 0.64169 0.50958 0.0
H2247 H 0.64861 0.63653 0.54147 0.0
H2248 H 0.59899 0.42472 0.80298 0.0
H2249 H 0.60661 0.45765 0.77571 0.0
H2250 H 0.63019 0.50237 0.8335 0.0
H2251 H 0.62348 0.46939 0.86067 0.0
H2252 H 0.58429 0.4952 0.77606 0.0
H2253 H 0.67964 0.52293 0.78676 0.0
H2254 H 0.66525 0.49905 0.80388 0.0
H2255 H 0.66349 0.52865 0.81295 0.0
C2256 C 0.60638 0.44143 0.80977 0.0
C2257 C 0.61066 0.44442 0.83398 0.0
C2258 C 0.61072 0.46027 0.79417 0.0
C2259 C 0.61932 0.48251 0.8024 0.0
C2260 C 0.62421 0.48534 0.82651 0.0
H2261 H 0.59566 0.61007 0.7245 0.0
H2262 H 0.59345 0.57799 0.75319 0.0
C2263 C 0.62027 0.46641 0.84207 0.0
C2264 C 0.62075 0.503 0.78617 0.0
H2265 H 0.65707 0.54958 0.76521 0.0
C2266 C 0.60033 0.50692 0.77348 0.0
C2267 C 0.64138 0.51888 0.78344 0.0
C2268 C 0.66364 0.51699 0.79743 0.0
C2269 C 0.59991 0.52599 0.75804 0.0
C2270 C 0.62081 0.54135 0.75462 0.0
C2271 C 0.64119 0.53755 0.76743 0.0
C2272 C 0.62227 0.56124 0.73766 0.0
C2273 C 0.5767 0.5294 0.74624 0.0
C2274 C 0.63983 0.56311 0.71996 0.0
C2275 C 0.64096 0.58128 0.70341 0.0
C2276 C 0.6249 0.59826 0.7046 0.0
C2277 C 0.60789 0.59689 0.72283 0.0
C2278 C 0.60662 0.57857 0.73923 0.0
H2279 H 0.56588 0.53902 0.75847 0.0
H2280 H 0.57887 0.53949 0.72959 0.0
H2281 H 0.56646 0.51234 0.74255 0.0
H2282 H 0.65235 0.55015 0.7186 0.0
H2283 H 0.65461 0.58221 0.6899 0.0
H2284 H 0.81178 0.38308 0.04757 0.0
H2285 H 0.77919 0.38804 0.02074 0.0
H2286 H 0.78674 0.32048 0.99072 0.0
H2287 H 0.82057 0.31629 0.01652 0.0
H2288 H 0.77397 0.35169 0.95735 0.0
H2289 H 0.7159 0.35184 0.036 0.0
H2290 H 0.73984 0.37467 0.03706 0.0
H2291 H 0.74604 0.3446 0.03752 0.0
C2292 C 0.80725 0.36985 0.03451 0.0
C2293 C 0.81899 0.34957 0.03394 0.0
C2294 C 0.78825 0.3724 0.01955 0.0
C2295 C 0.78013 0.35433 0.00418 0.0
C2296 C 0.79261 0.33456 0.00258 0.0
H2297 H 0.65413 0.34888 0.91169 0.0
H2298 H 0.68914 0.33671 0.93179 0.0
C2299 C 0.81189 0.33218 0.01737 0.0
C2300 C 0.75763 0.35545 0.99125 0.0
H2301 H 0.69946 0.36342 -0.0002 0.0
C2302 C 0.75766 0.35434 0.96654 0.0
C2303 C 0.73614 0.35784 0.00337 0.0
C2304 C 0.73436 0.35704 0.02995 0.0
C2305 C 0.73717 0.35743 0.95353 0.0
C2306 C 0.71601 0.36121 0.96571 0.0
C2307 C 0.71575 0.36092 0.99045 0.0
C2308 C 0.69447 0.36761 0.95353 0.0
C2309 C 0.73867 0.3572 0.92695 0.0
C2310 C 0.68531 0.38851 0.95966 0.0
C2311 C 0.66554 0.39547 0.94825 0.0
C2312 C 0.6541 0.38148 0.93068 0.0
C2313 C 0.66272 0.36012 0.92501 0.0
C2314 C 0.68279 0.35322 0.93637 0.0
H2315 H 0.75721 0.361 0.92055 0.0
H2316 H 0.7319 0.33959 0.92061 0.0
H2317 H 0.72779 0.37003 0.9189 0.0
H2318 H 0.69388 0.39984 0.97294 0.0
H2319 H 0.65928 0.41193 0.9532 0.0
H2320 H 0.84384 0.51661 0.33654 0.0
H2321 H 0.8479 0.48945 0.30413 0.0
H2322 H 0.91483 0.52727 0.28471 0.0
H2323 H 0.91068 0.55458 0.31686 0.0
H2324 H 0.84867 0.49449 0.25956 0.0
H2325 H 0.93474 0.46418 0.28366 0.0
H2326 H 0.91921 0.48226 0.30297 0.0
H2327 H 0.93727 0.49512 0.27906 0.0
C2328 C 0.85932 0.51923 0.32519 0.0
C2329 C 0.87683 0.53786 0.32909 0.0
C2330 C 0.86169 0.50363 0.30671 0.0
C2331 C 0.88179 0.50607 0.29193 0.0
C2332 C 0.89931 0.52469 0.29591 0.0
H2333 H 0.87766 0.437 0.15397 0.0
H2334 H 0.8763 0.46526 0.18578 0.0
C2335 C 0.89677 0.54053 0.31416 0.0
C2336 C 0.88373 0.48975 0.27181 0.0
H2337 H 0.92016 0.45364 0.2457 0.0
C2338 C 0.8644 0.48567 0.25649 0.0
C2339 C 0.90398 0.47773 0.26795 0.0
C2340 C 0.92485 0.47986 0.28444 0.0
C2341 C 0.86476 0.47024 0.23742 0.0
C2342 C 0.88537 0.45889 0.23302 0.0
C2343 C 0.90455 0.46269 0.24858 0.0
C2344 C 0.88715 0.44224 0.21312 0.0
C2345 C 0.84262 0.46572 0.22285 0.0
C2346 C 0.89495 0.42021 0.21739 0.0
C2347 C 0.89638 0.40427 0.19907 0.0
C2348 C 0.88986 0.40985 0.17602 0.0
C2349 C 0.88265 0.43208 0.17156 0.0
C2350 C 0.88155 0.44818 0.18987 0.0
H2351 H 0.82659 0.46939 0.23298 0.0
H2352 H 0.844 0.47752 0.20726 0.0
H2353 H 0.84006 0.44737 0.2167 0.0
H2354 H 0.89948 0.41509 0.23506 0.0
H2355 H 0.90196 0.38728 0.20318 0.0
H2356 H 0.8478 0.65102 0.43196 0.0
H2357 H 0.81849 0.65936 0.46192 0.0
H2358 H 0.78878 0.58751 0.4601 0.0
H2359 H 0.81723 0.5792 0.42993 0.0
H2360 H 0.7727 0.65807 0.46288 0.0
H2361 H 0.79665 0.59404 0.52885 0.0
H2362 H 0.81439 0.60113 0.50281 0.0
H2363 H 0.7889 0.57979 0.5016 0.0
C2364 C 0.83473 0.63708 0.43771 0.0
C2365 C 0.83486 0.61445 0.42846 0.0
C2366 C 0.81806 0.64183 0.45496 0.0
C2367 C 0.8015 0.62396 0.46367 0.0
C2368 C 0.80135 0.60155 0.45399 0.0
H2369 H 0.68752 0.6172 0.57016 0.0
H2370 H 0.71418 0.60784 0.53805 0.0
C2371 C 0.81763 0.59687 0.43649 0.0
C2372 C 0.78376 0.6288 0.48214 0.0
H2373 H 0.75985 0.60975 0.53517 0.0
C2374 C 0.76955 0.64702 0.4783 0.0
C2375 C 0.78019 0.61522 0.50303 0.0
C2376 C 0.79603 0.59665 0.50945 0.0
C2377 C 0.75094 0.65103 0.49371 0.0
C2378 C 0.74756 0.63773 0.51477 0.0
C2379 C 0.76213 0.61981 0.51896 0.0
C2380 C 0.73039 0.64332 0.53347 0.0
C2381 C 0.73479 0.66913 0.48673 0.0
C2382 C 0.73065 0.66626 0.54183 0.0
C2383 C 0.71515 0.67169 0.55972 0.0
C2384 C 0.69934 0.65422 0.57027 0.0
C2385 C 0.6993 0.63112 0.56226 0.0
C2386 C 0.71465 0.62573 0.544 0.0
H2387 H 0.73321 0.67019 0.46724 0.0
H2388 H 0.71676 0.66525 0.49437 0.0
H2389 H 0.74241 0.68653 0.49292 0.0
H2390 H 0.74322 0.68003 0.53485 0.0
H2391 H 0.71604 0.6896 0.5657 0.0
H2392 H 0.52686 0.65322 0.64014 0.0
H2393 H 0.50519 0.68607 0.63063 0.0
H2394 H 0.5602 0.71167 0.58121 0.0
H2395 H 0.58108 0.67726 0.58933 0.0
H2396 H 0.51274 0.72775 0.63749 0.0
H2397 H 0.50657 0.71947 0.54028 0.0
H2398 H 0.51811 0.69753 0.55839 0.0
H2399 H 0.53655 0.72378 0.55036 0.0
C2400 C 0.53444 0.66584 0.62725 0.0
C2401 C 0.55577 0.66274 0.61559 0.0
C2402 C 0.52195 0.68469 0.62175 0.0
C2403 C 0.53073 0.70142 0.60491 0.0
C2404 C 0.55249 0.69874 0.59367 0.0
H2405 H 0.46099 0.83024 0.60595 0.0
H2406 H 0.49274 0.80478 0.60099 0.0
C2407 C 0.56465 0.67926 0.59859 0.0
C2408 C 0.51711 0.72178 0.60026 0.0
H2409 H 0.49125 0.75237 0.55727 0.0
C2410 C 0.50828 0.73307 0.61984 0.0
C2411 C 0.51085 0.7288 0.5773 0.0
C2412 C 0.51831 0.71662 0.5554 0.0
C2413 C 0.49272 0.75022 0.61733 0.0
C2414 C 0.48691 0.75759 0.59448 0.0
C2415 C 0.49621 0.74699 0.57475 0.0
C2416 C 0.46928 0.77451 0.59107 0.0
C2417 C 0.48125 0.75836 0.63949 0.0
C2418 C 0.44587 0.7663 0.58559 0.0
C2419 C 0.42776 0.78081 0.5884 0.0
C2420 C 0.43283 0.80364 0.59699 0.0
C2421 C 0.45659 0.81254 0.59999 0.0
C2422 C 0.47473 0.79808 0.59698 0.0
H2423 H 0.49503 0.76357 0.65276 0.0
H2424 H 0.47019 0.77287 0.63673 0.0
H2425 H 0.46976 0.74347 0.64727 0.0
H2426 H 0.44136 0.74818 0.58092 0.0
H2427 H 0.40962 0.77345 0.58584 0.0
H2428 H 0.33997 0.56597 0.19377 0.0
H2429 H 0.34551 0.5345 0.2219 0.0
H2430 H 0.40208 0.57796 0.25498 0.0
H2431 H 0.39627 0.6096 0.22743 0.0
H2432 H 0.41264 0.53244 0.24966 0.0
H2433 H 0.32375 0.53577 0.29036 0.0
H2434 H 0.32355 0.53034 0.25921 0.0
H2435 H 0.3366 0.55792 0.27017 0.0
C2436 C 0.3538 0.56867 0.20683 0.0
C2437 C 0.36756 0.59029 0.20854 0.0
C2438 C 0.35688 0.55072 0.22294 0.0
C2439 C 0.37409 0.55394 0.24064 0.0
C2440 C 0.38867 0.57509 0.24151 0.0
H2441 H 0.37405 0.4822 0.37426 0.0
H2442 H 0.37184 0.50933 0.34151 0.0
C2443 C 0.38531 0.59316 0.22576 0.0
C2444 C 0.37636 0.53584 0.259 0.0
H2445 H 0.34693 0.50748 0.30506 0.0
C2446 C 0.39821 0.52672 0.26165 0.0
C2447 C 0.35769 0.52887 0.27495 0.0
C2448 C 0.33413 0.53885 0.27376 0.0
C2449 C 0.40188 0.51066 0.27969 0.0
C2450 C 0.38303 0.50331 0.29541 0.0
C2451 C 0.36127 0.5127 0.29282 0.0
C2452 C 0.38554 0.48679 0.31537 0.0
C2453 C 0.42625 0.50264 0.28219 0.0
C2454 C 0.39412 0.46499 0.31184 0.0
C2455 C 0.396 0.44961 0.33083 0.0
C2456 C 0.38852 0.45534 0.35352 0.0
C2457 C 0.37981 0.47709 0.35697 0.0
C2458 C 0.37846 0.49264 0.33818 0.0
H2459 H 0.44008 0.51528 0.27403 0.0
H2460 H 0.43082 0.50024 0.30099 0.0
H2461 H 0.42676 0.48573 0.27298 0.0
H2462 H 0.39919 0.45976 0.29439 0.0
H2463 H 0.40324 0.4332 0.32776 0.0
H2464 H 0.29582 0.66928 0.06088 0.0
H2465 H 0.26356 0.65964 0.03328 0.0
H2466 H 0.23469 0.60381 0.07943 0.0
H2467 H 0.26826 0.6121 0.10594 0.0
H2468 H 0.22673 0.58974 0.03953 0.0
H2469 H 0.20073 0.67946 0.03772 0.0
H2470 H 0.2303 0.67963 0.02658 0.0
H2471 H 0.22366 0.67127 0.05687 0.0
C2472 C 0.28265 0.65485 0.06502 0.0
C2473 C 0.28447 0.64146 0.08557 0.0
C2474 C 0.26397 0.64955 0.04939 0.0
C2475 C 0.246 0.63156 0.05457 0.0
C2476 C 0.24815 0.61787 0.07494 0.0
H2477 H 0.10981 0.6259 0.98271 0.0
H2478 H 0.14193 0.63197 0.01119 0.0
C2479 C 0.26734 0.62261 0.09015 0.0
C2480 C 0.22505 0.62702 0.03886 0.0
H2481 H 0.18413 0.65393 0.00764 0.0
C2482 C 0.21734 0.60383 0.0328 0.0
C2483 C 0.21208 0.64521 0.03051 0.0
C2484 C 0.21697 0.6702 0.03852 0.0
C2485 C 0.19736 0.59844 0.01859 0.0
C2486 C 0.18589 0.61677 0.00856 0.0
C2487 C 0.19329 0.63988 0.01485 0.0
C2488 C 0.1661 0.61243 0.99159 0.0
C2489 C 0.18766 0.57321 0.01584 0.0
C2490 C 0.16902 0.59976 0.97089 0.0
C2491 C 0.15072 0.59619 0.95458 0.0
C2492 C 0.12907 0.60545 0.95852 0.0
C2493 C 0.12627 0.61853 0.97907 0.0
C2494 C 0.1446 0.62197 0.99543 0.0
H2495 H 0.1913 0.56711 0.99788 0.0
H2496 H 0.19564 0.56161 0.02859 0.0
H2497 H 0.16813 0.57128 0.01841 0.0
H2498 H 0.18562 0.5929 0.96709 0.0
H2499 H 0.1536 0.58626 0.93883 0.0
H2500 H 0.12007 0.55918 0.82669 0.0
H2501 H 0.12302 0.53148 0.79402 0.0
H2502 H 0.09428 0.475 0.83892 0.0
H2503 H 0.09305 0.50198 0.87193 0.0
H2504 H 0.14257 0.48887 0.78604 0.0
H2505 H 0.04447 0.47787 0.78627 0.0
H2506 H 0.06125 0.49979 0.80369 0.0
H2507 H 0.05688 0.47004 0.81388 0.0
C2508 C 0.1149 0.54078 0.82961 0.0
C2509 C 0.10617 0.53275 0.85169 0.0
C2510 C 0.11636 0.5251 0.81098 0.0
C2511 C 0.10781 0.50153 0.81379 0.0
C2512 C 0.10037 0.49327 0.8362 0.0
H2513 H 0.07549 0.37842 0.73209 0.0
H2514 H 0.0782 0.41028 0.76035 0.0
C2515 C 0.09979 0.50871 0.85505 0.0
C2516 C 0.10512 0.48588 0.79311 0.0
H2517 H 0.06371 0.4517 0.76205 0.0
C2518 C 0.12536 0.48078 0.78065 0.0
C2519 C 0.08258 0.47567 0.78596 0.0
C2520 C 0.06004 0.48129 0.79799 0.0
C2521 C 0.12383 0.46459 0.7621 0.0
C2522 C 0.10128 0.45378 0.75539 0.0
C2523 C 0.08099 0.45976 0.76726 0.0
C2524 C 0.09834 0.43509 0.73727 0.0
C2525 C 0.14652 0.45849 0.75073 0.0
C2526 C 0.10798 0.43852 0.71452 0.0
C2527 C 0.10674 0.42018 0.6983 0.0
C2528 C 0.09534 0.39814 0.70443 0.0
C2529 C 0.08441 0.39516 0.72673 0.0
C2530 C 0.08599 0.41339 0.74298 0.0
H2531 H 0.16211 0.46325 0.76212 0.0
H2532 H 0.14569 0.43954 0.74685 0.0
H2533 H 0.14944 0.46835 0.73394 0.0
H2534 H 0.11696 0.45524 0.70958 0.0
H2535 H 0.11532 0.42306 0.68129 0.0
H2536 H 0.18606 0.32023 0.57299 0.0
H2537 H 0.22005 0.3294 0.54753 0.0
H2538 H 0.2238 0.40169 0.56843 0.0
H2539 H 0.18908 0.39247 0.59413 0.0
H2540 H 0.23051 0.40121 0.52519 0.0
H2541 H 0.28767 0.33784 0.55904 0.0
H2542 H 0.26036 0.32188 0.5507 0.0
H2543 H 0.26067 0.34318 0.57405 0.0
C2544 C 0.19411 0.33811 0.57231 0.0
C2545 C 0.1849 0.35562 0.58564 0.0
C2546 C 0.21391 0.34329 0.55795 0.0
C2547 C 0.22512 0.36613 0.55644 0.0
C2548 C 0.21569 0.38385 0.56943 0.0
H2549 H 0.33708 0.41877 0.45584 0.0
H2550 H 0.30708 0.41676 0.48665 0.0
C2551 C 0.19576 0.37863 0.58399 0.0
C2552 C 0.24537 0.37147 0.53978 0.0
H2553 H 0.29473 0.34951 0.51822 0.0
C2554 C 0.24457 0.38994 0.5237 0.0
C2555 C 0.26439 0.35741 0.53832 0.0
C2556 C 0.26843 0.3392 0.55669 0.0
C2557 C 0.2609 0.39359 0.50503 0.0
C2558 C 0.2788 0.3782 0.50236 0.0
C2559 C 0.28048 0.36067 0.51944 0.0
C2560 C 0.29634 0.37982 0.48256 0.0
C2561 C 0.25815 0.4139 0.48869 0.0
C2562 C 0.30136 0.35952 0.47049 0.0
C2563 C 0.31948 0.36041 0.45351 0.0
C2564 C 0.33241 0.38176 0.44769 0.0
C2565 C 0.32694 0.40211 0.45932 0.0
C2566 C 0.30961 0.40104 0.47696 0.0
H2567 H 0.23914 0.41625 0.48612 0.0
H2568 H 0.26651 0.43011 0.49695 0.0
H2569 H 0.26641 0.41219 0.47123 0.0
H2570 H 0.29156 0.34282 0.47453 0.0
H2571 H 0.32356 0.34439 0.44519 0.0
H2572 H 0.38501 0.38698 0.31984 0.0
H2573 H 0.38857 0.41724 0.2896 0.0
H2574 H 0.31265 0.41044 0.28167 0.0
H2575 H 0.30887 0.38023 0.31213 0.0
H2576 H 0.37894 0.41707 0.24631 0.0
H2577 H 0.32046 0.47862 0.286 0.0
H2578 H 0.33197 0.45573 0.30305 0.0
H2579 H 0.3074 0.4493 0.28337 0.0
C2580 C 0.36898 0.39225 0.31207 0.0
C2581 C 0.34661 0.38142 0.31872 0.0
C2582 C 0.37105 0.40964 0.29476 0.0
C2583 C 0.35084 0.41707 0.2841 0.0
C2584 C 0.32847 0.40605 0.29049 0.0
H2585 H 0.33644 0.5098 0.16497 0.0
H2586 H 0.32941 0.48211 0.19774 0.0
C2587 C 0.32635 0.38854 0.30777 0.0
C2588 C 0.35359 0.43536 0.2654 0.0
H2589 H 0.33563 0.48766 0.24792 0.0
C2590 C 0.3696 0.43259 0.24687 0.0
C2591 C 0.34122 0.45556 0.2659 0.0
C2592 C 0.32449 0.46016 0.28575 0.0
C2593 C 0.37362 0.44933 0.22891 0.0
C2594 C 0.36139 0.4695 0.22951 0.0
C2595 C 0.34509 0.47221 0.24772 0.0
C2596 C 0.36514 0.48775 0.21106 0.0
C2597 C 0.39062 0.44509 0.20917 0.0
C2598 C 0.38738 0.50051 0.20816 0.0
C2599 C 0.39143 0.51648 0.18961 0.0
C2600 C 0.37333 0.51979 0.17348 0.0
C2601 C 0.3508 0.50758 0.17699 0.0
C2602 C 0.34673 0.49176 0.19569 0.0
H2603 H 0.39426 0.42651 0.20836 0.0
H2604 H 0.38357 0.45015 0.19188 0.0
H2605 H 0.40769 0.45588 0.21209 0.0
H2606 H 0.40176 0.49773 0.21997 0.0
H2607 H 0.40897 0.52562 0.18749 0.0
H2608 H 0.32567 0.53672 0.0394 0.0
H2609 H 0.30125 0.55049 0.00817 0.0
H2610 H 0.29624 0.6144 0.04628 0.0
H2611 H 0.32227 0.60138 0.07682 0.0
H2612 H 0.2605 0.55797 0.00484 0.0
H2613 H 0.30976 0.64353 0.98581 0.0
H2614 H 0.32118 0.6227 0.00531 0.0
H2615 H 0.30102 0.64254 0.01612 0.0
C2616 C 0.31935 0.55377 0.04108 0.0
C2617 C 0.32578 0.56801 0.06049 0.0
C2618 C 0.30534 0.56167 0.02321 0.0
C2619 C 0.29689 0.58375 0.02461 0.0
C2620 C 0.30292 0.59769 0.04439 0.0
H2621 H 0.19561 0.65036 0.93813 0.0
H2622 H 0.22019 0.63817 0.97052 0.0
C2623 C 0.31762 0.59013 0.06196 0.0
C2624 C 0.28112 0.59158 0.00583 0.0
H2625 H 0.27019 0.63794 0.97104 0.0
C2626 C 0.26291 0.57543 0.99737 0.0
C2627 C 0.28421 0.61426 0.99561 0.0
C2628 C 0.30528 0.63158 0.00099 0.0
C2629 C 0.24804 0.5811 0.97903 0.0
C2630 C 0.25026 0.60414 0.96991 0.0
C2631 C 0.26807 0.62049 0.97859 0.0
C2632 C 0.23522 0.61133 0.95046 0.0
C2633 C 0.23088 0.56194 0.9691 0.0
C2634 C 0.23595 0.60063 0.92836 0.0
C2635 C 0.22221 0.6077 0.90985 0.0
C2636 C 0.20741 0.62562 0.91305 0.0
C2637 C 0.20662 0.63632 0.93522 0.0
C2638 C 0.2207 0.62945 0.95368 0.0
H2639 H 0.22547 0.54837 0.98262 0.0
H2640 H 0.21484 0.56865 0.96182 0.0
H2641 H 0.2398 0.55331 0.95457 0.0
H2642 H 0.24744 0.58701 0.92531 0.0
H2643 H 0.22335 0.59925 0.89292 0.0
H2644 H 0.07239 0.48069 0.66098 0.0
H2645 H 0.07885 0.51142 0.68996 0.0
H2646 H 0.15262 0.49914 0.69413 0.0
H2647 H 0.14649 0.46981 0.66289 0.0
H2648 H 0.08725 0.51208 0.73113 0.0
H2649 H 0.1635 0.56634 0.69178 0.0
H2650 H 0.14814 0.54238 0.67605 0.0
H2651 H 0.17106 0.53732 0.69688 0.0
C2652 C 0.09008 0.4847 0.66792 0.0
C2653 C 0.10895 0.47284 0.6598 0.0
C2654 C 0.09377 0.50229 0.68461 0.0
C2655 C 0.11631 0.50803 0.69429 0.0
C2656 C 0.13524 0.49589 0.6864 0.0
H2657 H 0.16666 0.59188 0.81166 0.0
H2658 H 0.15897 0.56373 0.78004 0.0
C2659 C 0.13171 0.47886 0.66879 0.0
C2660 C 0.11932 0.52609 0.71313 0.0
H2661 H 0.15482 0.57371 0.73217 0.0
C2662 C 0.10192 0.52572 0.73102 0.0
C2663 C 0.13819 0.54425 0.71311 0.0
C2664 C 0.15607 0.54776 0.69326 0.0
C2665 C 0.10282 0.54275 0.74867 0.0
C2666 C 0.12255 0.55981 0.74949 0.0
C2667 C 0.13996 0.56028 0.73175 0.0
C2668 C 0.12625 0.57669 0.7691 0.0
C2669 C 0.08228 0.54241 0.76578 0.0
C2670 C 0.11036 0.59336 0.77349 0.0
C2671 C 0.11469 0.60956 0.79168 0.0
C2672 C 0.135 0.60934 0.80576 0.0
C2673 C 0.15071 0.59244 0.80139 0.0
C2674 C 0.14645 0.57642 0.78316 0.0
H2675 H 0.07347 0.52445 0.76826 0.0
H2676 H 0.08754 0.54968 0.78322 0.0
H2677 H 0.06897 0.55322 0.75837 0.0
H2678 H 0.09483 0.59408 0.7626 0.0
H2679 H 0.10238 0.62251 0.79444 0.0
H2680 H 0.17521 0.43679 0.5472 0.0
H2681 H 0.19642 0.42061 0.51484 0.0
H2682 H 0.15336 0.35481 0.52294 0.0
H2683 H 0.13205 0.37098 0.5558 0.0
H2684 H 0.19625 0.3467 0.51469 0.0
H2685 H 0.17612 0.41205 0.44885 0.0
H2686 H 0.19068 0.42657 0.47337 0.0
H2687 H 0.16209 0.41017 0.47751 0.0
C2688 C 0.17026 0.41883 0.54222 0.0
C2689 C 0.15176 0.40526 0.55396 0.0
C2690 C 0.18227 0.40964 0.52345 0.0
C2691 C 0.17602 0.38669 0.51578 0.0
C2692 C 0.15827 0.3727 0.5282 0.0
H2693 H 0.24759 0.30906 0.40736 0.0
H2694 H 0.21783 0.32032 0.43565 0.0
C2695 C 0.14618 0.38192 0.54708 0.0
C2696 C 0.18875 0.37728 0.49543 0.0
H2697 H 0.20983 0.39102 0.43995 0.0
C2698 C 0.1993 0.35646 0.49847 0.0
C2699 C 0.19193 0.38942 0.47365 0.0
C2700 C 0.17935 0.41063 0.46808 0.0
C2701 C 0.21476 0.34871 0.48145 0.0
C2702 C 0.21872 0.36141 0.46013 0.0
C2703 C 0.20702 0.38143 0.45642 0.0
C2704 C 0.23571 0.35477 0.44194 0.0
C2705 C 0.22768 0.3277 0.48702 0.0
C2706 C 0.25502 0.37067 0.43522 0.0
C2707 C 0.27217 0.36413 0.41954 0.0
C2708 C 0.26987 0.34178 0.40969 0.0
C2709 C 0.24989 0.32625 0.41522 0.0
C2710 C 0.23299 0.33263 0.43139 0.0
H2711 H 0.22733 0.32362 0.50617 0.0
H2712 H 0.21904 0.31225 0.4777 0.0
H2713 H 0.24645 0.33052 0.48111 0.0
H2714 H 0.25699 0.38808 0.44228 0.0
H2715 H 0.28711 0.3766 0.41491 0.0
H2716 H 0.45081 0.33517 0.3776 0.0
H2717 H 0.48554 0.31363 0.37258 0.0
H2718 H 0.4883 0.30326 0.44789 0.0
H2719 H 0.45263 0.32309 0.45274 0.0
H2720 H 0.5289 0.32478 0.38804 0.0
H2721 H 0.49783 0.23962 0.43052 0.0
H2722 H 0.47803 0.26169 0.42579 0.0
H2723 H 0.49916 0.26464 0.44919 0.0
C2724 C 0.45858 0.32788 0.39301 0.0
C2725 C 0.44879 0.33056 0.4155 0.0
C2726 C 0.4785 0.31566 0.39018 0.0
C2727 C 0.48948 0.30643 0.40983 0.0
C2728 C 0.47983 0.30938 0.43233 0.0
H2729 H 0.60173 0.21268 0.39291 0.0
H2730 H 0.57859 0.24033 0.4135 0.0
C2731 C 0.45946 0.32092 0.43509 0.0
C2732 C 0.51163 0.29488 0.40651 0.0
H2733 H 0.53532 0.24306 0.41291 0.0
C2734 C 0.53027 0.3069 0.39356 0.0
C2735 C 0.5143 0.27205 0.41493 0.0
C2736 C 0.49624 0.25867 0.43078 0.0
C2737 C 0.55059 0.29625 0.38736 0.0
C2738 C 0.55184 0.27246 0.39318 0.0
C2739 C 0.53421 0.26109 0.40787 0.0
C2740 C 0.56918 0.25824 0.38171 0.0
C2741 C 0.57041 0.31076 0.37463 0.0
C2742 C 0.57184 0.25907 0.35707 0.0
C2743 C 0.58452 0.24308 0.3454 0.0
C2744 C 0.59518 0.22598 0.35803 0.0
C2745 C 0.59352 0.22562 0.38275 0.0
C2746 C 0.58042 0.24149 0.3945 0.0
H2747 H 0.57229 0.32892 0.38142 0.0
H2748 H 0.58764 0.30341 0.3766 0.0
H2749 H 0.56611 0.31177 0.35562 0.0
H2750 H 0.56278 0.27108 0.34655 0.0
H2751 H 0.58569 0.24396 0.32633 0.0
loop_
_geom_bond_atom_site_label_1
_geom_bond_atom_site_label_2
_geom_bond_distance
_geom_bond_site_symmetry_2
_ccdc_geom_bond_type
O0 Cd1 2.223 . S
O0 C8 1.315 . S
Cd1 O0 2.223 . S
Cd1 O4 2.297 . S
Cd1 O5 2.439 . S
Cd1 O11 2.240 . S
Cd2 O3 2.240 . S
Cd2 O10 2.223 . S
Cd2 O12 2.297 . S
Cd2 O13 2.439 . S
O3 Cd2 2.240 . S
O3 C8 1.279 . S
O4 Cd1 2.297 . S
O4 C6 1.247 . S
O5 Cd1 2.439 . S
O5 C6 1.208 . S
C6 O4 1.247 . S
C6 O5 1.208 . S
C7 O12 1.247 . S
C7 O13 1.208 . S
C8 O0 1.315 . S
C8 O3 1.279 . S
C9 O10 1.315 . S
C9 O11 1.279 . S
O10 Cd2 2.223 . S
O10 C9 1.315 . S
O11 Cd1 2.240 . S
O11 C9 1.279 . S
O12 Cd2 2.297 . S
O12 C7 1.247 . S
O13 Cd2 2.439 . S
O13 C7 1.208 . S
O14 Cd15 2.223 . S
O14 C22 1.315 . S
Cd15 O14 2.223 . S
Cd15 O18 2.297 . S
Cd15 O19 2.439 . S
Cd15 O25 2.240 . S
Cd16 O17 2.240 . S
Cd16 O24 2.223 . S
Cd16 O26 2.297 . S
Cd16 O27 2.439 . S
O17 Cd16 2.240 . S
O17 C22 1.279 . S
O18 Cd15 2.297 . S
O18 C20 1.247 . S
O19 Cd15 2.439 . S
O19 C20 1.208 . S
C20 O18 1.247 . S
C20 O19 1.208 . S
C21 O26 1.247 . S
C21 O27 1.208 . S
C22 O14 1.315 . S
C22 O17 1.279 . S
C23 O24 1.315 . S
C23 O25 1.279 . S
O24 Cd16 2.223 . S
O24 C23 1.315 . S
O25 Cd15 2.240 . S
O25 C23 1.279 . S
O26 Cd16 2.297 . S
O26 C21 1.247 . S
O27 Cd16 2.439 . S
O27 C21 1.208 . S
O28 Cd29 2.223 . S
O28 C36 1.315 . S
Cd29 O28 2.223 . S
Cd29 O32 2.297 . S
Cd29 O33 2.439 . S
Cd29 O39 2.240 . S
Cd30 O31 2.240 . S
Cd30 O38 2.223 . S
Cd30 O40 2.297 . S
Cd30 O41 2.439 . S
O31 Cd30 2.240 . S
O31 C36 1.279 . S
O32 Cd29 2.297 . S
O32 C34 1.247 . S
O33 Cd29 2.439 . S
O33 C34 1.208 . S
C34 O32 1.247 . S
C34 O33 1.208 . S
C35 O40 1.247 . S
C35 O41 1.208 . S
C36 O28 1.315 . S
C36 O31 1.279 . S
C37 O38 1.315 . S
C37 O39 1.279 . S
O38 Cd30 2.223 . S
O38 C37 1.315 . S
O39 Cd29 2.240 . S
O39 C37 1.279 . S
O40 Cd30 2.297 . S
O40 C35 1.247 . S
O41 Cd30 2.439 . S
O41 C35 1.208 . S
O42 Cd43 2.223 . S
O42 C50 1.315 . S
Cd43 O42 2.223 . S
Cd43 O46 2.297 . S
Cd43 O47 2.439 . S
Cd43 O53 2.240 . S
Cd44 O45 2.240 . S
Cd44 O52 2.223 . S
Cd44 O54 2.297 . S
Cd44 O55 2.439 . S
O45 Cd44 2.240 . S
O45 C50 1.279 . S
O46 Cd43 2.297 . S
O46 C48 1.247 . S
O47 Cd43 2.439 . S
O47 C48 1.208 . S
C48 O46 1.247 . S
C48 O47 1.208 . S
C49 O54 1.247 . S
C49 O55 1.208 . S
C50 O42 1.315 . S
C50 O45 1.279 . S
C51 O52 1.315 . S
C51 O53 1.279 . S
O52 Cd44 2.223 . S
O52 C51 1.315 . S
O53 Cd43 2.240 . S
O53 C51 1.279 . S
O54 Cd44 2.297 . S
O54 C49 1.247 . S
O55 Cd44 2.439 . S
O55 C49 1.208 . S
O56 Cd57 2.223 . S
O56 C64 1.315 . S
Cd57 O56 2.223 . S
Cd57 O60 2.297 . S
Cd57 O61 2.439 . S
Cd57 O67 2.240 . S
Cd58 O59 2.240 . S
Cd58 O66 2.223 . S
Cd58 O68 2.297 . S
Cd58 O69 2.439 . S
O59 Cd58 2.240 . S
O59 C64 1.279 . S
O60 Cd57 2.297 . S
O60 C62 1.247 . S
O61 Cd57 2.439 . S
O61 C62 1.208 . S
C62 O60 1.247 . S
C62 O61 1.208 . S
C63 O68 1.247 . S
C63 O69 1.208 . S
C64 O56 1.315 . S
C64 O59 1.279 . S
C65 O66 1.315 . S
C65 O67 1.279 . S
O66 Cd58 2.223 . S
O66 C65 1.315 . S
O67 Cd57 2.240 . S
O67 C65 1.279 . S
O68 Cd58 2.297 . S
O68 C63 1.247 . S
O69 Cd58 2.439 . S
O69 C63 1.208 . S
O70 Cd71 2.223 . S
O70 C78 1.315 . S
Cd71 O70 2.223 . S
Cd71 O74 2.297 . S
Cd71 O75 2.439 . S
Cd71 O81 2.240 . S
Cd72 O73 2.240 . S
Cd72 O80 2.223 . S
Cd72 O82 2.297 . S
Cd72 O83 2.439 . S
O73 Cd72 2.240 . S
O73 C78 1.279 . S
O74 Cd71 2.297 . S
O74 C76 1.247 . S
O75 Cd71 2.439 . S
O75 C76 1.208 . S
C76 O74 1.247 . S
C76 O75 1.208 . S
C77 O82 1.247 . S
C77 O83 1.208 . S
C78 O70 1.315 . S
C78 O73 1.279 . S
C79 O80 1.315 . S
C79 O81 1.279 . S
O80 Cd72 2.223 . S
O80 C79 1.315 . S
O81 Cd71 2.240 . S
O81 C79 1.279 . S
O82 Cd72 2.297 . S
O82 C77 1.247 . S
O83 Cd72 2.439 . S
O83 C77 1.208 . S
O84 Cd85 2.223 . S
O84 C92 1.315 . S
Cd85 O84 2.223 . S
Cd85 O88 2.297 . S
Cd85 O89 2.439 . S
Cd85 O95 2.240 . S
Cd86 O87 2.240 . S
Cd86 O94 2.223 . S
Cd86 O96 2.297 . S
Cd86 O97 2.439 . S
O87 Cd86 2.240 . S
O87 C92 1.279 . S
O88 Cd85 2.297 . S
O88 C90 1.247 . S
O89 Cd85 2.439 . S
O89 C90 1.208 . S
C90 O88 1.247 . S
C90 O89 1.208 . S
C91 O96 1.247 . S
C91 O97 1.208 . S
C92 O84 1.315 . S
C92 O87 1.279 . S
C93 O94 1.315 . S
C93 O95 1.279 . S
O94 Cd86 2.223 . S
O94 C93 1.315 . S
O95 Cd85 2.240 . S
O95 C93 1.279 . S
O96 Cd86 2.297 . S
O96 C91 1.247 . S
O97 Cd86 2.439 . S
O97 C91 1.208 . S
O98 Cd99 2.223 . S
O98 C106 1.315 . S
Cd99 O98 2.223 . S
Cd99 O102 2.297 . S
Cd99 O103 2.439 . S
Cd99 O109 2.240 . S
Cd100 O101 2.240 . S
Cd100 O108 2.223 . S
Cd100 O110 2.297 . S
Cd100 O111 2.439 . S
O101 Cd100 2.240 . S
O101 C106 1.279 . S
O102 Cd99 2.297 . S
O102 C104 1.247 . S
O103 Cd99 2.439 . S
O103 C104 1.208 . S
C104 O102 1.247 . S
C104 O103 1.208 . S
C105 O110 1.247 . S
C105 O111 1.208 . S
C106 O98 1.315 . S
C106 O101 1.279 . S
C107 O108 1.315 . S
C107 O109 1.279 . S
O108 Cd100 2.223 . S
O108 C107 1.315 . S
O109 Cd99 2.240 . S
O109 C107 1.279 . S
O110 Cd100 2.297 . S
O110 C105 1.247 . S
O111 Cd100 2.439 . S
O111 C105 1.208 . S
O112 Cd113 2.223 . S
O112 C120 1.315 . S
Cd113 O112 2.223 . S
Cd113 O116 2.297 . S
Cd113 O117 2.439 . S
Cd113 O123 2.240 . S
Cd114 O115 2.240 . S
Cd114 O122 2.223 . S
Cd114 O124 2.297 . S
Cd114 O125 2.439 . S
O115 Cd114 2.240 . S
O115 C120 1.279 . S
O116 Cd113 2.297 . S
O116 C118 1.247 . S
O117 Cd113 2.439 . S
O117 C118 1.208 . S
C118 O116 1.247 . S
C118 O117 1.208 . S
C119 O124 1.247 . S
C119 O125 1.208 . S
C120 O112 1.315 . S
C120 O115 1.279 . S
C121 O122 1.315 . S
C121 O123 1.279 . S
O122 Cd114 2.223 . S
O122 C121 1.315 . S
O123 Cd113 2.240 . S
O123 C121 1.279 . S
O124 Cd114 2.297 . S
O124 C119 1.247 . S
O125 Cd114 2.439 . S
O125 C119 1.208 . S
O126 Cd127 2.223 . S
O126 C134 1.315 . S
Cd127 O126 2.223 . S
Cd127 O130 2.297 . S
Cd127 O131 2.439 . S
Cd127 O137 2.240 . S
Cd128 O129 2.240 . S
Cd128 O136 2.223 . S
Cd128 O138 2.297 . S
Cd128 O139 2.439 . S
O129 Cd128 2.240 . S
O129 C134 1.279 . S
O130 Cd127 2.297 . S
O130 C132 1.247 . S
O131 Cd127 2.439 . S
O131 C132 1.208 . S
C132 O130 1.247 . S
C132 O131 1.208 . S
C133 O138 1.247 . S
C133 O139 1.208 . S
C134 O126 1.315 . S
C134 O129 1.279 . S
C135 O136 1.315 . S
C135 O137 1.279 . S
O136 Cd128 2.223 . S
O136 C135 1.315 . S
O137 Cd127 2.240 . S
O137 C135 1.279 . S
O138 Cd128 2.297 . S
O138 C133 1.247 . S
O139 Cd128 2.439 . S
O139 C133 1.208 . S
O140 Cd141 2.223 . S
O140 C148 1.315 . S
Cd141 O140 2.223 . S
Cd141 O144 2.297 . S
Cd141 O145 2.439 . S
Cd141 O151 2.240 . S
Cd142 O143 2.240 . S
Cd142 O150 2.223 . S
Cd142 O152 2.297 . S
Cd142 O153 2.439 . S
O143 Cd142 2.240 . S
O143 C148 1.279 . S
O144 Cd141 2.297 . S
O144 C146 1.247 . S
O145 Cd141 2.439 . S
O145 C146 1.208 . S
C146 O144 1.247 . S
C146 O145 1.208 . S
C147 O152 1.247 . S
C147 O153 1.208 . S
C148 O140 1.315 . S
C148 O143 1.279 . S
C149 O150 1.315 . S
C149 O151 1.279 . S
O150 Cd142 2.223 . S
O150 C149 1.315 . S
O151 Cd141 2.240 . S
O151 C149 1.279 . S
O152 Cd142 2.297 . S
O152 C147 1.247 . S
O153 Cd142 2.439 . S
O153 C147 1.208 . S
O154 Cd155 2.223 . S
O154 C162 1.315 . S
Cd155 O154 2.223 . S
Cd155 O158 2.297 . S
Cd155 O159 2.439 . S
Cd155 O165 2.240 . S
Cd156 O157 2.240 . S
Cd156 O164 2.223 . S
Cd156 O166 2.297 . S
Cd156 O167 2.439 . S
O157 Cd156 2.240 . S
O157 C162 1.279 . S
O158 Cd155 2.297 . S
O158 C160 1.247 . S
O159 Cd155 2.439 . S
O159 C160 1.208 . S
C160 O158 1.247 . S
C160 O159 1.208 . S
C161 O166 1.247 . S
C161 O167 1.208 . S
C162 O154 1.315 . S
C162 O157 1.279 . S
C163 O164 1.315 . S
C163 O165 1.279 . S
O164 Cd156 2.223 . S
O164 C163 1.315 . S
O165 Cd155 2.240 . S
O165 C163 1.279 . S
O166 Cd156 2.297 . S
O166 C161 1.247 . S
O167 Cd156 2.439 . S
O167 C161 1.208 . S
O168 Cd169 2.223 . S
O168 C176 1.315 . S
Cd169 O168 2.223 . S
Cd169 O172 2.297 . S
Cd169 O173 2.439 . S
Cd169 O179 2.240 . S
Cd170 O171 2.240 . S
Cd170 O178 2.223 . S
Cd170 O180 2.297 . S
Cd170 O181 2.439 . S
O171 Cd170 2.240 . S
O171 C176 1.279 . S
O172 Cd169 2.297 . S
O172 C174 1.247 . S
O173 Cd169 2.439 . S
O173 C174 1.208 . S
C174 O172 1.247 . S
C174 O173 1.208 . S
C175 O180 1.247 . S
C175 O181 1.208 . S
C176 O168 1.315 . S
C176 O171 1.279 . S
C177 O178 1.315 . S
C177 O179 1.279 . S
O178 Cd170 2.223 . S
O178 C177 1.315 . S
O179 Cd169 2.240 . S
O179 C177 1.279 . S
O180 Cd170 2.297 . S
O180 C175 1.247 . S
O181 Cd170 2.439 . S
O181 C175 1.208 . S
O182 Cd183 2.223 . S
O182 C190 1.315 . S
Cd183 O182 2.223 . S
Cd183 O186 2.297 . S
Cd183 O187 2.439 . S
Cd183 O193 2.240 . S
Cd184 O185 2.240 . S
Cd184 O192 2.223 . S
Cd184 O194 2.297 . S
Cd184 O195 2.439 . S
O185 Cd184 2.240 . S
O185 C190 1.279 . S
O186 Cd183 2.297 . S
O186 C188 1.247 . S
O187 Cd183 2.439 . S
O187 C188 1.208 . S
C188 O186 1.247 . S
C188 O187 1.208 . S
C189 O194 1.247 . S
C189 O195 1.208 . S
C190 O182 1.315 . S
C190 O185 1.279 . S
C191 O192 1.315 . S
C191 O193 1.279 . S
O192 Cd184 2.223 . S
O192 C191 1.315 . S
O193 Cd183 2.240 . S
O193 C191 1.279 . S
O194 Cd184 2.297 . S
O194 C189 1.247 . S
O195 Cd184 2.439 . S
O195 C189 1.208 . S
O196 Cd197 2.223 . S
O196 C204 1.315 . S
Cd197 O196 2.223 . S
Cd197 O200 2.297 . S
Cd197 O201 2.439 . S
Cd197 O207 2.240 . S
Cd198 O199 2.240 . S
Cd198 O206 2.223 . S
Cd198 O208 2.297 . S
Cd198 O209 2.439 . S
O199 Cd198 2.240 . S
O199 C204 1.279 . S
O200 Cd197 2.297 . S
O200 C202 1.247 . S
O201 Cd197 2.439 . S
O201 C202 1.208 . S
C202 O200 1.247 . S
C202 O201 1.208 . S
C203 O208 1.247 . S
C203 O209 1.208 . S
C204 O196 1.315 . S
C204 O199 1.279 . S
C205 O206 1.315 . S
C205 O207 1.279 . S
O206 Cd198 2.223 . S
O206 C205 1.315 . S
O207 Cd197 2.240 . S
O207 C205 1.279 . S
O208 Cd198 2.297 . S
O208 C203 1.247 . S
O209 Cd198 2.439 . S
O209 C203 1.208 . S
O210 Cd211 2.223 . S
O210 C218 1.315 . S
Cd211 O210 2.223 . S
Cd211 O214 2.297 . S
Cd211 O215 2.439 . S
Cd211 O221 2.240 . S
Cd212 O213 2.240 . S
Cd212 O220 2.223 . S
Cd212 O222 2.297 . S
Cd212 O223 2.439 . S
O213 Cd212 2.240 . S
O213 C218 1.279 . S
O214 Cd211 2.297 . S
O214 C216 1.247 . S
O215 Cd211 2.439 . S
O215 C216 1.208 . S
C216 O214 1.247 . S
C216 O215 1.208 . S
C217 O222 1.247 . S
C217 O223 1.208 . S
C218 O210 1.315 . S
C218 O213 1.279 . S
C219 O220 1.315 . S
C219 O221 1.279 . S
O220 Cd212 2.223 . S
O220 C219 1.315 . S
O221 Cd211 2.240 . S
O221 C219 1.279 . S
O222 Cd212 2.297 . S
O222 C217 1.247 . S
O223 Cd212 2.439 . S
O223 C217 1.208 . S
O224 Cd225 2.223 . S
O224 C232 1.315 . S
Cd225 O224 2.223 . S
Cd225 O228 2.297 . S
Cd225 O229 2.439 . S
Cd225 O235 2.240 . S
Cd226 O227 2.240 . S
Cd226 O234 2.223 . S
Cd226 O236 2.297 . S
Cd226 O237 2.439 . S
O227 Cd226 2.240 . S
O227 C232 1.279 . S
O228 Cd225 2.297 . S
O228 C230 1.247 . S
O229 Cd225 2.439 . S
O229 C230 1.208 . S
C230 O228 1.247 . S
C230 O229 1.208 . S
C231 O236 1.247 . S
C231 O237 1.208 . S
C232 O224 1.315 . S
C232 O227 1.279 . S
C233 O234 1.315 . S
C233 O235 1.279 . S
O234 Cd226 2.223 . S
O234 C233 1.315 . S
O235 Cd225 2.240 . S
O235 C233 1.279 . S
O236 Cd226 2.297 . S
O236 C231 1.247 . S
O237 Cd226 2.439 . S
O237 C231 1.208 . S
O238 Cd239 2.223 . S
O238 C246 1.315 . S
Cd239 O238 2.223 . S
Cd239 O242 2.297 . S
Cd239 O243 2.439 . S
Cd239 O249 2.240 . S
Cd240 O241 2.240 . S
Cd240 O248 2.223 . S
Cd240 O250 2.297 . S
Cd240 O251 2.439 . S
O241 Cd240 2.240 . S
O241 C246 1.279 . S
O242 Cd239 2.297 . S
O242 C244 1.247 . S
O243 Cd239 2.439 . S
O243 C244 1.208 . S
C244 O242 1.247 . S
C244 O243 1.208 . S
C245 O250 1.247 . S
C245 O251 1.208 . S
C246 O238 1.315 . S
C246 O241 1.279 . S
C247 O248 1.315 . S
C247 O249 1.279 . S
O248 Cd240 2.223 . S
O248 C247 1.315 . S
O249 Cd239 2.240 . S
O249 C247 1.279 . S
O250 Cd240 2.297 . S
O250 C245 1.247 . S
O251 Cd240 2.439 . S
O251 C245 1.208 . S
O252 Cd253 2.223 . S
O252 C260 1.315 . S
Cd253 O252 2.223 . S
Cd253 O256 2.297 . S
Cd253 O257 2.439 . S
Cd253 O263 2.240 . S
Cd254 O255 2.240 . S
Cd254 O262 2.223 . S
Cd254 O264 2.297 . S
Cd254 O265 2.439 . S
O255 Cd254 2.240 . S
O255 C260 1.279 . S
O256 Cd253 2.297 . S
O256 C258 1.247 . S
O257 Cd253 2.439 . S
O257 C258 1.208 . S
C258 O256 1.247 . S
C258 O257 1.208 . S
C259 O264 1.247 . S
C259 O265 1.208 . S
C260 O252 1.315 . S
C260 O255 1.279 . S
C261 O262 1.315 . S
C261 O263 1.279 . S
O262 Cd254 2.223 . S
O262 C261 1.315 . S
O263 Cd253 2.240 . S
O263 C261 1.279 . S
O264 Cd254 2.297 . S
O264 C259 1.247 . S
O265 Cd254 2.439 . S
O265 C259 1.208 . S
O266 Cd267 2.223 . S
O266 C274 1.315 . S
Cd267 O266 2.223 . S
Cd267 O270 2.297 . S
Cd267 O271 2.439 . S
Cd267 O277 2.240 . S
Cd268 O269 2.240 . S
Cd268 O276 2.223 . S
Cd268 O278 2.297 . S
Cd268 O279 2.439 . S
O269 Cd268 2.240 . S
O269 C274 1.279 . S
O270 Cd267 2.297 . S
O270 C272 1.247 . S
O271 Cd267 2.439 . S
O271 C272 1.208 . S
C272 O270 1.247 . S
C272 O271 1.208 . S
C273 O278 1.247 . S
C273 O279 1.208 . S
C274 O266 1.315 . S
C274 O269 1.279 . S
C275 O276 1.315 . S
C275 O277 1.279 . S
O276 Cd268 2.223 . S
O276 C275 1.315 . S
O277 Cd267 2.240 . S
O277 C275 1.279 . S
O278 Cd268 2.297 . S
O278 C273 1.247 . S
O279 Cd268 2.439 . S
O279 C273 1.208 . S
O280 Cd281 2.223 . S
O280 C288 1.315 . S
Cd281 O280 2.223 . S
Cd281 O284 2.297 . S
Cd281 O285 2.439 . S
Cd281 O291 2.240 . S
Cd282 O283 2.240 . S
Cd282 O290 2.223 . S
Cd282 O292 2.297 . S
Cd282 O293 2.439 . S
O283 Cd282 2.240 . S
O283 C288 1.279 . S
O284 Cd281 2.297 . S
O284 C286 1.247 . S
O285 Cd281 2.439 . S
O285 C286 1.208 . S
C286 O284 1.247 . S
C286 O285 1.208 . S
C287 O292 1.247 . S
C287 O293 1.208 . S
C288 O280 1.315 . S
C288 O283 1.279 . S
C289 O290 1.315 . S
C289 O291 1.279 . S
O290 Cd282 2.223 . S
O290 C289 1.315 . S
O291 Cd281 2.240 . S
O291 C289 1.279 . S
O292 Cd282 2.297 . S
O292 C287 1.247 . S
O293 Cd282 2.439 . S
O293 C287 1.208 . S
O294 Cd295 2.223 . S
O294 C302 1.315 . S
Cd295 O294 2.223 . S
Cd295 O298 2.297 . S
Cd295 O299 2.439 . S
Cd295 O305 2.240 . S
Cd296 O297 2.240 . S
Cd296 O304 2.223 . S
Cd296 O306 2.297 . S
Cd296 O307 2.439 . S
O297 Cd296 2.240 . S
O297 C302 1.279 . S
O298 Cd295 2.297 . S
O298 C300 1.247 . S
O299 Cd295 2.439 . S
O299 C300 1.208 . S
C300 O298 1.247 . S
C300 O299 1.208 . S
C301 O306 1.247 . S
C301 O307 1.208 . S
C302 O294 1.315 . S
C302 O297 1.279 . S
C303 O304 1.315 . S
C303 O305 1.279 . S
O304 Cd296 2.223 . S
O304 C303 1.315 . S
O305 Cd295 2.240 . S
O305 C303 1.279 . S
O306 Cd296 2.297 . S
O306 C301 1.247 . S
O307 Cd296 2.439 . S
O307 C301 1.208 . S
O308 Cd309 2.223 . S
O308 C316 1.315 . S
Cd309 O308 2.223 . S
Cd309 O312 2.297 . S
Cd309 O313 2.439 . S
Cd309 O319 2.240 . S
Cd310 O311 2.240 . S
Cd310 O318 2.223 . S
Cd310 O320 2.297 . S
Cd310 O321 2.439 . S
O311 Cd310 2.240 . S
O311 C316 1.279 . S
O312 Cd309 2.297 . S
O312 C314 1.247 . S
O313 Cd309 2.439 . S
O313 C314 1.208 . S
C314 O312 1.247 . S
C314 O313 1.208 . S
C315 O320 1.247 . S
C315 O321 1.208 . S
C316 O308 1.315 . S
C316 O311 1.279 . S
C317 O318 1.315 . S
C317 O319 1.279 . S
O318 Cd310 2.223 . S
O318 C317 1.315 . S
O319 Cd309 2.240 . S
O319 C317 1.279 . S
O320 Cd310 2.297 . S
O320 C315 1.247 . S
O321 Cd310 2.439 . S
O321 C315 1.208 . S
O322 Cd323 2.223 . S
O322 C330 1.315 . S
Cd323 O322 2.223 . S
Cd323 O326 2.297 . S
Cd323 O327 2.439 . S
Cd323 O333 2.240 . S
Cd324 O325 2.240 . S
Cd324 O332 2.223 . S
Cd324 O334 2.297 . S
Cd324 O335 2.439 . S
O325 Cd324 2.240 . S
O325 C330 1.279 . S
O326 Cd323 2.297 . S
O326 C328 1.247 . S
O327 Cd323 2.439 . S
O327 C328 1.208 . S
C328 O326 1.247 . S
C328 O327 1.208 . S
C329 O334 1.247 . S
C329 O335 1.208 . S
C330 O322 1.315 . S
C330 O325 1.279 . S
C331 O332 1.315 . S
C331 O333 1.279 . S
O332 Cd324 2.223 . S
O332 C331 1.315 . S
O333 Cd323 2.240 . S
O333 C331 1.279 . S
O334 Cd324 2.297 . S
O334 C329 1.247 . S
O335 Cd324 2.439 . S
O335 C329 1.208 . S
O336 Cd337 2.223 . S
O336 C344 1.315 . S
Cd337 O336 2.223 . S
Cd337 O340 2.297 . S
Cd337 O341 2.439 . S
Cd337 O347 2.240 . S
Cd338 O339 2.240 . S
Cd338 O346 2.223 . S
Cd338 O348 2.297 . S
Cd338 O349 2.439 . S
O339 Cd338 2.240 . S
O339 C344 1.279 . S
O340 Cd337 2.297 . S
O340 C342 1.247 . S
O341 Cd337 2.439 . S
O341 C342 1.208 . S
C342 O340 1.247 . S
C342 O341 1.208 . S
C343 O348 1.247 . S
C343 O349 1.208 . S
C344 O336 1.315 . S
C344 O339 1.279 . S
C345 O346 1.315 . S
C345 O347 1.279 . S
O346 Cd338 2.223 . S
O346 C345 1.315 . S
O347 Cd337 2.240 . S
O347 C345 1.279 . S
O348 Cd338 2.297 . S
O348 C343 1.247 . S
O349 Cd338 2.439 . S
O349 C343 1.208 . S
O350 Cd351 2.223 . S
O350 C358 1.315 . S
Cd351 O350 2.223 . S
Cd351 O354 2.297 . S
Cd351 O355 2.439 . S
Cd351 O361 2.240 . S
Cd352 O353 2.240 . S
Cd352 O360 2.223 . S
Cd352 O362 2.297 . S
Cd352 O363 2.439 . S
O353 Cd352 2.240 . S
O353 C358 1.279 . S
O354 Cd351 2.297 . S
O354 C356 1.247 . S
O355 Cd351 2.439 . S
O355 C356 1.208 . S
C356 O354 1.247 . S
C356 O355 1.208 . S
C357 O362 1.247 . S
C357 O363 1.208 . S
C358 O350 1.315 . S
C358 O353 1.279 . S
C359 O360 1.315 . S
C359 O361 1.279 . S
O360 Cd352 2.223 . S
O360 C359 1.315 . S
O361 Cd351 2.240 . S
O361 C359 1.279 . S
O362 Cd352 2.297 . S
O362 C357 1.247 . S
O363 Cd352 2.439 . S
O363 C357 1.208 . S
O364 Cd365 2.223 . S
O364 C372 1.315 . S
Cd365 O364 2.223 . S
Cd365 O368 2.297 . S
Cd365 O369 2.439 . S
Cd365 O375 2.240 . S
Cd366 O367 2.240 . S
Cd366 O374 2.223 . S
Cd366 O376 2.297 . S
Cd366 O377 2.439 . S
O367 Cd366 2.240 . S
O367 C372 1.279 . S
O368 Cd365 2.297 . S
O368 C370 1.247 . S
O369 Cd365 2.439 . S
O369 C370 1.208 . S
C370 O368 1.247 . S
C370 O369 1.208 . S
C371 O376 1.247 . S
C371 O377 1.208 . S
C372 O364 1.315 . S
C372 O367 1.279 . S
C373 O374 1.315 . S
C373 O375 1.279 . S
O374 Cd366 2.223 . S
O374 C373 1.315 . S
O375 Cd365 2.240 . S
O375 C373 1.279 . S
O376 Cd366 2.297 . S
O376 C371 1.247 . S
O377 Cd366 2.439 . S
O377 C371 1.208 . S
O378 Cd379 2.223 . S
O378 C386 1.315 . S
Cd379 O378 2.223 . S
Cd379 O382 2.297 . S
Cd379 O383 2.439 . S
Cd379 O389 2.240 . S
Cd380 O381 2.240 . S
Cd380 O388 2.223 . S
Cd380 O390 2.297 . S
Cd380 O391 2.439 . S
O381 Cd380 2.240 . S
O381 C386 1.279 . S
O382 Cd379 2.297 . S
O382 C384 1.247 . S
O383 Cd379 2.439 . S
O383 C384 1.208 . S
C384 O382 1.247 . S
C384 O383 1.208 . S
C385 O390 1.247 . S
C385 O391 1.208 . S
C386 O378 1.315 . S
C386 O381 1.279 . S
C387 O388 1.315 . S
C387 O389 1.279 . S
O388 Cd380 2.223 . S
O388 C387 1.315 . S
O389 Cd379 2.240 . S
O389 C387 1.279 . S
O390 Cd380 2.297 . S
O390 C385 1.247 . S
O391 Cd380 2.439 . S
O391 C385 1.208 . S
O392 Cd393 2.223 . S
O392 C400 1.315 . S
Cd393 O392 2.223 . S
Cd393 O396 2.297 . S
Cd393 O397 2.439 . S
Cd393 O403 2.240 . S
Cd394 O395 2.240 . S
Cd394 O402 2.223 . S
Cd394 O404 2.297 . S
Cd394 O405 2.439 . S
O395 Cd394 2.240 . S
O395 C400 1.279 . S
O396 Cd393 2.297 . S
O396 C398 1.247 . S
O397 Cd393 2.439 . S
O397 C398 1.208 . S
C398 O396 1.247 . S
C398 O397 1.208 . S
C399 O404 1.247 . S
C399 O405 1.208 . S
C400 O392 1.315 . S
C400 O395 1.279 . S
C401 O402 1.315 . S
C401 O403 1.279 . S
O402 Cd394 2.223 . S
O402 C401 1.315 . S
O403 Cd393 2.240 . S
O403 C401 1.279 . S
O404 Cd394 2.297 . S
O404 C399 1.247 . S
O405 Cd394 2.439 . S
O405 C399 1.208 . S
O406 Cd407 2.223 . S
O406 C414 1.315 . S
Cd407 O406 2.223 . S
Cd407 O410 2.297 . S
Cd407 O411 2.439 . S
Cd407 O417 2.240 . S
Cd408 O409 2.240 . S
Cd408 O416 2.223 . S
Cd408 O418 2.297 . S
Cd408 O419 2.439 . S
O409 Cd408 2.240 . S
O409 C414 1.279 . S
O410 Cd407 2.297 . S
O410 C412 1.247 . S
O411 Cd407 2.439 . S
O411 C412 1.208 . S
C412 O410 1.247 . S
C412 O411 1.208 . S
C413 O418 1.247 . S
C413 O419 1.208 . S
C414 O406 1.315 . S
C414 O409 1.279 . S
C415 O416 1.315 . S
C415 O417 1.279 . S
O416 Cd408 2.223 . S
O416 C415 1.315 . S
O417 Cd407 2.240 . S
O417 C415 1.279 . S
O418 Cd408 2.297 . S
O418 C413 1.247 . S
O419 Cd408 2.439 . S
O419 C413 1.208 . S
O420 Cd421 2.223 . S
O420 C428 1.315 . S
Cd421 O420 2.223 . S
Cd421 O424 2.297 . S
Cd421 O425 2.439 . S
Cd421 O431 2.240 . S
Cd422 O423 2.240 . S
Cd422 O430 2.223 . S
Cd422 O432 2.297 . S
Cd422 O433 2.439 . S
O423 Cd422 2.240 . S
O423 C428 1.279 . S
O424 Cd421 2.297 . S
O424 C426 1.247 . S
O425 Cd421 2.439 . S
O425 C426 1.208 . S
C426 O424 1.247 . S
C426 O425 1.208 . S
C427 O432 1.247 . S
C427 O433 1.208 . S
C428 O420 1.315 . S
C428 O423 1.279 . S
C429 O430 1.315 . S
C429 O431 1.279 . S
O430 Cd422 2.223 . S
O430 C429 1.315 . S
O431 Cd421 2.240 . S
O431 C429 1.279 . S
O432 Cd422 2.297 . S
O432 C427 1.247 . S
O433 Cd422 2.439 . S
O433 C427 1.208 . S
O434 Cd435 2.223 . S
O434 C442 1.315 . S
Cd435 O434 2.223 . S
Cd435 O438 2.297 . S
Cd435 O439 2.439 . S
Cd435 O445 2.240 . S
Cd436 O437 2.240 . S
Cd436 O444 2.223 . S
Cd436 O446 2.297 . S
Cd436 O447 2.439 . S
O437 Cd436 2.240 . S
O437 C442 1.279 . S
O438 Cd435 2.297 . S
O438 C440 1.247 . S
O439 Cd435 2.439 . S
O439 C440 1.208 . S
C440 O438 1.247 . S
C440 O439 1.208 . S
C441 O446 1.247 . S
C441 O447 1.208 . S
C442 O434 1.315 . S
C442 O437 1.279 . S
C443 O444 1.315 . S
C443 O445 1.279 . S
O444 Cd436 2.223 . S
O444 C443 1.315 . S
O445 Cd435 2.240 . S
O445 C443 1.279 . S
O446 Cd436 2.297 . S
O446 C441 1.247 . S
O447 Cd436 2.439 . S
O447 C441 1.208 . S
H448 C456 0.929 1_655 S
H449 C458 0.930 . S
H450 C460 0.930 1_565 S
H451 C463 0.929 . S
H452 C466 0.930 . S
H453 C468 0.960 . S
H454 C468 0.960 . S
H455 C468 0.960 1_455 S
C456 H448 0.929 1_455 S
C456 C457 1.377 . S
C456 C458 1.384 1_455 S
C457 C456 1.377 . S
C457 C463 1.390 . S
C458 H449 0.930 . S
C458 C456 1.384 1_655 S
C458 C459 1.372 1_655 S
C459 C458 1.372 1_455 S
C459 C460 1.400 . S
C459 C464 1.490 1_445 S
C460 H450 0.930 1_545 S
C460 C459 1.400 . S
C460 C463 1.386 . S
H461 C477 0.930 . S
H462 C478 0.931 . S
C463 H451 0.929 . S
C463 C457 1.390 . S
C463 C460 1.386 . S
C464 C459 1.490 1_665 S
C464 C466 1.395 1_565 S
C464 C467 1.403 . S
H465 C471 0.930 . S
C466 H452 0.930 . S
C466 C464 1.395 1_545 S
C466 C469 1.403 1_544 S
C467 C464 1.403 . S
C467 C468 1.524 . S
C467 C471 1.400 . S
C468 H453 0.960 . S
C468 H454 0.960 . S
C468 H455 0.960 1_655 S
C468 C467 1.524 . S
C469 C466 1.403 1_566 S
C469 C470 1.392 1_556 S
C469 C473 1.514 . S
C470 C469 1.392 1_554 S
C470 C471 1.385 . S
C470 C472 1.478 1_554 S
C471 H465 0.930 . S
C471 C467 1.400 . S
C471 C470 1.385 . S
C472 C470 1.478 1_556 S
C472 C474 1.381 . S
C472 C478 1.383 . S
C473 C469 1.514 . S
C473 H479 0.918 1_565 S
C473 H480 0.981 . S
C473 H481 0.964 . S
C474 C472 1.381 . S
C474 C475 1.394 . S
C474 H482 0.930 . S
C475 C474 1.394 . S
C475 C476 1.383 . S
C475 H483 0.929 . S
C476 C475 1.383 . S
C476 C477 1.377 . S
C477 H461 0.930 . S
C477 C476 1.377 . S
C477 C478 1.379 . S
C478 H462 0.931 . S
C478 C472 1.383 . S
C478 C477 1.379 . S
H479 C473 0.918 1_545 S
H480 C473 0.981 . S
H481 C473 0.964 . S
H482 C474 0.930 . S
H483 C475 0.929 . S
H484 C492 0.929 . S
H485 C494 0.930 . S
H486 C496 0.930 . S
H487 C499 0.929 . S
H488 C502 0.930 . S
H489 C504 0.960 . S
H490 C504 0.960 . S
H491 C504 0.960 . S
C492 H484 0.929 . S
C492 C493 1.377 . S
C492 C494 1.384 . S
C493 C492 1.377 . S
C493 C499 1.390 . S
C494 H485 0.930 . S
C494 C492 1.384 . S
C494 C495 1.372 . S
C495 C494 1.372 . S
C495 C496 1.400 . S
C495 C500 1.490 . S
C496 H486 0.930 . S
C496 C495 1.400 . S
C496 C499 1.386 . S
H497 C513 0.930 . S
H498 C514 0.931 . S
C499 H487 0.929 . S
C499 C493 1.390 . S
C499 C496 1.386 . S
C500 C495 1.490 . S
C500 C502 1.395 . S
C500 C503 1.403 . S
H501 C507 0.930 . S
C502 H488 0.930 . S
C502 C500 1.395 . S
C502 C505 1.403 . S
C503 C500 1.403 . S
C503 C504 1.524 . S
C503 C507 1.400 . S
C504 H489 0.960 . S
C504 H490 0.960 . S
C504 H491 0.960 . S
C504 C503 1.524 . S
C505 C502 1.403 . S
C505 C506 1.392 . S
C505 C509 1.495 . S
C506 C505 1.392 . S
C506 C507 1.385 . S
C506 C508 1.478 . S
C507 H501 0.930 . S
C507 C503 1.400 . S
C507 C506 1.385 . S
C508 C506 1.478 . S
C508 C510 1.381 . S
C508 C514 1.383 . S
C509 C505 1.495 . S
C509 H515 0.959 . S
C509 H516 0.961 . S
C509 H517 0.960 . S
C510 C508 1.381 . S
C510 C511 1.394 . S
C510 H518 0.930 . S
C511 C510 1.394 . S
C511 C512 1.383 . S
C511 H519 0.929 . S
C512 C511 1.383 . S
C512 C513 1.377 . S
C513 H497 0.930 . S
C513 C512 1.377 . S
C513 C514 1.379 . S
C514 H498 0.931 . S
C514 C508 1.383 . S
C514 C513 1.379 . S
H515 C509 0.959 . S
H516 C509 0.961 . S
H517 C509 0.960 . S
H518 C510 0.930 . S
H519 C511 0.929 . S
H520 C528 0.929 . S
H521 C530 0.930 . S
H522 C532 0.930 . S
H523 C535 0.929 . S
H524 C538 0.930 . S
H525 C540 0.960 . S
H526 C540 0.960 . S
H527 C540 0.960 . S
C528 H520 0.929 . S
C528 C529 1.377 . S
C528 C530 1.384 . S
C529 C528 1.377 . S
C529 C535 1.390 . S
C530 H521 0.930 . S
C530 C528 1.384 . S
C530 C531 1.372 . S
C531 C530 1.372 . S
C531 C532 1.400 . S
C531 C536 1.490 1_565 S
C532 H522 0.930 . S
C532 C531 1.400 . S
C532 C535 1.386 . S
H533 C549 0.930 . S
H534 C550 0.931 . S
C535 H523 0.929 . S
C535 C529 1.390 . S
C535 C532 1.386 . S
C536 C531 1.490 1_545 S
C536 C538 1.395 1_545 S
C536 C539 1.403 . S
H537 C543 0.930 . S
C538 H524 0.930 . S
C538 C536 1.395 1_565 S
C538 C541 1.403 1_565 S
C539 C536 1.403 . S
C539 C540 1.524 . S
C539 C543 1.400 . S
C540 H525 0.960 . S
C540 H526 0.960 . S
C540 H527 0.960 . S
C540 C539 1.524 . S
C541 C538 1.403 1_545 S
C541 C542 1.392 . S
C541 C545 1.495 1_545 S
C542 C541 1.392 . S
C542 C543 1.385 . S
C542 C544 1.478 . S
C543 H537 0.930 . S
C543 C539 1.400 . S
C543 C542 1.385 . S
C544 C542 1.478 . S
C544 C546 1.381 . S
C544 C550 1.383 . S
C545 C541 1.495 1_565 S
C545 H551 0.959 . S
C545 H552 0.961 1_565 S
C545 H553 0.960 1_565 S
C546 C544 1.381 . S
C546 C547 1.394 . S
C546 H554 0.930 . S
C547 C546 1.394 . S
C547 C548 1.383 . S
C547 H555 0.929 . S
C548 C547 1.383 . S
C548 C549 1.377 . S
C549 H533 0.930 . S
C549 C548 1.377 . S
C549 C550 1.379 . S
C550 H534 0.931 . S
C550 C544 1.383 . S
C550 C549 1.379 . S
H551 C545 0.959 . S
H552 C545 0.961 1_545 S
H553 C545 0.960 1_545 S
H554 C546 0.930 . S
H555 C547 0.929 . S
H556 C564 0.929 . S
H557 C566 0.930 . S
H558 C568 0.930 . S
H559 C571 0.929 . S
H560 C574 0.930 . S
H561 C576 0.960 . S
H562 C576 0.960 . S
H563 C576 0.960 . S
C564 H556 0.929 . S
C564 C565 1.377 . S
C564 C566 1.384 . S
C565 C564 1.377 . S
C565 C571 1.390 . S
C566 H557 0.930 . S
C566 C564 1.384 . S
C566 C567 1.372 . S
C567 C566 1.372 . S
C567 C568 1.400 . S
C567 C572 1.490 . S
C568 H558 0.930 . S
C568 C567 1.400 . S
C568 C571 1.386 . S
H569 C585 0.930 . S
H570 C586 0.931 . S
C571 H559 0.929 . S
C571 C565 1.390 . S
C571 C568 1.386 . S
C572 C567 1.490 . S
C572 C574 1.395 . S
C572 C575 1.403 . S
H573 C579 0.930 . S
C574 H560 0.930 . S
C574 C572 1.395 . S
C574 C577 1.403 . S
C575 C572 1.403 . S
C575 C576 1.524 . S
C575 C579 1.400 . S
C576 H561 0.960 . S
C576 H562 0.960 . S
C576 H563 0.960 . S
C576 C575 1.524 . S
C577 C574 1.403 . S
C577 C578 1.392 . S
C577 C581 1.495 . S
C578 C577 1.392 . S
C578 C579 1.385 . S
C578 C580 1.478 . S
C579 H573 0.930 . S
C579 C575 1.400 . S
C579 C578 1.385 . S
C580 C578 1.478 . S
C580 C582 1.381 . S
C580 C586 1.383 . S
C581 C577 1.495 . S
C581 H587 0.959 . S
C581 H588 0.961 . S
C581 H589 0.960 . S
C582 C580 1.381 . S
C582 C583 1.394 . S
C582 H590 0.930 . S
C583 C582 1.394 . S
C583 C584 1.383 . S
C583 H591 0.929 . S
C584 C583 1.383 . S
C584 C585 1.377 . S
C585 H569 0.930 . S
C585 C584 1.377 . S
C585 C586 1.379 . S
C586 H570 0.931 . S
C586 C580 1.383 . S
C586 C585 1.379 . S
H587 C581 0.959 . S
H588 C581 0.961 . S
H589 C581 0.960 . S
H590 C582 0.930 . S
H591 C583 0.929 . S
H592 C600 0.929 . S
H593 C602 0.930 . S
H594 C604 0.930 . S
H595 C607 0.929 . S
H596 C610 0.930 . S
H597 C612 0.960 . S
H598 C612 0.960 . S
H599 C612 0.960 . S
C600 H592 0.929 . S
C600 C601 1.377 . S
C600 C602 1.384 . S
C601 C600 1.377 . S
C601 C607 1.390 . S
C602 H593 0.930 . S
C602 C600 1.384 . S
C602 C603 1.372 . S
C603 C602 1.372 . S
C603 C604 1.400 . S
C603 C608 1.490 1_455 S
C604 H594 0.930 . S
C604 C603 1.400 . S
C604 C607 1.386 . S
H605 C621 0.941 . S
H606 C622 0.931 . S
C607 H595 0.929 . S
C607 C601 1.390 . S
C607 C604 1.386 . S
C608 C603 1.490 1_655 S
C608 C610 1.395 . S
C608 C611 1.417 . S
H609 C615 0.930 . S
C610 H596 0.930 . S
C610 C608 1.395 . S
C610 C613 1.403 . S
C611 C608 1.417 . S
C611 C612 1.476 1_655 S
C611 C615 1.437 . S
C612 H597 0.960 . S
C612 H598 0.960 . S
C612 H599 0.960 . S
C612 C611 1.476 1_455 S
C613 C610 1.403 . S
C613 C614 1.392 . S
C613 C617 1.495 . S
C614 C613 1.392 . S
C614 C615 1.385 . S
C614 C616 1.478 . S
C615 H609 0.930 . S
C615 C611 1.437 . S
C615 C614 1.385 . S
C616 C614 1.478 . S
C616 C618 1.381 1_565 S
C616 C622 1.383 . S
C617 C613 1.495 . S
C617 H623 0.959 . S
C617 H624 0.961 . S
C617 H625 0.960 . S
C618 C616 1.381 1_545 S
C618 C619 1.394 . S
C618 H626 0.930 . S
C619 C618 1.394 . S
C619 C620 1.383 . S
C619 H627 0.929 . S
C620 C619 1.383 . S
C620 C621 1.350 1_545 S
C621 H605 0.941 . S
C621 C620 1.350 1_565 S
C621 C622 1.395 . S
C622 H606 0.931 . S
C622 C616 1.383 . S
C622 C621 1.395 . S
H623 C617 0.959 . S
H624 C617 0.961 . S
H625 C617 0.960 . S
H626 C618 0.930 . S
H627 C619 0.929 . S
H628 C636 0.929 . S
H629 C638 0.930 . S
H630 C640 0.930 . S
H631 C643 0.929 . S
H632 C646 0.930 . S
H633 C648 0.960 . S
H634 C648 0.960 . S
H635 C648 0.960 . S
C636 H628 0.929 . S
C636 C637 1.377 . S
C636 C638 1.384 . S
C637 C636 1.377 . S
C637 C643 1.390 . S
C638 H629 0.930 . S
C638 C636 1.384 . S
C638 C639 1.372 . S
C639 C638 1.372 . S
C639 C640 1.400 . S
C639 C644 1.490 . S
C640 H630 0.930 . S
C640 C639 1.400 . S
C640 C643 1.386 . S
H641 C657 0.930 . S
H642 C658 0.931 . S
C643 H631 0.929 . S
C643 C637 1.390 . S
C643 C640 1.386 . S
C644 C639 1.490 . S
C644 C646 1.395 . S
C644 C647 1.403 . S
H645 C651 0.930 . S
C646 H632 0.930 . S
C646 C644 1.395 . S
C646 C649 1.403 . S
C647 C644 1.403 . S
C647 C648 1.524 . S
C647 C651 1.400 . S
C648 H633 0.960 . S
C648 H634 0.960 . S
C648 H635 0.960 . S
C648 C647 1.524 . S
C649 C646 1.403 . S
C649 C650 1.392 . S
C649 C653 1.495 . S
C650 C649 1.392 . S
C650 C651 1.385 . S
C650 C652 1.478 . S
C651 H645 0.930 . S
C651 C647 1.400 . S
C651 C650 1.385 . S
C652 C650 1.478 . S
C652 C654 1.381 . S
C652 C658 1.383 . S
C653 C649 1.495 . S
C653 H659 0.959 . S
C653 H660 0.961 . S
C653 H661 0.960 . S
C654 C652 1.381 . S
C654 C655 1.394 . S
C654 H662 0.930 . S
C655 C654 1.394 . S
C655 C656 1.383 . S
C655 H663 0.929 . S
C656 C655 1.383 . S
C656 C657 1.377 . S
C657 H641 0.930 . S
C657 C656 1.377 . S
C657 C658 1.379 . S
C658 H642 0.931 . S
C658 C652 1.383 . S
C658 C657 1.379 . S
H659 C653 0.959 . S
H660 C653 0.961 . S
H661 C653 0.960 . S
H662 C654 0.930 . S
H663 C655 0.929 . S
H664 C672 0.929 . S
H665 C674 0.943 . S
H666 C676 0.930 . S
H667 C679 0.929 . S
H668 C682 0.930 . S
H669 C684 0.960 . S
H670 C684 0.960 . S
H671 C684 0.960 . S
C672 H664 0.929 . S
C672 C673 1.377 . S
C672 C674 1.384 . S
C673 C672 1.377 . S
C673 C679 1.390 . S
C674 H665 0.943 . S
C674 C672 1.384 . S
C674 C675 1.372 . S
C675 C674 1.372 . S
C675 C676 1.400 . S
C675 C680 1.490 . S
C676 H666 0.930 . S
C676 C675 1.400 . S
C676 C679 1.386 . S
H677 C693 0.930 . S
H678 C694 0.931 . S
C679 H667 0.929 . S
C679 C673 1.390 . S
C679 C676 1.386 . S
C680 C675 1.490 . S
C680 C682 1.395 1_556 S
C680 C683 1.403 . S
H681 C687 0.932 . S
C682 H668 0.930 . S
C682 C680 1.395 1_554 S
C682 C685 1.403 . S
C683 C680 1.403 . S
C683 C684 1.524 . S
C683 C687 1.400 1_556 S
C684 H669 0.960 . S
C684 H670 0.960 . S
C684 H671 0.960 . S
C684 C683 1.524 . S
C685 C682 1.403 . S
C685 C686 1.392 . S
C685 C689 1.495 1_545 S
C686 C685 1.392 . S
C686 C687 1.385 . S
C686 C688 1.478 1_545 S
C687 H681 0.932 . S
C687 C683 1.400 1_554 S
C687 C686 1.385 . S
C688 C686 1.478 1_565 S
C688 C690 1.381 . S
C688 C694 1.383 . S
C689 C685 1.495 1_565 S
C689 H695 0.959 . S
C689 H696 0.961 . S
C689 H697 0.966 . S
C690 C688 1.381 . S
C690 C691 1.394 . S
C690 H698 0.930 1_565 S
C691 C690 1.394 . S
C691 C692 1.383 . S
C691 H699 0.929 . S
C692 C691 1.383 . S
C692 C693 1.377 . S
C693 H677 0.930 . S
C693 C692 1.377 . S
C693 C694 1.379 . S
C694 H678 0.931 . S
C694 C688 1.383 . S
C694 C693 1.379 . S
H695 C689 0.959 . S
H696 C689 0.961 . S
H697 C689 0.966 . S
H698 C690 0.930 1_545 S
H699 C691 0.929 . S
H700 C708 0.929 . S
H701 C710 0.930 . S
H702 C712 0.930 . S
H703 C715 0.929 . S
H704 C718 0.930 . S
H705 C720 0.960 . S
H706 C720 0.960 . S
H707 C720 0.960 . S
C708 H700 0.929 . S
C708 C709 1.377 . S
C708 C710 1.384 . S
C709 C708 1.377 . S
C709 C715 1.390 . S
C710 H701 0.930 . S
C710 C708 1.384 . S
C710 C711 1.372 . S
C711 C710 1.372 . S
C711 C712 1.400 . S
C711 C716 1.490 . S
C712 H702 0.930 . S
C712 C711 1.400 . S
C712 C715 1.386 . S
H713 C729 0.930 . S
H714 C730 0.931 . S
C715 H703 0.929 . S
C715 C709 1.390 . S
C715 C712 1.386 . S
C716 C711 1.490 . S
C716 C718 1.395 . S
C716 C719 1.403 . S
H717 C723 0.930 . S
C718 H704 0.930 . S
C718 C716 1.395 . S
C718 C721 1.403 . S
C719 C716 1.403 . S
C719 C720 1.524 . S
C719 C723 1.400 . S
C720 H705 0.960 . S
C720 H706 0.960 . S
C720 H707 0.960 . S
C720 C719 1.524 . S
C721 C718 1.403 . S
C721 C722 1.392 . S
C721 C725 1.495 . S
C722 C721 1.392 . S
C722 C723 1.385 . S
C722 C724 1.478 . S
C723 H717 0.930 . S
C723 C719 1.400 . S
C723 C722 1.385 . S
C724 C722 1.478 . S
C724 C726 1.381 . S
C724 C730 1.383 . S
C725 C721 1.495 . S
C725 H731 0.959 . S
C725 H732 0.961 . S
C725 H733 0.960 . S
C726 C724 1.381 . S
C726 C727 1.394 . S
C726 H734 0.930 . S
C727 C726 1.394 . S
C727 C728 1.383 . S
C727 H735 0.929 . S
C728 C727 1.383 . S
C728 C729 1.377 . S
C729 H713 0.930 . S
C729 C728 1.377 . S
C729 C730 1.379 . S
C730 H714 0.931 . S
C730 C724 1.383 . S
C730 C729 1.379 . S
H731 C725 0.959 . S
H732 C725 0.961 . S
H733 C725 0.960 . S
H734 C726 0.930 . S
H735 C727 0.929 . S
H736 C744 0.929 . S
H737 C746 0.930 . S
H738 C748 0.930 . S
H739 C751 0.929 . S
H740 C754 0.930 . S
H741 C756 0.960 . S
H742 C756 0.960 . S
H743 C756 0.960 1_554 S
C744 H736 0.929 . S
C744 C745 1.377 . S
C744 C746 1.384 . S
C745 C744 1.377 . S
C745 C751 1.390 . S
C746 H737 0.930 . S
C746 C744 1.384 . S
C746 C747 1.372 . S
C747 C746 1.372 . S
C747 C748 1.400 . S
C747 C752 1.490 . S
C748 H738 0.930 . S
C748 C747 1.400 . S
C748 C751 1.386 . S
H749 C765 0.930 . S
H750 C766 0.931 . S
C751 H739 0.929 . S
C751 C745 1.390 . S
C751 C748 1.386 . S
C752 C747 1.490 . S
C752 C754 1.395 . S
C752 C755 1.403 1_554 S
H753 C759 0.930 . S
C754 H740 0.930 . S
C754 C752 1.395 . S
C754 C757 1.403 1_554 S
C755 C752 1.403 1_556 S
C755 C756 1.524 . S
C755 C759 1.400 . S
C756 H741 0.960 . S
C756 H742 0.960 . S
C756 H743 0.960 1_556 S
C756 C755 1.524 . S
C757 C754 1.403 1_556 S
C757 C758 1.392 . S
C757 C761 1.495 . S
C758 C757 1.392 . S
C758 C759 1.385 . S
C758 C760 1.478 . S
C759 H753 0.930 . S
C759 C755 1.400 . S
C759 C758 1.385 . S
C760 C758 1.478 . S
C760 C762 1.381 . S
C760 C766 1.383 . S
C761 C757 1.495 . S
C761 H767 0.959 . S
C761 H768 0.961 . S
C761 H769 0.960 . S
C762 C760 1.381 . S
C762 C763 1.394 . S
C762 H770 0.930 . S
C763 C762 1.394 . S
C763 C764 1.383 . S
C763 H771 0.929 . S
C764 C763 1.383 . S
C764 C765 1.377 . S
C765 H749 0.930 . S
C765 C764 1.377 . S
C765 C766 1.379 . S
C766 H750 0.931 . S
C766 C760 1.383 . S
C766 C765 1.379 . S
H767 C761 0.959 . S
H768 C761 0.961 . S
H769 C761 0.960 . S
H770 C762 0.930 . S
H771 C763 0.929 . S
H772 C780 0.929 . S
H773 C782 0.930 . S
H774 C784 0.930 . S
H775 C787 0.929 . S
H776 C790 0.930 . S
H777 C792 0.960 . S
H778 C792 0.960 . S
H779 C792 0.960 . S
C780 H772 0.929 . S
C780 C781 1.377 . S
C780 C782 1.384 . S
C781 C780 1.377 . S
C781 C787 1.390 . S
C782 H773 0.930 . S
C782 C780 1.384 . S
C782 C783 1.372 . S
C783 C782 1.372 . S
C783 C784 1.400 . S
C783 C788 1.490 . S
C784 H774 0.930 . S
C784 C783 1.400 . S
C784 C787 1.386 . S
H785 C801 0.930 . S
H786 C802 0.931 . S
C787 H775 0.929 . S
C787 C781 1.390 . S
C787 C784 1.386 . S
C788 C783 1.490 . S
C788 C790 1.395 . S
C788 C791 1.403 . S
H789 C795 0.930 . S
C790 H776 0.930 . S
C790 C788 1.395 . S
C790 C793 1.403 . S
C791 C788 1.403 . S
C791 C792 1.524 . S
C791 C795 1.400 . S
C792 H777 0.960 . S
C792 H778 0.960 . S
C792 H779 0.960 . S
C792 C791 1.524 . S
C793 C790 1.403 . S
C793 C794 1.392 . S
C793 C797 1.495 . S
C794 C793 1.392 . S
C794 C795 1.385 . S
C794 C796 1.478 . S
C795 H789 0.930 . S
C795 C791 1.400 . S
C795 C794 1.385 . S
C796 C794 1.478 . S
C796 C798 1.381 . S
C796 C802 1.383 . S
C797 C793 1.495 . S
C797 H803 0.959 . S
C797 H804 0.961 . S
C797 H805 0.960 . S
C798 C796 1.381 . S
C798 C799 1.394 . S
C798 H806 0.930 . S
C799 C798 1.394 . S
C799 C800 1.383 . S
C799 H807 0.929 . S
C800 C799 1.383 . S
C800 C801 1.377 . S
C801 H785 0.930 . S
C801 C800 1.377 . S
C801 C802 1.379 . S
C802 H786 0.931 . S
C802 C796 1.383 . S
C802 C801 1.379 . S
H803 C797 0.959 . S
H804 C797 0.961 . S
H805 C797 0.960 . S
H806 C798 0.930 . S
H807 C799 0.929 . S
H808 C816 0.929 . S
H809 C818 0.930 . S
H810 C820 0.930 . S
H811 C823 0.929 . S
H812 C826 0.930 . S
H813 C828 0.960 . S
H814 C828 0.960 . S
H815 C828 0.958 . S
C816 H808 0.929 . S
C816 C817 1.377 . S
C816 C818 1.384 . S
C817 C816 1.377 . S
C817 C823 1.390 . S
C818 H809 0.930 . S
C818 C816 1.384 . S
C818 C819 1.372 . S
C819 C818 1.372 . S
C819 C820 1.400 . S
C819 C824 1.490 . S
C820 H810 0.930 . S
C820 C819 1.400 . S
C820 C823 1.386 . S
H821 C837 0.930 . S
H822 C838 0.931 . S
C823 H811 0.929 . S
C823 C817 1.390 . S
C823 C820 1.386 . S
C824 C819 1.490 . S
C824 C826 1.395 . S
C824 C827 1.403 1_455 S
H825 C831 0.930 . S
C826 H812 0.930 . S
C826 C824 1.395 . S
C826 C829 1.403 . S
C827 C824 1.403 1_655 S
C827 C828 1.524 . S
C827 C831 1.400 . S
C828 H813 0.960 . S
C828 H814 0.960 . S
C828 H815 0.958 . S
C828 C827 1.524 . S
C829 C826 1.403 . S
C829 C830 1.392 1_455 S
C829 C833 1.495 . S
C830 C829 1.392 1_655 S
C830 C831 1.385 . S
C830 C832 1.478 . S
C831 H825 0.930 . S
C831 C827 1.400 . S
C831 C830 1.385 . S
C832 C830 1.478 . S
C832 C834 1.381 . S
C832 C838 1.383 . S
C833 C829 1.495 . S
C833 H839 0.959 . S
C833 H840 0.961 . S
C833 H841 0.960 1_455 S
C834 C832 1.381 . S
C834 C835 1.394 . S
C834 H842 0.930 . S
C835 C834 1.394 . S
C835 C836 1.383 . S
C835 H843 0.929 . S
C836 C835 1.383 . S
C836 C837 1.377 . S
C837 H821 0.930 . S
C837 C836 1.377 . S
C837 C838 1.379 . S
C838 H822 0.931 . S
C838 C832 1.383 . S
C838 C837 1.379 . S
H839 C833 0.959 . S
H840 C833 0.961 . S
H841 C833 0.960 1_655 S
H842 C834 0.930 . S
H843 C835 0.929 . S
H844 C852 0.929 . S
H845 C854 0.930 . S
H846 C856 0.930 . S
H847 C859 0.929 . S
H848 C862 0.930 . S
H849 C864 0.960 . S
H850 C864 0.960 . S
H851 C864 0.960 . S
C852 H844 0.929 . S
C852 C853 1.377 . S
C852 C854 1.384 . S
C853 C852 1.377 . S
C853 C859 1.390 . S
C854 H845 0.930 . S
C854 C852 1.384 . S
C854 C855 1.372 . S
C855 C854 1.372 . S
C855 C856 1.400 . S
C855 C860 1.490 . S
C856 H846 0.930 . S
C856 C855 1.400 . S
C856 C859 1.386 . S
H857 C873 0.930 . S
H858 C874 0.931 . S
C859 H847 0.929 . S
C859 C853 1.390 . S
C859 C856 1.386 . S
C860 C855 1.490 . S
C860 C862 1.395 . S
C860 C863 1.403 . S
H861 C867 0.930 . S
C862 H848 0.930 . S
C862 C860 1.395 . S
C862 C865 1.403 . S
C863 C860 1.403 . S
C863 C864 1.524 . S
C863 C867 1.400 . S
C864 H849 0.960 . S
C864 H850 0.960 . S
C864 H851 0.960 . S
C864 C863 1.524 . S
C865 C862 1.403 . S
C865 C866 1.392 . S
C865 C869 1.495 . S
C866 C865 1.392 . S
C866 C867 1.385 . S
C866 C868 1.478 . S
C867 H861 0.930 . S
C867 C863 1.400 . S
C867 C866 1.385 . S
C868 C866 1.478 . S
C868 C870 1.381 . S
C868 C874 1.383 . S
C869 C865 1.495 . S
C869 H875 0.959 . S
C869 H876 0.961 . S
C869 H877 0.960 . S
C870 C868 1.381 . S
C870 C871 1.394 . S
C870 H878 0.930 . S
C871 C870 1.394 . S
C871 C872 1.383 . S
C871 H879 0.929 . S
C872 C871 1.383 . S
C872 C873 1.377 . S
C873 H857 0.930 . S
C873 C872 1.377 . S
C873 C874 1.379 . S
C874 H858 0.931 . S
C874 C868 1.383 . S
C874 C873 1.379 . S
H875 C869 0.959 . S
H876 C869 0.961 . S
H877 C869 0.960 . S
H878 C870 0.930 . S
H879 C871 0.929 . S
H880 C888 0.929 . S
H881 C890 0.930 . S
H882 C892 0.930 . S
H883 C895 0.929 . S
H884 C898 0.930 . S
H885 C900 0.960 . S
H886 C900 0.960 . S
H887 C900 0.960 . S
C888 H880 0.929 . S
C888 C889 1.377 . S
C888 C890 1.384 . S
C889 C888 1.377 . S
C889 C895 1.390 . S
C890 H881 0.930 . S
C890 C888 1.384 . S
C890 C891 1.372 . S
C891 C890 1.372 . S
C891 C892 1.400 . S
C891 C896 1.490 . S
C892 H882 0.930 . S
C892 C891 1.400 . S
C892 C895 1.386 . S
H893 C909 0.930 . S
H894 C910 0.931 . S
C895 H883 0.929 . S
C895 C889 1.390 . S
C895 C892 1.386 . S
C896 C891 1.490 . S
C896 C898 1.395 . S
C896 C899 1.403 . S
H897 C903 0.930 . S
C898 H884 0.930 . S
C898 C896 1.395 . S
C898 C901 1.403 . S
C899 C896 1.403 . S
C899 C900 1.524 . S
C899 C903 1.400 . S
C900 H885 0.960 . S
C900 H886 0.960 . S
C900 H887 0.960 . S
C900 C899 1.524 . S
C901 C898 1.403 . S
C901 C902 1.392 . S
C901 C905 1.495 . S
C902 C901 1.392 . S
C902 C903 1.385 . S
C902 C904 1.478 . S
C903 H897 0.930 . S
C903 C899 1.400 . S
C903 C902 1.385 . S
C904 C902 1.478 . S
C904 C906 1.381 . S
C904 C910 1.383 . S
C905 C901 1.495 . S
C905 H911 0.959 . S
C905 H912 0.961 . S
C905 H913 0.960 . S
C906 C904 1.381 . S
C906 C907 1.394 . S
C906 H914 0.930 . S
C907 C906 1.394 . S
C907 C908 1.383 . S
C907 H915 0.929 . S
C908 C907 1.383 . S
C908 C909 1.377 . S
C909 H893 0.930 . S
C909 C908 1.377 . S
C909 C910 1.379 . S
C910 H894 0.931 . S
C910 C904 1.383 . S
C910 C909 1.379 . S
H911 C905 0.959 . S
H912 C905 0.961 . S
H913 C905 0.960 . S
H914 C906 0.930 . S
H915 C907 0.929 . S
H916 C924 0.929 . S
H917 C926 0.930 . S
H918 C928 0.930 . S
H919 C931 0.929 . S
H920 C934 0.930 . S
H921 C936 0.960 . S
H922 C936 0.960 . S
H923 C936 0.960 . S
C924 H916 0.929 . S
C924 C925 1.377 . S
C924 C926 1.384 . S
C925 C924 1.377 . S
C925 C931 1.390 . S
C926 H917 0.930 . S
C926 C924 1.384 . S
C926 C927 1.372 . S
C927 C926 1.372 . S
C927 C928 1.400 . S
C927 C932 1.490 . S
C928 H918 0.930 . S
C928 C927 1.400 . S
C928 C931 1.386 . S
H929 C945 0.930 . S
H930 C946 0.931 . S
C931 H919 0.929 . S
C931 C925 1.390 . S
C931 C928 1.386 . S
C932 C927 1.490 . S
C932 C934 1.395 . S
C932 C935 1.403 . S
H933 C939 0.930 . S
C934 H920 0.930 . S
C934 C932 1.395 . S
C934 C937 1.403 . S
C935 C932 1.403 . S
C935 C936 1.524 . S
C935 C939 1.400 . S
C936 H921 0.960 . S
C936 H922 0.960 . S
C936 H923 0.960 . S
C936 C935 1.524 . S
C937 C934 1.403 . S
C937 C938 1.392 . S
C937 C941 1.495 . S
C938 C937 1.392 . S
C938 C939 1.385 . S
C938 C940 1.478 . S
C939 H933 0.930 . S
C939 C935 1.400 . S
C939 C938 1.385 . S
C940 C938 1.478 . S
C940 C942 1.381 . S
C940 C946 1.383 . S
C941 C937 1.495 . S
C941 H947 0.959 . S
C941 H948 0.961 . S
C941 H949 0.960 . S
C942 C940 1.381 . S
C942 C943 1.394 . S
C942 H950 0.930 . S
C943 C942 1.394 . S
C943 C944 1.383 . S
C943 H951 0.929 . S
C944 C943 1.383 . S
C944 C945 1.377 . S
C945 H929 0.930 . S
C945 C944 1.377 . S
C945 C946 1.379 . S
C946 H930 0.931 . S
C946 C940 1.383 . S
C946 C945 1.379 . S
H947 C941 0.959 . S
H948 C941 0.961 . S
H949 C941 0.960 . S
H950 C942 0.930 . S
H951 C943 0.929 . S
H952 C960 0.929 . S
H953 C962 0.930 . S
H954 C964 0.930 . S
H955 C967 0.929 . S
H956 C970 0.930 . S
H957 C972 0.960 . S
H958 C972 0.960 . S
H959 C972 0.960 . S
C960 H952 0.929 . S
C960 C961 1.377 . S
C960 C962 1.384 . S
C961 C960 1.377 . S
C961 C967 1.390 . S
C962 H953 0.930 . S
C962 C960 1.384 . S
C962 C963 1.372 . S
C963 C962 1.372 . S
C963 C964 1.400 . S
C963 C968 1.490 . S
C964 H954 0.930 . S
C964 C963 1.400 . S
C964 C967 1.386 . S
H965 C981 0.930 . S
H966 C982 0.931 . S
C967 H955 0.929 . S
C967 C961 1.390 . S
C967 C964 1.386 . S
C968 C963 1.490 . S
C968 C970 1.395 . S
C968 C971 1.403 . S
H969 C975 0.930 . S
C970 H956 0.930 . S
C970 C968 1.395 . S
C970 C973 1.403 . S
C971 C968 1.403 . S
C971 C972 1.524 . S
C971 C975 1.400 . S
C972 H957 0.960 . S
C972 H958 0.960 . S
C972 H959 0.960 . S
C972 C971 1.524 . S
C973 C970 1.403 . S
C973 C974 1.392 . S
C973 C977 1.495 . S
C974 C973 1.392 . S
C974 C975 1.385 . S
C974 C976 1.478 . S
C975 H969 0.930 . S
C975 C971 1.400 . S
C975 C974 1.385 . S
C976 C974 1.478 . S
C976 C978 1.381 . S
C976 C982 1.383 . S
C977 C973 1.495 . S
C977 H983 0.959 . S
C977 H984 0.961 . S
C977 H985 0.960 . S
C978 C976 1.381 . S
C978 C979 1.394 . S
C978 H986 0.930 . S
C979 C978 1.394 . S
C979 C980 1.383 . S
C979 H987 0.929 . S
C980 C979 1.383 . S
C980 C981 1.377 . S
C981 H965 0.930 . S
C981 C980 1.377 . S
C981 C982 1.379 . S
C982 H966 0.931 . S
C982 C976 1.383 . S
C982 C981 1.379 . S
H983 C977 0.959 . S
H984 C977 0.961 . S
H985 C977 0.960 . S
H986 C978 0.930 . S
H987 C979 0.929 . S
H988 C996 0.929 . S
H989 C998 0.974 . S
H990 C1000 0.930 . S
H991 C1003 0.929 . S
H992 C1006 0.947 . S
H993 C1008 0.960 . S
H994 C1008 0.960 . S
H995 C1008 0.960 1_556 S
C996 H988 0.929 . S
C996 C997 1.377 . S
C996 C998 1.354 1_556 S
C997 C996 1.377 . S
C997 C1003 1.390 . S
C998 H989 0.974 . S
C998 C996 1.354 1_554 S
C998 C999 1.360 1_554 S
C999 C998 1.360 1_556 S
C999 C1000 1.400 . S
C999 C1004 1.490 1_556 S
C1000 H990 0.930 . S
C1000 C999 1.400 . S
C1000 C1003 1.386 . S
H1001 C1017 0.930 . S
H1002 C1018 0.931 . S
C1003 H991 0.929 . S
C1003 C997 1.390 . S
C1003 C1000 1.386 . S
C1004 C999 1.490 1_554 S
C1004 C1006 1.395 . S
C1004 C1007 1.403 . S
H1005 C1011 0.930 . S
C1006 H992 0.947 . S
C1006 C1004 1.395 . S
C1006 C1009 1.403 1_455 S
C1007 C1004 1.403 . S
C1007 C1008 1.524 . S
C1007 C1011 1.400 . S
C1008 H993 0.960 . S
C1008 H994 0.960 . S
C1008 H995 0.960 1_554 S
C1008 C1007 1.524 . S
C1009 C1006 1.403 1_655 S
C1009 C1010 1.392 1_655 S
C1009 C1013 1.495 . S
C1010 C1009 1.392 1_455 S
C1010 C1011 1.385 . S
C1010 C1012 1.478 1_455 S
C1011 H1005 0.930 . S
C1011 C1007 1.400 . S
C1011 C1010 1.385 . S
C1012 C1010 1.478 1_655 S
C1012 C1014 1.381 . S
C1012 C1018 1.383 . S
C1013 C1009 1.495 . S
C1013 H1019 0.959 . S
C1013 H1020 0.961 . S
C1013 H1021 0.960 . S
C1014 C1012 1.381 . S
C1014 C1015 1.394 . S
C1014 H1022 0.930 . S
C1015 C1014 1.394 . S
C1015 C1016 1.383 . S
C1015 H1023 0.929 . S
C1016 C1015 1.383 . S
C1016 C1017 1.377 . S
C1017 H1001 0.930 . S
C1017 C1016 1.377 . S
C1017 C1018 1.379 . S
C1018 H1002 0.931 . S
C1018 C1012 1.383 . S
C1018 C1017 1.379 . S
H1019 C1013 0.959 . S
H1020 C1013 0.961 . S
H1021 C1013 0.960 . S
H1022 C1014 0.930 . S
H1023 C1015 0.929 . S
H1024 C1032 0.929 . S
H1025 C1034 0.930 . S
H1026 C1036 0.930 . S
H1027 C1039 0.929 . S
H1028 C1042 0.930 . S
H1029 C1044 0.960 . S
H1030 C1044 0.960 1_545 S
H1031 C1044 0.960 . S
C1032 H1024 0.929 . S
C1032 C1033 1.377 . S
C1032 C1034 1.384 . S
C1033 C1032 1.377 . S
C1033 C1039 1.390 . S
C1034 H1025 0.930 . S
C1034 C1032 1.384 . S
C1034 C1035 1.372 1_545 S
C1035 C1034 1.372 1_565 S
C1035 C1036 1.400 . S
C1035 C1040 1.490 . S
C1036 H1026 0.930 . S
C1036 C1035 1.400 . S
C1036 C1039 1.386 1_565 S
H1037 C1053 0.930 . S
H1038 C1054 0.931 . S
C1039 H1027 0.929 . S
C1039 C1033 1.390 . S
C1039 C1036 1.386 1_545 S
C1040 C1035 1.490 . S
C1040 C1042 1.395 . S
C1040 C1043 1.403 . S
H1041 C1047 0.930 . S
C1042 H1028 0.930 . S
C1042 C1040 1.395 . S
C1042 C1045 1.403 . S
C1043 C1040 1.403 . S
C1043 C1044 1.524 . S
C1043 C1047 1.400 . S
C1044 H1029 0.960 . S
C1044 H1030 0.960 1_565 S
C1044 H1031 0.960 . S
C1044 C1043 1.524 . S
C1045 C1042 1.403 . S
C1045 C1046 1.392 . S
C1045 C1049 1.495 . S
C1046 C1045 1.392 . S
C1046 C1047 1.385 . S
C1046 C1048 1.478 . S
C1047 H1041 0.930 . S
C1047 C1043 1.400 . S
C1047 C1046 1.385 . S
C1048 C1046 1.478 . S
C1048 C1050 1.381 . S
C1048 C1054 1.383 . S
C1049 C1045 1.495 . S
C1049 H1055 0.959 . S
C1049 H1056 0.961 . S
C1049 H1057 0.960 . S
C1050 C1048 1.381 . S
C1050 C1051 1.394 . S
C1050 H1058 0.930 . S
C1051 C1050 1.394 . S
C1051 C1052 1.383 . S
C1051 H1059 0.929 . S
C1052 C1051 1.383 . S
C1052 C1053 1.377 . S
C1053 H1037 0.930 . S
C1053 C1052 1.377 . S
C1053 C1054 1.379 . S
C1054 H1038 0.931 . S
C1054 C1048 1.383 . S
C1054 C1053 1.379 . S
H1055 C1049 0.959 . S
H1056 C1049 0.961 . S
H1057 C1049 0.960 . S
H1058 C1050 0.930 . S
H1059 C1051 0.929 . S
H1060 C1068 0.929 . S
H1061 C1070 0.930 . S
H1062 C1072 0.930 . S
H1063 C1075 0.929 . S
H1064 C1078 0.930 . S
H1065 C1080 0.960 . S
H1066 C1080 0.960 . S
H1067 C1080 0.960 . S
C1068 H1060 0.929 . S
C1068 C1069 1.377 . S
C1068 C1070 1.384 . S
C1069 C1068 1.377 . S
C1069 C1075 1.390 . S
C1070 H1061 0.930 . S
C1070 C1068 1.384 . S
C1070 C1071 1.372 . S
C1071 C1070 1.372 . S
C1071 C1072 1.400 . S
C1071 C1076 1.490 . S
C1072 H1062 0.930 . S
C1072 C1071 1.400 . S
C1072 C1075 1.386 . S
H1073 C1089 0.930 . S
H1074 C1090 0.931 . S
C1075 H1063 0.929 . S
C1075 C1069 1.390 . S
C1075 C1072 1.386 . S
C1076 C1071 1.490 . S
C1076 C1078 1.395 . S
C1076 C1079 1.403 . S
H1077 C1083 0.930 . S
C1078 H1064 0.930 . S
C1078 C1076 1.395 . S
C1078 C1081 1.403 . S
C1079 C1076 1.403 . S
C1079 C1080 1.524 . S
C1079 C1083 1.400 . S
C1080 H1065 0.960 . S
C1080 H1066 0.960 . S
C1080 H1067 0.960 . S
C1080 C1079 1.524 . S
C1081 C1078 1.403 . S
C1081 C1082 1.392 . S
C1081 C1085 1.495 . S
C1082 C1081 1.392 . S
C1082 C1083 1.385 . S
C1082 C1084 1.478 . S
C1083 H1077 0.930 . S
C1083 C1079 1.400 . S
C1083 C1082 1.385 . S
C1084 C1082 1.478 . S
C1084 C1086 1.381 . S
C1084 C1090 1.383 . S
C1085 C1081 1.495 . S
C1085 H1091 0.959 . S
C1085 H1092 0.961 . S
C1085 H1093 0.960 . S
C1086 C1084 1.381 . S
C1086 C1087 1.394 . S
C1086 H1094 0.930 . S
C1087 C1086 1.394 . S
C1087 C1088 1.383 . S
C1087 H1095 0.929 . S
C1088 C1087 1.383 . S
C1088 C1089 1.377 . S
C1089 H1073 0.930 . S
C1089 C1088 1.377 . S
C1089 C1090 1.379 . S
C1090 H1074 0.931 . S
C1090 C1084 1.383 . S
C1090 C1089 1.379 . S
H1091 C1085 0.959 . S
H1092 C1085 0.961 . S
H1093 C1085 0.960 . S
H1094 C1086 0.930 . S
H1095 C1087 0.929 . S
H1096 C1104 0.929 . S
H1097 C1106 0.930 . S
H1098 C1108 0.930 . S
H1099 C1111 0.929 . S
H1100 C1114 0.930 . S
H1101 C1116 0.960 . S
H1102 C1116 0.960 . S
H1103 C1116 0.960 . S
C1104 H1096 0.929 . S
C1104 C1105 1.377 . S
C1104 C1106 1.384 . S
C1105 C1104 1.377 . S
C1105 C1111 1.390 . S
C1106 H1097 0.930 . S
C1106 C1104 1.384 . S
C1106 C1107 1.372 . S
C1107 C1106 1.372 . S
C1107 C1108 1.400 . S
C1107 C1112 1.490 . S
C1108 H1098 0.930 . S
C1108 C1107 1.400 . S
C1108 C1111 1.386 . S
H1109 C1125 0.930 . S
H1110 C1126 0.919 1_545 S
C1111 H1099 0.929 . S
C1111 C1105 1.390 . S
C1111 C1108 1.386 . S
C1112 C1107 1.490 . S
C1112 C1114 1.395 . S
C1112 C1115 1.403 . S
H1113 C1119 0.930 . S
C1114 H1100 0.930 . S
C1114 C1112 1.395 . S
C1114 C1117 1.403 . S
C1115 C1112 1.403 . S
C1115 C1116 1.524 . S
C1115 C1119 1.400 . S
C1116 H1101 0.960 . S
C1116 H1102 0.960 . S
C1116 H1103 0.960 . S
C1116 C1115 1.524 . S
C1117 C1114 1.403 . S
C1117 C1118 1.392 . S
C1117 C1121 1.495 1_545 S
C1118 C1117 1.392 . S
C1118 C1119 1.385 . S
C1118 C1120 1.478 1_545 S
C1119 H1113 0.930 . S
C1119 C1115 1.400 . S
C1119 C1118 1.385 . S
C1120 C1118 1.478 1_565 S
C1120 C1122 1.381 . S
C1120 C1126 1.383 . S
C1121 C1117 1.495 1_565 S
C1121 H1127 0.959 . S
C1121 H1128 0.961 . S
C1121 H1129 0.960 . S
C1122 C1120 1.381 . S
C1122 C1123 1.394 . S
C1122 H1130 0.930 . S
C1123 C1122 1.394 . S
C1123 C1124 1.383 . S
C1123 H1131 0.929 . S
C1124 C1123 1.383 . S
C1124 C1125 1.377 . S
C1125 H1109 0.930 . S
C1125 C1124 1.377 . S
C1125 C1126 1.379 . S
C1126 H1110 0.919 1_565 S
C1126 C1120 1.383 . S
C1126 C1125 1.379 . S
H1127 C1121 0.959 . S
H1128 C1121 0.961 . S
H1129 C1121 0.960 . S
H1130 C1122 0.930 . S
H1131 C1123 0.929 . S
H1132 C1140 0.929 . S
H1133 C1142 0.930 . S
H1134 C1144 0.930 . S
H1135 C1147 0.929 . S
H1136 C1150 0.930 . S
H1137 C1152 0.960 . S
H1138 C1152 0.960 . S
H1139 C1152 0.960 . S
C1140 H1132 0.929 . S
C1140 C1141 1.377 . S
C1140 C1142 1.384 . S
C1141 C1140 1.377 . S
C1141 C1147 1.390 . S
C1142 H1133 0.930 . S
C1142 C1140 1.384 . S
C1142 C1143 1.372 . S
C1143 C1142 1.372 . S
C1143 C1144 1.400 . S
C1143 C1148 1.490 . S
C1144 H1134 0.930 . S
C1144 C1143 1.400 . S
C1144 C1147 1.386 . S
H1145 C1161 0.930 . S
H1146 C1162 0.931 . S
C1147 H1135 0.929 . S
C1147 C1141 1.390 . S
C1147 C1144 1.386 . S
C1148 C1143 1.490 . S
C1148 C1150 1.395 . S
C1148 C1151 1.403 . S
H1149 C1155 0.930 . S
C1150 H1136 0.930 . S
C1150 C1148 1.395 . S
C1150 C1153 1.403 . S
C1151 C1148 1.403 . S
C1151 C1152 1.524 . S
C1151 C1155 1.400 . S
C1152 H1137 0.960 . S
C1152 H1138 0.960 . S
C1152 H1139 0.960 . S
C1152 C1151 1.524 . S
C1153 C1150 1.403 . S
C1153 C1154 1.392 . S
C1153 C1157 1.495 1_556 S
C1154 C1153 1.392 . S
C1154 C1155 1.385 . S
C1154 C1156 1.478 1_556 S
C1155 H1149 0.930 . S
C1155 C1151 1.400 . S
C1155 C1154 1.385 . S
C1156 C1154 1.478 1_554 S
C1156 C1158 1.381 . S
C1156 C1162 1.383 . S
C1157 C1153 1.495 1_554 S
C1157 H1163 0.959 . S
C1157 H1164 0.961 . S
C1157 H1165 0.960 . S
C1158 C1156 1.381 . S
C1158 C1159 1.394 . S
C1158 H1166 0.930 . S
C1159 C1158 1.394 . S
C1159 C1160 1.383 . S
C1159 H1167 0.929 . S
C1160 C1159 1.383 . S
C1160 C1161 1.377 . S
C1161 H1145 0.930 . S
C1161 C1160 1.377 . S
C1161 C1162 1.379 . S
C1162 H1146 0.931 . S
C1162 C1156 1.383 . S
C1162 C1161 1.379 . S
H1163 C1157 0.959 . S
H1164 C1157 0.961 . S
H1165 C1157 0.960 . S
H1166 C1158 0.930 . S
H1167 C1159 0.929 . S
H1168 C1176 0.929 . S
H1169 C1178 0.930 . S
H1170 C1180 0.930 . S
H1171 C1183 0.929 . S
H1172 C1186 0.930 . S
H1173 C1188 0.960 . S
H1174 C1188 0.960 . S
H1175 C1188 0.960 . S
C1176 H1168 0.929 . S
C1176 C1177 1.377 . S
C1176 C1178 1.384 . S
C1177 C1176 1.377 . S
C1177 C1183 1.390 . S
C1178 H1169 0.930 . S
C1178 C1176 1.384 . S
C1178 C1179 1.372 . S
C1179 C1178 1.372 . S
C1179 C1180 1.400 . S
C1179 C1184 1.490 . S
C1180 H1170 0.930 . S
C1180 C1179 1.400 . S
C1180 C1183 1.386 . S
H1181 C1197 0.930 . S
H1182 C1198 0.928 1_545 S
C1183 H1171 0.929 . S
C1183 C1177 1.390 . S
C1183 C1180 1.386 . S
C1184 C1179 1.490 . S
C1184 C1186 1.395 . S
C1184 C1187 1.403 . S
H1185 C1191 0.930 . S
C1186 H1172 0.930 . S
C1186 C1184 1.395 . S
C1186 C1189 1.403 . S
C1187 C1184 1.403 . S
C1187 C1188 1.524 . S
C1187 C1191 1.400 . S
C1188 H1173 0.960 . S
C1188 H1174 0.960 . S
C1188 H1175 0.960 . S
C1188 C1187 1.524 . S
C1189 C1186 1.403 . S
C1189 C1190 1.392 1_545 S
C1189 C1193 1.495 1_545 S
C1190 C1189 1.392 1_565 S
C1190 C1191 1.385 1_565 S
C1190 C1192 1.478 . S
C1191 H1185 0.930 . S
C1191 C1187 1.400 . S
C1191 C1190 1.385 1_545 S
C1192 C1190 1.478 . S
C1192 C1194 1.381 . S
C1192 C1198 1.383 . S
C1193 C1189 1.495 1_565 S
C1193 H1199 0.959 . S
C1193 H1200 0.961 . S
C1193 H1201 0.960 . S
C1194 C1192 1.381 . S
C1194 C1195 1.394 . S
C1194 H1202 0.930 . S
C1195 C1194 1.394 . S
C1195 C1196 1.383 . S
C1195 H1203 0.929 . S
C1196 C1195 1.383 . S
C1196 C1197 1.377 . S
C1197 H1181 0.930 . S
C1197 C1196 1.377 . S
C1197 C1198 1.379 . S
C1198 H1182 0.928 1_565 S
C1198 C1192 1.383 . S
C1198 C1197 1.379 . S
H1199 C1193 0.959 . S
H1200 C1193 0.961 . S
H1201 C1193 0.960 . S
H1202 C1194 0.930 . S
H1203 C1195 0.929 . S
H1204 C1212 0.929 . S
H1205 C1214 0.930 . S
H1206 C1216 0.930 . S
H1207 C1219 0.929 . S
H1208 C1222 0.930 . S
H1209 C1224 0.960 . S
H1210 C1224 0.960 . S
H1211 C1224 0.960 . S
C1212 H1204 0.929 . S
C1212 C1213 1.377 . S
C1212 C1214 1.384 . S
C1213 C1212 1.377 . S
C1213 C1219 1.390 . S
C1214 H1205 0.930 . S
C1214 C1212 1.384 . S
C1214 C1215 1.372 . S
C1215 C1214 1.372 . S
C1215 C1216 1.400 . S
C1215 C1220 1.490 . S
C1216 H1206 0.930 . S
C1216 C1215 1.400 . S
C1216 C1219 1.386 . S
H1217 C1233 0.930 . S
H1218 C1234 0.931 . S
C1219 H1207 0.929 . S
C1219 C1213 1.390 . S
C1219 C1216 1.386 . S
C1220 C1215 1.490 . S
C1220 C1222 1.395 . S
C1220 C1223 1.403 . S
H1221 C1227 0.930 . S
C1222 H1208 0.930 . S
C1222 C1220 1.395 . S
C1222 C1225 1.403 . S
C1223 C1220 1.403 . S
C1223 C1224 1.524 . S
C1223 C1227 1.400 . S
C1224 H1209 0.960 . S
C1224 H1210 0.960 . S
C1224 H1211 0.960 . S
C1224 C1223 1.524 . S
C1225 C1222 1.403 . S
C1225 C1226 1.392 . S
C1225 C1229 1.495 . S
C1226 C1225 1.392 . S
C1226 C1227 1.385 . S
C1226 C1228 1.478 . S
C1227 H1221 0.930 . S
C1227 C1223 1.400 . S
C1227 C1226 1.385 . S
C1228 C1226 1.478 . S
C1228 C1230 1.381 . S
C1228 C1234 1.383 . S
C1229 C1225 1.495 . S
C1229 H1235 0.959 . S
C1229 H1236 0.961 . S
C1229 H1237 0.960 . S
C1230 C1228 1.381 . S
C1230 C1231 1.394 . S
C1230 H1238 0.930 . S
C1231 C1230 1.394 . S
C1231 C1232 1.383 . S
C1231 H1239 0.929 . S
C1232 C1231 1.383 . S
C1232 C1233 1.377 . S
C1233 H1217 0.930 . S
C1233 C1232 1.377 . S
C1233 C1234 1.379 . S
C1234 H1218 0.931 . S
C1234 C1228 1.383 . S
C1234 C1233 1.379 . S
H1235 C1229 0.959 . S
H1236 C1229 0.961 . S
H1237 C1229 0.960 . S
H1238 C1230 0.930 . S
H1239 C1231 0.929 . S
H1240 C1248 0.929 . S
H1241 C1250 0.930 . S
H1242 C1252 0.930 . S
H1243 C1255 0.929 . S
H1244 C1258 0.936 . S
H1245 C1260 0.956 1_565 S
H1246 C1260 0.960 . S
H1247 C1260 0.960 . S
C1248 H1240 0.929 . S
C1248 C1249 1.377 . S
C1248 C1250 1.384 . S
C1249 C1248 1.377 . S
C1249 C1255 1.390 . S
C1250 H1241 0.930 . S
C1250 C1248 1.384 . S
C1250 C1251 1.372 . S
C1251 C1250 1.372 . S
C1251 C1252 1.400 . S
C1251 C1256 1.490 . S
C1252 H1242 0.930 . S
C1252 C1251 1.400 . S
C1252 C1255 1.386 . S
H1253 C1269 0.930 . S
H1254 C1270 0.931 . S
C1255 H1243 0.929 . S
C1255 C1249 1.390 . S
C1255 C1252 1.386 . S
C1256 C1251 1.490 . S
C1256 C1258 1.395 1_545 S
C1256 C1259 1.403 1_545 S
H1257 C1263 0.930 . S
C1258 H1244 0.936 . S
C1258 C1256 1.395 1_565 S
C1258 C1261 1.403 . S
C1259 C1256 1.403 1_565 S
C1259 C1260 1.524 1_565 S
C1259 C1263 1.400 . S
C1260 H1245 0.956 1_545 S
C1260 H1246 0.960 . S
C1260 H1247 0.960 . S
C1260 C1259 1.524 1_545 S
C1261 C1258 1.403 . S
C1261 C1262 1.392 . S
C1261 C1265 1.495 . S
C1262 C1261 1.392 . S
C1262 C1263 1.385 . S
C1262 C1264 1.478 . S
C1263 H1257 0.930 . S
C1263 C1259 1.400 . S
C1263 C1262 1.385 . S
C1264 C1262 1.478 . S
C1264 C1266 1.381 . S
C1264 C1270 1.383 . S
C1265 C1261 1.495 . S
C1265 H1271 0.959 . S
C1265 H1272 0.961 . S
C1265 H1273 0.960 . S
C1266 C1264 1.381 . S
C1266 C1267 1.394 . S
C1266 H1274 0.930 . S
C1267 C1266 1.394 . S
C1267 C1268 1.383 . S
C1267 H1275 0.929 . S
C1268 C1267 1.383 . S
C1268 C1269 1.377 . S
C1269 H1253 0.930 . S
C1269 C1268 1.377 . S
C1269 C1270 1.379 . S
C1270 H1254 0.931 . S
C1270 C1264 1.383 . S
C1270 C1269 1.379 . S
H1271 C1265 0.959 . S
H1272 C1265 0.961 . S
H1273 C1265 0.960 . S
H1274 C1266 0.930 . S
H1275 C1267 0.929 . S
H1276 C1284 0.929 . S
H1277 C1286 0.930 . S
H1278 C1288 0.930 . S
H1279 C1291 0.929 . S
H1280 C1294 0.930 . S
H1281 C1296 0.960 . S
H1282 C1296 0.960 . S
H1283 C1296 0.960 . S
C1284 H1276 0.929 . S
C1284 C1285 1.377 . S
C1284 C1286 1.384 . S
C1285 C1284 1.377 . S
C1285 C1291 1.390 . S
C1286 H1277 0.930 . S
C1286 C1284 1.384 . S
C1286 C1287 1.372 . S
C1287 C1286 1.372 . S
C1287 C1288 1.400 . S
C1287 C1292 1.490 . S
C1288 H1278 0.930 . S
C1288 C1287 1.400 . S
C1288 C1291 1.386 . S
H1289 C1305 0.930 . S
H1290 C1306 0.931 . S
C1291 H1279 0.929 . S
C1291 C1285 1.390 . S
C1291 C1288 1.386 . S
C1292 C1287 1.490 . S
C1292 C1294 1.395 1_556 S
C1292 C1295 1.403 . S
H1293 C1299 0.930 . S
C1294 H1280 0.930 . S
C1294 C1292 1.395 1_554 S
C1294 C1297 1.403 . S
C1295 C1292 1.403 . S
C1295 C1296 1.524 . S
C1295 C1299 1.400 1_556 S
C1296 H1281 0.960 . S
C1296 H1282 0.960 . S
C1296 H1283 0.960 . S
C1296 C1295 1.524 . S
C1297 C1294 1.403 . S
C1297 C1298 1.392 . S
C1297 C1301 1.495 . S
C1298 C1297 1.392 . S
C1298 C1299 1.385 . S
C1298 C1300 1.478 . S
C1299 H1293 0.930 . S
C1299 C1295 1.400 1_554 S
C1299 C1298 1.385 . S
C1300 C1298 1.478 . S
C1300 C1302 1.381 . S
C1300 C1306 1.383 . S
C1301 C1297 1.495 . S
C1301 H1307 0.959 . S
C1301 H1308 0.961 . S
C1301 H1309 0.960 . S
C1302 C1300 1.381 . S
C1302 C1303 1.394 . S
C1302 H1310 0.930 . S
C1303 C1302 1.394 . S
C1303 C1304 1.383 . S
C1303 H1311 0.929 . S
C1304 C1303 1.383 . S
C1304 C1305 1.377 . S
C1305 H1289 0.930 . S
C1305 C1304 1.377 . S
C1305 C1306 1.379 . S
C1306 H1290 0.931 . S
C1306 C1300 1.383 . S
C1306 C1305 1.379 . S
H1307 C1301 0.959 . S
H1308 C1301 0.961 . S
H1309 C1301 0.960 . S
H1310 C1302 0.930 . S
H1311 C1303 0.929 . S
H1312 C1320 0.929 . S
H1313 C1322 0.930 . S
H1314 C1324 0.930 . S
H1315 C1327 0.929 . S
H1316 C1330 0.930 . S
H1317 C1332 0.960 . S
H1318 C1332 0.960 . S
H1319 C1332 0.960 . S
C1320 H1312 0.929 . S
C1320 C1321 1.377 . S
C1320 C1322 1.384 . S
C1321 C1320 1.377 . S
C1321 C1327 1.390 . S
C1322 H1313 0.930 . S
C1322 C1320 1.384 . S
C1322 C1323 1.372 . S
C1323 C1322 1.372 . S
C1323 C1324 1.400 . S
C1323 C1328 1.490 . S
C1324 H1314 0.930 . S
C1324 C1323 1.400 . S
C1324 C1327 1.386 . S
H1325 C1341 0.930 . S
H1326 C1342 0.931 . S
C1327 H1315 0.929 . S
C1327 C1321 1.390 . S
C1327 C1324 1.386 . S
C1328 C1323 1.490 . S
C1328 C1330 1.395 . S
C1328 C1331 1.403 . S
H1329 C1335 0.930 . S
C1330 H1316 0.930 . S
C1330 C1328 1.395 . S
C1330 C1333 1.403 . S
C1331 C1328 1.403 . S
C1331 C1332 1.524 . S
C1331 C1335 1.400 . S
C1332 H1317 0.960 . S
C1332 H1318 0.960 . S
C1332 H1319 0.960 . S
C1332 C1331 1.524 . S
C1333 C1330 1.403 . S
C1333 C1334 1.392 . S
C1333 C1337 1.495 . S
C1334 C1333 1.392 . S
C1334 C1335 1.385 . S
C1334 C1336 1.478 . S
C1335 H1329 0.930 . S
C1335 C1331 1.400 . S
C1335 C1334 1.385 . S
C1336 C1334 1.478 . S
C1336 C1338 1.381 . S
C1336 C1342 1.383 . S
C1337 C1333 1.495 . S
C1337 H1343 0.959 . S
C1337 H1344 0.961 . S
C1337 H1345 0.960 . S
C1338 C1336 1.381 . S
C1338 C1339 1.394 . S
C1338 H1346 0.930 . S
C1339 C1338 1.394 . S
C1339 C1340 1.383 1_655 S
C1339 H1347 0.935 . S
C1340 C1339 1.383 1_455 S
C1340 C1341 1.377 . S
C1341 H1325 0.930 . S
C1341 C1340 1.377 . S
C1341 C1342 1.379 1_455 S
C1342 H1326 0.931 . S
C1342 C1336 1.383 . S
C1342 C1341 1.379 1_655 S
H1343 C1337 0.959 . S
H1344 C1337 0.961 . S
H1345 C1337 0.960 . S
H1346 C1338 0.930 . S
H1347 C1339 0.935 . S
H1348 C1356 0.929 . S
H1349 C1358 0.930 . S
H1350 C1360 0.930 . S
H1351 C1363 0.929 . S
H1352 C1366 0.930 . S
H1353 C1368 0.960 . S
H1354 C1368 0.960 . S
H1355 C1368 0.960 . S
C1356 H1348 0.929 . S
C1356 C1357 1.377 . S
C1356 C1358 1.384 . S
C1357 C1356 1.377 . S
C1357 C1363 1.390 . S
C1358 H1349 0.930 . S
C1358 C1356 1.384 . S
C1358 C1359 1.372 . S
C1359 C1358 1.372 . S
C1359 C1360 1.400 . S
C1359 C1364 1.490 . S
C1360 H1350 0.930 . S
C1360 C1359 1.400 . S
C1360 C1363 1.386 . S
H1361 C1377 0.930 . S
H1362 C1378 0.931 . S
C1363 H1351 0.929 . S
C1363 C1357 1.390 . S
C1363 C1360 1.386 . S
C1364 C1359 1.490 . S
C1364 C1366 1.395 . S
C1364 C1367 1.403 . S
H1365 C1371 0.930 . S
C1366 H1352 0.930 . S
C1366 C1364 1.395 . S
C1366 C1369 1.403 . S
C1367 C1364 1.403 . S
C1367 C1368 1.524 . S
C1367 C1371 1.400 . S
C1368 H1353 0.960 . S
C1368 H1354 0.960 . S
C1368 H1355 0.960 . S
C1368 C1367 1.524 . S
C1369 C1366 1.403 . S
C1369 C1370 1.392 . S
C1369 C1373 1.495 . S
C1370 C1369 1.392 . S
C1370 C1371 1.385 . S
C1370 C1372 1.478 . S
C1371 H1365 0.930 . S
C1371 C1367 1.400 . S
C1371 C1370 1.385 . S
C1372 C1370 1.478 . S
C1372 C1374 1.381 . S
C1372 C1378 1.383 . S
C1373 C1369 1.495 . S
C1373 H1379 0.959 . S
C1373 H1380 0.961 . S
C1373 H1381 0.960 . S
C1374 C1372 1.381 . S
C1374 C1375 1.394 . S
C1374 H1382 0.930 . S
C1375 C1374 1.394 . S
C1375 C1376 1.383 . S
C1375 H1383 0.929 . S
C1376 C1375 1.383 . S
C1376 C1377 1.377 . S
C1377 H1361 0.930 . S
C1377 C1376 1.377 . S
C1377 C1378 1.379 . S
C1378 H1362 0.931 . S
C1378 C1372 1.383 . S
C1378 C1377 1.379 . S
H1379 C1373 0.959 . S
H1380 C1373 0.961 . S
H1381 C1373 0.960 . S
H1382 C1374 0.930 . S
H1383 C1375 0.929 . S
H1384 C1392 0.929 . S
H1385 C1394 0.930 . S
H1386 C1396 0.930 . S
H1387 C1399 0.929 . S
H1388 C1402 0.930 . S
H1389 C1404 0.960 . S
H1390 C1404 0.960 . S
H1391 C1404 0.960 . S
C1392 H1384 0.929 . S
C1392 C1393 1.377 . S
C1392 C1394 1.384 . S
C1393 C1392 1.377 . S
C1393 C1399 1.390 . S
C1394 H1385 0.930 . S
C1394 C1392 1.384 . S
C1394 C1395 1.372 . S
C1395 C1394 1.372 . S
C1395 C1396 1.400 . S
C1395 C1400 1.490 . S
C1396 H1386 0.930 . S
C1396 C1395 1.400 . S
C1396 C1399 1.386 . S
H1397 C1413 0.930 . S
H1398 C1414 0.931 . S
C1399 H1387 0.929 . S
C1399 C1393 1.390 . S
C1399 C1396 1.386 . S
C1400 C1395 1.490 . S
C1400 C1402 1.395 1_655 S
C1400 C1403 1.403 . S
H1401 C1407 0.930 . S
C1402 H1388 0.930 . S
C1402 C1400 1.395 1_455 S
C1402 C1405 1.403 . S
C1403 C1400 1.403 . S
C1403 C1404 1.524 . S
C1403 C1407 1.400 1_655 S
C1404 H1389 0.960 . S
C1404 H1390 0.960 . S
C1404 H1391 0.960 . S
C1404 C1403 1.524 . S
C1405 C1402 1.403 . S
C1405 C1406 1.392 . S
C1405 C1409 1.495 . S
C1406 C1405 1.392 . S
C1406 C1407 1.385 . S
C1406 C1408 1.478 . S
C1407 H1401 0.930 . S
C1407 C1403 1.400 1_455 S
C1407 C1406 1.385 . S
C1408 C1406 1.478 . S
C1408 C1410 1.381 . S
C1408 C1414 1.383 . S
C1409 C1405 1.495 . S
C1409 H1415 0.959 . S
C1409 H1416 0.961 . S
C1409 H1417 0.960 . S
C1410 C1408 1.381 . S
C1410 C1411 1.394 . S
C1410 H1418 0.930 . S
C1411 C1410 1.394 . S
C1411 C1412 1.383 . S
C1411 H1419 0.929 . S
C1412 C1411 1.383 . S
C1412 C1413 1.377 . S
C1413 H1397 0.930 . S
C1413 C1412 1.377 . S
C1413 C1414 1.379 . S
C1414 H1398 0.931 . S
C1414 C1408 1.383 . S
C1414 C1413 1.379 . S
H1415 C1409 0.959 . S
H1416 C1409 0.961 . S
H1417 C1409 0.960 . S
H1418 C1410 0.930 . S
H1419 C1411 0.929 . S
H1420 C1428 0.929 . S
H1421 C1430 0.930 . S
H1422 C1432 0.930 . S
H1423 C1435 0.929 . S
H1424 C1438 0.930 . S
H1425 C1440 0.960 . S
H1426 C1440 0.960 . S
H1427 C1440 0.960 . S
C1428 H1420 0.929 . S
C1428 C1429 1.377 1_655 S
C1428 C1430 1.384 1_655 S
C1429 C1428 1.377 1_455 S
C1429 C1435 1.390 . S
C1430 H1421 0.930 . S
C1430 C1428 1.384 1_455 S
C1430 C1431 1.372 . S
C1431 C1430 1.372 . S
C1431 C1432 1.400 . S
C1431 C1436 1.490 . S
C1432 H1422 0.930 . S
C1432 C1431 1.400 . S
C1432 C1435 1.386 . S
H1433 C1449 0.930 . S
H1434 C1450 0.931 . S
C1435 H1423 0.929 . S
C1435 C1429 1.390 . S
C1435 C1432 1.386 . S
C1436 C1431 1.490 . S
C1436 C1438 1.395 . S
C1436 C1439 1.403 . S
H1437 C1443 0.930 . S
C1438 H1424 0.930 . S
C1438 C1436 1.395 . S
C1438 C1441 1.403 . S
C1439 C1436 1.403 . S
C1439 C1440 1.524 . S
C1439 C1443 1.400 . S
C1440 H1425 0.960 . S
C1440 H1426 0.960 . S
C1440 H1427 0.960 . S
C1440 C1439 1.524 . S
C1441 C1438 1.403 . S
C1441 C1442 1.392 . S
C1441 C1445 1.495 . S
C1442 C1441 1.392 . S
C1442 C1443 1.385 . S
C1442 C1444 1.478 . S
C1443 H1437 0.930 . S
C1443 C1439 1.400 . S
C1443 C1442 1.385 . S
C1444 C1442 1.478 . S
C1444 C1446 1.381 . S
C1444 C1450 1.383 . S
C1445 C1441 1.495 . S
C1445 H1451 0.959 . S
C1445 H1452 0.961 . S
C1445 H1453 0.960 . S
C1446 C1444 1.381 . S
C1446 C1447 1.394 . S
C1446 H1454 0.930 . S
C1447 C1446 1.394 . S
C1447 C1448 1.383 . S
C1447 H1455 0.929 . S
C1448 C1447 1.383 . S
C1448 C1449 1.377 . S
C1449 H1433 0.930 . S
C1449 C1448 1.377 . S
C1449 C1450 1.379 . S
C1450 H1434 0.931 . S
C1450 C1444 1.383 . S
C1450 C1449 1.379 . S
H1451 C1445 0.959 . S
H1452 C1445 0.961 . S
H1453 C1445 0.960 . S
H1454 C1446 0.930 . S
H1455 C1447 0.929 . S
H1456 C1464 0.929 . S
H1457 C1466 0.930 . S
H1458 C1468 0.930 . S
H1459 C1471 0.929 . S
H1460 C1474 0.930 . S
H1461 C1476 0.960 . S
H1462 C1476 0.960 . S
H1463 C1476 0.960 . S
C1464 H1456 0.929 . S
C1464 C1465 1.377 . S
C1464 C1466 1.384 . S
C1465 C1464 1.377 . S
C1465 C1471 1.390 . S
C1466 H1457 0.930 . S
C1466 C1464 1.384 . S
C1466 C1467 1.372 . S
C1467 C1466 1.372 . S
C1467 C1468 1.400 . S
C1467 C1472 1.490 . S
C1468 H1458 0.930 . S
C1468 C1467 1.400 . S
C1468 C1471 1.386 . S
H1469 C1485 0.930 . S
H1470 C1486 0.931 . S
C1471 H1459 0.929 . S
C1471 C1465 1.390 . S
C1471 C1468 1.386 . S
C1472 C1467 1.490 . S
C1472 C1474 1.395 . S
C1472 C1475 1.403 . S
H1473 C1479 0.930 . S
C1474 H1460 0.930 . S
C1474 C1472 1.395 . S
C1474 C1477 1.403 . S
C1475 C1472 1.403 . S
C1475 C1476 1.524 . S
C1475 C1479 1.400 . S
C1476 H1461 0.960 . S
C1476 H1462 0.960 . S
C1476 H1463 0.960 . S
C1476 C1475 1.524 . S
C1477 C1474 1.403 . S
C1477 C1478 1.392 . S
C1477 C1481 1.495 . S
C1478 C1477 1.392 . S
C1478 C1479 1.385 . S
C1478 C1480 1.478 . S
C1479 H1473 0.930 . S
C1479 C1475 1.400 . S
C1479 C1478 1.385 . S
C1480 C1478 1.478 . S
C1480 C1482 1.381 . S
C1480 C1486 1.383 . S
C1481 C1477 1.495 . S
C1481 H1487 0.959 . S
C1481 H1488 0.961 . S
C1481 H1489 0.960 . S
C1482 C1480 1.381 . S
C1482 C1483 1.394 . S
C1482 H1490 0.930 . S
C1483 C1482 1.394 . S
C1483 C1484 1.383 . S
C1483 H1491 0.929 . S
C1484 C1483 1.383 . S
C1484 C1485 1.377 . S
C1485 H1469 0.930 . S
C1485 C1484 1.377 . S
C1485 C1486 1.379 . S
C1486 H1470 0.931 . S
C1486 C1480 1.383 . S
C1486 C1485 1.379 . S
H1487 C1481 0.959 . S
H1488 C1481 0.961 . S
H1489 C1481 0.960 . S
H1490 C1482 0.930 . S
H1491 C1483 0.929 . S
H1492 C1500 0.929 . S
H1493 C1502 0.930 . S
H1494 C1504 0.930 . S
H1495 C1507 0.929 . S
H1496 C1510 0.930 . S
H1497 C1512 0.960 . S
H1498 C1512 0.960 . S
H1499 C1512 0.960 . S
C1500 H1492 0.929 . S
C1500 C1501 1.377 . S
C1500 C1502 1.384 . S
C1501 C1500 1.377 . S
C1501 C1507 1.390 . S
C1502 H1493 0.930 . S
C1502 C1500 1.384 . S
C1502 C1503 1.372 . S
C1503 C1502 1.372 . S
C1503 C1504 1.400 . S
C1503 C1508 1.490 . S
C1504 H1494 0.930 . S
C1504 C1503 1.400 . S
C1504 C1507 1.386 . S
H1505 C1521 0.930 . S
H1506 C1522 0.931 . S
C1507 H1495 0.929 . S
C1507 C1501 1.390 . S
C1507 C1504 1.386 . S
C1508 C1503 1.490 . S
C1508 C1510 1.395 . S
C1508 C1511 1.403 . S
H1509 C1515 0.930 . S
C1510 H1496 0.930 . S
C1510 C1508 1.395 . S
C1510 C1513 1.403 . S
C1511 C1508 1.403 . S
C1511 C1512 1.524 . S
C1511 C1515 1.400 . S
C1512 H1497 0.960 . S
C1512 H1498 0.960 . S
C1512 H1499 0.960 . S
C1512 C1511 1.524 . S
C1513 C1510 1.403 . S
C1513 C1514 1.392 . S
C1513 C1517 1.495 . S
C1514 C1513 1.392 . S
C1514 C1515 1.385 . S
C1514 C1516 1.478 1_655 S
C1515 H1509 0.930 . S
C1515 C1511 1.400 . S
C1515 C1514 1.385 . S
C1516 C1514 1.478 1_455 S
C1516 C1518 1.381 . S
C1516 C1522 1.383 . S
C1517 C1513 1.495 . S
C1517 H1523 0.959 . S
C1517 H1524 0.961 1_655 S
C1517 H1525 0.960 . S
C1518 C1516 1.381 . S
C1518 C1519 1.394 . S
C1518 H1526 0.930 1_455 S
C1519 C1518 1.394 . S
C1519 C1520 1.383 . S
C1519 H1527 0.929 . S
C1520 C1519 1.383 . S
C1520 C1521 1.377 . S
C1521 H1505 0.930 . S
C1521 C1520 1.377 . S
C1521 C1522 1.379 . S
C1522 H1506 0.931 . S
C1522 C1516 1.383 . S
C1522 C1521 1.379 . S
H1523 C1517 0.959 . S
H1524 C1517 0.961 1_455 S
H1525 C1517 0.960 . S
H1526 C1518 0.930 1_655 S
H1527 C1519 0.929 . S
H1528 C1536 0.929 . S
H1529 C1538 0.930 . S
H1530 C1540 0.930 . S
H1531 C1543 0.929 . S
H1532 C1546 0.930 . S
H1533 C1548 0.960 . S
H1534 C1548 0.960 . S
H1535 C1548 0.960 . S
C1536 H1528 0.929 . S
C1536 C1537 1.377 . S
C1536 C1538 1.384 . S
C1537 C1536 1.377 . S
C1537 C1543 1.390 . S
C1538 H1529 0.930 . S
C1538 C1536 1.384 . S
C1538 C1539 1.372 . S
C1539 C1538 1.372 . S
C1539 C1540 1.400 . S
C1539 C1544 1.490 . S
C1540 H1530 0.930 . S
C1540 C1539 1.400 . S
C1540 C1543 1.386 . S
H1541 C1557 0.930 . S
H1542 C1558 0.931 . S
C1543 H1531 0.929 . S
C1543 C1537 1.390 . S
C1543 C1540 1.386 . S
C1544 C1539 1.490 . S
C1544 C1546 1.395 . S
C1544 C1547 1.403 . S
H1545 C1551 0.930 . S
C1546 H1532 0.930 . S
C1546 C1544 1.395 . S
C1546 C1549 1.403 . S
C1547 C1544 1.403 . S
C1547 C1548 1.524 . S
C1547 C1551 1.400 . S
C1548 H1533 0.960 . S
C1548 H1534 0.960 . S
C1548 H1535 0.960 . S
C1548 C1547 1.524 . S
C1549 C1546 1.403 . S
C1549 C1550 1.392 . S
C1549 C1553 1.495 . S
C1550 C1549 1.392 . S
C1550 C1551 1.385 . S
C1550 C1552 1.478 . S
C1551 H1545 0.930 . S
C1551 C1547 1.400 . S
C1551 C1550 1.385 . S
C1552 C1550 1.478 . S
C1552 C1554 1.381 . S
C1552 C1558 1.383 . S
C1553 C1549 1.495 . S
C1553 H1559 0.959 . S
C1553 H1560 0.961 . S
C1553 H1561 0.960 . S
C1554 C1552 1.381 . S
C1554 C1555 1.394 . S
C1554 H1562 0.930 . S
C1555 C1554 1.394 . S
C1555 C1556 1.383 . S
C1555 H1563 0.929 . S
C1556 C1555 1.383 . S
C1556 C1557 1.377 . S
C1557 H1541 0.930 . S
C1557 C1556 1.377 . S
C1557 C1558 1.379 . S
C1558 H1542 0.931 . S
C1558 C1552 1.383 . S
C1558 C1557 1.379 . S
H1559 C1553 0.959 . S
H1560 C1553 0.961 . S
H1561 C1553 0.960 . S
H1562 C1554 0.930 . S
H1563 C1555 0.929 . S
H1564 C1572 0.929 . S
H1565 C1574 0.930 . S
H1566 C1576 0.930 . S
H1567 C1579 0.929 . S
H1568 C1582 0.930 . S
H1569 C1584 0.960 1_565 S
H1570 C1584 0.960 . S
H1571 C1584 0.960 . S
C1572 H1564 0.929 . S
C1572 C1573 1.377 . S
C1572 C1574 1.384 . S
C1573 C1572 1.377 . S
C1573 C1579 1.390 . S
C1574 H1565 0.930 . S
C1574 C1572 1.384 . S
C1574 C1575 1.372 . S
C1575 C1574 1.372 . S
C1575 C1576 1.400 . S
C1575 C1580 1.490 . S
C1576 H1566 0.930 . S
C1576 C1575 1.400 . S
C1576 C1579 1.386 . S
H1577 C1593 0.930 . S
H1578 C1594 0.931 . S
C1579 H1567 0.929 . S
C1579 C1573 1.390 . S
C1579 C1576 1.386 . S
C1580 C1575 1.490 . S
C1580 C1582 1.395 . S
C1580 C1583 1.403 . S
H1581 C1587 0.930 . S
C1582 H1568 0.930 . S
C1582 C1580 1.395 . S
C1582 C1585 1.403 . S
C1583 C1580 1.403 . S
C1583 C1584 1.524 . S
C1583 C1587 1.400 1_545 S
C1584 H1569 0.960 1_545 S
C1584 H1570 0.960 . S
C1584 H1571 0.960 . S
C1584 C1583 1.524 . S
C1585 C1582 1.403 . S
C1585 C1586 1.392 1_545 S
C1585 C1589 1.495 . S
C1586 C1585 1.392 1_565 S
C1586 C1587 1.385 . S
C1586 C1588 1.478 . S
C1587 H1581 0.930 . S
C1587 C1583 1.400 1_565 S
C1587 C1586 1.385 . S
C1588 C1586 1.478 . S
C1588 C1590 1.381 . S
C1588 C1594 1.383 . S
C1589 C1585 1.495 . S
C1589 H1595 0.959 . S
C1589 H1596 0.961 . S
C1589 H1597 0.916 1_545 S
C1590 C1588 1.381 . S
C1590 C1591 1.394 . S
C1590 H1598 0.930 . S
C1591 C1590 1.394 . S
C1591 C1592 1.383 . S
C1591 H1599 0.929 . S
C1592 C1591 1.383 . S
C1592 C1593 1.377 . S
C1593 H1577 0.930 . S
C1593 C1592 1.377 . S
C1593 C1594 1.379 . S
C1594 H1578 0.931 . S
C1594 C1588 1.383 . S
C1594 C1593 1.379 . S
H1595 C1589 0.959 . S
H1596 C1589 0.961 . S
H1597 C1589 0.916 1_565 S
H1598 C1590 0.930 . S
H1599 C1591 0.929 . S
H1600 C1608 0.929 . S
H1601 C1610 0.930 . S
H1602 C1612 0.930 . S
H1603 C1615 0.929 . S
H1604 C1618 0.930 . S
H1605 C1620 0.960 . S
H1606 C1620 0.960 . S
H1607 C1620 0.960 . S
C1608 H1600 0.929 . S
C1608 C1609 1.377 . S
C1608 C1610 1.384 . S
C1609 C1608 1.377 . S
C1609 C1615 1.390 . S
C1610 H1601 0.930 . S
C1610 C1608 1.384 . S
C1610 C1611 1.372 . S
C1611 C1610 1.372 . S
C1611 C1612 1.400 . S
C1611 C1616 1.490 . S
C1612 H1602 0.930 . S
C1612 C1611 1.400 . S
C1612 C1615 1.386 . S
H1613 C1629 0.930 . S
H1614 C1630 0.931 . S
C1615 H1603 0.929 . S
C1615 C1609 1.390 . S
C1615 C1612 1.386 . S
C1616 C1611 1.490 . S
C1616 C1618 1.395 . S
C1616 C1619 1.403 . S
H1617 C1623 0.930 . S
C1618 H1604 0.930 . S
C1618 C1616 1.395 . S
C1618 C1621 1.403 . S
C1619 C1616 1.403 . S
C1619 C1620 1.524 . S
C1619 C1623 1.400 . S
C1620 H1605 0.960 . S
C1620 H1606 0.960 . S
C1620 H1607 0.960 . S
C1620 C1619 1.524 . S
C1621 C1618 1.403 . S
C1621 C1622 1.392 . S
C1621 C1625 1.495 . S
C1622 C1621 1.392 . S
C1622 C1623 1.385 . S
C1622 C1624 1.478 . S
C1623 H1617 0.930 . S
C1623 C1619 1.400 . S
C1623 C1622 1.385 . S
C1624 C1622 1.478 . S
C1624 C1626 1.381 . S
C1624 C1630 1.383 . S
C1625 C1621 1.495 . S
C1625 H1631 0.959 . S
C1625 H1632 0.961 . S
C1625 H1633 0.960 . S
C1626 C1624 1.381 . S
C1626 C1627 1.394 . S
C1626 H1634 0.930 . S
C1627 C1626 1.394 . S
C1627 C1628 1.383 . S
C1627 H1635 0.929 . S
C1628 C1627 1.383 . S
C1628 C1629 1.377 . S
C1629 H1613 0.930 . S
C1629 C1628 1.377 . S
C1629 C1630 1.379 . S
C1630 H1614 0.931 . S
C1630 C1624 1.383 . S
C1630 C1629 1.379 . S
H1631 C1625 0.959 . S
H1632 C1625 0.961 . S
H1633 C1625 0.960 . S
H1634 C1626 0.930 . S
H1635 C1627 0.929 . S
H1636 C1644 0.929 . S
H1637 C1646 0.930 . S
H1638 C1648 0.930 . S
H1639 C1651 0.929 . S
H1640 C1654 0.930 . S
H1641 C1656 0.960 . S
H1642 C1656 0.960 . S
H1643 C1656 0.960 . S
C1644 H1636 0.929 . S
C1644 C1645 1.377 . S
C1644 C1646 1.384 . S
C1645 C1644 1.377 . S
C1645 C1651 1.390 . S
C1646 H1637 0.930 . S
C1646 C1644 1.384 . S
C1646 C1647 1.372 . S
C1647 C1646 1.372 . S
C1647 C1648 1.400 . S
C1647 C1652 1.490 . S
C1648 H1638 0.930 . S
C1648 C1647 1.400 . S
C1648 C1651 1.386 . S
H1649 C1665 0.930 . S
H1650 C1666 0.931 . S
C1651 H1639 0.929 . S
C1651 C1645 1.390 . S
C1651 C1648 1.386 . S
C1652 C1647 1.490 . S
C1652 C1654 1.395 . S
C1652 C1655 1.403 . S
H1653 C1659 0.930 . S
C1654 H1640 0.930 . S
C1654 C1652 1.395 . S
C1654 C1657 1.403 1_565 S
C1655 C1652 1.403 . S
C1655 C1656 1.524 . S
C1655 C1659 1.400 . S
C1656 H1641 0.960 . S
C1656 H1642 0.960 . S
C1656 H1643 0.960 . S
C1656 C1655 1.524 . S
C1657 C1654 1.403 1_545 S
C1657 C1658 1.392 . S
C1657 C1661 1.495 . S
C1658 C1657 1.392 . S
C1658 C1659 1.385 1_545 S
C1658 C1660 1.478 . S
C1659 H1653 0.930 . S
C1659 C1655 1.400 . S
C1659 C1658 1.385 1_565 S
C1660 C1658 1.478 . S
C1660 C1662 1.381 . S
C1660 C1666 1.383 . S
C1661 C1657 1.495 . S
C1661 H1667 0.959 . S
C1661 H1668 0.961 . S
C1661 H1669 0.960 . S
C1662 C1660 1.381 . S
C1662 C1663 1.394 . S
C1662 H1670 0.930 . S
C1663 C1662 1.394 . S
C1663 C1664 1.383 . S
C1663 H1671 0.929 . S
C1664 C1663 1.383 . S
C1664 C1665 1.377 . S
C1665 H1649 0.930 . S
C1665 C1664 1.377 . S
C1665 C1666 1.379 . S
C1666 H1650 0.931 . S
C1666 C1660 1.383 . S
C1666 C1665 1.379 . S
H1667 C1661 0.959 . S
H1668 C1661 0.961 . S
H1669 C1661 0.960 . S
H1670 C1662 0.930 . S
H1671 C1663 0.929 . S
H1672 C1680 0.929 . S
H1673 C1682 0.930 1_554 S
H1674 C1684 0.930 . S
H1675 C1687 0.929 . S
H1676 C1690 0.930 . S
H1677 C1692 0.960 . S
H1678 C1692 0.960 . S
H1679 C1692 0.960 . S
C1680 H1672 0.929 . S
C1680 C1681 1.377 . S
C1680 C1682 1.384 . S
C1681 C1680 1.377 . S
C1681 C1687 1.390 . S
C1682 H1673 0.930 1_556 S
C1682 C1680 1.384 . S
C1682 C1683 1.372 1_556 S
C1683 C1682 1.372 1_554 S
C1683 C1684 1.401 1_554 S
C1683 C1688 1.488 . S
C1684 H1674 0.930 . S
C1684 C1683 1.401 1_556 S
C1684 C1687 1.386 . S
H1685 C1701 0.930 . S
H1686 C1702 0.931 . S
C1687 H1675 0.929 . S
C1687 C1681 1.390 . S
C1687 C1684 1.386 . S
C1688 C1683 1.488 . S
C1688 C1690 1.395 . S
C1688 C1691 1.403 . S
H1689 C1695 0.930 . S
C1690 H1676 0.930 . S
C1690 C1688 1.395 . S
C1690 C1693 1.403 . S
C1691 C1688 1.403 . S
C1691 C1692 1.524 1_554 S
C1691 C1695 1.400 . S
C1692 H1677 0.960 . S
C1692 H1678 0.960 . S
C1692 H1679 0.960 . S
C1692 C1691 1.524 1_556 S
C1693 C1690 1.403 . S
C1693 C1694 1.392 . S
C1693 C1697 1.495 . S
C1694 C1693 1.392 . S
C1694 C1695 1.385 . S
C1694 C1696 1.478 . S
C1695 H1689 0.930 . S
C1695 C1691 1.400 . S
C1695 C1694 1.385 . S
C1696 C1694 1.478 . S
C1696 C1698 1.381 . S
C1696 C1702 1.383 . S
C1697 C1693 1.495 . S
C1697 H1703 0.959 . S
C1697 H1704 0.961 . S
C1697 H1705 0.960 . S
C1698 C1696 1.381 . S
C1698 C1699 1.394 . S
C1698 H1706 0.930 . S
C1699 C1698 1.394 . S
C1699 C1700 1.383 . S
C1699 H1707 0.929 . S
C1700 C1699 1.383 . S
C1700 C1701 1.377 . S
C1701 H1685 0.930 . S
C1701 C1700 1.377 . S
C1701 C1702 1.379 . S
C1702 H1686 0.931 . S
C1702 C1696 1.383 . S
C1702 C1701 1.379 . S
H1703 C1697 0.959 . S
H1704 C1697 0.961 . S
H1705 C1697 0.960 . S
H1706 C1698 0.930 . S
H1707 C1699 0.929 . S
H1708 C1716 0.929 . S
H1709 C1718 0.930 . S
H1710 C1720 0.920 1_565 S
H1711 C1723 0.929 . S
H1712 C1726 0.930 1_545 S
H1713 C1728 0.960 . S
H1714 C1728 0.960 . S
H1715 C1728 0.960 . S
C1716 H1708 0.929 . S
C1716 C1717 1.377 . S
C1716 C1718 1.384 . S
C1717 C1716 1.377 . S
C1717 C1723 1.390 . S
C1718 H1709 0.930 . S
C1718 C1716 1.384 . S
C1718 C1719 1.376 . S
C1719 C1718 1.376 . S
C1719 C1720 1.404 . S
C1719 C1724 1.482 1_545 S
C1720 H1710 0.920 1_545 S
C1720 C1719 1.404 . S
C1720 C1723 1.386 . S
H1721 C1737 0.930 . S
H1722 C1738 0.931 . S
C1723 H1711 0.929 . S
C1723 C1717 1.390 . S
C1723 C1720 1.386 . S
C1724 C1719 1.482 1_565 S
C1724 C1726 1.395 . S
C1724 C1727 1.403 . S
H1725 C1731 0.930 . S
C1726 H1712 0.930 1_565 S
C1726 C1724 1.395 . S
C1726 C1729 1.403 . S
C1727 C1724 1.403 . S
C1727 C1728 1.524 . S
C1727 C1731 1.400 . S
C1728 H1713 0.960 . S
C1728 H1714 0.960 . S
C1728 H1715 0.960 . S
C1728 C1727 1.524 . S
C1729 C1726 1.403 . S
C1729 C1730 1.392 . S
C1729 C1733 1.495 . S
C1730 C1729 1.392 . S
C1730 C1731 1.385 . S
C1730 C1732 1.478 . S
C1731 H1725 0.930 . S
C1731 C1727 1.400 . S
C1731 C1730 1.385 . S
C1732 C1730 1.478 . S
C1732 C1734 1.381 . S
C1732 C1738 1.383 . S
C1733 C1729 1.495 . S
C1733 H1739 0.959 1_565 S
C1733 H1740 0.961 . S
C1733 H1741 0.960 . S
C1734 C1732 1.381 . S
C1734 C1735 1.394 . S
C1734 H1742 0.930 . S
C1735 C1734 1.394 . S
C1735 C1736 1.383 . S
C1735 H1743 0.929 . S
C1736 C1735 1.383 . S
C1736 C1737 1.377 . S
C1737 H1721 0.930 . S
C1737 C1736 1.377 . S
C1737 C1738 1.379 . S
C1738 H1722 0.931 . S
C1738 C1732 1.383 . S
C1738 C1737 1.379 . S
H1739 C1733 0.959 1_545 S
H1740 C1733 0.961 . S
H1741 C1733 0.960 . S
H1742 C1734 0.930 . S
H1743 C1735 0.929 . S
H1744 C1752 0.929 . S
H1745 C1754 0.930 . S
H1746 C1756 0.930 . S
H1747 C1759 0.929 . S
H1748 C1762 0.930 . S
H1749 C1764 0.960 . S
H1750 C1764 0.960 . S
H1751 C1764 0.960 . S
C1752 H1744 0.929 . S
C1752 C1753 1.377 . S
C1752 C1754 1.384 . S
C1753 C1752 1.377 . S
C1753 C1759 1.390 . S
C1754 H1745 0.930 . S
C1754 C1752 1.384 . S
C1754 C1755 1.372 . S
C1755 C1754 1.372 . S
C1755 C1756 1.400 . S
C1755 C1760 1.490 . S
C1756 H1746 0.930 . S
C1756 C1755 1.400 . S
C1756 C1759 1.386 . S
H1757 C1773 0.930 . S
H1758 C1774 0.931 . S
C1759 H1747 0.929 . S
C1759 C1753 1.390 . S
C1759 C1756 1.386 . S
C1760 C1755 1.490 . S
C1760 C1762 1.395 . S
C1760 C1763 1.403 . S
H1761 C1767 0.930 . S
C1762 H1748 0.930 . S
C1762 C1760 1.395 . S
C1762 C1765 1.403 . S
C1763 C1760 1.403 . S
C1763 C1764 1.524 . S
C1763 C1767 1.400 . S
C1764 H1749 0.960 . S
C1764 H1750 0.960 . S
C1764 H1751 0.960 . S
C1764 C1763 1.524 . S
C1765 C1762 1.403 . S
C1765 C1766 1.392 . S
C1765 C1769 1.495 . S
C1766 C1765 1.392 . S
C1766 C1767 1.385 . S
C1766 C1768 1.478 . S
C1767 H1761 0.930 . S
C1767 C1763 1.400 . S
C1767 C1766 1.385 . S
C1768 C1766 1.478 . S
C1768 C1770 1.381 . S
C1768 C1774 1.383 . S
C1769 C1765 1.495 . S
C1769 H1775 0.959 . S
C1769 H1776 0.961 . S
C1769 H1777 0.960 . S
C1770 C1768 1.381 . S
C1770 C1771 1.394 . S
C1770 H1778 0.930 . S
C1771 C1770 1.394 . S
C1771 C1772 1.383 . S
C1771 H1779 0.929 . S
C1772 C1771 1.383 . S
C1772 C1773 1.377 . S
C1773 H1757 0.930 . S
C1773 C1772 1.377 . S
C1773 C1774 1.379 . S
C1774 H1758 0.931 . S
C1774 C1768 1.383 . S
C1774 C1773 1.379 . S
H1775 C1769 0.959 . S
H1776 C1769 0.961 . S
H1777 C1769 0.960 . S
H1778 C1770 0.930 . S
H1779 C1771 0.929 . S
H1780 C1788 0.929 . S
H1781 C1790 0.930 . S
H1782 C1792 0.930 1_545 S
H1783 C1795 0.929 . S
H1784 C1798 0.930 1_565 S
H1785 C1800 0.960 . S
H1786 C1800 0.960 . S
H1787 C1800 0.960 . S
C1788 H1780 0.929 . S
C1788 C1789 1.377 . S
C1788 C1790 1.384 . S
C1789 C1788 1.377 . S
C1789 C1795 1.390 . S
C1790 H1781 0.930 . S
C1790 C1788 1.384 . S
C1790 C1791 1.372 . S
C1791 C1790 1.372 . S
C1791 C1792 1.400 . S
C1791 C1796 1.490 1_565 S
C1792 H1782 0.930 1_565 S
C1792 C1791 1.400 . S
C1792 C1795 1.386 . S
H1793 C1809 0.930 . S
H1794 C1810 0.931 . S
C1795 H1783 0.929 . S
C1795 C1789 1.390 . S
C1795 C1792 1.386 . S
C1796 C1791 1.490 1_545 S
C1796 C1798 1.395 . S
C1796 C1799 1.403 . S
H1797 C1803 0.930 . S
C1798 H1784 0.930 1_545 S
C1798 C1796 1.395 . S
C1798 C1801 1.403 . S
C1799 C1796 1.403 . S
C1799 C1800 1.524 . S
C1799 C1803 1.400 . S
C1800 H1785 0.960 . S
C1800 H1786 0.960 . S
C1800 H1787 0.960 . S
C1800 C1799 1.524 . S
C1801 C1798 1.403 . S
C1801 C1802 1.392 . S
C1801 C1805 1.495 . S
C1802 C1801 1.392 . S
C1802 C1803 1.385 . S
C1802 C1804 1.478 . S
C1803 H1797 0.930 . S
C1803 C1799 1.400 . S
C1803 C1802 1.385 . S
C1804 C1802 1.478 . S
C1804 C1806 1.381 . S
C1804 C1810 1.383 . S
C1805 C1801 1.495 . S
C1805 H1811 0.959 . S
C1805 H1812 0.961 . S
C1805 H1813 0.960 . S
C1806 C1804 1.381 . S
C1806 C1807 1.394 . S
C1806 H1814 0.930 . S
C1807 C1806 1.394 . S
C1807 C1808 1.383 . S
C1807 H1815 0.929 . S
C1808 C1807 1.383 . S
C1808 C1809 1.377 . S
C1809 H1793 0.930 . S
C1809 C1808 1.377 . S
C1809 C1810 1.379 . S
C1810 H1794 0.931 . S
C1810 C1804 1.383 . S
C1810 C1809 1.379 . S
H1811 C1805 0.959 . S
H1812 C1805 0.961 . S
H1813 C1805 0.960 . S
H1814 C1806 0.930 . S
H1815 C1807 0.929 . S
H1816 C1824 0.929 . S
H1817 C1826 0.930 . S
H1818 C1828 0.930 . S
H1819 C1831 0.929 . S
H1820 C1834 0.930 . S
H1821 C1836 0.960 . S
H1822 C1836 0.960 . S
H1823 C1836 0.960 . S
C1824 H1816 0.929 . S
C1824 C1825 1.377 . S
C1824 C1826 1.384 . S
C1825 C1824 1.377 . S
C1825 C1831 1.390 . S
C1826 H1817 0.930 . S
C1826 C1824 1.384 . S
C1826 C1827 1.372 . S
C1827 C1826 1.372 . S
C1827 C1828 1.400 . S
C1827 C1832 1.490 . S
C1828 H1818 0.930 . S
C1828 C1827 1.400 . S
C1828 C1831 1.386 . S
H1829 C1845 0.930 . S
H1830 C1846 0.931 . S
C1831 H1819 0.929 . S
C1831 C1825 1.390 . S
C1831 C1828 1.386 . S
C1832 C1827 1.490 . S
C1832 C1834 1.395 1_554 S
C1832 C1835 1.403 . S
H1833 C1839 0.930 . S
C1834 H1820 0.930 . S
C1834 C1832 1.395 1_556 S
C1834 C1837 1.403 . S
C1835 C1832 1.403 . S
C1835 C1836 1.524 . S
C1835 C1839 1.400 1_554 S
C1836 H1821 0.960 . S
C1836 H1822 0.960 . S
C1836 H1823 0.960 . S
C1836 C1835 1.524 . S
C1837 C1834 1.403 . S
C1837 C1838 1.392 . S
C1837 C1841 1.495 . S
C1838 C1837 1.392 . S
C1838 C1839 1.385 . S
C1838 C1840 1.478 . S
C1839 H1833 0.930 . S
C1839 C1835 1.400 1_556 S
C1839 C1838 1.385 . S
C1840 C1838 1.478 . S
C1840 C1842 1.381 . S
C1840 C1846 1.383 . S
C1841 C1837 1.495 . S
C1841 H1847 0.959 . S
C1841 H1848 0.961 . S
C1841 H1849 0.960 . S
C1842 C1840 1.381 . S
C1842 C1843 1.394 . S
C1842 H1850 0.930 . S
C1843 C1842 1.394 . S
C1843 C1844 1.383 . S
C1843 H1851 0.929 . S
C1844 C1843 1.383 . S
C1844 C1845 1.377 . S
C1845 H1829 0.930 . S
C1845 C1844 1.377 . S
C1845 C1846 1.379 . S
C1846 H1830 0.931 . S
C1846 C1840 1.383 . S
C1846 C1845 1.379 . S
H1847 C1841 0.959 . S
H1848 C1841 0.961 . S
H1849 C1841 0.960 . S
H1850 C1842 0.930 . S
H1851 C1843 0.929 . S
H1852 C1860 0.929 . S
H1853 C1862 0.930 . S
H1854 C1864 0.930 1_455 S
H1855 C1867 0.929 . S
H1856 C1870 0.930 1_655 S
H1857 C1872 0.960 . S
H1858 C1872 0.960 . S
H1859 C1872 0.960 . S
C1860 H1852 0.929 . S
C1860 C1861 1.377 . S
C1860 C1862 1.384 . S
C1861 C1860 1.377 . S
C1861 C1867 1.390 . S
C1862 H1853 0.930 . S
C1862 C1860 1.384 . S
C1862 C1863 1.372 1_655 S
C1863 C1862 1.372 1_455 S
C1863 C1864 1.400 1_455 S
C1863 C1868 1.490 . S
C1864 H1854 0.930 1_655 S
C1864 C1863 1.400 1_655 S
C1864 C1867 1.386 . S
H1865 C1881 0.930 . S
H1866 C1882 0.931 . S
C1867 H1855 0.929 . S
C1867 C1861 1.390 . S
C1867 C1864 1.386 . S
C1868 C1863 1.490 . S
C1868 C1870 1.395 . S
C1868 C1871 1.403 . S
H1869 C1875 0.930 . S
C1870 H1856 0.930 1_455 S
C1870 C1868 1.395 . S
C1870 C1873 1.403 . S
C1871 C1868 1.403 . S
C1871 C1872 1.524 . S
C1871 C1875 1.400 . S
C1872 H1857 0.960 . S
C1872 H1858 0.960 . S
C1872 H1859 0.960 . S
C1872 C1871 1.524 . S
C1873 C1870 1.403 . S
C1873 C1874 1.392 . S
C1873 C1877 1.495 . S
C1874 C1873 1.392 . S
C1874 C1875 1.385 . S
C1874 C1876 1.478 . S
C1875 H1869 0.930 . S
C1875 C1871 1.400 . S
C1875 C1874 1.385 . S
C1876 C1874 1.478 . S
C1876 C1878 1.381 . S
C1876 C1882 1.383 . S
C1877 C1873 1.495 . S
C1877 H1883 0.959 . S
C1877 H1884 0.961 . S
C1877 H1885 0.960 . S
C1878 C1876 1.381 . S
C1878 C1879 1.394 . S
C1878 H1886 0.930 . S
C1879 C1878 1.394 . S
C1879 C1880 1.383 . S
C1879 H1887 0.929 . S
C1880 C1879 1.383 . S
C1880 C1881 1.377 . S
C1881 H1865 0.930 . S
C1881 C1880 1.377 . S
C1881 C1882 1.379 . S
C1882 H1866 0.931 . S
C1882 C1876 1.383 . S
C1882 C1881 1.379 . S
H1883 C1877 0.959 . S
H1884 C1877 0.961 . S
H1885 C1877 0.960 . S
H1886 C1878 0.930 . S
H1887 C1879 0.929 . S
H1888 C1896 0.929 . S
H1889 C1898 0.930 . S
H1890 C1900 0.930 . S
H1891 C1903 0.929 . S
H1892 C1906 0.930 . S
H1893 C1908 0.960 . S
H1894 C1908 0.960 . S
H1895 C1908 0.960 . S
C1896 H1888 0.929 . S
C1896 C1897 1.377 . S
C1896 C1898 1.384 . S
C1897 C1896 1.377 . S
C1897 C1903 1.390 . S
C1898 H1889 0.930 . S
C1898 C1896 1.384 . S
C1898 C1899 1.372 . S
C1899 C1898 1.372 . S
C1899 C1900 1.400 . S
C1899 C1904 1.490 . S
C1900 H1890 0.930 . S
C1900 C1899 1.400 . S
C1900 C1903 1.386 . S
H1901 C1917 0.930 . S
H1902 C1918 0.931 . S
C1903 H1891 0.929 . S
C1903 C1897 1.390 . S
C1903 C1900 1.386 . S
C1904 C1899 1.490 . S
C1904 C1906 1.395 . S
C1904 C1907 1.403 . S
H1905 C1911 0.930 . S
C1906 H1892 0.930 . S
C1906 C1904 1.395 . S
C1906 C1909 1.403 . S
C1907 C1904 1.403 . S
C1907 C1908 1.524 . S
C1907 C1911 1.400 . S
C1908 H1893 0.960 . S
C1908 H1894 0.960 . S
C1908 H1895 0.960 . S
C1908 C1907 1.524 . S
C1909 C1906 1.403 . S
C1909 C1910 1.392 . S
C1909 C1913 1.495 . S
C1910 C1909 1.392 . S
C1910 C1911 1.385 . S
C1910 C1912 1.478 . S
C1911 H1905 0.930 . S
C1911 C1907 1.400 . S
C1911 C1910 1.385 . S
C1912 C1910 1.478 . S
C1912 C1914 1.381 . S
C1912 C1918 1.383 . S
C1913 C1909 1.495 . S
C1913 H1919 0.959 . S
C1913 H1920 0.961 . S
C1913 H1921 0.960 . S
C1914 C1912 1.381 . S
C1914 C1915 1.394 . S
C1914 H1922 0.930 . S
C1915 C1914 1.394 . S
C1915 C1916 1.383 . S
C1915 H1923 0.929 . S
C1916 C1915 1.383 . S
C1916 C1917 1.377 . S
C1917 H1901 0.930 . S
C1917 C1916 1.377 . S
C1917 C1918 1.379 . S
C1918 H1902 0.931 . S
C1918 C1912 1.383 . S
C1918 C1917 1.379 . S
H1919 C1913 0.959 . S
H1920 C1913 0.961 . S
H1921 C1913 0.960 . S
H1922 C1914 0.930 . S
H1923 C1915 0.929 . S
H1924 C1932 0.929 . S
H1925 C1934 0.930 1_655 S
H1926 C1936 0.930 . S
H1927 C1939 0.929 . S
H1928 C1942 0.930 . S
H1929 C1944 0.960 . S
H1930 C1944 0.960 . S
H1931 C1944 0.960 . S
C1932 H1924 0.929 . S
C1932 C1933 1.377 . S
C1932 C1934 1.384 . S
C1933 C1932 1.377 . S
C1933 C1939 1.390 . S
C1934 H1925 0.930 1_455 S
C1934 C1932 1.384 . S
C1934 C1935 1.372 . S
C1935 C1934 1.372 . S
C1935 C1936 1.400 . S
C1935 C1940 1.490 1_455 S
C1936 H1926 0.930 . S
C1936 C1935 1.400 . S
C1936 C1939 1.386 . S
H1937 C1953 0.930 . S
H1938 C1954 0.931 . S
C1939 H1927 0.929 . S
C1939 C1933 1.390 . S
C1939 C1936 1.386 . S
C1940 C1935 1.490 1_655 S
C1940 C1942 1.395 . S
C1940 C1943 1.403 . S
H1941 C1947 0.930 . S
C1942 H1928 0.930 . S
C1942 C1940 1.395 . S
C1942 C1945 1.403 . S
C1943 C1940 1.403 . S
C1943 C1944 1.524 1_655 S
C1943 C1947 1.400 . S
C1944 H1929 0.960 . S
C1944 H1930 0.960 . S
C1944 H1931 0.960 . S
C1944 C1943 1.524 1_455 S
C1945 C1942 1.403 . S
C1945 C1946 1.392 . S
C1945 C1949 1.495 . S
C1946 C1945 1.392 . S
C1946 C1947 1.385 . S
C1946 C1948 1.478 . S
C1947 H1941 0.930 . S
C1947 C1943 1.400 . S
C1947 C1946 1.385 . S
C1948 C1946 1.478 . S
C1948 C1950 1.381 . S
C1948 C1954 1.383 . S
C1949 C1945 1.495 . S
C1949 H1955 0.959 . S
C1949 H1956 0.961 . S
C1949 H1957 0.960 . S
C1950 C1948 1.381 . S
C1950 C1951 1.394 . S
C1950 H1958 0.930 . S
C1951 C1950 1.394 . S
C1951 C1952 1.383 . S
C1951 H1959 0.929 . S
C1952 C1951 1.383 . S
C1952 C1953 1.377 . S
C1953 H1937 0.930 . S
C1953 C1952 1.377 . S
C1953 C1954 1.379 . S
C1954 H1938 0.931 . S
C1954 C1948 1.383 . S
C1954 C1953 1.379 . S
H1955 C1949 0.959 . S
H1956 C1949 0.961 . S
H1957 C1949 0.960 . S
H1958 C1950 0.930 . S
H1959 C1951 0.929 . S
H1960 C1968 0.929 . S
H1961 C1970 0.930 . S
H1962 C1972 0.928 . S
H1963 C1975 0.929 . S
H1964 C1978 0.930 . S
H1965 C1980 0.960 . S
H1966 C1980 0.960 . S
H1967 C1980 0.960 . S
C1968 H1960 0.929 . S
C1968 C1969 1.377 . S
C1968 C1970 1.384 . S
C1969 C1968 1.377 . S
C1969 C1975 1.390 . S
C1970 H1961 0.930 . S
C1970 C1968 1.384 . S
C1970 C1971 1.372 1_455 S
C1971 C1970 1.372 1_655 S
C1971 C1972 1.399 . S
C1971 C1976 1.490 . S
C1972 H1962 0.928 . S
C1972 C1971 1.399 . S
C1972 C1975 1.388 1_655 S
H1973 C1989 0.930 . S
H1974 C1990 0.931 . S
C1975 H1963 0.929 . S
C1975 C1969 1.390 . S
C1975 C1972 1.388 1_455 S
C1976 C1971 1.490 . S
C1976 C1978 1.395 . S
C1976 C1979 1.403 . S
H1977 C1983 0.930 . S
C1978 H1964 0.930 . S
C1978 C1976 1.395 . S
C1978 C1981 1.403 . S
C1979 C1976 1.403 . S
C1979 C1980 1.524 1_655 S
C1979 C1983 1.400 . S
C1980 H1965 0.960 . S
C1980 H1966 0.960 . S
C1980 H1967 0.960 . S
C1980 C1979 1.524 1_455 S
C1981 C1978 1.403 . S
C1981 C1982 1.392 . S
C1981 C1985 1.495 . S
C1982 C1981 1.392 . S
C1982 C1983 1.385 . S
C1982 C1984 1.478 . S
C1983 H1977 0.930 . S
C1983 C1979 1.400 . S
C1983 C1982 1.385 . S
C1984 C1982 1.478 . S
C1984 C1986 1.381 . S
C1984 C1990 1.383 . S
C1985 C1981 1.495 . S
C1985 H1991 0.959 . S
C1985 H1992 0.961 . S
C1985 H1993 0.960 . S
C1986 C1984 1.381 . S
C1986 C1987 1.394 . S
C1986 H1994 0.930 . S
C1987 C1986 1.394 . S
C1987 C1988 1.383 . S
C1987 H1995 0.929 . S
C1988 C1987 1.383 . S
C1988 C1989 1.377 . S
C1989 H1973 0.930 . S
C1989 C1988 1.377 . S
C1989 C1990 1.379 . S
C1990 H1974 0.931 . S
C1990 C1984 1.383 . S
C1990 C1989 1.379 . S
H1991 C1985 0.959 . S
H1992 C1985 0.961 . S
H1993 C1985 0.960 . S
H1994 C1986 0.930 . S
H1995 C1987 0.929 . S
H1996 C2004 0.929 . S
H1997 C2006 0.930 . S
H1998 C2008 0.930 . S
H1999 C2011 0.929 . S
H2000 C2014 0.930 . S
H2001 C2016 0.960 . S
H2002 C2016 0.960 . S
H2003 C2016 0.960 . S
C2004 H1996 0.929 . S
C2004 C2005 1.377 . S
C2004 C2006 1.384 . S
C2005 C2004 1.377 . S
C2005 C2011 1.390 . S
C2006 H1997 0.930 . S
C2006 C2004 1.384 . S
C2006 C2007 1.372 . S
C2007 C2006 1.372 . S
C2007 C2008 1.400 . S
C2007 C2012 1.490 . S
C2008 H1998 0.930 . S
C2008 C2007 1.400 . S
C2008 C2011 1.386 . S
H2009 C2025 0.930 . S
H2010 C2026 0.931 . S
C2011 H1999 0.929 . S
C2011 C2005 1.390 . S
C2011 C2008 1.386 . S
C2012 C2007 1.490 . S
C2012 C2014 1.395 . S
C2012 C2015 1.403 . S
H2013 C2019 0.930 . S
C2014 H2000 0.930 . S
C2014 C2012 1.395 . S
C2014 C2017 1.403 . S
C2015 C2012 1.403 . S
C2015 C2016 1.524 . S
C2015 C2019 1.400 . S
C2016 H2001 0.960 . S
C2016 H2002 0.960 . S
C2016 H2003 0.960 . S
C2016 C2015 1.524 . S
C2017 C2014 1.403 . S
C2017 C2018 1.392 . S
C2017 C2021 1.495 . S
C2018 C2017 1.392 . S
C2018 C2019 1.385 . S
C2018 C2020 1.478 . S
C2019 H2013 0.930 . S
C2019 C2015 1.400 . S
C2019 C2018 1.385 . S
C2020 C2018 1.478 . S
C2020 C2022 1.381 . S
C2020 C2026 1.383 . S
C2021 C2017 1.495 . S
C2021 H2027 0.959 . S
C2021 H2028 0.961 . S
C2021 H2029 0.960 . S
C2022 C2020 1.381 . S
C2022 C2023 1.394 . S
C2022 H2030 0.930 . S
C2023 C2022 1.394 . S
C2023 C2024 1.383 . S
C2023 H2031 0.929 . S
C2024 C2023 1.383 . S
C2024 C2025 1.377 . S
C2025 H2009 0.930 . S
C2025 C2024 1.377 . S
C2025 C2026 1.379 . S
C2026 H2010 0.931 . S
C2026 C2020 1.383 . S
C2026 C2025 1.379 . S
H2027 C2021 0.959 . S
H2028 C2021 0.961 . S
H2029 C2021 0.960 . S
H2030 C2022 0.930 . S
H2031 C2023 0.929 . S
H2032 C2040 0.929 . S
H2033 C2042 0.930 . S
H2034 C2044 0.930 . S
H2035 C2047 0.929 . S
H2036 C2050 0.930 . S
H2037 C2052 0.960 . S
H2038 C2052 0.960 . S
H2039 C2052 0.960 . S
C2040 H2032 0.929 . S
C2040 C2041 1.377 . S
C2040 C2042 1.384 . S
C2041 C2040 1.377 . S
C2041 C2047 1.390 . S
C2042 H2033 0.930 . S
C2042 C2040 1.384 . S
C2042 C2043 1.372 . S
C2043 C2042 1.372 . S
C2043 C2044 1.400 . S
C2043 C2048 1.490 . S
C2044 H2034 0.930 . S
C2044 C2043 1.400 . S
C2044 C2047 1.386 . S
H2045 C2061 0.930 . S
H2046 C2062 0.931 . S
C2047 H2035 0.929 . S
C2047 C2041 1.390 . S
C2047 C2044 1.386 . S
C2048 C2043 1.490 . S
C2048 C2050 1.395 1_655 S
C2048 C2051 1.403 . S
H2049 C2055 0.930 . S
C2050 H2036 0.930 . S
C2050 C2048 1.395 1_455 S
C2050 C2053 1.403 . S
C2051 C2048 1.403 . S
C2051 C2052 1.524 . S
C2051 C2055 1.400 1_655 S
C2052 H2037 0.960 . S
C2052 H2038 0.960 . S
C2052 H2039 0.960 . S
C2052 C2051 1.524 . S
C2053 C2050 1.403 . S
C2053 C2054 1.392 . S
C2053 C2057 1.495 . S
C2054 C2053 1.392 . S
C2054 C2055 1.385 . S
C2054 C2056 1.478 . S
C2055 H2049 0.930 . S
C2055 C2051 1.400 1_455 S
C2055 C2054 1.385 . S
C2056 C2054 1.478 . S
C2056 C2058 1.381 . S
C2056 C2062 1.383 . S
C2057 C2053 1.495 . S
C2057 H2063 0.959 . S
C2057 H2064 0.961 . S
C2057 H2065 0.960 . S
C2058 C2056 1.381 . S
C2058 C2059 1.394 . S
C2058 H2066 0.930 . S
C2059 C2058 1.394 . S
C2059 C2060 1.383 . S
C2059 H2067 0.929 . S
C2060 C2059 1.383 . S
C2060 C2061 1.377 . S
C2061 H2045 0.930 . S
C2061 C2060 1.377 . S
C2061 C2062 1.379 . S
C2062 H2046 0.931 . S
C2062 C2056 1.383 . S
C2062 C2061 1.379 . S
H2063 C2057 0.959 . S
H2064 C2057 0.961 . S
H2065 C2057 0.960 . S
H2066 C2058 0.930 . S
H2067 C2059 0.929 . S
H2068 C2076 0.929 . S
H2069 C2078 0.930 . S
H2070 C2080 0.930 . S
H2071 C2083 0.929 . S
H2072 C2086 0.930 . S
H2073 C2088 0.960 . S
H2074 C2088 0.960 . S
H2075 C2088 0.960 . S
C2076 H2068 0.929 . S
C2076 C2077 1.377 . S
C2076 C2078 1.384 . S
C2077 C2076 1.377 . S
C2077 C2083 1.390 . S
C2078 H2069 0.930 . S
C2078 C2076 1.384 . S
C2078 C2079 1.372 . S
C2079 C2078 1.372 . S
C2079 C2080 1.400 . S
C2079 C2084 1.490 . S
C2080 H2070 0.930 . S
C2080 C2079 1.400 . S
C2080 C2083 1.386 . S
H2081 C2097 0.930 . S
H2082 C2098 0.931 . S
C2083 H2071 0.929 . S
C2083 C2077 1.390 . S
C2083 C2080 1.386 . S
C2084 C2079 1.490 . S
C2084 C2086 1.395 . S
C2084 C2087 1.403 . S
H2085 C2091 0.930 . S
C2086 H2072 0.930 . S
C2086 C2084 1.395 . S
C2086 C2089 1.403 . S
C2087 C2084 1.403 . S
C2087 C2088 1.524 . S
C2087 C2091 1.400 . S
C2088 H2073 0.960 . S
C2088 H2074 0.960 . S
C2088 H2075 0.960 . S
C2088 C2087 1.524 . S
C2089 C2086 1.403 . S
C2089 C2090 1.392 . S
C2089 C2093 1.495 . S
C2090 C2089 1.392 . S
C2090 C2091 1.385 . S
C2090 C2092 1.478 . S
C2091 H2085 0.930 . S
C2091 C2087 1.400 . S
C2091 C2090 1.385 . S
C2092 C2090 1.478 . S
C2092 C2094 1.381 . S
C2092 C2098 1.383 . S
C2093 C2089 1.495 . S
C2093 H2099 0.959 . S
C2093 H2100 0.961 . S
C2093 H2101 0.960 . S
C2094 C2092 1.381 . S
C2094 C2095 1.394 . S
C2094 H2102 0.930 . S
C2095 C2094 1.394 . S
C2095 C2096 1.383 . S
C2095 H2103 0.929 . S
C2096 C2095 1.383 . S
C2096 C2097 1.377 . S
C2097 H2081 0.930 . S
C2097 C2096 1.377 . S
C2097 C2098 1.379 . S
C2098 H2082 0.931 . S
C2098 C2092 1.383 . S
C2098 C2097 1.379 . S
H2099 C2093 0.959 . S
H2100 C2093 0.961 . S
H2101 C2093 0.960 . S
H2102 C2094 0.930 . S
H2103 C2095 0.929 . S
H2104 C2112 0.929 . S
H2105 C2114 0.930 . S
H2106 C2116 0.930 . S
H2107 C2119 0.929 . S
H2108 C2122 0.930 . S
H2109 C2124 0.960 . S
H2110 C2124 0.960 . S
H2111 C2124 0.960 . S
C2112 H2104 0.929 . S
C2112 C2113 1.377 . S
C2112 C2114 1.384 . S
C2113 C2112 1.377 . S
C2113 C2119 1.390 . S
C2114 H2105 0.930 . S
C2114 C2112 1.384 . S
C2114 C2115 1.372 . S
C2115 C2114 1.372 . S
C2115 C2116 1.400 . S
C2115 C2120 1.490 . S
C2116 H2106 0.930 . S
C2116 C2115 1.400 . S
C2116 C2119 1.386 . S
H2117 C2133 0.930 . S
H2118 C2134 0.931 . S
C2119 H2107 0.929 . S
C2119 C2113 1.390 . S
C2119 C2116 1.386 . S
C2120 C2115 1.490 . S
C2120 C2122 1.395 . S
C2120 C2123 1.403 . S
H2121 C2127 0.930 . S
C2122 H2108 0.930 . S
C2122 C2120 1.395 . S
C2122 C2125 1.403 . S
C2123 C2120 1.403 . S
C2123 C2124 1.524 . S
C2123 C2127 1.400 . S
C2124 H2109 0.960 . S
C2124 H2110 0.960 . S
C2124 H2111 0.960 . S
C2124 C2123 1.524 . S
C2125 C2122 1.403 . S
C2125 C2126 1.392 . S
C2125 C2129 1.495 . S
C2126 C2125 1.392 . S
C2126 C2127 1.385 . S
C2126 C2128 1.478 . S
C2127 H2121 0.930 . S
C2127 C2123 1.400 . S
C2127 C2126 1.385 . S
C2128 C2126 1.478 . S
C2128 C2130 1.381 . S
C2128 C2134 1.383 . S
C2129 C2125 1.495 . S
C2129 H2135 0.959 . S
C2129 H2136 0.961 . S
C2129 H2137 0.960 . S
C2130 C2128 1.381 . S
C2130 C2131 1.394 . S
C2130 H2138 0.930 . S
C2131 C2130 1.394 . S
C2131 C2132 1.383 . S
C2131 H2139 0.929 . S
C2132 C2131 1.383 . S
C2132 C2133 1.377 . S
C2133 H2117 0.930 . S
C2133 C2132 1.377 . S
C2133 C2134 1.379 . S
C2134 H2118 0.931 . S
C2134 C2128 1.383 . S
C2134 C2133 1.379 . S
H2135 C2129 0.959 . S
H2136 C2129 0.961 . S
H2137 C2129 0.960 . S
H2138 C2130 0.930 . S
H2139 C2131 0.929 . S
H2140 C2148 0.929 . S
H2141 C2150 0.930 1_556 S
H2142 C2152 0.930 . S
H2143 C2155 0.929 . S
H2144 C2158 0.930 . S
H2145 C2160 0.949 1_556 S
H2146 C2160 0.960 . S
H2147 C2160 0.960 . S
C2148 H2140 0.929 . S
C2148 C2149 1.377 . S
C2148 C2150 1.384 . S
C2149 C2148 1.377 . S
C2149 C2155 1.390 . S
C2150 H2141 0.930 1_554 S
C2150 C2148 1.384 . S
C2150 C2151 1.372 . S
C2151 C2150 1.372 . S
C2151 C2152 1.400 . S
C2151 C2156 1.490 1_554 S
C2152 H2142 0.930 . S
C2152 C2151 1.400 . S
C2152 C2155 1.386 . S
H2153 C2169 0.930 . S
H2154 C2170 0.931 . S
C2155 H2143 0.929 . S
C2155 C2149 1.390 . S
C2155 C2152 1.386 . S
C2156 C2151 1.490 1_556 S
C2156 C2158 1.395 . S
C2156 C2159 1.403 . S
H2157 C2163 0.930 . S
C2158 H2144 0.930 . S
C2158 C2156 1.395 . S
C2158 C2161 1.403 . S
C2159 C2156 1.403 . S
C2159 C2160 1.524 1_556 S
C2159 C2163 1.400 . S
C2160 H2145 0.949 1_554 S
C2160 H2146 0.960 . S
C2160 H2147 0.960 . S
C2160 C2159 1.524 1_554 S
C2161 C2158 1.403 . S
C2161 C2162 1.392 . S
C2161 C2165 1.495 . S
C2162 C2161 1.392 . S
C2162 C2163 1.385 . S
C2162 C2164 1.478 . S
C2163 H2157 0.930 . S
C2163 C2159 1.400 . S
C2163 C2162 1.385 . S
C2164 C2162 1.478 . S
C2164 C2166 1.381 . S
C2164 C2170 1.383 . S
C2165 C2161 1.495 . S
C2165 H2171 0.959 . S
C2165 H2172 0.961 . S
C2165 H2173 0.960 . S
C2166 C2164 1.381 . S
C2166 C2167 1.394 . S
C2166 H2174 0.930 . S
C2167 C2166 1.394 . S
C2167 C2168 1.383 . S
C2167 H2175 0.929 . S
C2168 C2167 1.383 . S
C2168 C2169 1.377 . S
C2169 H2153 0.930 . S
C2169 C2168 1.377 . S
C2169 C2170 1.379 . S
C2170 H2154 0.931 . S
C2170 C2164 1.383 . S
C2170 C2169 1.379 . S
H2171 C2165 0.959 . S
H2172 C2165 0.961 . S
H2173 C2165 0.960 . S
H2174 C2166 0.930 . S
H2175 C2167 0.929 . S
H2176 C2184 0.929 . S
H2177 C2186 0.930 . S
H2178 C2188 0.930 . S
H2179 C2191 0.929 . S
H2180 C2194 0.930 . S
H2181 C2196 0.960 . S
H2182 C2196 0.960 . S
H2183 C2196 0.960 . S
C2184 H2176 0.929 . S
C2184 C2185 1.377 . S
C2184 C2186 1.384 . S
C2185 C2184 1.377 . S
C2185 C2191 1.390 . S
C2186 H2177 0.930 . S
C2186 C2184 1.384 . S
C2186 C2187 1.372 . S
C2187 C2186 1.372 . S
C2187 C2188 1.400 . S
C2187 C2192 1.490 . S
C2188 H2178 0.930 . S
C2188 C2187 1.400 . S
C2188 C2191 1.386 . S
H2189 C2205 0.930 . S
H2190 C2206 0.931 . S
C2191 H2179 0.929 . S
C2191 C2185 1.390 . S
C2191 C2188 1.386 . S
C2192 C2187 1.490 . S
C2192 C2194 1.395 . S
C2192 C2195 1.403 . S
H2193 C2199 0.930 . S
C2194 H2180 0.930 . S
C2194 C2192 1.395 . S
C2194 C2197 1.403 . S
C2195 C2192 1.403 . S
C2195 C2196 1.524 . S
C2195 C2199 1.400 . S
C2196 H2181 0.960 . S
C2196 H2182 0.960 . S
C2196 H2183 0.960 . S
C2196 C2195 1.524 . S
C2197 C2194 1.403 . S
C2197 C2198 1.392 . S
C2197 C2201 1.495 . S
C2198 C2197 1.392 . S
C2198 C2199 1.385 . S
C2198 C2200 1.478 . S
C2199 H2193 0.930 . S
C2199 C2195 1.400 . S
C2199 C2198 1.385 . S
C2200 C2198 1.478 . S
C2200 C2202 1.381 . S
C2200 C2206 1.383 . S
C2201 C2197 1.495 . S
C2201 H2207 0.959 . S
C2201 H2208 0.961 . S
C2201 H2209 0.960 . S
C2202 C2200 1.381 . S
C2202 C2203 1.394 . S
C2202 H2210 0.930 . S
C2203 C2202 1.394 . S
C2203 C2204 1.383 . S
C2203 H2211 0.929 . S
C2204 C2203 1.383 . S
C2204 C2205 1.377 . S
C2205 H2189 0.930 . S
C2205 C2204 1.377 . S
C2205 C2206 1.379 . S
C2206 H2190 0.931 . S
C2206 C2200 1.383 . S
C2206 C2205 1.379 . S
H2207 C2201 0.959 . S
H2208 C2201 0.961 . S
H2209 C2201 0.960 . S
H2210 C2202 0.930 . S
H2211 C2203 0.929 . S
H2212 C2220 0.929 . S
H2213 C2222 0.930 . S
H2214 C2224 0.930 . S
H2215 C2227 0.929 . S
H2216 C2230 0.930 . S
H2217 C2232 0.960 . S
H2218 C2232 0.960 . S
H2219 C2232 0.960 . S
C2220 H2212 0.929 . S
C2220 C2221 1.377 . S
C2220 C2222 1.384 . S
C2221 C2220 1.377 . S
C2221 C2227 1.390 . S
C2222 H2213 0.930 . S
C2222 C2220 1.384 . S
C2222 C2223 1.372 . S
C2223 C2222 1.372 . S
C2223 C2224 1.400 . S
C2223 C2228 1.490 . S
C2224 H2214 0.930 . S
C2224 C2223 1.400 . S
C2224 C2227 1.386 . S
H2225 C2241 0.930 . S
H2226 C2242 0.931 . S
C2227 H2215 0.929 . S
C2227 C2221 1.390 . S
C2227 C2224 1.386 . S
C2228 C2223 1.490 . S
C2228 C2230 1.395 . S
C2228 C2231 1.403 . S
H2229 C2235 0.930 . S
C2230 H2216 0.930 . S
C2230 C2228 1.395 . S
C2230 C2233 1.403 . S
C2231 C2228 1.403 . S
C2231 C2232 1.524 . S
C2231 C2235 1.400 . S
C2232 H2217 0.960 . S
C2232 H2218 0.960 . S
C2232 H2219 0.960 . S
C2232 C2231 1.524 . S
C2233 C2230 1.403 . S
C2233 C2234 1.392 . S
C2233 C2237 1.495 . S
C2234 C2233 1.392 . S
C2234 C2235 1.385 . S
C2234 C2236 1.478 . S
C2235 H2229 0.930 . S
C2235 C2231 1.400 . S
C2235 C2234 1.385 . S
C2236 C2234 1.478 . S
C2236 C2238 1.381 . S
C2236 C2242 1.383 . S
C2237 C2233 1.495 . S
C2237 H2243 0.959 . S
C2237 H2244 0.961 . S
C2237 H2245 0.960 . S
C2238 C2236 1.381 . S
C2238 C2239 1.394 . S
C2238 H2246 0.930 . S
C2239 C2238 1.394 . S
C2239 C2240 1.383 . S
C2239 H2247 0.929 . S
C2240 C2239 1.383 . S
C2240 C2241 1.377 . S
C2241 H2225 0.930 . S
C2241 C2240 1.377 . S
C2241 C2242 1.379 . S
C2242 H2226 0.931 . S
C2242 C2236 1.383 . S
C2242 C2241 1.379 . S
H2243 C2237 0.959 . S
H2244 C2237 0.961 . S
H2245 C2237 0.960 . S
H2246 C2238 0.930 . S
H2247 C2239 0.929 . S
H2248 C2256 0.929 . S
H2249 C2258 0.930 . S
H2250 C2260 0.930 . S
H2251 C2263 0.929 . S
H2252 C2266 0.930 . S
H2253 C2268 0.960 . S
H2254 C2268 0.960 . S
H2255 C2268 0.960 . S
C2256 H2248 0.929 . S
C2256 C2257 1.377 . S
C2256 C2258 1.384 . S
C2257 C2256 1.377 . S
C2257 C2263 1.390 . S
C2258 H2249 0.930 . S
C2258 C2256 1.384 . S
C2258 C2259 1.372 . S
C2259 C2258 1.372 . S
C2259 C2260 1.400 . S
C2259 C2264 1.490 . S
C2260 H2250 0.930 . S
C2260 C2259 1.400 . S
C2260 C2263 1.386 . S
H2261 C2277 0.930 . S
H2262 C2278 0.931 . S
C2263 H2251 0.929 . S
C2263 C2257 1.390 . S
C2263 C2260 1.386 . S
C2264 C2259 1.490 . S
C2264 C2266 1.395 . S
C2264 C2267 1.403 . S
H2265 C2271 0.930 . S
C2266 H2252 0.930 . S
C2266 C2264 1.395 . S
C2266 C2269 1.403 . S
C2267 C2264 1.403 . S
C2267 C2268 1.524 . S
C2267 C2271 1.400 . S
C2268 H2253 0.960 . S
C2268 H2254 0.960 . S
C2268 H2255 0.960 . S
C2268 C2267 1.524 . S
C2269 C2266 1.403 . S
C2269 C2270 1.392 . S
C2269 C2273 1.495 . S
C2270 C2269 1.392 . S
C2270 C2271 1.385 . S
C2270 C2272 1.478 . S
C2271 H2265 0.930 . S
C2271 C2267 1.400 . S
C2271 C2270 1.385 . S
C2272 C2270 1.478 . S
C2272 C2274 1.381 . S
C2272 C2278 1.383 . S
C2273 C2269 1.495 . S
C2273 H2279 0.959 . S
C2273 H2280 0.961 . S
C2273 H2281 0.960 . S
C2274 C2272 1.381 . S
C2274 C2275 1.394 . S
C2274 H2282 0.930 . S
C2275 C2274 1.394 . S
C2275 C2276 1.383 . S
C2275 H2283 0.929 . S
C2276 C2275 1.383 . S
C2276 C2277 1.377 . S
C2277 H2261 0.930 . S
C2277 C2276 1.377 . S
C2277 C2278 1.379 . S
C2278 H2262 0.931 . S
C2278 C2272 1.383 . S
C2278 C2277 1.379 . S
H2279 C2273 0.959 . S
H2280 C2273 0.961 . S
H2281 C2273 0.960 . S
H2282 C2274 0.930 . S
H2283 C2275 0.929 . S
H2284 C2292 0.929 . S
H2285 C2294 0.930 . S
H2286 C2296 0.930 . S
H2287 C2299 0.929 . S
H2288 C2302 0.930 . S
H2289 C2304 0.960 . S
H2290 C2304 0.960 . S
H2291 C2304 0.960 . S
C2292 H2284 0.929 . S
C2292 C2293 1.377 . S
C2292 C2294 1.384 . S
C2293 C2292 1.377 . S
C2293 C2299 1.390 . S
C2294 H2285 0.930 . S
C2294 C2292 1.384 . S
C2294 C2295 1.372 . S
C2295 C2294 1.372 . S
C2295 C2296 1.400 . S
C2295 C2300 1.490 1_554 S
C2296 H2286 0.930 . S
C2296 C2295 1.400 . S
C2296 C2299 1.386 . S
H2297 C2313 0.930 . S
H2298 C2314 0.931 . S
C2299 H2287 0.929 . S
C2299 C2293 1.390 . S
C2299 C2296 1.386 . S
C2300 C2295 1.490 1_556 S
C2300 C2302 1.395 . S
C2300 C2303 1.403 1_556 S
H2301 C2307 0.930 . S
C2302 H2288 0.930 . S
C2302 C2300 1.395 . S
C2302 C2305 1.403 . S
C2303 C2300 1.403 1_554 S
C2303 C2304 1.524 . S
C2303 C2307 1.400 1_554 S
C2304 H2289 0.960 . S
C2304 H2290 0.960 . S
C2304 H2291 0.960 . S
C2304 C2303 1.524 . S
C2305 C2302 1.403 . S
C2305 C2306 1.392 . S
C2305 C2309 1.495 . S
C2306 C2305 1.392 . S
C2306 C2307 1.385 . S
C2306 C2308 1.478 . S
C2307 H2301 0.930 . S
C2307 C2303 1.400 1_556 S
C2307 C2306 1.385 . S
C2308 C2306 1.478 . S
C2308 C2310 1.381 . S
C2308 C2314 1.383 . S
C2309 C2305 1.495 . S
C2309 H2315 0.959 . S
C2309 H2316 0.961 . S
C2309 H2317 0.960 . S
C2310 C2308 1.381 . S
C2310 C2311 1.394 . S
C2310 H2318 0.930 . S
C2311 C2310 1.394 . S
C2311 C2312 1.383 . S
C2311 H2319 0.929 . S
C2312 C2311 1.383 . S
C2312 C2313 1.377 . S
C2313 H2297 0.930 . S
C2313 C2312 1.377 . S
C2313 C2314 1.379 . S
C2314 H2298 0.931 . S
C2314 C2308 1.383 . S
C2314 C2313 1.379 . S
H2315 C2309 0.959 . S
H2316 C2309 0.961 . S
H2317 C2309 0.960 . S
H2318 C2310 0.930 . S
H2319 C2311 0.929 . S
H2320 C2328 0.929 . S
H2321 C2330 0.930 . S
H2322 C2332 0.930 . S
H2323 C2335 0.929 . S
H2324 C2338 0.930 . S
H2325 C2340 0.960 . S
H2326 C2340 0.960 . S
H2327 C2340 0.960 . S
C2328 H2320 0.929 . S
C2328 C2329 1.377 . S
C2328 C2330 1.384 . S
C2329 C2328 1.377 . S
C2329 C2335 1.390 . S
C2330 H2321 0.930 . S
C2330 C2328 1.384 . S
C2330 C2331 1.372 . S
C2331 C2330 1.372 . S
C2331 C2332 1.400 . S
C2331 C2336 1.490 . S
C2332 H2322 0.930 . S
C2332 C2331 1.400 . S
C2332 C2335 1.386 . S
H2333 C2349 0.930 . S
H2334 C2350 0.931 . S
C2335 H2323 0.929 . S
C2335 C2329 1.390 . S
C2335 C2332 1.386 . S
C2336 C2331 1.490 . S
C2336 C2338 1.395 . S
C2336 C2339 1.403 . S
H2337 C2343 0.930 . S
C2338 H2324 0.930 . S
C2338 C2336 1.395 . S
C2338 C2341 1.403 . S
C2339 C2336 1.403 . S
C2339 C2340 1.524 . S
C2339 C2343 1.400 . S
C2340 H2325 0.960 . S
C2340 H2326 0.960 . S
C2340 H2327 0.960 . S
C2340 C2339 1.524 . S
C2341 C2338 1.403 . S
C2341 C2342 1.392 . S
C2341 C2345 1.495 . S
C2342 C2341 1.392 . S
C2342 C2343 1.385 . S
C2342 C2344 1.478 . S
C2343 H2337 0.930 . S
C2343 C2339 1.400 . S
C2343 C2342 1.385 . S
C2344 C2342 1.478 . S
C2344 C2346 1.381 . S
C2344 C2350 1.383 . S
C2345 C2341 1.495 . S
C2345 H2351 0.959 . S
C2345 H2352 0.961 . S
C2345 H2353 0.960 . S
C2346 C2344 1.381 . S
C2346 C2347 1.394 . S
C2346 H2354 0.930 . S
C2347 C2346 1.394 . S
C2347 C2348 1.383 . S
C2347 H2355 0.929 . S
C2348 C2347 1.383 . S
C2348 C2349 1.377 . S
C2349 H2333 0.930 . S
C2349 C2348 1.377 . S
C2349 C2350 1.379 . S
C2350 H2334 0.931 . S
C2350 C2344 1.383 . S
C2350 C2349 1.379 . S
H2351 C2345 0.959 . S
H2352 C2345 0.961 . S
H2353 C2345 0.960 . S
H2354 C2346 0.930 . S
H2355 C2347 0.929 . S
H2356 C2364 0.929 . S
H2357 C2366 0.930 . S
H2358 C2368 0.930 . S
H2359 C2371 0.929 . S
H2360 C2374 0.930 . S
H2361 C2376 0.960 . S
H2362 C2376 0.960 . S
H2363 C2376 0.960 . S
C2364 H2356 0.929 . S
C2364 C2365 1.377 . S
C2364 C2366 1.384 . S
C2365 C2364 1.377 . S
C2365 C2371 1.390 . S
C2366 H2357 0.930 . S
C2366 C2364 1.384 . S
C2366 C2367 1.372 . S
C2367 C2366 1.372 . S
C2367 C2368 1.400 . S
C2367 C2372 1.490 . S
C2368 H2358 0.930 . S
C2368 C2367 1.400 . S
C2368 C2371 1.386 . S
H2369 C2385 0.930 . S
H2370 C2386 0.931 . S
C2371 H2359 0.929 . S
C2371 C2365 1.390 . S
C2371 C2368 1.386 . S
C2372 C2367 1.490 . S
C2372 C2374 1.395 . S
C2372 C2375 1.403 . S
H2373 C2379 0.930 . S
C2374 H2360 0.930 . S
C2374 C2372 1.395 . S
C2374 C2377 1.403 . S
C2375 C2372 1.403 . S
C2375 C2376 1.524 . S
C2375 C2379 1.400 . S
C2376 H2361 0.960 . S
C2376 H2362 0.960 . S
C2376 H2363 0.960 . S
C2376 C2375 1.524 . S
C2377 C2374 1.403 . S
C2377 C2378 1.392 . S
C2377 C2381 1.495 . S
C2378 C2377 1.392 . S
C2378 C2379 1.385 . S
C2378 C2380 1.478 . S
C2379 H2373 0.930 . S
C2379 C2375 1.400 . S
C2379 C2378 1.385 . S
C2380 C2378 1.478 . S
C2380 C2382 1.381 . S
C2380 C2386 1.383 . S
C2381 C2377 1.495 . S
C2381 H2387 0.959 . S
C2381 H2388 0.961 . S
C2381 H2389 0.960 . S
C2382 C2380 1.381 . S
C2382 C2383 1.394 . S
C2382 H2390 0.930 . S
C2383 C2382 1.394 . S
C2383 C2384 1.383 . S
C2383 H2391 0.929 . S
C2384 C2383 1.383 . S
C2384 C2385 1.377 . S
C2385 H2369 0.930 . S
C2385 C2384 1.377 . S
C2385 C2386 1.379 . S
C2386 H2370 0.931 . S
C2386 C2380 1.383 . S
C2386 C2385 1.379 . S
H2387 C2381 0.959 . S
H2388 C2381 0.961 . S
H2389 C2381 0.960 . S
H2390 C2382 0.930 . S
H2391 C2383 0.929 . S
H2392 C2400 0.929 . S
H2393 C2402 0.930 . S
H2394 C2404 0.930 . S
H2395 C2407 0.929 . S
H2396 C2410 0.930 . S
H2397 C2412 0.960 . S
H2398 C2412 0.960 . S
H2399 C2412 0.960 . S
C2400 H2392 0.929 . S
C2400 C2401 1.377 . S
C2400 C2402 1.384 . S
C2401 C2400 1.377 . S
C2401 C2407 1.390 . S
C2402 H2393 0.930 . S
C2402 C2400 1.384 . S
C2402 C2403 1.372 . S
C2403 C2402 1.372 . S
C2403 C2404 1.400 . S
C2403 C2408 1.490 . S
C2404 H2394 0.930 . S
C2404 C2403 1.400 . S
C2404 C2407 1.386 . S
H2405 C2421 0.930 . S
H2406 C2422 0.931 . S
C2407 H2395 0.929 . S
C2407 C2401 1.390 . S
C2407 C2404 1.386 . S
C2408 C2403 1.490 . S
C2408 C2410 1.395 . S
C2408 C2411 1.403 . S
H2409 C2415 0.930 . S
C2410 H2396 0.930 . S
C2410 C2408 1.395 . S
C2410 C2413 1.403 . S
C2411 C2408 1.403 . S
C2411 C2412 1.524 . S
C2411 C2415 1.400 . S
C2412 H2397 0.960 . S
C2412 H2398 0.960 . S
C2412 H2399 0.960 . S
C2412 C2411 1.524 . S
C2413 C2410 1.403 . S
C2413 C2414 1.392 . S
C2413 C2417 1.495 . S
C2414 C2413 1.392 . S
C2414 C2415 1.385 . S
C2414 C2416 1.478 . S
C2415 H2409 0.930 . S
C2415 C2411 1.400 . S
C2415 C2414 1.385 . S
C2416 C2414 1.478 . S
C2416 C2418 1.381 . S
C2416 C2422 1.383 . S
C2417 C2413 1.495 . S
C2417 H2423 0.959 . S
C2417 H2424 0.961 . S
C2417 H2425 0.960 . S
C2418 C2416 1.381 . S
C2418 C2419 1.394 . S
C2418 H2426 0.930 . S
C2419 C2418 1.394 . S
C2419 C2420 1.383 . S
C2419 H2427 0.929 . S
C2420 C2419 1.383 . S
C2420 C2421 1.377 . S
C2421 H2405 0.930 . S
C2421 C2420 1.377 . S
C2421 C2422 1.379 . S
C2422 H2406 0.931 . S
C2422 C2416 1.383 . S
C2422 C2421 1.379 . S
H2423 C2417 0.959 . S
H2424 C2417 0.961 . S
H2425 C2417 0.960 . S
H2426 C2418 0.930 . S
H2427 C2419 0.929 . S
H2428 C2436 0.929 . S
H2429 C2438 0.930 . S
H2430 C2440 0.930 . S
H2431 C2443 0.929 . S
H2432 C2446 0.930 . S
H2433 C2448 0.960 . S
H2434 C2448 0.960 . S
H2435 C2448 0.960 . S
C2436 H2428 0.929 . S
C2436 C2437 1.377 . S
C2436 C2438 1.384 . S
C2437 C2436 1.377 . S
C2437 C2443 1.390 . S
C2438 H2429 0.930 . S
C2438 C2436 1.384 . S
C2438 C2439 1.372 . S
C2439 C2438 1.372 . S
C2439 C2440 1.400 . S
C2439 C2444 1.490 . S
C2440 H2430 0.930 . S
C2440 C2439 1.400 . S
C2440 C2443 1.386 . S
H2441 C2457 0.930 . S
H2442 C2458 0.931 . S
C2443 H2431 0.929 . S
C2443 C2437 1.390 . S
C2443 C2440 1.386 . S
C2444 C2439 1.490 . S
C2444 C2446 1.395 . S
C2444 C2447 1.403 . S
H2445 C2451 0.930 . S
C2446 H2432 0.930 . S
C2446 C2444 1.395 . S
C2446 C2449 1.403 . S
C2447 C2444 1.403 . S
C2447 C2448 1.524 . S
C2447 C2451 1.400 . S
C2448 H2433 0.960 . S
C2448 H2434 0.960 . S
C2448 H2435 0.960 . S
C2448 C2447 1.524 . S
C2449 C2446 1.403 . S
C2449 C2450 1.392 . S
C2449 C2453 1.495 . S
C2450 C2449 1.392 . S
C2450 C2451 1.385 . S
C2450 C2452 1.478 . S
C2451 H2445 0.930 . S
C2451 C2447 1.400 . S
C2451 C2450 1.385 . S
C2452 C2450 1.478 . S
C2452 C2454 1.381 . S
C2452 C2458 1.383 . S
C2453 C2449 1.495 . S
C2453 H2459 0.959 . S
C2453 H2460 0.961 . S
C2453 H2461 0.960 . S
C2454 C2452 1.381 . S
C2454 C2455 1.394 . S
C2454 H2462 0.930 . S
C2455 C2454 1.394 . S
C2455 C2456 1.383 . S
C2455 H2463 0.929 . S
C2456 C2455 1.383 . S
C2456 C2457 1.377 . S
C2457 H2441 0.930 . S
C2457 C2456 1.377 . S
C2457 C2458 1.379 . S
C2458 H2442 0.931 . S
C2458 C2452 1.383 . S
C2458 C2457 1.379 . S
H2459 C2453 0.959 . S
H2460 C2453 0.961 . S
H2461 C2453 0.960 . S
H2462 C2454 0.930 . S
H2463 C2455 0.929 . S
H2464 C2472 0.929 . S
H2465 C2474 0.930 . S
H2466 C2476 0.930 . S
H2467 C2479 0.929 . S
H2468 C2482 0.930 . S
H2469 C2484 0.960 . S
H2470 C2484 0.960 . S
H2471 C2484 0.960 . S
C2472 H2464 0.929 . S
C2472 C2473 1.377 . S
C2472 C2474 1.384 . S
C2473 C2472 1.377 . S
C2473 C2479 1.390 . S
C2474 H2465 0.930 . S
C2474 C2472 1.384 . S
C2474 C2475 1.372 . S
C2475 C2474 1.372 . S
C2475 C2476 1.400 . S
C2475 C2480 1.490 . S
C2476 H2466 0.930 . S
C2476 C2475 1.400 . S
C2476 C2479 1.386 . S
H2477 C2493 0.930 . S
H2478 C2494 0.931 . S
C2479 H2467 0.929 . S
C2479 C2473 1.390 . S
C2479 C2476 1.386 . S
C2480 C2475 1.490 . S
C2480 C2482 1.395 . S
C2480 C2483 1.403 . S
H2481 C2487 0.930 . S
C2482 H2468 0.930 . S
C2482 C2480 1.395 . S
C2482 C2485 1.403 . S
C2483 C2480 1.403 . S
C2483 C2484 1.524 . S
C2483 C2487 1.400 . S
C2484 H2469 0.960 . S
C2484 H2470 0.960 . S
C2484 H2471 0.960 . S
C2484 C2483 1.524 . S
C2485 C2482 1.403 . S
C2485 C2486 1.392 . S
C2485 C2489 1.495 . S
C2486 C2485 1.392 . S
C2486 C2487 1.385 . S
C2486 C2488 1.476 1_554 S
C2487 H2481 0.930 . S
C2487 C2483 1.400 . S
C2487 C2486 1.385 . S
C2488 C2486 1.476 1_556 S
C2488 C2490 1.384 . S
C2488 C2494 1.382 1_556 S
C2489 C2485 1.495 . S
C2489 H2495 0.959 . S
C2489 H2496 0.961 . S
C2489 H2497 0.960 1_554 S
C2490 C2488 1.384 . S
C2490 C2491 1.394 . S
C2490 H2498 0.930 . S
C2491 C2490 1.394 . S
C2491 C2492 1.383 . S
C2491 H2499 0.929 . S
C2492 C2491 1.383 . S
C2492 C2493 1.377 . S
C2493 H2477 0.930 . S
C2493 C2492 1.377 . S
C2493 C2494 1.379 1_556 S
C2494 H2478 0.931 . S
C2494 C2488 1.382 1_554 S
C2494 C2493 1.379 1_554 S
H2495 C2489 0.959 . S
H2496 C2489 0.961 . S
H2497 C2489 0.960 1_556 S
H2498 C2490 0.930 . S
H2499 C2491 0.929 . S
H2500 C2508 0.929 . S
H2501 C2510 0.930 . S
H2502 C2512 0.930 . S
H2503 C2515 0.929 . S
H2504 C2518 0.930 . S
H2505 C2520 0.960 . S
H2506 C2520 0.960 . S
H2507 C2520 0.960 . S
C2508 H2500 0.929 . S
C2508 C2509 1.377 . S
C2508 C2510 1.384 . S
C2509 C2508 1.377 . S
C2509 C2515 1.390 . S
C2510 H2501 0.930 . S
C2510 C2508 1.384 . S
C2510 C2511 1.372 . S
C2511 C2510 1.372 . S
C2511 C2512 1.400 . S
C2511 C2516 1.490 . S
C2512 H2502 0.930 . S
C2512 C2511 1.400 . S
C2512 C2515 1.386 . S
H2513 C2529 0.930 . S
H2514 C2530 0.931 . S
C2515 H2503 0.929 . S
C2515 C2509 1.390 . S
C2515 C2512 1.386 . S
C2516 C2511 1.490 . S
C2516 C2518 1.395 . S
C2516 C2519 1.403 . S
H2517 C2523 0.930 . S
C2518 H2504 0.930 . S
C2518 C2516 1.395 . S
C2518 C2521 1.403 . S
C2519 C2516 1.403 . S
C2519 C2520 1.524 . S
C2519 C2523 1.400 . S
C2520 H2505 0.960 . S
C2520 H2506 0.960 . S
C2520 H2507 0.960 . S
C2520 C2519 1.524 . S
C2521 C2518 1.403 . S
C2521 C2522 1.392 . S
C2521 C2525 1.495 . S
C2522 C2521 1.392 . S
C2522 C2523 1.385 . S
C2522 C2524 1.478 . S
C2523 H2517 0.930 . S
C2523 C2519 1.400 . S
C2523 C2522 1.385 . S
C2524 C2522 1.478 . S
C2524 C2526 1.381 . S
C2524 C2530 1.383 . S
C2525 C2521 1.495 . S
C2525 H2531 0.959 . S
C2525 H2532 0.961 . S
C2525 H2533 0.960 . S
C2526 C2524 1.381 . S
C2526 C2527 1.394 . S
C2526 H2534 0.930 . S
C2527 C2526 1.394 . S
C2527 C2528 1.383 . S
C2527 H2535 0.929 . S
C2528 C2527 1.383 . S
C2528 C2529 1.377 . S
C2529 H2513 0.930 . S
C2529 C2528 1.377 . S
C2529 C2530 1.379 . S
C2530 H2514 0.931 . S
C2530 C2524 1.383 . S
C2530 C2529 1.379 . S
H2531 C2525 0.959 . S
H2532 C2525 0.961 . S
H2533 C2525 0.960 . S
H2534 C2526 0.930 . S
H2535 C2527 0.929 . S
H2536 C2544 0.929 . S
H2537 C2546 0.930 . S
H2538 C2548 0.930 . S
H2539 C2551 0.929 . S
H2540 C2554 0.930 . S
H2541 C2556 0.960 . S
H2542 C2556 0.960 . S
H2543 C2556 0.960 . S
C2544 H2536 0.929 . S
C2544 C2545 1.377 . S
C2544 C2546 1.384 . S
C2545 C2544 1.377 . S
C2545 C2551 1.390 . S
C2546 H2537 0.930 . S
C2546 C2544 1.384 . S
C2546 C2547 1.372 . S
C2547 C2546 1.372 . S
C2547 C2548 1.400 . S
C2547 C2552 1.490 . S
C2548 H2538 0.930 . S
C2548 C2547 1.400 . S
C2548 C2551 1.386 . S
H2549 C2565 0.930 . S
H2550 C2566 0.931 . S
C2551 H2539 0.929 . S
C2551 C2545 1.390 . S
C2551 C2548 1.386 . S
C2552 C2547 1.490 . S
C2552 C2554 1.395 . S
C2552 C2555 1.403 . S
H2553 C2559 0.930 . S
C2554 H2540 0.930 . S
C2554 C2552 1.395 . S
C2554 C2557 1.403 . S
C2555 C2552 1.403 . S
C2555 C2556 1.524 . S
C2555 C2559 1.400 . S
C2556 H2541 0.960 . S
C2556 H2542 0.960 . S
C2556 H2543 0.960 . S
C2556 C2555 1.524 . S
C2557 C2554 1.403 . S
C2557 C2558 1.392 . S
C2557 C2561 1.495 . S
C2558 C2557 1.392 . S
C2558 C2559 1.385 . S
C2558 C2560 1.478 . S
C2559 H2553 0.930 . S
C2559 C2555 1.400 . S
C2559 C2558 1.385 . S
C2560 C2558 1.478 . S
C2560 C2562 1.381 . S
C2560 C2566 1.383 . S
C2561 C2557 1.495 . S
C2561 H2567 0.959 . S
C2561 H2568 0.961 . S
C2561 H2569 0.960 . S
C2562 C2560 1.381 . S
C2562 C2563 1.394 . S
C2562 H2570 0.930 . S
C2563 C2562 1.394 . S
C2563 C2564 1.383 . S
C2563 H2571 0.929 . S
C2564 C2563 1.383 . S
C2564 C2565 1.377 . S
C2565 H2549 0.930 . S
C2565 C2564 1.377 . S
C2565 C2566 1.379 . S
C2566 H2550 0.931 . S
C2566 C2560 1.383 . S
C2566 C2565 1.379 . S
H2567 C2561 0.959 . S
H2568 C2561 0.961 . S
H2569 C2561 0.960 . S
H2570 C2562 0.930 . S
H2571 C2563 0.929 . S
H2572 C2580 0.929 . S
H2573 C2582 0.930 . S
H2574 C2584 0.930 . S
H2575 C2587 0.929 . S
H2576 C2590 0.930 . S
H2577 C2592 0.960 . S
H2578 C2592 0.960 . S
H2579 C2592 0.960 . S
C2580 H2572 0.929 . S
C2580 C2581 1.377 . S
C2580 C2582 1.384 . S
C2581 C2580 1.377 . S
C2581 C2587 1.390 . S
C2582 H2573 0.930 . S
C2582 C2580 1.384 . S
C2582 C2583 1.372 . S
C2583 C2582 1.372 . S
C2583 C2584 1.400 . S
C2583 C2588 1.490 . S
C2584 H2574 0.930 . S
C2584 C2583 1.400 . S
C2584 C2587 1.386 . S
H2585 C2601 0.930 . S
H2586 C2602 0.931 . S
C2587 H2575 0.929 . S
C2587 C2581 1.390 . S
C2587 C2584 1.386 . S
C2588 C2583 1.490 . S
C2588 C2590 1.395 . S
C2588 C2591 1.403 . S
H2589 C2595 0.930 . S
C2590 H2576 0.930 . S
C2590 C2588 1.395 . S
C2590 C2593 1.403 . S
C2591 C2588 1.403 . S
C2591 C2592 1.524 . S
C2591 C2595 1.400 . S
C2592 H2577 0.960 . S
C2592 H2578 0.960 . S
C2592 H2579 0.960 . S
C2592 C2591 1.524 . S
C2593 C2590 1.403 . S
C2593 C2594 1.392 . S
C2593 C2597 1.495 . S
C2594 C2593 1.392 . S
C2594 C2595 1.385 . S
C2594 C2596 1.478 . S
C2595 H2589 0.930 . S
C2595 C2591 1.400 . S
C2595 C2594 1.385 . S
C2596 C2594 1.478 . S
C2596 C2598 1.381 . S
C2596 C2602 1.383 . S
C2597 C2593 1.495 . S
C2597 H2603 0.959 . S
C2597 H2604 0.961 . S
C2597 H2605 0.960 . S
C2598 C2596 1.381 . S
C2598 C2599 1.394 . S
C2598 H2606 0.930 . S
C2599 C2598 1.394 . S
C2599 C2600 1.383 . S
C2599 H2607 0.929 . S
C2600 C2599 1.383 . S
C2600 C2601 1.377 . S
C2601 H2585 0.930 . S
C2601 C2600 1.377 . S
C2601 C2602 1.379 . S
C2602 H2586 0.931 . S
C2602 C2596 1.383 . S
C2602 C2601 1.379 . S
H2603 C2597 0.959 . S
H2604 C2597 0.961 . S
H2605 C2597 0.960 . S
H2606 C2598 0.930 . S
H2607 C2599 0.929 . S
H2608 C2616 0.929 . S
H2609 C2618 0.930 1_556 S
H2610 C2620 0.930 . S
H2611 C2623 0.929 . S
H2612 C2626 0.930 . S
H2613 C2628 0.960 . S
H2614 C2628 0.960 . S
H2615 C2628 0.960 . S
C2616 H2608 0.929 . S
C2616 C2617 1.377 . S
C2616 C2618 1.384 . S
C2617 C2616 1.377 . S
C2617 C2623 1.390 . S
C2618 H2609 0.930 1_554 S
C2618 C2616 1.384 . S
C2618 C2619 1.372 . S
C2619 C2618 1.372 . S
C2619 C2620 1.400 . S
C2619 C2624 1.490 1_554 S
C2620 H2610 0.930 . S
C2620 C2619 1.400 . S
C2620 C2623 1.386 . S
H2621 C2637 0.930 . S
H2622 C2638 0.931 . S
C2623 H2611 0.929 . S
C2623 C2617 1.390 . S
C2623 C2620 1.386 . S
C2624 C2619 1.490 1_556 S
C2624 C2626 1.395 . S
C2624 C2627 1.403 . S
H2625 C2631 0.930 . S
C2626 H2612 0.930 . S
C2626 C2624 1.395 . S
C2626 C2629 1.403 . S
C2627 C2624 1.403 . S
C2627 C2628 1.524 . S
C2627 C2631 1.400 . S
C2628 H2613 0.960 . S
C2628 H2614 0.960 . S
C2628 H2615 0.960 . S
C2628 C2627 1.524 . S
C2629 C2626 1.403 . S
C2629 C2630 1.392 . S
C2629 C2633 1.495 . S
C2630 C2629 1.392 . S
C2630 C2631 1.385 . S
C2630 C2632 1.478 . S
C2631 H2625 0.930 . S
C2631 C2627 1.400 . S
C2631 C2630 1.385 . S
C2632 C2630 1.478 . S
C2632 C2634 1.381 . S
C2632 C2638 1.383 . S
C2633 C2629 1.495 . S
C2633 H2639 0.959 . S
C2633 H2640 0.961 . S
C2633 H2641 0.960 . S
C2634 C2632 1.381 . S
C2634 C2635 1.394 . S
C2634 H2642 0.930 . S
C2635 C2634 1.394 . S
C2635 C2636 1.383 . S
C2635 H2643 0.929 . S
C2636 C2635 1.383 . S
C2636 C2637 1.377 . S
C2637 H2621 0.930 . S
C2637 C2636 1.377 . S
C2637 C2638 1.379 . S
C2638 H2622 0.931 . S
C2638 C2632 1.383 . S
C2638 C2637 1.379 . S
H2639 C2633 0.959 . S
H2640 C2633 0.961 . S
H2641 C2633 0.960 . S
H2642 C2634 0.930 . S
H2643 C2635 0.929 . S
H2644 C2652 0.929 . S
H2645 C2654 0.930 . S
H2646 C2656 0.930 . S
H2647 C2659 0.929 . S
H2648 C2662 0.930 . S
H2649 C2664 0.960 . S
H2650 C2664 0.960 . S
H2651 C2664 0.960 . S
C2652 H2644 0.929 . S
C2652 C2653 1.377 . S
C2652 C2654 1.384 . S
C2653 C2652 1.377 . S
C2653 C2659 1.390 . S
C2654 H2645 0.930 . S
C2654 C2652 1.384 . S
C2654 C2655 1.372 . S
C2655 C2654 1.372 . S
C2655 C2656 1.400 . S
C2655 C2660 1.490 . S
C2656 H2646 0.930 . S
C2656 C2655 1.400 . S
C2656 C2659 1.386 . S
H2657 C2673 0.930 . S
H2658 C2674 0.931 . S
C2659 H2647 0.929 . S
C2659 C2653 1.390 . S
C2659 C2656 1.386 . S
C2660 C2655 1.490 . S
C2660 C2662 1.395 . S
C2660 C2663 1.403 . S
H2661 C2667 0.930 . S
C2662 H2648 0.930 . S
C2662 C2660 1.395 . S
C2662 C2665 1.403 . S
C2663 C2660 1.403 . S
C2663 C2664 1.524 . S
C2663 C2667 1.400 . S
C2664 H2649 0.960 . S
C2664 H2650 0.960 . S
C2664 H2651 0.960 . S
C2664 C2663 1.524 . S
C2665 C2662 1.403 . S
C2665 C2666 1.392 . S
C2665 C2669 1.495 . S
C2666 C2665 1.392 . S
C2666 C2667 1.385 . S
C2666 C2668 1.478 . S
C2667 H2661 0.930 . S
C2667 C2663 1.400 . S
C2667 C2666 1.385 . S
C2668 C2666 1.478 . S
C2668 C2670 1.381 . S
C2668 C2674 1.383 . S
C2669 C2665 1.495 . S
C2669 H2675 0.959 . S
C2669 H2676 0.961 . S
C2669 H2677 0.960 . S
C2670 C2668 1.381 . S
C2670 C2671 1.394 . S
C2670 H2678 0.930 . S
C2671 C2670 1.394 . S
C2671 C2672 1.383 . S
C2671 H2679 0.929 . S
C2672 C2671 1.383 . S
C2672 C2673 1.377 . S
C2673 H2657 0.930 . S
C2673 C2672 1.377 . S
C2673 C2674 1.379 . S
C2674 H2658 0.931 . S
C2674 C2668 1.383 . S
C2674 C2673 1.379 . S
H2675 C2669 0.959 . S
H2676 C2669 0.961 . S
H2677 C2669 0.960 . S
H2678 C2670 0.930 . S
H2679 C2671 0.929 . S
H2680 C2688 0.929 . S
H2681 C2690 0.930 . S
H2682 C2692 0.930 . S
H2683 C2695 0.929 . S
H2684 C2698 0.930 . S
H2685 C2700 0.960 . S
H2686 C2700 0.960 . S
H2687 C2700 0.960 . S
C2688 H2680 0.929 . S
C2688 C2689 1.377 . S
C2688 C2690 1.384 . S
C2689 C2688 1.377 . S
C2689 C2695 1.390 . S
C2690 H2681 0.930 . S
C2690 C2688 1.384 . S
C2690 C2691 1.372 . S
C2691 C2690 1.372 . S
C2691 C2692 1.400 . S
C2691 C2696 1.490 . S
C2692 H2682 0.930 . S
C2692 C2691 1.400 . S
C2692 C2695 1.386 . S
H2693 C2709 0.930 . S
H2694 C2710 0.931 . S
C2695 H2683 0.929 . S
C2695 C2689 1.390 . S
C2695 C2692 1.386 . S
C2696 C2691 1.490 . S
C2696 C2698 1.395 . S
C2696 C2699 1.403 . S
H2697 C2703 0.930 . S
C2698 H2684 0.930 . S
C2698 C2696 1.395 . S
C2698 C2701 1.403 . S
C2699 C2696 1.403 . S
C2699 C2700 1.524 . S
C2699 C2703 1.400 . S
C2700 H2685 0.960 . S
C2700 H2686 0.960 . S
C2700 H2687 0.960 . S
C2700 C2699 1.524 . S
C2701 C2698 1.403 . S
C2701 C2702 1.392 . S
C2701 C2705 1.495 . S
C2702 C2701 1.392 . S
C2702 C2703 1.385 . S
C2702 C2704 1.478 . S
C2703 H2697 0.930 . S
C2703 C2699 1.400 . S
C2703 C2702 1.385 . S
C2704 C2702 1.478 . S
C2704 C2706 1.381 . S
C2704 C2710 1.383 . S
C2705 C2701 1.495 . S
C2705 H2711 0.959 . S
C2705 H2712 0.961 . S
C2705 H2713 0.960 . S
C2706 C2704 1.381 . S
C2706 C2707 1.394 . S
C2706 H2714 0.930 . S
C2707 C2706 1.394 . S
C2707 C2708 1.383 . S
C2707 H2715 0.929 . S
C2708 C2707 1.383 . S
C2708 C2709 1.377 . S
C2709 H2693 0.930 . S
C2709 C2708 1.377 . S
C2709 C2710 1.379 . S
C2710 H2694 0.931 . S
C2710 C2704 1.383 . S
C2710 C2709 1.379 . S
H2711 C2705 0.959 . S
H2712 C2705 0.961 . S
H2713 C2705 0.960 . S
H2714 C2706 0.930 . S
H2715 C2707 0.929 . S
H2716 C2724 0.929 . S
H2717 C2726 0.930 . S
H2718 C2728 0.930 . S
H2719 C2731 0.929 . S
H2720 C2734 0.930 . S
H2721 C2736 0.960 . S
H2722 C2736 0.960 . S
H2723 C2736 0.960 . S
C2724 H2716 0.929 . S
C2724 C2725 1.377 . S
C2724 C2726 1.384 . S
C2725 C2724 1.377 . S
C2725 C2731 1.390 . S
C2726 H2717 0.930 . S
C2726 C2724 1.384 . S
C2726 C2727 1.372 . S
C2727 C2726 1.372 . S
C2727 C2728 1.400 . S
C2727 C2732 1.490 . S
C2728 H2718 0.930 . S
C2728 C2727 1.400 . S
C2728 C2731 1.386 . S
H2729 C2745 0.930 . S
H2730 C2746 0.931 . S
C2731 H2719 0.929 . S
C2731 C2725 1.390 . S
C2731 C2728 1.386 . S
C2732 C2727 1.490 . S
C2732 C2734 1.395 . S
C2732 C2735 1.403 . S
H2733 C2739 0.930 . S
C2734 H2720 0.930 . S
C2734 C2732 1.395 . S
C2734 C2737 1.403 . S
C2735 C2732 1.403 . S
C2735 C2736 1.524 . S
C2735 C2739 1.400 . S
C2736 H2721 0.960 . S
C2736 H2722 0.960 . S
C2736 H2723 0.960 . S
C2736 C2735 1.524 . S
C2737 C2734 1.403 . S
C2737 C2738 1.392 . S
C2737 C2741 1.495 . S
C2738 C2737 1.392 . S
C2738 C2739 1.385 . S
C2738 C2740 1.478 . S
C2739 H2733 0.930 . S
C2739 C2735 1.400 . S
C2739 C2738 1.385 . S
C2740 C2738 1.478 . S
C2740 C2742 1.381 . S
C2740 C2746 1.383 . S
C2741 C2737 1.495 . S
C2741 H2747 0.959 . S
C2741 H2748 0.961 . S
C2741 H2749 0.960 . S
C2742 C2740 1.381 . S
C2742 C2743 1.394 . S
C2742 H2750 0.930 . S
C2743 C2742 1.394 . S
C2743 C2744 1.383 . S
C2743 H2751 0.929 . S
C2744 C2743 1.383 . S
C2744 C2745 1.377 . S
C2745 H2729 0.930 . S
C2745 C2744 1.377 . S
C2745 C2746 1.379 . S
C2746 H2730 0.931 . S
C2746 C2740 1.383 . S
C2746 C2745 1.379 . S
H2747 C2741 0.959 . S
H2748 C2741 0.961 . S
H2749 C2741 0.960 . S
H2750 C2742 0.930 . S
H2751 C2743 0.929 . S
C457 C9 0.181 . S
C476 C191 0.107 . S
C493 C359 1.576 . S
C512 C23 1.567 . S
C529 C37 0.172 . S
C548 C219 0.116 . S
C565 C51 1.617 . S
C584 C345 1.615 . S
C601 C65 2.541 . S
C620 C247 2.533 . S
C637 C79 1.524 . S
C656 C317 1.536 . S
C673 C93 2.389 . S
C692 C275 2.383 . S
C709 C443 0.541 . S
C728 C107 0.542 . S
C745 C303 2.539 . S
C764 C121 2.542 . S
C781 C135 1.525 . S
C800 C261 1.530 . S
C817 C331 2.386 . S
C836 C149 2.385 . S
C853 C163 1.615 . S
C872 C233 1.613 . S
C889 C205 1.574 . S
C908 C177 1.553 . S
C925 C289 0.545 . S
C944 C401 0.565 . S
C961 C415 0.051 . S
C980 C373 0.220 . S
C997 C429 0.050 . S
C1016 C387 0.209 . S
C1033 C8 1.562 . S
C1052 C22 1.546 . S
C1069 C34 1.755 . S
C1088 C21 1.891 . S
C1105 C50 1.702 . S
C1124 C36 1.708 . S
C1141 C49 1.459 . S
C1160 C6 1.402 . S
C1177 C105 2.059 . S
C1196 C64 2.107 . S
C1213 C76 1.067 . S
C1232 C62 1.055 . S
C1249 C91 1.818 . S
C1268 C77 1.781 . S
C1285 C92 1.412 . S
C1304 C104 1.276 . S
C1321 C134 1.845 . S
C1340 C7 1.823 . S
C1357 C119 1.083 . S
C1376 C48 1.055 . S
C1393 C146 1.035 . S
C1412 C20 0.991 . S
C1429 C385 2.327 1_455 S
C1448 C106 2.377 . S
C1465 C400 2.381 . S
C1484 C35 2.327 . S
C1501 C160 1.023 . S
C1520 C63 1.116 . S
C1537 C90 1.043 . S
C1556 C174 1.025 . S
C1573 C202 1.585 . S
C1592 C188 1.537 . S
C1609 C218 1.441 . S
C1628 C203 1.373 . S
C1645 C230 1.733 . S
C1664 C216 1.756 . S
C1681 C190 1.585 . S
C1700 C231 1.541 . S
C1717 C246 1.770 . S
C1736 C288 1.774 . S
C1753 C245 1.141 . S
C1772 C258 1.059 . S
C1789 C274 1.685 . S
C1808 C260 1.676 . S
C1825 C273 1.421 . S
C1844 C286 1.324 . S
C1861 C189 1.494 . S
C1880 C315 1.472 . S
C1897 C300 1.832 . S
C1916 C232 1.971 . S
C1933 C328 1.452 . S
C1952 C204 1.559 . S
C1969 C427 1.433 . S
C1988 C287 1.424 . S
C2005 C441 1.433 . S
C2024 C217 1.428 . S
C2041 C244 1.840 . S
C2060 C344 1.969 . S
C2077 C358 1.556 . S
C2096 C272 1.465 . S
C2113 C176 1.559 . S
C2132 C372 1.566 . S
C2149 C384 1.743 . S
C2168 C175 1.893 . S
C2185 C162 1.706 . S
C2204 C386 1.701 . S
C2221 C161 1.465 . S
C2240 C370 1.327 . S
C2257 C120 2.114 . S
C2276 C399 2.046 . S
C2293 C132 1.080 . S
C2312 C118 1.130 . S
C2329 C147 1.815 . S
C2348 C133 1.811 . S
C2365 C148 1.412 . S
C2384 C398 1.348 . S
C2401 C371 1.832 . S
C2420 C78 1.847 . S
C2437 C356 1.587 . S
C2456 C412 1.533 . S
C2473 C357 1.387 . S
C2492 C428 1.432 . S
C2509 C426 1.737 . S
C2528 C342 1.706 . S
C2545 C343 1.525 . S
C2564 C414 1.572 . S
C2581 C442 1.773 . S
C2600 C302 1.760 . S
C2617 C301 1.140 . S
C2636 C314 1.131 . S
C2653 C330 1.685 . S
C2672 C316 1.685 . S
C2689 C329 1.416 . S
C2708 C440 1.393 . S
C2725 C413 1.500 . S
C2744 C259 1.504 . S
