# Generated by pormake.
# Topology rho, (4)-cn, num edge types: 1
# Building blocks:
#     Node 0, Type 0, BuildingBlock: NAHDIM_clean_sbu_0, # of connection points: 4
#     Node 1, Type 0, BuildingBlock: NAHDIM_clean_sbu_0, # of connection points: 4
#     Node 2, Type 0, BuildingBlock: NAHDIM_clean_sbu_0, # of connection points: 4
#     Node 3, Type 0, BuildingBlock: NAHDIM_clean_sbu_0, # of connection points: 4
#     Node 4, Type 0, BuildingBlock: NAHDIM_clean_sbu_0, # of connection points: 4
#     Node 5, Type 0, BuildingBlock: NAHDIM_clean_sbu_0, # of connection points: 4
#     Node 6, Type 0, BuildingBlock: NAHDIM_clean_sbu_0, # of connection points: 4
#     Node 7, Type 0, BuildingBlock: NAHDIM_clean_sbu_0, # of connection points: 4
#     Node 8, Type 0, BuildingBlock: NAHDIM_clean_sbu_0, # of connection points: 4
#     Node 9, Type 0, BuildingBlock: NAHDIM_clean_sbu_0, # of connection points: 4
#     Node 10, Type 0, BuildingBlock: NAHDIM_clean_sbu_0, # of connection points: 4
#     Node 11, Type 0, BuildingBlock: NAHDIM_clean_sbu_0, # of connection points: 4
#     Node 12, Type 0, BuildingBlock: NAHDIM_clean_sbu_0, # of connection points: 4
#     Node 13, Type 0, BuildingBlock: NAHDIM_clean_sbu_0, # of connection points: 4
#     Node 14, Type 0, BuildingBlock: NAHDIM_clean_sbu_0, # of connection points: 4
#     Node 15, Type 0, BuildingBlock: NAHDIM_clean_sbu_0, # of connection points: 4
#     Node 16, Type 0, BuildingBlock: NAHDIM_clean_sbu_0, # of connection points: 4
#     Node 17, Type 0, BuildingBlock: NAHDIM_clean_sbu_0, # of connection points: 4
#     Node 18, Type 0, BuildingBlock: NAHDIM_clean_sbu_0, # of connection points: 4
#     Node 19, Type 0, BuildingBlock: NAHDIM_clean_sbu_0, # of connection points: 4
#     Node 20, Type 0, BuildingBlock: NAHDIM_clean_sbu_0, # of connection points: 4
#     Node 21, Type 0, BuildingBlock: NAHDIM_clean_sbu_0, # of connection points: 4
#     Node 22, Type 0, BuildingBlock: NAHDIM_clean_sbu_0, # of connection points: 4
#     Node 23, Type 0, BuildingBlock: NAHDIM_clean_sbu_0, # of connection points: 4
#     Node 24, Type 0, BuildingBlock: NAHDIM_clean_sbu_0, # of connection points: 4
#     Node 25, Type 0, BuildingBlock: NAHDIM_clean_sbu_0, # of connection points: 4
#     Node 26, Type 0, BuildingBlock: NAHDIM_clean_sbu_0, # of connection points: 4
#     Node 27, Type 0, BuildingBlock: NAHDIM_clean_sbu_0, # of connection points: 4
#     Node 28, Type 0, BuildingBlock: NAHDIM_clean_sbu_0, # of connection points: 4
#     Node 29, Type 0, BuildingBlock: NAHDIM_clean_sbu_0, # of connection points: 4
#     Node 30, Type 0, BuildingBlock: NAHDIM_clean_sbu_0, # of connection points: 4
#     Node 31, Type 0, BuildingBlock: NAHDIM_clean_sbu_0, # of connection points: 4
#     Node 32, Type 0, BuildingBlock: NAHDIM_clean_sbu_0, # of connection points: 4
#     Node 33, Type 0, BuildingBlock: NAHDIM_clean_sbu_0, # of connection points: 4
#     Node 34, Type 0, BuildingBlock: NAHDIM_clean_sbu_0, # of connection points: 4
#     Node 35, Type 0, BuildingBlock: NAHDIM_clean_sbu_0, # of connection points: 4
#     Node 36, Type 0, BuildingBlock: NAHDIM_clean_sbu_0, # of connection points: 4
#     Node 37, Type 0, BuildingBlock: NAHDIM_clean_sbu_0, # of connection points: 4
#     Node 38, Type 0, BuildingBlock: NAHDIM_clean_sbu_0, # of connection points: 4
#     Node 39, Type 0, BuildingBlock: NAHDIM_clean_sbu_0, # of connection points: 4
#     Node 40, Type 0, BuildingBlock: NAHDIM_clean_sbu_0, # of connection points: 4
#     Node 41, Type 0, BuildingBlock: NAHDIM_clean_sbu_0, # of connection points: 4
#     Node 42, Type 0, BuildingBlock: NAHDIM_clean_sbu_0, # of connection points: 4
#     Node 43, Type 0, BuildingBlock: NAHDIM_clean_sbu_0, # of connection points: 4
#     Node 44, Type 0, BuildingBlock: NAHDIM_clean_sbu_0, # of connection points: 4
#     Node 45, Type 0, BuildingBlock: NAHDIM_clean_sbu_0, # of connection points: 4
#     Node 46, Type 0, BuildingBlock: NAHDIM_clean_sbu_0, # of connection points: 4
#     Node 47, Type 0, BuildingBlock: NAHDIM_clean_sbu_0, # of connection points: 4
#     Edge 48, Type (0, 0), BuildingBlock: XIVTED_clean_linker_0, # of connection points: 2
#     Edge 49, Type (0, 0), BuildingBlock: XIVTED_clean_linker_0, # of connection points: 2
#     Edge 50, Type (0, 0), BuildingBlock: XIVTED_clean_linker_0, # of connection points: 2
#     Edge 51, Type (0, 0), BuildingBlock: XIVTED_clean_linker_0, # of connection points: 2
#     Edge 52, Type (0, 0), BuildingBlock: XIVTED_clean_linker_0, # of connection points: 2
#     Edge 53, Type (0, 0), BuildingBlock: XIVTED_clean_linker_0, # of connection points: 2
#     Edge 54, Type (0, 0), BuildingBlock: XIVTED_clean_linker_0, # of connection points: 2
#     Edge 55, Type (0, 0), BuildingBlock: XIVTED_clean_linker_0, # of connection points: 2
#     Edge 56, Type (0, 0), BuildingBlock: XIVTED_clean_linker_0, # of connection points: 2
#     Edge 57, Type (0, 0), BuildingBlock: XIVTED_clean_linker_0, # of connection points: 2
#     Edge 58, Type (0, 0), BuildingBlock: XIVTED_clean_linker_0, # of connection points: 2
#     Edge 59, Type (0, 0), BuildingBlock: XIVTED_clean_linker_0, # of connection points: 2
#     Edge 60, Type (0, 0), BuildingBlock: XIVTED_clean_linker_0, # of connection points: 2
#     Edge 61, Type (0, 0), BuildingBlock: XIVTED_clean_linker_0, # of connection points: 2
#     Edge 62, Type (0, 0), BuildingBlock: XIVTED_clean_linker_0, # of connection points: 2
#     Edge 63, Type (0, 0), BuildingBlock: XIVTED_clean_linker_0, # of connection points: 2
#     Edge 64, Type (0, 0), BuildingBlock: XIVTED_clean_linker_0, # of connection points: 2
#     Edge 65, Type (0, 0), BuildingBlock: XIVTED_clean_linker_0, # of connection points: 2
#     Edge 66, Type (0, 0), BuildingBlock: XIVTED_clean_linker_0, # of connection points: 2
#     Edge 67, Type (0, 0), BuildingBlock: XIVTED_clean_linker_0, # of connection points: 2
#     Edge 68, Type (0, 0), BuildingBlock: XIVTED_clean_linker_0, # of connection points: 2
#     Edge 69, Type (0, 0), BuildingBlock: XIVTED_clean_linker_0, # of connection points: 2
#     Edge 70, Type (0, 0), BuildingBlock: XIVTED_clean_linker_0, # of connection points: 2
#     Edge 71, Type (0, 0), BuildingBlock: XIVTED_clean_linker_0, # of connection points: 2
#     Edge 72, Type (0, 0), BuildingBlock: XIVTED_clean_linker_0, # of connection points: 2
#     Edge 73, Type (0, 0), BuildingBlock: XIVTED_clean_linker_0, # of connection points: 2
#     Edge 74, Type (0, 0), BuildingBlock: XIVTED_clean_linker_0, # of connection points: 2
#     Edge 75, Type (0, 0), BuildingBlock: XIVTED_clean_linker_0, # of connection points: 2
#     Edge 76, Type (0, 0), BuildingBlock: XIVTED_clean_linker_0, # of connection points: 2
#     Edge 77, Type (0, 0), BuildingBlock: XIVTED_clean_linker_0, # of connection points: 2
#     Edge 78, Type (0, 0), BuildingBlock: XIVTED_clean_linker_0, # of connection points: 2
#     Edge 79, Type (0, 0), BuildingBlock: XIVTED_clean_linker_0, # of connection points: 2
#     Edge 80, Type (0, 0), BuildingBlock: XIVTED_clean_linker_0, # of connection points: 2
#     Edge 81, Type (0, 0), BuildingBlock: XIVTED_clean_linker_0, # of connection points: 2
#     Edge 82, Type (0, 0), BuildingBlock: XIVTED_clean_linker_0, # of connection points: 2
#     Edge 83, Type (0, 0), BuildingBlock: XIVTED_clean_linker_0, # of connection points: 2
#     Edge 84, Type (0, 0), BuildingBlock: XIVTED_clean_linker_0, # of connection points: 2
#     Edge 85, Type (0, 0), BuildingBlock: XIVTED_clean_linker_0, # of connection points: 2
#     Edge 86, Type (0, 0), BuildingBlock: XIVTED_clean_linker_0, # of connection points: 2
#     Edge 87, Type (0, 0), BuildingBlock: XIVTED_clean_linker_0, # of connection points: 2
#     Edge 88, Type (0, 0), BuildingBlock: XIVTED_clean_linker_0, # of connection points: 2
#     Edge 89, Type (0, 0), BuildingBlock: XIVTED_clean_linker_0, # of connection points: 2
#     Edge 90, Type (0, 0), BuildingBlock: XIVTED_clean_linker_0, # of connection points: 2
#     Edge 91, Type (0, 0), BuildingBlock: XIVTED_clean_linker_0, # of connection points: 2
#     Edge 92, Type (0, 0), BuildingBlock: XIVTED_clean_linker_0, # of connection points: 2
#     Edge 93, Type (0, 0), BuildingBlock: XIVTED_clean_linker_0, # of connection points: 2
#     Edge 94, Type (0, 0), BuildingBlock: XIVTED_clean_linker_0, # of connection points: 2
#     Edge 95, Type (0, 0), BuildingBlock: XIVTED_clean_linker_0, # of connection points: 2
#     Edge 96, Type (0, 0), BuildingBlock: XIVTED_clean_linker_0, # of connection points: 2
#     Edge 97, Type (0, 0), BuildingBlock: XIVTED_clean_linker_0, # of connection points: 2
#     Edge 98, Type (0, 0), BuildingBlock: XIVTED_clean_linker_0, # of connection points: 2
#     Edge 99, Type (0, 0), BuildingBlock: XIVTED_clean_linker_0, # of connection points: 2
#     Edge 100, Type (0, 0), BuildingBlock: XIVTED_clean_linker_0, # of connection points: 2
#     Edge 101, Type (0, 0), BuildingBlock: XIVTED_clean_linker_0, # of connection points: 2
#     Edge 102, Type (0, 0), BuildingBlock: XIVTED_clean_linker_0, # of connection points: 2
#     Edge 103, Type (0, 0), BuildingBlock: XIVTED_clean_linker_0, # of connection points: 2
#     Edge 104, Type (0, 0), BuildingBlock: XIVTED_clean_linker_0, # of connection points: 2
#     Edge 105, Type (0, 0), BuildingBlock: XIVTED_clean_linker_0, # of connection points: 2
#     Edge 106, Type (0, 0), BuildingBlock: XIVTED_clean_linker_0, # of connection points: 2
#     Edge 107, Type (0, 0), BuildingBlock: XIVTED_clean_linker_0, # of connection points: 2
#     Edge 108, Type (0, 0), BuildingBlock: XIVTED_clean_linker_0, # of connection points: 2
#     Edge 109, Type (0, 0), BuildingBlock: XIVTED_clean_linker_0, # of connection points: 2
#     Edge 110, Type (0, 0), BuildingBlock: XIVTED_clean_linker_0, # of connection points: 2
#     Edge 111, Type (0, 0), BuildingBlock: XIVTED_clean_linker_0, # of connection points: 2
#     Edge 112, Type (0, 0), BuildingBlock: XIVTED_clean_linker_0, # of connection points: 2
#     Edge 113, Type (0, 0), BuildingBlock: XIVTED_clean_linker_0, # of connection points: 2
#     Edge 114, Type (0, 0), BuildingBlock: XIVTED_clean_linker_0, # of connection points: 2
#     Edge 115, Type (0, 0), BuildingBlock: XIVTED_clean_linker_0, # of connection points: 2
#     Edge 116, Type (0, 0), BuildingBlock: XIVTED_clean_linker_0, # of connection points: 2
#     Edge 117, Type (0, 0), BuildingBlock: XIVTED_clean_linker_0, # of connection points: 2
#     Edge 118, Type (0, 0), BuildingBlock: XIVTED_clean_linker_0, # of connection points: 2
#     Edge 119, Type (0, 0), BuildingBlock: XIVTED_clean_linker_0, # of connection points: 2
#     Edge 120, Type (0, 0), BuildingBlock: XIVTED_clean_linker_0, # of connection points: 2
#     Edge 121, Type (0, 0), BuildingBlock: XIVTED_clean_linker_0, # of connection points: 2
#     Edge 122, Type (0, 0), BuildingBlock: XIVTED_clean_linker_0, # of connection points: 2
#     Edge 123, Type (0, 0), BuildingBlock: XIVTED_clean_linker_0, # of connection points: 2
#     Edge 124, Type (0, 0), BuildingBlock: XIVTED_clean_linker_0, # of connection points: 2
#     Edge 125, Type (0, 0), BuildingBlock: XIVTED_clean_linker_0, # of connection points: 2
#     Edge 126, Type (0, 0), BuildingBlock: XIVTED_clean_linker_0, # of connection points: 2
#     Edge 127, Type (0, 0), BuildingBlock: XIVTED_clean_linker_0, # of connection points: 2
#     Edge 128, Type (0, 0), BuildingBlock: XIVTED_clean_linker_0, # of connection points: 2
#     Edge 129, Type (0, 0), BuildingBlock: XIVTED_clean_linker_0, # of connection points: 2
#     Edge 130, Type (0, 0), BuildingBlock: XIVTED_clean_linker_0, # of connection points: 2
#     Edge 131, Type (0, 0), BuildingBlock: XIVTED_clean_linker_0, # of connection points: 2
#     Edge 132, Type (0, 0), BuildingBlock: XIVTED_clean_linker_0, # of connection points: 2
#     Edge 133, Type (0, 0), BuildingBlock: XIVTED_clean_linker_0, # of connection points: 2
#     Edge 134, Type (0, 0), BuildingBlock: XIVTED_clean_linker_0, # of connection points: 2
#     Edge 135, Type (0, 0), BuildingBlock: XIVTED_clean_linker_0, # of connection points: 2
#     Edge 136, Type (0, 0), BuildingBlock: XIVTED_clean_linker_0, # of connection points: 2
#     Edge 137, Type (0, 0), BuildingBlock: XIVTED_clean_linker_0, # of connection points: 2
#     Edge 138, Type (0, 0), BuildingBlock: XIVTED_clean_linker_0, # of connection points: 2
#     Edge 139, Type (0, 0), BuildingBlock: XIVTED_clean_linker_0, # of connection points: 2
#     Edge 140, Type (0, 0), BuildingBlock: XIVTED_clean_linker_0, # of connection points: 2
#     Edge 141, Type (0, 0), BuildingBlock: XIVTED_clean_linker_0, # of connection points: 2
#     Edge 142, Type (0, 0), BuildingBlock: XIVTED_clean_linker_0, # of connection points: 2
#     Edge 143, Type (0, 0), BuildingBlock: XIVTED_clean_linker_0, # of connection points: 2
# Relax obj value: 0.179
# Max RMSD: 0.216
# Mean RMSD: 0.203
data_MOF--net-rho--node1-NAHDIM_clean_sbu_0--edge1-XIVTED_clean_linker_0
_symmetry_space_group_name_H-M    P1
_symmetry_Int_Tables_number       1
_symmetry_cell_setting            triclinic
loop_
_symmetry_equiv_pos_as_xyz
'x, y, z'
_cell_length_a     70.86957
_cell_length_b     71.159885
_cell_length_c     71.086563
_cell_angle_alpha  90.334609
_cell_angle_beta   90.543507
_cell_angle_gamma 91.831734
loop_
_atom_site_label
_atom_site_type_symbol
_atom_site_fract_x
_atom_site_fract_y
_atom_site_fract_z
_atom_type_partial_charge
C0 C 0.15137 0.26192 0.39798 0.0
O1 O 0.1569 0.27729 0.40706 0.0
O2 O 0.11373 0.29708 0.37646 0.0
Zn3 Zn 0.11512 0.27925 0.39805 0.0
O4 O 0.12161 0.29214 0.42254 0.0
C5 C 0.08264 0.25773 0.38594 0.0
O6 O 0.0917 0.25856 0.3699 0.0
O7 O 0.13427 0.25991 0.39266 0.0
C8 C 0.11008 0.30255 0.43089 0.0
O9 O 0.09388 0.30601 0.42268 0.0
C10 C 0.12788 0.30628 0.37007 0.0
O11 O 0.14438 0.30509 0.37849 0.0
O12 O 0.08997 0.26577 0.40037 0.0
C13 C 0.72539 0.116 0.37233 0.0
O14 O 0.73894 0.12866 0.3756 0.0
O15 O 0.77183 0.09825 0.3889 0.0
Zn16 Zn 0.74591 0.08965 0.39685 0.0
O17 O 0.74311 0.06154 0.39535 0.0
C18 C 0.74937 0.11191 0.43098 0.0
O19 O 0.75919 0.1236 0.42036 0.0
O20 O 0.72603 0.09998 0.38004 0.0
C21 C 0.72635 0.05469 0.39607 0.0
O22 O 0.71227 0.06615 0.39769 0.0
C23 C 0.77662 0.10087 0.37192 0.0
O24 O 0.76426 0.09748 0.35834 0.0
O25 O 0.742 0.09705 0.42368 0.0
C26 C 0.8622 0.79846 0.39168 0.0
O27 O 0.86374 0.78668 0.37751 0.0
O28 O 0.87726 0.75212 0.39455 0.0
Zn29 Zn 0.88847 0.77404 0.40935 0.0
O30 O 0.88964 0.76774 0.43686 0.0
C31 C 0.92253 0.77132 0.38746 0.0
O32 O 0.91253 0.75849 0.37805 0.0
O33 O 0.87198 0.79612 0.40649 0.0
C34 C 0.90445 0.76135 0.44439 0.0
O35 O 0.91923 0.75838 0.4339 0.0
C36 C 0.87692 0.73532 0.40052 0.0
O37 O 0.88375 0.73182 0.41732 0.0
O38 O 0.91484 0.7803 0.40069 0.0
C39 C 0.26025 0.9008 0.35832 0.0
O40 O 0.26658 0.90817 0.37424 0.0
O41 O 0.20125 0.8892 0.37414 0.0
Zn42 Zn 0.22409 0.90636 0.37521 0.0
O43 O 0.2173 0.93305 0.37054 0.0
C44 C 0.2377 0.88802 0.40804 0.0
O45 O 0.23332 0.87307 0.39777 0.0
O46 O 0.24257 0.89854 0.35573 0.0
C47 C 0.20868 0.94243 0.38284 0.0
O48 O 0.2036 0.93422 0.39859 0.0
C49 C 0.19575 0.88025 0.35947 0.0
O50 O 0.20467 0.88305 0.34356 0.0
O51 O 0.23535 0.90422 0.40114 0.0
C52 C 0.12112 0.71766 0.63088 0.0
O53 O 0.13617 0.72872 0.62893 0.0
O54 O 0.1225 0.76742 0.62387 0.0
Zn55 Zn 0.10067 0.74984 0.61754 0.0
O56 O 0.07591 0.75919 0.62674 0.0
C57 C 0.11409 0.74491 0.58026 0.0
O58 O 0.13022 0.74372 0.58937 0.0
O59 O 0.1049 0.72394 0.62733 0.0
C60 C 0.06838 0.75344 0.6419 0.0
O61 O 0.07749 0.7417 0.6526 0.0
C62 C 0.12085 0.78461 0.62823 0.0
O63 O 0.10391 0.79134 0.6301 0.0
O64 O 0.09915 0.7477 0.58947 0.0
C65 C 0.2095 0.12046 0.61181 0.0
O66 O 0.21538 0.11305 0.62762 0.0
O67 O 0.25776 0.10495 0.61591 0.0
Zn68 Zn 0.23948 0.09951 0.59477 0.0
O69 O 0.25185 0.10442 0.57003 0.0
C70 C 0.23343 0.062 0.60944 0.0
O71 O 0.2407 0.06951 0.62491 0.0
O72 O 0.21751 0.1163 0.59651 0.0
C73 C 0.2626 0.09264 0.56249 0.0
O74 O 0.26634 0.07709 0.57147 0.0
C75 C 0.2721 0.11601 0.61458 0.0
O76 O 0.27531 0.12483 0.59869 0.0
O77 O 0.23097 0.07232 0.59516 0.0
C78 C 0.86362 0.27077 0.6058 0.0
O79 O 0.85538 0.25442 0.60183 0.0
O80 O 0.88694 0.22926 0.59544 0.0
Zn81 Zn 0.89502 0.25492 0.58653 0.0
O82 O 0.92257 0.25899 0.59217 0.0
C83 C 0.87731 0.24743 0.5506 0.0
O84 O 0.86467 0.23849 0.5609 0.0
O85 O 0.88025 0.27438 0.59999 0.0
C86 C 0.93399 0.24758 0.58507 0.0
O87 O 0.92731 0.23365 0.5745 0.0
C88 C 0.88513 0.22527 0.61274 0.0
O89 O 0.88915 0.2382 0.62556 0.0
O90 O 0.89115 0.25607 0.55864 0.0
C91 C 0.74955 0.84925 0.61753 0.0
O92 O 0.732 0.84272 0.61696 0.0
O93 O 0.71432 0.88508 0.62866 0.0
Zn94 Zn 0.73235 0.88376 0.6072 0.0
O95 O 0.71944 0.87539 0.58318 0.0
C96 C 0.75006 0.91889 0.6175 0.0
O97 O 0.74904 0.91136 0.63431 0.0
O98 O 0.75304 0.86641 0.61376 0.0
C99 C 0.7058 0.88459 0.57663 0.0
O100 O 0.69974 0.89897 0.58627 0.0
C101 C 0.69937 0.87496 0.63048 0.0
O102 O 0.69467 0.86246 0.61745 0.0
O103 O 0.74382 0.90952 0.60338 0.0
C104 C 0.37646 0.10548 0.27321 0.0
O105 O 0.37038 0.10042 0.25636 0.0
O106 O 0.40526 0.12305 0.23452 0.0
Zn107 Zn 0.41007 0.10304 0.25356 0.0
O108 O 0.40272 0.07766 0.24302 0.0
C109 C 0.44876 0.11684 0.25642 0.0
O110 O 0.44185 0.1319 0.24869 0.0
O111 O 0.3941 0.10771 0.27608 0.0
C112 C 0.4126 0.06991 0.23056 0.0
O113 O 0.42773 0.07886 0.22423 0.0
C114 C 0.39424 0.12094 0.22041 0.0
O115 O 0.38539 0.10467 0.21751 0.0
O116 O 0.43767 0.10307 0.26037 0.0
C117 C 0.86635 0.36074 0.2919 0.0
O118 O 0.85152 0.36299 0.28102 0.0
O119 O 0.86525 0.38554 0.24888 0.0
Zn120 Zn 0.88406 0.39066 0.26967 0.0
O121 O 0.90996 0.38728 0.25912 0.0
C122 C 0.86552 0.42467 0.27955 0.0
O123 O 0.85052 0.41493 0.27369 0.0
O124 O 0.88086 0.37148 0.28994 0.0
C125 C 0.92082 0.40053 0.25334 0.0
O126 O 0.91533 0.41796 0.25437 0.0
C127 C 0.86776 0.39382 0.23329 0.0
O128 O 0.88228 0.40558 0.23148 0.0
O129 O 0.88147 0.41699 0.27958 0.0
C130 C 0.61412 0.85396 0.20411 0.0
O131 O 0.62312 0.85138 0.22008 0.0
O132 O 0.6096 0.87605 0.24831 0.0
Zn133 Zn 0.59568 0.88332 0.2248 0.0
O134 O 0.56791 0.87988 0.22897 0.0
C135 C 0.61798 0.9177 0.22178 0.0
O136 O 0.63159 0.90698 0.22759 0.0
O137 O 0.60237 0.86702 0.20292 0.0
C138 C 0.55928 0.89046 0.2402 0.0
O139 O 0.56873 0.90409 0.24903 0.0
C140 C 0.60211 0.86596 0.2611 0.0
O141 O 0.58465 0.85949 0.25897 0.0
O142 O 0.60151 0.91049 0.21923 0.0
C143 C 0.11316 0.62361 0.23044 0.0
O144 O 0.11311 0.63497 0.24507 0.0
O145 O 0.10879 0.61083 0.27798 0.0
Zn146 Zn 0.09677 0.59658 0.2563 0.0
O147 O 0.1022 0.56907 0.25768 0.0
C148 C 0.05976 0.6107 0.26612 0.0
O149 O 0.06923 0.62291 0.27678 0.0
O150 O 0.10683 0.60679 0.23208 0.0
C151 C 0.09082 0.55791 0.26613 0.0
O152 O 0.07604 0.56471 0.27451 0.0
C153 C 0.10713 0.60566 0.29496 0.0
O154 O 0.09759 0.59005 0.29876 0.0
O155 O 0.06863 0.59898 0.2563 0.0
C156 C 0.37552 0.86355 0.76975 0.0
O157 O 0.36105 0.86608 0.75845 0.0
O158 O 0.38119 0.88 0.7219 0.0
Zn159 Zn 0.39599 0.88901 0.74464 0.0
O160 O 0.42386 0.88928 0.73966 0.0
C161 C 0.37367 0.92275 0.74766 0.0
O162 O 0.36037 0.91283 0.7388 0.0
O163 O 0.39121 0.87193 0.76644 0.0
C164 C 0.43259 0.90413 0.73424 0.0
O165 O 0.42305 0.91931 0.73091 0.0
C166 C 0.38497 0.88644 0.70569 0.0
O167 O 0.39891 0.89887 0.70387 0.0
O168 O 0.38919 0.91523 0.75167 0.0
C169 C 0.10914 0.34885 0.80361 0.0
O170 O 0.11246 0.33646 0.79038 0.0
O171 O 0.09714 0.34922 0.75563 0.0
Zn172 Zn 0.08499 0.36512 0.77527 0.0
O173 O 0.08981 0.39214 0.76838 0.0
C174 C 0.04875 0.35229 0.76135 0.0
O175 O 0.05891 0.34836 0.74656 0.0
O176 O 0.09726 0.36149 0.8005 0.0
C177 C 0.08674 0.39839 0.75196 0.0
O178 O 0.0793 0.38707 0.73905 0.0
C179 C 0.11239 0.35443 0.74765 0.0
O180 O 0.12106 0.37019 0.75298 0.0
O181 O 0.0569 0.35947 0.77583 0.0
C182 C 0.62114 0.1313 0.69452 0.0
O183 O 0.61892 0.14663 0.70454 0.0
O184 O 0.60521 0.1346 0.74054 0.0
Zn185 Zn 0.5972 0.11381 0.72267 0.0
O186 O 0.60347 0.08909 0.73417 0.0
C187 C 0.55859 0.12469 0.72683 0.0
O188 O 0.56632 0.13653 0.73911 0.0
O189 O 0.61235 0.1162 0.69912 0.0
C190 C 0.59479 0.08221 0.74822 0.0
O191 O 0.58084 0.09138 0.7556 0.0
C192 C 0.61737 0.13246 0.75354 0.0
O193 O 0.62525 0.11613 0.75557 0.0
O194 O 0.56911 0.11391 0.71758 0.0
C195 C 0.86599 0.59457 0.69558 0.0
O196 O 0.85479 0.59444 0.7102 0.0
O197 O 0.87311 0.57443 0.74004 0.0
Zn198 Zn 0.88567 0.56618 0.71632 0.0
O199 O 0.91359 0.56868 0.72019 0.0
C200 C 0.86637 0.52998 0.71925 0.0
O201 O 0.85545 0.53906 0.73076 0.0
O202 O 0.87925 0.58301 0.69485 0.0
C203 C 0.92221 0.55762 0.731 0.0
O204 O 0.91253 0.54449 0.73999 0.0
C205 C 0.87928 0.58863 0.74941 0.0
O206 O 0.89412 0.59827 0.74336 0.0
O207 O 0.8795 0.53897 0.71078 0.0
C208 C 0.29025 0.39495 0.13677 0.0
O209 O 0.27609 0.39581 0.14851 0.0
O210 O 0.24353 0.41028 0.12479 0.0
Zn211 Zn 0.26769 0.4187 0.11259 0.0
O212 O 0.26415 0.41439 0.08496 0.0
C213 C 0.26291 0.45578 0.12825 0.0
O214 O 0.25141 0.44675 0.13971 0.0
O215 O 0.28966 0.40393 0.1214 0.0
C216 C 0.25155 0.42361 0.07659 0.0
O217 O 0.2415 0.43534 0.08636 0.0
C218 C 0.23723 0.39337 0.12446 0.0
O219 O 0.24727 0.38028 0.11664 0.0
O220 O 0.27212 0.44651 0.11631 0.0
C221 C 0.20102 0.62436 0.85105 0.0
O222 O 0.21767 0.6316 0.84669 0.0
O223 O 0.24302 0.62854 0.87976 0.0
Zn224 Zn 0.22044 0.61146 0.88448 0.0
O225 O 0.22788 0.5847 0.88133 0.0
C226 C 0.2122 0.63087 0.91906 0.0
O227 O 0.21695 0.64587 0.90928 0.0
O228 O 0.19894 0.61593 0.86663 0.0
C229 C 0.24198 0.57855 0.89027 0.0
O230 O 0.25178 0.59001 0.90147 0.0
C231 C 0.25552 0.62465 0.86777 0.0
O232 O 0.25332 0.60937 0.8574 0.0
O233 O 0.21226 0.61481 0.91116 0.0
C234 C 0.36042 0.2753 0.88245 0.0
O235 O 0.36289 0.26384 0.86819 0.0
O236 O 0.36773 0.22634 0.8862 0.0
Zn237 Zn 0.37812 0.24624 0.90396 0.0
O238 O 0.37369 0.23942 0.93101 0.0
C239 C 0.4149 0.2437 0.88626 0.0
O240 O 0.40561 0.23398 0.8732 0.0
O241 O 0.36577 0.27058 0.89881 0.0
C242 C 0.38583 0.23025 0.94012 0.0
O243 O 0.40086 0.22447 0.93139 0.0
C244 C 0.36848 0.20884 0.88937 0.0
O245 O 0.37564 0.20311 0.90536 0.0
O246 O 0.40602 0.25018 0.90019 0.0
C247 C 0.74243 0.37684 0.8689 0.0
O248 O 0.72785 0.3661 0.87365 0.0
O249 O 0.69929 0.39382 0.88845 0.0
Zn250 Zn 0.72508 0.40559 0.89172 0.0
O251 O 0.725 0.43333 0.88703 0.0
C252 C 0.73155 0.38547 0.92611 0.0
O253 O 0.72266 0.37164 0.91705 0.0
O254 O 0.74361 0.39381 0.87458 0.0
C255 C 0.72178 0.44458 0.90048 0.0
O256 O 0.71762 0.43774 0.91711 0.0
C257 C 0.69088 0.39157 0.8727 0.0
O258 O 0.69907 0.39774 0.85732 0.0
O259 O 0.73406 0.40123 0.91805 0.0
C260 C 0.64411 0.71976 0.87922 0.0
O261 O 0.64485 0.7376 0.88413 0.0
O262 O 0.6099 0.75212 0.8687 0.0
Zn263 Zn 0.60586 0.72751 0.882 0.0
O264 O 0.60541 0.73204 0.90991 0.0
C265 C 0.57106 0.71985 0.86069 0.0
O266 O 0.57763 0.73308 0.84949 0.0
O267 O 0.62806 0.71154 0.87686 0.0
C268 C 0.59002 0.7336 0.91875 0.0
O269 O 0.57395 0.73281 0.90937 0.0
C270 C 0.60261 0.76725 0.87417 0.0
O271 O 0.59127 0.76692 0.88868 0.0
O272 O 0.58114 0.71471 0.87449 0.0
C273 C 0.76934 0.64506 0.09608 0.0
O274 O 0.78529 0.65477 0.09423 0.0
O275 O 0.80849 0.61928 0.11956 0.0
Zn276 Zn 0.79388 0.61382 0.09582 0.0
O277 O 0.8072 0.62132 0.07204 0.0
C278 C 0.78019 0.57898 0.11003 0.0
O279 O 0.77794 0.58963 0.12495 0.0
O280 O 0.76964 0.62728 0.09705 0.0
C281 C 0.8179 0.6102 0.06347 0.0
O282 O 0.82176 0.59405 0.07126 0.0
C283 C 0.82575 0.62418 0.12182 0.0
O284 O 0.83651 0.62688 0.10707 0.0
O285 O 0.78714 0.58627 0.09526 0.0
C286 C 0.3869 0.76184 0.11682 0.0
O287 O 0.37175 0.75096 0.11433 0.0
O288 O 0.38312 0.7151 0.10073 0.0
Zn289 Zn 0.4061 0.7318 0.09764 0.0
O290 O 0.42933 0.71995 0.10785 0.0
C291 C 0.39579 0.74411 0.06116 0.0
O292 O 0.38078 0.74905 0.07047 0.0
O293 O 0.40272 0.75648 0.11087 0.0
C294 C 0.4364 0.70584 0.09985 0.0
O295 O 0.42781 0.69833 0.08504 0.0
C296 C 0.37819 0.7069 0.1158 0.0
O297 O 0.38902 0.70857 0.13085 0.0
O298 O 0.40916 0.73648 0.07001 0.0
C299 C 0.63679 0.22352 0.11587 0.0
O300 O 0.64718 0.23908 0.11742 0.0
O301 O 0.62668 0.26918 0.0983 0.0
Zn302 Zn 0.61144 0.24556 0.09264 0.0
O303 O 0.58461 0.24923 0.10055 0.0
C304 C 0.62694 0.24196 0.05538 0.0
O305 O 0.64278 0.24749 0.06377 0.0
O306 O 0.62155 0.22346 0.10631 0.0
C307 C 0.57222 0.25426 0.08871 0.0
O308 O 0.57705 0.25688 0.07111 0.0
C309 C 0.62241 0.28421 0.08992 0.0
O310 O 0.60826 0.28377 0.07784 0.0
O311 O 0.61199 0.2401 0.06498 0.0
C312 C 0.85835 0.76452 0.62821 0.0
O313 O 0.85518 0.74697 0.62292 0.0
O314 O 0.88801 0.72723 0.6329 0.0
Zn315 Zn 0.89509 0.75263 0.62245 0.0
O316 O 0.89473 0.75132 0.59423 0.0
C317 C 0.92906 0.75445 0.64569 0.0
O318 O 0.91966 0.74236 0.65623 0.0
O319 O 0.87531 0.77075 0.62979 0.0
C320 C 0.90947 0.74899 0.58456 0.0
O321 O 0.92574 0.74695 0.59318 0.0
C322 C 0.89239 0.71198 0.62493 0.0
O323 O 0.90253 0.71259 0.60957 0.0
O324 O 0.92106 0.76111 0.63123 0.0
C325 C 0.28592 0.87019 0.60714 0.0
O326 O 0.27192 0.85778 0.60872 0.0
O327 O 0.23868 0.87199 0.59237 0.0
Zn328 Zn 0.25921 0.89026 0.58424 0.0
O329 O 0.25245 0.91633 0.59192 0.0
C330 C 0.26003 0.87492 0.5463 0.0
O331 O 0.25735 0.85869 0.55474 0.0
O332 O 0.28379 0.88459 0.59694 0.0
C333 C 0.23957 0.92495 0.58332 0.0
O334 O 0.23055 0.91657 0.56921 0.0
C335 C 0.22805 0.87564 0.60614 0.0
O336 O 0.23042 0.8917 0.61518 0.0
O337 O 0.26163 0.88985 0.55613 0.0
C338 C 0.12567 0.23059 0.60977 0.0
O339 O 0.11694 0.23612 0.62496 0.0
O340 O 0.11892 0.27815 0.62055 0.0
Zn341 Zn 0.11277 0.26554 0.59593 0.0
O342 O 0.12073 0.28088 0.57355 0.0
C343 C 0.0733 0.27003 0.60363 0.0
O344 O 0.07992 0.28368 0.61458 0.0
O345 O 0.12572 0.24098 0.5953 0.0
C346 C 0.11126 0.29468 0.56795 0.0
O347 O 0.0968 0.29997 0.57788 0.0
C348 C 0.12885 0.29302 0.62363 0.0
O349 O 0.13662 0.30208 0.60948 0.0
O350 O 0.08474 0.26032 0.5943 0.0
C351 C 0.73919 0.1177 0.62153 0.0
O352 O 0.74795 0.13126 0.61228 0.0
O353 O 0.79155 0.10892 0.61251 0.0
Zn354 Zn 0.76803 0.09366 0.60646 0.0
O355 O 0.77202 0.06633 0.61124 0.0
C356 C 0.76588 0.11202 0.57032 0.0
O357 O 0.77528 0.12572 0.57909 0.0
O358 O 0.74578 0.10131 0.62146 0.0
C359 C 0.77758 0.05545 0.59833 0.0
O360 O 0.78162 0.06243 0.58172 0.0
C361 C 0.79479 0.11845 0.62741 0.0
O362 O 0.78217 0.11838 0.64083 0.0
O363 O 0.7614 0.09712 0.57922 0.0
C364 C 0.88618 0.24104 0.36119 0.0
O365 O 0.87254 0.2321 0.37019 0.0
O366 O 0.89656 0.19026 0.37364 0.0
Zn367 Zn 0.91076 0.21448 0.37933 0.0
O368 O 0.93883 0.21215 0.37692 0.0
C369 C 0.8897 0.21794 0.41394 0.0
O370 O 0.87694 0.20733 0.40506 0.0
O371 O 0.90295 0.23537 0.36253 0.0
C372 C 0.94919 0.20961 0.39132 0.0
O373 O 0.9412 0.20687 0.40772 0.0
C374 C 0.88812 0.18635 0.35819 0.0
O375 O 0.88943 0.19824 0.34416 0.0
O376 O 0.905 0.2225 0.40572 0.0
C377 C 0.7461 0.87142 0.40694 0.0
O378 O 0.74504 0.88485 0.4196 0.0
O379 O 0.68871 0.8687 0.38299 0.0
Zn380 Zn 0.70639 0.87692 0.40374 0.0
O381 O 0.69802 0.86936 0.42966 0.0
C382 C 0.69803 0.91585 0.39657 0.0
O383 O 0.68159 0.90874 0.3909 0.0
O384 O 0.73117 0.86551 0.3985 0.0
C385 C 0.68661 0.87908 0.43902 0.0
O386 O 0.67883 0.89353 0.43099 0.0
C387 C 0.67134 0.86384 0.38365 0.0
O388 O 0.66268 0.86344 0.3999 0.0
O389 O 0.7105 0.90495 0.40272 0.0
C390 C 0.11777 0.71213 0.38313 0.0
O391 O 0.13 0.72634 0.38211 0.0
O392 O 0.11099 0.76019 0.39596 0.0
Zn393 Zn 0.09416 0.73838 0.40305 0.0
O394 O 0.06786 0.74363 0.39458 0.0
C395 C 0.11041 0.73518 0.4396 0.0
O396 O 0.12599 0.73488 0.42976 0.0
O397 O 0.10215 0.71427 0.39137 0.0
C398 C 0.06102 0.75943 0.39855 0.0
O399 O 0.07136 0.77186 0.40814 0.0
C400 C 0.11157 0.76702 0.3795 0.0
O401 O 0.10136 0.75903 0.36597 0.0
O402 O 0.09467 0.73628 0.43106 0.0
C403 C 0.23465 0.15148 0.39077 0.0
O404 O 0.25236 0.15315 0.39631 0.0
O405 O 0.26431 0.11339 0.37211 0.0
Zn406 Zn 0.24397 0.11327 0.39143 0.0
O407 O 0.25506 0.11504 0.4174 0.0
C408 C 0.2263 0.08047 0.3739 0.0
O409 O 0.23253 0.08841 0.35841 0.0
O410 O 0.2275 0.13519 0.38742 0.0
C411 C 0.26374 0.10138 0.42444 0.0
O412 O 0.266 0.08618 0.41422 0.0
C413 C 0.28126 0.11896 0.37521 0.0
O414 O 0.2862 0.12532 0.39199 0.0
O415 O 0.22899 0.08892 0.38953 0.0
C416 C 0.62313 0.88377 0.79892 0.0
O417 O 0.63549 0.88386 0.78527 0.0
O418 O 0.62248 0.90627 0.7549 0.0
Zn419 Zn 0.60538 0.9121 0.7764 0.0
O420 O 0.57884 0.90698 0.76758 0.0
C421 C 0.6218 0.9497 0.77812 0.0
O422 O 0.63618 0.9417 0.77017 0.0
O423 O 0.60983 0.89532 0.79849 0.0
C424 C 0.57148 0.91738 0.75525 0.0
O425 O 0.58147 0.93157 0.74838 0.0
C426 C 0.61862 0.89252 0.74389 0.0
O427 O 0.60358 0.88177 0.747 0.0
O428 O 0.60764 0.93955 0.78301 0.0
C429 C 0.12189 0.59203 0.68998 0.0
O430 O 0.13536 0.58878 0.70225 0.0
O431 O 0.11431 0.58198 0.73668 0.0
Zn432 Zn 0.09992 0.56935 0.71529 0.0
O433 O 0.07205 0.57065 0.71968 0.0
C434 C 0.11516 0.53391 0.72592 0.0
O435 O 0.12248 0.54409 0.73979 0.0
O436 O 0.10579 0.58397 0.692 0.0
C437 C 0.06329 0.55826 0.72935 0.0
O438 O 0.07274 0.54463 0.73701 0.0
C439 C 0.10734 0.58625 0.75248 0.0
O440 O 0.08951 0.58208 0.75583 0.0
O441 O 0.10599 0.54197 0.71298 0.0
C442 C 0.36546 0.12724 0.77593 0.0
O443 O 0.35961 0.13354 0.75963 0.0
O444 O 0.36544 0.10508 0.73164 0.0
Zn445 Zn 0.38336 0.09968 0.75278 0.0
O446 O 0.40987 0.10811 0.74649 0.0
C447 C 0.36699 0.06251 0.75539 0.0
O448 O 0.35149 0.07141 0.75145 0.0
O449 O 0.37559 0.11283 0.77638 0.0
C450 C 0.41934 0.09956 0.73421 0.0
O451 O 0.41145 0.08516 0.72513 0.0
C452 C 0.36862 0.11627 0.71811 0.0
O453 O 0.38489 0.12561 0.71729 0.0
O454 O 0.38253 0.07183 0.757 0.0
C455 C 0.84006 0.34039 0.77766 0.0
O456 O 0.8352 0.33057 0.76258 0.0
O457 O 0.86061 0.34011 0.73252 0.0
Zn458 Zn 0.87019 0.35599 0.75435 0.0
O459 O 0.86745 0.38326 0.74817 0.0
C460 C 0.90808 0.34454 0.74704 0.0
O461 O 0.90051 0.3395 0.73077 0.0
O462 O 0.85471 0.35114 0.77732 0.0
C463 C 0.87672 0.39153 0.73526 0.0
O464 O 0.88892 0.38207 0.72549 0.0
C465 C 0.85013 0.34668 0.71969 0.0
O466 O 0.84474 0.36413 0.72088 0.0
O467 O 0.8977 0.35157 0.75958 0.0
C468 C 0.64718 0.11867 0.20526 0.0
O469 O 0.65997 0.11747 0.21865 0.0
O470 O 0.63809 0.0996 0.25204 0.0
Zn471 Zn 0.62225 0.095 0.22895 0.0
O472 O 0.59594 0.10252 0.23473 0.0
C473 C 0.63618 0.05761 0.22453 0.0
O474 O 0.65216 0.06575 0.23018 0.0
O475 O 0.63126 0.11015 0.20695 0.0
C476 C 0.58644 0.0938 0.24718 0.0
O477 O 0.59409 0.07983 0.25619 0.0
C478 C 0.64166 0.11572 0.25922 0.0
O479 O 0.63543 0.13078 0.2509 0.0
O480 O 0.62165 0.06746 0.22264 0.0
C481 C 0.86425 0.63243 0.30645 0.0
O482 O 0.861 0.63689 0.28884 0.0
O483 O 0.87024 0.60631 0.26434 0.0
Zn484 Zn 0.88197 0.60058 0.28954 0.0
O485 O 0.90998 0.60509 0.28795 0.0
C486 C 0.86221 0.5643 0.29106 0.0
O487 O 0.84825 0.57342 0.28346 0.0
O488 O 0.87234 0.61717 0.31008 0.0
C489 C 0.91928 0.59507 0.27673 0.0
O490 O 0.9103 0.58202 0.26664 0.0
C491 C 0.87835 0.61733 0.25269 0.0
O492 O 0.89449 0.62575 0.25736 0.0
O493 O 0.87747 0.57323 0.29534 0.0
C494 C 0.34939 0.88807 0.25142 0.0
O495 O 0.34265 0.88588 0.23424 0.0
O496 O 0.37829 0.87801 0.21113 0.0
Zn497 Zn 0.38423 0.89642 0.23216 0.0
O498 O 0.38241 0.92326 0.2236 0.0
C499 C 0.41913 0.87762 0.24081 0.0
O500 O 0.40988 0.86232 0.23506 0.0
O501 O 0.3668 0.89227 0.25382 0.0
C502 C 0.3969 0.93185 0.21704 0.0
O503 O 0.41257 0.92271 0.21501 0.0
C504 C 0.38959 0.87713 0.1974 0.0
O505 O 0.40433 0.88876 0.19697 0.0
O506 O 0.41078 0.89313 0.24119 0.0
C507 C 0.11706 0.36955 0.19251 0.0
O508 O 0.11561 0.35565 0.20454 0.0
O509 O 0.09659 0.37098 0.23831 0.0
Zn510 Zn 0.09069 0.38821 0.21702 0.0
O511 O 0.09632 0.41444 0.22612 0.0
C512 C 0.05236 0.37313 0.21629 0.0
O513 O 0.06006 0.35824 0.22356 0.0
O514 O 0.10702 0.38386 0.1947 0.0
C515 C 0.08804 0.42015 0.24075 0.0
O516 O 0.07631 0.4086 0.24951 0.0
C517 C 0.11178 0.37342 0.24777 0.0
O518 O 0.12405 0.38662 0.2427 0.0
O519 O 0.06294 0.38688 0.21119 0.0
C520 C 0.76281 0.64809 0.88833 0.0
O521 O 0.7796 0.65634 0.8899 0.0
O522 O 0.79872 0.61112 0.87338 0.0
Zn523 Zn 0.7823 0.61342 0.89596 0.0
O524 O 0.79656 0.62162 0.9193 0.0
C525 C 0.76287 0.57923 0.8866 0.0
O526 O 0.7628 0.58733 0.87004 0.0
O527 O 0.76106 0.63042 0.89044 0.0
C528 C 0.80932 0.61127 0.92583 0.0
O529 O 0.81385 0.59622 0.9163 0.0
C530 C 0.81324 0.62096 0.86894 0.0
O531 O 0.81925 0.63477 0.88002 0.0
O532 O 0.77062 0.58788 0.90048 0.0
C533 C 0.77226 0.3864 0.12947 0.0
O534 O 0.75533 0.37922 0.13284 0.0
O535 O 0.72952 0.39008 0.10519 0.0
Zn536 Zn 0.75355 0.40353 0.09797 0.0
O537 O 0.7511 0.43141 0.0991 0.0
C538 C 0.75461 0.38114 0.06391 0.0
O539 O 0.74695 0.36788 0.07443 0.0
O540 O 0.77481 0.39665 0.11509 0.0
C541 C 0.75134 0.44055 0.11449 0.0
O542 O 0.7521 0.43138 0.13046 0.0
C543 C 0.7145 0.39209 0.09565 0.0
O544 O 0.71458 0.40418 0.08175 0.0
O545 O 0.7592 0.39696 0.07127 0.0
C546 C 0.64445 0.7071 0.0947 0.0
O547 O 0.64394 0.72493 0.09004 0.0
O548 O 0.60991 0.73664 0.11095 0.0
Zn549 Zn 0.60628 0.7138 0.09442 0.0
O550 O 0.60519 0.7214 0.06727 0.0
C551 C 0.57351 0.70249 0.11609 0.0
O552 O 0.58179 0.71293 0.12926 0.0
O553 O 0.629 0.69812 0.09774 0.0
C554 C 0.58965 0.72423 0.05885 0.0
O555 O 0.5738 0.72266 0.06822 0.0
C556 C 0.60452 0.75288 0.10647 0.0
O557 O 0.59577 0.75521 0.09032 0.0
O558 O 0.58196 0.69999 0.10064 0.0
C559 C 0.19642 0.64409 0.12165 0.0
O560 O 0.21067 0.65636 0.12215 0.0
O561 O 0.24164 0.64033 0.09974 0.0
Zn562 Zn 0.21932 0.62278 0.0955 0.0
O563 O 0.22664 0.59691 0.10313 0.0
C564 C 0.21127 0.63798 0.05918 0.0
O565 O 0.21413 0.65397 0.06826 0.0
O566 O 0.1972 0.62968 0.11109 0.0
C567 C 0.24189 0.5899 0.09759 0.0
O568 O 0.25292 0.59964 0.08623 0.0
C569 C 0.25212 0.63919 0.11427 0.0
O570 O 0.24766 0.62688 0.12733 0.0
O571 O 0.21242 0.62264 0.0681 0.0
C572 C 0.37443 0.2865 0.13489 0.0
O573 O 0.3729 0.27242 0.14671 0.0
O574 O 0.39257 0.24059 0.13148 0.0
Zn575 Zn 0.39633 0.26088 0.11234 0.0
O576 O 0.38671 0.25213 0.08705 0.0
C577 C 0.43606 0.26276 0.12238 0.0
O578 O 0.43011 0.25649 0.1387 0.0
O579 O 0.38365 0.28453 0.1198 0.0
C580 C 0.39497 0.23864 0.07917 0.0
O581 O 0.40867 0.23047 0.08826 0.0
C582 C 0.3807 0.22691 0.12987 0.0
O583 O 0.36941 0.22587 0.11512 0.0
O584 O 0.42411 0.26612 0.1095 0.0
C585 C 0.27345 0.38147 0.87736 0.0
O586 O 0.26036 0.38239 0.86423 0.0
O587 O 0.22536 0.38935 0.8877 0.0
Zn588 Zn 0.2477 0.40326 0.89931 0.0
O589 O 0.24565 0.40352 0.92747 0.0
C590 C 0.26251 0.44075 0.89617 0.0
O591 O 0.27542 0.43402 0.90744 0.0
O592 O 0.27116 0.38979 0.89299 0.0
C593 C 0.23808 0.41679 0.93641 0.0
O594 O 0.23071 0.43066 0.92702 0.0
C595 C 0.20858 0.39151 0.89328 0.0
O596 O 0.20553 0.40328 0.90713 0.0
O597 O 0.24924 0.42983 0.89014 0.0
C598 C 0.61349 0.23357 0.8489 0.0
O599 O 0.61502 0.2516 0.84517 0.0
O600 O 0.60418 0.27219 0.87989 0.0
Zn601 Zn 0.59358 0.24589 0.88212 0.0
O602 O 0.56558 0.24577 0.87811 0.0
C603 C 0.61525 0.24017 0.9155 0.0
O604 O 0.6288 0.24723 0.90493 0.0
O605 O 0.60528 0.22818 0.86383 0.0
C606 C 0.556 0.25637 0.88851 0.0
O607 O 0.56481 0.2671 0.90111 0.0
C608 C 0.59946 0.28431 0.86782 0.0
O609 O 0.58684 0.27981 0.85477 0.0
O610 O 0.5988 0.23767 0.90848 0.0
C611 C 0.37924 0.76014 0.86346 0.0
O612 O 0.36506 0.74795 0.86515 0.0
O613 O 0.37892 0.71413 0.88116 0.0
Zn614 Zn 0.40086 0.7324 0.88378 0.0
O615 O 0.42465 0.72256 0.87287 0.0
C616 C 0.39172 0.74516 0.92049 0.0
O617 O 0.3763 0.74989 0.91152 0.0
O618 O 0.39525 0.75645 0.8705 0.0
C619 C 0.434 0.70977 0.88068 0.0
O620 O 0.42738 0.70176 0.89597 0.0
C621 C 0.37552 0.70309 0.86736 0.0
O622 O 0.38739 0.70264 0.8533 0.0
O623 O 0.40481 0.73759 0.91132 0.0
H624 H 0.08769 0.34753 0.26376 0.0
H625 H 0.15478 0.32814 0.35222 0.0
H626 H 0.14248 0.37493 0.27156 0.0
H627 H 0.09664 0.30844 0.34753 0.0
H628 H 0.15144 0.34417 0.32204 0.0
H629 H 0.09184 0.33138 0.29356 0.0
C630 C 0.10066 0.35008 0.27169 0.0
C631 C 0.11474 0.36265 0.26518 0.0
C632 C 0.13942 0.33638 0.32767 0.0
C633 C 0.11954 0.34424 0.29942 0.0
C634 C 0.14131 0.32725 0.3449 0.0
C635 C 0.12597 0.31693 0.35241 0.0
C636 C 0.12212 0.33506 0.31787 0.0
C637 C 0.10885 0.31624 0.34231 0.0
C638 C 0.10298 0.3409 0.28876 0.0
C639 C 0.13124 0.36539 0.27607 0.0
N640 N 0.10742 0.32512 0.32555 0.0
N641 N 0.13318 0.35627 0.2927 0.0
H642 H 0.72276 0.14518 0.34719 0.0
H643 H 0.64746 0.088 0.2845 0.0
H644 H 0.69461 0.09346 0.36441 0.0
H645 H 0.66025 0.1468 0.27452 0.0
H646 H 0.66574 0.09004 0.31356 0.0
H647 H 0.70056 0.14683 0.32054 0.0
C648 C 0.71178 0.13435 0.34554 0.0
C649 C 0.71071 0.11902 0.35787 0.0
C650 C 0.66449 0.10256 0.30512 0.0
C651 C 0.68556 0.12072 0.32748 0.0
C652 C 0.65414 0.10137 0.28844 0.0
C653 C 0.65243 0.11723 0.27704 0.0
C654 C 0.67349 0.11968 0.31039 0.0
C655 C 0.66124 0.13424 0.28295 0.0
C656 C 0.69915 0.13529 0.33034 0.0
C657 C 0.69618 0.1054 0.35512 0.0
N658 N 0.6716 0.13499 0.29918 0.0
N659 N 0.68435 0.10647 0.34012 0.0
H660 H 0.86139 0.73769 0.36525 0.0
H661 H 0.87017 0.62819 0.34432 0.0
H662 H 0.87804 0.69747 0.407 0.0
H663 H 0.85149 0.66818 0.30322 0.0
H664 H 0.86932 0.65264 0.36849 0.0
H665 H 0.85406 0.71184 0.34342 0.0
C666 C 0.86335 0.72341 0.36989 0.0
C667 C 0.87057 0.71975 0.38791 0.0
C668 C 0.8652 0.65602 0.35423 0.0
C669 C 0.86229 0.69007 0.36293 0.0
C670 C 0.86566 0.64205 0.34041 0.0
C671 C 0.86115 0.64621 0.32165 0.0
C672 C 0.86032 0.67432 0.34925 0.0
C673 C 0.85527 0.66438 0.31746 0.0
C674 C 0.85914 0.70864 0.35741 0.0
C675 C 0.87266 0.70095 0.3932 0.0
N676 N 0.85524 0.67781 0.3311 0.0
N677 N 0.86873 0.68683 0.38069 0.0
H678 H 0.35872 0.89323 0.28856 0.0
H679 H 0.25167 0.88694 0.32315 0.0
H680 H 0.31117 0.88082 0.25161 0.0
H681 H 0.29884 0.90421 0.35881 0.0
H682 H 0.27356 0.88137 0.29755 0.0
H683 H 0.33728 0.89398 0.31516 0.0
C684 C 0.34377 0.89054 0.28604 0.0
C685 C 0.33671 0.88712 0.26778 0.0
C686 C 0.27913 0.8863 0.311 0.0
C687 C 0.31207 0.88801 0.29822 0.0
C688 C 0.26665 0.88947 0.32564 0.0
C689 C 0.27343 0.89621 0.34311 0.0
C690 C 0.29855 0.88988 0.31384 0.0
C691 C 0.29297 0.89914 0.34554 0.0
C692 C 0.33154 0.89099 0.30126 0.0
C693 C 0.31723 0.88363 0.26541 0.0
N694 N 0.30484 0.89604 0.33104 0.0
N695 N 0.30557 0.88427 0.28045 0.0
H696 H 0.09625 0.60359 0.66385 0.0
H697 H 0.15275 0.70037 0.64384 0.0
H698 H 0.15218 0.61659 0.6859 0.0
H699 H 0.09357 0.68999 0.63133 0.0
H700 H 0.15482 0.66784 0.65458 0.0
H701 H 0.09749 0.633 0.64643 0.0
C702 C 0.10893 0.61248 0.66481 0.0
C703 C 0.12401 0.60777 0.67661 0.0
C704 C 0.14143 0.67269 0.64937 0.0
C705 C 0.12541 0.64159 0.65686 0.0
C706 C 0.14023 0.69124 0.64327 0.0
C707 C 0.12291 0.69796 0.63688 0.0
C708 C 0.12523 0.66078 0.64895 0.0
C709 C 0.10717 0.68549 0.63634 0.0
C710 C 0.10958 0.62933 0.65492 0.0
C711 C 0.14014 0.61976 0.67713 0.0
N712 N 0.1087 0.66755 0.64236 0.0
N713 N 0.14032 0.63626 0.66759 0.0
H714 H 0.26853 0.10103 0.64964 0.0
H715 H 0.37109 0.13649 0.68533 0.0
H716 H 0.30621 0.13545 0.61592 0.0
H717 H 0.33303 0.10059 0.71712 0.0
H718 H 0.34699 0.13823 0.6605 0.0
H719 H 0.29144 0.10278 0.67533 0.0
C720 C 0.28161 0.10904 0.64765 0.0
C721 C 0.28551 0.11801 0.63055 0.0
C722 C 0.34393 0.13005 0.67296 0.0
C723 C 0.31193 0.12001 0.65997 0.0
C724 C 0.35766 0.12906 0.68713 0.0
C725 C 0.35412 0.11828 0.70327 0.0
C726 C 0.32656 0.12022 0.675 0.0
C727 C 0.33646 0.10897 0.70488 0.0
C728 C 0.29472 0.11003 0.66235 0.0
C729 C 0.30266 0.12827 0.62885 0.0
N730 N 0.3234 0.11012 0.69092 0.0
N731 N 0.31531 0.1289 0.64336 0.0
H732 H 0.86908 0.30872 0.60957 0.0
H733 H 0.84819 0.3085 0.71602 0.0
H734 H 0.84045 0.26083 0.6347 0.0
H735 H 0.84357 0.35969 0.68429 0.0
H736 H 0.84595 0.29046 0.68658 0.0
H737 H 0.86038 0.32796 0.63663 0.0
C738 C 0.86065 0.30238 0.62062 0.0
C739 C 0.85554 0.28319 0.62002 0.0
C740 C 0.84507 0.30562 0.68613 0.0
C741 C 0.84602 0.30488 0.65105 0.0
C742 C 0.84645 0.31589 0.70286 0.0
C743 C 0.8462 0.33557 0.7025 0.0
C744 C 0.84397 0.31515 0.66895 0.0
C745 C 0.84383 0.34451 0.68514 0.0
C746 C 0.85566 0.31334 0.636 0.0
C747 C 0.84462 0.2756 0.63465 0.0
N748 N 0.8432 0.33425 0.66896 0.0
N749 N 0.84058 0.28638 0.64983 0.0
H750 H 0.70508 0.89994 0.65942 0.0
H751 H 0.61364 0.86553 0.71646 0.0
H752 H 0.66687 0.85533 0.63997 0.0
H753 H 0.65097 0.9117 0.7338 0.0
H754 H 0.63333 0.86077 0.68887 0.0
H755 H 0.68572 0.90371 0.68719 0.0
C756 C 0.6926 0.89092 0.66098 0.0
C757 C 0.68758 0.8773 0.64731 0.0
C758 C 0.63721 0.87192 0.69874 0.0
C759 C 0.66529 0.88155 0.67921 0.0
C760 C 0.626 0.87463 0.71451 0.0
C761 C 0.63065 0.88906 0.72745 0.0
C762 C 0.65319 0.88371 0.69591 0.0
C763 C 0.64682 0.90042 0.72419 0.0
C764 C 0.68153 0.89308 0.67688 0.0
C765 C 0.67125 0.86602 0.65013 0.0
N766 N 0.65748 0.89751 0.70875 0.0
N767 N 0.66067 0.8684 0.66578 0.0
H768 H 0.38377 0.11644 0.30974 0.0
H769 H 0.27506 0.10806 0.33877 0.0
H770 H 0.33816 0.10089 0.27145 0.0
H771 H 0.31935 0.12717 0.37712 0.0
H772 H 0.2983 0.10544 0.31401 0.0
H773 H 0.36069 0.12051 0.33475 0.0
C774 C 0.36892 0.1139 0.30659 0.0
C775 C 0.36287 0.10827 0.2885 0.0
C776 C 0.30297 0.11025 0.32782 0.0
C777 C 0.33648 0.11288 0.31697 0.0
C778 C 0.28969 0.11175 0.34199 0.0
C779 C 0.29528 0.11782 0.36006 0.0
C780 C 0.32204 0.11479 0.33171 0.0
C781 C 0.31443 0.12243 0.36338 0.0
C782 C 0.35577 0.11624 0.32085 0.0
C783 C 0.34348 0.10521 0.28518 0.0
N784 N 0.32716 0.12076 0.34933 0.0
N785 N 0.331 0.10752 0.29928 0.0
H786 H 0.91219 0.26622 0.3474 0.0
H787 H 0.83894 0.33347 0.29888 0.0
H788 H 0.85201 0.25598 0.3519 0.0
H789 H 0.89654 0.35011 0.31289 0.0
H790 H 0.84292 0.30424 0.31644 0.0
H791 H 0.90639 0.29592 0.332 0.0
C792 C 0.89772 0.27016 0.34506 0.0
C793 C 0.88255 0.25859 0.35096 0.0
C794 C 0.85458 0.31443 0.31578 0.0
C795 C 0.87582 0.29273 0.33334 0.0
C796 C 0.85233 0.3311 0.3058 0.0
C797 C 0.86748 0.3442 0.30427 0.0
C798 C 0.87216 0.31081 0.32404 0.0
C799 C 0.8845 0.34041 0.31355 0.0
C800 C 0.89443 0.28722 0.33638 0.0
C801 C 0.86411 0.26451 0.3476 0.0
N802 N 0.88642 0.324 0.32285 0.0
N803 N 0.86124 0.28119 0.33892 0.0
H804 H 0.63324 0.8566 0.37833 0.0
H805 H 0.63985 0.87153 0.2676 0.0
H806 H 0.68563 0.86364 0.34822 0.0
H807 H 0.58834 0.85282 0.29461 0.0
H808 H 0.65676 0.86809 0.29731 0.0
H809 H 0.61629 0.85433 0.34811 0.0
C810 C 0.64119 0.85748 0.3654 0.0
C811 C 0.66085 0.86052 0.36581 0.0
C812 C 0.64178 0.86458 0.29675 0.0
C813 C 0.64162 0.85806 0.33133 0.0
C814 C 0.63211 0.8666 0.27978 0.0
C815 C 0.61265 0.86257 0.27868 0.0
C816 C 0.6319 0.85872 0.31283 0.0
C817 C 0.60336 0.8561 0.29488 0.0
C818 C 0.63152 0.85618 0.34818 0.0
C819 C 0.67045 0.86149 0.34864 0.0
N820 N 0.61304 0.85455 0.31137 0.0
N821 N 0.66072 0.86044 0.33214 0.0
H822 H 0.09894 0.60334 0.33244 0.0
H823 H 0.14341 0.70561 0.35543 0.0
H824 H 0.12987 0.63729 0.29229 0.0
H825 H 0.0994 0.67825 0.38786 0.0
H826 H 0.14519 0.67721 0.33597 0.0
H827 H 0.10583 0.62729 0.35655 0.0
C828 C 0.10743 0.61568 0.32876 0.0
C829 C 0.11357 0.61849 0.31026 0.0
C830 C 0.13534 0.67738 0.34752 0.0
C831 C 0.12146 0.64588 0.33773 0.0
C832 C 0.13435 0.69354 0.35865 0.0
C833 C 0.12102 0.69437 0.37306 0.0
C834 C 0.12301 0.66196 0.35097 0.0
C835 C 0.10967 0.6783 0.37668 0.0
C836 C 0.1113 0.62936 0.34251 0.0
C837 C 0.12461 0.6347 0.30632 0.0
N838 N 0.11082 0.6628 0.3656 0.0
N839 N 0.12805 0.64789 0.31991 0.0
H840 H 0.38697 0.90013 0.66985 0.0
H841 H 0.29236 0.84542 0.63568 0.0
H842 H 0.35546 0.86063 0.70425 0.0
H843 H 0.31822 0.89226 0.60612 0.0
H844 H 0.31871 0.84658 0.65814 0.0
H845 H 0.36511 0.89322 0.64379 0.0
C846 C 0.37555 0.88988 0.67189 0.0
C847 C 0.3729 0.88112 0.68934 0.0
C848 C 0.31869 0.85647 0.64662 0.0
C849 C 0.34783 0.87316 0.65956 0.0
C850 C 0.30369 0.85578 0.63375 0.0
C851 C 0.30295 0.86894 0.61916 0.0
C852 C 0.33307 0.87038 0.64484 0.0
C853 C 0.31809 0.88199 0.6173 0.0
C854 C 0.36307 0.88596 0.657 0.0
C855 C 0.35793 0.86786 0.6911 0.0
N856 N 0.33244 0.88248 0.63009 0.0
N857 N 0.34587 0.86439 0.67643 0.0
H858 H 0.13833 0.36591 0.72138 0.0
H859 H 0.11634 0.27623 0.65571 0.0
H860 H 0.10109 0.3192 0.7361 0.0
H861 H 0.14463 0.32685 0.63579 0.0
H862 H 0.11584 0.28972 0.68718 0.0
H863 H 0.1458 0.3497 0.692 0.0
C864 C 0.13193 0.35214 0.71856 0.0
C865 C 0.11891 0.34396 0.73109 0.0
C866 C 0.12227 0.29787 0.67598 0.0
C867 C 0.12736 0.32544 0.69761 0.0
C868 C 0.12257 0.29017 0.65796 0.0
C869 C 0.1303 0.30055 0.64301 0.0
C870 C 0.1297 0.31613 0.67915 0.0
C871 C 0.13838 0.31843 0.64688 0.0
C872 C 0.13615 0.34295 0.70177 0.0
C873 C 0.11105 0.32612 0.72675 0.0
N874 N 0.13772 0.32576 0.66458 0.0
N875 N 0.11532 0.31751 0.71033 0.0
H876 H 0.72292 0.15137 0.62953 0.0
H877 H 0.63073 0.10127 0.67295 0.0
H878 H 0.714 0.0913 0.63455 0.0
H879 H 0.64593 0.15963 0.68378 0.0
H880 H 0.65849 0.09883 0.6533 0.0
H881 H 0.69242 0.15584 0.64479 0.0
C882 C 0.71456 0.13915 0.63382 0.0
C883 C 0.72106 0.12094 0.63089 0.0
C884 C 0.65569 0.11222 0.65986 0.0
C885 C 0.68621 0.12594 0.64798 0.0
C886 C 0.63977 0.11366 0.67102 0.0
C887 C 0.63613 0.13062 0.68026 0.0
C888 C 0.66809 0.12784 0.65785 0.0
C889 C 0.64829 0.14623 0.67705 0.0
C890 C 0.69719 0.14171 0.64249 0.0
C891 C 0.70965 0.1056 0.63666 0.0
N892 N 0.66386 0.14443 0.66622 0.0
N893 N 0.6928 0.10845 0.64488 0.0
H894 H 0.90213 0.67665 0.61394 0.0
H895 H 0.84486 0.62611 0.69693 0.0
H896 H 0.86813 0.70585 0.65409 0.0
H897 H 0.88654 0.59874 0.6634 0.0
H898 H 0.84868 0.65408 0.67739 0.0
H899 H 0.89243 0.64681 0.62839 0.0
C900 C 0.89256 0.67679 0.62573 0.0
C901 C 0.88611 0.69378 0.63296 0.0
C902 C 0.85684 0.64187 0.67419 0.0
C903 C 0.87488 0.65972 0.64945 0.0
C904 C 0.85459 0.62585 0.68527 0.0
C905 C 0.86561 0.61017 0.68197 0.0
C906 C 0.87017 0.64216 0.65969 0.0
C907 C 0.87793 0.61061 0.66661 0.0
C908 C 0.88702 0.65975 0.63395 0.0
C909 C 0.87363 0.69311 0.64818 0.0
N910 N 0.88002 0.62643 0.65615 0.0
N911 N 0.86849 0.67636 0.65597 0.0
H912 H 0.32313 0.3925 0.11742 0.0
H913 H 0.34916 0.29412 0.16276 0.0
H914 H 0.29214 0.36707 0.1632 0.0
H915 H 0.37721 0.31908 0.11491 0.0
H916 H 0.33099 0.32262 0.16627 0.0
H917 H 0.34606 0.36785 0.1197 0.0
C918 C 0.32125 0.38182 0.1281 0.0
C919 C 0.30555 0.38169 0.13996 0.0
C920 C 0.34125 0.32189 0.15512 0.0
C921 C 0.33169 0.35324 0.14253 0.0
C922 C 0.35163 0.30565 0.15311 0.0
C923 C 0.36454 0.30413 0.13837 0.0
C924 C 0.34386 0.3367 0.14232 0.0
C925 C 0.36725 0.31952 0.12634 0.0
C926 C 0.33436 0.36772 0.12939 0.0
C927 C 0.30397 0.36763 0.15368 0.0
N928 N 0.3569 0.33508 0.12851 0.0
N929 N 0.31676 0.35381 0.15444 0.0
H930 H 0.34665 0.70397 0.89239 0.0
H931 H 0.28498 0.62111 0.84335 0.0
H932 H 0.36388 0.67609 0.84153 0.0
H933 H 0.26556 0.65551 0.88905 0.0
H934 H 0.31422 0.64037 0.84254 0.0
H935 H 0.31727 0.68539 0.89168 0.0
C936 C 0.34428 0.69389 0.88106 0.0
C937 C 0.35779 0.69156 0.867 0.0
C938 C 0.30351 0.64373 0.85267 0.0
C939 C 0.324 0.67019 0.8661 0.0
C940 C 0.28682 0.63275 0.85315 0.0
C941 C 0.27282 0.63667 0.86633 0.0
C942 C 0.30623 0.65863 0.86555 0.0
C943 C 0.27595 0.65193 0.87866 0.0
C944 C 0.32743 0.68332 0.88064 0.0
C945 C 0.35385 0.67833 0.85266 0.0
N946 N 0.29234 0.66228 0.87802 0.0
N947 N 0.33731 0.66808 0.8526 0.0
H948 H 0.28025 0.35712 0.84826 0.0
H949 H 0.35824 0.30437 0.9074 0.0
H950 H 0.30291 0.37677 0.90171 0.0
H951 H 0.34045 0.28685 0.85158 0.0
H952 H 0.34002 0.3326 0.90405 0.0
H953 H 0.30423 0.33313 0.8475 0.0
C954 C 0.29042 0.35657 0.8597 0.0
C955 C 0.28939 0.36878 0.87522 0.0
C956 C 0.34019 0.32269 0.89244 0.0
C957 C 0.31672 0.34133 0.8745 0.0
C958 C 0.35056 0.30652 0.89438 0.0
C959 C 0.35067 0.29313 0.87983 0.0
C960 C 0.32965 0.32544 0.87592 0.0
C961 C 0.34065 0.29676 0.86319 0.0
C962 C 0.30408 0.34286 0.85927 0.0
C963 C 0.30299 0.3675 0.88959 0.0
N964 N 0.33034 0.3125 0.86176 0.0
N965 N 0.31594 0.35389 0.88897 0.0
H966 H 0.60446 0.30916 0.83872 0.0
H967 H 0.6697 0.3786 0.90194 0.0
H968 H 0.61625 0.30182 0.89784 0.0
H969 H 0.67228 0.3775 0.84127 0.0
H970 H 0.64382 0.35532 0.9006 0.0
H971 H 0.62347 0.33868 0.83954 0.0
C972 C 0.61081 0.3139 0.8519 0.0
C973 C 0.60901 0.30299 0.86819 0.0
C974 C 0.64991 0.36029 0.88756 0.0
C975 C 0.63046 0.33656 0.86926 0.0
C976 C 0.66468 0.37362 0.8883 0.0
C977 C 0.6734 0.37975 0.8717 0.0
C978 C 0.6438 0.35295 0.8701 0.0
C979 C 0.66609 0.373 0.85443 0.0
C980 C 0.62167 0.33067 0.85234 0.0
C981 C 0.61751 0.3097 0.8849 0.0
N982 N 0.65182 0.35973 0.85407 0.0
N983 N 0.6279 0.32601 0.88498 0.0
H984 H 0.76024 0.68644 0.8864 0.0
H985 H 0.64784 0.68205 0.87267 0.0
H986 H 0.7267 0.63483 0.88205 0.0
H987 H 0.68042 0.73351 0.8827 0.0
H988 H 0.67707 0.66476 0.87278 0.0
H989 H 0.73154 0.70419 0.88191 0.0
C990 C 0.74687 0.67884 0.88442 0.0
C991 C 0.74585 0.65913 0.88475 0.0
C992 C 0.67783 0.67985 0.87486 0.0
C993 C 0.71301 0.67932 0.87959 0.0
C994 C 0.66114 0.68973 0.87477 0.0
C995 C 0.66168 0.70923 0.87783 0.0
C996 C 0.69518 0.68953 0.87803 0.0
C997 C 0.67933 0.71846 0.88041 0.0
C998 C 0.7305 0.68898 0.88187 0.0
C999 C 0.72815 0.65002 0.88204 0.0
N1000 N 0.69537 0.70852 0.88054 0.0
N1001 N 0.71244 0.66018 0.87964 0.0
H1002 H 0.65085 0.67004 0.10212 0.0
H1003 H 0.76309 0.68268 0.09268 0.0
H1004 H 0.67966 0.72294 0.0901 0.0
H1005 H 0.73413 0.62909 0.10097 0.0
H1006 H 0.7327 0.69793 0.0932 0.0
H1007 H 0.68137 0.65497 0.10328 0.0
C1008 C 0.66359 0.67849 0.09977 0.0
C1009 C 0.66271 0.69776 0.09595 0.0
C1010 C 0.733 0.68284 0.09493 0.0
C1011 C 0.69763 0.68064 0.09725 0.0
C1012 C 0.75035 0.67413 0.09464 0.0
C1013 C 0.75115 0.65458 0.09673 0.0
C1014 C 0.71633 0.67193 0.09734 0.0
C1015 C 0.73419 0.6442 0.09925 0.0
C1016 C 0.681 0.66988 0.10042 0.0
C1017 C 0.67966 0.70803 0.09303 0.0
N1018 N 0.71748 0.653 0.09947 0.0
N1019 N 0.69641 0.69934 0.09372 0.0
H1020 H 0.36273 0.68662 0.14501 0.0
H1021 H 0.26594 0.66469 0.08897 0.0
H1022 H 0.35138 0.70429 0.0881 0.0
H1023 H 0.27902 0.63922 0.14233 0.0
H1024 H 0.29639 0.68146 0.08998 0.0
H1025 H 0.33146 0.67083 0.14562 0.0
C1026 C 0.35371 0.68715 0.13265 0.0
C1027 C 0.3597 0.69676 0.11647 0.0
C1028 C 0.29262 0.67224 0.10151 0.0
C1029 C 0.32398 0.67891 0.11713 0.0
C1030 C 0.27518 0.66269 0.10097 0.0
C1031 C 0.26996 0.65044 0.11554 0.0
C1032 C 0.305 0.66958 0.11674 0.0
C1033 C 0.28251 0.64849 0.13076 0.0
C1034 C 0.33588 0.67816 0.13302 0.0
C1035 C 0.34742 0.69702 0.10088 0.0
N1036 N 0.29951 0.65792 0.13094 0.0
N1037 N 0.33017 0.68827 0.10162 0.0
H1038 H 0.71073 0.36426 0.12184 0.0
H1039 H 0.61854 0.31809 0.07253 0.0
H1040 H 0.68164 0.38928 0.07506 0.0
H1041 H 0.65197 0.29032 0.1145 0.0
H1042 H 0.63866 0.34636 0.07653 0.0
H1043 H 0.68624 0.33945 0.1228 0.0
C1044 C 0.69906 0.36468 0.11191 0.0
C1045 C 0.69836 0.37874 0.09817 0.0
C1046 C 0.64151 0.33412 0.08495 0.0
C1047 C 0.67035 0.35025 0.09911 0.0
C1048 C 0.63003 0.31796 0.08268 0.0
C1049 C 0.63371 0.30175 0.09306 0.0
C1050 C 0.65675 0.33407 0.09771 0.0
C1051 C 0.64872 0.30245 0.10608 0.0
C1052 C 0.68511 0.35046 0.11243 0.0
C1053 C 0.68283 0.37863 0.08578 0.0
N1054 N 0.65976 0.31831 0.10795 0.0
N1055 N 0.66953 0.36448 0.08642 0.0
H1056 H 0.59987 0.87951 0.82925 0.0
H1057 H 0.6283 0.77338 0.84625 0.0
H1058 H 0.64516 0.85289 0.80012 0.0
H1059 H 0.58754 0.80177 0.88006 0.0
H1060 H 0.63546 0.80282 0.83005 0.0
H1061 H 0.59632 0.85187 0.84924 0.0
C1062 C 0.60923 0.86795 0.8272 0.0
C1063 C 0.62271 0.86844 0.81285 0.0
C1064 C 0.62502 0.80265 0.84107 0.0
C1065 C 0.61857 0.83667 0.83555 0.0
C1066 C 0.62085 0.78581 0.85028 0.0
C1067 C 0.60719 0.78508 0.86445 0.0
C1068 C 0.61538 0.81888 0.84596 0.0
C1069 C 0.59811 0.80167 0.86917 0.0
C1070 C 0.60717 0.85215 0.8386 0.0
C1071 C 0.63451 0.8531 0.81093 0.0
N1072 N 0.60229 0.81788 0.85986 0.0
N1073 N 0.63202 0.83775 0.82201 0.0
H1074 H 0.20254 0.63455 0.81401 0.0
H1075 H 0.09947 0.59145 0.78978 0.0
H1076 H 0.16445 0.61184 0.8558 0.0
H1077 H 0.1429 0.60155 0.74852 0.0
H1078 H 0.12082 0.60455 0.81412 0.0
H1079 H 0.17825 0.62854 0.78992 0.0
C1080 C 0.18899 0.62855 0.81817 0.0
C1081 C 0.18561 0.62344 0.8369 0.0
C1082 C 0.1256 0.604 0.79971 0.0
C1083 C 0.15783 0.61645 0.8094 0.0
C1084 C 0.11343 0.59656 0.78581 0.0
C1085 C 0.11951 0.59521 0.76714 0.0
C1086 C 0.14389 0.61026 0.79484 0.0
C1087 C 0.13771 0.6021 0.76278 0.0
C1088 C 0.17516 0.62505 0.80439 0.0
C1089 C 0.16774 0.61579 0.84149 0.0
N1090 N 0.14928 0.60926 0.77654 0.0
N1091 N 0.15457 0.61238 0.82779 0.0
H1092 H 0.34737 0.16044 0.77976 0.0
H1093 H 0.3732 0.17077 0.88912 0.0
H1094 H 0.37505 0.11788 0.812 0.0
H1095 H 0.3528 0.21594 0.85494 0.0
H1096 H 0.36878 0.14934 0.86234 0.0
H1097 H 0.34419 0.17902 0.80848 0.0
C1098 C 0.35263 0.15492 0.7929 0.0
C1099 C 0.36173 0.1377 0.79344 0.0
C1100 C 0.3651 0.16391 0.86077 0.0
C1101 C 0.35816 0.1589 0.82634 0.0
C1102 C 0.36757 0.17614 0.87607 0.0
C1103 C 0.36361 0.19523 0.87419 0.0
C1104 C 0.3586 0.17082 0.84349 0.0
C1105 C 0.35625 0.20138 0.85696 0.0
C1106 C 0.35082 0.16554 0.80929 0.0
C1107 C 0.36813 0.13118 0.81089 0.0
N1108 N 0.35414 0.18924 0.84224 0.0
N1109 N 0.36636 0.14186 0.82663 0.0
H1110 H 0.80532 0.32274 0.78189 0.0
H1111 H 0.77779 0.392 0.8642 0.0
H1112 H 0.84502 0.36107 0.80988 0.0
H1113 H 0.74185 0.34457 0.84751 0.0
H1114 H 0.80266 0.38022 0.84442 0.0
H1115 H 0.78211 0.32929 0.80618 0.0
C1116 C 0.80927 0.3323 0.79327 0.0
C1117 C 0.82704 0.3416 0.79369 0.0
C1118 C 0.7894 0.37227 0.84516 0.0
C1119 C 0.80054 0.34927 0.8213 0.0
C1120 C 0.77514 0.37907 0.85637 0.0
C1121 C 0.75767 0.36933 0.85736 0.0
C1122 C 0.78615 0.35573 0.83461 0.0
C1123 C 0.7551 0.35253 0.84707 0.0
C1124 C 0.796 0.33604 0.80711 0.0
C1125 C 0.83142 0.35375 0.80884 0.0
N1126 N 0.76915 0.34634 0.83593 0.0
N1127 N 0.81818 0.35742 0.82188 0.0
H1128 H 0.62116 0.18823 0.1118 0.0
H1129 H 0.67356 0.14759 0.202 0.0
H1130 H 0.66407 0.21975 0.14322 0.0
H1131 H 0.62707 0.11956 0.1725 0.0
H1132 H 0.67442 0.17182 0.17761 0.0
H1133 H 0.62729 0.16079 0.13086 0.0
C1134 C 0.63198 0.18936 0.12266 0.0
C1135 C 0.64191 0.2064 0.12613 0.0
C1136 C 0.66421 0.16022 0.17638 0.0
C1137 C 0.64895 0.17496 0.14815 0.0
C1138 C 0.66376 0.14635 0.19024 0.0
C1139 C 0.65003 0.13171 0.1894 0.0
C1140 C 0.65088 0.15931 0.16161 0.0
C1141 C 0.6377 0.13077 0.17386 0.0
C1142 C 0.6355 0.17364 0.13354 0.0
C1143 C 0.65597 0.20692 0.14019 0.0
N1144 N 0.63832 0.14446 0.16069 0.0
N1145 N 0.65892 0.19147 0.15087 0.0
H1146 H 0.8432 0.60613 0.24008 0.0
H1147 H 0.86203 0.63409 0.13309 0.0
H1148 H 0.89469 0.63446 0.22221 0.0
H1149 H 0.80742 0.61686 0.15463 0.0
H1150 H 0.87475 0.63395 0.1653 0.0
H1151 H 0.83025 0.6094 0.20842 0.0
C1152 C 0.85177 0.6131 0.22951 0.0
C1153 C 0.87007 0.62 0.23379 0.0
C1154 C 0.85996 0.63033 0.16293 0.0
C1155 C 0.85536 0.62371 0.19742 0.0
C1156 C 0.8527 0.63039 0.14456 0.0
C1157 C 0.83366 0.62539 0.14113 0.0
C1158 C 0.8481 0.62509 0.17788 0.0
C1159 C 0.82221 0.62075 0.15655 0.0
C1160 C 0.84435 0.61501 0.21142 0.0
C1161 C 0.8805 0.62896 0.21952 0.0
N1162 N 0.82963 0.62061 0.17419 0.0
N1163 N 0.87305 0.63045 0.20192 0.0
H1164 H 0.35705 0.77517 0.13658 0.0
H1165 H 0.4131 0.86961 0.16831 0.0
H1166 H 0.41413 0.78974 0.12009 0.0
H1167 H 0.36145 0.84982 0.1944 0.0
H1168 H 0.41122 0.84268 0.14696 0.0
H1169 H 0.35619 0.80462 0.15447 0.0
C1170 C 0.36935 0.7846 0.13662 0.0
C1171 C 0.38574 0.77993 0.12694 0.0
C1172 C 0.40024 0.84428 0.15729 0.0
C1173 C 0.3848 0.8136 0.14728 0.0
C1174 C 0.40126 0.85969 0.16946 0.0
C1175 C 0.3875 0.86188 0.18328 0.0
C1176 C 0.38532 0.83095 0.15889 0.0
C1177 C 0.37244 0.84861 0.18403 0.0
C1178 C 0.36885 0.80138 0.14686 0.0
C1179 C 0.40125 0.79269 0.12747 0.0
N1180 N 0.3718 0.83363 0.17206 0.0
N1181 N 0.4004 0.80892 0.1375 0.0
H1182 H 0.20955 0.41762 0.13271 0.0
H1183 H 0.14423 0.34356 0.18623 0.0
H1184 H 0.22222 0.35871 0.13406 0.0
H1185 H 0.1255 0.39762 0.16769 0.0
H1186 H 0.1727 0.34805 0.16726 0.0
H1187 H 0.1788 0.41021 0.14623 0.0
C1188 C 0.20585 0.4031 0.13586 0.0
C1189 C 0.21849 0.38876 0.13237 0.0
C1190 C 0.1622 0.35878 0.16716 0.0
C1191 C 0.18325 0.38016 0.14791 0.0
C1192 C 0.14594 0.35622 0.17796 0.0
C1193 C 0.13259 0.37036 0.17877 0.0
C1194 C 0.16514 0.37566 0.15733 0.0
C1195 C 0.1355 0.38643 0.16769 0.0
C1196 C 0.18822 0.39885 0.14347 0.0
C1197 C 0.21287 0.37017 0.13658 0.0
N1198 N 0.15157 0.38875 0.15766 0.0
N1199 N 0.19569 0.3664 0.14433 0.0
H1200 H 0.80383 0.59346 0.84339 0.0
H1201 H 0.88907 0.61759 0.77366 0.0
H1202 H 0.84499 0.63841 0.85414 0.0
H1203 H 0.84796 0.57216 0.76516 0.0
H1204 H 0.87317 0.62601 0.80283 0.0
H1205 H 0.81987 0.58606 0.81438 0.0
C1206 C 0.81628 0.60181 0.83966 0.0
C1207 C 0.82308 0.61659 0.85127 0.0
C1208 C 0.86765 0.61421 0.79455 0.0
C1209 C 0.84161 0.60812 0.81786 0.0
C1210 C 0.8767 0.6094 0.7779 0.0
C1211 C 0.86984 0.59413 0.76696 0.0
C1212 C 0.85163 0.60368 0.80025 0.0
C1213 C 0.85377 0.58402 0.77313 0.0
C1214 C 0.82544 0.59756 0.82303 0.0
C1215 C 0.83926 0.62689 0.84562 0.0
N1216 N 0.84525 0.58898 0.78934 0.0
N1217 N 0.848 0.62245 0.82929 0.0
H1218 H 0.34582 0.83961 0.7788 0.0
H1219 H 0.40485 0.78928 0.85944 0.0
H1220 H 0.40209 0.8571 0.79674 0.0
H1221 H 0.34899 0.77015 0.84175 0.0
H1222 H 0.40249 0.81616 0.83863 0.0
H1223 H 0.34517 0.81598 0.80374 0.0
C1224 C 0.35796 0.83859 0.78806 0.0
C1225 C 0.37411 0.85021 0.78556 0.0
C1226 C 0.39068 0.80617 0.83935 0.0
C1227 C 0.37347 0.82327 0.81404 0.0
C1228 C 0.39202 0.79079 0.85125 0.0
C1229 C 0.37717 0.77733 0.85219 0.0
C1230 C 0.37442 0.8081 0.82817 0.0
C1231 C 0.36082 0.78014 0.84138 0.0
C1232 C 0.35759 0.8251 0.80228 0.0
C1233 C 0.38941 0.84833 0.79801 0.0
N1234 N 0.35994 0.79514 0.82968 0.0
N1235 N 0.38874 0.83505 0.81161 0.0
H1236 H 0.17078 0.39682 0.89776 0.0
H1237 H 0.14138 0.32987 0.81097 0.0
H1238 H 0.21002 0.36404 0.8663 0.0
H1239 H 0.10532 0.37165 0.83438 0.0
H1240 H 0.16455 0.33697 0.83589 0.0
H1241 H 0.14482 0.38265 0.8791 0.0
C1242 C 0.17393 0.38651 0.88706 0.0
C1243 C 0.19262 0.38181 0.88338 0.0
C1244 C 0.15145 0.3444 0.8357 0.0
C1245 C 0.163 0.36553 0.86207 0.0
C1246 C 0.13817 0.34029 0.82154 0.0
C1247 C 0.12153 0.35042 0.82041 0.0
C1248 C 0.14803 0.35867 0.84885 0.0
C1249 C 0.11809 0.36369 0.83456 0.0
C1250 C 0.1591 0.37844 0.87642 0.0
C1251 C 0.19584 0.36827 0.86944 0.0
N1252 N 0.13133 0.36758 0.84807 0.0
N1253 N 0.18119 0.36071 0.85919 0.0
H1254 H 0.63249 0.13006 0.78895 0.0
H1255 H 0.62119 0.23917 0.81171 0.0
H1256 H 0.61143 0.16983 0.74887 0.0
H1257 H 0.61855 0.19604 0.85416 0.0
H1258 H 0.62637 0.21496 0.78789 0.0
H1259 H 0.63596 0.15547 0.81227 0.0
C1260 C 0.62885 0.14418 0.78498 0.0
C1261 C 0.62144 0.14785 0.76706 0.0
C1262 C 0.62488 0.21088 0.80247 0.0
C1263 C 0.62553 0.17683 0.7935 0.0
C1264 C 0.62199 0.22466 0.81607 0.0
C1265 C 0.61916 0.21955 0.83488 0.0
C1266 C 0.62516 0.19193 0.80779 0.0
C1267 C 0.6204 0.20054 0.83976 0.0
C1268 C 0.63078 0.15861 0.79829 0.0
C1269 C 0.61696 0.16637 0.76263 0.0
N1270 N 0.62321 0.18737 0.82625 0.0
N1271 N 0.61902 0.18019 0.7758 0.0
H1272 H 0.83513 0.37207 0.23274 0.0
H1273 H 0.80851 0.40048 0.12734 0.0
H1274 H 0.87012 0.40798 0.19775 0.0
H1275 H 0.77109 0.36825 0.16335 0.0
H1276 H 0.83273 0.40024 0.15189 0.0
H1277 H 0.81285 0.36773 0.20649 0.0
C1278 C 0.83816 0.37898 0.21952 0.0
C1279 C 0.85444 0.39052 0.21746 0.0
C1280 C 0.81927 0.39311 0.15439 0.0
C1281 C 0.82906 0.38558 0.18741 0.0
C1282 C 0.80543 0.3932 0.14035 0.0
C1283 C 0.78767 0.38453 0.14338 0.0
C1284 C 0.81532 0.38433 0.17161 0.0
C1285 C 0.78454 0.37522 0.16047 0.0
C1286 C 0.82545 0.37649 0.20455 0.0
C1287 C 0.85769 0.39907 0.20002 0.0
N1288 N 0.79819 0.37549 0.17402 0.0
N1289 N 0.84508 0.39647 0.18569 0.0
H1290 H 0.63439 0.82183 0.2032 0.0
H1291 H 0.59273 0.78898 0.10282 0.0
H1292 H 0.59764 0.85533 0.16921 0.0
H1293 H 0.62404 0.75322 0.13983 0.0
H1294 H 0.59751 0.81486 0.1253 0.0
H1295 H 0.63414 0.79808 0.17825 0.0
C1296 C 0.62642 0.82429 0.19042 0.0
C1297 C 0.61585 0.8405 0.18838 0.0
C1298 C 0.6034 0.80137 0.12845 0.0
C1299 C 0.61542 0.81333 0.15982 0.0
C1300 C 0.60067 0.78659 0.11563 0.0
C1301 C 0.60786 0.76887 0.11953 0.0
C1302 C 0.61342 0.79841 0.14527 0.0
C1303 C 0.61811 0.7666 0.13631 0.0
C1304 C 0.62623 0.81069 0.17621 0.0
C1305 C 0.60586 0.84297 0.17147 0.0
N1306 N 0.62052 0.78118 0.14859 0.0
N1307 N 0.60578 0.82946 0.1579 0.0
H1308 H 0.11042 0.60607 0.19627 0.0
H1309 H 0.19323 0.66857 0.1514 0.0
H1310 H 0.13563 0.65497 0.22399 0.0
H1311 H 0.16417 0.62218 0.12292 0.0
H1312 H 0.16978 0.66662 0.17643 0.0
H1313 H 0.12747 0.61434 0.16777 0.0
C1314 C 0.11945 0.61865 0.19631 0.0
C1315 C 0.12183 0.6297 0.2126 0.0
C1316 C 0.1684 0.65705 0.16456 0.0
C1317 C 0.14155 0.6392 0.18001 0.0
C1318 C 0.18176 0.65818 0.15025 0.0
C1319 C 0.18084 0.6453 0.13522 0.0
C1320 C 0.15411 0.6429 0.16381 0.0
C1321 C 0.16562 0.63221 0.13439 0.0
C1322 C 0.12916 0.6234 0.18 0.0
C1323 C 0.13351 0.64597 0.21177 0.0
N1324 N 0.15301 0.6312 0.1486 0.0
N1325 N 0.14316 0.65011 0.1958 0.0
H1326 H 0.36058 0.19328 0.12908 0.0
H1327 H 0.41031 0.15625 0.22273 0.0
H1328 H 0.4011 0.22583 0.16254 0.0
H1329 H 0.3716 0.12192 0.1889 0.0
H1330 H 0.40566 0.18238 0.20145 0.0
H1331 H 0.36281 0.16752 0.15161 0.0
C1332 C 0.36983 0.19507 0.14121 0.0
C1333 C 0.38075 0.21169 0.14388 0.0
C1334 C 0.39814 0.16916 0.19866 0.0
C1335 C 0.38341 0.18232 0.1696 0.0
C1336 C 0.40081 0.1542 0.21082 0.0
C1337 C 0.39137 0.13684 0.20756 0.0
C1338 C 0.38597 0.1668 0.18307 0.0
C1339 C 0.3792 0.13504 0.19191 0.0
C1340 C 0.37113 0.18035 0.15403 0.0
C1341 C 0.3925 0.21324 0.15985 0.0
N1342 N 0.37687 0.14985 0.1802 0.0
N1343 N 0.39355 0.19873 0.17204 0.0
H1344 H 0.85961 0.80274 0.63358 0.0
H1345 H 0.74763 0.81123 0.62335 0.0
H1346 H 0.82071 0.7551 0.62746 0.0
H1347 H 0.78707 0.85871 0.62177 0.0
H1348 H 0.77396 0.79058 0.629 0.0
H1349 H 0.83284 0.82358 0.63364 0.0
C1350 C 0.84544 0.79665 0.63245 0.0
C1351 C 0.84239 0.77717 0.63032 0.0
C1352 C 0.77683 0.80553 0.62751 0.0
C1353 C 0.81175 0.80091 0.6303 0.0
C1354 C 0.76181 0.81733 0.62428 0.0
C1355 C 0.76517 0.8367 0.62191 0.0
C1356 C 0.79535 0.81317 0.6284 0.0
C1357 C 0.78383 0.84384 0.62335 0.0
C1358 C 0.83017 0.80856 0.63242 0.0
C1359 C 0.82373 0.77005 0.62895 0.0
N1360 N 0.79823 0.83206 0.62643 0.0
N1361 N 0.80912 0.78193 0.62885 0.0
H1362 H 0.86289 0.17662 0.32992 0.0
H1363 H 0.80708 0.1042 0.39555 0.0
H1364 H 0.8826 0.159 0.38451 0.0
H1365 H 0.7888 0.11723 0.33915 0.0
H1366 H 0.83664 0.12156 0.39007 0.0
H1367 H 0.83767 0.15236 0.3312 0.0
C1368 C 0.86211 0.16748 0.34204 0.0
C1369 C 0.87471 0.17003 0.35726 0.0
C1370 C 0.82629 0.12049 0.37878 0.0
C1371 C 0.84584 0.14239 0.35886 0.0
C1372 C 0.80936 0.11059 0.38193 0.0
C1373 C 0.79537 0.10946 0.36786 0.0
C1374 C 0.82919 0.12958 0.36152 0.0
C1375 C 0.79918 0.11784 0.35042 0.0
C1376 C 0.84768 0.15365 0.34277 0.0
C1377 C 0.87307 0.15772 0.37255 0.0
N1378 N 0.81566 0.12778 0.34781 0.0
N1379 N 0.85877 0.1446 0.37304 0.0
H1380 H 0.7538 0.84666 0.37872 0.0
H1381 H 0.85677 0.8264 0.41745 0.0
H1382 H 0.77994 0.87701 0.4254 0.0
H1383 H 0.83372 0.80248 0.36588 0.0
H1384 H 0.82969 0.84662 0.41946 0.0
H1385 H 0.78363 0.83163 0.37282 0.0
C1386 C 0.76584 0.85022 0.3877 0.0
C1387 C 0.76434 0.86297 0.40271 0.0
C1388 C 0.83066 0.8371 0.40759 0.0
C1389 C 0.79854 0.84577 0.39603 0.0
C1390 C 0.84612 0.82555 0.40643 0.0
C1391 C 0.84738 0.81256 0.39159 0.0
C1392 C 0.81626 0.83553 0.39392 0.0
C1393 C 0.83326 0.81219 0.37763 0.0
C1394 C 0.7829 0.84168 0.38427 0.0
C1395 C 0.78044 0.86717 0.41375 0.0
N1396 N 0.81815 0.82334 0.37926 0.0
N1397 N 0.79684 0.85846 0.4103 0.0
H1398 H 0.12877 0.79006 0.40559 0.0
H1399 H 0.18144 0.85656 0.33177 0.0
H1400 H 0.12044 0.78335 0.34563 0.0
H1401 H 0.17681 0.86938 0.39098 0.0
H1402 H 0.15966 0.82947 0.33597 0.0
H1403 H 0.14752 0.81865 0.40003 0.0
C1404 C 0.13092 0.79459 0.39122 0.0
C1405 C 0.12307 0.78427 0.37603 0.0
C1406 C 0.16331 0.83836 0.34797 0.0
C1407 C 0.14458 0.81712 0.36957 0.0
C1408 C 0.17571 0.85381 0.34559 0.0
C1409 C 0.18108 0.86516 0.36108 0.0
C1410 C 0.15641 0.8342 0.36598 0.0
C1411 C 0.17319 0.86097 0.37865 0.0
C1412 C 0.14156 0.811 0.38806 0.0
C1413 C 0.12625 0.7909 0.35773 0.0
N1414 N 0.1614 0.84575 0.38064 0.0
N1415 N 0.13688 0.80689 0.35498 0.0
H1416 H 0.198 0.15322 0.37857 0.0
H1417 H 0.18893 0.26126 0.40737 0.0
H1418 H 0.24454 0.18783 0.40021 0.0
H1419 H 0.14386 0.22762 0.38155 0.0
H1420 H 0.20994 0.23494 0.40373 0.0
H1421 H 0.17832 0.18073 0.37841 0.0
C1422 C 0.20411 0.16663 0.38321 0.0
C1423 C 0.22291 0.1682 0.38953 0.0
C1424 C 0.19548 0.23337 0.39877 0.0
C1425 C 0.20043 0.19975 0.38946 0.0
C1426 C 0.18348 0.24839 0.40085 0.0
C1427 C 0.16458 0.2466 0.39488 0.0
C1428 C 0.18851 0.21642 0.39073 0.0
C1429 C 0.1583 0.22961 0.38645 0.0
C1430 C 0.19287 0.18234 0.3831 0.0
C1431 C 0.2301 0.18595 0.39528 0.0
N1432 N 0.17021 0.21514 0.38473 0.0
N1433 N 0.21881 0.20101 0.39523 0.0
H1434 H 0.19069 0.13493 0.64197 0.0
H1435 H 0.14221 0.21357 0.5799 0.0
H1436 H 0.1949 0.13859 0.58152 0.0
H1437 H 0.13267 0.20734 0.63947 0.0
H1438 H 0.16062 0.18524 0.58028 0.0
H1439 H 0.16835 0.16047 0.64146 0.0
C1440 C 0.18682 0.14099 0.62859 0.0
C1441 C 0.19481 0.13472 0.61179 0.0
C1442 C 0.15443 0.18998 0.59327 0.0
C1443 C 0.16938 0.16395 0.61111 0.0
C1444 C 0.14394 0.2062 0.59307 0.0
C1445 C 0.136 0.2129 0.60971 0.0
C1446 C 0.15716 0.18044 0.61027 0.0
C1447 C 0.1386 0.20269 0.62633 0.0
C1448 C 0.17407 0.15557 0.62831 0.0
C1449 C 0.18923 0.14304 0.59485 0.0
N1450 N 0.14908 0.18703 0.62622 0.0
N1451 N 0.17697 0.15729 0.59497 0.0
H1452 H 0.82452 0.11981 0.60336 0.0
H1453 H 0.8683 0.21582 0.64612 0.0
H1454 H 0.80353 0.14606 0.65358 0.0
H1455 H 0.88095 0.19362 0.59119 0.0
H1456 H 0.84931 0.18721 0.65253 0.0
H1457 H 0.85006 0.14345 0.60243 0.0
C1458 C 0.82539 0.13045 0.61433 0.0
C1459 C 0.81167 0.13115 0.6284 0.0
C1460 C 0.85646 0.18853 0.63919 0.0
C1461 C 0.84088 0.1584 0.62732 0.0
C1462 C 0.86735 0.2048 0.63555 0.0
C1463 C 0.876 0.20716 0.618 0.0
C1464 C 0.85436 0.17456 0.62522 0.0
C1465 C 0.87431 0.19247 0.60481 0.0
C1466 C 0.83999 0.14397 0.61377 0.0
C1467 C 0.81369 0.14511 0.64237 0.0
N1468 N 0.86358 0.17687 0.60864 0.0
N1469 N 0.82791 0.15836 0.64135 0.0
H1470 H 0.19823 0.88151 0.62944 0.0
H1471 H 0.15701 0.77605 0.61937 0.0
H1472 H 0.22375 0.83874 0.59568 0.0
H1473 H 0.12321 0.82214 0.63742 0.0
H1474 H 0.18401 0.79786 0.61617 0.0
H1475 H 0.17287 0.85888 0.63757 0.0
C1476 C 0.19856 0.86734 0.62382 0.0
C1477 C 0.21303 0.86202 0.61175 0.0
C1478 C 0.17071 0.80318 0.62095 0.0
C1479 C 0.18424 0.83612 0.62112 0.0
C1480 C 0.1553 0.79073 0.62287 0.0
C1481 C 0.13775 0.79732 0.62849 0.0
C1482 C 0.16864 0.82236 0.62479 0.0
C1483 C 0.13644 0.81649 0.6329 0.0
C1484 C 0.18408 0.85447 0.62844 0.0
C1485 C 0.21277 0.84349 0.6049 0.0
N1486 N 0.15167 0.82838 0.63086 0.0
N1487 N 0.1986 0.83121 0.60968 0.0
H1488 H 0.14168 0.29677 0.45221 0.0
H1489 H 0.08905 0.31857 0.54809 0.0
H1490 H 0.08632 0.3202 0.45506 0.0
H1491 H 0.14048 0.28791 0.54422 0.0
H1492 H 0.09147 0.32608 0.51467 0.0
H1493 H 0.14493 0.30039 0.48623 0.0
C1494 C 0.13031 0.30294 0.45994 0.0
C1495 C 0.11353 0.30784 0.4508 0.0
C1496 C 0.10237 0.31796 0.52121 0.0
C1497 C 0.11713 0.31188 0.48982 0.0
C1498 C 0.10104 0.31371 0.54032 0.0
C1499 C 0.11439 0.30228 0.54888 0.0
C1500 C 0.11717 0.31075 0.51064 0.0
C1501 C 0.12969 0.2965 0.53813 0.0
C1502 C 0.13217 0.30498 0.47939 0.0
C1503 C 0.09939 0.31599 0.46154 0.0
N1504 N 0.13053 0.3006 0.51952 0.0
N1505 N 0.10139 0.3175 0.48054 0.0
H1506 H 0.74413 0.08765 0.54888 0.0
H1507 H 0.76679 0.13988 0.45222 0.0
H1508 H 0.7766 0.13992 0.54581 0.0
H1509 H 0.73098 0.08989 0.45675 0.0
H1510 H 0.76874 0.14163 0.48657 0.0
H1511 H 0.73758 0.08953 0.51526 0.0
C1512 C 0.74984 0.09957 0.54114 0.0
C1513 C 0.76106 0.11357 0.55015 0.0
C1514 C 0.76032 0.13039 0.48003 0.0
C1515 C 0.75365 0.11579 0.51155 0.0
C1516 C 0.75916 0.1294 0.46042 0.0
C1517 C 0.74888 0.1146 0.45159 0.0
C1518 C 0.75117 0.11644 0.49084 0.0
C1519 C 0.73923 0.10146 0.46293 0.0
C1520 C 0.74605 0.10066 0.52193 0.0
C1521 C 0.76795 0.12876 0.53942 0.0
N1522 N 0.74075 0.1026 0.48194 0.0
N1523 N 0.76425 0.1294 0.52064 0.0
H1524 H 0.93454 0.75021 0.46557 0.0
H1525 H 0.87822 0.75393 0.56251 0.0
H1526 H 0.87597 0.76453 0.46981 0.0
H1527 H 0.93801 0.74454 0.5593 0.0
H1528 H 0.87672 0.7555 0.52828 0.0
H1529 H 0.93565 0.74574 0.49963 0.0
C1530 C 0.92189 0.75234 0.47364 0.0
C1531 C 0.90516 0.75784 0.46484 0.0
C1532 C 0.89017 0.75305 0.53505 0.0
C1533 C 0.90634 0.75276 0.50379 0.0
C1534 C 0.89104 0.75213 0.55461 0.0
C1535 C 0.90829 0.74919 0.5638 0.0
C1536 C 0.90667 0.751 0.52455 0.0
C1537 C 0.92442 0.7469 0.55281 0.0
C1538 C 0.92255 0.74981 0.49309 0.0
C1539 C 0.8892 0.76037 0.476 0.0
N1540 N 0.92322 0.74791 0.53375 0.0
N1541 N 0.89021 0.75785 0.49489 0.0
H1542 H 0.24824 0.91591 0.43306 0.0
H1543 H 0.25517 0.84621 0.52058 0.0
H1544 H 0.24114 0.85558 0.42819 0.0
H1545 H 0.26387 0.90644 0.52466 0.0
H1546 H 0.25213 0.84903 0.48642 0.0
H1547 H 0.25614 0.91242 0.46632 0.0
C1548 C 0.24846 0.90191 0.43895 0.0
C1549 C 0.24388 0.88602 0.42784 0.0
C1550 C 0.25484 0.86161 0.49479 0.0
C1551 C 0.25284 0.88192 0.46598 0.0
C1552 C 0.25659 0.86001 0.5143 0.0
C1553 C 0.25965 0.87612 0.52553 0.0
C1554 C 0.2561 0.87946 0.48646 0.0
C1555 C 0.26141 0.89363 0.51659 0.0
C1556 C 0.25297 0.89992 0.45796 0.0
C1557 C 0.24448 0.86823 0.43624 0.0
N1558 N 0.25949 0.89484 0.49762 0.0
N1559 N 0.24874 0.86667 0.45483 0.0
H1560 H 0.08297 0.74553 0.55722 0.0
H1561 H 0.14162 0.73352 0.46248 0.0
H1562 H 0.14341 0.73965 0.55619 0.0
H1563 H 0.08096 0.7373 0.46404 0.0
H1564 H 0.1426 0.73523 0.49682 0.0
H1565 H 0.082 0.74222 0.52305 0.0
C1566 C 0.09604 0.74354 0.54981 0.0
C1567 C 0.1133 0.7429 0.55958 0.0
C1568 C 0.12907 0.73562 0.48965 0.0
C1569 C 0.11229 0.73908 0.52043 0.0
C1570 C 0.1285 0.73463 0.47004 0.0
C1571 C 0.11119 0.73532 0.46037 0.0
C1572 C 0.11221 0.73736 0.49965 0.0
C1573 C 0.09464 0.73675 0.4709 0.0
C1574 C 0.09548 0.74162 0.53029 0.0
C1575 C 0.12979 0.74025 0.54923 0.0
N1576 N 0.09557 0.73778 0.48996 0.0
N1577 N 0.12888 0.73847 0.53021 0.0
H1578 H 0.26248 0.13106 0.44888 0.0
H1579 H 0.27913 0.06732 0.53908 0.0
H1580 H 0.27732 0.07275 0.44582 0.0
H1581 H 0.25958 0.12414 0.54107 0.0
H1582 H 0.28442 0.07078 0.5053 0.0
H1583 H 0.2673 0.13043 0.48286 0.0
C1584 C 0.26695 0.11816 0.45533 0.0
C1585 C 0.26918 0.10183 0.44454 0.0
C1586 C 0.2792 0.08256 0.51319 0.0
C1587 C 0.2746 0.10098 0.48349 0.0
C1588 C 0.27622 0.08062 0.53248 0.0
C1589 C 0.26859 0.09536 0.54283 0.0
C1590 C 0.27454 0.09937 0.50425 0.0
C1591 C 0.2652 0.1123 0.53358 0.0
C1592 C 0.2697 0.11781 0.47475 0.0
C1593 C 0.27523 0.08561 0.45363 0.0
N1594 N 0.268 0.11377 0.51479 0.0
N1595 N 0.27749 0.08552 0.47264 0.0
H1596 H 0.85146 0.22772 0.5286 0.0
H1597 H 0.91222 0.24166 0.43534 0.0
H1598 H 0.90215 0.26284 0.52539 0.0
H1599 H 0.86008 0.20863 0.43702 0.0
H1600 H 0.90758 0.251 0.46795 0.0
H1601 H 0.85301 0.22222 0.49467 0.0
C1602 C 0.8628 0.23443 0.52075 0.0
C1603 C 0.87679 0.24562 0.52988 0.0
C1604 C 0.89709 0.24178 0.46118 0.0
C1605 C 0.87872 0.23928 0.49111 0.0
C1606 C 0.89975 0.23641 0.44255 0.0
C1607 C 0.88658 0.22424 0.43347 0.0
C1608 C 0.88119 0.23487 0.4709 0.0
C1609 C 0.87064 0.21798 0.4435 0.0
C1610 C 0.8637 0.23125 0.50138 0.0
C1611 C 0.89112 0.254 0.51898 0.0
N1612 N 0.86844 0.22328 0.46173 0.0
N1613 N 0.89179 0.25054 0.50021 0.0
H1614 H 0.70207 0.85154 0.46046 0.0
H1615 H 0.67898 0.90344 0.55693 0.0
H1616 H 0.66704 0.89992 0.46433 0.0
H1617 H 0.71608 0.8567 0.55245 0.0
H1618 H 0.67024 0.89912 0.52382 0.0
H1619 H 0.70297 0.84992 0.49473 0.0
C1620 C 0.69434 0.86167 0.4685 0.0
C1621 C 0.6847 0.87607 0.4595 0.0
C1622 C 0.68013 0.88968 0.53013 0.0
C1623 C 0.68582 0.8744 0.49879 0.0
C1624 C 0.68512 0.89212 0.54906 0.0
C1625 C 0.6985 0.8806 0.55741 0.0
C1626 C 0.68862 0.87563 0.51947 0.0
C1627 C 0.70588 0.86607 0.54654 0.0
C1628 C 0.69489 0.86076 0.48809 0.0
C1629 C 0.67481 0.8887 0.47066 0.0
N1630 N 0.70099 0.86414 0.52809 0.0
N1631 N 0.67583 0.88772 0.48973 0.0
H1632 H 0.46779 0.08818 0.27277 0.0
H1633 H 0.56759 0.12388 0.23359 0.0
H1634 H 0.47674 0.14115 0.24438 0.0
H1635 H 0.56042 0.07523 0.26914 0.0
H1636 H 0.53453 0.131 0.23837 0.0
H1637 H 0.50184 0.08381 0.27281 0.0
C1638 C 0.47693 0.09898 0.2667 0.0
C1639 C 0.46939 0.11499 0.25841 0.0
C1640 C 0.5402 0.11884 0.24524 0.0
C1641 C 0.50835 0.10998 0.25827 0.0
C1642 C 0.55908 0.11473 0.24247 0.0
C1643 C 0.56675 0.09884 0.25086 0.0
C1644 C 0.52883 0.10689 0.25635 0.0
C1645 C 0.55508 0.08758 0.26234 0.0
C1646 C 0.49637 0.09647 0.26673 0.0
C1647 C 0.48191 0.12855 0.25085 0.0
N1648 N 0.53666 0.09173 0.26462 0.0
N1649 N 0.50076 0.12565 0.25079 0.0
H1650 H 0.83239 0.54028 0.28202 0.0
H1651 H 0.89337 0.44851 0.29357 0.0
H1652 H 0.88956 0.54105 0.30365 0.0
H1653 H 0.83465 0.44674 0.27669 0.0
H1654 H 0.89154 0.48226 0.2992 0.0
H1655 H 0.83215 0.50591 0.28189 0.0
C1656 C 0.84483 0.53324 0.28691 0.0
C1657 C 0.86107 0.54358 0.2927 0.0
C1658 C 0.879 0.47448 0.29441 0.0
C1659 C 0.86094 0.50425 0.29246 0.0
C1660 C 0.88004 0.45519 0.29118 0.0
C1661 C 0.86418 0.44479 0.28451 0.0
C1662 C 0.862 0.48351 0.29083 0.0
C1663 C 0.84726 0.4542 0.28175 0.0
C1664 C 0.84469 0.5136 0.28682 0.0
C1665 C 0.87675 0.53368 0.29895 0.0
N1666 N 0.84667 0.47306 0.28476 0.0
N1667 N 0.87634 0.51459 0.29851 0.0
H1668 H 0.5354 0.9127 0.25982 0.0
H1669 H 0.44343 0.84929 0.2337 0.0
H1670 H 0.53659 0.86128 0.22735 0.0
H1671 H 0.44163 0.90579 0.25595 0.0
H1672 H 0.47789 0.85108 0.23619 0.0
H1673 H 0.50126 0.90807 0.26313 0.0
C1674 C 0.52851 0.90039 0.25347 0.0
C1675 C 0.53882 0.88746 0.24312 0.0
C1676 C 0.46992 0.86302 0.24068 0.0
C1677 C 0.49983 0.88205 0.24692 0.0
C1678 C 0.45026 0.86197 0.23934 0.0
C1679 C 0.43967 0.87749 0.24444 0.0
C1680 C 0.47901 0.87966 0.24724 0.0
C1681 C 0.44925 0.89356 0.25168 0.0
C1682 C 0.50902 0.89776 0.25536 0.0
C1683 C 0.52916 0.87171 0.23528 0.0
N1684 N 0.46839 0.89427 0.25275 0.0
N1685 N 0.5102 0.86949 0.23728 0.0
H1686 H 0.11718 0.53872 0.24643 0.0
H1687 H 0.06986 0.43795 0.26924 0.0
H1688 H 0.0696 0.53033 0.28328 0.0
H1689 H 0.11211 0.44729 0.22663 0.0
H1690 H 0.07268 0.4712 0.27785 0.0
H1691 H 0.11864 0.50468 0.24242 0.0
C1692 C 0.10715 0.52972 0.25382 0.0
C1693 C 0.09312 0.53739 0.26505 0.0
C1694 C 0.08141 0.46595 0.26669 0.0
C1695 C 0.09467 0.49845 0.26047 0.0
C1696 C 0.07983 0.44695 0.26178 0.0
C1697 C 0.09063 0.43987 0.24706 0.0
C1698 C 0.0939 0.47793 0.25684 0.0
C1699 C 0.10338 0.45218 0.23796 0.0
C1700 C 0.10796 0.51029 0.25149 0.0
C1701 C 0.08055 0.52505 0.27435 0.0
N1702 N 0.10459 0.47063 0.24292 0.0
N1703 N 0.08155 0.50619 0.27176 0.0
H1704 H 0.45578 0.93327 0.72273 0.0
H1705 H 0.54847 0.88703 0.76332 0.0
H1706 H 0.45688 0.87684 0.74465 0.0
H1707 H 0.54927 0.93997 0.73391 0.0
H1708 H 0.5151 0.88254 0.7553 0.0
H1709 H 0.49018 0.93547 0.72519 0.0
C1710 C 0.46326 0.92128 0.72789 0.0
C1711 C 0.45342 0.90492 0.73367 0.0
C1712 C 0.52259 0.89508 0.75047 0.0
C1713 C 0.49276 0.90739 0.73665 0.0
C1714 C 0.54164 0.89768 0.75509 0.0
C1715 C 0.55162 0.91399 0.74941 0.0
C1716 C 0.51337 0.90895 0.74024 0.0
C1717 C 0.54209 0.92723 0.73865 0.0
C1718 C 0.48291 0.92254 0.72928 0.0
C1719 C 0.46386 0.88977 0.74014 0.0
N1720 N 0.52343 0.9245 0.73455 0.0
N1721 N 0.48295 0.89146 0.74163 0.0
H1722 H 0.10636 0.42388 0.77411 0.0
H1723 H 0.09838 0.50835 0.70145 0.0
H1724 H 0.08047 0.41739 0.71913 0.0
H1725 H 0.12974 0.51223 0.75378 0.0
H1726 H 0.09307 0.47469 0.70668 0.0
H1727 H 0.11586 0.45606 0.76627 0.0
C1728 C 0.10264 0.42923 0.76038 0.0
C1729 C 0.09247 0.41795 0.7473 0.0
C1730 C 0.10128 0.48288 0.71691 0.0
C1731 C 0.1034 0.45487 0.73819 0.0
C1732 C 0.10438 0.50209 0.71391 0.0
C1733 C 0.11437 0.51318 0.7273 0.0
C1734 C 0.10812 0.47472 0.73347 0.0
C1735 C 0.12185 0.50429 0.74314 0.0
C1736 C 0.10816 0.4476 0.75587 0.0
C1737 C 0.08821 0.42562 0.72967 0.0
N1738 N 0.1184 0.48563 0.74588 0.0
N1739 N 0.0936 0.44365 0.72566 0.0
H1740 H 0.4397 0.12885 0.75031 0.0
H1741 H 0.53755 0.09976 0.70498 0.0
H1742 H 0.44459 0.08293 0.71087 0.0
H1743 H 0.5322 0.145 0.74512 0.0
H1744 H 0.50321 0.09504 0.70478 0.0
H1745 H 0.47321 0.13657 0.74647 0.0
C1746 C 0.44779 0.12044 0.74076 0.0
C1747 C 0.43934 0.10512 0.73101 0.0
C1748 C 0.50955 0.10608 0.71353 0.0
C1749 C 0.47781 0.11386 0.72659 0.0
C1750 C 0.52916 0.10881 0.71363 0.0
C1751 C 0.53779 0.12271 0.72519 0.0
C1752 C 0.4985 0.11732 0.7251 0.0
C1753 C 0.52619 0.13404 0.73606 0.0
C1754 C 0.46695 0.12486 0.73857 0.0
C1755 C 0.45053 0.0948 0.71874 0.0
N1756 N 0.50718 0.13101 0.73584 0.0
N1757 N 0.46922 0.09929 0.71697 0.0
H1758 H 0.88799 0.50667 0.69823 0.0
H1759 H 0.85092 0.41425 0.75135 0.0
H1760 H 0.84281 0.50592 0.73858 0.0
H1761 H 0.89505 0.41433 0.70987 0.0
H1762 H 0.8463 0.44745 0.74516 0.0
H1763 H 0.88902 0.47249 0.70027 0.0
C1764 C 0.87813 0.49931 0.70735 0.0
C1765 C 0.86541 0.50921 0.7184 0.0
C1766 C 0.85694 0.44021 0.73734 0.0
C1767 C 0.86665 0.47007 0.72092 0.0
C1768 C 0.85963 0.42124 0.7409 0.0
C1769 C 0.87351 0.41152 0.73121 0.0
C1770 C 0.86825 0.4496 0.72403 0.0
C1771 C 0.88426 0.42129 0.71774 0.0
C1772 C 0.87876 0.47978 0.70855 0.0
C1773 C 0.85293 0.49891 0.7299 0.0
N1774 N 0.88148 0.43983 0.71462 0.0
N1775 N 0.85398 0.47992 0.73099 0.0
H1776 H 0.27185 0.56928 0.08635 0.0
H1777 H 0.2412 0.47992 0.14813 0.0
H1778 H 0.22384 0.56747 0.12332 0.0
H1779 H 0.28404 0.47886 0.10538 0.0
H1780 H 0.23792 0.5135 0.14263 0.0
H1781 H 0.2794 0.53751 0.09625 0.0
C1782 C 0.26294 0.56224 0.0966 0.0
C1783 C 0.24708 0.57098 0.10388 0.0
C1784 C 0.24816 0.50595 0.13457 0.0
C1785 C 0.2557 0.53468 0.11533 0.0
C1786 C 0.2501 0.48679 0.13776 0.0
C1787 C 0.26277 0.47651 0.12705 0.0
C1788 C 0.25895 0.51492 0.12057 0.0
C1789 C 0.27398 0.48619 0.11385 0.0
C1790 C 0.26727 0.54411 0.10225 0.0
C1791 C 0.2361 0.56122 0.1172 0.0
N1792 N 0.2717 0.50482 0.11087 0.0
N1793 N 0.24058 0.54358 0.12244 0.0
H1794 H 0.22422 0.5511 0.86888 0.0
H1795 H 0.28636 0.46866 0.91004 0.0
H1796 H 0.27059 0.5604 0.90802 0.0
H1797 H 0.23736 0.45937 0.87421 0.0
H1798 H 0.28313 0.50255 0.90655 0.0
H1799 H 0.23108 0.51774 0.86792 0.0
C1800 C 0.23591 0.54615 0.87721 0.0
C1801 C 0.24674 0.55854 0.88869 0.0
C1802 C 0.27318 0.49309 0.89934 0.0
C1803 C 0.25467 0.52031 0.88765 0.0
C1804 C 0.27504 0.47373 0.90128 0.0
C1805 C 0.26201 0.46115 0.89254 0.0
C1806 C 0.25818 0.49992 0.88858 0.0
C1807 C 0.24766 0.46854 0.88132 0.0
C1808 C 0.23983 0.52708 0.87665 0.0
C1809 C 0.26179 0.55133 0.89907 0.0
N1810 N 0.24606 0.48743 0.87977 0.0
N1811 N 0.26524 0.53267 0.89839 0.0
H1812 H 0.43906 0.22919 0.86043 0.0
H1813 H 0.53128 0.27595 0.90976 0.0
H1814 H 0.43791 0.26479 0.90978 0.0
H1815 H 0.53328 0.23585 0.86406 0.0
H1816 H 0.49687 0.27398 0.90823 0.0
H1817 H 0.47345 0.23335 0.85986 0.0
C1818 C 0.44602 0.23795 0.87109 0.0
C1819 C 0.43559 0.2466 0.88522 0.0
C1820 C 0.50483 0.26564 0.8985 0.0
C1821 C 0.4749 0.2514 0.88465 0.0
C1822 C 0.52449 0.26678 0.89935 0.0
C1823 C 0.53518 0.25597 0.88709 0.0
C1824 C 0.49576 0.25361 0.88528 0.0
C1825 C 0.5256 0.24437 0.87384 0.0
C1826 C 0.46565 0.24029 0.87077 0.0
C1827 C 0.44536 0.25779 0.89867 0.0
N1828 N 0.50642 0.24346 0.87332 0.0
N1829 N 0.46445 0.25983 0.89806 0.0
H1830 H 0.7571 0.55991 0.91934 0.0
H1831 H 0.72754 0.46368 0.86761 0.0
H1832 H 0.74985 0.55494 0.85912 0.0
H1833 H 0.72304 0.47204 0.92759 0.0
H1834 H 0.73548 0.49713 0.86413 0.0
H1835 H 0.74464 0.52772 0.92267 0.0
C1836 C 0.75283 0.55207 0.90682 0.0
C1837 C 0.75461 0.56008 0.88892 0.0
C1838 C 0.73259 0.49168 0.87803 0.0
C1839 C 0.7404 0.52322 0.89263 0.0
C1840 C 0.72807 0.47258 0.88004 0.0
C1841 C 0.72475 0.46504 0.89794 0.0
C1842 C 0.734 0.50327 0.89407 0.0
C1843 C 0.72554 0.47724 0.91353 0.0
C1844 C 0.74565 0.53371 0.90874 0.0
C1845 C 0.74876 0.54931 0.8732 0.0
N1846 N 0.73027 0.49573 0.91125 0.0
N1847 N 0.74205 0.53137 0.87541 0.0
H1848 H 0.46003 0.68683 0.89662 0.0
H1849 H 0.54409 0.73057 0.83537 0.0
H1850 H 0.45217 0.7246 0.85009 0.0
H1851 H 0.55222 0.6947 0.88336 0.0
H1852 H 0.51013 0.72391 0.83699 0.0
H1853 H 0.49334 0.68497 0.88845 0.0
C1854 C 0.46523 0.69452 0.88453 0.0
C1855 C 0.45335 0.70615 0.87423 0.0
C1856 C 0.51937 0.71729 0.84702 0.0
C1857 C 0.49149 0.70418 0.86487 0.0
C1858 C 0.53879 0.72106 0.84607 0.0
C1859 C 0.55101 0.71343 0.85943 0.0
C1860 C 0.51211 0.70588 0.86148 0.0
C1861 C 0.54331 0.70109 0.87289 0.0
C1862 C 0.48427 0.69348 0.87988 0.0
C1863 C 0.46085 0.71567 0.8586 0.0
N1864 N 0.52434 0.69789 0.87372 0.0
N1865 N 0.47948 0.71465 0.85455 0.0
H1866 H 0.77923 0.55388 0.08072 0.0
H1867 H 0.75294 0.465 0.14451 0.0
H1868 H 0.76851 0.55814 0.14026 0.0
H1869 H 0.75375 0.46338 0.08378 0.0
H1870 H 0.75864 0.49908 0.14349 0.0
H1871 H 0.77033 0.52049 0.08178 0.0
C1872 C 0.77499 0.5478 0.09402 0.0
C1873 C 0.77466 0.5588 0.11044 0.0
C1874 C 0.75742 0.49126 0.1304 0.0
C1875 C 0.76447 0.52057 0.11176 0.0
C1876 C 0.75416 0.47181 0.13097 0.0
C1877 C 0.75298 0.4613 0.11421 0.0
C1878 C 0.75967 0.5002 0.11295 0.0
C1879 C 0.75463 0.47088 0.09707 0.0
C1880 C 0.76984 0.52874 0.0946 0.0
C1881 C 0.76898 0.55018 0.12726 0.0
N1882 N 0.75803 0.48975 0.09689 0.0
N1883 N 0.76419 0.53154 0.12751 0.0
H1884 H 0.54909 0.71089 0.14437 0.0
H1885 H 0.45877 0.68062 0.08211 0.0
H1886 H 0.55172 0.68173 0.09106 0.0
H1887 H 0.45735 0.71737 0.13058 0.0
H1888 H 0.49185 0.67466 0.0892 0.0
H1889 H 0.51474 0.70689 0.1435 0.0
C1890 C 0.54249 0.70334 0.13265 0.0
C1891 C 0.55329 0.69694 0.11759 0.0
C1892 C 0.48422 0.68383 0.09842 0.0
C1893 C 0.51396 0.69246 0.11645 0.0
C1894 C 0.46531 0.68721 0.09441 0.0
C1895 C 0.45537 0.69979 0.10557 0.0
C1896 C 0.49323 0.69306 0.11372 0.0
C1897 C 0.46455 0.70781 0.12141 0.0
C1898 C 0.52286 0.70112 0.13213 0.0
C1899 C 0.54395 0.68714 0.10285 0.0
N1900 N 0.48302 0.70448 0.12489 0.0
N1901 N 0.5248 0.68542 0.10252 0.0
H1902 H 0.5569 0.24872 0.12361 0.0
H1903 H 0.45289 0.27446 0.08986 0.0
H1904 H 0.54278 0.26616 0.06726 0.0
H1905 H 0.46571 0.2539 0.14542 0.0
H1906 H 0.48632 0.27397 0.08228 0.0
H1907 H 0.52407 0.25272 0.13269 0.0
C1908 C 0.54692 0.25343 0.11316 0.0
C1909 C 0.55257 0.25701 0.09461 0.0
C1910 C 0.48186 0.26966 0.09617 0.0
C1911 C 0.51502 0.26165 0.10492 0.0
C1912 C 0.46275 0.26997 0.10053 0.0
C1913 C 0.45646 0.26409 0.11827 0.0
C1914 C 0.49482 0.26339 0.10962 0.0
C1915 C 0.46992 0.25848 0.13154 0.0
C1916 C 0.52818 0.25572 0.11836 0.0
C1917 C 0.53904 0.26314 0.08168 0.0
N1918 N 0.48847 0.25817 0.1269 0.0
N1919 N 0.5209 0.26522 0.08708 0.0
H1920 H 0.55895 0.72921 0.0359 0.0
H1921 H 0.6207 0.73556 0.94242 0.0
H1922 H 0.61985 0.7285 0.03542 0.0
H1923 H 0.55975 0.73487 0.94234 0.0
H1924 H 0.62065 0.73567 0.97672 0.0
H1925 H 0.55895 0.73393 0.00188 0.0
C1926 C 0.57233 0.73016 0.02867 0.0
C1927 C 0.58942 0.72831 0.0385 0.0
C1928 C 0.60728 0.7356 0.96922 0.0
C1929 C 0.58952 0.73367 -0.00042 0.0
C1930 C 0.6073 0.73555 0.94961 0.0
C1931 C 0.5902 0.73505 0.93949 0.0
C1932 C 0.59003 0.73511 0.9788 0.0
C1933 C 0.57327 0.73515 0.94957 0.0
C1934 C 0.57232 0.73285 0.00924 0.0
C1935 C 0.60633 0.72972 0.02841 0.0
N1936 N 0.57361 0.73505 0.96869 0.0
N1937 N 0.60594 0.73222 0.00949 0.0
H1938 H 0.20245 0.60254 0.94327 0.0
H1939 H 0.21138 0.66791 0.03505 0.0
H1940 H 0.21378 0.66249 0.94136 0.0
H1941 H 0.20418 0.60745 0.03635 0.0
H1942 H 0.2087 0.66678 0.00074 0.0
H1943 H 0.19935 0.60472 0.97733 0.0
C1944 C 0.20415 0.6162 0.94999 0.0
C1945 C 0.20856 0.63234 0.93945 0.0
C1946 C 0.20758 0.65378 0.00855 0.0
C1947 C 0.20511 0.6349 0.97853 0.0
C1948 C 0.20909 0.65441 0.02815 0.0
C1949 C 0.20817 0.63773 0.03858 0.0
C1950 C 0.20513 0.63634 -0.00066 0.0
C1951 C 0.20512 0.62065 0.02888 0.0
C1952 C 0.20239 0.61743 0.96947 0.0
C1953 C 0.21048 0.64966 0.94893 0.0
N1954 N 0.20381 0.6204 0.00981 0.0
N1955 N 0.20888 0.65047 0.96796 0.0
H1956 H 0.41253 0.21308 0.05701 0.0
H1957 H 0.35891 0.24418 0.96334 0.0
H1958 H 0.36783 0.25291 0.05608 0.0
H1959 H 0.40887 0.211 0.96376 0.0
H1960 H 0.3585 0.24308 -0.00232 0.0
H1961 H 0.4078 0.20778 0.02331 0.0
C1962 C 0.40158 0.22057 0.04977 0.0
C1963 C 0.39073 0.23365 0.05934 0.0
C1964 C 0.36945 0.2359 0.99024 0.0
C1965 C 0.38529 0.22769 0.02074 0.0
C1966 C 0.36967 0.23648 0.97063 0.0
C1967 C 0.38409 0.22787 0.96067 0.0
C1968 C 0.38372 0.22662 -4e-05 0.0
C1969 C 0.3976 0.21801 0.97087 0.0
C1970 C 0.39891 0.21755 0.03051 0.0
C1971 C 0.37666 0.24284 0.04924 0.0
N1972 N 0.39718 0.21779 0.98996 0.0
N1973 N 0.37446 0.2398 0.03045 0.0
H1974 H 0.73983 0.35207 0.04227 0.0
H1975 H 0.75332 0.40996 0.94734 0.0
H1976 H 0.77045 0.40534 0.03847 0.0
H1977 H 0.72457 0.3556 0.94955 0.0
H1978 H 0.76228 0.40684 0.98028 0.0
H1979 H 0.73694 0.35125 0.00794 0.0
C1980 C 0.74619 0.36345 0.03422 0.0
C1981 C 0.75518 0.37892 0.04326 0.0
C1982 C 0.75412 0.39551 0.97357 0.0
C1983 C 0.75179 0.37814 0.00407 0.0
C1984 C 0.74895 0.39731 0.95474 0.0
C1985 C 0.73801 0.3831 0.94573 0.0
C1986 C 0.74819 0.37945 0.98356 0.0
C1987 C 0.73292 0.36695 0.95598 0.0
C1988 C 0.74449 0.363 0.01463 0.0
C1989 C 0.7632 0.39324 0.03212 0.0
N1990 N 0.73791 0.36563 0.97443 0.0
N1991 N 0.76115 0.39259 0.01314 0.0
H1992 H 0.64779 0.24695 0.93592 0.0
H1993 H 0.59695 0.22869 0.03426 0.0
H1994 H 0.59002 0.22672 0.9414 0.0
H1995 H 0.65505 0.24815 0.02964 0.0
H1996 H 0.59512 0.22545 0.00017 0.0
H1997 H 0.65173 0.24492 0.97005 0.0
C1998 C 0.63599 0.2419 0.94427 0.0
C1999 C 0.61849 0.23716 0.93581 0.0
C2000 C 0.60832 0.23033 0.00658 0.0
C2001 C 0.62288 0.23491 0.97485 0.0
C2002 C 0.60937 0.2322 0.02608 0.0
C2003 C 0.62614 0.23885 0.03482 0.0
C2004 C 0.62412 0.23523 0.99567 0.0
C2005 C 0.64181 0.24306 0.02349 0.0
C2006 C 0.63825 0.24078 0.96376 0.0
C2007 C 0.60373 0.23065 0.94732 0.0
N2008 N 0.64038 0.24131 0.00447 0.0
N2009 N 0.60622 0.22986 0.96624 0.0
H2010 H 0.81032 0.64125 0.04244 0.0
H2011 H 0.83302 0.58917 0.94607 0.0
H2012 H 0.83642 0.58735 0.03907 0.0
H2013 H 0.80193 0.64023 0.94996 0.0
H2014 H 0.84035 0.59168 0.97966 0.0
H2015 H 0.81328 0.64441 0.00843 0.0
C2016 C 0.81696 0.6302 0.0346 0.0
C2017 C 0.82281 0.61384 0.0436 0.0
C2018 C 0.83215 0.60247 0.97311 0.0
C2019 C 0.82609 0.61732 0.00458 0.0
C2020 C 0.82798 0.60108 0.95391 0.0
C2021 C 0.81655 0.61433 0.94525 0.0
C2022 C 0.82482 0.61721 0.98373 0.0
C2023 C 0.81056 0.62954 0.9561 0.0
C2024 C 0.8186 0.632 0.01515 0.0
C2025 C 0.83149 0.6001 0.03272 0.0
N2026 N 0.81457 0.63043 0.97481 0.0
N2027 N 0.83261 0.60202 0.01374 0.0
H2028 H 0.36616 0.76028 0.94439 0.0
H2029 H 0.42407 0.73427 0.03735 0.0
H2030 H 0.42076 0.73505 0.94367 0.0
H2031 H 0.36924 0.75902 0.03792 0.0
H2032 H 0.42412 0.73643 0.00306 0.0
H2033 H 0.36805 0.76194 0.97867 0.0
C2034 C 0.3786 0.75518 0.95143 0.0
C2035 C 0.39327 0.7474 0.94114 0.0
C2036 C 0.41212 0.74147 0.01069 0.0
C2037 C 0.3955 0.74921 0.98042 0.0
C2038 C 0.41208 0.74026 0.03028 0.0
C2039 C 0.39657 0.74637 0.04052 0.0
C2040 C 0.39651 0.74883 0.00126 0.0
C2041 C 0.38146 0.75405 0.0306 0.0
C2042 C 0.37967 0.75613 0.97102 0.0
C2043 C 0.40908 0.74109 0.95102 0.0
N2044 N 0.38177 0.75497 0.01153 0.0
N2045 N 0.40972 0.74204 0.97012 0.0
H2046 H 0.26789 0.39875 0.05269 0.0
H2047 H 0.222 0.44206 0.9601 0.0
H2048 H 0.22848 0.44378 0.0538 0.0
H2049 H 0.25513 0.39217 0.96003 0.0
H2050 H 0.22421 0.44304 0.99442 0.0
H2051 H 0.26348 0.39626 0.01867 0.0
C2052 C 0.25827 0.40809 0.04579 0.0
C2053 C 0.24858 0.42155 0.05609 0.0
C2054 C 0.23091 0.43182 0.98689 0.0
C2055 C 0.24351 0.41879 0.01714 0.0
C2056 C 0.22967 0.43127 0.9673 0.0
C2057 C 0.23845 0.41705 0.95718 0.0
C2058 C 0.2411 0.41814 -0.00358 0.0
C2059 C 0.24816 0.40341 0.96725 0.0
C2060 C 0.25573 0.40663 0.02636 0.0
C2061 C 0.23625 0.43322 0.04641 0.0
N2062 N 0.24931 0.40435 0.98631 0.0
N2063 N 0.23413 0.43164 0.02745 0.0
H2064 H 0.03994 0.53373 0.74841 0.0
H2065 H 0.94603 0.58413 0.71562 0.0
H2066 H 0.03954 0.58431 0.71516 0.0
H2067 H 0.94575 0.53418 0.74984 0.0
H2068 H 0.9804 0.58521 0.71676 0.0
H2069 H 0.00557 0.53441 0.7505 0.0
C2070 C 0.03264 0.54502 0.74162 0.0
C2071 C 0.04262 0.55893 0.7315 0.0
C2072 C 0.97285 0.57405 0.7241 0.0
C2073 C 0.00331 0.55977 0.73381 0.0
C2074 C 0.95319 0.57342 0.72345 0.0
C2075 C 0.94299 0.55897 0.73255 0.0
C2076 C 0.98243 0.56009 0.73386 0.0
C2077 C 0.95305 0.54554 0.74257 0.0
C2078 C 0.01302 0.5454 0.74282 0.0
C2079 C 0.03243 0.57325 0.72303 0.0
N2080 N 0.97224 0.54637 0.74286 0.0
N2081 N 0.01334 0.57325 0.72432 0.0
H2082 H 0.39904 0.94714 0.76476 0.0
H2083 H 0.33731 0.03782 0.7481 0.0
H2084 H 0.34338 0.94452 0.73943 0.0
H2085 H 0.39584 0.03998 0.76565 0.0
H2086 H 0.33773 0.00345 0.74843 0.0
H2087 H 0.39642 0.98093 0.76889 0.0
C2088 C 0.38618 0.95364 0.76017 0.0
C2089 C 0.37145 0.94298 0.75159 0.0
C2090 C 0.35043 0.01147 0.7523 0.0
C2091 C 0.36841 0.9818 0.75623 0.0
C2092 C 0.3502 0.03108 0.75216 0.0
C2093 C 0.36661 0.04179 0.75673 0.0
C2094 C 0.36716 0.00253 0.75714 0.0
C2095 C 0.3829 0.03231 0.7619 0.0
C2096 C 0.38472 0.97298 0.76251 0.0
C2097 C 0.35512 0.95221 0.74602 0.0
N2098 N 0.38277 0.01323 0.7619 0.0
N2099 N 0.35408 0.97113 0.74834 0.0
H2100 H 0.02285 0.36095 0.78832 0.0
H2101 H 0.9342 0.33048 0.72312 0.0
H2102 H 0.02736 0.33677 0.73275 0.0
H2103 H 0.92895 0.35603 0.77799 0.0
H2104 H 0.96836 0.3306 0.72753 0.0
H2105 H 0.98846 0.35727 0.78589 0.0
C2106 C 0.01663 0.35478 0.77565 0.0
C2107 C 0.02801 0.34926 0.76067 0.0
C2108 C 0.95975 0.3361 0.73866 0.0
C2109 C 0.98869 0.34504 0.75779 0.0
C2110 C 0.94021 0.33602 0.73616 0.0
C2111 C 0.92868 0.34336 0.75016 0.0
C2112 C 0.96788 0.34362 0.75527 0.0
C2113 C 0.9373 0.35029 0.76678 0.0
C2114 C -0.003 0.35269 0.77427 0.0
C2115 C 0.01917 0.34131 0.74462 0.0
N2116 N 0.95639 0.35035 0.76884 0.0
N2117 N 6e-05 0.33952 0.74359 0.0
H2118 H 0.64705 0.97575 0.76395 0.0
H2119 H 0.57663 0.06073 0.77485 0.0
H2120 H 0.59344 0.97082 0.79217 0.0
H2121 H 0.62555 0.06199 0.73908 0.0
H2122 H 0.58518 0.02954 0.78577 0.0
H2123 H 0.64216 0.00925 0.75962 0.0
C2124 C 0.63438 0.98175 0.76949 0.0
C2125 C 0.62052 0.9704 0.7782 0.0
C2126 C 0.59409 0.03672 0.77562 0.0
C2127 C 0.61476 0.00872 0.77314 0.0
C2128 C 0.58923 0.05452 0.76939 0.0
C2129 C 0.60027 0.06388 0.75586 0.0
C2130 C 0.61016 0.0283 0.76835 0.0
C2131 C 0.6165 0.0552 0.74935 0.0
C2132 C 0.63156 0.00088 0.76694 0.0
C2133 C 0.60442 0.979 0.78519 0.0
N2134 N 0.62089 0.03787 0.75558 0.0
N2135 N 0.6019 -0.00239 0.78233 0.0
H2136 H 0.9467 0.42477 0.23721 0.0
H2137 H 0.02533 0.34751 0.228 0.0
H2138 H 0.93722 0.3663 0.25128 0.0
H2139 H 0.03247 0.40437 0.20776 0.0
H2140 H 0.99231 0.35354 0.23467 0.0
H2141 H 0.97767 0.41723 0.22493 0.0
C2142 C 0.9511 0.41035 0.23768 0.0
C2143 C 0.9394 0.39618 0.24542 0.0
C2144 C 0.00105 0.36463 0.22857 0.0
C2145 C 0.97482 0.38743 0.23137 0.0
C2146 C 0.0199 0.36118 0.2247 0.0
C2147 C 0.03175 0.37551 0.21749 0.0
C2148 C 0.99404 0.3826 0.22534 0.0
C2149 C 0.0239 0.39293 0.21343 0.0
C2150 C 0.96876 0.40603 0.23061 0.0
C2151 C 0.9458 0.3777 0.24554 0.0
N2152 N 0.00561 0.39605 0.21762 0.0
N2153 N 0.96312 0.37389 0.23875 0.0
H2154 H 0.6636 0.03175 0.22976 0.0
H2155 H 0.5929 0.94374 0.21009 0.0
H2156 H 0.60527 0.03649 0.21286 0.0
H2157 H 0.65071 0.93836 0.22848 0.0
H2158 H 0.59806 0.97773 0.20859 0.0
H2159 H 0.66002 -0.00245 0.22697 0.0
C2160 C 0.65008 0.02563 0.22534 0.0
C2161 C 0.63468 0.03701 0.22166 0.0
C2162 C 0.60966 0.96913 0.21286 0.0
C2163 C 0.63048 -0.00211 0.21849 0.0
C2164 C 0.60673 0.94969 0.21371 0.0
C2165 C 0.62136 0.93818 0.21955 0.0
C2166 C 0.62735 0.97718 0.21793 0.0
C2167 C 0.639 0.9467 0.22399 0.0
C2168 C 0.64805 0.00609 0.22377 0.0
C2169 C 0.61751 0.02828 0.21594 0.0
N2170 N 0.64147 0.9657 0.22319 0.0
N2171 N 0.61586 0.00926 0.21463 0.0
H2172 H 0.03618 0.58721 0.2456 0.0
H2173 H 0.94216 0.62103 0.29523 0.0
H2174 H 0.03581 0.63143 0.28744 0.0
H2175 H 0.94329 0.5765 0.25377 0.0
H2176 H 0.97625 0.6259 0.29187 0.0
H2177 H 0.00193 0.58411 0.24754 0.0
C2178 C 0.02889 0.59635 0.25514 0.0
C2179 C 0.03891 0.60957 0.26643 0.0
C2180 C 0.96903 0.61508 0.28349 0.0
C2181 C -0.0004 0.60601 0.26879 0.0
C2182 C 0.94957 0.61228 0.28541 0.0
C2183 C 0.93987 0.59828 0.2748 0.0
C2184 C 0.97886 0.60382 0.27087 0.0
C2185 C 0.95018 0.58741 0.26227 0.0
C2186 C 0.00931 0.59455 0.25626 0.0
C2187 C 0.02867 0.62104 0.2785 0.0
N2188 N 0.96912 0.59039 0.26068 0.0
N2189 N 0.00957 0.61894 0.27942 0.0
H2190 H 0.38096 0.04861 0.23866 0.0
H2191 H 0.42469 0.95399 0.2014 0.0
H2192 H 0.43363 0.04675 0.20878 0.0
H2193 H 0.36953 0.95653 0.2264 0.0
H2194 H 0.42669 0.98826 0.20091 0.0
H2195 H 0.37504 0.01538 0.23142 0.0
C2196 C 0.39122 0.04125 0.23043 0.0
C2197 C 0.40795 0.0504 0.22453 0.0
C2198 C 0.41405 0.98134 0.2063 0.0
C2199 C 0.40129 0.01232 0.21627 0.0
C2200 C 0.41289 0.96175 0.20659 0.0
C2201 C 0.39703 0.95239 0.21419 0.0
C2202 C 0.39931 0.99165 0.21383 0.0
C2203 C 0.3821 0.96317 0.22054 0.0
C2204 C 0.3878 0.02227 0.22627 0.0
C2205 C 0.42062 0.04022 0.21374 0.0
N2206 N 0.38371 0.98225 0.22045 0.0
N2207 N 0.41713 0.02165 0.21015 0.0
H2208 H 0.78217 0.02755 0.57223 0.0
H2209 H 0.75973 0.94461 0.645 0.0
H2210 H 0.77247 0.0366 0.63143 0.0
H2211 H 0.75699 0.93762 0.58464 0.0
H2212 H 0.76967 0.9775 0.64072 0.0
H2213 H 0.77841 0.99367 0.57712 0.0
C2214 C 0.77946 0.02242 0.58629 0.0
C2215 C 0.77743 0.03493 0.60141 0.0
C2216 C 0.767 0.96873 0.62842 0.0
C2217 C 0.77307 0.99622 0.60708 0.0
C2218 C 0.76135 0.94994 0.63085 0.0
C2219 C 0.75735 0.9384 0.61515 0.0
C2220 C 0.76875 0.97599 0.61017 0.0
C2221 C 0.75977 0.94606 0.59714 0.0
C2222 C 0.77724 0.00308 0.58906 0.0
C2223 C 0.77397 0.02747 0.61933 0.0
N2224 N 0.76524 0.9644 0.59515 0.0
N2225 N 0.77179 0.0086 0.62165 0.0
H2226 H 0.75201 0.02668 0.39729 0.0
H2227 H 0.67358 0.94363 0.388 0.0
H2228 H 0.69219 0.03596 0.39327 0.0
H2229 H 0.73165 0.93468 0.40352 0.0
H2230 H 0.68058 0.97747 0.38716 0.0
H2231 H 0.74524 0.99276 0.39682 0.0
C2232 C 0.73746 0.02159 0.39626 0.0
C2233 C 0.72264 0.03416 0.39538 0.0
C2234 C 0.69178 0.96809 0.39076 0.0
C2235 C 0.71481 0.99542 0.39481 0.0
C2236 C 0.6878 0.94877 0.39121 0.0
C2237 C 0.70204 0.93632 0.39588 0.0
C2238 C 0.71016 0.97499 0.39489 0.0
C2239 C 0.72022 0.94378 0.39991 0.0
C2240 C 0.73361 0.00223 0.39604 0.0
C2241 C 0.70406 0.02678 0.39406 0.0
N2242 N 0.72377 0.96263 0.39929 0.0
N2243 N 0.70068 0.0079 0.3938 0.0
H2244 H 0.94736 0.79681 0.40395 0.0
H2245 H 0.03673 0.73809 0.37647 0.0
H2246 H 0.94479 0.74951 0.36558 0.0
H2247 H 0.0404 0.78963 0.40884 0.0
H2248 H 0.00344 0.74351 0.3702 0.0
H2249 H 0.98175 0.79618 0.40356 0.0
C2250 C 0.95403 0.78645 0.39524 0.0
C2251 C 0.94318 0.77303 0.38498 0.0
C2252 C 0.01155 0.75374 0.37852 0.0
C2253 C 0.98255 0.77209 0.38465 0.0
C2254 C 0.03056 0.75062 0.38216 0.0
C2255 C 0.0413 0.76331 0.39339 0.0
C2256 C 0.00317 0.76958 0.38631 0.0
C2257 C 0.03262 0.77939 0.40023 0.0
C2258 C 0.97368 0.78609 0.39503 0.0
C2259 C 0.95259 0.76003 0.37383 0.0
N2260 N 0.014 0.78197 0.39675 0.0
N2261 N 0.97174 0.75973 0.37416 0.0
H2262 H 0.22366 0.05613 0.34392 0.0
H2263 H 0.19579 0.96796 0.4083 0.0
H2264 H 0.21168 0.06015 0.40323 0.0
H2265 H 0.21636 0.9634 0.35152 0.0
H2266 H 0.19569 0.00212 0.40491 0.0
H2267 H 0.21509 0.02261 0.34479 0.0
C2268 C 0.21899 0.05003 0.35707 0.0
C2269 C 0.21865 0.06091 0.37359 0.0
C2270 C 0.20005 0.99362 0.39313 0.0
C2271 C 0.20892 0.02255 0.37469 0.0
C2272 C 0.20007 0.97411 0.39504 0.0
C2273 C 0.20635 0.96282 0.38026 0.0
C2274 C 0.20631 0.00189 0.37632 0.0
C2275 C 0.21163 0.97157 0.36337 0.0
C2276 C 0.21415 0.03088 0.35756 0.0
C2277 C 0.21237 0.05226 0.3902 0.0
N2278 N 0.21164 0.99059 0.36192 0.0
N2279 N 0.20793 0.03355 0.39036 0.0
H2280 H 0.06174 0.25032 0.41738 0.0
H2281 H 0.97055 0.21435 0.35967 0.0
H2282 H 0.06092 0.24305 0.35703 0.0
H2283 H 0.97492 0.21222 0.42024 0.0
H2284 H 0.004 0.22361 0.35832 0.0
H2285 H 0.03022 0.23553 0.41872 0.0
C2286 C 0.05496 0.24555 0.40441 0.0
C2287 C 0.06393 0.24805 0.38705 0.0
C2288 C -0.00231 0.22092 0.3719 0.0
C2289 C 0.02781 0.23114 0.38848 0.0
C2290 C 0.97859 0.21561 0.37268 0.0
C2291 C 0.96987 0.21267 0.39011 0.0
C2292 C 0.00811 0.22349 0.38868 0.0
C2293 C 0.98101 0.21443 0.4065 0.0
C2294 C 0.03698 0.23705 0.40519 0.0
C2295 C 0.05451 0.24148 0.37072 0.0
N2296 N -0.0005 0.21993 0.40539 0.0
N2297 N 0.0369 0.23347 0.37182 0.0
H2298 H 0.24293 0.03508 0.6349 0.0
H2299 H 0.21708 0.94952 0.56476 0.0
H2300 H 0.21751 0.04197 0.58002 0.0
H2301 H 0.25272 0.94486 0.614 0.0
H2302 H 0.21236 0.98251 0.57274 0.0
H2303 H 0.24161 0.00104 0.63007 0.0
C2304 C 0.23685 0.02944 0.62193 0.0
C2305 C 0.23051 0.0414 0.60775 0.0
C2306 C 0.22111 0.97422 0.58185 0.0
C2307 C 0.22904 0.00248 0.60212 0.0
C2308 C 0.22379 0.95539 0.57732 0.0
C2309 C 0.23547 0.94449 0.58862 0.0
C2310 C 0.23009 0.98216 0.59785 0.0
C2311 C 0.24375 0.9528 0.60478 0.0
C2312 C 0.23617 0.01001 0.61916 0.0
C2313 C 0.22272 0.03329 0.59126 0.0
N2314 N 0.24097 0.97116 0.60886 0.0
N2315 N 0.22233 0.01433 0.58885 0.0
H2316 H 0.96232 0.22653 0.57101 0.0
H2317 H 0.0449 0.28894 0.62045 0.0
H2318 H 0.95246 0.27455 0.60659 0.0
H2319 H 0.05481 0.24278 0.58248 0.0
H2320 H 0.01095 0.28308 0.61657 0.0
H2321 H 0.99624 0.23146 0.57608 0.0
C2322 C 0.96727 0.23809 0.57992 0.0
C2323 C 0.95453 0.25018 0.58835 0.0
C2324 C 0.02055 0.27421 0.60911 0.0
C2325 C 0.99335 0.25591 0.59421 0.0
C2326 C 0.03995 0.27754 0.61133 0.0
C2327 C 0.05273 0.26636 0.60174 0.0
C2328 C 0.01386 0.25958 0.59723 0.0
C2329 C 0.04548 0.25178 0.59012 0.0
C2330 C 0.98666 0.24091 0.5828 0.0
C2331 C 0.96177 0.26491 0.59977 0.0
N2332 N 0.02653 0.24883 0.58818 0.0
N2333 N 0.9807 0.26738 0.60235 0.0
H2334 H 0.04595 0.778 0.62336 0.0
H2335 H 0.9519 0.73954 0.67278 0.0
H2336 H 0.04558 0.73883 0.66952 0.0
H2337 H 0.95283 0.77787 0.6259 0.0
H2338 H 0.9863 0.74274 0.675 0.0
H2339 H 0.01214 0.7818 0.62736 0.0
C2340 C 0.0388 0.77035 0.63449 0.0
C2341 C 0.04857 0.75786 0.64594 0.0
C2342 C 0.97895 0.75062 0.66438 0.0
C2343 C 0.00977 0.76203 0.6505 0.0
C2344 C 0.9593 0.74883 0.66311 0.0
C2345 C 0.94948 0.75825 0.64896 0.0
C2346 C 0.98885 0.76188 0.65137 0.0
C2347 C 0.95981 0.77017 0.6369 0.0
C2348 C 0.01947 0.77252 0.63675 0.0
C2349 C 0.03859 0.74848 0.66025 0.0
N2350 N 0.97893 0.77148 0.63826 0.0
N2351 N 0.01968 0.75057 0.66197 0.0
loop_
_geom_bond_atom_site_label_1
_geom_bond_atom_site_label_2
_geom_bond_distance
_geom_bond_site_symmetry_2
_ccdc_geom_bond_type
C0 O1 1.160 . S
C0 O7 1.185 . S
O1 C0 1.160 . S
O2 Zn3 1.899 . S
O2 C10 1.284 . S
Zn3 O2 1.899 . S
Zn3 O4 2.032 . S
Zn3 O7 2.086 . S
Zn3 O12 1.977 . S
O4 Zn3 2.032 . S
O4 C8 1.278 . S
C5 O6 1.203 . S
C5 O12 1.267 . S
O6 C5 1.203 . S
O7 C0 1.185 . S
O7 Zn3 2.086 . S
C8 O4 1.278 . S
C8 O9 1.211 . S
O9 C8 1.211 . S
C10 O2 1.284 . S
C10 O11 1.273 . S
O11 C10 1.273 . S
O12 Zn3 1.977 . S
O12 C5 1.267 . S
C13 O14 1.160 . S
C13 O20 1.185 . S
O14 C13 1.160 . S
O15 Zn16 1.899 . S
O15 C23 1.284 . S
Zn16 O15 1.899 . S
Zn16 O17 2.032 . S
Zn16 O20 2.086 . S
Zn16 O25 1.977 . S
O17 Zn16 2.032 . S
O17 C21 1.278 . S
C18 O19 1.203 . S
C18 O25 1.267 . S
O19 C18 1.203 . S
O20 C13 1.185 . S
O20 Zn16 2.086 . S
C21 O17 1.278 . S
C21 O22 1.211 . S
O22 C21 1.211 . S
C23 O15 1.284 . S
C23 O24 1.273 . S
O24 C23 1.273 . S
O25 Zn16 1.977 . S
O25 C18 1.267 . S
C26 O27 1.160 . S
C26 O33 1.185 . S
O27 C26 1.160 . S
O28 Zn29 1.899 . S
O28 C36 1.284 . S
Zn29 O28 1.899 . S
Zn29 O30 2.032 . S
Zn29 O33 2.086 . S
Zn29 O38 1.977 . S
O30 Zn29 2.032 . S
O30 C34 1.278 . S
C31 O32 1.203 . S
C31 O38 1.267 . S
O32 C31 1.203 . S
O33 C26 1.185 . S
O33 Zn29 2.086 . S
C34 O30 1.278 . S
C34 O35 1.211 . S
O35 C34 1.211 . S
C36 O28 1.284 . S
C36 O37 1.273 . S
O37 C36 1.273 . S
O38 Zn29 1.977 . S
O38 C31 1.267 . S
C39 O40 1.160 . S
C39 O46 1.185 . S
O40 C39 1.160 . S
O41 Zn42 1.899 . S
O41 C49 1.284 . S
Zn42 O41 1.899 . S
Zn42 O43 2.032 . S
Zn42 O46 2.086 . S
Zn42 O51 1.977 . S
O43 Zn42 2.032 . S
O43 C47 1.278 . S
C44 O45 1.203 . S
C44 O51 1.267 . S
O45 C44 1.203 . S
O46 C39 1.185 . S
O46 Zn42 2.086 . S
C47 O43 1.278 . S
C47 O48 1.211 . S
O48 C47 1.211 . S
C49 O41 1.284 . S
C49 O50 1.273 . S
O50 C49 1.273 . S
O51 Zn42 1.977 . S
O51 C44 1.267 . S
C52 O53 1.160 . S
C52 O59 1.185 . S
O53 C52 1.160 . S
O54 Zn55 1.899 . S
O54 C62 1.284 . S
Zn55 O54 1.899 . S
Zn55 O56 2.032 . S
Zn55 O59 2.086 . S
Zn55 O64 1.977 . S
O56 Zn55 2.032 . S
O56 C60 1.278 . S
C57 O58 1.203 . S
C57 O64 1.267 . S
O58 C57 1.203 . S
O59 C52 1.185 . S
O59 Zn55 2.086 . S
C60 O56 1.278 . S
C60 O61 1.211 . S
O61 C60 1.211 . S
C62 O54 1.284 . S
C62 O63 1.273 . S
O63 C62 1.273 . S
O64 Zn55 1.977 . S
O64 C57 1.267 . S
C65 O66 1.160 . S
C65 O72 1.185 . S
O66 C65 1.160 . S
O67 Zn68 1.899 . S
O67 C75 1.284 . S
Zn68 O67 1.899 . S
Zn68 O69 2.032 . S
Zn68 O72 2.086 . S
Zn68 O77 1.977 . S
O69 Zn68 2.032 . S
O69 C73 1.278 . S
C70 O71 1.203 . S
C70 O77 1.267 . S
O71 C70 1.203 . S
O72 C65 1.185 . S
O72 Zn68 2.086 . S
C73 O69 1.278 . S
C73 O74 1.211 . S
O74 C73 1.211 . S
C75 O67 1.284 . S
C75 O76 1.273 . S
O76 C75 1.273 . S
O77 Zn68 1.977 . S
O77 C70 1.267 . S
C78 O79 1.160 . S
C78 O85 1.185 . S
O79 C78 1.160 . S
O80 Zn81 1.899 . S
O80 C88 1.284 . S
Zn81 O80 1.899 . S
Zn81 O82 2.032 . S
Zn81 O85 2.086 . S
Zn81 O90 1.977 . S
O82 Zn81 2.032 . S
O82 C86 1.278 . S
C83 O84 1.203 . S
C83 O90 1.267 . S
O84 C83 1.203 . S
O85 C78 1.185 . S
O85 Zn81 2.086 . S
C86 O82 1.278 . S
C86 O87 1.211 . S
O87 C86 1.211 . S
C88 O80 1.284 . S
C88 O89 1.273 . S
O89 C88 1.273 . S
O90 Zn81 1.977 . S
O90 C83 1.267 . S
C91 O92 1.160 . S
C91 O98 1.185 . S
O92 C91 1.160 . S
O93 Zn94 1.899 . S
O93 C101 1.284 . S
Zn94 O93 1.899 . S
Zn94 O95 2.032 . S
Zn94 O98 2.086 . S
Zn94 O103 1.977 . S
O95 Zn94 2.032 . S
O95 C99 1.278 . S
C96 O97 1.203 . S
C96 O103 1.267 . S
O97 C96 1.203 . S
O98 C91 1.185 . S
O98 Zn94 2.086 . S
C99 O95 1.278 . S
C99 O100 1.211 . S
O100 C99 1.211 . S
C101 O93 1.284 . S
C101 O102 1.273 . S
O102 C101 1.273 . S
O103 Zn94 1.977 . S
O103 C96 1.267 . S
C104 O105 1.160 . S
C104 O111 1.185 . S
O105 C104 1.160 . S
O106 Zn107 1.899 . S
O106 C114 1.284 . S
Zn107 O106 1.899 . S
Zn107 O108 2.032 . S
Zn107 O111 2.086 . S
Zn107 O116 1.977 . S
O108 Zn107 2.032 . S
O108 C112 1.278 . S
C109 O110 1.203 . S
C109 O116 1.267 . S
O110 C109 1.203 . S
O111 C104 1.185 . S
O111 Zn107 2.086 . S
C112 O108 1.278 . S
C112 O113 1.211 . S
O113 C112 1.211 . S
C114 O106 1.284 . S
C114 O115 1.273 . S
O115 C114 1.273 . S
O116 Zn107 1.977 . S
O116 C109 1.267 . S
C117 O118 1.160 . S
C117 O124 1.185 . S
O118 C117 1.160 . S
O119 Zn120 1.899 . S
O119 C127 1.284 . S
Zn120 O119 1.899 . S
Zn120 O121 2.032 . S
Zn120 O124 2.086 . S
Zn120 O129 1.977 . S
O121 Zn120 2.032 . S
O121 C125 1.278 . S
C122 O123 1.203 . S
C122 O129 1.267 . S
O123 C122 1.203 . S
O124 C117 1.185 . S
O124 Zn120 2.086 . S
C125 O121 1.278 . S
C125 O126 1.211 . S
O126 C125 1.211 . S
C127 O119 1.284 . S
C127 O128 1.273 . S
O128 C127 1.273 . S
O129 Zn120 1.977 . S
O129 C122 1.267 . S
C130 O131 1.160 . S
C130 O137 1.185 . S
O131 C130 1.160 . S
O132 Zn133 1.899 . S
O132 C140 1.284 . S
Zn133 O132 1.899 . S
Zn133 O134 2.032 . S
Zn133 O137 2.086 . S
Zn133 O142 1.977 . S
O134 Zn133 2.032 . S
O134 C138 1.278 . S
C135 O136 1.203 . S
C135 O142 1.267 . S
O136 C135 1.203 . S
O137 C130 1.185 . S
O137 Zn133 2.086 . S
C138 O134 1.278 . S
C138 O139 1.211 . S
O139 C138 1.211 . S
C140 O132 1.284 . S
C140 O141 1.273 . S
O141 C140 1.273 . S
O142 Zn133 1.977 . S
O142 C135 1.267 . S
C143 O144 1.160 . S
C143 O150 1.185 . S
O144 C143 1.160 . S
O145 Zn146 1.899 . S
O145 C153 1.284 . S
Zn146 O145 1.899 . S
Zn146 O147 2.032 . S
Zn146 O150 2.086 . S
Zn146 O155 1.977 . S
O147 Zn146 2.032 . S
O147 C151 1.278 . S
C148 O149 1.203 . S
C148 O155 1.267 . S
O149 C148 1.203 . S
O150 C143 1.185 . S
O150 Zn146 2.086 . S
C151 O147 1.278 . S
C151 O152 1.211 . S
O152 C151 1.211 . S
C153 O145 1.284 . S
C153 O154 1.273 . S
O154 C153 1.273 . S
O155 Zn146 1.977 . S
O155 C148 1.267 . S
C156 O157 1.160 . S
C156 O163 1.185 . S
O157 C156 1.160 . S
O158 Zn159 1.899 . S
O158 C166 1.284 . S
Zn159 O158 1.899 . S
Zn159 O160 2.032 . S
Zn159 O163 2.086 . S
Zn159 O168 1.977 . S
O160 Zn159 2.032 . S
O160 C164 1.278 . S
C161 O162 1.203 . S
C161 O168 1.267 . S
O162 C161 1.203 . S
O163 C156 1.185 . S
O163 Zn159 2.086 . S
C164 O160 1.278 . S
C164 O165 1.211 . S
O165 C164 1.211 . S
C166 O158 1.284 . S
C166 O167 1.273 . S
O167 C166 1.273 . S
O168 Zn159 1.977 . S
O168 C161 1.267 . S
C169 O170 1.160 . S
C169 O176 1.185 . S
O170 C169 1.160 . S
O171 Zn172 1.899 . S
O171 C179 1.284 . S
Zn172 O171 1.899 . S
Zn172 O173 2.032 . S
Zn172 O176 2.086 . S
Zn172 O181 1.977 . S
O173 Zn172 2.032 . S
O173 C177 1.278 . S
C174 O175 1.203 . S
C174 O181 1.267 . S
O175 C174 1.203 . S
O176 C169 1.185 . S
O176 Zn172 2.086 . S
C177 O173 1.278 . S
C177 O178 1.211 . S
O178 C177 1.211 . S
C179 O171 1.284 . S
C179 O180 1.273 . S
O180 C179 1.273 . S
O181 Zn172 1.977 . S
O181 C174 1.267 . S
C182 O183 1.160 . S
C182 O189 1.185 . S
O183 C182 1.160 . S
O184 Zn185 1.899 . S
O184 C192 1.284 . S
Zn185 O184 1.899 . S
Zn185 O186 2.032 . S
Zn185 O189 2.086 . S
Zn185 O194 1.977 . S
O186 Zn185 2.032 . S
O186 C190 1.278 . S
C187 O188 1.203 . S
C187 O194 1.267 . S
O188 C187 1.203 . S
O189 C182 1.185 . S
O189 Zn185 2.086 . S
C190 O186 1.278 . S
C190 O191 1.211 . S
O191 C190 1.211 . S
C192 O184 1.284 . S
C192 O193 1.273 . S
O193 C192 1.273 . S
O194 Zn185 1.977 . S
O194 C187 1.267 . S
C195 O196 1.160 . S
C195 O202 1.185 . S
O196 C195 1.160 . S
O197 Zn198 1.899 . S
O197 C205 1.284 . S
Zn198 O197 1.899 . S
Zn198 O199 2.032 . S
Zn198 O202 2.086 . S
Zn198 O207 1.977 . S
O199 Zn198 2.032 . S
O199 C203 1.278 . S
C200 O201 1.203 . S
C200 O207 1.267 . S
O201 C200 1.203 . S
O202 C195 1.185 . S
O202 Zn198 2.086 . S
C203 O199 1.278 . S
C203 O204 1.211 . S
O204 C203 1.211 . S
C205 O197 1.284 . S
C205 O206 1.273 . S
O206 C205 1.273 . S
O207 Zn198 1.977 . S
O207 C200 1.267 . S
C208 O209 1.160 . S
C208 O215 1.185 . S
O209 C208 1.160 . S
O210 Zn211 1.899 . S
O210 C218 1.284 . S
Zn211 O210 1.899 . S
Zn211 O212 2.032 . S
Zn211 O215 2.086 . S
Zn211 O220 1.977 . S
O212 Zn211 2.032 . S
O212 C216 1.278 . S
C213 O214 1.203 . S
C213 O220 1.267 . S
O214 C213 1.203 . S
O215 C208 1.185 . S
O215 Zn211 2.086 . S
C216 O212 1.278 . S
C216 O217 1.211 . S
O217 C216 1.211 . S
C218 O210 1.284 . S
C218 O219 1.273 . S
O219 C218 1.273 . S
O220 Zn211 1.977 . S
O220 C213 1.267 . S
C221 O222 1.160 . S
C221 O228 1.185 . S
O222 C221 1.160 . S
O223 Zn224 1.899 . S
O223 C231 1.284 . S
Zn224 O223 1.899 . S
Zn224 O225 2.032 . S
Zn224 O228 2.086 . S
Zn224 O233 1.977 . S
O225 Zn224 2.032 . S
O225 C229 1.278 . S
C226 O227 1.203 . S
C226 O233 1.267 . S
O227 C226 1.203 . S
O228 C221 1.185 . S
O228 Zn224 2.086 . S
C229 O225 1.278 . S
C229 O230 1.211 . S
O230 C229 1.211 . S
C231 O223 1.284 . S
C231 O232 1.273 . S
O232 C231 1.273 . S
O233 Zn224 1.977 . S
O233 C226 1.267 . S
C234 O235 1.160 . S
C234 O241 1.185 . S
O235 C234 1.160 . S
O236 Zn237 1.899 . S
O236 C244 1.284 . S
Zn237 O236 1.899 . S
Zn237 O238 2.032 . S
Zn237 O241 2.086 . S
Zn237 O246 1.977 . S
O238 Zn237 2.032 . S
O238 C242 1.278 . S
C239 O240 1.203 . S
C239 O246 1.267 . S
O240 C239 1.203 . S
O241 C234 1.185 . S
O241 Zn237 2.086 . S
C242 O238 1.278 . S
C242 O243 1.211 . S
O243 C242 1.211 . S
C244 O236 1.284 . S
C244 O245 1.273 . S
O245 C244 1.273 . S
O246 Zn237 1.977 . S
O246 C239 1.267 . S
C247 O248 1.160 . S
C247 O254 1.185 . S
O248 C247 1.160 . S
O249 Zn250 1.899 . S
O249 C257 1.284 . S
Zn250 O249 1.899 . S
Zn250 O251 2.032 . S
Zn250 O254 2.086 . S
Zn250 O259 1.977 . S
O251 Zn250 2.032 . S
O251 C255 1.278 . S
C252 O253 1.203 . S
C252 O259 1.267 . S
O253 C252 1.203 . S
O254 C247 1.185 . S
O254 Zn250 2.086 . S
C255 O251 1.278 . S
C255 O256 1.211 . S
O256 C255 1.211 . S
C257 O249 1.284 . S
C257 O258 1.273 . S
O258 C257 1.273 . S
O259 Zn250 1.977 . S
O259 C252 1.267 . S
C260 O261 1.160 . S
C260 O267 1.185 . S
O261 C260 1.160 . S
O262 Zn263 1.899 . S
O262 C270 1.284 . S
Zn263 O262 1.899 . S
Zn263 O264 2.032 . S
Zn263 O267 2.086 . S
Zn263 O272 1.977 . S
O264 Zn263 2.032 . S
O264 C268 1.278 . S
C265 O266 1.203 . S
C265 O272 1.267 . S
O266 C265 1.203 . S
O267 C260 1.185 . S
O267 Zn263 2.086 . S
C268 O264 1.278 . S
C268 O269 1.211 . S
O269 C268 1.211 . S
C270 O262 1.284 . S
C270 O271 1.273 . S
O271 C270 1.273 . S
O272 Zn263 1.977 . S
O272 C265 1.267 . S
C273 O274 1.160 . S
C273 O280 1.185 . S
O274 C273 1.160 . S
O275 Zn276 1.899 . S
O275 C283 1.284 . S
Zn276 O275 1.899 . S
Zn276 O277 2.032 . S
Zn276 O280 2.086 . S
Zn276 O285 1.977 . S
O277 Zn276 2.032 . S
O277 C281 1.278 . S
C278 O279 1.203 . S
C278 O285 1.267 . S
O279 C278 1.203 . S
O280 C273 1.185 . S
O280 Zn276 2.086 . S
C281 O277 1.278 . S
C281 O282 1.211 . S
O282 C281 1.211 . S
C283 O275 1.284 . S
C283 O284 1.273 . S
O284 C283 1.273 . S
O285 Zn276 1.977 . S
O285 C278 1.267 . S
C286 O287 1.160 . S
C286 O293 1.185 . S
O287 C286 1.160 . S
O288 Zn289 1.899 . S
O288 C296 1.284 . S
Zn289 O288 1.899 . S
Zn289 O290 2.032 . S
Zn289 O293 2.086 . S
Zn289 O298 1.977 . S
O290 Zn289 2.032 . S
O290 C294 1.278 . S
C291 O292 1.203 . S
C291 O298 1.267 . S
O292 C291 1.203 . S
O293 C286 1.185 . S
O293 Zn289 2.086 . S
C294 O290 1.278 . S
C294 O295 1.211 . S
O295 C294 1.211 . S
C296 O288 1.284 . S
C296 O297 1.273 . S
O297 C296 1.273 . S
O298 Zn289 1.977 . S
O298 C291 1.267 . S
C299 O300 1.160 . S
C299 O306 1.185 . S
O300 C299 1.160 . S
O301 Zn302 1.899 . S
O301 C309 1.284 . S
Zn302 O301 1.899 . S
Zn302 O303 2.032 . S
Zn302 O306 2.086 . S
Zn302 O311 1.977 . S
O303 Zn302 2.032 . S
O303 C307 1.278 . S
C304 O305 1.203 . S
C304 O311 1.267 . S
O305 C304 1.203 . S
O306 C299 1.185 . S
O306 Zn302 2.086 . S
C307 O303 1.278 . S
C307 O308 1.211 . S
O308 C307 1.211 . S
C309 O301 1.284 . S
C309 O310 1.273 . S
O310 C309 1.273 . S
O311 Zn302 1.977 . S
O311 C304 1.267 . S
C312 O313 1.160 . S
C312 O319 1.185 . S
O313 C312 1.160 . S
O314 Zn315 1.899 . S
O314 C322 1.284 . S
Zn315 O314 1.899 . S
Zn315 O316 2.032 . S
Zn315 O319 2.086 . S
Zn315 O324 1.977 . S
O316 Zn315 2.032 . S
O316 C320 1.278 . S
C317 O318 1.203 . S
C317 O324 1.267 . S
O318 C317 1.203 . S
O319 C312 1.185 . S
O319 Zn315 2.086 . S
C320 O316 1.278 . S
C320 O321 1.211 . S
O321 C320 1.211 . S
C322 O314 1.284 . S
C322 O323 1.273 . S
O323 C322 1.273 . S
O324 Zn315 1.977 . S
O324 C317 1.267 . S
C325 O326 1.160 . S
C325 O332 1.185 . S
O326 C325 1.160 . S
O327 Zn328 1.899 . S
O327 C335 1.284 . S
Zn328 O327 1.899 . S
Zn328 O329 2.032 . S
Zn328 O332 2.086 . S
Zn328 O337 1.977 . S
O329 Zn328 2.032 . S
O329 C333 1.278 . S
C330 O331 1.203 . S
C330 O337 1.267 . S
O331 C330 1.203 . S
O332 C325 1.185 . S
O332 Zn328 2.086 . S
C333 O329 1.278 . S
C333 O334 1.211 . S
O334 C333 1.211 . S
C335 O327 1.284 . S
C335 O336 1.273 . S
O336 C335 1.273 . S
O337 Zn328 1.977 . S
O337 C330 1.267 . S
C338 O339 1.160 . S
C338 O345 1.185 . S
O339 C338 1.160 . S
O340 Zn341 1.899 . S
O340 C348 1.284 . S
Zn341 O340 1.899 . S
Zn341 O342 2.032 . S
Zn341 O345 2.086 . S
Zn341 O350 1.977 . S
O342 Zn341 2.032 . S
O342 C346 1.278 . S
C343 O344 1.203 . S
C343 O350 1.267 . S
O344 C343 1.203 . S
O345 C338 1.185 . S
O345 Zn341 2.086 . S
C346 O342 1.278 . S
C346 O347 1.211 . S
O347 C346 1.211 . S
C348 O340 1.284 . S
C348 O349 1.273 . S
O349 C348 1.273 . S
O350 Zn341 1.977 . S
O350 C343 1.267 . S
C351 O352 1.160 . S
C351 O358 1.185 . S
O352 C351 1.160 . S
O353 Zn354 1.899 . S
O353 C361 1.284 . S
Zn354 O353 1.899 . S
Zn354 O355 2.032 . S
Zn354 O358 2.086 . S
Zn354 O363 1.977 . S
O355 Zn354 2.032 . S
O355 C359 1.278 . S
C356 O357 1.203 . S
C356 O363 1.267 . S
O357 C356 1.203 . S
O358 C351 1.185 . S
O358 Zn354 2.086 . S
C359 O355 1.278 . S
C359 O360 1.211 . S
O360 C359 1.211 . S
C361 O353 1.284 . S
C361 O362 1.273 . S
O362 C361 1.273 . S
O363 Zn354 1.977 . S
O363 C356 1.267 . S
C364 O365 1.160 . S
C364 O371 1.185 . S
O365 C364 1.160 . S
O366 Zn367 1.899 . S
O366 C374 1.284 . S
Zn367 O366 1.899 . S
Zn367 O368 2.032 . S
Zn367 O371 2.086 . S
Zn367 O376 1.977 . S
O368 Zn367 2.032 . S
O368 C372 1.278 . S
C369 O370 1.203 . S
C369 O376 1.267 . S
O370 C369 1.203 . S
O371 C364 1.185 . S
O371 Zn367 2.086 . S
C372 O368 1.278 . S
C372 O373 1.211 . S
O373 C372 1.211 . S
C374 O366 1.284 . S
C374 O375 1.273 . S
O375 C374 1.273 . S
O376 Zn367 1.977 . S
O376 C369 1.267 . S
C377 O378 1.160 . S
C377 O384 1.185 . S
O378 C377 1.160 . S
O379 Zn380 1.899 . S
O379 C387 1.284 . S
Zn380 O379 1.899 . S
Zn380 O381 2.032 . S
Zn380 O384 2.086 . S
Zn380 O389 1.977 . S
O381 Zn380 2.032 . S
O381 C385 1.278 . S
C382 O383 1.203 . S
C382 O389 1.267 . S
O383 C382 1.203 . S
O384 C377 1.185 . S
O384 Zn380 2.086 . S
C385 O381 1.278 . S
C385 O386 1.211 . S
O386 C385 1.211 . S
C387 O379 1.284 . S
C387 O388 1.273 . S
O388 C387 1.273 . S
O389 Zn380 1.977 . S
O389 C382 1.267 . S
C390 O391 1.160 . S
C390 O397 1.185 . S
O391 C390 1.160 . S
O392 Zn393 1.899 . S
O392 C400 1.284 . S
Zn393 O392 1.899 . S
Zn393 O394 2.032 . S
Zn393 O397 2.086 . S
Zn393 O402 1.977 . S
O394 Zn393 2.032 . S
O394 C398 1.278 . S
C395 O396 1.203 . S
C395 O402 1.267 . S
O396 C395 1.203 . S
O397 C390 1.185 . S
O397 Zn393 2.086 . S
C398 O394 1.278 . S
C398 O399 1.211 . S
O399 C398 1.211 . S
C400 O392 1.284 . S
C400 O401 1.273 . S
O401 C400 1.273 . S
O402 Zn393 1.977 . S
O402 C395 1.267 . S
C403 O404 1.160 . S
C403 O410 1.185 . S
O404 C403 1.160 . S
O405 Zn406 1.899 . S
O405 C413 1.284 . S
Zn406 O405 1.899 . S
Zn406 O407 2.032 . S
Zn406 O410 2.086 . S
Zn406 O415 1.977 . S
O407 Zn406 2.032 . S
O407 C411 1.278 . S
C408 O409 1.203 . S
C408 O415 1.267 . S
O409 C408 1.203 . S
O410 C403 1.185 . S
O410 Zn406 2.086 . S
C411 O407 1.278 . S
C411 O412 1.211 . S
O412 C411 1.211 . S
C413 O405 1.284 . S
C413 O414 1.273 . S
O414 C413 1.273 . S
O415 Zn406 1.977 . S
O415 C408 1.267 . S
C416 O417 1.160 . S
C416 O423 1.185 . S
O417 C416 1.160 . S
O418 Zn419 1.899 . S
O418 C426 1.284 . S
Zn419 O418 1.899 . S
Zn419 O420 2.032 . S
Zn419 O423 2.086 . S
Zn419 O428 1.977 . S
O420 Zn419 2.032 . S
O420 C424 1.278 . S
C421 O422 1.203 . S
C421 O428 1.267 . S
O422 C421 1.203 . S
O423 C416 1.185 . S
O423 Zn419 2.086 . S
C424 O420 1.278 . S
C424 O425 1.211 . S
O425 C424 1.211 . S
C426 O418 1.284 . S
C426 O427 1.273 . S
O427 C426 1.273 . S
O428 Zn419 1.977 . S
O428 C421 1.267 . S
C429 O430 1.160 . S
C429 O436 1.185 . S
O430 C429 1.160 . S
O431 Zn432 1.899 . S
O431 C439 1.284 . S
Zn432 O431 1.899 . S
Zn432 O433 2.032 . S
Zn432 O436 2.086 . S
Zn432 O441 1.977 . S
O433 Zn432 2.032 . S
O433 C437 1.278 . S
C434 O435 1.203 . S
C434 O441 1.267 . S
O435 C434 1.203 . S
O436 C429 1.185 . S
O436 Zn432 2.086 . S
C437 O433 1.278 . S
C437 O438 1.211 . S
O438 C437 1.211 . S
C439 O431 1.284 . S
C439 O440 1.273 . S
O440 C439 1.273 . S
O441 Zn432 1.977 . S
O441 C434 1.267 . S
C442 O443 1.160 . S
C442 O449 1.185 . S
O443 C442 1.160 . S
O444 Zn445 1.899 . S
O444 C452 1.284 . S
Zn445 O444 1.899 . S
Zn445 O446 2.032 . S
Zn445 O449 2.086 . S
Zn445 O454 1.977 . S
O446 Zn445 2.032 . S
O446 C450 1.278 . S
C447 O448 1.203 . S
C447 O454 1.267 . S
O448 C447 1.203 . S
O449 C442 1.185 . S
O449 Zn445 2.086 . S
C450 O446 1.278 . S
C450 O451 1.211 . S
O451 C450 1.211 . S
C452 O444 1.284 . S
C452 O453 1.273 . S
O453 C452 1.273 . S
O454 Zn445 1.977 . S
O454 C447 1.267 . S
C455 O456 1.160 . S
C455 O462 1.185 . S
O456 C455 1.160 . S
O457 Zn458 1.899 . S
O457 C465 1.284 . S
Zn458 O457 1.899 . S
Zn458 O459 2.032 . S
Zn458 O462 2.086 . S
Zn458 O467 1.977 . S
O459 Zn458 2.032 . S
O459 C463 1.278 . S
C460 O461 1.203 . S
C460 O467 1.267 . S
O461 C460 1.203 . S
O462 C455 1.185 . S
O462 Zn458 2.086 . S
C463 O459 1.278 . S
C463 O464 1.211 . S
O464 C463 1.211 . S
C465 O457 1.284 . S
C465 O466 1.273 . S
O466 C465 1.273 . S
O467 Zn458 1.977 . S
O467 C460 1.267 . S
C468 O469 1.160 . S
C468 O475 1.185 . S
O469 C468 1.160 . S
O470 Zn471 1.899 . S
O470 C478 1.284 . S
Zn471 O470 1.899 . S
Zn471 O472 2.032 . S
Zn471 O475 2.086 . S
Zn471 O480 1.977 . S
O472 Zn471 2.032 . S
O472 C476 1.278 . S
C473 O474 1.203 . S
C473 O480 1.267 . S
O474 C473 1.203 . S
O475 C468 1.185 . S
O475 Zn471 2.086 . S
C476 O472 1.278 . S
C476 O477 1.211 . S
O477 C476 1.211 . S
C478 O470 1.284 . S
C478 O479 1.273 . S
O479 C478 1.273 . S
O480 Zn471 1.977 . S
O480 C473 1.267 . S
C481 O482 1.160 . S
C481 O488 1.185 . S
O482 C481 1.160 . S
O483 Zn484 1.899 . S
O483 C491 1.284 . S
Zn484 O483 1.899 . S
Zn484 O485 2.032 . S
Zn484 O488 2.086 . S
Zn484 O493 1.977 . S
O485 Zn484 2.032 . S
O485 C489 1.278 . S
C486 O487 1.203 . S
C486 O493 1.267 . S
O487 C486 1.203 . S
O488 C481 1.185 . S
O488 Zn484 2.086 . S
C489 O485 1.278 . S
C489 O490 1.211 . S
O490 C489 1.211 . S
C491 O483 1.284 . S
C491 O492 1.273 . S
O492 C491 1.273 . S
O493 Zn484 1.977 . S
O493 C486 1.267 . S
C494 O495 1.160 . S
C494 O501 1.185 . S
O495 C494 1.160 . S
O496 Zn497 1.899 . S
O496 C504 1.284 . S
Zn497 O496 1.899 . S
Zn497 O498 2.032 . S
Zn497 O501 2.086 . S
Zn497 O506 1.977 . S
O498 Zn497 2.032 . S
O498 C502 1.278 . S
C499 O500 1.203 . S
C499 O506 1.267 . S
O500 C499 1.203 . S
O501 C494 1.185 . S
O501 Zn497 2.086 . S
C502 O498 1.278 . S
C502 O503 1.211 . S
O503 C502 1.211 . S
C504 O496 1.284 . S
C504 O505 1.273 . S
O505 C504 1.273 . S
O506 Zn497 1.977 . S
O506 C499 1.267 . S
C507 O508 1.160 . S
C507 O514 1.185 . S
O508 C507 1.160 . S
O509 Zn510 1.899 . S
O509 C517 1.284 . S
Zn510 O509 1.899 . S
Zn510 O511 2.032 . S
Zn510 O514 2.086 . S
Zn510 O519 1.977 . S
O511 Zn510 2.032 . S
O511 C515 1.278 . S
C512 O513 1.203 . S
C512 O519 1.267 . S
O513 C512 1.203 . S
O514 C507 1.185 . S
O514 Zn510 2.086 . S
C515 O511 1.278 . S
C515 O516 1.211 . S
O516 C515 1.211 . S
C517 O509 1.284 . S
C517 O518 1.273 . S
O518 C517 1.273 . S
O519 Zn510 1.977 . S
O519 C512 1.267 . S
C520 O521 1.160 . S
C520 O527 1.185 . S
O521 C520 1.160 . S
O522 Zn523 1.899 . S
O522 C530 1.284 . S
Zn523 O522 1.899 . S
Zn523 O524 2.032 . S
Zn523 O527 2.086 . S
Zn523 O532 1.977 . S
O524 Zn523 2.032 . S
O524 C528 1.278 . S
C525 O526 1.203 . S
C525 O532 1.267 . S
O526 C525 1.203 . S
O527 C520 1.185 . S
O527 Zn523 2.086 . S
C528 O524 1.278 . S
C528 O529 1.211 . S
O529 C528 1.211 . S
C530 O522 1.284 . S
C530 O531 1.273 . S
O531 C530 1.273 . S
O532 Zn523 1.977 . S
O532 C525 1.267 . S
C533 O534 1.160 . S
C533 O540 1.185 . S
O534 C533 1.160 . S
O535 Zn536 1.899 . S
O535 C543 1.284 . S
Zn536 O535 1.899 . S
Zn536 O537 2.032 . S
Zn536 O540 2.086 . S
Zn536 O545 1.977 . S
O537 Zn536 2.032 . S
O537 C541 1.278 . S
C538 O539 1.203 . S
C538 O545 1.267 . S
O539 C538 1.203 . S
O540 C533 1.185 . S
O540 Zn536 2.086 . S
C541 O537 1.278 . S
C541 O542 1.211 . S
O542 C541 1.211 . S
C543 O535 1.284 . S
C543 O544 1.273 . S
O544 C543 1.273 . S
O545 Zn536 1.977 . S
O545 C538 1.267 . S
C546 O547 1.160 . S
C546 O553 1.185 . S
O547 C546 1.160 . S
O548 Zn549 1.899 . S
O548 C556 1.284 . S
Zn549 O548 1.899 . S
Zn549 O550 2.032 . S
Zn549 O553 2.086 . S
Zn549 O558 1.977 . S
O550 Zn549 2.032 . S
O550 C554 1.278 . S
C551 O552 1.203 . S
C551 O558 1.267 . S
O552 C551 1.203 . S
O553 C546 1.185 . S
O553 Zn549 2.086 . S
C554 O550 1.278 . S
C554 O555 1.211 . S
O555 C554 1.211 . S
C556 O548 1.284 . S
C556 O557 1.273 . S
O557 C556 1.273 . S
O558 Zn549 1.977 . S
O558 C551 1.267 . S
C559 O560 1.160 . S
C559 O566 1.185 . S
O560 C559 1.160 . S
O561 Zn562 1.899 . S
O561 C569 1.284 . S
Zn562 O561 1.899 . S
Zn562 O563 2.032 . S
Zn562 O566 2.086 . S
Zn562 O571 1.977 . S
O563 Zn562 2.032 . S
O563 C567 1.278 . S
C564 O565 1.203 . S
C564 O571 1.267 . S
O565 C564 1.203 . S
O566 C559 1.185 . S
O566 Zn562 2.086 . S
C567 O563 1.278 . S
C567 O568 1.211 . S
O568 C567 1.211 . S
C569 O561 1.284 . S
C569 O570 1.273 . S
O570 C569 1.273 . S
O571 Zn562 1.977 . S
O571 C564 1.267 . S
C572 O573 1.160 . S
C572 O579 1.185 . S
O573 C572 1.160 . S
O574 Zn575 1.899 . S
O574 C582 1.284 . S
Zn575 O574 1.899 . S
Zn575 O576 2.032 . S
Zn575 O579 2.086 . S
Zn575 O584 1.977 . S
O576 Zn575 2.032 . S
O576 C580 1.278 . S
C577 O578 1.203 . S
C577 O584 1.267 . S
O578 C577 1.203 . S
O579 C572 1.185 . S
O579 Zn575 2.086 . S
C580 O576 1.278 . S
C580 O581 1.211 . S
O581 C580 1.211 . S
C582 O574 1.284 . S
C582 O583 1.273 . S
O583 C582 1.273 . S
O584 Zn575 1.977 . S
O584 C577 1.267 . S
C585 O586 1.160 . S
C585 O592 1.185 . S
O586 C585 1.160 . S
O587 Zn588 1.899 . S
O587 C595 1.284 . S
Zn588 O587 1.899 . S
Zn588 O589 2.032 . S
Zn588 O592 2.086 . S
Zn588 O597 1.977 . S
O589 Zn588 2.032 . S
O589 C593 1.278 . S
C590 O591 1.203 . S
C590 O597 1.267 . S
O591 C590 1.203 . S
O592 C585 1.185 . S
O592 Zn588 2.086 . S
C593 O589 1.278 . S
C593 O594 1.211 . S
O594 C593 1.211 . S
C595 O587 1.284 . S
C595 O596 1.273 . S
O596 C595 1.273 . S
O597 Zn588 1.977 . S
O597 C590 1.267 . S
C598 O599 1.160 . S
C598 O605 1.185 . S
O599 C598 1.160 . S
O600 Zn601 1.899 . S
O600 C608 1.284 . S
Zn601 O600 1.899 . S
Zn601 O602 2.032 . S
Zn601 O605 2.086 . S
Zn601 O610 1.977 . S
O602 Zn601 2.032 . S
O602 C606 1.278 . S
C603 O604 1.203 . S
C603 O610 1.267 . S
O604 C603 1.203 . S
O605 C598 1.185 . S
O605 Zn601 2.086 . S
C606 O602 1.278 . S
C606 O607 1.211 . S
O607 C606 1.211 . S
C608 O600 1.284 . S
C608 O609 1.273 . S
O609 C608 1.273 . S
O610 Zn601 1.977 . S
O610 C603 1.267 . S
C611 O612 1.160 . S
C611 O618 1.185 . S
O612 C611 1.160 . S
O613 Zn614 1.899 . S
O613 C621 1.284 . S
Zn614 O613 1.899 . S
Zn614 O615 2.032 . S
Zn614 O618 2.086 . S
Zn614 O623 1.977 . S
O615 Zn614 2.032 . S
O615 C619 1.278 . S
C616 O617 1.203 . S
C616 O623 1.267 . S
O617 C616 1.203 . S
O618 C611 1.185 . S
O618 Zn614 2.086 . S
C619 O615 1.278 . S
C619 O620 1.211 . S
O620 C619 1.211 . S
C621 O613 1.284 . S
C621 O622 1.273 . S
O622 C621 1.273 . S
O623 Zn614 1.977 . S
O623 C616 1.267 . S
H624 C630 0.930 . S
H625 C634 0.930 . S
H626 C639 0.929 . S
H627 C637 0.929 . S
H628 C632 0.929 . S
H629 C638 0.929 . S
C630 H624 0.930 . S
C630 C631 1.367 . S
C630 C638 1.378 . S
C631 C630 1.367 . S
C631 C639 1.433 . S
C632 H628 0.929 . S
C632 C634 1.378 . S
C632 C636 1.350 . S
C633 C636 1.463 . S
C633 C638 1.350 . S
C633 N641 1.427 . S
C634 H625 0.930 . S
C634 C632 1.378 . S
C634 C635 1.367 . S
C635 C634 1.367 . S
C635 C637 1.433 . S
C636 C632 1.350 . S
C636 C633 1.463 . S
C636 N640 1.427 . S
C637 H627 0.929 . S
C637 C635 1.433 . S
C637 N640 1.384 . S
C638 H629 0.929 . S
C638 C630 1.378 . S
C638 C633 1.350 . S
C639 H626 0.929 . S
C639 C631 1.433 . S
C639 N641 1.384 . S
N640 C636 1.427 . S
N640 C637 1.384 . S
N641 C633 1.427 . S
N641 C639 1.384 . S
H642 C648 0.930 . S
H643 C652 0.930 . S
H644 C657 0.929 . S
H645 C655 0.929 . S
H646 C650 0.929 . S
H647 C656 0.929 . S
C648 H642 0.930 . S
C648 C649 1.367 . S
C648 C656 1.378 . S
C649 C648 1.367 . S
C649 C657 1.433 . S
C650 H646 0.929 . S
C650 C652 1.378 . S
C650 C654 1.350 . S
C651 C654 1.463 . S
C651 C656 1.350 . S
C651 N659 1.427 . S
C652 H643 0.930 . S
C652 C650 1.378 . S
C652 C653 1.367 . S
C653 C652 1.367 . S
C653 C655 1.433 . S
C654 C650 1.350 . S
C654 C651 1.463 . S
C654 N658 1.427 . S
C655 H645 0.929 . S
C655 C653 1.433 . S
C655 N658 1.384 . S
C656 H647 0.929 . S
C656 C648 1.378 . S
C656 C651 1.350 . S
C657 H644 0.929 . S
C657 C649 1.433 . S
C657 N659 1.384 . S
N658 C654 1.427 . S
N658 C655 1.384 . S
N659 C651 1.427 . S
N659 C657 1.384 . S
H660 C666 0.930 . S
H661 C670 0.930 . S
H662 C675 0.929 . S
H663 C673 0.929 . S
H664 C668 0.929 . S
H665 C674 0.929 . S
C666 H660 0.930 . S
C666 C667 1.367 . S
C666 C674 1.378 . S
C667 C666 1.367 . S
C667 C675 1.433 . S
C668 H664 0.929 . S
C668 C670 1.378 . S
C668 C672 1.350 . S
C669 C672 1.463 . S
C669 C674 1.350 . S
C669 N677 1.427 . S
C670 H661 0.930 . S
C670 C668 1.378 . S
C670 C671 1.367 . S
C671 C670 1.367 . S
C671 C673 1.433 . S
C672 C668 1.350 . S
C672 C669 1.463 . S
C672 N676 1.427 . S
C673 H663 0.929 . S
C673 C671 1.433 . S
C673 N676 1.384 . S
C674 H665 0.929 . S
C674 C666 1.378 . S
C674 C669 1.350 . S
C675 H662 0.929 . S
C675 C667 1.433 . S
C675 N677 1.384 . S
N676 C672 1.427 . S
N676 C673 1.384 . S
N677 C669 1.427 . S
N677 C675 1.384 . S
H678 C684 0.930 . S
H679 C688 0.930 . S
H680 C693 0.929 . S
H681 C691 0.929 . S
H682 C686 0.929 . S
H683 C692 0.929 . S
C684 H678 0.930 . S
C684 C685 1.367 . S
C684 C692 1.378 . S
C685 C684 1.367 . S
C685 C693 1.433 . S
C686 H682 0.929 . S
C686 C688 1.378 . S
C686 C690 1.350 . S
C687 C690 1.463 . S
C687 C692 1.350 . S
C687 N695 1.427 . S
C688 H679 0.930 . S
C688 C686 1.378 . S
C688 C689 1.367 . S
C689 C688 1.367 . S
C689 C691 1.433 . S
C690 C686 1.350 . S
C690 C687 1.463 . S
C690 N694 1.427 . S
C691 H681 0.929 . S
C691 C689 1.433 . S
C691 N694 1.384 . S
C692 H683 0.929 . S
C692 C684 1.378 . S
C692 C687 1.350 . S
C693 H680 0.929 . S
C693 C685 1.433 . S
C693 N695 1.384 . S
N694 C690 1.427 . S
N694 C691 1.384 . S
N695 C687 1.427 . S
N695 C693 1.384 . S
H696 C702 0.930 . S
H697 C706 0.930 . S
H698 C711 0.929 . S
H699 C709 0.929 . S
H700 C704 0.929 . S
H701 C710 0.929 . S
C702 H696 0.930 . S
C702 C703 1.367 . S
C702 C710 1.378 . S
C703 C702 1.367 . S
C703 C711 1.433 . S
C704 H700 0.929 . S
C704 C706 1.378 . S
C704 C708 1.350 . S
C705 C708 1.463 . S
C705 C710 1.350 . S
C705 N713 1.427 . S
C706 H697 0.930 . S
C706 C704 1.378 . S
C706 C707 1.367 . S
C707 C706 1.367 . S
C707 C709 1.433 . S
C708 C704 1.350 . S
C708 C705 1.463 . S
C708 N712 1.427 . S
C709 H699 0.929 . S
C709 C707 1.433 . S
C709 N712 1.384 . S
C710 H701 0.929 . S
C710 C702 1.378 . S
C710 C705 1.350 . S
C711 H698 0.929 . S
C711 C703 1.433 . S
C711 N713 1.384 . S
N712 C708 1.427 . S
N712 C709 1.384 . S
N713 C705 1.427 . S
N713 C711 1.384 . S
H714 C720 0.930 . S
H715 C724 0.930 . S
H716 C729 0.929 . S
H717 C727 0.929 . S
H718 C722 0.929 . S
H719 C728 0.929 . S
C720 H714 0.930 . S
C720 C721 1.367 . S
C720 C728 1.378 . S
C721 C720 1.367 . S
C721 C729 1.433 . S
C722 H718 0.929 . S
C722 C724 1.378 . S
C722 C726 1.350 . S
C723 C726 1.463 . S
C723 C728 1.350 . S
C723 N731 1.427 . S
C724 H715 0.930 . S
C724 C722 1.378 . S
C724 C725 1.367 . S
C725 C724 1.367 . S
C725 C727 1.433 . S
C726 C722 1.350 . S
C726 C723 1.463 . S
C726 N730 1.427 . S
C727 H717 0.929 . S
C727 C725 1.433 . S
C727 N730 1.384 . S
C728 H719 0.929 . S
C728 C720 1.378 . S
C728 C723 1.350 . S
C729 H716 0.929 . S
C729 C721 1.433 . S
C729 N731 1.384 . S
N730 C726 1.427 . S
N730 C727 1.384 . S
N731 C723 1.427 . S
N731 C729 1.384 . S
H732 C738 0.930 . S
H733 C742 0.930 . S
H734 C747 0.929 . S
H735 C745 0.929 . S
H736 C740 0.929 . S
H737 C746 0.929 . S
C738 H732 0.930 . S
C738 C739 1.367 . S
C738 C746 1.378 . S
C739 C738 1.367 . S
C739 C747 1.433 . S
C740 H736 0.929 . S
C740 C742 1.378 . S
C740 C744 1.350 . S
C741 C744 1.463 . S
C741 C746 1.350 . S
C741 N749 1.427 . S
C742 H733 0.930 . S
C742 C740 1.378 . S
C742 C743 1.367 . S
C743 C742 1.367 . S
C743 C745 1.433 . S
C744 C740 1.350 . S
C744 C741 1.463 . S
C744 N748 1.427 . S
C745 H735 0.929 . S
C745 C743 1.433 . S
C745 N748 1.384 . S
C746 H737 0.929 . S
C746 C738 1.378 . S
C746 C741 1.350 . S
C747 H734 0.929 . S
C747 C739 1.433 . S
C747 N749 1.384 . S
N748 C744 1.427 . S
N748 C745 1.384 . S
N749 C741 1.427 . S
N749 C747 1.384 . S
H750 C756 0.930 . S
H751 C760 0.930 . S
H752 C765 0.929 . S
H753 C763 0.929 . S
H754 C758 0.929 . S
H755 C764 0.929 . S
C756 H750 0.930 . S
C756 C757 1.367 . S
C756 C764 1.378 . S
C757 C756 1.367 . S
C757 C765 1.433 . S
C758 H754 0.929 . S
C758 C760 1.378 . S
C758 C762 1.350 . S
C759 C762 1.463 . S
C759 C764 1.350 . S
C759 N767 1.427 . S
C760 H751 0.930 . S
C760 C758 1.378 . S
C760 C761 1.367 . S
C761 C760 1.367 . S
C761 C763 1.433 . S
C762 C758 1.350 . S
C762 C759 1.463 . S
C762 N766 1.427 . S
C763 H753 0.929 . S
C763 C761 1.433 . S
C763 N766 1.384 . S
C764 H755 0.929 . S
C764 C756 1.378 . S
C764 C759 1.350 . S
C765 H752 0.929 . S
C765 C757 1.433 . S
C765 N767 1.384 . S
N766 C762 1.427 . S
N766 C763 1.384 . S
N767 C759 1.427 . S
N767 C765 1.384 . S
H768 C774 0.930 . S
H769 C778 0.930 . S
H770 C783 0.929 . S
H771 C781 0.929 . S
H772 C776 0.929 . S
H773 C782 0.929 . S
C774 H768 0.930 . S
C774 C775 1.367 . S
C774 C782 1.378 . S
C775 C774 1.367 . S
C775 C783 1.433 . S
C776 H772 0.929 . S
C776 C778 1.378 . S
C776 C780 1.350 . S
C777 C780 1.463 . S
C777 C782 1.350 . S
C777 N785 1.427 . S
C778 H769 0.930 . S
C778 C776 1.378 . S
C778 C779 1.367 . S
C779 C778 1.367 . S
C779 C781 1.433 . S
C780 C776 1.350 . S
C780 C777 1.463 . S
C780 N784 1.427 . S
C781 H771 0.929 . S
C781 C779 1.433 . S
C781 N784 1.384 . S
C782 H773 0.929 . S
C782 C774 1.378 . S
C782 C777 1.350 . S
C783 H770 0.929 . S
C783 C775 1.433 . S
C783 N785 1.384 . S
N784 C780 1.427 . S
N784 C781 1.384 . S
N785 C777 1.427 . S
N785 C783 1.384 . S
H786 C792 0.930 . S
H787 C796 0.930 . S
H788 C801 0.929 . S
H789 C799 0.929 . S
H790 C794 0.929 . S
H791 C800 0.929 . S
C792 H786 0.930 . S
C792 C793 1.367 . S
C792 C800 1.378 . S
C793 C792 1.367 . S
C793 C801 1.433 . S
C794 H790 0.929 . S
C794 C796 1.378 . S
C794 C798 1.350 . S
C795 C798 1.463 . S
C795 C800 1.350 . S
C795 N803 1.427 . S
C796 H787 0.930 . S
C796 C794 1.378 . S
C796 C797 1.367 . S
C797 C796 1.367 . S
C797 C799 1.433 . S
C798 C794 1.350 . S
C798 C795 1.463 . S
C798 N802 1.427 . S
C799 H789 0.929 . S
C799 C797 1.433 . S
C799 N802 1.384 . S
C800 H791 0.929 . S
C800 C792 1.378 . S
C800 C795 1.350 . S
C801 H788 0.929 . S
C801 C793 1.433 . S
C801 N803 1.384 . S
N802 C798 1.427 . S
N802 C799 1.384 . S
N803 C795 1.427 . S
N803 C801 1.384 . S
H804 C810 0.930 . S
H805 C814 0.930 . S
H806 C819 0.929 . S
H807 C817 0.929 . S
H808 C812 0.929 . S
H809 C818 0.929 . S
C810 H804 0.930 . S
C810 C811 1.367 . S
C810 C818 1.378 . S
C811 C810 1.367 . S
C811 C819 1.433 . S
C812 H808 0.929 . S
C812 C814 1.378 . S
C812 C816 1.350 . S
C813 C816 1.463 . S
C813 C818 1.350 . S
C813 N821 1.427 . S
C814 H805 0.930 . S
C814 C812 1.378 . S
C814 C815 1.367 . S
C815 C814 1.367 . S
C815 C817 1.433 . S
C816 C812 1.350 . S
C816 C813 1.463 . S
C816 N820 1.427 . S
C817 H807 0.929 . S
C817 C815 1.433 . S
C817 N820 1.384 . S
C818 H809 0.929 . S
C818 C810 1.378 . S
C818 C813 1.350 . S
C819 H806 0.929 . S
C819 C811 1.433 . S
C819 N821 1.384 . S
N820 C816 1.427 . S
N820 C817 1.384 . S
N821 C813 1.427 . S
N821 C819 1.384 . S
H822 C828 0.930 . S
H823 C832 0.930 . S
H824 C837 0.929 . S
H825 C835 0.929 . S
H826 C830 0.929 . S
H827 C836 0.929 . S
C828 H822 0.930 . S
C828 C829 1.367 . S
C828 C836 1.378 . S
C829 C828 1.367 . S
C829 C837 1.433 . S
C830 H826 0.929 . S
C830 C832 1.378 . S
C830 C834 1.350 . S
C831 C834 1.463 . S
C831 C836 1.350 . S
C831 N839 1.427 . S
C832 H823 0.930 . S
C832 C830 1.378 . S
C832 C833 1.367 . S
C833 C832 1.367 . S
C833 C835 1.433 . S
C834 C830 1.350 . S
C834 C831 1.463 . S
C834 N838 1.427 . S
C835 H825 0.929 . S
C835 C833 1.433 . S
C835 N838 1.384 . S
C836 H827 0.929 . S
C836 C828 1.378 . S
C836 C831 1.350 . S
C837 H824 0.929 . S
C837 C829 1.433 . S
C837 N839 1.384 . S
N838 C834 1.427 . S
N838 C835 1.384 . S
N839 C831 1.427 . S
N839 C837 1.384 . S
H840 C846 0.930 . S
H841 C850 0.930 . S
H842 C855 0.929 . S
H843 C853 0.929 . S
H844 C848 0.929 . S
H845 C854 0.929 . S
C846 H840 0.930 . S
C846 C847 1.367 . S
C846 C854 1.378 . S
C847 C846 1.367 . S
C847 C855 1.433 . S
C848 H844 0.929 . S
C848 C850 1.378 . S
C848 C852 1.350 . S
C849 C852 1.463 . S
C849 C854 1.350 . S
C849 N857 1.427 . S
C850 H841 0.930 . S
C850 C848 1.378 . S
C850 C851 1.367 . S
C851 C850 1.367 . S
C851 C853 1.433 . S
C852 C848 1.350 . S
C852 C849 1.463 . S
C852 N856 1.427 . S
C853 H843 0.929 . S
C853 C851 1.433 . S
C853 N856 1.384 . S
C854 H845 0.929 . S
C854 C846 1.378 . S
C854 C849 1.350 . S
C855 H842 0.929 . S
C855 C847 1.433 . S
C855 N857 1.384 . S
N856 C852 1.427 . S
N856 C853 1.384 . S
N857 C849 1.427 . S
N857 C855 1.384 . S
H858 C864 0.930 . S
H859 C868 0.930 . S
H860 C873 0.929 . S
H861 C871 0.929 . S
H862 C866 0.929 . S
H863 C872 0.929 . S
C864 H858 0.930 . S
C864 C865 1.367 . S
C864 C872 1.378 . S
C865 C864 1.367 . S
C865 C873 1.433 . S
C866 H862 0.929 . S
C866 C868 1.378 . S
C866 C870 1.350 . S
C867 C870 1.463 . S
C867 C872 1.350 . S
C867 N875 1.427 . S
C868 H859 0.930 . S
C868 C866 1.378 . S
C868 C869 1.367 . S
C869 C868 1.367 . S
C869 C871 1.433 . S
C870 C866 1.350 . S
C870 C867 1.463 . S
C870 N874 1.427 . S
C871 H861 0.929 . S
C871 C869 1.433 . S
C871 N874 1.384 . S
C872 H863 0.929 . S
C872 C864 1.378 . S
C872 C867 1.350 . S
C873 H860 0.929 . S
C873 C865 1.433 . S
C873 N875 1.384 . S
N874 C870 1.427 . S
N874 C871 1.384 . S
N875 C867 1.427 . S
N875 C873 1.384 . S
H876 C882 0.930 . S
H877 C886 0.930 . S
H878 C891 0.929 . S
H879 C889 0.929 . S
H880 C884 0.929 . S
H881 C890 0.929 . S
C882 H876 0.930 . S
C882 C883 1.367 . S
C882 C890 1.378 . S
C883 C882 1.367 . S
C883 C891 1.433 . S
C884 H880 0.929 . S
C884 C886 1.378 . S
C884 C888 1.350 . S
C885 C888 1.463 . S
C885 C890 1.350 . S
C885 N893 1.427 . S
C886 H877 0.930 . S
C886 C884 1.378 . S
C886 C887 1.367 . S
C887 C886 1.367 . S
C887 C889 1.433 . S
C888 C884 1.350 . S
C888 C885 1.463 . S
C888 N892 1.427 . S
C889 H879 0.929 . S
C889 C887 1.433 . S
C889 N892 1.384 . S
C890 H881 0.929 . S
C890 C882 1.378 . S
C890 C885 1.350 . S
C891 H878 0.929 . S
C891 C883 1.433 . S
C891 N893 1.384 . S
N892 C888 1.427 . S
N892 C889 1.384 . S
N893 C885 1.427 . S
N893 C891 1.384 . S
H894 C900 0.930 . S
H895 C904 0.930 . S
H896 C909 0.929 . S
H897 C907 0.929 . S
H898 C902 0.929 . S
H899 C908 0.929 . S
C900 H894 0.930 . S
C900 C901 1.367 . S
C900 C908 1.378 . S
C901 C900 1.367 . S
C901 C909 1.433 . S
C902 H898 0.929 . S
C902 C904 1.378 . S
C902 C906 1.350 . S
C903 C906 1.463 . S
C903 C908 1.350 . S
C903 N911 1.427 . S
C904 H895 0.930 . S
C904 C902 1.378 . S
C904 C905 1.367 . S
C905 C904 1.367 . S
C905 C907 1.433 . S
C906 C902 1.350 . S
C906 C903 1.463 . S
C906 N910 1.427 . S
C907 H897 0.929 . S
C907 C905 1.433 . S
C907 N910 1.384 . S
C908 H899 0.929 . S
C908 C900 1.378 . S
C908 C903 1.350 . S
C909 H896 0.929 . S
C909 C901 1.433 . S
C909 N911 1.384 . S
N910 C906 1.427 . S
N910 C907 1.384 . S
N911 C903 1.427 . S
N911 C909 1.384 . S
H912 C918 0.930 . S
H913 C922 0.930 . S
H914 C927 0.929 . S
H915 C925 0.929 . S
H916 C920 0.929 . S
H917 C926 0.929 . S
C918 H912 0.930 . S
C918 C919 1.367 . S
C918 C926 1.378 . S
C919 C918 1.367 . S
C919 C927 1.433 . S
C920 H916 0.929 . S
C920 C922 1.378 . S
C920 C924 1.350 . S
C921 C924 1.463 . S
C921 C926 1.350 . S
C921 N929 1.427 . S
C922 H913 0.930 . S
C922 C920 1.378 . S
C922 C923 1.367 . S
C923 C922 1.367 . S
C923 C925 1.433 . S
C924 C920 1.350 . S
C924 C921 1.463 . S
C924 N928 1.427 . S
C925 H915 0.929 . S
C925 C923 1.433 . S
C925 N928 1.384 . S
C926 H917 0.929 . S
C926 C918 1.378 . S
C926 C921 1.350 . S
C927 H914 0.929 . S
C927 C919 1.433 . S
C927 N929 1.384 . S
N928 C924 1.427 . S
N928 C925 1.384 . S
N929 C921 1.427 . S
N929 C927 1.384 . S
H930 C936 0.930 . S
H931 C940 0.930 . S
H932 C945 0.929 . S
H933 C943 0.929 . S
H934 C938 0.929 . S
H935 C944 0.929 . S
C936 H930 0.930 . S
C936 C937 1.367 . S
C936 C944 1.378 . S
C937 C936 1.367 . S
C937 C945 1.433 . S
C938 H934 0.929 . S
C938 C940 1.378 . S
C938 C942 1.350 . S
C939 C942 1.463 . S
C939 C944 1.350 . S
C939 N947 1.427 . S
C940 H931 0.930 . S
C940 C938 1.378 . S
C940 C941 1.367 . S
C941 C940 1.367 . S
C941 C943 1.433 . S
C942 C938 1.350 . S
C942 C939 1.463 . S
C942 N946 1.427 . S
C943 H933 0.929 . S
C943 C941 1.433 . S
C943 N946 1.384 . S
C944 H935 0.929 . S
C944 C936 1.378 . S
C944 C939 1.350 . S
C945 H932 0.929 . S
C945 C937 1.433 . S
C945 N947 1.384 . S
N946 C942 1.427 . S
N946 C943 1.384 . S
N947 C939 1.427 . S
N947 C945 1.384 . S
H948 C954 0.930 . S
H949 C958 0.930 . S
H950 C963 0.929 . S
H951 C961 0.929 . S
H952 C956 0.929 . S
H953 C962 0.929 . S
C954 H948 0.930 . S
C954 C955 1.367 . S
C954 C962 1.378 . S
C955 C954 1.367 . S
C955 C963 1.433 . S
C956 H952 0.929 . S
C956 C958 1.378 . S
C956 C960 1.350 . S
C957 C960 1.463 . S
C957 C962 1.350 . S
C957 N965 1.427 . S
C958 H949 0.930 . S
C958 C956 1.378 . S
C958 C959 1.367 . S
C959 C958 1.367 . S
C959 C961 1.433 . S
C960 C956 1.350 . S
C960 C957 1.463 . S
C960 N964 1.427 . S
C961 H951 0.929 . S
C961 C959 1.433 . S
C961 N964 1.384 . S
C962 H953 0.929 . S
C962 C954 1.378 . S
C962 C957 1.350 . S
C963 H950 0.929 . S
C963 C955 1.433 . S
C963 N965 1.384 . S
N964 C960 1.427 . S
N964 C961 1.384 . S
N965 C957 1.427 . S
N965 C963 1.384 . S
H966 C972 0.930 . S
H967 C976 0.930 . S
H968 C981 0.929 . S
H969 C979 0.929 . S
H970 C974 0.929 . S
H971 C980 0.929 . S
C972 H966 0.930 . S
C972 C973 1.367 . S
C972 C980 1.378 . S
C973 C972 1.367 . S
C973 C981 1.433 . S
C974 H970 0.929 . S
C974 C976 1.378 . S
C974 C978 1.350 . S
C975 C978 1.463 . S
C975 C980 1.350 . S
C975 N983 1.427 . S
C976 H967 0.930 . S
C976 C974 1.378 . S
C976 C977 1.367 . S
C977 C976 1.367 . S
C977 C979 1.433 . S
C978 C974 1.350 . S
C978 C975 1.463 . S
C978 N982 1.427 . S
C979 H969 0.929 . S
C979 C977 1.433 . S
C979 N982 1.384 . S
C980 H971 0.929 . S
C980 C972 1.378 . S
C980 C975 1.350 . S
C981 H968 0.929 . S
C981 C973 1.433 . S
C981 N983 1.384 . S
N982 C978 1.427 . S
N982 C979 1.384 . S
N983 C975 1.427 . S
N983 C981 1.384 . S
H984 C990 0.930 . S
H985 C994 0.930 . S
H986 C999 0.929 . S
H987 C997 0.929 . S
H988 C992 0.929 . S
H989 C998 0.929 . S
C990 H984 0.930 . S
C990 C991 1.367 . S
C990 C998 1.378 . S
C991 C990 1.367 . S
C991 C999 1.433 . S
C992 H988 0.929 . S
C992 C994 1.378 . S
C992 C996 1.350 . S
C993 C996 1.463 . S
C993 C998 1.350 . S
C993 N1001 1.427 . S
C994 H985 0.930 . S
C994 C992 1.378 . S
C994 C995 1.367 . S
C995 C994 1.367 . S
C995 C997 1.433 . S
C996 C992 1.350 . S
C996 C993 1.463 . S
C996 N1000 1.427 . S
C997 H987 0.929 . S
C997 C995 1.433 . S
C997 N1000 1.384 . S
C998 H989 0.929 . S
C998 C990 1.378 . S
C998 C993 1.350 . S
C999 H986 0.929 . S
C999 C991 1.433 . S
C999 N1001 1.384 . S
N1000 C996 1.427 . S
N1000 C997 1.384 . S
N1001 C993 1.427 . S
N1001 C999 1.384 . S
H1002 C1008 0.930 . S
H1003 C1012 0.930 . S
H1004 C1017 0.929 . S
H1005 C1015 0.929 . S
H1006 C1010 0.929 . S
H1007 C1016 0.929 . S
C1008 H1002 0.930 . S
C1008 C1009 1.367 . S
C1008 C1016 1.378 . S
C1009 C1008 1.367 . S
C1009 C1017 1.433 . S
C1010 H1006 0.929 . S
C1010 C1012 1.378 . S
C1010 C1014 1.350 . S
C1011 C1014 1.463 . S
C1011 C1016 1.350 . S
C1011 N1019 1.427 . S
C1012 H1003 0.930 . S
C1012 C1010 1.378 . S
C1012 C1013 1.367 . S
C1013 C1012 1.367 . S
C1013 C1015 1.433 . S
C1014 C1010 1.350 . S
C1014 C1011 1.463 . S
C1014 N1018 1.427 . S
C1015 H1005 0.929 . S
C1015 C1013 1.433 . S
C1015 N1018 1.384 . S
C1016 H1007 0.929 . S
C1016 C1008 1.378 . S
C1016 C1011 1.350 . S
C1017 H1004 0.929 . S
C1017 C1009 1.433 . S
C1017 N1019 1.384 . S
N1018 C1014 1.427 . S
N1018 C1015 1.384 . S
N1019 C1011 1.427 . S
N1019 C1017 1.384 . S
H1020 C1026 0.930 . S
H1021 C1030 0.930 . S
H1022 C1035 0.929 . S
H1023 C1033 0.929 . S
H1024 C1028 0.929 . S
H1025 C1034 0.929 . S
C1026 H1020 0.930 . S
C1026 C1027 1.367 . S
C1026 C1034 1.378 . S
C1027 C1026 1.367 . S
C1027 C1035 1.433 . S
C1028 H1024 0.929 . S
C1028 C1030 1.378 . S
C1028 C1032 1.350 . S
C1029 C1032 1.463 . S
C1029 C1034 1.350 . S
C1029 N1037 1.427 . S
C1030 H1021 0.930 . S
C1030 C1028 1.378 . S
C1030 C1031 1.367 . S
C1031 C1030 1.367 . S
C1031 C1033 1.433 . S
C1032 C1028 1.350 . S
C1032 C1029 1.463 . S
C1032 N1036 1.427 . S
C1033 H1023 0.929 . S
C1033 C1031 1.433 . S
C1033 N1036 1.384 . S
C1034 H1025 0.929 . S
C1034 C1026 1.378 . S
C1034 C1029 1.350 . S
C1035 H1022 0.929 . S
C1035 C1027 1.433 . S
C1035 N1037 1.384 . S
N1036 C1032 1.427 . S
N1036 C1033 1.384 . S
N1037 C1029 1.427 . S
N1037 C1035 1.384 . S
H1038 C1044 0.930 . S
H1039 C1048 0.930 . S
H1040 C1053 0.929 . S
H1041 C1051 0.929 . S
H1042 C1046 0.929 . S
H1043 C1052 0.929 . S
C1044 H1038 0.930 . S
C1044 C1045 1.367 . S
C1044 C1052 1.378 . S
C1045 C1044 1.367 . S
C1045 C1053 1.433 . S
C1046 H1042 0.929 . S
C1046 C1048 1.378 . S
C1046 C1050 1.350 . S
C1047 C1050 1.463 . S
C1047 C1052 1.350 . S
C1047 N1055 1.427 . S
C1048 H1039 0.930 . S
C1048 C1046 1.378 . S
C1048 C1049 1.367 . S
C1049 C1048 1.367 . S
C1049 C1051 1.433 . S
C1050 C1046 1.350 . S
C1050 C1047 1.463 . S
C1050 N1054 1.427 . S
C1051 H1041 0.929 . S
C1051 C1049 1.433 . S
C1051 N1054 1.384 . S
C1052 H1043 0.929 . S
C1052 C1044 1.378 . S
C1052 C1047 1.350 . S
C1053 H1040 0.929 . S
C1053 C1045 1.433 . S
C1053 N1055 1.384 . S
N1054 C1050 1.427 . S
N1054 C1051 1.384 . S
N1055 C1047 1.427 . S
N1055 C1053 1.384 . S
H1056 C1062 0.930 . S
H1057 C1066 0.930 . S
H1058 C1071 0.929 . S
H1059 C1069 0.929 . S
H1060 C1064 0.929 . S
H1061 C1070 0.929 . S
C1062 H1056 0.930 . S
C1062 C1063 1.367 . S
C1062 C1070 1.378 . S
C1063 C1062 1.367 . S
C1063 C1071 1.433 . S
C1064 H1060 0.929 . S
C1064 C1066 1.378 . S
C1064 C1068 1.350 . S
C1065 C1068 1.463 . S
C1065 C1070 1.350 . S
C1065 N1073 1.427 . S
C1066 H1057 0.930 . S
C1066 C1064 1.378 . S
C1066 C1067 1.367 . S
C1067 C1066 1.367 . S
C1067 C1069 1.433 . S
C1068 C1064 1.350 . S
C1068 C1065 1.463 . S
C1068 N1072 1.427 . S
C1069 H1059 0.929 . S
C1069 C1067 1.433 . S
C1069 N1072 1.384 . S
C1070 H1061 0.929 . S
C1070 C1062 1.378 . S
C1070 C1065 1.350 . S
C1071 H1058 0.929 . S
C1071 C1063 1.433 . S
C1071 N1073 1.384 . S
N1072 C1068 1.427 . S
N1072 C1069 1.384 . S
N1073 C1065 1.427 . S
N1073 C1071 1.384 . S
H1074 C1080 0.930 . S
H1075 C1084 0.930 . S
H1076 C1089 0.929 . S
H1077 C1087 0.929 . S
H1078 C1082 0.929 . S
H1079 C1088 0.929 . S
C1080 H1074 0.930 . S
C1080 C1081 1.367 . S
C1080 C1088 1.378 . S
C1081 C1080 1.367 . S
C1081 C1089 1.433 . S
C1082 H1078 0.929 . S
C1082 C1084 1.378 . S
C1082 C1086 1.350 . S
C1083 C1086 1.463 . S
C1083 C1088 1.350 . S
C1083 N1091 1.427 . S
C1084 H1075 0.930 . S
C1084 C1082 1.378 . S
C1084 C1085 1.367 . S
C1085 C1084 1.367 . S
C1085 C1087 1.433 . S
C1086 C1082 1.350 . S
C1086 C1083 1.463 . S
C1086 N1090 1.427 . S
C1087 H1077 0.929 . S
C1087 C1085 1.433 . S
C1087 N1090 1.384 . S
C1088 H1079 0.929 . S
C1088 C1080 1.378 . S
C1088 C1083 1.350 . S
C1089 H1076 0.929 . S
C1089 C1081 1.433 . S
C1089 N1091 1.384 . S
N1090 C1086 1.427 . S
N1090 C1087 1.384 . S
N1091 C1083 1.427 . S
N1091 C1089 1.384 . S
H1092 C1098 0.930 . S
H1093 C1102 0.930 . S
H1094 C1107 0.929 . S
H1095 C1105 0.929 . S
H1096 C1100 0.929 . S
H1097 C1106 0.929 . S
C1098 H1092 0.930 . S
C1098 C1099 1.367 . S
C1098 C1106 1.378 . S
C1099 C1098 1.367 . S
C1099 C1107 1.433 . S
C1100 H1096 0.929 . S
C1100 C1102 1.378 . S
C1100 C1104 1.350 . S
C1101 C1104 1.463 . S
C1101 C1106 1.350 . S
C1101 N1109 1.427 . S
C1102 H1093 0.930 . S
C1102 C1100 1.378 . S
C1102 C1103 1.367 . S
C1103 C1102 1.367 . S
C1103 C1105 1.433 . S
C1104 C1100 1.350 . S
C1104 C1101 1.463 . S
C1104 N1108 1.427 . S
C1105 H1095 0.929 . S
C1105 C1103 1.433 . S
C1105 N1108 1.384 . S
C1106 H1097 0.929 . S
C1106 C1098 1.378 . S
C1106 C1101 1.350 . S
C1107 H1094 0.929 . S
C1107 C1099 1.433 . S
C1107 N1109 1.384 . S
N1108 C1104 1.427 . S
N1108 C1105 1.384 . S
N1109 C1101 1.427 . S
N1109 C1107 1.384 . S
H1110 C1116 0.930 . S
H1111 C1120 0.930 . S
H1112 C1125 0.929 . S
H1113 C1123 0.929 . S
H1114 C1118 0.929 . S
H1115 C1124 0.929 . S
C1116 H1110 0.930 . S
C1116 C1117 1.367 . S
C1116 C1124 1.378 . S
C1117 C1116 1.367 . S
C1117 C1125 1.433 . S
C1118 H1114 0.929 . S
C1118 C1120 1.378 . S
C1118 C1122 1.350 . S
C1119 C1122 1.463 . S
C1119 C1124 1.350 . S
C1119 N1127 1.427 . S
C1120 H1111 0.930 . S
C1120 C1118 1.378 . S
C1120 C1121 1.367 . S
C1121 C1120 1.367 . S
C1121 C1123 1.433 . S
C1122 C1118 1.350 . S
C1122 C1119 1.463 . S
C1122 N1126 1.427 . S
C1123 H1113 0.929 . S
C1123 C1121 1.433 . S
C1123 N1126 1.384 . S
C1124 H1115 0.929 . S
C1124 C1116 1.378 . S
C1124 C1119 1.350 . S
C1125 H1112 0.929 . S
C1125 C1117 1.433 . S
C1125 N1127 1.384 . S
N1126 C1122 1.427 . S
N1126 C1123 1.384 . S
N1127 C1119 1.427 . S
N1127 C1125 1.384 . S
H1128 C1134 0.930 . S
H1129 C1138 0.930 . S
H1130 C1143 0.929 . S
H1131 C1141 0.929 . S
H1132 C1136 0.929 . S
H1133 C1142 0.929 . S
C1134 H1128 0.930 . S
C1134 C1135 1.367 . S
C1134 C1142 1.378 . S
C1135 C1134 1.367 . S
C1135 C1143 1.433 . S
C1136 H1132 0.929 . S
C1136 C1138 1.378 . S
C1136 C1140 1.350 . S
C1137 C1140 1.463 . S
C1137 C1142 1.350 . S
C1137 N1145 1.427 . S
C1138 H1129 0.930 . S
C1138 C1136 1.378 . S
C1138 C1139 1.367 . S
C1139 C1138 1.367 . S
C1139 C1141 1.433 . S
C1140 C1136 1.350 . S
C1140 C1137 1.463 . S
C1140 N1144 1.427 . S
C1141 H1131 0.929 . S
C1141 C1139 1.433 . S
C1141 N1144 1.384 . S
C1142 H1133 0.929 . S
C1142 C1134 1.378 . S
C1142 C1137 1.350 . S
C1143 H1130 0.929 . S
C1143 C1135 1.433 . S
C1143 N1145 1.384 . S
N1144 C1140 1.427 . S
N1144 C1141 1.384 . S
N1145 C1137 1.427 . S
N1145 C1143 1.384 . S
H1146 C1152 0.930 . S
H1147 C1156 0.930 . S
H1148 C1161 0.929 . S
H1149 C1159 0.929 . S
H1150 C1154 0.929 . S
H1151 C1160 0.929 . S
C1152 H1146 0.930 . S
C1152 C1153 1.367 . S
C1152 C1160 1.378 . S
C1153 C1152 1.367 . S
C1153 C1161 1.433 . S
C1154 H1150 0.929 . S
C1154 C1156 1.378 . S
C1154 C1158 1.350 . S
C1155 C1158 1.463 . S
C1155 C1160 1.350 . S
C1155 N1163 1.427 . S
C1156 H1147 0.930 . S
C1156 C1154 1.378 . S
C1156 C1157 1.367 . S
C1157 C1156 1.367 . S
C1157 C1159 1.433 . S
C1158 C1154 1.350 . S
C1158 C1155 1.463 . S
C1158 N1162 1.427 . S
C1159 H1149 0.929 . S
C1159 C1157 1.433 . S
C1159 N1162 1.384 . S
C1160 H1151 0.929 . S
C1160 C1152 1.378 . S
C1160 C1155 1.350 . S
C1161 H1148 0.929 . S
C1161 C1153 1.433 . S
C1161 N1163 1.384 . S
N1162 C1158 1.427 . S
N1162 C1159 1.384 . S
N1163 C1155 1.427 . S
N1163 C1161 1.384 . S
H1164 C1170 0.930 . S
H1165 C1174 0.930 . S
H1166 C1179 0.929 . S
H1167 C1177 0.929 . S
H1168 C1172 0.929 . S
H1169 C1178 0.929 . S
C1170 H1164 0.930 . S
C1170 C1171 1.367 . S
C1170 C1178 1.378 . S
C1171 C1170 1.367 . S
C1171 C1179 1.433 . S
C1172 H1168 0.929 . S
C1172 C1174 1.378 . S
C1172 C1176 1.350 . S
C1173 C1176 1.463 . S
C1173 C1178 1.350 . S
C1173 N1181 1.427 . S
C1174 H1165 0.930 . S
C1174 C1172 1.378 . S
C1174 C1175 1.367 . S
C1175 C1174 1.367 . S
C1175 C1177 1.433 . S
C1176 C1172 1.350 . S
C1176 C1173 1.463 . S
C1176 N1180 1.427 . S
C1177 H1167 0.929 . S
C1177 C1175 1.433 . S
C1177 N1180 1.384 . S
C1178 H1169 0.929 . S
C1178 C1170 1.378 . S
C1178 C1173 1.350 . S
C1179 H1166 0.929 . S
C1179 C1171 1.433 . S
C1179 N1181 1.384 . S
N1180 C1176 1.427 . S
N1180 C1177 1.384 . S
N1181 C1173 1.427 . S
N1181 C1179 1.384 . S
H1182 C1188 0.930 . S
H1183 C1192 0.930 . S
H1184 C1197 0.929 . S
H1185 C1195 0.929 . S
H1186 C1190 0.929 . S
H1187 C1196 0.929 . S
C1188 H1182 0.930 . S
C1188 C1189 1.367 . S
C1188 C1196 1.378 . S
C1189 C1188 1.367 . S
C1189 C1197 1.433 . S
C1190 H1186 0.929 . S
C1190 C1192 1.378 . S
C1190 C1194 1.350 . S
C1191 C1194 1.463 . S
C1191 C1196 1.350 . S
C1191 N1199 1.427 . S
C1192 H1183 0.930 . S
C1192 C1190 1.378 . S
C1192 C1193 1.367 . S
C1193 C1192 1.367 . S
C1193 C1195 1.433 . S
C1194 C1190 1.350 . S
C1194 C1191 1.463 . S
C1194 N1198 1.427 . S
C1195 H1185 0.929 . S
C1195 C1193 1.433 . S
C1195 N1198 1.384 . S
C1196 H1187 0.929 . S
C1196 C1188 1.378 . S
C1196 C1191 1.350 . S
C1197 H1184 0.929 . S
C1197 C1189 1.433 . S
C1197 N1199 1.384 . S
N1198 C1194 1.427 . S
N1198 C1195 1.384 . S
N1199 C1191 1.427 . S
N1199 C1197 1.384 . S
H1200 C1206 0.930 . S
H1201 C1210 0.930 . S
H1202 C1215 0.929 . S
H1203 C1213 0.929 . S
H1204 C1208 0.929 . S
H1205 C1214 0.929 . S
C1206 H1200 0.930 . S
C1206 C1207 1.367 . S
C1206 C1214 1.378 . S
C1207 C1206 1.367 . S
C1207 C1215 1.433 . S
C1208 H1204 0.929 . S
C1208 C1210 1.378 . S
C1208 C1212 1.350 . S
C1209 C1212 1.463 . S
C1209 C1214 1.350 . S
C1209 N1217 1.427 . S
C1210 H1201 0.930 . S
C1210 C1208 1.378 . S
C1210 C1211 1.367 . S
C1211 C1210 1.367 . S
C1211 C1213 1.433 . S
C1212 C1208 1.350 . S
C1212 C1209 1.463 . S
C1212 N1216 1.427 . S
C1213 H1203 0.929 . S
C1213 C1211 1.433 . S
C1213 N1216 1.384 . S
C1214 H1205 0.929 . S
C1214 C1206 1.378 . S
C1214 C1209 1.350 . S
C1215 H1202 0.929 . S
C1215 C1207 1.433 . S
C1215 N1217 1.384 . S
N1216 C1212 1.427 . S
N1216 C1213 1.384 . S
N1217 C1209 1.427 . S
N1217 C1215 1.384 . S
H1218 C1224 0.930 . S
H1219 C1228 0.930 . S
H1220 C1233 0.929 . S
H1221 C1231 0.929 . S
H1222 C1226 0.929 . S
H1223 C1232 0.929 . S
C1224 H1218 0.930 . S
C1224 C1225 1.367 . S
C1224 C1232 1.378 . S
C1225 C1224 1.367 . S
C1225 C1233 1.433 . S
C1226 H1222 0.929 . S
C1226 C1228 1.378 . S
C1226 C1230 1.350 . S
C1227 C1230 1.463 . S
C1227 C1232 1.350 . S
C1227 N1235 1.427 . S
C1228 H1219 0.930 . S
C1228 C1226 1.378 . S
C1228 C1229 1.367 . S
C1229 C1228 1.367 . S
C1229 C1231 1.433 . S
C1230 C1226 1.350 . S
C1230 C1227 1.463 . S
C1230 N1234 1.427 . S
C1231 H1221 0.929 . S
C1231 C1229 1.433 . S
C1231 N1234 1.384 . S
C1232 H1223 0.929 . S
C1232 C1224 1.378 . S
C1232 C1227 1.350 . S
C1233 H1220 0.929 . S
C1233 C1225 1.433 . S
C1233 N1235 1.384 . S
N1234 C1230 1.427 . S
N1234 C1231 1.384 . S
N1235 C1227 1.427 . S
N1235 C1233 1.384 . S
H1236 C1242 0.930 . S
H1237 C1246 0.930 . S
H1238 C1251 0.929 . S
H1239 C1249 0.929 . S
H1240 C1244 0.929 . S
H1241 C1250 0.929 . S
C1242 H1236 0.930 . S
C1242 C1243 1.367 . S
C1242 C1250 1.378 . S
C1243 C1242 1.367 . S
C1243 C1251 1.433 . S
C1244 H1240 0.929 . S
C1244 C1246 1.378 . S
C1244 C1248 1.350 . S
C1245 C1248 1.463 . S
C1245 C1250 1.350 . S
C1245 N1253 1.427 . S
C1246 H1237 0.930 . S
C1246 C1244 1.378 . S
C1246 C1247 1.367 . S
C1247 C1246 1.367 . S
C1247 C1249 1.433 . S
C1248 C1244 1.350 . S
C1248 C1245 1.463 . S
C1248 N1252 1.427 . S
C1249 H1239 0.929 . S
C1249 C1247 1.433 . S
C1249 N1252 1.384 . S
C1250 H1241 0.929 . S
C1250 C1242 1.378 . S
C1250 C1245 1.350 . S
C1251 H1238 0.929 . S
C1251 C1243 1.433 . S
C1251 N1253 1.384 . S
N1252 C1248 1.427 . S
N1252 C1249 1.384 . S
N1253 C1245 1.427 . S
N1253 C1251 1.384 . S
H1254 C1260 0.930 . S
H1255 C1264 0.930 . S
H1256 C1269 0.929 . S
H1257 C1267 0.929 . S
H1258 C1262 0.929 . S
H1259 C1268 0.929 . S
C1260 H1254 0.930 . S
C1260 C1261 1.367 . S
C1260 C1268 1.378 . S
C1261 C1260 1.367 . S
C1261 C1269 1.433 . S
C1262 H1258 0.929 . S
C1262 C1264 1.378 . S
C1262 C1266 1.350 . S
C1263 C1266 1.463 . S
C1263 C1268 1.350 . S
C1263 N1271 1.427 . S
C1264 H1255 0.930 . S
C1264 C1262 1.378 . S
C1264 C1265 1.367 . S
C1265 C1264 1.367 . S
C1265 C1267 1.433 . S
C1266 C1262 1.350 . S
C1266 C1263 1.463 . S
C1266 N1270 1.427 . S
C1267 H1257 0.929 . S
C1267 C1265 1.433 . S
C1267 N1270 1.384 . S
C1268 H1259 0.929 . S
C1268 C1260 1.378 . S
C1268 C1263 1.350 . S
C1269 H1256 0.929 . S
C1269 C1261 1.433 . S
C1269 N1271 1.384 . S
N1270 C1266 1.427 . S
N1270 C1267 1.384 . S
N1271 C1263 1.427 . S
N1271 C1269 1.384 . S
H1272 C1278 0.930 . S
H1273 C1282 0.930 . S
H1274 C1287 0.929 . S
H1275 C1285 0.929 . S
H1276 C1280 0.929 . S
H1277 C1286 0.929 . S
C1278 H1272 0.930 . S
C1278 C1279 1.367 . S
C1278 C1286 1.378 . S
C1279 C1278 1.367 . S
C1279 C1287 1.433 . S
C1280 H1276 0.929 . S
C1280 C1282 1.378 . S
C1280 C1284 1.350 . S
C1281 C1284 1.463 . S
C1281 C1286 1.350 . S
C1281 N1289 1.427 . S
C1282 H1273 0.930 . S
C1282 C1280 1.378 . S
C1282 C1283 1.367 . S
C1283 C1282 1.367 . S
C1283 C1285 1.433 . S
C1284 C1280 1.350 . S
C1284 C1281 1.463 . S
C1284 N1288 1.427 . S
C1285 H1275 0.929 . S
C1285 C1283 1.433 . S
C1285 N1288 1.384 . S
C1286 H1277 0.929 . S
C1286 C1278 1.378 . S
C1286 C1281 1.350 . S
C1287 H1274 0.929 . S
C1287 C1279 1.433 . S
C1287 N1289 1.384 . S
N1288 C1284 1.427 . S
N1288 C1285 1.384 . S
N1289 C1281 1.427 . S
N1289 C1287 1.384 . S
H1290 C1296 0.930 . S
H1291 C1300 0.930 . S
H1292 C1305 0.929 . S
H1293 C1303 0.929 . S
H1294 C1298 0.929 . S
H1295 C1304 0.929 . S
C1296 H1290 0.930 . S
C1296 C1297 1.367 . S
C1296 C1304 1.378 . S
C1297 C1296 1.367 . S
C1297 C1305 1.433 . S
C1298 H1294 0.929 . S
C1298 C1300 1.378 . S
C1298 C1302 1.350 . S
C1299 C1302 1.463 . S
C1299 C1304 1.350 . S
C1299 N1307 1.427 . S
C1300 H1291 0.930 . S
C1300 C1298 1.378 . S
C1300 C1301 1.367 . S
C1301 C1300 1.367 . S
C1301 C1303 1.433 . S
C1302 C1298 1.350 . S
C1302 C1299 1.463 . S
C1302 N1306 1.427 . S
C1303 H1293 0.929 . S
C1303 C1301 1.433 . S
C1303 N1306 1.384 . S
C1304 H1295 0.929 . S
C1304 C1296 1.378 . S
C1304 C1299 1.350 . S
C1305 H1292 0.929 . S
C1305 C1297 1.433 . S
C1305 N1307 1.384 . S
N1306 C1302 1.427 . S
N1306 C1303 1.384 . S
N1307 C1299 1.427 . S
N1307 C1305 1.384 . S
H1308 C1314 0.930 . S
H1309 C1318 0.930 . S
H1310 C1323 0.929 . S
H1311 C1321 0.929 . S
H1312 C1316 0.929 . S
H1313 C1322 0.929 . S
C1314 H1308 0.930 . S
C1314 C1315 1.367 . S
C1314 C1322 1.378 . S
C1315 C1314 1.367 . S
C1315 C1323 1.433 . S
C1316 H1312 0.929 . S
C1316 C1318 1.378 . S
C1316 C1320 1.350 . S
C1317 C1320 1.463 . S
C1317 C1322 1.350 . S
C1317 N1325 1.427 . S
C1318 H1309 0.930 . S
C1318 C1316 1.378 . S
C1318 C1319 1.367 . S
C1319 C1318 1.367 . S
C1319 C1321 1.433 . S
C1320 C1316 1.350 . S
C1320 C1317 1.463 . S
C1320 N1324 1.427 . S
C1321 H1311 0.929 . S
C1321 C1319 1.433 . S
C1321 N1324 1.384 . S
C1322 H1313 0.929 . S
C1322 C1314 1.378 . S
C1322 C1317 1.350 . S
C1323 H1310 0.929 . S
C1323 C1315 1.433 . S
C1323 N1325 1.384 . S
N1324 C1320 1.427 . S
N1324 C1321 1.384 . S
N1325 C1317 1.427 . S
N1325 C1323 1.384 . S
H1326 C1332 0.930 . S
H1327 C1336 0.930 . S
H1328 C1341 0.929 . S
H1329 C1339 0.929 . S
H1330 C1334 0.929 . S
H1331 C1340 0.929 . S
C1332 H1326 0.930 . S
C1332 C1333 1.367 . S
C1332 C1340 1.378 . S
C1333 C1332 1.367 . S
C1333 C1341 1.433 . S
C1334 H1330 0.929 . S
C1334 C1336 1.378 . S
C1334 C1338 1.350 . S
C1335 C1338 1.463 . S
C1335 C1340 1.350 . S
C1335 N1343 1.427 . S
C1336 H1327 0.930 . S
C1336 C1334 1.378 . S
C1336 C1337 1.367 . S
C1337 C1336 1.367 . S
C1337 C1339 1.433 . S
C1338 C1334 1.350 . S
C1338 C1335 1.463 . S
C1338 N1342 1.427 . S
C1339 H1329 0.929 . S
C1339 C1337 1.433 . S
C1339 N1342 1.384 . S
C1340 H1331 0.929 . S
C1340 C1332 1.378 . S
C1340 C1335 1.350 . S
C1341 H1328 0.929 . S
C1341 C1333 1.433 . S
C1341 N1343 1.384 . S
N1342 C1338 1.427 . S
N1342 C1339 1.384 . S
N1343 C1335 1.427 . S
N1343 C1341 1.384 . S
H1344 C1350 0.930 . S
H1345 C1354 0.930 . S
H1346 C1359 0.929 . S
H1347 C1357 0.929 . S
H1348 C1352 0.929 . S
H1349 C1358 0.929 . S
C1350 H1344 0.930 . S
C1350 C1351 1.367 . S
C1350 C1358 1.378 . S
C1351 C1350 1.367 . S
C1351 C1359 1.433 . S
C1352 H1348 0.929 . S
C1352 C1354 1.378 . S
C1352 C1356 1.350 . S
C1353 C1356 1.463 . S
C1353 C1358 1.350 . S
C1353 N1361 1.427 . S
C1354 H1345 0.930 . S
C1354 C1352 1.378 . S
C1354 C1355 1.367 . S
C1355 C1354 1.367 . S
C1355 C1357 1.433 . S
C1356 C1352 1.350 . S
C1356 C1353 1.463 . S
C1356 N1360 1.427 . S
C1357 H1347 0.929 . S
C1357 C1355 1.433 . S
C1357 N1360 1.384 . S
C1358 H1349 0.929 . S
C1358 C1350 1.378 . S
C1358 C1353 1.350 . S
C1359 H1346 0.929 . S
C1359 C1351 1.433 . S
C1359 N1361 1.384 . S
N1360 C1356 1.427 . S
N1360 C1357 1.384 . S
N1361 C1353 1.427 . S
N1361 C1359 1.384 . S
H1362 C1368 0.930 . S
H1363 C1372 0.930 . S
H1364 C1377 0.929 . S
H1365 C1375 0.929 . S
H1366 C1370 0.929 . S
H1367 C1376 0.929 . S
C1368 H1362 0.930 . S
C1368 C1369 1.367 . S
C1368 C1376 1.378 . S
C1369 C1368 1.367 . S
C1369 C1377 1.433 . S
C1370 H1366 0.929 . S
C1370 C1372 1.378 . S
C1370 C1374 1.350 . S
C1371 C1374 1.463 . S
C1371 C1376 1.350 . S
C1371 N1379 1.427 . S
C1372 H1363 0.930 . S
C1372 C1370 1.378 . S
C1372 C1373 1.367 . S
C1373 C1372 1.367 . S
C1373 C1375 1.433 . S
C1374 C1370 1.350 . S
C1374 C1371 1.463 . S
C1374 N1378 1.427 . S
C1375 H1365 0.929 . S
C1375 C1373 1.433 . S
C1375 N1378 1.384 . S
C1376 H1367 0.929 . S
C1376 C1368 1.378 . S
C1376 C1371 1.350 . S
C1377 H1364 0.929 . S
C1377 C1369 1.433 . S
C1377 N1379 1.384 . S
N1378 C1374 1.427 . S
N1378 C1375 1.384 . S
N1379 C1371 1.427 . S
N1379 C1377 1.384 . S
H1380 C1386 0.930 . S
H1381 C1390 0.930 . S
H1382 C1395 0.929 . S
H1383 C1393 0.929 . S
H1384 C1388 0.929 . S
H1385 C1394 0.929 . S
C1386 H1380 0.930 . S
C1386 C1387 1.367 . S
C1386 C1394 1.378 . S
C1387 C1386 1.367 . S
C1387 C1395 1.433 . S
C1388 H1384 0.929 . S
C1388 C1390 1.378 . S
C1388 C1392 1.350 . S
C1389 C1392 1.463 . S
C1389 C1394 1.350 . S
C1389 N1397 1.427 . S
C1390 H1381 0.930 . S
C1390 C1388 1.378 . S
C1390 C1391 1.367 . S
C1391 C1390 1.367 . S
C1391 C1393 1.433 . S
C1392 C1388 1.350 . S
C1392 C1389 1.463 . S
C1392 N1396 1.427 . S
C1393 H1383 0.929 . S
C1393 C1391 1.433 . S
C1393 N1396 1.384 . S
C1394 H1385 0.929 . S
C1394 C1386 1.378 . S
C1394 C1389 1.350 . S
C1395 H1382 0.929 . S
C1395 C1387 1.433 . S
C1395 N1397 1.384 . S
N1396 C1392 1.427 . S
N1396 C1393 1.384 . S
N1397 C1389 1.427 . S
N1397 C1395 1.384 . S
H1398 C1404 0.930 . S
H1399 C1408 0.930 . S
H1400 C1413 0.929 . S
H1401 C1411 0.929 . S
H1402 C1406 0.929 . S
H1403 C1412 0.929 . S
C1404 H1398 0.930 . S
C1404 C1405 1.367 . S
C1404 C1412 1.378 . S
C1405 C1404 1.367 . S
C1405 C1413 1.433 . S
C1406 H1402 0.929 . S
C1406 C1408 1.378 . S
C1406 C1410 1.350 . S
C1407 C1410 1.463 . S
C1407 C1412 1.350 . S
C1407 N1415 1.427 . S
C1408 H1399 0.930 . S
C1408 C1406 1.378 . S
C1408 C1409 1.367 . S
C1409 C1408 1.367 . S
C1409 C1411 1.433 . S
C1410 C1406 1.350 . S
C1410 C1407 1.463 . S
C1410 N1414 1.427 . S
C1411 H1401 0.929 . S
C1411 C1409 1.433 . S
C1411 N1414 1.384 . S
C1412 H1403 0.929 . S
C1412 C1404 1.378 . S
C1412 C1407 1.350 . S
C1413 H1400 0.929 . S
C1413 C1405 1.433 . S
C1413 N1415 1.384 . S
N1414 C1410 1.427 . S
N1414 C1411 1.384 . S
N1415 C1407 1.427 . S
N1415 C1413 1.384 . S
H1416 C1422 0.930 . S
H1417 C1426 0.930 . S
H1418 C1431 0.929 . S
H1419 C1429 0.929 . S
H1420 C1424 0.929 . S
H1421 C1430 0.929 . S
C1422 H1416 0.930 . S
C1422 C1423 1.367 . S
C1422 C1430 1.378 . S
C1423 C1422 1.367 . S
C1423 C1431 1.433 . S
C1424 H1420 0.929 . S
C1424 C1426 1.378 . S
C1424 C1428 1.350 . S
C1425 C1428 1.463 . S
C1425 C1430 1.350 . S
C1425 N1433 1.427 . S
C1426 H1417 0.930 . S
C1426 C1424 1.378 . S
C1426 C1427 1.367 . S
C1427 C1426 1.367 . S
C1427 C1429 1.433 . S
C1428 C1424 1.350 . S
C1428 C1425 1.463 . S
C1428 N1432 1.427 . S
C1429 H1419 0.929 . S
C1429 C1427 1.433 . S
C1429 N1432 1.384 . S
C1430 H1421 0.929 . S
C1430 C1422 1.378 . S
C1430 C1425 1.350 . S
C1431 H1418 0.929 . S
C1431 C1423 1.433 . S
C1431 N1433 1.384 . S
N1432 C1428 1.427 . S
N1432 C1429 1.384 . S
N1433 C1425 1.427 . S
N1433 C1431 1.384 . S
H1434 C1440 0.930 . S
H1435 C1444 0.930 . S
H1436 C1449 0.929 . S
H1437 C1447 0.929 . S
H1438 C1442 0.929 . S
H1439 C1448 0.929 . S
C1440 H1434 0.930 . S
C1440 C1441 1.367 . S
C1440 C1448 1.378 . S
C1441 C1440 1.367 . S
C1441 C1449 1.433 . S
C1442 H1438 0.929 . S
C1442 C1444 1.378 . S
C1442 C1446 1.350 . S
C1443 C1446 1.463 . S
C1443 C1448 1.350 . S
C1443 N1451 1.427 . S
C1444 H1435 0.930 . S
C1444 C1442 1.378 . S
C1444 C1445 1.367 . S
C1445 C1444 1.367 . S
C1445 C1447 1.433 . S
C1446 C1442 1.350 . S
C1446 C1443 1.463 . S
C1446 N1450 1.427 . S
C1447 H1437 0.929 . S
C1447 C1445 1.433 . S
C1447 N1450 1.384 . S
C1448 H1439 0.929 . S
C1448 C1440 1.378 . S
C1448 C1443 1.350 . S
C1449 H1436 0.929 . S
C1449 C1441 1.433 . S
C1449 N1451 1.384 . S
N1450 C1446 1.427 . S
N1450 C1447 1.384 . S
N1451 C1443 1.427 . S
N1451 C1449 1.384 . S
H1452 C1458 0.930 . S
H1453 C1462 0.930 . S
H1454 C1467 0.929 . S
H1455 C1465 0.929 . S
H1456 C1460 0.929 . S
H1457 C1466 0.929 . S
C1458 H1452 0.930 . S
C1458 C1459 1.367 . S
C1458 C1466 1.378 . S
C1459 C1458 1.367 . S
C1459 C1467 1.433 . S
C1460 H1456 0.929 . S
C1460 C1462 1.378 . S
C1460 C1464 1.350 . S
C1461 C1464 1.463 . S
C1461 C1466 1.350 . S
C1461 N1469 1.427 . S
C1462 H1453 0.930 . S
C1462 C1460 1.378 . S
C1462 C1463 1.367 . S
C1463 C1462 1.367 . S
C1463 C1465 1.433 . S
C1464 C1460 1.350 . S
C1464 C1461 1.463 . S
C1464 N1468 1.427 . S
C1465 H1455 0.929 . S
C1465 C1463 1.433 . S
C1465 N1468 1.384 . S
C1466 H1457 0.929 . S
C1466 C1458 1.378 . S
C1466 C1461 1.350 . S
C1467 H1454 0.929 . S
C1467 C1459 1.433 . S
C1467 N1469 1.384 . S
N1468 C1464 1.427 . S
N1468 C1465 1.384 . S
N1469 C1461 1.427 . S
N1469 C1467 1.384 . S
H1470 C1476 0.930 . S
H1471 C1480 0.930 . S
H1472 C1485 0.929 . S
H1473 C1483 0.929 . S
H1474 C1478 0.929 . S
H1475 C1484 0.929 . S
C1476 H1470 0.930 . S
C1476 C1477 1.367 . S
C1476 C1484 1.378 . S
C1477 C1476 1.367 . S
C1477 C1485 1.433 . S
C1478 H1474 0.929 . S
C1478 C1480 1.378 . S
C1478 C1482 1.350 . S
C1479 C1482 1.463 . S
C1479 C1484 1.350 . S
C1479 N1487 1.427 . S
C1480 H1471 0.930 . S
C1480 C1478 1.378 . S
C1480 C1481 1.367 . S
C1481 C1480 1.367 . S
C1481 C1483 1.433 . S
C1482 C1478 1.350 . S
C1482 C1479 1.463 . S
C1482 N1486 1.427 . S
C1483 H1473 0.929 . S
C1483 C1481 1.433 . S
C1483 N1486 1.384 . S
C1484 H1475 0.929 . S
C1484 C1476 1.378 . S
C1484 C1479 1.350 . S
C1485 H1472 0.929 . S
C1485 C1477 1.433 . S
C1485 N1487 1.384 . S
N1486 C1482 1.427 . S
N1486 C1483 1.384 . S
N1487 C1479 1.427 . S
N1487 C1485 1.384 . S
H1488 C1494 0.930 . S
H1489 C1498 0.930 . S
H1490 C1503 0.929 . S
H1491 C1501 0.929 . S
H1492 C1496 0.929 . S
H1493 C1502 0.929 . S
C1494 H1488 0.930 . S
C1494 C1495 1.367 . S
C1494 C1502 1.378 . S
C1495 C1494 1.367 . S
C1495 C1503 1.433 . S
C1496 H1492 0.929 . S
C1496 C1498 1.378 . S
C1496 C1500 1.350 . S
C1497 C1500 1.463 . S
C1497 C1502 1.350 . S
C1497 N1505 1.427 . S
C1498 H1489 0.930 . S
C1498 C1496 1.378 . S
C1498 C1499 1.367 . S
C1499 C1498 1.367 . S
C1499 C1501 1.433 . S
C1500 C1496 1.350 . S
C1500 C1497 1.463 . S
C1500 N1504 1.427 . S
C1501 H1491 0.929 . S
C1501 C1499 1.433 . S
C1501 N1504 1.384 . S
C1502 H1493 0.929 . S
C1502 C1494 1.378 . S
C1502 C1497 1.350 . S
C1503 H1490 0.929 . S
C1503 C1495 1.433 . S
C1503 N1505 1.384 . S
N1504 C1500 1.427 . S
N1504 C1501 1.384 . S
N1505 C1497 1.427 . S
N1505 C1503 1.384 . S
H1506 C1512 0.930 . S
H1507 C1516 0.930 . S
H1508 C1521 0.929 . S
H1509 C1519 0.929 . S
H1510 C1514 0.929 . S
H1511 C1520 0.929 . S
C1512 H1506 0.930 . S
C1512 C1513 1.367 . S
C1512 C1520 1.378 . S
C1513 C1512 1.367 . S
C1513 C1521 1.433 . S
C1514 H1510 0.929 . S
C1514 C1516 1.378 . S
C1514 C1518 1.350 . S
C1515 C1518 1.463 . S
C1515 C1520 1.350 . S
C1515 N1523 1.427 . S
C1516 H1507 0.930 . S
C1516 C1514 1.378 . S
C1516 C1517 1.367 . S
C1517 C1516 1.367 . S
C1517 C1519 1.433 . S
C1518 C1514 1.350 . S
C1518 C1515 1.463 . S
C1518 N1522 1.427 . S
C1519 H1509 0.929 . S
C1519 C1517 1.433 . S
C1519 N1522 1.384 . S
C1520 H1511 0.929 . S
C1520 C1512 1.378 . S
C1520 C1515 1.350 . S
C1521 H1508 0.929 . S
C1521 C1513 1.433 . S
C1521 N1523 1.384 . S
N1522 C1518 1.427 . S
N1522 C1519 1.384 . S
N1523 C1515 1.427 . S
N1523 C1521 1.384 . S
H1524 C1530 0.930 . S
H1525 C1534 0.930 . S
H1526 C1539 0.929 . S
H1527 C1537 0.929 . S
H1528 C1532 0.929 . S
H1529 C1538 0.929 . S
C1530 H1524 0.930 . S
C1530 C1531 1.367 . S
C1530 C1538 1.378 . S
C1531 C1530 1.367 . S
C1531 C1539 1.433 . S
C1532 H1528 0.929 . S
C1532 C1534 1.378 . S
C1532 C1536 1.350 . S
C1533 C1536 1.463 . S
C1533 C1538 1.350 . S
C1533 N1541 1.427 . S
C1534 H1525 0.930 . S
C1534 C1532 1.378 . S
C1534 C1535 1.367 . S
C1535 C1534 1.367 . S
C1535 C1537 1.433 . S
C1536 C1532 1.350 . S
C1536 C1533 1.463 . S
C1536 N1540 1.427 . S
C1537 H1527 0.929 . S
C1537 C1535 1.433 . S
C1537 N1540 1.384 . S
C1538 H1529 0.929 . S
C1538 C1530 1.378 . S
C1538 C1533 1.350 . S
C1539 H1526 0.929 . S
C1539 C1531 1.433 . S
C1539 N1541 1.384 . S
N1540 C1536 1.427 . S
N1540 C1537 1.384 . S
N1541 C1533 1.427 . S
N1541 C1539 1.384 . S
H1542 C1548 0.930 . S
H1543 C1552 0.930 . S
H1544 C1557 0.929 . S
H1545 C1555 0.929 . S
H1546 C1550 0.929 . S
H1547 C1556 0.929 . S
C1548 H1542 0.930 . S
C1548 C1549 1.367 . S
C1548 C1556 1.378 . S
C1549 C1548 1.367 . S
C1549 C1557 1.433 . S
C1550 H1546 0.929 . S
C1550 C1552 1.378 . S
C1550 C1554 1.350 . S
C1551 C1554 1.463 . S
C1551 C1556 1.350 . S
C1551 N1559 1.427 . S
C1552 H1543 0.930 . S
C1552 C1550 1.378 . S
C1552 C1553 1.367 . S
C1553 C1552 1.367 . S
C1553 C1555 1.433 . S
C1554 C1550 1.350 . S
C1554 C1551 1.463 . S
C1554 N1558 1.427 . S
C1555 H1545 0.929 . S
C1555 C1553 1.433 . S
C1555 N1558 1.384 . S
C1556 H1547 0.929 . S
C1556 C1548 1.378 . S
C1556 C1551 1.350 . S
C1557 H1544 0.929 . S
C1557 C1549 1.433 . S
C1557 N1559 1.384 . S
N1558 C1554 1.427 . S
N1558 C1555 1.384 . S
N1559 C1551 1.427 . S
N1559 C1557 1.384 . S
H1560 C1566 0.930 . S
H1561 C1570 0.930 . S
H1562 C1575 0.929 . S
H1563 C1573 0.929 . S
H1564 C1568 0.929 . S
H1565 C1574 0.929 . S
C1566 H1560 0.930 . S
C1566 C1567 1.367 . S
C1566 C1574 1.378 . S
C1567 C1566 1.367 . S
C1567 C1575 1.433 . S
C1568 H1564 0.929 . S
C1568 C1570 1.378 . S
C1568 C1572 1.350 . S
C1569 C1572 1.463 . S
C1569 C1574 1.350 . S
C1569 N1577 1.427 . S
C1570 H1561 0.930 . S
C1570 C1568 1.378 . S
C1570 C1571 1.367 . S
C1571 C1570 1.367 . S
C1571 C1573 1.433 . S
C1572 C1568 1.350 . S
C1572 C1569 1.463 . S
C1572 N1576 1.427 . S
C1573 H1563 0.929 . S
C1573 C1571 1.433 . S
C1573 N1576 1.384 . S
C1574 H1565 0.929 . S
C1574 C1566 1.378 . S
C1574 C1569 1.350 . S
C1575 H1562 0.929 . S
C1575 C1567 1.433 . S
C1575 N1577 1.384 . S
N1576 C1572 1.427 . S
N1576 C1573 1.384 . S
N1577 C1569 1.427 . S
N1577 C1575 1.384 . S
H1578 C1584 0.930 . S
H1579 C1588 0.930 . S
H1580 C1593 0.929 . S
H1581 C1591 0.929 . S
H1582 C1586 0.929 . S
H1583 C1592 0.929 . S
C1584 H1578 0.930 . S
C1584 C1585 1.367 . S
C1584 C1592 1.378 . S
C1585 C1584 1.367 . S
C1585 C1593 1.433 . S
C1586 H1582 0.929 . S
C1586 C1588 1.378 . S
C1586 C1590 1.350 . S
C1587 C1590 1.463 . S
C1587 C1592 1.350 . S
C1587 N1595 1.427 . S
C1588 H1579 0.930 . S
C1588 C1586 1.378 . S
C1588 C1589 1.367 . S
C1589 C1588 1.367 . S
C1589 C1591 1.433 . S
C1590 C1586 1.350 . S
C1590 C1587 1.463 . S
C1590 N1594 1.427 . S
C1591 H1581 0.929 . S
C1591 C1589 1.433 . S
C1591 N1594 1.384 . S
C1592 H1583 0.929 . S
C1592 C1584 1.378 . S
C1592 C1587 1.350 . S
C1593 H1580 0.929 . S
C1593 C1585 1.433 . S
C1593 N1595 1.384 . S
N1594 C1590 1.427 . S
N1594 C1591 1.384 . S
N1595 C1587 1.427 . S
N1595 C1593 1.384 . S
H1596 C1602 0.930 . S
H1597 C1606 0.930 . S
H1598 C1611 0.929 . S
H1599 C1609 0.929 . S
H1600 C1604 0.929 . S
H1601 C1610 0.929 . S
C1602 H1596 0.930 . S
C1602 C1603 1.367 . S
C1602 C1610 1.378 . S
C1603 C1602 1.367 . S
C1603 C1611 1.433 . S
C1604 H1600 0.929 . S
C1604 C1606 1.378 . S
C1604 C1608 1.350 . S
C1605 C1608 1.463 . S
C1605 C1610 1.350 . S
C1605 N1613 1.427 . S
C1606 H1597 0.930 . S
C1606 C1604 1.378 . S
C1606 C1607 1.367 . S
C1607 C1606 1.367 . S
C1607 C1609 1.433 . S
C1608 C1604 1.350 . S
C1608 C1605 1.463 . S
C1608 N1612 1.427 . S
C1609 H1599 0.929 . S
C1609 C1607 1.433 . S
C1609 N1612 1.384 . S
C1610 H1601 0.929 . S
C1610 C1602 1.378 . S
C1610 C1605 1.350 . S
C1611 H1598 0.929 . S
C1611 C1603 1.433 . S
C1611 N1613 1.384 . S
N1612 C1608 1.427 . S
N1612 C1609 1.384 . S
N1613 C1605 1.427 . S
N1613 C1611 1.384 . S
H1614 C1620 0.930 . S
H1615 C1624 0.930 . S
H1616 C1629 0.929 . S
H1617 C1627 0.929 . S
H1618 C1622 0.929 . S
H1619 C1628 0.929 . S
C1620 H1614 0.930 . S
C1620 C1621 1.367 . S
C1620 C1628 1.378 . S
C1621 C1620 1.367 . S
C1621 C1629 1.433 . S
C1622 H1618 0.929 . S
C1622 C1624 1.378 . S
C1622 C1626 1.350 . S
C1623 C1626 1.463 . S
C1623 C1628 1.350 . S
C1623 N1631 1.427 . S
C1624 H1615 0.930 . S
C1624 C1622 1.378 . S
C1624 C1625 1.367 . S
C1625 C1624 1.367 . S
C1625 C1627 1.433 . S
C1626 C1622 1.350 . S
C1626 C1623 1.463 . S
C1626 N1630 1.427 . S
C1627 H1617 0.929 . S
C1627 C1625 1.433 . S
C1627 N1630 1.384 . S
C1628 H1619 0.929 . S
C1628 C1620 1.378 . S
C1628 C1623 1.350 . S
C1629 H1616 0.929 . S
C1629 C1621 1.433 . S
C1629 N1631 1.384 . S
N1630 C1626 1.427 . S
N1630 C1627 1.384 . S
N1631 C1623 1.427 . S
N1631 C1629 1.384 . S
H1632 C1638 0.930 . S
H1633 C1642 0.930 . S
H1634 C1647 0.929 . S
H1635 C1645 0.929 . S
H1636 C1640 0.929 . S
H1637 C1646 0.929 . S
C1638 H1632 0.930 . S
C1638 C1639 1.367 . S
C1638 C1646 1.378 . S
C1639 C1638 1.367 . S
C1639 C1647 1.433 . S
C1640 H1636 0.929 . S
C1640 C1642 1.378 . S
C1640 C1644 1.350 . S
C1641 C1644 1.463 . S
C1641 C1646 1.350 . S
C1641 N1649 1.427 . S
C1642 H1633 0.930 . S
C1642 C1640 1.378 . S
C1642 C1643 1.367 . S
C1643 C1642 1.367 . S
C1643 C1645 1.433 . S
C1644 C1640 1.350 . S
C1644 C1641 1.463 . S
C1644 N1648 1.427 . S
C1645 H1635 0.929 . S
C1645 C1643 1.433 . S
C1645 N1648 1.384 . S
C1646 H1637 0.929 . S
C1646 C1638 1.378 . S
C1646 C1641 1.350 . S
C1647 H1634 0.929 . S
C1647 C1639 1.433 . S
C1647 N1649 1.384 . S
N1648 C1644 1.427 . S
N1648 C1645 1.384 . S
N1649 C1641 1.427 . S
N1649 C1647 1.384 . S
H1650 C1656 0.930 . S
H1651 C1660 0.930 . S
H1652 C1665 0.929 . S
H1653 C1663 0.929 . S
H1654 C1658 0.929 . S
H1655 C1664 0.929 . S
C1656 H1650 0.930 . S
C1656 C1657 1.367 . S
C1656 C1664 1.378 . S
C1657 C1656 1.367 . S
C1657 C1665 1.433 . S
C1658 H1654 0.929 . S
C1658 C1660 1.378 . S
C1658 C1662 1.350 . S
C1659 C1662 1.463 . S
C1659 C1664 1.350 . S
C1659 N1667 1.427 . S
C1660 H1651 0.930 . S
C1660 C1658 1.378 . S
C1660 C1661 1.367 . S
C1661 C1660 1.367 . S
C1661 C1663 1.433 . S
C1662 C1658 1.350 . S
C1662 C1659 1.463 . S
C1662 N1666 1.427 . S
C1663 H1653 0.929 . S
C1663 C1661 1.433 . S
C1663 N1666 1.384 . S
C1664 H1655 0.929 . S
C1664 C1656 1.378 . S
C1664 C1659 1.350 . S
C1665 H1652 0.929 . S
C1665 C1657 1.433 . S
C1665 N1667 1.384 . S
N1666 C1662 1.427 . S
N1666 C1663 1.384 . S
N1667 C1659 1.427 . S
N1667 C1665 1.384 . S
H1668 C1674 0.930 . S
H1669 C1678 0.930 . S
H1670 C1683 0.929 . S
H1671 C1681 0.929 . S
H1672 C1676 0.929 . S
H1673 C1682 0.929 . S
C1674 H1668 0.930 . S
C1674 C1675 1.367 . S
C1674 C1682 1.378 . S
C1675 C1674 1.367 . S
C1675 C1683 1.433 . S
C1676 H1672 0.929 . S
C1676 C1678 1.378 . S
C1676 C1680 1.350 . S
C1677 C1680 1.463 . S
C1677 C1682 1.350 . S
C1677 N1685 1.427 . S
C1678 H1669 0.930 . S
C1678 C1676 1.378 . S
C1678 C1679 1.367 . S
C1679 C1678 1.367 . S
C1679 C1681 1.433 . S
C1680 C1676 1.350 . S
C1680 C1677 1.463 . S
C1680 N1684 1.427 . S
C1681 H1671 0.929 . S
C1681 C1679 1.433 . S
C1681 N1684 1.384 . S
C1682 H1673 0.929 . S
C1682 C1674 1.378 . S
C1682 C1677 1.350 . S
C1683 H1670 0.929 . S
C1683 C1675 1.433 . S
C1683 N1685 1.384 . S
N1684 C1680 1.427 . S
N1684 C1681 1.384 . S
N1685 C1677 1.427 . S
N1685 C1683 1.384 . S
H1686 C1692 0.930 . S
H1687 C1696 0.930 . S
H1688 C1701 0.929 . S
H1689 C1699 0.929 . S
H1690 C1694 0.929 . S
H1691 C1700 0.929 . S
C1692 H1686 0.930 . S
C1692 C1693 1.367 . S
C1692 C1700 1.378 . S
C1693 C1692 1.367 . S
C1693 C1701 1.433 . S
C1694 H1690 0.929 . S
C1694 C1696 1.378 . S
C1694 C1698 1.350 . S
C1695 C1698 1.463 . S
C1695 C1700 1.350 . S
C1695 N1703 1.427 . S
C1696 H1687 0.930 . S
C1696 C1694 1.378 . S
C1696 C1697 1.367 . S
C1697 C1696 1.367 . S
C1697 C1699 1.433 . S
C1698 C1694 1.350 . S
C1698 C1695 1.463 . S
C1698 N1702 1.427 . S
C1699 H1689 0.929 . S
C1699 C1697 1.433 . S
C1699 N1702 1.384 . S
C1700 H1691 0.929 . S
C1700 C1692 1.378 . S
C1700 C1695 1.350 . S
C1701 H1688 0.929 . S
C1701 C1693 1.433 . S
C1701 N1703 1.384 . S
N1702 C1698 1.427 . S
N1702 C1699 1.384 . S
N1703 C1695 1.427 . S
N1703 C1701 1.384 . S
H1704 C1710 0.930 . S
H1705 C1714 0.930 . S
H1706 C1719 0.929 . S
H1707 C1717 0.929 . S
H1708 C1712 0.929 . S
H1709 C1718 0.929 . S
C1710 H1704 0.930 . S
C1710 C1711 1.367 . S
C1710 C1718 1.378 . S
C1711 C1710 1.367 . S
C1711 C1719 1.433 . S
C1712 H1708 0.929 . S
C1712 C1714 1.378 . S
C1712 C1716 1.350 . S
C1713 C1716 1.463 . S
C1713 C1718 1.350 . S
C1713 N1721 1.427 . S
C1714 H1705 0.930 . S
C1714 C1712 1.378 . S
C1714 C1715 1.367 . S
C1715 C1714 1.367 . S
C1715 C1717 1.433 . S
C1716 C1712 1.350 . S
C1716 C1713 1.463 . S
C1716 N1720 1.427 . S
C1717 H1707 0.929 . S
C1717 C1715 1.433 . S
C1717 N1720 1.384 . S
C1718 H1709 0.929 . S
C1718 C1710 1.378 . S
C1718 C1713 1.350 . S
C1719 H1706 0.929 . S
C1719 C1711 1.433 . S
C1719 N1721 1.384 . S
N1720 C1716 1.427 . S
N1720 C1717 1.384 . S
N1721 C1713 1.427 . S
N1721 C1719 1.384 . S
H1722 C1728 0.930 . S
H1723 C1732 0.930 . S
H1724 C1737 0.929 . S
H1725 C1735 0.929 . S
H1726 C1730 0.929 . S
H1727 C1736 0.929 . S
C1728 H1722 0.930 . S
C1728 C1729 1.367 . S
C1728 C1736 1.378 . S
C1729 C1728 1.367 . S
C1729 C1737 1.433 . S
C1730 H1726 0.929 . S
C1730 C1732 1.378 . S
C1730 C1734 1.350 . S
C1731 C1734 1.463 . S
C1731 C1736 1.350 . S
C1731 N1739 1.427 . S
C1732 H1723 0.930 . S
C1732 C1730 1.378 . S
C1732 C1733 1.367 . S
C1733 C1732 1.367 . S
C1733 C1735 1.433 . S
C1734 C1730 1.350 . S
C1734 C1731 1.463 . S
C1734 N1738 1.427 . S
C1735 H1725 0.929 . S
C1735 C1733 1.433 . S
C1735 N1738 1.384 . S
C1736 H1727 0.929 . S
C1736 C1728 1.378 . S
C1736 C1731 1.350 . S
C1737 H1724 0.929 . S
C1737 C1729 1.433 . S
C1737 N1739 1.384 . S
N1738 C1734 1.427 . S
N1738 C1735 1.384 . S
N1739 C1731 1.427 . S
N1739 C1737 1.384 . S
H1740 C1746 0.930 . S
H1741 C1750 0.930 . S
H1742 C1755 0.929 . S
H1743 C1753 0.929 . S
H1744 C1748 0.929 . S
H1745 C1754 0.929 . S
C1746 H1740 0.930 . S
C1746 C1747 1.367 . S
C1746 C1754 1.378 . S
C1747 C1746 1.367 . S
C1747 C1755 1.433 . S
C1748 H1744 0.929 . S
C1748 C1750 1.378 . S
C1748 C1752 1.350 . S
C1749 C1752 1.463 . S
C1749 C1754 1.350 . S
C1749 N1757 1.427 . S
C1750 H1741 0.930 . S
C1750 C1748 1.378 . S
C1750 C1751 1.367 . S
C1751 C1750 1.367 . S
C1751 C1753 1.433 . S
C1752 C1748 1.350 . S
C1752 C1749 1.463 . S
C1752 N1756 1.427 . S
C1753 H1743 0.929 . S
C1753 C1751 1.433 . S
C1753 N1756 1.384 . S
C1754 H1745 0.929 . S
C1754 C1746 1.378 . S
C1754 C1749 1.350 . S
C1755 H1742 0.929 . S
C1755 C1747 1.433 . S
C1755 N1757 1.384 . S
N1756 C1752 1.427 . S
N1756 C1753 1.384 . S
N1757 C1749 1.427 . S
N1757 C1755 1.384 . S
H1758 C1764 0.930 . S
H1759 C1768 0.930 . S
H1760 C1773 0.929 . S
H1761 C1771 0.929 . S
H1762 C1766 0.929 . S
H1763 C1772 0.929 . S
C1764 H1758 0.930 . S
C1764 C1765 1.367 . S
C1764 C1772 1.378 . S
C1765 C1764 1.367 . S
C1765 C1773 1.433 . S
C1766 H1762 0.929 . S
C1766 C1768 1.378 . S
C1766 C1770 1.350 . S
C1767 C1770 1.463 . S
C1767 C1772 1.350 . S
C1767 N1775 1.427 . S
C1768 H1759 0.930 . S
C1768 C1766 1.378 . S
C1768 C1769 1.367 . S
C1769 C1768 1.367 . S
C1769 C1771 1.433 . S
C1770 C1766 1.350 . S
C1770 C1767 1.463 . S
C1770 N1774 1.427 . S
C1771 H1761 0.929 . S
C1771 C1769 1.433 . S
C1771 N1774 1.384 . S
C1772 H1763 0.929 . S
C1772 C1764 1.378 . S
C1772 C1767 1.350 . S
C1773 H1760 0.929 . S
C1773 C1765 1.433 . S
C1773 N1775 1.384 . S
N1774 C1770 1.427 . S
N1774 C1771 1.384 . S
N1775 C1767 1.427 . S
N1775 C1773 1.384 . S
H1776 C1782 0.930 . S
H1777 C1786 0.930 . S
H1778 C1791 0.929 . S
H1779 C1789 0.929 . S
H1780 C1784 0.929 . S
H1781 C1790 0.929 . S
C1782 H1776 0.930 . S
C1782 C1783 1.367 . S
C1782 C1790 1.378 . S
C1783 C1782 1.367 . S
C1783 C1791 1.433 . S
C1784 H1780 0.929 . S
C1784 C1786 1.378 . S
C1784 C1788 1.350 . S
C1785 C1788 1.463 . S
C1785 C1790 1.350 . S
C1785 N1793 1.427 . S
C1786 H1777 0.930 . S
C1786 C1784 1.378 . S
C1786 C1787 1.367 . S
C1787 C1786 1.367 . S
C1787 C1789 1.433 . S
C1788 C1784 1.350 . S
C1788 C1785 1.463 . S
C1788 N1792 1.427 . S
C1789 H1779 0.929 . S
C1789 C1787 1.433 . S
C1789 N1792 1.384 . S
C1790 H1781 0.929 . S
C1790 C1782 1.378 . S
C1790 C1785 1.350 . S
C1791 H1778 0.929 . S
C1791 C1783 1.433 . S
C1791 N1793 1.384 . S
N1792 C1788 1.427 . S
N1792 C1789 1.384 . S
N1793 C1785 1.427 . S
N1793 C1791 1.384 . S
H1794 C1800 0.930 . S
H1795 C1804 0.930 . S
H1796 C1809 0.929 . S
H1797 C1807 0.929 . S
H1798 C1802 0.929 . S
H1799 C1808 0.929 . S
C1800 H1794 0.930 . S
C1800 C1801 1.367 . S
C1800 C1808 1.378 . S
C1801 C1800 1.367 . S
C1801 C1809 1.433 . S
C1802 H1798 0.929 . S
C1802 C1804 1.378 . S
C1802 C1806 1.350 . S
C1803 C1806 1.463 . S
C1803 C1808 1.350 . S
C1803 N1811 1.427 . S
C1804 H1795 0.930 . S
C1804 C1802 1.378 . S
C1804 C1805 1.367 . S
C1805 C1804 1.367 . S
C1805 C1807 1.433 . S
C1806 C1802 1.350 . S
C1806 C1803 1.463 . S
C1806 N1810 1.427 . S
C1807 H1797 0.929 . S
C1807 C1805 1.433 . S
C1807 N1810 1.384 . S
C1808 H1799 0.929 . S
C1808 C1800 1.378 . S
C1808 C1803 1.350 . S
C1809 H1796 0.929 . S
C1809 C1801 1.433 . S
C1809 N1811 1.384 . S
N1810 C1806 1.427 . S
N1810 C1807 1.384 . S
N1811 C1803 1.427 . S
N1811 C1809 1.384 . S
H1812 C1818 0.930 . S
H1813 C1822 0.930 . S
H1814 C1827 0.929 . S
H1815 C1825 0.929 . S
H1816 C1820 0.929 . S
H1817 C1826 0.929 . S
C1818 H1812 0.930 . S
C1818 C1819 1.367 . S
C1818 C1826 1.378 . S
C1819 C1818 1.367 . S
C1819 C1827 1.433 . S
C1820 H1816 0.929 . S
C1820 C1822 1.378 . S
C1820 C1824 1.350 . S
C1821 C1824 1.463 . S
C1821 C1826 1.350 . S
C1821 N1829 1.427 . S
C1822 H1813 0.930 . S
C1822 C1820 1.378 . S
C1822 C1823 1.367 . S
C1823 C1822 1.367 . S
C1823 C1825 1.433 . S
C1824 C1820 1.350 . S
C1824 C1821 1.463 . S
C1824 N1828 1.427 . S
C1825 H1815 0.929 . S
C1825 C1823 1.433 . S
C1825 N1828 1.384 . S
C1826 H1817 0.929 . S
C1826 C1818 1.378 . S
C1826 C1821 1.350 . S
C1827 H1814 0.929 . S
C1827 C1819 1.433 . S
C1827 N1829 1.384 . S
N1828 C1824 1.427 . S
N1828 C1825 1.384 . S
N1829 C1821 1.427 . S
N1829 C1827 1.384 . S
H1830 C1836 0.930 . S
H1831 C1840 0.930 . S
H1832 C1845 0.929 . S
H1833 C1843 0.929 . S
H1834 C1838 0.929 . S
H1835 C1844 0.929 . S
C1836 H1830 0.930 . S
C1836 C1837 1.367 . S
C1836 C1844 1.378 . S
C1837 C1836 1.367 . S
C1837 C1845 1.433 . S
C1838 H1834 0.929 . S
C1838 C1840 1.378 . S
C1838 C1842 1.350 . S
C1839 C1842 1.463 . S
C1839 C1844 1.350 . S
C1839 N1847 1.427 . S
C1840 H1831 0.930 . S
C1840 C1838 1.378 . S
C1840 C1841 1.367 . S
C1841 C1840 1.367 . S
C1841 C1843 1.433 . S
C1842 C1838 1.350 . S
C1842 C1839 1.463 . S
C1842 N1846 1.427 . S
C1843 H1833 0.929 . S
C1843 C1841 1.433 . S
C1843 N1846 1.384 . S
C1844 H1835 0.929 . S
C1844 C1836 1.378 . S
C1844 C1839 1.350 . S
C1845 H1832 0.929 . S
C1845 C1837 1.433 . S
C1845 N1847 1.384 . S
N1846 C1842 1.427 . S
N1846 C1843 1.384 . S
N1847 C1839 1.427 . S
N1847 C1845 1.384 . S
H1848 C1854 0.930 . S
H1849 C1858 0.930 . S
H1850 C1863 0.929 . S
H1851 C1861 0.929 . S
H1852 C1856 0.929 . S
H1853 C1862 0.929 . S
C1854 H1848 0.930 . S
C1854 C1855 1.367 . S
C1854 C1862 1.378 . S
C1855 C1854 1.367 . S
C1855 C1863 1.433 . S
C1856 H1852 0.929 . S
C1856 C1858 1.378 . S
C1856 C1860 1.350 . S
C1857 C1860 1.463 . S
C1857 C1862 1.350 . S
C1857 N1865 1.427 . S
C1858 H1849 0.930 . S
C1858 C1856 1.378 . S
C1858 C1859 1.367 . S
C1859 C1858 1.367 . S
C1859 C1861 1.433 . S
C1860 C1856 1.350 . S
C1860 C1857 1.463 . S
C1860 N1864 1.427 . S
C1861 H1851 0.929 . S
C1861 C1859 1.433 . S
C1861 N1864 1.384 . S
C1862 H1853 0.929 . S
C1862 C1854 1.378 . S
C1862 C1857 1.350 . S
C1863 H1850 0.929 . S
C1863 C1855 1.433 . S
C1863 N1865 1.384 . S
N1864 C1860 1.427 . S
N1864 C1861 1.384 . S
N1865 C1857 1.427 . S
N1865 C1863 1.384 . S
H1866 C1872 0.930 . S
H1867 C1876 0.930 . S
H1868 C1881 0.929 . S
H1869 C1879 0.929 . S
H1870 C1874 0.929 . S
H1871 C1880 0.929 . S
C1872 H1866 0.930 . S
C1872 C1873 1.367 . S
C1872 C1880 1.378 . S
C1873 C1872 1.367 . S
C1873 C1881 1.433 . S
C1874 H1870 0.929 . S
C1874 C1876 1.378 . S
C1874 C1878 1.350 . S
C1875 C1878 1.463 . S
C1875 C1880 1.350 . S
C1875 N1883 1.427 . S
C1876 H1867 0.930 . S
C1876 C1874 1.378 . S
C1876 C1877 1.367 . S
C1877 C1876 1.367 . S
C1877 C1879 1.433 . S
C1878 C1874 1.350 . S
C1878 C1875 1.463 . S
C1878 N1882 1.427 . S
C1879 H1869 0.929 . S
C1879 C1877 1.433 . S
C1879 N1882 1.384 . S
C1880 H1871 0.929 . S
C1880 C1872 1.378 . S
C1880 C1875 1.350 . S
C1881 H1868 0.929 . S
C1881 C1873 1.433 . S
C1881 N1883 1.384 . S
N1882 C1878 1.427 . S
N1882 C1879 1.384 . S
N1883 C1875 1.427 . S
N1883 C1881 1.384 . S
H1884 C1890 0.930 . S
H1885 C1894 0.930 . S
H1886 C1899 0.929 . S
H1887 C1897 0.929 . S
H1888 C1892 0.929 . S
H1889 C1898 0.929 . S
C1890 H1884 0.930 . S
C1890 C1891 1.367 . S
C1890 C1898 1.378 . S
C1891 C1890 1.367 . S
C1891 C1899 1.433 . S
C1892 H1888 0.929 . S
C1892 C1894 1.378 . S
C1892 C1896 1.350 . S
C1893 C1896 1.463 . S
C1893 C1898 1.350 . S
C1893 N1901 1.427 . S
C1894 H1885 0.930 . S
C1894 C1892 1.378 . S
C1894 C1895 1.367 . S
C1895 C1894 1.367 . S
C1895 C1897 1.433 . S
C1896 C1892 1.350 . S
C1896 C1893 1.463 . S
C1896 N1900 1.427 . S
C1897 H1887 0.929 . S
C1897 C1895 1.433 . S
C1897 N1900 1.384 . S
C1898 H1889 0.929 . S
C1898 C1890 1.378 . S
C1898 C1893 1.350 . S
C1899 H1886 0.929 . S
C1899 C1891 1.433 . S
C1899 N1901 1.384 . S
N1900 C1896 1.427 . S
N1900 C1897 1.384 . S
N1901 C1893 1.427 . S
N1901 C1899 1.384 . S
H1902 C1908 0.930 . S
H1903 C1912 0.930 . S
H1904 C1917 0.929 . S
H1905 C1915 0.929 . S
H1906 C1910 0.929 . S
H1907 C1916 0.929 . S
C1908 H1902 0.930 . S
C1908 C1909 1.367 . S
C1908 C1916 1.378 . S
C1909 C1908 1.367 . S
C1909 C1917 1.433 . S
C1910 H1906 0.929 . S
C1910 C1912 1.378 . S
C1910 C1914 1.350 . S
C1911 C1914 1.463 . S
C1911 C1916 1.350 . S
C1911 N1919 1.427 . S
C1912 H1903 0.930 . S
C1912 C1910 1.378 . S
C1912 C1913 1.367 . S
C1913 C1912 1.367 . S
C1913 C1915 1.433 . S
C1914 C1910 1.350 . S
C1914 C1911 1.463 . S
C1914 N1918 1.427 . S
C1915 H1905 0.929 . S
C1915 C1913 1.433 . S
C1915 N1918 1.384 . S
C1916 H1907 0.929 . S
C1916 C1908 1.378 . S
C1916 C1911 1.350 . S
C1917 H1904 0.929 . S
C1917 C1909 1.433 . S
C1917 N1919 1.384 . S
N1918 C1914 1.427 . S
N1918 C1915 1.384 . S
N1919 C1911 1.427 . S
N1919 C1917 1.384 . S
H1920 C1926 0.930 . S
H1921 C1930 0.930 . S
H1922 C1935 0.929 . S
H1923 C1933 0.929 . S
H1924 C1928 0.929 . S
H1925 C1934 0.929 . S
C1926 H1920 0.930 . S
C1926 C1927 1.367 . S
C1926 C1934 1.378 . S
C1927 C1926 1.367 . S
C1927 C1935 1.433 . S
C1928 H1924 0.929 . S
C1928 C1930 1.378 . S
C1928 C1932 1.350 . S
C1929 C1932 1.463 1_554 S
C1929 C1934 1.350 . S
C1929 N1937 1.427 . S
C1930 H1921 0.930 . S
C1930 C1928 1.378 . S
C1930 C1931 1.367 . S
C1931 C1930 1.367 . S
C1931 C1933 1.433 . S
C1932 C1928 1.350 . S
C1932 C1929 1.463 1_556 S
C1932 N1936 1.427 . S
C1933 H1923 0.929 . S
C1933 C1931 1.433 . S
C1933 N1936 1.384 . S
C1934 H1925 0.929 . S
C1934 C1926 1.378 . S
C1934 C1929 1.350 . S
C1935 H1922 0.929 . S
C1935 C1927 1.433 . S
C1935 N1937 1.384 . S
N1936 C1932 1.427 . S
N1936 C1933 1.384 . S
N1937 C1929 1.427 . S
N1937 C1935 1.384 . S
H1938 C1944 0.930 . S
H1939 C1948 0.930 . S
H1940 C1953 0.929 . S
H1941 C1951 0.929 . S
H1942 C1946 0.929 . S
H1943 C1952 0.929 . S
C1944 H1938 0.930 . S
C1944 C1945 1.367 . S
C1944 C1952 1.378 . S
C1945 C1944 1.367 . S
C1945 C1953 1.433 . S
C1946 H1942 0.929 . S
C1946 C1948 1.378 . S
C1946 C1950 1.350 . S
C1947 C1950 1.463 1_556 S
C1947 C1952 1.350 . S
C1947 N1955 1.427 . S
C1948 H1939 0.930 . S
C1948 C1946 1.378 . S
C1948 C1949 1.367 . S
C1949 C1948 1.367 . S
C1949 C1951 1.433 . S
C1950 C1946 1.350 . S
C1950 C1947 1.463 1_554 S
C1950 N1954 1.427 . S
C1951 H1941 0.929 . S
C1951 C1949 1.433 . S
C1951 N1954 1.384 . S
C1952 H1943 0.929 . S
C1952 C1944 1.378 . S
C1952 C1947 1.350 . S
C1953 H1940 0.929 . S
C1953 C1945 1.433 . S
C1953 N1955 1.384 . S
N1954 C1950 1.427 . S
N1954 C1951 1.384 . S
N1955 C1947 1.427 . S
N1955 C1953 1.384 . S
H1956 C1962 0.930 . S
H1957 C1966 0.930 . S
H1958 C1971 0.929 . S
H1959 C1969 0.929 . S
H1960 C1964 0.929 . S
H1961 C1970 0.929 . S
C1962 H1956 0.930 . S
C1962 C1963 1.367 . S
C1962 C1970 1.378 . S
C1963 C1962 1.367 . S
C1963 C1971 1.433 . S
C1964 H1960 0.929 . S
C1964 C1966 1.378 . S
C1964 C1968 1.350 . S
C1965 C1968 1.463 1_554 S
C1965 C1970 1.350 . S
C1965 N1973 1.427 . S
C1966 H1957 0.930 . S
C1966 C1964 1.378 . S
C1966 C1967 1.367 . S
C1967 C1966 1.367 . S
C1967 C1969 1.433 . S
C1968 C1964 1.350 . S
C1968 C1965 1.463 1_556 S
C1968 N1972 1.427 . S
C1969 H1959 0.929 . S
C1969 C1967 1.433 . S
C1969 N1972 1.384 . S
C1970 H1961 0.929 . S
C1970 C1962 1.378 . S
C1970 C1965 1.350 . S
C1971 H1958 0.929 . S
C1971 C1963 1.433 . S
C1971 N1973 1.384 . S
N1972 C1968 1.427 . S
N1972 C1969 1.384 . S
N1973 C1965 1.427 . S
N1973 C1971 1.384 . S
H1974 C1980 0.930 . S
H1975 C1984 0.930 . S
H1976 C1989 0.929 . S
H1977 C1987 0.929 . S
H1978 C1982 0.929 . S
H1979 C1988 0.929 . S
C1980 H1974 0.930 . S
C1980 C1981 1.367 . S
C1980 C1988 1.378 . S
C1981 C1980 1.367 . S
C1981 C1989 1.433 . S
C1982 H1978 0.929 . S
C1982 C1984 1.378 . S
C1982 C1986 1.350 . S
C1983 C1986 1.463 1_554 S
C1983 C1988 1.350 . S
C1983 N1991 1.427 . S
C1984 H1975 0.930 . S
C1984 C1982 1.378 . S
C1984 C1985 1.367 . S
C1985 C1984 1.367 . S
C1985 C1987 1.433 . S
C1986 C1982 1.350 . S
C1986 C1983 1.463 1_556 S
C1986 N1990 1.427 . S
C1987 H1977 0.929 . S
C1987 C1985 1.433 . S
C1987 N1990 1.384 . S
C1988 H1979 0.929 . S
C1988 C1980 1.378 . S
C1988 C1983 1.350 . S
C1989 H1976 0.929 . S
C1989 C1981 1.433 . S
C1989 N1991 1.384 . S
N1990 C1986 1.427 . S
N1990 C1987 1.384 . S
N1991 C1983 1.427 . S
N1991 C1989 1.384 . S
H1992 C1998 0.930 . S
H1993 C2002 0.930 . S
H1994 C2007 0.929 . S
H1995 C2005 0.929 . S
H1996 C2000 0.929 . S
H1997 C2006 0.929 . S
C1998 H1992 0.930 . S
C1998 C1999 1.367 . S
C1998 C2006 1.378 . S
C1999 C1998 1.367 . S
C1999 C2007 1.433 . S
C2000 H1996 0.929 . S
C2000 C2002 1.378 . S
C2000 C2004 1.350 . S
C2001 C2004 1.463 1_556 S
C2001 C2006 1.350 . S
C2001 N2009 1.427 . S
C2002 H1993 0.930 . S
C2002 C2000 1.378 . S
C2002 C2003 1.367 . S
C2003 C2002 1.367 . S
C2003 C2005 1.433 . S
C2004 C2000 1.350 . S
C2004 C2001 1.463 1_554 S
C2004 N2008 1.427 . S
C2005 H1995 0.929 . S
C2005 C2003 1.433 . S
C2005 N2008 1.384 . S
C2006 H1997 0.929 . S
C2006 C1998 1.378 . S
C2006 C2001 1.350 . S
C2007 H1994 0.929 . S
C2007 C1999 1.433 . S
C2007 N2009 1.384 . S
N2008 C2004 1.427 . S
N2008 C2005 1.384 . S
N2009 C2001 1.427 . S
N2009 C2007 1.384 . S
H2010 C2016 0.930 . S
H2011 C2020 0.930 . S
H2012 C2025 0.929 . S
H2013 C2023 0.929 . S
H2014 C2018 0.929 . S
H2015 C2024 0.929 . S
C2016 H2010 0.930 . S
C2016 C2017 1.367 . S
C2016 C2024 1.378 . S
C2017 C2016 1.367 . S
C2017 C2025 1.433 . S
C2018 H2014 0.929 . S
C2018 C2020 1.378 . S
C2018 C2022 1.350 . S
C2019 C2022 1.463 1_554 S
C2019 C2024 1.350 . S
C2019 N2027 1.427 . S
C2020 H2011 0.930 . S
C2020 C2018 1.378 . S
C2020 C2021 1.367 . S
C2021 C2020 1.367 . S
C2021 C2023 1.433 . S
C2022 C2018 1.350 . S
C2022 C2019 1.463 1_556 S
C2022 N2026 1.427 . S
C2023 H2013 0.929 . S
C2023 C2021 1.433 . S
C2023 N2026 1.384 . S
C2024 H2015 0.929 . S
C2024 C2016 1.378 . S
C2024 C2019 1.350 . S
C2025 H2012 0.929 . S
C2025 C2017 1.433 . S
C2025 N2027 1.384 . S
N2026 C2022 1.427 . S
N2026 C2023 1.384 . S
N2027 C2019 1.427 . S
N2027 C2025 1.384 . S
H2028 C2034 0.930 . S
H2029 C2038 0.930 . S
H2030 C2043 0.929 . S
H2031 C2041 0.929 . S
H2032 C2036 0.929 . S
H2033 C2042 0.929 . S
C2034 H2028 0.930 . S
C2034 C2035 1.367 . S
C2034 C2042 1.378 . S
C2035 C2034 1.367 . S
C2035 C2043 1.433 . S
C2036 H2032 0.929 . S
C2036 C2038 1.378 . S
C2036 C2040 1.350 . S
C2037 C2040 1.463 1_556 S
C2037 C2042 1.350 . S
C2037 N2045 1.427 . S
C2038 H2029 0.930 . S
C2038 C2036 1.378 . S
C2038 C2039 1.367 . S
C2039 C2038 1.367 . S
C2039 C2041 1.433 . S
C2040 C2036 1.350 . S
C2040 C2037 1.463 1_554 S
C2040 N2044 1.427 . S
C2041 H2031 0.929 . S
C2041 C2039 1.433 . S
C2041 N2044 1.384 . S
C2042 H2033 0.929 . S
C2042 C2034 1.378 . S
C2042 C2037 1.350 . S
C2043 H2030 0.929 . S
C2043 C2035 1.433 . S
C2043 N2045 1.384 . S
N2044 C2040 1.427 . S
N2044 C2041 1.384 . S
N2045 C2037 1.427 . S
N2045 C2043 1.384 . S
H2046 C2052 0.930 . S
H2047 C2056 0.930 . S
H2048 C2061 0.929 . S
H2049 C2059 0.929 . S
H2050 C2054 0.929 . S
H2051 C2060 0.929 . S
C2052 H2046 0.930 . S
C2052 C2053 1.367 . S
C2052 C2060 1.378 . S
C2053 C2052 1.367 . S
C2053 C2061 1.433 . S
C2054 H2050 0.929 . S
C2054 C2056 1.378 . S
C2054 C2058 1.350 . S
C2055 C2058 1.463 1_554 S
C2055 C2060 1.350 . S
C2055 N2063 1.427 . S
C2056 H2047 0.930 . S
C2056 C2054 1.378 . S
C2056 C2057 1.367 . S
C2057 C2056 1.367 . S
C2057 C2059 1.433 . S
C2058 C2054 1.350 . S
C2058 C2055 1.463 1_556 S
C2058 N2062 1.427 . S
C2059 H2049 0.929 . S
C2059 C2057 1.433 . S
C2059 N2062 1.384 . S
C2060 H2051 0.929 . S
C2060 C2052 1.378 . S
C2060 C2055 1.350 . S
C2061 H2048 0.929 . S
C2061 C2053 1.433 . S
C2061 N2063 1.384 . S
N2062 C2058 1.427 . S
N2062 C2059 1.384 . S
N2063 C2055 1.427 . S
N2063 C2061 1.384 . S
H2064 C2070 0.930 . S
H2065 C2074 0.930 . S
H2066 C2079 0.929 . S
H2067 C2077 0.929 . S
H2068 C2072 0.929 . S
H2069 C2078 0.929 . S
C2070 H2064 0.930 . S
C2070 C2071 1.367 . S
C2070 C2078 1.378 . S
C2071 C2070 1.367 . S
C2071 C2079 1.433 . S
C2072 H2068 0.929 . S
C2072 C2074 1.378 . S
C2072 C2076 1.350 . S
C2073 C2076 1.463 1_455 S
C2073 C2078 1.350 . S
C2073 N2081 1.427 . S
C2074 H2065 0.930 . S
C2074 C2072 1.378 . S
C2074 C2075 1.367 . S
C2075 C2074 1.367 . S
C2075 C2077 1.433 . S
C2076 C2072 1.350 . S
C2076 C2073 1.463 1_655 S
C2076 N2080 1.427 . S
C2077 H2067 0.929 . S
C2077 C2075 1.433 . S
C2077 N2080 1.384 . S
C2078 H2069 0.929 . S
C2078 C2070 1.378 . S
C2078 C2073 1.350 . S
C2079 H2066 0.929 . S
C2079 C2071 1.433 . S
C2079 N2081 1.384 . S
N2080 C2076 1.427 . S
N2080 C2077 1.384 . S
N2081 C2073 1.427 . S
N2081 C2079 1.384 . S
H2082 C2088 0.930 . S
H2083 C2092 0.930 . S
H2084 C2097 0.929 . S
H2085 C2095 0.929 . S
H2086 C2090 0.929 . S
H2087 C2096 0.929 . S
C2088 H2082 0.930 . S
C2088 C2089 1.367 . S
C2088 C2096 1.378 . S
C2089 C2088 1.367 . S
C2089 C2097 1.433 . S
C2090 H2086 0.929 . S
C2090 C2092 1.378 . S
C2090 C2094 1.350 . S
C2091 C2094 1.463 1_565 S
C2091 C2096 1.350 . S
C2091 N2099 1.427 . S
C2092 H2083 0.930 . S
C2092 C2090 1.378 . S
C2092 C2093 1.367 . S
C2093 C2092 1.367 . S
C2093 C2095 1.433 . S
C2094 C2090 1.350 . S
C2094 C2091 1.463 1_545 S
C2094 N2098 1.427 . S
C2095 H2085 0.929 . S
C2095 C2093 1.433 . S
C2095 N2098 1.384 . S
C2096 H2087 0.929 . S
C2096 C2088 1.378 . S
C2096 C2091 1.350 . S
C2097 H2084 0.929 . S
C2097 C2089 1.433 . S
C2097 N2099 1.384 . S
N2098 C2094 1.427 . S
N2098 C2095 1.384 . S
N2099 C2091 1.427 . S
N2099 C2097 1.384 . S
H2100 C2106 0.930 . S
H2101 C2110 0.930 . S
H2102 C2115 0.929 . S
H2103 C2113 0.929 . S
H2104 C2108 0.929 . S
H2105 C2114 0.929 . S
C2106 H2100 0.930 . S
C2106 C2107 1.367 . S
C2106 C2114 1.378 . S
C2107 C2106 1.367 . S
C2107 C2115 1.433 . S
C2108 H2104 0.929 . S
C2108 C2110 1.378 . S
C2108 C2112 1.350 . S
C2109 C2112 1.463 1_455 S
C2109 C2114 1.350 . S
C2109 N2117 1.427 . S
C2110 H2101 0.930 . S
C2110 C2108 1.378 . S
C2110 C2111 1.367 . S
C2111 C2110 1.367 . S
C2111 C2113 1.433 . S
C2112 C2108 1.350 . S
C2112 C2109 1.463 1_655 S
C2112 N2116 1.427 . S
C2113 H2103 0.929 . S
C2113 C2111 1.433 . S
C2113 N2116 1.384 . S
C2114 H2105 0.929 . S
C2114 C2106 1.378 . S
C2114 C2109 1.350 . S
C2115 H2102 0.929 . S
C2115 C2107 1.433 . S
C2115 N2117 1.384 . S
N2116 C2112 1.427 . S
N2116 C2113 1.384 . S
N2117 C2109 1.427 . S
N2117 C2115 1.384 . S
H2118 C2124 0.930 . S
H2119 C2128 0.930 . S
H2120 C2133 0.929 . S
H2121 C2131 0.929 . S
H2122 C2126 0.929 . S
H2123 C2132 0.929 . S
C2124 H2118 0.930 . S
C2124 C2125 1.367 . S
C2124 C2132 1.378 . S
C2125 C2124 1.367 . S
C2125 C2133 1.433 . S
C2126 H2122 0.929 . S
C2126 C2128 1.378 . S
C2126 C2130 1.350 . S
C2127 C2130 1.463 1_565 S
C2127 C2132 1.350 . S
C2127 N2135 1.427 . S
C2128 H2119 0.930 . S
C2128 C2126 1.378 . S
C2128 C2129 1.367 . S
C2129 C2128 1.367 . S
C2129 C2131 1.433 . S
C2130 C2126 1.350 . S
C2130 C2127 1.463 1_545 S
C2130 N2134 1.427 . S
C2131 H2121 0.929 . S
C2131 C2129 1.433 . S
C2131 N2134 1.384 . S
C2132 H2123 0.929 . S
C2132 C2124 1.378 . S
C2132 C2127 1.350 . S
C2133 H2120 0.929 . S
C2133 C2125 1.433 . S
C2133 N2135 1.384 . S
N2134 C2130 1.427 . S
N2134 C2131 1.384 . S
N2135 C2127 1.427 . S
N2135 C2133 1.384 . S
H2136 C2142 0.930 . S
H2137 C2146 0.930 . S
H2138 C2151 0.929 . S
H2139 C2149 0.929 . S
H2140 C2144 0.929 . S
H2141 C2150 0.929 . S
C2142 H2136 0.930 . S
C2142 C2143 1.367 . S
C2142 C2150 1.378 . S
C2143 C2142 1.367 . S
C2143 C2151 1.433 . S
C2144 H2140 0.929 . S
C2144 C2146 1.378 . S
C2144 C2148 1.350 . S
C2145 C2148 1.463 1_655 S
C2145 C2150 1.350 . S
C2145 N2153 1.427 . S
C2146 H2137 0.930 . S
C2146 C2144 1.378 . S
C2146 C2147 1.367 . S
C2147 C2146 1.367 . S
C2147 C2149 1.433 . S
C2148 C2144 1.350 . S
C2148 C2145 1.463 1_455 S
C2148 N2152 1.427 . S
C2149 H2139 0.929 . S
C2149 C2147 1.433 . S
C2149 N2152 1.384 . S
C2150 H2141 0.929 . S
C2150 C2142 1.378 . S
C2150 C2145 1.350 . S
C2151 H2138 0.929 . S
C2151 C2143 1.433 . S
C2151 N2153 1.384 . S
N2152 C2148 1.427 . S
N2152 C2149 1.384 . S
N2153 C2145 1.427 . S
N2153 C2151 1.384 . S
H2154 C2160 0.930 . S
H2155 C2164 0.930 . S
H2156 C2169 0.929 . S
H2157 C2167 0.929 . S
H2158 C2162 0.929 . S
H2159 C2168 0.929 . S
C2160 H2154 0.930 . S
C2160 C2161 1.367 . S
C2160 C2168 1.378 . S
C2161 C2160 1.367 . S
C2161 C2169 1.433 . S
C2162 H2158 0.929 . S
C2162 C2164 1.378 . S
C2162 C2166 1.350 . S
C2163 C2166 1.463 1_545 S
C2163 C2168 1.350 . S
C2163 N2171 1.427 . S
C2164 H2155 0.930 . S
C2164 C2162 1.378 . S
C2164 C2165 1.367 . S
C2165 C2164 1.367 . S
C2165 C2167 1.433 . S
C2166 C2162 1.350 . S
C2166 C2163 1.463 1_565 S
C2166 N2170 1.427 . S
C2167 H2157 0.929 . S
C2167 C2165 1.433 . S
C2167 N2170 1.384 . S
C2168 H2159 0.929 . S
C2168 C2160 1.378 . S
C2168 C2163 1.350 . S
C2169 H2156 0.929 . S
C2169 C2161 1.433 . S
C2169 N2171 1.384 . S
N2170 C2166 1.427 . S
N2170 C2167 1.384 . S
N2171 C2163 1.427 . S
N2171 C2169 1.384 . S
H2172 C2178 0.930 . S
H2173 C2182 0.930 . S
H2174 C2187 0.929 . S
H2175 C2185 0.929 . S
H2176 C2180 0.929 . S
H2177 C2186 0.929 . S
C2178 H2172 0.930 . S
C2178 C2179 1.367 . S
C2178 C2186 1.378 . S
C2179 C2178 1.367 . S
C2179 C2187 1.433 . S
C2180 H2176 0.929 . S
C2180 C2182 1.378 . S
C2180 C2184 1.350 . S
C2181 C2184 1.463 1_455 S
C2181 C2186 1.350 . S
C2181 N2189 1.427 . S
C2182 H2173 0.930 . S
C2182 C2180 1.378 . S
C2182 C2183 1.367 . S
C2183 C2182 1.367 . S
C2183 C2185 1.433 . S
C2184 C2180 1.350 . S
C2184 C2181 1.463 1_655 S
C2184 N2188 1.427 . S
C2185 H2175 0.929 . S
C2185 C2183 1.433 . S
C2185 N2188 1.384 . S
C2186 H2177 0.929 . S
C2186 C2178 1.378 . S
C2186 C2181 1.350 . S
C2187 H2174 0.929 . S
C2187 C2179 1.433 . S
C2187 N2189 1.384 . S
N2188 C2184 1.427 . S
N2188 C2185 1.384 . S
N2189 C2181 1.427 . S
N2189 C2187 1.384 . S
H2190 C2196 0.930 . S
H2191 C2200 0.930 . S
H2192 C2205 0.929 . S
H2193 C2203 0.929 . S
H2194 C2198 0.929 . S
H2195 C2204 0.929 . S
C2196 H2190 0.930 . S
C2196 C2197 1.367 . S
C2196 C2204 1.378 . S
C2197 C2196 1.367 . S
C2197 C2205 1.433 . S
C2198 H2194 0.929 . S
C2198 C2200 1.378 . S
C2198 C2202 1.350 . S
C2199 C2202 1.463 1_545 S
C2199 C2204 1.350 . S
C2199 N2207 1.427 . S
C2200 H2191 0.930 . S
C2200 C2198 1.378 . S
C2200 C2201 1.367 . S
C2201 C2200 1.367 . S
C2201 C2203 1.433 . S
C2202 C2198 1.350 . S
C2202 C2199 1.463 1_565 S
C2202 N2206 1.427 . S
C2203 H2193 0.929 . S
C2203 C2201 1.433 . S
C2203 N2206 1.384 . S
C2204 H2195 0.929 . S
C2204 C2196 1.378 . S
C2204 C2199 1.350 . S
C2205 H2192 0.929 . S
C2205 C2197 1.433 . S
C2205 N2207 1.384 . S
N2206 C2202 1.427 . S
N2206 C2203 1.384 . S
N2207 C2199 1.427 . S
N2207 C2205 1.384 . S
H2208 C2214 0.930 . S
H2209 C2218 0.930 . S
H2210 C2223 0.929 . S
H2211 C2221 0.929 . S
H2212 C2216 0.929 . S
H2213 C2222 0.929 . S
C2214 H2208 0.930 . S
C2214 C2215 1.367 . S
C2214 C2222 1.378 . S
C2215 C2214 1.367 . S
C2215 C2223 1.433 . S
C2216 H2212 0.929 . S
C2216 C2218 1.378 . S
C2216 C2220 1.350 . S
C2217 C2220 1.463 1_545 S
C2217 C2222 1.350 . S
C2217 N2225 1.427 . S
C2218 H2209 0.930 . S
C2218 C2216 1.378 . S
C2218 C2219 1.367 . S
C2219 C2218 1.367 . S
C2219 C2221 1.433 . S
C2220 C2216 1.350 . S
C2220 C2217 1.463 1_565 S
C2220 N2224 1.427 . S
C2221 H2211 0.929 . S
C2221 C2219 1.433 . S
C2221 N2224 1.384 . S
C2222 H2213 0.929 . S
C2222 C2214 1.378 . S
C2222 C2217 1.350 . S
C2223 H2210 0.929 . S
C2223 C2215 1.433 . S
C2223 N2225 1.384 . S
N2224 C2220 1.427 . S
N2224 C2221 1.384 . S
N2225 C2217 1.427 . S
N2225 C2223 1.384 . S
H2226 C2232 0.930 . S
H2227 C2236 0.930 . S
H2228 C2241 0.929 . S
H2229 C2239 0.929 . S
H2230 C2234 0.929 . S
H2231 C2240 0.929 . S
C2232 H2226 0.930 . S
C2232 C2233 1.367 . S
C2232 C2240 1.378 . S
C2233 C2232 1.367 . S
C2233 C2241 1.433 . S
C2234 H2230 0.929 . S
C2234 C2236 1.378 . S
C2234 C2238 1.350 . S
C2235 C2238 1.463 1_545 S
C2235 C2240 1.350 . S
C2235 N2243 1.427 . S
C2236 H2227 0.930 . S
C2236 C2234 1.378 . S
C2236 C2237 1.367 . S
C2237 C2236 1.367 . S
C2237 C2239 1.433 . S
C2238 C2234 1.350 . S
C2238 C2235 1.463 1_565 S
C2238 N2242 1.427 . S
C2239 H2229 0.929 . S
C2239 C2237 1.433 . S
C2239 N2242 1.384 . S
C2240 H2231 0.929 . S
C2240 C2232 1.378 . S
C2240 C2235 1.350 . S
C2241 H2228 0.929 . S
C2241 C2233 1.433 . S
C2241 N2243 1.384 . S
N2242 C2238 1.427 . S
N2242 C2239 1.384 . S
N2243 C2235 1.427 . S
N2243 C2241 1.384 . S
H2244 C2250 0.930 . S
H2245 C2254 0.930 . S
H2246 C2259 0.929 . S
H2247 C2257 0.929 . S
H2248 C2252 0.929 . S
H2249 C2258 0.929 . S
C2250 H2244 0.930 . S
C2250 C2251 1.367 . S
C2250 C2258 1.378 . S
C2251 C2250 1.367 . S
C2251 C2259 1.433 . S
C2252 H2248 0.929 . S
C2252 C2254 1.378 . S
C2252 C2256 1.350 . S
C2253 C2256 1.463 1_655 S
C2253 C2258 1.350 . S
C2253 N2261 1.427 . S
C2254 H2245 0.930 . S
C2254 C2252 1.378 . S
C2254 C2255 1.367 . S
C2255 C2254 1.367 . S
C2255 C2257 1.433 . S
C2256 C2252 1.350 . S
C2256 C2253 1.463 1_455 S
C2256 N2260 1.427 . S
C2257 H2247 0.929 . S
C2257 C2255 1.433 . S
C2257 N2260 1.384 . S
C2258 H2249 0.929 . S
C2258 C2250 1.378 . S
C2258 C2253 1.350 . S
C2259 H2246 0.929 . S
C2259 C2251 1.433 . S
C2259 N2261 1.384 . S
N2260 C2256 1.427 . S
N2260 C2257 1.384 . S
N2261 C2253 1.427 . S
N2261 C2259 1.384 . S
H2262 C2268 0.930 . S
H2263 C2272 0.930 . S
H2264 C2277 0.929 . S
H2265 C2275 0.929 . S
H2266 C2270 0.929 . S
H2267 C2276 0.929 . S
C2268 H2262 0.930 . S
C2268 C2269 1.367 . S
C2268 C2276 1.378 . S
C2269 C2268 1.367 . S
C2269 C2277 1.433 . S
C2270 H2266 0.929 . S
C2270 C2272 1.378 . S
C2270 C2274 1.350 . S
C2271 C2274 1.463 1_545 S
C2271 C2276 1.350 . S
C2271 N2279 1.427 . S
C2272 H2263 0.930 . S
C2272 C2270 1.378 . S
C2272 C2273 1.367 . S
C2273 C2272 1.367 . S
C2273 C2275 1.433 . S
C2274 C2270 1.350 . S
C2274 C2271 1.463 1_565 S
C2274 N2278 1.427 . S
C2275 H2265 0.929 . S
C2275 C2273 1.433 . S
C2275 N2278 1.384 . S
C2276 H2267 0.929 . S
C2276 C2268 1.378 . S
C2276 C2271 1.350 . S
C2277 H2264 0.929 . S
C2277 C2269 1.433 . S
C2277 N2279 1.384 . S
N2278 C2274 1.427 . S
N2278 C2275 1.384 . S
N2279 C2271 1.427 . S
N2279 C2277 1.384 . S
H2280 C2286 0.930 . S
H2281 C2290 0.930 . S
H2282 C2295 0.929 . S
H2283 C2293 0.929 . S
H2284 C2288 0.929 . S
H2285 C2294 0.929 . S
C2286 H2280 0.930 . S
C2286 C2287 1.367 . S
C2286 C2294 1.378 . S
C2287 C2286 1.367 . S
C2287 C2295 1.433 . S
C2288 H2284 0.929 . S
C2288 C2290 1.378 . S
C2288 C2292 1.350 . S
C2289 C2292 1.463 1_455 S
C2289 C2294 1.350 . S
C2289 N2297 1.427 . S
C2290 H2281 0.930 . S
C2290 C2288 1.378 . S
C2290 C2291 1.367 . S
C2291 C2290 1.367 . S
C2291 C2293 1.433 . S
C2292 C2288 1.350 . S
C2292 C2289 1.463 1_655 S
C2292 N2296 1.427 . S
C2293 H2283 0.929 . S
C2293 C2291 1.433 . S
C2293 N2296 1.384 . S
C2294 H2285 0.929 . S
C2294 C2286 1.378 . S
C2294 C2289 1.350 . S
C2295 H2282 0.929 . S
C2295 C2287 1.433 . S
C2295 N2297 1.384 . S
N2296 C2292 1.427 . S
N2296 C2293 1.384 . S
N2297 C2289 1.427 . S
N2297 C2295 1.384 . S
H2298 C2304 0.930 . S
H2299 C2308 0.930 . S
H2300 C2313 0.929 . S
H2301 C2311 0.929 . S
H2302 C2306 0.929 . S
H2303 C2312 0.929 . S
C2304 H2298 0.930 . S
C2304 C2305 1.367 . S
C2304 C2312 1.378 . S
C2305 C2304 1.367 . S
C2305 C2313 1.433 . S
C2306 H2302 0.929 . S
C2306 C2308 1.378 . S
C2306 C2310 1.350 . S
C2307 C2310 1.463 1_545 S
C2307 C2312 1.350 . S
C2307 N2315 1.427 . S
C2308 H2299 0.930 . S
C2308 C2306 1.378 . S
C2308 C2309 1.367 . S
C2309 C2308 1.367 . S
C2309 C2311 1.433 . S
C2310 C2306 1.350 . S
C2310 C2307 1.463 1_565 S
C2310 N2314 1.427 . S
C2311 H2301 0.929 . S
C2311 C2309 1.433 . S
C2311 N2314 1.384 . S
C2312 H2303 0.929 . S
C2312 C2304 1.378 . S
C2312 C2307 1.350 . S
C2313 H2300 0.929 . S
C2313 C2305 1.433 . S
C2313 N2315 1.384 . S
N2314 C2310 1.427 . S
N2314 C2311 1.384 . S
N2315 C2307 1.427 . S
N2315 C2313 1.384 . S
H2316 C2322 0.930 . S
H2317 C2326 0.930 . S
H2318 C2331 0.929 . S
H2319 C2329 0.929 . S
H2320 C2324 0.929 . S
H2321 C2330 0.929 . S
C2322 H2316 0.930 . S
C2322 C2323 1.367 . S
C2322 C2330 1.378 . S
C2323 C2322 1.367 . S
C2323 C2331 1.433 . S
C2324 H2320 0.929 . S
C2324 C2326 1.378 . S
C2324 C2328 1.350 . S
C2325 C2328 1.463 1_655 S
C2325 C2330 1.350 . S
C2325 N2333 1.427 . S
C2326 H2317 0.930 . S
C2326 C2324 1.378 . S
C2326 C2327 1.367 . S
C2327 C2326 1.367 . S
C2327 C2329 1.433 . S
C2328 C2324 1.350 . S
C2328 C2325 1.463 1_455 S
C2328 N2332 1.427 . S
C2329 H2319 0.929 . S
C2329 C2327 1.433 . S
C2329 N2332 1.384 . S
C2330 H2321 0.929 . S
C2330 C2322 1.378 . S
C2330 C2325 1.350 . S
C2331 H2318 0.929 . S
C2331 C2323 1.433 . S
C2331 N2333 1.384 . S
N2332 C2328 1.427 . S
N2332 C2329 1.384 . S
N2333 C2325 1.427 . S
N2333 C2331 1.384 . S
H2334 C2340 0.930 . S
H2335 C2344 0.930 . S
H2336 C2349 0.929 . S
H2337 C2347 0.929 . S
H2338 C2342 0.929 . S
H2339 C2348 0.929 . S
C2340 H2334 0.930 . S
C2340 C2341 1.367 . S
C2340 C2348 1.378 . S
C2341 C2340 1.367 . S
C2341 C2349 1.433 . S
C2342 H2338 0.929 . S
C2342 C2344 1.378 . S
C2342 C2346 1.350 . S
C2343 C2346 1.463 1_455 S
C2343 C2348 1.350 . S
C2343 N2351 1.427 . S
C2344 H2335 0.930 . S
C2344 C2342 1.378 . S
C2344 C2345 1.367 . S
C2345 C2344 1.367 . S
C2345 C2347 1.433 . S
C2346 C2342 1.350 . S
C2346 C2343 1.463 1_655 S
C2346 N2350 1.427 . S
C2347 H2337 0.929 . S
C2347 C2345 1.433 . S
C2347 N2350 1.384 . S
C2348 H2339 0.929 . S
C2348 C2340 1.378 . S
C2348 C2343 1.350 . S
C2349 H2336 0.929 . S
C2349 C2341 1.433 . S
C2349 N2351 1.384 . S
N2350 C2346 1.427 . S
N2350 C2347 1.384 . S
N2351 C2343 1.427 . S
N2351 C2349 1.384 . S
C631 C517 1.363 . S
C635 C10 1.361 . S
C649 C13 1.024 . S
C653 C478 1.034 . S
C667 C36 1.209 . S
C671 C481 1.201 . S
C685 C494 1.117 . S
C689 C39 1.121 . S
C703 C429 1.118 . S
C707 C52 1.119 . S
C721 C75 1.251 . S
C725 C452 1.240 . S
C739 C78 1.049 . S
C743 C465 1.054 . S
C757 C101 1.349 . S
C761 C426 1.345 . S
C775 C104 1.308 . S
C779 C413 1.320 . S
C793 C364 1.014 . S
C797 C117 1.014 . S
C811 C387 1.246 . S
C815 C140 1.247 . S
C829 C153 1.153 . S
C833 C390 1.139 . S
C847 C166 1.072 . S
C851 C325 1.060 . S
C865 C179 1.250 . S
C869 C348 1.258 . S
C883 C351 1.036 . S
C887 C182 1.032 . S
C901 C322 1.312 . S
C905 C195 1.293 . S
C919 C208 1.253 . S
C923 C572 1.247 . S
C937 C621 1.115 . S
C941 C231 1.107 . S
C955 C585 1.152 . S
C959 C234 1.160 . S
C973 C608 1.075 . S
C977 C257 1.073 . S
C991 C520 1.267 . S
C995 C260 1.267 . S
C1009 C546 1.226 . S
C1013 C273 1.230 . S
C1027 C296 1.132 . S
C1031 C569 1.126 . S
C1045 C543 1.069 . S
C1049 C309 1.068 . S
C1063 C416 1.318 . S
C1067 C270 1.332 . S
C1081 C221 1.133 . S
C1085 C439 1.147 . S
C1099 C442 1.192 . S
C1103 C244 1.205 . S
C1117 C455 0.993 . S
C1121 C247 1.006 . S
C1135 C299 1.005 . S
C1139 C468 0.990 . S
C1153 C491 1.250 . S
C1157 C283 1.250 . S
C1171 C286 1.148 . S
C1175 C504 1.163 . S
C1189 C218 1.309 . S
C1193 C507 1.294 . S
C1207 C530 1.363 . S
C1211 C205 1.363 . S
C1225 C156 1.079 . S
C1229 C611 1.093 . S
C1243 C595 1.202 . S
C1247 C169 1.193 . S
C1261 C192 1.130 . S
C1265 C598 1.116 . S
C1279 C127 1.054 . S
C1283 C533 1.045 . S
C1297 C130 1.195 . S
C1301 C556 1.209 . S
C1315 C143 1.106 . S
C1319 C559 1.103 . S
C1333 C582 1.355 . S
C1337 C114 1.352 . S
C1351 C312 1.251 . S
C1355 C91 1.258 . S
C1369 C374 1.071 . S
C1373 C23 1.066 . S
C1387 C377 1.210 . S
C1391 C26 1.206 . S
C1405 C400 1.126 . S
C1409 C49 1.132 . S
C1423 C403 1.268 . S
C1427 C0 1.270 . S
C1441 C65 1.267 . S
C1445 C338 1.278 . S
C1459 C361 1.083 . S
C1463 C88 1.091 . S
C1477 C335 1.120 . S
C1481 C62 1.127 . S
C1495 C8 1.342 . S
C1499 C346 1.335 . S
C1513 C356 1.151 . S
C1517 C18 1.135 . S
C1531 C34 1.332 . S
C1535 C320 1.333 . S
C1549 C44 1.181 . S
C1553 C330 1.178 . S
C1567 C57 1.189 . S
C1571 C395 1.186 . S
C1585 C411 1.349 . S
C1589 C73 1.333 . S
C1603 C83 1.151 . S
C1607 C369 1.172 . S
C1621 C385 1.327 . S
C1625 C99 1.329 . S
C1639 C109 1.253 . S
C1643 C476 1.266 . S
C1657 C486 1.158 . S
C1661 C122 1.177 . S
C1675 C138 1.241 . S
C1679 C499 1.247 . S
C1693 C151 1.327 . S
C1697 C515 1.313 . S
C1711 C164 1.282 . S
C1715 C424 1.290 . S
C1729 C177 1.229 . S
C1733 C434 1.243 . S
C1747 C450 1.205 . S
C1751 C187 1.206 . S
C1765 C200 1.259 . S
C1769 C463 1.249 . S
C1783 C567 1.241 . S
C1787 C213 1.243 . S
C1801 C229 1.236 . S
C1805 C590 1.224 . S
C1819 C239 1.217 . S
C1823 C606 1.219 . S
C1837 C525 1.284 . S
C1841 C255 1.266 . S
C1855 C619 1.235 . S
C1859 C265 1.233 . S
C1873 C278 1.282 . S
C1877 C541 1.249 . S
C1891 C551 1.237 . S
C1895 C294 1.230 . S
C1909 C307 1.246 . S
C1913 C577 1.261 . S
C1927 C554 1.323 . S
C1931 C268 1.338 . S
C1945 C226 1.176 . S
C1949 C564 1.173 . S
C1963 C580 1.318 . S
C1967 C242 1.310 . S
C1981 C538 1.139 . S
C1985 C252 1.154 . S
C1999 C603 1.142 . S
C2003 C304 1.168 . S
C2017 C281 1.336 . S
C2021 C528 1.320 . S
C2035 C616 1.197 . S
C2039 C291 1.185 . S
C2053 C216 1.316 . S
C2057 C593 1.322 . S
C2071 C437 1.327 . S
C2075 C203 1.335 . S
C2089 C161 1.219 . S
C2093 C447 1.201 . S
C2107 C174 1.182 . S
C2111 C460 1.171 . S
C2125 C421 1.282 . S
C2129 C190 1.308 . S
C2143 C125 1.260 . S
C2147 C512 1.253 . S
C2161 C473 1.154 . S
C2165 C135 1.168 . S
C2179 C148 1.254 . S
C2183 C489 1.240 . S
C2197 C112 1.325 . S
C2201 C502 1.326 . S
C2215 C359 1.262 . S
C2219 C96 1.271 . S
C2233 C21 1.261 . S
C2237 C382 1.268 . S
C2251 C31 1.230 . S
C2255 C398 1.240 . S
C2269 C408 1.255 . S
C2273 C47 1.250 . S
C2287 C5 1.272 . S
C2291 C372 1.255 . S
C2305 C70 1.275 . S
C2309 C333 1.282 . S
C2323 C86 1.250 . S
C2327 C343 1.282 . S
C2341 C60 1.242 . S
C2345 C317 1.234 . S
