# Generated by pormake.
# Topology snp, (6)-cn, num edge types: 1
# Building blocks:
#     Node 0, Type 0, BuildingBlock: BETDIP_clean_sbu_0, # of connection points: 6
#     Node 1, Type 0, BuildingBlock: BETDIP_clean_sbu_0, # of connection points: 6
#     Node 2, Type 0, BuildingBlock: BETDIP_clean_sbu_0, # of connection points: 6
#     Node 3, Type 0, BuildingBlock: BETDIP_clean_sbu_0, # of connection points: 6
#     Edge 4, Type (0, 0), BuildingBlock: MIFKUJ_clean_linker_0, # of connection points: 2
#     Edge 5, Type (0, 0), BuildingBlock: MIFKUJ_clean_linker_0, # of connection points: 2
#     Edge 6, Type (0, 0), BuildingBlock: MIFKUJ_clean_linker_0, # of connection points: 2
#     Edge 7, Type (0, 0), BuildingBlock: MIFKUJ_clean_linker_0, # of connection points: 2
#     Edge 8, Type (0, 0), BuildingBlock: MIFKUJ_clean_linker_0, # of connection points: 2
#     Edge 9, Type (0, 0), BuildingBlock: MIFKUJ_clean_linker_0, # of connection points: 2
#     Edge 10, Type (0, 0), BuildingBlock: MIFKUJ_clean_linker_0, # of connection points: 2
#     Edge 11, Type (0, 0), BuildingBlock: MIFKUJ_clean_linker_0, # of connection points: 2
#     Edge 12, Type (0, 0), BuildingBlock: MIFKUJ_clean_linker_0, # of connection points: 2
#     Edge 13, Type (0, 0), BuildingBlock: MIFKUJ_clean_linker_0, # of connection points: 2
#     Edge 14, Type (0, 0), BuildingBlock: MIFKUJ_clean_linker_0, # of connection points: 2
#     Edge 15, Type (0, 0), BuildingBlock: MIFKUJ_clean_linker_0, # of connection points: 2
# Relax obj value: 0.541
# Max RMSD: 0.180
# Mean RMSD: 0.171
data_MOF--net-snp--node1-BETDIP_clean_sbu_0--edge1-MIFKUJ_clean_linker_0
_symmetry_space_group_name_H-M    P1
_symmetry_Int_Tables_number       1
_symmetry_cell_setting            triclinic
loop_
_symmetry_equiv_pos_as_xyz
'x, y, z'
_cell_length_a     32.414342
_cell_length_b     32.577212
_cell_length_c     36.268064
_cell_angle_alpha  91.756664
_cell_angle_beta   90.257238
_cell_angle_gamma 104.46666
loop_
_atom_site_label
_atom_site_type_symbol
_atom_site_fract_x
_atom_site_fract_y
_atom_site_fract_z
_atom_type_partial_charge
Tb0 Tb 0.22953 0.0304 0.17155 0.0
Tb1 Tb 0.23604 0.1164 0.14401 0.0
C2 C 0.25136 0.96876 0.19865 0.0
C3 C 0.28194 0.96243 0.22637 0.0
C4 C 0.30393 0.996 0.24966 0.0
C5 C 0.33212 0.98886 0.27659 0.0
C6 C 0.33891 0.94815 0.28027 0.0
C7 C 0.31817 0.91517 0.2557 0.0
C8 C 0.28985 0.9223 0.22899 0.0
C9 C 0.15508 0.04018 0.1513 0.0
C10 C 0.215 0.10429 0.22819 0.0
C11 C 0.23355 0.18432 1.11376 0.0
C12 C 0.26459 0.22022 1.09856 0.0
C13 C 0.25002 0.25255 1.08259 0.0
C14 C 0.27819 0.28449 1.06404 0.0
C15 C 0.32157 0.28468 1.06116 0.0
C16 C 0.33643 0.25321 1.07891 0.0
C17 C 0.30808 0.22112 1.09744 0.0
C18 C 0.311 0.10216 0.1642 0.0
C19 C 0.21479 0.03743 1.08485 0.0
O20 O 0.26836 0.98801 0.1693 0.0
O21 O 0.21919 0.98277 0.21065 0.0
O22 O 0.18577 0.06837 0.16504 0.0
O23 O 0.1641 0.00361 0.15298 0.0
O24 O 0.23006 0.06961 0.22436 0.0
O25 O 0.20809 0.12391 0.19812 0.0
O26 O 0.22926 0.1481 1.09582 0.0
O27 O 0.23518 0.18048 0.14941 0.0
O28 O 0.28027 0.07681 0.14774 0.0
O29 O 0.30103 0.13794 0.16718 0.0
O30 O 0.21793 0.07824 1.09229 0.0
O31 O 0.22138 0.01228 1.11147 0.0
H32 H 0.29869 0.02741 0.24745 0.0
H33 H 0.34782 0.01483 0.29512 0.0
H34 H 0.32222 0.88336 0.25828 0.0
H35 H 0.27343 0.89622 0.21085 0.0
H36 H 0.21649 0.25214 1.08314 0.0
H37 H 0.2653 0.30755 1.05011 0.0
H38 H 0.36963 0.25258 1.07742 0.0
H39 H 0.31978 0.19626 1.10975 0.0
Tb40 Tb 0.98887 0.26893 0.62733 0.0
Tb41 Tb 0.07393 0.3119 0.65591 0.0
C42 C 0.90961 0.25671 0.61857 0.0
C43 C 0.87744 0.27076 0.59736 0.0
C44 C 0.83438 0.25148 0.60318 0.0
C45 C 0.80267 0.26659 0.58613 0.0
C46 C 0.81355 0.30131 0.56289 0.0
C47 C 0.85696 0.32065 0.55721 0.0
C48 C 0.8887 0.30555 0.57443 0.0
C49 C 0.03729 0.21722 0.64081 0.0
C50 C 0.0601 0.27603 0.5702 0.0
C51 C 0.15262 0.34275 0.66674 0.0
C52 C 0.18312 0.36868 0.69335 0.0
C53 C 0.22419 0.38819 0.68141 0.0
C54 C 0.2563 0.40659 0.707 0.0
C55 C 0.24775 0.40561 0.74495 0.0
C56 C 0.20572 0.38848 0.75658 0.0
C57 C 0.17361 0.37016 0.73094 0.0
C58 C 0.0226 0.36272 0.64792 0.0
C59 C 0.00588 0.27632 0.71695 0.0
O60 O 0.93273 0.28551 0.64111 0.0
O61 O 0.9321 0.23399 0.60133 0.0
O62 O 0.03524 0.25019 0.65826 0.0
O63 O 0.00737 0.20879 0.61572 0.0
O64 O 0.01909 0.2751 0.57317 0.0
O65 O 0.08561 0.28629 0.59979 0.0
O66 O 0.13169 0.30561 0.67766 0.0
O67 O 0.12849 0.36172 0.64825 0.0
O68 O 0.02667 0.33371 0.62492 0.0
O69 O 0.0474 0.36302 0.67599 0.0
O70 O 0.04701 0.29441 0.7113 0.0
O71 O 0.97931 0.26478 0.68816 0.0
H72 H 0.82525 0.22508 0.62142 0.0
H73 H 0.76963 0.25124 0.59134 0.0
H74 H 0.86645 0.34694 0.53894 0.0
H75 H 0.9219 0.32115 0.57011 0.0
H76 H 0.23197 0.38732 0.65241 0.0
H77 H 0.28824 0.41984 0.69723 0.0
H78 H 0.19819 0.38662 0.78564 0.0
H79 H 0.14202 0.35516 0.74062 0.0
Tb80 Tb 0.83693 0.13321 0.1658 0.0
Tb81 Tb 0.8202 0.04546 1.13477 0.0
C82 C 0.82397 0.20008 0.19426 0.0
C83 C 0.79275 0.21339 0.21821 0.0
C84 C 0.76568 0.23616 0.20283 0.0
C85 C 0.73681 0.25083 0.22478 0.0
C86 C 0.73464 0.24328 0.26266 0.0
C87 C 0.76126 0.21979 0.27792 0.0
C88 C 0.79 0.20489 0.25589 0.0
C89 C 0.90555 0.11556 1.13683 0.0
C90 C 0.85027 0.0603 0.21832 0.0
C91 C 0.81553 0.97501 1.10228 0.0
C92 C 0.78293 0.93945 1.08513 0.0
C93 C 0.77064 0.94065 1.0481 0.0
C94 C 0.74486 0.90471 1.03034 0.0
C95 C 0.73087 0.86662 1.04911 0.0
C96 C 0.74112 0.86618 1.08676 0.0
C97 C 0.76706 0.90219 1.10455 0.0
C98 C 0.75047 0.06614 0.1612 0.0
C99 C 0.83695 0.12279 1.07852 0.0
O100 O 0.8087 0.18366 0.16227 0.0
O101 O 0.85033 0.18003 0.20862 0.0
O102 O 0.87556 0.09078 0.15307 0.0
O103 O 0.90088 0.15366 0.14267 0.0
O104 O 0.83725 0.09602 0.21686 0.0
O105 O 0.85306 0.03887 0.18702 0.0
O106 O 0.82415 0.01114 1.08561 0.0
O107 O 0.81435 0.98016 1.13807 0.0
O108 O 0.78072 0.08932 0.144 0.0
O109 O 0.75766 0.02901 0.16121 0.0
O110 O 0.83017 0.08128 1.08297 0.0
O111 O 0.83878 0.14933 1.10725 0.0
H112 H 0.76726 0.24316 0.17378 0.0
H113 H 0.71671 0.26868 0.21222 0.0
H114 H 0.76113 0.21429 0.30722 0.0
H115 H 0.81053 0.18753 0.26852 0.0
H116 H 0.78256 0.9687 1.03222 0.0
H117 H 0.73841 0.90612 1.00114 0.0
H118 H 0.73066 0.83747 1.10206 0.0
H119 H 0.77612 0.90024 1.1331 0.0
Tb120 Tb 0.98358 0.87593 0.64678 0.0
Tb121 Tb 0.06804 0.87954 0.61735 0.0
C122 C 0.90504 0.84896 0.65745 0.0
C123 C 0.87684 0.8226 0.68362 0.0
C124 C 0.83296 0.81049 0.67619 0.0
C125 C 0.80532 0.78578 0.70096 0.0
C126 C 0.82126 0.77276 0.7335 0.0
C127 C 0.86554 0.78416 0.74034 0.0
C128 C 0.89315 0.80887 0.71552 0.0
C129 C 0.0359 0.95253 0.64676 0.0
C130 C 0.05473 0.88731 0.70646 0.0
C131 C 0.1467 0.89287 0.60494 0.0
C132 C 0.17894 0.86861 0.60052 0.0
C133 C 0.22191 0.88967 0.60569 0.0
C134 C 0.25371 0.86992 0.59498 0.0
C135 C 0.24291 0.82887 0.57858 0.0
C136 C 0.19975 0.80644 0.57677 0.0
C137 C 0.16792 0.82615 0.58773 0.0
C138 C 0.01839 0.80075 0.61858 0.0
C139 C 0.00026 0.89883 0.56036 0.0
O140 O 0.92722 0.82904 0.63667 0.0
O141 O 0.92767 0.88585 0.67014 0.0
O142 O 0.03125 0.92322 0.62309 0.0
O143 O 0.00648 0.94104 0.67129 0.0
O144 O 0.0133 0.87119 0.7005 0.0
O145 O 0.08079 0.89596 0.67775 0.0
O146 O 0.11738 0.88699 0.57915 0.0
O147 O 0.13105 0.89458 0.63782 0.0
O148 O 0.0214 0.82964 0.64328 0.0
O149 O 0.04504 0.81574 0.59319 0.0
O150 O 0.04162 0.90503 0.56839 0.0
O151 O 0.97209 0.88424 0.58653 0.0
H152 H 0.82002 0.82054 0.65141 0.0
H153 H 0.77144 0.77732 0.6949 0.0
H154 H 0.87871 0.77531 0.76552 0.0
H155 H 0.92707 0.8178 0.72145 0.0
H156 H 0.23089 0.92237 0.61582 0.0
H157 H 0.28653 0.88832 0.59646 0.0
H158 H 0.19053 0.77477 0.56437 0.0
H159 H 0.13479 0.80919 0.58405 0.0
H160 H 0.95326 0.16907 1.08877 0.0
H161 H 0.97641 0.15212 1.02853 0.0
H162 H 0.92788 0.0182 1.04865 0.0
H163 H 0.90341 0.03634 1.10844 0.0
H164 H 0.95335 0.00645 0.98835 0.0
H165 H -0.00706 0.10235 0.92191 0.0
H166 H 0.00139 0.16407 0.88239 0.0
H167 H 0.06241 0.24674 0.97177 0.0
H168 H 0.05543 0.18526 1.01153 0.0
H169 H 0.15543 0.11231 1.11528 0.0
H170 H 0.11836 0.11588 1.05871 0.0
H171 H 0.03732 0.9907 1.07794 0.0
H172 H 0.08202 0.98452 1.12928 0.0
H173 H 0.08456 0.1179 1.00932 0.0
H174 H 0.95171 0.94899 1.02268 0.0
H175 H 0.95589 0.87498 1.0244 0.0
H176 H 0.0907 0.91333 1.00763 0.0
H177 H 0.08705 0.98751 1.00242 0.0
C178 C 0.94768 0.13599 1.08017 0.0
C179 C 0.92612 0.10402 1.10313 0.0
C180 C 0.961 0.12606 1.04524 0.0
C181 C 0.95556 0.08357 1.03281 0.0
C182 C 0.93348 0.0515 1.05628 0.0
C183 C 0.91962 0.06166 1.09107 0.0
C184 C 0.97948 0.07304 0.99954 0.0
C185 C 0.98172 0.03065 0.99618 0.0
C186 C 0.01884 0.10192 0.99303 0.0
C187 C 0.02241 0.13934 0.97 0.0
C188 C 0.00751 0.13378 0.93332 0.0
C189 C 0.01235 0.16867 0.91078 0.0
C190 C 0.03171 0.2094 0.92475 0.0
C191 C 0.04709 0.2152 0.96107 0.0
C192 C 0.04305 0.18029 0.98351 0.0
C193 C 0.13092 0.08497 1.10596 0.0
C194 C 0.12363 0.04723 1.12479 0.0
C195 C 0.1091 0.08661 1.07309 0.0
C196 C 0.07676 0.05142 1.05981 0.0
C197 C 0.06514 0.01635 1.08297 0.0
C198 C 0.08954 0.01346 1.11397 0.0
C199 C 0.05151 0.05396 1.02536 0.0
C200 C 0.05498 0.09364 1.00927 0.0
C201 C 0.01754 0.01982 1.01152 0.0
C202 C 0.01913 0.9744 1.01173 0.0
C203 C 0.98217 0.9419 1.01797 0.0
C204 C 0.9844 0.89968 1.01951 0.0
C205 C 0.02347 0.88938 1.01552 0.0
C206 C 0.06034 0.92126 1.00973 0.0
C207 C 0.05815 0.96338 1.00715 0.0
H208 H 0.02523 0.85675 1.01724 0.0
H209 H 0.0352 0.23638 0.90731 0.0
H210 H 0.1049 0.96146 0.60377 0.0
H211 H 0.17547 0.00606 0.61415 0.0
H212 H 0.13007 0.06061 0.71179 0.0
H213 H 0.06138 0.01061 0.70397 0.0
H214 H 0.21343 0.07193 0.6045 0.0
H215 H 0.17688 0.12985 0.7595 0.0
H216 H 0.19092 0.10664 0.82053 0.0
H217 H 0.26136 0.02343 0.77268 0.0
H218 H 0.24881 0.0469 0.71077 0.0
H219 H 0.06143 0.1619 0.59206 0.0
H220 H 0.12537 0.1364 0.5956 0.0
H221 H 0.16516 0.21545 0.69423 0.0
H222 H 0.0969 0.23259 0.69455 0.0
H223 H 0.19667 0.16605 0.70887 0.0
H224 H 0.23162 0.21515 0.6008 0.0
H225 H 0.23844 0.2436 0.53846 0.0
H226 H 0.1911 0.11817 0.4912 0.0
H227 H 0.18238 0.08886 0.55296 0.0
C228 C 0.11053 0.98206 0.62819 0.0
C229 C 0.07758 0.98273 0.65303 0.0
C230 C 0.15124 0.00798 0.63409 0.0
C231 C 0.15948 0.03806 0.66347 0.0
C232 C 0.12634 0.03777 0.68904 0.0
C233 C 0.08609 0.0099 0.68415 0.0
C234 C 0.19747 0.0753 0.66212 0.0
C235 C 0.20783 0.09216 0.62708 0.0
C236 C 0.20493 0.10472 0.69218 0.0
C237 C 0.21249 0.09095 0.72996 0.0
C238 C 0.19623 0.10738 0.76158 0.0
C239 C 0.20373 0.09384 0.79659 0.0
C240 C 0.22736 0.06379 0.80062 0.0
C241 C 0.24323 0.04687 0.76955 0.0
C242 C 0.23587 0.06028 0.73443 0.0
C243 C 0.08373 0.17305 0.61466 0.0
C244 C 0.07482 0.19987 0.64261 0.0
C245 C 0.1215 0.15983 0.61613 0.0
C246 C 0.15222 0.17498 0.64454 0.0
C247 C 0.14305 0.2028 0.67187 0.0
C248 C 0.10408 0.21338 0.67173 0.0
C249 C 0.1886 0.15502 0.6497 0.0
C250 C 0.19852 0.14502 0.68577 0.0
C251 C 0.20227 0.13261 0.62003 0.0
C252 C 0.20712 0.14957 0.58206 0.0
C253 C 0.22255 0.19346 0.57722 0.0
C254 C 0.22665 0.20982 0.54185 0.0
C255 C 0.21553 0.18267 0.51089 0.0
C256 C 0.20017 0.13912 0.51523 0.0
C257 C 0.1957 0.12257 0.55052 0.0
H258 H 0.21857 0.19541 0.48353 0.0
H259 H 0.23326 0.05347 0.82777 0.0
H260 H 0.67643 0.00605 0.17131 0.0
H261 H 0.60359 0.01436 0.17266 0.0
H262 H 0.6508 0.14903 0.16023 0.0
H263 H 0.7243 0.14071 0.15796 0.0
H264 H 0.58394 0.12374 0.21605 0.0
H265 H 0.60944 0.09466 1.08812 0.0
H266 H 0.63179 0.05401 1.03683 0.0
H267 H 0.5353 0.94325 1.06472 0.0
H268 H 0.51279 0.98309 1.11656 0.0
H269 H 0.38296 0.16499 0.17884 0.0
H270 H 0.45701 0.16075 0.17912 0.0
H271 H 0.41609 0.02611 0.15497 0.0
H272 H 0.34195 0.03101 0.15221 0.0
H273 H 0.48168 0.05273 1.11775 0.0
H274 H 0.45578 0.07626 0.24493 0.0
H275 H 0.43373 0.1115 0.29985 0.0
H276 H 0.52971 0.22534 0.27885 0.0
H277 H 0.55192 0.19098 0.22345 0.0
C278 C 0.67153 0.03756 0.16895 0.0
C279 C 0.70646 0.0727 0.1643 0.0
C280 C 0.62966 0.04223 0.16967 0.0
C281 C 0.62134 0.08225 0.16626 0.0
C282 C 0.65621 0.11775 0.16282 0.0
C283 C 0.69828 0.11297 0.16147 0.0
C284 C 0.57617 0.08639 0.16548 0.0
C285 C 0.56171 0.10884 0.19425 0.0
C286 C 0.54653 0.06562 1.13785 0.0
C287 C 0.55968 0.04177 1.10642 0.0
C288 C 0.5932 0.06155 1.08349 0.0
C289 C 0.60587 0.03867 1.05429 0.0
C290 C 0.58505 0.99604 1.04757 0.0
C291 C 0.55143 0.97626 1.06998 0.0
C292 C 0.53867 -0.00101 1.09925 0.0
C293 C 0.38961 0.13436 0.17371 0.0
C294 C 0.35609 0.09821 0.16591 0.0
C295 C 0.43227 0.13187 0.1742 0.0
C296 C 0.44292 0.0929 0.16794 0.0
C297 C 0.40934 0.05669 0.1601 0.0
C298 C 0.36662 0.05937 0.15886 0.0
C299 C 0.48885 0.09019 0.16852 0.0
C300 C 0.50362 0.06787 1.13966 0.0
C301 C 0.51856 0.11036 0.19656 0.0
C302 C 0.5052 0.13118 0.22979 0.0
C303 C 0.47195 0.10892 0.25184 0.0
C304 C 0.45945 0.12873 0.28308 0.0
C305 C 0.48021 0.17068 0.29277 0.0
C306 C 0.51359 0.19288 0.27127 0.0
C307 C 0.52616 0.17325 0.23995 0.0
H308 H 0.47051 0.18595 0.31698 0.0
H309 H 0.59491 0.97838 1.02496 0.0
H310 H 0.97605 0.40352 0.69035 0.0
H311 H 0.96825 0.47609 0.68437 0.0
H312 H 0.03794 0.48662 0.58277 0.0
H313 H 0.04448 0.41321 0.5881 0.0
H314 H 0.06857 0.55576 0.64262 0.0
H315 H 0.94346 0.48177 0.57251 0.0
H316 H 0.87661 0.42654 0.56457 0.0
H317 H 0.82265 0.48047 0.65639 0.0
H318 H 0.88996 0.53555 0.66548 0.0
H319 H 0.98973 0.73809 0.56715 0.0
H320 H 0.98246 0.66181 0.57266 0.0
H321 H 0.01692 0.68178 0.68791 0.0
H322 H 0.02297 0.75834 0.68268 0.0
H323 H 0.93329 0.59706 0.62103 0.0
H324 H 0.09098 0.61728 0.69872 0.0
H325 H 0.15838 0.67156 0.71038 0.0
H326 H 0.14618 0.72483 0.6053 0.0
H327 H 0.0793 0.67052 0.59274 0.0
C328 C 0.98846 0.42083 0.6661 0.0
C329 C 0.00998 0.40228 0.63927 0.0
C330 C 0.98438 0.46249 0.6629 0.0
C331 C 0.00276 0.48711 0.63327 0.0
C332 C 0.02354 0.46836 0.60593 0.0
C333 C 0.02673 0.42619 0.60869 0.0
C334 C 0.0013 0.5327 0.63165 0.0
C335 C 0.03897 0.5647 0.63788 0.0
C336 C 0.96272 0.54473 0.62596 0.0
C337 C 0.92188 0.51249 0.6199 0.0
C338 C 0.91747 0.48166 0.5912 0.0
C339 C 0.87942 0.45036 0.58648 0.0
C340 C 0.84527 0.44988 0.61001 0.0
C341 C 0.84913 0.48084 0.63822 0.0
C342 C 0.88725 0.5121 0.64318 0.0
C343 C -0.00545 0.72606 0.59394 0.0
C344 C 0.00646 0.75422 0.62454 0.0
C345 C 0.99047 0.6824 0.59704 0.0
C346 C -0.00066 0.66583 0.63062 0.0
C347 C 0.00989 0.69369 0.66167 0.0
C348 C 0.01305 0.73743 0.65874 0.0
C349 C 0.00055 0.62015 0.63209 0.0
C350 C 0.96286 0.58813 0.62595 0.0
C351 C 0.03904 0.60807 0.63831 0.0
C352 C 0.0799 0.64014 0.64502 0.0
C353 C 0.10284 0.64048 0.67804 0.0
C354 C 0.14097 0.67126 0.6848 0.0
C355 C 0.15653 0.70175 0.65864 0.0
C356 C 0.13411 0.70134 0.62559 0.0
C357 C 0.09607 0.67058 0.61864 0.0
H358 H 0.18598 0.72563 0.66393 0.0
H359 H 0.8158 0.42558 0.60643 0.0
H360 H 0.01537 0.23231 0.50935 0.0
H361 H 0.04268 0.202 0.45462 0.0
H362 H 0.17105 0.25206 0.49501 0.0
H363 H 0.14387 0.28159 0.55012 0.0
H364 H 0.17145 0.26229 0.42331 0.0
H365 H 0.11716 0.14592 0.49848 0.0
H366 H 0.06581 0.09546 0.53538 0.0
H367 H 0.98541 0.05659 0.43968 0.0
H368 H 0.03653 0.10666 0.40206 0.0
H369 H 0.18721 0.17619 0.24296 0.0
H370 H 0.16311 0.20245 0.30042 0.0
H371 H 0.18714 0.09631 0.35698 0.0
H372 H 0.21109 0.06922 0.29863 0.0
H373 H 0.11557 0.11133 0.38412 0.0
H374 H 0.17605 0.29017 0.35489 0.0
H375 H 0.23476 0.33787 0.3223 0.0
H376 H 0.31197 0.24935 0.3342 0.0
H377 H 0.25394 0.20139 0.36725 0.0
C378 C 0.04949 0.23722 0.50666 0.0
C379 C 0.07709 0.26004 0.53471 0.0
C380 C 0.06525 0.21938 0.47515 0.0
C381 C 0.10936 0.22378 0.47006 0.0
C382 C 0.13698 0.24747 0.49765 0.0
C383 C 0.12122 0.26469 0.52945 0.0
C384 C 0.12663 0.204 0.43632 0.0
C385 C 0.1588 0.22931 0.41485 0.0
C386 C 0.11176 0.16044 0.42496 0.0
C387 C 0.08072 0.13029 0.44744 0.0
C388 C 0.08858 0.12666 0.48525 0.0
C389 C 0.05951 0.09803 0.50631 0.0
C390 C 0.02239 0.07274 0.48988 0.0
C391 C 0.01427 0.07603 0.45234 0.0
C392 C 0.04337 0.10448 0.4311 0.0
C393 C 0.18776 0.15816 0.26746 0.0
C394 C 0.2018 0.12034 0.26538 0.0
C395 C 0.1739 0.17358 0.30084 0.0
C396 C 0.17347 0.15223 0.33416 0.0
C397 C 0.18696 0.11404 0.33224 0.0
C398 C 0.20106 0.09852 0.2986 0.0
C399 C 0.15915 0.17013 0.37032 0.0
C400 C 0.12779 0.14443 0.39239 0.0
C401 C 0.17523 0.21318 0.38268 0.0
C402 C 0.21048 0.24203 0.36323 0.0
C403 C 0.20562 0.28098 0.35068 0.0
C404 C 0.23876 0.30804 0.3321 0.0
C405 C 0.27702 0.29658 0.32608 0.0
C406 C 0.28227 0.25811 0.33875 0.0
C407 C 0.24925 0.23096 0.35737 0.0
H408 H 0.30262 0.31756 0.31166 0.0
H409 H 2e-05 0.05056 0.50627 0.0
H410 H 0.92618 0.22905 0.73482 0.0
H411 H 0.89811 0.2045 0.79468 0.0
H412 H 0.01811 0.26713 0.84642 0.0
H413 H 0.04678 0.29187 0.78598 0.0
H414 H 0.91949 0.15302 0.84403 0.0
H415 H -0.00098 0.29582 0.93705 0.0
H416 H 0.02918 0.37299 0.93328 0.0
H417 H 0.94432 0.37709 0.84298 0.0
H418 H 0.91335 0.30004 0.84648 0.0
H419 H 0.89691 0.19524 1.06219 0.0
H420 H 0.92612 0.21838 1.00254 0.0
H421 H 0.82745 0.12031 0.949 0.0
H422 H 0.8043 0.09202 1.00932 0.0
H423 H 0.91684 0.25177 0.94988 0.0
H424 H 0.8468 0.10315 0.8539 0.0
H425 H 0.82286 0.02536 0.85679 0.0
H426 H 0.89748 0.02869 0.95532 0.0
H427 H 0.92258 0.10636 0.95271 0.0
C428 C 0.94691 0.23797 0.75877 0.0
C429 C 0.98906 0.26293 0.75495 0.0
C430 C 0.93063 0.22351 0.79333 0.0
C431 C 0.95547 0.23377 0.8258 0.0
C432 C -0.00233 0.25881 0.82225 0.0
C433 C 0.01421 0.27305 0.78743 0.0
C434 C 0.93679 0.21819 0.86285 0.0
C435 C 0.91854 0.1746 0.8672 0.0
C436 C 0.93646 0.24573 0.89382 0.0
C437 C 0.95423 0.29213 0.89178 0.0
C438 C 0.98673 0.31324 0.91646 0.0
C439 C 0.00398 0.35694 0.91436 0.0
C440 C 0.98878 0.3799 0.88783 0.0
C441 C 0.95617 0.35924 0.86343 0.0
C442 C 0.9388 0.31555 0.86543 0.0
C443 C 0.88209 0.17785 1.03767 0.0
C444 C 0.84914 0.14071 1.04099 0.0
C445 C 0.89857 0.19161 1.00298 0.0
C446 C 0.88074 0.17069 0.96971 0.0
C447 C 0.84462 0.13599 0.97322 0.0
C448 C 0.83042 0.12013 1.0081 0.0
C449 C 0.89995 0.18562 0.93225 0.0
C450 C 0.91798 0.22941 0.92742 0.0
C451 C 0.90126 0.15781 0.90118 0.0
C452 C 0.88673 0.11084 0.90306 0.0
C453 C 0.85852 0.08732 0.87601 0.0
C454 C 0.8447 0.04319 0.8776 0.0
C455 C 0.85883 0.02208 0.90614 0.0
C456 C 0.88692 0.04505 0.93306 0.0
C457 C 0.90111 0.08914 0.93143 0.0
H458 H 0.84791 0.98794 0.90745 0.0
H459 H 0.0022 0.41373 0.88622 0.0
H460 H 0.91936 0.8804 0.52869 0.0
H461 H 0.89508 0.90737 0.47253 0.0
H462 H 0.02256 0.983 0.45496 0.0
H463 H 0.0472 0.95412 0.5101 0.0
H464 H -0.00397 0.9647 0.39259 0.0
H465 H 0.81798 0.94095 0.43043 0.0
H466 H 0.77381 0.94151 0.48562 0.0
H467 H 0.88113 0.0213 0.54415 0.0
H468 H 0.92567 0.02158 0.48918 0.0
H469 H 0.88368 0.99134 0.22919 0.0
H470 H 0.90921 0.96687 0.28587 0.0
H471 H 0.87785 0.06989 0.34742 0.0
H472 H 0.85168 0.09441 0.29036 0.0
H473 H 0.85861 0.0053 0.38916 0.0
H474 H 0.98663 0.06617 0.32802 0.0
H475 H 0.03877 0.0807 0.27775 0.0
H476 H 0.04229 0.94976 0.27284 0.0
H477 H 0.98992 0.9344 0.32295 0.0
C478 C 0.94241 0.90267 0.51288 0.0
C479 C 0.98552 0.91471 0.52459 0.0
C480 C 0.92825 0.91879 0.48056 0.0
C481 C 0.95622 0.9488 0.45887 0.0
C482 C -0.00048 0.96027 0.47037 0.0
C483 C 0.01383 0.94356 0.50235 0.0
C484 C 0.94078 0.9676 0.42439 0.0
C485 C 0.96578 0.97321 0.39221 0.0
C486 C 0.90193 0.98072 0.42279 0.0
C487 C 0.87529 0.98084 0.45586 0.0
C488 C 0.83209 0.95868 0.45506 0.0
C489 C 0.80699 0.95883 0.4863 0.0
C490 C 0.82469 0.98128 0.51842 0.0
C491 C 0.86749 0.00376 0.51932 0.0
C492 C 0.89269 0.00373 0.48815 0.0
C493 C 0.88207 0.00908 0.25465 0.0
C494 C 0.86532 0.04525 0.25442 0.0
C495 C 0.8972 0.99503 0.28747 0.0
C496 C 0.89655 0.01645 0.32184 0.0
C497 C 0.87921 0.0523 0.32183 0.0
C498 C 0.86415 0.06652 0.28884 0.0
C499 C 0.91327 0.00106 0.35731 0.0
C500 C 0.88863 -0.00368 0.38962 0.0
C501 C 0.95319 0.99029 0.35952 0.0
C502 C 0.98398 -0.00096 0.32891 0.0
C503 C -0.00179 0.0404 0.31596 0.0
C504 C 0.0279 0.04881 0.28758 0.0
C505 C 0.04372 0.01614 0.27202 0.0
C506 C 0.02995 0.97501 0.28487 0.0
C507 C 0.00031 0.96644 0.3133 0.0
H508 H 0.06674 0.02272 0.25007 0.0
H509 H 0.80522 0.98135 0.54257 0.0
H510 H 0.13765 0.92483 0.73034 0.0
H511 H 0.16452 0.94775 0.79286 0.0
H512 H 0.03736 0.90498 0.83485 0.0
H513 H 0.01075 0.88082 0.77262 0.0
H514 H 0.15817 0.00297 0.84172 0.0
H515 H 0.03642 0.88727 0.92762 0.0
H516 H 0.98854 0.81535 0.92293 0.0
H517 H 0.07113 0.77799 0.84342 0.0
H518 H 0.11986 0.84955 0.84808 0.0
H519 H 0.1847 0.07775 1.02881 0.0
H520 H 0.15815 0.05134 0.96771 0.0
H521 H 0.185 0.93114 0.98882 0.0
H522 H 0.20951 0.95706 1.05166 0.0
H523 H 0.1188 0.91223 0.94945 0.0
H524 H 0.24929 0.01591 0.9225 0.0
H525 H 0.30005 0.08635 0.9282 0.0
H526 H 0.20311 0.145 0.89122 0.0
H527 H 0.15187 0.07483 0.8852 0.0
C528 C 0.11531 0.9196 0.75286 0.0
C529 C 0.0718 0.89996 0.7457 0.0
C530 C 0.13083 0.93317 0.78904 0.0
C531 C 0.10366 0.92778 0.81991 0.0
C532 C 0.06 0.90879 0.81259 0.0
C533 C 0.04452 0.89497 0.77646 0.0
C534 C 0.12092 0.94243 0.85908 0.0
C535 C 0.14912 0.98289 0.86512 0.0
C536 C 0.11017 0.91714 0.89075 0.0
C537 C 0.08154 0.87386 0.88794 0.0
C538 C 0.04446 0.86364 0.90927 0.0
C539 C 0.01717 0.82296 0.90661 0.0
C540 C 0.02671 0.79216 0.88279 0.0
C541 C 0.0637 0.80193 0.86175 0.0
C542 C 0.09118 0.84255 0.86439 0.0
C543 C 0.18543 0.04568 1.02073 0.0
C544 C 0.20014 0.02007 1.04595 0.0
C545 C 0.17055 0.03055 0.98491 0.0
C546 C 0.17049 0.98923 0.97178 0.0
C547 C 0.18467 0.96324 0.99714 0.0
C548 C 0.19904 0.97826 1.03345 0.0
C549 C 0.15482 0.9733 0.93241 0.0
C550 C 0.12727 0.93259 0.92626 0.0
C551 C 0.16601 -0.00171 0.90067 0.0
C552 C 0.19686 0.04027 0.90344 0.0
C553 C 0.23889 0.04387 0.91556 0.0
C554 C 0.26771 0.08371 0.91882 0.0
C555 C 0.25481 0.12013 0.91007 0.0
C556 C 0.21307 0.11677 0.89799 0.0
C557 C 0.18418 0.07698 0.89448 0.0
H558 H 0.27714 0.15095 0.91267 0.0
H559 H 0.00546 0.76072 0.88068 0.0
H560 H 0.67235 0.85344 0.99229 0.0
H561 H 0.66413 0.79822 0.94422 0.0
H562 H 0.73784 0.73302 1.00949 0.0
H563 H 0.74811 0.78929 1.05679 0.0
H564 H 0.77833 0.76111 0.9506 0.0
H565 H 0.63942 0.67857 0.97064 0.0
H566 H 0.56291 0.66245 0.98492 0.0
H567 H 0.53886 0.72441 0.88725 0.0
H568 H 0.61528 0.74148 0.87259 0.0
H569 H 0.82787 0.70564 0.77495 0.0
H570 H 0.78945 0.68313 0.83178 0.0
H571 H 0.71065 0.76972 0.81372 0.0
H572 H 0.74856 0.79211 0.75715 0.0
H573 H 0.66859 0.70125 0.85458 0.0
H574 H 0.80507 0.80756 0.85338 0.0
H575 H 0.88126 0.83148 0.83818 0.0
H576 H 0.90815 0.73214 0.902 0.0
H577 H 0.83182 0.70715 0.917 0.0
C578 C 0.68566 0.82664 0.99696 0.0
C579 C 0.71217 0.8266 1.02773 0.0
C580 C 0.68033 0.79458 0.96963 0.0
C581 C 0.70092 0.76167 0.97296 0.0
C582 C 0.72188 0.75825 1.00625 0.0
C583 C 0.72765 0.79056 1.03339 0.0
C584 C 0.71082 0.73965 0.93898 0.0
C585 C 0.7541 0.74627 0.93025 0.0
C586 C 0.67943 0.7214 0.91194 0.0
C587 C 0.63326 0.71133 0.92053 0.0
C588 C 0.6179 0.68901 0.9523 0.0
C589 C 0.5745 0.67966 0.96044 0.0
C590 C 0.54604 0.69239 0.937 0.0
C591 C 0.56093 0.71449 0.90535 0.0
C592 C 0.6043 0.72391 0.89705 0.0
C593 C 0.80151 0.71892 0.78261 0.0
C594 C 0.79186 0.75135 0.76213 0.0
C595 C 0.77932 0.70572 0.81482 0.0
C596 C 0.74775 0.72534 0.82723 0.0
C597 C 0.73484 0.7541 0.8046 0.0
C598 C 0.75676 0.76707 0.7723 0.0
C599 C 0.73562 0.72429 0.86652 0.0
C600 C 0.69234 0.71382 0.87589 0.0
C601 C 0.76686 0.73988 0.89429 0.0
C602 C 0.81278 0.75512 0.88582 0.0
C603 C 0.82722 0.79067 0.86396 0.0
C604 C 0.87038 0.80441 0.85539 0.0
C605 C 0.89948 0.78322 0.86899 0.0
C606 C 0.88551 0.74838 0.89136 0.0
C607 C 0.8423 0.73437 0.89986 0.0
H608 H 0.93286 0.79386 0.86225 0.0
H609 H 0.51245 0.68513 0.94337 0.0
H610 H 0.39906 0.90175 0.28216 0.0
H611 H 0.42441 0.87293 0.3372 0.0
H612 H 0.3536 0.94132 0.40568 0.0
H613 H 0.33012 0.9711 0.35149 0.0
H614 H 0.41756 0.93442 0.44315 0.0
H615 H 0.30965 0.83392 0.36375 0.0
H616 H 0.28782 0.79228 0.30575 0.0
H617 H 0.39346 0.7357 0.31623 0.0
H618 H 0.41606 0.77743 0.37414 0.0
H619 H 0.23169 0.79425 0.50931 0.0
H620 H 0.28668 0.79768 0.46445 0.0
H621 H 0.38303 0.83446 0.55009 0.0
H622 H 0.32705 0.83286 0.59565 0.0
H623 H 0.35252 0.77951 0.43977 0.0
H624 H 0.45844 0.91047 0.52182 0.0
H625 H 0.46047 0.95597 0.57797 0.0
H626 H 0.32968 0.95686 0.5596 0.0
H627 H 0.32707 0.91146 0.50338 0.0
C628 C 0.39013 0.91149 0.30916 0.0
C629 C 0.36227 0.93829 0.31262 0.0
C630 C 0.40454 0.89498 0.34055 0.0
C631 C 0.39022 0.9041 0.37565 0.0
C632 C 0.36539 0.93375 0.37906 0.0
C633 C 0.35178 0.95082 0.34794 0.0
C634 C 0.39435 0.8787 0.40822 0.0
C635 C 0.40449 0.90029 0.44241 0.0
C636 C 0.37821 0.83403 0.40748 0.0
C637 C 0.36482 0.80908 0.37282 0.0
C638 C 0.32825 0.8127 0.35352 0.0
C639 C 0.31577 0.78913 0.32071 0.0
C640 C 0.33932 0.76146 0.30725 0.0
C641 C 0.37535 0.75725 0.32663 0.0
C642 C 0.38804 0.78088 0.3594 0.0
C643 C 0.26438 0.80122 0.51916 0.0
C644 C 0.27501 0.8146 0.55591 0.0
C645 C 0.29618 0.80315 0.49322 0.0
C646 C 0.33931 0.81812 0.50351 0.0
C647 C 0.35 0.82436 0.54124 0.0
C648 C 0.31799 0.8233 0.56729 0.0
C649 C 0.36999 0.83629 0.47429 0.0
C650 C 0.36805 0.81316 0.44072 0.0
C651 C 0.39104 0.88009 0.47534 0.0
C652 C 0.39251 0.90742 0.50882 0.0
C653 C 0.43021 0.92046 0.52985 0.0
C654 C 0.43143 0.94617 0.56164 0.0
C655 C 0.39518 0.95918 0.57241 0.0
C656 C 0.35769 0.94669 0.5513 0.0
C657 C 0.35633 0.92104 0.51949 0.0
H658 H 0.39617 0.97901 0.59705 0.0
H659 H 0.3296 0.74321 0.28185 0.0
H660 H 0.32384 0.38436 0.74133 0.0
H661 H 0.37205 0.38322 0.79281 0.0
H662 H 0.29902 0.44704 0.86295 0.0
H663 H 0.25095 0.44913 0.81126 0.0
H664 H 0.38893 0.46289 0.88397 0.0
H665 H 0.26326 0.34714 0.85295 0.0
H666 H 0.21939 0.29279 0.8105 0.0
H667 H 0.32449 0.23601 0.79502 0.0
H668 H 0.36927 0.2907 0.83684 0.0
H669 H 0.32446 0.36823 1.0499 0.0
H670 H 0.349 0.40609 0.99425 0.0
H671 H 0.40687 0.30607 0.95857 0.0
H672 H 0.38005 0.26677 1.01308 0.0
H673 H 0.34848 0.31034 0.91303 0.0
H674 H 0.4646 0.41353 0.96289 0.0
H675 H 0.50658 0.46733 1.00674 0.0
H676 H 0.42126 0.54698 0.98971 0.0
H677 H 0.3783 0.49341 0.94621 0.0
C678 C 0.31913 0.40001 0.76717 0.0
C679 C 0.28306 0.41609 0.77249 0.0
C680 C 0.3468 0.3993 0.79659 0.0
C681 C 0.33863 0.41444 0.83171 0.0
C682 C 0.30579 0.43517 0.836 0.0
C683 C 0.27805 0.43587 0.80658 0.0
C684 C 0.35675 0.39985 0.86482 0.0
C685 C 0.38053 0.42959 0.89053 0.0
C686 C 0.34668 0.35623 0.8726 0.0
C687 C 0.31978 0.32336 0.8475 0.0
C688 C 0.27713 0.32333 0.84018 0.0
C689 C 0.25209 0.29244 0.81628 0.0
C690 C 0.26919 0.26104 0.79996 0.0
C691 C 0.31135 0.26045 0.80757 0.0
C692 C 0.33659 0.29142 0.83131 0.0
C693 C 0.34339 0.35479 1.03068 0.0
C694 C 0.34897 0.31381 1.03532 0.0
C695 C 0.35811 0.37689 0.99904 0.0
C696 C 0.3794 0.35873 0.97185 0.0
C697 C 0.39023 0.32058 0.97903 0.0
C698 C 0.37496 0.29816 1.01042 0.0
C699 C 0.37997 0.37343 0.93346 0.0
C700 C 0.35899 0.34358 0.90647 0.0
C701 C 0.39263 0.41687 0.92485 0.0
C702 C 0.4181 0.44927 0.95127 0.0
C703 C 0.45454 0.44235 0.96868 0.0
C704 C 0.47857 0.47286 0.99346 0.0
C705 C 0.46659 0.51054 1.00102 0.0
C706 C 0.43054 0.51779 0.9838 0.0
C707 C 0.40638 0.48738 0.959 0.0
H708 H 0.48525 0.53413 1.02019 0.0
H709 H 0.24973 0.23708 0.78153 0.0
H710 H 0.72338 0.32378 0.25991 0.0
H711 H 0.69989 0.36293 0.31064 0.0
H712 H 0.66536 0.24837 0.3722 0.0
H713 H 0.68662 0.2087 0.32096 0.0
H714 H 0.624 0.30666 0.39875 0.0
H715 H 0.7739 0.30311 0.36523 0.0
H716 H 0.83383 0.31889 0.3218 0.0
H717 H 0.82653 0.44865 0.3193 0.0
H718 H 0.76616 0.43332 0.36243 0.0
H719 H 0.74175 0.25159 0.52996 0.0
H720 H 0.69537 0.27299 0.48601 0.0
H721 H 0.76262 0.40417 0.50485 0.0
H722 H 0.80946 0.38254 0.54913 0.0
H723 H 0.77101 0.38131 0.4379 0.0
H724 H 0.65038 0.37628 0.50669 0.0
H725 H 0.5946 0.35357 0.55297 0.0
H726 H 0.54824 0.23497 0.49331 0.0
H727 H 0.6041 0.25649 0.44699 0.0
C728 C 0.70868 0.30643 0.28342 0.0
C729 C 0.70839 0.26347 0.28717 0.0
C730 C 0.6952 0.32895 0.31243 0.0
C731 C 0.68235 0.3089 0.34567 0.0
C732 C 0.67571 0.2647 0.347 0.0
C733 C 0.68862 0.24212 0.31792 0.0
C734 C 0.68808 0.33341 0.38117 0.0
C735 C 0.65583 0.32376 0.40756 0.0
C736 C 0.72915 0.35765 0.39222 0.0
C737 C 0.76542 0.36703 0.36657 0.0
C738 C 0.78511 0.33495 0.3553 0.0
C739 C 0.81907 0.34379 0.33074 0.0
C740 C 0.83393 0.38474 0.31774 0.0
C741 C 0.8149 0.41693 0.32932 0.0
C742 C 0.78078 0.40819 0.35375 0.0
C743 C 0.74568 0.28516 0.52601 0.0
C744 C 0.77995 0.31536 0.54252 0.0
C745 C 0.71867 0.29752 0.50101 0.0
C746 C 0.72528 0.34034 0.49206 0.0
C747 C 0.75679 0.37098 0.51134 0.0
C748 C 0.78395 0.35854 0.53628 0.0
C749 C 0.7081 0.35028 0.45639 0.0
C750 C 0.73825 0.36686 0.42963 0.0
C751 C 0.66539 0.33183 0.44537 0.0
C752 C 0.63146 0.31824 0.47312 0.0
C753 C 0.62843 0.34526 0.50346 0.0
C754 C 0.59676 0.33258 0.52974 0.0
C755 C 0.56784 0.2929 0.52604 0.0
C756 C 0.57056 0.26578 0.49606 0.0
C757 C 0.60217 0.27829 0.46969 0.0
H758 H 0.54335 0.28314 0.54642 0.0
H759 H 0.86024 0.39155 0.29874 0.0
loop_
_geom_bond_atom_site_label_1
_geom_bond_atom_site_label_2
_geom_bond_distance
_geom_bond_site_symmetry_2
_ccdc_geom_bond_type
Tb0 C2 2.809 . S
Tb0 O20 2.484 . S
Tb0 O21 2.440 . S
Tb0 O22 2.658 1_554 S
Tb0 O23 2.409 . S
Tb0 O24 2.378 . S
Tb0 O28 2.325 . S
Tb0 O31 2.341 1_554 S
Tb1 C11 2.809 . S
Tb1 O22 2.325 . S
Tb1 O25 2.341 1_556 S
Tb1 O26 2.484 . S
Tb1 O27 2.440 . S
Tb1 O28 2.658 1_556 S
Tb1 O29 2.409 . S
Tb1 O30 2.378 . S
C2 Tb0 2.809 . S
C2 C3 1.514 . S
C2 O20 1.248 . S
C2 O21 1.266 . S
C3 C2 1.514 . S
C3 C4 1.359 . S
C3 C8 1.348 . S
C4 C3 1.359 . S
C4 C5 1.380 . S
C4 H32 0.929 . S
C5 C4 1.380 . S
C5 C6 1.347 . S
C5 H33 0.931 . S
C6 C5 1.347 . S
C6 C7 1.369 . S
C7 C6 1.369 . S
C7 C8 1.408 . S
C7 H34 0.930 . S
C8 C3 1.348 . S
C8 C7 1.408 . S
C8 H35 0.930 . S
C9 O22 1.281 1_554 S
C9 O23 1.254 . S
C10 O24 1.236 . S
C10 O25 1.266 . S
C11 Tb1 2.809 . S
C11 C12 1.514 . S
C11 O26 1.248 . S
C11 O27 1.266 . S
C12 C11 1.514 . S
C12 C13 1.359 . S
C12 C17 1.348 . S
C13 C12 1.359 . S
C13 C14 1.380 . S
C13 H36 0.929 . S
C14 C13 1.380 . S
C14 C15 1.347 . S
C14 H37 0.931 . S
C15 C14 1.347 . S
C15 C16 1.369 . S
C16 C15 1.369 . S
C16 C17 1.408 . S
C16 H38 0.930 . S
C17 C12 1.348 . S
C17 C16 1.408 . S
C17 H39 0.930 . S
C18 O28 1.281 . S
C18 O29 1.254 1_554 S
C19 O30 1.236 . S
C19 O31 1.266 . S
O20 Tb0 2.484 . S
O20 C2 1.248 . S
O21 Tb0 2.440 . S
O21 C2 1.266 . S
O22 Tb0 2.658 1_556 S
O22 Tb1 2.325 . S
O22 C9 1.281 1_556 S
O23 Tb0 2.409 . S
O23 C9 1.254 . S
O24 Tb0 2.378 . S
O24 C10 1.236 . S
O25 Tb1 2.341 1_554 S
O25 C10 1.266 . S
O26 Tb1 2.484 . S
O26 C11 1.248 . S
O27 Tb1 2.440 . S
O27 C11 1.266 . S
O28 Tb0 2.325 . S
O28 Tb1 2.658 1_554 S
O28 C18 1.281 . S
O29 Tb1 2.409 . S
O29 C18 1.254 1_556 S
O30 Tb1 2.378 . S
O30 C19 1.236 . S
O31 Tb0 2.341 1_556 S
O31 C19 1.266 . S
H32 C4 0.929 . S
H33 C5 0.931 . S
H34 C7 0.930 . S
H35 C8 0.930 . S
H36 C13 0.929 . S
H37 C14 0.931 . S
H38 C16 0.930 . S
H39 C17 0.930 . S
Tb40 C42 2.809 . S
Tb40 O60 2.484 . S
Tb40 O61 2.440 . S
Tb40 O62 2.658 1_655 S
Tb40 O63 2.409 1_655 S
Tb40 O64 2.378 1_655 S
Tb40 O68 2.325 1_655 S
Tb40 O71 2.341 . S
Tb41 C51 2.809 . S
Tb41 O62 2.325 . S
Tb41 O65 2.341 . S
Tb41 O66 2.484 . S
Tb41 O67 2.440 . S
Tb41 O68 2.658 . S
Tb41 O69 2.409 . S
Tb41 O70 2.378 . S
C42 Tb40 2.809 . S
C42 C43 1.514 . S
C42 O60 1.248 . S
C42 O61 1.266 . S
C43 C42 1.514 . S
C43 C44 1.359 . S
C43 C48 1.348 . S
C44 C43 1.359 . S
C44 C45 1.380 . S
C44 H72 0.929 . S
C45 C44 1.380 . S
C45 C46 1.347 . S
C45 H73 0.931 . S
C46 C45 1.347 . S
C46 C47 1.369 . S
C47 C46 1.369 . S
C47 C48 1.408 . S
C47 H74 0.930 . S
C48 C43 1.348 . S
C48 C47 1.408 . S
C48 H75 0.930 . S
C49 O62 1.281 . S
C49 O63 1.254 . S
C50 O64 1.236 . S
C50 O65 1.266 . S
C51 Tb41 2.809 . S
C51 C52 1.514 . S
C51 O66 1.248 . S
C51 O67 1.266 . S
C52 C51 1.514 . S
C52 C53 1.359 . S
C52 C57 1.348 . S
C53 C52 1.359 . S
C53 C54 1.380 . S
C53 H76 0.929 . S
C54 C53 1.380 . S
C54 C55 1.347 . S
C54 H77 0.931 . S
C55 C54 1.347 . S
C55 C56 1.369 . S
C56 C55 1.369 . S
C56 C57 1.408 . S
C56 H78 0.930 . S
C57 C52 1.348 . S
C57 C56 1.408 . S
C57 H79 0.930 . S
C58 O68 1.281 . S
C58 O69 1.254 . S
C59 O70 1.236 . S
C59 O71 1.266 1_455 S
O60 Tb40 2.484 . S
O60 C42 1.248 . S
O61 Tb40 2.440 . S
O61 C42 1.266 . S
O62 Tb40 2.658 1_455 S
O62 Tb41 2.325 . S
O62 C49 1.281 . S
O63 Tb40 2.409 1_455 S
O63 C49 1.254 . S
O64 Tb40 2.378 1_455 S
O64 C50 1.236 . S
O65 Tb41 2.341 . S
O65 C50 1.266 . S
O66 Tb41 2.484 . S
O66 C51 1.248 . S
O67 Tb41 2.440 . S
O67 C51 1.266 . S
O68 Tb40 2.325 1_455 S
O68 Tb41 2.658 . S
O68 C58 1.281 . S
O69 Tb41 2.409 . S
O69 C58 1.254 . S
O70 Tb41 2.378 . S
O70 C59 1.236 . S
O71 Tb40 2.341 . S
O71 C59 1.266 1_655 S
H72 C44 0.929 . S
H73 C45 0.931 . S
H74 C47 0.930 . S
H75 C48 0.930 . S
H76 C53 0.929 . S
H77 C54 0.931 . S
H78 C56 0.930 . S
H79 C57 0.930 . S
Tb80 C82 2.809 . S
Tb80 O100 2.484 . S
Tb80 O101 2.440 . S
Tb80 O102 2.658 1_554 S
Tb80 O103 2.409 . S
Tb80 O104 2.378 . S
Tb80 O108 2.325 . S
Tb80 O111 2.341 1_554 S
Tb81 C91 2.809 . S
Tb81 O102 2.325 1_565 S
Tb81 O105 2.341 1_556 S
Tb81 O106 2.484 . S
Tb81 O107 2.440 . S
Tb81 O108 2.658 1_566 S
Tb81 O109 2.409 . S
Tb81 O110 2.378 1_565 S
C82 Tb80 2.809 . S
C82 C83 1.514 . S
C82 O100 1.248 . S
C82 O101 1.266 . S
C83 C82 1.514 . S
C83 C84 1.359 . S
C83 C88 1.348 . S
C84 C83 1.359 . S
C84 C85 1.380 . S
C84 H112 0.929 . S
C85 C84 1.380 . S
C85 C86 1.347 . S
C85 H113 0.931 . S
C86 C85 1.347 . S
C86 C87 1.369 . S
C87 C86 1.369 . S
C87 C88 1.408 . S
C87 H114 0.930 . S
C88 C83 1.348 . S
C88 C87 1.408 . S
C88 H115 0.930 . S
C89 O102 1.281 1_554 S
C89 O103 1.254 . S
C90 O104 1.236 1_565 S
C90 O105 1.266 . S
C91 Tb81 2.809 . S
C91 C92 1.514 . S
C91 O106 1.248 . S
C91 O107 1.266 . S
C92 C91 1.514 . S
C92 C93 1.359 . S
C92 C97 1.348 . S
C93 C92 1.359 . S
C93 C94 1.380 . S
C93 H116 0.929 . S
C94 C93 1.380 . S
C94 C95 1.347 . S
C94 H117 0.931 . S
C95 C94 1.347 . S
C95 C96 1.369 . S
C96 C95 1.369 . S
C96 C97 1.408 . S
C96 H118 0.930 . S
C97 C92 1.348 . S
C97 C96 1.408 . S
C97 H119 0.930 . S
C98 O108 1.281 . S
C98 O109 1.254 1_544 S
C99 O110 1.236 . S
C99 O111 1.266 . S
O100 Tb80 2.484 . S
O100 C82 1.248 . S
O101 Tb80 2.440 . S
O101 C82 1.266 . S
O102 Tb80 2.658 1_556 S
O102 Tb81 2.325 1_545 S
O102 C89 1.281 1_556 S
O103 Tb80 2.409 . S
O103 C89 1.254 . S
O104 Tb80 2.378 . S
O104 C90 1.236 1_545 S
O105 Tb81 2.341 1_554 S
O105 C90 1.266 . S
O106 Tb81 2.484 . S
O106 C91 1.248 . S
O107 Tb81 2.440 . S
O107 C91 1.266 . S
O108 Tb80 2.325 . S
O108 Tb81 2.658 1_544 S
O108 C98 1.281 . S
O109 Tb81 2.409 . S
O109 C98 1.254 1_566 S
O110 Tb81 2.378 1_545 S
O110 C99 1.236 . S
O111 Tb80 2.341 1_556 S
O111 C99 1.266 . S
H112 C84 0.929 . S
H113 C85 0.931 . S
H114 C87 0.930 . S
H115 C88 0.930 . S
H116 C93 0.929 . S
H117 C94 0.931 . S
H118 C96 0.930 . S
H119 C97 0.930 . S
Tb120 C122 2.809 . S
Tb120 O140 2.484 . S
Tb120 O141 2.440 . S
Tb120 O142 2.658 1_655 S
Tb120 O143 2.409 1_655 S
Tb120 O144 2.378 1_655 S
Tb120 O148 2.325 1_655 S
Tb120 O151 2.341 . S
Tb121 C131 2.809 . S
Tb121 O142 2.325 . S
Tb121 O145 2.341 . S
Tb121 O146 2.484 . S
Tb121 O147 2.440 . S
Tb121 O148 2.658 . S
Tb121 O149 2.409 . S
Tb121 O150 2.378 . S
C122 Tb120 2.809 . S
C122 C123 1.514 . S
C122 O140 1.248 . S
C122 O141 1.266 . S
C123 C122 1.514 . S
C123 C124 1.359 . S
C123 C128 1.348 . S
C124 C123 1.359 . S
C124 C125 1.380 . S
C124 H152 0.929 . S
C125 C124 1.380 . S
C125 C126 1.347 . S
C125 H153 0.931 . S
C126 C125 1.347 . S
C126 C127 1.369 . S
C127 C126 1.369 . S
C127 C128 1.408 . S
C127 H154 0.930 . S
C128 C123 1.348 . S
C128 C127 1.408 . S
C128 H155 0.930 . S
C129 O142 1.281 . S
C129 O143 1.254 . S
C130 O144 1.236 . S
C130 O145 1.266 . S
C131 Tb121 2.809 . S
C131 C132 1.514 . S
C131 O146 1.248 . S
C131 O147 1.266 . S
C132 C131 1.514 . S
C132 C133 1.359 . S
C132 C137 1.348 . S
C133 C132 1.359 . S
C133 C134 1.380 . S
C133 H156 0.929 . S
C134 C133 1.380 . S
C134 C135 1.347 . S
C134 H157 0.931 . S
C135 C134 1.347 . S
C135 C136 1.369 . S
C136 C135 1.369 . S
C136 C137 1.408 . S
C136 H158 0.930 . S
C137 C132 1.348 . S
C137 C136 1.408 . S
C137 H159 0.930 . S
C138 O148 1.281 . S
C138 O149 1.254 . S
C139 O150 1.236 . S
C139 O151 1.266 1_455 S
O140 Tb120 2.484 . S
O140 C122 1.248 . S
O141 Tb120 2.440 . S
O141 C122 1.266 . S
O142 Tb120 2.658 1_455 S
O142 Tb121 2.325 . S
O142 C129 1.281 . S
O143 Tb120 2.409 1_455 S
O143 C129 1.254 . S
O144 Tb120 2.378 1_455 S
O144 C130 1.236 . S
O145 Tb121 2.341 . S
O145 C130 1.266 . S
O146 Tb121 2.484 . S
O146 C131 1.248 . S
O147 Tb121 2.440 . S
O147 C131 1.266 . S
O148 Tb120 2.325 1_455 S
O148 Tb121 2.658 . S
O148 C138 1.281 . S
O149 Tb121 2.409 . S
O149 C138 1.254 . S
O150 Tb121 2.378 . S
O150 C139 1.236 . S
O151 Tb120 2.341 . S
O151 C139 1.266 1_655 S
H152 C124 0.929 . S
H153 C125 0.931 . S
H154 C127 0.930 . S
H155 C128 0.930 . S
H156 C133 0.929 . S
H157 C134 0.931 . S
H158 C136 0.930 . S
H159 C137 0.930 . S
H160 C178 0.951 . S
H161 C180 0.951 . S
H162 C182 0.950 1_565 S
H163 C183 0.950 . S
H164 C185 0.950 . S
H165 C188 0.950 . S
H166 C189 0.950 . S
H167 C191 0.950 . S
H168 C192 0.956 1_554 S
H169 C193 0.951 . S
H170 C195 0.951 . S
H171 C197 0.950 . S
H172 C198 0.950 . S
H173 C200 0.950 . S
H174 C203 0.950 . S
H175 C204 0.950 . S
H176 C206 0.950 . S
H177 C207 0.950 . S
C178 H160 0.951 . S
C178 C179 1.359 1_554 S
C178 C180 1.388 . S
C179 C178 1.359 1_556 S
C179 C183 1.392 1_545 S
C180 H161 0.951 . S
C180 C178 1.388 . S
C180 C181 1.358 1_554 S
C181 C180 1.358 1_556 S
C181 C182 1.421 . S
C181 C184 1.499 1_655 S
C182 H162 0.950 1_545 S
C182 C181 1.421 . S
C182 C183 1.374 1_545 S
C183 H163 0.950 . S
C183 C179 1.392 1_565 S
C183 C182 1.374 1_565 S
C184 C181 1.499 1_455 S
C184 C185 1.369 1_556 S
C184 C186 1.393 . S
C185 H164 0.950 . S
C185 C184 1.369 1_554 S
C185 C201 1.377 . S
C186 C184 1.393 . S
C186 C187 1.524 1_455 S
C186 C200 1.377 . S
C187 C186 1.524 1_655 S
C187 C188 1.397 . S
C187 C192 1.367 1_655 S
C188 H165 0.950 . S
C188 C187 1.397 . S
C188 C189 1.334 . S
C189 H166 0.950 . S
C189 C188 1.334 . S
C189 C190 1.287 . S
C190 C189 1.287 . S
C190 C191 1.524 . S
C190 H209 0.913 . S
C191 H167 0.950 . S
C191 C190 1.524 . S
C191 C192 1.398 1_655 S
C192 H168 0.956 1_556 S
C192 C187 1.367 1_455 S
C192 C191 1.398 1_455 S
C193 H169 0.951 . S
C193 C194 1.366 1_556 S
C193 C195 1.388 . S
C194 C193 1.366 1_554 S
C194 C198 1.385 . S
C195 H170 0.951 . S
C195 C193 1.388 . S
C195 C196 1.366 1_556 S
C196 C195 1.366 1_554 S
C196 C197 1.414 . S
C196 C199 1.499 . S
C197 H171 0.950 . S
C197 C196 1.414 . S
C197 C198 1.374 . S
C198 H172 0.950 . S
C198 C194 1.385 . S
C198 C197 1.374 . S
C199 C196 1.499 . S
C199 C200 1.373 1_554 S
C199 C201 1.389 . S
C200 H173 0.950 . S
C200 C186 1.377 . S
C200 C199 1.373 1_556 S
C201 C185 1.377 . S
C201 C199 1.389 . S
C201 C202 1.524 . S
C202 C201 1.524 . S
C202 C203 1.397 . S
C202 C207 1.363 1_545 S
C203 H174 0.950 . S
C203 C202 1.397 . S
C203 C204 1.334 . S
C204 H175 0.950 . S
C204 C203 1.334 . S
C204 C205 1.287 1_545 S
C205 C204 1.287 1_565 S
C205 C206 1.524 . S
C205 H208 0.999 . S
C206 H176 0.950 . S
C206 C205 1.524 . S
C206 C207 1.415 . S
C207 H177 0.950 . S
C207 C202 1.363 1_565 S
C207 C206 1.415 . S
H208 C205 0.999 . S
H209 C190 0.913 . S
H210 C228 0.951 . S
H211 C230 0.951 . S
H212 C232 0.950 . S
H213 C233 0.950 . S
H214 C235 0.950 1_655 S
H215 C238 0.950 . S
H216 C239 0.950 . S
H217 C241 0.950 . S
H218 C242 0.950 . S
H219 C243 0.951 . S
H220 C245 0.951 . S
H221 C247 0.950 . S
H222 C248 0.950 . S
H223 C250 0.950 . S
H224 C253 0.950 . S
H225 C254 0.950 . S
H226 C256 0.950 . S
H227 C257 0.950 . S
C228 H210 0.951 . S
C228 C229 1.366 . S
C228 C230 1.388 . S
C229 C228 1.366 . S
C229 C233 1.385 . S
C230 H211 0.951 . S
C230 C228 1.388 . S
C230 C231 1.366 . S
C231 C230 1.366 . S
C231 C232 1.414 . S
C231 C234 1.499 1_565 S
C232 H212 0.950 . S
C232 C231 1.414 . S
C232 C233 1.374 . S
C233 H213 0.950 . S
C233 C229 1.385 . S
C233 C232 1.374 . S
C234 C231 1.499 1_545 S
C234 C235 1.373 . S
C234 C236 1.389 . S
C235 H214 0.950 1_455 S
C235 C234 1.373 . S
C235 C251 1.377 . S
C236 C234 1.389 . S
C236 C237 1.524 . S
C236 C250 1.377 . S
C237 C236 1.524 . S
C237 C238 1.397 . S
C237 C242 1.363 . S
C238 H215 0.950 . S
C238 C237 1.397 . S
C238 C239 1.334 . S
C239 H216 0.950 . S
C239 C238 1.334 . S
C239 C240 1.287 . S
C240 C239 1.287 . S
C240 C241 1.524 . S
C240 H259 0.913 . S
C241 H217 0.950 . S
C241 C240 1.524 . S
C241 C242 1.415 . S
C242 H218 0.950 . S
C242 C237 1.363 . S
C242 C241 1.415 . S
C243 H219 0.951 . S
C243 C244 1.366 . S
C243 C245 1.388 . S
C244 C243 1.366 . S
C244 C248 1.385 . S
C245 H220 0.951 . S
C245 C243 1.388 . S
C245 C246 1.366 . S
C246 C245 1.366 . S
C246 C247 1.414 . S
C246 C249 1.499 . S
C247 H221 0.950 . S
C247 C246 1.414 . S
C247 C248 1.374 . S
C248 H222 0.950 . S
C248 C244 1.385 . S
C248 C247 1.374 . S
C249 C246 1.499 . S
C249 C250 1.373 . S
C249 C251 1.389 . S
C250 H223 0.950 . S
C250 C236 1.377 . S
C250 C249 1.373 . S
C251 C235 1.377 . S
C251 C249 1.389 . S
C251 C252 1.524 1_455 S
C252 C251 1.524 1_655 S
C252 C253 1.397 . S
C252 C257 1.363 . S
C253 H224 0.950 . S
C253 C252 1.397 . S
C253 C254 1.334 . S
C254 H225 0.950 . S
C254 C253 1.334 . S
C254 C255 1.287 . S
C255 C254 1.287 . S
C255 C256 1.524 . S
C255 H258 0.999 . S
C256 H226 0.950 . S
C256 C255 1.524 . S
C256 C257 1.415 . S
C257 H227 0.950 . S
C257 C252 1.363 . S
C257 C256 1.415 . S
H258 C255 0.999 . S
H259 C240 0.913 . S
H260 C278 0.951 . S
H261 C280 0.951 1_565 S
H262 C282 0.950 . S
H263 C283 0.950 . S
H264 C285 0.950 . S
H265 C288 0.950 . S
H266 C289 0.950 . S
H267 C291 0.950 . S
H268 C292 0.950 . S
H269 C293 0.951 . S
H270 C295 0.951 . S
H271 C297 0.950 . S
H272 C298 0.950 . S
H273 C300 0.950 . S
H274 C303 0.950 . S
H275 C304 0.950 . S
H276 C306 0.950 . S
H277 C307 0.950 . S
C278 H260 0.951 . S
C278 C279 1.366 1_565 S
C278 C280 1.388 1_565 S
C279 C278 1.366 1_545 S
C279 C283 1.385 . S
C280 H261 0.951 1_545 S
C280 C278 1.388 1_545 S
C280 C281 1.366 . S
C281 C280 1.366 . S
C281 C282 1.414 . S
C281 C284 1.499 . S
C282 H262 0.950 . S
C282 C281 1.414 . S
C282 C283 1.374 . S
C283 H263 0.950 . S
C283 C279 1.385 . S
C283 C282 1.374 . S
C284 C281 1.499 . S
C284 C285 1.373 . S
C284 C286 1.389 1_554 S
C285 H264 0.950 . S
C285 C284 1.373 . S
C285 C301 1.377 . S
C286 C284 1.389 1_556 S
C286 C287 1.524 . S
C286 C300 1.377 . S
C287 C286 1.524 . S
C287 C288 1.397 . S
C287 C292 1.363 1_545 S
C288 H265 0.950 . S
C288 C287 1.397 . S
C288 C289 1.334 . S
C289 H266 0.950 . S
C289 C288 1.334 . S
C289 C290 1.287 1_545 S
C290 C289 1.287 1_565 S
C290 C291 1.524 . S
C290 H309 0.913 . S
C291 H267 0.950 . S
C291 C290 1.524 . S
C291 C292 1.415 . S
C292 H268 0.950 . S
C292 C287 1.363 1_565 S
C292 C291 1.415 . S
C293 H269 0.951 . S
C293 C294 1.366 . S
C293 C295 1.388 . S
C294 C293 1.366 . S
C294 C298 1.385 . S
C295 H270 0.951 . S
C295 C293 1.388 . S
C295 C296 1.366 . S
C296 C295 1.366 . S
C296 C297 1.414 . S
C296 C299 1.499 . S
C297 H271 0.950 . S
C297 C296 1.414 . S
C297 C298 1.374 . S
C298 H272 0.950 . S
C298 C294 1.385 . S
C298 C297 1.374 . S
C299 C296 1.499 . S
C299 C300 1.373 1_554 S
C299 C301 1.389 . S
C300 H273 0.950 . S
C300 C286 1.377 . S
C300 C299 1.373 1_556 S
C301 C285 1.377 . S
C301 C299 1.389 . S
C301 C302 1.524 . S
C302 C301 1.524 . S
C302 C303 1.397 . S
C302 C307 1.363 . S
C303 H274 0.950 . S
C303 C302 1.397 . S
C303 C304 1.334 . S
C304 H275 0.950 . S
C304 C303 1.334 . S
C304 C305 1.287 . S
C305 C304 1.287 . S
C305 C306 1.524 . S
C305 H308 0.999 . S
C306 H276 0.950 . S
C306 C305 1.524 . S
C306 C307 1.415 . S
C307 H277 0.950 . S
C307 C302 1.363 . S
C307 C306 1.415 . S
H308 C305 0.999 . S
H309 C290 0.913 . S
H310 C328 0.951 1_655 S
H311 C330 0.951 1_655 S
H312 C332 0.950 . S
H313 C333 0.950 . S
H314 C335 0.950 . S
H315 C338 0.950 1_455 S
H316 C339 0.950 . S
H317 C341 0.950 . S
H318 C342 0.950 . S
H319 C343 0.951 . S
H320 C345 0.951 . S
H321 C347 0.950 1_655 S
H322 C348 0.950 1_655 S
H323 C350 0.950 1_655 S
H324 C353 0.950 . S
H325 C354 0.950 . S
H326 C356 0.950 . S
H327 C357 0.950 . S
C328 H310 0.951 1_455 S
C328 C329 1.366 . S
C328 C330 1.388 . S
C329 C328 1.366 . S
C329 C333 1.385 . S
C330 H311 0.951 1_455 S
C330 C328 1.388 . S
C330 C331 1.366 . S
C331 C330 1.366 . S
C331 C332 1.414 . S
C331 C334 1.499 . S
C332 H312 0.950 . S
C332 C331 1.414 . S
C332 C333 1.374 . S
C333 H313 0.950 . S
C333 C329 1.385 . S
C333 C332 1.374 . S
C334 C331 1.499 . S
C334 C335 1.373 . S
C334 C336 1.389 . S
C335 H314 0.950 . S
C335 C334 1.373 . S
C335 C351 1.377 . S
C336 C334 1.389 . S
C336 C337 1.524 1_455 S
C336 C350 1.377 . S
C337 C336 1.524 1_655 S
C337 C338 1.397 . S
C337 C342 1.363 . S
C338 H315 0.950 1_655 S
C338 C337 1.397 . S
C338 C339 1.334 . S
C339 H316 0.950 . S
C339 C338 1.334 . S
C339 C340 1.287 . S
C340 C339 1.287 . S
C340 C341 1.524 . S
C340 H359 0.913 . S
C341 H317 0.950 . S
C341 C340 1.524 . S
C341 C342 1.415 . S
C342 H318 0.950 . S
C342 C337 1.363 . S
C342 C341 1.415 . S
C343 H319 0.951 . S
C343 C344 1.366 . S
C343 C345 1.388 . S
C344 C343 1.366 . S
C344 C348 1.385 . S
C345 H320 0.951 . S
C345 C343 1.388 . S
C345 C346 1.366 . S
C346 C345 1.366 . S
C346 C347 1.414 . S
C346 C349 1.499 . S
C347 H321 0.950 1_455 S
C347 C346 1.414 . S
C347 C348 1.374 . S
C348 H322 0.950 1_455 S
C348 C344 1.385 . S
C348 C347 1.374 . S
C349 C346 1.499 . S
C349 C350 1.373 . S
C349 C351 1.389 . S
C350 H323 0.950 1_455 S
C350 C336 1.377 . S
C350 C349 1.373 . S
C351 C335 1.377 . S
C351 C349 1.389 . S
C351 C352 1.524 . S
C352 C351 1.524 . S
C352 C353 1.397 . S
C352 C357 1.363 . S
C353 H324 0.950 . S
C353 C352 1.397 . S
C353 C354 1.334 . S
C354 H325 0.950 . S
C354 C353 1.334 . S
C354 C355 1.287 . S
C355 C354 1.287 . S
C355 C356 1.524 . S
C355 H358 0.999 . S
C356 H326 0.950 . S
C356 C355 1.524 . S
C356 C357 1.415 . S
C357 H327 0.950 . S
C357 C352 1.363 . S
C357 C356 1.415 . S
H358 C355 0.999 . S
H359 C340 0.913 . S
H360 C378 0.951 . S
H361 C380 0.951 . S
H362 C382 0.950 . S
H363 C383 0.950 . S
H364 C385 0.950 . S
H365 C388 0.950 . S
H366 C389 0.950 . S
H367 C391 0.950 . S
H368 C392 0.950 . S
H369 C393 0.951 . S
H370 C395 0.951 . S
H371 C397 0.950 . S
H372 C398 0.950 . S
H373 C400 0.950 . S
H374 C403 0.950 . S
H375 C404 0.950 . S
H376 C406 0.950 . S
H377 C407 0.950 . S
C378 H360 0.951 . S
C378 C379 1.366 . S
C378 C380 1.388 . S
C379 C378 1.366 . S
C379 C383 1.385 . S
C380 H361 0.951 . S
C380 C378 1.388 . S
C380 C381 1.366 . S
C381 C380 1.366 . S
C381 C382 1.414 . S
C381 C384 1.499 . S
C382 H362 0.950 . S
C382 C381 1.414 . S
C382 C383 1.374 . S
C383 H363 0.950 . S
C383 C379 1.385 . S
C383 C382 1.374 . S
C384 C381 1.499 . S
C384 C385 1.373 . S
C384 C386 1.389 . S
C385 H364 0.950 . S
C385 C384 1.373 . S
C385 C401 1.377 . S
C386 C384 1.389 . S
C386 C387 1.524 . S
C386 C400 1.377 . S
C387 C386 1.524 . S
C387 C388 1.397 . S
C387 C392 1.363 . S
C388 H365 0.950 . S
C388 C387 1.397 . S
C388 C389 1.334 . S
C389 H366 0.950 . S
C389 C388 1.334 . S
C389 C390 1.287 . S
C390 C389 1.287 . S
C390 C391 1.524 . S
C390 H409 0.913 . S
C391 H367 0.950 . S
C391 C390 1.524 . S
C391 C392 1.415 . S
C392 H368 0.950 . S
C392 C387 1.363 . S
C392 C391 1.415 . S
C393 H369 0.951 . S
C393 C394 1.366 . S
C393 C395 1.388 . S
C394 C393 1.366 . S
C394 C398 1.385 . S
C395 H370 0.951 . S
C395 C393 1.388 . S
C395 C396 1.366 . S
C396 C395 1.366 . S
C396 C397 1.414 . S
C396 C399 1.499 . S
C397 H371 0.950 . S
C397 C396 1.414 . S
C397 C398 1.374 . S
C398 H372 0.950 . S
C398 C394 1.385 . S
C398 C397 1.374 . S
C399 C396 1.499 . S
C399 C400 1.373 . S
C399 C401 1.389 . S
C400 H373 0.950 . S
C400 C386 1.377 . S
C400 C399 1.373 . S
C401 C385 1.377 . S
C401 C399 1.389 . S
C401 C402 1.524 . S
C402 C401 1.524 . S
C402 C403 1.397 . S
C402 C407 1.363 . S
C403 H374 0.950 . S
C403 C402 1.397 . S
C403 C404 1.334 . S
C404 H375 0.950 . S
C404 C403 1.334 . S
C404 C405 1.287 . S
C405 C404 1.287 . S
C405 C406 1.524 . S
C405 H408 0.999 . S
C406 H376 0.950 . S
C406 C405 1.524 . S
C406 C407 1.415 . S
C407 H377 0.950 . S
C407 C402 1.363 . S
C407 C406 1.415 . S
H408 C405 0.999 . S
H409 C390 0.913 . S
H410 C428 0.951 . S
H411 C430 0.951 . S
H412 C432 0.950 . S
H413 C433 0.950 1_455 S
H414 C435 0.950 . S
H415 C438 0.950 . S
H416 C439 0.950 . S
H417 C441 0.950 . S
H418 C442 0.950 . S
H419 C443 0.951 . S
H420 C445 0.951 . S
H421 C447 0.950 . S
H422 C448 0.950 . S
H423 C450 0.950 . S
H424 C453 0.950 . S
H425 C454 0.950 . S
H426 C456 0.950 . S
H427 C457 0.950 . S
C428 H410 0.951 . S
C428 C429 1.366 . S
C428 C430 1.388 . S
C429 C428 1.366 . S
C429 C433 1.385 . S
C430 H411 0.951 . S
C430 C428 1.388 . S
C430 C431 1.366 . S
C431 C430 1.366 . S
C431 C432 1.414 . S
C431 C434 1.499 . S
C432 H412 0.950 . S
C432 C431 1.414 . S
C432 C433 1.374 . S
C433 H413 0.950 1_655 S
C433 C429 1.385 . S
C433 C432 1.374 . S
C434 C431 1.499 . S
C434 C435 1.373 . S
C434 C436 1.389 . S
C435 H414 0.950 . S
C435 C434 1.373 . S
C435 C451 1.377 . S
C436 C434 1.389 . S
C436 C437 1.524 . S
C436 C450 1.377 . S
C437 C436 1.524 . S
C437 C438 1.397 . S
C437 C442 1.363 . S
C438 H415 0.950 . S
C438 C437 1.397 . S
C438 C439 1.334 . S
C439 H416 0.950 . S
C439 C438 1.334 . S
C439 C440 1.287 . S
C440 C439 1.287 . S
C440 C441 1.524 . S
C440 H459 0.913 . S
C441 H417 0.950 . S
C441 C440 1.524 . S
C441 C442 1.415 . S
C442 H418 0.950 . S
C442 C437 1.363 . S
C442 C441 1.415 . S
C443 H419 0.951 . S
C443 C444 1.366 . S
C443 C445 1.388 . S
C444 C443 1.366 . S
C444 C448 1.385 . S
C445 H420 0.951 . S
C445 C443 1.388 . S
C445 C446 1.366 . S
C446 C445 1.366 . S
C446 C447 1.414 . S
C446 C449 1.499 . S
C447 H421 0.950 . S
C447 C446 1.414 . S
C447 C448 1.374 . S
C448 H422 0.950 . S
C448 C444 1.385 . S
C448 C447 1.374 . S
C449 C446 1.499 . S
C449 C450 1.373 . S
C449 C451 1.389 . S
C450 H423 0.950 . S
C450 C436 1.377 . S
C450 C449 1.373 . S
C451 C435 1.377 . S
C451 C449 1.389 . S
C451 C452 1.524 . S
C452 C451 1.524 . S
C452 C453 1.397 . S
C452 C457 1.363 1_655 S
C453 H424 0.950 . S
C453 C452 1.397 . S
C453 C454 1.334 . S
C454 H425 0.950 . S
C454 C453 1.334 . S
C454 C455 1.287 1_655 S
C455 C454 1.287 1_455 S
C455 C456 1.524 . S
C455 H458 0.999 . S
C456 H426 0.950 . S
C456 C455 1.524 . S
C456 C457 1.415 . S
C457 H427 0.950 . S
C457 C452 1.363 1_455 S
C457 C456 1.415 . S
H458 C455 0.999 . S
H459 C440 0.913 . S
H460 C478 0.951 . S
H461 C480 0.951 . S
H462 C482 0.950 . S
H463 C483 0.950 . S
H464 C485 0.950 . S
H465 C488 0.950 . S
H466 C489 0.950 . S
H467 C491 0.950 . S
H468 C492 0.949 . S
H469 C493 0.951 . S
H470 C495 0.951 . S
H471 C497 0.950 . S
H472 C498 0.950 1_545 S
H473 C500 0.950 . S
H474 C503 0.950 . S
H475 C504 0.950 . S
H476 C506 0.950 . S
H477 C507 0.950 . S
C478 H460 0.951 . S
C478 C479 1.366 . S
C478 C480 1.388 . S
C479 C478 1.366 . S
C479 C483 1.385 . S
C480 H461 0.951 . S
C480 C478 1.388 . S
C480 C481 1.366 . S
C481 C480 1.366 . S
C481 C482 1.414 . S
C481 C484 1.499 . S
C482 H462 0.950 . S
C482 C481 1.414 . S
C482 C483 1.374 . S
C483 H463 0.950 . S
C483 C479 1.385 . S
C483 C482 1.374 . S
C484 C481 1.499 . S
C484 C485 1.373 . S
C484 C486 1.389 . S
C485 H464 0.950 . S
C485 C484 1.373 . S
C485 C501 1.377 . S
C486 C484 1.389 . S
C486 C487 1.524 . S
C486 C500 1.377 . S
C487 C486 1.524 . S
C487 C488 1.397 . S
C487 C492 1.366 1_565 S
C488 H465 0.950 . S
C488 C487 1.397 . S
C488 C489 1.334 . S
C489 H466 0.950 . S
C489 C488 1.334 . S
C489 C490 1.287 . S
C490 C489 1.287 . S
C490 C491 1.524 1_565 S
C490 H509 0.913 1_565 S
C491 H467 0.950 . S
C491 C490 1.524 1_545 S
C491 C492 1.413 . S
C492 H468 0.949 . S
C492 C487 1.366 1_545 S
C492 C491 1.413 . S
C493 H469 0.951 . S
C493 C494 1.366 . S
C493 C495 1.388 . S
C494 C493 1.366 . S
C494 C498 1.385 . S
C495 H470 0.951 . S
C495 C493 1.388 . S
C495 C496 1.366 . S
C496 C495 1.366 . S
C496 C497 1.414 . S
C496 C499 1.499 . S
C497 H471 0.950 . S
C497 C496 1.414 . S
C497 C498 1.374 . S
C498 H472 0.950 1_565 S
C498 C494 1.385 . S
C498 C497 1.374 . S
C499 C496 1.499 . S
C499 C500 1.373 . S
C499 C501 1.389 . S
C500 H473 0.950 . S
C500 C486 1.377 . S
C500 C499 1.373 . S
C501 C485 1.377 . S
C501 C499 1.389 . S
C501 C502 1.524 . S
C502 C501 1.524 . S
C502 C503 1.397 . S
C502 C507 1.363 . S
C503 H474 0.950 . S
C503 C502 1.397 . S
C503 C504 1.334 . S
C504 H475 0.950 . S
C504 C503 1.334 . S
C504 C505 1.287 . S
C505 C504 1.287 . S
C505 C506 1.524 . S
C505 H508 0.999 . S
C506 H476 0.950 . S
C506 C505 1.524 . S
C506 C507 1.415 . S
C507 H477 0.950 . S
C507 C502 1.363 . S
C507 C506 1.415 . S
H508 C505 0.999 . S
H509 C490 0.913 1_545 S
H510 C528 0.951 . S
H511 C530 0.951 . S
H512 C532 0.932 1_545 S
H513 C533 0.950 . S
H514 C535 0.950 . S
H515 C538 0.950 . S
H516 C539 0.950 . S
H517 C541 0.950 . S
H518 C542 0.950 . S
H519 C543 0.951 . S
H520 C545 0.951 . S
H521 C547 0.950 1_565 S
H522 C548 0.950 . S
H523 C550 0.950 . S
H524 C553 0.950 . S
H525 C554 0.950 . S
H526 C556 0.950 . S
H527 C557 0.950 . S
C528 H510 0.951 . S
C528 C529 1.366 . S
C528 C530 1.388 . S
C529 C528 1.366 . S
C529 C533 1.385 . S
C530 H511 0.951 . S
C530 C528 1.388 . S
C530 C531 1.366 . S
C531 C530 1.366 . S
C531 C532 1.414 . S
C531 C534 1.499 . S
C532 H512 0.932 1_565 S
C532 C531 1.414 . S
C532 C533 1.374 . S
C533 H513 0.950 . S
C533 C529 1.385 . S
C533 C532 1.374 . S
C534 C531 1.499 . S
C534 C535 1.373 1_565 S
C534 C536 1.389 . S
C535 H514 0.950 . S
C535 C534 1.373 1_545 S
C535 C551 1.377 . S
C536 C534 1.389 . S
C536 C537 1.524 . S
C536 C550 1.377 . S
C537 C536 1.524 . S
C537 C538 1.397 . S
C537 C542 1.363 . S
C538 H515 0.950 . S
C538 C537 1.397 . S
C538 C539 1.334 . S
C539 H516 0.950 . S
C539 C538 1.334 . S
C539 C540 1.287 . S
C540 C539 1.287 . S
C540 C541 1.524 . S
C540 H559 0.913 . S
C541 H517 0.950 . S
C541 C540 1.524 . S
C541 C542 1.415 . S
C542 H518 0.950 . S
C542 C537 1.363 . S
C542 C541 1.415 . S
C543 H519 0.951 . S
C543 C544 1.366 . S
C543 C545 1.388 . S
C544 C543 1.366 . S
C544 C548 1.385 . S
C545 H520 0.951 . S
C545 C543 1.388 . S
C545 C546 1.366 . S
C546 C545 1.366 . S
C546 C547 1.414 . S
C546 C549 1.499 . S
C547 H521 0.950 1_545 S
C547 C546 1.414 . S
C547 C548 1.374 . S
C548 H522 0.950 . S
C548 C544 1.385 . S
C548 C547 1.374 . S
C549 C546 1.499 . S
C549 C550 1.373 1_545 S
C549 C551 1.389 . S
C550 H523 0.950 . S
C550 C536 1.377 . S
C550 C549 1.373 1_565 S
C551 C535 1.377 . S
C551 C549 1.389 . S
C551 C552 1.524 . S
C552 C551 1.524 . S
C552 C553 1.397 . S
C552 C557 1.363 . S
C553 H524 0.950 . S
C553 C552 1.397 . S
C553 C554 1.334 . S
C554 H525 0.950 . S
C554 C553 1.334 . S
C554 C555 1.287 . S
C555 C554 1.287 . S
C555 C556 1.524 . S
C555 H558 0.999 . S
C556 H526 0.950 . S
C556 C555 1.524 . S
C556 C557 1.415 . S
C557 H527 0.950 . S
C557 C552 1.363 . S
C557 C556 1.415 . S
H558 C555 0.999 . S
H559 C540 0.913 . S
H560 C578 0.951 . S
H561 C580 0.951 . S
H562 C582 0.950 . S
H563 C583 0.950 . S
H564 C585 0.950 . S
H565 C588 0.950 . S
H566 C589 0.950 . S
H567 C591 0.950 . S
H568 C592 0.950 . S
H569 C593 0.951 . S
H570 C595 0.951 . S
H571 C597 0.950 . S
H572 C598 0.950 . S
H573 C600 0.950 . S
H574 C603 0.950 . S
H575 C604 0.950 . S
H576 C606 0.950 . S
H577 C607 0.950 . S
C578 H560 0.951 . S
C578 C579 1.366 . S
C578 C580 1.388 . S
C579 C578 1.366 . S
C579 C583 1.385 . S
C580 H561 0.951 . S
C580 C578 1.388 . S
C580 C581 1.366 . S
C581 C580 1.366 . S
C581 C582 1.414 . S
C581 C584 1.499 . S
C582 H562 0.950 . S
C582 C581 1.414 . S
C582 C583 1.374 . S
C583 H563 0.950 . S
C583 C579 1.385 . S
C583 C582 1.374 . S
C584 C581 1.499 . S
C584 C585 1.373 . S
C584 C586 1.389 . S
C585 H564 0.950 . S
C585 C584 1.373 . S
C585 C601 1.377 . S
C586 C584 1.389 . S
C586 C587 1.524 . S
C586 C600 1.377 . S
C587 C586 1.524 . S
C587 C588 1.397 . S
C587 C592 1.363 . S
C588 H565 0.950 . S
C588 C587 1.397 . S
C588 C589 1.334 . S
C589 H566 0.950 . S
C589 C588 1.334 . S
C589 C590 1.287 . S
C590 C589 1.287 . S
C590 C591 1.524 . S
C590 H609 0.913 . S
C591 H567 0.950 . S
C591 C590 1.524 . S
C591 C592 1.415 . S
C592 H568 0.950 . S
C592 C587 1.363 . S
C592 C591 1.415 . S
C593 H569 0.951 . S
C593 C594 1.366 . S
C593 C595 1.388 . S
C594 C593 1.366 . S
C594 C598 1.385 . S
C595 H570 0.951 . S
C595 C593 1.388 . S
C595 C596 1.366 . S
C596 C595 1.366 . S
C596 C597 1.414 . S
C596 C599 1.499 . S
C597 H571 0.950 . S
C597 C596 1.414 . S
C597 C598 1.374 . S
C598 H572 0.950 . S
C598 C594 1.385 . S
C598 C597 1.374 . S
C599 C596 1.499 . S
C599 C600 1.373 . S
C599 C601 1.389 . S
C600 H573 0.950 . S
C600 C586 1.377 . S
C600 C599 1.373 . S
C601 C585 1.377 . S
C601 C599 1.389 . S
C601 C602 1.524 . S
C602 C601 1.524 . S
C602 C603 1.397 . S
C602 C607 1.363 . S
C603 H574 0.950 . S
C603 C602 1.397 . S
C603 C604 1.334 1_655 S
C604 H575 0.950 . S
C604 C603 1.334 1_455 S
C604 C605 1.287 . S
C605 C604 1.287 . S
C605 C606 1.524 . S
C605 H608 0.999 . S
C606 H576 0.950 . S
C606 C605 1.524 . S
C606 C607 1.415 1_455 S
C607 H577 0.950 . S
C607 C602 1.363 . S
C607 C606 1.415 1_655 S
H608 C605 0.999 . S
H609 C590 0.913 . S
H610 C628 0.951 . S
H611 C630 0.951 1_565 S
H612 C632 0.950 . S
H613 C633 0.950 . S
H614 C635 0.950 . S
H615 C638 0.950 . S
H616 C639 0.950 . S
H617 C641 0.950 . S
H618 C642 0.950 . S
H619 C643 0.951 . S
H620 C645 0.951 . S
H621 C647 0.950 . S
H622 C648 0.950 . S
H623 C650 0.950 . S
H624 C653 0.950 . S
H625 C654 0.950 . S
H626 C656 0.950 . S
H627 C657 0.950 . S
C628 H610 0.951 . S
C628 C629 1.366 . S
C628 C630 1.388 . S
C629 C628 1.366 . S
C629 C633 1.385 . S
C630 H611 0.951 1_545 S
C630 C628 1.388 . S
C630 C631 1.366 . S
C631 C630 1.366 . S
C631 C632 1.414 . S
C631 C634 1.499 1_545 S
C632 H612 0.950 . S
C632 C631 1.414 . S
C632 C633 1.374 . S
C633 H613 0.950 . S
C633 C629 1.385 . S
C633 C632 1.374 . S
C634 C631 1.499 1_565 S
C634 C635 1.373 1_565 S
C634 C636 1.389 . S
C635 H614 0.950 . S
C635 C634 1.373 1_545 S
C635 C651 1.377 1_545 S
C636 C634 1.389 . S
C636 C637 1.524 . S
C636 C650 1.377 . S
C637 C636 1.524 . S
C637 C638 1.397 . S
C637 C642 1.363 . S
C638 H615 0.950 . S
C638 C637 1.397 . S
C638 C639 1.334 . S
C639 H616 0.950 . S
C639 C638 1.334 . S
C639 C640 1.287 . S
C640 C639 1.287 . S
C640 C641 1.524 . S
C640 H659 0.913 . S
C641 H617 0.950 . S
C641 C640 1.524 . S
C641 C642 1.415 . S
C642 H618 0.950 . S
C642 C637 1.363 . S
C642 C641 1.415 . S
C643 H619 0.951 . S
C643 C644 1.366 . S
C643 C645 1.388 . S
C644 C643 1.366 . S
C644 C648 1.385 . S
C645 H620 0.951 . S
C645 C643 1.388 . S
C645 C646 1.366 . S
C646 C645 1.366 . S
C646 C647 1.414 . S
C646 C649 1.499 . S
C647 H621 0.950 . S
C647 C646 1.414 . S
C647 C648 1.374 . S
C648 H622 0.950 . S
C648 C644 1.385 . S
C648 C647 1.374 . S
C649 C646 1.499 . S
C649 C650 1.373 . S
C649 C651 1.389 . S
C650 H623 0.950 . S
C650 C636 1.377 . S
C650 C649 1.373 . S
C651 C635 1.377 1_565 S
C651 C649 1.389 . S
C651 C652 1.524 1_565 S
C652 C651 1.524 1_545 S
C652 C653 1.397 . S
C652 C657 1.363 . S
C653 H624 0.950 . S
C653 C652 1.397 . S
C653 C654 1.334 . S
C654 H625 0.950 . S
C654 C653 1.334 . S
C654 C655 1.287 . S
C655 C654 1.287 . S
C655 C656 1.524 . S
C655 H658 0.999 . S
C656 H626 0.950 . S
C656 C655 1.524 . S
C656 C657 1.415 . S
C657 H627 0.950 . S
C657 C652 1.363 . S
C657 C656 1.415 . S
H658 C655 0.999 . S
H659 C640 0.913 . S
H660 C678 0.951 . S
H661 C680 0.951 . S
H662 C682 0.950 . S
H663 C683 0.950 . S
H664 C685 0.950 . S
H665 C688 0.950 . S
H666 C689 0.950 . S
H667 C691 0.950 . S
H668 C692 0.950 . S
H669 C693 0.951 . S
H670 C695 0.951 . S
H671 C697 0.950 . S
H672 C698 0.950 . S
H673 C700 0.950 . S
H674 C703 0.950 . S
H675 C704 0.950 . S
H676 C706 0.950 . S
H677 C707 0.950 . S
C678 H660 0.951 . S
C678 C679 1.366 . S
C678 C680 1.388 . S
C679 C678 1.366 . S
C679 C683 1.385 . S
C680 H661 0.951 . S
C680 C678 1.388 . S
C680 C681 1.366 . S
C681 C680 1.366 . S
C681 C682 1.414 . S
C681 C684 1.499 . S
C682 H662 0.950 . S
C682 C681 1.414 . S
C682 C683 1.374 . S
C683 H663 0.950 . S
C683 C679 1.385 . S
C683 C682 1.374 . S
C684 C681 1.499 . S
C684 C685 1.373 . S
C684 C686 1.389 . S
C685 H664 0.950 . S
C685 C684 1.373 . S
C685 C701 1.377 . S
C686 C684 1.389 . S
C686 C687 1.524 . S
C686 C700 1.377 . S
C687 C686 1.524 . S
C687 C688 1.397 . S
C687 C692 1.363 . S
C688 H665 0.950 . S
C688 C687 1.397 . S
C688 C689 1.334 . S
C689 H666 0.950 . S
C689 C688 1.334 . S
C689 C690 1.287 . S
C690 C689 1.287 . S
C690 C691 1.524 . S
C690 H709 0.913 . S
C691 H667 0.950 . S
C691 C690 1.524 . S
C691 C692 1.415 . S
C692 H668 0.950 . S
C692 C687 1.363 . S
C692 C691 1.415 . S
C693 H669 0.951 . S
C693 C694 1.366 . S
C693 C695 1.388 . S
C694 C693 1.366 . S
C694 C698 1.385 . S
C695 H670 0.951 . S
C695 C693 1.388 . S
C695 C696 1.366 . S
C696 C695 1.366 . S
C696 C697 1.414 . S
C696 C699 1.499 . S
C697 H671 0.950 . S
C697 C696 1.414 . S
C697 C698 1.374 . S
C698 H672 0.950 . S
C698 C694 1.385 . S
C698 C697 1.374 . S
C699 C696 1.499 . S
C699 C700 1.373 . S
C699 C701 1.389 . S
C700 H673 0.950 . S
C700 C686 1.377 . S
C700 C699 1.373 . S
C701 C685 1.377 . S
C701 C699 1.389 . S
C701 C702 1.524 . S
C702 C701 1.524 . S
C702 C703 1.397 . S
C702 C707 1.363 . S
C703 H674 0.950 . S
C703 C702 1.397 . S
C703 C704 1.334 . S
C704 H675 0.950 . S
C704 C703 1.334 . S
C704 C705 1.287 . S
C705 C704 1.287 . S
C705 C706 1.524 . S
C705 H708 0.999 . S
C706 H676 0.950 . S
C706 C705 1.524 . S
C706 C707 1.415 . S
C707 H677 0.950 . S
C707 C702 1.363 . S
C707 C706 1.415 . S
H708 C705 0.999 . S
H709 C690 0.913 . S
H710 C728 0.951 . S
H711 C730 0.951 . S
H712 C732 0.950 . S
H713 C733 0.950 . S
H714 C735 0.950 . S
H715 C738 0.950 . S
H716 C739 0.950 . S
H717 C741 0.950 1_455 S
H718 C742 0.950 . S
H719 C743 0.951 . S
H720 C745 0.951 . S
H721 C747 0.950 . S
H722 C748 0.950 . S
H723 C750 0.950 . S
H724 C753 0.950 . S
H725 C754 0.950 . S
H726 C756 0.950 . S
H727 C757 0.950 . S
C728 H710 0.951 . S
C728 C729 1.366 . S
C728 C730 1.388 . S
C729 C728 1.366 . S
C729 C733 1.385 . S
C730 H711 0.951 . S
C730 C728 1.388 . S
C730 C731 1.366 . S
C731 C730 1.366 . S
C731 C732 1.414 . S
C731 C734 1.499 . S
C732 H712 0.950 . S
C732 C731 1.414 . S
C732 C733 1.374 . S
C733 H713 0.950 . S
C733 C729 1.385 . S
C733 C732 1.374 . S
C734 C731 1.499 . S
C734 C735 1.373 . S
C734 C736 1.389 . S
C735 H714 0.950 . S
C735 C734 1.373 . S
C735 C751 1.377 . S
C736 C734 1.389 . S
C736 C737 1.524 . S
C736 C750 1.377 . S
C737 C736 1.524 . S
C737 C738 1.397 . S
C737 C742 1.363 . S
C738 H715 0.950 . S
C738 C737 1.397 . S
C738 C739 1.334 . S
C739 H716 0.950 . S
C739 C738 1.334 . S
C739 C740 1.287 . S
C740 C739 1.287 . S
C740 C741 1.524 . S
C740 H759 0.913 . S
C741 H717 0.950 1_655 S
C741 C740 1.524 . S
C741 C742 1.415 . S
C742 H718 0.950 . S
C742 C737 1.363 . S
C742 C741 1.415 . S
C743 H719 0.951 . S
C743 C744 1.366 . S
C743 C745 1.388 . S
C744 C743 1.366 . S
C744 C748 1.385 . S
C745 H720 0.951 . S
C745 C743 1.388 . S
C745 C746 1.366 . S
C746 C745 1.366 . S
C746 C747 1.414 . S
C746 C749 1.499 . S
C747 H721 0.950 . S
C747 C746 1.414 . S
C747 C748 1.374 . S
C748 H722 0.950 . S
C748 C744 1.385 . S
C748 C747 1.374 . S
C749 C746 1.499 . S
C749 C750 1.373 . S
C749 C751 1.389 . S
C750 H723 0.950 . S
C750 C736 1.377 . S
C750 C749 1.373 . S
C751 C735 1.377 . S
C751 C749 1.389 . S
C751 C752 1.524 . S
C752 C751 1.524 . S
C752 C753 1.397 . S
C752 C757 1.363 . S
C753 H724 0.950 . S
C753 C752 1.397 . S
C753 C754 1.334 . S
C754 H725 0.950 . S
C754 C753 1.334 . S
C754 C755 1.287 . S
C755 C754 1.287 . S
C755 C756 1.524 . S
C755 H758 0.999 . S
C756 H726 0.950 . S
C756 C755 1.524 . S
C756 C757 1.415 . S
C757 H727 0.950 . S
C757 C752 1.363 . S
C757 C756 1.415 . S
H758 C755 0.999 . S
H759 C740 0.913 . S
C179 C89 0.931 1_556 S
C194 C9 0.935 . S
C229 C129 1.064 . S
C244 C49 1.052 . S
C279 C98 1.021 . S
C294 C18 1.021 . S
C329 C58 0.721 . S
C344 C138 0.722 . S
C379 C50 4.447 . S
C394 C10 4.406 . S
C429 C59 4.625 1_655 S
C444 C99 4.631 . S
C479 C139 4.705 1_655 S
C494 C90 4.601 . S
C529 C130 4.367 . S
C544 C19 4.439 . S
C579 C95 0.996 . S
C594 C126 1.020 . S
C629 C6 1.084 . S
C644 C135 1.032 . S
C679 C55 0.935 . S
C694 C15 1.012 . S
C729 C86 1.066 . S
C744 C46 1.114 . S
