# Generated by pormake.
# Topology wft, (7)-cn, num edge types: 1
# Building blocks:
#     Node 0, Type 0, BuildingBlock: NUHQUE_clean_sbu_2, # of connection points: 7
#     Node 1, Type 0, BuildingBlock: NUHQUE_clean_sbu_2, # of connection points: 7
#     Node 2, Type 0, BuildingBlock: NUHQUE_clean_sbu_2, # of connection points: 7
#     Node 3, Type 0, BuildingBlock: NUHQUE_clean_sbu_2, # of connection points: 7
#     Node 4, Type 0, BuildingBlock: NUHQUE_clean_sbu_2, # of connection points: 7
#     Node 5, Type 0, BuildingBlock: NUHQUE_clean_sbu_2, # of connection points: 7
#     Node 6, Type 0, BuildingBlock: NUHQUE_clean_sbu_2, # of connection points: 7
#     Node 7, Type 0, BuildingBlock: NUHQUE_clean_sbu_2, # of connection points: 7
#     Edge 8, Type (0, 0), BuildingBlock: UVAHIK_clean_linker_0, # of connection points: 2
#     Edge 9, Type (0, 0), BuildingBlock: UVAHIK_clean_linker_0, # of connection points: 2
#     Edge 10, Type (0, 0), BuildingBlock: UVAHIK_clean_linker_0, # of connection points: 2
#     Edge 11, Type (0, 0), BuildingBlock: UVAHIK_clean_linker_0, # of connection points: 2
#     Edge 12, Type (0, 0), BuildingBlock: UVAHIK_clean_linker_0, # of connection points: 2
#     Edge 13, Type (0, 0), BuildingBlock: UVAHIK_clean_linker_0, # of connection points: 2
#     Edge 14, Type (0, 0), BuildingBlock: UVAHIK_clean_linker_0, # of connection points: 2
#     Edge 15, Type (0, 0), BuildingBlock: UVAHIK_clean_linker_0, # of connection points: 2
#     Edge 16, Type (0, 0), BuildingBlock: UVAHIK_clean_linker_0, # of connection points: 2
#     Edge 17, Type (0, 0), BuildingBlock: UVAHIK_clean_linker_0, # of connection points: 2
#     Edge 18, Type (0, 0), BuildingBlock: UVAHIK_clean_linker_0, # of connection points: 2
#     Edge 19, Type (0, 0), BuildingBlock: UVAHIK_clean_linker_0, # of connection points: 2
#     Edge 20, Type (0, 0), BuildingBlock: UVAHIK_clean_linker_0, # of connection points: 2
#     Edge 21, Type (0, 0), BuildingBlock: UVAHIK_clean_linker_0, # of connection points: 2
#     Edge 22, Type (0, 0), BuildingBlock: UVAHIK_clean_linker_0, # of connection points: 2
#     Edge 23, Type (0, 0), BuildingBlock: UVAHIK_clean_linker_0, # of connection points: 2
#     Edge 24, Type (0, 0), BuildingBlock: UVAHIK_clean_linker_0, # of connection points: 2
#     Edge 25, Type (0, 0), BuildingBlock: UVAHIK_clean_linker_0, # of connection points: 2
#     Edge 26, Type (0, 0), BuildingBlock: UVAHIK_clean_linker_0, # of connection points: 2
#     Edge 27, Type (0, 0), BuildingBlock: UVAHIK_clean_linker_0, # of connection points: 2
#     Edge 28, Type (0, 0), BuildingBlock: UVAHIK_clean_linker_0, # of connection points: 2
#     Edge 29, Type (0, 0), BuildingBlock: UVAHIK_clean_linker_0, # of connection points: 2
#     Edge 30, Type (0, 0), BuildingBlock: UVAHIK_clean_linker_0, # of connection points: 2
#     Edge 31, Type (0, 0), BuildingBlock: UVAHIK_clean_linker_0, # of connection points: 2
#     Edge 32, Type (0, 0), BuildingBlock: UVAHIK_clean_linker_0, # of connection points: 2
#     Edge 33, Type (0, 0), BuildingBlock: UVAHIK_clean_linker_0, # of connection points: 2
#     Edge 34, Type (0, 0), BuildingBlock: UVAHIK_clean_linker_0, # of connection points: 2
#     Edge 35, Type (0, 0), BuildingBlock: UVAHIK_clean_linker_0, # of connection points: 2
# Relax obj value: 0.095
# Max RMSD: 0.180
# Mean RMSD: 0.180
data_MOF--net-wft--node1-NUHQUE_clean_sbu_2--edge1-UVAHIK_clean_linker_0
_symmetry_space_group_name_H-M    P1
_symmetry_Int_Tables_number       1
_symmetry_cell_setting            triclinic
loop_
_symmetry_equiv_pos_as_xyz
'x, y, z'
_cell_length_a     41.024958
_cell_length_b     40.869264
_cell_length_c     45.704457
_cell_angle_alpha  90.204442
_cell_angle_beta   89.947433
_cell_angle_gamma 89.988414
loop_
_atom_site_label
_atom_site_type_symbol
_atom_site_fract_x
_atom_site_fract_y
_atom_site_fract_z
_atom_type_partial_charge
O0 O 0.32096 0.30807 0.40429 0.0
Tb1 Tb 0.34219 0.2598 0.39786 0.0
Eu2 Eu 0.33055 0.18278 0.35191 0.0
C3 C 0.29116 0.31177 0.4145 0.0
O4 O 0.27261 0.28589 0.4179 0.0
C5 C 0.30664 0.19886 0.41639 0.0
O6 O 0.36122 0.13723 0.34827 0.0
C7 C 0.28198 0.18173 0.31507 0.0
C8 C 0.39179 0.13858 0.35687 0.0
O9 O 0.40303 0.16608 0.36789 0.0
C10 C 0.38003 0.24624 0.33847 0.0
C11 C 0.26666 0.18806 0.28591 0.0
C12 C 0.23357 0.19729 0.28613 0.0
C13 C 0.21585 0.20061 0.26003 0.0
C14 C 0.23172 0.19489 0.23334 0.0
C15 C 0.26455 0.18529 0.23195 0.0
C16 C 0.28229 0.18209 0.25852 0.0
O17 O 0.30159 0.22694 0.40347 0.0
O18 O 0.3187 0.17505 0.4003 0.0
O19 O 0.36517 0.27454 0.43878 0.0
O20 O 0.38365 0.23287 0.41636 0.0
C21 C 0.38697 0.25153 0.43934 0.0
O22 O 0.37219 0.21491 0.33673 0.0
O23 O 0.36507 0.2678 0.35546 0.0
O24 O 0.3029 0.15756 0.31784 0.0
O25 O 0.28724 0.2063 0.33328 0.0
H26 H 0.22132 0.20127 0.30688 0.0
H27 H 0.21796 0.19681 0.21318 0.0
H28 H 0.30743 0.17404 0.25794 0.0
O29 O 0.3068 0.65942 0.6301 0.0
Tb30 Tb 0.25711 0.64111 0.63375 0.0
Eu31 Eu 0.1785 0.65724 0.66966 0.0
C32 C 0.31324 0.68923 0.62088 0.0
O33 O 0.28924 0.7101 0.61745 0.0
C34 C 0.20195 0.67971 0.6059 0.0
O35 O 0.13093 0.63061 0.67524 0.0
C36 C 0.18421 0.70542 0.70684 0.0
C37 C 0.12818 0.60175 0.66266 0.0
O38 O 0.15262 0.59058 0.64693 0.0
C39 C 0.23342 0.60336 0.68895 0.0
C40 C 0.18521 0.71987 0.73693 0.0
C41 C 0.18603 0.75425 0.73862 0.0
C42 C 0.18448 0.77059 0.76564 0.0
C43 C 0.18272 0.75223 0.7914 0.0
C44 C 0.18243 0.71792 0.79082 0.0
C45 C 0.18362 0.70149 0.76332 0.0
O46 O 0.2298 0.68356 0.61955 0.0
O47 O 0.17688 0.66854 0.62077 0.0
O48 O 0.27715 0.61138 0.59846 0.0
O49 O 0.22853 0.60239 0.61228 0.0
C50 C 0.2514 0.59359 0.59408 0.0
O51 O 0.20256 0.61055 0.68434 0.0
O52 O 0.25749 0.62086 0.67791 0.0
O53 O 0.15604 0.6954 0.69636 0.0
O54 O 0.20955 0.68931 0.69634 0.0
H55 H 0.18694 0.76849 0.71865 0.0
H56 H 0.18195 0.76483 0.81233 0.0
H57 H 0.18283 0.67502 0.76244 0.0
O58 O 0.66164 0.67803 0.39939 0.0
Tb59 Tb 0.63924 0.72632 0.39699 0.0
Eu60 Eu 0.65552 0.80562 0.35797 0.0
C61 C 0.68821 0.67329 0.41498 0.0
O62 O 0.70321 0.69865 0.4264 0.0
C63 C 0.67548 0.78483 0.42265 0.0
O64 O 0.6288 0.85311 0.35112 0.0
C65 C 0.70453 0.79917 0.32197 0.0
C66 C 0.59948 0.85585 0.36255 0.0
O67 O 0.58778 0.83143 0.37794 0.0
C68 C 0.6011 0.74902 0.34085 0.0
C69 C 0.71873 0.7956 0.29197 0.0
C70 C 0.75278 0.79133 0.29018 0.0
C71 C 0.76881 0.78924 0.26301 0.0
C72 C 0.75025 0.79154 0.23734 0.0
C73 C 0.71634 0.79547 0.23811 0.0
C74 C 0.70035 0.79764 0.26566 0.0
O75 O 0.68022 0.75675 0.40933 0.0
O76 O 0.66575 0.80982 0.40691 0.0
O77 O 0.61254 0.70355 0.43269 0.0
O78 O 0.5999 0.75199 0.42037 0.0
C79 C 0.5934 0.72809 0.43826 0.0
O80 O 0.6096 0.78004 0.34325 0.0
O81 O 0.61731 0.72489 0.3534 0.0
O82 O 0.69235 0.82768 0.32981 0.0
O83 O 0.6901 0.77401 0.33453 0.0
H84 H 0.76688 0.78962 0.31017 0.0
H85 H 0.76234 0.79078 0.21623 0.0
H86 H 0.67419 0.80107 0.2666 0.0
O87 O 0.67862 0.31919 0.62289 0.0
Tb88 Tb 0.72611 0.34233 0.62724 0.0
Eu89 Eu 0.80349 0.33082 0.67397 0.0
C90 C 0.67517 0.29103 0.60917 0.0
O91 O 0.70127 0.27482 0.60097 0.0
C92 C 0.78798 0.30788 0.60902 0.0
O93 O 0.84875 0.36184 0.6763 0.0
C94 C 0.8067 0.28207 0.71057 0.0
C95 C 0.84677 0.39282 0.66878 0.0
O96 O 0.81874 0.40436 0.65953 0.0
C97 C 0.73956 0.38036 0.68726 0.0
C98 C 0.80012 0.26534 0.73906 0.0
C99 C 0.79272 0.23178 0.7374 0.0
C100 C 0.78864 0.21309 0.76271 0.0
C101 C 0.79177 0.22791 0.79013 0.0
C102 C 0.80045 0.26104 0.79307 0.0
C103 C 0.80421 0.28008 0.7672 0.0
O104 O 0.75988 0.30235 0.62172 0.0
O105 O 0.8116 0.31945 0.62548 0.0
O106 O 0.70856 0.36411 0.58676 0.0
O107 O 0.75146 0.3834 0.60625 0.0
C108 C 0.73131 0.38601 0.58435 0.0
O109 O 0.77044 0.37154 0.68986 0.0
O110 O 0.71836 0.36676 0.66911 0.0
O111 O 0.82884 0.30527 0.70917 0.0
O112 O 0.78305 0.28523 0.69122 0.0
H113 H 0.79086 0.21986 0.71622 0.0
H114 H 0.78867 0.21295 0.8095 0.0
H115 H 0.81132 0.30553 0.76891 0.0
O116 O 0.82217 0.17702 0.12406 0.0
Tb117 Tb 0.84292 0.22548 0.13084 0.0
Eu118 Eu 0.83042 0.30282 0.17397 0.0
C119 C 0.79245 0.173 0.11381 0.0
O120 O 0.77364 0.19867 0.11029 0.0
C121 C 0.80691 0.28513 0.10942 0.0
O122 O 0.85864 0.34991 0.17701 0.0
C123 C 0.78169 0.30235 0.2107 0.0
C124 C 0.88899 0.35025 0.16772 0.0
O125 O 0.90149 0.32333 0.1566 0.0
C126 C 0.88015 0.24116 0.18952 0.0
C127 C 0.76651 0.29612 0.23995 0.0
C128 C 0.73341 0.28698 0.23993 0.0
C129 C 0.71582 0.28377 0.26613 0.0
C130 C 0.73183 0.28948 0.29272 0.0
C131 C 0.76467 0.29907 0.29392 0.0
C132 C 0.78228 0.30216 0.26724 0.0
O133 O 0.80185 0.25704 0.12235 0.0
O134 O 0.81891 0.30912 0.12535 0.0
O135 O 0.86965 0.20912 0.09227 0.0
O136 O 0.88321 0.2541 0.11226 0.0
C137 C 0.8895 0.23381 0.09093 0.0
O138 O 0.87341 0.27276 0.18932 0.0
O139 O 0.86381 0.21908 0.17425 0.0
O140 O 0.80146 0.3274 0.20752 0.0
O141 O 0.78819 0.27762 0.19298 0.0
H142 H 0.72104 0.28301 0.21925 0.0
H143 H 0.71815 0.28761 0.31296 0.0
H144 H 0.80743 0.31021 0.26764 0.0
O145 O 0.17692 0.16787 0.90409 0.0
Tb146 Tb 0.22425 0.14509 0.89727 0.0
Eu147 Eu 0.30096 0.1523 0.85202 0.0
C148 C 0.17415 0.19689 0.91644 0.0
O149 O 0.20058 0.21396 0.92188 0.0
C150 C 0.28642 0.17771 0.91671 0.0
O151 O 0.34675 0.12201 0.85029 0.0
C152 C 0.30385 0.20072 0.81503 0.0
C153 C 0.34517 0.09108 0.85803 0.0
O154 O 0.31716 0.07916 0.86698 0.0
C155 C 0.23568 0.10618 0.83843 0.0
C156 C 0.2963 0.21753 0.78676 0.0
C157 C 0.28762 0.25078 0.78877 0.0
C158 C 0.28262 0.2696 0.76365 0.0
C159 C 0.28618 0.25518 0.73608 0.0
C160 C 0.29631 0.22249 0.7328 0.0
C161 C 0.30092 0.20333 0.75847 0.0
O162 O 0.25848 0.1844 0.90423 0.0
O163 O 0.30913 0.164 0.90044 0.0
O164 O 0.20851 0.12142 0.93746 0.0
O165 O 0.24982 0.10235 0.91511 0.0
C166 C 0.23091 0.09899 0.93783 0.0
O167 O 0.26745 0.11136 0.83751 0.0
O168 O 0.21519 0.12378 0.85432 0.0
O169 O 0.32527 0.17681 0.8156 0.0
O170 O 0.2811 0.1984 0.83537 0.0
H171 H 0.28544 0.26237 0.81008 0.0
H172 H 0.2824 0.27019 0.71685 0.0
H173 H 0.30913 0.17823 0.75648 0.0
O174 O 0.16473 0.80875 0.12408 0.0
Tb175 Tb 0.14293 0.76054 0.12873 0.0
Eu176 Eu 0.15067 0.68424 0.17109 0.0
C177 C 0.19358 0.81271 0.11198 0.0
O178 O 0.21126 0.78686 0.10572 0.0
C179 C 0.1756 0.69929 0.10612 0.0
O180 O 0.12171 0.63759 0.17401 0.0
C181 C 0.20033 0.68354 0.20675 0.0
C182 C 0.09106 0.63807 0.16561 0.0
O183 O 0.07883 0.66543 0.15534 0.0
C184 C 0.1037 0.74751 0.18704 0.0
C185 C 0.21743 0.69046 0.23506 0.0
C186 C 0.25082 0.69813 0.23312 0.0
C187 C 0.26968 0.70277 0.2583 0.0
C188 C 0.2552 0.69979 0.28581 0.0
C189 C 0.22232 0.69081 0.28903 0.0
C190 C 0.20309 0.68658 0.26332 0.0
O191 O 0.18262 0.72751 0.11831 0.0
O192 O 0.16066 0.67723 0.12221 0.0
O193 O 0.11909 0.77838 0.08935 0.0
O194 O 0.10029 0.73575 0.10979 0.0
C195 C 0.09674 0.75594 0.08801 0.0
O196 O 0.109 0.71569 0.18699 0.0
O197 O 0.12122 0.76852 0.17176 0.0
O198 O 0.17863 0.65992 0.20535 0.0
O199 O 0.19512 0.70744 0.18797 0.0
H200 H 0.26242 0.69988 0.21184 0.0
H201 H 0.27024 0.70333 0.30509 0.0
H202 H 0.1778 0.67933 0.26525 0.0
O203 O 0.80603 0.82231 0.9008 0.0
Tb204 Tb 0.75694 0.84208 0.89645 0.0
Eu205 Eu 0.67959 0.82974 0.85865 0.0
C206 C 0.81147 0.79309 0.91183 0.0
O207 O 0.78673 0.77357 0.9169 0.0
C208 C 0.69928 0.80588 0.92299 0.0
O209 O 0.63184 0.8564 0.85462 0.0
C210 C 0.68384 0.78111 0.82176 0.0
C211 C 0.62993 0.88601 0.86585 0.0
O212 O 0.65542 0.89811 0.87951 0.0
C213 C 0.73725 0.881 0.84036 0.0
C214 C 0.6894 0.76617 0.79223 0.0
C215 C 0.69876 0.73303 0.79186 0.0
C216 C 0.70194 0.71565 0.76547 0.0
C217 C 0.69597 0.73188 0.73909 0.0
C218 C 0.68618 0.76477 0.73827 0.0
C219 C 0.68308 0.78222 0.76516 0.0
O220 O 0.72755 0.80072 0.9103 0.0
O221 O 0.67559 0.81877 0.90742 0.0
O222 O 0.77669 0.87058 0.93265 0.0
O223 O 0.72931 0.88208 0.91706 0.0
C224 C 0.75167 0.88964 0.93616 0.0
O225 O 0.706 0.87491 0.84387 0.0
O226 O 0.76021 0.86297 0.85256 0.0
O227 O 0.6566 0.79711 0.82692 0.0
O228 O 0.70881 0.79135 0.83751 0.0
H229 H 0.70301 0.72047 0.81237 0.0
H230 H 0.69779 0.71832 0.7187 0.0
H231 H 0.67494 0.80743 0.76507 0.0
C232 C 0.25992 0.15606 0.18379 0.0
C233 C 0.27783 0.17723 0.20207 0.0
C234 C 0.266 0.15417 0.15366 0.0
C235 C 0.30635 0.20089 0.09222 0.0
H236 H 0.27638 0.12623 0.04709 0.0
C237 C 0.31994 0.17879 0.96353 0.0
C238 C 0.28936 0.17843 0.94949 0.0
C239 C 0.32223 0.17854 0.99435 0.0
C240 C 0.28497 0.14724 0.05939 0.0
H241 H 0.31776 0.21171 0.20277 0.0
H242 H 0.32993 0.20713 0.1503 0.0
H243 H 0.27658 0.1236 0.10029 0.0
H244 H 0.23726 0.17706 0.9574 0.0
H245 H 0.24137 0.17516 1.01071 0.0
H246 H 0.31573 0.22376 0.05059 0.0
C247 C 0.31015 0.19268 0.15911 0.0
C248 C 0.28478 0.14599 0.09013 0.0
C249 C 0.30368 0.19488 0.18948 0.0
C250 C 0.26123 0.17759 0.96721 0.0
C251 C 0.26354 0.1764 0.99786 0.0
C252 C 0.30726 0.20178 0.06137 0.0
C253 C 0.29075 0.17298 0.14041 0.0
C254 C 0.29466 0.1731 0.10731 0.0
C255 C 0.29401 0.17697 1.01187 0.0
C256 C 0.29596 0.17519 0.04459 0.0
H257 H 0.23966 0.14223 0.19263 0.0
H258 H 0.24987 0.13907 0.14069 0.0
H259 H 0.31382 0.22257 0.10409 0.0
H260 H 0.34213 0.1794 0.95068 0.0
H261 H 0.34607 0.17888 1.0045 0.0
C262 C 0.19423 0.71922 0.0564 0.0
C263 C 0.17882 0.69511 0.07348 0.0
C264 C 0.19538 0.7168 0.02571 0.0
C265 C 0.15482 0.67595 0.96179 0.0
H266 H 0.2296 0.70923 0.91945 0.0
C267 C 0.20913 0.69127 0.83427 0.0
C268 C 0.18052 0.7012 0.8199 0.0
C269 C 0.20923 0.68546 0.86468 0.0
C270 C 0.20859 0.69939 0.93074 0.0
H271 H 0.15271 0.6491 0.07094 0.0
H272 H 0.15499 0.64463 0.01755 0.0
H273 H 0.22997 0.70899 0.97271 0.0
H274 H 0.12951 0.71235 0.82633 0.0
H275 H 0.12934 0.70176 0.87886 0.0
H276 H 0.13353 0.66617 0.91975 0.0
C277 C 0.16597 0.66577 0.02793 0.0
C278 C 0.20861 0.6997 0.96155 0.0
C279 C 0.16492 0.66817 0.05873 0.0
C280 C 0.15172 0.70371 0.83652 0.0
C281 C 0.15175 0.69784 0.86684 0.0
C282 C 0.15476 0.67572 0.93094 0.0
C283 C 0.1811 0.69015 1.01081 0.0
C284 C 0.18161 0.68829 0.9777 0.0
C285 C 0.18073 0.68961 0.8817 0.0
C286 C 0.18155 0.68769 0.91479 0.0
H287 H 0.20517 0.74038 0.06669 0.0
H288 H 0.20686 0.73641 0.01363 0.0
H289 H 0.13339 0.66715 0.97314 0.0
H290 H 0.23191 0.69002 0.82233 0.0
H291 H 0.232 0.6787 0.87499 0.0
C292 C 0.72182 0.78971 0.9725 0.0
C293 C 0.69584 0.80183 0.95556 0.0
C294 C 0.7197 0.78821 1.0032 0.0
C295 C 0.67438 0.82329 0.06728 0.0
H296 H 0.7154 0.75204 0.10912 0.0
C297 C 0.69957 0.82673 0.19339 0.0
C298 C 0.69955 0.79719 0.20911 0.0
C299 C 0.69435 0.82703 0.16293 0.0
C300 C 0.70341 0.77201 0.09795 0.0
H301 H 0.64695 0.82175 0.95831 0.0
H302 H 0.64311 0.81887 1.01164 0.0
H303 H 0.71589 0.75226 0.05586 0.0
H304 H 0.69355 0.74485 0.20501 0.0
H305 H 0.68334 0.74527 0.15225 0.0
H306 H 0.66183 0.84295 0.10948 0.0
C307 C 0.66539 0.81074 1.00118 0.0
C308 C 0.7041 0.77236 0.06717 0.0
C309 C 0.66748 0.81211 0.97042 0.0
C310 C 0.69276 0.76812 0.19374 0.0
C311 C 0.6876 0.76835 0.16329 0.0
C312 C 0.67382 0.82301 0.09812 0.0
C313 C 0.69154 0.79891 0.01817 0.0
C314 C 0.68978 0.79809 0.05122 0.0
C315 C 0.68939 0.79769 0.14715 0.0
C316 C 0.68844 0.79742 0.11405 0.0
H317 H 0.7442 0.7818 0.96211 0.0
H318 H 0.74061 0.77937 0.01525 0.0
H319 H 0.66331 0.84374 0.05604 0.0
H320 H 0.7059 0.84939 0.20436 0.0
H321 H 0.6963 0.85012 0.15153 0.0
C322 C 0.82695 0.254 0.84215 0.0
C323 C 0.80737 0.27321 0.82362 0.0
C324 C 0.82854 0.25995 0.87231 0.0
C325 C 0.78418 0.30367 0.93364 0.0
H326 H 0.85658 0.26948 0.97865 0.0
C327 C 0.80325 0.31753 0.06209 0.0
C328 C 0.80603 0.28729 0.07662 0.0
C329 C 0.80337 0.31913 0.03123 0.0
C330 C 0.83615 0.27918 0.96642 0.0
H331 H 0.77553 0.31534 0.82264 0.0
H332 H 0.77959 0.32713 0.87528 0.0
H333 H 0.85925 0.26909 0.92552 0.0
H334 H 0.81153 0.23508 0.06959 0.0
H335 H 0.81322 0.23811 0.01621 0.0
H336 H 0.76199 0.31489 0.97529 0.0
C337 C 0.79293 0.30644 0.86656 0.0
C338 C 0.83743 0.27869 0.93569 0.0
C339 C 0.79101 0.30012 0.83611 0.0
C340 C 0.80915 0.2588 0.05936 0.0
C341 C 0.81023 0.26051 0.02867 0.0
C342 C 0.78333 0.30491 0.96451 0.0
C343 C 0.81114 0.28591 0.88542 0.0
C344 C 0.81111 0.29009 0.91852 0.0
C345 C 0.80727 0.29064 0.01412 0.0
C346 C 0.80902 0.29202 0.9813 0.0
H347 H 0.83999 0.23307 0.83342 0.0
H348 H 0.84242 0.24292 0.88537 0.0
H349 H 0.76314 0.31245 0.92178 0.0
H350 H 0.80085 0.33996 0.07458 0.0
H351 H 0.80116 0.34274 0.02073 0.0
C352 C 0.80415 0.28993 0.33618 0.0
C353 C 0.77807 0.30732 0.32369 0.0
C354 C 0.81083 0.29239 0.36648 0.0
C355 C 0.7855 0.33936 0.4354 0.0
H356 H 0.81759 0.26223 0.47517 0.0
C357 C 0.76272 0.30963 0.5586 0.0
C358 C 0.79081 0.30751 0.57622 0.0
C359 C 0.76498 0.31087 0.52795 0.0
C360 C 0.8088 0.28405 0.46433 0.0
H361 H 0.73974 0.34215 0.33323 0.0
H362 H 0.75027 0.3457 0.38507 0.0
H363 H 0.81538 0.26304 0.42168 0.0
H364 H 0.84349 0.30416 0.57478 0.0
H365 H 0.8473 0.30468 0.52096 0.0
H366 H 0.77706 0.35931 0.47837 0.0
C367 C 0.76644 0.33062 0.37206 0.0
C368 C 0.80771 0.28471 0.43348 0.0
C369 C 0.76016 0.3285 0.34199 0.0
C370 C 0.82131 0.30585 0.56204 0.0
C371 C 0.82352 0.30609 0.5312 0.0
C372 C 0.78583 0.33832 0.46614 0.0
C373 C 0.79142 0.31209 0.38523 0.0
C374 C 0.79558 0.31225 0.4183 0.0
C375 C 0.79535 0.30897 0.5138 0.0
C376 C 0.79723 0.31059 0.48104 0.0
H377 H 0.81825 0.27313 0.32287 0.0
H378 H 0.83078 0.27815 0.37522 0.0
H379 H 0.77699 0.3616 0.42518 0.0
H380 H 0.73884 0.31104 0.56848 0.0
H381 H 0.74283 0.31308 0.51522 0.0
C382 C 0.32224 0.23143 0.68366 0.0
C383 C 0.30388 0.21097 0.70215 0.0
C384 C 0.32444 0.22555 0.65352 0.0
C385 C 0.28377 0.17877 0.59205 0.0
H386 H 0.35431 0.21746 0.54748 0.0
C387 C 0.3049 0.1662 0.4637 0.0
C388 C 0.30585 0.19659 0.44922 0.0
C389 C 0.30489 0.16454 0.49456 0.0
C390 C 0.33443 0.20647 0.55959 0.0
H391 H 0.275 0.16675 0.70308 0.0
H392 H 0.28019 0.15519 0.65047 0.0
H393 H 0.35636 0.21816 0.60063 0.0
H394 H 0.30768 0.24902 0.45641 0.0
H395 H 0.3093 0.24599 0.50974 0.0
H396 H 0.2628 0.16605 0.55026 0.0
C397 C 0.29202 0.17676 0.65921 0.0
C398 C 0.33532 0.20713 0.59032 0.0
C399 C 0.28946 0.18299 0.68964 0.0
C400 C 0.30692 0.22516 0.46655 0.0
C401 C 0.30791 0.22346 0.49724 0.0
C402 C 0.28334 0.17741 0.56117 0.0
C403 C 0.30897 0.19842 0.64039 0.0
C404 C 0.30958 0.19412 0.60732 0.0
C405 C 0.30681 0.19318 0.51172 0.0
C406 C 0.30833 0.19188 0.54454 0.0
H407 H 0.33387 0.25317 0.6924 0.0
H408 H 0.33726 0.24344 0.64048 0.0
H409 H 0.2632 0.16869 0.60378 0.0
H410 H 0.30401 0.14367 0.45117 0.0
H411 H 0.30411 0.14081 0.50501 0.0
C412 C 0.18397 0.7012 0.33224 0.0
C413 C 0.21059 0.68439 0.31974 0.0
C414 C 0.17853 0.70047 0.36284 0.0
C415 C 0.22482 0.69729 0.43027 0.0
H416 H 0.14884 0.66602 0.47196 0.0
C417 C 0.22911 0.68144 0.55634 0.0
C418 C 0.20042 0.683 0.57319 0.0
C419 C 0.22803 0.68232 0.52562 0.0
C420 C 0.17013 0.67552 0.46091 0.0
H421 H 0.25072 0.65174 0.32967 0.0
H422 H 0.24171 0.65118 0.38237 0.0
H423 H 0.14913 0.66627 0.41837 0.0
H424 H 0.14792 0.68705 0.57042 0.0
H425 H 0.14598 0.6904 0.51708 0.0
H426 H 0.24572 0.70781 0.472 0.0
C427 C 0.22512 0.665 0.36874 0.0
C428 C 0.17024 0.67547 0.42999 0.0
C429 C 0.23017 0.66526 0.33842 0.0
C430 C 0.17056 0.68586 0.55825 0.0
C431 C 0.16949 0.68743 0.52742 0.0
C432 C 0.2245 0.69805 0.461 0.0
C433 C 0.19984 0.68326 0.38153 0.0
C434 C 0.19784 0.68584 0.4143 0.0
C435 C 0.19823 0.68553 0.51038 0.0
C436 C 0.19744 0.68655 0.47712 0.0
H437 H 0.16858 0.71639 0.31866 0.0
H438 H 0.15877 0.71477 0.37203 0.0
H439 H 0.24638 0.70577 0.41888 0.0
H440 H 0.25257 0.67857 0.56688 0.0
H441 H 0.25082 0.67973 0.51393 0.0
C442 C 0.65581 0.76074 0.69087 0.0
C443 C 0.6778 0.77825 0.70863 0.0
C444 C 0.65387 0.76621 0.66066 0.0
C445 C 0.7013 0.80384 0.59808 0.0
H446 H 0.62585 0.77479 0.55409 0.0
C447 C 0.68343 0.81685 0.46989 0.0
C448 C 0.6769 0.78704 0.45543 0.0
C449 C 0.68367 0.81875 0.50073 0.0
C450 C 0.64715 0.783 0.56603 0.0
H451 H 0.71381 0.81683 0.70829 0.0
H452 H 0.70907 0.82814 0.65576 0.0
H453 H 0.6237 0.77598 0.60724 0.0
H454 H 0.66476 0.73609 0.4625 0.0
H455 H 0.66388 0.73975 0.51594 0.0
H456 H 0.72394 0.81208 0.55616 0.0
C457 C 0.69399 0.80908 0.66501 0.0
C458 C 0.64615 0.78342 0.59679 0.0
C459 C 0.69627 0.80317 0.69544 0.0
C460 C 0.67029 0.75935 0.47272 0.0
C461 C 0.66957 0.76148 0.50343 0.0
C462 C 0.70195 0.8042 0.56721 0.0
C463 C 0.67345 0.78995 0.64679 0.0
C464 C 0.67347 0.79306 0.61361 0.0
C465 C 0.67634 0.79116 0.51792 0.0
C466 C 0.6751 0.79314 0.55077 0.0
H467 H 0.64148 0.74107 0.70016 0.0
H468 H 0.6381 0.75028 0.64813 0.0
H469 H 0.72316 0.81108 0.60962 0.0
H470 H 0.68851 0.83869 0.45734 0.0
H471 H 0.68884 0.84202 0.51115 0.0
C472 C 0.44756 0.11428 0.35485 0.0
C473 C 0.41361 0.10998 0.35401 0.0
C474 C 0.46847 0.08743 0.35273 0.0
C475 C 0.47072 -0.00122 0.33271 0.0
H476 H 0.54987 4e-05 0.37908 0.0
C477 C 0.54543 0.8837 0.36178 0.0
C478 C 0.57938 0.88537 0.35797 0.0
C479 C 0.52612 0.91153 0.35832 0.0
C480 C 0.52804 -0.00046 0.36576 0.0
H481 H 0.37487 0.07423 0.35023 0.0
H482 H 0.41126 0.02709 0.34776 0.0
H483 H 0.51393 0.04746 0.37948 0.0
H484 H 0.61977 0.91738 0.34734 0.0
H485 H 0.58588 0.96651 0.34205 0.0
H486 H 0.48441 0.95005 0.3202 0.0
C487 C 0.42189 0.05128 0.34919 0.0
C488 C 0.50742 0.02675 0.36586 0.0
C489 C 0.40096 0.07827 0.35081 0.0
C490 C 0.59366 0.91541 0.35038 0.0
C491 C 0.57434 0.94347 0.34745 0.0
C492 C 0.4911 0.97136 0.333 0.0
C493 C 0.45597 0.05548 0.35024 0.0
C494 C 0.47837 0.02673 0.34943 0.0
C495 C 0.5404 0.94174 0.35145 0.0
C496 C 0.51987 0.97146 0.34963 0.0
H497 H 0.45806 0.1385 0.35694 0.0
H498 H 0.49449 0.09183 0.35293 0.0
H499 H 0.44898 -0.00199 0.31931 0.0
H500 H 0.5337 0.86084 0.36746 0.0
H501 H 0.50005 0.9096 0.36175 0.0
C502 C 0.87094 0.44882 0.67106 0.0
C503 C 0.8753 0.41473 0.67099 0.0
C504 C 0.89772 0.4698 0.67281 0.0
C505 C 0.98646 0.47156 0.6906 0.0
H506 H 0.98405 0.55233 0.64632 0.0
C507 C 0.10035 0.54757 0.66144 0.0
C508 C 0.09875 0.58145 0.66657 0.0
C509 C 0.07268 0.52806 0.6646 0.0
C510 C 0.98488 0.53003 0.65905 0.0
H511 H 0.9111 0.37582 0.67265 0.0
H512 H 0.95804 0.41235 0.67449 0.0
H513 H 0.93682 0.51621 0.64607 0.0
H514 H 0.06703 0.62153 0.67914 0.0
H515 H 0.01816 0.58732 0.68391 0.0
H516 H 0.03524 0.485 0.70239 0.0
C517 C 0.93389 0.42301 0.67407 0.0
C518 C 0.95779 0.50931 0.65903 0.0
C519 C 0.907 0.40201 0.67281 0.0
C520 C 0.06893 0.59547 0.67507 0.0
C521 C 0.04102 0.57598 0.6777 0.0
C522 C 0.01372 0.49205 0.69021 0.0
C523 C 0.92962 0.45722 0.67403 0.0
C524 C 0.95824 0.4797 0.67471 0.0
C525 C 0.04271 0.5421 0.6725 0.0
C526 C 0.01321 0.52138 0.67434 0.0
H527 H 0.84674 0.45937 0.67003 0.0
H528 H 0.89331 0.49591 0.67338 0.0
H529 H 0.98754 0.44937 0.70343 0.0
H530 H 0.12305 0.53604 0.65503 0.0
H531 H 0.07454 0.50205 0.66024 0.0
C532 C 0.89463 0.41092 0.17444 0.0
C533 C 0.90909 0.38017 0.16977 0.0
C534 C 0.91385 0.43919 0.17551 0.0
C535 C -0.00331 0.46841 0.18997 0.0
H536 H 0.97341 0.54149 0.14037 0.0
C537 C 0.084 0.5775 0.17157 0.0
C538 C 0.07026 0.60867 0.16788 0.0
C539 C 0.06405 0.54976 0.17293 0.0
C540 C 0.98004 0.5216 0.15478 0.0
H541 H 0.95502 0.35481 0.16325 0.0
H542 H 0.9885 0.40407 0.16562 0.0
H543 H 0.93854 0.49329 0.14171 0.0
H544 H 0.02485 0.6354 0.16359 0.0
H545 H 0.99012 0.58744 0.16701 0.0
H546 H 0.03782 0.49675 0.20356 0.0
C547 C 0.96235 0.40632 0.16829 0.0
C548 C 0.96005 0.49394 0.15543 0.0
C549 C 0.94314 0.37817 0.16675 0.0
C550 C 0.03621 0.61165 0.16611 0.0
C551 C 0.01628 0.58405 0.16789 0.0
C552 C 0.01647 0.49626 0.18967 0.0
C553 C 0.94789 0.43711 0.17244 0.0
C554 C 0.96831 0.467 0.17285 0.0
C555 C 0.02989 0.55267 0.17103 0.0
C556 C 0.00853 0.52318 0.1719 0.0
H557 H 0.86846 0.41322 0.17682 0.0
H558 H 0.90214 0.46266 0.17889 0.0
H559 H 0.00343 0.44803 0.20381 0.0
H560 H 0.11018 0.57444 0.17287 0.0
H561 H 0.0755 0.52601 0.1749 0.0
C562 C 0.40562 0.08298 0.8546 0.0
C563 C 0.37416 0.06968 0.85655 0.0
C564 C 0.43294 0.06248 0.85399 0.0
C565 C 0.45849 0.97718 0.87118 0.0
H566 H 0.5353 0.00126 0.82671 0.0
C567 C 0.57013 0.89161 0.85552 0.0
C568 C 0.60018 0.90604 0.86267 0.0
C569 C 0.54202 0.91086 0.85325 0.0
C570 C 0.51399 -0.0057 0.83925 0.0
H571 H 0.3465 0.02452 0.8585 0.0
H572 H 0.39383 0.98885 0.85633 0.0
H573 H 0.48713 0.03621 0.82521 0.0
H574 H 0.62455 0.95193 0.87238 0.0
H575 H 0.57564 0.98546 0.86787 0.0
H576 H 0.48542 0.9349 0.8847 0.0
C577 C 0.39771 0.01505 0.85627 0.0
C578 C 0.48644 0.0144 0.83857 0.0
C579 C 0.37049 0.03553 0.85732 0.0
C580 C 0.60171 0.94007 0.86698 0.0
C581 C 0.57379 0.95932 0.86422 0.0
C582 C 0.48587 0.95685 0.87148 0.0
C583 C 0.42935 0.02821 0.85487 0.0
C584 C 0.4584 0.00629 0.85477 0.0
C585 C 0.54365 0.94489 0.85754 0.0
C586 C 0.51398 0.9654 0.85576 0.0
H587 H 0.4092 0.10923 0.85412 0.0
H588 H 0.45688 0.0736 0.8534 0.0
H589 H 0.43767 0.97036 0.88439 0.0
H590 H 0.56825 0.86544 0.8521 0.0
H591 H 0.51905 0.8992 0.84796 0.0
C592 C 0.42751 0.28435 0.3318 0.0
C593 C 0.40995 0.25661 0.32262 0.0
C594 C 0.45897 0.29024 0.32113 0.0
C595 C 0.51949 0.26766 0.26406 0.0
H596 H 0.58223 0.28136 0.32632 0.0
C597 C 0.66652 0.2566 0.28788 0.0
C598 C 0.68006 0.27703 0.26633 0.0
C599 C 0.63279 0.25448 0.29153 0.0
C600 C 0.56503 0.27749 0.30868 0.0
H601 H 0.41086 0.21474 0.29326 0.0
H602 H 0.46546 0.22529 0.2745 0.0
H603 H 0.52423 0.28009 0.33776 0.0
H604 H 0.66839 0.30973 0.23056 0.0
H605 H 0.60921 0.3053 0.23654 0.0
H606 H 0.56068 0.26478 0.23505 0.0
C607 C 0.455 0.24237 0.29006 0.0
C608 C 0.53175 0.27716 0.31518 0.0
C609 C 0.42369 0.23628 0.30094 0.0
C610 C 0.65884 0.29358 0.24723 0.0
C611 C 0.62494 0.29119 0.25073 0.0
C612 C 0.5529 0.26843 0.25748 0.0
C613 C 0.47344 0.26876 0.3008 0.0
C614 C 0.50857 0.27189 0.29304 0.0
C615 C 0.61162 0.27241 0.27353 0.0
C616 C 0.57603 0.27285 0.27983 0.0
H617 H 0.41779 0.3005 0.34851 0.0
H618 H 0.47244 0.31103 0.32955 0.0
H619 H 0.5022 0.26362 0.24653 0.0
H620 H 0.6821 0.24296 0.30257 0.0
H621 H 0.62323 0.23924 0.30888 0.0
C622 C 0.30126 0.32616 0.77618 0.0
C623 C 0.27673 0.30529 0.7656 0.0
C624 C 0.29801 0.36017 0.77374 0.0
C625 C 0.23955 0.42692 0.76528 0.0
H626 H 0.3062 0.47053 0.71956 0.0
C627 C 0.21496 0.55033 0.7104 0.0
C628 C 0.24052 0.57239 0.70473 0.0
C629 C 0.22113 0.51971 0.72257 0.0
C630 C 0.28768 0.45912 0.73296 0.0
H631 H 0.22928 0.30324 0.74509 0.0
H632 H 0.22293 0.36281 0.74188 0.0
H633 H 0.31332 0.41333 0.73325 0.0
H634 H 0.29267 0.57972 0.70852 0.0
H635 H 0.30339 0.52649 0.7309 0.0
H636 H 0.21399 0.47244 0.76556 0.0
C637 C 0.24474 0.3529 0.75183 0.0
C638 C 0.29174 0.42622 0.74067 0.0
C639 C 0.24832 0.31892 0.75366 0.0
C640 C 0.2724 0.56332 0.71251 0.0
C641 C 0.27856 0.53264 0.72514 0.0
C642 C 0.23576 0.45994 0.75812 0.0
C643 C 0.26986 0.37383 0.76124 0.0
C644 C 0.26734 0.40961 0.75625 0.0
C645 C 0.253 0.51018 0.72996 0.0
C646 C 0.25929 0.47632 0.74106 0.0
H647 H 0.32356 0.31612 0.78511 0.0
H648 H 0.31767 0.37578 0.78119 0.0
H649 H 0.22056 0.41476 0.77762 0.0
H650 H 0.19008 0.55613 0.7045 0.0
H651 H 0.20078 0.50309 0.72514 0.0
C652 C 0.54913 0.76778 0.31771 0.0
C653 C 0.57031 0.7419 0.3248 0.0
C654 C 0.51876 0.76178 0.30509 0.0
C655 C 0.45694 0.69599 0.29535 0.0
H656 H 0.41612 0.76181 0.2466 0.0
C657 C 0.326 0.68206 0.24863 0.0
C658 C 0.30535 0.708 0.25664 0.0
C659 C 0.35983 0.68489 0.25209 0.0
C660 C 0.42726 0.74319 0.26012 0.0
H661 H 0.57621 0.68924 0.32318 0.0
H662 H 0.52348 0.6787 0.30004 0.0
H663 H 0.47313 0.7679 0.26058 0.0
H664 H 0.30353 0.75739 0.27369 0.0
H665 H 0.3628 0.7629 0.27868 0.0
H666 H 0.41086 0.67118 0.29435 0.0
C667 C 0.53012 0.70374 0.30501 0.0
C668 C 0.45992 0.74673 0.26837 0.0
C669 C 0.56054 0.70976 0.31809 0.0
C670 C 0.31907 0.73727 0.26699 0.0
C671 C 0.3529 0.74035 0.26987 0.0
C672 C 0.42443 0.69217 0.28661 0.0
C673 C 0.50858 0.72968 0.29866 0.0
C674 C 0.47504 0.72367 0.28681 0.0
C675 C 0.37357 0.71392 0.26312 0.0
C676 C 0.40905 0.71612 0.26948 0.0
H677 H 0.55545 0.79291 0.3228 0.0
H678 H 0.50284 0.78246 0.30133 0.0
H679 H 0.46736 0.67788 0.30981 0.0
H680 H 0.31586 0.65909 0.24103 0.0
H681 H 0.37521 0.66419 0.24666 0.0
C682 C 0.72964 0.66674 0.74321 0.0
C683 C 0.70902 0.67986 0.76488 0.0
C684 C 0.73201 0.63296 0.7391 0.0
C685 C 0.71785 0.55212 0.77175 0.0
H686 H 0.70681 0.525 0.69093 0.0
C687 C 0.74936 0.42309 0.72592 0.0
C688 C 0.72927 0.41002 0.7038 0.0
C689 C 0.7434 0.45429 0.73745 0.0
C690 C 0.70956 0.53209 0.71365 0.0
H691 H 0.67628 0.66748 0.80044 0.0
H692 H 0.68106 0.60819 0.79362 0.0
H693 H 0.70566 0.58297 0.70341 0.0
H694 H 0.68581 0.41888 0.67797 0.0
H695 H 0.67551 0.47327 0.69811 0.0
H696 H 0.72228 0.501 0.7818 0.0
C697 C 0.69516 0.62426 0.7797 0.0
C698 C 0.70932 0.56534 0.72075 0.0
C699 C 0.69255 0.65822 0.78368 0.0
C700 C 0.70182 0.42807 0.69494 0.0
C701 C 0.69605 0.4594 0.7063 0.0
C702 C 0.71851 0.51872 0.76457 0.0
C703 C 0.7141 0.61136 0.75674 0.0
C704 C 0.71373 0.57579 0.74981 0.0
C705 C 0.71737 0.47326 0.727 0.0
C706 C 0.71447 0.50837 0.73539 0.0
H707 H 0.74319 0.68269 0.72874 0.0
H708 H 0.74736 0.6237 0.72163 0.0
H709 H 0.72131 0.55948 0.79433 0.0
H710 H 0.77065 0.40988 0.73341 0.0
H711 H 0.76034 0.46429 0.7533 0.0
C712 C 0.9246 0.25199 0.22596 0.0
C713 C 0.9101 0.23093 0.2053 0.0
C714 C 0.95584 0.24559 0.23682 0.0
C715 C 0.03145 0.20796 0.21248 0.0
H716 H 0.06121 0.22256 0.29203 0.0
C717 C 0.15891 0.19143 0.27945 0.0
C718 C 0.18012 0.2076 0.26003 0.0
C719 C 0.125 0.19412 0.27622 0.0
C720 C 0.05318 0.21828 0.26977 0.0
H721 H 0.9165 0.18561 0.18113 0.0
H722 H 0.97113 0.17461 0.19995 0.0
H723 H 0.00266 0.22456 0.28092 0.0
H724 H 0.18212 0.24132 0.22352 0.0
H725 H 0.12324 0.24542 0.21762 0.0
H726 H 0.08178 0.20243 0.20111 0.0
C727 C 0.95826 0.19613 0.20766 0.0
C728 C 0.01975 0.21952 0.2634 0.0
C729 C 0.92684 0.20231 0.19706 0.0
C730 C 0.16657 0.22793 0.23844 0.0
C731 C 0.13283 0.2303 0.23504 0.0
C732 C 0.06476 0.2072 0.21876 0.0
C733 C 0.97347 0.2182 0.22701 0.0
C734 C 0.00855 0.21451 0.23462 0.0
C735 C 0.11167 0.21277 0.25338 0.0
C736 C 0.07605 0.21264 0.24739 0.0
H737 H 0.91238 0.27421 0.23288 0.0
H738 H 0.9669 0.26314 0.25159 0.0
H739 H 0.02369 0.20439 0.19005 0.0
H740 H 0.16846 0.17538 0.29618 0.0
H741 H 0.10925 0.18034 0.29068 0.0
C742 C 0.19325 0.06252 0.83101 0.0
C743 C 0.22327 0.07657 0.82307 0.0
C744 C 0.18452 0.03143 0.82066 0.0
C745 C 0.20439 0.96691 0.76586 0.0
H746 H 0.17682 0.90775 0.82717 0.0
C747 C 0.20788 0.82559 0.7526 0.0
C748 C 0.18434 0.80694 0.76739 0.0
C749 C 0.20936 0.8596 0.75653 0.0
C750 C 0.18388 0.92392 0.80955 0.0
H751 H 0.26655 0.06975 0.79636 0.0
H752 H 0.25119 0.01584 0.77828 0.0
H753 H 0.18379 0.96552 0.8381 0.0
H754 H 0.14273 0.80943 0.79652 0.0
H755 H 0.14464 0.86861 0.80279 0.0
H756 H 0.20467 0.9252 0.73733 0.0
C757 C 0.23443 0.02876 0.79254 0.0
C758 C 0.18789 0.95716 0.81588 0.0
C759 C 0.24329 0.05969 0.80305 0.0
C760 C 0.16149 0.82313 0.78521 0.0
C761 C 0.16272 0.85706 0.7889 0.0
C762 C 0.20012 0.93362 0.75944 0.0
C763 C 0.20543 0.01381 0.80194 0.0
C764 C 0.19851 0.97904 0.79423 0.0
C765 C 0.18709 0.87575 0.77513 0.0
C766 C 0.1901 0.91158 0.78129 0.0
H767 H 0.17723 0.07472 0.84641 0.0
H768 H 0.16178 0.02076 0.82799 0.0
H769 H 0.21236 0.98318 0.74862 0.0
H770 H 0.22592 0.81373 0.73887 0.0
H771 H 0.22869 0.87301 0.74579 0.0
C772 C 0.81863 0.76572 0.2386 0.0
C773 C 0.80499 0.78537 0.26083 0.0
C774 C 0.8523 0.7647 0.23418 0.0
C775 C 0.93204 0.77775 0.26806 0.0
H776 H 0.96102 0.78907 0.1879 0.0
C777 C 0.05922 0.7395 0.22403 0.0
C778 C 0.0742 0.75931 0.20277 0.0
C779 C 0.02826 0.74722 0.23492 0.0
C780 C 0.95342 0.78627 0.21046 0.0
H781 H 0.81667 0.81822 0.29672 0.0
H782 H 0.87583 0.81558 0.28942 0.0
H783 H 0.90305 0.79231 0.19946 0.0
H784 H 0.06891 0.80376 0.17745 0.0
H785 H 0.0147 0.8171 0.19635 0.0
H786 H 0.98252 0.7708 0.27885 0.0
C787 C 0.86011 0.8013 0.27527 0.0
C788 C 0.92016 0.78778 0.21703 0.0
C789 C 0.82623 0.80267 0.27951 0.0
C790 C 0.0582 0.78804 0.19389 0.0
C791 C 0.02701 0.79554 0.20453 0.0
C792 C 0.96538 0.77576 0.26141 0.0
C793 C 0.87342 0.78289 0.2521 0.0
C794 C 0.90903 0.78315 0.24582 0.0
C795 C 0.01132 0.77472 0.22457 0.0
C796 C 0.97641 0.77974 0.23246 0.0
H797 H 0.8032 0.75134 0.22427 0.0
H798 H 0.86186 0.74971 0.21655 0.0
H799 H 0.92416 0.77403 0.29043 0.0
H800 H 0.07085 0.71721 0.23141 0.0
H801 H 0.01683 0.73059 0.25021 0.0
C802 C 0.81039 0.15688 0.75392 0.0
C803 C 0.784 0.17726 0.76112 0.0
C804 C 0.80771 0.12288 0.75677 0.0
C805 C 0.75011 0.05479 0.76023 0.0
H806 H 0.81138 0.01383 0.81328 0.0
C807 C 0.72096 0.93278 0.81541 0.0
C808 C 0.74592 0.91132 0.82417 0.0
C809 C 0.72816 0.96303 0.80302 0.0
C810 C 0.79447 0.02451 0.79786 0.0
H811 H 0.73405 0.17852 0.77622 0.0
H812 H 0.72885 0.11887 0.78015 0.0
H813 H 0.8189 0.07092 0.79933 0.0
H814 H 0.7983 0.90468 0.82557 0.0
H815 H 0.81104 0.95733 0.80284 0.0
H816 H 0.72581 0.00865 0.75822 0.0
C817 C 0.75162 0.12915 0.77245 0.0
C818 C 0.79874 0.05734 0.79 0.0
C819 C 0.75453 0.16316 0.77019 0.0
C820 C 0.77846 0.92057 0.81915 0.0
C821 C 0.78573 0.95093 0.80632 0.0
C822 C 0.74618 0.02184 0.76758 0.0
C823 C 0.77839 0.10872 0.76636 0.0
C824 C 0.7761 0.073 0.77174 0.0
C825 C 0.76062 0.97281 0.79848 0.0
C826 C 0.7677 0.00644 0.78726 0.0
H827 H 0.83348 0.16737 0.74727 0.0
H828 H 0.82867 0.10767 0.75191 0.0
H829 H 0.73256 0.0662 0.74579 0.0
H830 H 0.69553 0.92684 0.81903 0.0
H831 H 0.70806 0.97922 0.79805 0.0
C832 C 0.24974 0.34732 0.4395 0.0
C833 C 0.28043 0.34393 0.4261 0.0
C834 C 0.24125 0.37638 0.45388 0.0
C835 C 0.26508 0.46357 0.46358 0.0
H836 H 0.22786 0.4528 0.541 0.0
C837 C 0.27567 0.56198 0.55293 0.0
C838 C 0.24935 0.56725 0.57201 0.0
C839 C 0.27486 0.53653 0.53253 0.0
C840 C 0.23769 0.45634 0.51924 0.0
H841 H 0.32567 0.36901 0.41614 0.0
H842 H 0.31103 0.41947 0.44136 0.0
H843 H 0.23457 0.40527 0.50923 0.0
H844 H 0.20127 0.55049 0.58453 0.0
H845 H 0.19979 0.50562 0.5487 0.0
H846 H 0.26903 0.51453 0.47395 0.0
C847 C 0.29335 0.39982 0.44059 0.0
C848 C 0.24154 0.42907 0.50098 0.0
C849 C 0.30183 0.37078 0.42622 0.0
C850 C 0.22191 0.54685 0.57007 0.0
C851 C 0.22114 0.52116 0.54967 0.0
C852 C 0.26126 0.49082 0.48184 0.0
C853 C 0.26325 0.40272 0.45515 0.0
C854 C 0.2559 0.43225 0.47316 0.0
C855 C 0.24772 0.51565 0.53075 0.0
C856 C 0.24817 0.48742 0.51012 0.0
H857 H 0.23258 0.32719 0.43969 0.0
H858 H 0.21767 0.37799 0.46445 0.0
H859 H 0.27566 0.46698 0.44209 0.0
H860 H 0.29716 0.57734 0.55396 0.0
H861 H 0.29596 0.53268 0.51867 0.0
C862 C 0.56487 0.70042 0.47925 0.0
C863 C 0.56775 0.72771 0.46089 0.0
C864 C 0.53968 0.69852 0.49968 0.0
C865 C 0.4774 0.74675 0.53955 0.0
H866 H 0.43352 0.66287 0.54411 0.0
C867 C 0.3519 0.72728 0.59554 0.0
C868 C 0.34615 0.69726 0.60959 0.0
C869 C 0.38121 0.73288 0.58072 0.0
C870 C 0.44581 0.68632 0.54354 0.0
H871 H 0.54726 0.77494 0.44999 0.0
H872 H 0.50268 0.77153 0.48568 0.0
H873 H 0.47974 0.66937 0.51143 0.0
H874 H 0.36764 0.65045 0.62076 0.0
H875 H 0.41891 0.66041 0.59534 0.0
H876 H 0.44294 0.76371 0.57151 0.0
C877 C 0.52012 0.75169 0.4844 0.0
C878 C 0.47232 0.69008 0.52471 0.0
C879 C 0.5455 0.7536 0.46389 0.0
C880 C 0.37113 0.67374 0.60998 0.0
C881 C 0.40045 0.67936 0.5952 0.0
C882 C 0.45078 0.74297 0.55847 0.0
C883 C 0.51665 0.72384 0.5022 0.0
C884 C 0.48849 0.72029 0.52247 0.0
C885 C 0.40546 0.7086 0.57967 0.0
C886 C 0.43468 0.71267 0.56068 0.0
H887 H 0.5819 0.68023 0.47761 0.0
H888 H 0.53814 0.67704 0.51343 0.0
H889 H 0.48951 0.77026 0.53852 0.0
H890 H 0.3332 0.74598 0.59484 0.0
H891 H 0.38415 0.7556 0.56889 0.0
C892 C 0.75449 0.43718 0.5625 0.0
C893 C 0.73221 0.41116 0.5613 0.0
C894 C 0.75289 0.46249 0.54195 0.0
C895 C 0.69353 0.50226 0.49329 0.0
H896 H 0.76928 0.54663 0.46184 0.0
C897 C 0.67874 0.6126 0.41675 0.0
C898 C 0.69815 0.63986 0.42373 0.0
C899 C 0.68551 0.58196 0.42893 0.0
C900 C 0.74788 0.53456 0.47052 0.0
H901 H 0.69197 0.39017 0.53695 0.0
H902 H 0.68939 0.43398 0.50101 0.0
H903 H 0.77652 0.49818 0.49237 0.0
H904 H 0.74107 0.65582 0.44756 0.0
H905 H 0.75259 0.60272 0.46893 0.0
H906 H 0.66487 0.53892 0.47225 0.0
C907 C 0.70767 0.43532 0.51806 0.0
C908 C 0.75204 0.50683 0.48804 0.0
C909 C 0.70924 0.41014 0.53857 0.0
C910 C 0.72552 0.63538 0.44178 0.0
C911 C 0.73227 0.60481 0.45394 0.0
C912 C 0.68937 0.52995 0.47588 0.0
C913 C 0.72899 0.46217 0.51985 0.0
C914 C 0.7249 0.49054 0.49986 0.0
C915 C 0.71184 0.57791 0.44832 0.0
C916 C 0.71648 0.54669 0.46451 0.0
H917 H 0.77245 0.43849 0.57983 0.0
H918 H 0.76954 0.48292 0.54408 0.0
H919 H 0.67209 0.49068 0.50245 0.0
H920 H 0.65756 0.61515 0.40282 0.0
H921 H 0.66962 0.56161 0.42372 0.0
C922 C 0.41228 0.27024 0.48587 0.0
C923 C 0.41293 0.24923 0.46153 0.0
C924 C 0.43824 0.27089 0.50557 0.0
C925 C 0.51215 0.22666 0.53013 0.0
H926 H 0.54152 0.31386 0.55095 0.0
C927 C 0.63949 0.25424 0.57909 0.0
C928 C 0.64257 0.28055 0.59882 0.0
C929 C 0.60953 0.24733 0.56588 0.0
C930 C 0.53337 0.28929 0.54588 0.0
H931 H 0.44042 0.21137 0.43926 0.0
H932 H 0.48624 0.2127 0.47363 0.0
H933 H 0.49298 0.3072 0.52121 0.0
H934 H 0.61606 0.31886 0.62158 0.0
H935 H 0.56369 0.3064 0.59902 0.0
H936 H 0.55301 0.20885 0.55458 0.0
C937 C 0.46551 0.22851 0.47762 0.0
C938 C 0.5055 0.28546 0.52873 0.0
C939 C 0.43939 0.22782 0.45788 0.0
C940 C 0.61461 0.29861 0.60629 0.0
C941 C 0.58462 0.2916 0.59318 0.0
C942 C 0.54009 0.23049 0.54742 0.0
C943 C 0.46553 0.25062 0.50132 0.0
C944 C 0.4946 0.25414 0.52051 0.0
C945 C 0.5819 0.26648 0.57218 0.0
C946 C 0.55113 0.26189 0.55538 0.0
H947 H 0.39199 0.28677 0.48938 0.0
H948 H 0.43717 0.28772 0.52391 0.0
H949 H 0.50421 0.20219 0.52441 0.0
H950 H 0.66054 0.23981 0.57283 0.0
H951 H 0.60844 0.22796 0.54968 0.0
C952 C 0.72291 0.93712 0.95973 0.0
C953 C 0.7499 0.91608 0.95816 0.0
C954 C 0.7224 0.9629 0.98004 0.0
C955 C 0.76272 -0.00681 0.0479 0.0
H956 H 0.73656 0.07864 0.01989 0.0
C957 C 0.8035 0.11394 0.10244 0.0
C958 C 0.78193 0.14066 0.10247 0.0
C959 C 0.79511 0.0847 0.08834 0.0
C960 C 0.74341 0.05487 0.0283 0.0
H961 H 0.79715 0.90492 0.97679 0.0
H962 H 0.79649 0.94982 1.01183 0.0
H963 H 0.72966 0.03091 0.98847 0.0
H964 H 0.73389 0.15698 0.08906 0.0
H965 H 0.71919 0.10589 0.06475 0.0
H966 H 0.77728 0.01735 0.08744 0.0
C967 C 0.77549 0.94639 0.9978 0.0
C968 C 0.73943 0.02747 1.01025 0.0
C969 C 0.776 0.92079 0.97754 0.0
C970 C 0.75119 0.13696 0.08929 0.0
C971 C 0.74281 0.10774 0.07518 0.0
C972 C 0.76673 0.02059 0.06593 0.0
C973 C 0.74883 0.96794 0.99919 0.0
C974 C 0.74964 -0.00361 0.0196 0.0
C975 C 0.76496 0.08152 0.07397 0.0
C976 C 0.75768 0.05186 0.05614 0.0
H977 H 0.70242 0.93391 0.94506 0.0
H978 H 0.70137 0.97891 0.98072 0.0
H979 H 0.77029 0.9695 0.05598 0.0
H980 H 0.82738 0.11595 0.11236 0.0
H981 H 0.81288 0.06512 0.08761 0.0
C982 C 0.91932 0.2132 0.0472 0.0
C983 C 0.91594 0.23695 0.06924 0.0
C984 C 0.94535 0.21453 0.02756 0.0
C985 C 0.02882 0.24625 0.02108 0.0
H986 H 0.01943 0.21852 0.94026 0.0
C987 C 0.13985 0.23727 0.94413 0.0
C988 C 0.14223 0.208 0.92798 0.0
C989 C 0.1108 0.24568 0.95831 0.0
C990 C 0.02246 0.22623 0.9628 0.0
H991 H 0.93643 0.28129 0.08762 0.0
H992 H 0.98209 0.28382 0.05306 0.0
H993 H 0.97108 0.22489 0.97091 0.0
H994 H 0.1154 0.16542 0.91296 0.0
H995 H 0.06485 0.17999 0.93778 0.0
H996 H 0.08021 0.24689 1.01318 0.0
C997 C 0.96477 0.26394 0.05118 0.0
C998 C -0.00523 0.22987 0.98037 0.0
C999 C 0.9386 0.26261 0.07086 0.0
C1000 C 0.11443 0.18813 0.9252 0.0
C1001 C 0.08537 0.19658 0.93935 0.0
C1002 C 0.0565 0.24265 1.00349 0.0
C1003 C 0.96864 0.23967 0.02948 0.0
C1004 C -0.00235 0.23931 1.0099 0.0
C1005 C 0.08342 0.22508 0.95662 0.0
C1006 C 0.05371 0.23202 0.97429 0.0
H1007 H 0.90217 0.19313 0.04545 0.0
H1008 H 0.94777 0.19517 1.01145 0.0
H1009 H 0.032 0.25311 0.0438 0.0
H1010 H 0.16074 0.25324 0.94661 0.0
H1011 H 0.10996 0.26806 0.97105 0.0
C1012 C 0.18428 0.87304 0.10699 0.0
C1013 C 0.20348 0.84533 0.10108 0.0
C1014 C 0.19086 0.9028 0.09321 0.0
C1015 C 0.25208 0.9476 0.04814 0.0
H1016 H 0.17522 0.99137 0.01828 0.0
C1017 C 0.25462 0.04662 0.95682 0.0
C1018 C 0.23274 0.07282 0.95988 0.0
C1019 C 0.25394 0.02058 0.97669 0.0
C1020 C 0.19696 0.97976 0.02678 0.0
H1021 H 0.24576 0.82763 0.07723 0.0
H1022 H 0.25685 0.87929 0.05285 0.0
H1023 H 0.16903 0.94345 0.04899 0.0
H1024 H 0.19419 0.09332 0.98673 0.0
H1025 H 0.19316 0.04823 0.0214 0.0
H1026 H 0.27993 0.98376 0.0251 0.0
C1027 C 0.23692 0.87821 0.06836 0.0
C1028 C 0.19341 0.95228 0.04451 0.0
C1029 C 0.23045 0.84849 0.08229 0.0
C1030 C 0.21111 0.07323 0.98368 0.0
C1031 C 0.21042 0.04734 1.00346 0.0
C1032 C 0.25563 0.97513 0.03024 0.0
C1033 C 0.21666 0.9055 0.07305 0.0
C1034 C 0.22089 0.93578 0.05541 0.0
C1035 C 0.23132 0.02037 0.99988 0.0
C1036 C 0.22807 0.9915 0.01936 0.0
H1037 H 0.1635 0.87153 0.12156 0.0
H1038 H 0.1752 0.92352 0.09784 0.0
H1039 H 0.27377 0.93566 0.05635 0.0
H1040 H 0.27158 0.04579 0.93865 0.0
H1041 H 0.27025 7e-05 0.97327 0.0
C1042 C 0.87071 0.80593 0.9192 0.0
C1043 C 0.8443 0.78446 0.92295 0.0
C1044 C 0.90039 0.80008 0.9333 0.0
C1045 C 0.94776 0.73757 0.97485 0.0
H1046 H 0.98646 0.81422 1.01096 0.0
C1047 C 0.04529 0.73208 0.06724 0.0
C1048 C 0.07045 0.75531 0.066 0.0
C1049 C 0.01935 0.73343 0.04731 0.0
C1050 C 0.97626 0.79259 1.00072 0.0
H1051 H 0.82894 0.7391 0.94329 0.0
H1052 H 0.88037 0.72923 0.96817 0.0
H1053 H 0.93901 0.82042 0.97974 0.0
H1054 H 0.08901 0.79731 0.04243 0.0
H1055 H 0.04409 0.79955 1.00771 0.0
H1056 H 0.98484 0.70975 0.9966 0.0
C1057 C 0.87838 0.75041 0.95412 0.0
C1058 C 0.94905 0.79615 0.9827 0.0
C1059 C 0.84877 0.75617 0.9399 0.0
C1060 C 0.06979 0.77923 0.04404 0.0
C1061 C 0.04397 0.78061 0.02424 0.0
C1062 C 0.97499 0.73399 0.99304 0.0
C1063 C 0.90431 0.77273 0.9516 0.0
C1064 C 0.93436 0.76872 0.96954 0.0
C1065 C 0.01816 0.7581 0.02591 0.0
C1066 C 0.98952 0.76149 1.00621 0.0
H1067 H 0.86819 0.82783 0.90612 0.0
H1068 H 0.92006 0.81742 0.93034 0.0
H1069 H 0.93729 0.71594 0.96485 0.0
H1070 H 0.04527 0.71337 0.08397 0.0
H1071 H -0.00026 0.71584 0.04927 0.0
loop_
_geom_bond_atom_site_label_1
_geom_bond_atom_site_label_2
_geom_bond_distance
_geom_bond_site_symmetry_2
_ccdc_geom_bond_type
O0 Tb1 2.292 . S
O0 C3 1.255 . S
Tb1 O0 2.292 . S
Tb1 O17 2.326 . S
Tb1 O19 2.500 . S
Tb1 O20 2.473 . S
Tb1 O23 2.324 . S
Eu2 O6 2.292 . S
Eu2 C7 2.852 . S
Eu2 O18 2.324 . S
Eu2 O22 2.326 . S
Eu2 O24 2.500 . S
Eu2 O25 2.473 . S
C3 O0 1.255 . S
C3 O4 1.247 . S
O4 C3 1.247 . S
C5 O17 1.242 . S
C5 O18 1.258 . S
O6 Eu2 2.292 . S
O6 C8 1.255 . S
C7 Eu2 2.852 . S
C7 C11 1.503 . S
C7 O24 1.273 . S
C7 O25 1.257 . S
C8 O6 1.255 . S
C8 O9 1.247 . S
O9 C8 1.247 . S
C10 O22 1.242 . S
C10 O23 1.258 . S
C11 C7 1.503 . S
C11 C12 1.379 . S
C11 C16 1.392 . S
C12 C11 1.379 . S
C12 C13 1.404 . S
C12 H26 0.929 . S
C13 C12 1.404 . S
C13 C14 1.389 . S
C14 C13 1.389 . S
C14 C15 1.399 . S
C14 H27 0.931 . S
C15 C14 1.399 . S
C15 C16 1.390 . S
C16 C11 1.392 . S
C16 C15 1.390 . S
C16 H28 0.929 . S
O17 Tb1 2.326 . S
O17 C5 1.242 . S
O18 Eu2 2.324 . S
O18 C5 1.258 . S
O19 Tb1 2.500 . S
O19 C21 1.273 . S
O20 Tb1 2.473 . S
O20 C21 1.257 . S
C21 O19 1.273 . S
C21 O20 1.257 . S
O22 Eu2 2.326 . S
O22 C10 1.242 . S
O23 Tb1 2.324 . S
O23 C10 1.258 . S
O24 Eu2 2.500 . S
O24 C7 1.273 . S
O25 Eu2 2.473 . S
O25 C7 1.257 . S
H26 C12 0.929 . S
H27 C14 0.931 . S
H28 C16 0.929 . S
O29 Tb30 2.292 . S
O29 C32 1.255 . S
Tb30 O29 2.292 . S
Tb30 O46 2.326 . S
Tb30 O48 2.500 . S
Tb30 O49 2.473 . S
Tb30 O52 2.324 . S
Eu31 O35 2.292 . S
Eu31 C36 2.852 . S
Eu31 O47 2.324 . S
Eu31 O51 2.326 . S
Eu31 O53 2.500 . S
Eu31 O54 2.473 . S
C32 O29 1.255 . S
C32 O33 1.247 . S
O33 C32 1.247 . S
C34 O46 1.242 . S
C34 O47 1.258 . S
O35 Eu31 2.292 . S
O35 C37 1.255 . S
C36 Eu31 2.852 . S
C36 C40 1.503 . S
C36 O53 1.273 . S
C36 O54 1.257 . S
C37 O35 1.255 . S
C37 O38 1.247 . S
O38 C37 1.247 . S
C39 O51 1.242 . S
C39 O52 1.258 . S
C40 C36 1.503 . S
C40 C41 1.379 . S
C40 C45 1.392 . S
C41 C40 1.379 . S
C41 C42 1.404 . S
C41 H55 0.929 . S
C42 C41 1.404 . S
C42 C43 1.389 . S
C43 C42 1.389 . S
C43 C44 1.399 . S
C43 H56 0.931 . S
C44 C43 1.399 . S
C44 C45 1.390 . S
C45 C40 1.392 . S
C45 C44 1.390 . S
C45 H57 0.929 . S
O46 Tb30 2.326 . S
O46 C34 1.242 . S
O47 Eu31 2.324 . S
O47 C34 1.258 . S
O48 Tb30 2.500 . S
O48 C50 1.273 . S
O49 Tb30 2.473 . S
O49 C50 1.257 . S
C50 O48 1.273 . S
C50 O49 1.257 . S
O51 Eu31 2.326 . S
O51 C39 1.242 . S
O52 Tb30 2.324 . S
O52 C39 1.258 . S
O53 Eu31 2.500 . S
O53 C36 1.273 . S
O54 Eu31 2.473 . S
O54 C36 1.257 . S
H55 C41 0.929 . S
H56 C43 0.931 . S
H57 C45 0.929 . S
O58 Tb59 2.292 . S
O58 C61 1.255 . S
Tb59 O58 2.292 . S
Tb59 O75 2.326 . S
Tb59 O77 2.500 . S
Tb59 O78 2.473 . S
Tb59 O81 2.324 . S
Eu60 O64 2.292 . S
Eu60 C65 2.852 . S
Eu60 O76 2.324 . S
Eu60 O80 2.326 . S
Eu60 O82 2.500 . S
Eu60 O83 2.473 . S
C61 O58 1.255 . S
C61 O62 1.247 . S
O62 C61 1.247 . S
C63 O75 1.242 . S
C63 O76 1.258 . S
O64 Eu60 2.292 . S
O64 C66 1.255 . S
C65 Eu60 2.852 . S
C65 C69 1.503 . S
C65 O82 1.273 . S
C65 O83 1.257 . S
C66 O64 1.255 . S
C66 O67 1.247 . S
O67 C66 1.247 . S
C68 O80 1.242 . S
C68 O81 1.258 . S
C69 C65 1.503 . S
C69 C70 1.379 . S
C69 C74 1.392 . S
C70 C69 1.379 . S
C70 C71 1.404 . S
C70 H84 0.929 . S
C71 C70 1.404 . S
C71 C72 1.389 . S
C72 C71 1.389 . S
C72 C73 1.399 . S
C72 H85 0.931 . S
C73 C72 1.399 . S
C73 C74 1.390 . S
C74 C69 1.392 . S
C74 C73 1.390 . S
C74 H86 0.929 . S
O75 Tb59 2.326 . S
O75 C63 1.242 . S
O76 Eu60 2.324 . S
O76 C63 1.258 . S
O77 Tb59 2.500 . S
O77 C79 1.273 . S
O78 Tb59 2.473 . S
O78 C79 1.257 . S
C79 O77 1.273 . S
C79 O78 1.257 . S
O80 Eu60 2.326 . S
O80 C68 1.242 . S
O81 Tb59 2.324 . S
O81 C68 1.258 . S
O82 Eu60 2.500 . S
O82 C65 1.273 . S
O83 Eu60 2.473 . S
O83 C65 1.257 . S
H84 C70 0.929 . S
H85 C72 0.931 . S
H86 C74 0.929 . S
O87 Tb88 2.292 . S
O87 C90 1.255 . S
Tb88 O87 2.292 . S
Tb88 O104 2.326 . S
Tb88 O106 2.500 . S
Tb88 O107 2.473 . S
Tb88 O110 2.324 . S
Eu89 O93 2.292 . S
Eu89 C94 2.852 . S
Eu89 O105 2.324 . S
Eu89 O109 2.326 . S
Eu89 O111 2.500 . S
Eu89 O112 2.473 . S
C90 O87 1.255 . S
C90 O91 1.247 . S
O91 C90 1.247 . S
C92 O104 1.242 . S
C92 O105 1.258 . S
O93 Eu89 2.292 . S
O93 C95 1.255 . S
C94 Eu89 2.852 . S
C94 C98 1.503 . S
C94 O111 1.273 . S
C94 O112 1.257 . S
C95 O93 1.255 . S
C95 O96 1.247 . S
O96 C95 1.247 . S
C97 O109 1.242 . S
C97 O110 1.258 . S
C98 C94 1.503 . S
C98 C99 1.379 . S
C98 C103 1.392 . S
C99 C98 1.379 . S
C99 C100 1.404 . S
C99 H113 0.929 . S
C100 C99 1.404 . S
C100 C101 1.389 . S
C101 C100 1.389 . S
C101 C102 1.399 . S
C101 H114 0.931 . S
C102 C101 1.399 . S
C102 C103 1.390 . S
C103 C98 1.392 . S
C103 C102 1.390 . S
C103 H115 0.929 . S
O104 Tb88 2.326 . S
O104 C92 1.242 . S
O105 Eu89 2.324 . S
O105 C92 1.258 . S
O106 Tb88 2.500 . S
O106 C108 1.273 . S
O107 Tb88 2.473 . S
O107 C108 1.257 . S
C108 O106 1.273 . S
C108 O107 1.257 . S
O109 Eu89 2.326 . S
O109 C97 1.242 . S
O110 Tb88 2.324 . S
O110 C97 1.258 . S
O111 Eu89 2.500 . S
O111 C94 1.273 . S
O112 Eu89 2.473 . S
O112 C94 1.257 . S
H113 C99 0.929 . S
H114 C101 0.931 . S
H115 C103 0.929 . S
O116 Tb117 2.292 . S
O116 C119 1.255 . S
Tb117 O116 2.292 . S
Tb117 O133 2.326 . S
Tb117 O135 2.500 . S
Tb117 O136 2.473 . S
Tb117 O139 2.324 . S
Eu118 O122 2.292 . S
Eu118 C123 2.852 . S
Eu118 O134 2.324 . S
Eu118 O138 2.326 . S
Eu118 O140 2.500 . S
Eu118 O141 2.473 . S
C119 O116 1.255 . S
C119 O120 1.247 . S
O120 C119 1.247 . S
C121 O133 1.242 . S
C121 O134 1.258 . S
O122 Eu118 2.292 . S
O122 C124 1.255 . S
C123 Eu118 2.852 . S
C123 C127 1.503 . S
C123 O140 1.273 . S
C123 O141 1.257 . S
C124 O122 1.255 . S
C124 O125 1.247 . S
O125 C124 1.247 . S
C126 O138 1.242 . S
C126 O139 1.258 . S
C127 C123 1.503 . S
C127 C128 1.379 . S
C127 C132 1.392 . S
C128 C127 1.379 . S
C128 C129 1.404 . S
C128 H142 0.929 . S
C129 C128 1.404 . S
C129 C130 1.389 . S
C130 C129 1.389 . S
C130 C131 1.399 . S
C130 H143 0.931 . S
C131 C130 1.399 . S
C131 C132 1.390 . S
C132 C127 1.392 . S
C132 C131 1.390 . S
C132 H144 0.929 . S
O133 Tb117 2.326 . S
O133 C121 1.242 . S
O134 Eu118 2.324 . S
O134 C121 1.258 . S
O135 Tb117 2.500 . S
O135 C137 1.273 . S
O136 Tb117 2.473 . S
O136 C137 1.257 . S
C137 O135 1.273 . S
C137 O136 1.257 . S
O138 Eu118 2.326 . S
O138 C126 1.242 . S
O139 Tb117 2.324 . S
O139 C126 1.258 . S
O140 Eu118 2.500 . S
O140 C123 1.273 . S
O141 Eu118 2.473 . S
O141 C123 1.257 . S
H142 C128 0.929 . S
H143 C130 0.931 . S
H144 C132 0.929 . S
O145 Tb146 2.292 . S
O145 C148 1.255 . S
Tb146 O145 2.292 . S
Tb146 O162 2.326 . S
Tb146 O164 2.500 . S
Tb146 O165 2.473 . S
Tb146 O168 2.324 . S
Eu147 O151 2.292 . S
Eu147 C152 2.852 . S
Eu147 O163 2.324 . S
Eu147 O167 2.326 . S
Eu147 O169 2.500 . S
Eu147 O170 2.473 . S
C148 O145 1.255 . S
C148 O149 1.247 . S
O149 C148 1.247 . S
C150 O162 1.242 . S
C150 O163 1.258 . S
O151 Eu147 2.292 . S
O151 C153 1.255 . S
C152 Eu147 2.852 . S
C152 C156 1.503 . S
C152 O169 1.273 . S
C152 O170 1.257 . S
C153 O151 1.255 . S
C153 O154 1.247 . S
O154 C153 1.247 . S
C155 O167 1.242 . S
C155 O168 1.258 . S
C156 C152 1.503 . S
C156 C157 1.379 . S
C156 C161 1.392 . S
C157 C156 1.379 . S
C157 C158 1.404 . S
C157 H171 0.929 . S
C158 C157 1.404 . S
C158 C159 1.389 . S
C159 C158 1.389 . S
C159 C160 1.399 . S
C159 H172 0.931 . S
C160 C159 1.399 . S
C160 C161 1.390 . S
C161 C156 1.392 . S
C161 C160 1.390 . S
C161 H173 0.929 . S
O162 Tb146 2.326 . S
O162 C150 1.242 . S
O163 Eu147 2.324 . S
O163 C150 1.258 . S
O164 Tb146 2.500 . S
O164 C166 1.273 . S
O165 Tb146 2.473 . S
O165 C166 1.257 . S
C166 O164 1.273 . S
C166 O165 1.257 . S
O167 Eu147 2.326 . S
O167 C155 1.242 . S
O168 Tb146 2.324 . S
O168 C155 1.258 . S
O169 Eu147 2.500 . S
O169 C152 1.273 . S
O170 Eu147 2.473 . S
O170 C152 1.257 . S
H171 C157 0.929 . S
H172 C159 0.931 . S
H173 C161 0.929 . S
O174 Tb175 2.292 . S
O174 C177 1.255 . S
Tb175 O174 2.292 . S
Tb175 O191 2.326 . S
Tb175 O193 2.500 . S
Tb175 O194 2.473 . S
Tb175 O197 2.324 . S
Eu176 O180 2.292 . S
Eu176 C181 2.852 . S
Eu176 O192 2.324 . S
Eu176 O196 2.326 . S
Eu176 O198 2.500 . S
Eu176 O199 2.473 . S
C177 O174 1.255 . S
C177 O178 1.247 . S
O178 C177 1.247 . S
C179 O191 1.242 . S
C179 O192 1.258 . S
O180 Eu176 2.292 . S
O180 C182 1.255 . S
C181 Eu176 2.852 . S
C181 C185 1.503 . S
C181 O198 1.273 . S
C181 O199 1.257 . S
C182 O180 1.255 . S
C182 O183 1.247 . S
O183 C182 1.247 . S
C184 O196 1.242 . S
C184 O197 1.258 . S
C185 C181 1.503 . S
C185 C186 1.379 . S
C185 C190 1.392 . S
C186 C185 1.379 . S
C186 C187 1.404 . S
C186 H200 0.929 . S
C187 C186 1.404 . S
C187 C188 1.389 . S
C188 C187 1.389 . S
C188 C189 1.399 . S
C188 H201 0.931 . S
C189 C188 1.399 . S
C189 C190 1.390 . S
C190 C185 1.392 . S
C190 C189 1.390 . S
C190 H202 0.929 . S
O191 Tb175 2.326 . S
O191 C179 1.242 . S
O192 Eu176 2.324 . S
O192 C179 1.258 . S
O193 Tb175 2.500 . S
O193 C195 1.273 . S
O194 Tb175 2.473 . S
O194 C195 1.257 . S
C195 O193 1.273 . S
C195 O194 1.257 . S
O196 Eu176 2.326 . S
O196 C184 1.242 . S
O197 Tb175 2.324 . S
O197 C184 1.258 . S
O198 Eu176 2.500 . S
O198 C181 1.273 . S
O199 Eu176 2.473 . S
O199 C181 1.257 . S
H200 C186 0.929 . S
H201 C188 0.931 . S
H202 C190 0.929 . S
O203 Tb204 2.292 . S
O203 C206 1.255 . S
Tb204 O203 2.292 . S
Tb204 O220 2.326 . S
Tb204 O222 2.500 . S
Tb204 O223 2.473 . S
Tb204 O226 2.324 . S
Eu205 O209 2.292 . S
Eu205 C210 2.852 . S
Eu205 O221 2.324 . S
Eu205 O225 2.326 . S
Eu205 O227 2.500 . S
Eu205 O228 2.473 . S
C206 O203 1.255 . S
C206 O207 1.247 . S
O207 C206 1.247 . S
C208 O220 1.242 . S
C208 O221 1.258 . S
O209 Eu205 2.292 . S
O209 C211 1.255 . S
C210 Eu205 2.852 . S
C210 C214 1.503 . S
C210 O227 1.273 . S
C210 O228 1.257 . S
C211 O209 1.255 . S
C211 O212 1.247 . S
O212 C211 1.247 . S
C213 O225 1.242 . S
C213 O226 1.258 . S
C214 C210 1.503 . S
C214 C215 1.379 . S
C214 C219 1.392 . S
C215 C214 1.379 . S
C215 C216 1.404 . S
C215 H229 0.929 . S
C216 C215 1.404 . S
C216 C217 1.389 . S
C217 C216 1.389 . S
C217 C218 1.399 . S
C217 H230 0.931 . S
C218 C217 1.399 . S
C218 C219 1.390 . S
C219 C214 1.392 . S
C219 C218 1.390 . S
C219 H231 0.929 . S
O220 Tb204 2.326 . S
O220 C208 1.242 . S
O221 Eu205 2.324 . S
O221 C208 1.258 . S
O222 Tb204 2.500 . S
O222 C224 1.273 . S
O223 Tb204 2.473 . S
O223 C224 1.257 . S
C224 O222 1.273 . S
C224 O223 1.257 . S
O225 Eu205 2.326 . S
O225 C213 1.242 . S
O226 Tb204 2.324 . S
O226 C213 1.258 . S
O227 Eu205 2.500 . S
O227 C210 1.273 . S
O228 Eu205 2.473 . S
O228 C210 1.257 . S
H229 C215 0.929 . S
H230 C217 0.931 . S
H231 C219 0.929 . S
C232 C233 1.349 . S
C232 C234 1.327 . S
C232 H257 0.950 . S
C233 C232 1.349 . S
C233 C249 1.349 . S
C234 C232 1.327 . S
C234 C253 1.429 . S
C234 H258 0.950 . S
C235 C252 1.574 . S
C235 C254 1.368 . S
C235 H259 0.949 . S
H236 C240 0.949 . S
C237 C238 1.349 . S
C237 C239 1.327 . S
C237 H260 0.950 . S
C238 C237 1.349 . S
C238 C250 1.349 . S
C239 C237 1.327 . S
C239 C255 1.429 1_556 S
C239 H261 0.960 . S
C240 H236 0.949 . S
C240 C248 1.574 . S
C240 C256 1.368 . S
H241 C249 0.950 . S
H242 C247 0.950 . S
H243 C248 0.949 . S
H244 C250 0.950 . S
H245 C251 0.950 1_554 S
H246 C252 0.949 . S
C247 H242 0.950 . S
C247 C249 1.327 . S
C247 C253 1.429 . S
C248 C240 1.574 . S
C248 H243 0.949 . S
C248 C254 1.368 . S
C249 C233 1.349 . S
C249 H241 0.950 . S
C249 C247 1.327 . S
C250 C238 1.349 . S
C250 H244 0.950 . S
C250 C251 1.327 . S
C251 H245 0.950 1_556 S
C251 C250 1.327 . S
C251 C255 1.429 1_556 S
C252 C235 1.574 . S
C252 H246 0.949 . S
C252 C256 1.368 . S
C253 C234 1.429 . S
C253 C247 1.429 . S
C253 C254 1.523 . S
C254 C235 1.368 . S
C254 C248 1.368 . S
C254 C253 1.523 . S
C255 C239 1.429 1_554 S
C255 C251 1.429 1_554 S
C255 C256 1.523 . S
C256 C240 1.368 . S
C256 C252 1.368 . S
C256 C255 1.523 . S
H257 C232 0.950 . S
H258 C234 0.950 . S
H259 C235 0.949 . S
H260 C237 0.950 . S
H261 C239 0.960 . S
C262 C263 1.349 . S
C262 C264 1.327 . S
C262 H287 0.950 . S
C263 C262 1.349 . S
C263 C279 1.349 . S
C264 C262 1.327 . S
C264 C283 1.429 1_554 S
C264 H288 0.950 1_554 S
C265 C282 1.574 . S
C265 C284 1.368 . S
C265 H289 0.949 . S
H266 C270 0.949 . S
C267 C268 1.349 . S
C267 C269 1.327 . S
C267 H290 0.950 . S
C268 C267 1.349 . S
C268 C280 1.349 . S
C269 C267 1.327 . S
C269 C285 1.429 . S
C269 H291 0.950 . S
C270 H266 0.949 . S
C270 C278 1.574 . S
C270 C286 1.368 . S
H271 C279 0.950 . S
H272 C277 0.950 1_556 S
H273 C278 0.949 . S
H274 C280 0.950 . S
H275 C281 0.950 . S
H276 C282 0.949 . S
C277 H272 0.950 1_554 S
C277 C279 1.327 . S
C277 C283 1.429 1_554 S
C278 C270 1.574 . S
C278 H273 0.949 . S
C278 C284 1.368 . S
C279 C263 1.349 . S
C279 H271 0.950 . S
C279 C277 1.327 . S
C280 C268 1.349 . S
C280 H274 0.950 . S
C280 C281 1.327 . S
C281 H275 0.950 . S
C281 C280 1.327 . S
C281 C285 1.429 . S
C282 C265 1.574 . S
C282 H276 0.949 . S
C282 C286 1.368 . S
C283 C264 1.429 1_556 S
C283 C277 1.429 1_556 S
C283 C284 1.523 . S
C284 C265 1.368 . S
C284 C278 1.368 . S
C284 C283 1.523 . S
C285 C269 1.429 . S
C285 C281 1.429 . S
C285 C286 1.523 . S
C286 C270 1.368 . S
C286 C282 1.368 . S
C286 C285 1.523 . S
H287 C262 0.950 . S
H288 C264 0.950 1_556 S
H289 C265 0.949 . S
H290 C267 0.950 . S
H291 C269 0.950 . S
C292 C293 1.349 . S
C292 C294 1.327 . S
C292 H317 0.950 . S
C293 C292 1.349 . S
C293 C309 1.349 . S
C294 C292 1.327 . S
C294 C313 1.429 1_556 S
C294 H318 0.950 1_556 S
C295 C312 1.574 . S
C295 C314 1.368 . S
C295 H319 0.949 . S
H296 C300 0.949 . S
C297 C298 1.349 . S
C297 C299 1.327 . S
C297 H320 0.950 . S
C298 C297 1.349 . S
C298 C310 1.349 . S
C299 C297 1.327 . S
C299 C315 1.429 . S
C299 H321 0.950 . S
C300 H296 0.949 . S
C300 C308 1.574 . S
C300 C316 1.368 . S
H301 C309 0.950 . S
H302 C307 0.950 1_554 S
H303 C308 0.949 . S
H304 C310 0.950 . S
H305 C311 0.950 . S
H306 C312 0.949 . S
C307 H302 0.950 1_556 S
C307 C309 1.327 . S
C307 C313 1.429 1_556 S
C308 C300 1.574 . S
C308 H303 0.949 . S
C308 C314 1.368 . S
C309 C293 1.349 . S
C309 H301 0.950 . S
C309 C307 1.327 . S
C310 C298 1.349 . S
C310 H304 0.950 . S
C310 C311 1.327 . S
C311 H305 0.950 . S
C311 C310 1.327 . S
C311 C315 1.429 . S
C312 C295 1.574 . S
C312 H306 0.949 . S
C312 C316 1.368 . S
C313 C294 1.429 1_554 S
C313 C307 1.429 1_554 S
C313 C314 1.523 . S
C314 C295 1.368 . S
C314 C308 1.368 . S
C314 C313 1.523 . S
C315 C299 1.429 . S
C315 C311 1.429 . S
C315 C316 1.523 . S
C316 C300 1.368 . S
C316 C312 1.368 . S
C316 C315 1.523 . S
H317 C292 0.950 . S
H318 C294 0.950 1_554 S
H319 C295 0.949 . S
H320 C297 0.950 . S
H321 C299 0.950 . S
C322 C323 1.349 . S
C322 C324 1.327 . S
C322 H347 0.950 . S
C323 C322 1.349 . S
C323 C339 1.349 . S
C324 C322 1.327 . S
C324 C343 1.429 . S
C324 H348 0.950 . S
C325 C342 1.574 . S
C325 C344 1.368 . S
C325 H349 0.949 . S
H326 C330 0.949 . S
C327 C328 1.349 . S
C327 C329 1.327 . S
C327 H350 0.950 . S
C328 C327 1.349 . S
C328 C340 1.349 . S
C329 C327 1.327 . S
C329 C345 1.429 1_554 S
C329 H351 0.950 1_554 S
C330 H326 0.949 . S
C330 C338 1.574 . S
C330 C346 1.368 . S
H331 C339 0.950 . S
H332 C337 0.950 . S
H333 C338 0.949 . S
H334 C340 0.950 . S
H335 C341 0.950 1_556 S
H336 C342 0.949 . S
C337 H332 0.950 . S
C337 C339 1.327 . S
C337 C343 1.429 . S
C338 C330 1.574 . S
C338 H333 0.949 . S
C338 C344 1.368 . S
C339 C323 1.349 . S
C339 H331 0.950 . S
C339 C337 1.327 . S
C340 C328 1.349 . S
C340 H334 0.950 . S
C340 C341 1.327 . S
C341 H335 0.950 1_554 S
C341 C340 1.327 . S
C341 C345 1.429 1_554 S
C342 C325 1.574 . S
C342 H336 0.949 . S
C342 C346 1.368 . S
C343 C324 1.429 . S
C343 C337 1.429 . S
C343 C344 1.523 . S
C344 C325 1.368 . S
C344 C338 1.368 . S
C344 C343 1.523 . S
C345 C329 1.429 1_556 S
C345 C341 1.429 1_556 S
C345 C346 1.523 . S
C346 C330 1.368 . S
C346 C342 1.368 . S
C346 C345 1.523 . S
H347 C322 0.950 . S
H348 C324 0.950 . S
H349 C325 0.949 . S
H350 C327 0.950 . S
H351 C329 0.950 1_556 S
C352 C353 1.349 . S
C352 C354 1.327 . S
C352 H377 0.950 . S
C353 C352 1.349 . S
C353 C369 1.349 . S
C354 C352 1.327 . S
C354 C373 1.429 . S
C354 H378 0.950 . S
C355 C372 1.574 . S
C355 C374 1.368 . S
C355 H379 0.949 . S
H356 C360 0.949 . S
C357 C358 1.349 . S
C357 C359 1.327 . S
C357 H380 0.950 . S
C358 C357 1.349 . S
C358 C370 1.349 . S
C359 C357 1.327 . S
C359 C375 1.429 . S
C359 H381 0.950 . S
C360 H356 0.949 . S
C360 C368 1.574 . S
C360 C376 1.368 . S
H361 C369 0.950 . S
H362 C367 0.950 . S
H363 C368 0.949 . S
H364 C370 0.950 . S
H365 C371 0.950 . S
H366 C372 0.949 . S
C367 H362 0.950 . S
C367 C369 1.327 . S
C367 C373 1.429 . S
C368 C360 1.574 . S
C368 H363 0.949 . S
C368 C374 1.368 . S
C369 C353 1.349 . S
C369 H361 0.950 . S
C369 C367 1.327 . S
C370 C358 1.349 . S
C370 H364 0.950 . S
C370 C371 1.327 . S
C371 H365 0.950 . S
C371 C370 1.327 . S
C371 C375 1.429 . S
C372 C355 1.574 . S
C372 H366 0.949 . S
C372 C376 1.368 . S
C373 C354 1.429 . S
C373 C367 1.429 . S
C373 C374 1.523 . S
C374 C355 1.368 . S
C374 C368 1.368 . S
C374 C373 1.523 . S
C375 C359 1.429 . S
C375 C371 1.429 . S
C375 C376 1.523 . S
C376 C360 1.368 . S
C376 C372 1.368 . S
C376 C375 1.523 . S
H377 C352 0.950 . S
H378 C354 0.950 . S
H379 C355 0.949 . S
H380 C357 0.950 . S
H381 C359 0.950 . S
C382 C383 1.349 . S
C382 C384 1.327 . S
C382 H407 0.950 . S
C383 C382 1.349 . S
C383 C399 1.349 . S
C384 C382 1.327 . S
C384 C403 1.429 . S
C384 H408 0.950 . S
C385 C402 1.574 . S
C385 C404 1.368 . S
C385 H409 0.949 . S
H386 C390 0.949 . S
C387 C388 1.349 . S
C387 C389 1.327 . S
C387 H410 0.950 . S
C388 C387 1.349 . S
C388 C400 1.349 . S
C389 C387 1.327 . S
C389 C405 1.429 . S
C389 H411 0.950 . S
C390 H386 0.949 . S
C390 C398 1.574 . S
C390 C406 1.368 . S
H391 C399 0.950 . S
H392 C397 0.950 . S
H393 C398 0.949 . S
H394 C400 0.950 . S
H395 C401 0.950 . S
H396 C402 0.949 . S
C397 H392 0.950 . S
C397 C399 1.327 . S
C397 C403 1.429 . S
C398 C390 1.574 . S
C398 H393 0.949 . S
C398 C404 1.368 . S
C399 C383 1.349 . S
C399 H391 0.950 . S
C399 C397 1.327 . S
C400 C388 1.349 . S
C400 H394 0.950 . S
C400 C401 1.327 . S
C401 H395 0.950 . S
C401 C400 1.327 . S
C401 C405 1.429 . S
C402 C385 1.574 . S
C402 H396 0.949 . S
C402 C406 1.368 . S
C403 C384 1.429 . S
C403 C397 1.429 . S
C403 C404 1.523 . S
C404 C385 1.368 . S
C404 C398 1.368 . S
C404 C403 1.523 . S
C405 C389 1.429 . S
C405 C401 1.429 . S
C405 C406 1.523 . S
C406 C390 1.368 . S
C406 C402 1.368 . S
C406 C405 1.523 . S
H407 C382 0.950 . S
H408 C384 0.950 . S
H409 C385 0.949 . S
H410 C387 0.950 . S
H411 C389 0.950 . S
C412 C413 1.349 . S
C412 C414 1.327 . S
C412 H437 0.950 . S
C413 C412 1.349 . S
C413 C429 1.349 . S
C414 C412 1.327 . S
C414 C433 1.429 . S
C414 H438 0.950 . S
C415 C432 1.574 . S
C415 C434 1.368 . S
C415 H439 0.949 . S
H416 C420 0.949 . S
C417 C418 1.349 . S
C417 C419 1.327 . S
C417 H440 0.950 . S
C418 C417 1.349 . S
C418 C430 1.349 . S
C419 C417 1.327 . S
C419 C435 1.429 . S
C419 H441 0.950 . S
C420 H416 0.949 . S
C420 C428 1.574 . S
C420 C436 1.368 . S
H421 C429 0.950 . S
H422 C427 0.950 . S
H423 C428 0.949 . S
H424 C430 0.950 . S
H425 C431 0.950 . S
H426 C432 0.949 . S
C427 H422 0.950 . S
C427 C429 1.327 . S
C427 C433 1.429 . S
C428 C420 1.574 . S
C428 H423 0.949 . S
C428 C434 1.368 . S
C429 C413 1.349 . S
C429 H421 0.950 . S
C429 C427 1.327 . S
C430 C418 1.349 . S
C430 H424 0.950 . S
C430 C431 1.327 . S
C431 H425 0.950 . S
C431 C430 1.327 . S
C431 C435 1.429 . S
C432 C415 1.574 . S
C432 H426 0.949 . S
C432 C436 1.368 . S
C433 C414 1.429 . S
C433 C427 1.429 . S
C433 C434 1.523 . S
C434 C415 1.368 . S
C434 C428 1.368 . S
C434 C433 1.523 . S
C435 C419 1.429 . S
C435 C431 1.429 . S
C435 C436 1.523 . S
C436 C420 1.368 . S
C436 C432 1.368 . S
C436 C435 1.523 . S
H437 C412 0.950 . S
H438 C414 0.950 . S
H439 C415 0.949 . S
H440 C417 0.950 . S
H441 C419 0.950 . S
C442 C443 1.349 . S
C442 C444 1.327 . S
C442 H467 0.950 . S
C443 C442 1.349 . S
C443 C459 1.349 . S
C444 C442 1.327 . S
C444 C463 1.429 . S
C444 H468 0.950 . S
C445 C462 1.574 . S
C445 C464 1.368 . S
C445 H469 0.949 . S
H446 C450 0.949 . S
C447 C448 1.349 . S
C447 C449 1.327 . S
C447 H470 0.950 . S
C448 C447 1.349 . S
C448 C460 1.349 . S
C449 C447 1.327 . S
C449 C465 1.429 . S
C449 H471 0.950 . S
C450 H446 0.949 . S
C450 C458 1.574 . S
C450 C466 1.368 . S
H451 C459 0.950 . S
H452 C457 0.950 . S
H453 C458 0.949 . S
H454 C460 0.950 . S
H455 C461 0.950 . S
H456 C462 0.949 . S
C457 H452 0.950 . S
C457 C459 1.327 . S
C457 C463 1.429 . S
C458 C450 1.574 . S
C458 H453 0.949 . S
C458 C464 1.368 . S
C459 C443 1.349 . S
C459 H451 0.950 . S
C459 C457 1.327 . S
C460 C448 1.349 . S
C460 H454 0.950 . S
C460 C461 1.327 . S
C461 H455 0.950 . S
C461 C460 1.327 . S
C461 C465 1.429 . S
C462 C445 1.574 . S
C462 H456 0.949 . S
C462 C466 1.368 . S
C463 C444 1.429 . S
C463 C457 1.429 . S
C463 C464 1.523 . S
C464 C445 1.368 . S
C464 C458 1.368 . S
C464 C463 1.523 . S
C465 C449 1.429 . S
C465 C461 1.429 . S
C465 C466 1.523 . S
C466 C450 1.368 . S
C466 C462 1.368 . S
C466 C465 1.523 . S
H467 C442 0.950 . S
H468 C444 0.950 . S
H469 C445 0.949 . S
H470 C447 0.950 . S
H471 C449 0.950 . S
C472 C473 1.349 . S
C472 C474 1.327 . S
C472 H497 0.950 . S
C473 C472 1.349 . S
C473 C489 1.349 . S
C474 C472 1.327 . S
C474 C493 1.429 . S
C474 H498 0.950 . S
C475 C492 1.574 1_545 S
C475 C494 1.368 . S
C475 H499 0.949 . S
H476 C480 0.949 . S
C477 C478 1.349 . S
C477 C479 1.327 . S
C477 H500 0.950 . S
C478 C477 1.349 . S
C478 C490 1.349 . S
C479 C477 1.327 . S
C479 C495 1.429 . S
C479 H501 0.950 . S
C480 H476 0.949 . S
C480 C488 1.574 1_565 S
C480 C496 1.368 . S
H481 C489 0.950 . S
H482 C487 0.950 . S
H483 C488 0.949 . S
H484 C490 0.950 . S
H485 C491 0.950 . S
H486 C492 0.949 . S
C487 H482 0.950 . S
C487 C489 1.327 . S
C487 C493 1.429 . S
C488 C480 1.574 1_545 S
C488 H483 0.949 . S
C488 C494 1.368 . S
C489 C473 1.349 . S
C489 H481 0.950 . S
C489 C487 1.327 . S
C490 C478 1.349 . S
C490 H484 0.950 . S
C490 C491 1.327 . S
C491 H485 0.950 . S
C491 C490 1.327 . S
C491 C495 1.429 . S
C492 C475 1.574 1_565 S
C492 H486 0.949 . S
C492 C496 1.368 . S
C493 C474 1.429 . S
C493 C487 1.429 . S
C493 C494 1.523 . S
C494 C475 1.368 . S
C494 C488 1.368 . S
C494 C493 1.523 . S
C495 C479 1.429 . S
C495 C491 1.429 . S
C495 C496 1.523 . S
C496 C480 1.368 . S
C496 C492 1.368 . S
C496 C495 1.523 . S
H497 C472 0.950 . S
H498 C474 0.950 . S
H499 C475 0.949 . S
H500 C477 0.950 . S
H501 C479 0.950 . S
C502 C503 1.349 . S
C502 C504 1.327 . S
C502 H527 0.950 . S
C503 C502 1.349 . S
C503 C519 1.349 . S
C504 C502 1.327 . S
C504 C523 1.429 . S
C504 H528 0.950 . S
C505 C522 1.574 1_655 S
C505 C524 1.368 . S
C505 H529 0.949 . S
H506 C510 0.949 . S
C507 C508 1.349 . S
C507 C509 1.327 . S
C507 H530 0.950 . S
C508 C507 1.349 . S
C508 C520 1.349 . S
C509 C507 1.327 . S
C509 C525 1.429 . S
C509 H531 0.950 . S
C510 H506 0.949 . S
C510 C518 1.574 1_455 S
C510 C526 1.368 . S
H511 C519 0.950 . S
H512 C517 0.950 . S
H513 C518 0.949 . S
H514 C520 0.950 . S
H515 C521 0.950 . S
H516 C522 0.949 . S
C517 H512 0.950 . S
C517 C519 1.327 . S
C517 C523 1.429 . S
C518 C510 1.574 1_655 S
C518 H513 0.949 . S
C518 C524 1.368 . S
C519 C503 1.349 . S
C519 H511 0.950 . S
C519 C517 1.327 . S
C520 C508 1.349 . S
C520 H514 0.950 . S
C520 C521 1.327 . S
C521 H515 0.950 . S
C521 C520 1.327 . S
C521 C525 1.429 . S
C522 C505 1.574 1_455 S
C522 H516 0.949 . S
C522 C526 1.368 . S
C523 C504 1.429 . S
C523 C517 1.429 . S
C523 C524 1.523 . S
C524 C505 1.368 . S
C524 C518 1.368 . S
C524 C523 1.523 . S
C525 C509 1.429 . S
C525 C521 1.429 . S
C525 C526 1.523 . S
C526 C510 1.368 . S
C526 C522 1.368 . S
C526 C525 1.523 . S
H527 C502 0.950 . S
H528 C504 0.950 . S
H529 C505 0.949 . S
H530 C507 0.950 . S
H531 C509 0.950 . S
C532 C533 1.349 . S
C532 C534 1.327 . S
C532 H557 0.950 . S
C533 C532 1.349 . S
C533 C549 1.349 . S
C534 C532 1.327 . S
C534 C553 1.429 . S
C534 H558 0.950 . S
C535 C552 1.574 . S
C535 C554 1.368 1_455 S
C535 H559 0.949 . S
H536 C540 0.949 . S
C537 C538 1.349 . S
C537 C539 1.327 . S
C537 H560 0.950 . S
C538 C537 1.349 . S
C538 C550 1.349 . S
C539 C537 1.327 . S
C539 C555 1.429 . S
C539 H561 0.950 . S
C540 H536 0.949 . S
C540 C548 1.574 . S
C540 C556 1.368 1_655 S
H541 C549 0.950 . S
H542 C547 0.950 . S
H543 C548 0.949 . S
H544 C550 0.950 . S
H545 C551 0.950 . S
H546 C552 0.949 . S
C547 H542 0.950 . S
C547 C549 1.327 . S
C547 C553 1.429 . S
C548 C540 1.574 . S
C548 H543 0.949 . S
C548 C554 1.368 . S
C549 C533 1.349 . S
C549 H541 0.950 . S
C549 C547 1.327 . S
C550 C538 1.349 . S
C550 H544 0.950 . S
C550 C551 1.327 . S
C551 H545 0.950 . S
C551 C550 1.327 . S
C551 C555 1.429 . S
C552 C535 1.574 . S
C552 H546 0.949 . S
C552 C556 1.368 . S
C553 C534 1.429 . S
C553 C547 1.429 . S
C553 C554 1.523 . S
C554 C535 1.368 1_655 S
C554 C548 1.368 . S
C554 C553 1.523 . S
C555 C539 1.429 . S
C555 C551 1.429 . S
C555 C556 1.523 . S
C556 C540 1.368 1_455 S
C556 C552 1.368 . S
C556 C555 1.523 . S
H557 C532 0.950 . S
H558 C534 0.950 . S
H559 C535 0.949 . S
H560 C537 0.950 . S
H561 C539 0.950 . S
C562 C563 1.349 . S
C562 C564 1.327 . S
C562 H587 0.950 . S
C563 C562 1.349 . S
C563 C579 1.349 . S
C564 C562 1.327 . S
C564 C583 1.429 . S
C564 H588 0.950 . S
C565 C582 1.574 . S
C565 C584 1.368 1_565 S
C565 H589 0.949 . S
H566 C570 0.949 . S
C567 C568 1.349 . S
C567 C569 1.327 . S
C567 H590 0.950 . S
C568 C567 1.349 . S
C568 C580 1.349 . S
C569 C567 1.327 . S
C569 C585 1.429 . S
C569 H591 0.950 . S
C570 H566 0.949 . S
C570 C578 1.574 . S
C570 C586 1.368 1_545 S
H571 C579 0.950 . S
H572 C577 0.950 . S
H573 C578 0.949 . S
H574 C580 0.950 . S
H575 C581 0.950 . S
H576 C582 0.949 . S
C577 H572 0.950 . S
C577 C579 1.327 . S
C577 C583 1.429 . S
C578 C570 1.574 . S
C578 H573 0.949 . S
C578 C584 1.368 . S
C579 C563 1.349 . S
C579 H571 0.950 . S
C579 C577 1.327 . S
C580 C568 1.349 . S
C580 H574 0.950 . S
C580 C581 1.327 . S
C581 H575 0.950 . S
C581 C580 1.327 . S
C581 C585 1.429 . S
C582 C565 1.574 . S
C582 H576 0.949 . S
C582 C586 1.368 . S
C583 C564 1.429 . S
C583 C577 1.429 . S
C583 C584 1.523 . S
C584 C565 1.368 1_545 S
C584 C578 1.368 . S
C584 C583 1.523 . S
C585 C569 1.429 . S
C585 C581 1.429 . S
C585 C586 1.523 . S
C586 C570 1.368 1_565 S
C586 C582 1.368 . S
C586 C585 1.523 . S
H587 C562 0.950 . S
H588 C564 0.950 . S
H589 C565 0.949 . S
H590 C567 0.950 . S
H591 C569 0.950 . S
C592 C593 1.349 . S
C592 C594 1.327 . S
C592 H617 0.950 . S
C593 C592 1.349 . S
C593 C609 1.349 . S
C594 C592 1.327 . S
C594 C613 1.429 . S
C594 H618 0.950 . S
C595 C612 1.574 . S
C595 C614 1.368 . S
C595 H619 0.949 . S
H596 C600 0.949 . S
C597 C598 1.349 . S
C597 C599 1.327 . S
C597 H620 0.950 . S
C598 C597 1.349 . S
C598 C610 1.349 . S
C599 C597 1.327 . S
C599 C615 1.429 . S
C599 H621 0.950 . S
C600 H596 0.949 . S
C600 C608 1.574 . S
C600 C616 1.368 . S
H601 C609 0.950 . S
H602 C607 0.950 . S
H603 C608 0.949 . S
H604 C610 0.950 . S
H605 C611 0.950 . S
H606 C612 0.949 . S
C607 H602 0.950 . S
C607 C609 1.327 . S
C607 C613 1.429 . S
C608 C600 1.574 . S
C608 H603 0.949 . S
C608 C614 1.368 . S
C609 C593 1.349 . S
C609 H601 0.950 . S
C609 C607 1.327 . S
C610 C598 1.349 . S
C610 H604 0.950 . S
C610 C611 1.327 . S
C611 H605 0.950 . S
C611 C610 1.327 . S
C611 C615 1.429 . S
C612 C595 1.574 . S
C612 H606 0.949 . S
C612 C616 1.368 . S
C613 C594 1.429 . S
C613 C607 1.429 . S
C613 C614 1.523 . S
C614 C595 1.368 . S
C614 C608 1.368 . S
C614 C613 1.523 . S
C615 C599 1.429 . S
C615 C611 1.429 . S
C615 C616 1.523 . S
C616 C600 1.368 . S
C616 C612 1.368 . S
C616 C615 1.523 . S
H617 C592 0.950 . S
H618 C594 0.950 . S
H619 C595 0.949 . S
H620 C597 0.950 . S
H621 C599 0.950 . S
C622 C623 1.349 . S
C622 C624 1.327 . S
C622 H647 0.950 . S
C623 C622 1.349 . S
C623 C639 1.349 . S
C624 C622 1.327 . S
C624 C643 1.429 . S
C624 H648 0.950 . S
C625 C642 1.574 . S
C625 C644 1.368 . S
C625 H649 0.949 . S
H626 C630 0.949 . S
C627 C628 1.349 . S
C627 C629 1.327 . S
C627 H650 0.950 . S
C628 C627 1.349 . S
C628 C640 1.349 . S
C629 C627 1.327 . S
C629 C645 1.429 . S
C629 H651 0.950 . S
C630 H626 0.949 . S
C630 C638 1.574 . S
C630 C646 1.368 . S
H631 C639 0.950 . S
H632 C637 0.950 . S
H633 C638 0.949 . S
H634 C640 0.950 . S
H635 C641 0.950 . S
H636 C642 0.949 . S
C637 H632 0.950 . S
C637 C639 1.327 . S
C637 C643 1.429 . S
C638 C630 1.574 . S
C638 H633 0.949 . S
C638 C644 1.368 . S
C639 C623 1.349 . S
C639 H631 0.950 . S
C639 C637 1.327 . S
C640 C628 1.349 . S
C640 H634 0.950 . S
C640 C641 1.327 . S
C641 H635 0.950 . S
C641 C640 1.327 . S
C641 C645 1.429 . S
C642 C625 1.574 . S
C642 H636 0.949 . S
C642 C646 1.368 . S
C643 C624 1.429 . S
C643 C637 1.429 . S
C643 C644 1.523 . S
C644 C625 1.368 . S
C644 C638 1.368 . S
C644 C643 1.523 . S
C645 C629 1.429 . S
C645 C641 1.429 . S
C645 C646 1.523 . S
C646 C630 1.368 . S
C646 C642 1.368 . S
C646 C645 1.523 . S
H647 C622 0.950 . S
H648 C624 0.950 . S
H649 C625 0.949 . S
H650 C627 0.950 . S
H651 C629 0.950 . S
C652 C653 1.349 . S
C652 C654 1.327 . S
C652 H677 0.950 . S
C653 C652 1.349 . S
C653 C669 1.349 . S
C654 C652 1.327 . S
C654 C673 1.429 . S
C654 H678 0.950 . S
C655 C672 1.574 . S
C655 C674 1.368 . S
C655 H679 0.949 . S
H656 C660 0.949 . S
C657 C658 1.349 . S
C657 C659 1.327 . S
C657 H680 0.950 . S
C658 C657 1.349 . S
C658 C670 1.349 . S
C659 C657 1.327 . S
C659 C675 1.429 . S
C659 H681 0.950 . S
C660 H656 0.949 . S
C660 C668 1.574 . S
C660 C676 1.368 . S
H661 C669 0.950 . S
H662 C667 0.950 . S
H663 C668 0.949 . S
H664 C670 0.950 . S
H665 C671 0.950 . S
H666 C672 0.949 . S
C667 H662 0.950 . S
C667 C669 1.327 . S
C667 C673 1.429 . S
C668 C660 1.574 . S
C668 H663 0.949 . S
C668 C674 1.368 . S
C669 C653 1.349 . S
C669 H661 0.950 . S
C669 C667 1.327 . S
C670 C658 1.349 . S
C670 H664 0.950 . S
C670 C671 1.327 . S
C671 H665 0.950 . S
C671 C670 1.327 . S
C671 C675 1.429 . S
C672 C655 1.574 . S
C672 H666 0.949 . S
C672 C676 1.368 . S
C673 C654 1.429 . S
C673 C667 1.429 . S
C673 C674 1.523 . S
C674 C655 1.368 . S
C674 C668 1.368 . S
C674 C673 1.523 . S
C675 C659 1.429 . S
C675 C671 1.429 . S
C675 C676 1.523 . S
C676 C660 1.368 . S
C676 C672 1.368 . S
C676 C675 1.523 . S
H677 C652 0.950 . S
H678 C654 0.950 . S
H679 C655 0.949 . S
H680 C657 0.950 . S
H681 C659 0.950 . S
C682 C683 1.349 . S
C682 C684 1.327 . S
C682 H707 0.950 . S
C683 C682 1.349 . S
C683 C699 1.349 . S
C684 C682 1.327 . S
C684 C703 1.429 . S
C684 H708 0.950 . S
C685 C702 1.574 . S
C685 C704 1.368 . S
C685 H709 0.949 . S
H686 C690 0.949 . S
C687 C688 1.349 . S
C687 C689 1.327 . S
C687 H710 0.950 . S
C688 C687 1.349 . S
C688 C700 1.349 . S
C689 C687 1.327 . S
C689 C705 1.429 . S
C689 H711 0.950 . S
C690 H686 0.949 . S
C690 C698 1.574 . S
C690 C706 1.368 . S
H691 C699 0.950 . S
H692 C697 0.950 . S
H693 C698 0.949 . S
H694 C700 0.950 . S
H695 C701 0.950 . S
H696 C702 0.949 . S
C697 H692 0.950 . S
C697 C699 1.327 . S
C697 C703 1.429 . S
C698 C690 1.574 . S
C698 H693 0.949 . S
C698 C704 1.368 . S
C699 C683 1.349 . S
C699 H691 0.950 . S
C699 C697 1.327 . S
C700 C688 1.349 . S
C700 H694 0.950 . S
C700 C701 1.327 . S
C701 H695 0.950 . S
C701 C700 1.327 . S
C701 C705 1.429 . S
C702 C685 1.574 . S
C702 H696 0.949 . S
C702 C706 1.368 . S
C703 C684 1.429 . S
C703 C697 1.429 . S
C703 C704 1.523 . S
C704 C685 1.368 . S
C704 C698 1.368 . S
C704 C703 1.523 . S
C705 C689 1.429 . S
C705 C701 1.429 . S
C705 C706 1.523 . S
C706 C690 1.368 . S
C706 C702 1.368 . S
C706 C705 1.523 . S
H707 C682 0.950 . S
H708 C684 0.950 . S
H709 C685 0.949 . S
H710 C687 0.950 . S
H711 C689 0.950 . S
C712 C713 1.349 . S
C712 C714 1.327 . S
C712 H737 0.950 . S
C713 C712 1.349 . S
C713 C729 1.349 . S
C714 C712 1.327 . S
C714 C733 1.429 1_655 S
C714 H738 0.950 . S
C715 C732 1.574 . S
C715 C734 1.368 . S
C715 H739 0.949 . S
H716 C720 0.949 . S
C717 C718 1.349 . S
C717 C719 1.327 . S
C717 H740 0.950 . S
C718 C717 1.349 . S
C718 C730 1.349 . S
C719 C717 1.327 . S
C719 C735 1.429 . S
C719 H741 0.950 . S
C720 H716 0.949 . S
C720 C728 1.574 . S
C720 C736 1.368 . S
H721 C729 0.950 . S
H722 C727 0.941 1_455 S
H723 C728 0.949 . S
H724 C730 0.950 . S
H725 C731 0.950 . S
H726 C732 0.949 . S
C727 H722 0.941 1_655 S
C727 C729 1.341 . S
C727 C733 1.423 1_655 S
C728 C720 1.574 . S
C728 H723 0.949 . S
C728 C734 1.368 . S
C729 C713 1.349 . S
C729 H721 0.950 . S
C729 C727 1.341 . S
C730 C718 1.349 . S
C730 H724 0.950 . S
C730 C731 1.327 . S
C731 H725 0.950 . S
C731 C730 1.327 . S
C731 C735 1.429 . S
C732 C715 1.574 . S
C732 H726 0.949 . S
C732 C736 1.368 . S
C733 C714 1.429 1_455 S
C733 C727 1.423 1_455 S
C733 C734 1.523 . S
C734 C715 1.368 . S
C734 C728 1.368 . S
C734 C733 1.523 . S
C735 C719 1.429 . S
C735 C731 1.429 . S
C735 C736 1.523 . S
C736 C720 1.368 . S
C736 C732 1.368 . S
C736 C735 1.523 . S
H737 C712 0.950 . S
H738 C714 0.950 . S
H739 C715 0.949 . S
H740 C717 0.950 . S
H741 C719 0.950 . S
C742 C743 1.349 . S
C742 C744 1.327 1_545 S
C742 H767 0.950 . S
C743 C742 1.349 . S
C743 C759 1.349 . S
C744 C742 1.327 1_565 S
C744 C763 1.429 . S
C744 H768 0.950 . S
C745 C762 1.574 . S
C745 C764 1.368 . S
C745 H769 0.949 . S
H746 C750 0.949 . S
C747 C748 1.349 . S
C747 C749 1.327 . S
C747 H770 0.950 . S
C748 C747 1.349 . S
C748 C760 1.349 . S
C749 C747 1.327 . S
C749 C765 1.429 . S
C749 H771 0.950 . S
C750 H746 0.949 . S
C750 C758 1.574 . S
C750 C766 1.368 . S
H751 C759 0.950 . S
H752 C757 0.950 . S
H753 C758 0.949 . S
H754 C760 0.950 . S
H755 C761 0.950 . S
H756 C762 0.949 . S
C757 H752 0.950 . S
C757 C759 1.327 . S
C757 C763 1.429 1_545 S
C758 C750 1.574 . S
C758 H753 0.949 . S
C758 C764 1.368 . S
C759 C743 1.349 . S
C759 H751 0.950 . S
C759 C757 1.327 . S
C760 C748 1.349 . S
C760 H754 0.950 . S
C760 C761 1.327 . S
C761 H755 0.950 . S
C761 C760 1.327 . S
C761 C765 1.429 . S
C762 C745 1.574 . S
C762 H756 0.949 . S
C762 C766 1.368 . S
C763 C744 1.429 . S
C763 C757 1.429 1_565 S
C763 C764 1.523 . S
C764 C745 1.368 . S
C764 C758 1.368 . S
C764 C763 1.523 . S
C765 C749 1.429 . S
C765 C761 1.429 . S
C765 C766 1.523 . S
C766 C750 1.368 . S
C766 C762 1.368 . S
C766 C765 1.523 . S
H767 C742 0.950 . S
H768 C744 0.950 . S
H769 C745 0.949 . S
H770 C747 0.950 . S
H771 C749 0.950 . S
C772 C773 1.349 . S
C772 C774 1.327 . S
C772 H797 0.950 . S
C773 C772 1.349 . S
C773 C789 1.349 . S
C774 C772 1.327 . S
C774 C793 1.429 . S
C774 H798 0.950 . S
C775 C792 1.574 . S
C775 C794 1.368 . S
C775 H799 0.949 . S
H776 C780 0.949 . S
C777 C778 1.349 . S
C777 C779 1.327 . S
C777 H800 0.950 . S
C778 C777 1.349 . S
C778 C790 1.349 . S
C779 C777 1.327 . S
C779 C795 1.429 1_455 S
C779 H801 0.950 . S
C780 H776 0.949 . S
C780 C788 1.574 . S
C780 C796 1.368 . S
H781 C789 0.950 . S
H782 C787 0.950 . S
H783 C788 0.949 . S
H784 C790 0.950 . S
H785 C791 0.958 . S
H786 C792 0.949 . S
C787 H782 0.950 . S
C787 C789 1.327 . S
C787 C793 1.429 . S
C788 C780 1.574 . S
C788 H783 0.949 . S
C788 C794 1.368 . S
C789 C773 1.349 . S
C789 H781 0.950 . S
C789 C787 1.327 . S
C790 C778 1.349 . S
C790 H784 0.950 . S
C790 C791 1.315 1_455 S
C791 H785 0.958 . S
C791 C790 1.315 1_655 S
C791 C795 1.433 . S
C792 C775 1.574 . S
C792 H786 0.949 . S
C792 C796 1.368 . S
C793 C774 1.429 . S
C793 C787 1.429 . S
C793 C794 1.523 . S
C794 C775 1.368 . S
C794 C788 1.368 . S
C794 C793 1.523 . S
C795 C779 1.429 1_655 S
C795 C791 1.433 . S
C795 C796 1.523 . S
C796 C780 1.368 . S
C796 C792 1.368 . S
C796 C795 1.523 . S
H797 C772 0.950 . S
H798 C774 0.950 . S
H799 C775 0.949 . S
H800 C777 0.950 . S
H801 C779 0.950 . S
C802 C803 1.349 . S
C802 C804 1.327 . S
C802 H827 0.950 . S
C803 C802 1.349 . S
C803 C819 1.349 . S
C804 C802 1.327 . S
C804 C823 1.429 . S
C804 H828 0.950 . S
C805 C822 1.574 . S
C805 C824 1.368 . S
C805 H829 0.949 . S
H806 C810 0.949 . S
C807 C808 1.349 . S
C807 C809 1.327 . S
C807 H830 0.950 . S
C808 C807 1.349 . S
C808 C820 1.349 . S
C809 C807 1.327 . S
C809 C825 1.429 1_565 S
C809 H831 0.950 1_565 S
C810 H806 0.949 . S
C810 C818 1.574 . S
C810 C826 1.368 . S
H811 C819 0.950 . S
H812 C817 0.950 . S
H813 C818 0.949 . S
H814 C820 0.950 . S
H815 C821 0.953 . S
H816 C822 0.949 . S
C817 H812 0.950 . S
C817 C819 1.327 . S
C817 C823 1.429 . S
C818 C810 1.574 . S
C818 H813 0.949 . S
C818 C824 1.368 . S
C819 C803 1.349 . S
C819 H811 0.950 . S
C819 C817 1.327 . S
C820 C808 1.349 . S
C820 H814 0.950 . S
C820 C821 1.327 . S
C821 H815 0.953 . S
C821 C820 1.327 . S
C821 C825 1.429 1_565 S
C822 C805 1.574 . S
C822 H816 0.949 . S
C822 C826 1.368 . S
C823 C804 1.429 . S
C823 C817 1.429 . S
C823 C824 1.523 . S
C824 C805 1.368 . S
C824 C818 1.368 . S
C824 C823 1.523 . S
C825 C809 1.429 1_545 S
C825 C821 1.429 1_545 S
C825 C826 1.523 . S
C826 C810 1.368 . S
C826 C822 1.368 . S
C826 C825 1.523 . S
H827 C802 0.950 . S
H828 C804 0.950 . S
H829 C805 0.949 . S
H830 C807 0.950 . S
H831 C809 0.950 1_545 S
C832 C833 1.349 . S
C832 C834 1.327 . S
C832 H857 0.950 . S
C833 C832 1.349 . S
C833 C849 1.349 . S
C834 C832 1.327 . S
C834 C853 1.429 . S
C834 H858 0.950 . S
C835 C852 1.574 . S
C835 C854 1.368 . S
C835 H859 0.949 . S
H836 C840 0.949 . S
C837 C838 1.349 . S
C837 C839 1.327 . S
C837 H860 0.950 . S
C838 C837 1.349 . S
C838 C850 1.349 . S
C839 C837 1.327 . S
C839 C855 1.429 . S
C839 H861 0.950 . S
C840 H836 0.949 . S
C840 C848 1.574 . S
C840 C856 1.368 . S
H841 C849 0.950 . S
H842 C847 0.950 . S
H843 C848 0.949 . S
H844 C850 0.950 . S
H845 C851 0.950 . S
H846 C852 0.949 . S
C847 H842 0.950 . S
C847 C849 1.327 . S
C847 C853 1.429 . S
C848 C840 1.574 . S
C848 H843 0.949 . S
C848 C854 1.368 . S
C849 C833 1.349 . S
C849 H841 0.950 . S
C849 C847 1.327 . S
C850 C838 1.349 . S
C850 H844 0.950 . S
C850 C851 1.327 . S
C851 H845 0.950 . S
C851 C850 1.327 . S
C851 C855 1.429 . S
C852 C835 1.574 . S
C852 H846 0.949 . S
C852 C856 1.368 . S
C853 C834 1.429 . S
C853 C847 1.429 . S
C853 C854 1.523 . S
C854 C835 1.368 . S
C854 C848 1.368 . S
C854 C853 1.523 . S
C855 C839 1.429 . S
C855 C851 1.429 . S
C855 C856 1.523 . S
C856 C840 1.368 . S
C856 C852 1.368 . S
C856 C855 1.523 . S
H857 C832 0.950 . S
H858 C834 0.950 . S
H859 C835 0.949 . S
H860 C837 0.950 . S
H861 C839 0.950 . S
C862 C863 1.349 . S
C862 C864 1.327 . S
C862 H887 0.950 . S
C863 C862 1.349 . S
C863 C879 1.349 . S
C864 C862 1.327 . S
C864 C883 1.429 . S
C864 H888 0.950 . S
C865 C882 1.574 . S
C865 C884 1.368 . S
C865 H889 0.949 . S
H866 C870 0.949 . S
C867 C868 1.349 . S
C867 C869 1.327 . S
C867 H890 0.950 . S
C868 C867 1.349 . S
C868 C880 1.349 . S
C869 C867 1.327 . S
C869 C885 1.429 . S
C869 H891 0.950 . S
C870 H866 0.949 . S
C870 C878 1.574 . S
C870 C886 1.368 . S
H871 C879 0.950 . S
H872 C877 0.950 . S
H873 C878 0.949 . S
H874 C880 0.950 . S
H875 C881 0.950 . S
H876 C882 0.949 . S
C877 H872 0.950 . S
C877 C879 1.327 . S
C877 C883 1.429 . S
C878 C870 1.574 . S
C878 H873 0.949 . S
C878 C884 1.368 . S
C879 C863 1.349 . S
C879 H871 0.950 . S
C879 C877 1.327 . S
C880 C868 1.349 . S
C880 H874 0.950 . S
C880 C881 1.327 . S
C881 H875 0.950 . S
C881 C880 1.327 . S
C881 C885 1.429 . S
C882 C865 1.574 . S
C882 H876 0.949 . S
C882 C886 1.368 . S
C883 C864 1.429 . S
C883 C877 1.429 . S
C883 C884 1.523 . S
C884 C865 1.368 . S
C884 C878 1.368 . S
C884 C883 1.523 . S
C885 C869 1.429 . S
C885 C881 1.429 . S
C885 C886 1.523 . S
C886 C870 1.368 . S
C886 C882 1.368 . S
C886 C885 1.523 . S
H887 C862 0.950 . S
H888 C864 0.950 . S
H889 C865 0.949 . S
H890 C867 0.950 . S
H891 C869 0.950 . S
C892 C893 1.349 . S
C892 C894 1.327 . S
C892 H917 0.950 . S
C893 C892 1.349 . S
C893 C909 1.349 . S
C894 C892 1.327 . S
C894 C913 1.429 . S
C894 H918 0.950 . S
C895 C912 1.574 . S
C895 C914 1.368 . S
C895 H919 0.949 . S
H896 C900 0.949 . S
C897 C898 1.349 . S
C897 C899 1.327 . S
C897 H920 0.950 . S
C898 C897 1.349 . S
C898 C910 1.349 . S
C899 C897 1.327 . S
C899 C915 1.429 . S
C899 H921 0.950 . S
C900 H896 0.949 . S
C900 C908 1.574 . S
C900 C916 1.368 . S
H901 C909 0.950 . S
H902 C907 0.950 . S
H903 C908 0.949 . S
H904 C910 0.950 . S
H905 C911 0.950 . S
H906 C912 0.949 . S
C907 H902 0.950 . S
C907 C909 1.327 . S
C907 C913 1.429 . S
C908 C900 1.574 . S
C908 H903 0.949 . S
C908 C914 1.368 . S
C909 C893 1.349 . S
C909 H901 0.950 . S
C909 C907 1.327 . S
C910 C898 1.349 . S
C910 H904 0.950 . S
C910 C911 1.327 . S
C911 H905 0.950 . S
C911 C910 1.327 . S
C911 C915 1.429 . S
C912 C895 1.574 . S
C912 H906 0.949 . S
C912 C916 1.368 . S
C913 C894 1.429 . S
C913 C907 1.429 . S
C913 C914 1.523 . S
C914 C895 1.368 . S
C914 C908 1.368 . S
C914 C913 1.523 . S
C915 C899 1.429 . S
C915 C911 1.429 . S
C915 C916 1.523 . S
C916 C900 1.368 . S
C916 C912 1.368 . S
C916 C915 1.523 . S
H917 C892 0.950 . S
H918 C894 0.950 . S
H919 C895 0.949 . S
H920 C897 0.950 . S
H921 C899 0.950 . S
C922 C923 1.349 . S
C922 C924 1.327 . S
C922 H947 0.950 . S
C923 C922 1.349 . S
C923 C939 1.349 . S
C924 C922 1.327 . S
C924 C943 1.429 . S
C924 H948 0.950 . S
C925 C942 1.574 . S
C925 C944 1.368 . S
C925 H949 0.949 . S
H926 C930 0.949 . S
C927 C928 1.349 . S
C927 C929 1.327 . S
C927 H950 0.950 . S
C928 C927 1.349 . S
C928 C940 1.349 . S
C929 C927 1.327 . S
C929 C945 1.429 . S
C929 H951 0.950 . S
C930 H926 0.949 . S
C930 C938 1.574 . S
C930 C946 1.368 . S
H931 C939 0.950 . S
H932 C937 0.950 . S
H933 C938 0.949 . S
H934 C940 0.950 . S
H935 C941 0.950 . S
H936 C942 0.949 . S
C937 H932 0.950 . S
C937 C939 1.327 . S
C937 C943 1.429 . S
C938 C930 1.574 . S
C938 H933 0.949 . S
C938 C944 1.368 . S
C939 C923 1.349 . S
C939 H931 0.950 . S
C939 C937 1.327 . S
C940 C928 1.349 . S
C940 H934 0.950 . S
C940 C941 1.327 . S
C941 H935 0.950 . S
C941 C940 1.327 . S
C941 C945 1.429 . S
C942 C925 1.574 . S
C942 H936 0.949 . S
C942 C946 1.368 . S
C943 C924 1.429 . S
C943 C937 1.429 . S
C943 C944 1.523 . S
C944 C925 1.368 . S
C944 C938 1.368 . S
C944 C943 1.523 . S
C945 C929 1.429 . S
C945 C941 1.429 . S
C945 C946 1.523 . S
C946 C930 1.368 . S
C946 C942 1.368 . S
C946 C945 1.523 . S
H947 C922 0.950 . S
H948 C924 0.950 . S
H949 C925 0.949 . S
H950 C927 0.950 . S
H951 C929 0.950 . S
C952 C953 1.349 . S
C952 C954 1.327 . S
C952 H977 0.950 . S
C953 C952 1.349 . S
C953 C969 1.349 . S
C954 C952 1.327 . S
C954 C973 1.429 . S
C954 H978 0.950 1_565 S
C955 C972 1.574 . S
C955 C974 1.368 1_554 S
C955 H979 0.949 1_545 S
H956 C960 0.949 1_556 S
C957 C958 1.349 . S
C957 C959 1.327 . S
C957 H980 0.950 . S
C958 C957 1.349 . S
C958 C970 1.349 . S
C959 C957 1.327 . S
C959 C975 1.429 . S
C959 H981 0.950 . S
C960 H956 0.949 1_554 S
C960 C968 1.574 1_554 S
C960 C976 1.368 . S
H961 C969 0.950 . S
H962 C967 0.950 . S
H963 C968 0.949 . S
H964 C970 0.950 . S
H965 C971 0.950 . S
H966 C972 0.949 . S
C967 H962 0.950 . S
C967 C969 1.327 . S
C967 C973 1.429 . S
C968 C960 1.574 1_556 S
C968 H963 0.949 . S
C968 C974 1.368 . S
C969 C953 1.349 . S
C969 H961 0.950 . S
C969 C967 1.327 . S
C970 C958 1.349 . S
C970 H964 0.950 . S
C970 C971 1.327 . S
C971 H965 0.950 . S
C971 C970 1.327 . S
C971 C975 1.429 . S
C972 C955 1.574 . S
C972 H966 0.949 . S
C972 C976 1.368 . S
C973 C954 1.429 . S
C973 C967 1.429 . S
C973 C974 1.523 1_565 S
C974 C955 1.368 1_556 S
C974 C968 1.368 . S
C974 C973 1.523 1_545 S
C975 C959 1.429 . S
C975 C971 1.429 . S
C975 C976 1.523 . S
C976 C960 1.368 . S
C976 C972 1.368 . S
C976 C975 1.523 . S
H977 C952 0.950 . S
H978 C954 0.950 1_545 S
H979 C955 0.949 1_565 S
H980 C957 0.950 . S
H981 C959 0.950 . S
C982 C983 1.349 . S
C982 C984 1.327 . S
C982 H1007 0.950 . S
C983 C982 1.349 . S
C983 C999 1.349 . S
C984 C982 1.327 . S
C984 C1003 1.429 . S
C984 H1008 0.950 1_655 S
C985 C1002 1.574 . S
C985 C1004 1.368 1_556 S
C985 H1009 0.949 1_455 S
H986 C990 0.955 . S
C987 C988 1.349 . S
C987 C989 1.327 . S
C987 H1010 0.950 . S
C988 C987 1.349 . S
C988 C1000 1.349 . S
C989 C987 1.327 . S
C989 C1005 1.429 . S
C989 H1011 0.950 . S
C990 H986 0.955 . S
C990 C998 1.574 1_556 S
C990 C1006 1.368 . S
H991 C999 0.950 . S
H992 C997 0.950 . S
H993 C998 0.949 . S
H994 C1000 0.950 . S
H995 C1001 0.950 . S
H996 C1002 0.949 . S
C997 H992 0.950 . S
C997 C999 1.327 . S
C997 C1003 1.429 . S
C998 C990 1.574 1_554 S
C998 H993 0.949 . S
C998 C1004 1.368 . S
C999 C983 1.349 . S
C999 H991 0.950 . S
C999 C997 1.327 . S
C1000 C988 1.349 . S
C1000 H994 0.950 . S
C1000 C1001 1.327 . S
C1001 H995 0.950 . S
C1001 C1000 1.327 . S
C1001 C1005 1.429 . S
C1002 C985 1.574 . S
C1002 H996 0.949 . S
C1002 C1006 1.368 . S
C1003 C984 1.429 . S
C1003 C997 1.429 . S
C1003 C1004 1.523 1_655 S
C1004 C985 1.368 1_554 S
C1004 C998 1.368 . S
C1004 C1003 1.523 1_455 S
C1005 C989 1.429 . S
C1005 C1001 1.429 . S
C1005 C1006 1.523 . S
C1006 C990 1.368 . S
C1006 C1002 1.368 . S
C1006 C1005 1.523 . S
H1007 C982 0.950 . S
H1008 C984 0.950 1_455 S
H1009 C985 0.949 1_655 S
H1010 C987 0.950 . S
H1011 C989 0.950 . S
C1012 C1013 1.349 . S
C1012 C1014 1.327 . S
C1012 H1037 0.950 . S
C1013 C1012 1.349 . S
C1013 C1029 1.349 . S
C1014 C1012 1.327 . S
C1014 C1033 1.429 . S
C1014 H1038 0.950 . S
C1015 C1032 1.574 1_554 S
C1015 C1034 1.368 . S
C1015 H1039 0.949 . S
H1016 C1020 0.949 1_545 S
C1017 C1018 1.349 . S
C1017 C1019 1.327 . S
C1017 H1040 0.950 . S
C1018 C1017 1.349 . S
C1018 C1030 1.349 . S
C1019 C1017 1.327 . S
C1019 C1035 1.429 . S
C1019 H1041 0.950 1_545 S
C1020 H1016 0.949 1_565 S
C1020 C1028 1.574 . S
C1020 C1036 1.368 1_554 S
H1021 C1029 0.950 . S
H1022 C1027 0.950 . S
H1023 C1028 0.949 . S
H1024 C1030 0.950 . S
H1025 C1031 0.950 . S
H1026 C1032 0.949 . S
C1027 H1022 0.950 . S
C1027 C1029 1.327 . S
C1027 C1033 1.429 . S
C1028 C1020 1.574 . S
C1028 H1023 0.949 . S
C1028 C1034 1.368 . S
C1029 C1013 1.349 . S
C1029 H1021 0.950 . S
C1029 C1027 1.327 . S
C1030 C1018 1.349 . S
C1030 H1024 0.950 . S
C1030 C1031 1.327 . S
C1031 H1025 0.950 . S
C1031 C1030 1.327 . S
C1031 C1035 1.429 . S
C1032 C1015 1.574 1_556 S
C1032 H1026 0.949 . S
C1032 C1036 1.368 . S
C1033 C1014 1.429 . S
C1033 C1027 1.429 . S
C1033 C1034 1.523 . S
C1034 C1015 1.368 . S
C1034 C1028 1.368 . S
C1034 C1033 1.523 . S
C1035 C1019 1.429 . S
C1035 C1031 1.429 . S
C1035 C1036 1.523 1_545 S
C1036 C1020 1.368 1_556 S
C1036 C1032 1.368 . S
C1036 C1035 1.523 1_565 S
H1037 C1012 0.950 . S
H1038 C1014 0.950 . S
H1039 C1015 0.949 . S
H1040 C1017 0.950 . S
H1041 C1019 0.950 1_565 S
C1042 C1043 1.349 . S
C1042 C1044 1.327 . S
C1042 H1067 0.950 . S
C1043 C1042 1.349 . S
C1043 C1059 1.349 . S
C1044 C1042 1.327 . S
C1044 C1063 1.429 . S
C1044 H1068 0.950 . S
C1045 C1062 1.574 1_556 S
C1045 C1064 1.368 . S
C1045 H1069 0.949 . S
H1046 C1050 0.949 1_455 S
C1047 C1048 1.349 . S
C1047 C1049 1.327 . S
C1047 H1070 0.950 . S
C1048 C1047 1.349 . S
C1048 C1060 1.349 . S
C1049 C1047 1.327 . S
C1049 C1065 1.429 . S
C1049 H1071 0.950 1_455 S
C1050 H1046 0.949 1_655 S
C1050 C1058 1.574 . S
C1050 C1066 1.368 1_556 S
H1051 C1059 0.950 . S
H1052 C1057 0.950 . S
H1053 C1058 0.949 . S
H1054 C1060 0.950 . S
H1055 C1061 0.950 . S
H1056 C1062 0.949 . S
C1057 H1052 0.950 . S
C1057 C1059 1.327 . S
C1057 C1063 1.429 . S
C1058 C1050 1.574 . S
C1058 H1053 0.949 . S
C1058 C1064 1.368 . S
C1059 C1043 1.349 . S
C1059 H1051 0.950 . S
C1059 C1057 1.327 . S
C1060 C1048 1.349 . S
C1060 H1054 0.950 . S
C1060 C1061 1.327 . S
C1061 H1055 0.950 . S
C1061 C1060 1.327 . S
C1061 C1065 1.429 . S
C1062 C1045 1.574 1_554 S
C1062 H1056 0.949 . S
C1062 C1066 1.368 . S
C1063 C1044 1.429 . S
C1063 C1057 1.429 . S
C1063 C1064 1.523 . S
C1064 C1045 1.368 . S
C1064 C1058 1.368 . S
C1064 C1063 1.523 . S
C1065 C1049 1.429 . S
C1065 C1061 1.429 . S
C1065 C1066 1.523 1_455 S
C1066 C1050 1.368 1_554 S
C1066 C1062 1.368 . S
C1066 C1065 1.523 1_655 S
H1067 C1042 0.950 . S
H1068 C1044 0.950 . S
H1069 C1045 0.949 . S
H1070 C1047 0.950 . S
H1071 C1049 0.950 1_655 S
C233 C15 2.244 . S
C238 C150 2.216 . S
C263 C179 2.216 . S
C268 C44 2.244 . S
C293 C208 2.216 . S
C298 C73 2.244 . S
C323 C102 2.244 . S
C328 C121 2.216 . S
C353 C131 2.244 . S
C358 C92 2.216 . S
C383 C160 2.244 . S
C388 C5 2.216 . S
C413 C189 2.244 . S
C418 C34 2.216 . S
C443 C218 2.244 . S
C448 C63 2.216 . S
C473 C8 1.179 . S
C478 C66 1.179 . S
C503 C95 1.179 . S
C508 C37 1.179 . S
C533 C124 1.179 . S
C538 C182 1.179 . S
C563 C153 1.179 . S
C568 C211 1.179 . S
C593 C10 1.995 . S
C598 C129 1.829 . S
C623 C158 1.829 . S
C628 C39 1.995 . S
C653 C68 1.995 . S
C658 C187 1.829 . S
C683 C216 1.829 . S
C688 C97 1.995 . S
C713 C126 1.995 . S
C718 C13 1.829 . S
C743 C155 1.995 . S
C748 C42 1.829 . S
C773 C71 1.829 . S
C778 C184 1.995 . S
C803 C100 1.829 . S
C808 C213 1.995 . S
C833 C3 0.760 . S
C838 C50 0.759 . S
C863 C79 0.759 . S
C868 C32 0.760 . S
C893 C108 0.759 . S
C898 C61 0.760 . S
C923 C21 0.759 . S
C928 C90 0.760 . S
C953 C224 0.759 . S
C958 C119 0.760 . S
C983 C137 0.759 . S
C988 C148 0.760 . S
C1013 C177 0.760 . S
C1018 C166 0.759 . S
C1043 C206 0.760 . S
C1048 C195 0.759 . S
