# Generated by pormake.
# Topology umu, (4)-cn, num edge types: 1
# Building blocks:
#     Node 0, Type 0, BuildingBlock: AZAVOO_clean_sbu_0, # of connection points: 4
#     Node 1, Type 0, BuildingBlock: AZAVOO_clean_sbu_0, # of connection points: 4
#     Node 2, Type 0, BuildingBlock: AZAVOO_clean_sbu_0, # of connection points: 4
#     Node 3, Type 0, BuildingBlock: AZAVOO_clean_sbu_0, # of connection points: 4
#     Node 4, Type 0, BuildingBlock: AZAVOO_clean_sbu_0, # of connection points: 4
#     Node 5, Type 0, BuildingBlock: AZAVOO_clean_sbu_0, # of connection points: 4
#     Node 6, Type 0, BuildingBlock: AZAVOO_clean_sbu_0, # of connection points: 4
#     Node 7, Type 0, BuildingBlock: AZAVOO_clean_sbu_0, # of connection points: 4
#     Node 8, Type 0, BuildingBlock: AZAVOO_clean_sbu_0, # of connection points: 4
#     Node 9, Type 0, BuildingBlock: AZAVOO_clean_sbu_0, # of connection points: 4
#     Node 10, Type 0, BuildingBlock: AZAVOO_clean_sbu_0, # of connection points: 4
#     Node 11, Type 0, BuildingBlock: AZAVOO_clean_sbu_0, # of connection points: 4
#     Node 12, Type 0, BuildingBlock: AZAVOO_clean_sbu_0, # of connection points: 4
#     Node 13, Type 0, BuildingBlock: AZAVOO_clean_sbu_0, # of connection points: 4
#     Node 14, Type 0, BuildingBlock: AZAVOO_clean_sbu_0, # of connection points: 4
#     Node 15, Type 0, BuildingBlock: AZAVOO_clean_sbu_0, # of connection points: 4
#     Node 16, Type 0, BuildingBlock: AZAVOO_clean_sbu_0, # of connection points: 4
#     Node 17, Type 0, BuildingBlock: AZAVOO_clean_sbu_0, # of connection points: 4
#     Node 18, Type 0, BuildingBlock: AZAVOO_clean_sbu_0, # of connection points: 4
#     Node 19, Type 0, BuildingBlock: AZAVOO_clean_sbu_0, # of connection points: 4
#     Node 20, Type 0, BuildingBlock: AZAVOO_clean_sbu_0, # of connection points: 4
#     Node 21, Type 0, BuildingBlock: AZAVOO_clean_sbu_0, # of connection points: 4
#     Node 22, Type 0, BuildingBlock: AZAVOO_clean_sbu_0, # of connection points: 4
#     Node 23, Type 0, BuildingBlock: AZAVOO_clean_sbu_0, # of connection points: 4
#     Node 24, Type 0, BuildingBlock: AZAVOO_clean_sbu_0, # of connection points: 4
#     Node 25, Type 0, BuildingBlock: AZAVOO_clean_sbu_0, # of connection points: 4
#     Node 26, Type 0, BuildingBlock: AZAVOO_clean_sbu_0, # of connection points: 4
#     Node 27, Type 0, BuildingBlock: AZAVOO_clean_sbu_0, # of connection points: 4
#     Node 28, Type 0, BuildingBlock: AZAVOO_clean_sbu_0, # of connection points: 4
#     Node 29, Type 0, BuildingBlock: AZAVOO_clean_sbu_0, # of connection points: 4
#     Node 30, Type 0, BuildingBlock: AZAVOO_clean_sbu_0, # of connection points: 4
#     Node 31, Type 0, BuildingBlock: AZAVOO_clean_sbu_0, # of connection points: 4
#     Edge 32, Type (0, 0), BuildingBlock: XUDNAN_clean_linker_2, # of connection points: 2
#     Edge 33, Type (0, 0), BuildingBlock: XUDNAN_clean_linker_2, # of connection points: 2
#     Edge 34, Type (0, 0), BuildingBlock: XUDNAN_clean_linker_2, # of connection points: 2
#     Edge 35, Type (0, 0), BuildingBlock: XUDNAN_clean_linker_2, # of connection points: 2
#     Edge 36, Type (0, 0), BuildingBlock: XUDNAN_clean_linker_2, # of connection points: 2
#     Edge 37, Type (0, 0), BuildingBlock: XUDNAN_clean_linker_2, # of connection points: 2
#     Edge 38, Type (0, 0), BuildingBlock: XUDNAN_clean_linker_2, # of connection points: 2
#     Edge 39, Type (0, 0), BuildingBlock: XUDNAN_clean_linker_2, # of connection points: 2
#     Edge 40, Type (0, 0), BuildingBlock: XUDNAN_clean_linker_2, # of connection points: 2
#     Edge 41, Type (0, 0), BuildingBlock: XUDNAN_clean_linker_2, # of connection points: 2
#     Edge 42, Type (0, 0), BuildingBlock: XUDNAN_clean_linker_2, # of connection points: 2
#     Edge 43, Type (0, 0), BuildingBlock: XUDNAN_clean_linker_2, # of connection points: 2
#     Edge 44, Type (0, 0), BuildingBlock: XUDNAN_clean_linker_2, # of connection points: 2
#     Edge 45, Type (0, 0), BuildingBlock: XUDNAN_clean_linker_2, # of connection points: 2
#     Edge 46, Type (0, 0), BuildingBlock: XUDNAN_clean_linker_2, # of connection points: 2
#     Edge 47, Type (0, 0), BuildingBlock: XUDNAN_clean_linker_2, # of connection points: 2
#     Edge 48, Type (0, 0), BuildingBlock: XUDNAN_clean_linker_2, # of connection points: 2
#     Edge 49, Type (0, 0), BuildingBlock: XUDNAN_clean_linker_2, # of connection points: 2
#     Edge 50, Type (0, 0), BuildingBlock: XUDNAN_clean_linker_2, # of connection points: 2
#     Edge 51, Type (0, 0), BuildingBlock: XUDNAN_clean_linker_2, # of connection points: 2
#     Edge 52, Type (0, 0), BuildingBlock: XUDNAN_clean_linker_2, # of connection points: 2
#     Edge 53, Type (0, 0), BuildingBlock: XUDNAN_clean_linker_2, # of connection points: 2
#     Edge 54, Type (0, 0), BuildingBlock: XUDNAN_clean_linker_2, # of connection points: 2
#     Edge 55, Type (0, 0), BuildingBlock: XUDNAN_clean_linker_2, # of connection points: 2
#     Edge 56, Type (0, 0), BuildingBlock: XUDNAN_clean_linker_2, # of connection points: 2
#     Edge 57, Type (0, 0), BuildingBlock: XUDNAN_clean_linker_2, # of connection points: 2
#     Edge 58, Type (0, 0), BuildingBlock: XUDNAN_clean_linker_2, # of connection points: 2
#     Edge 59, Type (0, 0), BuildingBlock: XUDNAN_clean_linker_2, # of connection points: 2
#     Edge 60, Type (0, 0), BuildingBlock: XUDNAN_clean_linker_2, # of connection points: 2
#     Edge 61, Type (0, 0), BuildingBlock: XUDNAN_clean_linker_2, # of connection points: 2
#     Edge 62, Type (0, 0), BuildingBlock: XUDNAN_clean_linker_2, # of connection points: 2
#     Edge 63, Type (0, 0), BuildingBlock: XUDNAN_clean_linker_2, # of connection points: 2
#     Edge 64, Type (0, 0), BuildingBlock: XUDNAN_clean_linker_2, # of connection points: 2
#     Edge 65, Type (0, 0), BuildingBlock: XUDNAN_clean_linker_2, # of connection points: 2
#     Edge 66, Type (0, 0), BuildingBlock: XUDNAN_clean_linker_2, # of connection points: 2
#     Edge 67, Type (0, 0), BuildingBlock: XUDNAN_clean_linker_2, # of connection points: 2
#     Edge 68, Type (0, 0), BuildingBlock: XUDNAN_clean_linker_2, # of connection points: 2
#     Edge 69, Type (0, 0), BuildingBlock: XUDNAN_clean_linker_2, # of connection points: 2
#     Edge 70, Type (0, 0), BuildingBlock: XUDNAN_clean_linker_2, # of connection points: 2
#     Edge 71, Type (0, 0), BuildingBlock: XUDNAN_clean_linker_2, # of connection points: 2
#     Edge 72, Type (0, 0), BuildingBlock: XUDNAN_clean_linker_2, # of connection points: 2
#     Edge 73, Type (0, 0), BuildingBlock: XUDNAN_clean_linker_2, # of connection points: 2
#     Edge 74, Type (0, 0), BuildingBlock: XUDNAN_clean_linker_2, # of connection points: 2
#     Edge 75, Type (0, 0), BuildingBlock: XUDNAN_clean_linker_2, # of connection points: 2
#     Edge 76, Type (0, 0), BuildingBlock: XUDNAN_clean_linker_2, # of connection points: 2
#     Edge 77, Type (0, 0), BuildingBlock: XUDNAN_clean_linker_2, # of connection points: 2
#     Edge 78, Type (0, 0), BuildingBlock: XUDNAN_clean_linker_2, # of connection points: 2
#     Edge 79, Type (0, 0), BuildingBlock: XUDNAN_clean_linker_2, # of connection points: 2
#     Edge 80, Type (0, 0), BuildingBlock: XUDNAN_clean_linker_2, # of connection points: 2
#     Edge 81, Type (0, 0), BuildingBlock: XUDNAN_clean_linker_2, # of connection points: 2
#     Edge 82, Type (0, 0), BuildingBlock: XUDNAN_clean_linker_2, # of connection points: 2
#     Edge 83, Type (0, 0), BuildingBlock: XUDNAN_clean_linker_2, # of connection points: 2
#     Edge 84, Type (0, 0), BuildingBlock: XUDNAN_clean_linker_2, # of connection points: 2
#     Edge 85, Type (0, 0), BuildingBlock: XUDNAN_clean_linker_2, # of connection points: 2
#     Edge 86, Type (0, 0), BuildingBlock: XUDNAN_clean_linker_2, # of connection points: 2
#     Edge 87, Type (0, 0), BuildingBlock: XUDNAN_clean_linker_2, # of connection points: 2
#     Edge 88, Type (0, 0), BuildingBlock: XUDNAN_clean_linker_2, # of connection points: 2
#     Edge 89, Type (0, 0), BuildingBlock: XUDNAN_clean_linker_2, # of connection points: 2
#     Edge 90, Type (0, 0), BuildingBlock: XUDNAN_clean_linker_2, # of connection points: 2
#     Edge 91, Type (0, 0), BuildingBlock: XUDNAN_clean_linker_2, # of connection points: 2
#     Edge 92, Type (0, 0), BuildingBlock: XUDNAN_clean_linker_2, # of connection points: 2
#     Edge 93, Type (0, 0), BuildingBlock: XUDNAN_clean_linker_2, # of connection points: 2
#     Edge 94, Type (0, 0), BuildingBlock: XUDNAN_clean_linker_2, # of connection points: 2
#     Edge 95, Type (0, 0), BuildingBlock: XUDNAN_clean_linker_2, # of connection points: 2
# Relax obj value: 0.134
# Max RMSD: 0.111
# Mean RMSD: 0.111
data_MOF--net-umu--node1-AZAVOO_clean_sbu_0--edge1-XUDNAN_clean_linker_2
_symmetry_space_group_name_H-M    P1
_symmetry_Int_Tables_number       1
_symmetry_cell_setting            triclinic
loop_
_symmetry_equiv_pos_as_xyz
'x, y, z'
_cell_length_a     88.089867
_cell_length_b     88.107162
_cell_length_c     23.500698
_cell_angle_alpha  90.019113
_cell_angle_beta   90.072544
_cell_angle_gamma 89.96719
loop_
_atom_site_label
_atom_site_type_symbol
_atom_site_fract_x
_atom_site_fract_y
_atom_site_fract_z
_atom_type_partial_charge
Mg0 Mg 0.19479 0.16529 0.01324 0.0
O1 O 0.21032 0.17037 0.93761 0.0
O2 O 0.22152 0.19288 0.94967 0.0
Mg3 Mg 0.21452 0.20135 0.03781 0.0
C4 C 0.21904 0.18095 0.92028 0.0
C5 C 0.1795 0.13429 0.99611 0.0
O6 O 0.17139 0.14023 0.03742 0.0
O7 O 0.21543 0.15797 0.06669 0.0
O8 O 0.22613 0.18079 0.07828 0.0
O9 O 0.17631 0.17957 0.97317 0.0
O10 O 0.19355 0.18813 0.0333 0.0
C11 C 0.22595 0.16646 0.08657 0.0
C12 C 0.18225 0.19088 0.00039 0.0
O13 O 0.19089 0.14161 0.97769 0.0
Mg14 Mg 0.08453 0.93719 0.28856 0.0
O15 O 0.08041 0.95784 0.2322 0.0
O16 O 0.05853 0.96893 0.25672 0.0
Mg17 Mg 0.04931 0.95581 0.33362 0.0
C18 C 0.07035 0.9681 0.2255 0.0
C19 C 0.11689 0.92472 0.27013 0.0
O20 O 0.11227 0.91636 0.31305 0.0
O21 O 0.09258 0.95288 0.36045 0.0
O22 O 0.07005 0.96221 0.38767 0.0
O23 O 0.0699 0.92286 0.23074 0.0
O24 O 0.06141 0.93543 0.30531 0.0
C25 C 0.08442 0.96095 0.39366 0.0
C26 C 0.05853 0.9271 0.26172 0.0
O27 O 0.1082 0.93507 0.25138 0.0
Mg28 Mg 0.31437 0.82526 0.55848 0.0
O29 O 0.29338 0.82325 0.50156 0.0
O30 O 0.27819 0.80557 0.53957 0.0
Mg31 Mg 0.29061 0.79479 0.61523 0.0
C32 C 0.28107 0.81562 0.50198 0.0
C33 C 0.32536 0.85866 0.54783 0.0
O34 O 0.32596 0.85707 0.60337 0.0
O35 O 0.3003 0.837 0.62776 0.0
O36 O 0.28825 0.81697 0.66521 0.0
O37 O 0.32617 0.80803 0.50457 0.0
O38 O 0.31237 0.80251 0.58015 0.0
C39 C 0.29167 0.83105 0.66519 0.0
C40 C 0.32005 0.79786 0.53695 0.0
O41 O 0.32051 0.84773 0.51762 0.0
Mg42 Mg 0.40812 0.05102 0.80487 0.0
O43 O 0.4094 0.03688 0.72321 0.0
O44 O 0.42601 0.01798 0.73478 0.0
Mg45 Mg 0.43529 0.02007 0.82521 0.0
C46 C 0.41649 0.02531 0.70442 0.0
C47 C 0.38826 0.0685 0.72104 0.0
O48 O 0.40128 0.06732 0.69422 0.0
O49 O 0.39414 0.03283 0.84885 0.0
O50 O 0.41153 0.01464 0.86119 0.0
O51 O 0.42678 0.06523 0.77236 0.0
O52 O 0.43051 0.04472 0.82494 0.0
C53 C 0.39801 0.01974 0.86684 0.0
C54 C 0.43611 0.05554 0.79448 0.0
O55 O 0.38697 0.06262 0.77019 0.0
Mg56 Mg 0.19913 0.83044 0.0477 0.0
O57 O 0.21335 0.82686 0.12836 0.0
O58 O 0.22962 0.80779 0.11343 0.0
Mg59 Mg 0.22523 0.79864 0.02409 0.0
C60 C 0.22406 0.81817 0.14498 0.0
C61 C 0.19016 0.86547 0.05939 0.0
O62 O 0.19486 0.86655 0.00651 0.0
O63 O 0.2192 0.8416 0.00163 0.0
O64 O 0.23373 0.82111 0.98771 0.0
O65 O 0.18236 0.81349 0.08003 0.0
O66 O 0.20197 0.80772 0.02566 0.0
C67 C 0.23119 0.83531 0.98214 0.0
C68 C 0.19055 0.80323 0.05524 0.0
O69 O 0.1909 0.85276 0.08479 0.0
Mg70 Mg 0.41359 0.94509 0.26656 0.0
O71 O 0.41452 0.96551 0.32641 0.0
O72 O 0.42567 0.98499 0.2824 0.0
Mg73 Mg 0.43323 0.97642 0.1952 0.0
C74 C 0.41909 0.97923 0.32555 0.0
C75 C 0.38611 0.92553 0.31025 0.0
O76 O 0.38528 0.92167 0.25632 0.0
O77 O 0.39476 0.95612 0.21284 0.0
O78 O 0.40849 0.97399 0.16886 0.0
O79 O 0.43651 0.93749 0.29822 0.0
O80 O 0.43291 0.95268 0.22479 0.0
C81 C 0.39601 0.96703 0.17741 0.0
C82 C 0.44221 0.94591 0.25848 0.0
O83 O 0.39643 0.93461 0.32642 0.0
Mg84 Mg 0.31361 0.17766 0.51241 0.0
O85 O 0.29271 0.17917 0.56891 0.0
O86 O 0.27873 0.19934 0.54471 0.0
Mg87 Mg 0.29058 0.21015 0.4676 0.0
C88 C 0.2812 0.18773 0.57584 0.0
C89 C 0.32912 0.14642 0.52951 0.0
O90 O 0.33691 0.15158 0.48597 0.0
O91 O 0.29892 0.1677 0.44111 0.0
O92 O 0.28668 0.18876 0.4136 0.0
O93 O 0.32612 0.19404 0.56964 0.0
O94 O 0.31243 0.20073 0.49514 0.0
C95 C 0.28978 0.17467 0.40795 0.0
C96 C 0.32048 0.20471 0.53823 0.0
O97 O 0.31838 0.15441 0.54942 0.0
Mg98 Mg 0.0785 0.05651 0.78675 0.0
O99 O 0.07578 0.04061 0.8629 0.0
O100 O 0.05522 0.0261 0.85156 0.0
Mg101 Mg 0.04569 0.03164 0.76332 0.0
C102 C 0.06667 0.03041 0.88066 0.0
C103 C 0.11397 0.06379 0.79628 0.0
O104 O 0.11455 0.0587 0.74379 0.0
O105 O 0.08865 0.03697 0.73418 0.0
O106 O 0.06767 0.02299 0.72275 0.0
O107 O 0.06169 0.07284 0.82591 0.0
O108 O 0.0557 0.05436 0.76664 0.0
C109 C 0.08182 0.02528 0.71451 0.0
C110 C 0.05136 0.0653 0.79881 0.0
O111 O 0.10136 0.06386 0.8225 0.0
Mg112 Mg 0.79757 0.82358 0.05911 0.0
O113 O 0.77684 0.82256 0.11763 0.0
O114 O 0.76243 0.80284 0.09152 0.0
Mg115 Mg 0.77315 0.7922 0.01225 0.0
C116 C 0.76523 0.81408 0.12413 0.0
C117 C 0.81509 0.85355 0.07451 0.0
O118 O 0.82146 0.84791 0.02861 0.0
O119 O 0.78308 0.83462 0.98923 0.0
O120 O 0.76998 0.8141 0.96141 0.0
O121 O 0.80954 0.80617 0.11385 0.0
O122 O 0.79528 0.80069 0.03956 0.0
C123 C 0.77354 0.82809 0.95639 0.0
C124 C 0.80323 0.79601 0.08183 0.0
O125 O 0.80415 0.84639 0.0972 0.0
Mg126 Mg 0.91465 0.05316 0.74267 0.0
O127 O 0.91821 0.03262 0.80053 0.0
O128 O 0.93993 0.02105 0.77733 0.0
Mg129 Mg 0.94962 0.03363 0.70003 0.0
C130 C 0.92807 0.02222 0.80818 0.0
C131 C 0.88955 0.05743 0.83174 0.0
O132 O 0.90171 0.05584 0.86358 0.0
O133 O 0.90647 0.03729 0.67162 0.0
O134 O 0.92888 0.0274 0.64574 0.0
O135 O 0.92943 0.06754 0.79983 0.0
O136 O 0.93784 0.05432 0.72677 0.0
C137 C 0.91455 0.02891 0.63923 0.0
C138 C 0.94078 0.06288 0.76964 0.0
O139 O 0.89084 0.05625 0.77806 0.0
Mg140 Mg 0.69016 0.16341 0.53035 0.0
O141 O 0.70573 0.16477 0.60874 0.0
O142 O 0.72009 0.18561 0.60122 0.0
Mg143 Mg 0.71474 0.19667 0.51574 0.0
C144 C 0.71583 0.17379 0.62822 0.0
C145 C 0.66932 0.13646 0.55021 0.0
O146 O 0.66019 0.14682 0.52896 0.0
O147 O 0.70988 0.15455 0.47704 0.0
O148 O 0.72389 0.17558 0.46986 0.0
O149 O 0.67293 0.17829 0.57316 0.0
O150 O 0.69189 0.18681 0.52062 0.0
C151 C 0.72158 0.16156 0.45894 0.0
C152 C 0.68061 0.18967 0.55376 0.0
O153 O 0.68333 0.13955 0.55526 0.0
Mg154 Mg 0.58226 0.95221 0.26882 0.0
O155 O 0.58007 0.96566 0.35158 0.0
O156 O 0.56616 0.98643 0.33559 0.0
Mg157 Mg 0.55885 0.98592 0.24249 0.0
C158 C 0.57389 0.97793 0.36863 0.0
C159 C 0.59827 0.93095 0.35452 0.0
O160 O 0.58449 0.93132 0.37577 0.0
O161 O 0.59924 0.96934 0.23205 0.0
O162 O 0.58352 0.9888 0.21561 0.0
O163 O 0.56036 0.94002 0.28873 0.0
O164 O 0.56209 0.96122 0.23917 0.0
C165 C 0.5967 0.98277 0.21385 0.0
C166 C 0.55369 0.95093 0.26149 0.0
O167 O 0.60111 0.93841 0.30955 0.0
Mg168 Mg 0.80968 0.15804 0.0353 0.0
O169 O 0.78868 0.16101 0.97949 0.0
O170 O 0.77665 0.18235 0.00456 0.0
Mg171 Mg 0.78947 0.19237 0.0808 0.0
C172 C 0.77793 0.17057 0.97327 0.0
C173 C 0.82188 0.12529 0.02394 0.0
O174 O 0.82817 0.12945 0.0722 0.0
O175 O 0.79465 0.1493 0.10788 0.0
O176 O 0.78435 0.17143 0.13486 0.0
O177 O 0.82307 0.17355 0.97712 0.0
O178 O 0.81023 0.18111 0.05239 0.0
C179 C 0.78632 0.15716 0.14118 0.0
C180 C 0.81832 0.18456 0.00892 0.0
O181 O 0.81298 0.13444 -0.00115 0.0
Mg182 Mg 0.57547 0.05849 0.80653 0.0
O183 O 0.57479 0.03818 0.74592 0.0
O184 O 0.55958 0.02044 0.78319 0.0
Mg185 Mg 0.54989 0.02995 0.86596 0.0
C186 C 0.5685 0.02514 0.74425 0.0
C187 C 0.60837 0.06129 0.74984 0.0
O188 O 0.61086 0.04768 0.77061 0.0
O189 O 0.59054 0.04541 0.86791 0.0
O190 O 0.57394 0.02886 0.90459 0.0
O191 O 0.5562 0.06861 0.76041 0.0
O192 O 0.55347 0.05323 0.83404 0.0
C193 C 0.58725 0.03456 0.90142 0.0
C194 C 0.54731 0.06083 0.7931 0.0
O195 O 0.59576 0.06786 0.75892 0.0
Mg196 Mg 0.67837 0.825 0.56736 0.0
O197 O 0.69418 0.8225 0.49047 0.0
O198 O 0.708 0.80138 0.50005 0.0
Mg199 Mg 0.70226 0.79143 0.58718 0.0
C200 C 0.70409 0.81315 0.47201 0.0
C201 C 0.65861 0.8531 0.54578 0.0
O202 O 0.64942 0.84448 0.57561 0.0
O203 O 0.69811 0.83412 0.62043 0.0
O204 O 0.7118 0.81288 0.63002 0.0
O205 O 0.66133 0.80949 0.52634 0.0
O206 O 0.67967 0.8019 0.58376 0.0
C207 C 0.70972 0.82703 0.6393 0.0
C208 C 0.66849 0.79847 0.551 0.0
O209 O 0.67202 0.84847 0.5362 0.0
Mg210 Mg 0.92081 0.93319 0.24655 0.0
O211 O 0.92284 0.94916 0.16997 0.0
O212 O 0.94337 0.96378 0.18062 0.0
Mg213 Mg 0.9535 0.95834 0.2679 0.0
C214 C 0.93183 0.95945 0.15203 0.0
C215 C 0.88596 0.92474 0.24612 0.0
O216 O 0.8869 0.92926 0.29928 0.0
O217 O 0.9108 0.95265 0.29981 0.0
O218 O 0.93169 0.96684 0.3101 0.0
O219 O 0.93758 0.91697 0.20621 0.0
O220 O 0.94367 0.93559 0.26467 0.0
C221 C 0.91759 0.9644 0.31914 0.0
C222 C 0.94797 0.92464 0.23252 0.0
O223 O 0.89765 0.92545 0.21459 0.0
Mg224 Mg 0.66654 0.66014 0.56798 0.0
O225 O 0.68181 0.66248 0.48926 0.0
O226 O 0.69856 0.68112 0.50452 0.0
Mg227 Mg 0.69363 0.69111 0.59215 0.0
C228 C 0.69298 0.67066 0.47331 0.0
C229 C 0.64507 0.63239 0.54535 0.0
O230 O 0.63641 0.63996 0.58093 0.0
O231 O 0.68575 0.64866 0.61916 0.0
O232 O 0.70094 0.66871 0.63212 0.0
O233 O 0.65088 0.67772 0.53071 0.0
O234 O 0.67012 0.68282 0.58787 0.0
C235 C 0.69782 0.65469 0.63935 0.0
C236 C 0.65931 0.68771 0.55599 0.0
O237 O 0.65812 0.63757 0.53304 0.0
Mg238 Mg 0.56594 0.42437 0.76468 0.0
O239 O 0.56426 0.44206 0.69474 0.0
O240 O 0.54273 0.45526 0.70053 0.0
Mg241 Mg 0.53073 0.44617 0.78043 0.0
C242 C 0.55535 0.45231 0.67622 0.0
C243 C 0.59265 0.41674 0.6862 0.0
O244 O 0.58101 0.4166 0.65119 0.0
O245 O 0.57268 0.44306 0.82809 0.0
O246 O 0.55026 0.45482 0.83591 0.0
O247 O 0.55188 0.40804 0.71206 0.0
O248 O 0.54263 0.42434 0.77454 0.0
C249 C 0.56422 0.45334 0.8499 0.0
C250 C 0.54026 0.41399 0.73723 0.0
O251 O 0.5904 0.41991 0.73829 0.0
Mg252 Mg 0.81019 0.3223 0.02819 0.0
O253 O 0.79025 0.32101 0.96606 0.0
O254 O 0.77635 0.30057 0.98765 0.0
Mg255 Mg 0.78695 0.2894 0.06639 0.0
C256 C 0.77899 0.31223 0.95696 0.0
C257 C 0.82865 0.35107 0.01411 0.0
O258 O 0.83651 0.34311 0.05118 0.0
O259 O 0.79428 0.33187 0.09638 0.0
O260 O 0.78196 0.31054 0.12016 0.0
O261 O 0.82381 0.3062 0.97331 0.0
O262 O 0.80886 0.29926 0.04381 0.0
C263 C 0.78473 0.32466 0.12697 0.0
C264 C 0.81773 0.29543 0.00296 0.0
O265 O 0.81618 0.34573 0.99584 0.0
Mg266 Mg 0.90835 0.5599 0.29244 0.0
O267 O 0.91144 0.53959 0.23268 0.0
O268 O 0.92917 0.52446 0.27103 0.0
Mg269 Mg 0.93881 0.53613 0.35015 0.0
C270 C 0.91942 0.52748 0.23241 0.0
C271 C 0.87388 0.56777 0.28102 0.0
O272 O 0.87484 0.56637 0.33655 0.0
O273 O 0.89658 0.54471 0.35742 0.0
O274 O 0.91617 0.53223 0.39614 0.0
O275 O 0.92565 0.57276 0.2427 0.0
O276 O 0.9311 0.55814 0.31625 0.0
C277 C 0.90207 0.53548 0.39371 0.0
C278 C 0.93582 0.56644 0.27473 0.0
O279 O 0.88567 0.5657 0.25084 0.0
Mg280 Mg 0.68895 0.32484 0.52169 0.0
O281 O 0.7057 0.32292 0.5966 0.0
O282 O 0.71914 0.30152 0.5859 0.0
Mg283 Mg 0.71226 0.29076 0.50144 0.0
C284 C 0.71572 0.31347 0.61382 0.0
C285 C 0.67201 0.35534 0.52308 0.0
O286 O 0.66613 0.34872 0.47804 0.0
O287 O 0.70817 0.33331 0.46425 0.0
O288 O 0.72126 0.31172 0.45504 0.0
O289 O 0.67204 0.31029 0.56789 0.0
O290 O 0.68995 0.30142 0.51114 0.0
C291 C 0.71938 0.32581 0.44439 0.0
C292 C 0.6792 0.29878 0.54682 0.0
O293 O 0.68271 0.3487 0.54947 0.0
Mg294 Mg 0.91293 0.44884 0.76795 0.0
O295 O 0.91508 0.46263 0.85008 0.0
O296 O 0.92975 0.48282 0.83326 0.0
Mg297 Mg 0.93784 0.48135 0.74118 0.0
C298 C 0.92152 0.47484 0.86637 0.0
C299 C 0.89459 0.42874 0.85237 0.0
O300 O 0.9078 0.42874 0.87842 0.0
O301 O 0.89693 0.46652 0.72842 0.0
O302 O 0.9135 0.48524 0.71172 0.0
O303 O 0.93431 0.43576 0.79023 0.0
O304 O 0.93351 0.45683 0.73962 0.0
C305 C 0.9001 0.47973 0.70939 0.0
C306 C 0.94143 0.44621 0.76217 0.0
O307 O 0.89313 0.436 0.80605 0.0
Mg308 Mg 0.78425 0.65861 0.06277 0.0
O309 O 0.76372 0.66215 0.12093 0.0
O310 O 0.75006 0.68129 0.08446 0.0
Mg311 Mg 0.76316 0.69135 0.00905 0.0
C312 C 0.75213 0.67085 0.12133 0.0
C313 C 0.79974 0.62813 0.08011 0.0
O314 O 0.80638 0.63357 0.03442 0.0
O315 O 0.76893 0.64841 0.9934 0.0
O316 O 0.75864 0.66967 0.9579 0.0
O317 O 0.79782 0.67458 0.11688 0.0
O318 O 0.78424 0.68152 0.04233 0.0
C319 C 0.76075 0.65533 0.95674 0.0
C320 C 0.79262 0.68535 0.08486 0.0
O321 O 0.78887 0.63558 0.10204 0.0
Mg322 Mg 0.59018 0.54499 0.27249 0.0
O323 O 0.58247 0.52641 0.33404 0.0
O324 O 0.55758 0.52231 0.32308 0.0
Mg325 Mg 0.54913 0.53861 0.254 0.0
C326 C 0.57024 0.51949 0.34732 0.0
C327 C 0.62638 0.54191 0.31286 0.0
O328 O 0.63943 0.53493 0.30574 0.0
O329 O 0.58847 0.52815 0.19847 0.0
O330 O 0.56338 0.52571 0.18851 0.0
O331 O 0.5837 0.56309 0.3376 0.0
O332 O 0.56823 0.55385 0.27272 0.0
C333 C 0.57692 0.52262 0.17298 0.0
C334 C 0.57018 0.56226 0.31658 0.0
O335 O 0.61491 0.53726 0.28492 0.0
Mg336 Mg 0.30009 0.34089 0.53684 0.0
O337 O 0.28354 0.3362 0.61003 0.0
O338 O 0.27247 0.31363 0.5976 0.0
Mg339 Mg 0.28023 0.30488 0.51079 0.0
C340 C 0.27463 0.32568 0.62662 0.0
C341 C 0.30767 0.36626 0.62297 0.0
O342 O 0.30778 0.3541 0.65527 0.0
O343 O 0.28007 0.34824 0.48003 0.0
O344 O 0.26922 0.32549 0.46839 0.0
O345 O 0.31798 0.32643 0.58021 0.0
O346 O 0.30122 0.31793 0.51819 0.0
C347 C 0.26961 0.33979 0.45942 0.0
C348 C 0.31216 0.31512 0.55265 0.0
O349 O 0.3042 0.36486 0.57068 0.0
Mg350 Mg 0.43856 0.56214 0.30088 0.0
O351 O 0.4382 0.54497 0.37428 0.0
O352 O 0.45874 0.53013 0.36916 0.0
Mg353 Mg 0.47196 0.5374 0.28996 0.0
C354 C 0.44642 0.53416 0.39339 0.0
C355 C 0.41078 0.57198 0.37168 0.0
O356 O 0.42148 0.57129 0.41062 0.0
O357 O 0.43085 0.54346 0.23967 0.0
O358 O 0.45203 0.52961 0.23365 0.0
O359 O 0.45283 0.57838 0.35211 0.0
O360 O 0.46205 0.56015 0.29755 0.0
C361 C 0.43827 0.53225 0.21932 0.0
C362 C 0.46444 0.57083 0.33379 0.0
O363 O 0.4141 0.56873 0.32049 0.0
Mg364 Mg 0.19332 0.66432 0.03207 0.0
O365 O 0.20957 0.66641 0.1081 0.0
O366 O 0.2268 0.68455 0.09349 0.0
Mg367 Mg 0.22154 0.69415 0.00529 0.0
C368 C 0.22098 0.67418 0.12435 0.0
C369 C 0.18087 0.64323 0.12296 0.0
O370 O 0.18305 0.6561 0.14991 0.0
O371 O 0.21161 0.65191 0.98044 0.0
O372 O 0.22775 0.67113 0.96629 0.0
O373 O 0.17851 0.68213 0.07004 0.0
O374 O 0.19756 0.68703 0.01182 0.0
C375 C 0.22391 0.65725 0.9598 0.0
C376 C 0.18701 0.69202 0.04481 0.0
O377 O 0.18392 0.64242 0.07017 0.0
Mg378 Mg 0.08152 0.44876 0.75503 0.0
O379 O 0.07922 0.46863 0.81649 0.0
O380 O 0.06244 0.48553 0.78363 0.0
Mg381 Mg 0.0554 0.47712 0.69529 0.0
C382 C 0.07174 0.48092 0.82151 0.0
C383 C 0.11008 0.43 0.79347 0.0
O384 O 0.10838 0.42402 0.74263 0.0
O385 O 0.09719 0.46294 0.69785 0.0
O386 O 0.07975 0.47905 0.66324 0.0
O387 O 0.06011 0.43773 0.79038 0.0
O388 O 0.06079 0.45365 0.71828 0.0
C389 C 0.09334 0.47406 0.66603 0.0
C390 C 0.05291 0.44529 0.75156 0.0
O391 O 0.10103 0.44035 0.80959 0.0
Mg392 Mg 0.31005 0.65932 0.54372 0.0
O393 O 0.28986 0.66214 0.4829 0.0
O394 O 0.27496 0.68034 0.51939 0.0
Mg395 Mg 0.28654 0.69041 0.59799 0.0
C396 C 0.27789 0.67031 0.48174 0.0
C397 C 0.32692 0.62959 0.52853 0.0
O398 O 0.33148 0.63453 0.57849 0.0
O399 O 0.29484 0.64764 0.61006 0.0
O400 O 0.28287 0.66805 0.64522 0.0
O401 O 0.32304 0.67658 0.4936 0.0
O402 O 0.30839 0.682 0.56694 0.0
C403 C 0.28583 0.65386 0.64567 0.0
C404 C 0.31683 0.68671 0.526 0.0
O405 O 0.31668 0.63699 0.50242 0.0
Mg406 Mg 0.07502 0.5615 0.28121 0.0
O407 O 0.07512 0.54549 0.20431 0.0
O408 O 0.05679 0.5282 0.21584 0.0
Mg409 Mg 0.04665 0.53189 0.30411 0.0
C410 C 0.06746 0.53413 0.18667 0.0
C411 C 0.1073 0.57484 0.28869 0.0
O412 O 0.10441 0.57204 0.34251 0.0
O413 O 0.08756 0.54389 0.33348 0.0
O414 O 0.0698 0.52608 0.3457 0.0
O415 O 0.05688 0.57541 0.24035 0.0
O416 O 0.05247 0.55615 0.29826 0.0
C417 C 0.08328 0.53113 0.3532 0.0
C418 C 0.04722 0.56647 0.26479 0.0
O419 O 0.09729 0.5717 0.25156 0.0
Mg420 Mg 0.17995 0.32844 0.03895 0.0
O421 O 0.20012 0.32739 0.97837 0.0
O422 O 0.21484 0.3076 0.00086 0.0
Mg423 Mg 0.20428 0.29648 0.07981 0.0
C424 C 0.21175 0.31908 0.9698 0.0
C425 C 0.17102 0.36326 0.03076 0.0
O426 O 0.17243 0.36287 0.0864 0.0
O427 O 0.19541 0.33879 0.10737 0.0
O428 O 0.20834 0.31796 0.13304 0.0
O429 O 0.16704 0.31176 0.98453 0.0
O430 O 0.18193 0.30542 0.05619 0.0
C431 C 0.20506 0.332 0.13903 0.0
C432 C 0.17335 0.30123 0.01482 0.0
O433 O 0.17369 0.35137 0.00192 0.0
Mg434 Mg 0.41179 0.44119 0.79701 0.0
O435 O 0.41872 0.46001 0.73506 0.0
O436 O 0.44334 0.46507 0.74834 0.0
Mg437 Mg 0.45184 0.45038 0.82233 0.0
C438 C 0.43078 0.46728 0.72241 0.0
C439 C 0.37813 0.43456 0.79709 0.0
O440 O 0.38351 0.42684 0.84053 0.0
O441 O 0.41039 0.45877 0.86982 0.0
O442 O 0.43535 0.46211 0.88295 0.0
O443 O 0.42068 0.42353 0.73531 0.0
O444 O 0.43404 0.43394 0.80448 0.0
C445 C 0.42156 0.46466 0.89688 0.0
C446 C 0.43349 0.42494 0.76167 0.0
O447 O 0.38701 0.44356 0.77117 0.0
H448 H 0.11569 0.0767 0.90181 0.0
H449 H 0.14254 0.06727 0.75112 0.0
H450 H 0.16395 0.08165 0.79262 0.0
H451 H 0.12641 0.11384 0.91683 0.0
H452 H 0.12679 0.11388 0.99352 0.0
H453 H 0.11466 0.10083 0.95631 0.0
H454 H 0.12721 0.07825 0.00915 0.0
H455 H 0.13941 0.09127 0.04678 0.0
H456 H 0.14753 0.0759 0.00635 0.0
H457 H 0.18113 0.09976 0.84533 0.0
H458 H 0.19234 0.12024 0.90355 0.0
H459 H 0.15404 0.1177 0.01916 0.0
C460 C 0.12618 0.07733 0.87797 0.0
C461 C 0.12744 0.07082 0.82323 0.0
C462 C 0.14132 0.0721 0.79324 0.0
C463 C 0.15356 0.08021 0.81656 0.0
C464 C 0.15178 0.08684 0.87006 0.0
C465 C 0.13845 0.08537 0.90052 0.0
C466 C 0.13881 0.0947 0.95457 0.0
C467 C 0.12591 0.10651 0.95529 0.0
C468 C 0.13821 0.08441 0.00734 0.0
C469 C 0.15418 0.10216 0.94871 0.0
C470 C 0.16162 0.09729 0.90025 0.0
C471 C 0.17552 0.10346 0.88386 0.0
C472 C 0.18179 0.11511 0.91719 0.0
C473 C 0.17409 0.12056 0.96602 0.0
C474 C 0.1603 0.11369 0.98248 0.0
H475 H 0.1359 0.90084 0.29099 0.0
H476 H 0.12899 0.93889 0.17661 0.0
H477 H 0.14983 0.92957 0.11575 0.0
H478 H 0.17811 0.89778 0.27232 0.0
H479 H 0.17733 0.87735 0.2752 0.0
H480 H 0.16383 0.88852 0.31481 0.0
H481 H 0.14174 0.87428 0.2651 0.0
H482 H 0.15512 0.86318 0.22515 0.0
H483 H 0.14079 0.87405 0.18845 0.0
H484 H 0.16871 0.91404 0.06016 0.0
H485 H 0.18415 0.89381 0.0157 0.0
H486 H 0.17856 0.86612 0.167 0.0
C487 C 0.13906 0.90749 0.25409 0.0
C488 C 0.13084 0.92061 0.23867 0.0
C489 C 0.13516 0.92883 0.18944 0.0
C490 C 0.14702 0.92364 0.15465 0.0
C491 C 0.15453 0.91033 0.17 0.0
C492 C 0.15081 0.90246 0.21895 0.0
C493 C 0.1595 0.88769 0.22311 0.0
C494 C 0.17034 0.88785 0.27441 0.0
C495 C 0.14864 0.874 0.22556 0.0
C496 C 0.16816 0.88814 0.16765 0.0
C497 C 0.16537 0.90138 0.13795 0.0
C498 C 0.17121 0.90375 0.08352 0.0
C499 C 0.17993 0.89218 0.05854 0.0
C500 C 0.18259 0.87839 0.08786 0.0
C501 C 0.17687 0.87657 0.14357 0.0
H502 H 0.36601 0.90211 0.29507 0.0
H503 H 0.38263 0.93405 0.42132 0.0
H504 H 0.36637 0.92211 0.49388 0.0
H505 H 0.3267 0.89911 0.35075 0.0
H506 H 0.32568 0.8791 0.3354 0.0
H507 H 0.33715 0.89134 0.2916 0.0
H508 H 0.36062 0.87431 0.3108 0.0
H509 H 0.34924 0.86205 0.3545 0.0
H510 H 0.36623 0.8705 0.38321 0.0
H511 H 0.35039 0.90527 0.55463 0.0
H512 H 0.3363 0.88427 0.59964 0.0
H513 H 0.33006 0.86331 0.43398 0.0
C514 C 0.366 0.90679 0.33769 0.0
C515 C 0.37555 0.91903 0.35248 0.0
C516 C 0.3754 0.92467 0.40897 0.0
C517 C 0.36614 0.91802 0.45046 0.0
C518 C 0.35705 0.9058 0.43473 0.0
C519 C 0.35686 0.90025 0.37969 0.0
C520 C 0.34702 0.88623 0.375 0.0
C521 C 0.33333 0.88913 0.33587 0.0
C522 C 0.35634 0.87246 0.35471 0.0
C523 C 0.34212 0.88448 0.43635 0.0
C524 C 0.34784 0.89601 0.46996 0.0
C525 C 0.34566 0.89629 0.52867 0.0
C526 C 0.33767 0.88429 0.55386 0.0
C527 C 0.33204 0.87217 0.52035 0.0
C528 C 0.33405 0.8725 0.46071 0.0
H529 H 0.38849 0.08344 0.61944 0.0
H530 H 0.36001 0.0741 0.76592 0.0
H531 H 0.34021 0.09101 0.72652 0.0
H532 H 0.38081 0.12179 0.61143 0.0
H533 H 0.38091 0.12284 0.53483 0.0
H534 H 0.39182 0.10844 0.57048 0.0
H535 H 0.37799 0.08758 0.51244 0.0
H536 H 0.36703 0.10195 0.4764 0.0
H537 H 0.35754 0.08674 0.51326 0.0
H538 H 0.32483 0.11099 0.6763 0.0
H539 H 0.31523 0.13264 0.62012 0.0
H540 H 0.35395 0.12877 0.5069 0.0
C541 C 0.37798 0.08469 0.6428 0.0
C542 C 0.37578 0.07744 0.69571 0.0
C543 C 0.36192 0.07952 0.7252 0.0
C544 C 0.35059 0.08906 0.70307 0.0
C545 C 0.35328 0.0963 0.6513 0.0
C546 C 0.36661 0.09415 0.62143 0.0
C547 C 0.36729 0.10414 0.56918 0.0
C548 C 0.38101 0.11494 0.57168 0.0
C549 C 0.36746 0.09453 0.51459 0.0
C550 C 0.35248 0.11266 0.57531 0.0
C551 C 0.34445 0.10783 0.62246 0.0
C552 C 0.33091 0.11472 0.63882 0.0
C553 C 0.32557 0.12703 0.6067 0.0
C554 C 0.33383 0.13238 0.55903 0.0
C555 C 0.34729 0.12486 0.54269 0.0
H556 H 0.84028 0.86954 0.04247 0.0
H557 H 0.80523 0.86764 0.17194 0.0
H558 H 0.81818 0.88806 0.22516 0.0
H559 H 0.87051 0.87344 0.13404 0.0
H560 H 0.88127 0.88624 0.08989 0.0
H561 H 0.86811 0.87319 0.05784 0.0
H562 H 0.85422 0.89556 0.00851 0.0
H563 H 0.86742 0.90871 0.04027 0.0
H564 H 0.8473 0.91118 0.05077 0.0
H565 H 0.83658 0.9064 0.26984 0.0
H566 H 0.85882 0.92122 0.30184 0.0
H567 H 0.88166 0.91108 0.1427 0.0
C568 C 0.8351 0.87365 0.0813 0.0
C569 C 0.82171 0.86701 0.10294 0.0
C570 C 0.81545 0.87259 0.15439 0.0
C571 C 0.82271 0.88421 0.18487 0.0
C572 C 0.83613 0.89023 0.16308 0.0
C573 C 0.84219 0.88521 0.11219 0.0
C574 C 0.85736 0.89261 0.10029 0.0
C575 C 0.87005 0.88066 0.09526 0.0
C576 C 0.85652 0.90261 0.04679 0.0
C577 C 0.85917 0.90214 0.15343 0.0
C578 C 0.84672 0.90079 0.1888 0.0
C579 C 0.84628 0.90774 0.24207 0.0
C580 C 0.85899 0.9161 0.25994 0.0
C581 C 0.87197 0.91736 0.22475 0.0
C582 C 0.87186 0.91049 0.1704 0.0
H583 H 0.88493 0.06634 0.94156 0.0
H584 H 0.86208 0.06166 0.77883 0.0
H585 H 0.8397 0.07493 0.81781 0.0
H586 H 0.84987 0.06407 0.03438 0.0
H587 H 0.8574 0.07821 0.0821 0.0
H588 H 0.87006 0.06539 0.04574 0.0
H589 H 0.88491 0.08834 0.00511 0.0
H590 H 0.87229 0.10118 0.04085 0.0
H591 H 0.87485 0.1026 0.96495 0.0
H592 H 0.82203 0.09253 0.86814 0.0
H593 H 0.81064 0.11309 0.92521 0.0
H594 H 0.84508 0.10641 0.05505 0.0
C595 C 0.87502 0.06762 0.91466 0.0
C596 C 0.87522 0.06291 0.85722 0.0
C597 C 0.86215 0.06511 0.82306 0.0
C598 C 0.84935 0.07258 0.84493 0.0
C599 C 0.84977 0.07764 0.90113 0.0
C600 C 0.86223 0.07512 0.93573 0.0
C601 C 0.86072 0.08339 0.99191 0.0
C602 C 0.85943 0.07209 0.04146 0.0
C603 C 0.87397 0.09454 0.00118 0.0
C604 C 0.84588 0.09166 0.98227 0.0
C605 C 0.83956 0.08793 0.93022 0.0
C606 C 0.82668 0.09528 0.90952 0.0
C607 C 0.82032 0.10699 0.94217 0.0
C608 C 0.82695 0.11132 0.99468 0.0
C609 C 0.8396 0.10321 0.01556 0.0
H610 H 0.6395 0.12895 0.56218 0.0
H611 H 0.68506 0.11198 0.59247 0.0
H612 H 0.67433 0.08934 0.63991 0.0
H613 H 0.62497 0.11919 0.69371 0.0
H614 H 0.60637 0.11408 0.66802 0.0
H615 H 0.61755 0.12774 0.62976 0.0
H616 H 0.6153 0.11153 0.53801 0.0
H617 H 0.60401 0.09782 0.57598 0.0
H618 H 0.62098 0.09187 0.53943 0.0
H619 H 0.65843 0.06954 0.691 0.0
H620 H 0.63888 0.05487 0.74304 0.0
H621 H 0.6042 0.08568 0.68069 0.0
C622 C 0.64725 0.12034 0.57763 0.0
C623 C 0.6631 0.12218 0.57338 0.0
C624 C 0.67285 0.11076 0.59508 0.0
C625 C 0.66686 0.09785 0.62195 0.0
C626 C 0.65114 0.09656 0.62658 0.0
C627 C 0.64149 0.10751 0.60481 0.0
C628 C 0.62512 0.10418 0.61914 0.0
C629 C 0.6181 0.11706 0.65478 0.0
C630 C 0.61581 0.10117 0.56491 0.0
C631 C 0.62707 0.08988 0.65378 0.0
C632 C 0.6421 0.08547 0.65693 0.0
C633 C 0.64661 0.07282 0.6884 0.0
C634 C 0.63545 0.06457 0.71781 0.0
C635 C 0.62006 0.06919 0.71608 0.0
C636 C 0.61588 0.08189 0.68304 0.0
H637 H 0.59484 0.9104 0.44081 0.0
H638 H 0.62862 0.93035 0.3292 0.0
H639 H 0.64833 0.91403 0.3723 0.0
H640 H 0.61945 0.90563 0.5655 0.0
H641 H 0.61099 0.88772 0.5845 0.0
H642 H 0.59984 0.90193 0.54847 0.0
H643 H 0.59326 0.88256 0.46912 0.0
H644 H 0.60435 0.86831 0.50488 0.0
H645 H 0.6084 0.87304 0.43185 0.0
H646 H 0.66398 0.89448 0.42335 0.0
H647 H 0.67424 0.8725 0.47602 0.0
H648 H 0.63008 0.86524 0.55325 0.0
C649 C 0.60641 0.91151 0.42594 0.0
C650 C 0.61021 0.92168 0.3818 0.0
C651 C 0.62546 0.92263 0.36302 0.0
C652 C 0.63674 0.91346 0.38739 0.0
C653 C 0.63258 0.90344 0.43047 0.0
C654 C 0.61778 0.9024 0.44954 0.0
C655 C 0.61608 0.89004 0.49377 0.0
C656 C 0.61131 0.89674 0.55148 0.0
C657 C 0.60486 0.87777 0.47367 0.0
C658 C 0.63218 0.88408 0.49573 0.0
C659 C 0.64156 0.89207 0.45944 0.0
C660 C 0.65678 0.88822 0.45229 0.0
C661 C 0.6625 0.87572 0.48239 0.0
C662 C 0.65296 0.86716 0.5188 0.0
C663 C 0.63768 0.8716 0.52607 0.0
H664 H 0.65883 0.61616 0.46056 0.0
H665 H 0.61854 0.61704 0.56674 0.0
H666 H 0.609 0.59404 0.51804 0.0
H667 H 0.64024 0.60452 0.33245 0.0
H668 H 0.65573 0.59264 0.30942 0.0
H669 H 0.65943 0.60896 0.35343 0.0
H670 H 0.67311 0.59187 0.42723 0.0
H671 H 0.66952 0.57551 0.38333 0.0
H672 H 0.66331 0.57569 0.45638 0.0
H673 H 0.60416 0.57046 0.45805 0.0
H674 H 0.60453 0.5486 0.39124 0.0
H675 H 0.6474 0.56417 0.32309 0.0
C676 C 0.64802 0.61151 0.47387 0.0
C677 C 0.63945 0.61838 0.5176 0.0
C678 C 0.62532 0.61196 0.53338 0.0
C679 C 0.6198 0.59891 0.50595 0.0
C680 C 0.62852 0.59247 0.46274 0.0
C681 C 0.64233 0.59858 0.44684 0.0
C682 C 0.64949 0.58966 0.39892 0.0
C683 C 0.65132 0.59953 0.3454 0.0
C684 C 0.66476 0.58277 0.41761 0.0
C685 C 0.63759 0.57752 0.39032 0.0
C686 C 0.62556 0.57929 0.42748 0.0
C687 C 0.6134 0.56914 0.42815 0.0
C688 C 0.61356 0.55691 0.3897 0.0
C689 C 0.62567 0.55514 0.3509 0.0
C690 C 0.63786 0.56549 0.35171 0.0
H691 H 0.59989 0.40561 0.58134 0.0
H692 H 0.61943 0.4162 0.74624 0.0
H693 H 0.64383 0.40507 0.71542 0.0
H694 H 0.61528 0.37033 0.56933 0.0
H695 H 0.61861 0.37103 0.4937 0.0
H696 H 0.6038 0.38236 0.52454 0.0
H697 H 0.61567 0.4066 0.48082 0.0
H698 H 0.63057 0.3953 0.44965 0.0
H699 H 0.63527 0.41109 0.49517 0.0
H700 H 0.66472 0.38963 0.67177 0.0
H701 H 0.67998 0.37051 0.62062 0.0
H702 H 0.6466 0.36991 0.48463 0.0
C703 C 0.60941 0.40599 0.61051 0.0
C704 C 0.60778 0.41182 0.66613 0.0
C705 C 0.62044 0.41183 0.70333 0.0
C706 C 0.63436 0.40561 0.68609 0.0
C707 C 0.63545 0.39954 0.63142 0.0
C708 C 0.62331 0.39977 0.59409 0.0
C709 C 0.6268 0.39101 0.54025 0.0
C710 C 0.61545 0.37791 0.53151 0.0
C711 C 0.6271 0.40164 0.48841 0.0
C712 C 0.64252 0.3852 0.55421 0.0
C713 C 0.64746 0.3905 0.60641 0.0
C714 C 0.6611 0.38563 0.6304 0.0
C715 C 0.66968 0.37474 0.60103 0.0
C716 C 0.66449 0.36873 0.54855 0.0
C717 C 0.65097 0.37441 0.52427 0.0
H718 H 0.89497 0.4088 0.94174 0.0
H719 H 0.8653 0.42825 0.81332 0.0
H720 H 0.84431 0.41206 0.84702 0.0
H721 H 0.88214 0.37154 0.92778 0.0
H722 H 0.88351 0.36696 0.00236 0.0
H723 H 0.89567 0.38126 0.97239 0.0
H724 H 0.88605 0.40071 0.04688 0.0
H725 H 0.87385 0.38644 0.07718 0.0
H726 H 0.86597 0.40424 0.05342 0.0
H727 H 0.82723 0.39229 0.88926 0.0
H728 H 0.81547 0.37012 0.93606 0.0
H729 H 0.85637 0.36368 0.03658 0.0
C730 C 0.88399 0.40986 0.92132 0.0
C731 C 0.88176 0.41982 0.87502 0.0
C732 C 0.86727 0.42071 0.84894 0.0
C733 C 0.85526 0.4116 0.8679 0.0
C734 C 0.85791 0.40172 0.91309 0.0
C735 C 0.8719 0.40083 0.93957 0.0
C736 C 0.87209 0.38857 0.9846 0.0
C737 C 0.88406 0.37636 0.97093 0.0
C738 C 0.87464 0.3954 0.04405 0.0
C739 C 0.85614 0.38245 0.97831 0.0
C740 C 0.84807 0.39029 0.9373 0.0
C741 C 0.83336 0.38617 0.92194 0.0
C742 C 0.82679 0.37356 0.9487 0.0
C743 C 0.83498 0.3652 0.99006 0.0
C744 C 0.84975 0.3699 0.00553 0.0
H745 H 0.82574 0.61283 0.05327 0.0
H746 H 0.78946 0.61463 0.1779 0.0
H747 H 0.80323 0.59612 0.23754 0.0
H748 H 0.83622 0.57176 0.07549 0.0
H749 H 0.85611 0.5759 0.06654 0.0
H750 H 0.84207 0.58687 0.02871 0.0
H751 H 0.85332 0.61155 0.07138 0.0
H752 H 0.86725 0.6007 0.10968 0.0
H753 H 0.85484 0.61345 0.14758 0.0
H754 H 0.82266 0.58101 0.29039 0.0
H755 H 0.84595 0.56983 0.33116 0.0
H756 H 0.86954 0.57782 0.17194 0.0
C757 C 0.82044 0.60897 0.09219 0.0
C758 C 0.80651 0.61515 0.11085 0.0
C759 C 0.80009 0.61 0.16261 0.0
C760 C 0.80781 0.59946 0.19672 0.0
C761 C 0.82184 0.59406 0.17816 0.0
C762 C 0.82801 0.5985 0.12673 0.0
C763 C 0.84394 0.59235 0.11932 0.0
C764 C 0.84462 0.58104 0.06956 0.0
C765 C 0.85551 0.60528 0.11157 0.0
C766 C 0.84604 0.58438 0.17577 0.0
C767 C 0.83309 0.58528 0.20875 0.0
C768 C 0.83276 0.57994 0.26453 0.0
C769 C 0.84607 0.57369 0.28741 0.0
C770 C 0.85953 0.5729 0.25463 0.0
C771 C 0.85937 0.57804 0.19775 0.0
H772 H 0.31765 0.37205 0.73076 0.0
H773 H 0.31178 0.39312 0.56536 0.0
H774 H 0.32556 0.41578 0.5995 0.0
H775 H 0.31612 0.40806 0.81813 0.0
H776 H 0.33053 0.40099 0.86579 0.0
H777 H 0.31745 0.388 0.83239 0.0
H778 H 0.34009 0.3726 0.79199 0.0
H779 H 0.35317 0.3855 0.82501 0.0
H780 H 0.35417 0.38216 0.74943 0.0
H781 H 0.34378 0.43395 0.64585 0.0
H782 H 0.36498 0.44556 0.69918 0.0
H783 H 0.35868 0.41265 0.8344 0.0
C784 C 0.31882 0.38161 0.70219 0.0
C785 C 0.3136 0.38081 0.64543 0.0
C786 C 0.3156 0.39349 0.60916 0.0
C787 C 0.32337 0.40645 0.62826 0.0
C788 C 0.32888 0.40663 0.68394 0.0
C789 C 0.32654 0.39457 0.72056 0.0
C790 C 0.33515 0.39666 0.77577 0.0
C791 C 0.32415 0.39854 0.82599 0.0
C792 C 0.34631 0.38346 0.78608 0.0
C793 C 0.34341 0.41134 0.76331 0.0
C794 C 0.3394 0.41712 0.7107 0.0
C795 C 0.34675 0.42972 0.68764 0.0
C796 C 0.3588 0.43624 0.71826 0.0
C797 C 0.36348 0.43005 0.77108 0.0
C798 C 0.35526 0.4178 0.79457 0.0
H799 H 0.3515 0.61407 0.56883 0.0
H800 H 0.32211 0.61813 0.42123 0.0
H801 H 0.33909 0.60102 0.3675 0.0
H802 H 0.38498 0.61667 0.49711 0.0
H803 H 0.39538 0.6033 0.54017 0.0
H804 H 0.37962 0.61347 0.57016 0.0
H805 H 0.36671 0.58811 0.59786 0.0
H806 H 0.38255 0.57781 0.56844 0.0
H807 H 0.36354 0.57383 0.54417 0.0
H808 H 0.36116 0.58655 0.32606 0.0
H809 H 0.38607 0.57543 0.30135 0.0
H810 H 0.40087 0.58112 0.47631 0.0
C811 C 0.34836 0.61102 0.52576 0.0
C812 C 0.33545 0.61741 0.49931 0.0
C813 C 0.3319 0.61331 0.44251 0.0
C814 C 0.34147 0.60359 0.41166 0.0
C815 C 0.35445 0.59796 0.4384 0.0
C816 C 0.35779 0.6014 0.49443 0.0
C817 C 0.3731 0.59513 0.5118 0.0
C818 C 0.3839 0.60791 0.5309 0.0
C819 C 0.37137 0.58299 0.55832 0.0
C820 C 0.37815 0.58816 0.45616 0.0
C821 C 0.36716 0.58969 0.4145 0.0
C822 C 0.36973 0.58504 0.35861 0.0
C823 C 0.38394 0.57879 0.34493 0.0
C824 C 0.39541 0.57737 0.38691 0.0
C825 C 0.39231 0.58192 0.44333 0.0
H826 H 0.11651 0.58286 0.1813 0.0
H827 H 0.13017 0.58434 0.35884 0.0
H828 H 0.15276 0.59925 0.33264 0.0
H829 H 0.15576 0.58112 0.12058 0.0
H830 H 0.15062 0.59307 0.06135 0.0
H831 H 0.13669 0.58065 0.09276 0.0
H832 H 0.11883 0.60362 0.1092 0.0
H833 H 0.13267 0.61607 0.07803 0.0
H834 H 0.12568 0.61976 0.14876 0.0
H835 H 0.17137 0.61701 0.29031 0.0
H836 H 0.18533 0.636 0.23367 0.0
H837 H 0.16053 0.62235 0.08266 0.0
C838 C 0.12443 0.58603 0.21452 0.0
C839 C 0.12157 0.58244 0.27214 0.0
C840 C 0.13212 0.58694 0.31441 0.0
C841 C 0.14503 0.59535 0.29993 0.0
C842 C 0.14733 0.59901 0.24293 0.0
C843 C 0.13742 0.59437 0.20075 0.0
C844 C 0.14186 0.60086 0.14342 0.0
C845 C 0.14651 0.58816 0.10209 0.0
C846 C 0.129 0.61066 0.11843 0.0
C847 C 0.1554 0.61042 0.16046 0.0
C848 C 0.15845 0.60904 0.218 0.0
C849 C 0.16936 0.61792 0.245 0.0
C850 C 0.17718 0.6287 0.2126 0.0
C851 C 0.17411 0.63041 0.15386 0.0
C852 C 0.16336 0.62092 0.1272 0.0
H853 H 0.12841 0.40516 0.77908 0.0
H854 H 0.11718 0.44082 0.89944 0.0
H855 H 0.13418 0.42911 0.97041 0.0
H856 H 0.12775 0.37566 0.87527 0.0
H857 H 0.14336 0.36524 0.84476 0.0
H858 H 0.13213 0.37759 0.80069 0.0
H859 H 0.15639 0.39216 0.77056 0.0
H860 H 0.16772 0.37979 0.81453 0.0
H861 H 0.16865 0.40006 0.82442 0.0
H862 H 0.14993 0.41194 0.0319 0.0
H863 H 0.16316 0.39058 0.07876 0.0
H864 H 0.16416 0.36634 0.91789 0.0
C865 C 0.1298 0.41072 0.81986 0.0
C866 C 0.12149 0.42392 0.83363 0.0
C867 C 0.12345 0.4307 0.88785 0.0
C868 C 0.13313 0.42418 0.92842 0.0
C869 C 0.14086 0.41094 0.91397 0.0
C870 C 0.13939 0.40434 0.86084 0.0
C871 C 0.14794 0.38947 0.85757 0.0
C872 C 0.13715 0.37622 0.84379 0.0
C873 C 0.16095 0.39044 0.8142 0.0
C874 C 0.15396 0.38846 0.91776 0.0
C875 C 0.14995 0.40104 0.94946 0.0
C876 C 0.15335 0.40214 0.00728 0.0
C877 C 0.16084 0.38994 0.03356 0.0
C878 C 0.16474 0.37681 0.00202 0.0
C879 C 0.16149 0.37627 0.94314 0.0
H880 H 0.23114 0.20321 0.85219 0.0
H881 H 0.2247 0.15446 0.86383 0.0
H882 H 0.23885 0.15106 0.7742 0.0
H883 H 0.22695 0.2054 0.69724 0.0
H884 H 0.2411 0.22005 0.69012 0.0
H885 H 0.23003 0.21872 0.75435 0.0
H886 H 0.25473 0.21709 0.814 0.0
H887 H 0.26587 0.21839 0.75003 0.0
H888 H 0.26853 0.2026 0.79777 0.0
H889 H 0.25562 0.15273 0.68885 0.0
H890 H 0.27237 0.15954 0.60854 0.0
H891 H 0.26644 0.20728 0.64773 0.0
C892 C 0.23264 0.19183 0.83569 0.0
C893 C 0.22687 0.17909 0.8651 0.0
C894 C 0.22897 0.16439 0.84193 0.0
C895 C 0.23701 0.16234 0.7911 0.0
C896 C 0.24265 0.17512 0.76346 0.0
C897 C 0.24041 0.1896 0.78444 0.0
C898 C 0.24775 0.2014 0.74644 0.0
C899 C 0.23574 0.21202 0.72049 0.0
C900 C 0.25995 0.21039 0.77901 0.0
C901 C 0.25476 0.19125 0.70153 0.0
C902 C 0.25173 0.17613 0.71238 0.0
C903 C 0.25785 0.16453 0.67929 0.0
C904 C 0.26737 0.16849 0.63397 0.0
C905 C 0.27048 0.18391 0.62172 0.0
C906 C 0.26395 0.19542 0.65554 0.0
H907 H 0.04865 0.9799 0.1548 0.0
H908 H 0.09693 0.98073 0.19093 0.0
H909 H 0.10092 -0.00174 0.1102 0.0
H910 H 0.05283 0.97832 0.00519 0.0
H911 H 0.03644 0.98988 0.98972 0.0
H912 H 0.03708 0.97882 0.05407 0.0
H913 H 0.03229 0.00308 0.11379 0.0
H914 H 0.0316 0.01422 0.04954 0.0
H915 H 0.0447 0.0192 0.10551 0.0
H916 H 0.09976 0.01516 0.02489 0.0
H917 H 0.09395 0.02866 0.93552 0.0
H918 H 0.04667 0.01531 0.95019 0.0
C919 C 0.05999 0.98403 0.14623 0.0
C920 C 0.07247 0.97919 0.17932 0.0
C921 C 0.08724 0.98442 0.16608 0.0
C922 C 0.0896 0.9944 0.12054 0.0
C923 C 0.07709 -0.00116 0.08824 0.0
C924 C 0.0626 0.99373 0.10007 0.0
C925 C 0.05134 -0.0008 0.05577 0.0
C926 C 0.044 0.98575 0.02433 0.0
C927 C 0.03927 0.00954 0.08278 0.0
C928 C 0.0618 0.00809 0.017 0.0
C929 C 0.07655 0.00794 0.0371 0.0
C930 C 0.08826 0.01536 0.00869 0.0
C931 C 0.08483 0.02302 0.95803 0.0
C932 C 0.06987 0.02298 0.93579 0.0
C933 C 0.05823 0.01546 0.96597 0.0
H934 H 0.25346 0.81535 0.18 0.0
H935 H 0.20799 0.82483 0.24091 0.0
H936 H 0.2177 0.826 0.3398 0.0
H937 H 0.2657 0.79214 0.29339 0.0
H938 H 0.28473 0.79964 0.29564 0.0
H939 H 0.27422 0.79983 0.22992 0.0
H940 H 0.27822 0.82889 0.22162 0.0
H941 H 0.2888 0.82878 0.28728 0.0
H942 H 0.27255 0.84105 0.27953 0.0
H943 H 0.23207 0.82335 0.4325 0.0
H944 H 0.25059 0.82031 0.5113 0.0
H945 H 0.28695 0.81539 0.38865 0.0
C946 C 0.24559 0.81775 0.21422 0.0
C947 C 0.22999 0.81989 0.20325 0.0
C948 C 0.22 0.8232 0.24873 0.0
C949 C 0.2254 0.82384 0.30489 0.0
C950 C 0.24085 0.82151 0.31442 0.0
C951 C 0.25085 0.81885 0.27021 0.0
C952 C 0.26695 0.81701 0.29169 0.0
C953 C 0.27326 0.80122 0.27678 0.0
C954 C 0.27723 0.82969 0.26866 0.0
C955 C 0.26441 0.81868 0.35503 0.0
C956 C 0.24925 0.8211 0.3674 0.0
C957 C 0.244 0.82179 0.42331 0.0
C958 C 0.25454 0.82001 0.46767 0.0
C959 C 0.27012 0.81791 0.45561 0.0
C960 C 0.27511 0.81736 0.3987 0.0
H961 H 0.42 -0.00295 0.65758 0.0
H962 H 0.4084 0.0436 0.61572 0.0
H963 H 0.40699 0.03675 0.51395 0.0
H964 H 0.44327 0.98952 0.53932 0.0
H965 H 0.43677 0.97032 0.52909 0.0
H966 H 0.43625 0.97872 0.59888 0.0
H967 H 0.40747 0.97296 0.6061 0.0
H968 H 0.40791 0.96445 0.53639 0.0
H969 H 0.39483 0.97968 0.5512 0.0
H970 H 0.40954 0.02538 0.4162 0.0
H971 H 0.41293 0.00958 0.32998 0.0
H972 H 0.42076 0.97009 0.43619 0.0
C973 C 0.41703 0.00575 0.627 0.0
C974 C 0.41436 0.02086 0.64439 0.0
C975 C 0.4104 0.03194 0.60328 0.0
C976 C 0.40963 0.02817 0.5454 0.0
C977 C 0.41255 0.01322 0.52954 0.0
C978 C 0.41589 0.00212 0.56922 0.0
C979 C 0.4185 0.9869 0.54101 0.0
C980 C 0.43466 0.98103 0.55278 0.0
C981 C 0.40646 0.97531 0.55979 0.0
C982 C 0.41648 0.99125 0.47918 0.0
C983 C 0.41318 0.00651 0.4734 0.0
C984 C 0.41185 0.01336 0.42017 0.0
C985 C 0.41386 0.00435 0.37155 0.0
C986 C 0.41691 0.98864 0.37669 0.0
C987 C 0.41814 0.98203 0.43119 0.0
H988 H 0.75116 0.79327 0.19183 0.0
H989 H 0.75671 0.84168 0.16606 0.0
H990 H 0.74019 0.84674 0.24913 0.0
H991 H 0.71208 0.79371 0.24254 0.0
H992 H 0.71544 0.77924 0.29528 0.0
H993 H 0.72645 0.77948 0.23074 0.0
H994 H 0.75126 0.78019 0.29009 0.0
H995 H 0.74034 0.77996 0.35475 0.0
H996 H 0.75386 0.79494 0.34239 0.0
H997 H 0.72313 0.84641 0.33505 0.0
H998 H 0.70897 0.84087 0.4234 0.0
H999 H 0.71646 0.79267 0.39753 0.0
C1000 C 0.74867 0.80492 0.20321 0.0
C1001 C 0.75497 0.81711 0.17229 0.0
C1002 C 0.75188 0.83221 0.18921 0.0
C1003 C 0.74248 0.83518 0.23609 0.0
C1004 C 0.73651 0.8229 0.26601 0.0
C1005 C 0.73963 0.80807 0.25068 0.0
C1006 C 0.73285 0.79694 0.29264 0.0
C1007 C 0.721 0.78674 0.26355 0.0
C1008 C 0.74532 0.78746 0.32168 0.0
C1009 C 0.72547 0.80782 0.33408 0.0
C1010 C 0.72747 0.82273 0.31741 0.0
C1011 C 0.72152 0.83479 0.34862 0.0
C1012 C 0.71347 0.83153 0.3986 0.0
C1013 C 0.71171 0.81636 0.41736 0.0
C1014 C 0.71774 0.80439 0.3844 0.0
H1015 H 0.94968 0.00957 0.87711 0.0
H1016 H 0.90115 0.01098 0.84628 0.0
H1017 H 0.89699 0.99362 0.92748 0.0
H1018 H 0.9523 0.97025 0.92515 0.0
H1019 H 0.96603 0.97453 0.97976 0.0
H1020 H 0.96531 0.98584 0.91595 0.0
H1021 H 0.96201 0.01015 0.97682 0.0
H1022 H 0.96271 -0.00108 0.04075 0.0
H1023 H 0.94671 0.01119 0.02754 0.0
H1024 H 0.89814 0.97634 0.01228 0.0
H1025 H 0.90417 0.96231 0.10044 0.0
H1026 H 0.95178 0.97383 0.08054 0.0
C1027 C 0.93822 0.006 0.88696 0.0
C1028 C 0.92573 0.01139 0.85513 0.0
C1029 C 0.91085 0.00686 0.8701 0.0
C1030 C 0.90839 -0.00301 0.91593 0.0
C1031 C 0.92093 0.99195 0.94681 0.0
C1032 C 0.93554 0.99643 0.9334 0.0
C1033 C 0.9469 0.99038 0.97621 0.0
C1034 C 0.95831 0.97961 0.94754 0.0
C1035 C 0.95506 0.00344 0.00716 0.0
C1036 C 0.9364 0.98186 0.01589 0.0
C1037 C 0.9215 0.98269 0.9976 0.0
C1038 C 0.90975 0.97563 0.02709 0.0
C1039 C 0.9133 0.96765 0.07699 0.0
C1040 C 0.92842 0.96704 0.09741 0.0
C1041 C 0.9401 0.97419 0.06615 0.0
H1042 H 0.7644 0.192 0.90629 0.0
H1043 H 0.76716 0.14345 0.93471 0.0
H1044 H 0.74982 0.13908 0.85344 0.0
H1045 H 0.72483 0.19362 0.85759 0.0
H1046 H 0.72885 0.20767 0.80396 0.0
H1047 H 0.74 0.20705 0.86827 0.0
H1048 H 0.76457 0.20473 0.8083 0.0
H1049 H 0.7535 0.20531 0.74391 0.0
H1050 H 0.76622 0.18964 0.75683 0.0
H1051 H 0.73277 0.14 0.7676 0.0
H1052 H 0.71908 0.14597 0.67844 0.0
H1053 H 0.72911 0.19378 0.70215 0.0
C1054 C 0.76108 0.18049 0.89604 0.0
C1055 C 0.76689 0.16806 0.92704 0.0
C1056 C 0.76272 0.15311 0.9115 0.0
C1057 C 0.75285 0.15053 0.86565 0.0
C1058 C 0.74745 0.16302 0.8354 0.0
C1059 C 0.75152 0.1777 0.84962 0.0
C1060 C 0.74527 0.18902 0.8072 0.0
C1061 C 0.73407 0.19999 0.83599 0.0
C1062 C 0.75816 0.19768 0.77729 0.0
C1063 C 0.73718 0.17841 0.7666 0.0
C1064 C 0.73832 0.16349 0.78418 0.0
C1065 C 0.73178 0.15165 0.75341 0.0
C1066 C 0.72401 0.15514 0.70294 0.0
C1067 C 0.72312 0.17031 0.68331 0.0
C1068 C 0.72971 0.18206 0.71592 0.0
H1069 H 0.57152 0.03405 0.63396 0.0
H1070 H 0.57094 0.99426 0.74247 0.0
H1071 H 0.57438 0.97782 0.65797 0.0
H1072 H 0.54918 0.01787 0.52521 0.0
H1073 H 0.55893 0.02727 0.46778 0.0
H1074 H 0.55828 0.03592 0.53711 0.0
H1075 H 0.58768 0.03736 0.5389 0.0
H1076 H 0.58841 0.02872 0.46944 0.0
H1077 H 0.59865 0.02033 0.52798 0.0
H1078 H 0.57745 0.9658 0.56139 0.0
H1079 H 0.57717 0.95886 0.45942 0.0
H1080 H 0.57349 0.00647 0.41419 0.0
C1081 C 0.5724 0.02189 0.6399 0.0
C1082 C 0.57119 0.01537 0.6945 0.0
C1083 C 0.57193 -0.00059 0.70079 0.0
C1084 C 0.57395 0.99002 0.65319 0.0
C1085 C 0.57496 0.9968 0.59973 0.0
C1086 C 0.57404 0.01235 0.59279 0.0
C1087 C 0.57402 0.0167 0.53051 0.0
C1088 C 0.55922 0.02492 0.51422 0.0
C1089 C 0.58803 0.02635 0.51586 0.0
C1090 C 0.57493 0.00116 0.50344 0.0
C1091 C 0.57579 0.98984 0.54405 0.0
C1092 C 0.57676 0.97456 0.52921 0.0
C1093 C 0.57664 0.97073 0.47128 0.0
C1094 C 0.57522 0.98214 0.42915 0.0
C1095 C 0.57448 -0.00247 0.44559 0.0
H1096 H 0.72264 0.67312 0.44094 0.0
H1097 H 0.67756 0.66327 0.37645 0.0
H1098 H 0.68788 0.66155 0.27868 0.0
H1099 H 0.73549 0.69573 0.32716 0.0
H1100 H 0.75455 0.68827 0.32705 0.0
H1101 H 0.74368 0.68836 0.39185 0.0
H1102 H 0.74771 0.65936 0.40247 0.0
H1103 H 0.75867 0.65919 0.33779 0.0
H1104 H 0.74242 0.64691 0.34486 0.0
H1105 H 0.70276 0.66374 0.1872 0.0
H1106 H 0.72173 0.66631 0.10985 0.0
H1107 H 0.75738 0.67197 0.2352 0.0
C1108 C 0.71499 0.67049 0.4062 0.0
C1109 C 0.69931 0.66842 0.41588 0.0
C1110 C 0.68962 0.66484 0.36971 0.0
C1111 C 0.69537 0.6639 0.31414 0.0
C1112 C 0.71086 0.6662 0.30587 0.0
C1113 C 0.72059 0.6691 0.35079 0.0
C1114 C 0.73681 0.67088 0.33061 0.0
C1115 C 0.74299 0.68675 0.34502 0.0
C1116 C 0.747 0.65833 0.3554 0.0
C1117 C 0.73464 0.6689 0.26715 0.0
C1118 C 0.71957 0.66639 0.25363 0.0
C1119 C 0.71464 0.66538 0.19733 0.0
C1120 C 0.72542 0.6669 0.15379 0.0
C1121 C 0.74093 0.66906 0.16704 0.0
C1122 C 0.74559 0.66998 0.22432 0.0
H1123 H 0.54677 0.51021 0.41557 0.0
H1124 H 0.5949 0.50355 0.38454 0.0
H1125 H 0.59601 0.48522 0.46386 0.0
H1126 H 0.54939 0.50925 0.56728 0.0
H1127 H 0.5316 0.49949 0.57714 0.0
H1128 H 0.53432 0.51148 0.51594 0.0
H1129 H 0.52748 0.48906 0.44942 0.0
H1130 H 0.5247 0.477 0.51039 0.0
H1131 H 0.53781 0.47146 0.45533 0.0
H1132 H 0.59202 0.46777 0.5456 0.0
H1133 H 0.58354 0.45298 0.62836 0.0
H1134 H 0.53812 0.47165 0.60982 0.0
C1135 C 0.55749 0.50475 0.42505 0.0
C1136 C 0.57073 0.50817 0.3936 0.0
C1137 C 0.58463 0.50105 0.40803 0.0
C1138 C 0.58536 0.49062 0.45289 0.0
C1139 C 0.57214 0.48755 0.48321 0.0
C1140 C 0.55848 0.49445 0.47023 0.0
C1141 C 0.54612 0.4896 0.51121 0.0
C1142 C 0.54 0.50327 0.54489 0.0
C1143 C 0.53327 0.48128 0.47969 0.0
C1144 C 0.55498 0.47887 0.54919 0.0
C1145 C 0.56993 0.47779 0.53187 0.0
C1146 C 0.58035 0.46853 0.55969 0.0
C1147 C 0.57539 0.46015 0.60666 0.0
C1148 C 0.56015 0.46116 0.6258 0.0
C1149 C 0.54984 0.47068 0.59649 0.0
H1150 H 0.72782 0.29269 0.68719 0.0
H1151 H 0.72208 0.34111 0.66126 0.0
H1152 H 0.73716 0.34616 0.74817 0.0
H1153 H 0.72463 0.29397 0.84196 0.0
H1154 H 0.73844 0.27912 0.8523 0.0
H1155 H 0.72699 0.27942 0.78874 0.0
H1156 H 0.75134 0.27908 0.72702 0.0
H1157 H 0.76287 0.27883 0.79029 0.0
H1158 H 0.7656 0.29347 0.73775 0.0
H1159 H 0.75474 0.34581 0.83297 0.0
H1160 H 0.77143 0.34012 0.91504 0.0
H1161 H 0.76394 0.29194 0.88939 0.0
C1162 C 0.72969 0.30436 0.69997 0.0
C1163 C 0.7239 0.31653 0.66745 0.0
C1164 C 0.7264 0.33163 0.68577 0.0
C1165 C 0.73498 0.3346 0.7349 0.0
C1166 C 0.74068 0.32233 0.76567 0.0
C1167 C 0.73793 0.3075 0.74943 0.0
C1168 C 0.7452 0.29634 0.79016 0.0
C1169 C 0.73309 0.28664 0.82007 0.0
C1170 C 0.75695 0.28635 0.75946 0.0
C1171 C 0.75275 0.3072 0.83127 0.0
C1172 C 0.7501 0.32214 0.81618 0.0
C1173 C 0.75669 0.33417 0.84574 0.0
C1174 C 0.76618 0.33083 0.89206 0.0
C1175 C 0.76879 0.31562 0.90878 0.0
C1176 C 0.76189 0.30369 0.87814 0.0
H1177 H 0.91761 0.53468 0.12011 0.0
H1178 H 0.91855 0.49659 0.2367 0.0
H1179 H 0.91735 0.47878 0.15515 0.0
H1180 H 0.89312 0.51809 0.01083 0.0
H1181 H 0.90391 0.52616 0.95318 0.0
H1182 H 0.90304 0.53579 0.02074 0.0
H1183 H 0.93244 0.53583 0.02617 0.0
H1184 H 0.9334 0.52617 0.95878 0.0
H1185 H 0.9426 0.51813 0.02033 0.0
H1186 H 0.91626 0.46526 0.0606 0.0
H1187 H 0.91815 0.45693 0.96025 0.0
H1188 H 0.9205 0.50394 0.90618 0.0
C1189 C 0.91725 0.52258 0.12831 0.0
C1190 C 0.91789 0.51691 0.18435 0.0
C1191 C 0.91793 0.50106 0.19383 0.0
C1192 C 0.9172 0.49091 0.1479 0.0
C1193 C 0.91673 0.49685 0.09295 0.0
C1194 C 0.91695 0.51232 0.08297 0.0
C1195 C 0.9178 0.51577 0.01998 0.0
C1196 C 0.90362 0.52446 2e-05 0.0
C1197 C 0.93243 0.52448 0.00549 0.0
C1198 C 0.91812 0.49983 0.99605 0.0
C1199 C 0.91718 0.48908 0.03871 0.0
C1200 C 0.91706 0.47358 0.02685 0.0
C1201 C 0.9181 0.46895 0.96986 0.0
C1202 C 0.91959 0.4798 0.9258 0.0
C1203 C 0.91953 0.49542 0.93919 0.0
H1204 H 0.26292 0.30356 0.69603 0.0
H1205 H 0.26749 0.35241 0.67904 0.0
H1206 H 0.2525 0.35598 0.76677 0.0
H1207 H 0.22513 0.30296 0.74784 0.0
H1208 H 0.2283 0.28774 0.79771 0.0
H1209 H 0.23964 0.28898 0.73421 0.0
H1210 H 0.26414 0.28901 0.79533 0.0
H1211 H 0.25287 0.28773 0.85907 0.0
H1212 H 0.26637 0.30294 0.85089 0.0
H1213 H 0.23529 0.35429 0.85128 0.0
H1214 H 0.21889 0.3474 0.93252 0.0
H1215 H 0.22714 0.29968 0.89924 0.0
C1216 C 0.2608 0.315 0.7109 0.0
C1217 C 0.26627 0.32772 0.68056 0.0
C1218 C 0.26342 0.34251 0.70167 0.0
C1219 C 0.2549 0.34465 0.75137 0.0
C1220 C 0.24956 0.33188 0.77997 0.0
C1221 C 0.25257 0.31734 0.76105 0.0
C1222 C 0.24562 0.30556 0.8001 0.0
C1223 C 0.23398 0.29574 0.76804 0.0
C1224 C 0.25799 0.29573 0.828 0.0
C1225 C 0.23797 0.31577 0.8433 0.0
C1226 C 0.2403 0.33091 0.83061 0.0
C1227 C 0.23359 0.34248 0.86221 0.0
C1228 C 0.22426 0.33847 0.90805 0.0
C1229 C 0.22193 0.32304 0.92235 0.0
C1230 C 0.22899 0.31157 0.8898 0.0
H1231 H 0.46335 0.51572 0.46307 0.0
H1232 H 0.41787 0.53372 0.43935 0.0
H1233 H 0.40903 0.51897 0.5222 0.0
H1234 H 0.45272 0.4784 0.50407 0.0
H1235 H 0.46748 0.47642 0.55675 0.0
H1236 H 0.47032 0.48863 0.4963 0.0
H1237 H 0.47614 0.51118 0.56368 0.0
H1238 H 0.47336 0.49903 0.6244 0.0
H1239 H 0.46257 0.51633 0.61771 0.0
H1240 H 0.40479 0.501 0.60375 0.0
H1241 H 0.40586 0.48249 0.68262 0.0
H1242 H 0.45435 0.47726 0.65615 0.0
C1243 C 0.45153 0.5166 0.47535 0.0
C1244 C 0.44128 0.52581 0.44451 0.0
C1245 C 0.42594 0.52675 0.46234 0.0
C1246 C 0.4208 0.51839 0.50927 0.0
C1247 C 0.43117 0.50931 0.53838 0.0
C1248 C 0.44625 0.5085 0.52253 0.0
C1249 C 0.45509 0.49796 0.56123 0.0
C1250 C 0.46179 0.48456 0.52757 0.0
C1251 C 0.46752 0.50664 0.59368 0.0
C1252 C 0.44257 0.49279 0.60081 0.0
C1253 C 0.42884 0.49941 0.58672 0.0
C1254 C 0.4155 0.49587 0.6156 0.0
C1255 C 0.41621 0.48531 0.66016 0.0
C1256 C 0.4302 0.47853 0.67578 0.0
C1257 C 0.44353 0.48242 0.64575 0.0
H1258 H 0.28408 0.67291 0.3688 0.0
H1259 H 0.24769 0.66449 0.48852 0.0
H1260 H 0.22935 0.66282 0.4087 0.0
H1261 H 0.2626 0.69769 0.28125 0.0
H1262 H 0.27121 0.69167 0.21546 0.0
H1263 H 0.28172 0.69039 0.28101 0.0
H1264 H 0.28621 0.66169 0.26344 0.0
H1265 H 0.27574 0.6629 0.19769 0.0
H1266 H 0.27018 0.64939 0.25134 0.0
H1267 H 0.2151 0.6623 0.31631 0.0
H1268 H 0.20526 0.66561 0.21875 0.0
H1269 H 0.25053 0.67686 0.15985 0.0
C1270 C 0.27229 0.67042 0.37781 0.0
C1271 C 0.26722 0.66852 0.43424 0.0
C1272 C 0.25169 0.6658 0.44521 0.0
C1273 C 0.24125 0.6648 0.40027 0.0
C1274 C 0.24655 0.66686 0.34493 0.0
C1275 C 0.26166 0.66982 0.33356 0.0
C1276 C 0.26414 0.67298 0.27089 0.0
C1277 C 0.27028 0.68914 0.26164 0.0
C1278 C 0.27469 0.66103 0.24428 0.0
C1279 C 0.24806 0.67141 0.24883 0.0
C1280 C 0.23815 0.66758 0.29207 0.0
C1281 C 0.22274 0.66533 0.28212 0.0
C1282 C 0.21726 0.66717 0.22654 0.0
C1283 C 0.22713 0.67152 0.18192 0.0
C1284 C 0.24273 0.67364 0.19331 0.0
H1285 H 0.04771 0.52206 0.1093 0.0
H1286 H 0.09543 0.53142 0.13824 0.0
H1287 H 0.10175 0.51932 0.04617 0.0
H1288 H 0.05176 0.48617 0.04254 0.0
H1289 H 0.0369 0.48927 0.99104 0.0
H1290 H 0.03618 0.4987 0.05895 0.0
H1291 H 0.03433 0.52475 0.00822 0.0
H1292 H 0.03503 0.51539 0.94009 0.0
H1293 H 0.04861 0.53001 0.95701 0.0
H1294 H 0.10293 0.50416 0.95561 0.0
H1295 H 0.09871 0.48947 0.86711 0.0
H1296 H 0.05007 0.49239 0.89238 0.0
C1297 C 0.05948 0.52157 0.09609 0.0
C1298 C 0.07113 0.52752 0.1308 0.0
C1299 C 0.08638 0.52691 0.11202 0.0
C1300 C 0.09005 0.52004 0.05999 0.0
C1301 C 0.0783 0.51418 0.02685 0.0
C1302 C 0.0633 0.51512 0.04365 0.0
C1303 C 0.0528 0.50825 -0.00044 0.0
C1304 C 0.04389 0.4948 0.02453 0.0
C1305 C 0.04206 0.52032 0.97475 0.0
C1306 C 0.06426 0.50301 0.95585 0.0
C1307 C 0.07892 0.50639 0.97271 0.0
C1308 C 0.0915 0.50171 0.94139 0.0
C1309 C 0.08902 0.49336 0.89145 0.0
C1310 C 0.07409 0.49011 0.87292 0.0
C1311 C 0.06157 0.49509 0.90522 0.0
H1312 H 0.1874 0.21413 0.0722 0.0
H1313 H 0.16612 0.20344 0.91065 0.0
H1314 H 0.16021 0.23081 0.89678 0.0
H1315 H 0.16139 0.24392 0.11475 0.0
H1316 H 0.17631 0.25489 0.14748 0.0
H1317 H 0.17771 0.23451 0.14484 0.0
H1318 H 0.20382 0.23678 0.09455 0.0
H1319 H 0.20245 0.25714 0.09662 0.0
H1320 H 0.20527 0.24758 0.02965 0.0
H1321 H 0.15841 0.26025 0.89967 0.0
H1322 H 0.16023 0.28787 0.92016 0.0
H1323 H 0.18247 0.27766 0.08043 0.0
C1324 C 0.1814 0.21747 0.03395 0.0
C1325 C 0.17729 0.20673 0.99231 0.0
C1326 C 0.16932 0.21154 0.94316 0.0
C1327 C 0.16596 0.22704 0.93495 0.0
C1328 C 0.17053 0.23741 0.97665 0.0
C1329 C 0.17795 0.2327 0.0254 0.0
C1330 C 0.18212 0.24582 0.06348 0.0
C1331 C 0.17388 0.24472 0.12103 0.0
C1332 C 0.19944 0.24689 0.0715 0.0
C1333 C 0.17614 0.2588 0.02834 0.0
C1334 C 0.16943 0.25388 0.97843 0.0
C1335 C 0.16355 0.26416 0.93886 0.0
C1336 C 0.16463 0.2798 0.95078 0.0
C1337 C 0.17161 0.28492 0.00165 0.0
C1338 C 0.17724 0.27419 0.04083 0.0
H1339 H 0.03354 0.93267 0.32561 0.0
H1340 H 0.04745 0.91365 0.1636 0.0
H1341 H 0.02038 0.90926 0.1388 0.0
H1342 H 0.00158 0.90834 0.35157 0.0
H1343 H 0.99046 0.92344 0.38228 0.0
H1344 H 0.01085 0.92383 0.38775 0.0
H1345 H 0.01128 0.95049 0.34089 0.0
H1346 H 0.99092 0.9502 0.33537 0.0
H1347 H 0.00229 0.9532 0.27269 0.0
H1348 H 0.99093 0.90788 0.13212 0.0
H1349 H 0.96295 0.91079 0.14278 0.0
H1350 H 0.96992 0.93191 0.30738 0.0
C1351 C 0.031 0.92762 0.28473 0.0
C1352 C 0.04261 0.92364 0.24632 0.0
C1353 C 0.03871 0.9168 0.19372 0.0
C1354 C 0.02337 0.91426 0.17933 0.0
C1355 C 0.01218 0.91863 0.2181 0.0
C1356 C 0.01592 0.9252 0.26967 0.0
C1357 C 0.00205 0.92965 0.30324 0.0
C1358 C 0.00119 0.92078 0.35952 0.0
C1359 C 0.00162 0.94691 0.31362 0.0
C1360 C 0.9898 0.92474 0.26245 0.0
C1361 C 0.9957 0.91822 0.21374 0.0
C1362 C 0.98624 0.91296 0.17018 0.0
C1363 C 0.9704 0.91461 0.17655 0.0
C1364 C 0.96435 0.92166 0.22568 0.0
C1365 C 0.97423 0.92659 0.26907 0.0
H1366 H 0.31007 0.7742 0.60172 0.0
H1367 H 0.33248 0.78454 0.44201 0.0
H1368 H 0.33404 0.75707 0.42047 0.0
H1369 H 0.33138 0.74115 0.63557 0.0
H1370 H 0.31541 0.73122 0.66572 0.0
H1371 H 0.31603 0.75164 0.66767 0.0
H1372 H 0.28996 0.75286 0.6165 0.0
H1373 H 0.28925 0.73244 0.6144 0.0
H1374 H 0.28748 0.74319 0.5495 0.0
H1375 H 0.33327 0.72815 0.41768 0.0
H1376 H 0.33012 0.70053 0.43374 0.0
H1377 H 0.30803 0.70996 0.59492 0.0
C1378 C 0.31519 0.77076 0.56192 0.0
C1379 C 0.32105 0.78152 0.52336 0.0
C1380 C 0.32788 0.77647 0.47217 0.0
C1381 C 0.3288 0.76091 0.45955 0.0
C1382 C 0.32283 0.7506 0.49856 0.0
C1383 C 0.31614 0.75536 0.54866 0.0
C1384 C 0.31064 0.74212 0.58383 0.0
C1385 C 0.31886 0.7415 0.64159 0.0
C1386 C 0.29331 0.74269 0.59148 0.0
C1387 C 0.31532 0.72911 0.54587 0.0
C1388 C 0.32233 0.73416 0.49684 0.0
C1389 C 0.32775 0.72408 0.45585 0.0
C1390 C 0.32593 0.70844 0.46535 0.0
C1391 C 0.31872 0.70311 0.51534 0.0
C1392 C 0.3134 0.71364 0.55591 0.0
H1393 H 0.45976 0.04242 0.85326 0.0
H1394 H 0.44942 0.07113 0.70816 0.0
H1395 H 0.47674 0.07415 0.6892 0.0
H1396 H 0.49115 0.06389 0.90166 0.0
H1397 H 0.5023 0.0478 0.92413 0.0
H1398 H 0.4819 0.04662 0.92365 0.0
H1399 H 0.48327 0.0229 0.85867 0.0
H1400 H 0.5037 0.02399 0.85906 0.0
H1401 H 0.49353 0.02391 0.79246 0.0
H1402 H 0.50479 0.07521 0.68821 0.0
H1403 H 0.53228 0.0748 0.70647 0.0
H1404 H 0.52497 0.04603 0.85402 0.0
C1405 C 0.46328 0.04914 0.81702 0.0
C1406 C 0.4525 0.0565 0.78201 0.0
C1407 C 0.4575 0.06541 0.73556 0.0
C1408 C 0.47299 0.06715 0.72429 0.0
C1409 C 0.48334 0.05995 0.76 0.0
C1410 C 0.47876 0.05114 0.80549 0.0
C1411 C 0.49233 0.04544 0.83912 0.0
C1412 C 0.49189 0.05129 0.90078 0.0
C1413 C 0.49326 0.02802 0.83719 0.0
C1414 C 0.50519 0.05264 0.80586 0.0
C1415 C 0.49971 0.0608 0.76007 0.0
C1416 C 0.50926 0.06878 0.72372 0.0
C1417 C 0.52487 0.06849 0.73458 0.0
C1418 C 0.53081 0.06036 0.78163 0.0
C1419 C 0.5208 0.05225 0.8175 0.0
H1420 H 0.20398 0.77973 -0.00097 0.0
H1421 H 0.17026 0.78974 0.12821 0.0
H1422 H 0.16562 0.76221 0.14046 0.0
H1423 H 0.1845 0.74857 0.93513 0.0
H1424 H 0.20161 0.73793 0.92169 0.0
H1425 H 0.20222 0.75835 0.9238 0.0
H1426 H 0.22311 0.75722 0.00153 0.0
H1427 H 0.22257 0.73679 -0.00032 0.0
H1428 H 0.21967 0.74667 0.06596 0.0
H1429 H 0.16485 0.73338 0.13811 0.0
H1430 H 0.16783 0.70583 0.12083 0.0
H1431 H 0.20202 0.71535 0.99291 0.0
C1432 C 0.19569 0.77618 0.03026 0.0
C1433 C 0.18756 0.78687 0.063 0.0
C1434 C 0.17664 0.78173 0.10273 0.0
C1435 C 0.17394 0.76613 0.11002 0.0
C1436 C 0.18225 0.7559 0.07713 0.0
C1437 C 0.19288 0.76075 0.03799 0.0
C1438 C 0.20024 0.74756 0.0075 0.0
C1439 C 0.19694 0.74814 0.94323 0.0
C1440 C 0.21741 0.74703 0.0194 0.0
C1441 C 0.19211 0.73447 0.03557 0.0
C1442 C 0.18178 0.73946 0.07566 0.0
C1443 C 0.17292 0.72935 0.10685 0.0
C1444 C 0.17468 0.71374 0.09672 0.0
C1445 C 0.18523 0.70844 0.05578 0.0
C1446 C 0.19399 0.719 0.02491 0.0
H1447 H 0.4656 0.93409 0.32392 0.0
H1448 H 0.45634 0.96279 0.17753 0.0
H1449 H 0.48349 0.96759 0.16627 0.0
H1450 H 0.49758 0.95549 0.37946 0.0
H1451 H 0.50842 0.93893 0.39904 0.0
H1452 H 0.48798 0.93816 0.39855 0.0
H1453 H 0.48889 0.91519 0.3298 0.0
H1454 H 0.50933 0.91589 0.33009 0.0
H1455 H 0.49912 0.91682 0.26367 0.0
H1456 H 0.51102 0.96973 0.16983 0.0
H1457 H 0.53853 0.96774 0.18406 0.0
H1458 H 0.53133 0.93641 0.32424 0.0
C1459 C 0.46931 0.94146 0.2898 0.0
C1460 C 0.45873 0.9484 0.25258 0.0
C1461 C 0.46407 0.95771 0.20775 0.0
C1462 C 0.47954 0.96045 0.20065 0.0
C1463 C 0.48962 0.95359 0.23813 0.0
C1464 C 0.48486 0.94416 0.28146 0.0
C1465 C 0.49836 0.93778 0.31391 0.0
C1466 C 0.49806 0.9429 0.37645 0.0
C1467 C 0.49896 0.92039 0.30905 0.0
C1468 C 0.51137 0.94516 0.28179 0.0
C1469 C 0.50593 0.95433 0.23867 0.0
C1470 C 0.51548 0.96257 0.20332 0.0
C1471 C 0.53109 0.96139 0.21196 0.0
C1472 C 0.53707 0.95193 0.25529 0.0
C1473 C 0.52706 0.94367 0.29066 0.0
H1474 H 0.31274 0.22845 0.47109 0.0
H1475 H 0.33233 0.21786 0.63577 0.0
H1476 H 0.33408 0.24544 0.65711 0.0
H1477 H 0.33448 0.26209 0.44203 0.0
H1478 H 0.31867 0.27155 0.40853 0.0
H1479 H 0.32006 0.25116 0.40613 0.0
H1480 H 0.29325 0.2489 0.45103 0.0
H1481 H 0.29177 0.26925 0.45341 0.0
H1482 H 0.28938 0.25831 0.51757 0.0
H1483 H 0.33246 0.27495 0.66007 0.0
H1484 H 0.32689 0.30239 0.64544 0.0
H1485 H 0.30794 0.29196 0.47964 0.0
C1486 C 0.31739 0.23183 0.51182 0.0
C1487 C 0.32228 0.221 0.55197 0.0
C1488 C 0.32851 0.22599 0.60435 0.0
C1489 C 0.32954 0.24162 0.61676 0.0
C1490 C 0.32436 0.252 0.57618 0.0
C1491 C 0.31842 0.24719 0.52477 0.0
C1492 C 0.313 0.26027 0.48878 0.0
C1493 C 0.3221 0.26133 0.43309 0.0
C1494 C 0.29584 0.25911 0.47705 0.0
C1495 C 0.31661 0.2733 0.52803 0.0
C1496 C 0.32329 0.26849 0.57811 0.0
C1497 C 0.32728 0.27879 0.62086 0.0
C1498 C 0.32413 0.29432 0.61221 0.0
C1499 C 0.31691 0.29923 0.56159 0.0
C1500 C 0.31336 0.28855 0.51902 0.0
H1501 H 0.96577 0.05663 0.70664 0.0
H1502 H 0.95188 0.07684 0.86666 0.0
H1503 H 0.97897 0.08128 0.89118 0.0
H1504 H -0.00294 0.03642 0.7614 0.0
H1505 H 0.00841 0.03902 0.6984 0.0
H1506 H 0.98804 0.03868 0.69301 0.0
H1507 H 0.98844 0.06502 0.6437 0.0
H1508 H 0.00883 0.06547 0.64905 0.0
H1509 H -0.0023 0.08075 0.67842 0.0
H1510 H 0.0084 0.08259 0.89784 0.0
H1511 H 0.03636 0.07964 0.88738 0.0
H1512 H 0.02939 0.05757 0.72452 0.0
C1513 C 0.96832 0.06194 0.74704 0.0
C1514 C 0.95671 0.06626 0.78497 0.0
C1515 C 0.96063 0.07343 0.83693 0.0
C1516 C 0.97597 0.07599 0.85115 0.0
C1517 C 0.98715 0.07132 0.81285 0.0
C1518 C 0.9834 0.06442 0.76191 0.0
C1519 C -0.00274 0.05977 0.72869 0.0
C1520 C -0.00229 0.04245 0.7199 0.0
C1521 C -0.0019 0.06827 0.6716 0.0
C1522 C 0.00952 0.06496 0.76897 0.0
C1523 C 0.00363 0.07176 0.81712 0.0
C1524 C 0.01309 0.07729 0.86021 0.0
C1525 C 0.02892 0.07561 0.85394 0.0
C1526 C 0.03497 0.06828 0.80537 0.0
C1527 C 0.02509 0.0631 0.76241 0.0
H1528 H 0.78698 0.70943 0.01569 0.0
H1529 H 0.80555 0.69774 0.18102 0.0
H1530 H 0.81087 0.72495 0.19935 0.0
H1531 H 0.81379 0.73846 0.9825 0.0
H1532 H 0.79999 0.75021 0.94689 0.0
H1533 H 0.79762 0.72992 0.948 0.0
H1534 H 0.77086 0.73314 0.99242 0.0
H1535 H 0.77314 0.75344 0.99133 0.0
H1536 H 0.76877 0.74392 0.05716 0.0
H1537 H 0.8138 0.75407 0.19871 0.0
H1538 H 0.81398 0.78176 0.17879 0.0
H1539 H 0.79416 0.77306 0.01285 0.0
C1540 C 0.79207 0.71254 0.056 0.0
C1541 C 0.79575 0.70149 0.09711 0.0
C1542 C 0.80261 0.70606 0.14894 0.0
C1543 C 0.80567 0.72147 0.1597 0.0
C1544 C 0.80188 0.73209 0.11802 0.0
C1545 C 0.79526 0.72775 0.06717 0.0
C1546 C 0.79234 0.74117 0.02882 0.0
C1547 C 0.80149 0.73986 0.97329 0.0
C1548 C 0.77527 0.74303 0.01676 0.0
C1549 C 0.79826 0.75381 0.066 0.0
C1550 C 0.80372 0.74848 0.11736 0.0
C1551 C 0.80956 0.75833 0.15854 0.0
C1552 C 0.80966 0.77402 0.14687 0.0
C1553 C 0.80394 0.77959 0.09454 0.0
C1554 C 0.79839 0.76925 0.05367 0.0
H1555 H 0.70046 0.21268 0.57412 0.0
H1556 H 0.65247 0.20213 0.5696 0.0
H1557 H 0.64647 0.22946 0.58212 0.0
H1558 H 0.69812 0.24509 0.67608 0.0
H1559 H 0.71276 0.25529 0.63869 0.0
H1560 H 0.713 0.23483 0.64007 0.0
H1561 H 0.71361 0.23433 0.52977 0.0
H1562 H 0.7133 0.25471 0.52802 0.0
H1563 H 0.69898 0.24407 0.49036 0.0
H1564 H 0.64606 0.25845 0.58014 0.0
H1565 H 0.65134 0.28581 0.56407 0.0
H1566 H 0.69958 0.27654 0.57063 0.0
C1567 C 0.6887 0.21606 0.57621 0.0
C1568 C 0.67693 0.2054 0.56997 0.0
C1569 C 0.66165 0.21021 0.57452 0.0
C1570 C 0.65816 0.22567 0.58162 0.0
C1571 C 0.67011 0.23604 0.58523 0.0
C1572 C 0.68509 0.23134 0.58349 0.0
C1573 C 0.69591 0.24462 0.58307 0.0
C1574 C 0.70551 0.24498 0.63774 0.0
C1575 C 0.70603 0.24441 0.52963 0.0
C1576 C 0.68471 0.25758 0.58161 0.0
C1577 C 0.66987 0.25251 0.58407 0.0
C1578 C 0.65764 0.26253 0.57914 0.0
C1579 C 0.66072 0.27801 0.57008 0.0
C1580 C 0.67587 0.28316 0.56508 0.0
C1581 C 0.68791 0.27287 0.57281 0.0
H1582 H 0.81196 0.27207 0.07376 0.0
H1583 H 0.82927 0.2821 0.90527 0.0
H1584 H 0.83237 0.25443 0.88725 0.0
H1585 H 0.83672 0.2408 0.10404 0.0
H1586 H 0.82227 0.23056 0.14231 0.0
H1587 H 0.82191 0.25098 0.14074 0.0
H1588 H 0.79443 0.25035 0.1009 0.0
H1589 H 0.7947 0.22994 0.10231 0.0
H1590 H 0.79049 0.23977 0.03691 0.0
H1591 H 0.83233 0.22481 0.88848 0.0
H1592 H 0.82954 0.19726 0.90942 0.0
H1593 H 0.81309 0.20845 0.07819 0.0
C1594 C 0.81639 0.26853 0.03288 0.0
C1595 C 0.82025 0.27919 0.99069 0.0
C1596 C 0.82623 0.27406 0.93817 0.0
C1597 C 0.828 0.25839 0.92763 0.0
C1598 C 0.8239 0.24816 0.97035 0.0
C1599 C 0.8183 0.25314 0.02203 0.0
C1600 C 0.81455 0.24018 0.06132 0.0
C1601 C 0.82446 0.24066 0.11527 0.0
C1602 C 0.79753 0.24006 0.07619 0.0
C1603 C 0.81873 0.22699 0.02374 0.0
C1604 C 0.8241 0.23163 0.97134 0.0
C1605 C 0.82821 0.22111 0.92955 0.0
C1606 C 0.82662 0.20551 0.94176 0.0
C1607 C 0.82095 0.20072 0.99521 0.0
C1608 C 0.81723 0.21168 0.03658 0.0
H1609 H 0.6733 0.7104 0.61379 0.0
H1610 H 0.64141 0.7023 0.47629 0.0
H1611 H 0.63977 0.73008 0.45936 0.0
H1612 H 0.65644 0.74438 0.66748 0.0
H1613 H 0.67448 0.753 0.68383 0.0
H1614 H 0.67255 0.73266 0.68519 0.0
H1615 H 0.69474 0.73016 0.6133 0.0
H1616 H 0.69671 0.75049 0.6116 0.0
H1617 H 0.69375 0.74012 0.5464 0.0
H1618 H 0.6423 0.75928 0.45776 0.0
H1619 H 0.64865 0.78648 0.47178 0.0
H1620 H 0.67917 0.77409 0.60916 0.0
C1621 C 0.66601 0.71438 0.57981 0.0
C1622 C 0.65759 0.70418 0.546 0.0
C1623 C 0.64798 0.70994 0.5027 0.0
C1624 C 0.64701 0.72568 0.49276 0.0
C1625 C 0.6557 0.7354 0.52657 0.0
C1626 C 0.66499 0.72989 0.56927 0.0
C1627 C 0.67339 0.74245 0.59949 0.0
C1628 C 0.66894 0.74316 0.66273 0.0
C1629 C 0.69067 0.7407 0.59223 0.0
C1630 C 0.66746 0.75599 0.56717 0.0
C1631 C 0.65723 0.75182 0.52533 0.0
C1632 C 0.6503 0.76262 0.4904 0.0
C1633 C 0.65396 0.77803 0.49864 0.0
C1634 C 0.6645 0.78239 0.54121 0.0
C1635 C 0.67123 0.77116 0.57574 0.0
H1636 H 0.51884 0.40871 0.81453 0.0
H1637 H 0.52627 0.41048 0.63276 0.0
H1638 H 0.49838 0.40878 0.6167 0.0
H1639 H 0.48419 0.38344 0.81228 0.0
H1640 H 0.47601 0.39393 0.87054 0.0
H1641 H 0.49632 0.39176 0.86567 0.0
H1642 H 0.49942 0.42103 0.87012 0.0
H1643 H 0.47924 0.4233 0.87448 0.0
H1644 H 0.48966 0.43268 0.81871 0.0
H1645 H 0.46933 0.4119 0.62336 0.0
H1646 H 0.44313 0.41925 0.65176 0.0
H1647 H 0.4559 0.4151 0.82899 0.0
C1648 C 0.5146 0.40815 0.77127 0.0
C1649 C 0.52453 0.40957 0.72484 0.0
C1650 C 0.51874 0.40911 0.66876 0.0
C1651 C 0.50294 0.40818 0.65942 0.0
C1652 C 0.49332 0.40742 0.70668 0.0
C1653 C 0.49906 0.40713 0.76153 0.0
C1654 C 0.48669 0.40816 0.80563 0.0
C1655 C 0.48575 0.39344 0.84057 0.0
C1656 C 0.48889 0.42212 0.84443 0.0
C1657 C 0.47307 0.40993 0.76743 0.0
C1658 C 0.47691 0.40919 0.71042 0.0
C1659 C 0.46618 0.41211 0.66784 0.0
C1660 C 0.45134 0.41623 0.6842 0.0
C1661 C 0.44761 0.41763 0.74249 0.0
C1662 C 0.45848 0.41396 0.78412 0.0
H1663 H 0.95974 0.55374 0.33252 0.0
H1664 H 0.94905 0.5828 0.18884 0.0
H1665 H 0.97644 0.58556 0.16864 0.0
H1666 H 0.99258 0.5733 0.3792 0.0
H1667 H 0.00281 0.55633 0.39842 0.0
H1668 H 0.98239 0.55652 0.40073 0.0
H1669 H 0.98154 0.53325 0.33326 0.0
H1670 H 0.00197 0.53298 0.33076 0.0
H1671 H 0.99117 0.53411 0.2657 0.0
H1672 H 0.00522 0.58583 0.16666 0.0
H1673 H 0.0329 0.58308 0.18181 0.0
H1674 H 0.02429 0.55301 0.32438 0.0
C1675 C 0.96308 0.56055 0.2964 0.0
C1676 C 0.95221 0.56798 0.26208 0.0
C1677 C 0.95717 0.57697 0.2157 0.0
C1678 C 0.9727 0.57859 0.20384 0.0
C1679 C 0.98311 0.57106 0.23851 0.0
C1680 C 0.97849 0.56216 0.28365 0.0
C1681 C 0.9919 0.5553 0.31467 0.0
C1682 C 0.99245 0.56069 0.37693 0.0
C1683 C 0.99163 0.53788 0.31084 0.0
C1684 C 0.00482 0.56189 0.28037 0.0
C1685 C -0.00044 0.57097 0.23664 0.0
C1686 C 0.00946 0.57865 0.20048 0.0
C1687 C 0.02515 0.57705 0.20945 0.0
C1688 C 0.03074 0.56776 0.25398 0.0
C1689 C 0.02039 0.56004 0.28951 0.0
H1690 H 0.96444 0.43451 0.831 0.0
H1691 H 0.95559 0.45754 0.67085 0.0
H1692 H 0.98284 0.45825 0.65072 0.0
H1693 H -0.00222 0.45622 0.86535 0.0
H1694 H 0.00813 0.44066 0.89666 0.0
H1695 H 0.98769 0.44074 0.89816 0.0
H1696 H 0.98727 0.41448 0.84863 0.0
H1697 H 0.00773 0.41433 0.84698 0.0
H1698 H -0.00292 0.41199 0.782 0.0
H1699 H 0.01007 0.45714 0.64658 0.0
H1700 H 0.03746 0.45562 0.66061 0.0
H1701 H 0.03061 0.43441 0.8257 0.0
C1702 C 0.96832 0.43953 0.79157 0.0
C1703 C 0.95793 0.44594 0.75234 0.0
C1704 C 0.96336 0.45264 0.70158 0.0
C1705 C 0.97881 0.45303 0.68954 0.0
C1706 C 0.98878 0.44681 0.72892 0.0
C1707 C 0.98393 0.44028 0.77912 0.0
C1708 C -0.00255 0.43528 0.81493 0.0
C1709 C -0.00222 0.44373 0.87217 0.0
C1710 C -0.00263 0.41799 0.82364 0.0
C1711 C 0.01053 0.44016 0.77685 0.0
C1712 C 0.00507 0.44661 0.72734 0.0
C1713 C 0.01455 0.45217 0.68521 0.0
C1714 C 0.03015 0.45133 0.69391 0.0
C1715 C 0.03624 0.44511 0.74468 0.0
C1716 C 0.02628 0.43925 0.78656 0.0
H1717 H 0.48512 0.55035 0.37124 0.0
H1718 H 0.47868 0.59826 0.33907 0.0
H1719 H 0.50624 0.60261 0.35299 0.0
H1720 H 0.51777 0.55483 0.47776 0.0
H1721 H 0.52677 0.53795 0.45047 0.0
H1722 H 0.50635 0.5394 0.45119 0.0
H1723 H 0.50565 0.53385 0.34276 0.0
H1724 H 0.52593 0.53232 0.34225 0.0
H1725 H 0.51663 0.54557 0.29527 0.0
H1726 H 0.5348 0.60038 0.34648 0.0
H1727 H 0.56101 0.59187 0.32446 0.0
H1728 H 0.54869 0.54597 0.36934 0.0
C1729 C 0.48949 0.56181 0.36893 0.0
C1730 C 0.47993 0.57398 0.354 0.0
C1731 C 0.4859 0.58884 0.35117 0.0
C1732 C 0.50152 0.59139 0.35904 0.0
C1733 C 0.51085 0.57899 0.37138 0.0
C1734 C 0.50494 0.56452 0.37773 0.0
C1735 C 0.51738 0.55283 0.3847 0.0
C1736 C 0.51704 0.54585 0.44461 0.0
C1737 C 0.51633 0.54043 0.33847 0.0
C1738 C 0.53121 0.56276 0.37684 0.0
C1739 C 0.52731 0.57787 0.37025 0.0
C1740 C 0.53805 0.5887 0.35373 0.0
C1741 C 0.55292 0.58382 0.34155 0.0
C1742 C 0.55679 0.56831 0.34611 0.0
C1743 C 0.546 0.55789 0.36645 0.0
H1744 H 0.2537 0.17831 0.10662 0.0
H1745 H 0.22413 0.14141 0.15676 0.0
H1746 H 0.24107 0.1359 0.23848 0.0
H1747 H 0.29086 0.16171 0.16174 0.0
H1748 H 0.29691 0.1803 0.18435 0.0
H1749 H 0.28513 0.17826 0.12203 0.0
H1750 H 0.26567 0.19701 0.16563 0.0
H1751 H 0.27719 0.19896 0.22808 0.0
H1752 H 0.2577 0.19301 0.23467 0.0
H1753 H 0.25835 0.13811 0.32544 0.0
H1754 H 0.27355 0.148 0.40661 0.0
H1755 H 0.29042 0.18421 0.29969 0.0
C1756 C 0.2511 0.16867 0.13347 0.0
C1757 C 0.23765 0.16027 0.12539 0.0
C1758 C 0.23451 0.14786 0.16176 0.0
C1759 C 0.24407 0.14468 0.20836 0.0
C1760 C 0.25678 0.15388 0.21724 0.0
C1761 C 0.26039 0.1655 0.18002 0.0
C1762 C 0.27308 0.17531 0.20267 0.0
C1763 C 0.28734 0.1738 0.16549 0.0
C1764 C 0.2681 0.19204 0.20811 0.0
C1765 C 0.27545 0.16808 0.26016 0.0
C1766 C 0.26635 0.15543 0.26747 0.0
C1767 C 0.26576 0.14778 0.31957 0.0
C1768 C 0.2744 0.15343 0.36539 0.0
C1769 C 0.28311 0.16678 0.3588 0.0
C1770 C 0.28391 0.17388 0.3053 0.0
H1771 H 0.07481 0.95869 0.50138 0.0
H1772 H 0.10856 0.98075 0.39661 0.0
H1773 H 0.11574 -0.00278 0.47823 0.0
H1774 H 0.06093 0.98952 0.56302 0.0
H1775 H 0.05763 0.98148 0.63245 0.0
H1776 H 0.05795 0.96939 0.57117 0.0
H1777 H 0.07906 0.95298 0.61747 0.0
H1778 H 0.07876 0.96506 0.67941 0.0
H1779 H 0.09631 0.96186 0.64191 0.0
H1780 H 0.11501 0.01465 0.56503 0.0
H1781 H 0.10665 0.03067 0.64588 0.0
H1782 H 0.07408 0.99612 0.69361 0.0
C1783 C 0.08412 0.96661 0.49645 0.0
C1784 C 0.09124 0.96848 0.44336 0.0
C1785 C 0.10318 0.97906 0.43754 0.0
C1786 C 0.1073 0.98843 0.48364 0.0
C1787 C 0.09958 0.98672 0.53524 0.0
C1788 C 0.08844 0.9758 0.54196 0.0
C1789 C 0.08049 0.97726 0.59859 0.0
C1790 C 0.06325 0.97956 0.59078 0.0
C1791 C 0.08387 0.96347 0.63659 0.0
C1792 C 0.0881 0.99137 0.62129 0.0
C1793 C 0.09933 0.99654 0.58508 0.0
C1794 C 0.10655 0.01046 0.5944 0.0
C1795 C 0.10176 0.01948 0.64052 0.0
C1796 C 0.08973 0.0146 0.67598 0.0
C1797 C 0.08338 9e-05 0.66746 0.0
H1798 H 0.26114 0.83004 0.96967 0.0
H1799 H 0.22471 0.85883 0.90934 0.0
H1800 H 0.24053 0.86657 0.8275 0.0
H1801 H 0.29462 0.85338 0.90645 0.0
H1802 H 0.30432 0.83592 0.88984 0.0
H1803 H 0.29268 0.83719 0.95276 0.0
H1804 H 0.27744 0.81372 0.91901 0.0
H1805 H 0.28878 0.81248 0.85612 0.0
H1806 H 0.26843 0.81407 0.85004 0.0
H1807 H 0.25694 0.86521 0.74029 0.0
H1808 H 0.27198 0.85506 0.65957 0.0
H1809 H 0.29715 0.82655 0.77587 0.0
C1810 C 0.25682 0.83858 0.94072 0.0
C1811 C 0.24178 0.84388 0.94567 0.0
C1812 C 0.23632 0.85483 0.90672 0.0
C1813 C 0.24525 0.85926 0.86001 0.0
C1814 C 0.25967 0.85284 0.85372 0.0
C1815 C 0.26553 0.84296 0.89398 0.0
C1816 C 0.27989 0.83536 0.87318 0.0
C1817 C 0.2937 0.8408 0.9076 0.0
C1818 C 0.27852 0.81789 0.87462 0.0
C1819 C 0.28043 0.84135 0.81302 0.0
C1820 C 0.26907 0.85188 0.80298 0.0
C1821 C 0.26618 0.85739 0.74819 0.0
C1822 C 0.27475 0.8516 0.70258 0.0
C1823 C 0.28578 0.84026 0.71228 0.0
C1824 C 0.28898 0.83552 0.76813 0.0
H1825 H 0.397 0.98915 0.87996 0.0
H1826 H 0.37585 0.03081 0.93663 0.0
H1827 H 0.36418 0.01715 0.01679 0.0
H1828 H 0.36503 0.96187 0.94328 0.0
H1829 H 0.37961 0.94824 0.96024 0.0
H1830 H 0.38105 0.95952 0.89643 0.0
H1831 H 0.40767 0.96874 0.92799 0.0
H1832 H 0.40632 0.95753 0.99094 0.0
H1833 H 0.40984 0.97764 0.99669 0.0
H1834 H 0.36386 0.00261 0.10525 0.0
H1835 H 0.37413 0.98864 0.18759 0.0
H1836 H 0.39289 0.95487 0.075 0.0
C1837 C 0.38924 0.99515 0.90772 0.0
C1838 C 0.38736 0.01097 0.90248 0.0
C1839 C 0.37732 0.01863 0.93959 0.0
C1840 C 0.3706 0.01092 0.98527 0.0
C1841 C 0.37365 0.99547 0.99218 0.0
C1842 C 0.38234 0.98752 0.9531 0.0
C1843 C 0.38625 0.97183 0.97493 0.0
C1844 C 0.37745 0.95965 0.94175 0.0
C1845 C 0.40353 0.9688 0.97259 0.0
C1846 C 0.38044 0.97304 0.03542 0.0
C1847 C 0.37259 0.9865 0.04395 0.0
C1848 C 0.36925 0.99171 0.09875 0.0
C1849 C 0.37501 0.98366 0.14557 0.0
C1850 C 0.38381 0.97048 0.13712 0.0
C1851 C 0.38552 0.96454 0.08194 0.0
H1852 H 0.77736 0.82031 0.84772 0.0
H1853 H 0.75434 0.85264 0.9558 0.0
H1854 H 0.73825 0.86055 0.87419 0.0
H1855 H 0.77339 0.84256 0.70687 0.0
H1856 H 0.77042 0.825 0.6691 0.0
H1857 H 0.78288 0.82551 0.73002 0.0
H1858 H 0.76736 0.80386 0.77655 0.0
H1859 H 0.7548 0.80339 0.71662 0.0
H1860 H 0.74723 0.80633 0.78701 0.0
H1861 H 0.72096 0.86017 0.78825 0.0
H1862 H 0.70453 0.85158 0.70902 0.0
H1863 H 0.73908 0.81931 0.65816 0.0
C1864 C 0.76945 0.82962 0.85314 0.0
C1865 C 0.76718 0.83611 0.90714 0.0
C1866 C 0.75644 0.84787 0.91406 0.0
C1867 C 0.74726 0.85237 0.86795 0.0
C1868 C 0.74923 0.84513 0.81547 0.0
C1869 C 0.76032 0.83418 0.80776 0.0
C1870 C 0.7587 0.82627 0.75099 0.0
C1871 C 0.77215 0.83007 0.71193 0.0
C1872 C 0.7569 0.80896 0.7583 0.0
C1873 C 0.74425 0.83356 0.72971 0.0
C1874 C 0.73916 0.84475 0.76636 0.0
C1875 C 0.72507 0.85174 0.75852 0.0
C1876 C 0.7158 0.8468 0.71338 0.0
C1877 C 0.72057 0.83478 0.67758 0.0
C1878 C 0.7352 0.82859 0.68469 0.0
H1879 H 0.92402 0.03128 0.53148 0.0
H1880 H 0.89057 0.00893 0.63671 0.0
H1881 H 0.88351 0.99233 0.5553 0.0
H1882 H 0.90252 0.0277 0.39088 0.0
H1883 H 0.92011 0.02465 0.35347 0.0
H1884 H 0.91966 0.03683 0.41515 0.0
H1885 H 0.94096 0.02074 0.46177 0.0
H1886 H 0.94143 0.00854 0.40079 0.0
H1887 H 0.93822 0.00059 0.47042 0.0
H1888 H 0.88439 0.97485 0.46882 0.0
H1889 H 0.8929 0.95883 0.38822 0.0
H1890 H 0.92515 0.99362 0.33993 0.0
C1891 C 0.91478 0.02328 0.5365 0.0
C1892 C 0.90772 0.02137 0.58965 0.0
C1893 C 0.89589 0.01066 0.5957 0.0
C1894 C 0.89185 0.00122 0.54972 0.0
C1895 C 0.89952 0.00297 0.49806 0.0
C1896 C 0.91055 0.01401 0.49113 0.0
C1897 C 0.91852 0.01256 0.43455 0.0
C1898 C 0.91498 0.02625 0.39624 0.0
C1899 C 0.93579 0.01047 0.44242 0.0
C1900 C 0.91108 -0.00167 0.41216 0.0
C1901 C 0.89989 0.99309 0.44844 0.0
C1902 C 0.89283 0.97909 0.4394 0.0
C1903 C 0.8977 0.97006 0.39344 0.0
C1904 C 0.90968 0.97501 0.35788 0.0
C1905 C 0.9159 0.98959 0.36618 0.0
H1906 H 0.78906 0.167 0.2482 0.0
H1907 H 0.767 0.1327 0.14575 0.0
H1908 H 0.7505 0.126 0.22768 0.0
H1909 H 0.7851 0.14676 0.39202 0.0
H1910 H 0.78183 0.16473 0.4266 0.0
H1911 H 0.79432 0.16365 0.366 0.0
H1912 H 0.77843 0.18442 0.3154 0.0
H1913 H 0.76585 0.18545 0.37509 0.0
H1914 H 0.75834 0.1815 0.30524 0.0
H1915 H 0.73293 0.12741 0.31302 0.0
H1916 H 0.71653 0.13648 0.3915 0.0
H1917 H 0.75065 0.16979 0.43704 0.0
C1918 C 0.7812 0.15761 0.24404 0.0
C1919 C 0.7793 0.15022 0.19146 0.0
C1920 C 0.76874 0.13824 0.18638 0.0
C1921 C 0.75935 0.13441 0.23265 0.0
C1922 C 0.76099 0.1425 0.28354 0.0
C1923 C 0.77192 0.15366 0.28963 0.0
C1924 C 0.77015 0.16223 0.34489 0.0
C1925 C 0.78365 0.15915 0.38474 0.0
C1926 C 0.76805 0.1794 0.33447 0.0
C1927 C 0.75583 0.15499 0.3672 0.0
C1928 C 0.75088 0.14335 0.33232 0.0
C1929 C 0.73693 0.13623 0.34139 0.0
C1930 C 0.72768 0.14145 0.38606 0.0
C1931 C 0.73234 0.15385 0.42025 0.0
C1932 C 0.74682 0.16024 0.41178 0.0
H1933 H 0.60096 0.01296 0.20576 0.0
H1934 H 0.61635 0.97006 0.13798 0.0
H1935 H 0.62414 0.98274 0.04959 0.0
H1936 H 0.58151 0.0229 0.10509 0.0
H1937 H 0.58508 0.04302 0.10096 0.0
H1938 H 0.58816 0.03328 0.16648 0.0
H1939 H 0.61602 0.04241 0.1698 0.0
H1940 H 0.61295 0.05266 0.10433 0.0
H1941 H 0.62831 0.03921 0.10973 0.0
H1942 H 0.6195 0.99638 0.96088 0.0
H1943 H 0.60573 0.01028 0.88543 0.0
H1944 H 0.59312 0.0449 0.0065 0.0
C1945 C 0.607 0.00654 0.17365 0.0
C1946 C 0.60801 0.99062 0.17822 0.0
C1947 C 0.61565 0.98232 0.13556 0.0
C1948 C 0.62003 0.98948 0.08488 0.0
C1949 C 0.61699 0.00495 0.07832 0.0
C1950 C 0.61116 0.01356 0.12263 0.0
C1951 C 0.60572 0.02893 0.1018 0.0
C1952 C 0.58915 0.03218 0.11956 0.0
C1953 C 0.61639 0.04155 0.12264 0.0
C1954 C 0.60722 0.02672 0.03822 0.0
C1955 C 0.61443 0.01314 0.02549 0.0
C1956 C 0.61453 0.00734 0.97012 0.0
C1957 C 0.60664 0.01523 0.92749 0.0
C1958 C 0.59881 0.02875 0.94059 0.0
C1959 C 0.5996 0.03485 0.99575 0.0
H1960 H 0.76512 0.6605 0.84571 0.0
H1961 H 0.73966 0.63252 0.96259 0.0
H1962 H 0.72323 0.62387 0.88305 0.0
H1963 H 0.73634 0.67484 0.77651 0.0
H1964 H 0.74459 0.67524 0.70636 0.0
H1965 H 0.75666 0.67554 0.76767 0.0
H1966 H 0.77083 0.65167 0.73113 0.0
H1967 H 0.75877 0.65133 0.66907 0.0
H1968 H 0.76026 0.63477 0.71377 0.0
H1969 H 0.70607 0.62364 0.79648 0.0
H1970 H 0.69045 0.63181 0.71424 0.0
H1971 H 0.72787 0.65919 0.65353 0.0
C1972 C 0.75654 0.65197 0.85375 0.0
C1973 C 0.75371 0.64695 0.90954 0.0
C1974 C 0.74215 0.63617 0.9196 0.0
C1975 C 0.73279 0.63124 0.87467 0.0
C1976 C 0.73541 0.63698 0.82006 0.0
C1977 C 0.74729 0.64688 0.80942 0.0
C1978 C 0.74654 0.65322 0.74975 0.0
C1979 C 0.74598 0.67073 0.75018 0.0
C1980 C 0.75989 0.64739 0.7138 0.0
C1981 C 0.73172 0.6464 0.72987 0.0
C1982 C 0.72562 0.63671 0.77011 0.0
C1983 C 0.71097 0.63082 0.76397 0.0
C1984 C 0.70217 0.63546 0.717 0.0
C1985 C 0.70802 0.64608 0.67755 0.0
C1986 C 0.72321 0.65092 0.68278 0.0
H1987 H 0.55498 0.51239 0.10096 0.0
H1988 H 0.60342 0.50942 0.13348 0.0
H1989 H 0.60603 0.49164 0.05216 0.0
H1990 H 0.54927 0.4738 0.065 0.0
H1991 H 0.53533 0.47798 0.01102 0.0
H1992 H 0.53766 0.49059 0.07062 0.0
H1993 H 0.54228 0.51307 0.00151 0.0
H1994 H 0.53998 0.50052 0.94166 0.0
H1995 H 0.55705 0.51164 0.94873 0.0
H1996 H 0.60267 0.47309 0.96761 0.0
H1997 H 0.59379 0.45652 0.88881 0.0
H1998 H 0.54785 0.473 0.91454 0.0
C1999 C 0.56619 0.50808 0.09123 0.0
C2000 C 0.57898 0.51229 0.1238 0.0
C2001 C 0.59343 0.50637 0.10907 0.0
C2002 C 0.59502 0.49626 0.06301 0.0
C2003 C 0.58208 0.4923 0.03205 0.0
C2004 C 0.56798 0.49814 0.04566 0.0
C2005 C 0.55573 0.49217 0.00677 0.0
C2006 C 0.5438 0.4831 0.04037 0.0
C2007 C 0.54833 0.50512 0.97265 0.0
C2008 C 0.56507 0.48198 0.96899 0.0
C2009 C 0.58024 0.48208 0.98392 0.0
C2010 C 0.59082 0.47304 0.95541 0.0
C2011 C 0.58569 0.46366 0.91076 0.0
C2012 C 0.57014 0.46349 0.8951 0.0
C2013 C 0.55984 0.47289 0.92473 0.0
H2014 H 0.74838 0.31725 0.42517 0.0
H2015 H 0.7144 0.34982 0.37143 0.0
H2016 H 0.73081 0.35729 0.29053 0.0
H2017 H 0.78308 0.33893 0.37342 0.0
H2018 H 0.79198 0.3214 0.35215 0.0
H2019 H 0.77955 0.32177 0.41304 0.0
H2020 H 0.76334 0.30034 0.36798 0.0
H2021 H 0.77557 0.29997 0.30714 0.0
H2022 H 0.75548 0.30302 0.2978 0.0
H2023 H 0.74853 0.35709 0.20494 0.0
H2024 H 0.76526 0.34901 0.12531 0.0
H2025 H 0.78681 0.31622 0.23592 0.0
C2026 C 0.74462 0.32636 0.39756 0.0
C2027 C 0.73016 0.33297 0.40443 0.0
C2028 C 0.72554 0.34473 0.36724 0.0
C2029 C 0.7348 0.34903 0.32118 0.0
C2030 C 0.74871 0.34165 0.31381 0.0
C2031 C 0.75366 0.3307 0.35177 0.0
C2032 C 0.76783 0.32281 0.33095 0.0
C2033 C 0.78141 0.32645 0.3697 0.0
C2034 C 0.76539 0.30553 0.32562 0.0
C2035 C 0.76955 0.33024 0.27351 0.0
C2036 C 0.75874 0.34142 0.26469 0.0
C2037 C 0.75728 0.34867 0.21203 0.0
C2038 C 0.7668 0.34407 0.16711 0.0
C2039 C 0.77734 0.33217 0.17529 0.0
C2040 C 0.77899 0.32555 0.22935 0.0
H2041 H 0.89744 0.51008 0.701 0.0
H2042 H 0.87933 0.46804 0.63479 0.0
H2043 H 0.8702 0.48151 0.54946 0.0
H2044 H 0.86906 0.53766 0.6192 0.0
H2045 H 0.88458 0.55071 0.60928 0.0
H2046 H 0.88321 0.53983 0.67407 0.0
H2047 H 0.91047 0.52985 0.65761 0.0
H2048 H 0.91185 0.54029 0.59272 0.0
H2049 H 0.91484 0.52004 0.59223 0.0
H2050 H 0.87188 0.49643 0.46078 0.0
H2051 H 0.88278 0.51153 0.38193 0.0
H2052 H 0.90053 0.54386 0.50306 0.0
C2053 C 0.89066 0.50399 0.67005 0.0
C2054 C 0.88906 0.48812 0.67417 0.0
C2055 C 0.88046 0.48028 0.6328 0.0
C2056 C 0.87528 0.48787 0.58395 0.0
C2057 C 0.87856 0.50331 0.57794 0.0
C2058 C 0.88568 0.51141 0.62094 0.0
C2059 C 0.89091 0.52682 0.60023 0.0
C2060 C 0.88136 0.53951 0.62729 0.0
C2061 C 0.90802 0.52936 0.61129 0.0
C2062 C 0.88743 0.52536 0.53749 0.0
C2063 C 0.87966 0.51205 0.52566 0.0
C2064 C 0.87738 0.50715 0.4697 0.0
C2065 C 0.88362 0.51573 0.42514 0.0
C2066 C 0.89215 0.5289 0.43712 0.0
C2067 C 0.89361 0.53403 0.49347 0.0
H2068 H 0.20435 0.32291 0.24762 0.0
H2069 H 0.22199 0.35824 0.13848 0.0
H2070 H 0.23772 0.36792 0.21862 0.0
H2071 H 0.20506 0.34568 0.38519 0.0
H2072 H 0.21041 0.32898 0.42472 0.0
H2073 H 0.19836 0.32727 0.36296 0.0
H2074 H 0.21724 0.30798 0.3189 0.0
H2075 H 0.2293 0.30966 0.38005 0.0
H2076 H 0.23685 0.31334 0.31015 0.0
H2077 H 0.25523 0.37001 0.30527 0.0
H2078 H 0.27208 0.36441 0.3873 0.0
H2079 H 0.24169 0.32836 0.43934 0.0
C2080 C 0.21112 0.33304 0.24139 0.0
C2081 C 0.21198 0.33995 0.18756 0.0
C2082 C 0.22108 0.35299 0.18 0.0
C2083 C 0.23002 0.35852 0.22525 0.0
C2084 C 0.22935 0.35106 0.27772 0.0
C2085 C 0.21984 0.33875 0.28604 0.0
C2086 C 0.22228 0.33153 0.34355 0.0
C2087 C 0.20819 0.33349 0.38134 0.0
C2088 C 0.22669 0.31465 0.33775 0.0
C2089 C 0.23535 0.34099 0.3651 0.0
C2090 C 0.23915 0.35243 0.32741 0.0
C2091 C 0.25208 0.36137 0.33576 0.0
C2092 C 0.26157 0.35815 0.38255 0.0
C2093 C 0.25814 0.34598 0.41966 0.0
C2094 C 0.24453 0.33782 0.41192 0.0
H2095 H 0.44072 0.46797 0.98562 0.0
H2096 H 0.39705 0.48325 0.92237 0.0
H2097 H 0.39519 0.50123 0.00379 0.0
H2098 H 0.43191 0.47079 0.1377 0.0
H2099 H 0.45089 0.47696 0.15457 0.0
H2100 H 0.44769 0.4645 0.09496 0.0
H2101 H 0.46129 0.48365 0.0285 0.0
H2102 H 0.46446 0.49617 0.08768 0.0
H2103 H 0.45466 0.50299 0.02536 0.0
H2104 H 0.39992 0.51947 0.08857 0.0
H2105 H 0.41022 0.5352 0.16715 0.0
H2106 H 0.4505 0.50682 0.1718 0.0
C2107 C 0.43064 0.47496 0.98903 0.0
C2108 C 0.41907 0.47431 0.94754 0.0
C2109 C 0.40602 0.48355 0.95392 0.0
C2110 C 0.4049 0.49378 -8e-05 0.0
C2111 C 0.4168 0.49438 0.03935 0.0
C2112 C 0.42932 0.48501 0.0344 0.0
C2113 C 0.44099 0.48812 0.07999 0.0
C2114 C 0.44298 0.47427 0.11912 0.0
C2115 C 0.45624 0.49303 0.0538 0.0
C2116 C 0.43338 0.50106 0.11075 0.0
C2117 C 0.41939 0.50452 0.08736 0.0
C2118 C 0.41078 0.51669 0.10753 0.0
C2119 C 0.41672 0.52557 0.15218 0.0
C2120 C 0.43118 0.52227 0.17583 0.0
C2121 C 0.43939 0.50968 0.15508 0.0
H2122 H 0.25426 0.65946 0.94667 0.0
H2123 H 0.21497 0.63492 0.88537 0.0
H2124 H 0.23005 0.62523 0.80435 0.0
H2125 H 0.26447 0.67381 0.82581 0.0
H2126 H 0.28477 0.67274 0.83464 0.0
H2127 H 0.27279 0.67341 0.89597 0.0
H2128 H 0.2846 0.64836 0.93322 0.0
H2129 H 0.29679 0.64765 0.87168 0.0
H2130 H 0.28473 0.63175 0.8884 0.0
H2131 H 0.2469 0.6244 0.71811 0.0
H2132 H 0.26354 0.63232 0.63843 0.0
H2133 H 0.29181 0.6572 0.75631 0.0
C2134 C 0.24907 0.65146 0.91758 0.0
C2135 C 0.23353 0.64789 0.92216 0.0
C2136 C 0.22695 0.63761 0.88303 0.0
C2137 C 0.23545 0.63207 0.83684 0.0
C2138 C 0.25057 0.63665 0.83132 0.0
C2139 C 0.2574 0.64589 0.87161 0.0
C2140 C 0.2728 0.65135 0.852 0.0
C2141 C 0.27373 0.66884 0.85206 0.0
C2142 C 0.28548 0.64435 0.88849 0.0
C2143 C 0.27302 0.64495 0.79235 0.0
C2144 C 0.26038 0.63606 0.78156 0.0
C2145 C 0.2571 0.63084 0.72667 0.0
C2146 C 0.26662 0.63532 0.68164 0.0
C2147 C 0.27908 0.64501 0.69204 0.0
C2148 C 0.28261 0.64934 0.74811 0.0
H2149 H 0.08437 0.50058 0.36925 0.0
H2150 H 0.10478 0.54275 0.42472 0.0
H2151 H 0.11733 0.52932 0.50392 0.0
H2152 H 0.07361 0.48787 0.49118 0.0
H2153 H 0.07781 0.46801 0.48138 0.0
H2154 H 0.07462 0.47981 0.42071 0.0
H2155 H 0.10084 0.47197 0.38013 0.0
H2156 H 0.10415 0.46016 0.44162 0.0
H2157 H 0.11771 0.47459 0.42249 0.0
H2158 H 0.11993 0.5139 0.59112 0.0
H2159 H 0.11311 0.49781 0.67327 0.0
H2160 H 0.09404 0.46444 0.5594 0.0
C2161 C 0.09203 0.50679 0.39674 0.0
C2162 C 0.09359 0.52264 0.39119 0.0
C2163 C 0.10355 0.53055 0.428 0.0
C2164 C 0.11078 0.52299 0.47303 0.0
C2165 C 0.10834 0.50743 0.47946 0.0
C2166 C 0.09955 0.49932 0.44114 0.0
C2167 C 0.09684 0.48328 0.46166 0.0
C2168 C 0.07972 0.47956 0.46393 0.0
C2169 C 0.1054 0.47183 0.42425 0.0
C2170 C 0.10386 0.48418 0.52043 0.0
C2171 C 0.11089 0.49805 0.52943 0.0
C2172 C 0.1152 0.50272 0.58399 0.0
C2173 C 0.11141 0.49348 0.63057 0.0
C2174 C 0.10361 0.4797 0.62194 0.0
C2175 C 0.10073 0.47459 0.56623 0.0
loop_
_geom_bond_atom_site_label_1
_geom_bond_atom_site_label_2
_geom_bond_distance
_geom_bond_site_symmetry_2
_ccdc_geom_bond_type
Mg0 O1 2.028 1_554 S
Mg0 O7 1.986 . S
Mg0 O9 2.114 1_554 S
Mg0 O10 2.251 . S
Mg0 O13 2.010 . S
O1 Mg0 2.028 1_556 S
O1 C4 1.250 . S
O2 Mg3 2.028 1_556 S
O2 C4 1.248 . S
Mg3 O2 2.028 1_554 S
Mg3 O8 2.032 . S
Mg3 O10 2.079 . S
C4 O1 1.250 . S
C4 O2 1.248 . S
C5 O6 1.264 . S
C5 O13 1.249 . S
O6 C5 1.264 . S
O7 Mg0 1.986 . S
O7 C11 1.246 . S
O8 Mg3 2.032 . S
O8 C11 1.259 . S
O9 Mg0 2.114 1_556 S
O9 C12 1.252 1_556 S
O10 Mg0 2.251 . S
O10 Mg3 2.079 . S
O10 C12 1.273 . S
C11 O7 1.246 . S
C11 O8 1.259 . S
C12 O9 1.252 1_554 S
C12 O10 1.273 . S
O13 Mg0 2.010 . S
O13 C5 1.249 . S
Mg14 O15 2.028 . S
Mg14 O21 1.986 . S
Mg14 O23 2.114 . S
Mg14 O24 2.251 . S
Mg14 O27 2.010 . S
O15 Mg14 2.028 . S
O15 C18 1.250 . S
O16 Mg17 2.028 . S
O16 C18 1.248 . S
Mg17 O16 2.028 . S
Mg17 O22 2.032 . S
Mg17 O24 2.079 . S
C18 O15 1.250 . S
C18 O16 1.248 . S
C19 O20 1.264 . S
C19 O27 1.249 . S
O20 C19 1.264 . S
O21 Mg14 1.986 . S
O21 C25 1.246 . S
O22 Mg17 2.032 . S
O22 C25 1.259 . S
O23 Mg14 2.114 . S
O23 C26 1.252 . S
O24 Mg14 2.251 . S
O24 Mg17 2.079 . S
O24 C26 1.273 . S
C25 O21 1.246 . S
C25 O22 1.259 . S
C26 O23 1.252 . S
C26 O24 1.273 . S
O27 Mg14 2.010 . S
O27 C19 1.249 . S
Mg28 O29 2.028 . S
Mg28 O35 1.986 . S
Mg28 O37 2.114 . S
Mg28 O38 2.251 . S
Mg28 O41 2.010 . S
O29 Mg28 2.028 . S
O29 C32 1.250 . S
O30 Mg31 2.028 . S
O30 C32 1.248 . S
Mg31 O30 2.028 . S
Mg31 O36 2.032 . S
Mg31 O38 2.079 . S
C32 O29 1.250 . S
C32 O30 1.248 . S
C33 O34 1.264 . S
C33 O41 1.249 . S
O34 C33 1.264 . S
O35 Mg28 1.986 . S
O35 C39 1.246 . S
O36 Mg31 2.032 . S
O36 C39 1.259 . S
O37 Mg28 2.114 . S
O37 C40 1.252 . S
O38 Mg28 2.251 . S
O38 Mg31 2.079 . S
O38 C40 1.273 . S
C39 O35 1.246 . S
C39 O36 1.259 . S
C40 O37 1.252 . S
C40 O38 1.273 . S
O41 Mg28 2.010 . S
O41 C33 1.249 . S
Mg42 O43 2.028 . S
Mg42 O49 1.986 . S
Mg42 O51 2.114 . S
Mg42 O52 2.251 . S
Mg42 O55 2.010 . S
O43 Mg42 2.028 . S
O43 C46 1.250 . S
O44 Mg45 2.028 . S
O44 C46 1.248 . S
Mg45 O44 2.028 . S
Mg45 O50 2.032 . S
Mg45 O52 2.079 . S
C46 O43 1.250 . S
C46 O44 1.248 . S
C47 O48 1.264 . S
C47 O55 1.249 . S
O48 C47 1.264 . S
O49 Mg42 1.986 . S
O49 C53 1.246 . S
O50 Mg45 2.032 . S
O50 C53 1.259 . S
O51 Mg42 2.114 . S
O51 C54 1.252 . S
O52 Mg42 2.251 . S
O52 Mg45 2.079 . S
O52 C54 1.273 . S
C53 O49 1.246 . S
C53 O50 1.259 . S
C54 O51 1.252 . S
C54 O52 1.273 . S
O55 Mg42 2.010 . S
O55 C47 1.249 . S
Mg56 O57 2.028 . S
Mg56 O63 1.986 1_554 S
Mg56 O65 2.114 . S
Mg56 O66 2.251 . S
Mg56 O69 2.010 . S
O57 Mg56 2.028 . S
O57 C60 1.250 . S
O58 Mg59 2.028 . S
O58 C60 1.248 . S
Mg59 O58 2.028 . S
Mg59 O64 2.032 1_554 S
Mg59 O66 2.079 . S
C60 O57 1.250 . S
C60 O58 1.248 . S
C61 O62 1.264 . S
C61 O69 1.249 . S
O62 C61 1.264 . S
O63 Mg56 1.986 1_556 S
O63 C67 1.246 . S
O64 Mg59 2.032 1_556 S
O64 C67 1.259 . S
O65 Mg56 2.114 . S
O65 C68 1.252 . S
O66 Mg56 2.251 . S
O66 Mg59 2.079 . S
O66 C68 1.273 . S
C67 O63 1.246 . S
C67 O64 1.259 . S
C68 O65 1.252 . S
C68 O66 1.273 . S
O69 Mg56 2.010 . S
O69 C61 1.249 . S
Mg70 O71 2.028 . S
Mg70 O77 1.986 . S
Mg70 O79 2.114 . S
Mg70 O80 2.251 . S
Mg70 O83 2.010 . S
O71 Mg70 2.028 . S
O71 C74 1.250 . S
O72 Mg73 2.028 . S
O72 C74 1.248 . S
Mg73 O72 2.028 . S
Mg73 O78 2.032 . S
Mg73 O80 2.079 . S
C74 O71 1.250 . S
C74 O72 1.248 . S
C75 O76 1.264 . S
C75 O83 1.249 . S
O76 C75 1.264 . S
O77 Mg70 1.986 . S
O77 C81 1.246 . S
O78 Mg73 2.032 . S
O78 C81 1.259 . S
O79 Mg70 2.114 . S
O79 C82 1.252 . S
O80 Mg70 2.251 . S
O80 Mg73 2.079 . S
O80 C82 1.273 . S
C81 O77 1.246 . S
C81 O78 1.259 . S
C82 O79 1.252 . S
C82 O80 1.273 . S
O83 Mg70 2.010 . S
O83 C75 1.249 . S
Mg84 O85 2.028 . S
Mg84 O91 1.986 . S
Mg84 O93 2.114 . S
Mg84 O94 2.251 . S
Mg84 O97 2.010 . S
O85 Mg84 2.028 . S
O85 C88 1.250 . S
O86 Mg87 2.028 . S
O86 C88 1.248 . S
Mg87 O86 2.028 . S
Mg87 O92 2.032 . S
Mg87 O94 2.079 . S
C88 O85 1.250 . S
C88 O86 1.248 . S
C89 O90 1.264 . S
C89 O97 1.249 . S
O90 C89 1.264 . S
O91 Mg84 1.986 . S
O91 C95 1.246 . S
O92 Mg87 2.032 . S
O92 C95 1.259 . S
O93 Mg84 2.114 . S
O93 C96 1.252 . S
O94 Mg84 2.251 . S
O94 Mg87 2.079 . S
O94 C96 1.273 . S
C95 O91 1.246 . S
C95 O92 1.259 . S
C96 O93 1.252 . S
C96 O94 1.273 . S
O97 Mg84 2.010 . S
O97 C89 1.249 . S
Mg98 O99 2.028 . S
Mg98 O105 1.986 . S
Mg98 O107 2.114 . S
Mg98 O108 2.251 . S
Mg98 O111 2.010 . S
O99 Mg98 2.028 . S
O99 C102 1.250 . S
O100 Mg101 2.028 . S
O100 C102 1.248 . S
Mg101 O100 2.028 . S
Mg101 O106 2.032 . S
Mg101 O108 2.079 . S
C102 O99 1.250 . S
C102 O100 1.248 . S
C103 O104 1.264 . S
C103 O111 1.249 . S
O104 C103 1.264 . S
O105 Mg98 1.986 . S
O105 C109 1.246 . S
O106 Mg101 2.032 . S
O106 C109 1.259 . S
O107 Mg98 2.114 . S
O107 C110 1.252 . S
O108 Mg98 2.251 . S
O108 Mg101 2.079 . S
O108 C110 1.273 . S
C109 O105 1.246 . S
C109 O106 1.259 . S
C110 O107 1.252 . S
C110 O108 1.273 . S
O111 Mg98 2.010 . S
O111 C103 1.249 . S
Mg112 O113 2.028 . S
Mg112 O119 1.986 1_554 S
Mg112 O121 2.114 . S
Mg112 O122 2.251 . S
Mg112 O125 2.010 . S
O113 Mg112 2.028 . S
O113 C116 1.250 . S
O114 Mg115 2.028 . S
O114 C116 1.248 . S
Mg115 O114 2.028 . S
Mg115 O120 2.032 1_554 S
Mg115 O122 2.079 . S
C116 O113 1.250 . S
C116 O114 1.248 . S
C117 O118 1.264 . S
C117 O125 1.249 . S
O118 C117 1.264 . S
O119 Mg112 1.986 1_556 S
O119 C123 1.246 . S
O120 Mg115 2.032 1_556 S
O120 C123 1.259 . S
O121 Mg112 2.114 . S
O121 C124 1.252 . S
O122 Mg112 2.251 . S
O122 Mg115 2.079 . S
O122 C124 1.273 . S
C123 O119 1.246 . S
C123 O120 1.259 . S
C124 O121 1.252 . S
C124 O122 1.273 . S
O125 Mg112 2.010 . S
O125 C117 1.249 . S
Mg126 O127 2.028 . S
Mg126 O133 1.986 . S
Mg126 O135 2.114 . S
Mg126 O136 2.251 . S
Mg126 O139 2.010 . S
O127 Mg126 2.028 . S
O127 C130 1.250 . S
O128 Mg129 2.028 . S
O128 C130 1.248 . S
Mg129 O128 2.028 . S
Mg129 O134 2.032 . S
Mg129 O136 2.079 . S
C130 O127 1.250 . S
C130 O128 1.248 . S
C131 O132 1.264 . S
C131 O139 1.249 . S
O132 C131 1.264 . S
O133 Mg126 1.986 . S
O133 C137 1.246 . S
O134 Mg129 2.032 . S
O134 C137 1.259 . S
O135 Mg126 2.114 . S
O135 C138 1.252 . S
O136 Mg126 2.251 . S
O136 Mg129 2.079 . S
O136 C138 1.273 . S
C137 O133 1.246 . S
C137 O134 1.259 . S
C138 O135 1.252 . S
C138 O136 1.273 . S
O139 Mg126 2.010 . S
O139 C131 1.249 . S
Mg140 O141 2.028 . S
Mg140 O147 1.986 . S
Mg140 O149 2.114 . S
Mg140 O150 2.251 . S
Mg140 O153 2.010 . S
O141 Mg140 2.028 . S
O141 C144 1.250 . S
O142 Mg143 2.028 . S
O142 C144 1.248 . S
Mg143 O142 2.028 . S
Mg143 O148 2.032 . S
Mg143 O150 2.079 . S
C144 O141 1.250 . S
C144 O142 1.248 . S
C145 O146 1.264 . S
C145 O153 1.249 . S
O146 C145 1.264 . S
O147 Mg140 1.986 . S
O147 C151 1.246 . S
O148 Mg143 2.032 . S
O148 C151 1.259 . S
O149 Mg140 2.114 . S
O149 C152 1.252 . S
O150 Mg140 2.251 . S
O150 Mg143 2.079 . S
O150 C152 1.273 . S
C151 O147 1.246 . S
C151 O148 1.259 . S
C152 O149 1.252 . S
C152 O150 1.273 . S
O153 Mg140 2.010 . S
O153 C145 1.249 . S
Mg154 O155 2.028 . S
Mg154 O161 1.986 . S
Mg154 O163 2.114 . S
Mg154 O164 2.251 . S
Mg154 O167 2.010 . S
O155 Mg154 2.028 . S
O155 C158 1.250 . S
O156 Mg157 2.028 . S
O156 C158 1.248 . S
Mg157 O156 2.028 . S
Mg157 O162 2.032 . S
Mg157 O164 2.079 . S
C158 O155 1.250 . S
C158 O156 1.248 . S
C159 O160 1.264 . S
C159 O167 1.249 . S
O160 C159 1.264 . S
O161 Mg154 1.986 . S
O161 C165 1.246 . S
O162 Mg157 2.032 . S
O162 C165 1.259 . S
O163 Mg154 2.114 . S
O163 C166 1.252 . S
O164 Mg154 2.251 . S
O164 Mg157 2.079 . S
O164 C166 1.273 . S
C165 O161 1.246 . S
C165 O162 1.259 . S
C166 O163 1.252 . S
C166 O164 1.273 . S
O167 Mg154 2.010 . S
O167 C159 1.249 . S
Mg168 O169 2.028 1_554 S
Mg168 O175 1.986 . S
Mg168 O177 2.114 1_554 S
Mg168 O178 2.251 . S
Mg168 O181 2.010 . S
O169 Mg168 2.028 1_556 S
O169 C172 1.250 . S
O170 Mg171 2.028 1_556 S
O170 C172 1.248 . S
Mg171 O170 2.028 1_554 S
Mg171 O176 2.032 . S
Mg171 O178 2.079 . S
C172 O169 1.250 . S
C172 O170 1.248 . S
C173 O174 1.264 . S
C173 O181 1.249 . S
O174 C173 1.264 . S
O175 Mg168 1.986 . S
O175 C179 1.246 . S
O176 Mg171 2.032 . S
O176 C179 1.259 . S
O177 Mg168 2.114 1_556 S
O177 C180 1.252 1_556 S
O178 Mg168 2.251 . S
O178 Mg171 2.079 . S
O178 C180 1.273 . S
C179 O175 1.246 . S
C179 O176 1.259 . S
C180 O177 1.252 1_554 S
C180 O178 1.273 . S
O181 Mg168 2.010 . S
O181 C173 1.249 . S
Mg182 O183 2.028 . S
Mg182 O189 1.986 . S
Mg182 O191 2.114 . S
Mg182 O192 2.251 . S
Mg182 O195 2.010 . S
O183 Mg182 2.028 . S
O183 C186 1.250 . S
O184 Mg185 2.028 . S
O184 C186 1.248 . S
Mg185 O184 2.028 . S
Mg185 O190 2.032 . S
Mg185 O192 2.079 . S
C186 O183 1.250 . S
C186 O184 1.248 . S
C187 O188 1.264 . S
C187 O195 1.249 . S
O188 C187 1.264 . S
O189 Mg182 1.986 . S
O189 C193 1.246 . S
O190 Mg185 2.032 . S
O190 C193 1.259 . S
O191 Mg182 2.114 . S
O191 C194 1.252 . S
O192 Mg182 2.251 . S
O192 Mg185 2.079 . S
O192 C194 1.273 . S
C193 O189 1.246 . S
C193 O190 1.259 . S
C194 O191 1.252 . S
C194 O192 1.273 . S
O195 Mg182 2.010 . S
O195 C187 1.249 . S
Mg196 O197 2.028 . S
Mg196 O203 1.986 . S
Mg196 O205 2.114 . S
Mg196 O206 2.251 . S
Mg196 O209 2.010 . S
O197 Mg196 2.028 . S
O197 C200 1.250 . S
O198 Mg199 2.028 . S
O198 C200 1.248 . S
Mg199 O198 2.028 . S
Mg199 O204 2.032 . S
Mg199 O206 2.079 . S
C200 O197 1.250 . S
C200 O198 1.248 . S
C201 O202 1.264 . S
C201 O209 1.249 . S
O202 C201 1.264 . S
O203 Mg196 1.986 . S
O203 C207 1.246 . S
O204 Mg199 2.032 . S
O204 C207 1.259 . S
O205 Mg196 2.114 . S
O205 C208 1.252 . S
O206 Mg196 2.251 . S
O206 Mg199 2.079 . S
O206 C208 1.273 . S
C207 O203 1.246 . S
C207 O204 1.259 . S
C208 O205 1.252 . S
C208 O206 1.273 . S
O209 Mg196 2.010 . S
O209 C201 1.249 . S
Mg210 O211 2.028 . S
Mg210 O217 1.986 . S
Mg210 O219 2.114 . S
Mg210 O220 2.251 . S
Mg210 O223 2.010 . S
O211 Mg210 2.028 . S
O211 C214 1.250 . S
O212 Mg213 2.028 . S
O212 C214 1.248 . S
Mg213 O212 2.028 . S
Mg213 O218 2.032 . S
Mg213 O220 2.079 . S
C214 O211 1.250 . S
C214 O212 1.248 . S
C215 O216 1.264 . S
C215 O223 1.249 . S
O216 C215 1.264 . S
O217 Mg210 1.986 . S
O217 C221 1.246 . S
O218 Mg213 2.032 . S
O218 C221 1.259 . S
O219 Mg210 2.114 . S
O219 C222 1.252 . S
O220 Mg210 2.251 . S
O220 Mg213 2.079 . S
O220 C222 1.273 . S
C221 O217 1.246 . S
C221 O218 1.259 . S
C222 O219 1.252 . S
C222 O220 1.273 . S
O223 Mg210 2.010 . S
O223 C215 1.249 . S
Mg224 O225 2.028 . S
Mg224 O231 1.986 . S
Mg224 O233 2.114 . S
Mg224 O234 2.251 . S
Mg224 O237 2.010 . S
O225 Mg224 2.028 . S
O225 C228 1.250 . S
O226 Mg227 2.028 . S
O226 C228 1.248 . S
Mg227 O226 2.028 . S
Mg227 O232 2.032 . S
Mg227 O234 2.079 . S
C228 O225 1.250 . S
C228 O226 1.248 . S
C229 O230 1.264 . S
C229 O237 1.249 . S
O230 C229 1.264 . S
O231 Mg224 1.986 . S
O231 C235 1.246 . S
O232 Mg227 2.032 . S
O232 C235 1.259 . S
O233 Mg224 2.114 . S
O233 C236 1.252 . S
O234 Mg224 2.251 . S
O234 Mg227 2.079 . S
O234 C236 1.273 . S
C235 O231 1.246 . S
C235 O232 1.259 . S
C236 O233 1.252 . S
C236 O234 1.273 . S
O237 Mg224 2.010 . S
O237 C229 1.249 . S
Mg238 O239 2.028 . S
Mg238 O245 1.986 . S
Mg238 O247 2.114 . S
Mg238 O248 2.251 . S
Mg238 O251 2.010 . S
O239 Mg238 2.028 . S
O239 C242 1.250 . S
O240 Mg241 2.028 . S
O240 C242 1.248 . S
Mg241 O240 2.028 . S
Mg241 O246 2.032 . S
Mg241 O248 2.079 . S
C242 O239 1.250 . S
C242 O240 1.248 . S
C243 O244 1.264 . S
C243 O251 1.249 . S
O244 C243 1.264 . S
O245 Mg238 1.986 . S
O245 C249 1.246 . S
O246 Mg241 2.032 . S
O246 C249 1.259 . S
O247 Mg238 2.114 . S
O247 C250 1.252 . S
O248 Mg238 2.251 . S
O248 Mg241 2.079 . S
O248 C250 1.273 . S
C249 O245 1.246 . S
C249 O246 1.259 . S
C250 O247 1.252 . S
C250 O248 1.273 . S
O251 Mg238 2.010 . S
O251 C243 1.249 . S
Mg252 O253 2.028 1_554 S
Mg252 O259 1.986 . S
Mg252 O261 2.114 1_554 S
Mg252 O262 2.251 . S
Mg252 O265 2.010 . S
O253 Mg252 2.028 1_556 S
O253 C256 1.250 . S
O254 Mg255 2.028 1_556 S
O254 C256 1.248 . S
Mg255 O254 2.028 1_554 S
Mg255 O260 2.032 . S
Mg255 O262 2.079 . S
C256 O253 1.250 . S
C256 O254 1.248 . S
C257 O258 1.264 . S
C257 O265 1.249 . S
O258 C257 1.264 . S
O259 Mg252 1.986 . S
O259 C263 1.246 . S
O260 Mg255 2.032 . S
O260 C263 1.259 . S
O261 Mg252 2.114 1_556 S
O261 C264 1.252 1_556 S
O262 Mg252 2.251 . S
O262 Mg255 2.079 . S
O262 C264 1.273 . S
C263 O259 1.246 . S
C263 O260 1.259 . S
C264 O261 1.252 1_554 S
C264 O262 1.273 . S
O265 Mg252 2.010 . S
O265 C257 1.249 . S
Mg266 O267 2.028 . S
Mg266 O273 1.986 . S
Mg266 O275 2.114 . S
Mg266 O276 2.251 . S
Mg266 O279 2.010 . S
O267 Mg266 2.028 . S
O267 C270 1.250 . S
O268 Mg269 2.028 . S
O268 C270 1.248 . S
Mg269 O268 2.028 . S
Mg269 O274 2.032 . S
Mg269 O276 2.079 . S
C270 O267 1.250 . S
C270 O268 1.248 . S
C271 O272 1.264 . S
C271 O279 1.249 . S
O272 C271 1.264 . S
O273 Mg266 1.986 . S
O273 C277 1.246 . S
O274 Mg269 2.032 . S
O274 C277 1.259 . S
O275 Mg266 2.114 . S
O275 C278 1.252 . S
O276 Mg266 2.251 . S
O276 Mg269 2.079 . S
O276 C278 1.273 . S
C277 O273 1.246 . S
C277 O274 1.259 . S
C278 O275 1.252 . S
C278 O276 1.273 . S
O279 Mg266 2.010 . S
O279 C271 1.249 . S
Mg280 O281 2.028 . S
Mg280 O287 1.986 . S
Mg280 O289 2.114 . S
Mg280 O290 2.251 . S
Mg280 O293 2.010 . S
O281 Mg280 2.028 . S
O281 C284 1.250 . S
O282 Mg283 2.028 . S
O282 C284 1.248 . S
Mg283 O282 2.028 . S
Mg283 O288 2.032 . S
Mg283 O290 2.079 . S
C284 O281 1.250 . S
C284 O282 1.248 . S
C285 O286 1.264 . S
C285 O293 1.249 . S
O286 C285 1.264 . S
O287 Mg280 1.986 . S
O287 C291 1.246 . S
O288 Mg283 2.032 . S
O288 C291 1.259 . S
O289 Mg280 2.114 . S
O289 C292 1.252 . S
O290 Mg280 2.251 . S
O290 Mg283 2.079 . S
O290 C292 1.273 . S
C291 O287 1.246 . S
C291 O288 1.259 . S
C292 O289 1.252 . S
C292 O290 1.273 . S
O293 Mg280 2.010 . S
O293 C285 1.249 . S
Mg294 O295 2.028 . S
Mg294 O301 1.986 . S
Mg294 O303 2.114 . S
Mg294 O304 2.251 . S
Mg294 O307 2.010 . S
O295 Mg294 2.028 . S
O295 C298 1.250 . S
O296 Mg297 2.028 . S
O296 C298 1.248 . S
Mg297 O296 2.028 . S
Mg297 O302 2.032 . S
Mg297 O304 2.079 . S
C298 O295 1.250 . S
C298 O296 1.248 . S
C299 O300 1.264 . S
C299 O307 1.249 . S
O300 C299 1.264 . S
O301 Mg294 1.986 . S
O301 C305 1.246 . S
O302 Mg297 2.032 . S
O302 C305 1.259 . S
O303 Mg294 2.114 . S
O303 C306 1.252 . S
O304 Mg294 2.251 . S
O304 Mg297 2.079 . S
O304 C306 1.273 . S
C305 O301 1.246 . S
C305 O302 1.259 . S
C306 O303 1.252 . S
C306 O304 1.273 . S
O307 Mg294 2.010 . S
O307 C299 1.249 . S
Mg308 O309 2.028 . S
Mg308 O315 1.986 1_554 S
Mg308 O317 2.114 . S
Mg308 O318 2.251 . S
Mg308 O321 2.010 . S
O309 Mg308 2.028 . S
O309 C312 1.250 . S
O310 Mg311 2.028 . S
O310 C312 1.248 . S
Mg311 O310 2.028 . S
Mg311 O316 2.032 1_554 S
Mg311 O318 2.079 . S
C312 O309 1.250 . S
C312 O310 1.248 . S
C313 O314 1.264 . S
C313 O321 1.249 . S
O314 C313 1.264 . S
O315 Mg308 1.986 1_556 S
O315 C319 1.246 . S
O316 Mg311 2.032 1_556 S
O316 C319 1.259 . S
O317 Mg308 2.114 . S
O317 C320 1.252 . S
O318 Mg308 2.251 . S
O318 Mg311 2.079 . S
O318 C320 1.273 . S
C319 O315 1.246 . S
C319 O316 1.259 . S
C320 O317 1.252 . S
C320 O318 1.273 . S
O321 Mg308 2.010 . S
O321 C313 1.249 . S
Mg322 O323 2.028 . S
Mg322 O329 1.986 . S
Mg322 O331 2.114 . S
Mg322 O332 2.251 . S
Mg322 O335 2.010 . S
O323 Mg322 2.028 . S
O323 C326 1.250 . S
O324 Mg325 2.028 . S
O324 C326 1.248 . S
Mg325 O324 2.028 . S
Mg325 O330 2.032 . S
Mg325 O332 2.079 . S
C326 O323 1.250 . S
C326 O324 1.248 . S
C327 O328 1.264 . S
C327 O335 1.249 . S
O328 C327 1.264 . S
O329 Mg322 1.986 . S
O329 C333 1.246 . S
O330 Mg325 2.032 . S
O330 C333 1.259 . S
O331 Mg322 2.114 . S
O331 C334 1.252 . S
O332 Mg322 2.251 . S
O332 Mg325 2.079 . S
O332 C334 1.273 . S
C333 O329 1.246 . S
C333 O330 1.259 . S
C334 O331 1.252 . S
C334 O332 1.273 . S
O335 Mg322 2.010 . S
O335 C327 1.249 . S
Mg336 O337 2.028 . S
Mg336 O343 1.986 . S
Mg336 O345 2.114 . S
Mg336 O346 2.251 . S
Mg336 O349 2.010 . S
O337 Mg336 2.028 . S
O337 C340 1.250 . S
O338 Mg339 2.028 . S
O338 C340 1.248 . S
Mg339 O338 2.028 . S
Mg339 O344 2.032 . S
Mg339 O346 2.079 . S
C340 O337 1.250 . S
C340 O338 1.248 . S
C341 O342 1.264 . S
C341 O349 1.249 . S
O342 C341 1.264 . S
O343 Mg336 1.986 . S
O343 C347 1.246 . S
O344 Mg339 2.032 . S
O344 C347 1.259 . S
O345 Mg336 2.114 . S
O345 C348 1.252 . S
O346 Mg336 2.251 . S
O346 Mg339 2.079 . S
O346 C348 1.273 . S
C347 O343 1.246 . S
C347 O344 1.259 . S
C348 O345 1.252 . S
C348 O346 1.273 . S
O349 Mg336 2.010 . S
O349 C341 1.249 . S
Mg350 O351 2.028 . S
Mg350 O357 1.986 . S
Mg350 O359 2.114 . S
Mg350 O360 2.251 . S
Mg350 O363 2.010 . S
O351 Mg350 2.028 . S
O351 C354 1.250 . S
O352 Mg353 2.028 . S
O352 C354 1.248 . S
Mg353 O352 2.028 . S
Mg353 O358 2.032 . S
Mg353 O360 2.079 . S
C354 O351 1.250 . S
C354 O352 1.248 . S
C355 O356 1.264 . S
C355 O363 1.249 . S
O356 C355 1.264 . S
O357 Mg350 1.986 . S
O357 C361 1.246 . S
O358 Mg353 2.032 . S
O358 C361 1.259 . S
O359 Mg350 2.114 . S
O359 C362 1.252 . S
O360 Mg350 2.251 . S
O360 Mg353 2.079 . S
O360 C362 1.273 . S
C361 O357 1.246 . S
C361 O358 1.259 . S
C362 O359 1.252 . S
C362 O360 1.273 . S
O363 Mg350 2.010 . S
O363 C355 1.249 . S
Mg364 O365 2.028 . S
Mg364 O371 1.986 1_554 S
Mg364 O373 2.114 . S
Mg364 O374 2.251 . S
Mg364 O377 2.010 . S
O365 Mg364 2.028 . S
O365 C368 1.250 . S
O366 Mg367 2.028 . S
O366 C368 1.248 . S
Mg367 O366 2.028 . S
Mg367 O372 2.032 1_554 S
Mg367 O374 2.079 . S
C368 O365 1.250 . S
C368 O366 1.248 . S
C369 O370 1.264 . S
C369 O377 1.249 . S
O370 C369 1.264 . S
O371 Mg364 1.986 1_556 S
O371 C375 1.246 . S
O372 Mg367 2.032 1_556 S
O372 C375 1.259 . S
O373 Mg364 2.114 . S
O373 C376 1.252 . S
O374 Mg364 2.251 . S
O374 Mg367 2.079 . S
O374 C376 1.273 . S
C375 O371 1.246 . S
C375 O372 1.259 . S
C376 O373 1.252 . S
C376 O374 1.273 . S
O377 Mg364 2.010 . S
O377 C369 1.249 . S
Mg378 O379 2.028 . S
Mg378 O385 1.986 . S
Mg378 O387 2.114 . S
Mg378 O388 2.251 . S
Mg378 O391 2.010 . S
O379 Mg378 2.028 . S
O379 C382 1.250 . S
O380 Mg381 2.028 . S
O380 C382 1.248 . S
Mg381 O380 2.028 . S
Mg381 O386 2.032 . S
Mg381 O388 2.079 . S
C382 O379 1.250 . S
C382 O380 1.248 . S
C383 O384 1.264 . S
C383 O391 1.249 . S
O384 C383 1.264 . S
O385 Mg378 1.986 . S
O385 C389 1.246 . S
O386 Mg381 2.032 . S
O386 C389 1.259 . S
O387 Mg378 2.114 . S
O387 C390 1.252 . S
O388 Mg378 2.251 . S
O388 Mg381 2.079 . S
O388 C390 1.273 . S
C389 O385 1.246 . S
C389 O386 1.259 . S
C390 O387 1.252 . S
C390 O388 1.273 . S
O391 Mg378 2.010 . S
O391 C383 1.249 . S
Mg392 O393 2.028 . S
Mg392 O399 1.986 . S
Mg392 O401 2.114 . S
Mg392 O402 2.251 . S
Mg392 O405 2.010 . S
O393 Mg392 2.028 . S
O393 C396 1.250 . S
O394 Mg395 2.028 . S
O394 C396 1.248 . S
Mg395 O394 2.028 . S
Mg395 O400 2.032 . S
Mg395 O402 2.079 . S
C396 O393 1.250 . S
C396 O394 1.248 . S
C397 O398 1.264 . S
C397 O405 1.249 . S
O398 C397 1.264 . S
O399 Mg392 1.986 . S
O399 C403 1.246 . S
O400 Mg395 2.032 . S
O400 C403 1.259 . S
O401 Mg392 2.114 . S
O401 C404 1.252 . S
O402 Mg392 2.251 . S
O402 Mg395 2.079 . S
O402 C404 1.273 . S
C403 O399 1.246 . S
C403 O400 1.259 . S
C404 O401 1.252 . S
C404 O402 1.273 . S
O405 Mg392 2.010 . S
O405 C397 1.249 . S
Mg406 O407 2.028 . S
Mg406 O413 1.986 . S
Mg406 O415 2.114 . S
Mg406 O416 2.251 . S
Mg406 O419 2.010 . S
O407 Mg406 2.028 . S
O407 C410 1.250 . S
O408 Mg409 2.028 . S
O408 C410 1.248 . S
Mg409 O408 2.028 . S
Mg409 O414 2.032 . S
Mg409 O416 2.079 . S
C410 O407 1.250 . S
C410 O408 1.248 . S
C411 O412 1.264 . S
C411 O419 1.249 . S
O412 C411 1.264 . S
O413 Mg406 1.986 . S
O413 C417 1.246 . S
O414 Mg409 2.032 . S
O414 C417 1.259 . S
O415 Mg406 2.114 . S
O415 C418 1.252 . S
O416 Mg406 2.251 . S
O416 Mg409 2.079 . S
O416 C418 1.273 . S
C417 O413 1.246 . S
C417 O414 1.259 . S
C418 O415 1.252 . S
C418 O416 1.273 . S
O419 Mg406 2.010 . S
O419 C411 1.249 . S
Mg420 O421 2.028 1_554 S
Mg420 O427 1.986 . S
Mg420 O429 2.114 1_554 S
Mg420 O430 2.251 . S
Mg420 O433 2.010 . S
O421 Mg420 2.028 1_556 S
O421 C424 1.250 . S
O422 Mg423 2.028 1_556 S
O422 C424 1.248 . S
Mg423 O422 2.028 1_554 S
Mg423 O428 2.032 . S
Mg423 O430 2.079 . S
C424 O421 1.250 . S
C424 O422 1.248 . S
C425 O426 1.264 . S
C425 O433 1.249 . S
O426 C425 1.264 . S
O427 Mg420 1.986 . S
O427 C431 1.246 . S
O428 Mg423 2.032 . S
O428 C431 1.259 . S
O429 Mg420 2.114 1_556 S
O429 C432 1.252 1_556 S
O430 Mg420 2.251 . S
O430 Mg423 2.079 . S
O430 C432 1.273 . S
C431 O427 1.246 . S
C431 O428 1.259 . S
C432 O429 1.252 1_554 S
C432 O430 1.273 . S
O433 Mg420 2.010 . S
O433 C425 1.249 . S
Mg434 O435 2.028 . S
Mg434 O441 1.986 . S
Mg434 O443 2.114 . S
Mg434 O444 2.251 . S
Mg434 O447 2.010 . S
O435 Mg434 2.028 . S
O435 C438 1.250 . S
O436 Mg437 2.028 . S
O436 C438 1.248 . S
Mg437 O436 2.028 . S
Mg437 O442 2.032 . S
Mg437 O444 2.079 . S
C438 O435 1.250 . S
C438 O436 1.248 . S
C439 O440 1.264 . S
C439 O447 1.249 . S
O440 C439 1.264 . S
O441 Mg434 1.986 . S
O441 C445 1.246 . S
O442 Mg437 2.032 . S
O442 C445 1.259 . S
O443 Mg434 2.114 . S
O443 C446 1.252 . S
O444 Mg434 2.251 . S
O444 Mg437 2.079 . S
O444 C446 1.273 . S
C445 O441 1.246 . S
C445 O442 1.259 . S
C446 O443 1.252 . S
C446 O444 1.273 . S
O447 Mg434 2.010 . S
O447 C439 1.249 . S
H448 C460 0.930 . S
H449 C462 0.930 . S
H450 C463 0.930 . S
H451 C467 0.959 . S
H452 C467 0.959 . S
H453 C467 0.961 . S
H454 C468 0.960 . S
H455 C468 0.961 1_554 S
H456 C468 0.959 . S
H457 C471 0.929 . S
H458 C472 0.931 . S
H459 C474 0.930 1_554 S
C460 H448 0.930 . S
C460 C461 1.399 . S
C460 C465 1.399 . S
C461 C460 1.399 . S
C461 C462 1.376 . S
C462 H449 0.930 . S
C462 C461 1.376 . S
C462 C463 1.388 . S
C463 H450 0.930 . S
C463 C462 1.388 . S
C463 C464 1.390 . S
C464 C463 1.390 . S
C464 C465 1.394 . S
C464 C470 1.465 . S
C465 C460 1.399 . S
C465 C464 1.394 . S
C465 C466 1.516 . S
C466 C465 1.516 . S
C466 C467 1.502 1_556 S
C466 C468 1.561 . S
C466 C469 1.526 . S
C467 H451 0.959 . S
C467 H452 0.959 . S
C467 H453 0.961 . S
C467 C466 1.502 1_554 S
C468 H454 0.960 . S
C468 H455 0.961 1_556 S
C468 H456 0.959 . S
C468 C466 1.561 . S
C469 C466 1.526 . S
C469 C470 1.396 . S
C469 C474 1.390 . S
C470 C464 1.465 . S
C470 C469 1.396 . S
C470 C471 1.399 . S
C471 H457 0.929 . S
C471 C470 1.399 . S
C471 C472 1.385 . S
C472 H458 0.931 . S
C472 C471 1.385 . S
C472 C473 1.389 . S
C473 C472 1.389 . S
C473 C474 1.387 . S
C474 H459 0.930 1_556 S
C474 C469 1.390 . S
C474 C473 1.387 . S
H475 C487 0.930 . S
H476 C489 0.930 . S
H477 C490 0.930 . S
H478 C494 0.959 . S
H479 C494 0.959 . S
H480 C494 0.961 . S
H481 C495 0.960 . S
H482 C495 0.961 . S
H483 C495 0.959 . S
H484 C498 0.929 . S
H485 C499 0.931 . S
H486 C501 0.930 . S
C487 H475 0.930 . S
C487 C488 1.399 . S
C487 C492 1.399 . S
C488 C487 1.399 . S
C488 C489 1.376 . S
C489 H476 0.930 . S
C489 C488 1.376 . S
C489 C490 1.388 . S
C490 H477 0.930 . S
C490 C489 1.388 . S
C490 C491 1.390 . S
C491 C490 1.390 . S
C491 C492 1.394 . S
C491 C497 1.465 . S
C492 C487 1.399 . S
C492 C491 1.394 . S
C492 C493 1.516 . S
C493 C492 1.516 . S
C493 C494 1.502 . S
C493 C495 1.561 . S
C493 C496 1.526 . S
C494 H478 0.959 . S
C494 H479 0.959 . S
C494 H480 0.961 . S
C494 C493 1.502 . S
C495 H481 0.960 . S
C495 H482 0.961 . S
C495 H483 0.959 . S
C495 C493 1.561 . S
C496 C493 1.526 . S
C496 C497 1.396 . S
C496 C501 1.390 . S
C497 C491 1.465 . S
C497 C496 1.396 . S
C497 C498 1.399 . S
C498 H484 0.929 . S
C498 C497 1.399 . S
C498 C499 1.385 . S
C499 H485 0.931 . S
C499 C498 1.385 . S
C499 C500 1.389 . S
C500 C499 1.389 . S
C500 C501 1.387 . S
C501 H486 0.930 . S
C501 C496 1.390 . S
C501 C500 1.387 . S
H502 C514 0.930 . S
H503 C516 0.930 . S
H504 C517 0.930 . S
H505 C521 0.959 . S
H506 C521 0.959 . S
H507 C521 0.961 . S
H508 C522 0.960 . S
H509 C522 0.961 . S
H510 C522 0.959 . S
H511 C525 0.929 . S
H512 C526 0.931 . S
H513 C528 0.930 . S
C514 H502 0.930 . S
C514 C515 1.399 . S
C514 C519 1.399 . S
C515 C514 1.399 . S
C515 C516 1.376 . S
C516 H503 0.930 . S
C516 C515 1.376 . S
C516 C517 1.388 . S
C517 H504 0.930 . S
C517 C516 1.388 . S
C517 C518 1.390 . S
C518 C517 1.390 . S
C518 C519 1.394 . S
C518 C524 1.465 . S
C519 C514 1.399 . S
C519 C518 1.394 . S
C519 C520 1.516 . S
C520 C519 1.516 . S
C520 C521 1.502 . S
C520 C522 1.561 . S
C520 C523 1.526 . S
C521 H505 0.959 . S
C521 H506 0.959 . S
C521 H507 0.961 . S
C521 C520 1.502 . S
C522 H508 0.960 . S
C522 H509 0.961 . S
C522 H510 0.959 . S
C522 C520 1.561 . S
C523 C520 1.526 . S
C523 C524 1.396 . S
C523 C528 1.390 . S
C524 C518 1.465 . S
C524 C523 1.396 . S
C524 C525 1.399 . S
C525 H511 0.929 . S
C525 C524 1.399 . S
C525 C526 1.385 . S
C526 H512 0.931 . S
C526 C525 1.385 . S
C526 C527 1.389 . S
C527 C526 1.389 . S
C527 C528 1.387 . S
C528 H513 0.930 . S
C528 C523 1.390 . S
C528 C527 1.387 . S
H529 C541 0.930 . S
H530 C543 0.930 . S
H531 C544 0.930 . S
H532 C548 0.959 . S
H533 C548 0.959 . S
H534 C548 0.961 . S
H535 C549 0.960 . S
H536 C549 0.961 . S
H537 C549 0.959 . S
H538 C552 0.929 . S
H539 C553 0.931 . S
H540 C555 0.930 . S
C541 H529 0.930 . S
C541 C542 1.399 . S
C541 C546 1.399 . S
C542 C541 1.399 . S
C542 C543 1.376 . S
C543 H530 0.930 . S
C543 C542 1.376 . S
C543 C544 1.388 . S
C544 H531 0.930 . S
C544 C543 1.388 . S
C544 C545 1.390 . S
C545 C544 1.390 . S
C545 C546 1.394 . S
C545 C551 1.465 . S
C546 C541 1.399 . S
C546 C545 1.394 . S
C546 C547 1.516 . S
C547 C546 1.516 . S
C547 C548 1.502 . S
C547 C549 1.561 . S
C547 C550 1.526 . S
C548 H532 0.959 . S
C548 H533 0.959 . S
C548 H534 0.961 . S
C548 C547 1.502 . S
C549 H535 0.960 . S
C549 H536 0.961 . S
C549 H537 0.959 . S
C549 C547 1.561 . S
C550 C547 1.526 . S
C550 C551 1.396 . S
C550 C555 1.390 . S
C551 C545 1.465 . S
C551 C550 1.396 . S
C551 C552 1.399 . S
C552 H538 0.929 . S
C552 C551 1.399 . S
C552 C553 1.385 . S
C553 H539 0.931 . S
C553 C552 1.385 . S
C553 C554 1.389 . S
C554 C553 1.389 . S
C554 C555 1.387 . S
C555 H540 0.930 . S
C555 C550 1.390 . S
C555 C554 1.387 . S
H556 C568 0.930 . S
H557 C570 0.930 . S
H558 C571 0.930 . S
H559 C575 0.959 . S
H560 C575 0.959 . S
H561 C575 0.961 . S
H562 C576 0.960 . S
H563 C576 0.961 . S
H564 C576 0.959 . S
H565 C579 0.929 . S
H566 C580 0.931 . S
H567 C582 0.930 . S
C568 H556 0.930 . S
C568 C569 1.399 . S
C568 C573 1.399 . S
C569 C568 1.399 . S
C569 C570 1.376 . S
C570 H557 0.930 . S
C570 C569 1.376 . S
C570 C571 1.388 . S
C571 H558 0.930 . S
C571 C570 1.388 . S
C571 C572 1.390 . S
C572 C571 1.390 . S
C572 C573 1.394 . S
C572 C578 1.465 . S
C573 C568 1.399 . S
C573 C572 1.394 . S
C573 C574 1.516 . S
C574 C573 1.516 . S
C574 C575 1.502 . S
C574 C576 1.561 . S
C574 C577 1.526 . S
C575 H559 0.959 . S
C575 H560 0.959 . S
C575 H561 0.961 . S
C575 C574 1.502 . S
C576 H562 0.960 . S
C576 H563 0.961 . S
C576 H564 0.959 . S
C576 C574 1.561 . S
C577 C574 1.526 . S
C577 C578 1.396 . S
C577 C582 1.390 . S
C578 C572 1.465 . S
C578 C577 1.396 . S
C578 C579 1.399 . S
C579 H565 0.929 . S
C579 C578 1.399 . S
C579 C580 1.385 . S
C580 H566 0.931 . S
C580 C579 1.385 . S
C580 C581 1.389 . S
C581 C580 1.389 . S
C581 C582 1.387 . S
C582 H567 0.930 . S
C582 C577 1.390 . S
C582 C581 1.387 . S
H583 C595 0.930 . S
H584 C597 0.930 . S
H585 C598 0.930 . S
H586 C602 0.959 . S
H587 C602 0.959 . S
H588 C602 0.961 . S
H589 C603 0.960 . S
H590 C603 0.961 . S
H591 C603 0.959 . S
H592 C606 0.929 . S
H593 C607 0.931 . S
H594 C609 0.930 1_554 S
C595 H583 0.930 . S
C595 C596 1.399 . S
C595 C600 1.399 . S
C596 C595 1.399 . S
C596 C597 1.376 . S
C597 H584 0.930 . S
C597 C596 1.376 . S
C597 C598 1.388 . S
C598 H585 0.930 . S
C598 C597 1.388 . S
C598 C599 1.390 . S
C599 C598 1.390 . S
C599 C600 1.394 . S
C599 C605 1.465 . S
C600 C595 1.399 . S
C600 C599 1.394 . S
C600 C601 1.516 . S
C601 C600 1.516 . S
C601 C602 1.502 1_556 S
C601 C603 1.561 . S
C601 C604 1.526 . S
C602 H586 0.959 . S
C602 H587 0.959 . S
C602 H588 0.961 . S
C602 C601 1.502 1_554 S
C603 H589 0.960 . S
C603 H590 0.961 . S
C603 H591 0.959 . S
C603 C601 1.561 . S
C604 C601 1.526 . S
C604 C605 1.396 . S
C604 C609 1.390 . S
C605 C599 1.465 . S
C605 C604 1.396 . S
C605 C606 1.399 . S
C606 H592 0.929 . S
C606 C605 1.399 . S
C606 C607 1.385 . S
C607 H593 0.931 . S
C607 C606 1.385 . S
C607 C608 1.389 . S
C608 C607 1.389 . S
C608 C609 1.387 . S
C609 H594 0.930 1_556 S
C609 C604 1.390 . S
C609 C608 1.387 . S
H610 C622 0.930 . S
H611 C624 0.930 . S
H612 C625 0.930 . S
H613 C629 0.959 . S
H614 C629 0.959 . S
H615 C629 0.961 . S
H616 C630 0.960 . S
H617 C630 0.961 . S
H618 C630 0.959 . S
H619 C633 0.929 . S
H620 C634 0.931 . S
H621 C636 0.930 . S
C622 H610 0.930 . S
C622 C623 1.399 . S
C622 C627 1.399 . S
C623 C622 1.399 . S
C623 C624 1.376 . S
C624 H611 0.930 . S
C624 C623 1.376 . S
C624 C625 1.388 . S
C625 H612 0.930 . S
C625 C624 1.388 . S
C625 C626 1.390 . S
C626 C625 1.390 . S
C626 C627 1.394 . S
C626 C632 1.465 . S
C627 C622 1.399 . S
C627 C626 1.394 . S
C627 C628 1.516 . S
C628 C627 1.516 . S
C628 C629 1.502 . S
C628 C630 1.561 . S
C628 C631 1.526 . S
C629 H613 0.959 . S
C629 H614 0.959 . S
C629 H615 0.961 . S
C629 C628 1.502 . S
C630 H616 0.960 . S
C630 H617 0.961 . S
C630 H618 0.959 . S
C630 C628 1.561 . S
C631 C628 1.526 . S
C631 C632 1.396 . S
C631 C636 1.390 . S
C632 C626 1.465 . S
C632 C631 1.396 . S
C632 C633 1.399 . S
C633 H619 0.929 . S
C633 C632 1.399 . S
C633 C634 1.385 . S
C634 H620 0.931 . S
C634 C633 1.385 . S
C634 C635 1.389 . S
C635 C634 1.389 . S
C635 C636 1.387 . S
C636 H621 0.930 . S
C636 C631 1.390 . S
C636 C635 1.387 . S
H637 C649 0.930 . S
H638 C651 0.930 . S
H639 C652 0.930 . S
H640 C656 0.959 . S
H641 C656 0.959 . S
H642 C656 0.961 . S
H643 C657 0.960 . S
H644 C657 0.961 . S
H645 C657 0.959 . S
H646 C660 0.929 . S
H647 C661 0.931 . S
H648 C663 0.930 . S
C649 H637 0.930 . S
C649 C650 1.399 . S
C649 C654 1.399 . S
C650 C649 1.399 . S
C650 C651 1.376 . S
C651 H638 0.930 . S
C651 C650 1.376 . S
C651 C652 1.388 . S
C652 H639 0.930 . S
C652 C651 1.388 . S
C652 C653 1.390 . S
C653 C652 1.390 . S
C653 C654 1.394 . S
C653 C659 1.465 . S
C654 C649 1.399 . S
C654 C653 1.394 . S
C654 C655 1.516 . S
C655 C654 1.516 . S
C655 C656 1.502 . S
C655 C657 1.561 . S
C655 C658 1.526 . S
C656 H640 0.959 . S
C656 H641 0.959 . S
C656 H642 0.961 . S
C656 C655 1.502 . S
C657 H643 0.960 . S
C657 H644 0.961 . S
C657 H645 0.959 . S
C657 C655 1.561 . S
C658 C655 1.526 . S
C658 C659 1.396 . S
C658 C663 1.390 . S
C659 C653 1.465 . S
C659 C658 1.396 . S
C659 C660 1.399 . S
C660 H646 0.929 . S
C660 C659 1.399 . S
C660 C661 1.385 . S
C661 H647 0.931 . S
C661 C660 1.385 . S
C661 C662 1.389 . S
C662 C661 1.389 . S
C662 C663 1.387 . S
C663 H648 0.930 . S
C663 C658 1.390 . S
C663 C662 1.387 . S
H664 C676 0.930 . S
H665 C678 0.930 . S
H666 C679 0.930 . S
H667 C683 0.959 . S
H668 C683 0.959 . S
H669 C683 0.961 . S
H670 C684 0.960 . S
H671 C684 0.961 . S
H672 C684 0.959 . S
H673 C687 0.929 . S
H674 C688 0.931 . S
H675 C690 0.930 . S
C676 H664 0.930 . S
C676 C677 1.399 . S
C676 C681 1.399 . S
C677 C676 1.399 . S
C677 C678 1.376 . S
C678 H665 0.930 . S
C678 C677 1.376 . S
C678 C679 1.388 . S
C679 H666 0.930 . S
C679 C678 1.388 . S
C679 C680 1.390 . S
C680 C679 1.390 . S
C680 C681 1.394 . S
C680 C686 1.465 . S
C681 C676 1.399 . S
C681 C680 1.394 . S
C681 C682 1.516 . S
C682 C681 1.516 . S
C682 C683 1.502 . S
C682 C684 1.561 . S
C682 C685 1.526 . S
C683 H667 0.959 . S
C683 H668 0.959 . S
C683 H669 0.961 . S
C683 C682 1.502 . S
C684 H670 0.960 . S
C684 H671 0.961 . S
C684 H672 0.959 . S
C684 C682 1.561 . S
C685 C682 1.526 . S
C685 C686 1.396 . S
C685 C690 1.390 . S
C686 C680 1.465 . S
C686 C685 1.396 . S
C686 C687 1.399 . S
C687 H673 0.929 . S
C687 C686 1.399 . S
C687 C688 1.385 . S
C688 H674 0.931 . S
C688 C687 1.385 . S
C688 C689 1.389 . S
C689 C688 1.389 . S
C689 C690 1.387 . S
C690 H675 0.930 . S
C690 C685 1.390 . S
C690 C689 1.387 . S
H691 C703 0.930 . S
H692 C705 0.930 . S
H693 C706 0.930 . S
H694 C710 0.959 . S
H695 C710 0.959 . S
H696 C710 0.961 . S
H697 C711 0.960 . S
H698 C711 0.961 . S
H699 C711 0.959 . S
H700 C714 0.929 . S
H701 C715 0.931 . S
H702 C717 0.930 . S
C703 H691 0.930 . S
C703 C704 1.399 . S
C703 C708 1.399 . S
C704 C703 1.399 . S
C704 C705 1.376 . S
C705 H692 0.930 . S
C705 C704 1.376 . S
C705 C706 1.388 . S
C706 H693 0.930 . S
C706 C705 1.388 . S
C706 C707 1.390 . S
C707 C706 1.390 . S
C707 C708 1.394 . S
C707 C713 1.465 . S
C708 C703 1.399 . S
C708 C707 1.394 . S
C708 C709 1.516 . S
C709 C708 1.516 . S
C709 C710 1.502 . S
C709 C711 1.561 . S
C709 C712 1.526 . S
C710 H694 0.959 . S
C710 H695 0.959 . S
C710 H696 0.961 . S
C710 C709 1.502 . S
C711 H697 0.960 . S
C711 H698 0.961 . S
C711 H699 0.959 . S
C711 C709 1.561 . S
C712 C709 1.526 . S
C712 C713 1.396 . S
C712 C717 1.390 . S
C713 C707 1.465 . S
C713 C712 1.396 . S
C713 C714 1.399 . S
C714 H700 0.929 . S
C714 C713 1.399 . S
C714 C715 1.385 . S
C715 H701 0.931 . S
C715 C714 1.385 . S
C715 C716 1.389 . S
C716 C715 1.389 . S
C716 C717 1.387 . S
C717 H702 0.930 . S
C717 C712 1.390 . S
C717 C716 1.387 . S
H718 C730 0.930 . S
H719 C732 0.930 . S
H720 C733 0.930 . S
H721 C737 0.959 1_556 S
H722 C737 0.959 . S
H723 C737 0.961 . S
H724 C738 0.960 . S
H725 C738 0.961 . S
H726 C738 0.959 . S
H727 C741 0.929 . S
H728 C742 0.931 . S
H729 C744 0.930 1_554 S
C730 H718 0.930 . S
C730 C731 1.399 . S
C730 C735 1.399 . S
C731 C730 1.399 . S
C731 C732 1.376 . S
C732 H719 0.930 . S
C732 C731 1.376 . S
C732 C733 1.388 . S
C733 H720 0.930 . S
C733 C732 1.388 . S
C733 C734 1.390 . S
C734 C733 1.390 . S
C734 C735 1.394 . S
C734 C740 1.465 . S
C735 C730 1.399 . S
C735 C734 1.394 . S
C735 C736 1.516 . S
C736 C735 1.516 . S
C736 C737 1.502 1_556 S
C736 C738 1.561 1_556 S
C736 C739 1.526 . S
C737 H721 0.959 1_554 S
C737 H722 0.959 . S
C737 H723 0.961 . S
C737 C736 1.502 1_554 S
C738 H724 0.960 . S
C738 H725 0.961 . S
C738 H726 0.959 . S
C738 C736 1.561 1_554 S
C739 C736 1.526 . S
C739 C740 1.396 . S
C739 C744 1.390 . S
C740 C734 1.465 . S
C740 C739 1.396 . S
C740 C741 1.399 . S
C741 H727 0.929 . S
C741 C740 1.399 . S
C741 C742 1.385 . S
C742 H728 0.931 . S
C742 C741 1.385 . S
C742 C743 1.389 . S
C743 C742 1.389 . S
C743 C744 1.387 . S
C744 H729 0.930 1_556 S
C744 C739 1.390 . S
C744 C743 1.387 . S
H745 C757 0.930 . S
H746 C759 0.930 . S
H747 C760 0.930 . S
H748 C764 0.959 . S
H749 C764 0.959 . S
H750 C764 0.961 . S
H751 C765 0.960 . S
H752 C765 0.961 . S
H753 C765 0.959 . S
H754 C768 0.929 . S
H755 C769 0.931 . S
H756 C771 0.930 . S
C757 H745 0.930 . S
C757 C758 1.399 . S
C757 C762 1.399 . S
C758 C757 1.399 . S
C758 C759 1.376 . S
C759 H746 0.930 . S
C759 C758 1.376 . S
C759 C760 1.388 . S
C760 H747 0.930 . S
C760 C759 1.388 . S
C760 C761 1.390 . S
C761 C760 1.390 . S
C761 C762 1.394 . S
C761 C767 1.465 . S
C762 C757 1.399 . S
C762 C761 1.394 . S
C762 C763 1.516 . S
C763 C762 1.516 . S
C763 C764 1.502 . S
C763 C765 1.561 . S
C763 C766 1.526 . S
C764 H748 0.959 . S
C764 H749 0.959 . S
C764 H750 0.961 . S
C764 C763 1.502 . S
C765 H751 0.960 . S
C765 H752 0.961 . S
C765 H753 0.959 . S
C765 C763 1.561 . S
C766 C763 1.526 . S
C766 C767 1.396 . S
C766 C771 1.390 . S
C767 C761 1.465 . S
C767 C766 1.396 . S
C767 C768 1.399 . S
C768 H754 0.929 . S
C768 C767 1.399 . S
C768 C769 1.385 . S
C769 H755 0.931 . S
C769 C768 1.385 . S
C769 C770 1.389 . S
C770 C769 1.389 . S
C770 C771 1.387 . S
C771 H756 0.930 . S
C771 C766 1.390 . S
C771 C770 1.387 . S
H772 C784 0.930 . S
H773 C786 0.930 . S
H774 C787 0.930 . S
H775 C791 0.959 . S
H776 C791 0.959 . S
H777 C791 0.961 . S
H778 C792 0.960 . S
H779 C792 0.961 . S
H780 C792 0.959 . S
H781 C795 0.929 . S
H782 C796 0.931 . S
H783 C798 0.930 . S
C784 H772 0.930 . S
C784 C785 1.399 . S
C784 C789 1.399 . S
C785 C784 1.399 . S
C785 C786 1.376 . S
C786 H773 0.930 . S
C786 C785 1.376 . S
C786 C787 1.388 . S
C787 H774 0.930 . S
C787 C786 1.388 . S
C787 C788 1.390 . S
C788 C787 1.390 . S
C788 C789 1.394 . S
C788 C794 1.465 . S
C789 C784 1.399 . S
C789 C788 1.394 . S
C789 C790 1.516 . S
C790 C789 1.516 . S
C790 C791 1.502 . S
C790 C792 1.561 . S
C790 C793 1.526 . S
C791 H775 0.959 . S
C791 H776 0.959 . S
C791 H777 0.961 . S
C791 C790 1.502 . S
C792 H778 0.960 . S
C792 H779 0.961 . S
C792 H780 0.959 . S
C792 C790 1.561 . S
C793 C790 1.526 . S
C793 C794 1.396 . S
C793 C798 1.390 . S
C794 C788 1.465 . S
C794 C793 1.396 . S
C794 C795 1.399 . S
C795 H781 0.929 . S
C795 C794 1.399 . S
C795 C796 1.385 . S
C796 H782 0.931 . S
C796 C795 1.385 . S
C796 C797 1.389 . S
C797 C796 1.389 . S
C797 C798 1.387 . S
C798 H783 0.930 . S
C798 C793 1.390 . S
C798 C797 1.387 . S
H799 C811 0.930 . S
H800 C813 0.930 . S
H801 C814 0.930 . S
H802 C818 0.959 . S
H803 C818 0.959 . S
H804 C818 0.961 . S
H805 C819 0.960 . S
H806 C819 0.961 . S
H807 C819 0.959 . S
H808 C822 0.929 . S
H809 C823 0.931 . S
H810 C825 0.930 . S
C811 H799 0.930 . S
C811 C812 1.399 . S
C811 C816 1.399 . S
C812 C811 1.399 . S
C812 C813 1.376 . S
C813 H800 0.930 . S
C813 C812 1.376 . S
C813 C814 1.388 . S
C814 H801 0.930 . S
C814 C813 1.388 . S
C814 C815 1.390 . S
C815 C814 1.390 . S
C815 C816 1.394 . S
C815 C821 1.465 . S
C816 C811 1.399 . S
C816 C815 1.394 . S
C816 C817 1.516 . S
C817 C816 1.516 . S
C817 C818 1.502 . S
C817 C819 1.561 . S
C817 C820 1.526 . S
C818 H802 0.959 . S
C818 H803 0.959 . S
C818 H804 0.961 . S
C818 C817 1.502 . S
C819 H805 0.960 . S
C819 H806 0.961 . S
C819 H807 0.959 . S
C819 C817 1.561 . S
C820 C817 1.526 . S
C820 C821 1.396 . S
C820 C825 1.390 . S
C821 C815 1.465 . S
C821 C820 1.396 . S
C821 C822 1.399 . S
C822 H808 0.929 . S
C822 C821 1.399 . S
C822 C823 1.385 . S
C823 H809 0.931 . S
C823 C822 1.385 . S
C823 C824 1.389 . S
C824 C823 1.389 . S
C824 C825 1.387 . S
C825 H810 0.930 . S
C825 C820 1.390 . S
C825 C824 1.387 . S
H826 C838 0.930 . S
H827 C840 0.930 . S
H828 C841 0.930 . S
H829 C845 0.959 . S
H830 C845 0.959 . S
H831 C845 0.961 . S
H832 C846 0.960 . S
H833 C846 0.961 . S
H834 C846 0.959 . S
H835 C849 0.929 . S
H836 C850 0.931 . S
H837 C852 0.930 . S
C838 H826 0.930 . S
C838 C839 1.399 . S
C838 C843 1.399 . S
C839 C838 1.399 . S
C839 C840 1.376 . S
C840 H827 0.930 . S
C840 C839 1.376 . S
C840 C841 1.388 . S
C841 H828 0.930 . S
C841 C840 1.388 . S
C841 C842 1.390 . S
C842 C841 1.390 . S
C842 C843 1.394 . S
C842 C848 1.465 . S
C843 C838 1.399 . S
C843 C842 1.394 . S
C843 C844 1.516 . S
C844 C843 1.516 . S
C844 C845 1.502 . S
C844 C846 1.561 . S
C844 C847 1.526 . S
C845 H829 0.959 . S
C845 H830 0.959 . S
C845 H831 0.961 . S
C845 C844 1.502 . S
C846 H832 0.960 . S
C846 H833 0.961 . S
C846 H834 0.959 . S
C846 C844 1.561 . S
C847 C844 1.526 . S
C847 C848 1.396 . S
C847 C852 1.390 . S
C848 C842 1.465 . S
C848 C847 1.396 . S
C848 C849 1.399 . S
C849 H835 0.929 . S
C849 C848 1.399 . S
C849 C850 1.385 . S
C850 H836 0.931 . S
C850 C849 1.385 . S
C850 C851 1.389 . S
C851 C850 1.389 . S
C851 C852 1.387 . S
C852 H837 0.930 . S
C852 C847 1.390 . S
C852 C851 1.387 . S
H853 C865 0.930 . S
H854 C867 0.930 . S
H855 C868 0.930 . S
H856 C872 0.959 . S
H857 C872 0.959 . S
H858 C872 0.961 . S
H859 C873 0.960 . S
H860 C873 0.961 . S
H861 C873 0.959 . S
H862 C876 0.929 . S
H863 C877 0.931 . S
H864 C879 0.930 . S
C865 H853 0.930 . S
C865 C866 1.399 . S
C865 C870 1.399 . S
C866 C865 1.399 . S
C866 C867 1.376 . S
C867 H854 0.930 . S
C867 C866 1.376 . S
C867 C868 1.388 . S
C868 H855 0.930 . S
C868 C867 1.388 . S
C868 C869 1.390 . S
C869 C868 1.390 . S
C869 C870 1.394 . S
C869 C875 1.465 . S
C870 C865 1.399 . S
C870 C869 1.394 . S
C870 C871 1.516 . S
C871 C870 1.516 . S
C871 C872 1.502 . S
C871 C873 1.561 . S
C871 C874 1.526 . S
C872 H856 0.959 . S
C872 H857 0.959 . S
C872 H858 0.961 . S
C872 C871 1.502 . S
C873 H859 0.960 . S
C873 H860 0.961 . S
C873 H861 0.959 . S
C873 C871 1.561 . S
C874 C871 1.526 . S
C874 C875 1.396 . S
C874 C879 1.390 . S
C875 C869 1.465 . S
C875 C874 1.396 . S
C875 C876 1.399 1_556 S
C876 H862 0.929 . S
C876 C875 1.399 1_554 S
C876 C877 1.385 . S
C877 H863 0.931 . S
C877 C876 1.385 . S
C877 C878 1.389 1_554 S
C878 C877 1.389 1_556 S
C878 C879 1.387 . S
C879 H864 0.930 . S
C879 C874 1.390 . S
C879 C878 1.387 . S
H880 C892 0.930 . S
H881 C894 0.930 . S
H882 C895 0.930 . S
H883 C899 0.959 . S
H884 C899 0.959 . S
H885 C899 0.961 . S
H886 C900 0.960 . S
H887 C900 0.961 . S
H888 C900 0.959 . S
H889 C903 0.929 . S
H890 C904 0.931 . S
H891 C906 0.930 . S
C892 H880 0.930 . S
C892 C893 1.399 . S
C892 C897 1.399 . S
C893 C892 1.399 . S
C893 C894 1.376 . S
C894 H881 0.930 . S
C894 C893 1.376 . S
C894 C895 1.388 . S
C895 H882 0.930 . S
C895 C894 1.388 . S
C895 C896 1.390 . S
C896 C895 1.390 . S
C896 C897 1.394 . S
C896 C902 1.465 . S
C897 C892 1.399 . S
C897 C896 1.394 . S
C897 C898 1.516 . S
C898 C897 1.516 . S
C898 C899 1.502 . S
C898 C900 1.561 . S
C898 C901 1.526 . S
C899 H883 0.959 . S
C899 H884 0.959 . S
C899 H885 0.961 . S
C899 C898 1.502 . S
C900 H886 0.960 . S
C900 H887 0.961 . S
C900 H888 0.959 . S
C900 C898 1.561 . S
C901 C898 1.526 . S
C901 C902 1.396 . S
C901 C906 1.390 . S
C902 C896 1.465 . S
C902 C901 1.396 . S
C902 C903 1.399 . S
C903 H889 0.929 . S
C903 C902 1.399 . S
C903 C904 1.385 . S
C904 H890 0.931 . S
C904 C903 1.385 . S
C904 C905 1.389 . S
C905 C904 1.389 . S
C905 C906 1.387 . S
C906 H891 0.930 . S
C906 C901 1.390 . S
C906 C905 1.387 . S
H907 C919 0.930 . S
H908 C921 0.930 . S
H909 C922 0.930 . S
H910 C926 0.956 . S
H911 C926 0.963 1_545 S
H912 C926 0.959 . S
H913 C927 0.960 . S
H914 C927 0.961 . S
H915 C927 0.959 . S
H916 C930 0.929 . S
H917 C931 0.931 . S
H918 C933 0.930 . S
C919 H907 0.930 . S
C919 C920 1.399 . S
C919 C924 1.399 . S
C920 C919 1.399 . S
C920 C921 1.376 . S
C921 H908 0.930 . S
C921 C920 1.376 . S
C921 C922 1.388 . S
C922 H909 0.930 . S
C922 C921 1.388 . S
C922 C923 1.390 . S
C923 C922 1.390 . S
C923 C924 1.394 . S
C923 C929 1.465 1_565 S
C924 C919 1.399 . S
C924 C923 1.394 . S
C924 C925 1.516 1_565 S
C925 C924 1.516 1_545 S
C925 C926 1.503 1_545 S
C925 C927 1.561 . S
C925 C928 1.526 . S
C926 H910 0.956 . S
C926 H911 0.963 1_565 S
C926 H912 0.959 . S
C926 C925 1.503 1_565 S
C927 H913 0.960 . S
C927 H914 0.961 . S
C927 H915 0.959 . S
C927 C925 1.561 . S
C928 C925 1.526 . S
C928 C929 1.396 . S
C928 C933 1.390 1_554 S
C929 C923 1.465 1_545 S
C929 C928 1.396 . S
C929 C930 1.399 1_554 S
C930 H916 0.929 . S
C930 C929 1.399 1_556 S
C930 C931 1.385 . S
C931 H917 0.931 . S
C931 C930 1.385 . S
C931 C932 1.389 . S
C932 C931 1.389 . S
C932 C933 1.387 . S
C933 H918 0.930 . S
C933 C928 1.390 1_556 S
C933 C932 1.387 . S
H934 C946 0.930 . S
H935 C948 0.930 . S
H936 C949 0.930 . S
H937 C953 0.959 . S
H938 C953 0.959 . S
H939 C953 0.961 . S
H940 C954 0.960 . S
H941 C954 0.961 . S
H942 C954 0.959 . S
H943 C957 0.929 . S
H944 C958 0.931 . S
H945 C960 0.930 . S
C946 H934 0.930 . S
C946 C947 1.399 . S
C946 C951 1.399 . S
C947 C946 1.399 . S
C947 C948 1.376 . S
C948 H935 0.930 . S
C948 C947 1.376 . S
C948 C949 1.388 . S
C949 H936 0.930 . S
C949 C948 1.388 . S
C949 C950 1.390 . S
C950 C949 1.390 . S
C950 C951 1.394 . S
C950 C956 1.465 . S
C951 C946 1.399 . S
C951 C950 1.394 . S
C951 C952 1.516 . S
C952 C951 1.516 . S
C952 C953 1.502 . S
C952 C954 1.561 . S
C952 C955 1.526 . S
C953 H937 0.959 . S
C953 H938 0.959 . S
C953 H939 0.961 . S
C953 C952 1.502 . S
C954 H940 0.960 . S
C954 H941 0.961 . S
C954 H942 0.959 . S
C954 C952 1.561 . S
C955 C952 1.526 . S
C955 C956 1.396 . S
C955 C960 1.390 . S
C956 C950 1.465 . S
C956 C955 1.396 . S
C956 C957 1.399 . S
C957 H943 0.929 . S
C957 C956 1.399 . S
C957 C958 1.385 . S
C958 H944 0.931 . S
C958 C957 1.385 . S
C958 C959 1.389 . S
C959 C958 1.389 . S
C959 C960 1.387 . S
C960 H945 0.930 . S
C960 C955 1.390 . S
C960 C959 1.387 . S
H961 C973 0.930 . S
H962 C975 0.930 . S
H963 C976 0.930 . S
H964 C980 0.959 . S
H965 C980 0.959 . S
H966 C980 0.961 . S
H967 C981 0.960 . S
H968 C981 0.961 . S
H969 C981 0.959 . S
H970 C984 0.929 . S
H971 C985 0.931 . S
H972 C987 0.930 . S
C973 H961 0.930 . S
C973 C974 1.399 . S
C973 C978 1.399 . S
C974 C973 1.399 . S
C974 C975 1.376 . S
C975 H962 0.930 . S
C975 C974 1.376 . S
C975 C976 1.388 . S
C976 H963 0.930 . S
C976 C975 1.388 . S
C976 C977 1.390 . S
C977 C976 1.390 . S
C977 C978 1.394 . S
C977 C983 1.468 1_545 S
C978 C973 1.399 . S
C978 C977 1.394 . S
C978 C979 1.516 1_545 S
C979 C978 1.516 1_565 S
C979 C980 1.502 . S
C979 C981 1.561 . S
C979 C982 1.526 . S
C980 H964 0.959 . S
C980 H965 0.959 . S
C980 H966 0.961 . S
C980 C979 1.502 . S
C981 H967 0.960 . S
C981 H968 0.961 . S
C981 H969 0.959 . S
C981 C979 1.561 . S
C982 C979 1.526 . S
C982 C983 1.393 . S
C982 C987 1.390 . S
C983 C977 1.468 1_565 S
C983 C982 1.393 . S
C983 C984 1.399 1_565 S
C984 H970 0.929 . S
C984 C983 1.399 1_545 S
C984 C985 1.385 1_545 S
C985 H971 0.931 . S
C985 C984 1.385 1_565 S
C985 C986 1.389 . S
C986 C985 1.389 . S
C986 C987 1.387 . S
C987 H972 0.930 . S
C987 C982 1.390 . S
C987 C986 1.387 . S
H988 C1000 0.930 . S
H989 C1002 0.930 . S
H990 C1003 0.930 . S
H991 C1007 0.959 . S
H992 C1007 0.959 . S
H993 C1007 0.961 . S
H994 C1008 0.960 . S
H995 C1008 0.961 . S
H996 C1008 0.959 . S
H997 C1011 0.929 . S
H998 C1012 0.931 . S
H999 C1014 0.930 . S
C1000 H988 0.930 . S
C1000 C1001 1.399 . S
C1000 C1005 1.399 . S
C1001 C1000 1.399 . S
C1001 C1002 1.376 . S
C1002 H989 0.930 . S
C1002 C1001 1.376 . S
C1002 C1003 1.388 . S
C1003 H990 0.930 . S
C1003 C1002 1.388 . S
C1003 C1004 1.390 . S
C1004 C1003 1.390 . S
C1004 C1005 1.394 . S
C1004 C1010 1.465 . S
C1005 C1000 1.399 . S
C1005 C1004 1.394 . S
C1005 C1006 1.516 . S
C1006 C1005 1.516 . S
C1006 C1007 1.502 . S
C1006 C1008 1.561 . S
C1006 C1009 1.526 . S
C1007 H991 0.959 . S
C1007 H992 0.959 . S
C1007 H993 0.961 . S
C1007 C1006 1.502 . S
C1008 H994 0.960 . S
C1008 H995 0.961 . S
C1008 H996 0.959 . S
C1008 C1006 1.561 . S
C1009 C1006 1.526 . S
C1009 C1010 1.396 . S
C1009 C1014 1.390 . S
C1010 C1004 1.465 . S
C1010 C1009 1.396 . S
C1010 C1011 1.399 . S
C1011 H997 0.929 . S
C1011 C1010 1.399 . S
C1011 C1012 1.385 . S
C1012 H998 0.931 . S
C1012 C1011 1.385 . S
C1012 C1013 1.389 . S
C1013 C1012 1.389 . S
C1013 C1014 1.387 . S
C1014 H999 0.930 . S
C1014 C1009 1.390 . S
C1014 C1013 1.387 . S
H1015 C1027 0.930 . S
H1016 C1029 0.930 . S
H1017 C1030 0.920 1_565 S
H1018 C1034 0.959 . S
H1019 C1034 0.959 . S
H1020 C1034 0.961 . S
H1021 C1035 0.960 . S
H1022 C1035 0.961 . S
H1023 C1035 0.959 . S
H1024 C1038 0.929 . S
H1025 C1039 0.931 . S
H1026 C1041 0.930 . S
C1027 H1015 0.930 . S
C1027 C1028 1.399 . S
C1027 C1032 1.399 1_556 S
C1028 C1027 1.399 . S
C1028 C1029 1.376 . S
C1029 H1016 0.930 . S
C1029 C1028 1.376 . S
C1029 C1030 1.398 . S
C1030 H1017 0.920 1_545 S
C1030 C1029 1.398 . S
C1030 C1031 1.391 1_556 S
C1031 C1030 1.391 1_554 S
C1031 C1032 1.394 . S
C1031 C1037 1.465 1_545 S
C1032 C1027 1.399 1_554 S
C1032 C1031 1.394 . S
C1032 C1033 1.516 . S
C1033 C1032 1.516 . S
C1033 C1034 1.502 . S
C1033 C1035 1.561 . S
C1033 C1036 1.526 1_545 S
C1034 H1018 0.959 . S
C1034 H1019 0.959 . S
C1034 H1020 0.961 . S
C1034 C1033 1.502 . S
C1035 H1021 0.960 . S
C1035 H1022 0.961 . S
C1035 H1023 0.959 . S
C1035 C1033 1.561 . S
C1036 C1033 1.526 1_565 S
C1036 C1037 1.396 . S
C1036 C1041 1.390 . S
C1037 C1031 1.465 1_565 S
C1037 C1036 1.396 . S
C1037 C1038 1.399 . S
C1038 H1024 0.929 . S
C1038 C1037 1.399 . S
C1038 C1039 1.385 . S
C1039 H1025 0.931 . S
C1039 C1038 1.385 . S
C1039 C1040 1.389 . S
C1040 C1039 1.389 . S
C1040 C1041 1.387 . S
C1041 H1026 0.930 . S
C1041 C1036 1.390 . S
C1041 C1040 1.387 . S
H1042 C1054 0.930 . S
H1043 C1056 0.930 . S
H1044 C1057 0.930 . S
H1045 C1061 0.959 . S
H1046 C1061 0.959 . S
H1047 C1061 0.961 . S
H1048 C1062 0.960 . S
H1049 C1062 0.961 . S
H1050 C1062 0.959 . S
H1051 C1065 0.929 . S
H1052 C1066 0.931 . S
H1053 C1068 0.930 . S
C1054 H1042 0.930 . S
C1054 C1055 1.399 . S
C1054 C1059 1.399 . S
C1055 C1054 1.399 . S
C1055 C1056 1.376 . S
C1056 H1043 0.930 . S
C1056 C1055 1.376 . S
C1056 C1057 1.388 . S
C1057 H1044 0.930 . S
C1057 C1056 1.388 . S
C1057 C1058 1.390 . S
C1058 C1057 1.390 . S
C1058 C1059 1.394 . S
C1058 C1064 1.465 . S
C1059 C1054 1.399 . S
C1059 C1058 1.394 . S
C1059 C1060 1.516 . S
C1060 C1059 1.516 . S
C1060 C1061 1.502 . S
C1060 C1062 1.561 . S
C1060 C1063 1.526 . S
C1061 H1045 0.959 . S
C1061 H1046 0.959 . S
C1061 H1047 0.961 . S
C1061 C1060 1.502 . S
C1062 H1048 0.960 . S
C1062 H1049 0.961 . S
C1062 H1050 0.959 . S
C1062 C1060 1.561 . S
C1063 C1060 1.526 . S
C1063 C1064 1.396 . S
C1063 C1068 1.390 . S
C1064 C1058 1.465 . S
C1064 C1063 1.396 . S
C1064 C1065 1.399 . S
C1065 H1051 0.929 . S
C1065 C1064 1.399 . S
C1065 C1066 1.385 . S
C1066 H1052 0.931 . S
C1066 C1065 1.385 . S
C1066 C1067 1.389 . S
C1067 C1066 1.389 . S
C1067 C1068 1.387 . S
C1068 H1053 0.930 . S
C1068 C1063 1.390 . S
C1068 C1067 1.387 . S
H1069 C1081 0.930 . S
H1070 C1083 0.930 . S
H1071 C1084 0.948 . S
H1072 C1088 0.959 . S
H1073 C1088 0.959 . S
H1074 C1088 0.961 . S
H1075 C1089 0.960 . S
H1076 C1089 0.961 . S
H1077 C1089 0.959 . S
H1078 C1092 0.929 . S
H1079 C1093 0.931 . S
H1080 C1095 0.930 . S
C1081 H1069 0.930 . S
C1081 C1082 1.399 . S
C1081 C1086 1.399 . S
C1082 C1081 1.399 . S
C1082 C1083 1.376 . S
C1083 H1070 0.930 . S
C1083 C1082 1.376 . S
C1083 C1084 1.372 1_545 S
C1084 H1071 0.948 . S
C1084 C1083 1.372 1_565 S
C1084 C1085 1.386 1_565 S
C1085 C1084 1.386 1_545 S
C1085 C1086 1.450 . S
C1085 C1091 1.422 1_545 S
C1086 C1081 1.399 . S
C1086 C1085 1.450 . S
C1086 C1087 1.516 . S
C1087 C1086 1.516 . S
C1087 C1088 1.502 . S
C1087 C1089 1.561 . S
C1087 C1090 1.526 1_545 S
C1088 H1072 0.959 . S
C1088 H1073 0.959 . S
C1088 H1074 0.961 . S
C1088 C1087 1.502 . S
C1089 H1075 0.960 . S
C1089 H1076 0.961 . S
C1089 H1077 0.959 . S
C1089 C1087 1.561 . S
C1090 C1087 1.526 1_565 S
C1090 C1091 1.396 . S
C1090 C1095 1.390 . S
C1091 C1085 1.422 1_565 S
C1091 C1090 1.396 . S
C1091 C1092 1.399 . S
C1092 H1078 0.929 . S
C1092 C1091 1.399 . S
C1092 C1093 1.385 . S
C1093 H1079 0.931 . S
C1093 C1092 1.385 . S
C1093 C1094 1.389 . S
C1094 C1093 1.389 . S
C1094 C1095 1.387 . S
C1095 H1080 0.930 . S
C1095 C1090 1.390 . S
C1095 C1094 1.387 . S
H1096 C1108 0.930 . S
H1097 C1110 0.930 . S
H1098 C1111 0.930 . S
H1099 C1115 0.959 . S
H1100 C1115 0.959 . S
H1101 C1115 0.961 . S
H1102 C1116 0.960 . S
H1103 C1116 0.961 . S
H1104 C1116 0.959 . S
H1105 C1119 0.929 . S
H1106 C1120 0.931 . S
H1107 C1122 0.930 . S
C1108 H1096 0.930 . S
C1108 C1109 1.399 . S
C1108 C1113 1.399 . S
C1109 C1108 1.399 . S
C1109 C1110 1.376 . S
C1110 H1097 0.930 . S
C1110 C1109 1.376 . S
C1110 C1111 1.388 . S
C1111 H1098 0.930 . S
C1111 C1110 1.388 . S
C1111 C1112 1.390 . S
C1112 C1111 1.390 . S
C1112 C1113 1.394 . S
C1112 C1118 1.465 . S
C1113 C1108 1.399 . S
C1113 C1112 1.394 . S
C1113 C1114 1.516 . S
C1114 C1113 1.516 . S
C1114 C1115 1.502 . S
C1114 C1116 1.561 . S
C1114 C1117 1.526 . S
C1115 H1099 0.959 . S
C1115 H1100 0.959 . S
C1115 H1101 0.961 . S
C1115 C1114 1.502 . S
C1116 H1102 0.960 . S
C1116 H1103 0.961 . S
C1116 H1104 0.959 . S
C1116 C1114 1.561 . S
C1117 C1114 1.526 . S
C1117 C1118 1.396 . S
C1117 C1122 1.390 . S
C1118 C1112 1.465 . S
C1118 C1117 1.396 . S
C1118 C1119 1.399 . S
C1119 H1105 0.929 . S
C1119 C1118 1.399 . S
C1119 C1120 1.385 . S
C1120 H1106 0.931 . S
C1120 C1119 1.385 . S
C1120 C1121 1.389 . S
C1121 C1120 1.389 . S
C1121 C1122 1.387 . S
C1122 H1107 0.930 . S
C1122 C1117 1.390 . S
C1122 C1121 1.387 . S
H1123 C1135 0.930 . S
H1124 C1137 0.930 . S
H1125 C1138 0.930 . S
H1126 C1142 0.959 . S
H1127 C1142 0.959 . S
H1128 C1142 0.961 . S
H1129 C1143 0.960 . S
H1130 C1143 0.961 . S
H1131 C1143 0.959 . S
H1132 C1146 0.929 . S
H1133 C1147 0.931 . S
H1134 C1149 0.930 . S
C1135 H1123 0.930 . S
C1135 C1136 1.399 . S
C1135 C1140 1.399 . S
C1136 C1135 1.399 . S
C1136 C1137 1.376 . S
C1137 H1124 0.930 . S
C1137 C1136 1.376 . S
C1137 C1138 1.388 . S
C1138 H1125 0.930 . S
C1138 C1137 1.388 . S
C1138 C1139 1.390 . S
C1139 C1138 1.390 . S
C1139 C1140 1.394 . S
C1139 C1145 1.465 . S
C1140 C1135 1.399 . S
C1140 C1139 1.394 . S
C1140 C1141 1.516 . S
C1141 C1140 1.516 . S
C1141 C1142 1.502 . S
C1141 C1143 1.561 . S
C1141 C1144 1.526 . S
C1142 H1126 0.959 . S
C1142 H1127 0.959 . S
C1142 H1128 0.961 . S
C1142 C1141 1.502 . S
C1143 H1129 0.960 . S
C1143 H1130 0.961 . S
C1143 H1131 0.959 . S
C1143 C1141 1.561 . S
C1144 C1141 1.526 . S
C1144 C1145 1.396 . S
C1144 C1149 1.390 . S
C1145 C1139 1.465 . S
C1145 C1144 1.396 . S
C1145 C1146 1.399 . S
C1146 H1132 0.929 . S
C1146 C1145 1.399 . S
C1146 C1147 1.385 . S
C1147 H1133 0.931 . S
C1147 C1146 1.385 . S
C1147 C1148 1.389 . S
C1148 C1147 1.389 . S
C1148 C1149 1.387 . S
C1149 H1134 0.930 . S
C1149 C1144 1.390 . S
C1149 C1148 1.387 . S
H1150 C1162 0.930 . S
H1151 C1164 0.930 . S
H1152 C1165 0.930 . S
H1153 C1169 0.959 . S
H1154 C1169 0.959 . S
H1155 C1169 0.961 . S
H1156 C1170 0.960 . S
H1157 C1170 0.961 . S
H1158 C1170 0.959 . S
H1159 C1173 0.929 . S
H1160 C1174 0.931 . S
H1161 C1176 0.930 . S
C1162 H1150 0.930 . S
C1162 C1163 1.399 . S
C1162 C1167 1.399 . S
C1163 C1162 1.399 . S
C1163 C1164 1.376 . S
C1164 H1151 0.930 . S
C1164 C1163 1.376 . S
C1164 C1165 1.388 . S
C1165 H1152 0.930 . S
C1165 C1164 1.388 . S
C1165 C1166 1.390 . S
C1166 C1165 1.390 . S
C1166 C1167 1.394 . S
C1166 C1172 1.465 . S
C1167 C1162 1.399 . S
C1167 C1166 1.394 . S
C1167 C1168 1.516 . S
C1168 C1167 1.516 . S
C1168 C1169 1.502 . S
C1168 C1170 1.561 . S
C1168 C1171 1.526 . S
C1169 H1153 0.959 . S
C1169 H1154 0.959 . S
C1169 H1155 0.961 . S
C1169 C1168 1.502 . S
C1170 H1156 0.960 . S
C1170 H1157 0.961 . S
C1170 H1158 0.959 . S
C1170 C1168 1.561 . S
C1171 C1168 1.526 . S
C1171 C1172 1.396 . S
C1171 C1176 1.390 . S
C1172 C1166 1.465 . S
C1172 C1171 1.396 . S
C1172 C1173 1.399 . S
C1173 H1159 0.929 . S
C1173 C1172 1.399 . S
C1173 C1174 1.385 . S
C1174 H1160 0.931 . S
C1174 C1173 1.385 . S
C1174 C1175 1.389 . S
C1175 C1174 1.389 . S
C1175 C1176 1.387 . S
C1176 H1161 0.930 . S
C1176 C1171 1.390 . S
C1176 C1175 1.387 . S
H1177 C1189 0.930 . S
H1178 C1191 0.930 . S
H1179 C1192 0.930 . S
H1180 C1196 0.959 1_554 S
H1181 C1196 0.959 . S
H1182 C1196 0.961 1_554 S
H1183 C1197 0.960 . S
H1184 C1197 0.961 . S
H1185 C1197 0.959 . S
H1186 C1200 0.929 . S
H1187 C1201 0.931 . S
H1188 C1203 0.930 . S
C1189 H1177 0.930 . S
C1189 C1190 1.399 . S
C1189 C1194 1.399 . S
C1190 C1189 1.399 . S
C1190 C1191 1.376 . S
C1191 H1178 0.930 . S
C1191 C1190 1.376 . S
C1191 C1192 1.388 . S
C1192 H1179 0.930 . S
C1192 C1191 1.388 . S
C1192 C1193 1.390 . S
C1193 C1192 1.390 . S
C1193 C1194 1.394 . S
C1193 C1199 1.465 . S
C1194 C1189 1.399 . S
C1194 C1193 1.394 . S
C1194 C1195 1.516 . S
C1195 C1194 1.516 . S
C1195 C1196 1.502 1_554 S
C1195 C1197 1.561 1_554 S
C1195 C1198 1.526 1_554 S
C1196 H1180 0.959 1_556 S
C1196 H1181 0.959 . S
C1196 H1182 0.961 1_556 S
C1196 C1195 1.502 1_556 S
C1197 H1183 0.960 . S
C1197 H1184 0.961 . S
C1197 H1185 0.959 . S
C1197 C1195 1.561 1_556 S
C1198 C1195 1.526 1_556 S
C1198 C1199 1.396 1_556 S
C1198 C1203 1.390 . S
C1199 C1193 1.465 . S
C1199 C1198 1.396 1_554 S
C1199 C1200 1.399 . S
C1200 H1186 0.929 . S
C1200 C1199 1.399 . S
C1200 C1201 1.385 1_554 S
C1201 H1187 0.931 . S
C1201 C1200 1.385 1_556 S
C1201 C1202 1.389 . S
C1202 C1201 1.389 . S
C1202 C1203 1.387 . S
C1203 H1188 0.930 . S
C1203 C1198 1.390 . S
C1203 C1202 1.387 . S
H1204 C1216 0.930 . S
H1205 C1218 0.930 . S
H1206 C1219 0.930 . S
H1207 C1223 0.959 . S
H1208 C1223 0.959 . S
H1209 C1223 0.961 . S
H1210 C1224 0.960 . S
H1211 C1224 0.961 . S
H1212 C1224 0.959 . S
H1213 C1227 0.929 . S
H1214 C1228 0.931 . S
H1215 C1230 0.930 . S
C1216 H1204 0.930 . S
C1216 C1217 1.399 . S
C1216 C1221 1.399 . S
C1217 C1216 1.399 . S
C1217 C1218 1.376 . S
C1218 H1205 0.930 . S
C1218 C1217 1.376 . S
C1218 C1219 1.388 . S
C1219 H1206 0.930 . S
C1219 C1218 1.388 . S
C1219 C1220 1.390 . S
C1220 C1219 1.390 . S
C1220 C1221 1.394 . S
C1220 C1226 1.465 . S
C1221 C1216 1.399 . S
C1221 C1220 1.394 . S
C1221 C1222 1.516 . S
C1222 C1221 1.516 . S
C1222 C1223 1.502 . S
C1222 C1224 1.561 . S
C1222 C1225 1.526 . S
C1223 H1207 0.959 . S
C1223 H1208 0.959 . S
C1223 H1209 0.961 . S
C1223 C1222 1.502 . S
C1224 H1210 0.960 . S
C1224 H1211 0.961 . S
C1224 H1212 0.959 . S
C1224 C1222 1.561 . S
C1225 C1222 1.526 . S
C1225 C1226 1.396 . S
C1225 C1230 1.390 . S
C1226 C1220 1.465 . S
C1226 C1225 1.396 . S
C1226 C1227 1.399 . S
C1227 H1213 0.929 . S
C1227 C1226 1.399 . S
C1227 C1228 1.385 . S
C1228 H1214 0.931 . S
C1228 C1227 1.385 . S
C1228 C1229 1.389 . S
C1229 C1228 1.389 . S
C1229 C1230 1.387 . S
C1230 H1215 0.930 . S
C1230 C1225 1.390 . S
C1230 C1229 1.387 . S
H1231 C1243 0.930 . S
H1232 C1245 0.930 . S
H1233 C1246 0.930 . S
H1234 C1250 0.959 . S
H1235 C1250 0.959 . S
H1236 C1250 0.961 . S
H1237 C1251 0.960 . S
H1238 C1251 0.961 . S
H1239 C1251 0.959 . S
H1240 C1254 0.929 . S
H1241 C1255 0.931 . S
H1242 C1257 0.930 . S
C1243 H1231 0.930 . S
C1243 C1244 1.399 . S
C1243 C1248 1.399 . S
C1244 C1243 1.399 . S
C1244 C1245 1.376 . S
C1245 H1232 0.930 . S
C1245 C1244 1.376 . S
C1245 C1246 1.388 . S
C1246 H1233 0.930 . S
C1246 C1245 1.388 . S
C1246 C1247 1.390 . S
C1247 C1246 1.390 . S
C1247 C1248 1.394 . S
C1247 C1253 1.465 . S
C1248 C1243 1.399 . S
C1248 C1247 1.394 . S
C1248 C1249 1.516 . S
C1249 C1248 1.516 . S
C1249 C1250 1.502 . S
C1249 C1251 1.561 . S
C1249 C1252 1.526 . S
C1250 H1234 0.959 . S
C1250 H1235 0.959 . S
C1250 H1236 0.961 . S
C1250 C1249 1.502 . S
C1251 H1237 0.960 . S
C1251 H1238 0.961 . S
C1251 H1239 0.959 . S
C1251 C1249 1.561 . S
C1252 C1249 1.526 . S
C1252 C1253 1.396 . S
C1252 C1257 1.390 . S
C1253 C1247 1.465 . S
C1253 C1252 1.396 . S
C1253 C1254 1.399 . S
C1254 H1240 0.929 . S
C1254 C1253 1.399 . S
C1254 C1255 1.385 . S
C1255 H1241 0.931 . S
C1255 C1254 1.385 . S
C1255 C1256 1.389 . S
C1256 C1255 1.389 . S
C1256 C1257 1.387 . S
C1257 H1242 0.930 . S
C1257 C1252 1.390 . S
C1257 C1256 1.387 . S
H1258 C1270 0.930 . S
H1259 C1272 0.930 . S
H1260 C1273 0.930 . S
H1261 C1277 0.959 . S
H1262 C1277 0.959 . S
H1263 C1277 0.961 . S
H1264 C1278 0.960 . S
H1265 C1278 0.961 . S
H1266 C1278 0.959 . S
H1267 C1281 0.929 . S
H1268 C1282 0.931 . S
H1269 C1284 0.930 . S
C1270 H1258 0.930 . S
C1270 C1271 1.399 . S
C1270 C1275 1.399 . S
C1271 C1270 1.399 . S
C1271 C1272 1.376 . S
C1272 H1259 0.930 . S
C1272 C1271 1.376 . S
C1272 C1273 1.388 . S
C1273 H1260 0.930 . S
C1273 C1272 1.388 . S
C1273 C1274 1.390 . S
C1274 C1273 1.390 . S
C1274 C1275 1.394 . S
C1274 C1280 1.465 . S
C1275 C1270 1.399 . S
C1275 C1274 1.394 . S
C1275 C1276 1.516 . S
C1276 C1275 1.516 . S
C1276 C1277 1.502 . S
C1276 C1278 1.561 . S
C1276 C1279 1.526 . S
C1277 H1261 0.959 . S
C1277 H1262 0.959 . S
C1277 H1263 0.961 . S
C1277 C1276 1.502 . S
C1278 H1264 0.960 . S
C1278 H1265 0.961 . S
C1278 H1266 0.959 . S
C1278 C1276 1.561 . S
C1279 C1276 1.526 . S
C1279 C1280 1.396 . S
C1279 C1284 1.390 . S
C1280 C1274 1.465 . S
C1280 C1279 1.396 . S
C1280 C1281 1.399 . S
C1281 H1267 0.929 . S
C1281 C1280 1.399 . S
C1281 C1282 1.385 . S
C1282 H1268 0.931 . S
C1282 C1281 1.385 . S
C1282 C1283 1.389 . S
C1283 C1282 1.389 . S
C1283 C1284 1.387 . S
C1284 H1269 0.930 . S
C1284 C1279 1.390 . S
C1284 C1283 1.387 . S
H1285 C1297 0.930 . S
H1286 C1299 0.930 . S
H1287 C1300 0.930 . S
H1288 C1304 0.959 . S
H1289 C1304 0.959 . S
H1290 C1304 0.961 . S
H1291 C1305 0.960 1_554 S
H1292 C1305 0.961 . S
H1293 C1305 0.959 . S
H1294 C1308 0.929 1_554 S
H1295 C1309 0.931 . S
H1296 C1311 0.930 . S
C1297 H1285 0.930 . S
C1297 C1298 1.399 . S
C1297 C1302 1.399 . S
C1298 C1297 1.399 . S
C1298 C1299 1.376 . S
C1299 H1286 0.930 . S
C1299 C1298 1.376 . S
C1299 C1300 1.388 . S
C1300 H1287 0.930 . S
C1300 C1299 1.388 . S
C1300 C1301 1.390 . S
C1301 C1300 1.390 . S
C1301 C1302 1.394 . S
C1301 C1307 1.465 . S
C1302 C1297 1.399 . S
C1302 C1301 1.394 . S
C1302 C1303 1.516 . S
C1303 C1302 1.516 . S
C1303 C1304 1.502 . S
C1303 C1305 1.561 1_554 S
C1303 C1306 1.526 1_554 S
C1304 H1288 0.959 . S
C1304 H1289 0.959 . S
C1304 H1290 0.961 . S
C1304 C1303 1.502 . S
C1305 H1291 0.960 1_556 S
C1305 H1292 0.961 . S
C1305 H1293 0.959 . S
C1305 C1303 1.561 1_556 S
C1306 C1303 1.526 1_556 S
C1306 C1307 1.396 1_556 S
C1306 C1311 1.390 . S
C1307 C1301 1.465 . S
C1307 C1306 1.396 1_554 S
C1307 C1308 1.399 1_554 S
C1308 H1294 0.929 1_556 S
C1308 C1307 1.399 1_556 S
C1308 C1309 1.385 . S
C1309 H1295 0.931 . S
C1309 C1308 1.385 . S
C1309 C1310 1.389 . S
C1310 C1309 1.389 . S
C1310 C1311 1.387 . S
C1311 H1296 0.930 . S
C1311 C1306 1.390 . S
C1311 C1310 1.387 . S
H1312 C1324 0.930 . S
H1313 C1326 0.930 . S
H1314 C1327 0.930 . S
H1315 C1331 0.959 . S
H1316 C1331 0.959 . S
H1317 C1331 0.961 . S
H1318 C1332 0.960 . S
H1319 C1332 0.961 . S
H1320 C1332 0.959 . S
H1321 C1335 0.929 . S
H1322 C1336 0.931 . S
H1323 C1338 0.930 . S
C1324 H1312 0.930 . S
C1324 C1325 1.399 . S
C1324 C1329 1.399 . S
C1325 C1324 1.399 . S
C1325 C1326 1.376 1_554 S
C1326 H1313 0.930 . S
C1326 C1325 1.376 1_556 S
C1326 C1327 1.388 . S
C1327 H1314 0.930 . S
C1327 C1326 1.388 . S
C1327 C1328 1.390 . S
C1328 C1327 1.390 . S
C1328 C1329 1.394 1_556 S
C1328 C1334 1.465 . S
C1329 C1324 1.399 . S
C1329 C1328 1.394 1_554 S
C1329 C1330 1.516 . S
C1330 C1329 1.516 . S
C1330 C1331 1.502 . S
C1330 C1332 1.561 . S
C1330 C1333 1.526 . S
C1331 H1315 0.959 . S
C1331 H1316 0.959 . S
C1331 H1317 0.961 . S
C1331 C1330 1.502 . S
C1332 H1318 0.960 . S
C1332 H1319 0.961 . S
C1332 H1320 0.959 . S
C1332 C1330 1.561 . S
C1333 C1330 1.526 . S
C1333 C1334 1.396 1_554 S
C1333 C1338 1.390 . S
C1334 C1328 1.465 . S
C1334 C1333 1.396 1_556 S
C1334 C1335 1.399 . S
C1335 H1321 0.929 . S
C1335 C1334 1.399 . S
C1335 C1336 1.385 . S
C1336 H1322 0.931 . S
C1336 C1335 1.385 . S
C1336 C1337 1.389 1_556 S
C1337 C1336 1.389 1_554 S
C1337 C1338 1.387 . S
C1338 H1323 0.930 . S
C1338 C1333 1.390 . S
C1338 C1337 1.387 . S
H1339 C1351 0.930 . S
H1340 C1353 0.930 . S
H1341 C1354 0.930 . S
H1342 C1358 0.962 . S
H1343 C1358 0.977 . S
H1344 C1358 0.942 1_455 S
H1345 C1359 0.960 1_455 S
H1346 C1359 0.961 . S
H1347 C1359 0.959 . S
H1348 C1362 0.929 . S
H1349 C1363 0.931 . S
H1350 C1365 0.930 . S
C1351 H1339 0.930 . S
C1351 C1352 1.399 . S
C1351 C1356 1.399 . S
C1352 C1351 1.399 . S
C1352 C1353 1.376 . S
C1353 H1340 0.930 . S
C1353 C1352 1.376 . S
C1353 C1354 1.388 . S
C1354 H1341 0.930 . S
C1354 C1353 1.388 . S
C1354 C1355 1.390 . S
C1355 C1354 1.390 . S
C1355 C1356 1.394 . S
C1355 C1361 1.465 1_455 S
C1356 C1351 1.399 . S
C1356 C1355 1.394 . S
C1356 C1357 1.519 1_455 S
C1357 C1356 1.519 1_655 S
C1357 C1358 1.502 . S
C1357 C1359 1.561 . S
C1357 C1360 1.523 . S
C1358 H1342 0.962 . S
C1358 H1343 0.977 . S
C1358 H1344 0.942 1_655 S
C1358 C1357 1.502 . S
C1359 H1345 0.960 1_655 S
C1359 H1346 0.961 . S
C1359 H1347 0.959 . S
C1359 C1357 1.561 . S
C1360 C1357 1.523 . S
C1360 C1361 1.396 . S
C1360 C1365 1.390 . S
C1361 C1355 1.465 1_655 S
C1361 C1360 1.396 . S
C1361 C1362 1.399 . S
C1362 H1348 0.929 . S
C1362 C1361 1.399 . S
C1362 C1363 1.385 . S
C1363 H1349 0.931 . S
C1363 C1362 1.385 . S
C1363 C1364 1.389 . S
C1364 C1363 1.389 . S
C1364 C1365 1.387 . S
C1365 H1350 0.930 . S
C1365 C1360 1.390 . S
C1365 C1364 1.387 . S
H1366 C1378 0.930 . S
H1367 C1380 0.930 . S
H1368 C1381 0.930 . S
H1369 C1385 0.959 . S
H1370 C1385 0.959 . S
H1371 C1385 0.961 . S
H1372 C1386 0.960 . S
H1373 C1386 0.961 . S
H1374 C1386 0.959 . S
H1375 C1389 0.929 . S
H1376 C1390 0.931 . S
H1377 C1392 0.930 . S
C1378 H1366 0.930 . S
C1378 C1379 1.399 . S
C1378 C1383 1.399 . S
C1379 C1378 1.399 . S
C1379 C1380 1.376 . S
C1380 H1367 0.930 . S
C1380 C1379 1.376 . S
C1380 C1381 1.388 . S
C1381 H1368 0.930 . S
C1381 C1380 1.388 . S
C1381 C1382 1.390 . S
C1382 C1381 1.390 . S
C1382 C1383 1.394 . S
C1382 C1388 1.465 . S
C1383 C1378 1.399 . S
C1383 C1382 1.394 . S
C1383 C1384 1.516 . S
C1384 C1383 1.516 . S
C1384 C1385 1.502 . S
C1384 C1386 1.561 . S
C1384 C1387 1.526 . S
C1385 H1369 0.959 . S
C1385 H1370 0.959 . S
C1385 H1371 0.961 . S
C1385 C1384 1.502 . S
C1386 H1372 0.960 . S
C1386 H1373 0.961 . S
C1386 H1374 0.959 . S
C1386 C1384 1.561 . S
C1387 C1384 1.526 . S
C1387 C1388 1.396 . S
C1387 C1392 1.390 . S
C1388 C1382 1.465 . S
C1388 C1387 1.396 . S
C1388 C1389 1.399 . S
C1389 H1375 0.929 . S
C1389 C1388 1.399 . S
C1389 C1390 1.385 . S
C1390 H1376 0.931 . S
C1390 C1389 1.385 . S
C1390 C1391 1.389 . S
C1391 C1390 1.389 . S
C1391 C1392 1.387 . S
C1392 H1377 0.930 . S
C1392 C1387 1.390 . S
C1392 C1391 1.387 . S
H1393 C1405 0.930 . S
H1394 C1407 0.930 . S
H1395 C1408 0.930 . S
H1396 C1412 0.959 . S
H1397 C1412 0.959 . S
H1398 C1412 0.961 . S
H1399 C1413 0.960 . S
H1400 C1413 0.961 . S
H1401 C1413 0.959 . S
H1402 C1416 0.929 . S
H1403 C1417 0.931 . S
H1404 C1419 0.930 . S
C1405 H1393 0.930 . S
C1405 C1406 1.399 . S
C1405 C1410 1.399 . S
C1406 C1405 1.399 . S
C1406 C1407 1.376 . S
C1407 H1394 0.930 . S
C1407 C1406 1.376 . S
C1407 C1408 1.388 . S
C1408 H1395 0.930 . S
C1408 C1407 1.388 . S
C1408 C1409 1.390 . S
C1409 C1408 1.390 . S
C1409 C1410 1.394 . S
C1409 C1415 1.465 . S
C1410 C1405 1.399 . S
C1410 C1409 1.394 . S
C1410 C1411 1.516 . S
C1411 C1410 1.516 . S
C1411 C1412 1.502 . S
C1411 C1413 1.561 . S
C1411 C1414 1.526 . S
C1412 H1396 0.959 . S
C1412 H1397 0.959 . S
C1412 H1398 0.961 . S
C1412 C1411 1.502 . S
C1413 H1399 0.960 . S
C1413 H1400 0.961 . S
C1413 H1401 0.959 . S
C1413 C1411 1.561 . S
C1414 C1411 1.526 . S
C1414 C1415 1.396 . S
C1414 C1419 1.390 . S
C1415 C1409 1.465 . S
C1415 C1414 1.396 . S
C1415 C1416 1.399 . S
C1416 H1402 0.929 . S
C1416 C1415 1.399 . S
C1416 C1417 1.385 . S
C1417 H1403 0.931 . S
C1417 C1416 1.385 . S
C1417 C1418 1.389 . S
C1418 C1417 1.389 . S
C1418 C1419 1.387 . S
C1419 H1404 0.930 . S
C1419 C1414 1.390 . S
C1419 C1418 1.387 . S
H1420 C1432 0.930 1_556 S
H1421 C1434 0.930 . S
H1422 C1435 0.930 . S
H1423 C1439 0.959 . S
H1424 C1439 0.959 . S
H1425 C1439 0.961 . S
H1426 C1440 0.960 . S
H1427 C1440 0.961 . S
H1428 C1440 0.959 . S
H1429 C1443 0.929 . S
H1430 C1444 0.931 . S
H1431 C1446 0.930 1_556 S
C1432 H1420 0.930 1_554 S
C1432 C1433 1.399 . S
C1432 C1437 1.399 . S
C1433 C1432 1.399 . S
C1433 C1434 1.376 . S
C1434 H1421 0.930 . S
C1434 C1433 1.376 . S
C1434 C1435 1.388 . S
C1435 H1422 0.930 . S
C1435 C1434 1.388 . S
C1435 C1436 1.390 . S
C1436 C1435 1.390 . S
C1436 C1437 1.394 . S
C1436 C1442 1.465 . S
C1437 C1432 1.399 . S
C1437 C1436 1.394 . S
C1437 C1438 1.516 . S
C1438 C1437 1.516 . S
C1438 C1439 1.502 1_554 S
C1438 C1440 1.561 1_554 S
C1438 C1441 1.526 . S
C1439 H1423 0.959 . S
C1439 H1424 0.959 . S
C1439 H1425 0.961 . S
C1439 C1438 1.502 1_556 S
C1440 H1426 0.960 . S
C1440 H1427 0.961 . S
C1440 H1428 0.959 . S
C1440 C1438 1.561 1_556 S
C1441 C1438 1.526 . S
C1441 C1442 1.396 . S
C1441 C1446 1.390 . S
C1442 C1436 1.465 . S
C1442 C1441 1.396 . S
C1442 C1443 1.399 . S
C1443 H1429 0.929 . S
C1443 C1442 1.399 . S
C1443 C1444 1.385 . S
C1444 H1430 0.931 . S
C1444 C1443 1.385 . S
C1444 C1445 1.389 . S
C1445 C1444 1.389 . S
C1445 C1446 1.387 . S
C1446 H1431 0.930 1_554 S
C1446 C1441 1.390 . S
C1446 C1445 1.387 . S
H1447 C1459 0.930 . S
H1448 C1461 0.930 . S
H1449 C1462 0.930 . S
H1450 C1466 0.959 . S
H1451 C1466 0.959 . S
H1452 C1466 0.961 . S
H1453 C1467 0.960 . S
H1454 C1467 0.961 . S
H1455 C1467 0.959 . S
H1456 C1470 0.929 . S
H1457 C1471 0.931 . S
H1458 C1473 0.930 . S
C1459 H1447 0.930 . S
C1459 C1460 1.399 . S
C1459 C1464 1.399 . S
C1460 C1459 1.399 . S
C1460 C1461 1.376 . S
C1461 H1448 0.930 . S
C1461 C1460 1.376 . S
C1461 C1462 1.388 . S
C1462 H1449 0.930 . S
C1462 C1461 1.388 . S
C1462 C1463 1.390 . S
C1463 C1462 1.390 . S
C1463 C1464 1.394 . S
C1463 C1469 1.465 . S
C1464 C1459 1.399 . S
C1464 C1463 1.394 . S
C1464 C1465 1.516 . S
C1465 C1464 1.516 . S
C1465 C1466 1.502 . S
C1465 C1467 1.561 . S
C1465 C1468 1.526 . S
C1466 H1450 0.959 . S
C1466 H1451 0.959 . S
C1466 H1452 0.961 . S
C1466 C1465 1.502 . S
C1467 H1453 0.960 . S
C1467 H1454 0.961 . S
C1467 H1455 0.959 . S
C1467 C1465 1.561 . S
C1468 C1465 1.526 . S
C1468 C1469 1.396 . S
C1468 C1473 1.390 . S
C1469 C1463 1.465 . S
C1469 C1468 1.396 . S
C1469 C1470 1.399 . S
C1470 H1456 0.929 . S
C1470 C1469 1.399 . S
C1470 C1471 1.385 . S
C1471 H1457 0.931 . S
C1471 C1470 1.385 . S
C1471 C1472 1.389 . S
C1472 C1471 1.389 . S
C1472 C1473 1.387 . S
C1473 H1458 0.930 . S
C1473 C1468 1.390 . S
C1473 C1472 1.387 . S
H1474 C1486 0.930 . S
H1475 C1488 0.930 . S
H1476 C1489 0.930 . S
H1477 C1493 0.959 . S
H1478 C1493 0.959 . S
H1479 C1493 0.961 . S
H1480 C1494 0.960 . S
H1481 C1494 0.961 . S
H1482 C1494 0.959 . S
H1483 C1497 0.929 . S
H1484 C1498 0.931 . S
H1485 C1500 0.930 . S
C1486 H1474 0.930 . S
C1486 C1487 1.399 . S
C1486 C1491 1.399 . S
C1487 C1486 1.399 . S
C1487 C1488 1.376 . S
C1488 H1475 0.930 . S
C1488 C1487 1.376 . S
C1488 C1489 1.388 . S
C1489 H1476 0.930 . S
C1489 C1488 1.388 . S
C1489 C1490 1.390 . S
C1490 C1489 1.390 . S
C1490 C1491 1.394 . S
C1490 C1496 1.465 . S
C1491 C1486 1.399 . S
C1491 C1490 1.394 . S
C1491 C1492 1.516 . S
C1492 C1491 1.516 . S
C1492 C1493 1.502 . S
C1492 C1494 1.561 . S
C1492 C1495 1.526 . S
C1493 H1477 0.959 . S
C1493 H1478 0.959 . S
C1493 H1479 0.961 . S
C1493 C1492 1.502 . S
C1494 H1480 0.960 . S
C1494 H1481 0.961 . S
C1494 H1482 0.959 . S
C1494 C1492 1.561 . S
C1495 C1492 1.526 . S
C1495 C1496 1.396 . S
C1495 C1500 1.390 . S
C1496 C1490 1.465 . S
C1496 C1495 1.396 . S
C1496 C1497 1.399 . S
C1497 H1483 0.929 . S
C1497 C1496 1.399 . S
C1497 C1498 1.385 . S
C1498 H1484 0.931 . S
C1498 C1497 1.385 . S
C1498 C1499 1.389 . S
C1499 C1498 1.389 . S
C1499 C1500 1.387 . S
C1500 H1485 0.930 . S
C1500 C1495 1.390 . S
C1500 C1499 1.387 . S
H1501 C1513 0.930 . S
H1502 C1515 0.930 . S
H1503 C1516 0.930 . S
H1504 C1520 0.962 . S
H1505 C1520 0.977 . S
H1506 C1520 0.942 1_655 S
H1507 C1521 0.960 1_655 S
H1508 C1521 0.961 . S
H1509 C1521 0.959 . S
H1510 C1524 0.929 . S
H1511 C1525 0.931 . S
H1512 C1527 0.930 . S
C1513 H1501 0.930 . S
C1513 C1514 1.399 . S
C1513 C1518 1.399 . S
C1514 C1513 1.399 . S
C1514 C1515 1.376 . S
C1515 H1502 0.930 . S
C1515 C1514 1.376 . S
C1515 C1516 1.388 . S
C1516 H1503 0.930 . S
C1516 C1515 1.388 . S
C1516 C1517 1.390 . S
C1517 C1516 1.390 . S
C1517 C1518 1.394 . S
C1517 C1523 1.465 1_655 S
C1518 C1513 1.399 . S
C1518 C1517 1.394 . S
C1518 C1519 1.519 1_655 S
C1519 C1518 1.519 1_455 S
C1519 C1520 1.502 . S
C1519 C1521 1.561 . S
C1519 C1522 1.523 . S
C1520 H1504 0.962 . S
C1520 H1505 0.977 . S
C1520 H1506 0.942 1_455 S
C1520 C1519 1.502 . S
C1521 H1507 0.960 1_455 S
C1521 H1508 0.961 . S
C1521 H1509 0.959 . S
C1521 C1519 1.561 . S
C1522 C1519 1.523 . S
C1522 C1523 1.396 . S
C1522 C1527 1.390 . S
C1523 C1517 1.465 1_455 S
C1523 C1522 1.396 . S
C1523 C1524 1.399 . S
C1524 H1510 0.929 . S
C1524 C1523 1.399 . S
C1524 C1525 1.385 . S
C1525 H1511 0.931 . S
C1525 C1524 1.385 . S
C1525 C1526 1.389 . S
C1526 C1525 1.389 . S
C1526 C1527 1.387 . S
C1527 H1512 0.930 . S
C1527 C1522 1.390 . S
C1527 C1526 1.387 . S
H1528 C1540 0.930 . S
H1529 C1542 0.930 . S
H1530 C1543 0.930 . S
H1531 C1547 0.959 1_554 S
H1532 C1547 0.959 . S
H1533 C1547 0.961 . S
H1534 C1548 0.960 . S
H1535 C1548 0.961 . S
H1536 C1548 0.959 . S
H1537 C1551 0.929 . S
H1538 C1552 0.931 . S
H1539 C1554 0.930 . S
C1540 H1528 0.930 . S
C1540 C1541 1.399 . S
C1540 C1545 1.399 . S
C1541 C1540 1.399 . S
C1541 C1542 1.376 . S
C1542 H1529 0.930 . S
C1542 C1541 1.376 . S
C1542 C1543 1.388 . S
C1543 H1530 0.930 . S
C1543 C1542 1.388 . S
C1543 C1544 1.390 . S
C1544 C1543 1.390 . S
C1544 C1545 1.394 . S
C1544 C1550 1.465 . S
C1545 C1540 1.399 . S
C1545 C1544 1.394 . S
C1545 C1546 1.516 . S
C1546 C1545 1.516 . S
C1546 C1547 1.502 1_554 S
C1546 C1548 1.561 1_554 S
C1546 C1549 1.526 . S
C1547 H1531 0.959 1_556 S
C1547 H1532 0.959 . S
C1547 H1533 0.961 . S
C1547 C1546 1.502 1_556 S
C1548 H1534 0.960 . S
C1548 H1535 0.961 . S
C1548 H1536 0.959 . S
C1548 C1546 1.561 1_556 S
C1549 C1546 1.526 . S
C1549 C1550 1.396 . S
C1549 C1554 1.390 . S
C1550 C1544 1.465 . S
C1550 C1549 1.396 . S
C1550 C1551 1.399 . S
C1551 H1537 0.929 . S
C1551 C1550 1.399 . S
C1551 C1552 1.385 . S
C1552 H1538 0.931 . S
C1552 C1551 1.385 . S
C1552 C1553 1.389 . S
C1553 C1552 1.389 . S
C1553 C1554 1.387 . S
C1554 H1539 0.930 . S
C1554 C1549 1.390 . S
C1554 C1553 1.387 . S
H1555 C1567 0.930 . S
H1556 C1569 0.930 . S
H1557 C1570 0.930 . S
H1558 C1574 0.959 . S
H1559 C1574 0.959 . S
H1560 C1574 0.961 . S
H1561 C1575 0.960 . S
H1562 C1575 0.961 . S
H1563 C1575 0.959 . S
H1564 C1578 0.929 . S
H1565 C1579 0.931 . S
H1566 C1581 0.930 . S
C1567 H1555 0.930 . S
C1567 C1568 1.399 . S
C1567 C1572 1.399 . S
C1568 C1567 1.399 . S
C1568 C1569 1.376 . S
C1569 H1556 0.930 . S
C1569 C1568 1.376 . S
C1569 C1570 1.388 . S
C1570 H1557 0.930 . S
C1570 C1569 1.388 . S
C1570 C1571 1.390 . S
C1571 C1570 1.390 . S
C1571 C1572 1.394 . S
C1571 C1577 1.465 . S
C1572 C1567 1.399 . S
C1572 C1571 1.394 . S
C1572 C1573 1.516 . S
C1573 C1572 1.516 . S
C1573 C1574 1.502 . S
C1573 C1575 1.561 . S
C1573 C1576 1.526 . S
C1574 H1558 0.959 . S
C1574 H1559 0.959 . S
C1574 H1560 0.961 . S
C1574 C1573 1.502 . S
C1575 H1561 0.960 . S
C1575 H1562 0.961 . S
C1575 H1563 0.959 . S
C1575 C1573 1.561 . S
C1576 C1573 1.526 . S
C1576 C1577 1.396 . S
C1576 C1581 1.390 . S
C1577 C1571 1.465 . S
C1577 C1576 1.396 . S
C1577 C1578 1.399 . S
C1578 H1564 0.929 . S
C1578 C1577 1.399 . S
C1578 C1579 1.385 . S
C1579 H1565 0.931 . S
C1579 C1578 1.385 . S
C1579 C1580 1.389 . S
C1580 C1579 1.389 . S
C1580 C1581 1.387 . S
C1581 H1566 0.930 . S
C1581 C1576 1.390 . S
C1581 C1580 1.387 . S
H1582 C1594 0.930 . S
H1583 C1596 0.930 . S
H1584 C1597 0.930 . S
H1585 C1601 0.959 . S
H1586 C1601 0.959 . S
H1587 C1601 0.961 . S
H1588 C1602 0.960 . S
H1589 C1602 0.961 . S
H1590 C1602 0.959 . S
H1591 C1605 0.929 . S
H1592 C1606 0.931 . S
H1593 C1608 0.930 . S
C1594 H1582 0.930 . S
C1594 C1595 1.399 1_556 S
C1594 C1599 1.399 . S
C1595 C1594 1.399 1_554 S
C1595 C1596 1.376 . S
C1596 H1583 0.930 . S
C1596 C1595 1.376 . S
C1596 C1597 1.388 . S
C1597 H1584 0.930 . S
C1597 C1596 1.388 . S
C1597 C1598 1.390 . S
C1598 C1597 1.390 . S
C1598 C1599 1.394 1_554 S
C1598 C1604 1.465 . S
C1599 C1594 1.399 . S
C1599 C1598 1.394 1_556 S
C1599 C1600 1.516 . S
C1600 C1599 1.516 . S
C1600 C1601 1.502 . S
C1600 C1602 1.561 . S
C1600 C1603 1.526 . S
C1601 H1585 0.959 . S
C1601 H1586 0.959 . S
C1601 H1587 0.961 . S
C1601 C1600 1.502 . S
C1602 H1588 0.960 . S
C1602 H1589 0.961 . S
C1602 H1590 0.959 . S
C1602 C1600 1.561 . S
C1603 C1600 1.526 . S
C1603 C1604 1.396 1_556 S
C1603 C1608 1.390 . S
C1604 C1598 1.465 . S
C1604 C1603 1.396 1_554 S
C1604 C1605 1.399 . S
C1605 H1591 0.929 . S
C1605 C1604 1.399 . S
C1605 C1606 1.385 . S
C1606 H1592 0.931 . S
C1606 C1605 1.385 . S
C1606 C1607 1.389 . S
C1607 C1606 1.389 . S
C1607 C1608 1.387 1_554 S
C1608 H1593 0.930 . S
C1608 C1603 1.390 . S
C1608 C1607 1.387 1_556 S
H1609 C1621 0.930 . S
H1610 C1623 0.930 . S
H1611 C1624 0.930 . S
H1612 C1628 0.959 . S
H1613 C1628 0.959 . S
H1614 C1628 0.961 . S
H1615 C1629 0.960 . S
H1616 C1629 0.961 . S
H1617 C1629 0.959 . S
H1618 C1632 0.929 . S
H1619 C1633 0.931 . S
H1620 C1635 0.930 . S
C1621 H1609 0.930 . S
C1621 C1622 1.399 . S
C1621 C1626 1.399 . S
C1622 C1621 1.399 . S
C1622 C1623 1.376 . S
C1623 H1610 0.930 . S
C1623 C1622 1.376 . S
C1623 C1624 1.388 . S
C1624 H1611 0.930 . S
C1624 C1623 1.388 . S
C1624 C1625 1.390 . S
C1625 C1624 1.390 . S
C1625 C1626 1.394 . S
C1625 C1631 1.465 . S
C1626 C1621 1.399 . S
C1626 C1625 1.394 . S
C1626 C1627 1.516 . S
C1627 C1626 1.516 . S
C1627 C1628 1.502 . S
C1627 C1629 1.561 . S
C1627 C1630 1.526 . S
C1628 H1612 0.959 . S
C1628 H1613 0.959 . S
C1628 H1614 0.961 . S
C1628 C1627 1.502 . S
C1629 H1615 0.960 . S
C1629 H1616 0.961 . S
C1629 H1617 0.959 . S
C1629 C1627 1.561 . S
C1630 C1627 1.526 . S
C1630 C1631 1.396 . S
C1630 C1635 1.390 . S
C1631 C1625 1.465 . S
C1631 C1630 1.396 . S
C1631 C1632 1.399 . S
C1632 H1618 0.929 . S
C1632 C1631 1.399 . S
C1632 C1633 1.385 . S
C1633 H1619 0.931 . S
C1633 C1632 1.385 . S
C1633 C1634 1.389 . S
C1634 C1633 1.389 . S
C1634 C1635 1.387 . S
C1635 H1620 0.930 . S
C1635 C1630 1.390 . S
C1635 C1634 1.387 . S
H1636 C1648 0.930 . S
H1637 C1650 0.930 . S
H1638 C1651 0.930 . S
H1639 C1655 0.959 . S
H1640 C1655 0.959 . S
H1641 C1655 0.961 . S
H1642 C1656 0.960 . S
H1643 C1656 0.961 . S
H1644 C1656 0.959 . S
H1645 C1659 0.929 . S
H1646 C1660 0.931 . S
H1647 C1662 0.930 . S
C1648 H1636 0.930 . S
C1648 C1649 1.399 . S
C1648 C1653 1.399 . S
C1649 C1648 1.399 . S
C1649 C1650 1.376 . S
C1650 H1637 0.930 . S
C1650 C1649 1.376 . S
C1650 C1651 1.388 . S
C1651 H1638 0.930 . S
C1651 C1650 1.388 . S
C1651 C1652 1.390 . S
C1652 C1651 1.390 . S
C1652 C1653 1.394 . S
C1652 C1658 1.465 . S
C1653 C1648 1.399 . S
C1653 C1652 1.394 . S
C1653 C1654 1.516 . S
C1654 C1653 1.516 . S
C1654 C1655 1.502 . S
C1654 C1656 1.561 . S
C1654 C1657 1.526 . S
C1655 H1639 0.959 . S
C1655 H1640 0.959 . S
C1655 H1641 0.961 . S
C1655 C1654 1.502 . S
C1656 H1642 0.960 . S
C1656 H1643 0.961 . S
C1656 H1644 0.959 . S
C1656 C1654 1.561 . S
C1657 C1654 1.526 . S
C1657 C1658 1.396 . S
C1657 C1662 1.390 . S
C1658 C1652 1.465 . S
C1658 C1657 1.396 . S
C1658 C1659 1.399 . S
C1659 H1645 0.929 . S
C1659 C1658 1.399 . S
C1659 C1660 1.385 . S
C1660 H1646 0.931 . S
C1660 C1659 1.385 . S
C1660 C1661 1.389 . S
C1661 C1660 1.389 . S
C1661 C1662 1.387 . S
C1662 H1647 0.930 . S
C1662 C1657 1.390 . S
C1662 C1661 1.387 . S
H1663 C1675 0.930 . S
H1664 C1677 0.930 . S
H1665 C1678 0.930 . S
H1666 C1682 0.962 . S
H1667 C1682 0.977 . S
H1668 C1682 0.942 1_655 S
H1669 C1683 0.960 1_655 S
H1670 C1683 0.961 . S
H1671 C1683 0.959 . S
H1672 C1686 0.929 . S
H1673 C1687 0.931 . S
H1674 C1689 0.930 . S
C1675 H1663 0.930 . S
C1675 C1676 1.399 . S
C1675 C1680 1.399 . S
C1676 C1675 1.399 . S
C1676 C1677 1.376 . S
C1677 H1664 0.930 . S
C1677 C1676 1.376 . S
C1677 C1678 1.388 . S
C1678 H1665 0.930 . S
C1678 C1677 1.388 . S
C1678 C1679 1.390 . S
C1679 C1678 1.390 . S
C1679 C1680 1.394 . S
C1679 C1685 1.465 1_655 S
C1680 C1675 1.399 . S
C1680 C1679 1.394 . S
C1680 C1681 1.519 1_655 S
C1681 C1680 1.519 1_455 S
C1681 C1682 1.502 . S
C1681 C1683 1.561 . S
C1681 C1684 1.523 . S
C1682 H1666 0.962 . S
C1682 H1667 0.977 . S
C1682 H1668 0.942 1_455 S
C1682 C1681 1.502 . S
C1683 H1669 0.960 1_455 S
C1683 H1670 0.961 . S
C1683 H1671 0.959 . S
C1683 C1681 1.561 . S
C1684 C1681 1.523 . S
C1684 C1685 1.396 . S
C1684 C1689 1.390 . S
C1685 C1679 1.465 1_455 S
C1685 C1684 1.396 . S
C1685 C1686 1.399 . S
C1686 H1672 0.929 . S
C1686 C1685 1.399 . S
C1686 C1687 1.385 . S
C1687 H1673 0.931 . S
C1687 C1686 1.385 . S
C1687 C1688 1.389 . S
C1688 C1687 1.389 . S
C1688 C1689 1.387 . S
C1689 H1674 0.930 . S
C1689 C1684 1.390 . S
C1689 C1688 1.387 . S
H1690 C1702 0.930 . S
H1691 C1704 0.930 . S
H1692 C1705 0.930 . S
H1693 C1709 0.962 . S
H1694 C1709 0.977 . S
H1695 C1709 0.942 1_655 S
H1696 C1710 0.960 1_655 S
H1697 C1710 0.961 . S
H1698 C1710 0.959 . S
H1699 C1713 0.929 . S
H1700 C1714 0.931 . S
H1701 C1716 0.930 . S
C1702 H1690 0.930 . S
C1702 C1703 1.399 . S
C1702 C1707 1.399 . S
C1703 C1702 1.399 . S
C1703 C1704 1.376 . S
C1704 H1691 0.930 . S
C1704 C1703 1.376 . S
C1704 C1705 1.388 . S
C1705 H1692 0.930 . S
C1705 C1704 1.388 . S
C1705 C1706 1.390 . S
C1706 C1705 1.390 . S
C1706 C1707 1.394 . S
C1706 C1712 1.465 1_655 S
C1707 C1702 1.399 . S
C1707 C1706 1.394 . S
C1707 C1708 1.519 1_655 S
C1708 C1707 1.519 1_455 S
C1708 C1709 1.502 . S
C1708 C1710 1.561 . S
C1708 C1711 1.523 . S
C1709 H1693 0.962 . S
C1709 H1694 0.977 . S
C1709 H1695 0.942 1_455 S
C1709 C1708 1.502 . S
C1710 H1696 0.960 1_455 S
C1710 H1697 0.961 . S
C1710 H1698 0.959 . S
C1710 C1708 1.561 . S
C1711 C1708 1.523 . S
C1711 C1712 1.396 . S
C1711 C1716 1.390 . S
C1712 C1706 1.465 1_455 S
C1712 C1711 1.396 . S
C1712 C1713 1.399 . S
C1713 H1699 0.929 . S
C1713 C1712 1.399 . S
C1713 C1714 1.385 . S
C1714 H1700 0.931 . S
C1714 C1713 1.385 . S
C1714 C1715 1.389 . S
C1715 C1714 1.389 . S
C1715 C1716 1.387 . S
C1716 H1701 0.930 . S
C1716 C1711 1.390 . S
C1716 C1715 1.387 . S
H1717 C1729 0.930 . S
H1718 C1731 0.930 . S
H1719 C1732 0.930 . S
H1720 C1736 0.959 . S
H1721 C1736 0.959 . S
H1722 C1736 0.961 . S
H1723 C1737 0.960 . S
H1724 C1737 0.961 . S
H1725 C1737 0.959 . S
H1726 C1740 0.929 . S
H1727 C1741 0.931 . S
H1728 C1743 0.930 . S
C1729 H1717 0.930 . S
C1729 C1730 1.399 . S
C1729 C1734 1.399 . S
C1730 C1729 1.399 . S
C1730 C1731 1.376 . S
C1731 H1718 0.930 . S
C1731 C1730 1.376 . S
C1731 C1732 1.388 . S
C1732 H1719 0.930 . S
C1732 C1731 1.388 . S
C1732 C1733 1.390 . S
C1733 C1732 1.390 . S
C1733 C1734 1.394 . S
C1733 C1739 1.465 . S
C1734 C1729 1.399 . S
C1734 C1733 1.394 . S
C1734 C1735 1.516 . S
C1735 C1734 1.516 . S
C1735 C1736 1.502 . S
C1735 C1737 1.561 . S
C1735 C1738 1.526 . S
C1736 H1720 0.959 . S
C1736 H1721 0.959 . S
C1736 H1722 0.961 . S
C1736 C1735 1.502 . S
C1737 H1723 0.960 . S
C1737 H1724 0.961 . S
C1737 H1725 0.959 . S
C1737 C1735 1.561 . S
C1738 C1735 1.526 . S
C1738 C1739 1.396 . S
C1738 C1743 1.390 . S
C1739 C1733 1.465 . S
C1739 C1738 1.396 . S
C1739 C1740 1.399 . S
C1740 H1726 0.929 . S
C1740 C1739 1.399 . S
C1740 C1741 1.385 . S
C1741 H1727 0.931 . S
C1741 C1740 1.385 . S
C1741 C1742 1.389 . S
C1742 C1741 1.389 . S
C1742 C1743 1.387 . S
C1743 H1728 0.930 . S
C1743 C1738 1.390 . S
C1743 C1742 1.387 . S
H1744 C1756 0.930 . S
H1745 C1758 0.930 . S
H1746 C1759 0.930 . S
H1747 C1763 0.959 . S
H1748 C1763 0.959 . S
H1749 C1763 0.961 . S
H1750 C1764 0.960 . S
H1751 C1764 0.961 . S
H1752 C1764 0.959 . S
H1753 C1767 0.929 . S
H1754 C1768 0.931 . S
H1755 C1770 0.930 . S
C1756 H1744 0.930 . S
C1756 C1757 1.399 . S
C1756 C1761 1.399 . S
C1757 C1756 1.399 . S
C1757 C1758 1.376 . S
C1758 H1745 0.930 . S
C1758 C1757 1.376 . S
C1758 C1759 1.388 . S
C1759 H1746 0.930 . S
C1759 C1758 1.388 . S
C1759 C1760 1.390 . S
C1760 C1759 1.390 . S
C1760 C1761 1.394 . S
C1760 C1766 1.465 . S
C1761 C1756 1.399 . S
C1761 C1760 1.394 . S
C1761 C1762 1.516 . S
C1762 C1761 1.516 . S
C1762 C1763 1.502 . S
C1762 C1764 1.561 . S
C1762 C1765 1.526 . S
C1763 H1747 0.959 . S
C1763 H1748 0.959 . S
C1763 H1749 0.961 . S
C1763 C1762 1.502 . S
C1764 H1750 0.960 . S
C1764 H1751 0.961 . S
C1764 H1752 0.959 . S
C1764 C1762 1.561 . S
C1765 C1762 1.526 . S
C1765 C1766 1.396 . S
C1765 C1770 1.390 . S
C1766 C1760 1.465 . S
C1766 C1765 1.396 . S
C1766 C1767 1.399 . S
C1767 H1753 0.929 . S
C1767 C1766 1.399 . S
C1767 C1768 1.385 . S
C1768 H1754 0.931 . S
C1768 C1767 1.385 . S
C1768 C1769 1.389 . S
C1769 C1768 1.389 . S
C1769 C1770 1.387 . S
C1770 H1755 0.930 . S
C1770 C1765 1.390 . S
C1770 C1769 1.387 . S
H1771 C1783 0.930 . S
H1772 C1785 0.930 . S
H1773 C1786 0.906 1_545 S
H1774 C1790 0.959 . S
H1775 C1790 0.959 . S
H1776 C1790 0.961 . S
H1777 C1791 0.960 . S
H1778 C1791 0.961 . S
H1779 C1791 0.959 . S
H1780 C1794 0.929 . S
H1781 C1795 0.931 . S
H1782 C1797 0.930 . S
C1783 H1771 0.930 . S
C1783 C1784 1.399 . S
C1783 C1788 1.399 . S
C1784 C1783 1.399 . S
C1784 C1785 1.376 . S
C1785 H1772 0.930 . S
C1785 C1784 1.376 . S
C1785 C1786 1.412 . S
C1786 H1773 0.906 1_565 S
C1786 C1785 1.412 . S
C1786 C1787 1.392 . S
C1787 C1786 1.392 . S
C1787 C1788 1.394 . S
C1787 C1793 1.465 1_565 S
C1788 C1783 1.399 . S
C1788 C1787 1.394 . S
C1788 C1789 1.516 . S
C1789 C1788 1.516 . S
C1789 C1790 1.502 . S
C1789 C1791 1.561 . S
C1789 C1792 1.526 1_565 S
C1790 H1774 0.959 . S
C1790 H1775 0.959 . S
C1790 H1776 0.961 . S
C1790 C1789 1.502 . S
C1791 H1777 0.960 . S
C1791 H1778 0.961 . S
C1791 H1779 0.959 . S
C1791 C1789 1.561 . S
C1792 C1789 1.526 1_545 S
C1792 C1793 1.396 . S
C1792 C1797 1.390 . S
C1793 C1787 1.465 1_545 S
C1793 C1792 1.396 . S
C1793 C1794 1.399 . S
C1794 H1780 0.929 . S
C1794 C1793 1.399 . S
C1794 C1795 1.385 . S
C1795 H1781 0.931 . S
C1795 C1794 1.385 . S
C1795 C1796 1.389 . S
C1796 C1795 1.389 . S
C1796 C1797 1.387 . S
C1797 H1782 0.930 . S
C1797 C1792 1.390 . S
C1797 C1796 1.387 . S
H1798 C1810 0.930 . S
H1799 C1812 0.930 . S
H1800 C1813 0.930 . S
H1801 C1817 0.959 . S
H1802 C1817 0.959 . S
H1803 C1817 0.961 . S
H1804 C1818 0.960 . S
H1805 C1818 0.961 . S
H1806 C1818 0.959 . S
H1807 C1821 0.929 . S
H1808 C1822 0.931 . S
H1809 C1824 0.930 . S
C1810 H1798 0.930 . S
C1810 C1811 1.399 . S
C1810 C1815 1.399 . S
C1811 C1810 1.399 . S
C1811 C1812 1.376 . S
C1812 H1799 0.930 . S
C1812 C1811 1.376 . S
C1812 C1813 1.388 . S
C1813 H1800 0.930 . S
C1813 C1812 1.388 . S
C1813 C1814 1.390 . S
C1814 C1813 1.390 . S
C1814 C1815 1.394 . S
C1814 C1820 1.465 . S
C1815 C1810 1.399 . S
C1815 C1814 1.394 . S
C1815 C1816 1.516 . S
C1816 C1815 1.516 . S
C1816 C1817 1.502 . S
C1816 C1818 1.561 . S
C1816 C1819 1.526 . S
C1817 H1801 0.959 . S
C1817 H1802 0.959 . S
C1817 H1803 0.961 . S
C1817 C1816 1.502 . S
C1818 H1804 0.960 . S
C1818 H1805 0.961 . S
C1818 H1806 0.959 . S
C1818 C1816 1.561 . S
C1819 C1816 1.526 . S
C1819 C1820 1.396 . S
C1819 C1824 1.390 . S
C1820 C1814 1.465 . S
C1820 C1819 1.396 . S
C1820 C1821 1.399 . S
C1821 H1807 0.929 . S
C1821 C1820 1.399 . S
C1821 C1822 1.385 . S
C1822 H1808 0.931 . S
C1822 C1821 1.385 . S
C1822 C1823 1.389 . S
C1823 C1822 1.389 . S
C1823 C1824 1.387 . S
C1824 H1809 0.930 . S
C1824 C1819 1.390 . S
C1824 C1823 1.387 . S
H1825 C1837 0.930 . S
H1826 C1839 0.930 . S
H1827 C1840 0.930 . S
H1828 C1844 0.959 1_554 S
H1829 C1844 0.959 1_554 S
H1830 C1844 0.961 . S
H1831 C1845 0.960 . S
H1832 C1845 0.961 . S
H1833 C1845 0.959 . S
H1834 C1848 0.929 . S
H1835 C1849 0.931 . S
H1836 C1851 0.930 . S
C1837 H1825 0.930 . S
C1837 C1838 1.399 . S
C1837 C1842 1.399 . S
C1838 C1837 1.399 . S
C1838 C1839 1.376 . S
C1839 H1826 0.930 . S
C1839 C1838 1.376 . S
C1839 C1840 1.388 1_556 S
C1840 H1827 0.930 . S
C1840 C1839 1.388 1_554 S
C1840 C1841 1.390 . S
C1841 C1840 1.390 . S
C1841 C1842 1.394 1_554 S
C1841 C1847 1.463 . S
C1842 C1837 1.399 . S
C1842 C1841 1.394 1_556 S
C1842 C1843 1.516 1_546 S
C1843 C1842 1.516 1_564 S
C1843 C1844 1.502 1_554 S
C1843 C1845 1.561 1_554 S
C1843 C1846 1.526 . S
C1844 H1828 0.959 1_556 S
C1844 H1829 0.959 1_556 S
C1844 H1830 0.961 . S
C1844 C1843 1.502 1_556 S
C1845 H1831 0.960 . S
C1845 H1832 0.961 . S
C1845 H1833 0.959 . S
C1845 C1843 1.561 1_556 S
C1846 C1843 1.526 . S
C1846 C1847 1.399 1_565 S
C1846 C1851 1.390 . S
C1847 C1841 1.463 . S
C1847 C1846 1.399 1_545 S
C1847 C1848 1.398 . S
C1848 H1834 0.929 . S
C1848 C1847 1.398 . S
C1848 C1849 1.385 1_545 S
C1849 H1835 0.931 . S
C1849 C1848 1.385 1_565 S
C1849 C1850 1.389 . S
C1850 C1849 1.389 . S
C1850 C1851 1.387 . S
C1851 H1836 0.930 . S
C1851 C1846 1.390 . S
C1851 C1850 1.387 . S
H1852 C1864 0.930 . S
H1853 C1866 0.930 . S
H1854 C1867 0.930 . S
H1855 C1871 0.959 . S
H1856 C1871 0.959 . S
H1857 C1871 0.961 . S
H1858 C1872 0.960 . S
H1859 C1872 0.961 . S
H1860 C1872 0.959 . S
H1861 C1875 0.929 . S
H1862 C1876 0.931 . S
H1863 C1878 0.930 . S
C1864 H1852 0.930 . S
C1864 C1865 1.399 . S
C1864 C1869 1.399 . S
C1865 C1864 1.399 . S
C1865 C1866 1.376 . S
C1866 H1853 0.930 . S
C1866 C1865 1.376 . S
C1866 C1867 1.388 . S
C1867 H1854 0.930 . S
C1867 C1866 1.388 . S
C1867 C1868 1.390 . S
C1868 C1867 1.390 . S
C1868 C1869 1.394 . S
C1868 C1874 1.465 . S
C1869 C1864 1.399 . S
C1869 C1868 1.394 . S
C1869 C1870 1.516 . S
C1870 C1869 1.516 . S
C1870 C1871 1.502 . S
C1870 C1872 1.561 . S
C1870 C1873 1.526 . S
C1871 H1855 0.959 . S
C1871 H1856 0.959 . S
C1871 H1857 0.961 . S
C1871 C1870 1.502 . S
C1872 H1858 0.960 . S
C1872 H1859 0.961 . S
C1872 H1860 0.959 . S
C1872 C1870 1.561 . S
C1873 C1870 1.526 . S
C1873 C1874 1.396 . S
C1873 C1878 1.390 . S
C1874 C1868 1.465 . S
C1874 C1873 1.396 . S
C1874 C1875 1.399 . S
C1875 H1861 0.929 . S
C1875 C1874 1.399 . S
C1875 C1876 1.385 . S
C1876 H1862 0.931 . S
C1876 C1875 1.385 . S
C1876 C1877 1.389 . S
C1877 C1876 1.389 . S
C1877 C1878 1.387 . S
C1878 H1863 0.930 . S
C1878 C1873 1.390 . S
C1878 C1877 1.387 . S
H1879 C1891 0.930 . S
H1880 C1893 0.930 . S
H1881 C1894 0.930 1_565 S
H1882 C1898 0.959 . S
H1883 C1898 0.959 . S
H1884 C1898 0.961 . S
H1885 C1899 0.921 1_545 S
H1886 C1899 0.976 . S
H1887 C1899 1.012 . S
H1888 C1902 0.929 . S
H1889 C1903 0.931 . S
H1890 C1905 0.930 . S
C1891 H1879 0.930 . S
C1891 C1892 1.399 . S
C1891 C1896 1.399 . S
C1892 C1891 1.399 . S
C1892 C1893 1.376 . S
C1893 H1880 0.930 . S
C1893 C1892 1.376 . S
C1893 C1894 1.388 . S
C1894 H1881 0.930 1_545 S
C1894 C1893 1.388 . S
C1894 C1895 1.392 . S
C1895 C1894 1.392 . S
C1895 C1896 1.411 . S
C1895 C1901 1.449 1_545 S
C1896 C1891 1.399 . S
C1896 C1895 1.411 . S
C1896 C1897 1.516 . S
C1897 C1896 1.516 . S
C1897 C1898 1.502 . S
C1897 C1899 1.537 1_545 S
C1897 C1900 1.526 1_545 S
C1898 H1882 0.959 . S
C1898 H1883 0.959 . S
C1898 H1884 0.961 . S
C1898 C1897 1.502 . S
C1899 H1885 0.921 1_565 S
C1899 H1886 0.976 . S
C1899 H1887 1.012 . S
C1899 C1897 1.537 1_565 S
C1900 C1897 1.526 1_565 S
C1900 C1901 1.396 . S
C1900 C1905 1.390 . S
C1901 C1895 1.449 1_565 S
C1901 C1900 1.396 . S
C1901 C1902 1.399 . S
C1902 H1888 0.929 . S
C1902 C1901 1.399 . S
C1902 C1903 1.385 . S
C1903 H1889 0.931 . S
C1903 C1902 1.385 . S
C1903 C1904 1.389 . S
C1904 C1903 1.389 . S
C1904 C1905 1.387 . S
C1905 H1890 0.930 . S
C1905 C1900 1.390 . S
C1905 C1904 1.387 . S
H1906 C1918 0.930 . S
H1907 C1920 0.930 . S
H1908 C1921 0.930 . S
H1909 C1925 0.959 . S
H1910 C1925 0.959 . S
H1911 C1925 0.961 . S
H1912 C1926 0.960 . S
H1913 C1926 0.961 . S
H1914 C1926 0.959 . S
H1915 C1929 0.929 . S
H1916 C1930 0.931 . S
H1917 C1932 0.930 . S
C1918 H1906 0.930 . S
C1918 C1919 1.399 . S
C1918 C1923 1.399 . S
C1919 C1918 1.399 . S
C1919 C1920 1.376 . S
C1920 H1907 0.930 . S
C1920 C1919 1.376 . S
C1920 C1921 1.388 . S
C1921 H1908 0.930 . S
C1921 C1920 1.388 . S
C1921 C1922 1.390 . S
C1922 C1921 1.390 . S
C1922 C1923 1.394 . S
C1922 C1928 1.465 . S
C1923 C1918 1.399 . S
C1923 C1922 1.394 . S
C1923 C1924 1.516 . S
C1924 C1923 1.516 . S
C1924 C1925 1.502 . S
C1924 C1926 1.561 . S
C1924 C1927 1.526 . S
C1925 H1909 0.959 . S
C1925 H1910 0.959 . S
C1925 H1911 0.961 . S
C1925 C1924 1.502 . S
C1926 H1912 0.960 . S
C1926 H1913 0.961 . S
C1926 H1914 0.959 . S
C1926 C1924 1.561 . S
C1927 C1924 1.526 . S
C1927 C1928 1.396 . S
C1927 C1932 1.390 . S
C1928 C1922 1.465 . S
C1928 C1927 1.396 . S
C1928 C1929 1.399 . S
C1929 H1915 0.929 . S
C1929 C1928 1.399 . S
C1929 C1930 1.385 . S
C1930 H1916 0.931 . S
C1930 C1929 1.385 . S
C1930 C1931 1.389 . S
C1931 C1930 1.389 . S
C1931 C1932 1.387 . S
C1932 H1917 0.930 . S
C1932 C1927 1.390 . S
C1932 C1931 1.387 . S
H1933 C1945 0.930 . S
H1934 C1947 0.930 . S
H1935 C1948 0.930 . S
H1936 C1952 0.959 . S
H1937 C1952 0.959 . S
H1938 C1952 0.961 . S
H1939 C1953 0.960 . S
H1940 C1953 0.961 . S
H1941 C1953 0.959 . S
H1942 C1956 0.929 . S
H1943 C1957 0.931 . S
H1944 C1959 0.930 . S
C1945 H1933 0.930 . S
C1945 C1946 1.399 . S
C1945 C1950 1.399 . S
C1946 C1945 1.399 . S
C1946 C1947 1.376 . S
C1947 H1934 0.930 . S
C1947 C1946 1.376 . S
C1947 C1948 1.388 . S
C1948 H1935 0.930 . S
C1948 C1947 1.388 . S
C1948 C1949 1.390 . S
C1949 C1948 1.390 . S
C1949 C1950 1.394 . S
C1949 C1955 1.482 . S
C1950 C1945 1.399 . S
C1950 C1949 1.394 . S
C1950 C1951 1.516 1_565 S
C1951 C1950 1.516 1_545 S
C1951 C1952 1.502 . S
C1951 C1953 1.561 . S
C1951 C1954 1.526 . S
C1952 H1936 0.959 . S
C1952 H1937 0.959 . S
C1952 H1938 0.961 . S
C1952 C1951 1.502 . S
C1953 H1939 0.960 . S
C1953 H1940 0.961 . S
C1953 H1941 0.959 . S
C1953 C1951 1.561 . S
C1954 C1951 1.526 . S
C1954 C1955 1.370 1_545 S
C1954 C1959 1.390 1_554 S
C1955 C1949 1.482 . S
C1955 C1954 1.370 1_565 S
C1955 C1956 1.404 1_554 S
C1956 H1942 0.929 . S
C1956 C1955 1.404 1_556 S
C1956 C1957 1.385 1_565 S
C1957 H1943 0.931 . S
C1957 C1956 1.385 1_545 S
C1957 C1958 1.389 . S
C1958 C1957 1.389 . S
C1958 C1959 1.387 . S
C1959 H1944 0.930 . S
C1959 C1954 1.390 1_556 S
C1959 C1958 1.387 . S
H1960 C1972 0.930 . S
H1961 C1974 0.930 . S
H1962 C1975 0.930 . S
H1963 C1979 0.959 . S
H1964 C1979 0.959 . S
H1965 C1979 0.961 . S
H1966 C1980 0.960 . S
H1967 C1980 0.961 . S
H1968 C1980 0.959 . S
H1969 C1983 0.929 . S
H1970 C1984 0.931 . S
H1971 C1986 0.930 . S
C1972 H1960 0.930 . S
C1972 C1973 1.399 . S
C1972 C1977 1.399 . S
C1973 C1972 1.399 . S
C1973 C1974 1.376 . S
C1974 H1961 0.930 . S
C1974 C1973 1.376 . S
C1974 C1975 1.388 . S
C1975 H1962 0.930 . S
C1975 C1974 1.388 . S
C1975 C1976 1.390 . S
C1976 C1975 1.390 . S
C1976 C1977 1.394 . S
C1976 C1982 1.465 . S
C1977 C1972 1.399 . S
C1977 C1976 1.394 . S
C1977 C1978 1.516 . S
C1978 C1977 1.516 . S
C1978 C1979 1.502 . S
C1978 C1980 1.561 . S
C1978 C1981 1.526 . S
C1979 H1963 0.959 . S
C1979 H1964 0.959 . S
C1979 H1965 0.961 . S
C1979 C1978 1.502 . S
C1980 H1966 0.960 . S
C1980 H1967 0.961 . S
C1980 H1968 0.959 . S
C1980 C1978 1.561 . S
C1981 C1978 1.526 . S
C1981 C1982 1.396 . S
C1981 C1986 1.390 . S
C1982 C1976 1.465 . S
C1982 C1981 1.396 . S
C1982 C1983 1.399 . S
C1983 H1969 0.929 . S
C1983 C1982 1.399 . S
C1983 C1984 1.385 . S
C1984 H1970 0.931 . S
C1984 C1983 1.385 . S
C1984 C1985 1.389 . S
C1985 C1984 1.389 . S
C1985 C1986 1.387 . S
C1986 H1971 0.930 . S
C1986 C1981 1.390 . S
C1986 C1985 1.387 . S
H1987 C1999 0.930 . S
H1988 C2001 0.930 . S
H1989 C2002 0.930 . S
H1990 C2006 0.959 . S
H1991 C2006 0.959 . S
H1992 C2006 0.961 . S
H1993 C2007 0.960 . S
H1994 C2007 0.961 . S
H1995 C2007 0.959 . S
H1996 C2010 0.929 . S
H1997 C2011 0.931 . S
H1998 C2013 0.930 . S
C1999 H1987 0.930 . S
C1999 C2000 1.399 . S
C1999 C2004 1.399 . S
C2000 C1999 1.399 . S
C2000 C2001 1.376 . S
C2001 H1988 0.930 . S
C2001 C2000 1.376 . S
C2001 C2002 1.388 . S
C2002 H1989 0.930 . S
C2002 C2001 1.388 . S
C2002 C2003 1.390 . S
C2003 C2002 1.390 . S
C2003 C2004 1.394 . S
C2003 C2009 1.465 . S
C2004 C1999 1.399 . S
C2004 C2003 1.394 . S
C2004 C2005 1.516 . S
C2005 C2004 1.516 . S
C2005 C2006 1.502 . S
C2005 C2007 1.561 . S
C2005 C2008 1.526 . S
C2006 H1990 0.959 . S
C2006 H1991 0.959 . S
C2006 H1992 0.961 . S
C2006 C2005 1.502 . S
C2007 H1993 0.960 . S
C2007 H1994 0.961 . S
C2007 H1995 0.959 . S
C2007 C2005 1.561 . S
C2008 C2005 1.526 . S
C2008 C2009 1.396 . S
C2008 C2013 1.390 1_554 S
C2009 C2003 1.465 . S
C2009 C2008 1.396 . S
C2009 C2010 1.399 1_554 S
C2010 H1996 0.929 . S
C2010 C2009 1.399 1_556 S
C2010 C2011 1.385 . S
C2011 H1997 0.931 . S
C2011 C2010 1.385 . S
C2011 C2012 1.389 . S
C2012 C2011 1.389 . S
C2012 C2013 1.387 . S
C2013 H1998 0.930 . S
C2013 C2008 1.390 1_556 S
C2013 C2012 1.387 . S
H2014 C2026 0.930 . S
H2015 C2028 0.930 . S
H2016 C2029 0.930 . S
H2017 C2033 0.959 . S
H2018 C2033 0.959 . S
H2019 C2033 0.961 . S
H2020 C2034 0.960 . S
H2021 C2034 0.961 . S
H2022 C2034 0.959 . S
H2023 C2037 0.929 . S
H2024 C2038 0.931 . S
H2025 C2040 0.930 . S
C2026 H2014 0.930 . S
C2026 C2027 1.399 . S
C2026 C2031 1.399 . S
C2027 C2026 1.399 . S
C2027 C2028 1.376 . S
C2028 H2015 0.930 . S
C2028 C2027 1.376 . S
C2028 C2029 1.388 . S
C2029 H2016 0.930 . S
C2029 C2028 1.388 . S
C2029 C2030 1.390 . S
C2030 C2029 1.390 . S
C2030 C2031 1.394 . S
C2030 C2036 1.465 . S
C2031 C2026 1.399 . S
C2031 C2030 1.394 . S
C2031 C2032 1.516 . S
C2032 C2031 1.516 . S
C2032 C2033 1.502 . S
C2032 C2034 1.561 . S
C2032 C2035 1.526 . S
C2033 H2017 0.959 . S
C2033 H2018 0.959 . S
C2033 H2019 0.961 . S
C2033 C2032 1.502 . S
C2034 H2020 0.960 . S
C2034 H2021 0.961 . S
C2034 H2022 0.959 . S
C2034 C2032 1.561 . S
C2035 C2032 1.526 . S
C2035 C2036 1.396 . S
C2035 C2040 1.390 . S
C2036 C2030 1.465 . S
C2036 C2035 1.396 . S
C2036 C2037 1.399 . S
C2037 H2023 0.929 . S
C2037 C2036 1.399 . S
C2037 C2038 1.385 . S
C2038 H2024 0.931 . S
C2038 C2037 1.385 . S
C2038 C2039 1.389 . S
C2039 C2038 1.389 . S
C2039 C2040 1.387 . S
C2040 H2025 0.930 . S
C2040 C2035 1.390 . S
C2040 C2039 1.387 . S
H2041 C2053 0.930 . S
H2042 C2055 0.930 . S
H2043 C2056 0.930 . S
H2044 C2060 0.959 . S
H2045 C2060 0.959 . S
H2046 C2060 0.961 . S
H2047 C2061 0.960 . S
H2048 C2061 0.961 . S
H2049 C2061 0.959 . S
H2050 C2064 0.929 . S
H2051 C2065 0.931 . S
H2052 C2067 0.930 . S
C2053 H2041 0.930 . S
C2053 C2054 1.399 . S
C2053 C2058 1.399 . S
C2054 C2053 1.399 . S
C2054 C2055 1.376 . S
C2055 H2042 0.930 . S
C2055 C2054 1.376 . S
C2055 C2056 1.388 . S
C2056 H2043 0.930 . S
C2056 C2055 1.388 . S
C2056 C2057 1.390 . S
C2057 C2056 1.390 . S
C2057 C2058 1.394 . S
C2057 C2063 1.465 . S
C2058 C2053 1.399 . S
C2058 C2057 1.394 . S
C2058 C2059 1.516 . S
C2059 C2058 1.516 . S
C2059 C2060 1.502 . S
C2059 C2061 1.561 . S
C2059 C2062 1.526 . S
C2060 H2044 0.959 . S
C2060 H2045 0.959 . S
C2060 H2046 0.961 . S
C2060 C2059 1.502 . S
C2061 H2047 0.960 . S
C2061 H2048 0.961 . S
C2061 H2049 0.959 . S
C2061 C2059 1.561 . S
C2062 C2059 1.526 . S
C2062 C2063 1.396 . S
C2062 C2067 1.390 . S
C2063 C2057 1.465 . S
C2063 C2062 1.396 . S
C2063 C2064 1.399 . S
C2064 H2050 0.929 . S
C2064 C2063 1.399 . S
C2064 C2065 1.385 . S
C2065 H2051 0.931 . S
C2065 C2064 1.385 . S
C2065 C2066 1.389 . S
C2066 C2065 1.389 . S
C2066 C2067 1.387 . S
C2067 H2052 0.930 . S
C2067 C2062 1.390 . S
C2067 C2066 1.387 . S
H2068 C2080 0.930 . S
H2069 C2082 0.930 . S
H2070 C2083 0.930 . S
H2071 C2087 0.959 . S
H2072 C2087 0.959 . S
H2073 C2087 0.961 . S
H2074 C2088 0.960 . S
H2075 C2088 0.961 . S
H2076 C2088 0.959 . S
H2077 C2091 0.929 . S
H2078 C2092 0.931 . S
H2079 C2094 0.930 . S
C2080 H2068 0.930 . S
C2080 C2081 1.399 . S
C2080 C2085 1.399 . S
C2081 C2080 1.399 . S
C2081 C2082 1.376 . S
C2082 H2069 0.930 . S
C2082 C2081 1.376 . S
C2082 C2083 1.388 . S
C2083 H2070 0.930 . S
C2083 C2082 1.388 . S
C2083 C2084 1.390 . S
C2084 C2083 1.390 . S
C2084 C2085 1.394 . S
C2084 C2090 1.465 . S
C2085 C2080 1.399 . S
C2085 C2084 1.394 . S
C2085 C2086 1.516 . S
C2086 C2085 1.516 . S
C2086 C2087 1.502 . S
C2086 C2088 1.561 . S
C2086 C2089 1.526 . S
C2087 H2071 0.959 . S
C2087 H2072 0.959 . S
C2087 H2073 0.961 . S
C2087 C2086 1.502 . S
C2088 H2074 0.960 . S
C2088 H2075 0.961 . S
C2088 H2076 0.959 . S
C2088 C2086 1.561 . S
C2089 C2086 1.526 . S
C2089 C2090 1.396 . S
C2089 C2094 1.390 . S
C2090 C2084 1.465 . S
C2090 C2089 1.396 . S
C2090 C2091 1.399 . S
C2091 H2077 0.929 . S
C2091 C2090 1.399 . S
C2091 C2092 1.385 . S
C2092 H2078 0.931 . S
C2092 C2091 1.385 . S
C2092 C2093 1.389 . S
C2093 C2092 1.389 . S
C2093 C2094 1.387 . S
C2094 H2079 0.930 . S
C2094 C2089 1.390 . S
C2094 C2093 1.387 . S
H2095 C2107 0.930 . S
H2096 C2109 0.930 . S
H2097 C2110 0.930 . S
H2098 C2114 0.959 . S
H2099 C2114 0.959 . S
H2100 C2114 0.961 . S
H2101 C2115 0.960 . S
H2102 C2115 0.961 . S
H2103 C2115 0.959 . S
H2104 C2118 0.929 . S
H2105 C2119 0.931 . S
H2106 C2121 0.930 . S
C2107 H2095 0.930 . S
C2107 C2108 1.399 . S
C2107 C2112 1.399 1_556 S
C2108 C2107 1.399 . S
C2108 C2109 1.376 . S
C2109 H2096 0.930 . S
C2109 C2108 1.376 . S
C2109 C2110 1.388 . S
C2110 H2097 0.930 . S
C2110 C2109 1.388 . S
C2110 C2111 1.390 . S
C2111 C2110 1.390 . S
C2111 C2112 1.394 1_556 S
C2111 C2117 1.465 1_556 S
C2112 C2107 1.399 1_554 S
C2112 C2111 1.394 1_554 S
C2112 C2113 1.516 . S
C2113 C2112 1.516 . S
C2113 C2114 1.502 . S
C2113 C2115 1.561 . S
C2113 C2116 1.526 . S
C2114 H2098 0.959 . S
C2114 H2099 0.959 . S
C2114 H2100 0.961 . S
C2114 C2113 1.502 . S
C2115 H2101 0.960 . S
C2115 H2102 0.961 . S
C2115 H2103 0.959 . S
C2115 C2113 1.561 . S
C2116 C2113 1.526 . S
C2116 C2117 1.396 . S
C2116 C2121 1.390 . S
C2117 C2111 1.465 1_554 S
C2117 C2116 1.396 . S
C2117 C2118 1.399 . S
C2118 H2104 0.929 . S
C2118 C2117 1.399 . S
C2118 C2119 1.385 . S
C2119 H2105 0.931 . S
C2119 C2118 1.385 . S
C2119 C2120 1.389 . S
C2120 C2119 1.389 . S
C2120 C2121 1.387 . S
C2121 H2106 0.930 . S
C2121 C2116 1.390 . S
C2121 C2120 1.387 . S
H2122 C2134 0.930 . S
H2123 C2136 0.930 . S
H2124 C2137 0.930 . S
H2125 C2141 0.959 . S
H2126 C2141 0.959 . S
H2127 C2141 0.961 . S
H2128 C2142 0.960 . S
H2129 C2142 0.961 . S
H2130 C2142 0.959 . S
H2131 C2145 0.929 . S
H2132 C2146 0.931 . S
H2133 C2148 0.930 . S
C2134 H2122 0.930 . S
C2134 C2135 1.399 . S
C2134 C2139 1.399 . S
C2135 C2134 1.399 . S
C2135 C2136 1.376 . S
C2136 H2123 0.930 . S
C2136 C2135 1.376 . S
C2136 C2137 1.388 . S
C2137 H2124 0.930 . S
C2137 C2136 1.388 . S
C2137 C2138 1.390 . S
C2138 C2137 1.390 . S
C2138 C2139 1.394 . S
C2138 C2144 1.465 . S
C2139 C2134 1.399 . S
C2139 C2138 1.394 . S
C2139 C2140 1.516 . S
C2140 C2139 1.516 . S
C2140 C2141 1.502 . S
C2140 C2142 1.561 . S
C2140 C2143 1.526 . S
C2141 H2125 0.959 . S
C2141 H2126 0.959 . S
C2141 H2127 0.961 . S
C2141 C2140 1.502 . S
C2142 H2128 0.960 . S
C2142 H2129 0.961 . S
C2142 H2130 0.959 . S
C2142 C2140 1.561 . S
C2143 C2140 1.526 . S
C2143 C2144 1.396 . S
C2143 C2148 1.390 . S
C2144 C2138 1.465 . S
C2144 C2143 1.396 . S
C2144 C2145 1.399 . S
C2145 H2131 0.929 . S
C2145 C2144 1.399 . S
C2145 C2146 1.385 . S
C2146 H2132 0.931 . S
C2146 C2145 1.385 . S
C2146 C2147 1.389 . S
C2147 C2146 1.389 . S
C2147 C2148 1.387 . S
C2148 H2133 0.930 . S
C2148 C2143 1.390 . S
C2148 C2147 1.387 . S
H2149 C2161 0.930 . S
H2150 C2163 0.930 . S
H2151 C2164 0.930 . S
H2152 C2168 0.959 . S
H2153 C2168 0.959 . S
H2154 C2168 0.961 . S
H2155 C2169 0.960 . S
H2156 C2169 0.961 . S
H2157 C2169 0.959 . S
H2158 C2172 0.929 . S
H2159 C2173 0.931 . S
H2160 C2175 0.930 . S
C2161 H2149 0.930 . S
C2161 C2162 1.399 . S
C2161 C2166 1.399 . S
C2162 C2161 1.399 . S
C2162 C2163 1.376 . S
C2163 H2150 0.930 . S
C2163 C2162 1.376 . S
C2163 C2164 1.388 . S
C2164 H2151 0.930 . S
C2164 C2163 1.388 . S
C2164 C2165 1.390 . S
C2165 C2164 1.390 . S
C2165 C2166 1.394 . S
C2165 C2171 1.465 . S
C2166 C2161 1.399 . S
C2166 C2165 1.394 . S
C2166 C2167 1.516 . S
C2167 C2166 1.516 . S
C2167 C2168 1.502 . S
C2167 C2169 1.561 . S
C2167 C2170 1.526 . S
C2168 H2152 0.959 . S
C2168 H2153 0.959 . S
C2168 H2154 0.961 . S
C2168 C2167 1.502 . S
C2169 H2155 0.960 . S
C2169 H2156 0.961 . S
C2169 H2157 0.959 . S
C2169 C2167 1.561 . S
C2170 C2167 1.526 . S
C2170 C2171 1.396 . S
C2170 C2175 1.390 . S
C2171 C2165 1.465 . S
C2171 C2170 1.396 . S
C2171 C2172 1.399 . S
C2172 H2158 0.929 . S
C2172 C2171 1.399 . S
C2172 C2173 1.385 . S
C2173 H2159 0.931 . S
C2173 C2172 1.385 . S
C2173 C2174 1.389 . S
C2174 C2173 1.389 . S
C2174 C2175 1.387 . S
C2175 H2160 0.930 . S
C2175 C2170 1.390 . S
C2175 C2174 1.387 . S
C461 C103 1.025 . S
C473 C5 1.133 1_556 S
C488 C19 1.124 . S
C500 C61 1.020 . S
C515 C75 1.154 . S
C527 C33 1.053 . S
C542 C47 1.072 . S
C554 C89 1.160 . S
C569 C117 1.149 . S
C581 C215 1.012 . S
C596 C131 1.041 . S
C608 C173 1.163 1_556 S
C623 C145 1.163 . S
C635 C187 1.032 . S
C650 C159 1.157 . S
C662 C201 1.079 . S
C677 C229 1.011 . S
C689 C327 1.052 . S
C704 C243 1.097 . S
C716 C285 1.163 . S
C731 C299 1.069 . S
C743 C257 1.160 1_556 S
C758 C313 1.139 . S
C770 C271 1.031 . S
C785 C341 1.023 . S
C797 C439 1.158 . S
C812 C397 1.160 . S
C824 C355 1.070 . S
C839 C411 1.008 . S
C851 C369 1.109 . S
C866 C383 1.164 . S
C878 C425 1.050 1_556 S
C893 C4 1.114 . S
C905 C88 1.159 . S
C920 C18 1.147 . S
C932 C102 1.144 . S
C947 C60 1.112 . S
C959 C32 1.060 . S
C974 C46 1.159 . S
C986 C74 1.106 . S
C1001 C116 1.159 . S
C1013 C200 1.134 . S
C1028 C130 1.131 . S
C1040 C214 1.158 . S
C1055 C172 1.158 . S
C1067 C144 1.131 . S
C1082 C186 1.129 . S
C1094 C158 1.157 . S
C1109 C228 1.108 . S
C1121 C312 1.060 . S
C1136 C326 1.160 . S
C1148 C242 1.114 . S
C1163 C284 1.111 . S
C1175 C256 1.159 . S
C1190 C270 1.058 . S
C1202 C298 1.108 . S
C1217 C340 1.155 . S
C1229 C424 1.154 . S
C1244 C354 1.090 . S
C1256 C438 1.061 . S
C1271 C396 1.063 . S
C1283 C368 1.100 . S
C1298 C410 1.155 . S
C1310 C382 1.154 . S
C1325 C12 1.297 . S
C1337 C432 1.302 . S
C1352 C26 1.294 . S
C1364 C222 1.299 . S
C1379 C40 1.294 . S
C1391 C404 1.299 . S
C1406 C54 1.298 . S
C1418 C194 1.304 . S
C1433 C68 1.299 . S
C1445 C376 1.305 . S
C1460 C82 1.301 . S
C1472 C166 1.296 . S
C1487 C96 1.294 . S
C1499 C348 1.300 . S
C1514 C138 1.320 . S
C1526 C110 1.315 . S
C1541 C320 1.293 . S
C1553 C124 1.298 . S
C1568 C152 1.290 . S
C1580 C292 1.294 . S
C1595 C264 1.318 . S
C1607 C180 1.313 . S
C1622 C236 1.295 . S
C1634 C208 1.301 . S
C1649 C250 1.310 . S
C1661 C446 1.315 . S
C1676 C278 1.291 . S
C1688 C418 1.296 . S
C1703 C306 1.297 . S
C1715 C390 1.293 . S
C1730 C362 1.317 . S
C1742 C334 1.321 . S
C1757 C11 1.541 . S
C1769 C95 1.509 . S
C1784 C25 1.529 . S
C1796 C109 1.547 . S
C1811 C67 1.547 . S
C1823 C39 1.530 . S
C1838 C53 1.496 . S
C1850 C81 1.471 . S
C1865 C123 1.510 . S
C1877 C207 1.547 . S
C1892 C137 1.505 . S
C1904 C221 1.547 . S
C1919 C179 1.513 . S
C1931 C151 1.546 . S
C1946 C165 1.547 . S
C1958 C193 1.504 . S
C1973 C319 1.547 . S
C1985 C235 1.533 . S
C2000 C333 1.481 . S
C2012 C249 1.469 . S
C2027 C291 1.479 . S
C2039 C263 1.470 . S
C2054 C305 1.472 . S
C2066 C277 1.476 . S
C2081 C431 1.514 . S
C2093 C347 1.546 . S
C2108 C445 1.478 . S
C2120 C361 1.534 . S
C2135 C375 1.487 . S
C2147 C403 1.476 . S
C2162 C417 1.546 . S
C2174 C389 1.498 . S
