# Generated by pormake.
# Topology wji, (4)-cn, num edge types: 1
# Building blocks:
#     Node 0, Type 0, BuildingBlock: NAHDIM_clean_sbu_0, # of connection points: 4
#     Node 1, Type 0, BuildingBlock: NAHDIM_clean_sbu_0, # of connection points: 4
#     Node 2, Type 0, BuildingBlock: NAHDIM_clean_sbu_0, # of connection points: 4
#     Node 3, Type 0, BuildingBlock: NAHDIM_clean_sbu_0, # of connection points: 4
#     Node 4, Type 0, BuildingBlock: NAHDIM_clean_sbu_0, # of connection points: 4
#     Node 5, Type 0, BuildingBlock: NAHDIM_clean_sbu_0, # of connection points: 4
#     Node 6, Type 0, BuildingBlock: NAHDIM_clean_sbu_0, # of connection points: 4
#     Node 7, Type 0, BuildingBlock: NAHDIM_clean_sbu_0, # of connection points: 4
#     Node 8, Type 0, BuildingBlock: NAHDIM_clean_sbu_0, # of connection points: 4
#     Node 9, Type 0, BuildingBlock: NAHDIM_clean_sbu_0, # of connection points: 4
#     Node 10, Type 0, BuildingBlock: NAHDIM_clean_sbu_0, # of connection points: 4
#     Node 11, Type 0, BuildingBlock: NAHDIM_clean_sbu_0, # of connection points: 4
#     Edge 12, Type (0, 0), BuildingBlock: CIFDUS_clean_linker_0, # of connection points: 2
#     Edge 13, Type (0, 0), BuildingBlock: CIFDUS_clean_linker_0, # of connection points: 2
#     Edge 14, Type (0, 0), BuildingBlock: CIFDUS_clean_linker_0, # of connection points: 2
#     Edge 15, Type (0, 0), BuildingBlock: CIFDUS_clean_linker_0, # of connection points: 2
#     Edge 16, Type (0, 0), BuildingBlock: CIFDUS_clean_linker_0, # of connection points: 2
#     Edge 17, Type (0, 0), BuildingBlock: CIFDUS_clean_linker_0, # of connection points: 2
#     Edge 18, Type (0, 0), BuildingBlock: CIFDUS_clean_linker_0, # of connection points: 2
#     Edge 19, Type (0, 0), BuildingBlock: CIFDUS_clean_linker_0, # of connection points: 2
#     Edge 20, Type (0, 0), BuildingBlock: CIFDUS_clean_linker_0, # of connection points: 2
#     Edge 21, Type (0, 0), BuildingBlock: CIFDUS_clean_linker_0, # of connection points: 2
#     Edge 22, Type (0, 0), BuildingBlock: CIFDUS_clean_linker_0, # of connection points: 2
#     Edge 23, Type (0, 0), BuildingBlock: CIFDUS_clean_linker_0, # of connection points: 2
#     Edge 24, Type (0, 0), BuildingBlock: CIFDUS_clean_linker_0, # of connection points: 2
#     Edge 25, Type (0, 0), BuildingBlock: CIFDUS_clean_linker_0, # of connection points: 2
#     Edge 26, Type (0, 0), BuildingBlock: CIFDUS_clean_linker_0, # of connection points: 2
#     Edge 27, Type (0, 0), BuildingBlock: CIFDUS_clean_linker_0, # of connection points: 2
#     Edge 28, Type (0, 0), BuildingBlock: CIFDUS_clean_linker_0, # of connection points: 2
#     Edge 29, Type (0, 0), BuildingBlock: CIFDUS_clean_linker_0, # of connection points: 2
#     Edge 30, Type (0, 0), BuildingBlock: CIFDUS_clean_linker_0, # of connection points: 2
#     Edge 31, Type (0, 0), BuildingBlock: CIFDUS_clean_linker_0, # of connection points: 2
#     Edge 32, Type (0, 0), BuildingBlock: CIFDUS_clean_linker_0, # of connection points: 2
#     Edge 33, Type (0, 0), BuildingBlock: CIFDUS_clean_linker_0, # of connection points: 2
#     Edge 34, Type (0, 0), BuildingBlock: CIFDUS_clean_linker_0, # of connection points: 2
#     Edge 35, Type (0, 0), BuildingBlock: CIFDUS_clean_linker_0, # of connection points: 2
# Relax obj value: 0.152
# Max RMSD: 0.090
# Mean RMSD: 0.090
data_MOF--net-wji--node1-NAHDIM_clean_sbu_0--edge1-CIFDUS_clean_linker_0
_symmetry_space_group_name_H-M    P1
_symmetry_Int_Tables_number       1
_symmetry_cell_setting            triclinic
loop_
_symmetry_equiv_pos_as_xyz
'x, y, z'
_cell_length_a     50.609197
_cell_length_b     50.627634
_cell_length_c     20.180801
_cell_angle_alpha  89.96982
_cell_angle_beta   89.871002
_cell_angle_gamma 120.07982
loop_
_atom_site_label
_atom_site_type_symbol
_atom_site_fract_x
_atom_site_fract_y
_atom_site_fract_z
_atom_type_partial_charge
C0 C 0.39849 0.26459 0.42671 0.0
O1 O 0.39695 0.28436 0.46623 0.0
O2 O 0.44961 0.34414 0.33555 0.0
Zn3 Zn 0.40539 0.31011 0.33452 0.0
O4 O 0.38194 0.32018 0.39933 0.0
C5 C 0.40313 0.32431 0.19679 0.0
O6 O 0.43288 0.3366 0.2016 0.0
O7 O 0.40205 0.27015 0.36466 0.0
C8 C 0.38656 0.34698 0.40781 0.0
O9 O 0.40729 0.36949 0.37176 0.0
C10 C 0.4643 0.35591 0.3887 0.0
O11 O 0.45076 0.34515 0.446 0.0
O12 O 0.38647 0.3092 0.24563 0.0
C13 C 0.14947 0.43489 0.59843 0.0
O14 O 0.14964 0.45527 0.55782 0.0
O15 O 0.09302 0.4569 0.59261 0.0
Zn16 Zn 0.08499 0.41429 0.60868 0.0
O17 O 0.06183 0.3996 0.69358 0.0
C18 C 0.03123 0.38067 0.53456 0.0
O19 O 0.02157 0.39088 0.58333 0.0
O20 O 0.12427 0.41435 0.62249 0.0
C21 C 0.04734 0.37152 0.70914 0.0
O22 O 0.04707 0.35128 0.66802 0.0
C23 C 0.10256 0.47644 0.63906 0.0
O24 O 0.10816 0.46878 0.69737 0.0
O25 O 0.05908 0.38743 0.53376 0.0
C26 C 0.71086 0.14414 0.83516 0.0
O27 O 0.68732 0.13221 0.87559 0.0
O28 O 0.6384 0.12075 0.72657 0.0
Zn29 Zn 0.66403 0.10219 0.75193 0.0
O30 O 0.64484 0.07595 0.83212 0.0
C31 C 0.63193 0.05446 0.66831 0.0
O32 O 0.6117 0.056 0.70661 0.0
O33 O 0.70708 0.13495 0.77535 0.0
C34 C 0.65369 0.05786 0.85183 0.0
O35 O 0.67518 0.05625 0.81851 0.0
C36 C 0.62335 0.12612 0.76964 0.0
O37 O 0.62709 0.1224 0.83266 0.0
O38 O 0.66008 0.07365 0.67737 0.0
C39 C 0.58322 0.71163 0.04236 0.0
O40 O 0.56051 0.68426 0.05676 0.0
O41 O 0.55132 0.64827 0.93652 0.0
Zn42 Zn 0.59398 0.67215 0.97107 0.0
O43 O 0.59422 0.65069 0.05387 0.0
C44 C 0.61798 0.64223 0.90013 0.0
O45 O 0.59689 0.62101 0.93811 0.0
O46 O 0.60298 0.71402 -3e-05 0.0
C47 C 0.61694 0.66277 0.09259 0.0
O48 O 0.6407 0.68926 0.0768 0.0
C49 C 0.54425 0.64652 0.87575 0.0
O50 O 0.56567 0.66232 0.83182 0.0
O51 O 0.62266 0.66935 0.90456 0.0
C52 C 0.85879 0.57596 0.17936 0.0
O53 O 0.87908 0.57516 0.21844 0.0
O54 O 0.90258 0.54245 0.10448 0.0
Zn55 Zn 0.90462 0.58324 0.09074 0.0
O56 O 0.93614 0.61353 0.15215 0.0
C57 C 0.91399 0.58043 0.94972 0.0
O58 O 0.89501 0.55114 0.95882 0.0
O59 O 0.86414 0.57936 0.11726 0.0
C60 C 0.96413 0.62178 0.14455 0.0
O61 O 0.97239 0.6115 0.09342 0.0
C62 C 0.91266 0.53694 0.15736 0.0
O63 O 0.92413 0.55783 0.20384 0.0
O64 O 0.91959 0.59863 0.99787 0.0
C65 C 0.28167 0.85719 0.31986 0.0
O66 O 0.3023 0.8748 0.36324 0.0
O67 O 0.35916 0.8928 0.20941 0.0
Zn68 Zn 0.32611 0.90244 0.23315 0.0
O69 O 0.33863 0.93082 0.31135 0.0
C70 C 0.34548 0.95259 0.1501 0.0
O71 O 0.36845 0.96061 0.19088 0.0
O72 O 0.28657 0.86399 0.25847 0.0
C73 C 0.36376 0.94261 0.34254 0.0
O74 O 0.38519 0.93682 0.32369 0.0
C75 C 0.36728 0.87766 0.24591 0.0
O76 O 0.35319 0.86665 0.30261 0.0
O77 O 0.32207 0.92612 0.15636 0.0
C78 C 0.71973 0.56383 0.39239 0.0
O79 O 0.69965 0.565 0.35329 0.0
O80 O 0.64025 0.5206 0.48632 0.0
Zn81 Zn 0.67752 0.56314 0.48641 0.0
O82 O 0.67115 0.58966 0.42265 0.0
C83 C 0.69177 0.61043 0.58309 0.0
O84 O 0.70397 0.62814 0.53111 0.0
O85 O 0.71542 0.56248 0.45489 0.0
C86 C 0.64572 0.58769 0.40972 0.0
O87 O 0.62083 0.56693 0.43966 0.0
C88 C 0.62691 0.50675 0.43336 0.0
O89 O 0.63812 0.51989 0.37596 0.0
O90 O 0.68118 0.58182 0.57701 0.0
C91 C 0.13926 0.71887 0.50279 0.0
O92 O 0.1243 0.69629 0.46109 0.0
O93 O 0.09818 0.64139 0.58392 0.0
Zn94 Zn 0.08969 0.67634 0.57798 0.0
O95 O 0.06379 0.67004 0.49818 0.0
C96 C 0.03928 0.6501 0.66221 0.0
O97 O 0.03182 0.63002 0.61433 0.0
O98 O 0.1292 0.71611 0.56187 0.0
C99 C 0.04609 0.68077 0.4905 0.0
O100 O 0.04266 0.69627 0.53861 0.0
C101 C 0.09392 0.62395 0.53481 0.0
O102 O 0.08478 0.62941 0.47821 0.0
O103 O 0.06516 0.67452 0.65933 0.0
C104 C 0.3979 0.1324 0.64346 0.0
O105 O 0.4102 0.11919 0.60943 0.0
O106 O 0.44252 0.10971 0.75987 0.0
Zn107 Zn 0.39778 0.09117 0.73869 0.0
O108 O 0.38776 0.05974 0.66777 0.0
C109 C 0.35059 0.04391 0.82439 0.0
O110 O 0.33628 0.03176 0.76873 0.0
O111 O 0.38989 0.12419 0.70333 0.0
C112 C 0.36455 0.05055 0.63067 0.0
O113 O 0.34589 0.0612 0.63983 0.0
C114 C 0.46199 0.11229 0.71666 0.0
O115 O 0.45302 0.1037 0.65549 0.0
O116 O 0.37511 0.06972 0.8229 0.0
C117 C 0.29248 0.44104 0.77952 0.0
O118 O 0.31754 0.45909 0.74644 0.0
O119 O 0.36648 0.47839 0.86892 0.0
Zn120 Zn 0.33712 0.43451 0.8442 0.0
O121 O 0.35061 0.42677 0.75688 0.0
C122 C 0.36809 0.41016 0.90881 0.0
O123 O 0.38795 0.42982 0.86636 0.0
O124 O 0.29433 0.42705 0.83016 0.0
C125 C 0.33518 0.40163 0.72678 0.0
O126 O 0.31005 0.3799 0.75415 0.0
C127 C 0.38371 0.49745 0.82526 0.0
O128 O 0.38098 0.48877 0.76315 0.0
O129 O 0.3415 0.407 0.91102 0.0
C130 C 0.85577 0.27487 0.02392 0.0
O131 O 0.87509 0.29514 0.98166 0.0
O132 O 0.89191 0.35343 0.11095 0.0
Zn133 Zn 0.89962 0.31786 0.11199 0.0
O134 O 0.9317 0.32652 0.04386 0.0
C135 C 0.90382 0.31223 0.25549 0.0
O136 O 0.87626 0.30867 0.25704 0.0
O137 O 0.86124 0.27934 0.08569 0.0
C138 C 0.95718 0.3512 0.04538 0.0
O139 O 0.96274 0.37074 0.09353 0.0
C140 C 0.9052 0.37562 0.15112 0.0
O141 O 0.92357 0.37495 0.19608 0.0
O142 O 0.91673 0.31495 0.19986 0.0
C143 C 0.61818 0.86872 0.20984 0.0
O144 O 0.63901 0.89649 0.19228 0.0
O145 O 0.54239 0.88281 0.26789 0.0
Zn146 Zn 0.58808 0.89988 0.26139 0.0
O147 O 0.60482 0.92755 0.18241 0.0
C148 C 0.59427 0.93728 0.37033 0.0
O149 O 0.56842 0.93215 0.34402 0.0
O150 O 0.59557 0.86496 0.24474 0.0
C151 C 0.59916 0.94866 0.16844 0.0
O152 O 0.58106 0.95336 0.20728 0.0
C153 C 0.52529 0.8798 0.21904 0.0
O154 O 0.53699 0.88615 0.15904 0.0
O155 O 0.60835 0.92497 0.34408 0.0
H156 H 0.33413 0.36805 0.00472 0.0
H157 H 0.42355 0.4141 0.91383 0.0
H158 H 0.44119 0.3893 0.99055 0.0
H159 H 0.43271 0.35744 0.08789 0.0
H160 H 0.34397 0.31152 0.18134 0.0
H161 H 0.32459 0.33286 0.09866 0.0
C162 C 0.3574 0.37249 0.0015 0.0
C163 C 0.37751 0.39321 0.9539 0.0
C164 C 0.3676 0.35813 0.04621 0.0
C165 C 0.40755 0.3985 0.95017 0.0
C166 C 0.41774 0.38428 0.99406 0.0
C167 C 0.409 0.35174 0.08983 0.0
C168 C 0.38995 0.33308 0.14113 0.0
C169 C 0.39815 0.36445 0.04289 0.0
C170 C 0.35922 0.32585 0.14245 0.0
C171 C 0.34814 0.3382 0.09537 0.0
H172 H 0.97001 0.35786 0.52982 0.0
H173 H 0.04555 0.3651 0.41539 0.0
H174 H 0.01181 0.34161 0.32056 0.0
H175 H 0.96202 0.32322 0.26753 0.0
H176 H 0.88674 0.31682 0.38168 0.0
H177 H 0.91922 0.33542 0.4796 0.0
C178 C 0.97909 0.3541 0.48432 0.0
C179 C 0.01036 0.36359 0.47944 0.0
C180 C 0.95963 0.34079 0.42993 0.0
C181 C 0.02162 0.35817 0.4204 0.0
C182 C 0.00235 0.34479 0.36609 0.0
C183 C 0.95255 0.3255 0.31401 0.0
C184 C 0.92203 0.31893 0.31697 0.0
C185 C 0.97147 0.33662 0.36989 0.0
C186 C 0.91015 0.32182 0.37781 0.0
C187 C 0.92876 0.33259 0.43381 0.0
H188 H 0.56337 0.95503 0.44953 0.0
H189 H 0.65296 0.96657 0.41967 0.0
H190 H 0.6731 0.0043 0.50954 0.0
H191 H 0.66506 0.03527 0.59463 0.0
H192 H 0.57431 0.02155 0.62219 0.0
H193 H 0.55498 0.98361 0.5349 0.0
C194 C 0.58734 0.96569 0.46261 0.0
C195 C 0.60668 0.95816 0.42769 0.0
C196 C 0.5986 0.98717 0.51377 0.0
C197 C 0.63757 0.97195 0.44594 0.0
C198 C 0.6491 0.99362 0.49706 0.0
C199 C 0.6411 0.02396 0.58134 0.0
C200 C 0.62123 0.03139 0.61485 0.0
C201 C 0.62985 0.00167 0.53095 0.0
C202 C 0.59017 0.01632 0.59749 0.0
C203 C 0.579 0.99457 0.54743 0.0
H204 H 0.6632 0.57948 0.69552 0.0
H205 H 0.70561 0.66921 0.60711 0.0
H206 H 0.68841 0.68784 0.6998 0.0
H207 H 0.65726 0.67741 0.80129 0.0
H208 H 0.61441 0.58714 0.88741 0.0
H209 H 0.6359 0.5702 0.80069 0.0
C210 C 0.66908 0.60323 0.69685 0.0
C211 C 0.68544 0.62278 0.64399 0.0
C212 C 0.65874 0.61371 0.74977 0.0
C213 C 0.69293 0.65355 0.64692 0.0
C214 C 0.68299 0.66424 0.69985 0.0
C215 C 0.65293 0.65415 0.80145 0.0
C216 C 0.63393 0.63355 0.85049 0.0
C217 C 0.66522 0.64433 0.75081 0.0
C218 C 0.62866 0.60349 0.85001 0.0
C219 C 0.64097 0.5937 0.80037 0.0
H220 H 0.98311 0.60037 0.67824 0.0
H221 H 0.04753 0.6847 0.77342 0.0
H222 H 0.01314 0.67172 0.86873 0.0
H223 H 0.96608 0.63491 0.92759 0.0
H224 H 0.90287 0.55 0.83256 0.0
H225 H 0.93542 0.56494 0.7343 0.0
C226 C 0.98967 0.61607 0.71961 0.0
C227 C 0.01802 0.6434 0.71877 0.0
C228 C 0.96995 0.60834 0.77431 0.0
C229 C 0.02593 0.66346 0.77281 0.0
C230 C 0.00626 0.65604 0.82734 0.0
C231 C 0.9592 0.61986 0.88502 0.0
C232 C 0.93204 0.59131 0.88757 0.0
C233 C 0.97837 0.62835 0.82899 0.0
C234 C 0.92364 0.57203 0.8321 0.0
C235 C 0.9423 0.58052 0.7759 0.0
H236 H 0.38149 0.05759 0.94089 0.0
H237 H 0.30022 0.98764 0.84525 0.0
H238 H 0.29013 0.95355 0.93961 0.0
H239 H 0.30697 0.94204 0.04529 0.0
H240 H 0.38942 0.01207 0.13741 0.0
H241 H 0.39633 0.04745 0.04865 0.0
C242 C 0.36129 0.03507 0.94096 0.0
C243 C 0.3418 0.02518 0.88573 0.0
C244 C 0.356 0.01534 0.9946 0.0
C245 C 0.31573 0.99586 0.88694 0.0
C246 C 0.30999 0.97626 0.94082 0.0
C247 C 0.32628 0.96511 0.04615 0.0
C248 C 0.34779 0.97419 0.09768 0.0
C249 C 0.3304 0.98548 0.99424 0.0
C250 C 0.37265 0.00425 0.09811 0.0
C251 C 0.37664 0.02463 0.04736 0.0
H252 H 0.59237 0.47251 0.3299 0.0
H253 H 0.59574 0.47473 0.54369 0.0
H254 H 0.5463 0.42773 0.54862 0.0
H255 H 0.50121 0.38707 0.49239 0.0
H256 H 0.49777 0.38522 0.27857 0.0
H257 H 0.54817 0.43094 0.2737 0.0
C258 C 0.58242 0.46266 0.37764 0.0
C259 C 0.59777 0.47726 0.43632 0.0
C260 C 0.55388 0.43571 0.38017 0.0
C261 C 0.58447 0.46406 0.49769 0.0
C262 C 0.55614 0.43718 0.50059 0.0
C263 C 0.51152 0.39655 0.44468 0.0
C264 C 0.4956 0.38272 0.38597 0.0
C265 C 0.5405 0.42297 0.44216 0.0
C266 C 0.50942 0.39535 0.3246 0.0
C267 C 0.53826 0.42155 0.32172 0.0
H268 H 0.09284 0.49896 0.52516 0.0
H269 H 0.11814 0.5218 0.73019 0.0
H270 H 0.11907 0.57012 0.71531 0.0
H271 H 0.11027 0.60476 0.64552 0.0
H272 H 0.08456 0.58148 0.44075 0.0
H273 H 0.08637 0.53457 0.45423 0.0
C274 C 0.09874 0.51456 0.56657 0.0
C275 C 0.10521 0.50664 0.6288 0.0
C276 C 0.09906 0.54222 0.55782 0.0
C277 C 0.11296 0.52724 0.68176 0.0
C278 C 0.11345 0.55489 0.67336 0.0
C279 C 0.10526 0.58953 0.6037 0.0
C280 C 0.09711 0.5966 0.54234 0.0
C281 C 0.10617 0.56244 0.61182 0.0
C282 C 0.09079 0.57662 0.48864 0.0
C283 C 0.09178 0.54972 0.49627 0.0
H284 H 0.50909 0.12141 0.63666 0.0
H285 H 0.48573 0.12334 0.84183 0.0
H286 H 0.53549 0.13149 0.87594 0.0
H287 H 0.58321 0.13251 0.84827 0.0
H288 H 0.60596 0.12934 0.64316 0.0
H289 H 0.55906 0.12773 0.60841 0.0
C290 C 0.51498 0.12396 0.68881 0.0
C291 C 0.49352 0.1213 0.73662 0.0
C292 C 0.5435 0.1283 0.70819 0.0
C293 C 0.50171 0.12504 0.80394 0.0
C294 C 0.53016 0.12965 0.82357 0.0
C295 C 0.57818 0.13195 0.79591 0.0
C296 C 0.59789 0.13062 0.7485 0.0
C297 C 0.55089 0.13048 0.77622 0.0
C298 C 0.5911 0.13016 0.68082 0.0
C299 C 0.5642 0.1291 0.66083 0.0
H300 H 0.49576 0.61088 0.9547 0.0
H301 H 0.52279 0.63042 0.74927 0.0
H302 H 0.47365 0.58753 0.71531 0.0
H303 H 0.42555 0.54154 0.74454 0.0
H304 H 0.39946 0.52102 0.95027 0.0
H305 H 0.44571 0.56755 0.98344 0.0
C306 C 0.49082 0.60601 0.90241 0.0
C307 C 0.5131 0.62357 0.85462 0.0
C308 C 0.4628 0.58104 0.88332 0.0
C309 C 0.50614 0.61715 0.78711 0.0
C310 C 0.47808 0.59256 0.76764 0.0
C311 C 0.42975 0.5474 0.79663 0.0
C312 C 0.40927 0.5276 0.8449 0.0
C313 C 0.45662 0.57388 0.81542 0.0
C314 C 0.41495 0.53572 0.91211 0.0
C315 C 0.44144 0.56228 0.93115 0.0
H316 H 0.92727 0.42424 0.23371 0.0
H317 H 0.8757 0.38843 0.05351 0.0
H318 H 0.87301 0.43501 0.03974 0.0
H319 H 0.88677 0.48669 0.07728 0.0
H320 H 0.93811 0.52173 0.25821 0.0
H321 H 0.93939 0.47468 0.27303 0.0
C322 C 0.91533 0.42652 0.19149 0.0
C323 C 0.90184 0.40292 0.1446 0.0
C324 C 0.91392 0.45331 0.18381 0.0
C325 C 0.8863 0.40624 0.09042 0.0
C326 C 0.88482 0.43291 0.08238 0.0
C327 C 0.89818 0.48399 0.12 0.0
C328 C 0.91242 0.5078 0.16636 0.0
C329 C 0.89879 0.45673 0.12848 0.0
C330 C 0.92696 0.50384 0.22164 0.0
C331 C 0.92775 0.47692 0.23024 0.0
H332 H 0.39908 0.85958 0.32417 0.0
H333 H 0.39679 0.89114 0.12666 0.0
H334 H 0.44415 0.89191 0.09907 0.0
H335 H 0.4881 0.88722 0.13339 0.0
H336 H 0.49173 0.85816 0.33261 0.0
H337 H 0.44188 0.85256 0.35685 0.0
C338 C 0.40874 0.86629 0.27484 0.0
C339 C 0.39445 0.87541 0.2277 0.0
C340 C 0.43632 0.86726 0.25965 0.0
C341 C 0.40739 0.88416 0.16407 0.0
C342 C 0.43449 0.88463 0.14821 0.0
C343 C 0.47782 0.87926 0.18183 0.0
C344 C 0.49368 0.8732 0.23113 0.0
C345 C 0.44945 0.87674 0.19595 0.0
C346 C 0.48007 0.8631 0.2938 0.0
C347 C 0.45158 0.85993 0.30778 0.0
H348 H 0.31398 0.34838 0.6597 0.0
H349 H 0.38104 0.44439 0.64993 0.0
H350 H 0.40124 0.43633 0.54691 0.0
H351 H 0.40192 0.40158 0.46335 0.0
H352 H 0.33632 0.30525 0.47585 0.0
H353 H 0.31333 0.31395 0.57365 0.0
C354 C 0.33285 0.36757 0.63475 0.0
C355 C 0.3461 0.39685 0.66261 0.0
C356 C 0.34467 0.36273 0.57605 0.0
C357 C 0.37057 0.42152 0.62976 0.0
C358 C 0.38213 0.41697 0.57078 0.0
C359 C 0.38235 0.38257 0.48698 0.0
C360 C 0.37092 0.35285 0.46261 0.0
C361 C 0.36965 0.38761 0.54401 0.0
C362 C 0.34566 0.32837 0.49395 0.0
C363 C 0.33251 0.33329 0.54991 0.0
H364 H 0.95574 0.31359 0.94799 0.0
H365 H 0.00763 0.4063 0.01901 0.0
H366 H 0.04097 0.42037 0.92213 0.0
H367 H 0.05337 0.40709 0.81444 0.0
H368 H 0.00203 0.31435 0.74365 0.0
H369 H 0.97048 0.29947 0.84377 0.0
C370 C 0.97447 0.33683 0.9425 0.0
C371 C 0.97903 0.35894 0.99024 0.0
C372 C 0.99351 0.34477 0.88672 0.0
C373 C 0.00359 0.38887 0.98287 0.0
C374 C 0.0226 0.39696 0.92741 0.0
C375 C 0.03535 0.38359 0.82103 0.0
C376 C 0.02978 0.36191 0.7715 0.0
C377 C 0.01743 0.37522 0.87856 0.0
C378 C 0.00669 0.33146 0.78107 0.0
C379 C 0.98861 0.32297 0.83817 0.0
H380 H 0.58711 0.99105 0.11637 0.0
H381 H 0.64073 0.94746 0.08414 0.0
H382 H 0.66222 0.97732 0.98341 0.0
H383 H 0.66581 0.0157 0.90436 0.0
H384 H 0.61186 0.05898 0.93568 0.0
H385 H 0.59048 0.02927 0.03677 0.0
C386 C 0.60354 0.98813 0.08741 0.0
C387 C 0.61231 0.9671 0.10785 0.0
C388 C 0.61573 0.00525 0.02927 0.0
C389 C 0.63354 0.96349 0.06956 0.0
C390 C 0.64587 0.98055 0.01189 0.0
C391 C 0.64937 0.01864 0.93325 0.0
C392 C 0.64048 0.03952 0.91249 0.0
C393 C 0.63711 0.00147 0.99126 0.0
C394 C 0.61909 0.04301 0.95048 0.0
C395 C 0.60686 0.02607 0.00837 0.0
H396 H 0.66437 0.67734 0.17553 0.0
H397 H 0.56869 0.61236 0.1474 0.0
H398 H 0.56852 0.5847 0.24657 0.0
H399 H 0.5962 0.57743 0.33796 0.0
H400 H 0.6924 0.64111 0.36268 0.0
H401 H 0.69162 0.67098 0.26858 0.0
C402 C 0.64344 0.65724 0.19131 0.0
C403 C 0.61667 0.64684 0.15401 0.0
C404 C 0.64358 0.6412 0.2478 0.0
C405 C 0.58971 0.62073 0.17504 0.0
C406 C 0.58955 0.60491 0.23181 0.0
C407 C 0.61687 0.59805 0.32321 0.0
C408 C 0.64429 0.60704 0.35698 0.0
C409 C 0.61643 0.61474 0.26813 0.0
C410 C 0.67101 0.63366 0.33709 0.0
C411 C 0.67062 0.65073 0.2833 0.0
H412 H 0.06091 0.6666 0.37258 0.0
H413 H 0.99379 0.68258 0.46794 0.0
H414 H 0.9637 0.66847 0.36593 0.0
H415 H 0.95456 0.64743 0.25332 0.0
H416 H 0.02199 0.6316 0.15854 0.0
H417 H 0.05422 0.65039 0.2567 0.0
C418 C 0.03975 0.66714 0.37093 0.0
C419 C 0.02926 0.6751 0.42782 0.0
C420 C 0.02272 0.65909 0.31239 0.0
C421 C 0.0022 0.67634 0.42476 0.0
C422 C 0.98499 0.66823 0.36657 0.0
C423 C 0.97649 0.64845 0.25378 0.0
C424 C 0.98568 0.63775 0.19907 0.0
C425 C 0.99475 0.65897 0.31059 0.0
C426 C 0.0143 0.63956 0.2001 0.0
C427 C 0.03268 0.65015 0.25633 0.0
H428 H 0.32508 0.9609 0.38782 0.0
H429 H 0.4132 0.96982 0.42499 0.0
H430 H 0.42084 0.00349 0.51866 0.0
H431 H 0.40271 0.03079 0.58879 0.0
H432 H 0.3149 0.02232 0.54988 0.0
H433 H 0.30692 0.98788 0.45784 0.0
C434 C 0.34598 0.97015 0.41637 0.0
C435 C 0.36855 0.96288 0.39938 0.0
C436 C 0.35026 0.98952 0.46977 0.0
C437 C 0.39548 0.9751 0.43693 0.0
C438 C 0.39986 0.99433 0.49051 0.0
C439 C 0.38176 0.02131 0.56038 0.0
C440 C 0.35941 0.02909 0.57619 0.0
C441 C 0.37742 0.00173 0.50723 0.0
C442 C 0.33248 0.01674 0.53869 0.0
C443 C 0.32789 0.99705 0.48606 0.0
H444 H 0.38473 0.24457 0.55354 0.0
H445 H 0.40961 0.22286 0.36497 0.0
H446 H 0.4106 0.17942 0.41549 0.0
H447 H 0.40639 0.14904 0.51392 0.0
H448 H 0.38136 0.17074 0.70232 0.0
H449 H 0.37833 0.21286 0.65078 0.0
C450 C 0.39029 0.23031 0.52327 0.0
C451 C 0.39731 0.23711 0.45558 0.0
C452 C 0.39086 0.20548 0.55263 0.0
C453 C 0.40417 0.21819 0.41714 0.0
C454 C 0.4048 0.19339 0.44605 0.0
C455 C 0.40019 0.16291 0.54381 0.0
C456 C 0.39433 0.15688 0.61208 0.0
C457 C 0.39851 0.18706 0.51388 0.0
C458 C 0.38603 0.17491 0.64979 0.0
C459 C 0.38435 0.19903 0.62035 0.0
H460 H 0.28327 0.46812 0.67361 0.0
H461 H 0.23508 0.40277 0.82936 0.0
H462 H 0.18635 0.39406 0.78498 0.0
H463 H 0.1577 0.40546 0.70239 0.0
H464 H 0.20657 0.47155 0.5482 0.0
H465 H 0.25492 0.47924 0.59138 0.0
C466 C 0.26215 0.45197 0.6981 0.0
C467 C 0.26284 0.43616 0.75487 0.0
C468 C 0.23438 0.44707 0.67233 0.0
C469 C 0.23521 0.41532 0.78577 0.0
C470 C 0.20735 0.41027 0.76028 0.0
C471 C 0.1789 0.42136 0.67785 0.0
C472 C 0.1785 0.43786 0.62196 0.0
C473 C 0.20669 0.42601 0.70353 0.0
C474 C 0.20621 0.45856 0.5912 0.0
C475 C 0.23388 0.46303 0.61595 0.0
H476 H 0.84169 0.25566 0.89651 0.0
H477 H 0.80667 0.23349 0.09644 0.0
H478 H 0.75919 0.19056 0.05529 0.0
H479 H 0.72706 0.16061 0.96266 0.0
H480 H 0.76194 0.1821 0.76263 0.0
H481 H 0.81028 0.22406 0.80393 0.0
C482 C 0.82371 0.24141 0.93116 0.0
C483 C 0.82765 0.24793 -0.00055 0.0
C484 C 0.7965 0.21672 0.90717 0.0
C485 C 0.80423 0.22903 0.04367 0.0
C486 C 0.77705 0.20451 0.02016 0.0
C487 C 0.74523 0.17441 0.92797 0.0
C488 C 0.74082 0.16841 0.85957 0.0
C489 C 0.77285 0.19836 0.95202 0.0
C490 C 0.76474 0.18628 0.81548 0.0
C491 C 0.79234 0.2103 0.83906 0.0
H492 H 0.57319 0.80944 0.21653 0.0
H493 H 0.66284 0.86809 0.13408 0.0
H494 H 0.66011 0.8248 0.07426 0.0
H495 H 0.63122 0.77042 0.04198 0.0
H496 H 0.54122 0.71276 0.12421 0.0
H497 H 0.54511 0.75558 0.18675 0.0
C498 C 0.59232 0.81277 0.18611 0.0
C499 C 0.61816 0.842 0.17988 0.0
C500 C 0.5904 0.78797 0.15099 0.0
C501 C 0.64265 0.84582 0.13987 0.0
C502 C 0.64106 0.8211 0.10534 0.0
C503 C 0.61245 0.7673 0.07339 0.0
C504 C 0.58593 0.73842 0.07805 0.0
C505 C 0.61483 0.79212 0.10975 0.0
C506 C 0.5619 0.73471 0.11947 0.0
C507 C 0.5641 0.75919 0.1555 0.0
H508 H 0.73472 0.56829 0.26202 0.0
H509 H 0.76644 0.5619 0.4566 0.0
H510 H 0.81199 0.56473 0.40728 0.0
H511 H 0.84292 0.56965 0.30937 0.0
H512 H 0.81139 0.57645 0.11487 0.0
H513 H 0.76545 0.57279 0.16404 0.0
C514 C 0.75153 0.56745 0.29382 0.0
C515 C 0.74714 0.56491 0.36305 0.0
C516 C 0.77766 0.5692 0.26517 0.0
C517 C 0.76922 0.56386 0.40327 0.0
C518 C 0.79527 0.5655 0.37508 0.0
C519 C 0.82602 0.5703 0.27754 0.0
C520 C 0.83065 0.57336 0.20841 0.0
C521 C 0.79975 0.56827 0.30614 0.0
C522 C 0.80845 0.57414 0.16813 0.0
C523 C 0.78218 0.57205 0.19625 0.0
H524 H 0.15894 0.73421 0.37616 0.0
H525 H 0.18154 0.76667 0.57735 0.0
H526 H 0.22756 0.81236 0.53801 0.0
H527 H 0.26148 0.84259 0.4467 0.0
H528 H 0.2381 0.81052 0.24539 0.0
H529 H 0.19205 0.76501 0.28479 0.0
C530 C 0.17392 0.75123 0.41158 0.0
C531 C 0.16689 0.74693 0.47974 0.0
C532 C 0.20013 0.77745 0.38858 0.0
C533 C 0.18642 0.76939 0.5247 0.0
C534 C 0.21274 0.79549 0.50222 0.0
C535 C 0.24635 0.82566 0.41133 0.0
C536 C 0.25334 0.82991 0.34312 0.0
C537 C 0.21985 0.79968 0.4343 0.0
C538 C 0.2333 0.80784 0.29807 0.0
C539 C 0.20699 0.7818 0.3206 0.0
loop_
_geom_bond_atom_site_label_1
_geom_bond_atom_site_label_2
_geom_bond_distance
_geom_bond_site_symmetry_2
_ccdc_geom_bond_type
C0 O1 1.160 . S
C0 O7 1.185 . S
O1 C0 1.160 . S
O2 Zn3 1.899 . S
O2 C10 1.284 . S
Zn3 O2 1.899 . S
Zn3 O4 2.032 . S
Zn3 O7 2.086 . S
Zn3 O12 1.977 . S
O4 Zn3 2.032 . S
O4 C8 1.278 . S
C5 O6 1.203 . S
C5 O12 1.267 . S
O6 C5 1.203 . S
O7 C0 1.185 . S
O7 Zn3 2.086 . S
C8 O4 1.278 . S
C8 O9 1.211 . S
O9 C8 1.211 . S
C10 O2 1.284 . S
C10 O11 1.273 . S
O11 C10 1.273 . S
O12 Zn3 1.977 . S
O12 C5 1.267 . S
C13 O14 1.160 . S
C13 O20 1.185 . S
O14 C13 1.160 . S
O15 Zn16 1.899 . S
O15 C23 1.284 . S
Zn16 O15 1.899 . S
Zn16 O17 2.032 . S
Zn16 O20 2.086 . S
Zn16 O25 1.977 . S
O17 Zn16 2.032 . S
O17 C21 1.278 . S
C18 O19 1.203 . S
C18 O25 1.267 . S
O19 C18 1.203 . S
O20 C13 1.185 . S
O20 Zn16 2.086 . S
C21 O17 1.278 . S
C21 O22 1.211 . S
O22 C21 1.211 . S
C23 O15 1.284 . S
C23 O24 1.273 . S
O24 C23 1.273 . S
O25 Zn16 1.977 . S
O25 C18 1.267 . S
C26 O27 1.160 . S
C26 O33 1.185 . S
O27 C26 1.160 . S
O28 Zn29 1.899 . S
O28 C36 1.284 . S
Zn29 O28 1.899 . S
Zn29 O30 2.032 . S
Zn29 O33 2.086 . S
Zn29 O38 1.977 . S
O30 Zn29 2.032 . S
O30 C34 1.278 . S
C31 O32 1.203 . S
C31 O38 1.267 . S
O32 C31 1.203 . S
O33 C26 1.185 . S
O33 Zn29 2.086 . S
C34 O30 1.278 . S
C34 O35 1.211 . S
O35 C34 1.211 . S
C36 O28 1.284 . S
C36 O37 1.273 . S
O37 C36 1.273 . S
O38 Zn29 1.977 . S
O38 C31 1.267 . S
C39 O40 1.155 1_556 S
C39 O46 1.185 . S
O40 C39 1.155 1_554 S
O41 Zn42 1.899 . S
O41 C49 1.284 . S
Zn42 O41 1.899 . S
Zn42 O43 2.032 1_556 S
Zn42 O46 2.086 . S
Zn42 O51 1.977 . S
O43 Zn42 2.032 1_554 S
O43 C47 1.278 . S
C44 O45 1.203 . S
C44 O51 1.267 . S
O45 C44 1.203 . S
O46 C39 1.185 . S
O46 Zn42 2.086 . S
C47 O43 1.278 . S
C47 O48 1.211 1_554 S
O48 C47 1.211 1_556 S
C49 O41 1.284 . S
C49 O50 1.273 . S
O50 C49 1.273 . S
O51 Zn42 1.977 . S
O51 C44 1.267 . S
C52 O53 1.160 . S
C52 O59 1.185 . S
O53 C52 1.160 . S
O54 Zn55 1.899 . S
O54 C62 1.284 . S
Zn55 O54 1.899 . S
Zn55 O56 2.032 . S
Zn55 O59 2.086 . S
Zn55 O64 1.977 . S
O56 Zn55 2.032 . S
O56 C60 1.278 . S
C57 O58 1.203 . S
C57 O64 1.267 1_556 S
O58 C57 1.203 . S
O59 C52 1.185 . S
O59 Zn55 2.086 . S
C60 O56 1.278 . S
C60 O61 1.211 . S
O61 C60 1.211 . S
C62 O54 1.284 . S
C62 O63 1.273 . S
O63 C62 1.273 . S
O64 Zn55 1.977 . S
O64 C57 1.267 1_554 S
C65 O66 1.160 . S
C65 O72 1.185 . S
O66 C65 1.160 . S
O67 Zn68 1.899 . S
O67 C75 1.284 . S
Zn68 O67 1.899 . S
Zn68 O69 2.032 . S
Zn68 O72 2.086 . S
Zn68 O77 1.977 . S
O69 Zn68 2.032 . S
O69 C73 1.278 . S
C70 O71 1.203 . S
C70 O77 1.267 . S
O71 C70 1.203 . S
O72 C65 1.185 . S
O72 Zn68 2.086 . S
C73 O69 1.278 . S
C73 O74 1.211 . S
O74 C73 1.211 . S
C75 O67 1.284 . S
C75 O76 1.273 . S
O76 C75 1.273 . S
O77 Zn68 1.977 . S
O77 C70 1.267 . S
C78 O79 1.160 . S
C78 O85 1.185 . S
O79 C78 1.160 . S
O80 Zn81 1.899 . S
O80 C88 1.284 . S
Zn81 O80 1.899 . S
Zn81 O82 2.032 . S
Zn81 O85 2.086 . S
Zn81 O90 1.977 . S
O82 Zn81 2.032 . S
O82 C86 1.278 . S
C83 O84 1.203 . S
C83 O90 1.267 . S
O84 C83 1.203 . S
O85 C78 1.185 . S
O85 Zn81 2.086 . S
C86 O82 1.278 . S
C86 O87 1.211 . S
O87 C86 1.211 . S
C88 O80 1.284 . S
C88 O89 1.273 . S
O89 C88 1.273 . S
O90 Zn81 1.977 . S
O90 C83 1.267 . S
C91 O92 1.160 . S
C91 O98 1.185 . S
O92 C91 1.160 . S
O93 Zn94 1.899 . S
O93 C101 1.284 . S
Zn94 O93 1.899 . S
Zn94 O95 2.032 . S
Zn94 O98 2.086 . S
Zn94 O103 1.977 . S
O95 Zn94 2.032 . S
O95 C99 1.278 . S
C96 O97 1.203 . S
C96 O103 1.267 . S
O97 C96 1.203 . S
O98 C91 1.185 . S
O98 Zn94 2.086 . S
C99 O95 1.278 . S
C99 O100 1.211 . S
O100 C99 1.211 . S
C101 O93 1.284 . S
C101 O102 1.273 . S
O102 C101 1.273 . S
O103 Zn94 1.977 . S
O103 C96 1.267 . S
C104 O105 1.160 . S
C104 O111 1.185 . S
O105 C104 1.160 . S
O106 Zn107 1.899 . S
O106 C114 1.284 . S
Zn107 O106 1.899 . S
Zn107 O108 2.032 . S
Zn107 O111 2.086 . S
Zn107 O116 1.977 . S
O108 Zn107 2.032 . S
O108 C112 1.278 . S
C109 O110 1.203 . S
C109 O116 1.267 . S
O110 C109 1.203 . S
O111 C104 1.185 . S
O111 Zn107 2.086 . S
C112 O108 1.278 . S
C112 O113 1.211 . S
O113 C112 1.211 . S
C114 O106 1.284 . S
C114 O115 1.273 . S
O115 C114 1.273 . S
O116 Zn107 1.977 . S
O116 C109 1.267 . S
C117 O118 1.160 . S
C117 O124 1.185 . S
O118 C117 1.160 . S
O119 Zn120 1.899 . S
O119 C127 1.284 . S
Zn120 O119 1.899 . S
Zn120 O121 2.032 . S
Zn120 O124 2.086 . S
Zn120 O129 1.977 . S
O121 Zn120 2.032 . S
O121 C125 1.278 . S
C122 O123 1.203 . S
C122 O129 1.267 1_554 S
O123 C122 1.203 . S
O124 C117 1.185 . S
O124 Zn120 2.086 . S
C125 O121 1.278 . S
C125 O126 1.211 . S
O126 C125 1.211 . S
C127 O119 1.284 . S
C127 O128 1.273 . S
O128 C127 1.273 . S
O129 Zn120 1.977 . S
O129 C122 1.267 1_556 S
C130 O131 1.156 1_554 S
C130 O137 1.185 . S
O131 C130 1.156 1_556 S
O132 Zn133 1.899 . S
O132 C140 1.284 . S
Zn133 O132 1.899 . S
Zn133 O134 2.032 1_554 S
Zn133 O137 2.086 . S
Zn133 O142 1.977 . S
O134 Zn133 2.032 1_556 S
O134 C138 1.278 . S
C135 O136 1.203 . S
C135 O142 1.267 . S
O136 C135 1.203 . S
O137 C130 1.185 . S
O137 Zn133 2.086 . S
C138 O134 1.278 . S
C138 O139 1.211 1_556 S
O139 C138 1.211 1_554 S
C140 O132 1.284 . S
C140 O141 1.273 . S
O141 C140 1.273 . S
O142 Zn133 1.977 . S
O142 C135 1.267 . S
C143 O144 1.160 . S
C143 O150 1.185 . S
O144 C143 1.160 . S
O145 Zn146 1.899 . S
O145 C153 1.284 . S
Zn146 O145 1.899 . S
Zn146 O147 2.032 . S
Zn146 O150 2.086 . S
Zn146 O155 1.977 . S
O147 Zn146 2.032 . S
O147 C151 1.278 . S
C148 O149 1.203 . S
C148 O155 1.267 . S
O149 C148 1.203 . S
O150 C143 1.185 . S
O150 Zn146 2.086 . S
C151 O147 1.278 . S
C151 O152 1.211 . S
O152 C151 1.211 . S
C153 O145 1.284 . S
C153 O154 1.273 . S
O154 C153 1.273 . S
O155 Zn146 1.977 . S
O155 C148 1.267 . S
H156 C162 0.930 . S
H157 C165 0.930 . S
H158 C166 0.930 . S
H159 C167 0.930 . S
H160 C170 0.930 . S
H161 C171 0.930 . S
C162 H156 0.930 . S
C162 C163 1.355 . S
C162 C164 1.415 . S
C163 C162 1.355 . S
C163 C165 1.419 . S
C164 C162 1.415 . S
C164 C169 1.425 . S
C164 C171 1.409 . S
C165 H157 0.930 . S
C165 C163 1.419 . S
C165 C166 1.362 . S
C166 H158 0.930 . S
C166 C165 1.362 . S
C166 C169 1.409 . S
C167 H159 0.930 . S
C167 C168 1.355 . S
C167 C169 1.415 . S
C168 C167 1.355 . S
C168 C170 1.419 . S
C169 C164 1.425 . S
C169 C166 1.409 . S
C169 C167 1.415 . S
C170 H160 0.930 . S
C170 C168 1.419 . S
C170 C171 1.362 . S
C171 H161 0.930 . S
C171 C164 1.409 . S
C171 C170 1.362 . S
H172 C178 0.930 . S
H173 C181 0.930 . S
H174 C182 0.931 1_655 S
H175 C183 0.930 . S
H176 C186 0.930 . S
H177 C187 0.931 1_455 S
C178 H172 0.930 . S
C178 C179 1.355 . S
C178 C180 1.415 . S
C179 C178 1.355 . S
C179 C181 1.419 . S
C180 C178 1.415 . S
C180 C185 1.425 1_455 S
C180 C187 1.398 1_455 S
C181 H173 0.930 . S
C181 C179 1.419 . S
C181 C182 1.372 . S
C182 H174 0.931 1_455 S
C182 C181 1.372 . S
C182 C185 1.399 1_455 S
C183 H175 0.930 . S
C183 C184 1.355 . S
C183 C185 1.415 . S
C184 C183 1.355 . S
C184 C186 1.419 . S
C185 C180 1.425 1_655 S
C185 C182 1.399 1_655 S
C185 C183 1.415 . S
C186 H176 0.930 . S
C186 C184 1.419 . S
C186 C187 1.373 . S
C187 H177 0.931 1_655 S
C187 C180 1.398 1_655 S
C187 C186 1.373 . S
H188 C194 0.930 . S
H189 C197 0.930 . S
H190 C198 0.930 1_545 S
H191 C199 0.930 . S
H192 C202 0.930 . S
H193 C203 0.930 1_565 S
C194 H188 0.930 . S
C194 C195 1.355 . S
C194 C196 1.415 . S
C195 C194 1.355 . S
C195 C197 1.419 . S
C196 C194 1.415 . S
C196 C201 1.425 1_565 S
C196 C203 1.409 1_565 S
C197 H189 0.930 . S
C197 C195 1.419 . S
C197 C198 1.362 . S
C198 H190 0.930 1_565 S
C198 C197 1.362 . S
C198 C201 1.409 1_565 S
C199 H191 0.930 . S
C199 C200 1.355 . S
C199 C201 1.415 . S
C200 C199 1.355 . S
C200 C202 1.419 . S
C201 C196 1.425 1_545 S
C201 C198 1.409 1_545 S
C201 C199 1.415 . S
C202 H192 0.930 . S
C202 C200 1.419 . S
C202 C203 1.362 . S
C203 H193 0.930 1_545 S
C203 C196 1.409 1_545 S
C203 C202 1.362 . S
H204 C210 0.930 . S
H205 C213 0.930 . S
H206 C214 0.930 . S
H207 C215 0.930 . S
H208 C218 0.930 . S
H209 C219 0.930 . S
C210 H204 0.930 . S
C210 C211 1.355 . S
C210 C212 1.415 . S
C211 C210 1.355 . S
C211 C213 1.419 . S
C212 C210 1.415 . S
C212 C217 1.425 . S
C212 C219 1.409 . S
C213 H205 0.930 . S
C213 C211 1.419 . S
C213 C214 1.362 . S
C214 H206 0.930 . S
C214 C213 1.362 . S
C214 C217 1.409 . S
C215 H207 0.930 . S
C215 C216 1.355 . S
C215 C217 1.415 . S
C216 C215 1.355 . S
C216 C218 1.419 . S
C217 C212 1.425 . S
C217 C214 1.409 . S
C217 C215 1.415 . S
C218 H208 0.930 . S
C218 C216 1.419 . S
C218 C219 1.362 . S
C219 H209 0.930 . S
C219 C212 1.409 . S
C219 C218 1.362 . S
H220 C226 0.930 . S
H221 C229 0.930 . S
H222 C230 0.930 . S
H223 C231 0.930 . S
H224 C234 0.930 . S
H225 C235 0.930 . S
C226 H220 0.930 . S
C226 C227 1.355 . S
C226 C228 1.415 . S
C227 C226 1.355 . S
C227 C229 1.419 . S
C228 C226 1.415 . S
C228 C233 1.425 1_455 S
C228 C235 1.409 . S
C229 H221 0.930 . S
C229 C227 1.419 . S
C229 C230 1.362 1_455 S
C230 H222 0.930 . S
C230 C229 1.362 1_655 S
C230 C233 1.409 . S
C231 H223 0.930 . S
C231 C232 1.355 . S
C231 C233 1.415 . S
C232 C231 1.355 . S
C232 C234 1.419 . S
C233 C228 1.425 1_655 S
C233 C230 1.409 . S
C233 C231 1.415 . S
C234 H224 0.930 . S
C234 C232 1.419 . S
C234 C235 1.362 1_655 S
C235 H225 0.930 . S
C235 C228 1.409 . S
C235 C234 1.362 1_455 S
H236 C242 0.930 . S
H237 C245 0.930 . S
H238 C246 0.930 . S
H239 C247 0.930 . S
H240 C250 0.930 . S
H241 C251 0.930 . S
C242 H236 0.930 . S
C242 C243 1.355 . S
C242 C244 1.415 1_556 S
C243 C242 1.355 . S
C243 C245 1.419 . S
C244 C242 1.415 1_554 S
C244 C249 1.425 1_544 S
C244 C251 1.409 . S
C245 H237 0.930 . S
C245 C243 1.419 . S
C245 C246 1.362 1_545 S
C246 H238 0.930 . S
C246 C245 1.362 1_565 S
C246 C249 1.409 . S
C247 H239 0.930 . S
C247 C248 1.355 . S
C247 C249 1.415 1_554 S
C248 C247 1.355 . S
C248 C250 1.419 . S
C249 C244 1.425 1_566 S
C249 C246 1.409 . S
C249 C247 1.415 1_556 S
C250 H240 0.930 . S
C250 C248 1.419 . S
C250 C251 1.362 1_565 S
C251 H241 0.930 . S
C251 C244 1.409 . S
C251 C250 1.362 1_545 S
H252 C258 0.930 . S
H253 C261 0.930 . S
H254 C262 0.930 . S
H255 C263 0.930 . S
H256 C266 0.930 . S
H257 C267 0.930 . S
C258 H252 0.930 . S
C258 C259 1.355 . S
C258 C260 1.415 . S
C259 C258 1.355 . S
C259 C261 1.419 . S
C260 C258 1.415 . S
C260 C265 1.425 . S
C260 C267 1.409 . S
C261 H253 0.930 . S
C261 C259 1.419 . S
C261 C262 1.362 . S
C262 H254 0.930 . S
C262 C261 1.362 . S
C262 C265 1.409 . S
C263 H255 0.930 . S
C263 C264 1.355 . S
C263 C265 1.415 . S
C264 C263 1.355 . S
C264 C266 1.419 . S
C265 C260 1.425 . S
C265 C262 1.409 . S
C265 C263 1.415 . S
C266 H256 0.930 . S
C266 C264 1.419 . S
C266 C267 1.362 . S
C267 H257 0.930 . S
C267 C260 1.409 . S
C267 C266 1.362 . S
H268 C274 0.930 . S
H269 C277 0.930 . S
H270 C278 0.930 . S
H271 C279 0.930 . S
H272 C282 0.930 . S
H273 C283 0.930 . S
C274 H268 0.930 . S
C274 C275 1.355 . S
C274 C276 1.415 . S
C275 C274 1.355 . S
C275 C277 1.419 . S
C276 C274 1.415 . S
C276 C281 1.425 . S
C276 C283 1.409 . S
C277 H269 0.930 . S
C277 C275 1.419 . S
C277 C278 1.362 . S
C278 H270 0.930 . S
C278 C277 1.362 . S
C278 C281 1.409 . S
C279 H271 0.930 . S
C279 C280 1.355 . S
C279 C281 1.415 . S
C280 C279 1.355 . S
C280 C282 1.419 . S
C281 C276 1.425 . S
C281 C278 1.409 . S
C281 C279 1.415 . S
C282 H272 0.930 . S
C282 C280 1.419 . S
C282 C283 1.362 . S
C283 H273 0.930 . S
C283 C276 1.409 . S
C283 C282 1.362 . S
H284 C290 0.930 . S
H285 C293 0.930 . S
H286 C294 0.930 . S
H287 C295 0.930 . S
H288 C298 0.930 . S
H289 C299 0.930 . S
C290 H284 0.930 . S
C290 C291 1.355 . S
C290 C292 1.415 . S
C291 C290 1.355 . S
C291 C293 1.419 . S
C292 C290 1.415 . S
C292 C297 1.425 . S
C292 C299 1.409 . S
C293 H285 0.930 . S
C293 C291 1.419 . S
C293 C294 1.362 . S
C294 H286 0.930 . S
C294 C293 1.362 . S
C294 C297 1.409 . S
C295 H287 0.930 . S
C295 C296 1.355 . S
C295 C297 1.415 . S
C296 C295 1.355 . S
C296 C298 1.419 . S
C297 C292 1.425 . S
C297 C294 1.409 . S
C297 C295 1.415 . S
C298 H288 0.930 . S
C298 C296 1.419 . S
C298 C299 1.362 . S
C299 H289 0.930 . S
C299 C292 1.409 . S
C299 C298 1.362 . S
H300 C306 0.930 . S
H301 C309 0.930 . S
H302 C310 0.930 . S
H303 C311 0.930 . S
H304 C314 0.930 . S
H305 C315 0.930 . S
C306 H300 0.930 . S
C306 C307 1.355 . S
C306 C308 1.415 . S
C307 C306 1.355 . S
C307 C309 1.419 . S
C308 C306 1.415 . S
C308 C313 1.425 . S
C308 C315 1.409 . S
C309 H301 0.930 . S
C309 C307 1.419 . S
C309 C310 1.362 . S
C310 H302 0.930 . S
C310 C309 1.362 . S
C310 C313 1.409 . S
C311 H303 0.930 . S
C311 C312 1.355 . S
C311 C313 1.415 . S
C312 C311 1.355 . S
C312 C314 1.419 . S
C313 C308 1.425 . S
C313 C310 1.409 . S
C313 C311 1.415 . S
C314 H304 0.930 . S
C314 C312 1.419 . S
C314 C315 1.362 . S
C315 H305 0.930 . S
C315 C308 1.409 . S
C315 C314 1.362 . S
H316 C322 0.930 . S
H317 C325 0.930 . S
H318 C326 0.930 . S
H319 C327 0.930 . S
H320 C330 0.930 . S
H321 C331 0.930 . S
C322 H316 0.930 . S
C322 C323 1.355 . S
C322 C324 1.415 . S
C323 C322 1.355 . S
C323 C325 1.419 . S
C324 C322 1.415 . S
C324 C329 1.425 . S
C324 C331 1.409 . S
C325 H317 0.930 . S
C325 C323 1.419 . S
C325 C326 1.362 . S
C326 H318 0.930 . S
C326 C325 1.362 . S
C326 C329 1.409 . S
C327 H319 0.930 . S
C327 C328 1.355 . S
C327 C329 1.415 . S
C328 C327 1.355 . S
C328 C330 1.419 . S
C329 C324 1.425 . S
C329 C326 1.409 . S
C329 C327 1.415 . S
C330 H320 0.930 . S
C330 C328 1.419 . S
C330 C331 1.362 . S
C331 H321 0.930 . S
C331 C324 1.409 . S
C331 C330 1.362 . S
H332 C338 0.930 . S
H333 C341 0.930 . S
H334 C342 0.930 . S
H335 C343 0.930 . S
H336 C346 0.930 . S
H337 C347 0.930 . S
C338 H332 0.930 . S
C338 C339 1.355 . S
C338 C340 1.415 . S
C339 C338 1.355 . S
C339 C341 1.419 . S
C340 C338 1.415 . S
C340 C345 1.425 . S
C340 C347 1.409 . S
C341 H333 0.930 . S
C341 C339 1.419 . S
C341 C342 1.362 . S
C342 H334 0.930 . S
C342 C341 1.362 . S
C342 C345 1.409 . S
C343 H335 0.930 . S
C343 C344 1.355 . S
C343 C345 1.415 . S
C344 C343 1.355 . S
C344 C346 1.419 . S
C345 C340 1.425 . S
C345 C342 1.409 . S
C345 C343 1.415 . S
C346 H336 0.930 . S
C346 C344 1.419 . S
C346 C347 1.362 . S
C347 H337 0.930 . S
C347 C340 1.409 . S
C347 C346 1.362 . S
H348 C354 0.930 . S
H349 C357 0.930 . S
H350 C358 0.930 . S
H351 C359 0.930 . S
H352 C362 0.930 . S
H353 C363 0.930 . S
C354 H348 0.930 . S
C354 C355 1.355 . S
C354 C356 1.415 . S
C355 C354 1.355 . S
C355 C357 1.419 . S
C356 C354 1.415 . S
C356 C361 1.425 . S
C356 C363 1.409 . S
C357 H349 0.930 . S
C357 C355 1.419 . S
C357 C358 1.362 . S
C358 H350 0.930 . S
C358 C357 1.362 . S
C358 C361 1.409 . S
C359 H351 0.930 . S
C359 C360 1.355 . S
C359 C361 1.415 . S
C360 C359 1.355 . S
C360 C362 1.419 . S
C361 C356 1.425 . S
C361 C358 1.409 . S
C361 C359 1.415 . S
C362 H352 0.930 . S
C362 C360 1.419 . S
C362 C363 1.362 . S
C363 H353 0.930 . S
C363 C356 1.409 . S
C363 C362 1.362 . S
H364 C370 0.930 . S
H365 C373 0.930 . S
H366 C374 0.930 1_455 S
H367 C375 0.930 . S
H368 C378 0.930 . S
H369 C379 0.930 1_655 S
C370 H364 0.930 . S
C370 C371 1.355 . S
C370 C372 1.415 . S
C371 C370 1.355 . S
C371 C373 1.419 . S
C372 C370 1.415 . S
C372 C377 1.425 1_655 S
C372 C379 1.409 1_655 S
C373 H365 0.930 . S
C373 C371 1.419 . S
C373 C374 1.362 . S
C374 H366 0.930 1_655 S
C374 C373 1.362 . S
C374 C377 1.409 1_655 S
C375 H367 0.930 . S
C375 C376 1.355 . S
C375 C377 1.415 . S
C376 C375 1.355 . S
C376 C378 1.419 . S
C377 C372 1.425 1_455 S
C377 C374 1.409 1_455 S
C377 C375 1.415 . S
C378 H368 0.930 . S
C378 C376 1.419 . S
C378 C379 1.362 . S
C379 H369 0.930 1_455 S
C379 C372 1.409 1_455 S
C379 C378 1.362 . S
H380 C386 0.930 1_545 S
H381 C389 0.930 . S
H382 C390 0.930 . S
H383 C391 0.930 1_565 S
H384 C394 0.930 . S
H385 C395 0.930 . S
C386 H380 0.930 1_565 S
C386 C387 1.355 . S
C386 C388 1.415 1_565 S
C387 C386 1.355 . S
C387 C389 1.419 . S
C388 C386 1.415 1_545 S
C388 C393 1.425 1_544 S
C388 C395 1.409 . S
C389 H381 0.930 . S
C389 C387 1.419 . S
C389 C390 1.362 1_554 S
C390 H382 0.930 . S
C390 C389 1.362 1_556 S
C390 C393 1.409 . S
C391 H383 0.930 1_545 S
C391 C392 1.355 . S
C391 C393 1.415 1_545 S
C392 C391 1.355 . S
C392 C394 1.419 . S
C393 C388 1.425 1_566 S
C393 C390 1.409 . S
C393 C391 1.415 1_565 S
C394 H384 0.930 . S
C394 C392 1.419 . S
C394 C395 1.362 1_556 S
C395 H385 0.930 . S
C395 C388 1.409 . S
C395 C394 1.362 1_554 S
H396 C402 0.930 . S
H397 C405 0.930 . S
H398 C406 0.930 . S
H399 C407 0.930 . S
H400 C410 0.930 . S
H401 C411 0.930 . S
C402 H396 0.930 . S
C402 C403 1.355 . S
C402 C404 1.415 . S
C403 C402 1.355 . S
C403 C405 1.419 . S
C404 C402 1.415 . S
C404 C409 1.425 . S
C404 C411 1.409 . S
C405 H397 0.930 . S
C405 C403 1.419 . S
C405 C406 1.362 . S
C406 H398 0.930 . S
C406 C405 1.362 . S
C406 C409 1.409 . S
C407 H399 0.930 . S
C407 C408 1.355 . S
C407 C409 1.415 . S
C408 C407 1.355 . S
C408 C410 1.419 . S
C409 C404 1.425 . S
C409 C406 1.409 . S
C409 C407 1.415 . S
C410 H400 0.930 . S
C410 C408 1.419 . S
C410 C411 1.362 . S
C411 H401 0.930 . S
C411 C404 1.409 . S
C411 C410 1.362 . S
H412 C418 0.930 . S
H413 C421 0.930 . S
H414 C422 0.918 1_655 S
H415 C423 0.930 . S
H416 C426 0.930 . S
H417 C427 0.918 1_455 S
C418 H412 0.930 . S
C418 C419 1.355 . S
C418 C420 1.415 . S
C419 C418 1.355 . S
C419 C421 1.419 . S
C420 C418 1.415 . S
C420 C425 1.425 1_455 S
C420 C427 1.411 1_455 S
C421 H413 0.930 . S
C421 C419 1.419 . S
C421 C422 1.373 . S
C422 H414 0.918 1_455 S
C422 C421 1.373 . S
C422 C425 1.411 1_455 S
C423 H415 0.930 . S
C423 C424 1.355 . S
C423 C425 1.415 . S
C424 C423 1.355 . S
C424 C426 1.419 . S
C425 C420 1.425 1_655 S
C425 C422 1.411 1_655 S
C425 C423 1.415 . S
C426 H416 0.930 . S
C426 C424 1.419 . S
C426 C427 1.372 . S
C427 H417 0.918 1_655 S
C427 C420 1.411 1_655 S
C427 C426 1.372 . S
H428 C434 0.930 . S
H429 C437 0.930 . S
H430 C438 0.930 . S
H431 C439 0.930 . S
H432 C442 0.930 . S
H433 C443 0.930 . S
C434 H428 0.930 . S
C434 C435 1.355 . S
C434 C436 1.415 . S
C435 C434 1.355 . S
C435 C437 1.419 . S
C436 C434 1.415 . S
C436 C441 1.425 1_565 S
C436 C443 1.409 . S
C437 H429 0.930 . S
C437 C435 1.419 . S
C437 C438 1.362 1_565 S
C438 H430 0.930 . S
C438 C437 1.362 1_545 S
C438 C441 1.409 . S
C439 H431 0.930 . S
C439 C440 1.355 . S
C439 C441 1.415 . S
C440 C439 1.355 . S
C440 C442 1.419 . S
C441 C436 1.425 1_545 S
C441 C438 1.409 . S
C441 C439 1.415 . S
C442 H432 0.930 . S
C442 C440 1.419 . S
C442 C443 1.362 1_545 S
C443 H433 0.930 . S
C443 C436 1.409 . S
C443 C442 1.362 1_565 S
H444 C450 0.930 . S
H445 C453 0.930 . S
H446 C454 0.930 . S
H447 C455 0.930 . S
H448 C458 0.930 . S
H449 C459 0.930 . S
C450 H444 0.930 . S
C450 C451 1.355 . S
C450 C452 1.415 . S
C451 C450 1.355 . S
C451 C453 1.419 . S
C452 C450 1.415 . S
C452 C457 1.425 . S
C452 C459 1.409 . S
C453 H445 0.930 . S
C453 C451 1.419 . S
C453 C454 1.362 . S
C454 H446 0.930 . S
C454 C453 1.362 . S
C454 C457 1.409 . S
C455 H447 0.930 . S
C455 C456 1.355 . S
C455 C457 1.415 . S
C456 C455 1.355 . S
C456 C458 1.419 . S
C457 C452 1.425 . S
C457 C454 1.409 . S
C457 C455 1.415 . S
C458 H448 0.930 . S
C458 C456 1.419 . S
C458 C459 1.362 . S
C459 H449 0.930 . S
C459 C452 1.409 . S
C459 C458 1.362 . S
H460 C466 0.930 . S
H461 C469 0.930 . S
H462 C470 0.930 . S
H463 C471 0.930 . S
H464 C474 0.930 . S
H465 C475 0.930 . S
C466 H460 0.930 . S
C466 C467 1.355 . S
C466 C468 1.415 . S
C467 C466 1.355 . S
C467 C469 1.419 . S
C468 C466 1.415 . S
C468 C473 1.425 . S
C468 C475 1.409 . S
C469 H461 0.930 . S
C469 C467 1.419 . S
C469 C470 1.362 . S
C470 H462 0.930 . S
C470 C469 1.362 . S
C470 C473 1.409 . S
C471 H463 0.930 . S
C471 C472 1.355 . S
C471 C473 1.415 . S
C472 C471 1.355 . S
C472 C474 1.419 . S
C473 C468 1.425 . S
C473 C470 1.409 . S
C473 C471 1.415 . S
C474 H464 0.930 . S
C474 C472 1.419 . S
C474 C475 1.362 . S
C475 H465 0.930 . S
C475 C468 1.409 . S
C475 C474 1.362 . S
H476 C482 0.930 . S
H477 C485 0.930 . S
H478 C486 0.930 . S
H479 C487 0.930 . S
H480 C490 0.930 . S
H481 C491 0.930 . S
C482 H476 0.930 . S
C482 C483 1.338 1_556 S
C482 C484 1.415 . S
C483 C482 1.338 1_554 S
C483 C485 1.427 . S
C484 C482 1.415 . S
C484 C489 1.425 . S
C484 C491 1.409 . S
C485 H477 0.930 . S
C485 C483 1.427 . S
C485 C486 1.362 . S
C486 H478 0.930 . S
C486 C485 1.362 . S
C486 C489 1.409 1_554 S
C487 H479 0.930 . S
C487 C488 1.355 . S
C487 C489 1.415 . S
C488 C487 1.355 . S
C488 C490 1.419 . S
C489 C484 1.425 . S
C489 C486 1.409 1_556 S
C489 C487 1.415 . S
C490 H480 0.930 . S
C490 C488 1.419 . S
C490 C491 1.362 . S
C491 H481 0.930 . S
C491 C484 1.409 . S
C491 C490 1.362 . S
H492 C498 0.930 . S
H493 C501 0.930 . S
H494 C502 0.930 . S
H495 C503 0.930 1_556 S
H496 C506 0.930 . S
H497 C507 0.930 . S
C498 H492 0.930 . S
C498 C499 1.355 . S
C498 C500 1.415 . S
C499 C498 1.355 . S
C499 C501 1.419 . S
C500 C498 1.415 . S
C500 C505 1.425 . S
C500 C507 1.409 . S
C501 H493 0.930 . S
C501 C499 1.419 . S
C501 C502 1.362 . S
C502 H494 0.930 . S
C502 C501 1.362 . S
C502 C505 1.409 . S
C503 H495 0.930 1_554 S
C503 C504 1.355 . S
C503 C505 1.415 . S
C504 C503 1.355 . S
C504 C506 1.419 . S
C505 C500 1.425 . S
C505 C502 1.409 . S
C505 C503 1.415 . S
C506 H496 0.930 . S
C506 C504 1.419 . S
C506 C507 1.362 . S
C507 H497 0.930 . S
C507 C500 1.409 . S
C507 C506 1.362 . S
H508 C514 0.930 . S
H509 C517 0.930 . S
H510 C518 0.930 . S
H511 C519 0.930 . S
H512 C522 0.930 . S
H513 C523 0.930 . S
C514 H508 0.930 . S
C514 C515 1.355 . S
C514 C516 1.415 . S
C515 C514 1.355 . S
C515 C517 1.419 . S
C516 C514 1.415 . S
C516 C521 1.425 . S
C516 C523 1.409 . S
C517 H509 0.930 . S
C517 C515 1.419 . S
C517 C518 1.362 . S
C518 H510 0.930 . S
C518 C517 1.362 . S
C518 C521 1.409 . S
C519 H511 0.930 . S
C519 C520 1.355 . S
C519 C521 1.415 . S
C520 C519 1.355 . S
C520 C522 1.419 . S
C521 C516 1.425 . S
C521 C518 1.409 . S
C521 C519 1.415 . S
C522 H512 0.930 . S
C522 C520 1.419 . S
C522 C523 1.362 . S
C523 H513 0.930 . S
C523 C516 1.409 . S
C523 C522 1.362 . S
H524 C530 0.930 . S
H525 C533 0.930 . S
H526 C534 0.930 . S
H527 C535 0.930 . S
H528 C538 0.930 . S
H529 C539 0.930 . S
C530 H524 0.930 . S
C530 C531 1.355 . S
C530 C532 1.415 . S
C531 C530 1.355 . S
C531 C533 1.419 . S
C532 C530 1.415 . S
C532 C537 1.425 . S
C532 C539 1.409 . S
C533 H525 0.930 . S
C533 C531 1.419 . S
C533 C534 1.362 . S
C534 H526 0.930 . S
C534 C533 1.362 . S
C534 C537 1.409 . S
C535 H527 0.930 . S
C535 C536 1.355 . S
C535 C537 1.415 . S
C536 C535 1.355 . S
C536 C538 1.419 . S
C537 C532 1.425 . S
C537 C534 1.409 . S
C537 C535 1.415 . S
C538 H528 0.930 . S
C538 C536 1.419 . S
C538 C539 1.362 . S
C539 H529 0.930 . S
C539 C532 1.409 . S
C539 C538 1.362 . S
C163 C122 1.342 . S
C168 C5 1.406 . S
C179 C18 1.405 . S
C184 C135 1.342 . S
C195 C148 1.413 . S
C200 C31 1.341 . S
C211 C83 1.363 . S
C216 C44 1.368 . S
C227 C96 1.402 . S
C232 C57 1.343 . S
C243 C109 1.371 . S
C248 C70 1.361 . S
C259 C88 1.419 . S
C264 C10 1.470 . S
C275 C23 1.456 . S
C280 C101 1.413 . S
C291 C114 1.442 . S
C296 C36 1.475 . S
C307 C49 1.416 . S
C312 C127 1.466 . S
C323 C140 1.471 . S
C328 C62 1.421 . S
C339 C75 1.460 . S
C344 C153 1.467 . S
C355 C125 1.086 . S
C360 C8 1.085 . S
C371 C138 1.031 . S
C376 C21 1.048 . S
C387 C151 1.081 . S
C392 C34 1.087 . S
C403 C47 1.060 . S
C408 C86 1.077 . S
C419 C99 1.065 . S
C424 C60 1.045 . S
C435 C73 1.023 . S
C440 C112 1.035 . S
C451 C0 1.359 . S
C456 C104 1.404 . S
C467 C117 1.396 . S
C472 C13 1.338 . S
C483 C130 1.380 . S
C488 C26 1.402 . S
C499 C143 1.376 . S
C504 C39 1.324 1_554 S
C515 C78 1.359 . S
C520 C52 1.404 . S
C531 C91 1.404 . S
C536 C65 1.364 . S
