# Generated by pormake.
# Topology rob, (6)-cn, num edge types: 1
# Building blocks:
#     Node 0, Type 0, BuildingBlock: MIFKUJ_clean_sbu_0, # of connection points: 6
#     Node 1, Type 0, BuildingBlock: MIFKUJ_clean_sbu_0, # of connection points: 6
#     Node 2, Type 0, BuildingBlock: MIFKUJ_clean_sbu_0, # of connection points: 6
#     Node 3, Type 0, BuildingBlock: MIFKUJ_clean_sbu_0, # of connection points: 6
#     Edge 4, Type (0, 0), BuildingBlock: MIFKUJ_clean_linker_0, # of connection points: 2
#     Edge 5, Type (0, 0), BuildingBlock: MIFKUJ_clean_linker_0, # of connection points: 2
#     Edge 6, Type (0, 0), BuildingBlock: MIFKUJ_clean_linker_0, # of connection points: 2
#     Edge 7, Type (0, 0), BuildingBlock: MIFKUJ_clean_linker_0, # of connection points: 2
#     Edge 8, Type (0, 0), BuildingBlock: MIFKUJ_clean_linker_0, # of connection points: 2
#     Edge 9, Type (0, 0), BuildingBlock: MIFKUJ_clean_linker_0, # of connection points: 2
#     Edge 10, Type (0, 0), BuildingBlock: MIFKUJ_clean_linker_0, # of connection points: 2
#     Edge 11, Type (0, 0), BuildingBlock: MIFKUJ_clean_linker_0, # of connection points: 2
#     Edge 12, Type (0, 0), BuildingBlock: MIFKUJ_clean_linker_0, # of connection points: 2
#     Edge 13, Type (0, 0), BuildingBlock: MIFKUJ_clean_linker_0, # of connection points: 2
#     Edge 14, Type (0, 0), BuildingBlock: MIFKUJ_clean_linker_0, # of connection points: 2
#     Edge 15, Type (0, 0), BuildingBlock: MIFKUJ_clean_linker_0, # of connection points: 2
# Relax obj value: 0.067
# Max RMSD: 0.155
# Mean RMSD: 0.155
data_MOF--net-rob--node1-MIFKUJ_clean_sbu_0--edge1-MIFKUJ_clean_linker_0
_symmetry_space_group_name_H-M    P1
_symmetry_Int_Tables_number       1
_symmetry_cell_setting            triclinic
loop_
_symmetry_equiv_pos_as_xyz
'x, y, z'
_cell_length_a     19.848854
_cell_length_b     31.448602
_cell_length_c     38.454138
_cell_angle_alpha  90.098196
_cell_angle_beta   84.662639
_cell_angle_gamma 90.076796
loop_
_atom_site_label
_atom_site_type_symbol
_atom_site_fract_x
_atom_site_fract_y
_atom_site_fract_z
_atom_type_partial_charge
Zn0 Zn 0.15459 0.28316 0.00845 0.0
Zn1 Zn 0.2393 0.2541 0.07248 0.0
C2 C 0.25164 0.29294 0.95249 0.0
O3 O 0.22338 0.33067 0.95554 0.0
C4 C 0.14237 0.2272 0.12455 0.0
O5 O 0.17591 0.19223 0.11571 0.0
O6 O 0.08519 0.29669 0.97515 0.0
O7 O 0.11859 0.23352 0.0375 0.0
O8 O 0.2197 0.20637 0.03989 0.0
C9 C 0.06634 0.26489 0.95803 0.0
O10 O 0.08744 0.2268 0.96582 0.0
O11 O 0.23312 0.26457 0.97491 0.0
C12 C 0.32031 0.26232 0.12664 0.0
O13 O 0.29041 0.2995 0.12562 0.0
O14 O 0.30989 0.23492 0.10338 0.0
O15 O 0.27176 0.31044 0.05276 0.0
O16 O 0.18151 0.33738 0.03128 0.0
O17 O 0.15782 0.26121 0.10774 0.0
C18 C 0.15704 0.20124 0.03685 0.0
C19 C 0.23958 0.34206 0.04218 0.0
Zn20 Zn 0.7617 0.75444 0.93094 0.0
Zn21 Zn 0.8249 0.71611 0.99896 0.0
C22 C 0.88912 0.74782 0.89328 0.0
O23 O 0.88153 0.78923 0.89586 0.0
C24 C 0.72859 0.71267 0.05525 0.0
O25 O 0.74465 0.67262 0.0493 0.0
O26 O 0.71885 0.77809 0.88884 0.0
O27 O 0.69671 0.71379 0.95549 0.0
O28 O 0.77546 0.67127 0.97254 0.0
C29 C 0.71882 0.75308 0.86273 0.0
O30 O 0.7412 0.7141 0.86576 0.0
O31 O 0.84454 0.72385 0.90895 0.0
C32 C 0.9408 0.70474 0.03955 0.0
O33 O 0.96248 0.73974 0.02362 0.0
O34 O 0.88712 0.68713 0.03077 0.0
O35 O 0.87638 0.76514 0.97495 0.0
O36 O 0.78915 0.80245 0.96104 0.0
O37 O 0.75513 0.7408 0.03457 0.0
C38 C 0.71441 0.67769 0.96621 0.0
C39 C 0.84747 0.80084 0.97203 0.0
Zn40 Zn 0.32443 0.77076 0.50082 0.0
Zn41 Zn 0.24841 0.73459 0.43237 0.0
C42 C 0.24163 0.77221 0.56256 0.0
O43 O 0.2621 0.81178 0.55828 0.0
C44 C 0.36283 0.72895 0.38573 0.0
O45 O 0.34371 0.68917 0.39033 0.0
O46 O 0.39713 0.79599 0.52869 0.0
O47 O 0.36836 0.72325 0.47138 0.0
O48 O 0.27622 0.68745 0.46278 0.0
C49 C 0.43407 0.76946 0.5431 0.0
O50 O 0.42678 0.72876 0.53673 0.0
O51 O 0.25965 0.74527 0.53882 0.0
C52 C 0.17224 0.73798 0.37428 0.0
O53 O 0.18572 0.77835 0.3792 0.0
O54 O 0.19211 0.71074 0.39553 0.0
O55 O 0.19419 0.78073 0.4566 0.0
O56 O 0.27361 0.81856 0.47921 0.0
O57 O 0.33032 0.75769 0.40347 0.0
C58 C 0.33718 0.68803 0.47021 0.0
C59 C 0.21441 0.81529 0.4692 0.0
Zn60 Zn 0.73305 0.23806 0.57111 0.0
Zn61 Zn 0.65189 0.20434 0.50951 0.0
C62 C 0.63116 0.26092 0.6213 0.0
O63 O 0.66445 0.29646 0.61409 0.0
C64 C 0.74937 0.19 0.45459 0.0
O65 O 0.7195 0.15285 0.45916 0.0
O66 O 0.7992 0.25712 0.60474 0.0
O67 O 0.77114 0.18417 0.5502 0.0
O68 O 0.67849 0.1525 0.53584 0.0
C69 C 0.80681 0.22896 0.62775 0.0
O70 O 0.777 0.19192 0.62495 0.0
O71 O 0.64871 0.22775 0.60376 0.0
C72 C 0.56538 0.2195 0.45828 0.0
O73 O 0.58694 0.25777 0.46536 0.0
O74 O 0.58352 0.18823 0.47613 0.0
O75 O 0.61507 0.25648 0.53529 0.0
O76 O 0.71458 0.28575 0.53885 0.0
O77 O 0.73166 0.22004 0.47566 0.0
C78 C 0.73911 0.1505 0.54386 0.0
C79 C 0.65229 0.28944 0.53439 0.0
H80 H 0.5779 0.68542 0.96425 0.0
H81 H 0.49096 0.63193 0.97917 0.0
H82 H 0.64449 0.54136 1.0007 0.0
H83 H 0.73241 0.59488 0.98588 0.0
H84 H 0.54526 0.50883 0.95875 0.0
H85 H 0.54559 0.5736 0.07725 0.0
H86 H 0.54391 0.63506 0.11716 0.0
H87 H 0.37242 0.68643 0.07136 0.0
H88 H 0.37134 0.62406 0.03222 0.0
H89 H 0.33367 0.37265 0.08275 0.0
H90 H 0.40486 0.43571 0.07191 0.0
H91 H 0.29825 0.46677 0.98265 0.0
H92 H 0.22483 0.40456 0.99413 0.0
H93 H 0.37064 0.53033 0.05843 0.0
H94 H 0.44032 0.47522 0.91911 0.0
H95 H 0.44098 0.40923 0.88404 0.0
H96 H 0.47999 0.33581 0.97399 0.0
H97 H 0.48061 0.4013 0.00939 0.0
C98 C 0.59348 0.65408 0.97204 0.0
C99 C 0.66229 0.64439 0.97381 0.0
C100 C 0.54352 0.62368 0.98077 0.0
C101 C 0.5613 0.58292 0.99135 0.0
C102 C 0.62986 0.57277 0.99265 0.0
C103 C 0.68001 0.60333 0.98417 0.0
C104 C 0.50813 0.55079 1.00059 0.0
C105 C 0.50703 0.51361 0.98046 0.0
C106 C 0.45811 0.557 0.02878 0.0
C107 C 0.45881 0.5946 0.05175 0.0
C108 C 0.50772 0.59813 0.07569 0.0
C109 C 0.50714 0.63305 0.09822 0.0
C110 C 0.45874 0.66503 0.09651 0.0
C111 C 0.41016 0.6618 0.07254 0.0
C112 C 0.40965 0.62646 0.05043 0.0
C113 C 0.32425 0.39352 0.06135 0.0
C114 C 0.27412 0.3836 0.03911 0.0
C115 C 0.36472 0.42954 0.0553 0.0
C116 C 0.35681 0.45553 0.02642 0.0
C117 C 0.30479 0.44695 0.0051 0.0
C118 C 0.26303 0.41147 0.01169 0.0
C119 C 0.4078 0.48858 0.01653 0.0
C120 C 0.4084 0.52586 0.03646 0.0
C121 C 0.45756 0.48234 0.98823 0.0
C122 C 0.4596 0.44303 0.96692 0.0
C123 C 0.44929 0.44498 0.93132 0.0
C124 C 0.44943 0.40772 0.91142 0.0
C125 C 0.46011 0.36845 0.9269 0.0
C126 C 0.47131 0.36628 0.96216 0.0
C127 C 0.47136 0.40343 0.98213 0.0
H128 H 0.45988 0.33967 0.91156 0.0
H129 H 0.45861 0.69213 0.1139 0.0
H130 H 0.28404 0.60786 0.47348 0.0
H131 H 0.34207 0.5417 0.4851 0.0
H132 H 0.52816 0.61092 0.49202 0.0
H133 H 0.47093 0.67721 0.47965 0.0
H134 H 0.54767 0.53726 0.45461 0.0
H135 H 0.43554 0.58082 0.565 0.0
H136 H 0.33686 0.60467 0.60379 0.0
H137 H 0.23374 0.48775 0.58561 0.0
H138 H 0.3313 0.46352 0.54615 0.0
H139 H 0.7161 0.36677 0.5317 0.0
H140 H 0.6659 0.43634 0.52227 0.0
H141 H 0.47121 0.37705 0.51614 0.0
H142 H 0.52051 0.30763 0.52603 0.0
H143 H 0.46057 0.44819 0.55541 0.0
H144 H 0.56649 0.40629 0.44294 0.0
H145 H 0.66095 0.38256 0.40128 0.0
H146 H 0.77273 0.49541 0.42186 0.0
H147 H 0.67925 0.51953 0.46407 0.0
C148 C 0.33735 0.60903 0.47731 0.0
C149 C 0.37271 0.64783 0.47602 0.0
C150 C 0.37037 0.57124 0.48408 0.0
C151 C 0.43909 0.57162 0.48994 0.0
C152 C 0.475 0.61007 0.48774 0.0
C153 C 0.44207 0.6479 0.48087 0.0
C154 C 0.47315 0.53187 0.49882 0.0
C155 C 0.52939 0.51808 0.47696 0.0
C156 C 0.4483 0.50662 0.52764 0.0
C157 C 0.39054 0.52051 0.55236 0.0
C158 C 0.39171 0.56027 0.56914 0.0
C159 C 0.33595 0.57386 0.59124 0.0
C160 C 0.27898 0.54779 0.59705 0.0
C161 C 0.27787 0.50793 0.58101 0.0
C162 C 0.33339 0.49424 0.5588 0.0
C163 C 0.66258 0.36857 0.52844 0.0
C164 C 0.62236 0.33169 0.52944 0.0
C165 C 0.63404 0.4083 0.52297 0.0
C166 C 0.56501 0.4117 0.5182 0.0
C167 C 0.52458 0.37505 0.5198 0.0
C168 C 0.55297 0.33541 0.52531 0.0
C169 C 0.53474 0.45333 0.51099 0.0
C170 C 0.47924 0.46752 0.53322 0.0
C171 C 0.56008 0.47884 0.48242 0.0
C172 C 0.6162 0.46448 0.45695 0.0
C173 C 0.61145 0.42588 0.4388 0.0
C174 C 0.66476 0.41238 0.41505 0.0
C175 C 0.72289 0.4374 0.409 0.0
C176 C 0.72773 0.47603 0.42662 0.0
C177 C 0.67458 0.48964 0.45045 0.0
H178 H 0.76411 0.4269 0.3906 0.0
H179 H 0.23566 0.55845 0.61394 0.0
H180 H 0.22548 0.12585 0.02847 0.0
H181 H 0.17755 0.0551 0.02054 0.0
H182 H 0.97671 0.10862 0.02924 0.0
H183 H 0.02395 0.17931 0.03725 0.0
H184 H 0.98392 0.03373 0.06656 0.0
H185 H 0.05155 0.08737 0.95119 0.0
H186 H 0.13191 0.11769 0.90503 0.0
H187 H 0.25993 0.00826 0.90973 0.0
H188 H 0.18076 0.97759 0.95636 0.0
H189 H 0.79278 0.87958 0.98406 0.0
H190 H 0.8515 0.94484 0.9984 0.0
H191 H 0.04109 0.87712 0.99164 0.0
H192 H 0.98273 0.81157 0.97745 0.0
H193 H 0.04669 0.95572 0.95597 0.0
H194 H 0.97424 0.89953 0.06856 0.0
H195 H 0.89309 0.86931 0.11442 0.0
H196 H 0.77365 0.98306 0.11489 0.0
H197 H 0.85355 0.01375 0.06863 0.0
C198 C 0.1711 0.12252 0.02887 0.0
C199 C 0.12853 0.1582 0.03327 0.0
C200 C 0.14385 0.08213 0.0243 0.0
C201 C 0.07368 0.07678 0.02409 0.0
C202 C 0.031 0.11213 0.02938 0.0
C203 C 0.05815 0.15251 0.03377 0.0
C204 C 0.04463 0.03462 0.01712 0.0
C205 C 0.99719 0.01678 0.0423 0.0
C206 C 0.06327 0.0122 0.98577 0.0
C207 C 0.11063 0.03041 0.95754 0.0
C208 C 0.09712 0.06993 0.94259 0.0
C209 C 0.1424 0.08716 0.91631 0.0
C210 C 0.2011 0.06497 0.90453 0.0
C211 C 0.21451 0.02545 0.91893 0.0
C212 C 0.16944 0.00812 0.94528 0.0
C213 C 0.84698 0.87859 0.98553 0.0
C214 C 0.88313 0.84046 0.97975 0.0
C215 C 0.88035 0.9158 0.9939 0.0
C216 C 0.95042 0.91557 0.99635 0.0
C217 C 0.98691 0.87779 0.98998 0.0
C218 C 0.95346 0.84041 0.98202 0.0
C219 C 0.98544 0.95507 0.00523 0.0
C220 C 0.03392 0.97244 0.98039 0.0
C221 C 0.9677 0.97704 0.03688 0.0
C222 C 0.91961 0.95879 0.06485 0.0
C223 C 0.93036 0.91797 0.07821 0.0
C224 C 0.88465 0.90078 0.10433 0.0
C225 C 0.82816 0.9242 0.11749 0.0
C226 C 0.8174 0.96493 0.10464 0.0
C227 C 0.86293 0.98226 0.07849 0.0
H228 H 0.79279 0.91083 0.13768 0.0
H229 H 0.2361 0.07836 0.88418 0.0
H230 H 0.71076 0.07771 0.50828 0.0
H231 H 0.78617 0.01645 0.4968 0.0
H232 H 0.9274 0.07127 0.56301 0.0
H233 H 0.85323 0.1323 0.57428 0.0
H234 H 0.98513 0.05412 0.49785 0.0
H235 H 0.84094 0.9823 0.58744 0.0
H236 H 0.73367 0.95402 0.61582 0.0
H237 H 0.70829 0.87724 0.52552 0.0
H238 H 0.81509 0.90545 0.49642 0.0
H239 H 0.22685 0.88883 0.5066 0.0
H240 H 0.14141 0.94435 0.51838 0.0
H241 H 0.00778 0.87801 0.45444 0.0
H242 H 0.09222 0.82237 0.44281 0.0
H243 H 0.94255 0.89993 0.51537 0.0
H244 H 0.08437 0.9698 0.42573 0.0
H245 H 0.18968 -0.00172 0.39534 0.0
H246 H 0.21683 0.07923 0.48299 0.0
H247 H 0.11203 0.05089 0.51407 0.0
C248 C 0.75713 0.07612 0.52101 0.0
C249 C 0.77661 0.10999 0.54179 0.0
C250 C 0.80009 0.04116 0.51445 0.0
C251 C 0.86251 0.0396 0.52889 0.0
C252 C 0.87971 0.0721 0.55141 0.0
C253 C 0.83722 0.10693 0.55781 0.0
C254 C 0.91334 0.00673 0.51798 0.0
C255 C 0.97619 0.0204 0.50211 0.0
C256 C 0.90048 0.96277 0.52232 0.0
C257 C 0.83565 0.94638 0.53958 0.0
C258 C 0.81212 0.95975 0.57347 0.0
C259 C 0.7515 0.94363 0.58974 0.0
C260 C 0.71408 0.91394 0.57245 0.0
C261 C 0.73726 0.90029 0.53886 0.0
C262 C 0.79786 0.91631 0.52248 0.0
C263 C 0.17964 0.88637 0.49468 0.0
C264 C 0.16627 0.85112 0.47388 0.0
C265 C 0.1309 0.91812 0.5014 0.0
C266 C 0.06831 0.9153 0.4872 0.0
C267 C 0.05559 0.88068 0.46578 0.0
C268 C 0.10406 0.84896 0.45912 0.0
C269 C 0.0149 0.94742 0.49589 0.0
C270 C 0.95149 0.93364 0.5111 0.0
C271 C 0.02694 0.99135 0.49072 0.0
C272 C 0.09075 0.00784 0.47239 0.0
C273 C 0.11318 -0.00667 0.43868 0.0
C274 C 0.17269 0.00954 0.42129 0.0
C275 C 0.21006 0.04042 0.43728 0.0
C276 C 0.18792 0.05523 0.47067 0.0
C277 C 0.12844 0.03914 0.48817 0.0
H278 H 0.25605 0.05298 0.42374 0.0
H279 H 0.66725 0.90142 0.58512 0.0
H280 H 0.56146 0.14773 0.41797 0.0
H281 H 0.51774 0.14225 0.36039 0.0
H282 H 0.44738 0.27188 0.36976 0.0
H283 H 0.49101 0.27759 0.42683 0.0
H284 H 0.35598 0.21939 0.34185 0.0
H285 H 0.59523 0.25111 0.32762 0.0
H286 H 0.71618 0.23827 0.33354 0.0
H287 H 0.70689 0.12151 0.27617 0.0
H288 H 0.58541 0.1332 0.27054 0.0
H289 H 0.34721 0.31418 0.1802 0.0
H290 H 0.3891 0.2939 0.23533 0.0
H291 H 0.41534 0.16476 0.19884 0.0
H292 H 0.37264 0.18472 0.14316 0.0
H293 H 0.52432 0.20109 0.23909 0.0
H294 H 0.28343 0.17996 0.24599 0.0
H295 H 0.16669 0.20153 0.2377 0.0
H296 H 0.18214 0.3059 0.30863 0.0
H297 H 0.29972 0.28576 0.31656 0.0
C298 C 0.53527 0.17466 0.40801 0.0
C299 C 0.52966 0.21313 0.42674 0.0
C300 C 0.51084 0.17159 0.37509 0.0
C301 C 0.47996 0.20681 0.36076 0.0
C302 C 0.47107 0.24435 0.38036 0.0
C303 C 0.4961 0.24759 0.41292 0.0
C304 C 0.46013 0.20608 0.32461 0.0
C305 C 0.39267 0.21516 0.31938 0.0
C306 C 0.50806 0.19998 0.29535 0.0
C307 C 0.58091 0.19268 0.29913 0.0
C308 C 0.61872 0.22241 0.31665 0.0
C309 C 0.68744 0.21542 0.31988 0.0
C310 C 0.71915 0.17906 0.30531 0.0
C311 C 0.6822 0.14961 0.28752 0.0
C312 C 0.6134 0.15637 0.28434 0.0
C313 C 0.36272 0.28154 0.18355 0.0
C314 C 0.35584 0.25093 0.15743 0.0
C315 C 0.38663 0.27005 0.21511 0.0
C316 C 0.40427 0.22777 0.22123 0.0
C317 C 0.40165 0.19753 0.19453 0.0
C318 C 0.37726 0.209 0.16281 0.0
C319 C 0.42061 0.21532 0.25652 0.0
C320 C 0.48728 0.20396 0.26157 0.0
C321 C 0.37222 0.21997 0.28571 0.0
C322 C 0.30072 0.23147 0.28168 0.0
C323 C 0.26217 0.2077 0.25963 0.0
C324 C 0.19579 0.21969 0.25499 0.0
C325 C 0.16704 0.2551 0.27262 0.0
C326 C 0.20452 0.2785 0.29498 0.0
C327 C 0.27106 0.26683 0.29954 0.0
H328 H 0.11576 0.26446 0.26901 0.0
H329 H 0.77238 0.17376 0.30766 0.0
H330 H 0.69382 0.79268 0.08002 0.0
H331 H 0.63072 0.81038 0.13624 0.0
H332 H 0.60808 0.6768 0.15972 0.0
H333 H 0.66959 0.65892 0.10403 0.0
H334 H 0.49065 0.71968 0.17475 0.0
H335 H 0.72765 0.73307 0.1929 0.0
H336 H 0.84226 0.76292 0.18061 0.0
H337 H 0.76656 0.8877 0.20747 0.0
H338 H 0.65102 0.85867 0.21916 0.0
H339 H 0.44928 0.67479 0.3494 0.0
H340 H 0.51426 0.68814 0.29359 0.0
H341 H 0.45548 0.82006 0.29896 0.0
H342 H 0.38946 0.80696 0.35523 0.0
H343 H 0.60311 0.79478 0.26729 0.0
H344 H 0.36284 0.77181 0.25808 0.0
H345 H 0.25676 0.73287 0.27478 0.0
H346 H 0.34694 0.61754 0.23275 0.0
H347 H 0.45403 0.6555 0.21657 0.0
C348 C 0.67456 0.76715 0.09703 0.0
C349 C 0.68645 0.72438 0.08753 0.0
C350 C 0.63887 0.77732 0.12913 0.0
C351 C 0.61474 0.74483 0.15204 0.0
C352 C 0.62572 0.7023 0.14225 0.0
C353 C 0.6611 0.69217 0.11039 0.0
C354 C 0.57941 0.75417 0.1868 0.0
C355 C 0.51494 0.73654 0.19484 0.0
C356 C 0.61103 0.77644 0.21292 0.0
C357 C 0.68054 0.79382 0.20637 0.0
C358 C 0.7353 0.76694 0.19585 0.0
C359 C 0.80044 0.7837 0.18901 0.0
C360 C 0.81165 0.82721 0.19312 0.0
C361 C 0.75775 0.85402 0.20419 0.0
C362 C 0.69241 0.83745 0.21087 0.0
C363 C 0.45128 0.70691 0.33921 0.0
C364 C 0.41332 0.73968 0.3564 0.0
C365 C 0.4887 0.71448 0.30738 0.0
C366 C 0.48884 0.75491 0.29212 0.0
C367 C 0.45587 0.78866 0.31049 0.0
C368 C 0.41814 0.78108 0.34253 0.0
C369 C 0.51523 0.75952 0.25513 0.0
C370 C 0.57786 0.77947 0.24677 0.0
C371 C 0.48255 0.7387 0.2287 0.0
C372 C 0.41677 0.71646 0.23647 0.0
C373 C 0.36017 0.73811 0.25256 0.0
C374 C 0.29987 0.7162 0.26196 0.0
C375 C 0.29539 0.67271 0.25508 0.0
C376 C 0.35068 0.65119 0.23822 0.0
C377 C 0.41116 0.6729 0.22891 0.0
H378 H 0.24923 0.65559 0.26293 0.0
H379 H 0.86214 0.84013 0.18785 0.0
H380 H 0.74416 0.71418 0.7997 0.0
H381 H 0.70865 0.73604 0.7435 0.0
H382 H 0.61003 0.84621 0.79172 0.0
H383 H 0.64667 0.82476 0.84848 0.0
H384 H 0.52677 0.80014 0.75257 0.0
H385 H 0.73889 0.86963 0.72824 0.0
H386 H 0.86196 0.88269 0.72295 0.0
H387 H 0.89475 0.76879 0.66208 0.0
H388 H 0.77144 0.75582 0.66602 0.0
H389 H 0.42607 0.84257 0.58244 0.0
H390 H 0.4852 0.85742 0.63449 0.0
H391 H 0.59789 0.74085 0.6179 0.0
H392 H 0.53901 0.72576 0.56627 0.0
H393 H 0.6757 0.80796 0.64174 0.0
H394 H 0.4538 0.74394 0.66563 0.0
H395 H 0.33003 0.74251 0.66555 0.0
H396 H 0.31363 0.85292 0.73165 0.0
H397 H 0.43801 0.85687 0.73003 0.0
C398 C 0.7151 0.74319 0.79847 0.0
C399 C 0.69759 0.76751 0.8287 0.0
C400 C 0.6956 0.75595 0.76614 0.0
C401 C 0.65732 0.79302 0.76326 0.0
C402 C 0.64006 0.81767 0.7933 0.0
C403 C 0.66072 0.80529 0.82571 0.0
C404 C 0.62976 0.80286 0.72954 0.0
C405 C 0.55932 0.80303 0.72841 0.0
C406 C 0.67204 0.80613 0.69796 0.0
C407 C 0.74616 0.81164 0.69764 0.0
C408 C 0.77242 0.84717 0.714 0.0
C409 C 0.84209 0.85478 0.71095 0.0
C410 C 0.88609 0.82658 0.6922 0.0
C411 C 0.86053 0.79066 0.6765 0.0
C412 C 0.79073 0.78334 0.6789 0.0
C413 C 0.46465 0.82068 0.58943 0.0
C414 C 0.4775 0.78279 0.57047 0.0
C415 C 0.49821 0.82914 0.61921 0.0
C416 C 0.5454 0.79998 0.63026 0.0
C417 C 0.56167 0.76375 0.60988 0.0
C418 C 0.52771 0.75507 0.58046 0.0
C419 C 0.5728 0.80426 0.66476 0.0
C420 C 0.64314 0.80621 0.66597 0.0
C421 C 0.53021 0.80354 0.69647 0.0
C422 C 0.45542 0.80112 0.69723 0.0
C423 C 0.42401 0.7684 0.67964 0.0
C424 C 0.35364 0.76709 0.67995 0.0
C425 C 0.3139 0.79735 0.6989 0.0
C426 C 0.34452 0.82948 0.71701 0.0
C427 C 0.41499 0.8315 0.71614 0.0
H428 H 0.25942 0.79584 0.69976 0.0
H429 H 0.93996 0.83268 0.68981 0.0
H430 H 0.56531 0.19082 0.65084 0.0
H431 H 0.49706 0.1879 0.70749 0.0
H432 H 0.519 0.32351 0.71892 0.0
H433 H 0.58607 0.32686 0.66272 0.0
H434 H 0.5598 0.27751 0.77474 0.0
H435 H 0.37234 0.28669 0.70487 0.0
H436 H 0.29913 0.26566 0.6594 0.0
H437 H 0.26015 0.14546 0.71015 0.0
H438 H 0.3342 0.1655 0.75566 0.0
H439 H 0.31325 0.34894 0.90621 0.0
H440 H 0.37999 0.33322 0.85121 0.0
H441 H 0.35742 0.19886 0.87117 0.0
H442 H 0.29123 0.21433 0.927 0.0
H443 H 0.32141 0.23189 0.80182 0.0
H444 H 0.50154 0.22974 0.87632 0.0
H445 H 0.57101 0.25581 0.9218 0.0
H446 H 0.62089 0.36821 0.86156 0.0
H447 H 0.5504 0.3433 0.81606 0.0
C448 C 0.55441 0.22008 0.66515 0.0
C449 C 0.58169 0.259 0.65247 0.0
C450 C 0.51551 0.21835 0.69746 0.0
C451 C 0.50365 0.25546 0.71744 0.0
C452 C 0.52812 0.29448 0.704 0.0
C453 C 0.56638 0.29629 0.6718 0.0
C454 C 0.47036 0.25381 0.75347 0.0
C455 C 0.50757 0.26767 0.78066 0.0
C456 C 0.40288 0.23988 0.76117 0.0
C457 C 0.35976 0.22731 0.73336 0.0
C458 C 0.349 0.25552 0.70607 0.0
C459 C 0.30712 0.24385 0.68036 0.0
C460 C 0.2752 0.20419 0.68181 0.0
C461 C 0.28508 0.17612 0.709 0.0
C462 C 0.32704 0.18761 0.73475 0.0
C463 C 0.32311 0.316 0.8992 0.0
C464 C 0.29734 0.28286 0.92104 0.0
C465 C 0.36122 0.30711 0.86775 0.0
C466 C 0.37366 0.26494 0.8573 0.0
C467 C 0.34848 0.23162 0.87901 0.0
C468 C 0.31111 0.24052 0.9109 0.0
C469 C 0.41053 0.2564 0.82285 0.0
C470 C 0.37406 0.2408 0.79596 0.0
C471 C 0.47852 0.26928 0.81526 0.0
C472 C 0.52013 0.28476 0.84288 0.0
C473 C 0.52671 0.26022 0.87292 0.0
C474 C 0.56652 0.27473 0.89865 0.0
C475 C 0.60047 0.3136 0.89453 0.0
C476 C 0.59471 0.33805 0.86466 0.0
C477 C 0.55474 0.32377 0.83892 0.0
H478 H 0.63088 0.32491 0.91459 0.0
H479 H 0.24264 0.19527 0.66193 0.0
H480 H 0.06099 0.7297 0.06247 0.0
H481 H 0.0986 0.71893 0.12057 0.0
H482 H 0.92335 0.64079 0.14874 0.0
H483 H 0.88545 0.65126 0.09064 0.0
H484 H 0.93387 0.70559 0.19403 0.0
H485 H 0.07861 0.59897 0.14075 0.0
H486 H 0.1663 0.56586 0.09991 0.0
H487 H 0.3152 0.65159 0.13419 0.0
H488 H 0.22824 0.68628 0.1742 0.0
H489 H 0.15955 0.65741 0.34786 0.0
H490 H 0.11344 0.63743 0.29309 0.0
H491 H 0.06713 0.76892 0.27452 0.0
H492 H 0.11237 0.78902 0.32902 0.0
H493 H 0.15846 0.66179 0.22767 0.0
H494 H 0.92811 0.77561 0.22994 0.0
H495 H 0.83931 0.80556 0.27203 0.0
H496 H 0.8621 0.70087 0.34149 0.0
H497 H 0.94994 0.66979 0.29947 0.0
C498 C 0.03127 0.70937 0.08073 0.0
C499 C 0.97006 0.69152 0.07195 0.0
C500 C 0.05299 0.70312 0.11392 0.0
C501 C 0.01381 0.67905 0.13901 0.0
C502 C 0.95442 0.65944 0.12975 0.0
C503 C 0.93299 0.66532 0.09645 0.0
C504 C 0.03055 0.67867 0.17587 0.0
C505 C 0.98296 0.6958 0.20139 0.0
C506 C 0.09435 0.66543 0.18558 0.0
C507 C 0.14638 0.64565 0.16028 0.0
C508 C 0.12974 0.61135 0.13913 0.0
C509 C 0.17946 0.59223 0.1161 0.0
C510 C 0.24624 0.60677 0.11424 0.0
C511 C 0.26342 0.64054 0.13536 0.0
C512 C 0.21386 0.66 0.15819 0.0
C513 C 0.13855 0.68195 0.33236 0.0
C514 C 0.13952 0.7248 0.34285 0.0
C515 C 0.11243 0.6705 0.30103 0.0
C516 C 0.08621 0.70161 0.27986 0.0
C517 C 0.08604 0.74425 0.29066 0.0
C518 C 0.11232 0.75572 0.32179 0.0
C519 C 0.06306 0.69034 0.24535 0.0
C520 C 0.10936 0.67122 0.2203 0.0
C521 C -0.00166 0.70191 0.23596 0.0
C522 C 0.9459 0.72049 0.26158 0.0
C523 C 0.91389 0.75885 0.2541 0.0
C524 C 0.86375 0.77604 0.27795 0.0
C525 C 0.84519 0.75518 0.30945 0.0
C526 C 0.87667 0.71706 0.31712 0.0
C527 C 0.92669 0.69965 0.2933 0.0
H528 H 0.80636 0.76854 0.32789 0.0
H529 H 0.28472 0.59173 0.09657 0.0
H530 H 0.80232 0.13066 0.40844 0.0
H531 H 0.87072 0.14244 0.35342 0.0
H532 H 0.87075 0.27743 0.37353 0.0
H533 H 0.80101 0.26591 0.42883 0.0
H534 H 0.84067 0.25945 0.30749 0.0
H535 H 0.0134 0.21985 0.37987 0.0
H536 H 0.06751 0.17595 0.42246 0.0
H537 H 0.07199 0.06939 0.35237 0.0
H538 H 0.01701 0.11247 0.30952 0.0
H539 H 0.09119 0.29571 0.16267 0.0
H540 H 0.02305 0.29389 0.21919 0.0
H541 H 0.01634 0.1569 0.21407 0.0
H542 H 0.085 0.15846 0.15816 0.0
H543 H 0.05418 0.18152 0.2746 0.0
H544 H 0.87553 0.21861 0.20438 0.0
H545 H 0.81812 0.26078 0.16192 0.0
H546 H 0.82379 0.37091 0.22775 0.0
H547 H 0.88206 0.3295 0.27041 0.0
C548 C 0.81741 0.16287 0.40144 0.0
C549 C 0.79647 0.19736 0.42309 0.0
C550 C 0.8568 0.16952 0.37 0.0
C551 C 0.87649 0.21076 0.35956 0.0
C552 C 0.85629 0.24533 0.38121 0.0
C553 C 0.81686 0.23868 0.41286 0.0
C554 C 0.91584 0.21745 0.32532 0.0
C555 C 0.88818 0.24319 0.30048 0.0
C556 C 0.97688 0.19531 0.31597 0.0
C557 C 0.01051 0.16935 0.34158 0.0
C558 C 0.02546 0.18698 0.37362 0.0
C559 C 0.05638 0.16224 0.3978 0.0
C560 C 0.07302 0.11987 0.39017 0.0
C561 C 0.05901 0.1022 0.35826 0.0
C562 C 0.02805 0.12679 0.334 0.0
C563 C 0.07407 0.26529 0.17333 0.0
C564 C 0.09366 0.22722 0.15605 0.0
C565 C 0.03508 0.26428 0.2056 0.0
C566 C 0.01453 0.22523 0.22088 0.0
C567 C 0.03192 0.18737 0.20292 0.0
C568 C 0.07107 0.18834 0.17089 0.0
C569 C 0.97885 0.22328 0.25653 0.0
C570 C 0.00719 0.19831 0.28167 0.0
C571 C 0.91852 0.24608 0.26608 0.0
C572 C 0.88393 0.2711 0.24037 0.0
C573 C 0.86515 0.25193 0.20963 0.0
C574 C 0.8323 0.27566 0.18557 0.0
C575 C 0.81753 0.31853 0.19207 0.0
C576 C 0.8354 0.33773 0.22271 0.0
C577 C 0.8683 0.31413 0.24685 0.0
H578 H 0.79207 0.33685 0.17342 0.0
H579 H 0.09683 0.10076 0.40895 0.0
H580 H 0.86593 0.30412 0.64579 0.0
H581 H 0.90985 0.32114 0.70187 0.0
H582 H 0.86564 0.19333 0.73758 0.0
H583 H 0.82252 0.17602 0.6821 0.0
H584 H 0.81241 0.25473 0.78379 0.0
H585 H 0.02349 0.2205 0.71676 0.0
H586 H 0.1134 0.22767 0.66837 0.0
H587 H 0.1453 0.35755 0.69735 0.0
H588 H 0.0549 0.35129 0.74571 0.0
H589 H -0.00255 0.2048 0.92495 0.0
H590 H 0.94933 0.21121 0.86907 0.0
H591 H 0.00697 0.34347 0.86319 0.0
H592 H 0.05514 0.33737 0.91953 0.0
H593 H 0.04803 0.2955 0.80217 0.0
H594 H 0.84761 0.32268 0.87689 0.0
H595 H 0.76479 0.30959 0.92755 0.0
H596 H 0.71474 0.18871 0.88469 0.0
H597 H 0.79847 0.20054 0.83414 0.0
C598 C 0.86649 0.27954 0.66545 0.0
C599 C 0.8404 0.23879 0.65956 0.0
C600 C 0.8915 0.28932 0.69742 0.0
C601 C 0.89045 0.25854 0.72388 0.0
C602 C 0.86635 0.21761 0.71758 0.0
C603 C 0.84193 0.20776 0.68575 0.0
C604 C 0.91161 0.26879 0.75883 0.0
C605 C 0.86394 0.26362 0.78785 0.0
C606 C 0.9783 0.28159 0.76393 0.0
C607 C 0.03169 0.28564 0.73449 0.0
C608 C 0.04907 0.25076 0.71254 0.0
C609 C 0.10029 0.2546 0.6852 0.0
C610 C 0.13481 0.2931 0.67969 0.0
C611 C 0.11834 0.32779 0.70158 0.0
C612 C 0.06713 0.32411 0.72896 0.0
C613 C -0.00102 0.23545 0.91207 0.0
C614 C 0.02983 0.27062 0.92664 0.0
C615 C 0.97141 0.23907 0.88017 0.0
C616 C 0.97444 0.27785 0.86212 0.0
C617 C 0.00407 0.31332 0.87683 0.0
C618 C 0.03104 0.30985 0.90907 0.0
C619 C 0.94932 0.28013 0.82712 0.0
C620 C 0.99608 0.28769 0.7981 0.0
C621 C 0.88189 0.26912 0.82197 0.0
C622 C 0.8299 0.26237 0.85183 0.0
C623 C 0.81936 0.29314 0.87837 0.0
C624 C 0.77232 0.28591 0.9071 0.0
C625 C 0.73496 0.24819 0.90947 0.0
C626 C 0.74401 0.21781 0.88291 0.0
C627 C 0.79126 0.22478 0.85419 0.0
H628 H 0.69871 0.24261 0.9318 0.0
H629 H 0.17444 0.29601 0.65851 0.0
H630 H 0.21145 0.82162 0.61962 0.0
H631 H 0.15161 0.80217 0.67492 0.0
H632 H 0.12238 0.67492 0.63661 0.0
H633 H 0.18478 0.69425 0.58071 0.0
H634 H 0.03525 0.78322 0.69412 0.0
H635 H 0.09801 0.6056 0.70303 0.0
H636 H 0.18908 0.55467 0.68443 0.0
H637 H 0.33578 0.6554 0.68225 0.0
H638 H 0.24534 0.7065 0.70159 0.0
H639 H 0.87809 0.67658 0.85333 0.0
H640 H 0.94183 0.66321 0.79665 0.0
H641 H 0.07475 0.76788 0.8147 0.0
H642 H 0.0105 0.78207 0.87076 0.0
H643 H 0.09294 0.65889 0.76483 0.0
H644 H 0.05362 0.83491 0.75032 0.0
H645 H 0.98478 0.89225 0.77938 0.0
H646 H 0.81941 0.80559 0.80102 0.0
H647 H 0.88656 0.74771 0.77145 0.0
C648 C 0.19243 0.78943 0.62275 0.0
C649 C 0.20287 0.75952 0.59566 0.0
C650 C 0.15802 0.77825 0.65458 0.0
C651 C 0.13294 0.73684 0.66041 0.0
C652 C 0.14245 0.70682 0.63321 0.0
C653 C 0.1776 0.718 0.60115 0.0
C654 C 0.0961 0.72648 0.69492 0.0
C655 C 0.04807 0.7559 0.70933 0.0
C656 C 0.11132 0.69045 0.71496 0.0
C657 C 0.16513 0.65994 0.70289 0.0
C658 C 0.14971 0.61679 0.69846 0.0
C659 C 0.20114 0.58789 0.68795 0.0
C660 C 0.26814 0.60182 0.68202 0.0
C661 C 0.28386 0.64466 0.68664 0.0
C662 C 0.2326 0.67359 0.69727 0.0
C663 C 0.92265 0.69556 0.84585 0.0
C664 C 0.93886 0.73083 0.86602 0.0
C665 C 0.95905 0.6878 0.81351 0.0
C666 C 0.01215 0.715 0.80143 0.0
C667 C 0.03355 0.74676 0.8236 0.0
C668 C 0.99674 0.7549 0.85554 0.0
C669 C 0.03549 0.71671 0.76385 0.0
C670 C 0.07953 0.68553 0.74897 0.0
C671 C 0.01874 0.75197 0.74363 0.0
C672 C 0.97533 0.78697 0.75886 0.0
C673 C 0.00225 0.82817 0.76094 0.0
C674 C 0.9636 0.86068 0.77762 0.0
C675 C 0.89787 0.85238 0.79227 0.0
C676 C 0.87037 0.81171 0.78985 0.0
C677 C 0.90865 0.77908 0.77307 0.0
H678 H 0.86804 0.87754 0.80527 0.0
H679 H 0.30788 0.57939 0.67397 0.0
loop_
_geom_bond_atom_site_label_1
_geom_bond_atom_site_label_2
_geom_bond_distance
_geom_bond_site_symmetry_2
_ccdc_geom_bond_type
Zn0 O6 1.969 . S
Zn0 O7 1.965 . S
Zn0 O11 2.024 . S
Zn0 O16 1.969 . S
Zn1 O8 1.969 . S
Zn1 O14 1.969 . S
Zn1 O15 1.965 . S
Zn1 O17 2.024 . S
C2 O3 1.229 . S
C2 O11 1.058 . S
O3 C2 1.229 . S
C4 O5 1.229 . S
C4 O17 1.058 . S
O5 C4 1.229 . S
O6 Zn0 1.969 . S
O6 C9 1.267 . S
O7 Zn0 1.965 . S
O7 C18 1.260 1_556 S
O8 Zn1 1.969 . S
O8 C18 1.258 . S
C9 O6 1.267 . S
C9 O10 1.228 . S
O10 C9 1.228 . S
O11 Zn0 2.024 . S
O11 C2 1.058 . S
C12 O13 1.228 . S
C12 O14 1.267 . S
O13 C12 1.228 . S
O14 Zn1 1.969 . S
O14 C12 1.267 . S
O15 Zn1 1.965 . S
O15 C19 1.250 1_554 S
O16 Zn0 1.969 . S
O16 C19 1.273 . S
O17 Zn1 2.024 . S
O17 C4 1.058 . S
C18 O7 1.260 1_554 S
C18 O8 1.258 . S
C19 O15 1.250 1_556 S
C19 O16 1.273 . S
Zn20 O26 1.969 . S
Zn20 O27 1.965 . S
Zn20 O31 2.024 . S
Zn20 O36 1.969 . S
Zn21 O28 1.969 . S
Zn21 O34 1.969 . S
Zn21 O35 1.965 . S
Zn21 O37 2.024 . S
C22 O23 1.229 . S
C22 O31 1.058 . S
O23 C22 1.229 . S
C24 O25 1.229 . S
C24 O37 1.058 . S
O25 C24 1.229 . S
O26 Zn20 1.969 . S
O26 C29 1.267 . S
O27 Zn20 1.965 . S
O27 C38 1.260 1_556 S
O28 Zn21 1.969 . S
O28 C38 1.258 . S
C29 O26 1.267 . S
C29 O30 1.228 . S
O30 C29 1.228 . S
O31 Zn20 2.024 . S
O31 C22 1.058 . S
C32 O33 1.228 . S
C32 O34 1.267 . S
O33 C32 1.228 . S
O34 Zn21 1.969 . S
O34 C32 1.267 . S
O35 Zn21 1.965 . S
O35 C39 1.250 1_554 S
O36 Zn20 1.969 . S
O36 C39 1.273 . S
O37 Zn21 2.024 . S
O37 C24 1.058 . S
C38 O27 1.260 1_554 S
C38 O28 1.258 . S
C39 O35 1.250 1_556 S
C39 O36 1.273 . S
Zn40 O46 1.969 . S
Zn40 O47 1.965 . S
Zn40 O51 2.024 . S
Zn40 O56 1.969 . S
Zn41 O48 1.969 . S
Zn41 O54 1.969 . S
Zn41 O55 1.965 . S
Zn41 O57 2.024 . S
C42 O43 1.229 . S
C42 O51 1.058 . S
O43 C42 1.229 . S
C44 O45 1.229 . S
C44 O57 1.058 . S
O45 C44 1.229 . S
O46 Zn40 1.969 . S
O46 C49 1.267 . S
O47 Zn40 1.965 . S
O47 C58 1.260 . S
O48 Zn41 1.969 . S
O48 C58 1.258 . S
C49 O46 1.267 . S
C49 O50 1.228 . S
O50 C49 1.228 . S
O51 Zn40 2.024 . S
O51 C42 1.058 . S
C52 O53 1.228 . S
C52 O54 1.267 . S
O53 C52 1.228 . S
O54 Zn41 1.969 . S
O54 C52 1.267 . S
O55 Zn41 1.965 . S
O55 C59 1.260 . S
O56 Zn40 1.969 . S
O56 C59 1.258 . S
O57 Zn41 2.024 . S
O57 C44 1.058 . S
C58 O47 1.260 . S
C58 O48 1.258 . S
C59 O55 1.260 . S
C59 O56 1.258 . S
Zn60 O66 1.969 . S
Zn60 O67 1.965 . S
Zn60 O71 2.024 . S
Zn60 O76 1.969 . S
Zn61 O68 1.969 . S
Zn61 O74 1.969 . S
Zn61 O75 1.965 . S
Zn61 O77 2.024 . S
C62 O63 1.229 . S
C62 O71 1.058 . S
O63 C62 1.229 . S
C64 O65 1.229 . S
C64 O77 1.058 . S
O65 C64 1.229 . S
O66 Zn60 1.969 . S
O66 C69 1.267 . S
O67 Zn60 1.965 . S
O67 C78 1.260 . S
O68 Zn61 1.969 . S
O68 C78 1.258 . S
C69 O66 1.267 . S
C69 O70 1.228 . S
O70 C69 1.228 . S
O71 Zn60 2.024 . S
O71 C62 1.058 . S
C72 O73 1.228 . S
C72 O74 1.267 . S
O73 C72 1.228 . S
O74 Zn61 1.969 . S
O74 C72 1.267 . S
O75 Zn61 1.965 . S
O75 C79 1.260 . S
O76 Zn60 1.969 . S
O76 C79 1.258 . S
O77 Zn61 2.024 . S
O77 C64 1.058 . S
C78 O67 1.260 . S
C78 O68 1.258 . S
C79 O75 1.260 . S
C79 O76 1.258 . S
H80 C98 0.951 . S
H81 C100 0.951 . S
H82 C102 0.950 . S
H83 C103 0.950 . S
H84 C105 0.950 . S
H85 C108 0.950 . S
H86 C109 0.950 . S
H87 C111 0.950 . S
H88 C112 0.950 . S
H89 C113 0.951 . S
H90 C115 0.951 . S
H91 C117 0.950 . S
H92 C118 0.950 . S
H93 C120 0.950 . S
H94 C123 0.950 . S
H95 C124 0.950 . S
H96 C126 0.950 . S
H97 C127 0.950 . S
C98 H80 0.951 . S
C98 C99 1.373 . S
C98 C100 1.388 . S
C99 C98 1.373 . S
C99 C103 1.378 1_556 S
C100 H81 0.951 . S
C100 C98 1.388 . S
C100 C101 1.366 1_556 S
C101 C100 1.366 1_554 S
C101 C102 1.414 . S
C101 C104 1.499 . S
C102 H82 0.950 . S
C102 C101 1.414 . S
C102 C103 1.374 . S
C103 H83 0.950 . S
C103 C99 1.378 1_554 S
C103 C102 1.374 . S
C104 C101 1.499 . S
C104 C105 1.373 1_554 S
C104 C106 1.389 . S
C105 H84 0.950 . S
C105 C104 1.373 1_556 S
C105 C121 1.377 . S
C106 C104 1.389 . S
C106 C107 1.524 . S
C106 C120 1.377 . S
C107 C106 1.524 . S
C107 C108 1.397 . S
C107 C112 1.363 . S
C108 H85 0.950 . S
C108 C107 1.397 . S
C108 C109 1.334 . S
C109 H86 0.950 . S
C109 C108 1.334 . S
C109 C110 1.287 . S
C110 C109 1.287 . S
C110 C111 1.524 . S
C110 H129 0.913 . S
C111 H87 0.950 . S
C111 C110 1.524 . S
C111 C112 1.415 . S
C112 H88 0.950 . S
C112 C107 1.363 . S
C112 C111 1.415 . S
C113 H89 0.951 . S
C113 C114 1.366 . S
C113 C115 1.388 . S
C114 C113 1.366 . S
C114 C118 1.385 1_554 S
C115 H90 0.951 . S
C115 C113 1.388 . S
C115 C116 1.366 . S
C116 C115 1.366 . S
C116 C117 1.414 1_554 S
C116 C119 1.498 . S
C117 H91 0.950 . S
C117 C116 1.414 1_556 S
C117 C118 1.374 . S
C118 H92 0.950 . S
C118 C114 1.385 1_556 S
C118 C117 1.374 . S
C119 C116 1.498 . S
C119 C120 1.386 . S
C119 C121 1.380 1_554 S
C120 H93 0.950 . S
C120 C106 1.377 . S
C120 C119 1.386 . S
C121 C105 1.377 . S
C121 C119 1.380 1_556 S
C121 C122 1.524 . S
C122 C121 1.524 . S
C122 C123 1.397 . S
C122 C127 1.363 . S
C123 H94 0.950 . S
C123 C122 1.397 . S
C123 C124 1.334 . S
C124 H95 0.950 . S
C124 C123 1.334 . S
C124 C125 1.287 . S
C125 C124 1.287 . S
C125 C126 1.524 . S
C125 H128 0.999 . S
C126 H96 0.950 . S
C126 C125 1.524 . S
C126 C127 1.415 . S
C127 H97 0.950 . S
C127 C122 1.363 . S
C127 C126 1.415 . S
H128 C125 0.999 . S
H129 C110 0.913 . S
H130 C148 0.951 . S
H131 C150 0.951 . S
H132 C152 0.950 . S
H133 C153 0.950 . S
H134 C155 0.950 . S
H135 C158 0.950 . S
H136 C159 0.950 . S
H137 C161 0.950 . S
H138 C162 0.950 . S
H139 C163 0.951 . S
H140 C165 0.951 . S
H141 C167 0.950 . S
H142 C168 0.950 . S
H143 C170 0.950 . S
H144 C173 0.950 . S
H145 C174 0.950 . S
H146 C176 0.950 . S
H147 C177 0.950 . S
C148 H130 0.951 . S
C148 C149 1.366 . S
C148 C150 1.388 . S
C149 C148 1.366 . S
C149 C153 1.385 . S
C150 H131 0.951 . S
C150 C148 1.388 . S
C150 C151 1.366 . S
C151 C150 1.366 . S
C151 C152 1.414 . S
C151 C154 1.499 . S
C152 H132 0.950 . S
C152 C151 1.414 . S
C152 C153 1.374 . S
C153 H133 0.950 . S
C153 C149 1.385 . S
C153 C152 1.374 . S
C154 C151 1.499 . S
C154 C155 1.373 . S
C154 C156 1.389 . S
C155 H134 0.950 . S
C155 C154 1.373 . S
C155 C171 1.377 . S
C156 C154 1.389 . S
C156 C157 1.524 . S
C156 C170 1.377 . S
C157 C156 1.524 . S
C157 C158 1.397 . S
C157 C162 1.363 . S
C158 H135 0.950 . S
C158 C157 1.397 . S
C158 C159 1.334 . S
C159 H136 0.950 . S
C159 C158 1.334 . S
C159 C160 1.287 . S
C160 C159 1.287 . S
C160 C161 1.524 . S
C160 H179 0.913 . S
C161 H137 0.950 . S
C161 C160 1.524 . S
C161 C162 1.415 . S
C162 H138 0.950 . S
C162 C157 1.363 . S
C162 C161 1.415 . S
C163 H139 0.951 . S
C163 C164 1.366 . S
C163 C165 1.388 . S
C164 C163 1.366 . S
C164 C168 1.385 . S
C165 H140 0.951 . S
C165 C163 1.388 . S
C165 C166 1.366 . S
C166 C165 1.366 . S
C166 C167 1.414 . S
C166 C169 1.499 . S
C167 H141 0.950 . S
C167 C166 1.414 . S
C167 C168 1.374 . S
C168 H142 0.950 . S
C168 C164 1.385 . S
C168 C167 1.374 . S
C169 C166 1.499 . S
C169 C170 1.373 . S
C169 C171 1.389 . S
C170 H143 0.950 . S
C170 C156 1.377 . S
C170 C169 1.373 . S
C171 C155 1.377 . S
C171 C169 1.389 . S
C171 C172 1.524 . S
C172 C171 1.524 . S
C172 C173 1.397 . S
C172 C177 1.363 . S
C173 H144 0.950 . S
C173 C172 1.397 . S
C173 C174 1.334 . S
C174 H145 0.950 . S
C174 C173 1.334 . S
C174 C175 1.287 . S
C175 C174 1.287 . S
C175 C176 1.524 . S
C175 H178 0.999 . S
C176 H146 0.950 . S
C176 C175 1.524 . S
C176 C177 1.415 . S
C177 H147 0.950 . S
C177 C172 1.363 . S
C177 C176 1.415 . S
H178 C175 0.999 . S
H179 C160 0.913 . S
H180 C198 0.951 . S
H181 C200 0.951 . S
H182 C202 0.950 . S
H183 C203 0.950 . S
H184 C205 0.950 . S
H185 C208 0.950 . S
H186 C209 0.950 . S
H187 C211 0.938 1_565 S
H188 C212 0.950 1_565 S
H189 C213 0.951 . S
H190 C215 0.951 . S
H191 C217 0.950 . S
H192 C218 0.950 . S
H193 C220 0.950 . S
H194 C223 0.950 . S
H195 C224 0.950 . S
H196 C226 0.938 1_545 S
H197 C227 0.950 1_545 S
C198 H180 0.951 . S
C198 C199 1.373 . S
C198 C200 1.388 . S
C199 C198 1.373 . S
C199 C203 1.378 1_556 S
C200 H181 0.951 . S
C200 C198 1.388 . S
C200 C201 1.373 . S
C201 C200 1.373 . S
C201 C202 1.405 1_556 S
C201 C204 1.500 1_556 S
C202 H182 0.950 . S
C202 C201 1.405 1_554 S
C202 C203 1.374 . S
C203 H183 0.950 . S
C203 C199 1.378 1_554 S
C203 C202 1.374 . S
C204 C201 1.500 1_554 S
C204 C205 1.392 . S
C204 C206 1.371 1_554 S
C205 H184 0.950 . S
C205 C204 1.392 . S
C205 C221 1.377 1_445 S
C206 C204 1.371 1_556 S
C206 C207 1.524 . S
C206 C220 1.377 1_445 S
C207 C206 1.524 . S
C207 C208 1.397 . S
C207 C212 1.363 . S
C208 H185 0.950 . S
C208 C207 1.397 . S
C208 C209 1.334 . S
C209 H186 0.950 . S
C209 C208 1.334 . S
C209 C210 1.287 . S
C210 C209 1.287 . S
C210 C211 1.524 . S
C210 H229 0.913 . S
C211 H187 0.938 1_545 S
C211 C210 1.524 . S
C211 C212 1.415 . S
C212 H188 0.950 1_545 S
C212 C207 1.363 . S
C212 C211 1.415 . S
C213 H189 0.951 . S
C213 C214 1.366 . S
C213 C215 1.388 . S
C214 C213 1.366 . S
C214 C218 1.385 1_554 S
C215 H190 0.951 . S
C215 C213 1.388 . S
C215 C216 1.366 . S
C216 C215 1.366 . S
C216 C217 1.414 1_554 S
C216 C219 1.499 . S
C217 H191 0.950 . S
C217 C216 1.414 1_556 S
C217 C218 1.374 . S
C218 H192 0.950 . S
C218 C214 1.385 1_556 S
C218 C217 1.374 . S
C219 C216 1.499 . S
C219 C220 1.373 1_554 S
C219 C221 1.389 . S
C220 H193 0.950 . S
C220 C206 1.377 1_665 S
C220 C219 1.373 1_556 S
C221 C205 1.377 1_665 S
C221 C219 1.389 . S
C221 C222 1.524 . S
C222 C221 1.524 . S
C222 C223 1.397 . S
C222 C227 1.363 . S
C223 H194 0.950 . S
C223 C222 1.397 . S
C223 C224 1.334 . S
C224 H195 0.950 . S
C224 C223 1.334 . S
C224 C225 1.287 . S
C225 C224 1.287 . S
C225 C226 1.524 . S
C225 H228 0.999 . S
C226 H196 0.938 1_565 S
C226 C225 1.524 . S
C226 C227 1.415 . S
C227 H197 0.950 1_565 S
C227 C222 1.363 . S
C227 C226 1.415 . S
H228 C225 0.999 . S
H229 C210 0.913 . S
H230 C248 0.951 . S
H231 C250 0.951 . S
H232 C252 0.950 . S
H233 C253 0.950 . S
H234 C255 0.950 . S
H235 C258 0.950 1_545 S
H236 C259 0.950 . S
H237 C261 0.950 . S
H238 C262 0.950 . S
H239 C263 0.951 . S
H240 C265 0.951 . S
H241 C267 0.950 . S
H242 C268 0.950 . S
H243 C270 0.950 . S
H244 C273 0.950 1_565 S
H245 C274 0.950 . S
H246 C276 0.950 . S
H247 C277 0.950 . S
C248 H230 0.951 . S
C248 C249 1.366 . S
C248 C250 1.388 . S
C249 C248 1.366 . S
C249 C253 1.385 . S
C250 H231 0.951 . S
C250 C248 1.388 . S
C250 C251 1.366 . S
C251 C250 1.366 . S
C251 C252 1.414 . S
C251 C254 1.499 . S
C252 H232 0.950 . S
C252 C251 1.414 . S
C252 C253 1.374 . S
C253 H233 0.950 . S
C253 C249 1.385 . S
C253 C252 1.374 . S
C254 C251 1.499 . S
C254 C255 1.373 1_655 S
C254 C256 1.369 1_545 S
C255 H234 0.950 . S
C255 C254 1.373 1_455 S
C255 C271 1.396 . S
C256 C254 1.369 1_565 S
C256 C257 1.527 . S
C256 C270 1.396 . S
C257 C256 1.527 . S
C257 C258 1.397 . S
C257 C262 1.363 . S
C258 H235 0.950 1_565 S
C258 C257 1.397 . S
C258 C259 1.334 . S
C259 H236 0.950 . S
C259 C258 1.334 . S
C259 C260 1.287 . S
C260 C259 1.287 . S
C260 C261 1.524 . S
C260 H279 0.913 . S
C261 H237 0.950 . S
C261 C260 1.524 . S
C261 C262 1.415 . S
C262 H238 0.950 . S
C262 C257 1.363 . S
C262 C261 1.415 . S
C263 H239 0.951 . S
C263 C264 1.366 . S
C263 C265 1.388 . S
C264 C263 1.366 . S
C264 C268 1.385 . S
C265 H240 0.951 . S
C265 C263 1.388 . S
C265 C266 1.366 . S
C266 C265 1.366 . S
C266 C267 1.414 . S
C266 C269 1.499 . S
C267 H241 0.950 . S
C267 C266 1.414 . S
C267 C268 1.374 . S
C268 H242 0.950 . S
C268 C264 1.385 . S
C268 C267 1.374 . S
C269 C266 1.499 . S
C269 C270 1.373 1_455 S
C269 C271 1.369 1_565 S
C270 H243 0.950 . S
C270 C256 1.396 . S
C270 C269 1.373 1_655 S
C271 C255 1.396 . S
C271 C269 1.369 1_545 S
C271 C272 1.527 . S
C272 C271 1.527 . S
C272 C273 1.397 . S
C272 C277 1.363 . S
C273 H244 0.950 1_545 S
C273 C272 1.397 . S
C273 C274 1.334 . S
C274 H245 0.950 . S
C274 C273 1.334 . S
C274 C275 1.287 . S
C275 C274 1.287 . S
C275 C276 1.524 . S
C275 H278 0.999 . S
C276 H246 0.950 . S
C276 C275 1.524 . S
C276 C277 1.415 . S
C277 H247 0.950 . S
C277 C272 1.363 . S
C277 C276 1.415 . S
H278 C275 0.999 . S
H279 C260 0.913 . S
H280 C298 0.951 . S
H281 C300 0.951 . S
H282 C302 0.950 . S
H283 C303 0.950 . S
H284 C305 0.950 . S
H285 C308 0.950 . S
H286 C309 0.950 . S
H287 C311 0.950 . S
H288 C312 0.950 . S
H289 C313 0.951 . S
H290 C315 0.951 . S
H291 C317 0.950 . S
H292 C318 0.950 . S
H293 C320 0.950 . S
H294 C323 0.950 . S
H295 C324 0.950 . S
H296 C326 0.950 . S
H297 C327 0.950 . S
C298 H280 0.951 . S
C298 C299 1.366 . S
C298 C300 1.388 . S
C299 C298 1.366 . S
C299 C303 1.385 . S
C300 H281 0.951 . S
C300 C298 1.388 . S
C300 C301 1.366 . S
C301 C300 1.366 . S
C301 C302 1.414 . S
C301 C304 1.499 . S
C302 H282 0.950 . S
C302 C301 1.414 . S
C302 C303 1.374 . S
C303 H283 0.950 . S
C303 C299 1.385 . S
C303 C302 1.374 . S
C304 C301 1.499 . S
C304 C305 1.373 . S
C304 C306 1.389 . S
C305 H284 0.950 . S
C305 C304 1.373 . S
C305 C321 1.377 . S
C306 C304 1.389 . S
C306 C307 1.524 . S
C306 C320 1.377 . S
C307 C306 1.524 . S
C307 C308 1.397 . S
C307 C312 1.363 . S
C308 H285 0.950 . S
C308 C307 1.397 . S
C308 C309 1.334 . S
C309 H286 0.950 . S
C309 C308 1.334 . S
C309 C310 1.287 . S
C310 C309 1.287 . S
C310 C311 1.524 . S
C310 H329 0.913 . S
C311 H287 0.950 . S
C311 C310 1.524 . S
C311 C312 1.415 . S
C312 H288 0.950 . S
C312 C307 1.363 . S
C312 C311 1.415 . S
C313 H289 0.951 . S
C313 C314 1.366 . S
C313 C315 1.388 . S
C314 C313 1.366 . S
C314 C318 1.385 . S
C315 H290 0.951 . S
C315 C313 1.388 . S
C315 C316 1.366 . S
C316 C315 1.366 . S
C316 C317 1.414 . S
C316 C319 1.499 . S
C317 H291 0.950 . S
C317 C316 1.414 . S
C317 C318 1.374 . S
C318 H292 0.950 . S
C318 C314 1.385 . S
C318 C317 1.374 . S
C319 C316 1.499 . S
C319 C320 1.373 . S
C319 C321 1.389 . S
C320 H293 0.950 . S
C320 C306 1.377 . S
C320 C319 1.373 . S
C321 C305 1.377 . S
C321 C319 1.389 . S
C321 C322 1.524 . S
C322 C321 1.524 . S
C322 C323 1.397 . S
C322 C327 1.363 . S
C323 H294 0.950 . S
C323 C322 1.397 . S
C323 C324 1.334 . S
C324 H295 0.950 . S
C324 C323 1.334 . S
C324 C325 1.287 . S
C325 C324 1.287 . S
C325 C326 1.524 . S
C325 H328 0.999 . S
C326 H296 0.950 . S
C326 C325 1.524 . S
C326 C327 1.415 . S
C327 H297 0.950 . S
C327 C322 1.363 . S
C327 C326 1.415 . S
H328 C325 0.999 . S
H329 C310 0.913 . S
H330 C348 0.951 . S
H331 C350 0.951 . S
H332 C352 0.950 . S
H333 C353 0.950 . S
H334 C355 0.950 . S
H335 C358 0.950 . S
H336 C359 0.950 . S
H337 C361 0.950 . S
H338 C362 0.950 . S
H339 C363 0.951 . S
H340 C365 0.951 . S
H341 C367 0.950 . S
H342 C368 0.950 . S
H343 C370 0.950 . S
H344 C373 0.950 . S
H345 C374 0.950 . S
H346 C376 0.950 . S
H347 C377 0.950 . S
C348 H330 0.951 . S
C348 C349 1.366 . S
C348 C350 1.388 . S
C349 C348 1.366 . S
C349 C353 1.385 . S
C350 H331 0.951 . S
C350 C348 1.388 . S
C350 C351 1.366 . S
C351 C350 1.366 . S
C351 C352 1.414 . S
C351 C354 1.499 . S
C352 H332 0.950 . S
C352 C351 1.414 . S
C352 C353 1.374 . S
C353 H333 0.950 . S
C353 C349 1.385 . S
C353 C352 1.374 . S
C354 C351 1.499 . S
C354 C355 1.373 . S
C354 C356 1.389 . S
C355 H334 0.950 . S
C355 C354 1.373 . S
C355 C371 1.377 . S
C356 C354 1.389 . S
C356 C357 1.524 . S
C356 C370 1.377 . S
C357 C356 1.524 . S
C357 C358 1.397 . S
C357 C362 1.363 . S
C358 H335 0.950 . S
C358 C357 1.397 . S
C358 C359 1.334 . S
C359 H336 0.950 . S
C359 C358 1.334 . S
C359 C360 1.287 . S
C360 C359 1.287 . S
C360 C361 1.524 . S
C360 H379 0.913 . S
C361 H337 0.950 . S
C361 C360 1.524 . S
C361 C362 1.415 . S
C362 H338 0.950 . S
C362 C357 1.363 . S
C362 C361 1.415 . S
C363 H339 0.951 . S
C363 C364 1.366 . S
C363 C365 1.388 . S
C364 C363 1.366 . S
C364 C368 1.385 . S
C365 H340 0.951 . S
C365 C363 1.388 . S
C365 C366 1.366 . S
C366 C365 1.366 . S
C366 C367 1.414 . S
C366 C369 1.499 . S
C367 H341 0.950 . S
C367 C366 1.414 . S
C367 C368 1.374 . S
C368 H342 0.950 . S
C368 C364 1.385 . S
C368 C367 1.374 . S
C369 C366 1.499 . S
C369 C370 1.373 . S
C369 C371 1.389 . S
C370 H343 0.950 . S
C370 C356 1.377 . S
C370 C369 1.373 . S
C371 C355 1.377 . S
C371 C369 1.389 . S
C371 C372 1.524 . S
C372 C371 1.524 . S
C372 C373 1.397 . S
C372 C377 1.363 . S
C373 H344 0.950 . S
C373 C372 1.397 . S
C373 C374 1.334 . S
C374 H345 0.950 . S
C374 C373 1.334 . S
C374 C375 1.287 . S
C375 C374 1.287 . S
C375 C376 1.524 . S
C375 H378 0.999 . S
C376 H346 0.950 . S
C376 C375 1.524 . S
C376 C377 1.415 . S
C377 H347 0.950 . S
C377 C372 1.363 . S
C377 C376 1.415 . S
H378 C375 0.999 . S
H379 C360 0.913 . S
H380 C398 0.951 . S
H381 C400 0.951 . S
H382 C402 0.950 . S
H383 C403 0.950 . S
H384 C405 0.950 . S
H385 C408 0.950 . S
H386 C409 0.950 . S
H387 C411 0.950 . S
H388 C412 0.950 . S
H389 C413 0.951 . S
H390 C415 0.951 . S
H391 C417 0.950 . S
H392 C418 0.950 . S
H393 C420 0.950 . S
H394 C423 0.950 . S
H395 C424 0.950 . S
H396 C426 0.950 . S
H397 C427 0.950 . S
C398 H380 0.951 . S
C398 C399 1.366 . S
C398 C400 1.388 . S
C399 C398 1.366 . S
C399 C403 1.385 . S
C400 H381 0.951 . S
C400 C398 1.388 . S
C400 C401 1.366 . S
C401 C400 1.366 . S
C401 C402 1.414 . S
C401 C404 1.499 . S
C402 H382 0.950 . S
C402 C401 1.414 . S
C402 C403 1.374 . S
C403 H383 0.950 . S
C403 C399 1.385 . S
C403 C402 1.374 . S
C404 C401 1.499 . S
C404 C405 1.373 . S
C404 C406 1.389 . S
C405 H384 0.950 . S
C405 C404 1.373 . S
C405 C421 1.377 . S
C406 C404 1.389 . S
C406 C407 1.524 . S
C406 C420 1.377 . S
C407 C406 1.524 . S
C407 C408 1.397 . S
C407 C412 1.363 . S
C408 H385 0.950 . S
C408 C407 1.397 . S
C408 C409 1.334 . S
C409 H386 0.950 . S
C409 C408 1.334 . S
C409 C410 1.287 . S
C410 C409 1.287 . S
C410 C411 1.524 . S
C410 H429 0.913 . S
C411 H387 0.950 . S
C411 C410 1.524 . S
C411 C412 1.415 . S
C412 H388 0.950 . S
C412 C407 1.363 . S
C412 C411 1.415 . S
C413 H389 0.951 . S
C413 C414 1.366 . S
C413 C415 1.388 . S
C414 C413 1.366 . S
C414 C418 1.385 . S
C415 H390 0.951 . S
C415 C413 1.388 . S
C415 C416 1.366 . S
C416 C415 1.366 . S
C416 C417 1.414 . S
C416 C419 1.499 . S
C417 H391 0.950 . S
C417 C416 1.414 . S
C417 C418 1.374 . S
C418 H392 0.950 . S
C418 C414 1.385 . S
C418 C417 1.374 . S
C419 C416 1.499 . S
C419 C420 1.373 . S
C419 C421 1.389 . S
C420 H393 0.950 . S
C420 C406 1.377 . S
C420 C419 1.373 . S
C421 C405 1.377 . S
C421 C419 1.389 . S
C421 C422 1.524 . S
C422 C421 1.524 . S
C422 C423 1.397 . S
C422 C427 1.363 . S
C423 H394 0.950 . S
C423 C422 1.397 . S
C423 C424 1.334 . S
C424 H395 0.950 . S
C424 C423 1.334 . S
C424 C425 1.287 . S
C425 C424 1.287 . S
C425 C426 1.524 . S
C425 H428 0.999 . S
C426 H396 0.950 . S
C426 C425 1.524 . S
C426 C427 1.415 . S
C427 H397 0.950 . S
C427 C422 1.363 . S
C427 C426 1.415 . S
H428 C425 0.999 . S
H429 C410 0.913 . S
H430 C448 0.951 . S
H431 C450 0.951 . S
H432 C452 0.950 . S
H433 C453 0.950 . S
H434 C455 0.950 . S
H435 C458 0.950 . S
H436 C459 0.950 . S
H437 C461 0.950 . S
H438 C462 0.950 . S
H439 C463 0.951 . S
H440 C465 0.951 . S
H441 C467 0.950 . S
H442 C468 0.950 . S
H443 C470 0.950 . S
H444 C473 0.950 . S
H445 C474 0.950 . S
H446 C476 0.950 . S
H447 C477 0.950 . S
C448 H430 0.951 . S
C448 C449 1.366 . S
C448 C450 1.388 . S
C449 C448 1.366 . S
C449 C453 1.385 . S
C450 H431 0.951 . S
C450 C448 1.388 . S
C450 C451 1.366 . S
C451 C450 1.366 . S
C451 C452 1.414 . S
C451 C454 1.499 . S
C452 H432 0.950 . S
C452 C451 1.414 . S
C452 C453 1.374 . S
C453 H433 0.950 . S
C453 C449 1.385 . S
C453 C452 1.374 . S
C454 C451 1.499 . S
C454 C455 1.373 . S
C454 C456 1.389 . S
C455 H434 0.950 . S
C455 C454 1.373 . S
C455 C471 1.377 . S
C456 C454 1.389 . S
C456 C457 1.524 . S
C456 C470 1.377 . S
C457 C456 1.524 . S
C457 C458 1.397 . S
C457 C462 1.363 . S
C458 H435 0.950 . S
C458 C457 1.397 . S
C458 C459 1.334 . S
C459 H436 0.950 . S
C459 C458 1.334 . S
C459 C460 1.287 . S
C460 C459 1.287 . S
C460 C461 1.524 . S
C460 H479 0.913 . S
C461 H437 0.950 . S
C461 C460 1.524 . S
C461 C462 1.415 . S
C462 H438 0.950 . S
C462 C457 1.363 . S
C462 C461 1.415 . S
C463 H439 0.951 . S
C463 C464 1.366 . S
C463 C465 1.388 . S
C464 C463 1.366 . S
C464 C468 1.385 . S
C465 H440 0.951 . S
C465 C463 1.388 . S
C465 C466 1.366 . S
C466 C465 1.366 . S
C466 C467 1.414 . S
C466 C469 1.499 . S
C467 H441 0.950 . S
C467 C466 1.414 . S
C467 C468 1.374 . S
C468 H442 0.950 . S
C468 C464 1.385 . S
C468 C467 1.374 . S
C469 C466 1.499 . S
C469 C470 1.373 . S
C469 C471 1.389 . S
C470 H443 0.950 . S
C470 C456 1.377 . S
C470 C469 1.373 . S
C471 C455 1.377 . S
C471 C469 1.389 . S
C471 C472 1.524 . S
C472 C471 1.524 . S
C472 C473 1.397 . S
C472 C477 1.363 . S
C473 H444 0.950 . S
C473 C472 1.397 . S
C473 C474 1.334 . S
C474 H445 0.950 . S
C474 C473 1.334 . S
C474 C475 1.287 . S
C475 C474 1.287 . S
C475 C476 1.524 . S
C475 H478 0.999 . S
C476 H446 0.950 . S
C476 C475 1.524 . S
C476 C477 1.415 . S
C477 H447 0.950 . S
C477 C472 1.363 . S
C477 C476 1.415 . S
H478 C475 0.999 . S
H479 C460 0.913 . S
H480 C498 0.951 . S
H481 C500 0.951 1_455 S
H482 C502 0.950 . S
H483 C503 0.950 . S
H484 C505 0.950 . S
H485 C508 0.950 1_655 S
H486 C509 0.950 . S
H487 C511 0.950 . S
H488 C512 0.950 . S
H489 C513 0.951 . S
H490 C515 0.951 1_655 S
H491 C517 0.950 . S
H492 C518 0.950 . S
H493 C520 0.950 . S
H494 C523 0.950 1_455 S
H495 C524 0.950 . S
H496 C526 0.950 . S
H497 C527 0.950 . S
C498 H480 0.951 . S
C498 C499 1.366 . S
C498 C500 1.388 . S
C499 C498 1.366 . S
C499 C503 1.385 . S
C500 H481 0.951 1_655 S
C500 C498 1.388 . S
C500 C501 1.366 . S
C501 C500 1.366 . S
C501 C502 1.414 . S
C501 C504 1.499 . S
C502 H482 0.950 . S
C502 C501 1.414 . S
C502 C503 1.374 . S
C503 H483 0.950 . S
C503 C499 1.385 . S
C503 C502 1.374 . S
C504 C501 1.499 . S
C504 C505 1.373 . S
C504 C506 1.389 1_655 S
C505 H484 0.950 . S
C505 C504 1.373 . S
C505 C521 1.377 . S
C506 C504 1.389 1_455 S
C506 C507 1.524 . S
C506 C520 1.377 . S
C507 C506 1.524 . S
C507 C508 1.397 . S
C507 C512 1.363 . S
C508 H485 0.950 1_455 S
C508 C507 1.397 . S
C508 C509 1.334 . S
C509 H486 0.950 . S
C509 C508 1.334 . S
C509 C510 1.287 . S
C510 C509 1.287 . S
C510 C511 1.524 . S
C510 H529 0.913 . S
C511 H487 0.950 . S
C511 C510 1.524 . S
C511 C512 1.415 . S
C512 H488 0.950 . S
C512 C507 1.363 . S
C512 C511 1.415 . S
C513 H489 0.951 . S
C513 C514 1.366 . S
C513 C515 1.388 . S
C514 C513 1.366 . S
C514 C518 1.385 . S
C515 H490 0.951 1_455 S
C515 C513 1.388 . S
C515 C516 1.366 . S
C516 C515 1.366 . S
C516 C517 1.414 . S
C516 C519 1.499 . S
C517 H491 0.950 . S
C517 C516 1.414 . S
C517 C518 1.374 . S
C518 H492 0.950 . S
C518 C514 1.385 . S
C518 C517 1.374 . S
C519 C516 1.499 . S
C519 C520 1.373 . S
C519 C521 1.389 1_455 S
C520 H493 0.950 . S
C520 C506 1.377 . S
C520 C519 1.373 . S
C521 C505 1.377 . S
C521 C519 1.389 1_655 S
C521 C522 1.524 . S
C522 C521 1.524 . S
C522 C523 1.397 . S
C522 C527 1.363 . S
C523 H494 0.950 1_655 S
C523 C522 1.397 . S
C523 C524 1.334 . S
C524 H495 0.950 . S
C524 C523 1.334 . S
C524 C525 1.287 . S
C525 C524 1.287 . S
C525 C526 1.524 . S
C525 H528 0.999 . S
C526 H496 0.950 . S
C526 C525 1.524 . S
C526 C527 1.415 . S
C527 H497 0.950 . S
C527 C522 1.363 . S
C527 C526 1.415 . S
H528 C525 0.999 . S
H529 C510 0.913 . S
H530 C548 0.951 . S
H531 C550 0.951 . S
H532 C552 0.950 1_455 S
H533 C553 0.950 . S
H534 C555 0.950 . S
H535 C558 0.950 . S
H536 C559 0.950 . S
H537 C561 0.950 . S
H538 C562 0.950 . S
H539 C563 0.951 . S
H540 C565 0.951 . S
H541 C567 0.950 1_655 S
H542 C568 0.950 . S
H543 C570 0.950 . S
H544 C573 0.950 . S
H545 C574 0.950 . S
H546 C576 0.950 . S
H547 C577 0.950 . S
C548 H530 0.951 . S
C548 C549 1.366 . S
C548 C550 1.388 . S
C549 C548 1.366 . S
C549 C553 1.385 . S
C550 H531 0.951 . S
C550 C548 1.388 . S
C550 C551 1.366 . S
C551 C550 1.366 . S
C551 C552 1.414 . S
C551 C554 1.499 . S
C552 H532 0.950 1_655 S
C552 C551 1.414 . S
C552 C553 1.374 . S
C553 H533 0.950 . S
C553 C549 1.385 . S
C553 C552 1.374 . S
C554 C551 1.499 . S
C554 C555 1.373 1_655 S
C554 C556 1.389 . S
C555 H534 0.950 . S
C555 C554 1.373 1_455 S
C555 C571 1.377 . S
C556 C554 1.389 . S
C556 C557 1.524 . S
C556 C570 1.377 . S
C557 C556 1.524 . S
C557 C558 1.397 . S
C557 C562 1.363 . S
C558 H535 0.950 . S
C558 C557 1.397 . S
C558 C559 1.334 . S
C559 H536 0.950 . S
C559 C558 1.334 . S
C559 C560 1.287 . S
C560 C559 1.287 . S
C560 C561 1.524 . S
C560 H579 0.913 . S
C561 H537 0.950 . S
C561 C560 1.524 . S
C561 C562 1.415 . S
C562 H538 0.950 . S
C562 C557 1.363 . S
C562 C561 1.415 . S
C563 H539 0.951 . S
C563 C564 1.366 . S
C563 C565 1.388 . S
C564 C563 1.366 . S
C564 C568 1.385 . S
C565 H540 0.951 . S
C565 C563 1.388 . S
C565 C566 1.366 . S
C566 C565 1.366 . S
C566 C567 1.414 . S
C566 C569 1.499 . S
C567 H541 0.950 1_455 S
C567 C566 1.414 . S
C567 C568 1.374 . S
C568 H542 0.950 . S
C568 C564 1.385 . S
C568 C567 1.374 . S
C569 C566 1.499 . S
C569 C570 1.373 1_455 S
C569 C571 1.389 . S
C570 H543 0.950 . S
C570 C556 1.377 . S
C570 C569 1.373 1_655 S
C571 C555 1.377 . S
C571 C569 1.389 . S
C571 C572 1.524 . S
C572 C571 1.524 . S
C572 C573 1.397 . S
C572 C577 1.363 . S
C573 H544 0.950 . S
C573 C572 1.397 . S
C573 C574 1.334 . S
C574 H545 0.950 . S
C574 C573 1.334 . S
C574 C575 1.287 . S
C575 C574 1.287 . S
C575 C576 1.524 . S
C575 H578 0.999 . S
C576 H546 0.950 . S
C576 C575 1.524 . S
C576 C577 1.415 . S
C577 H547 0.950 . S
C577 C572 1.363 . S
C577 C576 1.415 . S
H578 C575 0.999 . S
H579 C560 0.913 . S
H580 C598 0.951 . S
H581 C600 0.951 1_455 S
H582 C602 0.950 . S
H583 C603 0.950 . S
H584 C605 0.950 . S
H585 C608 0.950 . S
H586 C609 0.950 . S
H587 C611 0.950 . S
H588 C612 0.950 . S
H589 C613 0.951 . S
H590 C615 0.951 1_655 S
H591 C617 0.950 . S
H592 C618 0.950 . S
H593 C620 0.950 . S
H594 C623 0.950 . S
H595 C624 0.950 . S
H596 C626 0.950 . S
H597 C627 0.950 . S
C598 H580 0.951 . S
C598 C599 1.366 . S
C598 C600 1.388 . S
C599 C598 1.366 . S
C599 C603 1.385 . S
C600 H581 0.951 1_655 S
C600 C598 1.388 . S
C600 C601 1.366 . S
C601 C600 1.366 . S
C601 C602 1.414 . S
C601 C604 1.499 . S
C602 H582 0.950 . S
C602 C601 1.414 . S
C602 C603 1.374 . S
C603 H583 0.950 . S
C603 C599 1.385 . S
C603 C602 1.374 . S
C604 C601 1.499 . S
C604 C605 1.373 . S
C604 C606 1.389 1_655 S
C605 H584 0.950 . S
C605 C604 1.373 . S
C605 C621 1.377 . S
C606 C604 1.389 1_455 S
C606 C607 1.524 . S
C606 C620 1.377 . S
C607 C606 1.524 . S
C607 C608 1.397 . S
C607 C612 1.363 . S
C608 H585 0.950 . S
C608 C607 1.397 . S
C608 C609 1.334 . S
C609 H586 0.950 . S
C609 C608 1.334 . S
C609 C610 1.287 . S
C610 C609 1.287 . S
C610 C611 1.524 . S
C610 H629 0.913 . S
C611 H587 0.950 . S
C611 C610 1.524 . S
C611 C612 1.415 . S
C612 H588 0.950 . S
C612 C607 1.363 . S
C612 C611 1.415 . S
C613 H589 0.951 . S
C613 C614 1.366 . S
C613 C615 1.388 . S
C614 C613 1.366 . S
C614 C618 1.385 . S
C615 H590 0.951 1_455 S
C615 C613 1.388 . S
C615 C616 1.366 . S
C616 C615 1.366 . S
C616 C617 1.414 . S
C616 C619 1.499 . S
C617 H591 0.950 . S
C617 C616 1.414 . S
C617 C618 1.374 . S
C618 H592 0.950 . S
C618 C614 1.385 . S
C618 C617 1.374 . S
C619 C616 1.499 . S
C619 C620 1.373 . S
C619 C621 1.389 1_455 S
C620 H593 0.950 . S
C620 C606 1.377 . S
C620 C619 1.373 . S
C621 C605 1.377 . S
C621 C619 1.389 1_655 S
C621 C622 1.524 . S
C622 C621 1.524 . S
C622 C623 1.397 . S
C622 C627 1.363 . S
C623 H594 0.950 . S
C623 C622 1.397 . S
C623 C624 1.334 . S
C624 H595 0.950 . S
C624 C623 1.334 . S
C624 C625 1.287 . S
C625 C624 1.287 . S
C625 C626 1.524 . S
C625 H628 0.999 . S
C626 H596 0.950 . S
C626 C625 1.524 . S
C626 C627 1.415 . S
C627 H597 0.950 . S
C627 C622 1.363 . S
C627 C626 1.415 . S
H628 C625 0.999 . S
H629 C610 0.913 . S
H630 C648 0.951 . S
H631 C650 0.951 . S
H632 C652 0.950 1_655 S
H633 C653 0.950 . S
H634 C655 0.950 . S
H635 C658 0.950 . S
H636 C659 0.950 . S
H637 C661 0.950 . S
H638 C662 0.950 . S
H639 C663 0.951 . S
H640 C665 0.951 . S
H641 C667 0.950 1_455 S
H642 C668 0.950 . S
H643 C670 0.950 . S
H644 C673 0.950 . S
H645 C674 0.950 . S
H646 C676 0.950 . S
H647 C677 0.950 . S
C648 H630 0.951 . S
C648 C649 1.366 . S
C648 C650 1.388 . S
C649 C648 1.366 . S
C649 C653 1.385 . S
C650 H631 0.951 . S
C650 C648 1.388 . S
C650 C651 1.366 . S
C651 C650 1.366 . S
C651 C652 1.414 . S
C651 C654 1.499 . S
C652 H632 0.950 1_455 S
C652 C651 1.414 . S
C652 C653 1.374 . S
C653 H633 0.950 . S
C653 C649 1.385 . S
C653 C652 1.374 . S
C654 C651 1.499 . S
C654 C655 1.373 1_455 S
C654 C656 1.389 . S
C655 H634 0.950 . S
C655 C654 1.373 1_655 S
C655 C671 1.377 . S
C656 C654 1.389 . S
C656 C657 1.524 . S
C656 C670 1.377 . S
C657 C656 1.524 . S
C657 C658 1.397 . S
C657 C662 1.363 . S
C658 H635 0.950 . S
C658 C657 1.397 . S
C658 C659 1.334 . S
C659 H636 0.950 . S
C659 C658 1.334 . S
C659 C660 1.287 . S
C660 C659 1.287 . S
C660 C661 1.524 . S
C660 H679 0.913 . S
C661 H637 0.950 . S
C661 C660 1.524 . S
C661 C662 1.415 . S
C662 H638 0.950 . S
C662 C657 1.363 . S
C662 C661 1.415 . S
C663 H639 0.951 . S
C663 C664 1.366 . S
C663 C665 1.388 . S
C664 C663 1.366 . S
C664 C668 1.385 . S
C665 H640 0.951 . S
C665 C663 1.388 . S
C665 C666 1.366 . S
C666 C665 1.366 . S
C666 C667 1.414 . S
C666 C669 1.499 . S
C667 H641 0.950 1_655 S
C667 C666 1.414 . S
C667 C668 1.374 . S
C668 H642 0.950 . S
C668 C664 1.385 . S
C668 C667 1.374 . S
C669 C666 1.499 . S
C669 C670 1.373 1_655 S
C669 C671 1.389 . S
C670 H643 0.950 . S
C670 C656 1.377 . S
C670 C669 1.373 1_455 S
C671 C655 1.377 . S
C671 C669 1.389 . S
C671 C672 1.524 . S
C672 C671 1.524 . S
C672 C673 1.397 . S
C672 C677 1.363 . S
C673 H644 0.950 . S
C673 C672 1.397 . S
C673 C674 1.334 . S
C674 H645 0.950 . S
C674 C673 1.334 . S
C674 C675 1.287 . S
C675 C674 1.287 . S
C675 C676 1.524 . S
C675 H678 0.999 . S
C676 H646 0.950 . S
C676 C675 1.524 . S
C676 C677 1.415 . S
C677 H647 0.950 . S
C677 C672 1.363 . S
C677 C676 1.415 . S
H678 C675 0.999 . S
H679 C660 0.913 . S
C99 C38 1.486 1_556 S
C114 C19 1.487 1_554 S
C149 C58 1.489 . S
C164 C79 1.489 . S
C199 C18 1.486 1_556 S
C214 C39 1.486 1_554 S
C249 C78 1.489 . S
C264 C59 1.489 . S
C299 C72 1.209 . S
C314 C12 1.208 . S
C349 C24 0.904 . S
C364 C44 0.906 . S
C399 C29 1.209 . S
C414 C49 1.209 . S
C449 C62 0.903 . S
C464 C2 0.905 . S
C499 C32 1.208 . S
C514 C52 1.208 . S
C549 C64 0.905 . S
C564 C4 0.904 . S
C599 C69 1.208 . S
C614 C9 1.207 . S
C649 C42 0.904 . S
C664 C22 0.906 . S
