# Generated by pormake.
# Topology wfs, (7)-cn, num edge types: 1
# Building blocks:
#     Node 0, Type 0, BuildingBlock: NUHQUE_clean_sbu_2, # of connection points: 7
#     Node 1, Type 0, BuildingBlock: NUHQUE_clean_sbu_2, # of connection points: 7
#     Node 2, Type 0, BuildingBlock: NUHQUE_clean_sbu_2, # of connection points: 7
#     Node 3, Type 0, BuildingBlock: NUHQUE_clean_sbu_2, # of connection points: 7
#     Node 4, Type 0, BuildingBlock: NUHQUE_clean_sbu_2, # of connection points: 7
#     Node 5, Type 0, BuildingBlock: NUHQUE_clean_sbu_2, # of connection points: 7
#     Node 6, Type 0, BuildingBlock: NUHQUE_clean_sbu_2, # of connection points: 7
#     Node 7, Type 0, BuildingBlock: NUHQUE_clean_sbu_2, # of connection points: 7
#     Edge 8, Type (0, 0), BuildingBlock: KIFKEQ_clean_linker_1, # of connection points: 2
#     Edge 9, Type (0, 0), BuildingBlock: KIFKEQ_clean_linker_1, # of connection points: 2
#     Edge 10, Type (0, 0), BuildingBlock: KIFKEQ_clean_linker_1, # of connection points: 2
#     Edge 11, Type (0, 0), BuildingBlock: KIFKEQ_clean_linker_1, # of connection points: 2
#     Edge 12, Type (0, 0), BuildingBlock: KIFKEQ_clean_linker_1, # of connection points: 2
#     Edge 13, Type (0, 0), BuildingBlock: KIFKEQ_clean_linker_1, # of connection points: 2
#     Edge 14, Type (0, 0), BuildingBlock: KIFKEQ_clean_linker_1, # of connection points: 2
#     Edge 15, Type (0, 0), BuildingBlock: KIFKEQ_clean_linker_1, # of connection points: 2
#     Edge 16, Type (0, 0), BuildingBlock: KIFKEQ_clean_linker_1, # of connection points: 2
#     Edge 17, Type (0, 0), BuildingBlock: KIFKEQ_clean_linker_1, # of connection points: 2
#     Edge 18, Type (0, 0), BuildingBlock: KIFKEQ_clean_linker_1, # of connection points: 2
#     Edge 19, Type (0, 0), BuildingBlock: KIFKEQ_clean_linker_1, # of connection points: 2
#     Edge 20, Type (0, 0), BuildingBlock: KIFKEQ_clean_linker_1, # of connection points: 2
#     Edge 21, Type (0, 0), BuildingBlock: KIFKEQ_clean_linker_1, # of connection points: 2
#     Edge 22, Type (0, 0), BuildingBlock: KIFKEQ_clean_linker_1, # of connection points: 2
#     Edge 23, Type (0, 0), BuildingBlock: KIFKEQ_clean_linker_1, # of connection points: 2
#     Edge 24, Type (0, 0), BuildingBlock: KIFKEQ_clean_linker_1, # of connection points: 2
#     Edge 25, Type (0, 0), BuildingBlock: KIFKEQ_clean_linker_1, # of connection points: 2
#     Edge 26, Type (0, 0), BuildingBlock: KIFKEQ_clean_linker_1, # of connection points: 2
#     Edge 27, Type (0, 0), BuildingBlock: KIFKEQ_clean_linker_1, # of connection points: 2
#     Edge 28, Type (0, 0), BuildingBlock: KIFKEQ_clean_linker_1, # of connection points: 2
#     Edge 29, Type (0, 0), BuildingBlock: KIFKEQ_clean_linker_1, # of connection points: 2
#     Edge 30, Type (0, 0), BuildingBlock: KIFKEQ_clean_linker_1, # of connection points: 2
#     Edge 31, Type (0, 0), BuildingBlock: KIFKEQ_clean_linker_1, # of connection points: 2
#     Edge 32, Type (0, 0), BuildingBlock: KIFKEQ_clean_linker_1, # of connection points: 2
#     Edge 33, Type (0, 0), BuildingBlock: KIFKEQ_clean_linker_1, # of connection points: 2
#     Edge 34, Type (0, 0), BuildingBlock: KIFKEQ_clean_linker_1, # of connection points: 2
#     Edge 35, Type (0, 0), BuildingBlock: KIFKEQ_clean_linker_1, # of connection points: 2
# Relax obj value: 0.227
# Max RMSD: 0.188
# Mean RMSD: 0.188
data_MOF--net-wfs--node1-NUHQUE_clean_sbu_2--edge1-KIFKEQ_clean_linker_1
_symmetry_space_group_name_H-M    P1
_symmetry_Int_Tables_number       1
_symmetry_cell_setting            triclinic
loop_
_symmetry_equiv_pos_as_xyz
'x, y, z'
_cell_length_a     31.751113
_cell_length_b     38.060481
_cell_length_c     31.133487
_cell_angle_alpha  90.053773
_cell_angle_beta   89.955315
_cell_angle_gamma 89.943613
loop_
_atom_site_label
_atom_site_type_symbol
_atom_site_fract_x
_atom_site_fract_y
_atom_site_fract_z
_atom_type_partial_charge
O0 O 0.23748 0.07137 0.23177 0.0
Tb1 Tb 0.21125 0.10523 0.18225 0.0
Eu2 Eu 0.22554 0.1859 0.12534 0.0
C3 C 0.26276 0.04563 0.22022 0.0
O4 O 0.27526 0.04417 0.18011 0.0
C5 C 0.25247 0.11058 0.09533 0.0
O6 O 0.17668 0.2148 0.0866 0.0
C7 C 0.29768 0.21779 0.1321 0.0
C8 C 0.13764 0.20398 0.09171 0.0
O9 O 0.13055 0.17742 0.11762 0.0
C10 C 0.17157 0.17766 0.21622 0.0
C11 C 0.31745 0.24951 0.15085 0.0
C12 C 0.36053 0.24907 0.16246 0.0
C13 C 0.38039 0.27978 0.17792 0.0
C14 C 0.35667 0.3109 0.18039 0.0
C15 C 0.31402 0.31157 0.16926 0.0
C16 C 0.29426 0.28087 0.15497 0.0
O17 O 0.26255 0.10666 0.1359 0.0
O18 O 0.22846 0.13713 0.08469 0.0
O19 O 0.17532 0.05693 0.17448 0.0
O20 O 0.15543 0.10235 0.14059 0.0
C21 C 0.14751 0.06931 0.148 0.0
O22 O 0.18305 0.19585 0.18214 0.0
O23 O 0.18518 0.14554 0.22474 0.0
O24 O 0.27099 0.22309 0.10036 0.0
O25 O 0.28557 0.19284 0.15876 0.0
H26 H 0.37838 0.2249 0.15954 0.0
H27 H 0.3715 0.33513 0.19073 0.0
H28 H 0.26123 0.2816 0.14619 0.0
O29 O 0.22428 0.93983 0.75695 0.0
Tb30 Tb 0.20623 0.90717 0.81103 0.0
Eu31 Eu 0.22834 0.82661 0.86886 0.0
C32 C 0.25835 0.95947 0.75781 0.0
O33 O 0.28582 0.95502 0.78881 0.0
C34 C 0.25506 0.90345 0.89312 0.0
O35 O 0.17933 0.7993 0.90923 0.0
C36 C 0.29999 0.79373 0.86269 0.0
C37 C 0.14032 0.81018 0.90381 0.0
O38 O 0.13336 0.83619 0.87705 0.0
C39 C 0.16883 0.83251 0.78076 0.0
C40 C 0.31942 0.76122 0.84555 0.0
C41 C 0.36259 0.7608 0.83416 0.0
C42 C 0.38222 0.72932 0.82066 0.0
C43 C 0.35814 0.69837 0.82011 0.0
C44 C 0.31531 0.69861 0.83062 0.0
C45 C 0.29579 0.73005 0.84283 0.0
O46 O 0.26152 0.90608 0.85168 0.0
O47 O 0.23366 0.87649 0.90734 0.0
O48 O 0.17287 0.95608 0.82376 0.0
O49 O 0.15259 0.9098 0.85559 0.0
C50 C 0.14569 0.94332 0.85068 0.0
O51 O 0.18517 0.81458 0.81302 0.0
O52 O 0.17767 0.86575 0.7723 0.0
O53 O 0.27364 0.78979 0.89504 0.0
O54 O 0.28773 0.81772 0.8348 0.0
H55 H 0.38065 0.78491 0.83571 0.0
H56 H 0.37269 0.67357 0.81142 0.0
H57 H 0.26262 0.73005 0.85116 0.0
O58 O 0.78597 0.94236 0.22105 0.0
Tb59 Tb 0.81382 0.90533 0.17604 0.0
Eu60 Eu 0.80415 0.8235 0.1204 0.0
C61 C 0.75941 0.96613 0.20657 0.0
O62 O 0.74604 0.96346 0.16682 0.0
C63 C 0.77733 0.89753 0.08877 0.0
O64 O 0.85407 0.79526 0.08212 0.0
C65 C 0.73095 0.79295 0.12462 0.0
C66 C 0.89324 0.80451 0.0901 0.0
O67 O 0.90011 0.82903 0.11897 0.0
C68 C 0.85195 0.83422 0.21467 0.0
C69 C 0.70816 0.76428 0.14681 0.0
C70 C 0.66453 0.76752 0.15498 0.0
C71 C 0.64246 0.74028 0.1757 0.0
C72 C 0.66424 0.71 0.18823 0.0
C73 C 0.70733 0.70619 0.17962 0.0
C74 C 0.72925 0.7333 0.15891 0.0
O75 O 0.76441 0.89969 0.1286 0.0
O76 O 0.80308 0.8719 0.07906 0.0
O77 O 0.84945 0.9533 0.16473 0.0
O78 O 0.87181 0.90578 0.1373 0.0
C79 C 0.87888 0.93934 0.14137 0.0
O80 O 0.84288 0.81523 0.1804 0.0
O81 O 0.83756 0.86642 0.22149 0.0
O82 O 0.76074 0.78365 0.09737 0.0
O83 O 0.74087 0.82076 0.14777 0.0
H84 H 0.64784 0.79104 0.14519 0.0
H85 H 0.6473 0.68886 0.20398 0.0
H86 H 0.76263 0.73032 0.15246 0.0
O87 O 0.78584 0.0694 0.77446 0.0
Tb88 Tb 0.81406 0.10679 0.81864 0.0
Eu89 Eu 0.80494 0.18933 0.87201 0.0
C90 C 0.75873 0.04626 0.78935 0.0
O91 O 0.74523 0.04969 0.829 0.0
C92 C 0.77725 0.11623 0.90539 0.0
O93 O 0.85415 0.21822 0.91032 0.0
C94 C 0.73167 0.2197 0.8665 0.0
C95 C 0.89352 0.20922 0.90282 0.0
O96 O 0.90106 0.18457 0.87427 0.0
C97 C 0.85352 0.17677 0.77842 0.0
C98 C 0.70902 0.24783 0.84321 0.0
C99 C 0.66531 0.24473 0.83563 0.0
C100 C 0.64344 0.27136 0.81355 0.0
C101 C 0.66548 0.30094 0.79919 0.0
C102 C 0.70863 0.30472 0.80741 0.0
C103 C 0.73037 0.27815 0.82939 0.0
O104 O 0.7644 0.11377 0.8656 0.0
O105 O 0.80342 0.14164 0.91454 0.0
O106 O 0.84922 0.05877 0.83135 0.0
O107 O 0.87125 0.10647 0.85848 0.0
C108 C 0.87821 0.07283 0.85511 0.0
O109 O 0.84422 0.19649 0.81205 0.0
O110 O 0.83899 0.14454 0.77244 0.0
O111 O 0.76128 0.22964 0.89353 0.0
O112 O 0.74182 0.19141 0.84431 0.0
H113 H 0.64842 0.22174 0.84681 0.0
H114 H 0.64862 0.32168 0.78258 0.0
H115 H 0.76379 0.28106 0.83553 0.0
O116 O 0.734 0.56706 0.71453 0.0
Tb117 Tb 0.71024 0.60641 0.67033 0.0
Eu118 Eu 0.72024 0.69053 0.61921 0.0
C119 C 0.76182 0.54415 0.70046 0.0
O120 O 0.77775 0.54849 0.6619 0.0
C121 C 0.7487 0.61791 0.58523 0.0
O122 O 0.67097 0.72006 0.5817 0.0
C123 C 0.79302 0.72144 0.62598 0.0
C124 C 0.63153 0.7114 0.58926 0.0
O125 O 0.62377 0.68663 0.61749 0.0
C126 C 0.67201 0.67581 0.71275 0.0
C127 C 0.81486 0.74963 0.64993 0.0
C128 C 0.85835 0.74661 0.65877 0.0
C129 C 0.87943 0.77317 0.68176 0.0
C130 C 0.8568 0.80271 0.69556 0.0
C131 C 0.81393 0.80653 0.68587 0.0
C132 C 0.79299 0.77993 0.66315 0.0
O133 O 0.76081 0.61562 0.62525 0.0
O134 O 0.72272 0.64337 0.5757 0.0
O135 O 0.67713 0.56048 0.64537 0.0
O136 O 0.64942 0.61074 0.63725 0.0
C137 C 0.64491 0.57726 0.63003 0.0
O138 O 0.68072 0.69597 0.67938 0.0
O139 O 0.68721 0.6437 0.71818 0.0
O140 O 0.76362 0.73127 0.59865 0.0
O141 O 0.78302 0.69292 0.64769 0.0
H142 H 0.87564 0.72366 0.648 0.0
H143 H 0.87306 0.82347 0.71274 0.0
H144 H 0.75976 0.78281 0.65595 0.0
O145 O 0.73527 0.44388 0.27422 0.0
Tb146 Tb 0.70937 0.40709 0.32051 0.0
Eu147 Eu 0.72246 0.32328 0.37305 0.0
C148 C 0.76288 0.46732 0.28729 0.0
O149 O 0.77817 0.46454 0.32632 0.0
C150 C 0.74973 0.39705 0.4051 0.0
O151 O 0.67247 0.29466 0.41056 0.0
C152 C 0.79514 0.29185 0.36812 0.0
C153 C 0.63341 0.30472 0.4035 0.0
O154 O 0.62671 0.33036 0.37612 0.0
C155 C 0.67015 0.33603 0.2814 0.0
C156 C 0.81746 0.26271 0.34628 0.0
C157 C 0.86132 0.26498 0.33916 0.0
C158 C 0.88313 0.23707 0.31942 0.0
C159 C 0.86084 0.20717 0.30656 0.0
C160 C 0.8174 0.20442 0.31384 0.0
C161 C 0.79576 0.23215 0.33381 0.0
O162 O 0.76098 0.39945 0.36481 0.0
O163 O 0.72474 0.37113 0.41545 0.0
O164 O 0.67579 0.45548 0.33565 0.0
O165 O 0.65373 0.4078 0.36264 0.0
C166 C 0.64735 0.44156 0.36023 0.0
O167 O 0.68296 0.31574 0.31327 0.0
O168 O 0.68171 0.36918 0.27617 0.0
O169 O 0.76557 0.28311 0.39584 0.0
O170 O 0.78525 0.31947 0.34466 0.0
H171 H 0.87844 0.2882 0.34923 0.0
H172 H 0.87759 0.18557 0.29146 0.0
H173 H 0.76216 0.22996 0.33943 0.0
O174 O 0.30297 0.4417 0.731 0.0
Tb175 Tb 0.3205 0.40704 0.67854 0.0
Eu176 Eu 0.29935 0.32478 0.62258 0.0
C177 C 0.26744 0.4595 0.73043 0.0
O178 O 0.23954 0.45271 0.70046 0.0
C179 C 0.27407 0.40092 0.59582 0.0
O180 O 0.34845 0.29595 0.58385 0.0
C181 C 0.22654 0.29361 0.62652 0.0
C182 C 0.38782 0.30526 0.59055 0.0
O183 O 0.39549 0.33053 0.61818 0.0
C184 C 0.35572 0.33273 0.71276 0.0
C185 C 0.20422 0.2621 0.64258 0.0
C186 C 0.16033 0.26354 0.65003 0.0
C187 C 0.13762 0.23268 0.65948 0.0
C188 C 0.15927 0.20064 0.66177 0.0
C189 C 0.20296 0.19905 0.65576 0.0
C190 C 0.22548 0.22981 0.64653 0.0
O191 O 0.26611 0.4036 0.63696 0.0
O192 O 0.29627 0.37399 0.58282 0.0
O193 O 0.35202 0.45491 0.65734 0.0
O194 O 0.37818 0.40563 0.63966 0.0
C195 C 0.38252 0.43957 0.63682 0.0
O196 O 0.34021 0.31406 0.68063 0.0
O197 O 0.34698 0.36627 0.71979 0.0
O198 O 0.25415 0.2884 0.59556 0.0
O199 O 0.23854 0.3175 0.65466 0.0
H200 H 0.14371 0.28831 0.64708 0.0
H201 H 0.1421 0.17678 0.66926 0.0
H202 H 0.25917 0.22839 0.6411 0.0
O203 O 0.29946 0.57131 0.26286 0.0
Tb204 Tb 0.31941 0.60535 0.31507 0.0
Eu205 Eu 0.29849 0.68759 0.37019 0.0
C206 C 0.26462 0.55272 0.26525 0.0
O207 O 0.23797 0.55895 0.2966 0.0
C208 C 0.27349 0.61155 0.3982 0.0
O209 O 0.34807 0.71629 0.40813 0.0
C210 C 0.2256 0.71887 0.36791 0.0
C211 C 0.38726 0.70645 0.40136 0.0
O212 O 0.39442 0.6807 0.37421 0.0
C213 C 0.35557 0.67955 0.28065 0.0
C214 C 0.20243 0.74999 0.35182 0.0
C215 C 0.15891 0.74736 0.3431 0.0
C216 C 0.13546 0.77746 0.33227 0.0
C217 C 0.15597 0.8099 0.32933 0.0
C218 C 0.1993 0.81314 0.33765 0.0
C219 C 0.22242 0.7829 0.34872 0.0
O220 O 0.26525 0.60827 0.35719 0.0
O221 O 0.29602 0.63853 0.4104 0.0
O222 O 0.35294 0.55675 0.32904 0.0
O223 O 0.3734 0.60376 0.35919 0.0
C224 C 0.38028 0.57014 0.35533 0.0
O225 O 0.33852 0.69874 0.31155 0.0
O226 O 0.34832 0.64563 0.27492 0.0
O227 O 0.25414 0.72456 0.3978 0.0
O228 O 0.23674 0.69448 0.33999 0.0
H229 H 0.14311 0.72224 0.34603 0.0
H230 H 0.13787 0.83272 0.31964 0.0
H231 H 0.25569 0.78508 0.356 0.0
H232 H 0.24031 0.03761 0.30492 0.0
H233 H 0.29745 0.98278 0.19821 0.0
H234 H 0.23681 0.9826 0.34492 0.0
H235 H 0.29157 0.92793 0.23645 0.0
H236 H 0.27765 0.82904 0.30515 0.0
H237 H 0.3056 0.88704 0.28876 0.0
H238 H 0.1932 0.93446 0.34211 0.0
H239 H 0.16749 0.87702 0.3619 0.0
C240 C 0.25264 0.01392 0.29024 0.0
C241 C 0.2684 0.01448 0.2481 0.0
C242 C 0.25029 0.98225 0.31298 0.0
C243 C 0.26289 0.95036 0.29371 0.0
C244 C 0.28176 0.95166 0.25283 0.0
C245 C 0.28481 0.98332 0.23053 0.0
C246 C 0.25958 0.85192 0.31461 0.0
C247 C 0.21973 0.84824 0.33375 0.0
C248 C 0.27534 0.88529 0.30465 0.0
C249 C 0.2513 0.91572 0.31294 0.0
C250 C 0.21296 0.91198 0.33515 0.0
C251 C 0.19767 0.87877 0.34581 0.0
H252 H 0.12629 0.85754 0.70984 0.0
H253 H 0.12985 0.76976 0.79781 0.0
H254 H 0.0593 0.8363 0.68143 0.0
H255 H 0.06307 0.74885 0.76939 0.0
H256 H 0.94499 0.77884 0.6253 0.0
H257 H 0.01977 0.78755 0.64293 0.0
H258 H 0.99083 0.77452 0.77752 0.0
H259 H 0.91651 0.76631 0.75974 0.0
C260 C 0.1135 0.83327 0.72241 0.0
C261 C 0.13367 0.81563 0.75644 0.0
C262 C 0.07501 0.82105 0.70602 0.0
C263 C 0.05552 0.7911 0.72351 0.0
C264 C 0.07694 0.77225 0.75558 0.0
C265 C 0.11555 0.7842 0.77164 0.0
C266 C 0.95502 0.77694 0.65846 0.0
C267 C 0.92522 0.77148 0.69116 0.0
C268 C 0.99765 0.78226 0.66862 0.0
C269 C 1.01134 0.78171 0.71164 0.0
C270 C 0.98158 0.77464 0.74404 0.0
C271 C 0.93901 0.76992 0.73394 0.0
H272 H 0.80859 0.17879 0.23331 0.0
H273 H 0.77899 0.1565 0.36569 0.0
H274 H 0.7828 0.12081 0.2124 0.0
H275 H 0.75354 0.09787 0.34496 0.0
H276 H 0.7142 0.02326 0.18065 0.0
H277 H 0.71738 0.08241 0.21041 0.0
H278 H 0.7943 0.04455 0.31484 0.0
H279 H 0.79136 0.98518 0.28508 0.0
C280 C 0.79564 0.16162 0.25772 0.0
C281 C 0.79551 0.1719 0.30096 0.0
C282 C 0.78076 0.12854 0.24584 0.0
C283 C 0.76612 0.10486 0.27709 0.0
C284 C 0.76468 0.11563 0.32028 0.0
C285 C 0.77894 0.1491 0.33208 0.0
C286 C 0.73098 0.02728 0.21053 0.0
C287 C 0.75316 0.99958 0.2301 0.0
C288 C 0.73285 0.06122 0.22746 0.0
C289 C 0.75655 0.06813 0.26456 0.0
C290 C 0.77567 0.03994 0.28626 0.0
C291 C 0.77409 1.00595 0.26912 0.0
H292 H 0.90131 0.13914 0.72123 0.0
H293 H 0.88382 0.24414 0.77082 0.0
H294 H 0.96631 0.15734 0.68699 0.0
H295 H 0.94819 0.26289 0.73498 0.0
H296 H 0.09404 0.2673 0.7224 0.0
H297 H 0.02104 0.25746 0.74414 0.0
H298 H 1.00392 0.18807 0.63546 0.0
H299 H 0.07747 0.19676 0.61547 0.0
C300 C 0.9105 0.16646 0.72366 0.0
C301 C 0.88716 0.19003 0.74909 0.0
C302 C 0.94808 0.17704 0.70386 0.0
C303 C 0.96327 0.21166 0.70841 0.0
C304 C 0.93833 0.23582 0.73147 0.0
C305 C 0.90097 0.22513 0.75168 0.0
C306 C 0.07425 0.2506 0.70275 0.0
C307 C 0.09138 0.23277 0.66734 0.0
C308 C 0.03225 0.2449 0.7151 0.0
C309 C 1.00621 0.22151 0.69198 0.0
C310 C 0.02295 0.20551 0.65487 0.0
C311 C 0.06503 0.2108 0.643 0.0
H312 H 0.19956 0.98271 0.70066 0.0
H313 H 0.32144 0.00853 0.75355 0.0
H314 H 0.19544 0.04024 0.66801 0.0
H315 H 0.31817 0.06606 0.71918 0.0
H316 H 0.25837 0.17856 0.71725 0.0
H317 H 0.28038 0.11849 0.73311 0.0
H318 H 0.21728 0.08234 0.61816 0.0
H319 H 0.19363 0.1423 0.60402 0.0
C320 C 0.22612 1.0003 0.70429 0.0
C321 C 0.26054 0.99116 0.73029 0.0
C322 C 0.2239 0.03342 0.68523 0.0
C323 C 0.25629 0.05817 0.69125 0.0
C324 C 0.29223 0.04799 0.71459 0.0
C325 C 0.29427 0.01487 0.73402 0.0
C326 C 0.25024 0.15777 0.69497 0.0
C327 C 0.22423 0.16473 0.65965 0.0
C328 C 0.26292 0.12331 0.70385 0.0
C329 C 0.25011 0.09529 0.67726 0.0
C330 C 0.22687 0.10303 0.63995 0.0
C331 C 0.21364 0.13734 0.63154 0.0
H332 H 0.09349 0.74503 0.26664 0.0
H333 H 0.07408 0.80944 0.37875 0.0
H334 H 0.02029 0.7546 0.24522 0.0
H335 H 1.00043 0.81791 0.35888 0.0
H336 H 0.89847 0.87007 0.27455 0.0
H337 H 0.96334 0.85101 0.30846 0.0
H338 H 0.94714 0.74728 0.2544 0.0
H339 H 0.88282 0.76683 0.21916 0.0
C340 C 0.07303 0.76021 0.28744 0.0
C341 C 0.08932 0.77641 0.32434 0.0
C342 C 0.03096 0.76577 0.27528 0.0
C343 C 1.00413 0.78747 0.29998 0.0
C344 C 0.02009 0.80176 0.3384 0.0
C345 C 0.06219 0.79657 0.35017 0.0
C346 C 0.90803 0.84293 0.27073 0.0
C347 C 0.88527 0.82016 0.24379 0.0
C348 C 0.94551 0.83187 0.2903 0.0
C349 C 0.9612 0.79757 0.28391 0.0
C350 C 0.93682 0.7741 0.25936 0.0
C351 C 0.89951 0.78525 0.23948 0.0
H352 H 0.71263 0.99004 0.81645 0.0
H353 H 0.79011 0.02592 0.71105 0.0
H354 H 0.7148 0.93052 0.7877 0.0
H355 H 0.79205 0.9662 0.68232 0.0
H356 H 0.77564 0.85413 0.63347 0.0
H357 H 0.75056 0.91306 0.65333 0.0
H358 H 0.77962 0.89133 0.78619 0.0
H359 H 0.805 0.83298 0.76619 0.0
C360 C 0.72927 0.98547 0.78657 0.0
C361 C 0.75186 0.01264 0.76644 0.0
C362 C 0.73055 0.95132 0.77022 0.0
C363 C 0.75405 0.94369 0.73316 0.0
C364 C 0.77355 0.97137 0.71089 0.0
C365 C 0.77256 1.00556 0.72745 0.0
C366 C 0.77561 0.86183 0.66697 0.0
C367 C 0.79212 0.83926 0.69841 0.0
C368 C 0.76156 0.89549 0.67827 0.0
C369 C 0.76311 0.90671 0.72127 0.0
C370 C 0.77753 0.88326 0.75288 0.0
C371 C 0.79221 0.84997 0.74151 0.0
H372 H 0.94474 0.21438 0.3734 0.0
H373 H 0.92457 0.25878 0.24792 0.0
H374 H 0.01929 0.20485 0.35614 0.0
H375 H 0.99864 0.24894 0.23002 0.0
H376 H 0.13751 0.24389 0.2121 0.0
H377 H 0.07136 0.26392 0.24305 0.0
H378 H 0.05857 0.16523 0.31003 0.0
H379 H 0.12514 0.14525 0.27957 0.0
C380 C 0.95667 0.22291 0.34252 0.0
C381 C 0.92929 0.23787 0.31222 0.0
C382 C 0.99919 0.2171 0.33238 0.0
C383 C 0.0152 0.226 0.2916 0.0
C384 C 0.98783 0.24225 0.26198 0.0
C385 C 0.94535 0.24796 0.27213 0.0
C386 C 0.12122 0.22664 0.23421 0.0
C387 C 0.13683 0.19271 0.24294 0.0
C388 C 0.08293 0.23811 0.2517 0.0
C389 C 0.05905 0.21605 0.27851 0.0
C390 C 0.07606 0.18309 0.2897 0.0
C391 C 0.11443 0.17158 0.27216 0.0
H392 H 0.72979 0.52396 0.77841 0.0
H393 H 0.80696 0.48737 0.67299 0.0
H394 H 0.72809 0.46443 0.80762 0.0
H395 H 0.805 0.42801 0.7022 0.0
H396 H 0.74696 0.35326 0.85843 0.0
H397 H 0.77093 0.41212 0.83716 0.0
H398 H 0.74059 0.3883 0.70509 0.0
H399 H 0.71628 0.33002 0.72651 0.0
C400 C 0.74722 0.50346 0.76204 0.0
C401 C 0.76794 0.51031 0.72303 0.0
C402 C 0.7464 0.46939 0.77889 0.0
C403 C 0.76602 0.44158 0.75686 0.0
C404 C 0.78923 0.44893 0.71954 0.0
C405 C 0.79039 0.48297 0.70292 0.0
C406 C 0.74649 0.3605 0.82478 0.0
C407 C 0.72994 0.33736 0.79398 0.0
C408 C 0.75989 0.39411 0.81269 0.0
C409 C 0.75762 0.40472 0.76951 0.0
C410 C 0.74319 0.38071 0.73851 0.0
C411 C 0.72916 0.34746 0.75069 0.0
H412 H 0.4143 0.31327 0.24732 0.0
H413 H 0.4495 0.24864 0.13887 0.0
H414 H 0.48836 0.32318 0.26357 0.0
H415 H 0.52436 0.25767 0.15672 0.0
H416 H 0.64071 0.2681 0.27514 0.0
H417 H 0.57277 0.2494 0.2457 0.0
H418 H 0.55055 0.35426 0.19898 0.0
H419 H 0.6184 0.37316 0.22749 0.0
C420 C 0.43779 0.30095 0.22703 0.0
C421 C 0.42572 0.28068 0.1912 0.0
C422 C 0.48022 0.30658 0.23652 0.0
C423 C 0.5119 0.29159 0.21105 0.0
C424 C 0.50036 0.26963 0.17669 0.0
C425 C 0.45756 0.2643 0.16672 0.0
C426 C 0.6221 0.28698 0.25733 0.0
C427 C 0.63524 0.32229 0.25399 0.0
C428 C 0.58318 0.27615 0.24049 0.0
C429 C 0.55652 0.30044 0.22027 0.0
C430 C 0.5707 0.33503 0.21435 0.0
C431 C 0.60975 0.34577 0.23061 0.0
H432 H 0.31838 0.64408 0.88631 0.0
H433 H 0.26254 0.67783 0.76721 0.0
H434 H 0.29545 0.58384 0.87233 0.0
H435 H 0.24091 0.61756 0.75196 0.0
H436 H 0.20251 0.50705 0.73147 0.0
H437 H 0.20205 0.56474 0.76577 0.0
H438 H 0.32301 0.54208 0.82309 0.0
H439 H 0.32284 0.48442 0.79005 0.0
C440 C 0.3 0.63862 0.85777 0.0
C441 C 0.29189 0.66529 0.82788 0.0
C442 C 0.2873 0.60414 0.84945 0.0
C443 C 0.26697 0.59565 0.81065 0.0
C444 C 0.2561 0.62307 0.78235 0.0
C445 C 0.26846 0.65762 0.79095 0.0
C446 C 0.22849 0.51409 0.75227 0.0
C447 C 0.263 0.4913 0.75754 0.0
C448 C 0.22834 0.54727 0.77172 0.0
C449 C 0.26269 0.55834 0.79681 0.0
C450 C 0.29574 0.53447 0.80442 0.0
C451 C 0.29582 0.50135 0.78514 0.0
H452 H 0.39082 0.74501 0.29048 0.0
H453 H 0.40012 0.65092 0.21318 0.0
H454 H 0.45654 0.76628 0.25974 0.0
H455 H 0.46609 0.67214 0.18292 0.0
H456 H 0.57848 0.72421 0.12091 0.0
H457 H 0.50409 0.7152 0.13933 0.0
H458 H 0.52977 0.74838 0.26944 0.0
H459 H 0.60375 0.75746 0.2506 0.0
C460 C 0.4062 0.72914 0.2662 0.0
C461 C 0.38994 0.69599 0.25467 0.0
C462 C 0.44427 0.74127 0.24886 0.0
C463 C 0.46709 0.72078 0.21925 0.0
C464 C 0.44938 0.6888 0.20544 0.0
C465 C 0.4114 0.67655 0.22294 0.0
C466 C 0.56773 0.73056 0.15303 0.0
C467 C 0.59652 0.74209 0.18419 0.0
C468 C 0.52529 0.72503 0.16377 0.0
C469 C 0.51076 0.73096 0.20594 0.0
C470 C 0.53949 0.74403 0.23651 0.0
C471 C 0.58191 0.74929 0.22581 0.0
H472 H 0.72741 0.48649 0.21047 0.0
H473 H 0.81064 0.52382 0.31037 0.0
H474 H 0.72461 0.54562 0.18019 0.0
H475 H 0.80768 0.58275 0.28004 0.0
H476 H 0.71955 0.68144 0.26004 0.0
H477 H 0.74418 0.62302 0.28065 0.0
H478 H 0.76498 0.59737 0.1471 0.0
H479 H 0.74069 0.65641 0.12667 0.0
C480 C 0.74599 0.50703 0.2253 0.0
C481 C 0.76867 0.50054 0.26325 0.0
C482 C 0.74449 0.54089 0.20785 0.0
C483 C 0.76547 0.56885 0.22815 0.0
C484 C 0.79075 0.56176 0.2641 0.0
C485 C 0.7925 0.52794 0.28136 0.0
C486 C 0.73042 0.66355 0.2353 0.0
C487 C 0.72854 0.67321 0.19192 0.0
C488 C 0.74463 0.63021 0.24699 0.0
C489 C 0.75655 0.60566 0.21544 0.0
C490 C 0.75595 0.61578 0.17202 0.0
C491 C 0.74236 0.64948 0.16037 0.0
H492 H 0.39085 0.26729 0.70247 0.0
H493 H 0.40039 0.36103 0.78039 0.0
H494 H 0.45688 0.24598 0.73227 0.0
H495 H 0.46666 0.33953 0.81001 0.0
H496 H 0.60417 0.25688 0.73829 0.0
H497 H 0.52991 0.26607 0.72084 0.0
H498 H 0.50512 0.29453 0.85281 0.0
H499 H 0.57981 0.28512 0.86999 0.0
C500 C 0.40633 0.28307 0.72672 0.0
C501 C 0.39009 0.31618 0.73861 0.0
C502 C 0.44454 0.27087 0.74356 0.0
C503 C 0.4675 0.29122 0.77308 0.0
C504 C 0.44979 0.32306 0.78746 0.0
C505 C 0.41166 0.33543 0.77037 0.0
C506 C 0.58249 0.26401 0.76375 0.0
C507 C 0.59743 0.26972 0.80557 0.0
C508 C 0.53994 0.26934 0.75384 0.0
C509 C 0.5114 0.28109 0.78542 0.0
C510 C 0.52622 0.28566 0.82769 0.0
C511 C 0.56881 0.27991 0.83768 0.0
H512 H 0.31888 0.52782 0.20427 0.0
H513 H 0.20122 0.50394 0.26763 0.0
H514 H 0.31998 0.46941 0.17309 0.0
H515 H 0.20172 0.44551 0.23533 0.0
H516 H 0.26503 0.3336 0.23525 0.0
H517 H 0.24327 0.394 0.2499 0.0
H518 H 0.2918 0.42585 0.12609 0.0
H519 H 0.31467 0.36543 0.11252 0.0
C520 C 0.2926 0.51045 0.21061 0.0
C521 C 0.26031 0.52042 0.239 0.0
C522 C 0.29307 0.47688 0.19245 0.0
C523 C 0.26114 0.45249 0.20204 0.0
C524 C 0.2272 0.46341 0.22789 0.0
C525 C 0.22678 0.49701 0.24617 0.0
C526 C 0.26964 0.35342 0.21073 0.0
C527 C 0.29118 0.34515 0.17276 0.0
C528 C 0.25719 0.38803 0.21897 0.0
C529 C 0.26617 0.41497 0.18934 0.0
C530 C 0.28501 0.40592 0.1499 0.0
C531 C 0.29769 0.37135 0.14185 0.0
H532 H 0.45165 0.76347 0.85528 0.0
H533 H 0.41594 0.69105 0.7547 0.0
H534 H 0.52631 0.75412 0.83677 0.0
H535 H 0.48975 0.68063 0.73829 0.0
H536 H 0.62089 0.63572 0.76366 0.0
H537 H 0.55284 0.65281 0.79367 0.0
H538 H 0.57456 0.76014 0.75581 0.0
H539 H 0.6426 0.74316 0.72478 0.0
C540 C 0.4595 0.74586 0.82913 0.0
C541 C 0.42754 0.7275 0.80714 0.0
C542 C 0.50223 0.74034 0.81882 0.0
C543 C 0.51368 0.71604 0.78679 0.0
C544 C 0.48181 0.69888 0.76379 0.0
C545 C 0.43946 0.70483 0.77341 0.0
C546 C 0.61206 0.66321 0.76295 0.0
C547 C 0.63738 0.68798 0.74156 0.0
C548 C 0.57286 0.67291 0.77992 0.0
C549 C 0.55841 0.70773 0.77679 0.0
C550 C 0.58507 0.73316 0.7588 0.0
C551 C 0.62404 0.72336 0.74107 0.0
H552 H 0.13232 1.00006 0.15973 0.0
H553 H 0.07909 0.09361 0.10328 0.0
H554 H 0.06745 0.96829 0.14557 0.0
H555 H 0.01385 0.06151 0.08815 0.0
H556 H 0.89233 0.00942 0.14543 0.0
H557 H 0.95838 0.04044 0.13486 0.0
H558 H 0.01776 0.9435 0.09497 0.0
H559 H 0.95124 0.91223 0.10648 0.0
C560 C 0.10693 0.01362 0.14343 0.0
C561 C 0.11045 0.04939 0.13309 0.0
C562 C 0.06981 0.9953 0.13493 0.0
C563 C 0.03524 0.01235 0.11593 0.0
C564 C 0.03971 0.04771 0.10333 0.0
C565 C 0.07705 0.06607 0.11179 0.0
C566 C 0.9193 0.99485 0.13362 0.0
C567 C 0.91692 0.95837 0.12735 0.0
C568 C 0.95715 0.0127 0.1272 0.0
C569 C 0.99357 0.99445 0.11442 0.0
C570 C 0.99042 0.95824 0.10543 0.0
C571 C 0.95236 0.94035 0.11178 0.0
H572 H 0.89207 1.00278 0.85113 0.0
H573 H 0.94908 0.09986 0.89288 0.0
H574 H 0.95784 0.97185 0.86365 0.0
H575 H 0.01528 0.06866 0.90654 0.0
H576 H 0.13168 0.01316 0.84306 0.0
H577 H 0.06676 0.04479 0.85769 0.0
H578 H 0.01213 0.95029 0.91072 0.0
H579 H 0.07738 0.91834 0.89494 0.0
C580 C 0.91852 0.01734 0.864 0.0
C581 C 0.91578 0.05378 0.87039 0.0
C582 C 0.95621 0.99953 0.87158 0.0
C583 C 0.9921 0.01778 0.88574 0.0
C584 C 0.98842 0.05391 0.89499 0.0
C585 C 0.95053 0.07177 0.88739 0.0
C586 C 0.10609 0.9993 0.85862 0.0
C587 C 0.10925 0.96321 0.86728 0.0
C588 C 0.06891 0.01753 0.86739 0.0
C589 C 0.03395 1.00005 0.88503 0.0
C590 C 0.03824 0.96441 0.8965 0.0
C591 C 0.07561 0.94614 0.8877 0.0
H592 H 0.56475 0.60171 0.63574 0.0
H593 H 0.63814 0.51345 0.59154 0.0
H594 H 0.50052 0.56806 0.62629 0.0
H595 H 0.57377 0.48023 0.57854 0.0
H596 H 0.46278 0.41512 0.63076 0.0
H597 H 0.52588 0.44959 0.61788 0.0
H598 H 0.44852 0.54042 0.58944 0.0
H599 H 0.38577 0.50618 0.60599 0.0
C600 C 0.56688 0.57543 0.62248 0.0
C601 C 0.60622 0.55993 0.61493 0.0
C602 C 0.52994 0.556 0.61675 0.0
C603 C 0.53149 0.52085 0.60227 0.0
C604 C 0.57105 0.50664 0.59116 0.0
C605 C 0.60802 0.52578 0.59809 0.0
C606 C 0.45944 0.44231 0.62103 0.0
C607 C 0.41964 0.45819 0.61993 0.0
C608 C 0.49568 0.46222 0.61332 0.0
C609 C 0.49283 0.49831 0.60324 0.0
C610 C 0.45241 0.51318 0.59857 0.0
C611 C 0.4163 0.49349 0.60754 0.0
H612 H 0.63392 0.51172 0.35708 0.0
H613 H 0.57717 0.41479 0.39959 0.0
H614 H 0.56824 0.54269 0.37009 0.0
H615 H 0.51113 0.44605 0.41386 0.0
H616 H 0.39469 0.50023 0.34934 0.0
H617 H 0.45966 0.46909 0.36495 0.0
H618 H 0.51353 0.56463 0.41616 0.0
H619 H 0.44823 0.59609 0.39932 0.0
C620 C 0.60758 0.49722 0.3703 0.0
C621 C 0.61031 0.46078 0.3766 0.0
C622 C 0.56993 0.51506 0.37816 0.0
C623 C 0.53409 0.49684 0.39254 0.0
C624 C 0.53791 0.46077 0.40205 0.0
C625 C 0.57573 0.44288 0.39413 0.0
C626 C 0.42013 0.51444 0.3647 0.0
C627 C 0.41676 0.55066 0.37249 0.0
C628 C 0.45734 0.49649 0.37406 0.0
C629 C 0.49212 0.51437 0.39146 0.0
C630 C 0.48758 0.55018 0.40212 0.0
C631 C 0.45019 0.56818 0.39271 0.0
H632 H 0.30247 0.05184 0.10403 0.0
H633 H 0.22012 0.10441 0.01437 0.0
H634 H 0.30798 1.00189 0.05489 0.0
H635 H 0.22639 0.05501 0.96506 0.0
H636 H 0.27182 0.97186 0.87091 0.0
H637 H 0.27693 0.02269 0.91853 0.0
H638 H 0.25891 0.95517 0.02835 0.0
H639 H 0.25401 0.90432 0.98078 0.0
C640 C 0.28543 0.05275 0.07402 0.0
C641 C 0.26005 0.08185 0.06377 0.0
C642 C 0.28876 0.02418 0.04573 0.0
C643 C 0.26739 0.02433 0.00615 0.0
C644 C 0.24353 0.0541 0.99511 0.0
C645 C 0.23984 0.08243 0.02355 0.0
C646 C 0.26963 0.96773 0.9052 0.0
C647 C 0.2625 0.93396 0.92197 0.0
C648 C 0.27222 0.99694 0.93251 0.0
C649 C 0.2682 0.99304 0.97727 0.0
C650 C 0.26256 0.95909 0.9941 0.0
C651 C 0.25952 0.92996 0.96678 0.0
H652 H 0.14218 0.77226 0.97889 0.0
H653 H 0.05759 0.81544 0.88401 0.0
H654 H 0.08169 0.75752 0.02442 0.0
H655 H 0.99779 0.8014 0.92926 0.0
H656 H 0.89198 0.77073 0.01206 0.0
H657 H 0.95272 0.75896 0.96561 0.0
H658 H 0.03596 0.79699 0.06505 0.0
H659 H 0.97587 0.80807 0.11122 0.0
C660 C 0.1107 0.77792 0.96742 0.0
C661 C 0.1046 0.79562 0.92838 0.0
C662 C 0.07611 0.7696 0.99346 0.0
C663 C 0.03492 0.77858 0.98065 0.0
C664 C 0.02891 0.79379 0.94004 0.0
C665 C 0.06333 0.80227 0.91429 0.0
C666 C 0.92336 0.77566 0.02426 0.0
C667 C 0.92917 0.79094 0.06488 0.0
C668 C 0.95811 0.76906 -0.00232 0.0
C669 C 0.99917 0.77742 0.01145 0.0
C670 C 1.00493 0.78996 0.05346 0.0
C671 C 0.97035 0.7967 0.0798 0.0
H672 H 0.71334 0.06833 0.91139 0.0
H673 H 0.8357 0.09364 0.96322 0.0
H674 H 0.71129 0.01503 0.95582 0.0
H675 H 0.8339 0.04031 0.00682 0.0
H676 H 0.83512 0.91967 0.02998 0.0
H677 H 0.83329 0.9731 0.98657 0.0
H678 H 0.71192 0.99963 0.04001 0.0
H679 H 0.71401 0.94622 0.08425 0.0
C680 C 0.73966 0.06255 0.93235 0.0
C681 C 0.7746 0.08515 0.9339 0.0
C682 C 0.73841 0.03219 0.95783 0.0
C683 C 0.77251 0.02353 0.9846 0.0
C684 C 0.8073 0.04627 0.98629 0.0
C685 C 0.80816 0.07691 0.96156 0.0
C686 C 0.80785 0.93671 0.03225 0.0
C687 C 0.77465 0.92877 0.06053 0.0
C688 C 0.80698 0.96741 0.00762 0.0
C689 C 0.77253 0.99051 0.01004 0.0
C690 C 0.73879 0.98218 0.03745 0.0
C691 C 0.74005 0.95176 0.06282 0.0
H692 H 0.14026 0.24281 0.01741 0.0
H693 H 0.05469 0.19842 0.11057 0.0
H694 H 0.08033 0.25769 0.97125 0.0
H695 H 0.99543 0.21265 0.06471 0.0
H696 H 0.89067 0.2431 0.9807 0.0
H697 H 0.95056 0.25526 0.028 0.0
H698 H 0.03574 0.21783 0.92973 0.0
H699 H 0.97647 0.20632 0.88273 0.0
C700 C 0.10867 0.23696 0.02841 0.0
C701 C 0.10215 0.21887 0.06711 0.0
C702 C 0.0744 0.24535 0.002 0.0
C703 C 0.03313 0.23606 0.01413 0.0
C704 C 0.02664 0.2205 0.05447 0.0
C705 C 0.06075 0.21194 0.08058 0.0
C706 C 0.92229 0.2384 0.96893 0.0
C707 C 0.9289 0.22314 0.92842 0.0
C708 C 0.95655 0.24524 0.996 0.0
C709 C 0.99789 0.23714 0.9828 0.0
C710 C 1.00445 0.22466 0.94087 0.0
C711 C 0.97035 0.21767 0.91405 0.0
H712 H 0.81194 0.44652 0.40855 0.0
H713 H 0.69163 0.41919 0.46384 0.0
H714 H 0.8133 0.50037 0.45209 0.0
H715 H 0.69269 0.47311 0.50655 0.0
H716 H 0.68937 0.59425 0.52884 0.0
H717 H 0.69097 0.5403 0.48617 0.0
H718 H 0.81447 0.51619 0.5359 0.0
H719 H 0.81254 0.57001 0.57948 0.0
C720 C 0.78592 0.45199 0.43007 0.0
C721 C 0.7518 0.42862 0.4329 0.0
C722 C 0.78676 0.48267 0.45503 0.0
C723 C 0.75305 0.49091 0.48256 0.0
C724 C 0.71899 0.46748 0.48543 0.0
C725 C 0.71857 0.4365 0.46122 0.0
C726 C 0.71704 0.57763 0.5304 0.0
C727 C 0.75096 0.58639 0.55737 0.0
C728 C 0.71779 0.54663 0.50623 0.0
C729 C 0.75284 0.52409 0.50776 0.0
C730 C 0.78717 0.53321 0.53397 0.0
C731 C 0.78602 0.56388 0.55893 0.0
H732 H 0.38493 0.27016 0.51348 0.0
H733 H 0.4706 0.30746 0.61105 0.0
H734 H 0.44496 0.25641 0.46687 0.0
H735 H 0.53002 0.29441 0.56472 0.0
H736 H 0.63482 0.2671 0.47874 0.0
H737 H 0.57429 0.25351 0.52465 0.0
H738 H 0.49081 0.29756 0.42921 0.0
H739 H 0.55067 0.31044 0.38353 0.0
C740 C 0.41654 0.27465 0.52531 0.0
C741 C 0.42312 0.29053 0.56545 0.0
C742 C 0.45088 0.26691 0.49864 0.0
C743 C 0.49226 0.27469 0.51189 0.0
C744 C 0.49871 0.28781 0.55354 0.0
C745 C 0.46454 0.29569 0.57996 0.0
C746 C 0.60342 0.273 0.46725 0.0
C747 C 0.59749 0.29045 0.42801 0.0
C748 C 0.5688 0.26534 0.49352 0.0
C749 C 0.52775 0.27478 0.48078 0.0
C750 C 0.52183 0.28962 0.43995 0.0
C751 C 0.55629 0.29741 0.41393 0.0
H752 H 0.24579 0.46721 0.61608 0.0
H753 H 0.28918 0.40403 0.50955 0.0
H754 H 0.24103 0.51821 0.56883 0.0
H755 H 0.28502 0.45503 0.46255 0.0
H756 H 0.24083 0.54632 0.38028 0.0
H757 H 0.23642 0.49567 0.428 0.0
H758 H 0.28906 0.55755 0.53113 0.0
H759 H 0.29294 0.60827 0.48363 0.0
C760 C 0.25403 0.46409 0.58257 0.0
C761 C 0.26797 0.43147 0.56672 0.0
C762 C 0.25158 0.49342 0.5555 0.0
C763 C 0.26275 0.49082 0.51184 0.0
C764 C 0.27568 0.45796 0.49583 0.0
C765 C 0.2783 0.42872 0.5229 0.0
C766 C 0.25113 0.54925 0.41319 0.0
C767 C 0.26745 0.5814 0.42794 0.0
C768 C 0.24883 0.5201 0.44054 0.0
C769 C 0.26257 0.5224 0.48342 0.0
C770 C 0.27776 0.55486 0.49848 0.0
C771 C 0.2802 0.58395 0.4711 0.0
H772 H 0.63454 0.74525 0.51145 0.0
H773 H 0.54867 0.70945 0.60974 0.0
H774 H 0.57465 0.7577 0.46427 0.0
H775 H 0.48942 0.72118 0.56285 0.0
H776 H 0.38487 0.74549 0.47555 0.0
H777 H 0.4449 0.76069 0.52131 0.0
H778 H 0.52961 0.71538 0.42765 0.0
H779 H 0.47023 0.70093 0.38207 0.0
C780 C 0.60291 0.74086 0.52332 0.0
C781 C 0.59626 0.72574 0.56387 0.0
C782 C 0.56865 0.74784 0.49631 0.0
C783 C 0.52729 0.74003 0.50961 0.0
C784 C 0.52071 0.72778 0.55161 0.0
C785 C 0.5548 0.72066 0.57838 0.0
C786 C 0.41643 0.73962 0.46441 0.0
C787 C 0.42286 0.72138 0.42574 0.0
C788 C 0.45076 0.74822 0.49059 0.0
C789 C 0.49201 0.73891 0.47833 0.0
C790 C 0.49841 0.72323 0.438 0.0
C791 C 0.46423 0.71453 0.41206 0.0
loop_
_geom_bond_atom_site_label_1
_geom_bond_atom_site_label_2
_geom_bond_distance
_geom_bond_site_symmetry_2
_ccdc_geom_bond_type
O0 Tb1 2.292 . S
O0 C3 1.255 . S
Tb1 O0 2.292 . S
Tb1 O17 2.326 . S
Tb1 O19 2.500 . S
Tb1 O20 2.473 . S
Tb1 O23 2.324 . S
Eu2 O6 2.292 . S
Eu2 C7 2.852 . S
Eu2 O18 2.324 . S
Eu2 O22 2.326 . S
Eu2 O24 2.500 . S
Eu2 O25 2.473 . S
C3 O0 1.255 . S
C3 O4 1.247 . S
O4 C3 1.247 . S
C5 O17 1.242 . S
C5 O18 1.258 . S
O6 Eu2 2.292 . S
O6 C8 1.255 . S
C7 Eu2 2.852 . S
C7 C11 1.503 . S
C7 O24 1.273 . S
C7 O25 1.257 . S
C8 O6 1.255 . S
C8 O9 1.247 . S
O9 C8 1.247 . S
C10 O22 1.242 . S
C10 O23 1.258 . S
C11 C7 1.503 . S
C11 C12 1.379 . S
C11 C16 1.392 . S
C12 C11 1.379 . S
C12 C13 1.404 . S
C12 H26 0.929 . S
C13 C12 1.404 . S
C13 C14 1.389 . S
C14 C13 1.389 . S
C14 C15 1.399 . S
C14 H27 0.931 . S
C15 C14 1.399 . S
C15 C16 1.390 . S
C16 C11 1.392 . S
C16 C15 1.390 . S
C16 H28 0.929 . S
O17 Tb1 2.326 . S
O17 C5 1.242 . S
O18 Eu2 2.324 . S
O18 C5 1.258 . S
O19 Tb1 2.500 . S
O19 C21 1.273 . S
O20 Tb1 2.473 . S
O20 C21 1.257 . S
C21 O19 1.273 . S
C21 O20 1.257 . S
O22 Eu2 2.326 . S
O22 C10 1.242 . S
O23 Tb1 2.324 . S
O23 C10 1.258 . S
O24 Eu2 2.500 . S
O24 C7 1.273 . S
O25 Eu2 2.473 . S
O25 C7 1.257 . S
H26 C12 0.929 . S
H27 C14 0.931 . S
H28 C16 0.929 . S
O29 Tb30 2.292 . S
O29 C32 1.255 . S
Tb30 O29 2.292 . S
Tb30 O46 2.326 . S
Tb30 O48 2.500 . S
Tb30 O49 2.473 . S
Tb30 O52 2.324 . S
Eu31 O35 2.292 . S
Eu31 C36 2.852 . S
Eu31 O47 2.324 . S
Eu31 O51 2.326 . S
Eu31 O53 2.500 . S
Eu31 O54 2.473 . S
C32 O29 1.255 . S
C32 O33 1.247 . S
O33 C32 1.247 . S
C34 O46 1.242 . S
C34 O47 1.258 . S
O35 Eu31 2.292 . S
O35 C37 1.255 . S
C36 Eu31 2.852 . S
C36 C40 1.503 . S
C36 O53 1.273 . S
C36 O54 1.257 . S
C37 O35 1.255 . S
C37 O38 1.247 . S
O38 C37 1.247 . S
C39 O51 1.242 . S
C39 O52 1.258 . S
C40 C36 1.503 . S
C40 C41 1.379 . S
C40 C45 1.392 . S
C41 C40 1.379 . S
C41 C42 1.404 . S
C41 H55 0.929 . S
C42 C41 1.404 . S
C42 C43 1.389 . S
C43 C42 1.389 . S
C43 C44 1.399 . S
C43 H56 0.931 . S
C44 C43 1.399 . S
C44 C45 1.390 . S
C45 C40 1.392 . S
C45 C44 1.390 . S
C45 H57 0.929 . S
O46 Tb30 2.326 . S
O46 C34 1.242 . S
O47 Eu31 2.324 . S
O47 C34 1.258 . S
O48 Tb30 2.500 . S
O48 C50 1.273 . S
O49 Tb30 2.473 . S
O49 C50 1.257 . S
C50 O48 1.273 . S
C50 O49 1.257 . S
O51 Eu31 2.326 . S
O51 C39 1.242 . S
O52 Tb30 2.324 . S
O52 C39 1.258 . S
O53 Eu31 2.500 . S
O53 C36 1.273 . S
O54 Eu31 2.473 . S
O54 C36 1.257 . S
H55 C41 0.929 . S
H56 C43 0.931 . S
H57 C45 0.929 . S
O58 Tb59 2.292 . S
O58 C61 1.255 . S
Tb59 O58 2.292 . S
Tb59 O75 2.326 . S
Tb59 O77 2.500 . S
Tb59 O78 2.473 . S
Tb59 O81 2.324 . S
Eu60 O64 2.292 . S
Eu60 C65 2.852 . S
Eu60 O76 2.324 . S
Eu60 O80 2.326 . S
Eu60 O82 2.500 . S
Eu60 O83 2.473 . S
C61 O58 1.255 . S
C61 O62 1.247 . S
O62 C61 1.247 . S
C63 O75 1.242 . S
C63 O76 1.258 . S
O64 Eu60 2.292 . S
O64 C66 1.255 . S
C65 Eu60 2.852 . S
C65 C69 1.503 . S
C65 O82 1.273 . S
C65 O83 1.257 . S
C66 O64 1.255 . S
C66 O67 1.247 . S
O67 C66 1.247 . S
C68 O80 1.242 . S
C68 O81 1.258 . S
C69 C65 1.503 . S
C69 C70 1.379 . S
C69 C74 1.392 . S
C70 C69 1.379 . S
C70 C71 1.404 . S
C70 H84 0.929 . S
C71 C70 1.404 . S
C71 C72 1.389 . S
C72 C71 1.389 . S
C72 C73 1.399 . S
C72 H85 0.931 . S
C73 C72 1.399 . S
C73 C74 1.390 . S
C74 C69 1.392 . S
C74 C73 1.390 . S
C74 H86 0.929 . S
O75 Tb59 2.326 . S
O75 C63 1.242 . S
O76 Eu60 2.324 . S
O76 C63 1.258 . S
O77 Tb59 2.500 . S
O77 C79 1.273 . S
O78 Tb59 2.473 . S
O78 C79 1.257 . S
C79 O77 1.273 . S
C79 O78 1.257 . S
O80 Eu60 2.326 . S
O80 C68 1.242 . S
O81 Tb59 2.324 . S
O81 C68 1.258 . S
O82 Eu60 2.500 . S
O82 C65 1.273 . S
O83 Eu60 2.473 . S
O83 C65 1.257 . S
H84 C70 0.929 . S
H85 C72 0.931 . S
H86 C74 0.929 . S
O87 Tb88 2.292 . S
O87 C90 1.255 . S
Tb88 O87 2.292 . S
Tb88 O104 2.326 . S
Tb88 O106 2.500 . S
Tb88 O107 2.473 . S
Tb88 O110 2.324 . S
Eu89 O93 2.292 . S
Eu89 C94 2.852 . S
Eu89 O105 2.324 . S
Eu89 O109 2.326 . S
Eu89 O111 2.500 . S
Eu89 O112 2.473 . S
C90 O87 1.255 . S
C90 O91 1.247 . S
O91 C90 1.247 . S
C92 O104 1.242 . S
C92 O105 1.258 . S
O93 Eu89 2.292 . S
O93 C95 1.255 . S
C94 Eu89 2.852 . S
C94 C98 1.503 . S
C94 O111 1.273 . S
C94 O112 1.257 . S
C95 O93 1.255 . S
C95 O96 1.247 . S
O96 C95 1.247 . S
C97 O109 1.242 . S
C97 O110 1.258 . S
C98 C94 1.503 . S
C98 C99 1.379 . S
C98 C103 1.392 . S
C99 C98 1.379 . S
C99 C100 1.404 . S
C99 H113 0.929 . S
C100 C99 1.404 . S
C100 C101 1.389 . S
C101 C100 1.389 . S
C101 C102 1.399 . S
C101 H114 0.931 . S
C102 C101 1.399 . S
C102 C103 1.390 . S
C103 C98 1.392 . S
C103 C102 1.390 . S
C103 H115 0.929 . S
O104 Tb88 2.326 . S
O104 C92 1.242 . S
O105 Eu89 2.324 . S
O105 C92 1.258 . S
O106 Tb88 2.500 . S
O106 C108 1.273 . S
O107 Tb88 2.473 . S
O107 C108 1.257 . S
C108 O106 1.273 . S
C108 O107 1.257 . S
O109 Eu89 2.326 . S
O109 C97 1.242 . S
O110 Tb88 2.324 . S
O110 C97 1.258 . S
O111 Eu89 2.500 . S
O111 C94 1.273 . S
O112 Eu89 2.473 . S
O112 C94 1.257 . S
H113 C99 0.929 . S
H114 C101 0.931 . S
H115 C103 0.929 . S
O116 Tb117 2.292 . S
O116 C119 1.255 . S
Tb117 O116 2.292 . S
Tb117 O133 2.326 . S
Tb117 O135 2.500 . S
Tb117 O136 2.473 . S
Tb117 O139 2.324 . S
Eu118 O122 2.292 . S
Eu118 C123 2.852 . S
Eu118 O134 2.324 . S
Eu118 O138 2.326 . S
Eu118 O140 2.500 . S
Eu118 O141 2.473 . S
C119 O116 1.255 . S
C119 O120 1.247 . S
O120 C119 1.247 . S
C121 O133 1.242 . S
C121 O134 1.258 . S
O122 Eu118 2.292 . S
O122 C124 1.255 . S
C123 Eu118 2.852 . S
C123 C127 1.503 . S
C123 O140 1.273 . S
C123 O141 1.257 . S
C124 O122 1.255 . S
C124 O125 1.247 . S
O125 C124 1.247 . S
C126 O138 1.242 . S
C126 O139 1.258 . S
C127 C123 1.503 . S
C127 C128 1.379 . S
C127 C132 1.392 . S
C128 C127 1.379 . S
C128 C129 1.404 . S
C128 H142 0.929 . S
C129 C128 1.404 . S
C129 C130 1.389 . S
C130 C129 1.389 . S
C130 C131 1.399 . S
C130 H143 0.931 . S
C131 C130 1.399 . S
C131 C132 1.390 . S
C132 C127 1.392 . S
C132 C131 1.390 . S
C132 H144 0.929 . S
O133 Tb117 2.326 . S
O133 C121 1.242 . S
O134 Eu118 2.324 . S
O134 C121 1.258 . S
O135 Tb117 2.500 . S
O135 C137 1.273 . S
O136 Tb117 2.473 . S
O136 C137 1.257 . S
C137 O135 1.273 . S
C137 O136 1.257 . S
O138 Eu118 2.326 . S
O138 C126 1.242 . S
O139 Tb117 2.324 . S
O139 C126 1.258 . S
O140 Eu118 2.500 . S
O140 C123 1.273 . S
O141 Eu118 2.473 . S
O141 C123 1.257 . S
H142 C128 0.929 . S
H143 C130 0.931 . S
H144 C132 0.929 . S
O145 Tb146 2.292 . S
O145 C148 1.255 . S
Tb146 O145 2.292 . S
Tb146 O162 2.326 . S
Tb146 O164 2.500 . S
Tb146 O165 2.473 . S
Tb146 O168 2.324 . S
Eu147 O151 2.292 . S
Eu147 C152 2.852 . S
Eu147 O163 2.324 . S
Eu147 O167 2.326 . S
Eu147 O169 2.500 . S
Eu147 O170 2.473 . S
C148 O145 1.255 . S
C148 O149 1.247 . S
O149 C148 1.247 . S
C150 O162 1.242 . S
C150 O163 1.258 . S
O151 Eu147 2.292 . S
O151 C153 1.255 . S
C152 Eu147 2.852 . S
C152 C156 1.503 . S
C152 O169 1.273 . S
C152 O170 1.257 . S
C153 O151 1.255 . S
C153 O154 1.247 . S
O154 C153 1.247 . S
C155 O167 1.242 . S
C155 O168 1.258 . S
C156 C152 1.503 . S
C156 C157 1.379 . S
C156 C161 1.392 . S
C157 C156 1.379 . S
C157 C158 1.404 . S
C157 H171 0.929 . S
C158 C157 1.404 . S
C158 C159 1.389 . S
C159 C158 1.389 . S
C159 C160 1.399 . S
C159 H172 0.931 . S
C160 C159 1.399 . S
C160 C161 1.390 . S
C161 C156 1.392 . S
C161 C160 1.390 . S
C161 H173 0.929 . S
O162 Tb146 2.326 . S
O162 C150 1.242 . S
O163 Eu147 2.324 . S
O163 C150 1.258 . S
O164 Tb146 2.500 . S
O164 C166 1.273 . S
O165 Tb146 2.473 . S
O165 C166 1.257 . S
C166 O164 1.273 . S
C166 O165 1.257 . S
O167 Eu147 2.326 . S
O167 C155 1.242 . S
O168 Tb146 2.324 . S
O168 C155 1.258 . S
O169 Eu147 2.500 . S
O169 C152 1.273 . S
O170 Eu147 2.473 . S
O170 C152 1.257 . S
H171 C157 0.929 . S
H172 C159 0.931 . S
H173 C161 0.929 . S
O174 Tb175 2.292 . S
O174 C177 1.255 . S
Tb175 O174 2.292 . S
Tb175 O191 2.326 . S
Tb175 O193 2.500 . S
Tb175 O194 2.473 . S
Tb175 O197 2.324 . S
Eu176 O180 2.292 . S
Eu176 C181 2.852 . S
Eu176 O192 2.324 . S
Eu176 O196 2.326 . S
Eu176 O198 2.500 . S
Eu176 O199 2.473 . S
C177 O174 1.255 . S
C177 O178 1.247 . S
O178 C177 1.247 . S
C179 O191 1.242 . S
C179 O192 1.258 . S
O180 Eu176 2.292 . S
O180 C182 1.255 . S
C181 Eu176 2.852 . S
C181 C185 1.503 . S
C181 O198 1.273 . S
C181 O199 1.257 . S
C182 O180 1.255 . S
C182 O183 1.247 . S
O183 C182 1.247 . S
C184 O196 1.242 . S
C184 O197 1.258 . S
C185 C181 1.503 . S
C185 C186 1.379 . S
C185 C190 1.392 . S
C186 C185 1.379 . S
C186 C187 1.404 . S
C186 H200 0.929 . S
C187 C186 1.404 . S
C187 C188 1.389 . S
C188 C187 1.389 . S
C188 C189 1.399 . S
C188 H201 0.931 . S
C189 C188 1.399 . S
C189 C190 1.390 . S
C190 C185 1.392 . S
C190 C189 1.390 . S
C190 H202 0.929 . S
O191 Tb175 2.326 . S
O191 C179 1.242 . S
O192 Eu176 2.324 . S
O192 C179 1.258 . S
O193 Tb175 2.500 . S
O193 C195 1.273 . S
O194 Tb175 2.473 . S
O194 C195 1.257 . S
C195 O193 1.273 . S
C195 O194 1.257 . S
O196 Eu176 2.326 . S
O196 C184 1.242 . S
O197 Tb175 2.324 . S
O197 C184 1.258 . S
O198 Eu176 2.500 . S
O198 C181 1.273 . S
O199 Eu176 2.473 . S
O199 C181 1.257 . S
H200 C186 0.929 . S
H201 C188 0.931 . S
H202 C190 0.929 . S
O203 Tb204 2.292 . S
O203 C206 1.255 . S
Tb204 O203 2.292 . S
Tb204 O220 2.326 . S
Tb204 O222 2.500 . S
Tb204 O223 2.473 . S
Tb204 O226 2.324 . S
Eu205 O209 2.292 . S
Eu205 C210 2.852 . S
Eu205 O221 2.324 . S
Eu205 O225 2.326 . S
Eu205 O227 2.500 . S
Eu205 O228 2.473 . S
C206 O203 1.255 . S
C206 O207 1.247 . S
O207 C206 1.247 . S
C208 O220 1.242 . S
C208 O221 1.258 . S
O209 Eu205 2.292 . S
O209 C211 1.255 . S
C210 Eu205 2.852 . S
C210 C214 1.503 . S
C210 O227 1.273 . S
C210 O228 1.257 . S
C211 O209 1.255 . S
C211 O212 1.247 . S
O212 C211 1.247 . S
C213 O225 1.242 . S
C213 O226 1.258 . S
C214 C210 1.503 . S
C214 C215 1.379 . S
C214 C219 1.392 . S
C215 C214 1.379 . S
C215 C216 1.404 . S
C215 H229 0.929 . S
C216 C215 1.404 . S
C216 C217 1.389 . S
C217 C216 1.389 . S
C217 C218 1.399 . S
C217 H230 0.931 . S
C218 C217 1.399 . S
C218 C219 1.390 . S
C219 C214 1.392 . S
C219 C218 1.390 . S
C219 H231 0.929 . S
O220 Tb204 2.326 . S
O220 C208 1.242 . S
O221 Eu205 2.324 . S
O221 C208 1.258 . S
O222 Tb204 2.500 . S
O222 C224 1.273 . S
O223 Tb204 2.473 . S
O223 C224 1.257 . S
C224 O222 1.273 . S
C224 O223 1.257 . S
O225 Eu205 2.326 . S
O225 C213 1.242 . S
O226 Tb204 2.324 . S
O226 C213 1.258 . S
O227 Eu205 2.500 . S
O227 C210 1.273 . S
O228 Eu205 2.473 . S
O228 C210 1.257 . S
H229 C215 0.929 . S
H230 C217 0.931 . S
H231 C219 0.929 . S
H232 C240 0.950 . S
H233 C245 0.950 1_545 S
H234 C242 0.950 . S
H235 C244 0.950 . S
H236 C246 0.950 . S
H237 C248 0.950 . S
H238 C250 0.950 . S
H239 C251 0.950 . S
C240 H232 0.950 . S
C240 C241 1.386 . S
C240 C242 1.391 1_545 S
C241 C240 1.386 . S
C241 C245 1.393 1_545 S
C242 H234 0.950 . S
C242 C240 1.391 1_565 S
C242 C243 1.400 . S
C243 C242 1.400 . S
C243 C244 1.398 . S
C243 C249 1.491 . S
C244 H235 0.950 . S
C244 C243 1.398 . S
C244 C245 1.391 . S
C245 H233 0.950 1_565 S
C245 C241 1.393 1_565 S
C245 C244 1.391 . S
C246 H236 0.950 . S
C246 C247 1.386 . S
C246 C248 1.391 . S
C247 C246 1.386 . S
C247 C251 1.393 . S
C248 H237 0.950 . S
C248 C246 1.391 . S
C248 C249 1.400 . S
C249 C243 1.491 . S
C249 C248 1.400 . S
C249 C250 1.398 . S
C250 H238 0.950 . S
C250 C249 1.398 . S
C250 C251 1.391 . S
C251 H239 0.950 . S
C251 C247 1.393 . S
C251 C250 1.391 . S
H252 C260 0.950 . S
H253 C265 0.950 . S
H254 C262 0.950 . S
H255 C264 0.950 1_655 S
H256 C266 0.950 . S
H257 C268 0.950 . S
H258 C270 0.950 . S
H259 C271 0.950 . S
C260 H252 0.950 . S
C260 C261 1.386 . S
C260 C262 1.391 1_455 S
C261 C260 1.386 . S
C261 C265 1.393 . S
C262 H254 0.950 . S
C262 C260 1.391 1_655 S
C262 C263 1.400 . S
C263 C262 1.400 . S
C263 C264 1.398 1_655 S
C263 C269 1.491 . S
C264 H255 0.950 1_455 S
C264 C263 1.398 1_455 S
C264 C265 1.391 . S
C265 H253 0.950 . S
C265 C261 1.393 . S
C265 C264 1.391 . S
C266 H256 0.950 . S
C266 C267 1.386 . S
C266 C268 1.391 . S
C267 C266 1.386 . S
C267 C271 1.393 . S
C268 H257 0.950 . S
C268 C266 1.391 . S
C268 C269 1.400 . S
C269 C263 1.491 . S
C269 C268 1.400 . S
C269 C270 1.398 . S
C270 H258 0.950 . S
C270 C269 1.398 . S
C270 C271 1.391 . S
C271 H259 0.950 . S
C271 C267 1.393 . S
C271 C270 1.391 . S
H272 C280 0.950 . S
H273 C285 0.950 . S
H274 C282 0.950 . S
H275 C284 0.950 . S
H276 C286 0.950 . S
H277 C288 0.950 . S
H278 C290 0.950 . S
H279 C291 0.950 1_565 S
C280 H272 0.950 . S
C280 C281 1.386 . S
C280 C282 1.391 . S
C281 C280 1.386 . S
C281 C285 1.393 . S
C282 H274 0.950 . S
C282 C280 1.391 . S
C282 C283 1.400 . S
C283 C282 1.400 . S
C283 C284 1.398 . S
C283 C289 1.491 . S
C284 H275 0.950 . S
C284 C283 1.398 . S
C284 C285 1.391 . S
C285 H273 0.950 . S
C285 C281 1.393 . S
C285 C284 1.391 . S
C286 H276 0.950 . S
C286 C287 1.386 . S
C286 C288 1.391 1_565 S
C287 C286 1.386 . S
C287 C291 1.393 1_565 S
C288 H277 0.950 . S
C288 C286 1.391 1_545 S
C288 C289 1.400 . S
C289 C283 1.491 . S
C289 C288 1.400 . S
C289 C290 1.398 . S
C290 H278 0.950 . S
C290 C289 1.398 . S
C290 C291 1.391 . S
C291 H279 0.950 1_545 S
C291 C287 1.393 1_545 S
C291 C290 1.391 . S
H292 C300 0.950 . S
H293 C305 0.950 . S
H294 C302 0.950 . S
H295 C304 0.950 . S
H296 C306 0.950 . S
H297 C308 0.950 . S
H298 C310 0.950 . S
H299 C311 0.950 . S
C300 H292 0.950 . S
C300 C301 1.386 . S
C300 C302 1.391 1_655 S
C301 C300 1.386 . S
C301 C305 1.393 . S
C302 H294 0.950 . S
C302 C300 1.391 1_455 S
C302 C303 1.400 . S
C303 C302 1.400 . S
C303 C304 1.398 . S
C303 C309 1.491 . S
C304 H295 0.950 . S
C304 C303 1.398 . S
C304 C305 1.391 1_455 S
C305 H293 0.950 . S
C305 C301 1.393 . S
C305 C304 1.391 1_655 S
C306 H296 0.950 . S
C306 C307 1.386 . S
C306 C308 1.391 . S
C307 C306 1.386 . S
C307 C311 1.393 . S
C308 H297 0.950 . S
C308 C306 1.391 . S
C308 C309 1.400 . S
C309 C303 1.491 . S
C309 C308 1.400 . S
C309 C310 1.398 . S
C310 H298 0.950 . S
C310 C309 1.398 . S
C310 C311 1.391 . S
C311 H299 0.950 . S
C311 C307 1.393 . S
C311 C310 1.391 . S
H312 C320 0.950 . S
H313 C325 0.950 . S
H314 C322 0.950 . S
H315 C324 0.950 . S
H316 C326 0.950 . S
H317 C328 0.950 . S
H318 C330 0.950 . S
H319 C331 0.950 . S
C320 H312 0.950 . S
C320 C321 1.386 . S
C320 C322 1.391 1_565 S
C321 C320 1.386 . S
C321 C325 1.393 . S
C322 H314 0.950 . S
C322 C320 1.391 1_545 S
C322 C323 1.400 . S
C323 C322 1.400 . S
C323 C324 1.398 . S
C323 C329 1.491 . S
C324 H315 0.950 . S
C324 C323 1.398 . S
C324 C325 1.391 1_545 S
C325 H313 0.950 . S
C325 C321 1.393 . S
C325 C324 1.391 1_565 S
C326 H316 0.950 . S
C326 C327 1.386 . S
C326 C328 1.391 . S
C327 C326 1.386 . S
C327 C331 1.393 . S
C328 H317 0.950 . S
C328 C326 1.391 . S
C328 C329 1.400 . S
C329 C323 1.491 . S
C329 C328 1.400 . S
C329 C330 1.398 . S
C330 H318 0.950 . S
C330 C329 1.398 . S
C330 C331 1.391 . S
C331 H319 0.950 . S
C331 C327 1.393 . S
C331 C330 1.391 . S
H332 C340 0.950 . S
H333 C345 0.950 . S
H334 C342 0.950 . S
H335 C344 0.950 . S
H336 C346 0.950 . S
H337 C348 0.950 . S
H338 C350 0.950 . S
H339 C351 0.950 . S
C340 H332 0.950 . S
C340 C341 1.386 . S
C340 C342 1.391 . S
C341 C340 1.386 . S
C341 C345 1.393 . S
C342 H334 0.950 . S
C342 C340 1.391 . S
C342 C343 1.400 . S
C343 C342 1.400 . S
C343 C344 1.398 . S
C343 C349 1.491 . S
C344 H335 0.950 . S
C344 C343 1.398 . S
C344 C345 1.391 . S
C345 H333 0.950 . S
C345 C341 1.393 . S
C345 C344 1.391 . S
C346 H336 0.950 . S
C346 C347 1.386 . S
C346 C348 1.391 1_655 S
C347 C346 1.386 . S
C347 C351 1.393 . S
C348 H337 0.950 . S
C348 C346 1.391 1_455 S
C348 C349 1.400 . S
C349 C343 1.491 . S
C349 C348 1.400 . S
C349 C350 1.398 . S
C350 H338 0.950 . S
C350 C349 1.398 . S
C350 C351 1.391 1_455 S
C351 H339 0.950 . S
C351 C347 1.393 . S
C351 C350 1.391 1_655 S
H352 C360 0.950 . S
H353 C365 0.950 . S
H354 C362 0.950 . S
H355 C364 0.950 . S
H356 C366 0.950 . S
H357 C368 0.950 . S
H358 C370 0.950 . S
H359 C371 0.950 . S
C360 H352 0.950 . S
C360 C361 1.386 . S
C360 C362 1.391 1_545 S
C361 C360 1.386 . S
C361 C365 1.393 . S
C362 H354 0.950 . S
C362 C360 1.391 1_565 S
C362 C363 1.400 . S
C363 C362 1.400 . S
C363 C364 1.398 . S
C363 C369 1.491 . S
C364 H355 0.950 . S
C364 C363 1.398 . S
C364 C365 1.391 1_565 S
C365 H353 0.950 . S
C365 C361 1.393 . S
C365 C364 1.391 1_545 S
C366 H356 0.950 . S
C366 C367 1.386 . S
C366 C368 1.391 . S
C367 C366 1.386 . S
C367 C371 1.393 . S
C368 H357 0.950 . S
C368 C366 1.391 . S
C368 C369 1.400 . S
C369 C363 1.491 . S
C369 C368 1.400 . S
C369 C370 1.398 . S
C370 H358 0.950 . S
C370 C369 1.398 . S
C370 C371 1.391 . S
C371 H359 0.950 . S
C371 C367 1.393 . S
C371 C370 1.391 . S
H372 C380 0.950 . S
H373 C385 0.950 . S
H374 C382 0.950 . S
H375 C384 0.950 . S
H376 C386 0.950 . S
H377 C388 0.950 . S
H378 C390 0.950 . S
H379 C391 0.950 . S
C380 H372 0.950 . S
C380 C381 1.386 . S
C380 C382 1.391 . S
C381 C380 1.386 . S
C381 C385 1.393 . S
C382 H374 0.950 . S
C382 C380 1.391 . S
C382 C383 1.400 . S
C383 C382 1.400 . S
C383 C384 1.398 . S
C383 C389 1.491 . S
C384 H375 0.950 . S
C384 C383 1.398 . S
C384 C385 1.391 . S
C385 H373 0.950 . S
C385 C381 1.393 . S
C385 C384 1.391 . S
C386 H376 0.950 . S
C386 C387 1.386 . S
C386 C388 1.391 1_455 S
C387 C386 1.386 . S
C387 C391 1.393 . S
C388 H377 0.950 . S
C388 C386 1.391 1_655 S
C388 C389 1.400 . S
C389 C383 1.491 . S
C389 C388 1.400 . S
C389 C390 1.398 . S
C390 H378 0.950 . S
C390 C389 1.398 . S
C390 C391 1.391 1_655 S
C391 H379 0.950 . S
C391 C387 1.393 . S
C391 C390 1.391 1_455 S
H392 C400 0.950 . S
H393 C405 0.950 . S
H394 C402 0.950 . S
H395 C404 0.950 . S
H396 C406 0.950 . S
H397 C408 0.950 . S
H398 C410 0.950 . S
H399 C411 0.950 . S
C400 H392 0.950 . S
C400 C401 1.386 . S
C400 C402 1.391 . S
C401 C400 1.386 . S
C401 C405 1.393 . S
C402 H394 0.950 . S
C402 C400 1.391 . S
C402 C403 1.400 . S
C403 C402 1.400 . S
C403 C404 1.398 . S
C403 C409 1.491 . S
C404 H395 0.950 . S
C404 C403 1.398 . S
C404 C405 1.391 . S
C405 H393 0.950 . S
C405 C401 1.393 . S
C405 C404 1.391 . S
C406 H396 0.950 . S
C406 C407 1.386 . S
C406 C408 1.391 . S
C407 C406 1.386 . S
C407 C411 1.393 . S
C408 H397 0.950 . S
C408 C406 1.391 . S
C408 C409 1.400 . S
C409 C403 1.491 . S
C409 C408 1.400 . S
C409 C410 1.398 . S
C410 H398 0.950 . S
C410 C409 1.398 . S
C410 C411 1.391 . S
C411 H399 0.950 . S
C411 C407 1.393 . S
C411 C410 1.391 . S
H412 C420 0.950 . S
H413 C425 0.950 . S
H414 C422 0.950 . S
H415 C424 0.950 . S
H416 C426 0.950 . S
H417 C428 0.950 . S
H418 C430 0.950 . S
H419 C431 0.950 . S
C420 H412 0.950 . S
C420 C421 1.386 . S
C420 C422 1.391 . S
C421 C420 1.386 . S
C421 C425 1.393 . S
C422 H414 0.950 . S
C422 C420 1.391 . S
C422 C423 1.400 . S
C423 C422 1.400 . S
C423 C424 1.398 . S
C423 C429 1.491 . S
C424 H415 0.950 . S
C424 C423 1.398 . S
C424 C425 1.391 . S
C425 H413 0.950 . S
C425 C421 1.393 . S
C425 C424 1.391 . S
C426 H416 0.950 . S
C426 C427 1.386 . S
C426 C428 1.391 . S
C427 C426 1.386 . S
C427 C431 1.393 . S
C428 H417 0.950 . S
C428 C426 1.391 . S
C428 C429 1.400 . S
C429 C423 1.491 . S
C429 C428 1.400 . S
C429 C430 1.398 . S
C430 H418 0.950 . S
C430 C429 1.398 . S
C430 C431 1.391 . S
C431 H419 0.950 . S
C431 C427 1.393 . S
C431 C430 1.391 . S
H432 C440 0.950 . S
H433 C445 0.950 . S
H434 C442 0.950 . S
H435 C444 0.950 . S
H436 C446 0.950 . S
H437 C448 0.950 . S
H438 C450 0.950 . S
H439 C451 0.950 . S
C440 H432 0.950 . S
C440 C441 1.386 . S
C440 C442 1.391 . S
C441 C440 1.386 . S
C441 C445 1.393 . S
C442 H434 0.950 . S
C442 C440 1.391 . S
C442 C443 1.400 . S
C443 C442 1.400 . S
C443 C444 1.398 . S
C443 C449 1.491 . S
C444 H435 0.950 . S
C444 C443 1.398 . S
C444 C445 1.391 . S
C445 H433 0.950 . S
C445 C441 1.393 . S
C445 C444 1.391 . S
C446 H436 0.950 . S
C446 C447 1.386 . S
C446 C448 1.391 . S
C447 C446 1.386 . S
C447 C451 1.393 . S
C448 H437 0.950 . S
C448 C446 1.391 . S
C448 C449 1.400 . S
C449 C443 1.491 . S
C449 C448 1.400 . S
C449 C450 1.398 . S
C450 H438 0.950 . S
C450 C449 1.398 . S
C450 C451 1.391 . S
C451 H439 0.950 . S
C451 C447 1.393 . S
C451 C450 1.391 . S
H452 C460 0.950 . S
H453 C465 0.950 . S
H454 C462 0.950 . S
H455 C464 0.950 . S
H456 C466 0.950 . S
H457 C468 0.950 . S
H458 C470 0.950 . S
H459 C471 0.950 . S
C460 H452 0.950 . S
C460 C461 1.386 . S
C460 C462 1.391 . S
C461 C460 1.386 . S
C461 C465 1.393 . S
C462 H454 0.950 . S
C462 C460 1.391 . S
C462 C463 1.400 . S
C463 C462 1.400 . S
C463 C464 1.398 . S
C463 C469 1.491 . S
C464 H455 0.950 . S
C464 C463 1.398 . S
C464 C465 1.391 . S
C465 H453 0.950 . S
C465 C461 1.393 . S
C465 C464 1.391 . S
C466 H456 0.950 . S
C466 C467 1.386 . S
C466 C468 1.391 . S
C467 C466 1.386 . S
C467 C471 1.393 . S
C468 H457 0.950 . S
C468 C466 1.391 . S
C468 C469 1.400 . S
C469 C463 1.491 . S
C469 C468 1.400 . S
C469 C470 1.398 . S
C470 H458 0.950 . S
C470 C469 1.398 . S
C470 C471 1.391 . S
C471 H459 0.950 . S
C471 C467 1.393 . S
C471 C470 1.391 . S
H472 C480 0.950 . S
H473 C485 0.950 . S
H474 C482 0.950 . S
H475 C484 0.950 . S
H476 C486 0.950 . S
H477 C488 0.950 . S
H478 C490 0.950 . S
H479 C491 0.950 . S
C480 H472 0.950 . S
C480 C481 1.386 . S
C480 C482 1.391 . S
C481 C480 1.386 . S
C481 C485 1.393 . S
C482 H474 0.950 . S
C482 C480 1.391 . S
C482 C483 1.400 . S
C483 C482 1.400 . S
C483 C484 1.398 . S
C483 C489 1.491 . S
C484 H475 0.950 . S
C484 C483 1.398 . S
C484 C485 1.391 . S
C485 H473 0.950 . S
C485 C481 1.393 . S
C485 C484 1.391 . S
C486 H476 0.950 . S
C486 C487 1.386 . S
C486 C488 1.391 . S
C487 C486 1.386 . S
C487 C491 1.393 . S
C488 H477 0.950 . S
C488 C486 1.391 . S
C488 C489 1.400 . S
C489 C483 1.491 . S
C489 C488 1.400 . S
C489 C490 1.398 . S
C490 H478 0.950 . S
C490 C489 1.398 . S
C490 C491 1.391 . S
C491 H479 0.950 . S
C491 C487 1.393 . S
C491 C490 1.391 . S
H492 C500 0.950 . S
H493 C505 0.950 . S
H494 C502 0.950 . S
H495 C504 0.950 . S
H496 C506 0.950 . S
H497 C508 0.950 . S
H498 C510 0.950 . S
H499 C511 0.950 . S
C500 H492 0.950 . S
C500 C501 1.386 . S
C500 C502 1.391 . S
C501 C500 1.386 . S
C501 C505 1.393 . S
C502 H494 0.950 . S
C502 C500 1.391 . S
C502 C503 1.400 . S
C503 C502 1.400 . S
C503 C504 1.398 . S
C503 C509 1.491 . S
C504 H495 0.950 . S
C504 C503 1.398 . S
C504 C505 1.391 . S
C505 H493 0.950 . S
C505 C501 1.393 . S
C505 C504 1.391 . S
C506 H496 0.950 . S
C506 C507 1.386 . S
C506 C508 1.391 . S
C507 C506 1.386 . S
C507 C511 1.393 . S
C508 H497 0.950 . S
C508 C506 1.391 . S
C508 C509 1.400 . S
C509 C503 1.491 . S
C509 C508 1.400 . S
C509 C510 1.398 . S
C510 H498 0.950 . S
C510 C509 1.398 . S
C510 C511 1.391 . S
C511 H499 0.950 . S
C511 C507 1.393 . S
C511 C510 1.391 . S
H512 C520 0.950 . S
H513 C525 0.950 . S
H514 C522 0.950 . S
H515 C524 0.950 . S
H516 C526 0.950 . S
H517 C528 0.950 . S
H518 C530 0.950 . S
H519 C531 0.950 . S
C520 H512 0.950 . S
C520 C521 1.386 . S
C520 C522 1.391 . S
C521 C520 1.386 . S
C521 C525 1.393 . S
C522 H514 0.950 . S
C522 C520 1.391 . S
C522 C523 1.400 . S
C523 C522 1.400 . S
C523 C524 1.398 . S
C523 C529 1.491 . S
C524 H515 0.950 . S
C524 C523 1.398 . S
C524 C525 1.391 . S
C525 H513 0.950 . S
C525 C521 1.393 . S
C525 C524 1.391 . S
C526 H516 0.950 . S
C526 C527 1.386 . S
C526 C528 1.391 . S
C527 C526 1.386 . S
C527 C531 1.393 . S
C528 H517 0.950 . S
C528 C526 1.391 . S
C528 C529 1.400 . S
C529 C523 1.491 . S
C529 C528 1.400 . S
C529 C530 1.398 . S
C530 H518 0.950 . S
C530 C529 1.398 . S
C530 C531 1.391 . S
C531 H519 0.950 . S
C531 C527 1.393 . S
C531 C530 1.391 . S
H532 C540 0.950 . S
H533 C545 0.950 . S
H534 C542 0.950 . S
H535 C544 0.950 . S
H536 C546 0.950 . S
H537 C548 0.950 . S
H538 C550 0.950 . S
H539 C551 0.950 . S
C540 H532 0.950 . S
C540 C541 1.386 . S
C540 C542 1.391 . S
C541 C540 1.386 . S
C541 C545 1.393 . S
C542 H534 0.950 . S
C542 C540 1.391 . S
C542 C543 1.400 . S
C543 C542 1.400 . S
C543 C544 1.398 . S
C543 C549 1.491 . S
C544 H535 0.950 . S
C544 C543 1.398 . S
C544 C545 1.391 . S
C545 H533 0.950 . S
C545 C541 1.393 . S
C545 C544 1.391 . S
C546 H536 0.950 . S
C546 C547 1.386 . S
C546 C548 1.391 . S
C547 C546 1.386 . S
C547 C551 1.393 . S
C548 H537 0.950 . S
C548 C546 1.391 . S
C548 C549 1.400 . S
C549 C543 1.491 . S
C549 C548 1.400 . S
C549 C550 1.398 . S
C550 H538 0.950 . S
C550 C549 1.398 . S
C550 C551 1.391 . S
C551 H539 0.950 . S
C551 C547 1.393 . S
C551 C550 1.391 . S
H552 C560 0.950 . S
H553 C565 0.950 . S
H554 C562 0.950 1_565 S
H555 C564 0.950 1_655 S
H556 C566 0.950 . S
H557 C568 0.950 1_545 S
H558 C570 0.950 1_455 S
H559 C571 0.950 . S
C560 H552 0.950 . S
C560 C561 1.386 . S
C560 C562 1.391 . S
C561 C560 1.386 . S
C561 C565 1.393 . S
C562 H554 0.950 1_545 S
C562 C560 1.391 . S
C562 C563 1.400 . S
C563 C562 1.400 . S
C563 C564 1.398 . S
C563 C569 1.491 1_445 S
C564 H555 0.950 1_455 S
C564 C563 1.398 . S
C564 C565 1.391 . S
C565 H553 0.950 . S
C565 C561 1.393 . S
C565 C564 1.391 . S
C566 H556 0.950 . S
C566 C567 1.386 . S
C566 C568 1.391 . S
C567 C566 1.386 . S
C567 C571 1.393 . S
C568 H557 0.950 1_565 S
C568 C566 1.391 . S
C568 C569 1.400 . S
C569 C563 1.491 1_665 S
C569 C568 1.400 . S
C569 C570 1.398 . S
C570 H558 0.950 1_655 S
C570 C569 1.398 . S
C570 C571 1.391 . S
C571 H559 0.950 . S
C571 C567 1.393 . S
C571 C570 1.391 . S
H572 C580 0.950 . S
H573 C585 0.950 . S
H574 C582 0.950 1_565 S
H575 C584 0.950 1_455 S
H576 C586 0.950 . S
H577 C588 0.950 1_545 S
H578 C590 0.950 1_655 S
H579 C591 0.950 . S
C580 H572 0.950 . S
C580 C581 1.386 . S
C580 C582 1.391 . S
C581 C580 1.386 . S
C581 C585 1.393 . S
C582 H574 0.950 1_545 S
C582 C580 1.391 . S
C582 C583 1.400 . S
C583 C582 1.400 . S
C583 C584 1.398 . S
C583 C589 1.491 1_645 S
C584 H575 0.950 1_655 S
C584 C583 1.398 . S
C584 C585 1.391 . S
C585 H573 0.950 . S
C585 C581 1.393 . S
C585 C584 1.391 . S
C586 H576 0.950 . S
C586 C587 1.386 . S
C586 C588 1.391 . S
C587 C586 1.386 . S
C587 C591 1.393 . S
C588 H577 0.950 1_565 S
C588 C586 1.391 . S
C588 C589 1.400 . S
C589 C583 1.491 1_465 S
C589 C588 1.400 . S
C589 C590 1.398 . S
C590 H578 0.950 1_455 S
C590 C589 1.398 . S
C590 C591 1.391 . S
C591 H579 0.950 . S
C591 C587 1.393 . S
C591 C590 1.391 . S
H592 C600 0.950 . S
H593 C605 0.950 . S
H594 C602 0.950 . S
H595 C604 0.950 . S
H596 C606 0.950 . S
H597 C608 0.950 . S
H598 C610 0.950 . S
H599 C611 0.950 . S
C600 H592 0.950 . S
C600 C601 1.386 . S
C600 C602 1.391 . S
C601 C600 1.386 . S
C601 C605 1.393 . S
C602 H594 0.950 . S
C602 C600 1.391 . S
C602 C603 1.400 . S
C603 C602 1.400 . S
C603 C604 1.398 . S
C603 C609 1.491 . S
C604 H595 0.950 . S
C604 C603 1.398 . S
C604 C605 1.391 . S
C605 H593 0.950 . S
C605 C601 1.393 . S
C605 C604 1.391 . S
C606 H596 0.950 . S
C606 C607 1.386 . S
C606 C608 1.391 . S
C607 C606 1.386 . S
C607 C611 1.393 . S
C608 H597 0.950 . S
C608 C606 1.391 . S
C608 C609 1.400 . S
C609 C603 1.491 . S
C609 C608 1.400 . S
C609 C610 1.398 . S
C610 H598 0.950 . S
C610 C609 1.398 . S
C610 C611 1.391 . S
C611 H599 0.950 . S
C611 C607 1.393 . S
C611 C610 1.391 . S
H612 C620 0.950 . S
H613 C625 0.950 . S
H614 C622 0.950 . S
H615 C624 0.950 . S
H616 C626 0.950 . S
H617 C628 0.950 . S
H618 C630 0.950 . S
H619 C631 0.950 . S
C620 H612 0.950 . S
C620 C621 1.386 . S
C620 C622 1.391 . S
C621 C620 1.386 . S
C621 C625 1.393 . S
C622 H614 0.950 . S
C622 C620 1.391 . S
C622 C623 1.400 . S
C623 C622 1.400 . S
C623 C624 1.398 . S
C623 C629 1.491 . S
C624 H615 0.950 . S
C624 C623 1.398 . S
C624 C625 1.391 . S
C625 H613 0.950 . S
C625 C621 1.393 . S
C625 C624 1.391 . S
C626 H616 0.950 . S
C626 C627 1.386 . S
C626 C628 1.391 . S
C627 C626 1.386 . S
C627 C631 1.393 . S
C628 H617 0.950 . S
C628 C626 1.391 . S
C628 C629 1.400 . S
C629 C623 1.491 . S
C629 C628 1.400 . S
C629 C630 1.398 . S
C630 H618 0.950 . S
C630 C629 1.398 . S
C630 C631 1.391 . S
C631 H619 0.950 . S
C631 C627 1.393 . S
C631 C630 1.391 . S
H632 C640 0.950 . S
H633 C645 0.950 . S
H634 C642 0.950 1_565 S
H635 C644 0.950 . S
H636 C646 0.950 . S
H637 C648 0.950 1_545 S
H638 C650 0.950 . S
H639 C651 0.950 . S
C640 H632 0.950 . S
C640 C641 1.386 . S
C640 C642 1.391 . S
C641 C640 1.386 . S
C641 C645 1.393 . S
C642 H634 0.950 1_545 S
C642 C640 1.391 . S
C642 C643 1.400 . S
C643 C642 1.400 . S
C643 C644 1.398 1_554 S
C643 C649 1.491 1_544 S
C644 H635 0.950 . S
C644 C643 1.398 1_556 S
C644 C645 1.391 1_556 S
C645 H633 0.950 . S
C645 C641 1.393 . S
C645 C644 1.391 1_554 S
C646 H636 0.950 . S
C646 C647 1.386 . S
C646 C648 1.391 . S
C647 C646 1.386 . S
C647 C651 1.393 . S
C648 H637 0.950 1_565 S
C648 C646 1.391 . S
C648 C649 1.400 . S
C649 C643 1.491 1_566 S
C649 C648 1.400 . S
C649 C650 1.398 1_556 S
C650 H638 0.950 . S
C650 C649 1.398 1_554 S
C650 C651 1.391 1_554 S
C651 H639 0.950 . S
C651 C647 1.393 . S
C651 C650 1.391 1_556 S
H652 C660 0.950 . S
H653 C665 0.950 . S
H654 C662 0.950 1_554 S
H655 C664 0.950 1_655 S
H656 C666 0.950 . S
H657 C668 0.950 1_556 S
H658 C670 0.950 1_455 S
H659 C671 0.950 . S
C660 H652 0.950 . S
C660 C661 1.386 . S
C660 C662 1.391 . S
C661 C660 1.386 . S
C661 C665 1.393 . S
C662 H654 0.950 1_556 S
C662 C660 1.391 . S
C662 C663 1.400 . S
C663 C662 1.400 . S
C663 C664 1.398 . S
C663 C669 1.491 1_456 S
C664 H655 0.950 1_455 S
C664 C663 1.398 . S
C664 C665 1.391 . S
C665 H653 0.950 . S
C665 C661 1.393 . S
C665 C664 1.391 . S
C666 H656 0.950 . S
C666 C667 1.386 . S
C666 C668 1.391 . S
C667 C666 1.386 . S
C667 C671 1.393 . S
C668 H657 0.950 1_554 S
C668 C666 1.391 . S
C668 C669 1.400 . S
C669 C663 1.491 1_654 S
C669 C668 1.400 . S
C669 C670 1.398 . S
C670 H658 0.950 1_655 S
C670 C669 1.398 . S
C670 C671 1.391 . S
C671 H659 0.950 . S
C671 C667 1.393 . S
C671 C670 1.391 . S
H672 C680 0.950 . S
H673 C685 0.950 . S
H674 C682 0.950 . S
H675 C684 0.950 . S
H676 C686 0.950 . S
H677 C688 0.950 . S
H678 C690 0.950 . S
H679 C691 0.950 . S
C680 H672 0.950 . S
C680 C681 1.386 . S
C680 C682 1.391 . S
C681 C680 1.386 . S
C681 C685 1.393 . S
C682 H674 0.950 . S
C682 C680 1.391 . S
C682 C683 1.400 . S
C683 C682 1.400 . S
C683 C684 1.398 . S
C683 C689 1.491 1_546 S
C684 H675 0.950 . S
C684 C683 1.398 . S
C684 C685 1.391 . S
C685 H673 0.950 . S
C685 C681 1.393 . S
C685 C684 1.391 . S
C686 H676 0.950 . S
C686 C687 1.386 . S
C686 C688 1.391 . S
C687 C686 1.386 . S
C687 C691 1.393 . S
C688 H677 0.950 . S
C688 C686 1.391 . S
C688 C689 1.400 . S
C689 C683 1.491 1_564 S
C689 C688 1.400 . S
C689 C690 1.398 . S
C690 H678 0.950 . S
C690 C689 1.398 . S
C690 C691 1.391 . S
C691 H679 0.950 . S
C691 C687 1.393 . S
C691 C690 1.391 . S
H692 C700 0.950 . S
H693 C705 0.950 . S
H694 C702 0.950 1_556 S
H695 C704 0.950 1_655 S
H696 C706 0.950 . S
H697 C708 0.950 1_554 S
H698 C710 0.950 1_455 S
H699 C711 0.950 . S
C700 H692 0.950 . S
C700 C701 1.386 . S
C700 C702 1.391 . S
C701 C700 1.386 . S
C701 C705 1.393 . S
C702 H694 0.950 1_554 S
C702 C700 1.391 . S
C702 C703 1.400 . S
C703 C702 1.400 . S
C703 C704 1.398 . S
C703 C709 1.491 1_454 S
C704 H695 0.950 1_455 S
C704 C703 1.398 . S
C704 C705 1.391 . S
C705 H693 0.950 . S
C705 C701 1.393 . S
C705 C704 1.391 . S
C706 H696 0.950 . S
C706 C707 1.386 . S
C706 C708 1.391 . S
C707 C706 1.386 . S
C707 C711 1.393 . S
C708 H697 0.950 1_556 S
C708 C706 1.391 . S
C708 C709 1.400 . S
C709 C703 1.491 1_656 S
C709 C708 1.400 . S
C709 C710 1.398 . S
C710 H698 0.950 1_655 S
C710 C709 1.398 . S
C710 C711 1.391 . S
C711 H699 0.950 . S
C711 C707 1.393 . S
C711 C710 1.391 . S
H712 C720 0.950 . S
H713 C725 0.950 . S
H714 C722 0.950 . S
H715 C724 0.950 . S
H716 C726 0.950 . S
H717 C728 0.950 . S
H718 C730 0.950 . S
H719 C731 0.950 . S
C720 H712 0.950 . S
C720 C721 1.386 . S
C720 C722 1.391 . S
C721 C720 1.386 . S
C721 C725 1.393 . S
C722 H714 0.950 . S
C722 C720 1.391 . S
C722 C723 1.400 . S
C723 C722 1.400 . S
C723 C724 1.398 . S
C723 C729 1.491 . S
C724 H715 0.950 . S
C724 C723 1.398 . S
C724 C725 1.391 . S
C725 H713 0.950 . S
C725 C721 1.393 . S
C725 C724 1.391 . S
C726 H716 0.950 . S
C726 C727 1.386 . S
C726 C728 1.391 . S
C727 C726 1.386 . S
C727 C731 1.393 . S
C728 H717 0.950 . S
C728 C726 1.391 . S
C728 C729 1.400 . S
C729 C723 1.491 . S
C729 C728 1.400 . S
C729 C730 1.398 . S
C730 H718 0.950 . S
C730 C729 1.398 . S
C730 C731 1.391 . S
C731 H719 0.950 . S
C731 C727 1.393 . S
C731 C730 1.391 . S
H732 C740 0.950 . S
H733 C745 0.950 . S
H734 C742 0.950 . S
H735 C744 0.950 . S
H736 C746 0.950 . S
H737 C748 0.950 . S
H738 C750 0.950 . S
H739 C751 0.950 . S
C740 H732 0.950 . S
C740 C741 1.386 . S
C740 C742 1.391 . S
C741 C740 1.386 . S
C741 C745 1.393 . S
C742 H734 0.950 . S
C742 C740 1.391 . S
C742 C743 1.400 . S
C743 C742 1.400 . S
C743 C744 1.398 . S
C743 C749 1.491 . S
C744 H735 0.950 . S
C744 C743 1.398 . S
C744 C745 1.391 . S
C745 H733 0.950 . S
C745 C741 1.393 . S
C745 C744 1.391 . S
C746 H736 0.950 . S
C746 C747 1.386 . S
C746 C748 1.391 . S
C747 C746 1.386 . S
C747 C751 1.393 . S
C748 H737 0.950 . S
C748 C746 1.391 . S
C748 C749 1.400 . S
C749 C743 1.491 . S
C749 C748 1.400 . S
C749 C750 1.398 . S
C750 H738 0.950 . S
C750 C749 1.398 . S
C750 C751 1.391 . S
C751 H739 0.950 . S
C751 C747 1.393 . S
C751 C750 1.391 . S
H752 C760 0.950 . S
H753 C765 0.950 . S
H754 C762 0.950 . S
H755 C764 0.950 . S
H756 C766 0.950 . S
H757 C768 0.950 . S
H758 C770 0.950 . S
H759 C771 0.950 . S
C760 H752 0.950 . S
C760 C761 1.386 . S
C760 C762 1.391 . S
C761 C760 1.386 . S
C761 C765 1.393 . S
C762 H754 0.950 . S
C762 C760 1.391 . S
C762 C763 1.400 . S
C763 C762 1.400 . S
C763 C764 1.398 . S
C763 C769 1.491 . S
C764 H755 0.950 . S
C764 C763 1.398 . S
C764 C765 1.391 . S
C765 H753 0.950 . S
C765 C761 1.393 . S
C765 C764 1.391 . S
C766 H756 0.950 . S
C766 C767 1.386 . S
C766 C768 1.391 . S
C767 C766 1.386 . S
C767 C771 1.393 . S
C768 H757 0.950 . S
C768 C766 1.391 . S
C768 C769 1.400 . S
C769 C763 1.491 . S
C769 C768 1.400 . S
C769 C770 1.398 . S
C770 H758 0.950 . S
C770 C769 1.398 . S
C770 C771 1.391 . S
C771 H759 0.950 . S
C771 C767 1.393 . S
C771 C770 1.391 . S
H772 C780 0.950 . S
H773 C785 0.950 . S
H774 C782 0.950 . S
H775 C784 0.950 . S
H776 C786 0.950 . S
H777 C788 0.950 . S
H778 C790 0.950 . S
H779 C791 0.950 . S
C780 H772 0.950 . S
C780 C781 1.386 . S
C780 C782 1.391 . S
C781 C780 1.386 . S
C781 C785 1.393 . S
C782 H774 0.950 . S
C782 C780 1.391 . S
C782 C783 1.400 . S
C783 C782 1.400 . S
C783 C784 1.398 . S
C783 C789 1.491 . S
C784 H775 0.950 . S
C784 C783 1.398 . S
C784 C785 1.391 . S
C785 H773 0.950 . S
C785 C781 1.393 . S
C785 C784 1.391 . S
C786 H776 0.950 . S
C786 C787 1.386 . S
C786 C788 1.391 . S
C787 C786 1.386 . S
C787 C791 1.393 . S
C788 H777 0.950 . S
C788 C786 1.391 . S
C788 C789 1.400 . S
C789 C783 1.491 . S
C789 C788 1.400 . S
C789 C790 1.398 . S
C790 H778 0.950 . S
C790 C789 1.398 . S
C790 C791 1.391 . S
C791 H779 0.950 . S
C791 C787 1.393 . S
C791 C790 1.391 . S
C241 C3 1.772 . S
C247 C218 1.790 . S
C261 C39 2.093 . S
C267 C129 2.094 . S
C281 C160 1.788 . S
C287 C61 1.787 . S
C301 C97 2.108 . S
C307 C187 2.080 . S
C321 C32 1.786 . S
C327 C189 1.791 . S
C341 C216 2.082 . S
C347 C68 2.088 . S
C361 C90 1.784 . S
C367 C131 1.781 . S
C381 C158 2.082 . S
C387 C10 2.107 . S
C401 C119 1.787 . S
C407 C102 1.788 . S
C421 C13 2.095 . S
C427 C155 2.093 . S
C441 C44 1.794 . S
C447 C177 1.778 . S
C461 C213 2.085 . S
C467 C71 2.091 . S
C481 C148 1.786 . S
C487 C73 1.791 . S
C501 C184 2.104 . S
C507 C100 2.070 . S
C521 C206 1.784 . S
C527 C15 1.792 . S
C541 C42 2.072 . S
C547 C126 2.100 . S
C561 C21 0.440 . S
C567 C79 0.515 . S
C581 C108 0.448 . S
C587 C50 0.510 . S
C601 C137 0.512 . S
C607 C195 0.436 . S
C621 C166 0.440 . S
C627 C224 0.515 . S
C641 C5 1.557 . S
C647 C34 1.581 . S
C661 C37 1.089 . S
C667 C66 1.137 . S
C681 C92 1.569 . S
C687 C63 1.579 . S
C701 C8 1.082 . S
C707 C95 1.141 . S
C721 C150 1.576 . S
C727 C121 1.573 . S
C741 C182 1.082 . S
C747 C153 1.141 . S
C761 C179 1.555 . S
C767 C208 1.578 . S
C781 C124 1.089 . S
C787 C211 1.137 . S
