# Generated by pormake.
# Topology wmi, (6)-cn, num edge types: 1
# Building blocks:
#     Node 0, Type 0, BuildingBlock: HISSIN_clean_sbu_0, # of connection points: 6
#     Node 1, Type 0, BuildingBlock: HISSIN_clean_sbu_0, # of connection points: 6
#     Node 2, Type 0, BuildingBlock: HISSIN_clean_sbu_0, # of connection points: 6
#     Node 3, Type 0, BuildingBlock: HISSIN_clean_sbu_0, # of connection points: 6
#     Node 4, Type 0, BuildingBlock: HISSIN_clean_sbu_0, # of connection points: 6
#     Node 5, Type 0, BuildingBlock: HISSIN_clean_sbu_0, # of connection points: 6
#     Node 6, Type 0, BuildingBlock: HISSIN_clean_sbu_0, # of connection points: 6
#     Node 7, Type 0, BuildingBlock: HISSIN_clean_sbu_0, # of connection points: 6
#     Node 8, Type 0, BuildingBlock: HISSIN_clean_sbu_0, # of connection points: 6
#     Node 9, Type 0, BuildingBlock: HISSIN_clean_sbu_0, # of connection points: 6
#     Node 10, Type 0, BuildingBlock: HISSIN_clean_sbu_0, # of connection points: 6
#     Node 11, Type 0, BuildingBlock: HISSIN_clean_sbu_0, # of connection points: 6
#     Node 12, Type 0, BuildingBlock: HISSIN_clean_sbu_0, # of connection points: 6
#     Node 13, Type 0, BuildingBlock: HISSIN_clean_sbu_0, # of connection points: 6
#     Node 14, Type 0, BuildingBlock: HISSIN_clean_sbu_0, # of connection points: 6
#     Node 15, Type 0, BuildingBlock: HISSIN_clean_sbu_0, # of connection points: 6
#     Node 16, Type 0, BuildingBlock: HISSIN_clean_sbu_0, # of connection points: 6
#     Node 17, Type 0, BuildingBlock: HISSIN_clean_sbu_0, # of connection points: 6
#     Edge 18, Type (0, 0), BuildingBlock: ZUJKAS_clean_linker_0, # of connection points: 2
#     Edge 19, Type (0, 0), BuildingBlock: ZUJKAS_clean_linker_0, # of connection points: 2
#     Edge 20, Type (0, 0), BuildingBlock: ZUJKAS_clean_linker_0, # of connection points: 2
#     Edge 21, Type (0, 0), BuildingBlock: ZUJKAS_clean_linker_0, # of connection points: 2
#     Edge 22, Type (0, 0), BuildingBlock: ZUJKAS_clean_linker_0, # of connection points: 2
#     Edge 23, Type (0, 0), BuildingBlock: ZUJKAS_clean_linker_0, # of connection points: 2
#     Edge 24, Type (0, 0), BuildingBlock: ZUJKAS_clean_linker_0, # of connection points: 2
#     Edge 25, Type (0, 0), BuildingBlock: ZUJKAS_clean_linker_0, # of connection points: 2
#     Edge 26, Type (0, 0), BuildingBlock: ZUJKAS_clean_linker_0, # of connection points: 2
#     Edge 27, Type (0, 0), BuildingBlock: ZUJKAS_clean_linker_0, # of connection points: 2
#     Edge 28, Type (0, 0), BuildingBlock: ZUJKAS_clean_linker_0, # of connection points: 2
#     Edge 29, Type (0, 0), BuildingBlock: ZUJKAS_clean_linker_0, # of connection points: 2
#     Edge 30, Type (0, 0), BuildingBlock: ZUJKAS_clean_linker_0, # of connection points: 2
#     Edge 31, Type (0, 0), BuildingBlock: ZUJKAS_clean_linker_0, # of connection points: 2
#     Edge 32, Type (0, 0), BuildingBlock: ZUJKAS_clean_linker_0, # of connection points: 2
#     Edge 33, Type (0, 0), BuildingBlock: ZUJKAS_clean_linker_0, # of connection points: 2
#     Edge 34, Type (0, 0), BuildingBlock: ZUJKAS_clean_linker_0, # of connection points: 2
#     Edge 35, Type (0, 0), BuildingBlock: ZUJKAS_clean_linker_0, # of connection points: 2
#     Edge 36, Type (0, 0), BuildingBlock: ZUJKAS_clean_linker_0, # of connection points: 2
#     Edge 37, Type (0, 0), BuildingBlock: ZUJKAS_clean_linker_0, # of connection points: 2
#     Edge 38, Type (0, 0), BuildingBlock: ZUJKAS_clean_linker_0, # of connection points: 2
#     Edge 39, Type (0, 0), BuildingBlock: ZUJKAS_clean_linker_0, # of connection points: 2
#     Edge 40, Type (0, 0), BuildingBlock: ZUJKAS_clean_linker_0, # of connection points: 2
#     Edge 41, Type (0, 0), BuildingBlock: ZUJKAS_clean_linker_0, # of connection points: 2
#     Edge 42, Type (0, 0), BuildingBlock: ZUJKAS_clean_linker_0, # of connection points: 2
#     Edge 43, Type (0, 0), BuildingBlock: ZUJKAS_clean_linker_0, # of connection points: 2
#     Edge 44, Type (0, 0), BuildingBlock: ZUJKAS_clean_linker_0, # of connection points: 2
#     Edge 45, Type (0, 0), BuildingBlock: ZUJKAS_clean_linker_0, # of connection points: 2
#     Edge 46, Type (0, 0), BuildingBlock: ZUJKAS_clean_linker_0, # of connection points: 2
#     Edge 47, Type (0, 0), BuildingBlock: ZUJKAS_clean_linker_0, # of connection points: 2
#     Edge 48, Type (0, 0), BuildingBlock: ZUJKAS_clean_linker_0, # of connection points: 2
#     Edge 49, Type (0, 0), BuildingBlock: ZUJKAS_clean_linker_0, # of connection points: 2
#     Edge 50, Type (0, 0), BuildingBlock: ZUJKAS_clean_linker_0, # of connection points: 2
#     Edge 51, Type (0, 0), BuildingBlock: ZUJKAS_clean_linker_0, # of connection points: 2
#     Edge 52, Type (0, 0), BuildingBlock: ZUJKAS_clean_linker_0, # of connection points: 2
#     Edge 53, Type (0, 0), BuildingBlock: ZUJKAS_clean_linker_0, # of connection points: 2
#     Edge 54, Type (0, 0), BuildingBlock: ZUJKAS_clean_linker_0, # of connection points: 2
#     Edge 55, Type (0, 0), BuildingBlock: ZUJKAS_clean_linker_0, # of connection points: 2
#     Edge 56, Type (0, 0), BuildingBlock: ZUJKAS_clean_linker_0, # of connection points: 2
#     Edge 57, Type (0, 0), BuildingBlock: ZUJKAS_clean_linker_0, # of connection points: 2
#     Edge 58, Type (0, 0), BuildingBlock: ZUJKAS_clean_linker_0, # of connection points: 2
#     Edge 59, Type (0, 0), BuildingBlock: ZUJKAS_clean_linker_0, # of connection points: 2
#     Edge 60, Type (0, 0), BuildingBlock: ZUJKAS_clean_linker_0, # of connection points: 2
#     Edge 61, Type (0, 0), BuildingBlock: ZUJKAS_clean_linker_0, # of connection points: 2
#     Edge 62, Type (0, 0), BuildingBlock: ZUJKAS_clean_linker_0, # of connection points: 2
#     Edge 63, Type (0, 0), BuildingBlock: ZUJKAS_clean_linker_0, # of connection points: 2
#     Edge 64, Type (0, 0), BuildingBlock: ZUJKAS_clean_linker_0, # of connection points: 2
#     Edge 65, Type (0, 0), BuildingBlock: ZUJKAS_clean_linker_0, # of connection points: 2
#     Edge 66, Type (0, 0), BuildingBlock: ZUJKAS_clean_linker_0, # of connection points: 2
#     Edge 67, Type (0, 0), BuildingBlock: ZUJKAS_clean_linker_0, # of connection points: 2
#     Edge 68, Type (0, 0), BuildingBlock: ZUJKAS_clean_linker_0, # of connection points: 2
#     Edge 69, Type (0, 0), BuildingBlock: ZUJKAS_clean_linker_0, # of connection points: 2
#     Edge 70, Type (0, 0), BuildingBlock: ZUJKAS_clean_linker_0, # of connection points: 2
#     Edge 71, Type (0, 0), BuildingBlock: ZUJKAS_clean_linker_0, # of connection points: 2
# Relax obj value: 0.085
# Max RMSD: 0.192
# Mean RMSD: 0.192
data_MOF--net-wmi--node1-HISSIN_clean_sbu_0--edge1-ZUJKAS_clean_linker_0
_symmetry_space_group_name_H-M    P1
_symmetry_Int_Tables_number       1
_symmetry_cell_setting            triclinic
loop_
_symmetry_equiv_pos_as_xyz
'x, y, z'
_cell_length_a     49.479232
_cell_length_b     49.516036
_cell_length_c     106.98084
_cell_angle_alpha  89.978761
_cell_angle_beta   89.934519
_cell_angle_gamma 120.003
loop_
_atom_site_label
_atom_site_type_symbol
_atom_site_fract_x
_atom_site_fract_y
_atom_site_fract_z
_atom_type_partial_charge
Eu0 Eu 0.52678 0.04162 0.10199 0.0
Eu1 Eu 0.4519 1.0027 0.09358 0.0
C2 C 0.50605 0.02424 0.07304 0.0
C3 C 0.61529 0.10159 0.10796 0.0
C4 C 0.62294 0.11944 0.09696 0.0
C5 C 0.66741 0.1368 0.11595 0.0
C6 C 0.65277 0.14571 0.09544 0.0
C7 C 0.63767 0.1107 0.11746 0.0
C8 C 0.67557 0.15452 0.10487 0.0
C9 C 0.58507 0.07243 0.10956 0.0
O10 O 0.46337 0.96567 0.09989 0.0
O11 O 0.517 0.99302 0.09866 0.0
C12 C 0.49051 0.9667 0.0996 0.0
O13 O 0.49561 0.01659 0.11887 0.0
O14 O 0.41237 0.98296 0.08061 0.0
O15 O 0.40431 0.97601 0.10055 0.0
O16 O 0.45831 0.02619 0.11203 0.0
C17 C 0.47067 0.01876 0.12118 0.0
O18 O 0.51264 0.07809 0.10003 0.0
O19 O 0.46677 0.05296 0.08874 0.0
O20 O 0.47872 1.00192 0.07688 0.0
O21 O 0.5624 0.07413 0.11506 0.0
O22 O 0.57522 0.0528 0.10026 0.0
O23 O 0.52627 0.04555 0.08077 0.0
C24 C 0.36924 0.93529 0.08765 0.0
C25 C 0.379 0.91311 0.08745 0.0
C26 C 0.31527 0.89335 0.08703 0.0
C27 C 0.35698 0.88118 0.08719 0.0
C28 C 0.33729 0.92521 0.08729 0.0
C29 C 0.32479 0.87088 0.08719 0.0
C30 C 0.39185 0.96865 0.08946 0.0
C31 C 0.49026 0.07851 0.09354 0.0
H32 H 0.60606 0.11278 0.08948 0.0
H33 H 0.68404 0.14312 0.12351 0.0
H34 H 0.65823 0.15864 0.08676 0.0
H35 H 0.63228 0.09728 0.12603 0.0
H36 H 0.40361 0.92049 0.08783 0.0
H37 H 0.29073 0.88631 0.08683 0.0
H38 H 0.36517 0.86459 0.08743 0.0
H39 H 0.32932 0.94199 0.0875 0.0
Eu40 Eu 1.01217 0.50254 0.10201 0.0
Eu41 Eu 0.05531 0.47348 0.09184 0.0
C42 C 0.02121 0.49454 0.07239 0.0
C43 C 0.9492 0.52746 0.10597 0.0
C44 C 0.95014 0.54489 0.09541 0.0
C45 C 0.89724 0.51886 0.11075 0.0
C46 C 0.925 0.54948 0.09264 0.0
C47 C 0.9224 0.5144 0.11355 0.0
C48 C 0.89828 0.53672 0.10032 0.0
C49 C 0.97651 0.52449 0.10977 0.0
O50 O 0.08396 0.5259 0.08928 0.0
O51 O 0.06193 0.54076 0.10469 0.0
C52 C 0.0847 0.54736 0.09675 0.0
O53 O 0.02337 0.48032 0.11858 0.0
O54 O 0.08614 0.47044 0.078 0.0
O55 O 0.07536 0.44359 0.09512 0.0
O56 O 0.07068 0.49058 0.11127 0.0
C57 C 0.05091 0.48294 0.1205 0.0
O58 O 0.97898 0.45611 0.09355 0.0
O59 O 1.00766 0.43225 0.09712 0.0
O60 O 0.02716 0.4723 0.0753 0.0
O61 O 0.97157 0.49673 0.11258 0.0
O62 O 1.00267 0.54093 0.10371 0.0
O63 O 0.01926 0.51242 0.08107 0.0
C64 C 0.12631 0.4645 0.08695 0.0
C65 C 0.14421 0.48972 0.09494 0.0
C66 C 0.1727 0.46156 0.08199 0.0
C67 C 0.17617 0.50077 0.09646 0.0
C68 C 0.14076 0.45052 0.08049 0.0
C69 C 0.19088 0.48683 0.09 0.0
C70 C 0.09281 0.45315 0.08511 0.0
C71 C 0.98058 0.43069 0.09513 0.0
H72 H 0.97043 0.55536 0.08937 0.0
H73 H 0.8773 0.509 0.11698 0.0
H74 H 0.9265 0.56302 0.08445 0.0
H75 H 0.92114 0.50118 0.12182 0.0
H76 H 0.13345 0.50088 0.09999 0.0
H77 H 0.18325 0.45056 0.07671 0.0
H78 H 0.18928 0.52001 0.10281 0.0
H79 H 0.12736 0.43119 0.07421 0.0
Eu80 Eu 0.55316 0.53102 0.10083 0.0
Eu81 Eu 0.58578 0.60578 0.09298 0.0
C82 C 0.55636 0.55224 0.07199 0.0
C83 C 0.52818 0.44318 0.10479 0.0
C84 C 0.5201 0.42956 0.09284 0.0
C85 C 0.53115 0.3981 0.11208 0.0
C86 C 0.51717 0.4003 0.09059 0.0
C87 C 0.53392 0.42724 0.11433 0.0
C88 C 0.52237 0.38403 0.10022 0.0
C89 C 0.52832 0.47253 0.10779 0.0
O90 O 0.53668 0.5912 0.09979 0.0
O91 O 0.51301 0.53836 0.09682 0.0
C92 C 0.51138 0.56368 0.09855 0.0
O93 O 0.55838 0.56075 0.11805 0.0
O94 O 0.60214 0.64558 0.08019 0.0
O95 O 0.60499 0.65291 0.1002 0.0
O96 O 0.6043 0.59997 0.11119 0.0
C97 C 0.58497 0.58627 0.1204 0.0
O98 O 0.60402 0.54689 0.09815 0.0
O99 O 0.62373 0.59437 0.08804 0.0
O100 O 0.56025 0.57907 0.07592 0.0
O101 O 0.55342 0.4952 0.11286 0.0
O102 O 0.5157 0.48265 0.09972 0.0
O103 O 0.55797 0.53219 0.07965 0.0
C104 C 0.59367 0.68552 0.0881 0.0
C105 C 0.56247 0.67428 0.09156 0.0
C106 C 0.5996 0.7367 0.08457 0.0
C107 C 0.55003 0.69419 0.09173 0.0
C108 C 0.61202 0.71674 0.08445 0.0
C109 C 0.56857 0.72583 0.08842 0.0
C110 C 0.60768 0.66543 0.08921 0.0
C111 C 0.62658 0.5707 0.09212 0.0
H112 H 0.51551 0.44122 0.08526 0.0
H113 H 0.53497 0.38615 0.11976 0.0
H114 H 0.51076 0.39039 0.08131 0.0
H115 H 0.53987 0.43704 0.12365 0.0
H116 H 0.54801 0.65029 0.09448 0.0
H117 H 0.61442 0.76074 0.08175 0.0
H118 H 0.52622 0.685 0.09489 0.0
H119 H 0.63617 0.72585 0.08175 0.0
Eu120 Eu 0.05081 0.52258 0.91097 0.0
Eu121 Eu 1.00714 0.45038 0.92126 0.0
C122 C 0.04203 0.50569 0.94062 0.0
C123 C 0.11409 0.61039 0.90688 0.0
C124 C 0.1139 0.62641 0.91772 0.0
C125 C 0.16542 0.65423 0.90168 0.0
C126 C 0.13908 0.65616 0.92042 0.0
C127 C 0.14022 0.62459 0.89895 0.0
C128 C 0.16511 0.67061 0.91239 0.0
C129 C 0.08664 0.58013 0.90317 0.0
O130 O 0.9792 0.47487 0.92379 0.0
O131 O 1.00107 0.51099 0.90811 0.0
C132 C 0.97839 0.49524 0.91613 0.0
O133 O 0.03977 0.48909 0.89447 0.0
O134 O 0.9757 0.41675 0.93504 0.0
O135 O 0.98657 0.40034 0.91806 0.0
O136 O 0.99232 0.45214 0.90172 0.0
C137 C 1.01227 0.46417 0.89254 0.0
O138 O 0.08376 0.50901 0.91943 0.0
O139 O 0.05471 0.45634 0.91615 0.0
O140 O 0.03545 0.47725 0.9378 0.0
O141 O 0.09143 0.55721 0.90035 0.0
O142 O 0.06059 0.57057 0.90929 0.0
O143 O 0.04402 0.52551 0.93192 0.0
C144 C 0.93534 0.3708 0.92604 0.0
C145 C 0.91727 0.3794 0.91875 0.0
C146 C 0.88914 0.32043 0.9299 0.0
C147 C 0.88532 0.35864 0.91705 0.0
C148 C 0.92107 0.34122 0.9316 0.0
C149 C 0.8708 0.32883 0.9226 0.0
C150 C 0.96889 0.39268 0.92799 0.0
C151 C 0.08189 0.48182 0.91801 0.0
H152 H 0.09414 0.61618 0.92404 0.0
H153 H 0.18479 0.66468 0.89518 0.0
H154 H 0.13816 0.66783 0.92884 0.0
H155 H 0.14088 0.61298 0.89047 0.0
H156 H 0.9279 0.40219 0.91437 0.0
H157 H 0.87874 0.29791 0.93447 0.0
H158 H 0.87211 0.36582 0.91124 0.0
H159 H 0.93459 0.33422 0.93731 0.0
Eu160 Eu 0.53567 0.54769 0.91012 0.0
Eu161 Eu 0.61053 0.58345 0.91853 0.0
C162 C 0.5562 0.55132 0.93911 0.0
C163 C 0.4472 0.51883 0.90412 0.0
C164 C 0.43983 0.52927 0.91512 0.0
C165 C 0.39469 0.50119 0.89642 0.0
C166 C 0.40993 0.52546 0.91678 0.0
C167 C 0.42449 0.50507 0.89477 0.0
C168 C 0.38681 0.511 0.9075 0.0
C169 C 0.47755 0.52027 0.90237 0.0
O170 O 0.5987 0.53496 0.91204 0.0
O171 O 0.54523 0.50882 0.91378 0.0
C172 C 0.57162 0.50887 0.91264 0.0
O173 O 0.56704 0.55443 0.89323 0.0
O174 O 0.64991 0.6022 0.9316 0.0
O175 O 0.65819 0.60456 0.91165 0.0
O176 O 0.60437 0.60115 0.90018 0.0
C177 C 0.59194 0.58161 0.89097 0.0
O178 O 0.54914 0.59795 0.91275 0.0
O179 O 0.59622 0.61928 0.92328 0.0
O180 O 0.58363 0.55649 0.93533 0.0
O181 O 0.50016 0.54519 0.89714 0.0
O182 O 0.48739 0.50993 0.91148 0.0
O183 O 0.53581 0.55192 0.93133 0.0
C184 C 0.69223 0.59662 0.92435 0.0
C185 C 0.6837 0.56621 0.92062 0.0
C186 C 0.74428 0.60613 0.92919 0.0
C187 C 0.70542 0.55599 0.92096 0.0
C188 C 0.72252 0.61636 0.92879 0.0
C189 C 0.73614 0.57598 0.92508 0.0
C190 C 0.67044 0.6085 0.92275 0.0
C191 C 0.57205 0.62091 0.91897 0.0
H192 H 0.45698 0.53988 0.92249 0.0
H193 H 0.3778 0.49051 0.88897 0.0
H194 H 0.40469 0.53314 0.92546 0.0
H195 H 0.42968 0.49686 0.8862 0.0
H196 H 0.66044 0.55064 0.91714 0.0
H197 H 0.76779 0.62221 0.9323 0.0
H198 H 0.69823 0.5325 0.9179 0.0
H199 H 0.72959 0.63997 0.93164 0.0
Eu200 Eu 0.51022 1.01021 0.91117 0.0
Eu201 Eu 0.4775 0.05193 0.9194 0.0
C202 C 0.50671 0.02663 0.94019 0.0
C203 C 0.53835 0.94993 0.90658 0.0
C204 C 0.51525 0.9248 0.91347 0.0
C205 C 0.5676 0.92256 0.90495 0.0
C206 C 0.51829 0.89861 0.91603 0.0
C207 C 0.56449 0.94857 0.90239 0.0
C208 C 0.54457 0.89718 0.91181 0.0
C209 C 0.53616 0.97792 0.90366 0.0
O210 O 0.52566 0.08625 0.91176 0.0
O211 O 0.54996 0.05796 0.91526 0.0
C212 C 0.55123 0.08459 0.91313 0.0
O213 O 0.50324 0.03352 0.89393 0.0
O214 O 0.46597 0.07891 0.93247 0.0
O215 O 0.45415 0.07667 0.9129 0.0
O216 O 0.45796 0.02791 0.90123 0.0
C217 C 0.47654 0.03249 0.89183 0.0
O218 O 0.4596 0.97492 0.9143 0.0
O219 O 0.43986 1.00257 0.92453 0.0
O220 O 0.50228 0.04941 0.93648 0.0
O221 O 0.50968 0.97384 0.89937 0.0
O222 O 0.54901 1.00093 0.91157 0.0
O223 O 0.50592 1.00571 0.93234 0.0
C224 C 0.47125 0.12507 0.92315 0.0
C225 C 0.48449 0.14183 0.91205 0.0
C226 C 0.48486 0.17406 0.93354 0.0
C227 C 0.4975 0.17421 0.91168 0.0
C228 C 0.47163 0.14155 0.93389 0.0
C229 C 0.49788 0.19085 0.9224 0.0
C230 C 0.45694 0.09061 0.92355 0.0
C231 C 0.43713 0.97608 0.92045 0.0
H232 H 0.49494 0.92544 0.91686 0.0
H233 H 0.58786 0.92215 0.90137 0.0
H234 H 0.50024 0.87964 0.92142 0.0
H235 H 0.58256 0.96769 0.89704 0.0
H236 H 0.48466 0.12996 0.90357 0.0
H237 H 0.48507 0.18603 0.94203 0.0
H238 H 0.50673 0.1861 0.90287 0.0
H239 H 0.46169 0.12927 0.94257 0.0
Eu240 Eu 0.19214 0.37702 0.43388 0.0
Eu241 Eu 0.11707 0.33508 0.42655 0.0
C242 C 0.16999 0.35897 0.40514 0.0
C243 C 0.28032 0.43921 0.43722 0.0
C244 C 0.29508 0.44229 0.42563 0.0
C245 C 0.32445 0.4891 0.44359 0.0
C246 C 0.32438 0.46832 0.42312 0.0
C247 C 0.29525 0.463 0.44612 0.0
C248 C 0.33959 0.49194 0.43211 0.0
C249 C 0.25082 0.41048 0.4406 0.0
O250 O 0.13186 0.30071 0.43328 0.0
O251 O 0.18446 0.32956 0.42965 0.0
C252 C 0.1592 0.30273 0.43167 0.0
O253 O 0.16277 0.35317 0.45127 0.0
O254 O 0.07659 0.3108 0.41414 0.0
O255 O 0.07029 0.30764 0.43422 0.0
O256 O 0.12384 0.3604 0.44456 0.0
C257 C 0.13762 0.35486 0.45373 0.0
O258 O 0.17686 0.41232 0.43082 0.0
O259 O 0.1282 0.38434 0.42159 0.0
O260 O 0.14294 0.33644 0.40915 0.0
O261 O 0.22843 0.41366 0.44553 0.0
O262 O 0.24026 0.38701 0.43288 0.0
O263 O 0.19064 0.38032 0.41272 0.0
C264 C 0.03713 0.26275 0.42263 0.0
C265 C 0.04671 0.24293 0.42792 0.0
C266 C 0.9873 0.21734 0.41736 0.0
C267 C 0.0266 0.21061 0.42809 0.0
C268 C 1.00744 0.2497 0.41723 0.0
C269 C 0.99643 0.19737 0.42296 0.0
C270 C 0.05725 0.29696 0.42339 0.0
C271 C 0.15258 0.41097 0.42517 0.0
H272 H 0.28428 0.42439 0.41855 0.0
H273 H 0.33558 0.50661 0.45079 0.0
H274 H 0.33516 0.46993 0.41412 0.0
H275 H 0.28461 0.46109 0.45518 0.0
H276 H 0.06948 0.25253 0.4322 0.0
H277 H 0.96449 0.208 0.41312 0.0
H278 H 0.03439 0.19612 0.4326 0.0
H279 H 0.99962 0.26458 0.41309 0.0
Eu280 Eu 0.67941 0.83701 0.4364 0.0
Eu281 Eu 0.72022 0.80367 0.42754 0.0
C282 C 0.69842 0.83665 0.40763 0.0
C283 C 0.6183 0.86424 0.44211 0.0
C284 C 0.60196 0.8558 0.43074 0.0
C285 C 0.58177 0.87949 0.45009 0.0
C286 C 0.5758 0.85946 0.42903 0.0
C287 C 0.60777 0.87577 0.45179 0.0
C288 C 0.5656 0.87176 0.43865 0.0
C289 C 0.64746 0.8633 0.44395 0.0
O290 O 0.75627 0.85177 0.43458 0.0
O291 O 0.72776 0.87674 0.43326 0.0
C292 C 0.75451 0.87746 0.4343 0.0
O293 O 0.7033 0.82978 0.45336 0.0
O294 O 0.7405 0.78563 0.41399 0.0
O295 O 0.74794 0.78336 0.43383 0.0
O296 O 0.69665 0.78432 0.44586 0.0
C297 C 0.70197 0.8029 0.45531 0.0
O298 O 0.64387 0.78633 0.43405 0.0
O299 O 0.67037 0.76812 0.42214 0.0
O300 O 0.72197 0.83394 0.41166 0.0
O301 O 0.64554 0.83862 0.44921 0.0
O302 O 0.66789 0.87402 0.4349 0.0
O303 O 0.67542 0.83217 0.41518 0.0
C304 C 0.78867 0.7906 0.42053 0.0
C305 C 0.8105 0.82264 0.42059 0.0
C306 C 0.83116 0.77945 0.41936 0.0
C307 C 0.84254 0.83302 0.4202 0.0
C308 C 0.79919 0.76913 0.41974 0.0
C309 C 0.85328 0.81151 0.41981 0.0
C310 C 0.75525 0.77921 0.42256 0.0
C311 C 0.64433 0.7647 0.42706 0.0
H312 H 0.60974 0.84696 0.42312 0.0
H313 H 0.57433 0.88846 0.45779 0.0
H314 H 0.56409 0.85343 0.42007 0.0
H315 H 0.62002 0.88243 0.46064 0.0
H316 H 0.80277 0.83954 0.42131 0.0
H317 H 0.83857 0.76227 0.41886 0.0
H318 H 0.85888 0.85784 0.42068 0.0
H319 H 0.78267 0.74431 0.41974 0.0
Eu320 Eu 0.22031 0.86513 0.4336 0.0
Eu321 Eu 0.25041 0.93805 0.42404 0.0
C322 C 0.23008 0.88387 0.40406 0.0
C323 C 0.19232 0.77639 0.43777 0.0
C324 C 0.21429 0.7732 0.43054 0.0
C325 C 0.1612 0.71981 0.43938 0.0
C326 C 0.20982 0.74345 0.42785 0.0
C327 C 0.16571 0.74945 0.44207 0.0
C328 C 0.18324 0.7163 0.43229 0.0
C329 C 0.1967 0.80725 0.44131 0.0
O330 O 0.1982 0.91488 0.4211 0.0
O331 O 0.18238 0.87715 0.43621 0.0
C332 C 0.17633 0.8939 0.42839 0.0
O333 O 0.24233 0.89771 0.45041 0.0
O334 O 0.25458 0.97297 0.41051 0.0
O335 O 0.28027 0.9877 0.42791 0.0
O336 O 0.2324 0.93515 0.44341 0.0
C337 C 0.23975 0.92255 0.45254 0.0
O338 O 0.26705 0.87832 0.42543 0.0
O339 O 0.29116 0.93081 0.42924 0.0
O340 O 0.25182 0.91209 0.40721 0.0
O341 O 0.22491 0.82952 0.44393 0.0
O342 O 0.18098 0.8174 0.43505 0.0
O343 O 0.21212 0.86326 0.41254 0.0
C344 C 0.25999 0.01841 0.41989 0.0
C345 C 0.23502 1.01108 0.42806 0.0
C346 C 0.26224 0.06735 0.41485 0.0
C347 C 0.22377 0.0318 0.42965 0.0
C348 C 0.27349 0.04664 0.4133 0.0
C349 C 0.23722 0.06024 0.42305 0.0
C350 C 0.27142 0.99636 0.41792 0.0
C351 C 0.29254 0.90524 0.42714 0.0
H352 H 0.23497 0.79365 0.42707 0.0
H353 H 0.14074 0.69963 0.44314 0.0
H354 H 0.22713 0.74173 0.42224 0.0
H355 H 0.14852 0.75134 0.4477 0.0
H356 H 0.22419 0.98929 0.4332 0.0
H357 H 0.27285 0.08873 0.40946 0.0
H358 H 0.20474 0.02567 0.43613 0.0
H359 H 0.2926 0.05256 0.40687 0.0
Eu360 Eu 0.70966 0.84903 0.24526 0.0
Eu361 Eu 0.66872 0.7743 0.25343 0.0
C362 C 0.69109 0.82811 0.27396 0.0
C363 C 0.77114 0.93786 0.24209 0.0
C364 C 0.7687 0.9601 0.24945 0.0
C365 C 0.82664 0.97514 0.23933 0.0
C366 C 0.79479 0.98944 0.25169 0.0
C367 C 0.8005 0.94571 0.2371 0.0
C368 C 0.82409 0.99754 0.24657 0.0
C369 C 0.74256 0.90802 0.2388 0.0
O370 O 0.63321 0.787 0.24643 0.0
O371 O 0.66128 0.8403 0.24848 0.0
C372 C 0.63473 0.81427 0.2471 0.0
O373 O 0.68585 0.81932 0.22798 0.0
O374 O 0.64548 0.73512 0.26655 0.0
O375 O 0.64238 0.72665 0.24662 0.0
O376 O 0.69211 0.77982 0.23497 0.0
C377 C 0.68663 0.7936 0.22574 0.0
O378 O 0.74479 0.83312 0.24714 0.0
O379 O 0.71848 0.78758 0.2586 0.0
O380 O 0.66773 0.80178 0.26988 0.0
O381 O 0.74566 0.88588 0.23357 0.0
O382 O 0.71947 0.89702 0.24675 0.0
O383 O 0.71369 0.84723 0.2664 0.0
C384 C 0.5977 0.69432 0.25848 0.0
C385 C 0.57765 0.70331 0.25298 0.0
C386 C 0.55259 0.6445 0.26405 0.0
C387 C 0.54537 0.68293 0.25285 0.0
C388 C 0.58492 0.66494 0.26414 0.0
C389 C 0.53239 0.65305 0.25823 0.0
C390 C 0.63187 0.71471 0.25763 0.0
C391 C 0.74445 0.81053 0.25375 0.0
H392 H 0.74637 0.9551 0.25326 0.0
H393 H 0.84887 0.98038 0.23534 0.0
H394 H 0.79173 1.00615 0.25714 0.0
H395 H 0.80323 0.92933 0.23128 0.0
H396 H 0.58702 0.72582 0.24847 0.0
H397 H 0.54344 0.62193 0.26848 0.0
H398 H 0.53073 0.69026 0.24815 0.0
H399 H 0.59998 0.65756 0.26845 0.0
Eu400 Eu 0.19648 0.87494 0.24249 0.0
Eu401 Eu 0.26984 0.90564 0.25167 0.0
C402 C 0.2138 0.87342 0.27114 0.0
C403 C 0.10862 0.84978 0.23893 0.0
C404 C 0.09463 0.83875 0.2507 0.0
C405 C 0.06372 0.85456 0.23282 0.0
C406 C 0.06533 0.83526 0.25342 0.0
C407 C 0.09294 0.85786 0.23007 0.0
C408 C 0.04933 0.84284 0.24447 0.0
C409 C 0.13814 0.85075 0.23538 0.0
O410 O 0.25656 0.85837 0.24337 0.0
O411 O 0.20365 0.83439 0.24614 0.0
C412 C 0.22909 0.83293 0.24434 0.0
O413 O 0.22747 0.88187 0.22547 0.0
O414 O 0.30682 0.91751 0.26552 0.0
O415 O 0.31842 0.92747 0.24591 0.0
O416 O 0.26735 0.92613 0.23339 0.0
C417 C 0.25395 0.9081 0.22379 0.0
O418 O 0.21334 0.92592 0.2452 0.0
O419 O 0.25756 0.94261 0.25727 0.0
O420 O 0.23963 0.87495 0.26722 0.0
O421 O 0.16081 0.8768 0.23088 0.0
O422 O 0.14831 0.83686 0.24278 0.0
O423 O 0.19665 0.8798 0.26363 0.0
C424 C 0.34782 0.91076 0.25747 0.0
C425 C 0.34169 0.88587 0.24945 0.0
C426 C 0.3929 0.90912 0.26557 0.0
C427 C 0.36136 0.87316 0.24929 0.0
C428 C 0.37334 0.92204 0.26563 0.0
C429 C 0.38738 0.88486 0.25725 0.0
C430 C 0.32842 0.9257 0.25698 0.0
C431 C 0.23553 0.94695 0.25233 0.0
H432 H 0.10606 0.83232 0.25776 0.0
H433 H 0.05199 0.86033 0.22565 0.0
H434 H 0.05517 0.82659 0.26254 0.0
H435 H 0.103 0.86613 0.2209 0.0
H436 H 0.322 0.87658 0.24312 0.0
H437 H 0.41288 0.91874 0.27176 0.0
H438 H 0.35625 0.85423 0.24291 0.0
H439 H 0.37847 0.9412 0.2719 0.0
Eu440 Eu 0.17189 0.33525 0.24356 0.0
Eu441 Eu 0.1385 0.37727 0.25082 0.0
C442 C 0.16879 0.35507 0.27221 0.0
C443 C 0.19826 0.27302 0.24067 0.0
C444 C 0.21202 0.27122 0.25192 0.0
C445 C 0.19152 0.22244 0.23471 0.0
C446 C 0.21578 0.24551 0.25446 0.0
C447 C 0.18788 0.24822 0.23215 0.0
C448 C 0.20588 0.22089 0.24583 0.0
C449 C 0.19715 0.30154 0.23716 0.0
O450 O 0.18769 0.41207 0.24433 0.0
O451 O 0.21183 0.38316 0.24705 0.0
C452 C 0.21308 0.41 0.24548 0.0
O453 O 0.16552 0.35807 0.22603 0.0
O454 O 0.1203 0.40014 0.26295 0.0
O455 O 0.12004 0.40517 0.24283 0.0
O456 O 0.11957 0.35097 0.23302 0.0
C457 C 0.13853 0.35616 0.22372 0.0
O458 O 0.12131 0.30001 0.24681 0.0
O459 O 0.10114 0.32818 0.25627 0.0
O460 O 0.16404 0.37734 0.26808 0.0
O461 O 0.17149 0.29808 0.23222 0.0
O462 O 0.21004 0.32531 0.24474 0.0
O463 O 0.16773 0.33329 0.26477 0.0
C464 C 0.12814 0.44825 0.25478 0.0
C465 C 0.10881 0.46064 0.25209 0.0
C466 C 0.17202 0.50098 0.25717 0.0
C467 C 0.12095 0.49292 0.25183 0.0
C468 C 0.15982 0.4686 0.25738 0.0
C469 C 0.15278 0.5136 0.25428 0.0
C470 C 0.11551 0.41436 0.25365 0.0
C471 C 0.09868 0.30151 0.25267 0.0
H472 H 0.22041 0.28993 0.2587 0.0
H473 H 0.18393 0.20416 0.22777 0.0
H474 H 0.22656 0.24495 0.26319 0.0
H475 H 0.17759 0.2491 0.22333 0.0
H476 H 0.08442 0.44532 0.24986 0.0
H477 H 0.19653 0.51609 0.25923 0.0
H478 H 0.1055 0.50163 0.24933 0.0
H479 H 0.1752 0.45946 0.25935 0.0
Eu480 Eu 0.86809 0.71103 0.77012 0.0
Eu481 Eu 0.79466 0.67044 0.7604 0.0
C482 C 0.85106 0.69226 0.74139 0.0
C483 C 0.95683 0.77175 0.77471 0.0
C484 C 0.98093 0.7686 0.76921 0.0
C485 C 0.99297 0.82775 0.77651 0.0
C486 C 1.01064 0.79457 0.76742 0.0
C487 C 0.96315 0.8017 0.77829 0.0
C488 C 1.01725 0.8245 0.77118 0.0
C489 C 0.92641 0.74333 0.77752 0.0
O490 O 0.8059 0.63429 0.76803 0.0
O491 O 0.85947 0.66254 0.76723 0.0
C492 C 0.83329 0.63588 0.76814 0.0
O493 O 0.83621 0.68703 0.78692 0.0
O494 O 0.75791 0.65036 0.74619 0.0
O495 O 0.74593 0.64287 0.76585 0.0
O496 O 0.79711 0.69264 0.77887 0.0
C497 C 0.80995 0.6873 0.78849 0.0
O498 O 0.85282 0.74647 0.76771 0.0
O499 O 0.80927 0.72051 0.75518 0.0
O500 O 0.82482 0.66837 0.74522 0.0
O501 O 0.90384 0.74651 0.78229 0.0
O502 O 0.91617 0.72058 0.76946 0.0
O503 O 0.86832 0.71566 0.74893 0.0
C504 C 0.71452 0.6019 0.75229 0.0
C505 C 0.72366 0.58009 0.75536 0.0
C506 C 0.66247 0.55934 0.74755 0.0
C507 C 0.70221 0.54811 0.75478 0.0
C508 C 0.68394 0.59134 0.74821 0.0
C509 C 0.6712 0.53734 0.75106 0.0
C510 C 0.7358 0.63542 0.75442 0.0
C511 C 0.83135 0.74631 0.76043 0.0
H512 H 0.97696 0.74585 0.76645 0.0
H513 H 0.9972 0.85033 0.77965 0.0
H514 H 0.02849 0.79112 0.7631 0.0
H515 H 0.94528 0.80498 0.78269 0.0
H516 H 0.74717 0.58786 0.75855 0.0
H517 H 0.63872 0.55186 0.74476 0.0
H518 H 0.70981 0.53182 0.75738 0.0
H519 H 0.6764 0.60785 0.74589 0.0
Eu520 Eu 0.3547 0.17247 0.76633 0.0
Eu521 Eu 0.39654 0.14198 0.75599 0.0
C522 C 0.36252 0.1633 0.73668 0.0
C523 C 0.29418 0.20056 0.77073 0.0
C524 C 0.26744 0.17692 0.76481 0.0
C525 C 0.26981 0.23284 0.77121 0.0
C526 C 0.24196 0.18115 0.76222 0.0
C527 C 0.29515 0.22856 0.77381 0.0
C528 C 0.24272 0.20914 0.76546 0.0
C529 C 0.32092 0.19649 0.77422 0.0
O530 O 0.42543 0.19426 0.75324 0.0
O531 O 0.40491 0.20946 0.76909 0.0
C532 C 0.42716 0.21577 0.76094 0.0
O533 O 0.36567 0.15037 0.78298 0.0
O534 O 0.42734 0.13892 0.74213 0.0
O535 O 0.41579 0.11131 0.75905 0.0
O536 O 0.41216 0.15841 0.77549 0.0
C537 C 0.39276 0.15187 0.7848 0.0
O538 O 0.32036 0.12573 0.75843 0.0
O539 O 0.34878 0.10126 0.76136 0.0
O540 O 0.36789 0.14068 0.73959 0.0
O541 O 0.31523 0.16847 0.77706 0.0
O542 O 0.34654 0.21197 0.76775 0.0
O543 O 0.36149 0.18176 0.74533 0.0
C544 C 0.46694 0.13207 0.75112 0.0
C545 C 0.48485 0.15719 0.75915 0.0
C546 C 0.51306 0.12832 0.74651 0.0
C547 C 0.51667 0.16779 0.76087 0.0
C548 C 0.48125 0.11774 0.74481 0.0
C549 C 0.53123 0.15348 0.75458 0.0
C550 C 0.43355 0.12113 0.74913 0.0
C551 C 0.32176 0.10013 0.75983 0.0
H552 H 0.26612 0.15511 0.76227 0.0
H553 H 0.27118 0.2545 0.77403 0.0
H554 H 0.2217 0.16251 0.75764 0.0
H555 H 0.31545 0.24708 0.77844 0.0
H556 H 0.47419 0.16861 0.76409 0.0
H557 H 0.52351 0.11703 0.74136 0.0
H558 H 0.52976 0.18694 0.76726 0.0
H559 H 0.46785 0.09847 0.73851 0.0
Eu560 Eu 0.89291 0.19667 0.76937 0.0
Eu561 Eu 0.92462 0.27102 0.76108 0.0
C562 C 0.89422 0.21668 0.74071 0.0
C563 C 0.865 0.10802 0.77325 0.0
C564 C 0.88906 0.10626 0.76701 0.0
C565 C 0.83467 0.05131 0.77373 0.0
C566 C 0.88594 0.0771 0.7642 0.0
C567 C 0.83785 0.08034 0.77656 0.0
C568 C 0.85862 0.04921 0.7675 0.0
C569 C 0.86716 0.13811 0.77641 0.0
O570 O 0.87625 0.25675 0.76865 0.0
O571 O 0.85271 0.20408 0.76541 0.0
C572 C 0.85096 0.22926 0.76736 0.0
O573 O 0.89978 0.22675 0.78664 0.0
O574 O 0.93974 0.30988 0.74785 0.0
O575 O 0.94408 0.3186 0.76778 0.0
O576 O 0.94466 0.26673 0.77917 0.0
C577 C 0.92636 0.2526 0.78863 0.0
O578 O 0.94361 0.2125 0.76645 0.0
O579 O 0.96238 0.25934 0.7559 0.0
O580 O 0.89629 0.24267 0.74473 0.0
O581 O 0.8935 0.16036 0.78086 0.0
O582 O 0.85434 0.14857 0.76861 0.0
O583 O 0.89874 0.19823 0.74825 0.0
C584 C 0.9322 0.35069 0.75558 0.0
C585 C 0.90164 0.34042 0.75972 0.0
C586 C 0.93863 0.40192 0.75155 0.0
C587 C 0.88981 0.36087 0.75998 0.0
C588 C 0.95043 0.38143 0.75133 0.0
C589 C 0.90834 0.39209 0.75609 0.0
C590 C 0.94598 0.33037 0.75669 0.0
C591 C 0.96567 0.236 0.76012 0.0
H592 H 0.91017 0.12735 0.7643 0.0
H593 H 0.81355 0.03047 0.77662 0.0
H594 H 0.90474 0.07641 0.7593 0.0
H595 H 0.81902 0.08117 0.78139 0.0
H596 H 0.88729 0.31684 0.76312 0.0
H597 H 0.95339 0.42558 0.74828 0.0
H598 H 0.86656 0.35247 0.76367 0.0
H599 H 0.97409 0.38982 0.74811 0.0
Eu600 Eu 0.38727 0.19235 0.57484 0.0
Eu601 Eu 0.34649 0.1186 0.58426 0.0
C602 C 0.36933 0.17454 0.60378 0.0
C603 C 0.44807 0.28038 0.56877 0.0
C604 C 0.46397 0.28833 0.58024 0.0
C605 C 0.48465 0.33224 0.56089 0.0
C606 C 0.48993 0.3182 0.58204 0.0
C607 C 0.45884 0.30247 0.5591 0.0
C608 C 0.50038 0.34071 0.57243 0.0
C609 C 0.41914 0.25019 0.56682 0.0
O610 O 0.31067 0.13056 0.57688 0.0
O611 O 0.33906 0.18397 0.57824 0.0
C612 C 0.31234 0.15794 0.5772 0.0
O613 O 0.36324 0.16052 0.55809 0.0
O614 O 0.32464 0.08102 0.59814 0.0
O615 O 0.31963 0.07021 0.57837 0.0
O616 O 0.36972 0.12186 0.56594 0.0
C617 C 0.36443 0.13483 0.55637 0.0
O618 O 0.42279 0.17729 0.57763 0.0
O619 O 0.39629 0.13282 0.5897 0.0
O620 O 0.34573 0.14799 0.60001 0.0
O621 O 0.42161 0.22731 0.562 0.0
O622 O 0.39812 0.24075 0.57563 0.0
O623 O 0.39191 0.19284 0.59603 0.0
C624 C 0.27669 0.03828 0.59116 0.0
C625 C 0.25523 0.04553 0.58577 0.0
C626 C 0.23354 0.98811 0.59773 0.0
C627 C 0.22321 0.02403 0.58616 0.0
C628 C 0.2656 1.00962 0.59729 0.0
C629 C 0.21197 0.99485 0.59198 0.0
C630 C 0.31056 0.05948 0.58965 0.0
C631 C 0.42234 0.15542 0.58476 0.0
H632 H 0.45599 0.27168 0.58786 0.0
H633 H 0.4923 0.34866 0.55319 0.0
H634 H 0.50128 0.3239 0.59108 0.0
H635 H 0.44692 0.29684 0.55017 0.0
H636 H 0.2633 0.06753 0.58098 0.0
H637 H 0.22574 0.96578 0.60219 0.0
H638 H 0.20727 0.03019 0.5818 0.0
H639 H 0.2818 1.00354 0.60146 0.0
Eu640 Eu 0.87484 0.21992 0.57871 0.0
Eu641 Eu 0.94934 0.25166 0.58637 0.0
C642 C 0.89589 0.2208 0.60711 0.0
C643 C 0.78665 0.19456 0.5755 0.0
C644 C 0.77227 0.18397 0.58723 0.0
C645 C 0.74209 0.19926 0.56883 0.0
C646 C 0.74292 0.18067 0.58966 0.0
C647 C 0.77134 0.2024 0.56638 0.0
C648 C 0.72728 0.18795 0.58045 0.0
C649 C 0.81604 0.195 0.57221 0.0
O650 O 0.93484 0.20347 0.57866 0.0
O651 O 0.88235 0.17972 0.58251 0.0
C652 C 0.90753 0.17811 0.58025 0.0
O653 O 0.90417 0.22569 0.56129 0.0
O654 O 0.98872 0.26676 0.59928 0.0
O655 O 0.99666 0.27115 0.57929 0.0
O656 O 0.94395 0.27107 0.56831 0.0
C657 C 0.92989 0.25219 0.55902 0.0
O658 O 0.89101 0.27076 0.58142 0.0
O659 O 0.93787 0.28927 0.59188 0.0
O660 O 0.92164 0.22283 0.60277 0.0
O661 O 0.83846 0.22022 0.56708 0.0
O662 O 0.82657 0.18233 0.58007 0.0
O663 O 0.87727 0.22573 0.59985 0.0
C664 C 0.02879 0.25863 0.59114 0.0
C665 C 1.01865 0.22868 0.58635 0.0
C666 C 0.07918 0.26365 0.59576 0.0
C667 C 0.03881 0.21651 0.58604 0.0
C668 C 0.05902 0.27584 0.596 0.0
C669 C 0.06954 0.23403 0.59057 0.0
C670 C 1.0088 0.27282 0.59027 0.0
C671 C 0.91457 0.2927 0.58775 0.0
H672 H 0.78338 0.17768 0.59448 0.0
H673 H 0.73062 0.20476 0.56146 0.0
H674 H 0.73241 0.1723 0.59876 0.0
H675 H 0.78169 0.21028 0.55722 0.0
H676 H 0.99542 0.21505 0.5825 0.0
H677 H 0.10244 0.27759 0.59956 0.0
H678 H 0.03059 0.19381 0.58186 0.0
H679 H 0.06727 0.29898 0.59976 0.0
Eu680 Eu 0.84497 0.67767 0.57889 0.0
Eu681 Eu 0.81584 0.72158 0.58804 0.0
C682 C 0.83537 0.68765 0.60835 0.0
C683 C 0.87012 0.61451 0.57549 0.0
C684 C 0.88884 0.61599 0.58566 0.0
C685 C 0.86081 0.56225 0.5709 0.0
C686 C 0.89371 0.59099 0.58834 0.0
C687 C 0.85604 0.58727 0.56821 0.0
C688 C 0.88 0.56387 0.58092 0.0
C689 C 0.86718 0.64183 0.57165 0.0
O690 O 0.86807 0.75 0.59108 0.0
O691 O 0.88355 0.7273 0.57617 0.0
C692 C 0.88985 0.75037 0.58388 0.0
O693 O 0.82323 0.68819 0.56196 0.0
O694 O 0.81078 0.7519 0.60144 0.0
O695 O 0.78746 0.74284 0.58352 0.0
O696 O 0.83441 0.73608 0.56869 0.0
C697 C 0.82644 0.71581 0.55966 0.0
O698 O 0.79808 0.64505 0.58716 0.0
O699 O 0.7747 0.67386 0.58286 0.0
O700 O 0.81405 0.69466 0.6051 0.0
O701 O 0.83954 0.63693 0.5686 0.0
O702 O 0.88332 0.66791 0.57776 0.0
O703 O 0.85305 0.68431 0.59994 0.0
C704 C 0.8078 0.79352 0.59192 0.0
C705 C 0.78716 0.80451 0.58947 0.0
C706 C 0.8512 0.84692 0.59102 0.0
C707 C 0.79838 0.83645 0.58785 0.0
C708 C 0.83997 0.81496 0.59255 0.0
C709 C 0.83055 0.85817 0.5887 0.0
C710 C 0.79559 0.75976 0.59365 0.0
C711 C 0.77284 0.6468 0.5852 0.0
H712 H 0.90017 0.63665 0.59146 0.0
H713 H 0.85018 0.542 0.56487 0.0
H714 H 0.90829 0.59296 0.59622 0.0
H715 H 0.84185 0.58557 0.56021 0.0
H716 H 0.7623 0.78835 0.58881 0.0
H717 H 0.87605 0.86284 0.59188 0.0
H718 H 0.78179 0.84407 0.58584 0.0
H719 H 0.85644 0.80704 0.59432 0.0
H720 H 0.44375 0.9062 0.09508 0.0
H721 H 0.44902 0.85936 0.0942 0.0
H722 H 0.54619 0.91484 0.10408 0.0
H723 H 0.54125 0.96125 0.10499 0.0
H724 H 0.4922 0.85171 0.07827 0.0
H725 H 0.51281 0.84021 0.12835 0.0
H726 H 0.49511 0.86242 0.12301 0.0
H727 H 0.53679 0.87904 0.12242 0.0
C728 C 0.46609 0.90828 0.09724 0.0
C729 C 0.49207 0.93752 0.10009 0.0
C730 C 0.46908 0.88155 0.09669 0.0
C731 C 0.49793 0.88358 0.09921 0.0
C732 C 0.5236 0.9126 0.1023 0.0
H733 H 0.59895 0.78626 0.09674 0.0
H734 H 0.57836 0.82167 0.09896 0.0
C735 C 0.52073 0.9392 0.10274 0.0
C736 C 0.50228 0.8561 0.09796 0.0
H737 H 0.52943 0.81459 0.11379 0.0
C738 C 0.49976 0.8431 0.08607 0.0
C739 C 0.51225 0.84504 0.10814 0.0
C740 C 0.51414 0.85718 0.12123 0.0
C741 C 0.50867 0.82058 0.08394 0.0
C742 C 0.51986 0.81043 0.09404 0.0
C743 C 0.52108 0.82251 0.10603 0.0
C744 C 0.5321 0.78867 0.09229 0.0
C745 C 0.50756 0.80907 0.07079 0.0
C746 C 0.51296 0.75823 0.08782 0.0
C747 C 0.52482 0.73795 0.08639 0.0
C748 C 0.55603 0.74762 0.08949 0.0
C749 C 0.57503 0.77813 0.09402 0.0
C750 C 0.56319 0.79835 0.09541 0.0
H751 H 0.5051 0.82418 0.06374 0.0
H752 H 0.52896 0.80799 0.06863 0.0
H753 H 0.4872 0.7852 0.06986 0.0
H754 H 0.48876 0.75001 0.08556 0.0
H755 H 0.50953 0.71472 0.08281 0.0
H756 H 0.27098 0.84252 0.10101 0.0
H757 H 0.23222 0.78707 0.10214 0.0
H758 H 0.28613 0.76665 0.07608 0.0
H759 H 0.32508 0.82225 0.07486 0.0
H760 H 0.19631 0.7474 0.08325 0.0
H761 H 0.27132 0.70581 0.10453 0.0
H762 H 0.28251 0.74653 0.10405 0.0
H763 H 0.28642 0.72777 0.09034 0.0
C764 C 0.27455 0.82632 0.09544 0.0
C765 C 0.30119 0.83694 0.08782 0.0
C766 C 0.25242 0.79456 0.09616 0.0
C767 C 0.25642 0.77259 0.08934 0.0
C768 C 0.28286 0.78305 0.08166 0.0
H769 H 0.13732 0.57018 0.08213 0.0
H770 H 0.17929 0.62449 0.08005 0.0
C771 C 0.3051 0.81488 0.08095 0.0
C772 C 0.23236 0.73893 0.09005 0.0
H773 H 0.22039 0.66712 0.09849 0.0
C774 C 0.20159 0.72987 0.0866 0.0
C775 C 0.23926 0.71601 0.09437 0.0
C776 C 0.27159 0.72444 0.09864 0.0
C777 C 0.17761 0.6986 0.08733 0.0
C778 C 0.1844 0.67576 0.09181 0.0
C779 C 0.21523 0.68467 0.09507 0.0
C780 C 0.1596 0.64264 0.09342 0.0
C781 C 0.14521 0.6902 0.08315 0.0
C782 C 0.13496 0.6347 0.10184 0.0
C783 C 0.11099 0.60373 0.10308 0.0
C784 C 0.11115 0.57994 0.09593 0.0
C785 C 0.13633 0.58787 0.08773 0.0
C786 C 0.16037 0.61891 0.08653 0.0
H787 H 0.14554 0.70847 0.07701 0.0
H788 H 0.13383 0.66766 0.07805 0.0
H789 H 0.13078 0.68779 0.09148 0.0
H790 H 0.13419 0.65254 0.10743 0.0
H791 H 0.09211 0.59855 0.10953 0.0
H792 H 0.22053 0.45267 0.09153 0.0
H793 H 0.27645 0.47184 0.09333 0.0
H794 H 0.29465 0.56653 0.09394 0.0
H795 H 0.23867 0.54761 0.09194 0.0
H796 H 0.32366 0.51295 0.07641 0.0
H797 H 0.3437 0.56211 0.1245 0.0
H798 H 0.30522 0.53477 0.11873 0.0
H799 H 0.32427 0.57475 0.11377 0.0
C800 C 0.23636 0.4776 0.09198 0.0
C801 C 0.22497 0.49856 0.09156 0.0
C802 C 0.26835 0.48851 0.09309 0.0
C803 C 0.28972 0.52059 0.0939 0.0
C804 C 0.27855 0.54164 0.09357 0.0
H805 H 0.49536 0.60984 0.09951 0.0
H806 H 0.44263 0.60292 0.09815 0.0
C807 C 0.2465 0.53075 0.09243 0.0
C808 C 0.32373 0.53175 0.09456 0.0
H809 H 0.38754 0.56702 0.11368 0.0
C810 C 0.33764 0.52493 0.08453 0.0
C811 C 0.34206 0.5477 0.1051 0.0
C812 C 0.32815 0.55516 0.1162 0.0
C813 C 0.36917 0.53301 0.08486 0.0
C814 C 0.3872 0.54777 0.09561 0.0
C815 C 0.37366 0.55567 0.10546 0.0
C816 C 0.41916 0.55256 0.09714 0.0
C817 C 0.38286 0.52541 0.07371 0.0
C818 C 0.42336 0.52661 0.09739 0.0
C819 C 0.45322 0.53045 0.09813 0.0
C820 C 0.4798 0.56042 0.09873 0.0
C821 C 0.47552 0.58647 0.09897 0.0
C822 C 0.4454 0.58256 0.09821 0.0
H823 H 0.36941 0.52295 0.06506 0.0
H824 H 0.40756 0.54369 0.07217 0.0
H825 H 0.38209 0.50292 0.07538 0.0
H826 H 0.40343 0.50323 0.09686 0.0
H827 H 0.45536 0.50973 0.09807 0.0
H828 H 0.92971 0.47127 0.93281 0.0
H829 H 0.88756 0.4833 0.93445 0.0
H830 H 0.92446 0.5445 0.90257 0.0
H831 H 0.96706 0.53315 0.90101 0.0
H832 H 0.91062 0.57155 0.92162 0.0
H833 H 0.81036 0.45318 0.91303 0.0
H834 H 0.83493 0.45465 0.92565 0.0
H835 H 0.85018 0.46318 0.90998 0.0
C836 C 0.92876 0.48711 0.92608 0.0
C837 C 0.95181 0.50119 0.91676 0.0
C838 C 0.90449 0.49383 0.92699 0.0
C839 C 0.90254 0.51448 0.91853 0.0
C840 C 0.92541 0.52842 0.90919 0.0
H841 H 0.74558 0.54375 0.90642 0.0
H842 H 0.78573 0.52882 0.9052 0.0
C843 C 0.94975 0.52184 0.9083 0.0
C844 C 0.87745 0.52259 0.91968 0.0
H845 H 0.79828 0.49155 0.92 0.0
C846 C 0.88605 0.55405 0.92124 0.0
C847 C 0.84538 0.49981 0.91905 0.0
C848 C 0.83458 0.46586 0.91672 0.0
C849 C 0.86356 0.56335 0.92227 0.0
C850 C 0.83148 0.54048 0.92202 0.0
C851 C 0.82285 0.50904 0.92034 0.0
C852 C 0.80654 0.54883 0.92307 0.0
C853 C 0.87443 0.59769 0.92331 0.0
C854 C 0.80447 0.56457 0.93362 0.0
C855 C 0.78152 0.57319 0.93434 0.0
C856 C 0.75991 0.56589 0.92459 0.0
C857 C 0.76161 0.54945 0.91417 0.0
C858 C 0.78464 0.541 0.91343 0.0
H859 H 0.89885 0.61234 0.91999 0.0
H860 H 0.8592 0.60381 0.91782 0.0
H861 H 0.87352 0.60358 0.93325 0.0
H862 H 0.8206 0.57019 0.94132 0.0
H863 H 0.78056 0.58538 0.94258 0.0
H864 H 0.54934 0.23421 0.90931 0.0
H865 H 0.56894 0.2902 0.90735 0.0
H866 H 0.49688 0.28218 0.93232 0.0
H867 H 0.47651 0.22607 0.93408 0.0
H868 H 0.5348 0.31843 0.89843 0.0
H869 H 0.57785 0.35627 0.9467 0.0
H870 H 0.57036 0.3193 0.9404 0.0
H871 H 0.5386 0.32399 0.94588 0.0
C872 C 0.53751 0.24424 0.91436 0.0
C873 C 0.51119 0.2254 0.92184 0.0
C874 C 0.54894 0.27635 0.9133 0.0
C875 C 0.53463 0.29045 0.9198 0.0
C876 C 0.50869 0.27191 0.92741 0.0
H877 H 0.52051 0.45231 0.90798 0.0
H878 H 0.51594 0.40108 0.90892 0.0
C879 C 0.4971 0.23977 0.92842 0.0
C880 C 0.54558 0.32418 0.91808 0.0
H881 H 0.57211 0.39276 0.93395 0.0
C882 C 0.54332 0.33477 0.90616 0.0
C883 C 0.55709 0.34559 0.92813 0.0
C884 C 0.56145 0.33587 0.94099 0.0
C885 C 0.55085 0.36582 0.90416 0.0
C886 C 0.56071 0.3868 0.91435 0.0
C887 C 0.5644 0.37662 0.92615 0.0
C888 C 0.56459 0.41846 0.91318 0.0
C889 C 0.54773 0.37582 0.89117 0.0
C890 C 0.59353 0.44543 0.91536 0.0
C891 C 0.59632 0.47506 0.91479 0.0
C892 C 0.57007 0.47811 0.91225 0.0
C893 C 0.54126 0.45096 0.90998 0.0
C894 C 0.53859 0.42155 0.91044 0.0
H895 H 0.54867 0.36023 0.88393 0.0
H896 H 0.52487 0.37478 0.89035 0.0
H897 H 0.56641 0.40014 0.88924 0.0
H898 H 0.61387 0.44352 0.91757 0.0
H899 H 0.61876 0.49542 0.91668 0.0
H900 H 0.56632 0.14643 0.91315 0.0
H901 H 0.61896 0.19269 0.91315 0.0
H902 H 0.65933 0.13317 0.91188 0.0
H903 H 0.6075 0.08734 0.9118 0.0
H904 H 0.66774 0.20767 0.931 0.0
H905 H 0.70458 0.19543 0.88346 0.0
H906 H 0.66417 0.17571 0.88829 0.0
H907 H 0.68891 0.16012 0.89243 0.0
C908 C 0.58643 0.14326 0.91272 0.0
C909 C 0.58259 0.1131 0.91244 0.0
C910 C 0.61648 0.1697 0.91276 0.0
C911 C 0.6431 0.1664 0.91233 0.0
C912 C 0.6392 0.13636 0.91197 0.0
H913 H 0.84176 0.26564 0.91878 0.0
H914 H 0.78603 0.22899 0.91618 0.0
C915 C 0.60941 0.1101 0.912 0.0
C916 C 0.67518 0.19392 0.91282 0.0
H917 H 0.74552 0.22762 0.89773 0.0
C918 C 0.68466 0.21245 0.92364 0.0
C919 C 0.69725 0.20008 0.90323 0.0
C920 C 0.68818 0.18198 0.89114 0.0
C921 C 0.71597 0.23586 0.92539 0.0
C922 C 0.73829 0.2412 0.91599 0.0
C923 C 0.7285 0.22342 0.90498 0.0
C924 C 0.77215 0.26395 0.91761 0.0
C925 C 0.72518 0.25363 0.93756 0.0
C926 C 0.78305 0.29593 0.91917 0.0
C927 C 0.81499 0.317 0.92075 0.0
C928 C 0.83676 0.30655 0.92076 0.0
C929 C 0.82571 0.27452 0.91904 0.0
C930 C 0.79383 0.25352 0.91745 0.0
H931 H 0.70685 0.24216 0.94484 0.0
H932 H 0.7473 0.25597 0.94115 0.0
H933 H 0.72893 0.27741 0.93598 0.0
H934 H 0.76687 0.30465 0.91911 0.0
H935 H 0.82256 0.34143 0.92213 0.0
H936 H 0.27088 0.12413 0.42415 0.0
H937 H 0.25122 0.16045 0.42596 0.0
H938 H 0.15688 0.08329 0.42752 0.0
H939 H 0.17628 0.04665 0.42549 0.0
H940 H 0.20877 0.16513 0.40929 0.0
H941 H 0.16236 0.13788 0.45789 0.0
H942 H 0.18981 0.12703 0.45196 0.0
H943 H 0.14958 0.1054 0.44738 0.0
C944 C 0.24592 0.11478 0.42481 0.0
C945 C 0.22521 0.08237 0.42463 0.0
C946 C 0.23473 0.13562 0.42592 0.0
C947 C 0.20261 0.1246 0.427 0.0
C948 C 0.1818 0.09231 0.42693 0.0
H949 H 0.11284 0.24064 0.43273 0.0
H950 H 0.11958 0.19472 0.43142 0.0
C951 C 0.19298 0.0714 0.42578 0.0
C952 C 0.19113 0.14718 0.42766 0.0
H953 H 0.15659 0.17616 0.44701 0.0
C954 C 0.19718 0.16739 0.41751 0.0
C955 C 0.17569 0.14989 0.43833 0.0
C956 C 0.16908 0.1291 0.44958 0.0
C957 C 0.18889 0.19066 0.41784 0.0
C958 C 0.17468 0.19429 0.42871 0.0
C959 C 0.1675 0.17335 0.43869 0.0
C960 C 0.16996 0.22149 0.43022 0.0
C961 C 0.19576 0.21147 0.40658 0.0
C962 C 0.196 0.2516 0.43034 0.0
C963 C 0.19227 0.27766 0.43109 0.0
C964 C 0.16234 0.27436 0.43181 0.0
C965 C 0.13619 0.24407 0.43214 0.0
C966 C 0.14 0.21781 0.43139 0.0
H967 H 0.19796 0.20025 0.39794 0.0
H968 H 0.17719 0.21754 0.40515 0.0
H969 H 0.2182 0.23341 0.40803 0.0
H970 H 0.21935 0.25498 0.42971 0.0
H971 H 0.21305 0.3005 0.43094 0.0
H972 H 0.93352 0.16744 0.42765 0.0
H973 H 0.89726 0.11145 0.42932 0.0
H974 H 0.97245 0.09323 0.42225 0.0
H975 H 1.00896 0.14933 0.42034 0.0
H976 H 0.88405 0.06487 0.41094 0.0
H977 H 0.93134 0.0432 0.45461 0.0
H978 H 0.94044 0.08184 0.44983 0.0
H979 H 0.95881 0.06294 0.44219 0.0
C980 C 0.9424 0.15161 0.42631 0.0
C981 C 0.97426 0.16306 0.42383 0.0
C982 C 0.92163 0.11956 0.42737 0.0
C983 C 0.93219 0.09815 0.42608 0.0
C984 C 0.96389 0.10934 0.42353 0.0
H985 H 0.81587 0.89234 0.43085 0.0
H986 H 0.86163 0.9449 0.42859 0.0
C987 C 0.98473 0.14146 0.42244 0.0
C988 C 0.90962 0.06415 0.42708 0.0
H989 H 0.88813 0.99985 0.44539 0.0
C990 C 0.88509 0.05063 0.41842 0.0
C991 C 0.91114 0.0455 0.43678 0.0
C992 C 0.93668 0.05901 0.44646 0.0
C993 C 0.8617 0.01919 0.41936 0.0
C994 C 0.86247 1.00085 0.42935 0.0
C995 C 0.88759 0.01398 0.43775 0.0
C996 C 0.83587 0.96899 0.43175 0.0
C997 C 0.83608 1.00592 0.40969 0.0
C998 C 0.80658 0.9652 0.43471 0.0
C999 C 0.78062 0.93548 0.436 0.0
C1000 C 0.78326 0.90865 0.43443 0.0
C1001 C 0.81298 0.91245 0.43209 0.0
C1002 C 0.83912 0.94245 0.43077 0.0
H1003 H 0.84339 0.01975 0.40091 0.0
H1004 H 0.82901 0.98134 0.40748 0.0
H1005 H 0.81539 1.00642 0.41341 0.0
H1006 H 0.80365 0.98536 0.43576 0.0
H1007 H 0.75827 0.9336 0.43797 0.0
H1008 H 0.12434 0.84975 0.44069 0.0
H1009 H 0.07082 0.83943 0.43879 0.0
H1010 H 0.10132 0.91564 0.41271 0.0
H1011 H 0.15498 0.92589 0.41439 0.0
H1012 H 0.04571 0.87718 0.44382 0.0
H1013 H 0.0307 0.8437 0.39366 0.0
H1014 H 0.06281 0.84714 0.40287 0.0
H1015 H 0.0635 0.88148 0.39698 0.0
C1016 C 0.11976 0.86439 0.43454 0.0
C1017 C 0.14402 0.88854 0.42762 0.0
C1018 C 0.08909 0.85843 0.43347 0.0
C1019 C 0.08192 0.8764 0.42545 0.0
C1020 C 0.10616 0.901 0.41874 0.0
H1021 H 0.90174 0.86141 0.40781 0.0
H1022 H 0.95767 0.87923 0.40932 0.0
C1023 C 0.13688 0.90694 0.41977 0.0
C1024 C 0.04907 0.86934 0.42423 0.0
H1025 H 0.98899 0.84591 0.40344 0.0
C1026 C 0.03333 0.87038 0.43498 0.0
C1027 C 0.03294 0.86056 0.41269 0.0
C1028 C 0.04819 0.85785 0.4009 0.0
C1029 C 1.00194 0.86284 0.43453 0.0
C1030 C 0.98566 0.85353 0.42305 0.0
C1031 C 1.00153 0.85307 0.41223 0.0
C1032 C 0.95183 0.84296 0.42218 0.0
C1033 C 0.98651 0.86511 0.44635 0.0
C1034 C 0.92997 0.81645 0.42877 0.0
C1035 C 0.8981 0.80626 0.42795 0.0
C1036 C 0.8873 0.82228 0.42045 0.0
C1037 C 0.90926 0.84873 0.41377 0.0
C1038 C 0.94121 0.85885 0.41457 0.0
H1039 H 1.00398 0.88054 0.45336 0.0
H1040 H 0.97042 0.8741 0.44436 0.0
H1041 H 0.97272 0.84155 0.45055 0.0
H1042 H 0.93757 0.80351 0.43454 0.0
H1043 H 0.88193 0.78604 0.43334 0.0
H1044 H 0.41185 0.87375 0.2363 0.0
H1045 H 0.44961 0.85576 0.23502 0.0
H1046 H 0.45016 0.84989 0.27525 0.0
H1047 H 0.41288 0.8687 0.27657 0.0
H1048 H 0.50723 0.87818 0.26676 0.0
H1049 H 0.44019 0.77126 0.23871 0.0
H1050 H 0.44294 0.80456 0.23089 0.0
H1051 H 0.42236 0.79188 0.24555 0.0
C1052 C 0.41966 0.86817 0.24487 0.0
C1053 C 0.40928 0.87252 0.25654 0.0
C1054 C 0.44114 0.85769 0.24412 0.0
C1055 C 0.4523 0.85074 0.25502 0.0
C1056 C 0.44178 0.85488 0.2667 0.0
H1057 H 0.57484 0.76889 0.25312 0.0
H1058 H 0.52906 0.77551 0.25537 0.0
C1059 C 0.42056 0.86573 0.26745 0.0
C1060 C 0.47662 0.84144 0.25426 0.0
H1061 H 0.4958 0.79191 0.23959 0.0
C1062 C 0.5045 0.85906 0.26093 0.0
C1063 C 0.47303 0.81614 0.24684 0.0
C1064 C 0.44286 0.79468 0.24021 0.0
C1065 C 0.52922 0.85292 0.26001 0.0
C1066 C 0.52647 0.82908 0.25189 0.0
C1067 C 0.49814 0.81055 0.24563 0.0
C1068 C 0.55317 0.82388 0.24954 0.0
C1069 C 0.55803 0.87205 0.26781 0.0
C1070 C 0.58151 0.8484 0.24505 0.0
C1071 C 0.60759 0.84476 0.24385 0.0
C1072 C 0.60583 0.81629 0.24689 0.0
C1073 C 0.57694 0.79108 0.25067 0.0
C1074 C 0.5508 0.79487 0.25201 0.0
H1075 H 0.55268 0.8817 0.27622 0.0
H1076 H 0.56862 0.85798 0.27088 0.0
H1077 H 0.57551 0.89199 0.26217 0.0
H1078 H 0.58367 0.87068 0.2427 0.0
H1079 H 0.62936 0.86452 0.24073 0.0
H1080 H 0.17589 0.77659 0.24654 0.0
H1081 H 0.17041 0.72508 0.24727 0.0
H1082 H 0.26965 0.76554 0.242 0.0
H1083 H 0.27558 0.81786 0.24154 0.0
H1084 H 0.18372 0.69361 0.22988 0.0
H1085 H 0.25418 0.71131 0.27278 0.0
H1086 H 0.2418 0.73841 0.26803 0.0
H1087 H 0.27387 0.73823 0.26022 0.0
C1088 C 0.19671 0.77478 0.24552 0.0
C1089 C 0.22625 0.80157 0.24403 0.0
C1090 C 0.19347 0.74514 0.24593 0.0
C1091 C 0.21961 0.74134 0.24486 0.0
C1092 C 0.24918 0.7679 0.2431 0.0
H1093 H 0.20979 0.55822 0.24493 0.0
H1094 H 0.22936 0.61423 0.24243 0.0
C1095 C 0.2525 0.79779 0.24274 0.0
C1096 C 0.2152 0.70932 0.24556 0.0
H1097 H 0.23068 0.66144 0.26353 0.0
C1098 C 0.19426 0.68671 0.23717 0.0
C1099 C 0.2289 0.70022 0.25509 0.0
C1100 C 0.25077 0.72317 0.26463 0.0
C1101 C 0.18603 0.65524 0.23826 0.0
C1102 C 0.19899 0.64604 0.24798 0.0
C1103 C 0.22082 0.66868 0.25609 0.0
C1104 C 0.18835 0.61265 0.25029 0.0
C1105 C 0.16296 0.63178 0.22917 0.0
C1106 C 0.15908 0.5934 0.25576 0.0
C1107 C 0.14795 0.56151 0.25735 0.0
C1108 C 0.16577 0.54807 0.25342 0.0
C1109 C 0.19552 0.5677 0.2482 0.0
C1110 C 0.20672 0.59971 0.24669 0.0
H1111 H 0.15894 0.64318 0.221 0.0
H1112 H 0.17129 0.61601 0.22577 0.0
H1113 H 0.14032 0.61724 0.234 0.0
H1114 H 0.14467 0.60304 0.25868 0.0
H1115 H 0.12526 0.54737 0.26162 0.0
H1116 H 0.50317 0.59002 0.25404 0.0
H1117 H 0.44729 0.5533 0.25218 0.0
H1118 H 0.42786 0.62799 0.25821 0.0
H1119 H 0.48381 0.66495 0.26033 0.0
H1120 H 0.39948 0.54036 0.27022 0.0
H1121 H 0.37992 0.58574 0.22556 0.0
H1122 H 0.41836 0.59509 0.23075 0.0
H1123 H 0.399 0.61363 0.23788 0.0
C1124 C 0.48709 0.59869 0.25513 0.0
C1125 C 0.49815 0.63055 0.25736 0.0
C1126 C 0.45512 0.57766 0.25396 0.0
C1127 C 0.43342 0.58795 0.25489 0.0
C1128 C 0.44422 0.61963 0.25722 0.0
H1129 H 0.2281 0.47156 0.2479 0.0
H1130 H 0.2806 0.51721 0.25046 0.0
C1131 C 0.47625 0.64072 0.25843 0.0
C1132 C 0.39953 0.56517 0.2537 0.0
H1133 H 0.33621 0.54269 0.23471 0.0
C1134 C 0.38561 0.541 0.2625 0.0
C1135 C 0.38137 0.56621 0.24369 0.0
C1136 C 0.39532 0.5914 0.23385 0.0
C1137 C 0.35425 0.51748 0.26144 0.0
C1138 C 0.33642 0.51773 0.25114 0.0
C1139 C 0.34994 0.54252 0.24258 0.0
C1140 C 0.30468 0.49102 0.24866 0.0
C1141 C 0.34051 0.49236 0.27132 0.0
C1142 C 0.30095 0.46149 0.24636 0.0
C1143 C 0.27125 0.43558 0.24491 0.0
C1144 C 0.24443 0.43853 0.24563 0.0
C1145 C 0.24823 0.46844 0.24732 0.0
C1146 C 0.27818 0.49452 0.24881 0.0
H1147 H 0.35367 0.50029 0.28024 0.0
H1148 H 0.31568 0.48504 0.27316 0.0
H1149 H 0.34166 0.47171 0.26803 0.0
H1150 H 0.32109 0.45835 0.24592 0.0
H1151 H 0.26937 0.41305 0.24345 0.0
H1152 H 0.78691 0.57484 0.76433 0.0
H1153 H 0.79293 0.52852 0.76339 0.0
H1154 H 0.89075 0.58557 0.77195 0.0
H1155 H 0.88503 0.63154 0.77295 0.0
H1156 H 0.8339 0.52007 0.747 0.0
H1157 H 0.86156 0.51262 0.79657 0.0
H1158 H 0.84335 0.53461 0.79157 0.0
H1159 H 0.88486 0.55093 0.79006 0.0
C1160 C 0.80957 0.57742 0.76619 0.0
C1161 C 0.83545 0.60699 0.76871 0.0
C1162 C 0.813 0.55094 0.76561 0.0
C1163 C 0.84223 0.55351 0.76774 0.0
C1164 C 0.86786 0.58287 0.77049 0.0
H1165 H 0.94102 0.45328 0.76345 0.0
H1166 H 0.92197 0.48991 0.7659 0.0
C1167 C 0.86453 0.60923 0.77098 0.0
C1168 C 0.84686 0.52618 0.76642 0.0
H1169 H 0.87581 0.48556 0.78177 0.0
C1170 C 0.84255 0.5121 0.75464 0.0
C1171 C 0.85823 0.51588 0.77639 0.0
C1172 C 0.862 0.52908 0.78939 0.0
C1173 C 0.85086 0.48917 0.7524 0.0
C1174 C 0.86329 0.47967 0.76228 0.0
C1175 C 0.86649 0.49296 0.77417 0.0
C1176 C 0.87458 0.45714 0.76039 0.0
C1177 C 0.84765 0.47641 0.73935 0.0
C1178 C 0.85429 0.42639 0.75648 0.0
C1179 C 0.86523 0.40538 0.75492 0.0
C1180 C 0.89668 0.41461 0.75731 0.0
C1181 C 0.91684 0.44543 0.76127 0.0
C1182 C 0.9059 0.46638 0.7628 0.0
H1183 H 0.84459 0.49115 0.7323 0.0
H1184 H 0.86842 0.47459 0.73675 0.0
H1185 H 0.82686 0.45269 0.73893 0.0
H1186 H 0.82989 0.41851 0.75477 0.0
H1187 H 0.84903 0.38193 0.7518 0.0
H1188 H 0.62585 0.50288 0.7338 0.0
H1189 H 0.58573 0.4477 0.73506 0.0
H1190 H 0.62287 0.4401 0.7705 0.0
H1191 H 0.66315 0.4951 0.76926 0.0
H1192 H 0.60857 0.39033 0.75544 0.0
H1193 H 0.50916 0.41232 0.75731 0.0
H1194 H 0.53354 0.4287 0.74379 0.0
H1195 H 0.54914 0.44303 0.7591 0.0
C1196 C 0.6254 0.48947 0.74188 0.0
C1197 C 0.64764 0.50345 0.75145 0.0
C1198 C 0.60241 0.45794 0.7426 0.0
C1199 C 0.60091 0.43986 0.75299 0.0
C1200 C 0.6235 0.45358 0.76241 0.0
H1201 H 0.44061 0.26523 0.77624 0.0
H1202 H 0.48373 0.3188 0.77439 0.0
C1203 C 0.6466 0.48502 0.76166 0.0
C1204 C 0.57575 0.40672 0.75412 0.0
H1205 H 0.49656 0.35959 0.75544 0.0
C1206 C 0.58407 0.38359 0.75545 0.0
C1207 C 0.54378 0.39797 0.75433 0.0
C1208 C 0.53329 0.4218 0.75368 0.0
C1209 C 0.56134 0.35197 0.75687 0.0
C1210 C 0.52935 0.34314 0.7567 0.0
C1211 C 0.52106 0.36631 0.75547 0.0
C1212 C 0.50403 0.31012 0.75804 0.0
C1213 C 0.57184 0.32844 0.75883 0.0
C1214 C 0.501 0.28731 0.74946 0.0
C1215 C 0.47643 0.25653 0.75054 0.0
C1216 C 0.45415 0.248 0.76014 0.0
C1217 C 0.45731 0.27091 0.76873 0.0
C1218 C 0.48195 0.30161 0.76768 0.0
H1219 H 0.59634 0.33968 0.76219 0.0
H1220 H 0.55663 0.3103 0.76568 0.0
H1221 H 0.57058 0.31679 0.74982 0.0
H1222 H 0.5173 0.29342 0.74177 0.0
H1223 H 0.47461 0.23957 0.7437 0.0
H1224 H 0.57966 0.21391 0.75678 0.0
H1225 H 0.63536 0.2319 0.75928 0.0
H1226 H 0.61544 0.13663 0.75893 0.0
H1227 H 0.55983 0.11841 0.7566 0.0
H1228 H 0.66753 0.21802 0.77804 0.0
H1229 H 0.6813 0.17845 0.73123 0.0
H1230 H 0.64786 0.18201 0.7354 0.0
H1231 H 0.65012 0.1484 0.74024 0.0
C1232 C 0.58706 0.19673 0.75735 0.0
C1233 C 0.56516 0.16466 0.75637 0.0
C1234 C 0.61896 0.2071 0.75872 0.0
C1235 C 0.62964 0.18565 0.75908 0.0
C1236 C 0.60782 0.15365 0.75839 0.0
H1237 H 0.79497 0.17529 0.76694 0.0
H1238 H 0.74305 0.16872 0.76532 0.0
C1239 C 0.57599 0.14327 0.75703 0.0
C1240 C 0.66354 0.19648 0.76014 0.0
H1241 H 0.72274 0.19196 0.7457 0.0
C1242 C 0.67977 0.2127 0.77091 0.0
C1243 C 0.67954 0.18975 0.75079 0.0
C1244 C 0.66393 0.17397 0.7387 0.0
C1245 C 0.71113 0.2209 0.77285 0.0
C1246 C 0.7267 0.21303 0.76371 0.0
C1247 C 0.71075 0.19785 0.75274 0.0
C1248 C 0.75867 0.21803 0.76563 0.0
C1249 C 0.72696 0.23669 0.78489 0.0
C1250 C 0.78495 0.24808 0.7665 0.0
C1251 C 0.81505 0.25202 0.76747 0.0
C1252 C 0.81935 0.22597 0.76748 0.0
C1253 C 0.79278 0.19599 0.7669 0.0
C1254 C 0.76293 0.19211 0.76595 0.0
H1255 H 0.71015 0.23626 0.79189 0.0
H1256 H 0.73936 0.22531 0.789 0.0
H1257 H 0.74453 0.26139 0.78295 0.0
H1258 H 0.78228 0.26847 0.76611 0.0
H1259 H 0.8349 0.2754 0.76789 0.0
H1260 H 0.13184 0.26696 0.58473 0.0
H1261 H 0.16827 0.24753 0.58269 0.0
H1262 H 0.0945 0.15453 0.59138 0.0
H1263 H 0.05782 0.17385 0.59371 0.0
H1264 H 0.18317 0.21532 0.60139 0.0
H1265 H 0.13331 0.14431 0.55836 0.0
H1266 H 0.12466 0.17425 0.56302 0.0
H1267 H 0.10676 0.13751 0.57106 0.0
C1268 C 0.12331 0.24242 0.58636 0.0
C1269 C 0.0918 0.22204 0.58944 0.0
C1270 C 0.14417 0.23131 0.58509 0.0
C1271 C 0.13404 0.19954 0.58674 0.0
C1272 C 0.10269 0.17905 0.58984 0.0
H1273 H 0.2513 0.11141 0.5811 0.0
H1274 H 0.20546 0.11796 0.5836 0.0
C1275 C 0.08176 0.19017 0.59117 0.0
C1276 C 0.15675 0.18835 0.58554 0.0
H1277 H 0.17769 0.14545 0.56703 0.0
C1278 C 0.18184 0.19987 0.59393 0.0
C1279 C 0.15482 0.16795 0.57586 0.0
C1280 C 0.1286 0.15534 0.56648 0.0
C1281 C 0.2054 0.19211 0.59276 0.0
C1282 C 0.20422 0.17281 0.58278 0.0
C1283 C 0.17855 0.16029 0.57465 0.0
C1284 C 0.23081 0.16769 0.58016 0.0
C1285 C 0.2316 0.20495 0.60217 0.0
C1286 C 0.25988 0.19319 0.57695 0.0
C1287 C 0.2859 0.18956 0.57551 0.0
C1288 C 0.28351 0.16023 0.57717 0.0
C1289 C 0.25398 0.13429 0.57976 0.0
C1290 C 0.22779 0.13801 0.58122 0.0
H1291 H 0.22474 0.21167 0.61102 0.0
H1292 H 0.23902 0.18768 0.60433 0.0
H1293 H 0.25196 0.2261 0.59825 0.0
H1294 H 0.2626 0.21617 0.57583 0.0
H1295 H 0.30812 0.21002 0.57336 0.0
H1296 H 0.88461 0.90269 0.57729 0.0
H1297 H 0.90443 0.95885 0.57579 0.0
H1298 H 0.82259 0.94712 0.595 0.0
H1299 H 0.80338 0.89142 0.5971 0.0
H1300 H 0.8805 0.99148 0.56448 0.0
H1301 H 0.89097 0.01593 0.61521 0.0
H1302 H 0.88486 0.97946 0.60895 0.0
H1303 H 0.85239 0.9859 0.61107 0.0
C1304 C 0.87102 0.91208 0.58138 0.0
C1305 C 0.84242 0.89236 0.5874 0.0
C1306 C 0.88231 0.94422 0.58042 0.0
C1307 C 0.86534 0.95738 0.5855 0.0
C1308 C 0.83653 0.9377 0.59128 0.0
H1309 H 0.85537 0.12239 0.5851 0.0
H1310 H 0.84992 0.07082 0.58582 0.0
C1311 C 0.82531 0.90566 0.5923 0.0
C1312 C 0.87722 0.99151 0.58456 0.0
H1313 H 0.89086 0.05505 0.60191 0.0
C1314 C 0.8833 1.00552 0.57267 0.0
C1315 C 0.88122 1.00999 0.59526 0.0
C1316 C 0.87735 0.99712 0.60834 0.0
C1317 C 0.8915 0.03697 0.57119 0.0
C1318 C 0.89376 0.05481 0.58185 0.0
C1319 C 0.88898 0.04123 0.59374 0.0
C1320 C 0.89785 0.08653 0.58083 0.0
C1321 C 0.89631 0.05063 0.55823 0.0
C1322 C 0.92676 0.11263 0.57773 0.0
C1323 C 0.93011 0.14253 0.57735 0.0
C1324 C 0.90456 0.14669 0.58003 0.0
C1325 C 0.87563 0.12027 0.58295 0.0
C1326 C 0.87239 0.09064 0.5834 0.0
H1327 H 0.89188 0.03313 0.55085 0.0
H1328 H 0.88056 0.06027 0.55671 0.0
H1329 H 0.92066 0.07015 0.55727 0.0
H1330 H 0.94676 0.10991 0.57579 0.0
H1331 H 0.95269 0.1623 0.57505 0.0
H1332 H 0.17554 0.9558 0.61081 0.0
H1333 H 0.12035 0.91551 0.60983 0.0
H1334 H 0.11654 0.93969 0.57141 0.0
H1335 H 0.17162 0.97996 0.5723 0.0
H1336 H 0.06545 0.93131 0.58521 0.0
H1337 H 0.08604 0.83188 0.59197 0.0
H1338 H 0.10223 0.86095 0.60402 0.0
H1339 H 0.1171 0.87073 0.58833 0.0
C1340 C 0.163 0.95243 0.60213 0.0
C1341 C 0.17809 0.97107 0.59162 0.0
C1342 C 0.13145 0.92937 0.60158 0.0
C1343 C 0.11441 0.92424 0.59048 0.0
C1344 C 0.12921 0.94319 0.58007 0.0
H1345 H 0.94056 0.75974 0.57015 0.0
H1346 H 0.99424 0.80277 0.57174 0.0
C1347 C 0.1607 0.96631 0.58061 0.0
C1348 C 0.0812 0.89904 0.58967 0.0
H1349 H 0.03341 0.82012 0.59188 0.0
C1350 C 0.05841 0.90699 0.58667 0.0
C1351 C 0.0721 0.86726 0.59141 0.0
C1352 C 0.09563 0.85705 0.594 0.0
C1353 C 0.02677 0.88408 0.58548 0.0
C1354 C 1.01758 0.85238 0.58752 0.0
C1355 C 0.04041 0.84443 0.59042 0.0
C1356 C 0.98456 0.82692 0.58636 0.0
C1357 C 1.00359 0.89397 0.58174 0.0
C1358 C 0.96115 0.82607 0.59408 0.0
C1359 C 0.9303 0.8015 0.59316 0.0
C1360 C 0.92228 0.77711 0.58457 0.0
C1361 C 0.94581 0.77809 0.57686 0.0
C1362 C 0.97658 0.80268 0.57776 0.0
H1363 H 1.01527 0.91752 0.5774 0.0
H1364 H 0.98615 0.87713 0.57506 0.0
H1365 H 0.99098 0.89479 0.59018 0.0
H1366 H 0.96682 0.84415 0.60096 0.0
H1367 H 0.91286 0.80145 0.5993 0.0
H1368 H 0.46483 0.9937 0.05434 0.0
H1369 H 0.47487 0.99388 0.03216 0.0
H1370 H 0.57315 0.05593 0.03842 0.0
H1371 H 0.56301 0.05669 0.06092 0.0
H1372 H 0.55489 0.07423 0.01872 0.0
H1373 H 0.50854 0.94824 0.01316 0.0
H1374 H 0.47938 0.95441 0.02034 0.0
H1375 H 0.51572 0.96636 0.02835 0.0
C1376 C 0.48872 1.00726 0.0511 0.0
C1377 C 0.51318 0.02498 0.05949 0.0
C1378 C 0.49446 1.00707 0.03835 0.0
C1379 C 0.5249 0.02405 0.03358 0.0
C1380 C 0.54948 0.04223 0.04188 0.0
H1381 H 0.53262 0.99526 0.95206 0.0
H1382 H 0.54337 0.99566 0.97455 0.0
C1383 C 0.54367 0.04272 0.05473 0.0
C1384 C 0.53016 0.02407 0.01984 0.0
H1385 H 0.507 0.97571 0.99445 0.0
C1386 C 0.54497 0.05267 0.01345 0.0
C1387 C 0.51814 0.99606 0.01286 0.0
C1388 C 0.50491 0.9646 0.01908 0.0
C1389 C 0.54586 0.05393 1.00031 0.0
C1390 C 0.53059 0.02585 0.99334 0.0
C1391 C 0.51804 0.9973 0.99972 0.0
C1392 C 0.52493 0.02568 0.97963 0.0
C1393 C 0.56284 0.08548 0.99408 0.0
C1394 C 0.51024 0.0416 0.97502 0.0
C1395 C 0.5044 0.04163 0.96227 0.0
C1396 C 0.51246 0.02517 0.95375 0.0
C1397 C 0.52623 1.00826 0.95837 0.0
C1398 C 0.53245 1.00856 0.97121 0.0
H1399 H 0.58261 0.10245 0.99993 0.0
H1400 H 0.57201 0.08421 0.98475 0.0
H1401 H 0.54657 0.0946 0.99291 0.0
H1402 H 0.50297 0.05391 0.98131 0.0
H1403 H 0.49321 0.05445 0.95913 0.0
H1404 H 0.05047 0.47542 0.96013 0.0
H1405 H 0.04873 0.48477 0.98237 0.0
H1406 H 0.03801 0.56413 0.97409 0.0
H1407 H 0.03946 0.55472 0.95159 0.0
H1408 H 0.08642 0.53822 0.99721 0.0
H1409 H 0.96158 0.50756 0.99657 0.0
H1410 H 0.97908 0.49792 0.98378 0.0
H1411 H 0.98802 0.53745 0.986 0.0
C1412 C 0.04797 0.49506 0.96298 0.0
C1413 C 0.04487 0.51419 0.95405 0.0
C1414 C 0.04703 0.50039 0.97573 0.0
C1415 C 0.04277 0.52485 0.9799 0.0
C1416 C 0.04083 0.54482 0.97106 0.0
H1417 H 0.02248 0.54568 0.06146 0.0
H1418 H 0.02756 0.55842 0.03902 0.0
C1419 C 0.04194 0.53957 0.95822 0.0
C1420 C 0.03956 0.5283 0.99353 0.0
H1421 H 0.98533 0.51446 0.01622 0.0
C1422 C 0.06452 0.53368 1.00136 0.0
C1423 C 1.01093 0.52229 0.99894 0.0
C1424 C 0.98321 0.51579 0.99096 0.0
C1425 C 0.06117 0.53181 0.01441 0.0
C1426 C 0.03207 0.5241 0.01978 0.0
C1427 C 1.00761 0.52044 0.01204 0.0
C1428 C 0.02577 0.51574 0.03319 0.0
C1429 C 0.08835 0.53669 0.0224 0.0
C1430 C 0.02214 0.48721 0.03723 0.0
C1431 C 0.01912 0.47984 0.04993 0.0
C1432 C 0.01971 0.50089 0.05891 0.0
C1433 C 0.02188 0.52893 0.0548 0.0
C1434 C 0.02487 0.53629 0.042 0.0
H1435 H 0.11078 0.54881 0.01719 0.0
H1436 H 0.09015 0.55048 0.03086 0.0
H1437 H 0.08462 0.51369 0.02552 0.0
H1438 H 0.02252 0.47095 0.03056 0.0
H1439 H 1.01726 0.45793 0.0527 0.0
H1440 H 0.59776 0.56398 0.95786 0.0
H1441 H 0.58786 0.55425 0.98006 0.0
H1442 H 0.48915 0.51492 0.97374 0.0
H1443 H 0.4991 0.52562 0.95121 0.0
H1444 H 0.50659 0.55167 0.99353 0.0
H1445 H 0.55631 0.47477 0.99887 0.0
H1446 H 0.58466 0.5105 0.99168 0.0
H1447 H 0.54847 0.48533 0.98372 0.0
C1448 C 0.57381 0.553 0.9611 0.0
C1449 C 0.54915 0.54525 0.95268 0.0
C1450 C 0.56818 0.54718 0.97385 0.0
C1451 C 0.53767 0.53284 0.9786 0.0
C1452 C 0.51289 0.52556 0.97029 0.0
H1453 H 0.5317 0.49542 0.0599 0.0
H1454 H 0.52071 0.48539 0.03742 0.0
C1455 C 0.51858 0.53174 0.95742 0.0
C1456 C 0.5325 0.52742 0.99233 0.0
H1457 H 0.55685 0.50306 0.01763 0.0
C1458 C 0.51704 0.54047 0.99877 0.0
C1459 C 0.54522 0.51198 0.99926 0.0
C1460 C 0.55924 0.49455 0.99298 0.0
C1461 C 0.51614 0.54066 0.01191 0.0
C1462 C 0.53204 0.52842 0.01883 0.0
C1463 C 0.54529 0.51315 0.0124 0.0
C1464 C 0.53758 0.53371 0.03255 0.0
C1465 C 0.49844 0.55439 0.0182 0.0
C1466 C 0.5514 0.56417 0.03728 0.0
C1467 C 0.55737 0.56984 0.05003 0.0
C1468 C 0.55032 0.5453 0.05843 0.0
C1469 C 0.53733 0.51482 0.05369 0.0
C1470 C 0.53096 0.50908 0.04086 0.0
H1471 H 0.47842 0.55105 0.01237 0.0
H1472 H 0.4895 0.54376 0.02752 0.0
H1473 H 0.51414 0.57987 0.01939 0.0
H1474 H 0.55798 0.58378 0.03108 0.0
H1475 H 0.56791 0.59371 0.05328 0.0
H1476 H 0.12784 0.3299 0.38658 0.0
H1477 H 0.13725 0.32936 0.36435 0.0
H1478 H 0.23616 0.38836 0.37032 0.0
H1479 H 0.22671 0.38984 0.39284 0.0
H1480 H 0.21861 0.40727 0.35047 0.0
H1481 H 0.16815 0.28037 0.34586 0.0
H1482 H 0.14008 0.28834 0.35295 0.0
H1483 H 0.17627 0.29931 0.3609 0.0
C1484 C 0.1517 0.34266 0.38325 0.0
C1485 C 0.17658 0.35968 0.39155 0.0
C1486 C 0.15707 0.34207 0.37048 0.0
C1487 C 0.1875 0.35791 0.36565 0.0
C1488 C 0.21248 0.37553 0.37385 0.0
H1489 H 0.19375 0.3237 0.28469 0.0
H1490 H 0.20469 0.32554 0.3072 0.0
C1491 C 0.20706 0.37644 0.3867 0.0
C1492 C 0.19249 0.35717 0.35193 0.0
H1493 H 0.16807 0.30767 0.32691 0.0
C1494 C 0.20808 0.38546 0.34535 0.0
C1495 C 0.17965 0.32879 0.34517 0.0
C1496 C 0.16545 0.29754 0.35163 0.0
C1497 C 0.20907 0.38613 0.33221 0.0
C1498 C 0.19312 0.35778 0.32544 0.0
C1499 C 0.17968 0.32947 0.33203 0.0
C1500 C 0.18774 0.35713 0.3117 0.0
C1501 C 0.2269 0.41733 0.32576 0.0
C1502 C 0.17394 0.37358 0.30676 0.0
C1503 C 0.16798 0.37279 0.29399 0.0
C1504 C 0.17504 0.35495 0.28579 0.0
C1505 C 0.18811 0.33772 0.29074 0.0
C1506 C 0.19444 0.33883 0.30359 0.0
H1507 H 0.24687 0.43416 0.33156 0.0
H1508 H 0.23593 0.41529 0.31651 0.0
H1509 H 0.21126 0.42712 0.32439 0.0
H1510 H 0.16733 0.38684 0.31282 0.0
H1511 H 0.1574 0.38596 0.29059 0.0
H1512 H 0.74671 0.85771 0.39118 0.0
H1513 H 0.74546 0.86276 0.3686 0.0
H1514 H 0.64797 0.83521 0.3705 0.0
H1515 H 0.64902 0.83021 0.39335 0.0
H1516 H 0.70777 0.81282 0.35312 0.0
H1517 H 0.685 0.91099 0.34638 0.0
H1518 H 0.69925 0.90439 0.36095 0.0
H1519 H 0.65884 0.88069 0.35686 0.0
C1520 C 0.72499 0.85306 0.38688 0.0
C1521 C 0.69785 0.8433 0.39411 0.0
C1522 C 0.72438 0.85604 0.37393 0.0
C1523 C 0.69671 0.84949 0.36783 0.0
C1524 C 0.66974 0.84084 0.37502 0.0
H1525 H 0.6461 0.79508 0.29135 0.0
H1526 H 0.64829 0.80313 0.31386 0.0
C1527 C 0.67033 0.8379 0.38808 0.0
C1528 C 0.69583 0.84906 0.35393 0.0
H1529 H 0.68412 0.88295 0.32818 0.0
C1530 C 0.70271 0.82826 0.34769 0.0
C1531 C 0.68942 0.86934 0.34683 0.0
C1532 C 0.68294 0.89284 0.35305 0.0
C1533 C 0.70294 0.82687 0.33459 0.0
C1534 C 0.69604 0.84673 0.3275 0.0
C1535 C 0.68947 0.86782 0.33367 0.0
C1536 C 0.69399 0.84435 0.31368 0.0
C1537 C 0.71037 0.80402 0.32836 0.0
C1538 C 0.71888 0.86526 0.30606 0.0
C1539 C 0.71785 0.86069 0.29307 0.0
C1540 C 0.69187 0.8351 0.28753 0.0
C1541 C 0.66662 0.81493 0.29523 0.0
C1542 C 0.66771 0.8195 0.30813 0.0
H1543 H 0.71935 0.79329 0.33509 0.0
H1544 H 0.68891 0.78514 0.32395 0.0
H1545 H 0.72797 0.81579 0.32085 0.0
H1546 H 0.73944 0.88454 0.31021 0.0
H1547 H 0.73766 0.87667 0.28744 0.0
H1548 H 0.22217 0.83257 0.28504 0.0
H1549 H 0.21655 0.82492 0.30763 0.0
H1550 H 0.1833 0.89042 0.31006 0.0
H1551 H 0.18751 0.89693 0.28726 0.0
H1552 H 0.24933 0.86681 0.3237 0.0
H1553 H 0.12581 0.82709 0.33462 0.0
H1554 H 0.13915 0.82739 0.31888 0.0
H1555 H 0.1433 0.86252 0.32571 0.0
C1556 C 0.21287 0.84472 0.29037 0.0
C1557 C 0.20527 0.86535 0.28442 0.0
C1558 C 0.20971 0.84038 0.30329 0.0
C1559 C 0.19936 0.85695 0.31064 0.0
C1560 C 0.1906 0.87673 0.30464 0.0
H1561 H 0.26146 0.92243 0.38459 0.0
H1562 H 0.25209 0.91242 0.36238 0.0
C1563 C 0.19314 0.88058 0.2916 0.0
C1564 C 0.20144 0.85619 0.32454 0.0
H1565 H 0.16198 0.84841 0.35182 0.0
C1566 C 0.22998 0.86232 0.3298 0.0
C1567 C 0.17623 0.84996 0.33261 0.0
C1568 C 0.14431 0.84104 0.32766 0.0
C1569 C 0.23435 0.86341 0.34278 0.0
C1570 C 0.20986 0.85926 0.35083 0.0
C1571 C 0.18089 0.85194 0.34565 0.0
C1572 C 0.2148 0.8647 0.36453 0.0
C1573 C 0.26533 0.86908 0.34773 0.0
C1574 C 0.19637 0.84142 0.37326 0.0
C1575 C 0.20152 0.84717 0.38615 0.0
C1576 C 0.22511 0.87636 0.3905 0.0
C1577 C 0.24331 0.89953 0.38167 0.0
C1578 C 0.23807 0.89383 0.36889 0.0
H1579 H 0.27703 0.86124 0.34096 0.0
H1580 H 0.28093 0.89445 0.34925 0.0
H1581 H 0.26252 0.85682 0.35674 0.0
H1582 H 0.17813 0.81881 0.3701 0.0
H1583 H 0.1869 0.8289 0.39267 0.0
H1584 H 0.84131 0.64277 0.72735 0.0
H1585 H 0.84675 0.6409 0.70475 0.0
H1586 H 0.88282 0.74017 0.70258 0.0
H1587 H 0.87871 0.74226 0.72539 0.0
H1588 H 0.8148 0.65173 0.68875 0.0
H1589 H 0.93913 0.73248 0.67792 0.0
H1590 H 0.92553 0.71938 0.69363 0.0
H1591 H 0.92258 0.75119 0.68692 0.0
C1592 C 0.85119 0.66435 0.72208 0.0
C1593 C 0.85961 0.69267 0.72811 0.0
C1594 C 0.85424 0.66325 0.70914 0.0
C1595 C 0.86532 0.69037 0.70186 0.0
C1596 C 0.87492 0.71899 0.70794 0.0
H1597 H 0.80495 0.69664 0.62773 0.0
H1598 H 0.81398 0.69579 0.64998 0.0
C1599 C 0.87246 0.72019 0.72099 0.0
C1600 C 0.86318 0.6878 0.68795 0.0
H1601 H 0.90318 0.71878 0.66072 0.0
C1602 C 0.83434 0.66617 0.68267 0.0
C1603 C 0.88864 0.70624 0.67991 0.0
C1604 C 0.92079 0.72838 0.68489 0.0
C1605 C 0.82997 0.66313 0.66968 0.0
C1606 C 0.85481 0.68295 0.66166 0.0
C1607 C 0.88401 0.70382 0.66686 0.0
C1608 C 0.85009 0.68363 0.64794 0.0
C1609 C 0.79864 0.63864 0.66471 0.0
C1610 C 0.868 0.67787 0.63927 0.0
C1611 C 0.86304 0.67857 0.62637 0.0
C1612 C 0.84017 0.68517 0.62194 0.0
C1613 C 0.82252 0.69109 0.63071 0.0
C1614 C 0.82758 0.69053 0.64351 0.0
H1615 H 0.78631 0.61919 0.67147 0.0
H1616 H 0.78382 0.64929 0.66314 0.0
H1617 H 0.80108 0.62888 0.65571 0.0
H1618 H 0.88567 0.67269 0.64248 0.0
H1619 H 0.87723 0.67416 0.61989 0.0
H1620 H 0.41768 0.22174 0.61715 0.0
H1621 H 0.41958 0.2306 0.63984 0.0
H1622 H 0.3254 0.1538 0.6434 0.0
H1623 H 0.32304 0.14528 0.62099 0.0
H1624 H 0.33562 0.20328 0.65823 0.0
H1625 H 0.42919 0.17328 0.66461 0.0
H1626 H 0.43819 0.20542 0.65433 0.0
H1627 H 0.40847 0.16673 0.65006 0.0
C1628 C 0.39729 0.20702 0.62277 0.0
C1629 C 0.37037 0.18257 0.61723 0.0
C1630 C 0.39846 0.21197 0.63574 0.0
C1631 C 0.37279 0.19251 0.64337 0.0
C1632 C 0.34554 0.16908 0.63775 0.0
H1633 H 0.3526 0.12409 0.71718 0.0
H1634 H 0.35591 0.1356 0.69492 0.0
C1635 C 0.34433 0.16415 0.62488 0.0
C1636 C 0.37423 0.19484 0.65726 0.0
H1637 H 0.40769 0.1816 0.68271 0.0
C1638 C 0.35167 0.199 0.66361 0.0
C1639 C 0.39498 0.18892 0.66427 0.0
C1640 C 0.41896 0.18309 0.65802 0.0
C1641 C 0.34854 0.19626 0.6767 0.0
C1642 C 0.36882 0.18961 0.68366 0.0
C1643 C 0.39217 0.18671 0.67736 0.0
C1644 C 0.36459 0.18266 0.6973 0.0
C1645 C 0.32254 0.19886 0.68291 0.0
C1646 C 0.36773 0.2051 0.70612 0.0
C1647 C 0.36557 0.19845 0.71897 0.0
C1648 C 0.36057 0.16937 0.7232 0.0
C1649 C 0.35659 0.14678 0.71429 0.0
C1650 C 0.35858 0.15335 0.70153 0.0
H1651 H 0.30536 0.19806 0.67602 0.0
H1652 H 0.31008 0.17978 0.6898 0.0
H1653 H 0.33255 0.22136 0.68799 0.0
H1654 H 0.3728 0.22804 0.7031 0.0
H1655 H 0.36905 0.21648 0.72558 0.0
H1656 H 0.86056 0.23539 0.62262 0.0
H1657 H 0.85549 0.22892 0.64546 0.0
H1658 H 0.90971 0.18266 0.64465 0.0
H1659 H 0.91561 0.18984 0.62208 0.0
H1660 H 0.83246 0.17882 0.6617 0.0
H1661 H 0.96008 0.25364 0.66835 0.0
H1662 H 0.94138 0.25068 0.65356 0.0
H1663 H 0.95018 0.22103 0.6583 0.0
C1664 C 0.87111 0.2236 0.62733 0.0
C1665 C 0.8889 0.21359 0.62058 0.0
C1666 C 0.86826 0.21994 0.64037 0.0
C1667 C 0.88297 0.20607 0.64683 0.0
C1668 C 0.89901 0.19433 0.63996 0.0
H1669 H 0.90758 0.17904 0.72612 0.0
H1670 H 0.90195 0.17253 0.7033 0.0
C1671 C 0.90221 0.19832 0.62702 0.0
C1672 C 0.88265 0.20474 0.66074 0.0
H1673 H 0.93063 0.22651 0.68624 0.0
C1674 C 0.85391 0.18931 0.66706 0.0
C1675 C 0.91068 0.21852 0.66777 0.0
C1676 C 0.94231 0.23717 0.66167 0.0
C1677 C 0.8525 0.18698 0.68019 0.0
C1678 C 0.88052 0.20049 0.68716 0.0
C1679 C 0.9092 0.21576 0.68086 0.0
C1680 C 0.88075 0.2013 0.70104 0.0
C1681 C 0.82109 0.16994 0.68653 0.0
C1682 C 0.87058 0.21946 0.7073 0.0
C1683 C 0.87404 0.22345 0.72024 0.0
C1684 C 0.88766 0.20925 0.72723 0.0
C1685 C 0.89684 0.19011 0.72101 0.0
C1686 C 0.8937 0.18644 0.70799 0.0
H1687 H 0.8023 0.15474 0.67991 0.0
H1688 H 0.82148 0.15545 0.69438 0.0
H1689 H 0.81531 0.18721 0.69043 0.0
H1690 H 0.86097 0.2315 0.70212 0.0
H1691 H 0.86661 0.23826 0.72473 0.0
H1692 H 0.25063 0.8692 0.20455 0.0
H1693 H 0.28767 0.88291 0.18703 0.0
H1694 H 0.33529 0.97891 0.19894 0.0
H1695 H 0.29896 0.9655 0.21632 0.0
H1696 H 0.30537 0.92544 0.16708 0.0
H1697 H 0.40565 0.95847 0.19857 0.0
H1698 H 0.3657 0.93684 0.20391 0.0
H1699 H 0.38497 0.97859 0.2023 0.0
C1700 C 0.26866 0.89329 0.20327 0.0
C1701 C 0.27194 0.91619 0.21189 0.0
C1702 C 0.28998 0.90107 0.19332 0.0
C1703 C 0.3149 0.93182 0.19188 0.0
C1704 C 0.31693 0.95489 0.20005 0.0
H1705 H 0.42864 0.03394 0.12999 0.0
H1706 H 0.39184 1.01003 0.14717 0.0
C1707 C 0.29588 0.94718 0.20995 0.0
C1708 C 0.33907 0.9403 0.18194 0.0
H1709 H 0.41816 0.97727 0.17742 0.0
C1710 C 0.32998 0.93638 0.16935 0.0
C1711 C 0.37125 0.95403 0.18484 0.0
C1712 C 0.38249 0.95694 0.19814 0.0
C1713 C 0.35222 0.94741 0.15964 0.0
C1714 C 0.3845 0.96331 0.16258 0.0
C1715 C 0.39352 0.96557 0.17514 0.0
C1716 C 0.40898 0.97936 0.15278 0.0
C1717 C 0.34089 0.94218 0.14629 0.0
C1718 C 0.43231 0.97151 0.15062 0.0
C1719 C 0.4539 0.98558 0.14079 0.0
C1720 C 0.45251 1.00778 0.13302 0.0
C1721 C 0.43023 0.01672 0.1357 0.0
C1722 C 0.4089 1.00283 0.14547 0.0
H1723 H 0.31694 0.92178 0.14551 0.0
H1724 H 0.34018 0.96302 0.14293 0.0
H1725 H 0.35668 0.93841 0.14007 0.0
H1726 H 0.43312 0.95374 0.15625 0.0
H1727 H 0.47063 0.97804 0.13893 0.0
H1728 H 1.0121 0.44465 0.1392 0.0
H1729 H 0.02693 0.42294 0.15684 0.0
H1730 H 0.12371 0.47816 0.14621 0.0
H1731 H 0.10914 0.49943 0.12862 0.0
H1732 H 0.10668 0.41726 0.1495 0.0
H1733 H 0.06833 0.45894 0.19026 0.0
H1734 H 0.03834 0.43817 0.17887 0.0
H1735 H 0.07192 0.47486 0.17477 0.0
C1736 C 0.03657 0.45272 0.14083 0.0
C1737 C 0.05938 0.47381 0.13249 0.0
C1738 C 0.04507 0.44026 0.15091 0.0
C1739 C 0.07653 0.44896 0.15292 0.0
C1740 C 0.09932 0.47095 0.14488 0.0
H1741 H 0.17822 0.39434 0.20519 0.0
H1742 H 0.1641 0.41624 0.18737 0.0
C1743 C 0.09089 0.48321 0.13482 0.0
C1744 C 0.08586 0.434 0.16286 0.0
H1745 H 0.08461 0.42218 0.19439 0.0
C1746 C 0.10195 0.41845 0.15933 0.0
C1747 C 0.07979 0.43553 0.17569 0.0
C1748 C 0.06391 0.453 0.18018 0.0
C1749 C 0.11156 0.40396 0.16821 0.0
C1750 C 0.10538 0.40539 0.18103 0.0
C1751 C 0.08937 0.42102 0.18456 0.0
C1752 C 0.11434 0.39012 0.19096 0.0
C1753 C 0.12754 0.38656 0.16374 0.0
C1754 C 0.09122 0.36792 0.19884 0.0
C1755 C 0.09925 0.35555 0.20897 0.0
C1756 C 0.13065 0.36502 0.21155 0.0
C1757 C 0.15382 0.3862 0.20335 0.0
C1758 C 0.14573 0.39879 0.19318 0.0
H1759 H 0.12357 0.38103 0.15361 0.0
H1760 H 0.15305 0.40125 0.16526 0.0
H1761 H 0.1192 0.3645 0.16903 0.0
H1762 H 0.06689 0.36071 0.19734 0.0
H1763 H 0.08078 0.33925 0.21508 0.0
H1764 H 0.64952 0.79692 0.20717 0.0
H1765 H 0.62685 0.7613 0.18923 0.0
H1766 H 0.679 0.71617 0.19929 0.0
H1767 H 0.70126 0.75108 0.21709 0.0
H1768 H 0.65239 0.74695 0.16852 0.0
H1769 H 0.58937 0.6434 0.19893 0.0
H1770 H 0.60644 0.68273 0.20481 0.0
H1771 H 0.63028 0.66515 0.20243 0.0
C1772 C 0.65653 0.77977 0.20539 0.0
C1773 C 0.67702 0.77671 0.21362 0.0
C1774 C 0.64339 0.75926 0.19521 0.0
C1775 C 0.65047 0.73538 0.19313 0.0
C1776 C 0.67237 0.73368 0.2009 0.0
H1777 H 0.64183 0.62933 0.1291 0.0
H1778 H 0.65386 0.66439 0.14681 0.0
C1779 C 0.68532 0.75392 0.21103 0.0
C1780 C 0.63521 0.71196 0.18294 0.0
H1781 H 0.59568 0.6333 0.17744 0.0
C1782 C 0.63963 0.72213 0.17048 0.0
C1783 C 0.61794 0.67949 0.18546 0.0
C1784 C 0.61041 0.66702 0.19864 0.0
C1785 C 0.62887 0.70076 0.16049 0.0
C1786 C 0.61374 0.66829 0.16301 0.0
C1787 C 0.60769 0.65812 0.17547 0.0
C1788 C 0.60595 0.64487 0.15285 0.0
C1789 C 0.63411 0.71322 0.14731 0.0
C1790 C 0.57509 0.6208 0.15072 0.0
C1791 C 0.56808 0.60021 0.14059 0.0
C1792 C 0.59188 0.60337 0.13246 0.0
C1793 C 0.62286 0.6264 0.13508 0.0
C1794 C 0.62979 0.64673 0.14516 0.0
H1795 H 0.63654 0.73676 0.14697 0.0
H1796 H 0.65603 0.71527 0.14362 0.0
H1797 H 0.61464 0.69741 0.14107 0.0
H1798 H 0.55632 0.61863 0.15664 0.0
H1799 H 0.54399 0.58287 0.13878 0.0
H1800 H 0.05126 0.46579 0.87368 0.0
H1801 H 0.03674 0.43006 0.85574 0.0
H1802 H 0.94014 0.38598 0.86689 0.0
H1803 H 0.95424 0.42147 0.88454 0.0
H1804 H 1.0077 0.36489 0.85721 0.0
H1805 H 0.93426 0.39843 0.82971 0.0
H1806 H 0.96034 0.42296 0.84183 0.0
H1807 H 0.92273 0.39045 0.8458 0.0
C1808 C 0.02687 0.44902 0.8721 0.0
C1809 C 1.00395 0.44664 0.88053 0.0
C1810 C 1.0186 0.42844 0.8619 0.0
C1811 C 0.98726 0.40544 0.85987 0.0
C1812 C 0.96436 0.4038 0.86807 0.0
H1813 H 0.88735 0.24922 0.8078 0.0
H1814 H 0.90169 0.28426 0.82598 0.0
C1815 C 0.97255 0.42413 0.87823 0.0
C1816 C 0.97843 0.3817 0.84976 0.0
H1817 H 0.93051 0.34988 0.82446 0.0
C1818 C 0.99103 0.3618 0.84999 0.0
C1819 C 0.95636 0.37732 0.8404 0.0
C1820 C 0.94284 0.3986 0.83932 0.0
C1821 C 0.98186 0.33746 0.84127 0.0
C1822 C 0.95978 0.33308 0.83192 0.0
C1823 C 0.94716 0.35295 0.83169 0.0
C1824 C 0.95112 0.30951 0.82176 0.0
C1825 C 0.99547 0.31625 0.8423 0.0
C1826 C 0.97407 0.31171 0.81345 0.0
C1827 C 0.96596 0.29181 0.80314 0.0
C1828 C 0.93464 0.26917 0.80083 0.0
C1829 C 0.9117 0.26609 0.80941 0.0
C1830 C 0.91986 0.28629 0.81973 0.0
H1831 H 1.00424 0.3165 0.85188 0.0
H1832 H 0.97794 0.29187 0.83983 0.0
H1833 H 1.01544 0.32438 0.83574 0.0
H1834 H 0.99822 0.32969 0.81463 0.0
H1835 H 0.98423 0.29494 0.79671 0.0
H1836 H 0.63397 0.63903 0.88236 0.0
H1837 H 0.67039 0.65241 0.865 0.0
H1838 H 0.62919 0.55505 0.85559 0.0
H1839 H 0.59207 0.54141 0.87304 0.0
H1840 H 0.71453 0.63455 0.86237 0.0
H1841 H 0.63419 0.59528 0.82161 0.0
H1842 H 0.62207 0.60002 0.83698 0.0
H1843 H 0.62564 0.56646 0.83351 0.0
C1844 C 0.63219 0.62039 0.87648 0.0
C1845 C 0.60997 0.58911 0.87908 0.0
C1846 C 0.65323 0.62812 0.86658 0.0
C1847 C 0.65271 0.60484 0.85895 0.0
C1848 C 0.62987 0.57353 0.86123 0.0
H1849 H 0.81235 0.65149 0.80785 0.0
H1850 H 0.77546 0.62926 0.82544 0.0
C1851 C 0.60856 0.56573 0.87118 0.0
C1852 C 0.67703 0.61382 0.84902 0.0
H1853 H 0.68775 0.61654 0.81737 0.0
C1854 C 0.70867 0.63038 0.85253 0.0
C1855 C 0.66947 0.60855 0.83617 0.0
C1856 C 0.63604 0.59183 0.83177 0.0
C1857 C 0.73282 0.64246 0.84357 0.0
C1858 C 0.72525 0.63753 0.83071 0.0
C1859 C 0.69363 0.62026 0.82722 0.0
C1860 C 0.74936 0.65224 0.82067 0.0
C1861 C 0.76616 0.66157 0.84793 0.0
C1862 C 0.74731 0.67276 0.8122 0.0
C1863 C 0.7682 0.68534 0.80222 0.0
C1864 C 0.79183 0.67779 0.80037 0.0
C1865 C 0.79473 0.65814 0.8091 0.0
C1866 C 0.77357 0.64534 0.81914 0.0
H1867 H 0.76766 0.66854 0.85789 0.0
H1868 H 0.77791 0.64758 0.84695 0.0
H1869 H 0.77912 0.68293 0.84215 0.0
H1870 H 0.72908 0.67867 0.81319 0.0
H1871 H 0.76524 0.70043 0.7957 0.0
H1872 H 0.35454 0.11904 0.80466 0.0
H1873 H 0.36892 0.09931 0.82313 0.0
H1874 H 0.46438 0.14455 0.8104 0.0
H1875 H 0.45047 0.1645 0.79222 0.0
H1876 H 0.39433 0.05981 0.82276 0.0
H1877 H 0.47528 0.17004 0.84692 0.0
H1878 H 0.44878 0.16799 0.83488 0.0
H1879 H 0.48491 0.16979 0.83076 0.0
C1880 C 0.3787 0.12538 0.80597 0.0
C1881 C 0.40131 0.14346 0.79695 0.0
C1882 C 0.38688 0.11392 0.81648 0.0
C1883 C 0.41786 0.12069 0.81826 0.0
C1884 C 0.4405 0.13946 0.80943 0.0
H1885 H 0.51532 0.06507 0.87206 0.0
H1886 H 0.50145 0.0849 0.85346 0.0
C1887 C 0.43238 0.15074 0.79896 0.0
C1888 C 0.42642 0.10661 0.82879 0.0
H1889 H 0.47621 0.12457 0.85358 0.0
C1890 C 0.41204 0.07398 0.82956 0.0
C1891 C 0.44985 0.12504 0.8376 0.0
C1892 C 0.46541 0.16015 0.8376 0.0
C1893 C 0.42072 0.05934 0.83873 0.0
C1894 C 0.4441 0.07776 0.84755 0.0
C1895 C 0.45852 0.1104 0.84677 0.0
C1896 C 0.45242 0.06365 0.85815 0.0
C1897 C 0.40516 0.02423 0.83872 0.0
C1898 C 0.42955 0.04492 0.86691 0.0
C1899 C 0.43738 0.03358 0.87744 0.0
C1900 C 0.46836 0.04076 0.87958 0.0
C1901 C 0.49121 0.05878 0.87063 0.0
C1902 C 0.48333 0.07032 0.86005 0.0
H1903 H 0.39551 0.01438 0.82937 0.0
H1904 H 0.42173 0.01637 0.84152 0.0
H1905 H 0.3855 0.01457 0.84548 0.0
H1906 H 0.40572 0.03991 0.86584 0.0
H1907 H 0.41915 0.01988 0.88414 0.0
H1908 H 0.92585 0.21159 0.54042 0.0
H1909 H 0.96156 0.22403 0.52251 0.0
H1910 H 1.00829 0.32126 0.53267 0.0
H1911 H 0.97326 0.3091 0.55045 0.0
H1912 H 0.97684 0.2643 0.50185 0.0
H1913 H 0.07982 0.30242 0.53233 0.0
H1914 H 0.04033 0.28072 0.53817 0.0
H1915 H 0.05872 0.32222 0.53587 0.0
C1916 C 0.94338 0.23565 0.53867 0.0
C1917 C 0.94685 0.25931 0.54691 0.0
C1918 C 0.96394 0.24272 0.5285 0.0
C1919 C 0.98826 0.27349 0.52646 0.0
C1920 C 0.9904 0.29724 0.53425 0.0
H1921 H 0.09603 0.37037 0.46271 0.0
H1922 H 0.06088 0.34784 0.48047 0.0
C1923 C 0.9701 0.29025 0.54437 0.0
C1924 C 1.01171 0.28128 0.5163 0.0
H1925 H 0.09045 0.31899 0.51086 0.0
C1926 C 1.00164 0.27585 0.50383 0.0
C1927 C 0.04413 0.29581 0.51885 0.0
C1928 C 0.05641 0.30034 0.53204 0.0
C1929 C 0.02312 0.28619 0.49387 0.0
C1930 C 0.0556 0.3029 0.49642 0.0
C1931 C 0.06563 0.30666 0.50888 0.0
C1932 C 0.07919 0.31829 0.48629 0.0
C1933 C 1.0108 0.2794 0.48067 0.0
C1934 C 0.10264 0.31067 0.48405 0.0
C1935 C 0.12328 0.32395 0.47389 0.0
C1936 C 0.12076 0.3451 0.46586 0.0
C1937 C 0.09844 0.35393 0.46862 0.0
C1938 C 0.07806 0.34083 0.47872 0.0
H1939 H 0.98697 0.25868 0.48029 0.0
H1940 H 1.00943 0.29967 0.47701 0.0
H1941 H 0.02636 0.27532 0.47443 0.0
H1942 H 0.10423 0.29362 0.48987 0.0
H1943 H 0.14008 0.31653 0.47197 0.0
H1944 H 0.68635 0.7449 0.4633 0.0
H1945 H 0.707 0.73048 0.48116 0.0
H1946 H 0.75967 0.82701 0.49224 0.0
H1947 H 0.73847 0.84161 0.47435 0.0
H1948 H 0.76748 0.74817 0.48512 0.0
H1949 H 0.7226 0.78483 0.52536 0.0
H1950 H 0.70766 0.78158 0.50971 0.0
H1951 H 0.74392 0.81522 0.51415 0.0
C1952 C 0.70187 0.76308 0.46966 0.0
C1953 C 0.71069 0.79445 0.4674 0.0
C1954 C 0.71378 0.75477 0.47987 0.0
C1955 C 0.73488 0.77754 0.48813 0.0
C1956 C 0.74301 0.80886 0.48616 0.0
H1957 H 0.84295 0.77365 0.55104 0.0
H1958 H 0.82166 0.78748 0.53323 0.0
C1959 C 0.73085 0.81723 0.47593 0.0
C1960 C 0.74958 0.76838 0.49825 0.0
H1961 H 0.75978 0.76927 0.52988 0.0
C1962 C 0.76566 0.75268 0.49492 0.0
C1963 C 0.74726 0.77418 0.51105 0.0
C1964 C 0.7292 0.78961 0.51533 0.0
C1965 C 0.77986 0.74315 0.50396 0.0
C1966 C 0.77762 0.74904 0.51675 0.0
C1967 C 0.76153 0.76471 0.52008 0.0
C1968 C 0.79252 0.74009 0.52684 0.0
C1969 C 0.79779 0.72755 0.49971 0.0
C1970 C 0.78385 0.70874 0.5291 0.0
C1971 C 0.79626 0.70065 0.53933 0.0
C1972 C 0.81732 0.72377 0.54754 0.0
C1973 C 0.82673 0.75516 0.54494 0.0
C1974 C 0.81447 0.76317 0.53477 0.0
H1975 H 0.80377 0.73159 0.48962 0.0
H1976 H 0.81968 0.73612 0.50515 0.0
H1977 H 0.78329 0.70203 0.50124 0.0
H1978 H 0.7666 0.69039 0.52324 0.0
H1979 H 0.7882 0.67626 0.54115 0.0
H1980 H 0.27685 0.92046 0.47138 0.0
H1981 H 0.29765 0.95566 0.4895 0.0
H1982 H 0.24485 0.99956 0.47864 0.0
H1983 H 0.22385 0.96458 0.46083 0.0
H1984 H 0.33361 0.02059 0.48838 0.0
H1985 H 0.2262 0.98657 0.51572 0.0
H1986 H 0.22785 0.96236 0.50348 0.0
H1987 H 0.22277 0.99496 0.49968 0.0
C1988 C 0.26905 0.93704 0.47307 0.0
C1989 C 0.24857 0.93955 0.46467 0.0
C1990 C 0.28114 0.95733 0.48337 0.0
C1991 C 0.27261 0.98015 0.48554 0.0
C1992 C 0.25138 0.98187 0.47737 0.0
H1993 H 0.32864 0.1372 0.53706 0.0
H1994 H 0.30786 0.10138 0.51912 0.0
C1995 C 0.23947 0.96183 0.46712 0.0
C1996 C 0.28737 1.0037 0.49572 0.0
H1997 H 0.27081 0.03542 0.52097 0.0
C1998 C 0.31989 0.02361 0.49557 0.0
C1999 C 0.26951 1.008 0.50506 0.0
C2000 C 0.23469 0.98665 0.5061 0.0
C2001 C 0.3349 0.04794 0.50431 0.0
C2002 C 0.31702 0.0523 0.5136 0.0
C2003 C 0.28452 0.03236 0.51377 0.0
C2004 C 0.33174 0.07607 0.5237 0.0
C2005 C 0.36975 0.06917 0.50336 0.0
C2006 C 0.35229 0.07405 0.53216 0.0
C2007 C 0.36411 0.09437 0.54233 0.0
C2008 C 0.35567 0.11729 0.54437 0.0
C2009 C 0.33591 0.1201 0.53568 0.0
C2010 C 0.32385 0.09947 0.52549 0.0
H2011 H 0.37855 0.06869 0.49385 0.0
H2012 H 0.3765 0.0936 0.50569 0.0
H2013 H 0.38146 0.06128 0.51008 0.0
H2014 H 0.35835 0.05595 0.53115 0.0
H2015 H 0.37917 0.09144 0.54886 0.0
H2016 H 0.55844 0.36008 0.10869 0.0
H2017 H 0.5496 0.30723 0.10599 0.0
H2018 H 0.46701 0.28271 0.08436 0.0
H2019 H 0.47573 0.33558 0.087 0.0
H2020 H 0.49944 0.25233 0.11372 0.0
H2021 H 0.5115 0.25068 0.06214 0.0
H2022 H 0.52381 0.28629 0.07076 0.0
H2023 H 0.48318 0.26077 0.06737 0.0
C2024 C 0.5384 0.34349 0.10334 0.0
C2025 C 0.51784 0.3522 0.09805 0.0
C2026 C 0.53343 0.31326 0.10176 0.0
C2027 C 0.50786 0.29099 0.09483 0.0
C2028 C 0.48734 0.2996 0.08949 0.0
H2029 H 0.44616 0.09122 0.08356 0.0
H2030 H 0.44782 0.14176 0.08334 0.0
C2031 C 0.49235 0.3299 0.09103 0.0
C2032 C 0.50209 0.25848 0.09374 0.0
H2033 H 0.49604 0.20328 0.07288 0.0
C2034 C 0.49866 0.24166 0.10477 0.0
C2035 C 0.50078 0.24432 0.08207 0.0
C2036 C 0.50526 0.26147 0.0699 0.0
C2037 C 0.49437 0.21139 0.10448 0.0
C2038 C 0.49383 0.19754 0.09284 0.0
C2039 C 0.49638 0.21391 0.08178 0.0
C2040 C 0.49313 0.16717 0.09215 0.0
C2041 C 0.49056 0.19445 0.11666 0.0
C2042 C 0.51833 0.16488 0.09685 0.0
C2043 C 0.51751 0.13629 0.09696 0.0
C2044 C 0.49143 0.10909 0.09234 0.0
C2045 C 0.46656 0.1116 0.08722 0.0
C2046 C 0.46746 0.14045 0.0871 0.0
H2047 H 0.48331 0.20449 0.12437 0.0
H2048 H 0.47305 0.16928 0.11575 0.0
H2049 H 0.51321 0.19649 0.11927 0.0
H2050 H 0.5386 0.18527 0.10059 0.0
H2051 H 0.53732 0.13556 0.10086 0.0
H2052 H 0.6932 0.21171 0.09431 0.0
H2053 H 0.74605 0.25645 0.09206 0.0
H2054 H 0.78382 0.20422 0.10968 0.0
H2055 H 0.73127 0.15921 0.11168 0.0
H2056 H 0.78878 0.2891 0.11129 0.0
H2057 H 0.83815 0.23846 0.07829 0.0
H2058 H 0.79671 0.22126 0.08092 0.0
H2059 H 0.82053 0.21555 0.09208 0.0
C2060 C 0.71276 0.20954 0.09754 0.0
C2061 C 0.70783 0.18173 0.10318 0.0
C2062 C 0.74299 0.23524 0.09631 0.0
C2063 C 0.76905 0.23365 0.10056 0.0
C2064 C 0.76423 0.20592 0.10614 0.0
H2065 H 0.96966 0.37291 0.10308 0.0
H2066 H 0.91894 0.32444 0.10459 0.0
C2067 C 0.73404 0.18027 0.10741 0.0
C2068 C 0.80104 0.26143 0.09964 0.0
H2069 H 0.87352 0.28793 0.08687 0.0
C2070 C 0.80725 0.28884 0.10591 0.0
C2071 C 0.82533 0.26107 0.09274 0.0
C2072 C 0.81991 0.23262 0.08553 0.0
C2073 C 0.83697 0.31576 0.10553 0.0
C2074 C 0.86113 0.31565 0.09844 0.0
C2075 C 0.85508 0.28809 0.0923 0.0
C2076 C 0.8923 0.34433 0.0969 0.0
C2077 C 0.8423 0.34394 0.11294 0.0
C2078 C 0.89443 0.37135 0.0917 0.0
C2079 C 0.92319 0.39893 0.09088 0.0
C2080 C 0.95079 0.40023 0.09508 0.0
C2081 C 0.94891 0.37278 0.09977 0.0
C2082 C 0.91992 0.34507 0.10066 0.0
H2083 H 0.82518 0.33741 0.1207 0.0
H2084 H 0.8662 0.35644 0.11693 0.0
H2085 H 0.83943 0.36023 0.1067 0.0
H2086 H 0.87369 0.37123 0.0884 0.0
H2087 H 0.92365 0.41941 0.08704 0.0
H2088 H 0.63637 0.52177 0.09573 0.0
H2089 H 0.68517 0.52126 0.09486 0.0
H2090 H 0.73387 0.61801 0.08388 0.0
H2091 H 0.68464 0.61894 0.08491 0.0
H2092 H 0.72667 0.53322 0.07538 0.0
H2093 H 0.78384 0.61714 0.11438 0.0
H2094 H 0.74256 0.59918 0.11129 0.0
H2095 H 0.77008 0.6305 0.10158 0.0
C2096 C 0.65734 0.54309 0.0931 0.0
C2097 C 0.65646 0.57054 0.09049 0.0
C2098 C 0.68533 0.54266 0.09258 0.0
C2099 C 0.71337 0.56966 0.0895 0.0
C2100 C 0.71263 0.59699 0.08652 0.0
H2101 H 0.90121 0.59108 0.09253 0.0
H2102 H 0.85785 0.6006 0.08867 0.0
C2103 C 0.68442 0.59743 0.087 0.0
C2104 C 0.74303 0.56864 0.08961 0.0
H2105 H 0.81192 0.59531 0.10535 0.0
C2106 C 0.74542 0.54701 0.08186 0.0
C2107 C 0.76758 0.58662 0.09806 0.0
C2108 C 0.76599 0.60954 0.10689 0.0
C2109 C 0.77129 0.54248 0.08247 0.0
C2110 C 0.7953 0.55964 0.09123 0.0
C2111 C 0.79348 0.58207 0.09867 0.0
C2112 C 0.82171 0.55364 0.0932 0.0
C2113 C 0.77263 0.51929 0.07373 0.0
C2114 C 0.81596 0.52414 0.09712 0.0
C2115 C 0.84069 0.51858 0.09929 0.0
C2116 C 0.87186 0.54244 0.09764 0.0
C2117 C 0.87755 0.57201 0.09371 0.0
C2118 C 0.85277 0.57757 0.09159 0.0
H2119 H 0.75791 0.5152 0.06532 0.0
H2120 H 0.79694 0.52733 0.07066 0.0
H2121 H 0.76372 0.49666 0.07864 0.0
H2122 H 0.79227 0.50542 0.09866 0.0
H2123 H 0.83534 0.49549 0.10222 0.0
H2124 H 0.36915 0.5506 0.91798 0.0
H2125 H 0.31624 0.54223 0.92042 0.0
H2126 H 0.27846 0.45173 0.90328 0.0
H2127 H 0.33109 0.45952 0.9011 0.0
H2128 H 0.27304 0.53141 0.90137 0.0
H2129 H 0.22485 0.43234 0.93482 0.0
H2130 H 0.2662 0.4566 0.93201 0.0
H2131 H 0.24216 0.42673 0.92102 0.0
C2132 C 0.34958 0.52871 0.9149 0.0
C2133 C 0.35453 0.50577 0.90934 0.0
C2134 C 0.31932 0.52402 0.91624 0.0
C2135 C 0.29325 0.49618 0.91219 0.0
C2136 C 0.29807 0.47318 0.90669 0.0
H2137 H 0.09252 0.43473 0.91012 0.0
H2138 H 0.14315 0.43679 0.90853 0.0
C2139 C 0.3283 0.47787 0.90531 0.0
C2140 C 0.26122 0.49183 0.91318 0.0
H2141 H 0.18911 0.44603 0.92627 0.0
C2142 C 0.25474 0.51279 0.90685 0.0
C2143 C 0.23716 0.46732 0.92021 0.0
C2144 C 0.24288 0.44457 0.9275 0.0
C2145 C 0.225 0.50991 0.90731 0.0
C2146 C 0.20108 0.48579 0.91455 0.0
C2147 C 0.20738 0.46451 0.92073 0.0
C2148 C 0.16994 0.48331 0.91619 0.0
C2149 C 0.21937 0.53252 0.89986 0.0
C2150 C 0.16794 0.50825 0.9214 0.0
C2151 C 0.13924 0.50717 0.92227 0.0
C2152 C 0.11157 0.48094 0.9181 0.0
C2153 C 0.11331 0.45529 0.91341 0.0
C2154 C 0.14226 0.45647 0.91247 0.0
H2155 H 0.23633 0.54302 0.89205 0.0
H2156 H 0.19538 0.52093 0.89595 0.0
H2157 H 0.22223 0.55174 0.90606 0.0
H2158 H 0.18875 0.52885 0.92466 0.0
H2159 H 0.13888 0.52724 0.9261 0.0
H2160 H 0.49936 0.83526 0.91092 0.0
H2161 H 0.50572 0.78971 0.9139 0.0
H2162 H 0.60391 0.85017 0.92083 0.0
H2163 H 0.59763 0.89578 0.91821 0.0
H2164 H 0.54407 0.77494 0.89973 0.0
H2165 H 0.57792 0.78795 0.94978 0.0
H2166 H 0.56018 0.80852 0.9428 0.0
H2167 H 0.60088 0.82192 0.94033 0.0
C2168 C 0.5222 0.83891 0.91331 0.0
C2169 C 0.54796 0.86929 0.91431 0.0
C2170 C 0.52584 0.81281 0.91494 0.0
C2171 C 0.55523 0.81644 0.91773 0.0
C2172 C 0.5809 0.84669 0.9189 0.0
H2173 H 0.61965 0.68037 0.92454 0.0
H2174 H 0.61689 0.72863 0.92457 0.0
C2175 C 0.57731 0.8728 0.91725 0.0
C2176 C 0.55929 0.78863 0.91868 0.0
H2177 H 0.58143 0.7487 0.93838 0.0
C2178 C 0.55213 0.76917 0.9082 0.0
C2179 C 0.57019 0.78126 0.92968 0.0
C2180 C 0.57752 0.80082 0.94133 0.0
C2181 C 0.55561 0.74269 0.90839 0.0
C2182 C 0.56587 0.7349 0.91947 0.0
C2183 C 0.57353 0.75461 0.9299 0.0
C2184 C 0.56748 0.70569 0.92046 0.0
C2185 C 0.54869 0.72354 0.89662 0.0
C2186 C 0.54051 0.67669 0.91861 0.0
C2187 C 0.54203 0.64928 0.91853 0.0
C2188 C 0.57055 0.65003 0.92047 0.0
C2189 C 0.59734 0.67893 0.923 0.0
C2190 C 0.5958 0.70654 0.92299 0.0
H2191 H 0.55033 0.73736 0.88817 0.0
H2192 H 0.56497 0.7144 0.8955 0.0
H2193 H 0.52454 0.70344 0.89712 0.0
H2194 H 0.51823 0.67528 0.91699 0.0
H2195 H 0.52079 0.62745 0.91676 0.0
H2196 H 0.37882 0.96577 0.92758 0.0
H2197 H 0.32993 0.9153 0.92882 0.0
H2198 H 0.37962 0.86799 0.9182 0.0
H2199 H 0.42802 0.91755 0.91713 0.0
H2200 H 0.30046 0.87155 0.90971 0.0
H2201 H 0.33085 0.81759 0.94838 0.0
H2202 H 0.35265 0.85894 0.94521 0.0
H2203 H 0.36008 0.83237 0.93637 0.0
C2204 C 0.37937 0.94456 0.92571 0.0
C2205 C 0.40749 0.94589 0.92227 0.0
C2206 C 0.35138 0.91572 0.92637 0.0
C2207 C 0.35109 0.88769 0.92379 0.0
C2208 C 0.37921 0.88908 0.92051 0.0
H2209 H 0.22799 0.69307 0.90945 0.0
H2210 H 0.27098 0.74622 0.91285 0.0
C2211 C 0.40696 0.91767 0.91981 0.0
C2212 C 0.32148 0.85696 0.92379 0.0
H2213 H 0.28896 0.78238 0.93499 0.0
C2214 C 0.29767 0.85219 0.9154 0.0
C2215 C 0.31779 0.83157 0.93119 0.0
C2216 C 0.34158 0.83542 0.94088 0.0
C2217 C 0.27112 0.82249 0.91376 0.0
C2218 C 0.26804 0.79688 0.92082 0.0
C2219 C 0.29136 0.80189 0.92951 0.0
C2220 C 0.24154 0.76447 0.91896 0.0
C2221 C 0.24726 0.81846 0.90407 0.0
C2222 C 0.2106 0.75677 0.92142 0.0
C2223 C 0.18588 0.72633 0.91945 0.0
C2224 C 0.19153 0.70282 0.91497 0.0
C2225 C 0.22264 0.71057 0.91271 0.0
C2226 C 0.24731 0.74096 0.91474 0.0
H2227 H 0.25621 0.83876 0.89763 0.0
H2228 H 0.24008 0.79706 0.89846 0.0
H2229 H 0.22621 0.81601 0.90883 0.0
H2230 H 0.20554 0.77432 0.92488 0.0
H2231 H 0.16228 0.72136 0.92121 0.0
H2232 H 0.12877 0.66199 0.42688 0.0
H2233 H 0.121 0.60938 0.4246 0.0
H2234 H 0.21965 0.64568 0.4296 0.0
H2235 H 0.22752 0.69818 0.43229 0.0
H2236 H 0.14555 0.58363 0.40781 0.0
H2237 H 0.1812 0.57798 0.4564 0.0
H2238 H 0.17266 0.60763 0.45127 0.0
H2239 H 0.20988 0.61116 0.44781 0.0
C2240 C 0.14884 0.65883 0.42758 0.0
C2241 C 0.17877 0.68448 0.42991 0.0
C2242 C 0.14436 0.62869 0.42618 0.0
C2243 C 0.16962 0.62338 0.42714 0.0
C2244 C 0.19966 0.64903 0.42905 0.0
H2245 H 0.20318 0.46939 0.42622 0.0
H2246 H 0.20464 0.51919 0.42586 0.0
C2247 C 0.20418 0.67917 0.43045 0.0
C2248 C 0.16456 0.59104 0.4264 0.0
H2249 H 0.17508 0.53762 0.44269 0.0
C2250 C 0.1518 0.57346 0.41546 0.0
C2251 C 0.17241 0.57758 0.43642 0.0
C2252 C 0.18451 0.5944 0.44869 0.0
C2253 C 0.14791 0.54336 0.4141 0.0
C2254 C 0.15654 0.53028 0.42402 0.0
C2255 C 0.16859 0.54763 0.43505 0.0
C2256 C 0.15503 0.49945 0.42304 0.0
C2257 C 0.13562 0.52627 0.40192 0.0
C2258 C 0.12661 0.47142 0.42137 0.0
C2259 C 0.12565 0.44251 0.42152 0.0
C2260 C 0.15307 0.44113 0.42348 0.0
C2261 C 0.18149 0.46935 0.42479 0.0
C2262 C 0.18242 0.49801 0.42459 0.0
H2263 H 0.13647 0.54204 0.39434 0.0
H2264 H 0.14917 0.51505 0.39893 0.0
H2265 H 0.11095 0.50768 0.40319 0.0
H2266 H 0.10504 0.4718 0.42035 0.0
H2267 H 0.10336 0.42128 0.42057 0.0
H2268 H 0.58627 0.75351 0.43344 0.0
H2269 H 0.53678 0.70512 0.4318 0.0
H2270 H 0.58317 0.6604 0.41474 0.0
H2271 H 0.6335 0.70912 0.41651 0.0
H2272 H 0.50527 0.66985 0.41108 0.0
H2273 H 0.53544 0.60177 0.44392 0.0
H2274 H 0.55863 0.64366 0.44265 0.0
H2275 H 0.56129 0.61931 0.43085 0.0
C2276 C 0.5862 0.73349 0.42932 0.0
C2277 C 0.61411 0.73528 0.4252 0.0
C2278 C 0.55771 0.70577 0.42837 0.0
C2279 C 0.55621 0.67894 0.42331 0.0
C2280 C 0.58382 0.68066 0.41888 0.0
H2281 H 0.38955 0.49174 0.421 0.0
H2282 H 0.44211 0.53608 0.41753 0.0
C2283 C 0.61254 0.70859 0.41982 0.0
C2284 C 0.52554 0.64946 0.42289 0.0
H2285 H 0.48466 0.57639 0.43559 0.0
C2286 C 0.50085 0.64932 0.41636 0.0
C2287 C 0.51971 0.62263 0.42977 0.0
C2288 C 0.54502 0.62171 0.43729 0.0
C2289 C 0.47048 0.62341 0.41669 0.0
C2290 C 0.46443 0.59702 0.42392 0.0
C2291 C 0.4893 0.59667 0.43009 0.0
C2292 C 0.43224 0.57021 0.42566 0.0
C2293 C 0.44509 0.62456 0.40933 0.0
C2294 C 0.40922 0.57456 0.43146 0.0
C2295 C 0.37915 0.5493 0.43344 0.0
C2296 C 0.37139 0.51903 0.42968 0.0
C2297 C 0.39453 0.51476 0.42385 0.0
C2298 C 0.42467 0.54005 0.42193 0.0
H2299 H 0.45488 0.64194 0.40163 0.0
H2300 H 0.42861 0.60139 0.40529 0.0
H2301 H 0.43176 0.63146 0.41563 0.0
H2302 H 0.41462 0.59751 0.43462 0.0
H2303 H 0.36192 0.55351 0.43789 0.0
H2304 H 0.55985 0.92152 0.44639 0.0
H2305 H 0.51496 0.92922 0.44409 0.0
H2306 H 0.46554 0.84236 0.42405 0.0
H2307 H 0.51007 0.83406 0.42658 0.0
H2308 H 0.48442 0.93297 0.42235 0.0
H2309 H 0.40456 0.83263 0.45216 0.0
H2310 H 0.44625 0.84826 0.45202 0.0
H2311 H 0.42249 0.82297 0.43966 0.0
C2312 C 0.53934 0.90386 0.44159 0.0
C2313 C 0.53856 0.87697 0.43679 0.0
C2314 C 0.51376 0.90845 0.4402 0.0
C2315 C 0.48665 0.88619 0.43406 0.0
C2316 C 0.48598 0.85965 0.42901 0.0
H2317 H 0.30373 0.8597 0.41885 0.0
H2318 H 0.35177 0.85765 0.42023 0.0
C2319 C 0.51162 0.85507 0.43036 0.0
C2320 C 0.45907 0.89066 0.43301 0.0
H2321 H 0.38216 0.858 0.44109 0.0
C2322 C 0.46207 0.91667 0.42648 0.0
C2323 C 0.42994 0.86949 0.43846 0.0
C2324 C 0.42554 0.8419 0.44607 0.0
C2325 C 0.43651 0.92153 0.42493 0.0
C2326 C 0.40727 0.90013 0.43027 0.0
C2327 C 0.40448 0.87439 0.43695 0.0
C2328 C 0.37884 0.90311 0.42873 0.0
C2329 C 0.44085 0.94897 0.41725 0.0
C2330 C 0.37788 0.92957 0.43293 0.0
C2331 C 0.35024 0.93096 0.43206 0.0
C2332 C 0.32291 0.90574 0.42712 0.0
C2333 C 0.3242 0.87957 0.42276 0.0
C2334 C 0.35174 0.8783 0.42355 0.0
H2335 H 0.46188 0.95822 0.41118 0.0
H2336 H 0.42017 0.94249 0.41126 0.0
H2337 H 0.44384 0.96796 0.4236 0.0
H2338 H 0.39823 0.94879 0.43721 0.0
H2339 H 0.35002 0.95133 0.43561 0.0
H2340 H 0.80217 0.85742 0.24703 0.0
H2341 H 0.85165 0.85837 0.24783 0.0
H2342 H 0.80631 0.76688 0.26457 0.0
H2343 H 0.75589 0.76539 0.2636 0.0
H2344 H 0.8848 0.8548 0.26762 0.0
H2345 H 0.85209 0.75591 0.23489 0.0
H2346 H 0.82869 0.77425 0.23674 0.0
H2347 H 0.82751 0.74756 0.24839 0.0
C2348 C 0.80243 0.83733 0.2509 0.0
C2349 C 0.77475 0.81114 0.25516 0.0
C2350 C 0.83095 0.83802 0.25137 0.0
C2351 C 0.83279 0.81257 0.25608 0.0
C2352 C 0.80543 0.7866 0.26066 0.0
H2353 H 1.00039 0.7931 0.25626 0.0
H2354 H 0.94793 0.78469 0.26029 0.0
C2355 C 0.77664 0.78586 0.26019 0.0
C2356 C 0.86355 0.8138 0.25602 0.0
H2357 H 0.90352 0.78143 0.24259 0.0
C2358 C 0.8888 0.83858 0.26222 0.0
C2359 C 0.86887 0.79267 0.24898 0.0
C2360 C 0.84299 0.7662 0.24178 0.0
C2361 C 0.91918 0.84314 0.2614 0.0
C2362 C 0.92468 0.82265 0.25403 0.0
C2363 C 0.89931 0.7972 0.24819 0.0
C2364 C 0.95677 0.82804 0.25184 0.0
C2365 C 0.94519 0.86999 0.26839 0.0
C2366 C 0.97918 0.8551 0.24565 0.0
C2367 C 1.00918 0.86 0.24334 0.0
C2368 C 1.01752 0.83793 0.24716 0.0
C2369 C 0.99497 0.81082 0.25335 0.0
C2370 C 0.96488 0.80585 0.25559 0.0
H2371 H 0.93609 0.87802 0.27619 0.0
H2372 H 0.96195 0.86342 0.27224 0.0
H2373 H 0.95806 0.88988 0.26188 0.0
H2374 H 0.97335 0.87234 0.24249 0.0
H2375 H 0.02594 0.88121 0.23862 0.0
H2376 H 0.28265 1.00367 0.26125 0.0
H2377 H 0.28169 0.05283 0.2629 0.0
H2378 H 0.1871 1.00631 0.24925 0.0
H2379 H 0.18765 0.95769 0.24772 0.0
H2380 H 0.27125 0.08537 0.24351 0.0
H2381 H 0.18078 0.051 0.28005 0.0
H2382 H 0.20075 0.02946 0.27717 0.0
H2383 H 0.16833 0.02325 0.26754 0.0
C2384 C 0.26154 1.00388 0.25878 0.0
C2385 C 0.23526 0.97662 0.25436 0.0
C2386 C 0.26104 0.032 0.25968 0.0
C2387 C 0.23413 0.03321 0.25637 0.0
C2388 C 0.20791 1.00594 0.25211 0.0
H2389 H 0.16614 0.15865 0.24123 0.0
H2390 H 0.17562 0.11515 0.24453 0.0
C2391 C 0.20841 0.97809 0.25115 0.0
C2392 C 0.23341 0.06298 0.25665 0.0
H2393 H 0.18991 0.09456 0.26715 0.0
C2394 C 0.25387 0.08765 0.24885 0.0
C2395 C 0.21066 0.06598 0.2636 0.0
C2396 C 0.18909 0.04112 0.27266 0.0
C2397 C 0.25112 0.11445 0.24733 0.0
C2398 C 0.22753 0.11685 0.2539 0.0
C2399 C 0.20782 0.09266 0.26203 0.0
C2400 C 0.22203 0.14359 0.25207 0.0
C2401 C 0.27254 0.13936 0.23825 0.0
C2402 C 0.24478 0.17408 0.25537 0.0
C2403 C 0.23944 0.19906 0.25347 0.0
C2404 C 0.21119 0.19412 0.24824 0.0
C2405 C 0.18831 0.16344 0.24511 0.0
C2406 C 0.19362 0.13849 0.24706 0.0
H2407 H 0.28503 0.13115 0.23207 0.0
H2408 H 0.25926 0.14711 0.23234 0.0
H2409 H 0.29023 0.15986 0.24355 0.0
H2410 H 0.26669 0.17858 0.25942 0.0
H2411 H 0.25771 0.22235 0.2559 0.0
H2412 H 0.84121 0.03347 0.26786 0.0
H2413 H 0.88486 0.08663 0.27059 0.0
H2414 H 0.91332 0.08704 0.23246 0.0
H2415 H 0.86923 0.03434 0.22952 0.0
H2416 H 0.94796 0.10964 0.26854 0.0
H2417 H 0.91046 0.16775 0.23408 0.0
H2418 H 0.88474 0.12864 0.23967 0.0
H2419 H 0.91276 0.13556 0.22757 0.0
C2420 C 0.85653 0.04496 0.26 0.0
C2421 C 0.85149 0.02954 0.24844 0.0
C2422 C 0.88161 0.07534 0.2616 0.0
C2423 C 0.90211 0.09114 0.25167 0.0
C2424 C 0.89747 0.07565 0.24019 0.0
H2425 H 0.08967 0.24272 0.25056 0.0
H2426 H 0.041 0.19332 0.25174 0.0
C2427 C 0.87245 0.04528 0.23858 0.0
C2428 C 0.92884 0.12344 0.2534 0.0
H2429 H 0.96326 0.1972 0.24122 0.0
C2430 C 0.95112 0.12883 0.26264 0.0
C2431 C 0.93277 0.14874 0.24589 0.0
C2432 C 0.90875 0.14503 0.23633 0.0
C2433 C 0.97781 0.15837 0.2642 0.0
C2434 C 0.98268 0.18319 0.25618 0.0
C2435 C 0.95972 0.17818 0.24731 0.0
C2436 C 1.01241 0.2137 0.25622 0.0
C2437 C 1.00068 0.16267 0.27439 0.0
C2438 C 1.0127 0.24194 0.25819 0.0
C2439 C 0.04079 0.27061 0.25749 0.0
C2440 C 0.06901 0.27153 0.25461 0.0
C2441 C 0.0685 0.24309 0.25279 0.0
C2442 C 0.04062 0.21465 0.25355 0.0
H2443 H 0.98924 0.14533 0.28201 0.0
H2444 H 0.01949 0.15928 0.27041 0.0
H2445 H 1.0115 0.18647 0.27845 0.0
H2446 H 0.99117 0.24181 0.26018 0.0
H2447 H 0.04025 0.292 0.25887 0.0
H2448 H 0.87966 0.80446 0.76551 0.0
H2449 H 0.88079 0.8541 0.76429 0.0
H2450 H 0.78675 0.80744 0.75005 0.0
H2451 H 0.78526 0.75708 0.75131 0.0
H2452 H 0.87176 0.8849 0.74368 0.0
H2453 H 0.7829 0.85589 0.78101 0.0
H2454 H 0.8021 0.83345 0.77859 0.0
H2455 H 0.77181 0.82905 0.76814 0.0
C2456 C 0.85912 0.80455 0.76207 0.0
C2457 C 0.83222 0.77657 0.75861 0.0
C2458 C 0.8599 0.8331 0.76135 0.0
C2459 C 0.83376 0.83454 0.75725 0.0
C2460 C 0.80707 0.80685 0.75343 0.0
H2461 H 0.8063 0.9964 0.75928 0.0
H2462 H 0.79959 0.94462 0.75571 0.0
C2463 C 0.80632 0.77811 0.75407 0.0
C2464 C 0.83474 0.86513 0.75728 0.0
H2465 H 0.80544 0.90605 0.77221 0.0
C2466 C 0.85709 0.88948 0.74985 0.0
C2467 C 0.81563 0.87113 0.76533 0.0
C2468 C 0.79186 0.84616 0.77381 0.0
C2469 C 0.86101 0.91964 0.7503 0.0
C2470 C 0.84258 0.92592 0.75864 0.0
C2471 C 0.81966 0.90135 0.76584 0.0
C2472 C 0.8472 0.9579 0.76032 0.0
C2473 C 0.88473 0.94444 0.74175 0.0
C2474 C 0.87619 0.98278 0.76416 0.0
C2475 C 0.88011 1.01249 0.76623 0.0
C2476 C 0.85502 0.01798 0.76465 0.0
C2477 C 0.82606 0.99303 0.76075 0.0
C2478 C 0.82219 0.96337 0.75864 0.0
H2479 H 0.88967 0.93402 0.73348 0.0
H2480 H 0.87665 0.96048 0.73846 0.0
H2481 H 0.90693 0.95831 0.74692 0.0
H2482 H 0.89567 0.97907 0.76583 0.0
H2483 H 0.90257 0.03093 0.76943 0.0
H2484 H 0.31202 0.04119 0.76494 0.0
H2485 H 0.26178 0.9922 0.76607 0.0
H2486 H 0.21367 0.04178 0.75654 0.0
H2487 H 0.26325 0.09033 0.75526 0.0
H2488 H 0.21054 0.97786 0.78169 0.0
H2489 H 0.17593 0.96924 0.73201 0.0
H2490 H 0.2154 0.99483 0.73723 0.0
H2491 H 0.18629 1.00625 0.73885 0.0
C2492 C 0.29077 0.04158 0.76294 0.0
C2493 C 0.29184 0.06979 0.75995 0.0
C2494 C 0.26204 0.01357 0.76363 0.0
C2495 C 0.2339 0.01317 0.76119 0.0
C2496 C 0.23501 0.04127 0.75818 0.0
H2497 H 0.03458 0.8846 0.76425 0.0
H2498 H 0.08743 0.92931 0.76215 0.0
C2499 C 0.26353 0.06915 0.75753 0.0
C2500 C 0.20316 0.98385 0.76231 0.0
H2501 H 0.13562 0.93701 0.74642 0.0
C2502 C 0.1943 0.96868 0.77394 0.0
C2503 C 0.18185 0.97192 0.75222 0.0
C2504 C 0.19041 0.98621 0.73934 0.0
C2505 C 0.16439 0.94266 0.77587 0.0
C2506 C 0.14287 0.93108 0.76583 0.0
C2507 C 0.15197 0.94593 0.75414 0.0
C2508 C 0.11074 0.9038 0.76726 0.0
C2509 C 0.15573 0.92849 0.78876 0.0
C2510 C 0.10611 0.87442 0.77072 0.0
C2511 C 0.0759 0.84885 0.77202 0.0
C2512 C 0.04949 0.85192 0.76979 0.0
C2513 C 0.05424 0.88137 0.76622 0.0
C2514 C 0.0845 0.90695 0.76493 0.0
H2515 H 0.17147 0.94473 0.79604 0.0
H2516 H 0.13132 0.92186 0.79113 0.0
H2517 H 0.15767 0.90712 0.78905 0.0
H2518 H 0.1259 0.87119 0.77236 0.0
H2519 H 0.07328 0.82671 0.77491 0.0
H2520 H 0.18046 0.16621 0.76841 0.0
H2521 H 0.13572 0.174 0.76577 0.0
H2522 H 0.19759 0.2698 0.75537 0.0
H2523 H 0.24241 0.26198 0.75762 0.0
H2524 H 0.12421 0.21556 0.77882 0.0
H2525 H 0.13155 0.24075 0.72795 0.0
H2526 H 0.15234 0.22353 0.73517 0.0
H2527 H 0.16679 0.26468 0.73654 0.0
C2528 C 0.18459 0.18879 0.76532 0.0
C2529 C 0.21519 0.21342 0.76322 0.0
C2530 C 0.15893 0.19328 0.7639 0.0
C2531 C 0.16314 0.2224 0.76023 0.0
C2532 C 0.19359 0.24696 0.75799 0.0
H2533 H 0.02432 0.28493 0.75391 0.0
H2534 H 0.0737 0.28405 0.75353 0.0
C2535 C 0.21928 0.24252 0.75943 0.0
C2536 C 0.13578 0.22735 0.75944 0.0
H2537 H 0.09378 0.24646 0.7395 0.0
C2538 C 0.11761 0.22231 0.77021 0.0
C2539 C 0.12725 0.23651 0.74824 0.0
C2540 C 0.1453 0.24146 0.73628 0.0
C2541 C 0.09118 0.22594 0.7701 0.0
C2542 C 0.08216 0.23429 0.75884 0.0
C2543 C 0.10069 0.24008 0.74812 0.0
C2544 C 0.05238 0.23493 0.75795 0.0
C2545 C 0.07315 0.22085 0.78209 0.0
C2546 C 0.02396 0.2075 0.76011 0.0
C2547 C 0.99597 0.20794 0.76033 0.0
C2548 C 0.99548 0.23583 0.75832 0.0
C2549 C 0.02381 0.26309 0.75552 0.0
C2550 C 0.05204 0.26262 0.75533 0.0
H2551 H 0.08767 0.22351 0.79042 0.0
H2552 H 0.06432 0.23746 0.78289 0.0
H2553 H 0.05282 0.19681 0.78218 0.0
H2554 H 0.02347 0.18571 0.76186 0.0
H2555 H 0.97466 0.18632 0.76232 0.0
H2556 H 0.43336 0.11059 0.59513 0.0
H2557 H 0.48399 0.11287 0.59726 0.0
H2558 H 0.53012 0.20476 0.58088 0.0
H2559 H 0.48039 0.20297 0.57889 0.0
H2560 H 0.52633 0.12043 0.57817 0.0
H2561 H 0.58244 0.21757 0.61193 0.0
H2562 H 0.54084 0.19664 0.60925 0.0
H2563 H 0.5665 0.22731 0.59878 0.0
C2564 C 0.45435 0.13141 0.59214 0.0
C2565 C 0.45266 0.15657 0.58685 0.0
C2566 C 0.48326 0.13265 0.59332 0.0
C2567 C 0.51097 0.15921 0.58941 0.0
C2568 C 0.50925 0.18431 0.58423 0.0
H2569 H 0.70394 0.22591 0.57387 0.0
H2570 H 0.6509 0.21658 0.57694 0.0
C2571 C 0.48058 0.18308 0.58301 0.0
C2572 C 0.54171 0.16056 0.59003 0.0
H2573 H 0.61696 0.20666 0.59989 0.0
C2574 C 0.54604 0.13892 0.58311 0.0
C2575 C 0.56747 0.18474 0.59646 0.0
C2576 C 0.56405 0.20769 0.60463 0.0
C2577 C 0.5757 0.14178 0.5819 0.0
C2578 C 0.60167 0.16672 0.58792 0.0
C2579 C 0.59712 0.18769 0.5952 0.0
C2580 C 0.63395 0.17228 0.58632 0.0
C2581 C 0.57932 0.11893 0.57375 0.0
C2582 C 0.64224 0.1507 0.59073 0.0
C2583 C 0.67259 0.15596 0.58898 0.0
C2584 C 0.6953 0.18294 0.58277 0.0
C2585 C 0.68698 0.20471 0.57854 0.0
C2586 C 0.6567 0.1995 0.58035 0.0
H2587 H 0.5584 0.10488 0.56786 0.0
H2588 H 0.60003 0.13131 0.56757 0.0
H2589 H 0.58288 0.1027 0.57976 0.0
H2590 H 0.62523 0.12975 0.59552 0.0
H2591 H 0.67806 0.13857 0.59227 0.0
H2592 H 0.9636 0.35108 0.594 0.0
H2593 H 0.96243 0.40017 0.5954 0.0
H2594 H 0.86408 0.3504 0.58701 0.0
H2595 H 0.86491 0.30184 0.58572 0.0
H2596 H 0.94467 0.42804 0.57629 0.0
H2597 H 0.86798 0.40154 0.61756 0.0
H2598 H 0.88735 0.3798 0.61389 0.0
H2599 H 0.85175 0.37116 0.60605 0.0
C2600 C 0.94167 0.35058 0.59266 0.0
C2601 C 0.91438 0.32242 0.58975 0.0
C2602 C 0.94105 0.37866 0.5934 0.0
C2603 C 0.91305 0.37897 0.59148 0.0
C2604 C 0.88583 0.3508 0.58878 0.0
H2605 H 0.83886 0.50079 0.57975 0.0
H2606 H 0.84964 0.45813 0.58288 0.0
C2607 C 0.88645 0.32297 0.58796 0.0
C2608 C 0.91206 0.40861 0.59153 0.0
H2609 H 0.87248 0.44239 0.60407 0.0
C2610 C 0.92933 0.43149 0.58251 0.0
C2611 C 0.89194 0.41309 0.59961 0.0
C2612 C 0.87393 0.39023 0.6099 0.0
C2613 C 0.92584 0.45785 0.58094 0.0
C2614 C 0.90486 0.46174 0.58874 0.0
C2615 C 0.8884 0.43938 0.59804 0.0
C2616 C 0.8986 0.48806 0.58707 0.0
C2617 C 0.94354 0.48057 0.57057 0.0
C2618 C 0.92239 0.5192 0.58855 0.0
C2619 C 0.91632 0.54373 0.58672 0.0
C2620 C 0.88625 0.5377 0.58338 0.0
C2621 C 0.86237 0.50641 0.58212 0.0
C2622 C 0.86846 0.48194 0.58399 0.0
H2623 H 0.95325 0.47076 0.56373 0.0
H2624 H 0.92826 0.48736 0.56551 0.0
H2625 H 0.96327 0.50197 0.57462 0.0
H2626 H 0.94572 0.52457 0.59113 0.0
H2627 H 0.93536 0.56746 0.58769 0.0
H2628 H 0.50624 0.39614 0.56447 0.0
H2629 H 0.5509 0.44877 0.56694 0.0
H2630 H 0.59966 0.41156 0.58764 0.0
H2631 H 0.55541 0.3587 0.58493 0.0
H2632 H 0.58036 0.48319 0.5887 0.0
H2633 H 0.66188 0.46283 0.55995 0.0
H2634 H 0.62022 0.43662 0.55983 0.0
H2635 H 0.64352 0.43529 0.57244 0.0
C2636 C 0.52657 0.39905 0.56945 0.0
C2637 C 0.52725 0.37299 0.57438 0.0
C2638 C 0.55201 0.42924 0.57094 0.0
C2639 C 0.57887 0.43416 0.57731 0.0
C2640 C 0.57942 0.40835 0.58249 0.0
H2641 H 0.7606 0.59016 0.59403 0.0
H2642 H 0.71249 0.54024 0.59238 0.0
C2643 C 0.55393 0.37812 0.58104 0.0
C2644 C 0.60634 0.46624 0.57847 0.0
H2645 H 0.68371 0.51048 0.57109 0.0
C2646 C 0.60294 0.48924 0.5848 0.0
C2647 C 0.63578 0.47421 0.57333 0.0
C2648 C 0.64064 0.45107 0.5659 0.0
C2649 C 0.62839 0.51964 0.58648 0.0
C2650 C 0.65795 0.52747 0.58148 0.0
C2651 C 0.66114 0.50455 0.57498 0.0
C2652 C 0.68629 0.5588 0.58323 0.0
C2653 C 0.62361 0.54276 0.59394 0.0
C2654 C 0.68772 0.58625 0.57877 0.0
C2655 C 0.71541 0.61519 0.57979 0.0
C2656 C 0.7423 0.61714 0.58514 0.0
C2657 C 0.74048 0.58966 0.58979 0.0
C2658 C 0.71291 0.56096 0.58885 0.0
H2659 H 0.60209 0.53105 0.59973 0.0
H2660 H 0.64382 0.55679 0.60016 0.0
H2661 H 0.62129 0.55894 0.58743 0.0
H2662 H 0.66774 0.58521 0.57417 0.0
H2663 H 0.71605 0.6358 0.57601 0.0
loop_
_geom_bond_atom_site_label_1
_geom_bond_atom_site_label_2
_geom_bond_distance
_geom_bond_site_symmetry_2
_ccdc_geom_bond_type
Eu0 C9 2.828 . S
Eu0 O11 2.392 1_545 S
Eu0 O13 2.418 . S
Eu0 O18 2.373 . S
Eu0 O21 2.488 . S
Eu0 O22 2.471 . S
Eu0 O23 2.349 . S
Eu1 O10 2.373 . S
Eu1 O14 2.488 . S
Eu1 O15 2.471 . S
Eu1 O16 2.349 . S
Eu1 O19 2.392 1_565 S
Eu1 O20 2.418 . S
Eu1 C30 2.828 . S
C2 O20 1.244 1_545 S
C2 O23 1.265 . S
C3 C4 1.379 . S
C3 C7 1.373 . S
C3 C9 1.505 . S
C4 C3 1.379 . S
C4 C6 1.369 . S
C4 H32 0.930 . S
C5 C7 1.383 . S
C5 C8 1.382 . S
C5 H33 0.930 . S
C6 C4 1.369 . S
C6 C8 1.392 . S
C6 H34 0.930 . S
C7 C3 1.373 . S
C7 C5 1.383 . S
C7 H35 0.931 . S
C8 C5 1.382 . S
C8 C6 1.392 . S
C9 Eu0 2.828 . S
C9 C3 1.505 . S
C9 O21 1.249 . S
C9 O22 1.244 . S
O10 Eu1 2.373 . S
O10 C12 1.258 . S
O11 Eu0 2.392 1_565 S
O11 C12 1.242 . S
C12 O10 1.258 . S
C12 O11 1.242 . S
O13 Eu0 2.418 . S
O13 C17 1.244 . S
O14 Eu1 2.488 . S
O14 C30 1.249 . S
O15 Eu1 2.471 . S
O15 C30 1.244 . S
O16 Eu1 2.349 . S
O16 C17 1.265 1_565 S
C17 O13 1.244 . S
C17 O16 1.265 1_545 S
O18 Eu0 2.373 . S
O18 C31 1.258 . S
O19 Eu1 2.392 1_545 S
O19 C31 1.242 . S
O20 Eu1 2.418 . S
O20 C2 1.244 1_565 S
O21 Eu0 2.488 . S
O21 C9 1.249 . S
O22 Eu0 2.471 . S
O22 C9 1.244 . S
O23 Eu0 2.349 . S
O23 C2 1.265 . S
C24 C25 1.379 . S
C24 C28 1.373 . S
C24 C30 1.505 . S
C25 C24 1.379 . S
C25 C27 1.369 . S
C25 H36 0.930 . S
C26 C28 1.383 . S
C26 C29 1.382 . S
C26 H37 0.930 . S
C27 C25 1.369 . S
C27 C29 1.392 . S
C27 H38 0.930 . S
C28 C24 1.373 . S
C28 C26 1.383 . S
C28 H39 0.931 . S
C29 C26 1.382 . S
C29 C27 1.392 . S
C30 Eu1 2.828 . S
C30 O14 1.249 . S
C30 O15 1.244 . S
C30 C24 1.505 . S
C31 O18 1.258 . S
C31 O19 1.242 . S
H32 C4 0.930 . S
H33 C5 0.930 . S
H34 C6 0.930 . S
H35 C7 0.931 . S
H36 C25 0.930 . S
H37 C26 0.930 . S
H38 C27 0.930 . S
H39 C28 0.931 . S
Eu40 C49 2.799 1_455 S
Eu40 O51 2.417 . S
Eu40 O53 2.428 . S
Eu40 O58 2.369 1_455 S
Eu40 O61 2.462 1_455 S
Eu40 O62 2.445 1_455 S
Eu40 O63 2.360 . S
Eu41 O50 2.373 . S
Eu41 O54 2.488 . S
Eu41 O55 2.471 . S
Eu41 O56 2.349 . S
Eu41 O59 2.392 1_455 S
Eu41 O60 2.418 . S
Eu41 C70 2.828 . S
C42 O60 1.244 . S
C42 O63 1.265 . S
C43 C44 1.379 . S
C43 C47 1.373 . S
C43 C49 1.505 . S
C44 C43 1.379 . S
C44 C46 1.369 . S
C44 H72 0.930 . S
C45 C47 1.383 . S
C45 C48 1.382 . S
C45 H73 0.930 . S
C46 C44 1.369 . S
C46 C48 1.392 . S
C46 H74 0.930 . S
C47 C43 1.373 . S
C47 C45 1.383 . S
C47 H75 0.931 . S
C48 C45 1.382 . S
C48 C46 1.392 . S
C49 Eu40 2.799 1_655 S
C49 C43 1.505 . S
C49 O61 1.249 . S
C49 O62 1.244 . S
O50 Eu41 2.373 . S
O50 C52 1.258 . S
O51 Eu40 2.417 . S
O51 C52 1.242 . S
C52 O50 1.258 . S
C52 O51 1.242 . S
O53 Eu40 2.428 . S
O53 C57 1.244 . S
O54 Eu41 2.488 . S
O54 C70 1.249 . S
O55 Eu41 2.471 . S
O55 C70 1.244 . S
O56 Eu41 2.349 . S
O56 C57 1.265 . S
C57 O53 1.244 . S
C57 O56 1.265 . S
O58 Eu40 2.369 1_655 S
O58 C71 1.258 . S
O59 Eu41 2.392 1_655 S
O59 C71 1.242 . S
O60 Eu41 2.418 . S
O60 C42 1.244 . S
O61 Eu40 2.462 1_655 S
O61 C49 1.249 . S
O62 Eu40 2.445 1_655 S
O62 C49 1.244 . S
O63 Eu40 2.360 . S
O63 C42 1.265 . S
C64 C65 1.379 . S
C64 C68 1.373 . S
C64 C70 1.505 . S
C65 C64 1.379 . S
C65 C67 1.369 . S
C65 H76 0.930 . S
C66 C68 1.383 . S
C66 C69 1.382 . S
C66 H77 0.930 . S
C67 C65 1.369 . S
C67 C69 1.392 . S
C67 H78 0.930 . S
C68 C64 1.373 . S
C68 C66 1.383 . S
C68 H79 0.931 . S
C69 C66 1.382 . S
C69 C67 1.392 . S
C70 Eu41 2.828 . S
C70 O54 1.249 . S
C70 O55 1.244 . S
C70 C64 1.505 . S
C71 O58 1.258 . S
C71 O59 1.242 . S
H72 C44 0.930 . S
H73 C45 0.930 . S
H74 C46 0.930 . S
H75 C47 0.931 . S
H76 C65 0.930 . S
H77 C66 0.930 . S
H78 C67 0.930 . S
H79 C68 0.931 . S
Eu80 C89 2.828 . S
Eu80 O91 2.392 . S
Eu80 O93 2.418 . S
Eu80 O98 2.373 . S
Eu80 O101 2.488 . S
Eu80 O102 2.471 . S
Eu80 O103 2.349 . S
Eu81 O90 2.373 . S
Eu81 O94 2.488 . S
Eu81 O95 2.471 . S
Eu81 O96 2.349 . S
Eu81 O99 2.392 . S
Eu81 O100 2.418 . S
Eu81 C110 2.828 . S
C82 O100 1.244 . S
C82 O103 1.265 . S
C83 C84 1.379 . S
C83 C87 1.373 . S
C83 C89 1.505 . S
C84 C83 1.379 . S
C84 C86 1.369 . S
C84 H112 0.930 . S
C85 C87 1.383 . S
C85 C88 1.382 . S
C85 H113 0.930 . S
C86 C84 1.369 . S
C86 C88 1.392 . S
C86 H114 0.930 . S
C87 C83 1.373 . S
C87 C85 1.383 . S
C87 H115 0.931 . S
C88 C85 1.382 . S
C88 C86 1.392 . S
C89 Eu80 2.828 . S
C89 C83 1.505 . S
C89 O101 1.249 . S
C89 O102 1.244 . S
O90 Eu81 2.373 . S
O90 C92 1.258 . S
O91 Eu80 2.392 . S
O91 C92 1.242 . S
C92 O90 1.258 . S
C92 O91 1.242 . S
O93 Eu80 2.418 . S
O93 C97 1.244 . S
O94 Eu81 2.488 . S
O94 C110 1.249 . S
O95 Eu81 2.471 . S
O95 C110 1.244 . S
O96 Eu81 2.349 . S
O96 C97 1.265 . S
C97 O93 1.244 . S
C97 O96 1.265 . S
O98 Eu80 2.373 . S
O98 C111 1.258 . S
O99 Eu81 2.392 . S
O99 C111 1.242 . S
O100 Eu81 2.418 . S
O100 C82 1.244 . S
O101 Eu80 2.488 . S
O101 C89 1.249 . S
O102 Eu80 2.471 . S
O102 C89 1.244 . S
O103 Eu80 2.349 . S
O103 C82 1.265 . S
C104 C105 1.379 . S
C104 C108 1.373 . S
C104 C110 1.505 . S
C105 C104 1.379 . S
C105 C107 1.369 . S
C105 H116 0.930 . S
C106 C108 1.383 . S
C106 C109 1.382 . S
C106 H117 0.930 . S
C107 C105 1.369 . S
C107 C109 1.392 . S
C107 H118 0.930 . S
C108 C104 1.373 . S
C108 C106 1.383 . S
C108 H119 0.931 . S
C109 C106 1.382 . S
C109 C107 1.392 . S
C110 Eu81 2.828 . S
C110 O94 1.249 . S
C110 O95 1.244 . S
C110 C104 1.505 . S
C111 O98 1.258 . S
C111 O99 1.242 . S
H112 C84 0.930 . S
H113 C85 0.930 . S
H114 C86 0.930 . S
H115 C87 0.931 . S
H116 C105 0.930 . S
H117 C106 0.930 . S
H118 C107 0.930 . S
H119 C108 0.931 . S
Eu120 C129 2.828 . S
Eu120 O131 2.392 1_455 S
Eu120 O133 2.418 . S
Eu120 O138 2.373 . S
Eu120 O141 2.488 . S
Eu120 O142 2.471 . S
Eu120 O143 2.349 . S
Eu121 O130 2.373 . S
Eu121 O134 2.488 . S
Eu121 O135 2.471 . S
Eu121 O136 2.349 . S
Eu121 O139 2.392 1_655 S
Eu121 O140 2.418 . S
Eu121 C150 2.828 . S
C122 O140 1.244 1_455 S
C122 O143 1.265 . S
C123 C124 1.379 . S
C123 C127 1.373 . S
C123 C129 1.505 . S
C124 C123 1.379 . S
C124 C126 1.369 . S
C124 H152 0.930 . S
C125 C127 1.383 . S
C125 C128 1.382 . S
C125 H153 0.930 . S
C126 C124 1.369 . S
C126 C128 1.392 . S
C126 H154 0.930 . S
C127 C123 1.373 . S
C127 C125 1.383 . S
C127 H155 0.931 . S
C128 C125 1.382 . S
C128 C126 1.392 . S
C129 Eu120 2.828 . S
C129 C123 1.505 . S
C129 O141 1.249 . S
C129 O142 1.244 . S
O130 Eu121 2.373 . S
O130 C132 1.258 . S
O131 Eu120 2.392 1_655 S
O131 C132 1.242 . S
C132 O130 1.258 . S
C132 O131 1.242 . S
O133 Eu120 2.418 . S
O133 C137 1.244 . S
O134 Eu121 2.488 . S
O134 C150 1.249 . S
O135 Eu121 2.471 . S
O135 C150 1.244 . S
O136 Eu121 2.349 . S
O136 C137 1.265 1_655 S
C137 O133 1.244 . S
C137 O136 1.265 1_455 S
O138 Eu120 2.373 . S
O138 C151 1.258 . S
O139 Eu121 2.392 1_455 S
O139 C151 1.242 . S
O140 Eu121 2.418 . S
O140 C122 1.244 1_655 S
O141 Eu120 2.488 . S
O141 C129 1.249 . S
O142 Eu120 2.471 . S
O142 C129 1.244 . S
O143 Eu120 2.349 . S
O143 C122 1.265 . S
C144 C145 1.379 . S
C144 C148 1.373 . S
C144 C150 1.505 . S
C145 C144 1.379 . S
C145 C147 1.369 . S
C145 H156 0.930 . S
C146 C148 1.383 . S
C146 C149 1.382 . S
C146 H157 0.930 . S
C147 C145 1.369 . S
C147 C149 1.392 . S
C147 H158 0.930 . S
C148 C144 1.373 . S
C148 C146 1.383 . S
C148 H159 0.931 . S
C149 C146 1.382 . S
C149 C147 1.392 . S
C150 Eu121 2.828 . S
C150 O134 1.249 . S
C150 O135 1.244 . S
C150 C144 1.505 . S
C151 O138 1.258 . S
C151 O139 1.242 . S
H152 C124 0.930 . S
H153 C125 0.930 . S
H154 C126 0.930 . S
H155 C127 0.931 . S
H156 C145 0.930 . S
H157 C146 0.930 . S
H158 C147 0.930 . S
H159 C148 0.931 . S
Eu160 C169 2.828 . S
Eu160 O171 2.392 . S
Eu160 O173 2.418 . S
Eu160 O178 2.373 . S
Eu160 O181 2.488 . S
Eu160 O182 2.471 . S
Eu160 O183 2.349 . S
Eu161 O170 2.373 . S
Eu161 O174 2.488 . S
Eu161 O175 2.471 . S
Eu161 O176 2.349 . S
Eu161 O179 2.392 . S
Eu161 O180 2.418 . S
Eu161 C190 2.828 . S
C162 O180 1.244 . S
C162 O183 1.265 . S
C163 C164 1.379 . S
C163 C167 1.373 . S
C163 C169 1.505 . S
C164 C163 1.379 . S
C164 C166 1.369 . S
C164 H192 0.930 . S
C165 C167 1.383 . S
C165 C168 1.382 . S
C165 H193 0.930 . S
C166 C164 1.369 . S
C166 C168 1.392 . S
C166 H194 0.930 . S
C167 C163 1.373 . S
C167 C165 1.383 . S
C167 H195 0.931 . S
C168 C165 1.382 . S
C168 C166 1.392 . S
C169 Eu160 2.828 . S
C169 C163 1.505 . S
C169 O181 1.249 . S
C169 O182 1.244 . S
O170 Eu161 2.373 . S
O170 C172 1.258 . S
O171 Eu160 2.392 . S
O171 C172 1.242 . S
C172 O170 1.258 . S
C172 O171 1.242 . S
O173 Eu160 2.418 . S
O173 C177 1.244 . S
O174 Eu161 2.488 . S
O174 C190 1.249 . S
O175 Eu161 2.471 . S
O175 C190 1.244 . S
O176 Eu161 2.349 . S
O176 C177 1.265 . S
C177 O173 1.244 . S
C177 O176 1.265 . S
O178 Eu160 2.373 . S
O178 C191 1.258 . S
O179 Eu161 2.392 . S
O179 C191 1.242 . S
O180 Eu161 2.418 . S
O180 C162 1.244 . S
O181 Eu160 2.488 . S
O181 C169 1.249 . S
O182 Eu160 2.471 . S
O182 C169 1.244 . S
O183 Eu160 2.349 . S
O183 C162 1.265 . S
C184 C185 1.379 . S
C184 C188 1.373 . S
C184 C190 1.505 . S
C185 C184 1.379 . S
C185 C187 1.369 . S
C185 H196 0.930 . S
C186 C188 1.383 . S
C186 C189 1.382 . S
C186 H197 0.930 . S
C187 C185 1.369 . S
C187 C189 1.392 . S
C187 H198 0.930 . S
C188 C184 1.373 . S
C188 C186 1.383 . S
C188 H199 0.931 . S
C189 C186 1.382 . S
C189 C187 1.392 . S
C190 Eu161 2.828 . S
C190 O174 1.249 . S
C190 O175 1.244 . S
C190 C184 1.505 . S
C191 O178 1.258 . S
C191 O179 1.242 . S
H192 C164 0.930 . S
H193 C165 0.930 . S
H194 C166 0.930 . S
H195 C167 0.931 . S
H196 C185 0.930 . S
H197 C186 0.930 . S
H198 C187 0.930 . S
H199 C188 0.931 . S
Eu200 C209 2.799 1_545 S
Eu200 O211 2.417 . S
Eu200 O213 2.428 . S
Eu200 O218 2.369 1_545 S
Eu200 O221 2.462 1_545 S
Eu200 O222 2.445 1_545 S
Eu200 O223 2.360 . S
Eu201 O210 2.373 . S
Eu201 O214 2.488 . S
Eu201 O215 2.471 . S
Eu201 O216 2.349 . S
Eu201 O219 2.392 1_545 S
Eu201 O220 2.418 . S
Eu201 C230 2.828 . S
C202 O220 1.244 . S
C202 O223 1.265 . S
C203 C204 1.379 . S
C203 C207 1.373 . S
C203 C209 1.505 . S
C204 C203 1.379 . S
C204 C206 1.369 . S
C204 H232 0.930 . S
C205 C207 1.383 . S
C205 C208 1.382 . S
C205 H233 0.930 . S
C206 C204 1.369 . S
C206 C208 1.392 . S
C206 H234 0.930 . S
C207 C203 1.373 . S
C207 C205 1.383 . S
C207 H235 0.931 . S
C208 C205 1.382 . S
C208 C206 1.392 . S
C209 Eu200 2.799 1_565 S
C209 C203 1.505 . S
C209 O221 1.249 . S
C209 O222 1.244 . S
O210 Eu201 2.373 . S
O210 C212 1.258 . S
O211 Eu200 2.417 . S
O211 C212 1.242 . S
C212 O210 1.258 . S
C212 O211 1.242 . S
O213 Eu200 2.428 . S
O213 C217 1.244 . S
O214 Eu201 2.488 . S
O214 C230 1.249 . S
O215 Eu201 2.471 . S
O215 C230 1.244 . S
O216 Eu201 2.349 . S
O216 C217 1.265 . S
C217 O213 1.244 . S
C217 O216 1.265 . S
O218 Eu200 2.369 1_565 S
O218 C231 1.258 . S
O219 Eu201 2.392 1_565 S
O219 C231 1.242 . S
O220 Eu201 2.418 . S
O220 C202 1.244 . S
O221 Eu200 2.462 1_565 S
O221 C209 1.249 . S
O222 Eu200 2.445 1_565 S
O222 C209 1.244 . S
O223 Eu200 2.360 . S
O223 C202 1.265 . S
C224 C225 1.379 . S
C224 C228 1.373 . S
C224 C230 1.505 . S
C225 C224 1.379 . S
C225 C227 1.369 . S
C225 H236 0.930 . S
C226 C228 1.383 . S
C226 C229 1.382 . S
C226 H237 0.930 . S
C227 C225 1.369 . S
C227 C229 1.392 . S
C227 H238 0.930 . S
C228 C224 1.373 . S
C228 C226 1.383 . S
C228 H239 0.931 . S
C229 C226 1.382 . S
C229 C227 1.392 . S
C230 Eu201 2.828 . S
C230 O214 1.249 . S
C230 O215 1.244 . S
C230 C224 1.505 . S
C231 O218 1.258 . S
C231 O219 1.242 . S
H232 C204 0.930 . S
H233 C205 0.930 . S
H234 C206 0.930 . S
H235 C207 0.931 . S
H236 C225 0.930 . S
H237 C226 0.930 . S
H238 C227 0.930 . S
H239 C228 0.931 . S
Eu240 C249 2.828 . S
Eu240 O251 2.392 . S
Eu240 O253 2.418 . S
Eu240 O258 2.373 . S
Eu240 O261 2.488 . S
Eu240 O262 2.471 . S
Eu240 O263 2.349 . S
Eu241 O250 2.373 . S
Eu241 O254 2.488 . S
Eu241 O255 2.471 . S
Eu241 O256 2.349 . S
Eu241 O259 2.392 . S
Eu241 O260 2.418 . S
Eu241 C270 2.828 . S
C242 O260 1.244 . S
C242 O263 1.265 . S
C243 C244 1.379 . S
C243 C247 1.373 . S
C243 C249 1.505 . S
C244 C243 1.379 . S
C244 C246 1.369 . S
C244 H272 0.930 . S
C245 C247 1.383 . S
C245 C248 1.382 . S
C245 H273 0.930 . S
C246 C244 1.369 . S
C246 C248 1.392 . S
C246 H274 0.930 . S
C247 C243 1.373 . S
C247 C245 1.383 . S
C247 H275 0.931 . S
C248 C245 1.382 . S
C248 C246 1.392 . S
C249 Eu240 2.828 . S
C249 C243 1.505 . S
C249 O261 1.249 . S
C249 O262 1.244 . S
O250 Eu241 2.373 . S
O250 C252 1.258 . S
O251 Eu240 2.392 . S
O251 C252 1.242 . S
C252 O250 1.258 . S
C252 O251 1.242 . S
O253 Eu240 2.418 . S
O253 C257 1.244 . S
O254 Eu241 2.488 . S
O254 C270 1.249 . S
O255 Eu241 2.471 . S
O255 C270 1.244 . S
O256 Eu241 2.349 . S
O256 C257 1.265 . S
C257 O253 1.244 . S
C257 O256 1.265 . S
O258 Eu240 2.373 . S
O258 C271 1.258 . S
O259 Eu241 2.392 . S
O259 C271 1.242 . S
O260 Eu241 2.418 . S
O260 C242 1.244 . S
O261 Eu240 2.488 . S
O261 C249 1.249 . S
O262 Eu240 2.471 . S
O262 C249 1.244 . S
O263 Eu240 2.349 . S
O263 C242 1.265 . S
C264 C265 1.379 . S
C264 C268 1.373 . S
C264 C270 1.505 . S
C265 C264 1.379 . S
C265 C267 1.369 . S
C265 H276 0.930 . S
C266 C268 1.383 1_655 S
C266 C269 1.382 . S
C266 H277 0.930 . S
C267 C265 1.369 . S
C267 C269 1.392 1_455 S
C267 H278 0.930 1_455 S
C268 C264 1.373 . S
C268 C266 1.383 1_455 S
C268 H279 0.931 . S
C269 C266 1.382 . S
C269 C267 1.392 1_655 S
C270 Eu241 2.828 . S
C270 O254 1.249 . S
C270 O255 1.244 . S
C270 C264 1.505 . S
C271 O258 1.258 . S
C271 O259 1.242 . S
H272 C244 0.930 . S
H273 C245 0.930 . S
H274 C246 0.930 . S
H275 C247 0.931 . S
H276 C265 0.930 . S
H277 C266 0.930 . S
H278 C267 0.930 1_655 S
H279 C268 0.931 . S
Eu280 C289 2.828 . S
Eu280 O291 2.392 . S
Eu280 O293 2.418 . S
Eu280 O298 2.373 . S
Eu280 O301 2.488 . S
Eu280 O302 2.471 . S
Eu280 O303 2.349 . S
Eu281 O290 2.373 . S
Eu281 O294 2.488 . S
Eu281 O295 2.471 . S
Eu281 O296 2.349 . S
Eu281 O299 2.392 . S
Eu281 O300 2.418 . S
Eu281 C310 2.828 . S
C282 O300 1.244 . S
C282 O303 1.265 . S
C283 C284 1.379 . S
C283 C287 1.373 . S
C283 C289 1.505 . S
C284 C283 1.379 . S
C284 C286 1.369 . S
C284 H312 0.930 . S
C285 C287 1.383 . S
C285 C288 1.382 . S
C285 H313 0.930 . S
C286 C284 1.369 . S
C286 C288 1.392 . S
C286 H314 0.930 . S
C287 C283 1.373 . S
C287 C285 1.383 . S
C287 H315 0.931 . S
C288 C285 1.382 . S
C288 C286 1.392 . S
C289 Eu280 2.828 . S
C289 C283 1.505 . S
C289 O301 1.249 . S
C289 O302 1.244 . S
O290 Eu281 2.373 . S
O290 C292 1.258 . S
O291 Eu280 2.392 . S
O291 C292 1.242 . S
C292 O290 1.258 . S
C292 O291 1.242 . S
O293 Eu280 2.418 . S
O293 C297 1.244 . S
O294 Eu281 2.488 . S
O294 C310 1.249 . S
O295 Eu281 2.471 . S
O295 C310 1.244 . S
O296 Eu281 2.349 . S
O296 C297 1.265 . S
C297 O293 1.244 . S
C297 O296 1.265 . S
O298 Eu280 2.373 . S
O298 C311 1.258 . S
O299 Eu281 2.392 . S
O299 C311 1.242 . S
O300 Eu281 2.418 . S
O300 C282 1.244 . S
O301 Eu280 2.488 . S
O301 C289 1.249 . S
O302 Eu280 2.471 . S
O302 C289 1.244 . S
O303 Eu280 2.349 . S
O303 C282 1.265 . S
C304 C305 1.379 . S
C304 C308 1.373 . S
C304 C310 1.505 . S
C305 C304 1.379 . S
C305 C307 1.369 . S
C305 H316 0.930 . S
C306 C308 1.383 . S
C306 C309 1.382 . S
C306 H317 0.930 . S
C307 C305 1.369 . S
C307 C309 1.392 . S
C307 H318 0.930 . S
C308 C304 1.373 . S
C308 C306 1.383 . S
C308 H319 0.931 . S
C309 C306 1.382 . S
C309 C307 1.392 . S
C310 Eu281 2.828 . S
C310 O294 1.249 . S
C310 O295 1.244 . S
C310 C304 1.505 . S
C311 O298 1.258 . S
C311 O299 1.242 . S
H312 C284 0.930 . S
H313 C285 0.930 . S
H314 C286 0.930 . S
H315 C287 0.931 . S
H316 C305 0.930 . S
H317 C306 0.930 . S
H318 C307 0.930 . S
H319 C308 0.931 . S
Eu320 C329 2.828 . S
Eu320 O331 2.392 . S
Eu320 O333 2.418 . S
Eu320 O338 2.373 . S
Eu320 O341 2.488 . S
Eu320 O342 2.471 . S
Eu320 O343 2.349 . S
Eu321 O330 2.373 . S
Eu321 O334 2.488 . S
Eu321 O335 2.471 . S
Eu321 O336 2.349 . S
Eu321 O339 2.392 . S
Eu321 O340 2.418 . S
Eu321 C350 2.828 . S
C322 O340 1.244 . S
C322 O343 1.265 . S
C323 C324 1.379 . S
C323 C327 1.373 . S
C323 C329 1.505 . S
C324 C323 1.379 . S
C324 C326 1.369 . S
C324 H352 0.930 . S
C325 C327 1.383 . S
C325 C328 1.382 . S
C325 H353 0.930 . S
C326 C324 1.369 . S
C326 C328 1.392 . S
C326 H354 0.930 . S
C327 C323 1.373 . S
C327 C325 1.383 . S
C327 H355 0.931 . S
C328 C325 1.382 . S
C328 C326 1.392 . S
C329 Eu320 2.828 . S
C329 C323 1.505 . S
C329 O341 1.249 . S
C329 O342 1.244 . S
O330 Eu321 2.373 . S
O330 C332 1.258 . S
O331 Eu320 2.392 . S
O331 C332 1.242 . S
C332 O330 1.258 . S
C332 O331 1.242 . S
O333 Eu320 2.418 . S
O333 C337 1.244 . S
O334 Eu321 2.488 . S
O334 C350 1.249 . S
O335 Eu321 2.471 . S
O335 C350 1.244 . S
O336 Eu321 2.349 . S
O336 C337 1.265 . S
C337 O333 1.244 . S
C337 O336 1.265 . S
O338 Eu320 2.373 . S
O338 C351 1.258 . S
O339 Eu321 2.392 . S
O339 C351 1.242 . S
O340 Eu321 2.418 . S
O340 C322 1.244 . S
O341 Eu320 2.488 . S
O341 C329 1.249 . S
O342 Eu320 2.471 . S
O342 C329 1.244 . S
O343 Eu320 2.349 . S
O343 C322 1.265 . S
C344 C345 1.363 1_565 S
C344 C348 1.373 1_565 S
C344 C350 1.505 . S
C345 C344 1.363 1_545 S
C345 C347 1.405 . S
C345 H356 0.911 1_545 S
C346 C348 1.383 . S
C346 C349 1.382 . S
C346 H357 0.930 . S
C347 C345 1.405 . S
C347 C349 1.392 . S
C347 H358 0.930 . S
C348 C344 1.373 1_545 S
C348 C346 1.383 . S
C348 H359 0.931 . S
C349 C346 1.382 . S
C349 C347 1.392 . S
C350 Eu321 2.828 . S
C350 O334 1.249 . S
C350 O335 1.244 . S
C350 C344 1.505 . S
C351 O338 1.258 . S
C351 O339 1.242 . S
H352 C324 0.930 . S
H353 C325 0.930 . S
H354 C326 0.930 . S
H355 C327 0.931 . S
H356 C345 0.911 1_565 S
H357 C346 0.930 . S
H358 C347 0.930 . S
H359 C348 0.931 . S
Eu360 C369 2.828 . S
Eu360 O371 2.392 . S
Eu360 O373 2.418 . S
Eu360 O378 2.373 . S
Eu360 O381 2.488 . S
Eu360 O382 2.471 . S
Eu360 O383 2.349 . S
Eu361 O370 2.373 . S
Eu361 O374 2.488 . S
Eu361 O375 2.471 . S
Eu361 O376 2.349 . S
Eu361 O379 2.392 . S
Eu361 O380 2.418 . S
Eu361 C390 2.828 . S
C362 O380 1.244 . S
C362 O383 1.265 . S
C363 C364 1.379 . S
C363 C367 1.373 . S
C363 C369 1.505 . S
C364 C363 1.379 . S
C364 C366 1.369 . S
C364 H392 0.930 . S
C365 C367 1.383 . S
C365 C368 1.382 . S
C365 H393 0.930 . S
C366 C364 1.369 . S
C366 C368 1.392 . S
C366 H394 0.930 . S
C367 C363 1.373 . S
C367 C365 1.383 . S
C367 H395 0.931 . S
C368 C365 1.382 . S
C368 C366 1.392 . S
C369 Eu360 2.828 . S
C369 C363 1.505 . S
C369 O381 1.249 . S
C369 O382 1.244 . S
O370 Eu361 2.373 . S
O370 C372 1.258 . S
O371 Eu360 2.392 . S
O371 C372 1.242 . S
C372 O370 1.258 . S
C372 O371 1.242 . S
O373 Eu360 2.418 . S
O373 C377 1.244 . S
O374 Eu361 2.488 . S
O374 C390 1.249 . S
O375 Eu361 2.471 . S
O375 C390 1.244 . S
O376 Eu361 2.349 . S
O376 C377 1.265 . S
C377 O373 1.244 . S
C377 O376 1.265 . S
O378 Eu360 2.373 . S
O378 C391 1.258 . S
O379 Eu361 2.392 . S
O379 C391 1.242 . S
O380 Eu361 2.418 . S
O380 C362 1.244 . S
O381 Eu360 2.488 . S
O381 C369 1.249 . S
O382 Eu360 2.471 . S
O382 C369 1.244 . S
O383 Eu360 2.349 . S
O383 C362 1.265 . S
C384 C385 1.379 . S
C384 C388 1.373 . S
C384 C390 1.505 . S
C385 C384 1.379 . S
C385 C387 1.369 . S
C385 H396 0.930 . S
C386 C388 1.383 . S
C386 C389 1.382 . S
C386 H397 0.930 . S
C387 C385 1.369 . S
C387 C389 1.392 . S
C387 H398 0.930 . S
C388 C384 1.373 . S
C388 C386 1.383 . S
C388 H399 0.931 . S
C389 C386 1.382 . S
C389 C387 1.392 . S
C390 Eu361 2.828 . S
C390 O374 1.249 . S
C390 O375 1.244 . S
C390 C384 1.505 . S
C391 O378 1.258 . S
C391 O379 1.242 . S
H392 C364 0.930 . S
H393 C365 0.930 . S
H394 C366 0.930 . S
H395 C367 0.931 . S
H396 C385 0.930 . S
H397 C386 0.930 . S
H398 C387 0.930 . S
H399 C388 0.931 . S
Eu400 C409 2.828 . S
Eu400 O411 2.392 . S
Eu400 O413 2.418 . S
Eu400 O418 2.373 . S
Eu400 O421 2.488 . S
Eu400 O422 2.471 . S
Eu400 O423 2.349 . S
Eu401 O410 2.373 . S
Eu401 O414 2.488 . S
Eu401 O415 2.471 . S
Eu401 O416 2.349 . S
Eu401 O419 2.392 . S
Eu401 O420 2.418 . S
Eu401 C430 2.828 . S
C402 O420 1.244 . S
C402 O423 1.265 . S
C403 C404 1.379 . S
C403 C407 1.373 . S
C403 C409 1.505 . S
C404 C403 1.379 . S
C404 C406 1.369 . S
C404 H432 0.930 . S
C405 C407 1.383 . S
C405 C408 1.382 . S
C405 H433 0.930 . S
C406 C404 1.369 . S
C406 C408 1.392 . S
C406 H434 0.930 . S
C407 C403 1.373 . S
C407 C405 1.383 . S
C407 H435 0.931 . S
C408 C405 1.382 . S
C408 C406 1.392 . S
C409 Eu400 2.828 . S
C409 C403 1.505 . S
C409 O421 1.249 . S
C409 O422 1.244 . S
O410 Eu401 2.373 . S
O410 C412 1.258 . S
O411 Eu400 2.392 . S
O411 C412 1.242 . S
C412 O410 1.258 . S
C412 O411 1.242 . S
O413 Eu400 2.418 . S
O413 C417 1.244 . S
O414 Eu401 2.488 . S
O414 C430 1.249 . S
O415 Eu401 2.471 . S
O415 C430 1.244 . S
O416 Eu401 2.349 . S
O416 C417 1.265 . S
C417 O413 1.244 . S
C417 O416 1.265 . S
O418 Eu400 2.373 . S
O418 C431 1.258 . S
O419 Eu401 2.392 . S
O419 C431 1.242 . S
O420 Eu401 2.418 . S
O420 C402 1.244 . S
O421 Eu400 2.488 . S
O421 C409 1.249 . S
O422 Eu400 2.471 . S
O422 C409 1.244 . S
O423 Eu400 2.349 . S
O423 C402 1.265 . S
C424 C425 1.379 . S
C424 C428 1.373 . S
C424 C430 1.505 . S
C425 C424 1.379 . S
C425 C427 1.369 . S
C425 H436 0.930 . S
C426 C428 1.383 . S
C426 C429 1.382 . S
C426 H437 0.930 . S
C427 C425 1.369 . S
C427 C429 1.392 . S
C427 H438 0.930 . S
C428 C424 1.373 . S
C428 C426 1.383 . S
C428 H439 0.931 . S
C429 C426 1.382 . S
C429 C427 1.392 . S
C430 Eu401 2.828 . S
C430 O414 1.249 . S
C430 O415 1.244 . S
C430 C424 1.505 . S
C431 O418 1.258 . S
C431 O419 1.242 . S
H432 C404 0.930 . S
H433 C405 0.930 . S
H434 C406 0.930 . S
H435 C407 0.931 . S
H436 C425 0.930 . S
H437 C426 0.930 . S
H438 C427 0.930 . S
H439 C428 0.931 . S
Eu440 C449 2.828 . S
Eu440 O451 2.392 . S
Eu440 O453 2.418 . S
Eu440 O458 2.373 . S
Eu440 O461 2.488 . S
Eu440 O462 2.471 . S
Eu440 O463 2.349 . S
Eu441 O450 2.373 . S
Eu441 O454 2.488 . S
Eu441 O455 2.471 . S
Eu441 O456 2.349 . S
Eu441 O459 2.392 . S
Eu441 O460 2.418 . S
Eu441 C470 2.828 . S
C442 O460 1.244 . S
C442 O463 1.265 . S
C443 C444 1.379 . S
C443 C447 1.373 . S
C443 C449 1.505 . S
C444 C443 1.379 . S
C444 C446 1.369 . S
C444 H472 0.930 . S
C445 C447 1.383 . S
C445 C448 1.382 . S
C445 H473 0.930 . S
C446 C444 1.369 . S
C446 C448 1.392 . S
C446 H474 0.930 . S
C447 C443 1.373 . S
C447 C445 1.383 . S
C447 H475 0.931 . S
C448 C445 1.382 . S
C448 C446 1.392 . S
C449 Eu440 2.828 . S
C449 C443 1.505 . S
C449 O461 1.249 . S
C449 O462 1.244 . S
O450 Eu441 2.373 . S
O450 C452 1.258 . S
O451 Eu440 2.392 . S
O451 C452 1.242 . S
C452 O450 1.258 . S
C452 O451 1.242 . S
O453 Eu440 2.418 . S
O453 C457 1.244 . S
O454 Eu441 2.488 . S
O454 C470 1.249 . S
O455 Eu441 2.471 . S
O455 C470 1.244 . S
O456 Eu441 2.349 . S
O456 C457 1.265 . S
C457 O453 1.244 . S
C457 O456 1.265 . S
O458 Eu440 2.373 . S
O458 C471 1.258 . S
O459 Eu441 2.392 . S
O459 C471 1.242 . S
O460 Eu441 2.418 . S
O460 C442 1.244 . S
O461 Eu440 2.488 . S
O461 C449 1.249 . S
O462 Eu440 2.471 . S
O462 C449 1.244 . S
O463 Eu440 2.349 . S
O463 C442 1.265 . S
C464 C465 1.379 . S
C464 C468 1.373 . S
C464 C470 1.505 . S
C465 C464 1.379 . S
C465 C467 1.369 . S
C465 H476 0.930 . S
C466 C468 1.383 . S
C466 C469 1.382 . S
C466 H477 0.930 . S
C467 C465 1.369 . S
C467 C469 1.392 . S
C467 H478 0.930 . S
C468 C464 1.373 . S
C468 C466 1.383 . S
C468 H479 0.931 . S
C469 C466 1.382 . S
C469 C467 1.392 . S
C470 Eu441 2.828 . S
C470 O454 1.249 . S
C470 O455 1.244 . S
C470 C464 1.505 . S
C471 O458 1.258 . S
C471 O459 1.242 . S
H472 C444 0.930 . S
H473 C445 0.930 . S
H474 C446 0.930 . S
H475 C447 0.931 . S
H476 C465 0.930 . S
H477 C466 0.930 . S
H478 C467 0.930 . S
H479 C468 0.931 . S
Eu480 C489 2.828 . S
Eu480 O491 2.392 . S
Eu480 O493 2.418 . S
Eu480 O498 2.373 . S
Eu480 O501 2.488 . S
Eu480 O502 2.471 . S
Eu480 O503 2.349 . S
Eu481 O490 2.373 . S
Eu481 O494 2.488 . S
Eu481 O495 2.471 . S
Eu481 O496 2.349 . S
Eu481 O499 2.392 . S
Eu481 O500 2.418 . S
Eu481 C510 2.828 . S
C482 O500 1.244 . S
C482 O503 1.265 . S
C483 C484 1.379 . S
C483 C487 1.373 . S
C483 C489 1.505 . S
C484 C483 1.379 . S
C484 C486 1.369 . S
C484 H512 0.930 . S
C485 C487 1.383 . S
C485 C488 1.382 . S
C485 H513 0.930 . S
C486 C484 1.369 . S
C486 C488 1.392 . S
C486 H514 0.930 . S
C487 C483 1.373 . S
C487 C485 1.383 . S
C487 H515 0.931 . S
C488 C485 1.382 . S
C488 C486 1.392 . S
C489 Eu480 2.828 . S
C489 C483 1.505 . S
C489 O501 1.249 . S
C489 O502 1.244 . S
O490 Eu481 2.373 . S
O490 C492 1.258 . S
O491 Eu480 2.392 . S
O491 C492 1.242 . S
C492 O490 1.258 . S
C492 O491 1.242 . S
O493 Eu480 2.418 . S
O493 C497 1.244 . S
O494 Eu481 2.488 . S
O494 C510 1.249 . S
O495 Eu481 2.471 . S
O495 C510 1.244 . S
O496 Eu481 2.349 . S
O496 C497 1.265 . S
C497 O493 1.244 . S
C497 O496 1.265 . S
O498 Eu480 2.373 . S
O498 C511 1.258 . S
O499 Eu481 2.392 . S
O499 C511 1.242 . S
O500 Eu481 2.418 . S
O500 C482 1.244 . S
O501 Eu480 2.488 . S
O501 C489 1.249 . S
O502 Eu480 2.471 . S
O502 C489 1.244 . S
O503 Eu480 2.349 . S
O503 C482 1.265 . S
C504 C505 1.379 . S
C504 C508 1.373 . S
C504 C510 1.505 . S
C505 C504 1.379 . S
C505 C507 1.369 . S
C505 H516 0.930 . S
C506 C508 1.383 . S
C506 C509 1.382 . S
C506 H517 0.930 . S
C507 C505 1.369 . S
C507 C509 1.392 . S
C507 H518 0.930 . S
C508 C504 1.373 . S
C508 C506 1.383 . S
C508 H519 0.931 . S
C509 C506 1.382 . S
C509 C507 1.392 . S
C510 Eu481 2.828 . S
C510 O494 1.249 . S
C510 O495 1.244 . S
C510 C504 1.505 . S
C511 O498 1.258 . S
C511 O499 1.242 . S
H512 C484 0.930 . S
H513 C485 0.930 . S
H514 C486 0.930 . S
H515 C487 0.931 . S
H516 C505 0.930 . S
H517 C506 0.930 . S
H518 C507 0.930 . S
H519 C508 0.931 . S
Eu520 C529 2.828 . S
Eu520 O531 2.392 . S
Eu520 O533 2.418 . S
Eu520 O538 2.373 . S
Eu520 O541 2.488 . S
Eu520 O542 2.471 . S
Eu520 O543 2.349 . S
Eu521 O530 2.373 . S
Eu521 O534 2.488 . S
Eu521 O535 2.471 . S
Eu521 O536 2.349 . S
Eu521 O539 2.392 . S
Eu521 O540 2.418 . S
Eu521 C550 2.828 . S
C522 O540 1.244 . S
C522 O543 1.265 . S
C523 C524 1.379 . S
C523 C527 1.373 . S
C523 C529 1.505 . S
C524 C523 1.379 . S
C524 C526 1.369 . S
C524 H552 0.930 . S
C525 C527 1.383 . S
C525 C528 1.382 . S
C525 H553 0.930 . S
C526 C524 1.369 . S
C526 C528 1.392 . S
C526 H554 0.930 . S
C527 C523 1.373 . S
C527 C525 1.383 . S
C527 H555 0.931 . S
C528 C525 1.382 . S
C528 C526 1.392 . S
C529 Eu520 2.828 . S
C529 C523 1.505 . S
C529 O541 1.249 . S
C529 O542 1.244 . S
O530 Eu521 2.373 . S
O530 C532 1.258 . S
O531 Eu520 2.392 . S
O531 C532 1.242 . S
C532 O530 1.258 . S
C532 O531 1.242 . S
O533 Eu520 2.418 . S
O533 C537 1.244 . S
O534 Eu521 2.488 . S
O534 C550 1.249 . S
O535 Eu521 2.471 . S
O535 C550 1.244 . S
O536 Eu521 2.349 . S
O536 C537 1.265 . S
C537 O533 1.244 . S
C537 O536 1.265 . S
O538 Eu520 2.373 . S
O538 C551 1.258 . S
O539 Eu521 2.392 . S
O539 C551 1.242 . S
O540 Eu521 2.418 . S
O540 C522 1.244 . S
O541 Eu520 2.488 . S
O541 C529 1.249 . S
O542 Eu520 2.471 . S
O542 C529 1.244 . S
O543 Eu520 2.349 . S
O543 C522 1.265 . S
C544 C545 1.379 . S
C544 C548 1.373 . S
C544 C550 1.505 . S
C545 C544 1.379 . S
C545 C547 1.369 . S
C545 H556 0.930 . S
C546 C548 1.383 . S
C546 C549 1.382 . S
C546 H557 0.930 . S
C547 C545 1.369 . S
C547 C549 1.392 . S
C547 H558 0.930 . S
C548 C544 1.373 . S
C548 C546 1.383 . S
C548 H559 0.931 . S
C549 C546 1.382 . S
C549 C547 1.392 . S
C550 Eu521 2.828 . S
C550 O534 1.249 . S
C550 O535 1.244 . S
C550 C544 1.505 . S
C551 O538 1.258 . S
C551 O539 1.242 . S
H552 C524 0.930 . S
H553 C525 0.930 . S
H554 C526 0.930 . S
H555 C527 0.931 . S
H556 C545 0.930 . S
H557 C546 0.930 . S
H558 C547 0.930 . S
H559 C548 0.931 . S
Eu560 C569 2.828 . S
Eu560 O571 2.392 . S
Eu560 O573 2.418 . S
Eu560 O578 2.373 . S
Eu560 O581 2.488 . S
Eu560 O582 2.471 . S
Eu560 O583 2.349 . S
Eu561 O570 2.373 . S
Eu561 O574 2.488 . S
Eu561 O575 2.471 . S
Eu561 O576 2.349 . S
Eu561 O579 2.392 . S
Eu561 O580 2.418 . S
Eu561 C590 2.828 . S
C562 O580 1.244 . S
C562 O583 1.265 . S
C563 C564 1.379 . S
C563 C567 1.373 . S
C563 C569 1.505 . S
C564 C563 1.379 . S
C564 C566 1.369 . S
C564 H592 0.930 . S
C565 C567 1.383 . S
C565 C568 1.382 . S
C565 H593 0.930 . S
C566 C564 1.369 . S
C566 C568 1.392 . S
C566 H594 0.930 . S
C567 C563 1.373 . S
C567 C565 1.383 . S
C567 H595 0.931 . S
C568 C565 1.382 . S
C568 C566 1.392 . S
C569 Eu560 2.828 . S
C569 C563 1.505 . S
C569 O581 1.249 . S
C569 O582 1.244 . S
O570 Eu561 2.373 . S
O570 C572 1.258 . S
O571 Eu560 2.392 . S
O571 C572 1.242 . S
C572 O570 1.258 . S
C572 O571 1.242 . S
O573 Eu560 2.418 . S
O573 C577 1.244 . S
O574 Eu561 2.488 . S
O574 C590 1.249 . S
O575 Eu561 2.471 . S
O575 C590 1.244 . S
O576 Eu561 2.349 . S
O576 C577 1.265 . S
C577 O573 1.244 . S
C577 O576 1.265 . S
O578 Eu560 2.373 . S
O578 C591 1.258 . S
O579 Eu561 2.392 . S
O579 C591 1.242 . S
O580 Eu561 2.418 . S
O580 C562 1.244 . S
O581 Eu560 2.488 . S
O581 C569 1.249 . S
O582 Eu560 2.471 . S
O582 C569 1.244 . S
O583 Eu560 2.349 . S
O583 C562 1.265 . S
C584 C585 1.379 . S
C584 C588 1.373 . S
C584 C590 1.505 . S
C585 C584 1.379 . S
C585 C587 1.369 . S
C585 H596 0.930 . S
C586 C588 1.383 . S
C586 C589 1.382 . S
C586 H597 0.930 . S
C587 C585 1.369 . S
C587 C589 1.392 . S
C587 H598 0.930 . S
C588 C584 1.373 . S
C588 C586 1.383 . S
C588 H599 0.931 . S
C589 C586 1.382 . S
C589 C587 1.392 . S
C590 Eu561 2.828 . S
C590 O574 1.249 . S
C590 O575 1.244 . S
C590 C584 1.505 . S
C591 O578 1.258 . S
C591 O579 1.242 . S
H592 C564 0.930 . S
H593 C565 0.930 . S
H594 C566 0.930 . S
H595 C567 0.931 . S
H596 C585 0.930 . S
H597 C586 0.930 . S
H598 C587 0.930 . S
H599 C588 0.931 . S
Eu600 C609 2.828 . S
Eu600 O611 2.392 . S
Eu600 O613 2.418 . S
Eu600 O618 2.373 . S
Eu600 O621 2.488 . S
Eu600 O622 2.471 . S
Eu600 O623 2.349 . S
Eu601 O610 2.373 . S
Eu601 O614 2.488 . S
Eu601 O615 2.471 . S
Eu601 O616 2.349 . S
Eu601 O619 2.392 . S
Eu601 O620 2.418 . S
Eu601 C630 2.828 . S
C602 O620 1.244 . S
C602 O623 1.265 . S
C603 C604 1.379 . S
C603 C607 1.373 . S
C603 C609 1.505 . S
C604 C603 1.379 . S
C604 C606 1.369 . S
C604 H632 0.930 . S
C605 C607 1.383 . S
C605 C608 1.382 . S
C605 H633 0.930 . S
C606 C604 1.369 . S
C606 C608 1.392 . S
C606 H634 0.930 . S
C607 C603 1.373 . S
C607 C605 1.383 . S
C607 H635 0.931 . S
C608 C605 1.382 . S
C608 C606 1.392 . S
C609 Eu600 2.828 . S
C609 C603 1.505 . S
C609 O621 1.249 . S
C609 O622 1.244 . S
O610 Eu601 2.373 . S
O610 C612 1.258 . S
O611 Eu600 2.392 . S
O611 C612 1.242 . S
C612 O610 1.258 . S
C612 O611 1.242 . S
O613 Eu600 2.418 . S
O613 C617 1.244 . S
O614 Eu601 2.488 . S
O614 C630 1.249 . S
O615 Eu601 2.471 . S
O615 C630 1.244 . S
O616 Eu601 2.349 . S
O616 C617 1.265 . S
C617 O613 1.244 . S
C617 O616 1.265 . S
O618 Eu600 2.373 . S
O618 C631 1.258 . S
O619 Eu601 2.392 . S
O619 C631 1.242 . S
O620 Eu601 2.418 . S
O620 C602 1.244 . S
O621 Eu600 2.488 . S
O621 C609 1.249 . S
O622 Eu600 2.471 . S
O622 C609 1.244 . S
O623 Eu600 2.349 . S
O623 C602 1.265 . S
C624 C625 1.379 . S
C624 C628 1.373 . S
C624 C630 1.505 . S
C625 C624 1.379 . S
C625 C627 1.369 . S
C625 H636 0.930 . S
C626 C628 1.383 1_565 S
C626 C629 1.382 . S
C626 H637 0.930 . S
C627 C625 1.369 . S
C627 C629 1.392 1_545 S
C627 H638 0.930 1_545 S
C628 C624 1.373 . S
C628 C626 1.383 1_545 S
C628 H639 0.931 . S
C629 C626 1.382 . S
C629 C627 1.392 1_565 S
C630 Eu601 2.828 . S
C630 O614 1.249 . S
C630 O615 1.244 . S
C630 C624 1.505 . S
C631 O618 1.258 . S
C631 O619 1.242 . S
H632 C604 0.930 . S
H633 C605 0.930 . S
H634 C606 0.930 . S
H635 C607 0.931 . S
H636 C625 0.930 . S
H637 C626 0.930 . S
H638 C627 0.930 1_565 S
H639 C628 0.931 . S
Eu640 C649 2.828 . S
Eu640 O651 2.392 . S
Eu640 O653 2.418 . S
Eu640 O658 2.373 . S
Eu640 O661 2.488 . S
Eu640 O662 2.471 . S
Eu640 O663 2.349 . S
Eu641 O650 2.373 . S
Eu641 O654 2.488 . S
Eu641 O655 2.471 . S
Eu641 O656 2.349 . S
Eu641 O659 2.392 . S
Eu641 O660 2.418 . S
Eu641 C670 2.828 . S
C642 O660 1.244 . S
C642 O663 1.265 . S
C643 C644 1.379 . S
C643 C647 1.373 . S
C643 C649 1.505 . S
C644 C643 1.379 . S
C644 C646 1.369 . S
C644 H672 0.930 . S
C645 C647 1.383 . S
C645 C648 1.382 . S
C645 H673 0.930 . S
C646 C644 1.369 . S
C646 C648 1.392 . S
C646 H674 0.930 . S
C647 C643 1.373 . S
C647 C645 1.383 . S
C647 H675 0.931 . S
C648 C645 1.382 . S
C648 C646 1.392 . S
C649 Eu640 2.828 . S
C649 C643 1.505 . S
C649 O661 1.249 . S
C649 O662 1.244 . S
O650 Eu641 2.373 . S
O650 C652 1.258 . S
O651 Eu640 2.392 . S
O651 C652 1.242 . S
C652 O650 1.258 . S
C652 O651 1.242 . S
O653 Eu640 2.418 . S
O653 C657 1.244 . S
O654 Eu641 2.488 . S
O654 C670 1.249 . S
O655 Eu641 2.471 . S
O655 C670 1.244 . S
O656 Eu641 2.349 . S
O656 C657 1.265 . S
C657 O653 1.244 . S
C657 O656 1.265 . S
O658 Eu640 2.373 . S
O658 C671 1.258 . S
O659 Eu641 2.392 . S
O659 C671 1.242 . S
O660 Eu641 2.418 . S
O660 C642 1.244 . S
O661 Eu640 2.488 . S
O661 C649 1.249 . S
O662 Eu640 2.471 . S
O662 C649 1.244 . S
O663 Eu640 2.349 . S
O663 C642 1.265 . S
C664 C665 1.363 1_655 S
C664 C668 1.373 1_655 S
C664 C670 1.505 . S
C665 C664 1.363 1_455 S
C665 C667 1.405 . S
C665 H676 0.911 1_455 S
C666 C668 1.383 . S
C666 C669 1.382 . S
C666 H677 0.930 . S
C667 C665 1.405 . S
C667 C669 1.392 . S
C667 H678 0.930 . S
C668 C664 1.373 1_455 S
C668 C666 1.383 . S
C668 H679 0.931 . S
C669 C666 1.382 . S
C669 C667 1.392 . S
C670 Eu641 2.828 . S
C670 O654 1.249 . S
C670 O655 1.244 . S
C670 C664 1.505 . S
C671 O658 1.258 . S
C671 O659 1.242 . S
H672 C644 0.930 . S
H673 C645 0.930 . S
H674 C646 0.930 . S
H675 C647 0.931 . S
H676 C665 0.911 1_655 S
H677 C666 0.930 . S
H678 C667 0.930 . S
H679 C668 0.931 . S
Eu680 C689 2.828 . S
Eu680 O691 2.392 . S
Eu680 O693 2.418 . S
Eu680 O698 2.373 . S
Eu680 O701 2.488 . S
Eu680 O702 2.471 . S
Eu680 O703 2.349 . S
Eu681 O690 2.373 . S
Eu681 O694 2.488 . S
Eu681 O695 2.471 . S
Eu681 O696 2.349 . S
Eu681 O699 2.392 . S
Eu681 O700 2.418 . S
Eu681 C710 2.828 . S
C682 O700 1.244 . S
C682 O703 1.265 . S
C683 C684 1.379 . S
C683 C687 1.373 . S
C683 C689 1.505 . S
C684 C683 1.379 . S
C684 C686 1.369 . S
C684 H712 0.930 . S
C685 C687 1.383 . S
C685 C688 1.382 . S
C685 H713 0.930 . S
C686 C684 1.369 . S
C686 C688 1.392 . S
C686 H714 0.930 . S
C687 C683 1.373 . S
C687 C685 1.383 . S
C687 H715 0.931 . S
C688 C685 1.382 . S
C688 C686 1.392 . S
C689 Eu680 2.828 . S
C689 C683 1.505 . S
C689 O701 1.249 . S
C689 O702 1.244 . S
O690 Eu681 2.373 . S
O690 C692 1.258 . S
O691 Eu680 2.392 . S
O691 C692 1.242 . S
C692 O690 1.258 . S
C692 O691 1.242 . S
O693 Eu680 2.418 . S
O693 C697 1.244 . S
O694 Eu681 2.488 . S
O694 C710 1.249 . S
O695 Eu681 2.471 . S
O695 C710 1.244 . S
O696 Eu681 2.349 . S
O696 C697 1.265 . S
C697 O693 1.244 . S
C697 O696 1.265 . S
O698 Eu680 2.373 . S
O698 C711 1.258 . S
O699 Eu681 2.392 . S
O699 C711 1.242 . S
O700 Eu681 2.418 . S
O700 C682 1.244 . S
O701 Eu680 2.488 . S
O701 C689 1.249 . S
O702 Eu680 2.471 . S
O702 C689 1.244 . S
O703 Eu680 2.349 . S
O703 C682 1.265 . S
C704 C705 1.379 . S
C704 C708 1.373 . S
C704 C710 1.505 . S
C705 C704 1.379 . S
C705 C707 1.369 . S
C705 H716 0.930 . S
C706 C708 1.383 . S
C706 C709 1.382 . S
C706 H717 0.930 . S
C707 C705 1.369 . S
C707 C709 1.392 . S
C707 H718 0.930 . S
C708 C704 1.373 . S
C708 C706 1.383 . S
C708 H719 0.931 . S
C709 C706 1.382 . S
C709 C707 1.392 . S
C710 Eu681 2.828 . S
C710 O694 1.249 . S
C710 O695 1.244 . S
C710 C704 1.505 . S
C711 O698 1.258 . S
C711 O699 1.242 . S
H712 C684 0.930 . S
H713 C685 0.930 . S
H714 C686 0.930 . S
H715 C687 0.931 . S
H716 C705 0.930 . S
H717 C706 0.930 . S
H718 C707 0.930 . S
H719 C708 0.931 . S
H720 C728 0.929 . S
H721 C730 0.930 . S
H722 C732 0.930 . S
H723 C735 0.929 . S
H724 C738 0.930 . S
H725 C740 0.960 . S
H726 C740 0.960 . S
H727 C740 0.960 . S
C728 H720 0.929 . S
C728 C729 1.377 . S
C728 C730 1.384 . S
C729 C728 1.377 . S
C729 C735 1.390 . S
C730 H721 0.930 . S
C730 C728 1.384 . S
C730 C731 1.372 . S
C731 C730 1.372 . S
C731 C732 1.400 . S
C731 C736 1.490 . S
C732 H722 0.930 . S
C732 C731 1.400 . S
C732 C735 1.386 . S
H733 C749 0.930 . S
H734 C750 0.931 . S
C735 H723 0.929 . S
C735 C729 1.390 . S
C735 C732 1.386 . S
C736 C731 1.490 . S
C736 C738 1.395 . S
C736 C739 1.403 . S
H737 C743 0.930 . S
C738 H724 0.930 . S
C738 C736 1.395 . S
C738 C741 1.403 . S
C739 C736 1.403 . S
C739 C740 1.524 . S
C739 C743 1.400 . S
C740 H725 0.960 . S
C740 H726 0.960 . S
C740 H727 0.960 . S
C740 C739 1.524 . S
C741 C738 1.403 . S
C741 C742 1.392 . S
C741 C745 1.495 . S
C742 C741 1.392 . S
C742 C743 1.385 . S
C742 C744 1.478 . S
C743 H737 0.930 . S
C743 C739 1.400 . S
C743 C742 1.385 . S
C744 C742 1.478 . S
C744 C746 1.381 . S
C744 C750 1.383 . S
C745 C741 1.495 . S
C745 H751 0.959 . S
C745 H752 0.961 . S
C745 H753 0.960 . S
C746 C744 1.381 . S
C746 C747 1.394 . S
C746 H754 0.930 . S
C747 C746 1.394 . S
C747 C748 1.383 . S
C747 H755 0.929 . S
C748 C747 1.383 . S
C748 C749 1.377 . S
C749 H733 0.930 . S
C749 C748 1.377 . S
C749 C750 1.379 . S
C750 H734 0.931 . S
C750 C744 1.383 . S
C750 C749 1.379 . S
H751 C745 0.959 . S
H752 C745 0.961 . S
H753 C745 0.960 . S
H754 C746 0.930 . S
H755 C747 0.929 . S
H756 C764 0.929 . S
H757 C766 0.930 . S
H758 C768 0.930 . S
H759 C771 0.929 . S
H760 C774 0.930 . S
H761 C776 0.960 . S
H762 C776 0.960 . S
H763 C776 0.960 . S
C764 H756 0.929 . S
C764 C765 1.377 . S
C764 C766 1.384 . S
C765 C764 1.377 . S
C765 C771 1.390 . S
C766 H757 0.930 . S
C766 C764 1.384 . S
C766 C767 1.372 . S
C767 C766 1.372 . S
C767 C768 1.400 . S
C767 C772 1.490 . S
C768 H758 0.930 . S
C768 C767 1.400 . S
C768 C771 1.386 . S
H769 C785 0.930 . S
H770 C786 0.931 . S
C771 H759 0.929 . S
C771 C765 1.390 . S
C771 C768 1.386 . S
C772 C767 1.490 . S
C772 C774 1.395 . S
C772 C775 1.403 . S
H773 C779 0.930 . S
C774 H760 0.930 . S
C774 C772 1.395 . S
C774 C777 1.403 . S
C775 C772 1.403 . S
C775 C776 1.524 . S
C775 C779 1.400 . S
C776 H761 0.960 . S
C776 H762 0.960 . S
C776 H763 0.960 . S
C776 C775 1.524 . S
C777 C774 1.403 . S
C777 C778 1.392 . S
C777 C781 1.495 . S
C778 C777 1.392 . S
C778 C779 1.385 . S
C778 C780 1.478 . S
C779 H773 0.930 . S
C779 C775 1.400 . S
C779 C778 1.385 . S
C780 C778 1.478 . S
C780 C782 1.381 . S
C780 C786 1.383 . S
C781 C777 1.495 . S
C781 H787 0.959 . S
C781 H788 0.961 . S
C781 H789 0.960 . S
C782 C780 1.381 . S
C782 C783 1.394 . S
C782 H790 0.930 . S
C783 C782 1.394 . S
C783 C784 1.383 . S
C783 H791 0.929 . S
C784 C783 1.383 . S
C784 C785 1.377 . S
C785 H769 0.930 . S
C785 C784 1.377 . S
C785 C786 1.379 . S
C786 H770 0.931 . S
C786 C780 1.383 . S
C786 C785 1.379 . S
H787 C781 0.959 . S
H788 C781 0.961 . S
H789 C781 0.960 . S
H790 C782 0.930 . S
H791 C783 0.929 . S
H792 C800 0.929 . S
H793 C802 0.930 . S
H794 C804 0.930 . S
H795 C807 0.929 . S
H796 C810 0.930 . S
H797 C812 0.960 . S
H798 C812 0.960 . S
H799 C812 0.960 . S
C800 H792 0.929 . S
C800 C801 1.377 . S
C800 C802 1.384 . S
C801 C800 1.377 . S
C801 C807 1.390 . S
C802 H793 0.930 . S
C802 C800 1.384 . S
C802 C803 1.372 . S
C803 C802 1.372 . S
C803 C804 1.400 . S
C803 C808 1.490 . S
C804 H794 0.930 . S
C804 C803 1.400 . S
C804 C807 1.386 . S
H805 C821 0.930 . S
H806 C822 0.931 . S
C807 H795 0.929 . S
C807 C801 1.390 . S
C807 C804 1.386 . S
C808 C803 1.490 . S
C808 C810 1.395 . S
C808 C811 1.403 . S
H809 C815 0.930 . S
C810 H796 0.930 . S
C810 C808 1.395 . S
C810 C813 1.403 . S
C811 C808 1.403 . S
C811 C812 1.524 . S
C811 C815 1.400 . S
C812 H797 0.960 . S
C812 H798 0.960 . S
C812 H799 0.960 . S
C812 C811 1.524 . S
C813 C810 1.403 . S
C813 C814 1.392 . S
C813 C817 1.495 . S
C814 C813 1.392 . S
C814 C815 1.385 . S
C814 C816 1.478 . S
C815 H809 0.930 . S
C815 C811 1.400 . S
C815 C814 1.385 . S
C816 C814 1.478 . S
C816 C818 1.381 . S
C816 C822 1.383 . S
C817 C813 1.495 . S
C817 H823 0.959 . S
C817 H824 0.961 . S
C817 H825 0.960 . S
C818 C816 1.381 . S
C818 C819 1.394 . S
C818 H826 0.930 . S
C819 C818 1.394 . S
C819 C820 1.383 . S
C819 H827 0.929 . S
C820 C819 1.383 . S
C820 C821 1.377 . S
C821 H805 0.930 . S
C821 C820 1.377 . S
C821 C822 1.379 . S
C822 H806 0.931 . S
C822 C816 1.383 . S
C822 C821 1.379 . S
H823 C817 0.959 . S
H824 C817 0.961 . S
H825 C817 0.960 . S
H826 C818 0.930 . S
H827 C819 0.929 . S
H828 C836 0.929 . S
H829 C838 0.930 . S
H830 C840 0.930 . S
H831 C843 0.929 . S
H832 C846 0.930 . S
H833 C848 0.960 . S
H834 C848 0.960 . S
H835 C848 0.960 . S
C836 H828 0.929 . S
C836 C837 1.377 . S
C836 C838 1.384 . S
C837 C836 1.377 . S
C837 C843 1.390 . S
C838 H829 0.930 . S
C838 C836 1.384 . S
C838 C839 1.372 . S
C839 C838 1.372 . S
C839 C840 1.400 . S
C839 C844 1.490 . S
C840 H830 0.930 . S
C840 C839 1.400 . S
C840 C843 1.386 . S
H841 C857 0.930 . S
H842 C858 0.931 . S
C843 H831 0.929 . S
C843 C837 1.390 . S
C843 C840 1.386 . S
C844 C839 1.490 . S
C844 C846 1.395 . S
C844 C847 1.403 . S
H845 C851 0.930 . S
C846 H832 0.930 . S
C846 C844 1.395 . S
C846 C849 1.403 . S
C847 C844 1.403 . S
C847 C848 1.524 . S
C847 C851 1.400 . S
C848 H833 0.960 . S
C848 H834 0.960 . S
C848 H835 0.960 . S
C848 C847 1.524 . S
C849 C846 1.403 . S
C849 C850 1.392 . S
C849 C853 1.495 . S
C850 C849 1.392 . S
C850 C851 1.385 . S
C850 C852 1.478 . S
C851 H845 0.930 . S
C851 C847 1.400 . S
C851 C850 1.385 . S
C852 C850 1.478 . S
C852 C854 1.381 . S
C852 C858 1.383 . S
C853 C849 1.495 . S
C853 H859 0.959 . S
C853 H860 0.961 . S
C853 H861 0.960 . S
C854 C852 1.381 . S
C854 C855 1.394 . S
C854 H862 0.930 . S
C855 C854 1.394 . S
C855 C856 1.383 . S
C855 H863 0.929 . S
C856 C855 1.383 . S
C856 C857 1.377 . S
C857 H841 0.930 . S
C857 C856 1.377 . S
C857 C858 1.379 . S
C858 H842 0.931 . S
C858 C852 1.383 . S
C858 C857 1.379 . S
H859 C853 0.959 . S
H860 C853 0.961 . S
H861 C853 0.960 . S
H862 C854 0.930 . S
H863 C855 0.929 . S
H864 C872 0.929 . S
H865 C874 0.930 . S
H866 C876 0.930 . S
H867 C879 0.929 . S
H868 C882 0.930 . S
H869 C884 0.960 . S
H870 C884 0.960 . S
H871 C884 0.960 . S
C872 H864 0.929 . S
C872 C873 1.377 . S
C872 C874 1.384 . S
C873 C872 1.377 . S
C873 C879 1.390 . S
C874 H865 0.930 . S
C874 C872 1.384 . S
C874 C875 1.372 . S
C875 C874 1.372 . S
C875 C876 1.400 . S
C875 C880 1.490 . S
C876 H866 0.930 . S
C876 C875 1.400 . S
C876 C879 1.386 . S
H877 C893 0.930 . S
H878 C894 0.931 . S
C879 H867 0.929 . S
C879 C873 1.390 . S
C879 C876 1.386 . S
C880 C875 1.490 . S
C880 C882 1.395 . S
C880 C883 1.403 . S
H881 C887 0.930 . S
C882 H868 0.930 . S
C882 C880 1.395 . S
C882 C885 1.403 . S
C883 C880 1.403 . S
C883 C884 1.524 . S
C883 C887 1.400 . S
C884 H869 0.960 . S
C884 H870 0.960 . S
C884 H871 0.960 . S
C884 C883 1.524 . S
C885 C882 1.403 . S
C885 C886 1.392 . S
C885 C889 1.495 . S
C886 C885 1.392 . S
C886 C887 1.385 . S
C886 C888 1.478 . S
C887 H881 0.930 . S
C887 C883 1.400 . S
C887 C886 1.385 . S
C888 C886 1.478 . S
C888 C890 1.381 . S
C888 C894 1.383 . S
C889 C885 1.495 . S
C889 H895 0.959 . S
C889 H896 0.961 . S
C889 H897 0.960 . S
C890 C888 1.381 . S
C890 C891 1.394 . S
C890 H898 0.930 . S
C891 C890 1.394 . S
C891 C892 1.383 . S
C891 H899 0.929 . S
C892 C891 1.383 . S
C892 C893 1.377 . S
C893 H877 0.930 . S
C893 C892 1.377 . S
C893 C894 1.379 . S
C894 H878 0.931 . S
C894 C888 1.383 . S
C894 C893 1.379 . S
H895 C889 0.959 . S
H896 C889 0.961 . S
H897 C889 0.960 . S
H898 C890 0.930 . S
H899 C891 0.929 . S
H900 C908 0.929 . S
H901 C910 0.930 . S
H902 C912 0.930 . S
H903 C915 0.929 . S
H904 C918 0.930 . S
H905 C920 0.960 . S
H906 C920 0.960 . S
H907 C920 0.960 . S
C908 H900 0.929 . S
C908 C909 1.377 . S
C908 C910 1.384 . S
C909 C908 1.377 . S
C909 C915 1.390 . S
C910 H901 0.930 . S
C910 C908 1.384 . S
C910 C911 1.372 . S
C911 C910 1.372 . S
C911 C912 1.400 . S
C911 C916 1.490 . S
C912 H902 0.930 . S
C912 C911 1.400 . S
C912 C915 1.386 . S
H913 C929 0.930 . S
H914 C930 0.931 . S
C915 H903 0.929 . S
C915 C909 1.390 . S
C915 C912 1.386 . S
C916 C911 1.490 . S
C916 C918 1.395 . S
C916 C919 1.403 . S
H917 C923 0.930 . S
C918 H904 0.930 . S
C918 C916 1.395 . S
C918 C921 1.403 . S
C919 C916 1.403 . S
C919 C920 1.524 . S
C919 C923 1.400 . S
C920 H905 0.960 . S
C920 H906 0.960 . S
C920 H907 0.960 . S
C920 C919 1.524 . S
C921 C918 1.403 . S
C921 C922 1.392 . S
C921 C925 1.495 . S
C922 C921 1.392 . S
C922 C923 1.385 . S
C922 C924 1.478 . S
C923 H917 0.930 . S
C923 C919 1.400 . S
C923 C922 1.385 . S
C924 C922 1.478 . S
C924 C926 1.381 . S
C924 C930 1.383 . S
C925 C921 1.495 . S
C925 H931 0.959 . S
C925 H932 0.961 . S
C925 H933 0.960 . S
C926 C924 1.381 . S
C926 C927 1.394 . S
C926 H934 0.930 . S
C927 C926 1.394 . S
C927 C928 1.383 . S
C927 H935 0.929 . S
C928 C927 1.383 . S
C928 C929 1.377 . S
C929 H913 0.930 . S
C929 C928 1.377 . S
C929 C930 1.379 . S
C930 H914 0.931 . S
C930 C924 1.383 . S
C930 C929 1.379 . S
H931 C925 0.959 . S
H932 C925 0.961 . S
H933 C925 0.960 . S
H934 C926 0.930 . S
H935 C927 0.929 . S
H936 C944 0.929 . S
H937 C946 0.930 . S
H938 C948 0.930 . S
H939 C951 0.929 . S
H940 C954 0.930 . S
H941 C956 0.960 . S
H942 C956 0.960 . S
H943 C956 0.960 . S
C944 H936 0.929 . S
C944 C945 1.377 . S
C944 C946 1.384 . S
C945 C944 1.377 . S
C945 C951 1.390 . S
C946 H937 0.930 . S
C946 C944 1.384 . S
C946 C947 1.372 . S
C947 C946 1.372 . S
C947 C948 1.400 . S
C947 C952 1.490 . S
C948 H938 0.930 . S
C948 C947 1.400 . S
C948 C951 1.386 . S
H949 C965 0.930 . S
H950 C966 0.931 . S
C951 H939 0.929 . S
C951 C945 1.390 . S
C951 C948 1.386 . S
C952 C947 1.490 . S
C952 C954 1.395 . S
C952 C955 1.403 . S
H953 C959 0.930 . S
C954 H940 0.930 . S
C954 C952 1.395 . S
C954 C957 1.403 . S
C955 C952 1.403 . S
C955 C956 1.524 . S
C955 C959 1.400 . S
C956 H941 0.960 . S
C956 H942 0.960 . S
C956 H943 0.960 . S
C956 C955 1.524 . S
C957 C954 1.403 . S
C957 C958 1.392 . S
C957 C961 1.495 . S
C958 C957 1.392 . S
C958 C959 1.385 . S
C958 C960 1.478 . S
C959 H953 0.930 . S
C959 C955 1.400 . S
C959 C958 1.385 . S
C960 C958 1.478 . S
C960 C962 1.381 . S
C960 C966 1.383 . S
C961 C957 1.495 . S
C961 H967 0.959 . S
C961 H968 0.961 . S
C961 H969 0.960 . S
C962 C960 1.381 . S
C962 C963 1.394 . S
C962 H970 0.930 . S
C963 C962 1.394 . S
C963 C964 1.383 . S
C963 H971 0.929 . S
C964 C963 1.383 . S
C964 C965 1.377 . S
C965 H949 0.930 . S
C965 C964 1.377 . S
C965 C966 1.379 . S
C966 H950 0.931 . S
C966 C960 1.383 . S
C966 C965 1.379 . S
H967 C961 0.959 . S
H968 C961 0.961 . S
H969 C961 0.960 . S
H970 C962 0.930 . S
H971 C963 0.929 . S
H972 C980 0.929 . S
H973 C982 0.930 . S
H974 C984 0.930 . S
H975 C987 0.929 . S
H976 C990 0.930 . S
H977 C992 0.960 . S
H978 C992 0.960 . S
H979 C992 0.960 . S
C980 H972 0.929 . S
C980 C981 1.377 . S
C980 C982 1.384 . S
C981 C980 1.377 . S
C981 C987 1.390 . S
C982 H973 0.930 . S
C982 C980 1.384 . S
C982 C983 1.372 . S
C983 C982 1.372 . S
C983 C984 1.400 . S
C983 C988 1.490 . S
C984 H974 0.930 . S
C984 C983 1.400 . S
C984 C987 1.386 . S
H985 C1001 0.930 . S
H986 C1002 0.931 . S
C987 H975 0.929 . S
C987 C981 1.390 . S
C987 C984 1.386 . S
C988 C983 1.490 . S
C988 C990 1.395 . S
C988 C991 1.403 . S
H989 C995 0.930 1_565 S
C990 H976 0.930 . S
C990 C988 1.395 . S
C990 C993 1.403 . S
C991 C988 1.403 . S
C991 C992 1.524 . S
C991 C995 1.400 . S
C992 H977 0.960 . S
C992 H978 0.960 . S
C992 H979 0.960 . S
C992 C991 1.524 . S
C993 C990 1.403 . S
C993 C994 1.392 1_545 S
C993 C997 1.495 1_545 S
C994 C993 1.392 1_565 S
C994 C995 1.385 1_565 S
C994 C996 1.478 . S
C995 H989 0.930 1_545 S
C995 C991 1.400 . S
C995 C994 1.385 1_545 S
C996 C994 1.478 . S
C996 C998 1.381 . S
C996 C1002 1.383 . S
C997 C993 1.495 1_565 S
C997 H1003 0.959 1_565 S
C997 H1004 0.961 . S
C997 H1005 0.960 . S
C998 C996 1.381 . S
C998 C999 1.394 . S
C998 H1006 0.930 . S
C999 C998 1.394 . S
C999 C1000 1.383 . S
C999 H1007 0.929 . S
C1000 C999 1.383 . S
C1000 C1001 1.377 . S
C1001 H985 0.930 . S
C1001 C1000 1.377 . S
C1001 C1002 1.379 . S
C1002 H986 0.931 . S
C1002 C996 1.383 . S
C1002 C1001 1.379 . S
H1003 C997 0.959 1_545 S
H1004 C997 0.961 . S
H1005 C997 0.960 . S
H1006 C998 0.930 . S
H1007 C999 0.929 . S
H1008 C1016 0.929 . S
H1009 C1018 0.930 . S
H1010 C1020 0.930 . S
H1011 C1023 0.929 . S
H1012 C1026 0.930 . S
H1013 C1028 0.960 . S
H1014 C1028 0.960 . S
H1015 C1028 0.960 . S
C1016 H1008 0.929 . S
C1016 C1017 1.377 . S
C1016 C1018 1.384 . S
C1017 C1016 1.377 . S
C1017 C1023 1.390 . S
C1018 H1009 0.930 . S
C1018 C1016 1.384 . S
C1018 C1019 1.372 . S
C1019 C1018 1.372 . S
C1019 C1020 1.400 . S
C1019 C1024 1.490 . S
C1020 H1010 0.930 . S
C1020 C1019 1.400 . S
C1020 C1023 1.386 . S
H1021 C1037 0.930 . S
H1022 C1038 0.931 . S
C1023 H1011 0.929 . S
C1023 C1017 1.390 . S
C1023 C1020 1.386 . S
C1024 C1019 1.490 . S
C1024 C1026 1.395 . S
C1024 C1027 1.403 . S
H1025 C1031 0.930 . S
C1026 H1012 0.930 . S
C1026 C1024 1.395 . S
C1026 C1029 1.403 1_455 S
C1027 C1024 1.403 . S
C1027 C1028 1.524 . S
C1027 C1031 1.400 1_455 S
C1028 H1013 0.960 . S
C1028 H1014 0.960 . S
C1028 H1015 0.960 . S
C1028 C1027 1.524 . S
C1029 C1026 1.403 1_655 S
C1029 C1030 1.392 . S
C1029 C1033 1.495 . S
C1030 C1029 1.392 . S
C1030 C1031 1.385 . S
C1030 C1032 1.478 . S
C1031 H1025 0.930 . S
C1031 C1027 1.400 1_655 S
C1031 C1030 1.385 . S
C1032 C1030 1.478 . S
C1032 C1034 1.381 . S
C1032 C1038 1.383 . S
C1033 C1029 1.495 . S
C1033 H1039 0.959 . S
C1033 H1040 0.961 . S
C1033 H1041 0.960 . S
C1034 C1032 1.381 . S
C1034 C1035 1.394 . S
C1034 H1042 0.930 . S
C1035 C1034 1.394 . S
C1035 C1036 1.383 . S
C1035 H1043 0.929 . S
C1036 C1035 1.383 . S
C1036 C1037 1.377 . S
C1037 H1021 0.930 . S
C1037 C1036 1.377 . S
C1037 C1038 1.379 . S
C1038 H1022 0.931 . S
C1038 C1032 1.383 . S
C1038 C1037 1.379 . S
H1039 C1033 0.959 . S
H1040 C1033 0.961 . S
H1041 C1033 0.960 . S
H1042 C1034 0.930 . S
H1043 C1035 0.929 . S
H1044 C1052 0.929 . S
H1045 C1054 0.930 . S
H1046 C1056 0.930 . S
H1047 C1059 0.929 . S
H1048 C1062 0.930 . S
H1049 C1064 0.960 . S
H1050 C1064 0.960 . S
H1051 C1064 0.960 . S
C1052 H1044 0.929 . S
C1052 C1053 1.377 . S
C1052 C1054 1.384 . S
C1053 C1052 1.377 . S
C1053 C1059 1.390 . S
C1054 H1045 0.930 . S
C1054 C1052 1.384 . S
C1054 C1055 1.372 . S
C1055 C1054 1.372 . S
C1055 C1056 1.400 . S
C1055 C1060 1.490 . S
C1056 H1046 0.930 . S
C1056 C1055 1.400 . S
C1056 C1059 1.386 . S
H1057 C1073 0.930 . S
H1058 C1074 0.931 . S
C1059 H1047 0.929 . S
C1059 C1053 1.390 . S
C1059 C1056 1.386 . S
C1060 C1055 1.490 . S
C1060 C1062 1.395 . S
C1060 C1063 1.403 . S
H1061 C1067 0.930 . S
C1062 H1048 0.930 . S
C1062 C1060 1.395 . S
C1062 C1065 1.403 . S
C1063 C1060 1.403 . S
C1063 C1064 1.524 . S
C1063 C1067 1.400 . S
C1064 H1049 0.960 . S
C1064 H1050 0.960 . S
C1064 H1051 0.960 . S
C1064 C1063 1.524 . S
C1065 C1062 1.403 . S
C1065 C1066 1.392 . S
C1065 C1069 1.495 . S
C1066 C1065 1.392 . S
C1066 C1067 1.385 . S
C1066 C1068 1.478 . S
C1067 H1061 0.930 . S
C1067 C1063 1.400 . S
C1067 C1066 1.385 . S
C1068 C1066 1.478 . S
C1068 C1070 1.381 . S
C1068 C1074 1.383 . S
C1069 C1065 1.495 . S
C1069 H1075 0.959 . S
C1069 H1076 0.961 . S
C1069 H1077 0.960 . S
C1070 C1068 1.381 . S
C1070 C1071 1.394 . S
C1070 H1078 0.930 . S
C1071 C1070 1.394 . S
C1071 C1072 1.383 . S
C1071 H1079 0.929 . S
C1072 C1071 1.383 . S
C1072 C1073 1.377 . S
C1073 H1057 0.930 . S
C1073 C1072 1.377 . S
C1073 C1074 1.379 . S
C1074 H1058 0.931 . S
C1074 C1068 1.383 . S
C1074 C1073 1.379 . S
H1075 C1069 0.959 . S
H1076 C1069 0.961 . S
H1077 C1069 0.960 . S
H1078 C1070 0.930 . S
H1079 C1071 0.929 . S
H1080 C1088 0.929 . S
H1081 C1090 0.930 . S
H1082 C1092 0.930 . S
H1083 C1095 0.929 . S
H1084 C1098 0.930 . S
H1085 C1100 0.960 . S
H1086 C1100 0.960 . S
H1087 C1100 0.960 . S
C1088 H1080 0.929 . S
C1088 C1089 1.377 . S
C1088 C1090 1.384 . S
C1089 C1088 1.377 . S
C1089 C1095 1.390 . S
C1090 H1081 0.930 . S
C1090 C1088 1.384 . S
C1090 C1091 1.372 . S
C1091 C1090 1.372 . S
C1091 C1092 1.400 . S
C1091 C1096 1.490 . S
C1092 H1082 0.930 . S
C1092 C1091 1.400 . S
C1092 C1095 1.386 . S
H1093 C1109 0.930 . S
H1094 C1110 0.931 . S
C1095 H1083 0.929 . S
C1095 C1089 1.390 . S
C1095 C1092 1.386 . S
C1096 C1091 1.490 . S
C1096 C1098 1.395 . S
C1096 C1099 1.403 . S
H1097 C1103 0.930 . S
C1098 H1084 0.930 . S
C1098 C1096 1.395 . S
C1098 C1101 1.403 . S
C1099 C1096 1.403 . S
C1099 C1100 1.524 . S
C1099 C1103 1.400 . S
C1100 H1085 0.960 . S
C1100 H1086 0.960 . S
C1100 H1087 0.960 . S
C1100 C1099 1.524 . S
C1101 C1098 1.403 . S
C1101 C1102 1.392 . S
C1101 C1105 1.495 . S
C1102 C1101 1.392 . S
C1102 C1103 1.385 . S
C1102 C1104 1.478 . S
C1103 H1097 0.930 . S
C1103 C1099 1.400 . S
C1103 C1102 1.385 . S
C1104 C1102 1.478 . S
C1104 C1106 1.381 . S
C1104 C1110 1.383 . S
C1105 C1101 1.495 . S
C1105 H1111 0.959 . S
C1105 H1112 0.961 . S
C1105 H1113 0.960 . S
C1106 C1104 1.381 . S
C1106 C1107 1.394 . S
C1106 H1114 0.930 . S
C1107 C1106 1.394 . S
C1107 C1108 1.383 . S
C1107 H1115 0.929 . S
C1108 C1107 1.383 . S
C1108 C1109 1.377 . S
C1109 H1093 0.930 . S
C1109 C1108 1.377 . S
C1109 C1110 1.379 . S
C1110 H1094 0.931 . S
C1110 C1104 1.383 . S
C1110 C1109 1.379 . S
H1111 C1105 0.959 . S
H1112 C1105 0.961 . S
H1113 C1105 0.960 . S
H1114 C1106 0.930 . S
H1115 C1107 0.929 . S
H1116 C1124 0.929 . S
H1117 C1126 0.930 . S
H1118 C1128 0.930 . S
H1119 C1131 0.929 . S
H1120 C1134 0.930 . S
H1121 C1136 0.960 . S
H1122 C1136 0.960 . S
H1123 C1136 0.960 . S
C1124 H1116 0.929 . S
C1124 C1125 1.377 . S
C1124 C1126 1.384 . S
C1125 C1124 1.377 . S
C1125 C1131 1.390 . S
C1126 H1117 0.930 . S
C1126 C1124 1.384 . S
C1126 C1127 1.372 . S
C1127 C1126 1.372 . S
C1127 C1128 1.400 . S
C1127 C1132 1.490 . S
C1128 H1118 0.930 . S
C1128 C1127 1.400 . S
C1128 C1131 1.386 . S
H1129 C1145 0.930 . S
H1130 C1146 0.931 . S
C1131 H1119 0.929 . S
C1131 C1125 1.390 . S
C1131 C1128 1.386 . S
C1132 C1127 1.490 . S
C1132 C1134 1.395 . S
C1132 C1135 1.403 . S
H1133 C1139 0.930 . S
C1134 H1120 0.930 . S
C1134 C1132 1.395 . S
C1134 C1137 1.403 . S
C1135 C1132 1.403 . S
C1135 C1136 1.524 . S
C1135 C1139 1.400 . S
C1136 H1121 0.960 . S
C1136 H1122 0.960 . S
C1136 H1123 0.960 . S
C1136 C1135 1.524 . S
C1137 C1134 1.403 . S
C1137 C1138 1.392 . S
C1137 C1141 1.495 . S
C1138 C1137 1.392 . S
C1138 C1139 1.385 . S
C1138 C1140 1.478 . S
C1139 H1133 0.930 . S
C1139 C1135 1.400 . S
C1139 C1138 1.385 . S
C1140 C1138 1.478 . S
C1140 C1142 1.381 . S
C1140 C1146 1.383 . S
C1141 C1137 1.495 . S
C1141 H1147 0.959 . S
C1141 H1148 0.961 . S
C1141 H1149 0.960 . S
C1142 C1140 1.381 . S
C1142 C1143 1.394 . S
C1142 H1150 0.930 . S
C1143 C1142 1.394 . S
C1143 C1144 1.383 . S
C1143 H1151 0.929 . S
C1144 C1143 1.383 . S
C1144 C1145 1.377 . S
C1145 H1129 0.930 . S
C1145 C1144 1.377 . S
C1145 C1146 1.379 . S
C1146 H1130 0.931 . S
C1146 C1140 1.383 . S
C1146 C1145 1.379 . S
H1147 C1141 0.959 . S
H1148 C1141 0.961 . S
H1149 C1141 0.960 . S
H1150 C1142 0.930 . S
H1151 C1143 0.929 . S
H1152 C1160 0.929 . S
H1153 C1162 0.930 . S
H1154 C1164 0.930 . S
H1155 C1167 0.929 . S
H1156 C1170 0.930 . S
H1157 C1172 0.960 . S
H1158 C1172 0.960 . S
H1159 C1172 0.960 . S
C1160 H1152 0.929 . S
C1160 C1161 1.377 . S
C1160 C1162 1.384 . S
C1161 C1160 1.377 . S
C1161 C1167 1.390 . S
C1162 H1153 0.930 . S
C1162 C1160 1.384 . S
C1162 C1163 1.372 . S
C1163 C1162 1.372 . S
C1163 C1164 1.400 . S
C1163 C1168 1.490 . S
C1164 H1154 0.930 . S
C1164 C1163 1.400 . S
C1164 C1167 1.386 . S
H1165 C1181 0.930 . S
H1166 C1182 0.931 . S
C1167 H1155 0.929 . S
C1167 C1161 1.390 . S
C1167 C1164 1.386 . S
C1168 C1163 1.490 . S
C1168 C1170 1.395 . S
C1168 C1171 1.403 . S
H1169 C1175 0.930 . S
C1170 H1156 0.930 . S
C1170 C1168 1.395 . S
C1170 C1173 1.403 . S
C1171 C1168 1.403 . S
C1171 C1172 1.524 . S
C1171 C1175 1.400 . S
C1172 H1157 0.960 . S
C1172 H1158 0.960 . S
C1172 H1159 0.960 . S
C1172 C1171 1.524 . S
C1173 C1170 1.403 . S
C1173 C1174 1.392 . S
C1173 C1177 1.495 . S
C1174 C1173 1.392 . S
C1174 C1175 1.385 . S
C1174 C1176 1.478 . S
C1175 H1169 0.930 . S
C1175 C1171 1.400 . S
C1175 C1174 1.385 . S
C1176 C1174 1.478 . S
C1176 C1178 1.381 . S
C1176 C1182 1.383 . S
C1177 C1173 1.495 . S
C1177 H1183 0.959 . S
C1177 H1184 0.961 . S
C1177 H1185 0.960 . S
C1178 C1176 1.381 . S
C1178 C1179 1.394 . S
C1178 H1186 0.930 . S
C1179 C1178 1.394 . S
C1179 C1180 1.383 . S
C1179 H1187 0.929 . S
C1180 C1179 1.383 . S
C1180 C1181 1.377 . S
C1181 H1165 0.930 . S
C1181 C1180 1.377 . S
C1181 C1182 1.379 . S
C1182 H1166 0.931 . S
C1182 C1176 1.383 . S
C1182 C1181 1.379 . S
H1183 C1177 0.959 . S
H1184 C1177 0.961 . S
H1185 C1177 0.960 . S
H1186 C1178 0.930 . S
H1187 C1179 0.929 . S
H1188 C1196 0.929 . S
H1189 C1198 0.930 . S
H1190 C1200 0.930 . S
H1191 C1203 0.929 . S
H1192 C1206 0.930 . S
H1193 C1208 0.960 . S
H1194 C1208 0.960 . S
H1195 C1208 0.960 . S
C1196 H1188 0.929 . S
C1196 C1197 1.377 . S
C1196 C1198 1.384 . S
C1197 C1196 1.377 . S
C1197 C1203 1.390 . S
C1198 H1189 0.930 . S
C1198 C1196 1.384 . S
C1198 C1199 1.372 . S
C1199 C1198 1.372 . S
C1199 C1200 1.400 . S
C1199 C1204 1.490 . S
C1200 H1190 0.930 . S
C1200 C1199 1.400 . S
C1200 C1203 1.386 . S
H1201 C1217 0.930 . S
H1202 C1218 0.931 . S
C1203 H1191 0.929 . S
C1203 C1197 1.390 . S
C1203 C1200 1.386 . S
C1204 C1199 1.490 . S
C1204 C1206 1.395 . S
C1204 C1207 1.403 . S
H1205 C1211 0.930 . S
C1206 H1192 0.930 . S
C1206 C1204 1.395 . S
C1206 C1209 1.403 . S
C1207 C1204 1.403 . S
C1207 C1208 1.524 . S
C1207 C1211 1.400 . S
C1208 H1193 0.960 . S
C1208 H1194 0.960 . S
C1208 H1195 0.960 . S
C1208 C1207 1.524 . S
C1209 C1206 1.403 . S
C1209 C1210 1.392 . S
C1209 C1213 1.495 . S
C1210 C1209 1.392 . S
C1210 C1211 1.385 . S
C1210 C1212 1.478 . S
C1211 H1205 0.930 . S
C1211 C1207 1.400 . S
C1211 C1210 1.385 . S
C1212 C1210 1.478 . S
C1212 C1214 1.381 . S
C1212 C1218 1.383 . S
C1213 C1209 1.495 . S
C1213 H1219 0.959 . S
C1213 H1220 0.961 . S
C1213 H1221 0.960 . S
C1214 C1212 1.381 . S
C1214 C1215 1.394 . S
C1214 H1222 0.930 . S
C1215 C1214 1.394 . S
C1215 C1216 1.383 . S
C1215 H1223 0.929 . S
C1216 C1215 1.383 . S
C1216 C1217 1.377 . S
C1217 H1201 0.930 . S
C1217 C1216 1.377 . S
C1217 C1218 1.379 . S
C1218 H1202 0.931 . S
C1218 C1212 1.383 . S
C1218 C1217 1.379 . S
H1219 C1213 0.959 . S
H1220 C1213 0.961 . S
H1221 C1213 0.960 . S
H1222 C1214 0.930 . S
H1223 C1215 0.929 . S
H1224 C1232 0.929 . S
H1225 C1234 0.930 . S
H1226 C1236 0.930 . S
H1227 C1239 0.929 . S
H1228 C1242 0.930 . S
H1229 C1244 0.960 . S
H1230 C1244 0.960 . S
H1231 C1244 0.960 . S
C1232 H1224 0.929 . S
C1232 C1233 1.377 . S
C1232 C1234 1.384 . S
C1233 C1232 1.377 . S
C1233 C1239 1.390 . S
C1234 H1225 0.930 . S
C1234 C1232 1.384 . S
C1234 C1235 1.372 . S
C1235 C1234 1.372 . S
C1235 C1236 1.400 . S
C1235 C1240 1.490 . S
C1236 H1226 0.930 . S
C1236 C1235 1.400 . S
C1236 C1239 1.386 . S
H1237 C1253 0.930 . S
H1238 C1254 0.931 . S
C1239 H1227 0.929 . S
C1239 C1233 1.390 . S
C1239 C1236 1.386 . S
C1240 C1235 1.490 . S
C1240 C1242 1.395 . S
C1240 C1243 1.403 . S
H1241 C1247 0.930 . S
C1242 H1228 0.930 . S
C1242 C1240 1.395 . S
C1242 C1245 1.403 . S
C1243 C1240 1.403 . S
C1243 C1244 1.524 . S
C1243 C1247 1.400 . S
C1244 H1229 0.960 . S
C1244 H1230 0.960 . S
C1244 H1231 0.960 . S
C1244 C1243 1.524 . S
C1245 C1242 1.403 . S
C1245 C1246 1.392 . S
C1245 C1249 1.495 . S
C1246 C1245 1.392 . S
C1246 C1247 1.385 . S
C1246 C1248 1.478 . S
C1247 H1241 0.930 . S
C1247 C1243 1.400 . S
C1247 C1246 1.385 . S
C1248 C1246 1.478 . S
C1248 C1250 1.381 . S
C1248 C1254 1.383 . S
C1249 C1245 1.495 . S
C1249 H1255 0.959 . S
C1249 H1256 0.961 . S
C1249 H1257 0.960 . S
C1250 C1248 1.381 . S
C1250 C1251 1.394 . S
C1250 H1258 0.930 . S
C1251 C1250 1.394 . S
C1251 C1252 1.383 . S
C1251 H1259 0.929 . S
C1252 C1251 1.383 . S
C1252 C1253 1.377 . S
C1253 H1237 0.930 . S
C1253 C1252 1.377 . S
C1253 C1254 1.379 . S
C1254 H1238 0.931 . S
C1254 C1248 1.383 . S
C1254 C1253 1.379 . S
H1255 C1249 0.959 . S
H1256 C1249 0.961 . S
H1257 C1249 0.960 . S
H1258 C1250 0.930 . S
H1259 C1251 0.929 . S
H1260 C1268 0.929 . S
H1261 C1270 0.930 . S
H1262 C1272 0.930 . S
H1263 C1275 0.929 . S
H1264 C1278 0.930 . S
H1265 C1280 0.960 . S
H1266 C1280 0.960 . S
H1267 C1280 0.960 . S
C1268 H1260 0.929 . S
C1268 C1269 1.377 . S
C1268 C1270 1.384 . S
C1269 C1268 1.377 . S
C1269 C1275 1.390 . S
C1270 H1261 0.930 . S
C1270 C1268 1.384 . S
C1270 C1271 1.372 . S
C1271 C1270 1.372 . S
C1271 C1272 1.400 . S
C1271 C1276 1.490 . S
C1272 H1262 0.930 . S
C1272 C1271 1.400 . S
C1272 C1275 1.386 . S
H1273 C1289 0.930 . S
H1274 C1290 0.931 . S
C1275 H1263 0.929 . S
C1275 C1269 1.390 . S
C1275 C1272 1.386 . S
C1276 C1271 1.490 . S
C1276 C1278 1.395 . S
C1276 C1279 1.403 . S
H1277 C1283 0.930 . S
C1278 H1264 0.930 . S
C1278 C1276 1.395 . S
C1278 C1281 1.403 . S
C1279 C1276 1.403 . S
C1279 C1280 1.524 . S
C1279 C1283 1.400 . S
C1280 H1265 0.960 . S
C1280 H1266 0.960 . S
C1280 H1267 0.960 . S
C1280 C1279 1.524 . S
C1281 C1278 1.403 . S
C1281 C1282 1.392 . S
C1281 C1285 1.495 . S
C1282 C1281 1.392 . S
C1282 C1283 1.385 . S
C1282 C1284 1.478 . S
C1283 H1277 0.930 . S
C1283 C1279 1.400 . S
C1283 C1282 1.385 . S
C1284 C1282 1.478 . S
C1284 C1286 1.381 . S
C1284 C1290 1.383 . S
C1285 C1281 1.495 . S
C1285 H1291 0.959 . S
C1285 H1292 0.961 . S
C1285 H1293 0.960 . S
C1286 C1284 1.381 . S
C1286 C1287 1.394 . S
C1286 H1294 0.930 . S
C1287 C1286 1.394 . S
C1287 C1288 1.383 . S
C1287 H1295 0.929 . S
C1288 C1287 1.383 . S
C1288 C1289 1.377 . S
C1289 H1273 0.930 . S
C1289 C1288 1.377 . S
C1289 C1290 1.379 . S
C1290 H1274 0.931 . S
C1290 C1284 1.383 . S
C1290 C1289 1.379 . S
H1291 C1285 0.959 . S
H1292 C1285 0.961 . S
H1293 C1285 0.960 . S
H1294 C1286 0.930 . S
H1295 C1287 0.929 . S
H1296 C1304 0.929 . S
H1297 C1306 0.930 . S
H1298 C1308 0.930 . S
H1299 C1311 0.929 . S
H1300 C1314 0.928 . S
H1301 C1316 0.960 . S
H1302 C1316 0.960 . S
H1303 C1316 0.960 . S
C1304 H1296 0.929 . S
C1304 C1305 1.377 . S
C1304 C1306 1.384 . S
C1305 C1304 1.377 . S
C1305 C1311 1.390 . S
C1306 H1297 0.930 . S
C1306 C1304 1.384 . S
C1306 C1307 1.372 . S
C1307 C1306 1.372 . S
C1307 C1308 1.400 . S
C1307 C1312 1.490 . S
C1308 H1298 0.930 . S
C1308 C1307 1.400 . S
C1308 C1311 1.386 . S
H1309 C1325 0.930 . S
H1310 C1326 0.931 . S
C1311 H1299 0.929 . S
C1311 C1305 1.390 . S
C1311 C1308 1.386 . S
C1312 C1307 1.490 . S
C1312 C1314 1.394 . S
C1312 C1315 1.403 . S
H1313 C1319 0.930 . S
C1314 H1300 0.928 . S
C1314 C1312 1.394 . S
C1314 C1317 1.407 1_565 S
C1315 C1312 1.403 . S
C1315 C1316 1.524 . S
C1315 C1319 1.400 1_565 S
C1316 H1301 0.960 . S
C1316 H1302 0.960 . S
C1316 H1303 0.960 . S
C1316 C1315 1.524 . S
C1317 C1314 1.407 1_545 S
C1317 C1318 1.392 . S
C1317 C1321 1.495 . S
C1318 C1317 1.392 . S
C1318 C1319 1.385 . S
C1318 C1320 1.478 . S
C1319 H1313 0.930 . S
C1319 C1315 1.400 1_545 S
C1319 C1318 1.385 . S
C1320 C1318 1.478 . S
C1320 C1322 1.381 . S
C1320 C1326 1.383 . S
C1321 C1317 1.495 . S
C1321 H1327 0.959 . S
C1321 H1328 0.961 . S
C1321 H1329 0.960 . S
C1322 C1320 1.381 . S
C1322 C1323 1.394 . S
C1322 H1330 0.930 . S
C1323 C1322 1.394 . S
C1323 C1324 1.383 . S
C1323 H1331 0.929 . S
C1324 C1323 1.383 . S
C1324 C1325 1.377 . S
C1325 H1309 0.930 . S
C1325 C1324 1.377 . S
C1325 C1326 1.379 . S
C1326 H1310 0.931 . S
C1326 C1320 1.383 . S
C1326 C1325 1.379 . S
H1327 C1321 0.959 . S
H1328 C1321 0.961 . S
H1329 C1321 0.960 . S
H1330 C1322 0.930 . S
H1331 C1323 0.929 . S
H1332 C1340 0.929 . S
H1333 C1342 0.930 . S
H1334 C1344 0.930 . S
H1335 C1347 0.929 . S
H1336 C1350 0.930 . S
H1337 C1352 0.960 . S
H1338 C1352 0.960 . S
H1339 C1352 0.960 . S
C1340 H1332 0.929 . S
C1340 C1341 1.377 . S
C1340 C1342 1.384 . S
C1341 C1340 1.377 . S
C1341 C1347 1.390 . S
C1342 H1333 0.930 . S
C1342 C1340 1.384 . S
C1342 C1343 1.372 . S
C1343 C1342 1.372 . S
C1343 C1344 1.400 . S
C1343 C1348 1.490 . S
C1344 H1334 0.930 . S
C1344 C1343 1.400 . S
C1344 C1347 1.386 . S
H1345 C1361 0.930 . S
H1346 C1362 0.931 . S
C1347 H1335 0.929 . S
C1347 C1341 1.390 . S
C1347 C1344 1.386 . S
C1348 C1343 1.490 . S
C1348 C1350 1.395 . S
C1348 C1351 1.403 . S
H1349 C1355 0.930 . S
C1350 H1336 0.930 . S
C1350 C1348 1.395 . S
C1350 C1353 1.403 1_455 S
C1351 C1348 1.403 . S
C1351 C1352 1.524 . S
C1351 C1355 1.400 . S
C1352 H1337 0.960 . S
C1352 H1338 0.960 . S
C1352 H1339 0.960 . S
C1352 C1351 1.524 . S
C1353 C1350 1.403 1_655 S
C1353 C1354 1.392 . S
C1353 C1357 1.495 . S
C1354 C1353 1.392 . S
C1354 C1355 1.385 1_655 S
C1354 C1356 1.478 . S
C1355 H1349 0.930 . S
C1355 C1351 1.400 . S
C1355 C1354 1.385 1_455 S
C1356 C1354 1.478 . S
C1356 C1358 1.381 . S
C1356 C1362 1.383 . S
C1357 C1353 1.495 . S
C1357 H1363 0.959 . S
C1357 H1364 0.961 . S
C1357 H1365 0.960 . S
C1358 C1356 1.381 . S
C1358 C1359 1.394 . S
C1358 H1366 0.930 . S
C1359 C1358 1.394 . S
C1359 C1360 1.383 . S
C1359 H1367 0.929 . S
C1360 C1359 1.383 . S
C1360 C1361 1.377 . S
C1361 H1345 0.930 . S
C1361 C1360 1.377 . S
C1361 C1362 1.379 . S
C1362 H1346 0.931 . S
C1362 C1356 1.383 . S
C1362 C1361 1.379 . S
H1363 C1357 0.959 . S
H1364 C1357 0.961 . S
H1365 C1357 0.960 . S
H1366 C1358 0.930 . S
H1367 C1359 0.929 . S
H1368 C1376 0.929 . S
H1369 C1378 0.930 . S
H1370 C1380 0.916 1_565 S
H1371 C1383 0.930 1_565 S
H1372 C1386 0.930 . S
H1373 C1388 0.960 . S
H1374 C1388 0.960 . S
H1375 C1388 0.960 . S
C1376 H1368 0.929 . S
C1376 C1377 1.377 . S
C1376 C1378 1.384 . S
C1377 C1376 1.377 . S
C1377 C1383 1.390 . S
C1378 H1369 0.930 . S
C1378 C1376 1.384 . S
C1378 C1379 1.372 . S
C1379 C1378 1.372 . S
C1379 C1380 1.400 . S
C1379 C1384 1.490 . S
C1380 H1370 0.916 1_545 S
C1380 C1379 1.400 . S
C1380 C1383 1.386 . S
H1381 C1397 0.930 . S
H1382 C1398 0.931 . S
C1383 H1371 0.930 1_545 S
C1383 C1377 1.390 . S
C1383 C1380 1.386 . S
C1384 C1379 1.490 . S
C1384 C1386 1.395 . S
C1384 C1387 1.403 1_545 S
H1385 C1391 0.930 . S
C1386 H1372 0.930 . S
C1386 C1384 1.395 . S
C1386 C1389 1.403 1_554 S
C1387 C1384 1.403 1_565 S
C1387 C1388 1.524 . S
C1387 C1391 1.400 1_554 S
C1388 H1373 0.960 . S
C1388 H1374 0.960 . S
C1388 H1375 0.960 . S
C1388 C1387 1.524 . S
C1389 C1386 1.403 1_556 S
C1389 C1390 1.392 . S
C1389 C1393 1.495 . S
C1390 C1389 1.392 . S
C1390 C1391 1.385 1_545 S
C1390 C1392 1.478 . S
C1391 H1385 0.930 . S
C1391 C1387 1.400 1_556 S
C1391 C1390 1.385 1_565 S
C1392 C1390 1.478 . S
C1392 C1394 1.381 . S
C1392 C1398 1.383 . S
C1393 C1389 1.495 . S
C1393 H1399 0.959 . S
C1393 H1400 0.961 . S
C1393 H1401 0.960 . S
C1394 C1392 1.381 . S
C1394 C1395 1.394 . S
C1394 H1402 0.930 . S
C1395 C1394 1.394 . S
C1395 C1396 1.383 . S
C1395 H1403 0.929 . S
C1396 C1395 1.383 . S
C1396 C1397 1.377 . S
C1397 H1381 0.930 . S
C1397 C1396 1.377 . S
C1397 C1398 1.379 . S
C1398 H1382 0.931 . S
C1398 C1392 1.383 . S
C1398 C1397 1.379 . S
H1399 C1393 0.959 . S
H1400 C1393 0.961 . S
H1401 C1393 0.960 . S
H1402 C1394 0.930 . S
H1403 C1395 0.929 . S
H1404 C1412 0.929 . S
H1405 C1414 0.930 . S
H1406 C1416 0.930 . S
H1407 C1419 0.929 . S
H1408 C1422 0.930 . S
H1409 C1424 0.960 . S
H1410 C1424 0.960 . S
H1411 C1424 0.960 . S
C1412 H1404 0.929 . S
C1412 C1413 1.377 . S
C1412 C1414 1.384 . S
C1413 C1412 1.377 . S
C1413 C1419 1.390 1_455 S
C1414 H1405 0.930 . S
C1414 C1412 1.384 . S
C1414 C1415 1.372 . S
C1415 C1414 1.372 . S
C1415 C1416 1.400 1_455 S
C1415 C1420 1.490 . S
C1416 H1406 0.930 . S
C1416 C1415 1.400 1_655 S
C1416 C1419 1.386 . S
H1417 C1433 0.930 . S
H1418 C1434 0.940 . S
C1419 H1407 0.929 . S
C1419 C1413 1.390 1_655 S
C1419 C1416 1.386 . S
C1420 C1415 1.490 . S
C1420 C1422 1.395 . S
C1420 C1423 1.403 1_455 S
H1421 C1427 0.930 . S
C1422 H1408 0.930 . S
C1422 C1420 1.395 . S
C1422 C1425 1.403 1_556 S
C1423 C1420 1.403 1_655 S
C1423 C1424 1.524 . S
C1423 C1427 1.400 1_556 S
C1424 H1409 0.960 . S
C1424 H1410 0.960 . S
C1424 H1411 0.960 . S
C1424 C1423 1.524 . S
C1425 C1422 1.403 1_554 S
C1425 C1426 1.392 . S
C1425 C1429 1.495 . S
C1426 C1425 1.392 . S
C1426 C1427 1.385 1_455 S
C1426 C1428 1.478 . S
C1427 H1421 0.930 . S
C1427 C1423 1.400 1_554 S
C1427 C1426 1.385 1_655 S
C1428 C1426 1.478 . S
C1428 C1430 1.381 . S
C1428 C1434 1.374 1_455 S
C1429 C1425 1.495 . S
C1429 H1435 0.959 . S
C1429 H1436 0.961 . S
C1429 H1437 0.960 . S
C1430 C1428 1.381 . S
C1430 C1431 1.394 . S
C1430 H1438 0.930 . S
C1431 C1430 1.394 . S
C1431 C1432 1.383 . S
C1431 H1439 0.929 . S
C1432 C1431 1.383 . S
C1432 C1433 1.377 1_455 S
C1433 H1417 0.930 . S
C1433 C1432 1.377 1_655 S
C1433 C1434 1.380 . S
C1434 H1418 0.940 . S
C1434 C1428 1.374 1_655 S
C1434 C1433 1.380 . S
H1435 C1429 0.959 . S
H1436 C1429 0.961 . S
H1437 C1429 0.960 . S
H1438 C1430 0.930 . S
H1439 C1431 0.929 . S
H1440 C1448 0.929 . S
H1441 C1450 0.930 . S
H1442 C1452 0.930 . S
H1443 C1455 0.929 . S
H1444 C1458 0.930 . S
H1445 C1460 0.960 . S
H1446 C1460 0.960 . S
H1447 C1460 0.960 . S
C1448 H1440 0.929 . S
C1448 C1449 1.377 . S
C1448 C1450 1.384 . S
C1449 C1448 1.377 . S
C1449 C1455 1.390 . S
C1450 H1441 0.930 . S
C1450 C1448 1.384 . S
C1450 C1451 1.372 . S
C1451 C1450 1.372 . S
C1451 C1452 1.400 . S
C1451 C1456 1.490 . S
C1452 H1442 0.930 . S
C1452 C1451 1.400 . S
C1452 C1455 1.386 . S
H1453 C1469 0.930 . S
H1454 C1470 0.931 . S
C1455 H1443 0.929 . S
C1455 C1449 1.390 . S
C1455 C1452 1.386 . S
C1456 C1451 1.490 . S
C1456 C1458 1.395 . S
C1456 C1459 1.403 . S
H1457 C1463 0.930 . S
C1458 H1444 0.930 . S
C1458 C1456 1.395 . S
C1458 C1461 1.403 1_556 S
C1459 C1456 1.403 . S
C1459 C1460 1.524 . S
C1459 C1463 1.400 1_556 S
C1460 H1445 0.960 . S
C1460 H1446 0.960 . S
C1460 H1447 0.960 . S
C1460 C1459 1.524 . S
C1461 C1458 1.403 1_554 S
C1461 C1462 1.392 . S
C1461 C1465 1.495 . S
C1462 C1461 1.392 . S
C1462 C1463 1.385 . S
C1462 C1464 1.478 . S
C1463 H1457 0.930 . S
C1463 C1459 1.400 1_554 S
C1463 C1462 1.385 . S
C1464 C1462 1.478 . S
C1464 C1466 1.381 . S
C1464 C1470 1.383 . S
C1465 C1461 1.495 . S
C1465 H1471 0.959 . S
C1465 H1472 0.961 . S
C1465 H1473 0.960 . S
C1466 C1464 1.381 . S
C1466 C1467 1.394 . S
C1466 H1474 0.930 . S
C1467 C1466 1.394 . S
C1467 C1468 1.383 . S
C1467 H1475 0.929 . S
C1468 C1467 1.383 . S
C1468 C1469 1.377 . S
C1469 H1453 0.930 . S
C1469 C1468 1.377 . S
C1469 C1470 1.379 . S
C1470 H1454 0.931 . S
C1470 C1464 1.383 . S
C1470 C1469 1.379 . S
H1471 C1465 0.959 . S
H1472 C1465 0.961 . S
H1473 C1465 0.960 . S
H1474 C1466 0.930 . S
H1475 C1467 0.929 . S
H1476 C1484 0.929 . S
H1477 C1486 0.930 . S
H1478 C1488 0.930 . S
H1479 C1491 0.929 . S
H1480 C1494 0.930 . S
H1481 C1496 0.960 . S
H1482 C1496 0.960 . S
H1483 C1496 0.960 . S
C1484 H1476 0.929 . S
C1484 C1485 1.377 . S
C1484 C1486 1.384 . S
C1485 C1484 1.377 . S
C1485 C1491 1.390 . S
C1486 H1477 0.930 . S
C1486 C1484 1.384 . S
C1486 C1487 1.372 . S
C1487 C1486 1.372 . S
C1487 C1488 1.400 . S
C1487 C1492 1.490 . S
C1488 H1478 0.930 . S
C1488 C1487 1.400 . S
C1488 C1491 1.386 . S
H1489 C1505 0.930 . S
H1490 C1506 0.931 . S
C1491 H1479 0.929 . S
C1491 C1485 1.390 . S
C1491 C1488 1.386 . S
C1492 C1487 1.490 . S
C1492 C1494 1.395 . S
C1492 C1495 1.403 . S
H1493 C1499 0.930 . S
C1494 H1480 0.930 . S
C1494 C1492 1.395 . S
C1494 C1497 1.403 . S
C1495 C1492 1.403 . S
C1495 C1496 1.524 . S
C1495 C1499 1.400 . S
C1496 H1481 0.960 . S
C1496 H1482 0.960 . S
C1496 H1483 0.960 . S
C1496 C1495 1.524 . S
C1497 C1494 1.403 . S
C1497 C1498 1.392 . S
C1497 C1501 1.495 . S
C1498 C1497 1.392 . S
C1498 C1499 1.385 . S
C1498 C1500 1.478 . S
C1499 H1493 0.930 . S
C1499 C1495 1.400 . S
C1499 C1498 1.385 . S
C1500 C1498 1.478 . S
C1500 C1502 1.381 . S
C1500 C1506 1.383 . S
C1501 C1497 1.495 . S
C1501 H1507 0.959 . S
C1501 H1508 0.961 . S
C1501 H1509 0.960 . S
C1502 C1500 1.381 . S
C1502 C1503 1.394 . S
C1502 H1510 0.930 . S
C1503 C1502 1.394 . S
C1503 C1504 1.383 . S
C1503 H1511 0.929 . S
C1504 C1503 1.383 . S
C1504 C1505 1.377 . S
C1505 H1489 0.930 . S
C1505 C1504 1.377 . S
C1505 C1506 1.379 . S
C1506 H1490 0.931 . S
C1506 C1500 1.383 . S
C1506 C1505 1.379 . S
H1507 C1501 0.959 . S
H1508 C1501 0.961 . S
H1509 C1501 0.960 . S
H1510 C1502 0.930 . S
H1511 C1503 0.929 . S
H1512 C1520 0.929 . S
H1513 C1522 0.930 . S
H1514 C1524 0.930 . S
H1515 C1527 0.929 . S
H1516 C1530 0.930 . S
H1517 C1532 0.960 . S
H1518 C1532 0.960 . S
H1519 C1532 0.960 . S
C1520 H1512 0.929 . S
C1520 C1521 1.377 . S
C1520 C1522 1.384 . S
C1521 C1520 1.377 . S
C1521 C1527 1.390 . S
C1522 H1513 0.930 . S
C1522 C1520 1.384 . S
C1522 C1523 1.372 . S
C1523 C1522 1.372 . S
C1523 C1524 1.400 . S
C1523 C1528 1.490 . S
C1524 H1514 0.930 . S
C1524 C1523 1.400 . S
C1524 C1527 1.386 . S
H1525 C1541 0.930 . S
H1526 C1542 0.931 . S
C1527 H1515 0.929 . S
C1527 C1521 1.390 . S
C1527 C1524 1.386 . S
C1528 C1523 1.490 . S
C1528 C1530 1.395 . S
C1528 C1531 1.403 . S
H1529 C1535 0.930 . S
C1530 H1516 0.930 . S
C1530 C1528 1.395 . S
C1530 C1533 1.403 . S
C1531 C1528 1.403 . S
C1531 C1532 1.524 . S
C1531 C1535 1.400 . S
C1532 H1517 0.960 . S
C1532 H1518 0.960 . S
C1532 H1519 0.960 . S
C1532 C1531 1.524 . S
C1533 C1530 1.403 . S
C1533 C1534 1.392 . S
C1533 C1537 1.495 . S
C1534 C1533 1.392 . S
C1534 C1535 1.385 . S
C1534 C1536 1.478 . S
C1535 H1529 0.930 . S
C1535 C1531 1.400 . S
C1535 C1534 1.385 . S
C1536 C1534 1.478 . S
C1536 C1538 1.381 . S
C1536 C1542 1.383 . S
C1537 C1533 1.495 . S
C1537 H1543 0.959 . S
C1537 H1544 0.961 . S
C1537 H1545 0.960 . S
C1538 C1536 1.381 . S
C1538 C1539 1.394 . S
C1538 H1546 0.930 . S
C1539 C1538 1.394 . S
C1539 C1540 1.383 . S
C1539 H1547 0.929 . S
C1540 C1539 1.383 . S
C1540 C1541 1.377 . S
C1541 H1525 0.930 . S
C1541 C1540 1.377 . S
C1541 C1542 1.379 . S
C1542 H1526 0.931 . S
C1542 C1536 1.383 . S
C1542 C1541 1.379 . S
H1543 C1537 0.959 . S
H1544 C1537 0.961 . S
H1545 C1537 0.960 . S
H1546 C1538 0.930 . S
H1547 C1539 0.929 . S
H1548 C1556 0.929 . S
H1549 C1558 0.930 . S
H1550 C1560 0.930 . S
H1551 C1563 0.929 . S
H1552 C1566 0.930 . S
H1553 C1568 0.960 . S
H1554 C1568 0.960 . S
H1555 C1568 0.960 . S
C1556 H1548 0.929 . S
C1556 C1557 1.377 . S
C1556 C1558 1.384 . S
C1557 C1556 1.377 . S
C1557 C1563 1.390 . S
C1558 H1549 0.930 . S
C1558 C1556 1.384 . S
C1558 C1559 1.372 . S
C1559 C1558 1.372 . S
C1559 C1560 1.400 . S
C1559 C1564 1.490 . S
C1560 H1550 0.930 . S
C1560 C1559 1.400 . S
C1560 C1563 1.386 . S
H1561 C1577 0.930 . S
H1562 C1578 0.931 . S
C1563 H1551 0.929 . S
C1563 C1557 1.390 . S
C1563 C1560 1.386 . S
C1564 C1559 1.490 . S
C1564 C1566 1.395 . S
C1564 C1567 1.403 . S
H1565 C1571 0.930 . S
C1566 H1552 0.930 . S
C1566 C1564 1.395 . S
C1566 C1569 1.403 . S
C1567 C1564 1.403 . S
C1567 C1568 1.524 . S
C1567 C1571 1.400 . S
C1568 H1553 0.960 . S
C1568 H1554 0.960 . S
C1568 H1555 0.960 . S
C1568 C1567 1.524 . S
C1569 C1566 1.403 . S
C1569 C1570 1.392 . S
C1569 C1573 1.495 . S
C1570 C1569 1.392 . S
C1570 C1571 1.385 . S
C1570 C1572 1.478 . S
C1571 H1565 0.930 . S
C1571 C1567 1.400 . S
C1571 C1570 1.385 . S
C1572 C1570 1.478 . S
C1572 C1574 1.381 . S
C1572 C1578 1.383 . S
C1573 C1569 1.495 . S
C1573 H1579 0.959 . S
C1573 H1580 0.961 . S
C1573 H1581 0.960 . S
C1574 C1572 1.381 . S
C1574 C1575 1.394 . S
C1574 H1582 0.930 . S
C1575 C1574 1.394 . S
C1575 C1576 1.383 . S
C1575 H1583 0.929 . S
C1576 C1575 1.383 . S
C1576 C1577 1.377 . S
C1577 H1561 0.930 . S
C1577 C1576 1.377 . S
C1577 C1578 1.379 . S
C1578 H1562 0.931 . S
C1578 C1572 1.383 . S
C1578 C1577 1.379 . S
H1579 C1573 0.959 . S
H1580 C1573 0.961 . S
H1581 C1573 0.960 . S
H1582 C1574 0.930 . S
H1583 C1575 0.929 . S
H1584 C1592 0.929 . S
H1585 C1594 0.930 . S
H1586 C1596 0.930 . S
H1587 C1599 0.929 . S
H1588 C1602 0.930 . S
H1589 C1604 0.960 . S
H1590 C1604 0.960 . S
H1591 C1604 0.960 . S
C1592 H1584 0.929 . S
C1592 C1593 1.377 . S
C1592 C1594 1.384 . S
C1593 C1592 1.377 . S
C1593 C1599 1.390 . S
C1594 H1585 0.930 . S
C1594 C1592 1.384 . S
C1594 C1595 1.372 . S
C1595 C1594 1.372 . S
C1595 C1596 1.400 . S
C1595 C1600 1.490 . S
C1596 H1586 0.930 . S
C1596 C1595 1.400 . S
C1596 C1599 1.386 . S
H1597 C1613 0.930 . S
H1598 C1614 0.931 . S
C1599 H1587 0.929 . S
C1599 C1593 1.390 . S
C1599 C1596 1.386 . S
C1600 C1595 1.490 . S
C1600 C1602 1.395 . S
C1600 C1603 1.403 . S
H1601 C1607 0.930 . S
C1602 H1588 0.930 . S
C1602 C1600 1.395 . S
C1602 C1605 1.403 . S
C1603 C1600 1.403 . S
C1603 C1604 1.524 . S
C1603 C1607 1.400 . S
C1604 H1589 0.960 . S
C1604 H1590 0.960 . S
C1604 H1591 0.960 . S
C1604 C1603 1.524 . S
C1605 C1602 1.403 . S
C1605 C1606 1.392 . S
C1605 C1609 1.495 . S
C1606 C1605 1.392 . S
C1606 C1607 1.385 . S
C1606 C1608 1.478 . S
C1607 H1601 0.930 . S
C1607 C1603 1.400 . S
C1607 C1606 1.385 . S
C1608 C1606 1.478 . S
C1608 C1610 1.381 . S
C1608 C1614 1.383 . S
C1609 C1605 1.495 . S
C1609 H1615 0.959 . S
C1609 H1616 0.961 . S
C1609 H1617 0.960 . S
C1610 C1608 1.381 . S
C1610 C1611 1.394 . S
C1610 H1618 0.930 . S
C1611 C1610 1.394 . S
C1611 C1612 1.383 . S
C1611 H1619 0.929 . S
C1612 C1611 1.383 . S
C1612 C1613 1.377 . S
C1613 H1597 0.930 . S
C1613 C1612 1.377 . S
C1613 C1614 1.379 . S
C1614 H1598 0.931 . S
C1614 C1608 1.383 . S
C1614 C1613 1.379 . S
H1615 C1609 0.959 . S
H1616 C1609 0.961 . S
H1617 C1609 0.960 . S
H1618 C1610 0.930 . S
H1619 C1611 0.929 . S
H1620 C1628 0.929 . S
H1621 C1630 0.930 . S
H1622 C1632 0.930 . S
H1623 C1635 0.929 . S
H1624 C1638 0.930 . S
H1625 C1640 0.960 . S
H1626 C1640 0.960 . S
H1627 C1640 0.960 . S
C1628 H1620 0.929 . S
C1628 C1629 1.377 . S
C1628 C1630 1.384 . S
C1629 C1628 1.377 . S
C1629 C1635 1.390 . S
C1630 H1621 0.930 . S
C1630 C1628 1.384 . S
C1630 C1631 1.372 . S
C1631 C1630 1.372 . S
C1631 C1632 1.400 . S
C1631 C1636 1.490 . S
C1632 H1622 0.930 . S
C1632 C1631 1.400 . S
C1632 C1635 1.386 . S
H1633 C1649 0.930 . S
H1634 C1650 0.931 . S
C1635 H1623 0.929 . S
C1635 C1629 1.390 . S
C1635 C1632 1.386 . S
C1636 C1631 1.490 . S
C1636 C1638 1.395 . S
C1636 C1639 1.403 . S
H1637 C1643 0.930 . S
C1638 H1624 0.930 . S
C1638 C1636 1.395 . S
C1638 C1641 1.403 . S
C1639 C1636 1.403 . S
C1639 C1640 1.524 . S
C1639 C1643 1.400 . S
C1640 H1625 0.960 . S
C1640 H1626 0.960 . S
C1640 H1627 0.960 . S
C1640 C1639 1.524 . S
C1641 C1638 1.403 . S
C1641 C1642 1.392 . S
C1641 C1645 1.495 . S
C1642 C1641 1.392 . S
C1642 C1643 1.385 . S
C1642 C1644 1.478 . S
C1643 H1637 0.930 . S
C1643 C1639 1.400 . S
C1643 C1642 1.385 . S
C1644 C1642 1.478 . S
C1644 C1646 1.381 . S
C1644 C1650 1.383 . S
C1645 C1641 1.495 . S
C1645 H1651 0.959 . S
C1645 H1652 0.961 . S
C1645 H1653 0.960 . S
C1646 C1644 1.381 . S
C1646 C1647 1.394 . S
C1646 H1654 0.930 . S
C1647 C1646 1.394 . S
C1647 C1648 1.383 . S
C1647 H1655 0.929 . S
C1648 C1647 1.383 . S
C1648 C1649 1.377 . S
C1649 H1633 0.930 . S
C1649 C1648 1.377 . S
C1649 C1650 1.379 . S
C1650 H1634 0.931 . S
C1650 C1644 1.383 . S
C1650 C1649 1.379 . S
H1651 C1645 0.959 . S
H1652 C1645 0.961 . S
H1653 C1645 0.960 . S
H1654 C1646 0.930 . S
H1655 C1647 0.929 . S
H1656 C1664 0.929 . S
H1657 C1666 0.930 . S
H1658 C1668 0.930 . S
H1659 C1671 0.929 . S
H1660 C1674 0.930 . S
H1661 C1676 0.960 . S
H1662 C1676 0.960 . S
H1663 C1676 0.960 . S
C1664 H1656 0.929 . S
C1664 C1665 1.377 . S
C1664 C1666 1.384 . S
C1665 C1664 1.377 . S
C1665 C1671 1.390 . S
C1666 H1657 0.930 . S
C1666 C1664 1.384 . S
C1666 C1667 1.372 . S
C1667 C1666 1.372 . S
C1667 C1668 1.400 . S
C1667 C1672 1.490 . S
C1668 H1658 0.930 . S
C1668 C1667 1.400 . S
C1668 C1671 1.386 . S
H1669 C1685 0.930 . S
H1670 C1686 0.931 . S
C1671 H1659 0.929 . S
C1671 C1665 1.390 . S
C1671 C1668 1.386 . S
C1672 C1667 1.490 . S
C1672 C1674 1.395 . S
C1672 C1675 1.403 . S
H1673 C1679 0.930 . S
C1674 H1660 0.930 . S
C1674 C1672 1.395 . S
C1674 C1677 1.403 . S
C1675 C1672 1.403 . S
C1675 C1676 1.524 . S
C1675 C1679 1.400 . S
C1676 H1661 0.960 . S
C1676 H1662 0.960 . S
C1676 H1663 0.960 . S
C1676 C1675 1.524 . S
C1677 C1674 1.403 . S
C1677 C1678 1.392 . S
C1677 C1681 1.495 . S
C1678 C1677 1.392 . S
C1678 C1679 1.385 . S
C1678 C1680 1.478 . S
C1679 H1673 0.930 . S
C1679 C1675 1.400 . S
C1679 C1678 1.385 . S
C1680 C1678 1.478 . S
C1680 C1682 1.381 . S
C1680 C1686 1.383 . S
C1681 C1677 1.495 . S
C1681 H1687 0.959 . S
C1681 H1688 0.961 . S
C1681 H1689 0.960 . S
C1682 C1680 1.381 . S
C1682 C1683 1.394 . S
C1682 H1690 0.930 . S
C1683 C1682 1.394 . S
C1683 C1684 1.383 . S
C1683 H1691 0.929 . S
C1684 C1683 1.383 . S
C1684 C1685 1.377 . S
C1685 H1669 0.930 . S
C1685 C1684 1.377 . S
C1685 C1686 1.379 . S
C1686 H1670 0.931 . S
C1686 C1680 1.383 . S
C1686 C1685 1.379 . S
H1687 C1681 0.959 . S
H1688 C1681 0.961 . S
H1689 C1681 0.960 . S
H1690 C1682 0.930 . S
H1691 C1683 0.929 . S
H1692 C1700 0.929 . S
H1693 C1702 0.930 . S
H1694 C1704 0.930 . S
H1695 C1707 0.929 . S
H1696 C1710 0.930 . S
H1697 C1712 0.960 . S
H1698 C1712 0.960 . S
H1699 C1712 0.960 . S
C1700 H1692 0.929 . S
C1700 C1701 1.377 . S
C1700 C1702 1.384 . S
C1701 C1700 1.377 . S
C1701 C1707 1.390 . S
C1702 H1693 0.930 . S
C1702 C1700 1.384 . S
C1702 C1703 1.372 . S
C1703 C1702 1.372 . S
C1703 C1704 1.400 . S
C1703 C1708 1.490 . S
C1704 H1694 0.930 . S
C1704 C1703 1.400 . S
C1704 C1707 1.386 . S
H1705 C1721 0.930 . S
H1706 C1722 0.931 1_545 S
C1707 H1695 0.929 . S
C1707 C1701 1.390 . S
C1707 C1704 1.386 . S
C1708 C1703 1.490 . S
C1708 C1710 1.395 . S
C1708 C1711 1.403 . S
H1709 C1715 0.930 . S
C1710 H1696 0.930 . S
C1710 C1708 1.395 . S
C1710 C1713 1.403 . S
C1711 C1708 1.403 . S
C1711 C1712 1.524 . S
C1711 C1715 1.400 . S
C1712 H1697 0.960 . S
C1712 H1698 0.960 . S
C1712 H1699 0.960 . S
C1712 C1711 1.524 . S
C1713 C1710 1.403 . S
C1713 C1714 1.392 . S
C1713 C1717 1.495 . S
C1714 C1713 1.392 . S
C1714 C1715 1.385 . S
C1714 C1716 1.478 . S
C1715 H1709 0.930 . S
C1715 C1711 1.400 . S
C1715 C1714 1.385 . S
C1716 C1714 1.478 . S
C1716 C1718 1.381 . S
C1716 C1722 1.383 . S
C1717 C1713 1.495 . S
C1717 H1723 0.959 . S
C1717 H1724 0.961 . S
C1717 H1725 0.960 . S
C1718 C1716 1.381 . S
C1718 C1719 1.394 . S
C1718 H1726 0.930 . S
C1719 C1718 1.394 . S
C1719 C1720 1.383 . S
C1719 H1727 0.929 . S
C1720 C1719 1.383 . S
C1720 C1721 1.377 1_565 S
C1721 H1705 0.930 . S
C1721 C1720 1.377 1_545 S
C1721 C1722 1.379 1_545 S
C1722 H1706 0.931 1_565 S
C1722 C1716 1.383 . S
C1722 C1721 1.379 1_565 S
H1723 C1717 0.959 . S
H1724 C1717 0.961 . S
H1725 C1717 0.960 . S
H1726 C1718 0.930 . S
H1727 C1719 0.929 . S
H1728 C1736 0.929 . S
H1729 C1738 0.930 . S
H1730 C1740 0.930 . S
H1731 C1743 0.929 . S
H1732 C1746 0.930 . S
H1733 C1748 0.960 . S
H1734 C1748 0.960 . S
H1735 C1748 0.960 . S
C1736 H1728 0.929 . S
C1736 C1737 1.377 . S
C1736 C1738 1.384 . S
C1737 C1736 1.377 . S
C1737 C1743 1.390 . S
C1738 H1729 0.930 . S
C1738 C1736 1.384 . S
C1738 C1739 1.372 . S
C1739 C1738 1.372 . S
C1739 C1740 1.400 . S
C1739 C1744 1.490 . S
C1740 H1730 0.930 . S
C1740 C1739 1.400 . S
C1740 C1743 1.386 . S
H1741 C1757 0.930 . S
H1742 C1758 0.931 . S
C1743 H1731 0.929 . S
C1743 C1737 1.390 . S
C1743 C1740 1.386 . S
C1744 C1739 1.490 . S
C1744 C1746 1.395 . S
C1744 C1747 1.403 . S
H1745 C1751 0.930 . S
C1746 H1732 0.930 . S
C1746 C1744 1.395 . S
C1746 C1749 1.403 . S
C1747 C1744 1.403 . S
C1747 C1748 1.524 . S
C1747 C1751 1.400 . S
C1748 H1733 0.960 . S
C1748 H1734 0.960 . S
C1748 H1735 0.960 . S
C1748 C1747 1.524 . S
C1749 C1746 1.403 . S
C1749 C1750 1.392 . S
C1749 C1753 1.495 . S
C1750 C1749 1.392 . S
C1750 C1751 1.385 . S
C1750 C1752 1.478 . S
C1751 H1745 0.930 . S
C1751 C1747 1.400 . S
C1751 C1750 1.385 . S
C1752 C1750 1.478 . S
C1752 C1754 1.381 . S
C1752 C1758 1.383 . S
C1753 C1749 1.495 . S
C1753 H1759 0.959 . S
C1753 H1760 0.961 . S
C1753 H1761 0.960 . S
C1754 C1752 1.381 . S
C1754 C1755 1.394 . S
C1754 H1762 0.930 . S
C1755 C1754 1.394 . S
C1755 C1756 1.383 . S
C1755 H1763 0.929 . S
C1756 C1755 1.383 . S
C1756 C1757 1.377 . S
C1757 H1741 0.930 . S
C1757 C1756 1.377 . S
C1757 C1758 1.379 . S
C1758 H1742 0.931 . S
C1758 C1752 1.383 . S
C1758 C1757 1.379 . S
H1759 C1753 0.959 . S
H1760 C1753 0.961 . S
H1761 C1753 0.960 . S
H1762 C1754 0.930 . S
H1763 C1755 0.929 . S
H1764 C1772 0.929 . S
H1765 C1774 0.930 . S
H1766 C1776 0.930 . S
H1767 C1779 0.929 . S
H1768 C1782 0.930 . S
H1769 C1784 0.960 . S
H1770 C1784 0.960 . S
H1771 C1784 0.960 . S
C1772 H1764 0.929 . S
C1772 C1773 1.377 . S
C1772 C1774 1.384 . S
C1773 C1772 1.377 . S
C1773 C1779 1.390 . S
C1774 H1765 0.930 . S
C1774 C1772 1.384 . S
C1774 C1775 1.372 . S
C1775 C1774 1.372 . S
C1775 C1776 1.400 . S
C1775 C1780 1.490 . S
C1776 H1766 0.930 . S
C1776 C1775 1.400 . S
C1776 C1779 1.386 . S
H1777 C1793 0.930 . S
H1778 C1794 0.931 . S
C1779 H1767 0.929 . S
C1779 C1773 1.390 . S
C1779 C1776 1.386 . S
C1780 C1775 1.490 . S
C1780 C1782 1.395 . S
C1780 C1783 1.403 . S
H1781 C1787 0.930 . S
C1782 H1768 0.930 . S
C1782 C1780 1.395 . S
C1782 C1785 1.403 . S
C1783 C1780 1.403 . S
C1783 C1784 1.524 . S
C1783 C1787 1.400 . S
C1784 H1769 0.960 . S
C1784 H1770 0.960 . S
C1784 H1771 0.960 . S
C1784 C1783 1.524 . S
C1785 C1782 1.403 . S
C1785 C1786 1.392 . S
C1785 C1789 1.495 . S
C1786 C1785 1.392 . S
C1786 C1787 1.385 . S
C1786 C1788 1.478 . S
C1787 H1781 0.930 . S
C1787 C1783 1.400 . S
C1787 C1786 1.385 . S
C1788 C1786 1.478 . S
C1788 C1790 1.381 . S
C1788 C1794 1.383 . S
C1789 C1785 1.495 . S
C1789 H1795 0.959 . S
C1789 H1796 0.961 . S
C1789 H1797 0.960 . S
C1790 C1788 1.381 . S
C1790 C1791 1.394 . S
C1790 H1798 0.930 . S
C1791 C1790 1.394 . S
C1791 C1792 1.383 . S
C1791 H1799 0.929 . S
C1792 C1791 1.383 . S
C1792 C1793 1.377 . S
C1793 H1777 0.930 . S
C1793 C1792 1.377 . S
C1793 C1794 1.379 . S
C1794 H1778 0.931 . S
C1794 C1788 1.383 . S
C1794 C1793 1.379 . S
H1795 C1789 0.959 . S
H1796 C1789 0.961 . S
H1797 C1789 0.960 . S
H1798 C1790 0.930 . S
H1799 C1791 0.929 . S
H1800 C1808 0.929 1_455 S
H1801 C1810 0.930 . S
H1802 C1812 0.930 . S
H1803 C1815 0.929 . S
H1804 C1818 0.930 . S
H1805 C1820 0.960 . S
H1806 C1820 0.960 . S
H1807 C1820 0.960 . S
C1808 H1800 0.929 1_655 S
C1808 C1809 1.377 . S
C1808 C1810 1.384 . S
C1809 C1808 1.377 . S
C1809 C1815 1.390 . S
C1810 H1801 0.930 . S
C1810 C1808 1.384 . S
C1810 C1811 1.372 . S
C1811 C1810 1.372 . S
C1811 C1812 1.400 . S
C1811 C1816 1.490 . S
C1812 H1802 0.930 . S
C1812 C1811 1.400 . S
C1812 C1815 1.386 . S
H1813 C1829 0.930 . S
H1814 C1830 0.931 . S
C1815 H1803 0.929 . S
C1815 C1809 1.390 . S
C1815 C1812 1.386 . S
C1816 C1811 1.490 . S
C1816 C1818 1.395 . S
C1816 C1819 1.403 . S
H1817 C1823 0.930 . S
C1818 H1804 0.930 . S
C1818 C1816 1.395 . S
C1818 C1821 1.403 . S
C1819 C1816 1.403 . S
C1819 C1820 1.524 . S
C1819 C1823 1.400 . S
C1820 H1805 0.960 . S
C1820 H1806 0.960 . S
C1820 H1807 0.960 . S
C1820 C1819 1.524 . S
C1821 C1818 1.403 . S
C1821 C1822 1.392 . S
C1821 C1825 1.495 . S
C1822 C1821 1.392 . S
C1822 C1823 1.385 . S
C1822 C1824 1.478 . S
C1823 H1817 0.930 . S
C1823 C1819 1.400 . S
C1823 C1822 1.385 . S
C1824 C1822 1.478 . S
C1824 C1826 1.381 . S
C1824 C1830 1.383 . S
C1825 C1821 1.495 . S
C1825 H1831 0.959 1_655 S
C1825 H1832 0.961 . S
C1825 H1833 0.960 . S
C1826 C1824 1.381 . S
C1826 C1827 1.394 . S
C1826 H1834 0.930 . S
C1827 C1826 1.394 . S
C1827 C1828 1.383 . S
C1827 H1835 0.929 . S
C1828 C1827 1.383 . S
C1828 C1829 1.377 . S
C1829 H1813 0.930 . S
C1829 C1828 1.377 . S
C1829 C1830 1.379 . S
C1830 H1814 0.931 . S
C1830 C1824 1.383 . S
C1830 C1829 1.379 . S
H1831 C1825 0.959 1_455 S
H1832 C1825 0.961 . S
H1833 C1825 0.960 . S
H1834 C1826 0.930 . S
H1835 C1827 0.929 . S
H1836 C1844 0.929 . S
H1837 C1846 0.930 . S
H1838 C1848 0.930 . S
H1839 C1851 0.929 . S
H1840 C1854 0.930 . S
H1841 C1856 0.960 . S
H1842 C1856 0.960 . S
H1843 C1856 0.960 . S
C1844 H1836 0.929 . S
C1844 C1845 1.377 . S
C1844 C1846 1.384 . S
C1845 C1844 1.377 . S
C1845 C1851 1.390 . S
C1846 H1837 0.930 . S
C1846 C1844 1.384 . S
C1846 C1847 1.372 . S
C1847 C1846 1.372 . S
C1847 C1848 1.400 . S
C1847 C1852 1.490 . S
C1848 H1838 0.930 . S
C1848 C1847 1.400 . S
C1848 C1851 1.386 . S
H1849 C1865 0.930 . S
H1850 C1866 0.931 . S
C1851 H1839 0.929 . S
C1851 C1845 1.390 . S
C1851 C1848 1.386 . S
C1852 C1847 1.490 . S
C1852 C1854 1.395 . S
C1852 C1855 1.403 . S
H1853 C1859 0.930 . S
C1854 H1840 0.930 . S
C1854 C1852 1.395 . S
C1854 C1857 1.403 . S
C1855 C1852 1.403 . S
C1855 C1856 1.524 . S
C1855 C1859 1.400 . S
C1856 H1841 0.960 . S
C1856 H1842 0.960 . S
C1856 H1843 0.960 . S
C1856 C1855 1.524 . S
C1857 C1854 1.403 . S
C1857 C1858 1.392 . S
C1857 C1861 1.495 . S
C1858 C1857 1.392 . S
C1858 C1859 1.385 . S
C1858 C1860 1.478 . S
C1859 H1853 0.930 . S
C1859 C1855 1.400 . S
C1859 C1858 1.385 . S
C1860 C1858 1.478 . S
C1860 C1862 1.381 . S
C1860 C1866 1.383 . S
C1861 C1857 1.495 . S
C1861 H1867 0.959 . S
C1861 H1868 0.961 . S
C1861 H1869 0.960 . S
C1862 C1860 1.381 . S
C1862 C1863 1.394 . S
C1862 H1870 0.930 . S
C1863 C1862 1.394 . S
C1863 C1864 1.383 . S
C1863 H1871 0.929 . S
C1864 C1863 1.383 . S
C1864 C1865 1.377 . S
C1865 H1849 0.930 . S
C1865 C1864 1.377 . S
C1865 C1866 1.379 . S
C1866 H1850 0.931 . S
C1866 C1860 1.383 . S
C1866 C1865 1.379 . S
H1867 C1861 0.959 . S
H1868 C1861 0.961 . S
H1869 C1861 0.960 . S
H1870 C1862 0.930 . S
H1871 C1863 0.929 . S
H1872 C1880 0.929 . S
H1873 C1882 0.930 . S
H1874 C1884 0.930 . S
H1875 C1887 0.929 . S
H1876 C1890 0.930 . S
H1877 C1892 0.960 . S
H1878 C1892 0.960 . S
H1879 C1892 0.960 . S
C1880 H1872 0.929 . S
C1880 C1881 1.377 . S
C1880 C1882 1.384 . S
C1881 C1880 1.377 . S
C1881 C1887 1.390 . S
C1882 H1873 0.930 . S
C1882 C1880 1.384 . S
C1882 C1883 1.372 . S
C1883 C1882 1.372 . S
C1883 C1884 1.400 . S
C1883 C1888 1.490 . S
C1884 H1874 0.930 . S
C1884 C1883 1.400 . S
C1884 C1887 1.386 . S
H1885 C1901 0.930 . S
H1886 C1902 0.931 . S
C1887 H1875 0.929 . S
C1887 C1881 1.390 . S
C1887 C1884 1.386 . S
C1888 C1883 1.490 . S
C1888 C1890 1.395 . S
C1888 C1891 1.403 . S
H1889 C1895 0.930 . S
C1890 H1876 0.930 . S
C1890 C1888 1.395 . S
C1890 C1893 1.403 . S
C1891 C1888 1.403 . S
C1891 C1892 1.524 . S
C1891 C1895 1.400 . S
C1892 H1877 0.960 . S
C1892 H1878 0.960 . S
C1892 H1879 0.960 . S
C1892 C1891 1.524 . S
C1893 C1890 1.403 . S
C1893 C1894 1.392 . S
C1893 C1897 1.495 . S
C1894 C1893 1.392 . S
C1894 C1895 1.385 . S
C1894 C1896 1.478 . S
C1895 H1889 0.930 . S
C1895 C1891 1.400 . S
C1895 C1894 1.385 . S
C1896 C1894 1.478 . S
C1896 C1898 1.381 . S
C1896 C1902 1.383 . S
C1897 C1893 1.495 . S
C1897 H1903 0.959 . S
C1897 H1904 0.961 . S
C1897 H1905 0.960 . S
C1898 C1896 1.381 . S
C1898 C1899 1.394 . S
C1898 H1906 0.930 . S
C1899 C1898 1.394 . S
C1899 C1900 1.383 . S
C1899 H1907 0.929 . S
C1900 C1899 1.383 . S
C1900 C1901 1.377 . S
C1901 H1885 0.930 . S
C1901 C1900 1.377 . S
C1901 C1902 1.379 . S
C1902 H1886 0.931 . S
C1902 C1896 1.383 . S
C1902 C1901 1.379 . S
H1903 C1897 0.959 . S
H1904 C1897 0.961 . S
H1905 C1897 0.960 . S
H1906 C1898 0.930 . S
H1907 C1899 0.929 . S
H1908 C1916 0.929 . S
H1909 C1918 0.930 . S
H1910 C1920 0.930 . S
H1911 C1923 0.929 . S
H1912 C1926 0.930 . S
H1913 C1928 0.960 . S
H1914 C1928 0.960 . S
H1915 C1928 0.960 . S
C1916 H1908 0.929 . S
C1916 C1917 1.377 . S
C1916 C1918 1.384 . S
C1917 C1916 1.377 . S
C1917 C1923 1.390 . S
C1918 H1909 0.930 . S
C1918 C1916 1.384 . S
C1918 C1919 1.372 . S
C1919 C1918 1.372 . S
C1919 C1920 1.400 . S
C1919 C1924 1.490 . S
C1920 H1910 0.930 . S
C1920 C1919 1.400 . S
C1920 C1923 1.386 . S
H1921 C1937 0.930 . S
H1922 C1938 0.931 . S
C1923 H1911 0.929 . S
C1923 C1917 1.390 . S
C1923 C1920 1.386 . S
C1924 C1919 1.490 . S
C1924 C1926 1.395 . S
C1924 C1927 1.403 1_655 S
H1925 C1931 0.930 . S
C1926 H1912 0.930 . S
C1926 C1924 1.395 . S
C1926 C1929 1.403 1_655 S
C1927 C1924 1.403 1_455 S
C1927 C1928 1.524 . S
C1927 C1931 1.400 . S
C1928 H1913 0.960 . S
C1928 H1914 0.960 . S
C1928 H1915 0.960 . S
C1928 C1927 1.524 . S
C1929 C1926 1.403 1_455 S
C1929 C1930 1.392 . S
C1929 C1933 1.495 . S
C1930 C1929 1.392 . S
C1930 C1931 1.385 . S
C1930 C1932 1.478 . S
C1931 H1925 0.930 . S
C1931 C1927 1.400 . S
C1931 C1930 1.385 . S
C1932 C1930 1.478 . S
C1932 C1934 1.381 . S
C1932 C1938 1.383 . S
C1933 C1929 1.495 . S
C1933 H1939 0.959 1_455 S
C1933 H1940 0.961 . S
C1933 H1941 0.960 . S
C1934 C1932 1.381 . S
C1934 C1935 1.394 . S
C1934 H1942 0.930 . S
C1935 C1934 1.394 . S
C1935 C1936 1.383 . S
C1935 H1943 0.929 . S
C1936 C1935 1.383 . S
C1936 C1937 1.377 . S
C1937 H1921 0.930 . S
C1937 C1936 1.377 . S
C1937 C1938 1.379 . S
C1938 H1922 0.931 . S
C1938 C1932 1.383 . S
C1938 C1937 1.379 . S
H1939 C1933 0.959 1_655 S
H1940 C1933 0.961 . S
H1941 C1933 0.960 . S
H1942 C1934 0.930 . S
H1943 C1935 0.929 . S
H1944 C1952 0.929 . S
H1945 C1954 0.930 . S
H1946 C1956 0.930 . S
H1947 C1959 0.929 . S
H1948 C1962 0.930 . S
H1949 C1964 0.960 . S
H1950 C1964 0.960 . S
H1951 C1964 0.960 . S
C1952 H1944 0.929 . S
C1952 C1953 1.377 . S
C1952 C1954 1.384 . S
C1953 C1952 1.377 . S
C1953 C1959 1.390 . S
C1954 H1945 0.930 . S
C1954 C1952 1.384 . S
C1954 C1955 1.372 . S
C1955 C1954 1.372 . S
C1955 C1956 1.400 . S
C1955 C1960 1.490 . S
C1956 H1946 0.930 . S
C1956 C1955 1.400 . S
C1956 C1959 1.386 . S
H1957 C1973 0.930 . S
H1958 C1974 0.931 . S
C1959 H1947 0.929 . S
C1959 C1953 1.390 . S
C1959 C1956 1.386 . S
C1960 C1955 1.490 . S
C1960 C1962 1.395 . S
C1960 C1963 1.403 . S
H1961 C1967 0.930 . S
C1962 H1948 0.930 . S
C1962 C1960 1.395 . S
C1962 C1965 1.403 . S
C1963 C1960 1.403 . S
C1963 C1964 1.524 . S
C1963 C1967 1.400 . S
C1964 H1949 0.960 . S
C1964 H1950 0.960 . S
C1964 H1951 0.960 . S
C1964 C1963 1.524 . S
C1965 C1962 1.403 . S
C1965 C1966 1.392 . S
C1965 C1969 1.495 . S
C1966 C1965 1.392 . S
C1966 C1967 1.385 . S
C1966 C1968 1.478 . S
C1967 H1961 0.930 . S
C1967 C1963 1.400 . S
C1967 C1966 1.385 . S
C1968 C1966 1.478 . S
C1968 C1970 1.381 . S
C1968 C1974 1.383 . S
C1969 C1965 1.495 . S
C1969 H1975 0.959 . S
C1969 H1976 0.961 . S
C1969 H1977 0.960 . S
C1970 C1968 1.381 . S
C1970 C1971 1.394 . S
C1970 H1978 0.930 . S
C1971 C1970 1.394 . S
C1971 C1972 1.383 . S
C1971 H1979 0.929 . S
C1972 C1971 1.383 . S
C1972 C1973 1.377 . S
C1973 H1957 0.930 . S
C1973 C1972 1.377 . S
C1973 C1974 1.379 . S
C1974 H1958 0.931 . S
C1974 C1968 1.383 . S
C1974 C1973 1.379 . S
H1975 C1969 0.959 . S
H1976 C1969 0.961 . S
H1977 C1969 0.960 . S
H1978 C1970 0.930 . S
H1979 C1971 0.929 . S
H1980 C1988 0.929 . S
H1981 C1990 0.930 . S
H1982 C1992 0.930 . S
H1983 C1995 0.929 . S
H1984 C1998 0.930 . S
H1985 C2000 0.960 . S
H1986 C2000 0.960 1_565 S
H1987 C2000 0.960 . S
C1988 H1980 0.929 . S
C1988 C1989 1.377 . S
C1988 C1990 1.384 . S
C1989 C1988 1.377 . S
C1989 C1995 1.390 . S
C1990 H1981 0.930 . S
C1990 C1988 1.384 . S
C1990 C1991 1.372 . S
C1991 C1990 1.372 . S
C1991 C1992 1.400 . S
C1991 C1996 1.490 . S
C1992 H1982 0.930 . S
C1992 C1991 1.400 . S
C1992 C1995 1.386 . S
H1993 C2009 0.930 . S
H1994 C2010 0.931 . S
C1995 H1983 0.929 . S
C1995 C1989 1.390 . S
C1995 C1992 1.386 . S
C1996 C1991 1.490 . S
C1996 C1998 1.395 . S
C1996 C1999 1.403 1_565 S
H1997 C2003 0.930 . S
C1998 H1984 0.930 . S
C1998 C1996 1.395 . S
C1998 C2001 1.403 1_565 S
C1999 C1996 1.403 1_545 S
C1999 C2000 1.524 . S
C1999 C2003 1.400 . S
C2000 H1985 0.960 . S
C2000 H1986 0.960 1_545 S
C2000 H1987 0.960 . S
C2000 C1999 1.524 . S
C2001 C1998 1.403 1_545 S
C2001 C2002 1.392 . S
C2001 C2005 1.495 . S
C2002 C2001 1.392 . S
C2002 C2003 1.385 . S
C2002 C2004 1.478 . S
C2003 H1997 0.930 . S
C2003 C1999 1.400 . S
C2003 C2002 1.385 . S
C2004 C2002 1.478 . S
C2004 C2006 1.381 . S
C2004 C2010 1.383 . S
C2005 C2001 1.495 . S
C2005 H2011 0.959 1_545 S
C2005 H2012 0.961 . S
C2005 H2013 0.960 . S
C2006 C2004 1.381 . S
C2006 C2007 1.394 . S
C2006 H2014 0.930 . S
C2007 C2006 1.394 . S
C2007 C2008 1.383 . S
C2007 H2015 0.929 . S
C2008 C2007 1.383 . S
C2008 C2009 1.377 . S
C2009 H1993 0.930 . S
C2009 C2008 1.377 . S
C2009 C2010 1.379 . S
C2010 H1994 0.931 . S
C2010 C2004 1.383 . S
C2010 C2009 1.379 . S
H2011 C2005 0.959 1_565 S
H2012 C2005 0.961 . S
H2013 C2005 0.960 . S
H2014 C2006 0.930 . S
H2015 C2007 0.929 . S
H2016 C2024 0.929 . S
H2017 C2026 0.930 . S
H2018 C2028 0.930 . S
H2019 C2031 0.929 . S
H2020 C2034 0.930 . S
H2021 C2036 0.960 . S
H2022 C2036 0.960 . S
H2023 C2036 0.960 . S
C2024 H2016 0.929 . S
C2024 C2025 1.377 . S
C2024 C2026 1.384 . S
C2025 C2024 1.377 . S
C2025 C2031 1.390 . S
C2026 H2017 0.930 . S
C2026 C2024 1.384 . S
C2026 C2027 1.372 . S
C2027 C2026 1.372 . S
C2027 C2028 1.400 . S
C2027 C2032 1.490 . S
C2028 H2018 0.930 . S
C2028 C2027 1.400 . S
C2028 C2031 1.386 . S
H2029 C2045 0.930 . S
H2030 C2046 0.931 . S
C2031 H2019 0.929 . S
C2031 C2025 1.390 . S
C2031 C2028 1.386 . S
C2032 C2027 1.490 . S
C2032 C2034 1.395 . S
C2032 C2035 1.403 . S
H2033 C2039 0.930 . S
C2034 H2020 0.930 . S
C2034 C2032 1.395 . S
C2034 C2037 1.403 . S
C2035 C2032 1.403 . S
C2035 C2036 1.524 . S
C2035 C2039 1.400 . S
C2036 H2021 0.960 . S
C2036 H2022 0.960 . S
C2036 H2023 0.960 . S
C2036 C2035 1.524 . S
C2037 C2034 1.403 . S
C2037 C2038 1.392 . S
C2037 C2041 1.495 . S
C2038 C2037 1.392 . S
C2038 C2039 1.385 . S
C2038 C2040 1.478 . S
C2039 H2033 0.930 . S
C2039 C2035 1.400 . S
C2039 C2038 1.385 . S
C2040 C2038 1.478 . S
C2040 C2042 1.381 . S
C2040 C2046 1.383 . S
C2041 C2037 1.495 . S
C2041 H2047 0.959 . S
C2041 H2048 0.961 . S
C2041 H2049 0.960 . S
C2042 C2040 1.381 . S
C2042 C2043 1.394 . S
C2042 H2050 0.930 . S
C2043 C2042 1.394 . S
C2043 C2044 1.383 . S
C2043 H2051 0.929 . S
C2044 C2043 1.383 . S
C2044 C2045 1.377 . S
C2045 H2029 0.930 . S
C2045 C2044 1.377 . S
C2045 C2046 1.379 . S
C2046 H2030 0.931 . S
C2046 C2040 1.383 . S
C2046 C2045 1.379 . S
H2047 C2041 0.959 . S
H2048 C2041 0.961 . S
H2049 C2041 0.960 . S
H2050 C2042 0.930 . S
H2051 C2043 0.929 . S
H2052 C2060 0.929 . S
H2053 C2062 0.930 . S
H2054 C2064 0.930 . S
H2055 C2067 0.929 . S
H2056 C2070 0.930 . S
H2057 C2072 0.960 . S
H2058 C2072 0.960 . S
H2059 C2072 0.960 . S
C2060 H2052 0.929 . S
C2060 C2061 1.377 . S
C2060 C2062 1.384 . S
C2061 C2060 1.377 . S
C2061 C2067 1.390 . S
C2062 H2053 0.930 . S
C2062 C2060 1.384 . S
C2062 C2063 1.372 . S
C2063 C2062 1.372 . S
C2063 C2064 1.400 . S
C2063 C2068 1.490 . S
C2064 H2054 0.930 . S
C2064 C2063 1.400 . S
C2064 C2067 1.386 . S
H2065 C2081 0.930 . S
H2066 C2082 0.931 . S
C2067 H2055 0.929 . S
C2067 C2061 1.390 . S
C2067 C2064 1.386 . S
C2068 C2063 1.490 . S
C2068 C2070 1.395 . S
C2068 C2071 1.403 . S
H2069 C2075 0.930 . S
C2070 H2056 0.930 . S
C2070 C2068 1.395 . S
C2070 C2073 1.403 . S
C2071 C2068 1.403 . S
C2071 C2072 1.524 . S
C2071 C2075 1.400 . S
C2072 H2057 0.960 . S
C2072 H2058 0.960 . S
C2072 H2059 0.960 . S
C2072 C2071 1.524 . S
C2073 C2070 1.403 . S
C2073 C2074 1.392 . S
C2073 C2077 1.495 . S
C2074 C2073 1.392 . S
C2074 C2075 1.385 . S
C2074 C2076 1.478 . S
C2075 H2069 0.930 . S
C2075 C2071 1.400 . S
C2075 C2074 1.385 . S
C2076 C2074 1.478 . S
C2076 C2078 1.381 . S
C2076 C2082 1.383 . S
C2077 C2073 1.495 . S
C2077 H2083 0.959 . S
C2077 H2084 0.961 . S
C2077 H2085 0.960 . S
C2078 C2076 1.381 . S
C2078 C2079 1.394 . S
C2078 H2086 0.930 . S
C2079 C2078 1.394 . S
C2079 C2080 1.383 . S
C2079 H2087 0.929 . S
C2080 C2079 1.383 . S
C2080 C2081 1.377 . S
C2081 H2065 0.930 . S
C2081 C2080 1.377 . S
C2081 C2082 1.379 . S
C2082 H2066 0.931 . S
C2082 C2076 1.383 . S
C2082 C2081 1.379 . S
H2083 C2077 0.959 . S
H2084 C2077 0.961 . S
H2085 C2077 0.960 . S
H2086 C2078 0.930 . S
H2087 C2079 0.929 . S
H2088 C2096 0.929 . S
H2089 C2098 0.930 . S
H2090 C2100 0.930 . S
H2091 C2103 0.929 . S
H2092 C2106 0.930 . S
H2093 C2108 0.960 . S
H2094 C2108 0.960 . S
H2095 C2108 0.960 . S
C2096 H2088 0.929 . S
C2096 C2097 1.377 . S
C2096 C2098 1.384 . S
C2097 C2096 1.377 . S
C2097 C2103 1.390 . S
C2098 H2089 0.930 . S
C2098 C2096 1.384 . S
C2098 C2099 1.372 . S
C2099 C2098 1.372 . S
C2099 C2100 1.400 . S
C2099 C2104 1.490 . S
C2100 H2090 0.930 . S
C2100 C2099 1.400 . S
C2100 C2103 1.386 . S
H2101 C2117 0.930 . S
H2102 C2118 0.931 . S
C2103 H2091 0.929 . S
C2103 C2097 1.390 . S
C2103 C2100 1.386 . S
C2104 C2099 1.490 . S
C2104 C2106 1.395 . S
C2104 C2107 1.403 . S
H2105 C2111 0.930 . S
C2106 H2092 0.930 . S
C2106 C2104 1.395 . S
C2106 C2109 1.403 . S
C2107 C2104 1.403 . S
C2107 C2108 1.524 . S
C2107 C2111 1.400 . S
C2108 H2093 0.960 . S
C2108 H2094 0.960 . S
C2108 H2095 0.960 . S
C2108 C2107 1.524 . S
C2109 C2106 1.403 . S
C2109 C2110 1.392 . S
C2109 C2113 1.495 . S
C2110 C2109 1.392 . S
C2110 C2111 1.385 . S
C2110 C2112 1.478 . S
C2111 H2105 0.930 . S
C2111 C2107 1.400 . S
C2111 C2110 1.385 . S
C2112 C2110 1.478 . S
C2112 C2114 1.381 . S
C2112 C2118 1.383 . S
C2113 C2109 1.495 . S
C2113 H2119 0.959 . S
C2113 H2120 0.961 . S
C2113 H2121 0.960 . S
C2114 C2112 1.381 . S
C2114 C2115 1.394 . S
C2114 H2122 0.930 . S
C2115 C2114 1.394 . S
C2115 C2116 1.383 . S
C2115 H2123 0.929 . S
C2116 C2115 1.383 . S
C2116 C2117 1.377 . S
C2117 H2101 0.930 . S
C2117 C2116 1.377 . S
C2117 C2118 1.379 . S
C2118 H2102 0.931 . S
C2118 C2112 1.383 . S
C2118 C2117 1.379 . S
H2119 C2113 0.959 . S
H2120 C2113 0.961 . S
H2121 C2113 0.960 . S
H2122 C2114 0.930 . S
H2123 C2115 0.929 . S
H2124 C2132 0.929 . S
H2125 C2134 0.930 . S
H2126 C2136 0.930 . S
H2127 C2139 0.929 . S
H2128 C2142 0.930 . S
H2129 C2144 0.960 . S
H2130 C2144 0.960 . S
H2131 C2144 0.960 . S
C2132 H2124 0.929 . S
C2132 C2133 1.377 . S
C2132 C2134 1.384 . S
C2133 C2132 1.377 . S
C2133 C2139 1.390 . S
C2134 H2125 0.930 . S
C2134 C2132 1.384 . S
C2134 C2135 1.372 . S
C2135 C2134 1.372 . S
C2135 C2136 1.400 . S
C2135 C2140 1.490 . S
C2136 H2126 0.930 . S
C2136 C2135 1.400 . S
C2136 C2139 1.386 . S
H2137 C2153 0.930 . S
H2138 C2154 0.931 . S
C2139 H2127 0.929 . S
C2139 C2133 1.390 . S
C2139 C2136 1.386 . S
C2140 C2135 1.490 . S
C2140 C2142 1.395 . S
C2140 C2143 1.403 . S
H2141 C2147 0.930 . S
C2142 H2128 0.930 . S
C2142 C2140 1.395 . S
C2142 C2145 1.403 . S
C2143 C2140 1.403 . S
C2143 C2144 1.524 . S
C2143 C2147 1.400 . S
C2144 H2129 0.960 . S
C2144 H2130 0.960 . S
C2144 H2131 0.960 . S
C2144 C2143 1.524 . S
C2145 C2142 1.403 . S
C2145 C2146 1.392 . S
C2145 C2149 1.495 . S
C2146 C2145 1.392 . S
C2146 C2147 1.385 . S
C2146 C2148 1.478 . S
C2147 H2141 0.930 . S
C2147 C2143 1.400 . S
C2147 C2146 1.385 . S
C2148 C2146 1.478 . S
C2148 C2150 1.381 . S
C2148 C2154 1.383 . S
C2149 C2145 1.495 . S
C2149 H2155 0.959 . S
C2149 H2156 0.961 . S
C2149 H2157 0.960 . S
C2150 C2148 1.381 . S
C2150 C2151 1.394 . S
C2150 H2158 0.930 . S
C2151 C2150 1.394 . S
C2151 C2152 1.383 . S
C2151 H2159 0.929 . S
C2152 C2151 1.383 . S
C2152 C2153 1.377 . S
C2153 H2137 0.930 . S
C2153 C2152 1.377 . S
C2153 C2154 1.379 . S
C2154 H2138 0.931 . S
C2154 C2148 1.383 . S
C2154 C2153 1.379 . S
H2155 C2149 0.959 . S
H2156 C2149 0.961 . S
H2157 C2149 0.960 . S
H2158 C2150 0.930 . S
H2159 C2151 0.929 . S
H2160 C2168 0.929 . S
H2161 C2170 0.930 . S
H2162 C2172 0.930 . S
H2163 C2175 0.929 . S
H2164 C2178 0.930 . S
H2165 C2180 0.960 . S
H2166 C2180 0.960 . S
H2167 C2180 0.960 . S
C2168 H2160 0.929 . S
C2168 C2169 1.377 . S
C2168 C2170 1.384 . S
C2169 C2168 1.377 . S
C2169 C2175 1.390 . S
C2170 H2161 0.930 . S
C2170 C2168 1.384 . S
C2170 C2171 1.372 . S
C2171 C2170 1.372 . S
C2171 C2172 1.400 . S
C2171 C2176 1.490 . S
C2172 H2162 0.930 . S
C2172 C2171 1.400 . S
C2172 C2175 1.386 . S
H2173 C2189 0.930 . S
H2174 C2190 0.931 . S
C2175 H2163 0.929 . S
C2175 C2169 1.390 . S
C2175 C2172 1.386 . S
C2176 C2171 1.490 . S
C2176 C2178 1.395 . S
C2176 C2179 1.403 . S
H2177 C2183 0.930 . S
C2178 H2164 0.930 . S
C2178 C2176 1.395 . S
C2178 C2181 1.403 . S
C2179 C2176 1.403 . S
C2179 C2180 1.524 . S
C2179 C2183 1.400 . S
C2180 H2165 0.960 . S
C2180 H2166 0.960 . S
C2180 H2167 0.960 . S
C2180 C2179 1.524 . S
C2181 C2178 1.403 . S
C2181 C2182 1.392 . S
C2181 C2185 1.495 . S
C2182 C2181 1.392 . S
C2182 C2183 1.385 . S
C2182 C2184 1.478 . S
C2183 H2177 0.930 . S
C2183 C2179 1.400 . S
C2183 C2182 1.385 . S
C2184 C2182 1.478 . S
C2184 C2186 1.381 . S
C2184 C2190 1.383 . S
C2185 C2181 1.495 . S
C2185 H2191 0.959 . S
C2185 H2192 0.961 . S
C2185 H2193 0.960 . S
C2186 C2184 1.381 . S
C2186 C2187 1.394 . S
C2186 H2194 0.930 . S
C2187 C2186 1.394 . S
C2187 C2188 1.383 . S
C2187 H2195 0.929 . S
C2188 C2187 1.383 . S
C2188 C2189 1.377 . S
C2189 H2173 0.930 . S
C2189 C2188 1.377 . S
C2189 C2190 1.379 . S
C2190 H2174 0.931 . S
C2190 C2184 1.383 . S
C2190 C2189 1.379 . S
H2191 C2185 0.959 . S
H2192 C2185 0.961 . S
H2193 C2185 0.960 . S
H2194 C2186 0.930 . S
H2195 C2187 0.929 . S
H2196 C2204 0.929 . S
H2197 C2206 0.930 . S
H2198 C2208 0.930 . S
H2199 C2211 0.929 . S
H2200 C2214 0.930 . S
H2201 C2216 0.960 . S
H2202 C2216 0.960 . S
H2203 C2216 0.960 . S
C2204 H2196 0.929 . S
C2204 C2205 1.377 . S
C2204 C2206 1.384 . S
C2205 C2204 1.377 . S
C2205 C2211 1.390 . S
C2206 H2197 0.930 . S
C2206 C2204 1.384 . S
C2206 C2207 1.372 . S
C2207 C2206 1.372 . S
C2207 C2208 1.400 . S
C2207 C2212 1.490 . S
C2208 H2198 0.930 . S
C2208 C2207 1.400 . S
C2208 C2211 1.386 . S
H2209 C2225 0.930 . S
H2210 C2226 0.931 . S
C2211 H2199 0.929 . S
C2211 C2205 1.390 . S
C2211 C2208 1.386 . S
C2212 C2207 1.490 . S
C2212 C2214 1.395 . S
C2212 C2215 1.403 . S
H2213 C2219 0.930 . S
C2214 H2200 0.930 . S
C2214 C2212 1.395 . S
C2214 C2217 1.403 . S
C2215 C2212 1.403 . S
C2215 C2216 1.524 . S
C2215 C2219 1.400 . S
C2216 H2201 0.960 . S
C2216 H2202 0.960 . S
C2216 H2203 0.960 . S
C2216 C2215 1.524 . S
C2217 C2214 1.403 . S
C2217 C2218 1.392 . S
C2217 C2221 1.495 . S
C2218 C2217 1.392 . S
C2218 C2219 1.385 . S
C2218 C2220 1.478 . S
C2219 H2213 0.930 . S
C2219 C2215 1.400 . S
C2219 C2218 1.385 . S
C2220 C2218 1.478 . S
C2220 C2222 1.381 . S
C2220 C2226 1.383 . S
C2221 C2217 1.495 . S
C2221 H2227 0.959 . S
C2221 H2228 0.961 . S
C2221 H2229 0.960 . S
C2222 C2220 1.381 . S
C2222 C2223 1.394 . S
C2222 H2230 0.930 . S
C2223 C2222 1.394 . S
C2223 C2224 1.383 . S
C2223 H2231 0.929 . S
C2224 C2223 1.383 . S
C2224 C2225 1.377 . S
C2225 H2209 0.930 . S
C2225 C2224 1.377 . S
C2225 C2226 1.379 . S
C2226 H2210 0.931 . S
C2226 C2220 1.383 . S
C2226 C2225 1.379 . S
H2227 C2221 0.959 . S
H2228 C2221 0.961 . S
H2229 C2221 0.960 . S
H2230 C2222 0.930 . S
H2231 C2223 0.929 . S
H2232 C2240 0.929 . S
H2233 C2242 0.930 . S
H2234 C2244 0.930 . S
H2235 C2247 0.929 . S
H2236 C2250 0.930 . S
H2237 C2252 0.960 . S
H2238 C2252 0.960 . S
H2239 C2252 0.960 . S
C2240 H2232 0.929 . S
C2240 C2241 1.377 . S
C2240 C2242 1.384 . S
C2241 C2240 1.377 . S
C2241 C2247 1.390 . S
C2242 H2233 0.930 . S
C2242 C2240 1.384 . S
C2242 C2243 1.372 . S
C2243 C2242 1.372 . S
C2243 C2244 1.400 . S
C2243 C2248 1.490 . S
C2244 H2234 0.930 . S
C2244 C2243 1.400 . S
C2244 C2247 1.386 . S
H2245 C2261 0.930 . S
H2246 C2262 0.931 . S
C2247 H2235 0.929 . S
C2247 C2241 1.390 . S
C2247 C2244 1.386 . S
C2248 C2243 1.490 . S
C2248 C2250 1.395 . S
C2248 C2251 1.403 . S
H2249 C2255 0.930 . S
C2250 H2236 0.930 . S
C2250 C2248 1.395 . S
C2250 C2253 1.403 . S
C2251 C2248 1.403 . S
C2251 C2252 1.524 . S
C2251 C2255 1.400 . S
C2252 H2237 0.960 . S
C2252 H2238 0.960 . S
C2252 H2239 0.960 . S
C2252 C2251 1.524 . S
C2253 C2250 1.403 . S
C2253 C2254 1.392 . S
C2253 C2257 1.495 . S
C2254 C2253 1.392 . S
C2254 C2255 1.385 . S
C2254 C2256 1.478 . S
C2255 H2249 0.930 . S
C2255 C2251 1.400 . S
C2255 C2254 1.385 . S
C2256 C2254 1.478 . S
C2256 C2258 1.381 . S
C2256 C2262 1.383 . S
C2257 C2253 1.495 . S
C2257 H2263 0.959 . S
C2257 H2264 0.961 . S
C2257 H2265 0.960 . S
C2258 C2256 1.381 . S
C2258 C2259 1.394 . S
C2258 H2266 0.930 . S
C2259 C2258 1.394 . S
C2259 C2260 1.383 . S
C2259 H2267 0.929 . S
C2260 C2259 1.383 . S
C2260 C2261 1.377 . S
C2261 H2245 0.930 . S
C2261 C2260 1.377 . S
C2261 C2262 1.379 . S
C2262 H2246 0.931 . S
C2262 C2256 1.383 . S
C2262 C2261 1.379 . S
H2263 C2257 0.959 . S
H2264 C2257 0.961 . S
H2265 C2257 0.960 . S
H2266 C2258 0.930 . S
H2267 C2259 0.929 . S
H2268 C2276 0.929 . S
H2269 C2278 0.930 . S
H2270 C2280 0.930 . S
H2271 C2283 0.929 . S
H2272 C2286 0.930 . S
H2273 C2288 0.960 . S
H2274 C2288 0.960 . S
H2275 C2288 0.960 . S
C2276 H2268 0.929 . S
C2276 C2277 1.377 . S
C2276 C2278 1.384 . S
C2277 C2276 1.377 . S
C2277 C2283 1.390 . S
C2278 H2269 0.930 . S
C2278 C2276 1.384 . S
C2278 C2279 1.372 . S
C2279 C2278 1.372 . S
C2279 C2280 1.400 . S
C2279 C2284 1.490 . S
C2280 H2270 0.930 . S
C2280 C2279 1.400 . S
C2280 C2283 1.386 . S
H2281 C2297 0.930 . S
H2282 C2298 0.931 . S
C2283 H2271 0.929 . S
C2283 C2277 1.390 . S
C2283 C2280 1.386 . S
C2284 C2279 1.490 . S
C2284 C2286 1.395 . S
C2284 C2287 1.403 . S
H2285 C2291 0.930 . S
C2286 H2272 0.930 . S
C2286 C2284 1.395 . S
C2286 C2289 1.403 . S
C2287 C2284 1.403 . S
C2287 C2288 1.524 . S
C2287 C2291 1.400 . S
C2288 H2273 0.960 . S
C2288 H2274 0.960 . S
C2288 H2275 0.960 . S
C2288 C2287 1.524 . S
C2289 C2286 1.403 . S
C2289 C2290 1.392 . S
C2289 C2293 1.495 . S
C2290 C2289 1.392 . S
C2290 C2291 1.385 . S
C2290 C2292 1.478 . S
C2291 H2285 0.930 . S
C2291 C2287 1.400 . S
C2291 C2290 1.385 . S
C2292 C2290 1.478 . S
C2292 C2294 1.381 . S
C2292 C2298 1.383 . S
C2293 C2289 1.495 . S
C2293 H2299 0.959 . S
C2293 H2300 0.961 . S
C2293 H2301 0.960 . S
C2294 C2292 1.381 . S
C2294 C2295 1.394 . S
C2294 H2302 0.930 . S
C2295 C2294 1.394 . S
C2295 C2296 1.383 . S
C2295 H2303 0.929 . S
C2296 C2295 1.383 . S
C2296 C2297 1.377 . S
C2297 H2281 0.930 . S
C2297 C2296 1.377 . S
C2297 C2298 1.379 . S
C2298 H2282 0.931 . S
C2298 C2292 1.383 . S
C2298 C2297 1.379 . S
H2299 C2293 0.959 . S
H2300 C2293 0.961 . S
H2301 C2293 0.960 . S
H2302 C2294 0.930 . S
H2303 C2295 0.929 . S
H2304 C2312 0.929 . S
H2305 C2314 0.930 . S
H2306 C2316 0.930 . S
H2307 C2319 0.929 . S
H2308 C2322 0.930 . S
H2309 C2324 0.960 . S
H2310 C2324 0.960 . S
H2311 C2324 0.960 . S
C2312 H2304 0.929 . S
C2312 C2313 1.377 . S
C2312 C2314 1.384 . S
C2313 C2312 1.377 . S
C2313 C2319 1.390 . S
C2314 H2305 0.930 . S
C2314 C2312 1.384 . S
C2314 C2315 1.372 . S
C2315 C2314 1.372 . S
C2315 C2316 1.400 . S
C2315 C2320 1.490 . S
C2316 H2306 0.930 . S
C2316 C2315 1.400 . S
C2316 C2319 1.386 . S
H2317 C2333 0.930 . S
H2318 C2334 0.931 . S
C2319 H2307 0.929 . S
C2319 C2313 1.390 . S
C2319 C2316 1.386 . S
C2320 C2315 1.490 . S
C2320 C2322 1.395 . S
C2320 C2323 1.403 . S
H2321 C2327 0.930 . S
C2322 H2308 0.930 . S
C2322 C2320 1.395 . S
C2322 C2325 1.403 . S
C2323 C2320 1.403 . S
C2323 C2324 1.524 . S
C2323 C2327 1.400 . S
C2324 H2309 0.960 . S
C2324 H2310 0.960 . S
C2324 H2311 0.960 . S
C2324 C2323 1.524 . S
C2325 C2322 1.403 . S
C2325 C2326 1.392 . S
C2325 C2329 1.495 . S
C2326 C2325 1.392 . S
C2326 C2327 1.385 . S
C2326 C2328 1.478 . S
C2327 H2321 0.930 . S
C2327 C2323 1.400 . S
C2327 C2326 1.385 . S
C2328 C2326 1.478 . S
C2328 C2330 1.381 . S
C2328 C2334 1.383 . S
C2329 C2325 1.495 . S
C2329 H2335 0.959 . S
C2329 H2336 0.961 . S
C2329 H2337 0.960 . S
C2330 C2328 1.381 . S
C2330 C2331 1.394 . S
C2330 H2338 0.930 . S
C2331 C2330 1.394 . S
C2331 C2332 1.383 . S
C2331 H2339 0.929 . S
C2332 C2331 1.383 . S
C2332 C2333 1.377 . S
C2333 H2317 0.930 . S
C2333 C2332 1.377 . S
C2333 C2334 1.379 . S
C2334 H2318 0.931 . S
C2334 C2328 1.383 . S
C2334 C2333 1.379 . S
H2335 C2329 0.959 . S
H2336 C2329 0.961 . S
H2337 C2329 0.960 . S
H2338 C2330 0.930 . S
H2339 C2331 0.929 . S
H2340 C2348 0.929 . S
H2341 C2350 0.930 . S
H2342 C2352 0.930 . S
H2343 C2355 0.929 . S
H2344 C2358 0.930 . S
H2345 C2360 0.960 . S
H2346 C2360 0.960 . S
H2347 C2360 0.960 . S
C2348 H2340 0.929 . S
C2348 C2349 1.377 . S
C2348 C2350 1.384 . S
C2349 C2348 1.377 . S
C2349 C2355 1.390 . S
C2350 H2341 0.930 . S
C2350 C2348 1.384 . S
C2350 C2351 1.372 . S
C2351 C2350 1.372 . S
C2351 C2352 1.400 . S
C2351 C2356 1.490 . S
C2352 H2342 0.930 . S
C2352 C2351 1.400 . S
C2352 C2355 1.386 . S
H2353 C2369 0.930 1_455 S
H2354 C2370 0.931 . S
C2355 H2343 0.929 . S
C2355 C2349 1.390 . S
C2355 C2352 1.386 . S
C2356 C2351 1.490 . S
C2356 C2358 1.395 . S
C2356 C2359 1.403 . S
H2357 C2363 0.930 . S
C2358 H2344 0.930 . S
C2358 C2356 1.395 . S
C2358 C2361 1.403 . S
C2359 C2356 1.403 . S
C2359 C2360 1.524 . S
C2359 C2363 1.400 . S
C2360 H2345 0.960 . S
C2360 H2346 0.960 . S
C2360 H2347 0.960 . S
C2360 C2359 1.524 . S
C2361 C2358 1.403 . S
C2361 C2362 1.392 . S
C2361 C2365 1.495 . S
C2362 C2361 1.392 . S
C2362 C2363 1.385 . S
C2362 C2364 1.478 . S
C2363 H2357 0.930 . S
C2363 C2359 1.400 . S
C2363 C2362 1.385 . S
C2364 C2362 1.478 . S
C2364 C2366 1.381 . S
C2364 C2370 1.383 . S
C2365 C2361 1.495 . S
C2365 H2371 0.959 . S
C2365 H2372 0.961 . S
C2365 H2373 0.960 . S
C2366 C2364 1.381 . S
C2366 C2367 1.394 . S
C2366 H2374 0.930 . S
C2367 C2366 1.394 . S
C2367 C2368 1.383 1_655 S
C2367 H2375 0.929 1_655 S
C2368 C2367 1.383 1_455 S
C2368 C2369 1.377 1_455 S
C2369 H2353 0.930 1_655 S
C2369 C2368 1.377 1_655 S
C2369 C2370 1.379 . S
C2370 H2354 0.931 . S
C2370 C2364 1.383 . S
C2370 C2369 1.379 . S
H2371 C2365 0.959 . S
H2372 C2365 0.961 . S
H2373 C2365 0.960 . S
H2374 C2366 0.930 . S
H2375 C2367 0.929 1_455 S
H2376 C2384 0.929 . S
H2377 C2386 0.930 . S
H2378 C2388 0.930 . S
H2379 C2391 0.929 . S
H2380 C2394 0.930 . S
H2381 C2396 0.960 . S
H2382 C2396 0.960 . S
H2383 C2396 0.960 . S
C2384 H2376 0.929 . S
C2384 C2385 1.377 . S
C2384 C2386 1.384 1_565 S
C2385 C2384 1.377 . S
C2385 C2391 1.390 . S
C2386 H2377 0.930 . S
C2386 C2384 1.384 1_545 S
C2386 C2387 1.372 . S
C2387 C2386 1.372 . S
C2387 C2388 1.400 1_545 S
C2387 C2392 1.490 . S
C2388 H2378 0.930 . S
C2388 C2387 1.400 1_565 S
C2388 C2391 1.386 . S
H2389 C2405 0.930 . S
H2390 C2406 0.931 . S
C2391 H2379 0.929 . S
C2391 C2385 1.390 . S
C2391 C2388 1.386 . S
C2392 C2387 1.490 . S
C2392 C2394 1.395 . S
C2392 C2395 1.403 . S
H2393 C2399 0.930 . S
C2394 H2380 0.930 . S
C2394 C2392 1.395 . S
C2394 C2397 1.403 . S
C2395 C2392 1.403 . S
C2395 C2396 1.524 1_545 S
C2395 C2399 1.400 . S
C2396 H2381 0.960 . S
C2396 H2382 0.960 . S
C2396 H2383 0.960 . S
C2396 C2395 1.524 1_565 S
C2397 C2394 1.403 . S
C2397 C2398 1.392 . S
C2397 C2401 1.495 . S
C2398 C2397 1.392 . S
C2398 C2399 1.385 . S
C2398 C2400 1.478 . S
C2399 H2393 0.930 . S
C2399 C2395 1.400 . S
C2399 C2398 1.385 . S
C2400 C2398 1.478 . S
C2400 C2402 1.381 . S
C2400 C2406 1.383 . S
C2401 C2397 1.495 . S
C2401 H2407 0.959 . S
C2401 H2408 0.961 . S
C2401 H2409 0.960 . S
C2402 C2400 1.381 . S
C2402 C2403 1.394 . S
C2402 H2410 0.930 . S
C2403 C2402 1.394 . S
C2403 C2404 1.383 . S
C2403 H2411 0.929 . S
C2404 C2403 1.383 . S
C2404 C2405 1.377 . S
C2405 H2389 0.930 . S
C2405 C2404 1.377 . S
C2405 C2406 1.379 . S
C2406 H2390 0.931 . S
C2406 C2400 1.383 . S
C2406 C2405 1.379 . S
H2407 C2401 0.959 . S
H2408 C2401 0.961 . S
H2409 C2401 0.960 . S
H2410 C2402 0.930 . S
H2411 C2403 0.929 . S
H2412 C2420 0.929 . S
H2413 C2422 0.930 . S
H2414 C2424 0.930 . S
H2415 C2427 0.929 . S
H2416 C2430 0.930 . S
H2417 C2432 0.960 . S
H2418 C2432 0.960 . S
H2419 C2432 0.960 . S
C2420 H2412 0.929 . S
C2420 C2421 1.377 . S
C2420 C2422 1.384 . S
C2421 C2420 1.377 . S
C2421 C2427 1.390 . S
C2422 H2413 0.930 . S
C2422 C2420 1.384 . S
C2422 C2423 1.372 . S
C2423 C2422 1.372 . S
C2423 C2424 1.400 . S
C2423 C2428 1.490 . S
C2424 H2414 0.930 . S
C2424 C2423 1.400 . S
C2424 C2427 1.386 . S
H2425 C2441 0.930 . S
H2426 C2442 0.931 . S
C2427 H2415 0.929 . S
C2427 C2421 1.390 . S
C2427 C2424 1.386 . S
C2428 C2423 1.490 . S
C2428 C2430 1.395 . S
C2428 C2431 1.403 . S
H2429 C2435 0.930 . S
C2430 H2416 0.930 . S
C2430 C2428 1.395 . S
C2430 C2433 1.403 1_655 S
C2431 C2428 1.403 . S
C2431 C2432 1.524 . S
C2431 C2435 1.400 . S
C2432 H2417 0.960 . S
C2432 H2418 0.960 . S
C2432 H2419 0.960 . S
C2432 C2431 1.524 . S
C2433 C2430 1.403 1_455 S
C2433 C2434 1.392 . S
C2433 C2437 1.495 . S
C2434 C2433 1.392 . S
C2434 C2435 1.385 1_455 S
C2434 C2436 1.478 . S
C2435 H2429 0.930 . S
C2435 C2431 1.400 . S
C2435 C2434 1.385 1_655 S
C2436 C2434 1.478 . S
C2436 C2438 1.381 . S
C2436 C2442 1.383 . S
C2437 C2433 1.495 . S
C2437 H2443 0.959 . S
C2437 H2444 0.961 . S
C2437 H2445 0.960 . S
C2438 C2436 1.381 . S
C2438 C2439 1.394 . S
C2438 H2446 0.930 . S
C2439 C2438 1.394 . S
C2439 C2440 1.383 . S
C2439 H2447 0.929 . S
C2440 C2439 1.383 . S
C2440 C2441 1.377 . S
C2441 H2425 0.930 . S
C2441 C2440 1.377 . S
C2441 C2442 1.379 . S
C2442 H2426 0.931 . S
C2442 C2436 1.383 . S
C2442 C2441 1.379 . S
H2443 C2437 0.959 . S
H2444 C2437 0.961 . S
H2445 C2437 0.960 . S
H2446 C2438 0.930 . S
H2447 C2439 0.929 . S
H2448 C2456 0.929 . S
H2449 C2458 0.930 . S
H2450 C2460 0.930 . S
H2451 C2463 0.929 . S
H2452 C2466 0.930 . S
H2453 C2468 0.960 . S
H2454 C2468 0.960 . S
H2455 C2468 0.960 . S
C2456 H2448 0.929 . S
C2456 C2457 1.377 . S
C2456 C2458 1.384 . S
C2457 C2456 1.377 . S
C2457 C2463 1.390 . S
C2458 H2449 0.930 . S
C2458 C2456 1.384 . S
C2458 C2459 1.372 . S
C2459 C2458 1.372 . S
C2459 C2460 1.400 . S
C2459 C2464 1.490 . S
C2460 H2450 0.930 . S
C2460 C2459 1.400 . S
C2460 C2463 1.386 . S
H2461 C2477 0.930 . S
H2462 C2478 0.931 . S
C2463 H2451 0.929 . S
C2463 C2457 1.390 . S
C2463 C2460 1.386 . S
C2464 C2459 1.490 . S
C2464 C2466 1.395 . S
C2464 C2467 1.403 . S
H2465 C2471 0.930 . S
C2466 H2452 0.930 . S
C2466 C2464 1.395 . S
C2466 C2469 1.403 . S
C2467 C2464 1.403 . S
C2467 C2468 1.524 . S
C2467 C2471 1.400 . S
C2468 H2453 0.960 . S
C2468 H2454 0.960 . S
C2468 H2455 0.960 . S
C2468 C2467 1.524 . S
C2469 C2466 1.403 . S
C2469 C2470 1.392 . S
C2469 C2473 1.495 . S
C2470 C2469 1.392 . S
C2470 C2471 1.385 . S
C2470 C2472 1.478 . S
C2471 H2465 0.930 . S
C2471 C2467 1.400 . S
C2471 C2470 1.385 . S
C2472 C2470 1.478 . S
C2472 C2474 1.381 . S
C2472 C2478 1.383 . S
C2473 C2469 1.495 . S
C2473 H2479 0.959 . S
C2473 H2480 0.961 . S
C2473 H2481 0.960 . S
C2474 C2472 1.381 . S
C2474 C2475 1.394 1_565 S
C2474 H2482 0.930 . S
C2475 C2474 1.394 1_545 S
C2475 C2476 1.383 . S
C2475 H2483 0.929 . S
C2476 C2475 1.383 . S
C2476 C2477 1.377 1_545 S
C2477 H2461 0.930 . S
C2477 C2476 1.377 1_565 S
C2477 C2478 1.379 . S
C2478 H2462 0.931 . S
C2478 C2472 1.383 . S
C2478 C2477 1.379 . S
H2479 C2473 0.959 . S
H2480 C2473 0.961 . S
H2481 C2473 0.960 . S
H2482 C2474 0.930 . S
H2483 C2475 0.929 . S
H2484 C2492 0.929 . S
H2485 C2494 0.930 . S
H2486 C2496 0.930 . S
H2487 C2499 0.929 . S
H2488 C2502 0.930 . S
H2489 C2504 0.960 . S
H2490 C2504 0.960 . S
H2491 C2504 0.960 . S
C2492 H2484 0.929 . S
C2492 C2493 1.377 . S
C2492 C2494 1.384 . S
C2493 C2492 1.377 . S
C2493 C2499 1.390 . S
C2494 H2485 0.930 . S
C2494 C2492 1.384 . S
C2494 C2495 1.372 . S
C2495 C2494 1.372 . S
C2495 C2496 1.400 . S
C2495 C2500 1.490 1_545 S
C2496 H2486 0.930 . S
C2496 C2495 1.400 . S
C2496 C2499 1.386 . S
H2497 C2513 0.930 . S
H2498 C2514 0.931 . S
C2499 H2487 0.929 . S
C2499 C2493 1.390 . S
C2499 C2496 1.386 . S
C2500 C2495 1.490 1_565 S
C2500 C2502 1.395 . S
C2500 C2503 1.403 1_565 S
H2501 C2507 0.930 . S
C2502 H2488 0.930 . S
C2502 C2500 1.395 . S
C2502 C2505 1.403 . S
C2503 C2500 1.403 1_545 S
C2503 C2504 1.524 . S
C2503 C2507 1.400 1_545 S
C2504 H2489 0.960 . S
C2504 H2490 0.960 . S
C2504 H2491 0.960 . S
C2504 C2503 1.524 . S
C2505 C2502 1.403 . S
C2505 C2506 1.392 . S
C2505 C2509 1.495 . S
C2506 C2505 1.392 . S
C2506 C2507 1.385 . S
C2506 C2508 1.478 . S
C2507 H2501 0.930 . S
C2507 C2503 1.400 1_565 S
C2507 C2506 1.385 . S
C2508 C2506 1.478 . S
C2508 C2510 1.381 . S
C2508 C2514 1.383 . S
C2509 C2505 1.495 . S
C2509 H2515 0.959 . S
C2509 H2516 0.961 . S
C2509 H2517 0.960 . S
C2510 C2508 1.381 . S
C2510 C2511 1.394 . S
C2510 H2518 0.930 . S
C2511 C2510 1.394 . S
C2511 C2512 1.383 . S
C2511 H2519 0.929 . S
C2512 C2511 1.383 . S
C2512 C2513 1.377 . S
C2513 H2497 0.930 . S
C2513 C2512 1.377 . S
C2513 C2514 1.379 . S
C2514 H2498 0.931 . S
C2514 C2508 1.383 . S
C2514 C2513 1.379 . S
H2515 C2509 0.959 . S
H2516 C2509 0.961 . S
H2517 C2509 0.960 . S
H2518 C2510 0.930 . S
H2519 C2511 0.929 . S
H2520 C2528 0.929 . S
H2521 C2530 0.930 . S
H2522 C2532 0.930 . S
H2523 C2535 0.929 . S
H2524 C2538 0.930 . S
H2525 C2540 0.960 . S
H2526 C2540 0.960 . S
H2527 C2540 0.960 . S
C2528 H2520 0.929 . S
C2528 C2529 1.377 . S
C2528 C2530 1.384 . S
C2529 C2528 1.377 . S
C2529 C2535 1.390 . S
C2530 H2521 0.930 . S
C2530 C2528 1.384 . S
C2530 C2531 1.372 . S
C2531 C2530 1.372 . S
C2531 C2532 1.400 . S
C2531 C2536 1.490 . S
C2532 H2522 0.930 . S
C2532 C2531 1.400 . S
C2532 C2535 1.386 . S
H2533 C2549 0.930 . S
H2534 C2550 0.931 1_455 S
C2535 H2523 0.929 . S
C2535 C2529 1.390 . S
C2535 C2532 1.386 . S
C2536 C2531 1.490 . S
C2536 C2538 1.395 . S
C2536 C2539 1.403 . S
H2537 C2543 0.930 . S
C2538 H2524 0.930 . S
C2538 C2536 1.395 . S
C2538 C2541 1.403 . S
C2539 C2536 1.403 . S
C2539 C2540 1.524 . S
C2539 C2543 1.400 . S
C2540 H2525 0.960 . S
C2540 H2526 0.960 . S
C2540 H2527 0.960 . S
C2540 C2539 1.524 . S
C2541 C2538 1.403 . S
C2541 C2542 1.392 . S
C2541 C2545 1.495 1_455 S
C2542 C2541 1.392 . S
C2542 C2543 1.385 . S
C2542 C2544 1.478 1_455 S
C2543 H2537 0.930 . S
C2543 C2539 1.400 . S
C2543 C2542 1.385 . S
C2544 C2542 1.478 1_655 S
C2544 C2546 1.381 . S
C2544 C2550 1.383 . S
C2545 C2541 1.495 1_655 S
C2545 H2551 0.959 . S
C2545 H2552 0.961 . S
C2545 H2553 0.960 . S
C2546 C2544 1.381 . S
C2546 C2547 1.394 . S
C2546 H2554 0.930 . S
C2547 C2546 1.394 . S
C2547 C2548 1.383 . S
C2547 H2555 0.929 . S
C2548 C2547 1.383 . S
C2548 C2549 1.377 . S
C2549 H2533 0.930 . S
C2549 C2548 1.377 . S
C2549 C2550 1.379 . S
C2550 H2534 0.931 1_655 S
C2550 C2544 1.383 . S
C2550 C2549 1.379 . S
H2551 C2545 0.959 . S
H2552 C2545 0.961 . S
H2553 C2545 0.960 . S
H2554 C2546 0.930 . S
H2555 C2547 0.929 . S
H2556 C2564 0.929 . S
H2557 C2566 0.930 . S
H2558 C2568 0.930 . S
H2559 C2571 0.929 . S
H2560 C2574 0.930 . S
H2561 C2576 0.960 . S
H2562 C2576 0.960 . S
H2563 C2576 0.960 . S
C2564 H2556 0.929 . S
C2564 C2565 1.377 . S
C2564 C2566 1.384 . S
C2565 C2564 1.377 . S
C2565 C2571 1.390 . S
C2566 H2557 0.930 . S
C2566 C2564 1.384 . S
C2566 C2567 1.372 . S
C2567 C2566 1.372 . S
C2567 C2568 1.400 . S
C2567 C2572 1.490 . S
C2568 H2558 0.930 . S
C2568 C2567 1.400 . S
C2568 C2571 1.386 . S
H2569 C2585 0.930 . S
H2570 C2586 0.931 . S
C2571 H2559 0.929 . S
C2571 C2565 1.390 . S
C2571 C2568 1.386 . S
C2572 C2567 1.490 . S
C2572 C2574 1.395 . S
C2572 C2575 1.403 . S
H2573 C2579 0.930 . S
C2574 H2560 0.930 . S
C2574 C2572 1.395 . S
C2574 C2577 1.403 . S
C2575 C2572 1.403 . S
C2575 C2576 1.524 . S
C2575 C2579 1.400 . S
C2576 H2561 0.960 . S
C2576 H2562 0.960 . S
C2576 H2563 0.960 . S
C2576 C2575 1.524 . S
C2577 C2574 1.403 . S
C2577 C2578 1.392 . S
C2577 C2581 1.495 . S
C2578 C2577 1.392 . S
C2578 C2579 1.385 . S
C2578 C2580 1.478 . S
C2579 H2573 0.930 . S
C2579 C2575 1.400 . S
C2579 C2578 1.385 . S
C2580 C2578 1.478 . S
C2580 C2582 1.381 . S
C2580 C2586 1.383 . S
C2581 C2577 1.495 . S
C2581 H2587 0.959 . S
C2581 H2588 0.961 . S
C2581 H2589 0.960 . S
C2582 C2580 1.381 . S
C2582 C2583 1.394 . S
C2582 H2590 0.930 . S
C2583 C2582 1.394 . S
C2583 C2584 1.383 . S
C2583 H2591 0.929 . S
C2584 C2583 1.383 . S
C2584 C2585 1.377 . S
C2585 H2569 0.930 . S
C2585 C2584 1.377 . S
C2585 C2586 1.379 . S
C2586 H2570 0.931 . S
C2586 C2580 1.383 . S
C2586 C2585 1.379 . S
H2587 C2581 0.959 . S
H2588 C2581 0.961 . S
H2589 C2581 0.960 . S
H2590 C2582 0.930 . S
H2591 C2583 0.929 . S
H2592 C2600 0.929 . S
H2593 C2602 0.930 . S
H2594 C2604 0.930 . S
H2595 C2607 0.929 . S
H2596 C2610 0.930 . S
H2597 C2612 0.960 . S
H2598 C2612 0.960 . S
H2599 C2612 0.960 . S
C2600 H2592 0.929 . S
C2600 C2601 1.377 . S
C2600 C2602 1.384 . S
C2601 C2600 1.377 . S
C2601 C2607 1.390 . S
C2602 H2593 0.930 . S
C2602 C2600 1.384 . S
C2602 C2603 1.372 . S
C2603 C2602 1.372 . S
C2603 C2604 1.400 . S
C2603 C2608 1.490 . S
C2604 H2594 0.930 . S
C2604 C2603 1.400 . S
C2604 C2607 1.386 . S
H2605 C2621 0.930 . S
H2606 C2622 0.931 . S
C2607 H2595 0.929 . S
C2607 C2601 1.390 . S
C2607 C2604 1.386 . S
C2608 C2603 1.490 . S
C2608 C2610 1.395 . S
C2608 C2611 1.403 . S
H2609 C2615 0.930 . S
C2610 H2596 0.930 . S
C2610 C2608 1.395 . S
C2610 C2613 1.403 . S
C2611 C2608 1.403 . S
C2611 C2612 1.524 . S
C2611 C2615 1.400 . S
C2612 H2597 0.960 . S
C2612 H2598 0.960 . S
C2612 H2599 0.960 . S
C2612 C2611 1.524 . S
C2613 C2610 1.403 . S
C2613 C2614 1.392 . S
C2613 C2617 1.495 . S
C2614 C2613 1.392 . S
C2614 C2615 1.385 . S
C2614 C2616 1.478 . S
C2615 H2609 0.930 . S
C2615 C2611 1.400 . S
C2615 C2614 1.385 . S
C2616 C2614 1.478 . S
C2616 C2618 1.381 . S
C2616 C2622 1.383 . S
C2617 C2613 1.495 . S
C2617 H2623 0.959 . S
C2617 H2624 0.961 . S
C2617 H2625 0.960 . S
C2618 C2616 1.381 . S
C2618 C2619 1.394 . S
C2618 H2626 0.930 . S
C2619 C2618 1.394 . S
C2619 C2620 1.383 . S
C2619 H2627 0.929 . S
C2620 C2619 1.383 . S
C2620 C2621 1.377 . S
C2621 H2605 0.930 . S
C2621 C2620 1.377 . S
C2621 C2622 1.379 . S
C2622 H2606 0.931 . S
C2622 C2616 1.383 . S
C2622 C2621 1.379 . S
H2623 C2617 0.959 . S
H2624 C2617 0.961 . S
H2625 C2617 0.960 . S
H2626 C2618 0.930 . S
H2627 C2619 0.929 . S
H2628 C2636 0.929 . S
H2629 C2638 0.930 . S
H2630 C2640 0.930 . S
H2631 C2643 0.929 . S
H2632 C2646 0.930 . S
H2633 C2648 0.960 . S
H2634 C2648 0.960 . S
H2635 C2648 0.960 . S
C2636 H2628 0.929 . S
C2636 C2637 1.377 . S
C2636 C2638 1.384 . S
C2637 C2636 1.377 . S
C2637 C2643 1.390 . S
C2638 H2629 0.930 . S
C2638 C2636 1.384 . S
C2638 C2639 1.372 . S
C2639 C2638 1.372 . S
C2639 C2640 1.400 . S
C2639 C2644 1.490 . S
C2640 H2630 0.930 . S
C2640 C2639 1.400 . S
C2640 C2643 1.386 . S
H2641 C2657 0.930 . S
H2642 C2658 0.931 . S
C2643 H2631 0.929 . S
C2643 C2637 1.390 . S
C2643 C2640 1.386 . S
C2644 C2639 1.490 . S
C2644 C2646 1.395 . S
C2644 C2647 1.403 . S
H2645 C2651 0.930 . S
C2646 H2632 0.930 . S
C2646 C2644 1.395 . S
C2646 C2649 1.403 . S
C2647 C2644 1.403 . S
C2647 C2648 1.524 . S
C2647 C2651 1.400 . S
C2648 H2633 0.960 . S
C2648 H2634 0.960 . S
C2648 H2635 0.960 . S
C2648 C2647 1.524 . S
C2649 C2646 1.403 . S
C2649 C2650 1.392 . S
C2649 C2653 1.495 . S
C2650 C2649 1.392 . S
C2650 C2651 1.385 . S
C2650 C2652 1.478 . S
C2651 H2645 0.930 . S
C2651 C2647 1.400 . S
C2651 C2650 1.385 . S
C2652 C2650 1.478 . S
C2652 C2654 1.381 . S
C2652 C2658 1.383 . S
C2653 C2649 1.495 . S
C2653 H2659 0.959 . S
C2653 H2660 0.961 . S
C2653 H2661 0.960 . S
C2654 C2652 1.381 . S
C2654 C2655 1.394 . S
C2654 H2662 0.930 . S
C2655 C2654 1.394 . S
C2655 C2656 1.383 . S
C2655 H2663 0.929 . S
C2656 C2655 1.383 . S
C2656 C2657 1.377 . S
C2657 H2641 0.930 . S
C2657 C2656 1.377 . S
C2657 C2658 1.379 . S
C2658 H2642 0.931 . S
C2658 C2652 1.383 . S
C2658 C2657 1.379 . S
H2659 C2653 0.959 . S
H2660 C2653 0.961 . S
H2661 C2653 0.960 . S
H2662 C2654 0.930 . S
H2663 C2655 0.929 . S
C729 C12 1.127 . S
C748 C109 1.131 . S
C765 C29 1.129 . S
C784 C52 1.113 . S
C801 C69 1.129 . S
C820 C92 1.112 . S
C837 C132 1.126 . S
C856 C189 1.124 . S
C873 C229 1.131 . S
C892 C172 1.118 . S
C909 C212 1.124 . S
C928 C149 1.133 . S
C945 C349 1.129 . S
C964 C252 1.122 . S
C981 C269 1.129 . S
C1000 C292 1.118 . S
C1017 C332 1.124 . S
C1036 C309 1.122 . S
C1053 C429 1.130 . S
C1072 C372 1.107 . S
C1089 C412 1.121 . S
C1108 C469 1.125 . S
C1125 C389 1.129 . S
C1144 C452 1.114 . S
C1161 C492 1.123 . S
C1180 C589 1.133 . S
C1197 C509 1.130 . S
C1216 C532 1.135 . S
C1233 C549 1.131 . S
C1252 C572 1.120 . S
C1269 C669 1.129 . S
C1288 C612 1.117 . S
C1305 C709 1.130 . S
C1324 C652 1.137 . S
C1341 C629 1.130 . S
C1360 C692 1.137 . S
C1377 C2 1.757 . S
C1396 C202 1.742 . S
C1413 C122 1.757 . S
C1432 C42 1.757 . S
C1449 C162 1.758 . S
C1468 C82 1.731 . S
C1485 C242 1.757 . S
C1504 C442 1.734 . S
C1521 C282 1.760 . S
C1540 C362 1.731 . S
C1557 C402 1.765 . S
C1576 C322 1.746 . S
C1593 C482 1.765 . S
C1612 C682 1.748 . S
C1629 C602 1.764 . S
C1648 C522 1.785 . S
C1665 C642 1.762 . S
C1684 C562 1.782 . S
C1701 C417 2.224 . S
C1720 C17 2.216 1_565 S
C1737 C57 2.223 . S
C1756 C457 2.222 . S
C1773 C377 2.223 . S
C1792 C97 2.215 . S
C1809 C137 2.224 1_655 S
C1828 C577 2.219 . S
C1845 C177 2.223 . S
C1864 C497 2.221 . S
C1881 C537 2.224 . S
C1900 C217 2.217 . S
C1917 C657 2.224 . S
C1936 C257 2.217 . S
C1953 C297 2.224 . S
C1972 C697 2.220 . S
C1989 C337 2.224 . S
C2008 C617 2.218 . S
C2025 C88 1.746 . S
C2044 C31 1.773 . S
C2061 C8 1.742 . S
C2080 C71 1.768 . S
C2097 C111 1.778 . S
C2116 C48 1.755 . S
C2133 C168 1.741 . S
C2152 C151 1.768 . S
C2169 C208 1.740 . S
C2188 C191 1.768 . S
C2205 C231 1.777 . S
C2224 C128 1.723 . S
C2241 C328 1.744 . S
C2260 C271 1.779 . S
C2277 C311 1.778 . S
C2296 C248 1.756 . S
C2313 C288 1.743 . S
C2332 C351 1.779 . S
C2349 C391 1.778 . S
C2368 C408 1.756 . S
C2385 C431 1.777 . S
C2404 C448 1.722 . S
C2421 C368 1.740 1_545 S
C2440 C471 1.769 . S
C2457 C511 1.776 . S
C2476 C568 1.737 . S
C2493 C551 1.777 . S
C2512 C488 1.721 1_455 S
C2529 C528 1.742 . S
C2548 C591 1.768 . S
C2565 C631 1.777 . S
C2584 C648 1.721 . S
C2601 C671 1.778 . S
C2620 C688 1.726 . S
C2637 C608 1.742 . S
C2656 C711 1.779 . S
