# Generated by pormake.
# Topology qtz-e, (6)-cn, num edge types: 1
# Building blocks:
#     Node 0, Type 0, BuildingBlock: GEDQOX_clean_sbu_0, # of connection points: 6
#     Node 1, Type 0, BuildingBlock: GEDQOX_clean_sbu_0, # of connection points: 6
#     Node 2, Type 0, BuildingBlock: GEDQOX_clean_sbu_0, # of connection points: 6
#     Node 3, Type 0, BuildingBlock: GEDQOX_clean_sbu_0, # of connection points: 6
#     Node 4, Type 0, BuildingBlock: GEDQOX_clean_sbu_0, # of connection points: 6
#     Node 5, Type 0, BuildingBlock: GEDQOX_clean_sbu_0, # of connection points: 6
#     Edge 6, Type (0, 0), None
#     Edge 7, Type (0, 0), None
#     Edge 8, Type (0, 0), None
#     Edge 9, Type (0, 0), None
#     Edge 10, Type (0, 0), None
#     Edge 11, Type (0, 0), None
#     Edge 12, Type (0, 0), None
#     Edge 13, Type (0, 0), None
#     Edge 14, Type (0, 0), None
#     Edge 15, Type (0, 0), None
#     Edge 16, Type (0, 0), None
#     Edge 17, Type (0, 0), None
#     Edge 18, Type (0, 0), None
#     Edge 19, Type (0, 0), None
#     Edge 20, Type (0, 0), None
#     Edge 21, Type (0, 0), None
#     Edge 22, Type (0, 0), None
#     Edge 23, Type (0, 0), None
# Relax obj value: 0.081
# Max RMSD: 0.189
# Mean RMSD: 0.189
data_MOF--net-qtz-e--node1-GEDQOX_clean_sbu_0--edge1-none
_symmetry_space_group_name_H-M    P1
_symmetry_Int_Tables_number       1
_symmetry_cell_setting            triclinic
loop_
_symmetry_equiv_pos_as_xyz
'x, y, z'
_cell_length_a     12.438361
_cell_length_b     12.440126
_cell_length_c     30.442786
_cell_angle_alpha  90.003297
_cell_angle_beta   89.995757
_cell_angle_gamma 120.00175
loop_
_atom_site_label
_atom_site_type_symbol
_atom_site_fract_x
_atom_site_fract_y
_atom_site_fract_z
_atom_type_partial_charge
Nd0 Nd 0.18153 0.36749 0.13101 0.0
Nd1 Nd 0.31955 0.60404 0.08404 0.0
C2 C 0.04412 0.1802 0.18454 0.0
C3 C 0.98998 0.17658 0.22878 0.0
C4 C 0.89621 0.20722 0.23411 0.0
C5 C 0.85395 0.21433 0.27608 0.0
C6 C 0.9032 0.19035 0.31407 0.0
C7 C 0.99435 0.15614 0.30891 0.0
C8 C 0.03826 0.15088 0.26677 0.0
C9 C 0.43775 0.46983 0.13021 0.0
C10 C 0.28152 0.60107 0.18721 0.0
C11 C 0.45529 0.8033 1.03811 0.0
C12 C 0.4593 0.79205 0.98972 0.0
C13 C 0.5064 0.71933 0.97224 0.0
C14 C 0.48261 0.67872 0.92901 0.0
C15 C 0.41334 0.71152 0.9012 0.0
C16 C 0.36922 0.78774 0.91784 0.0
C17 C 0.39151 0.82718 0.96187 0.0
C18 C 0.06875 0.51283 0.0828 0.0
C19 C 0.21116 0.35242 1.02484 0.0
O20 O 0.99797 0.20753 0.15036 0.0
O21 O 0.16504 0.23481 0.18301 0.0
O22 O 0.37018 0.42731 0.16509 0.0
O23 O 0.37141 0.45982 0.09765 0.0
O24 O 0.17426 0.51317 0.17306 0.0
O25 O 0.37067 0.65505 0.15782 0.0
O26 O 0.5052 0.75035 0.06111 0.0
O27 O 0.3478 0.77938 1.05389 0.0
O28 O 0.13844 0.55174 1.04841 0.0
O29 O 0.12909 0.51509 0.11649 0.0
O30 O 0.29548 0.47123 1.02788 0.0
O31 O 0.14579 0.28906 0.05966 0.0
H32 H 0.85709 0.22863 0.20593 0.0
H33 H 0.78242 0.23932 0.27883 0.0
H34 H 0.03488 0.13793 0.33742 0.0
H35 H 0.11185 0.12875 0.26391 0.0
H36 H 0.5573 0.68824 0.99243 0.0
H37 H 0.5196 0.62139 0.91734 0.0
H38 H 0.31882 0.8177 0.89687 0.0
H39 H 0.35247 0.88169 0.97453 0.0
Nd40 Nd 0.81812 0.17956 0.46435 0.0
Nd41 Nd 0.71951 0.31748 0.41738 0.0
C42 C 0.86806 0.04221 0.51789 0.0
C43 C 0.81753 0.98805 0.56212 0.0
C44 C 0.69311 0.89429 0.56744 0.0
C45 C 0.64373 0.852 0.60941 0.0
C46 C 0.71696 0.90122 0.6474 0.0
C47 C 0.84233 0.99237 0.64225 0.0
C48 C 0.89151 0.0363 0.60011 0.0
C49 C 0.97196 0.43574 0.46354 0.0
C50 C 0.68445 0.2795 0.52055 0.0
C51 C 0.65593 0.45316 0.37144 0.0
C52 C 0.67121 0.45719 0.32305 0.0
C53 C 0.79105 0.50426 0.30558 0.0
C54 C 0.80789 0.48051 0.26235 0.0
C55 C 0.70583 0.41133 0.23452 0.0
C56 C 0.58547 0.36724 0.25116 0.0
C57 C 0.56831 0.38949 0.29519 0.0
C58 C 0.55997 0.06671 0.41614 0.0
C59 C 0.86282 0.20915 0.35818 0.0
O60 O 0.79459 0.99604 0.48369 0.0
O61 O 0.93432 0.16311 0.51636 0.0
O62 O 0.94692 0.3682 0.49843 0.0
O63 O 0.91563 0.3694 0.43098 0.0
O64 O 0.66512 0.17226 0.5064 0.0
O65 O 0.71961 0.36862 0.49116 0.0
O66 O 0.75878 0.50309 0.39445 0.0
O67 O 0.57238 0.34567 0.38721 0.0
O68 O 0.59073 0.13637 0.38175 0.0
O69 O 0.61804 0.12706 0.44983 0.0
O70 O 0.82829 0.29344 0.36122 0.0
O71 O 0.86082 0.14381 0.39301 0.0
H72 H 0.63258 0.85518 0.53926 0.0
H73 H 0.54721 0.78048 0.61215 0.0
H74 H 0.90107 0.03289 0.67076 0.0
H75 H 0.98724 0.10989 0.59725 0.0
H76 H 0.87305 0.5551 0.32578 0.0
H77 H 0.90222 0.51748 0.25068 0.0
H78 H 0.50512 0.31691 0.23018 0.0
H79 H 0.47473 0.35047 0.30785 0.0
Nd80 Nd 0.6427 0.81615 0.79768 0.0
Nd81 Nd 0.40612 0.71755 0.75071 0.0
C82 C 0.83002 0.86607 0.85121 0.0
C83 C 0.83363 0.81553 0.89544 0.0
C84 C 0.80295 0.69112 0.90075 0.0
C85 C 0.79584 0.64175 0.94273 0.0
C86 C 0.81986 0.71497 0.98072 0.0
C87 C 0.85409 0.84033 0.97557 0.0
C88 C 0.85936 0.88951 0.93343 0.0
C89 C 0.54034 0.96999 0.79687 0.0
C90 C 0.4091 0.68255 0.85387 0.0
C91 C 0.20683 0.65399 0.70478 0.0
C92 C 0.21807 0.66925 0.65639 0.0
C93 C 0.29084 0.78907 0.63892 0.0
C94 C 0.33142 0.80589 0.59569 0.0
C95 C 0.29856 0.70383 0.56786 0.0
C96 C 0.22231 0.5835 0.5845 0.0
C97 C 0.18289 0.56635 0.62853 0.0
C98 C 0.49735 0.558 0.74947 0.0
C99 C 0.65778 0.86082 0.69151 0.0
O100 O 0.8027 0.7926 0.81701 0.0
O101 O 0.77539 0.93234 0.84968 0.0
O102 O 0.58286 0.94496 0.83176 0.0
O103 O 0.55034 0.91365 0.76432 0.0
O104 O 0.49704 0.66322 0.83975 0.0
O105 O 0.35506 0.71766 0.82449 0.0
O106 O 0.25977 0.75683 0.72779 0.0
O107 O 0.23077 0.57044 0.72055 0.0
O108 O 0.45843 0.58876 0.71508 0.0
O109 O 0.49509 0.61609 0.78316 0.0
O110 O 0.53894 0.8263 0.69456 0.0
O111 O 0.72114 0.85883 0.72634 0.0
H112 H 0.78153 0.6306 0.87258 0.0
H113 H 0.77084 0.54524 0.94546 0.0
H114 H 0.87232 0.89906 1.00408 0.0
H115 H 0.88151 0.98522 0.93058 0.0
H116 H 0.32197 0.87106 0.65912 0.0
H117 H 0.38878 0.90021 0.58402 0.0
H118 H 0.1923 0.50315 0.56352 0.0
H119 H 0.12834 0.47279 0.64119 0.0
Nd120 Nd 0.83069 0.64074 0.131 0.0
Nd121 Nd 0.69261 0.40416 0.08403 0.0
C122 C 0.96816 0.82804 0.18452 0.0
C123 C 0.02227 0.83162 0.22876 0.0
C124 C 0.11594 0.80084 0.23409 0.0
C125 C 0.15817 0.79371 0.27606 0.0
C126 C 0.10898 0.8178 0.31405 0.0
C127 C 0.01792 0.85212 0.30888 0.0
C128 C 0.97405 0.85742 0.26674 0.0
C129 C 0.57447 0.53839 0.13021 0.0
C130 C 0.73058 0.40715 0.1872 0.0
C131 C 0.55683 0.20491 1.0381 0.0
C132 C 0.55284 0.21615 0.9897 0.0
C133 C 0.50582 0.28895 0.97223 0.0
C134 C 0.52962 0.32953 0.929 0.0
C135 C 0.59881 0.29664 0.90119 0.0
C136 C 0.64285 0.22036 0.91782 0.0
C137 C 0.62055 0.18094 0.96185 0.0
C138 C 0.94334 0.49519 0.0828 0.0
C139 C 0.80106 0.65579 1.02483 0.0
O140 O 0.0143 0.80065 0.15033 0.0
O141 O 0.84726 0.7735 0.18299 0.0
O142 O 0.64205 0.58102 0.16508 0.0
O143 O 0.64081 0.54841 0.09764 0.0
O144 O 0.83787 0.49509 0.17309 0.0
O145 O 0.64144 0.35314 0.15781 0.0
O146 O 0.50694 0.25788 0.0611 0.0
O147 O 0.66431 0.22881 1.05387 0.0
O148 O 0.87371 0.45643 1.04839 0.0
O149 O 0.88303 0.49305 0.11648 0.0
O150 O 0.71671 0.53698 1.02787 0.0
O151 O 0.86645 0.71914 0.05965 0.0
H152 H 0.15502 0.77936 0.20591 0.0
H153 H 0.22962 0.76862 0.27881 0.0
H154 H 0.97744 0.87042 0.33739 0.0
H155 H 0.90053 0.87965 0.26388 0.0
H156 H 0.45498 0.32011 0.99243 0.0
H157 H 0.49269 0.38691 0.91733 0.0
H158 H 0.69319 0.19033 0.89685 0.0
H159 H 0.65953 0.12637 0.97452 0.0
Nd160 Nd 0.19399 0.82864 0.46434 0.0
Nd161 Nd 0.29253 0.69058 0.41737 0.0
C162 C 0.14415 0.9661 0.51785 0.0
C163 C 0.19468 0.02022 0.56209 0.0
C164 C 0.31913 0.11392 0.56742 0.0
C165 C 0.36849 0.15616 0.60939 0.0
C166 C 0.29523 0.10697 0.64738 0.0
C167 C 0.16985 0.01587 0.64222 0.0
C168 C 0.12067 0.97199 0.60008 0.0
C169 C 0.04013 0.57246 0.46354 0.0
C170 C 0.3275 0.72857 0.52054 0.0
C171 C 0.35603 0.55481 0.37144 0.0
C172 C 0.34081 0.5508 0.32304 0.0
C173 C 0.22096 0.50363 0.30556 0.0
C174 C 0.20415 0.52741 0.26233 0.0
C175 C 0.30623 0.59673 0.23453 0.0
C176 C 0.42658 0.64091 0.25117 0.0
C177 C 0.44372 0.61862 0.2952 0.0
C178 C 0.45222 0.94128 0.41614 0.0
C179 C 0.14934 0.799 0.35816 0.0
O180 O 0.21767 0.01222 0.48367 0.0
O181 O 0.07779 0.84521 0.51632 0.0
O182 O 0.06507 0.64003 0.49842 0.0
O183 O 0.09645 0.63878 0.43098 0.0
O184 O 0.34685 0.83584 0.50642 0.0
O185 O 0.29239 0.63944 0.49115 0.0
O186 O 0.25316 0.50494 0.39444 0.0
O187 O 0.43962 0.66228 0.38722 0.0
O188 O 0.42137 0.87165 0.38174 0.0
O189 O 0.39406 0.88099 0.44983 0.0
O190 O 0.1838 0.71466 0.36121 0.0
O191 O 0.15136 0.86438 0.39298 0.0
H192 H 0.37968 0.153 0.53924 0.0
H193 H 0.46503 0.22763 0.61214 0.0
H194 H 0.11108 0.97538 0.67073 0.0
H195 H 0.02493 0.89845 0.59722 0.0
H196 H 0.13896 0.45269 0.32575 0.0
H197 H 0.10982 0.49038 0.25066 0.0
H198 H 0.50695 0.69137 0.23021 0.0
H199 H 0.53729 0.65771 0.30787 0.0
Nd200 Nd 0.36945 0.19203 0.79766 0.0
Nd201 Nd 0.60604 0.29057 0.7507 0.0
C202 C 0.18214 0.14217 0.8512 0.0
C203 C 0.17856 0.19269 0.89544 0.0
C204 C 0.20924 0.31711 0.90076 0.0
C205 C 0.21637 0.36647 0.94274 0.0
C206 C 0.19237 0.29325 0.98073 0.0
C207 C 0.15812 0.16789 0.97556 0.0
C208 C 0.15284 0.11871 0.93342 0.0
C209 C 0.47184 0.03821 0.79687 0.0
C210 C 0.60305 0.32558 0.85386 0.0
C211 C 0.80534 0.3541 0.70476 0.0
C212 C 0.79411 0.33885 0.65637 0.0
C213 C 0.72146 0.21902 0.6389 0.0
C214 C 0.68083 0.20217 0.59567 0.0
C215 C 0.71354 0.30422 0.56786 0.0
C216 C 0.78969 0.42457 0.5845 0.0
C217 C 0.82916 0.44174 0.62852 0.0
C218 C 0.51498 0.45023 0.74947 0.0
C219 C 0.3544 0.14734 0.69149 0.0
O220 O 0.2095 0.21566 0.81701 0.0
O221 O 0.23672 0.07584 0.84966 0.0
O222 O 0.4292 0.06316 0.83175 0.0
O223 O 0.46181 0.0945 0.76431 0.0
O224 O 0.51512 0.34492 0.83974 0.0
O225 O 0.65708 0.29046 0.82447 0.0
O226 O 0.75236 0.25124 0.72777 0.0
O227 O 0.78142 0.43766 0.72054 0.0
O228 O 0.55374 0.41936 0.71507 0.0
O229 O 0.51713 0.39209 0.78316 0.0
O230 O 0.47323 0.18183 0.69454 0.0
O231 O 0.29104 0.14936 0.72632 0.0
H232 H 0.23066 0.37763 0.87259 0.0
H233 H 0.24138 0.46299 0.94548 0.0
H234 H 0.13989 0.10914 1.00407 0.0
H235 H 0.13067 0.02299 0.93056 0.0
H236 H 0.69043 0.13704 0.65908 0.0
H237 H 0.62354 0.10785 0.58399 0.0
H238 H 0.81957 0.50492 0.56354 0.0
H239 H 0.88362 0.5353 0.64119 0.0
loop_
_geom_bond_atom_site_label_1
_geom_bond_atom_site_label_2
_geom_bond_distance
_geom_bond_site_symmetry_2
_ccdc_geom_bond_type
Nd0 C2 2.836 . S
Nd0 O20 2.500 1_455 S
Nd0 O21 2.492 . S
Nd0 O22 2.487 . S
Nd0 O23 2.682 . S
Nd0 O24 2.410 . S
Nd0 O29 2.414 . S
Nd0 O31 2.424 . S
Nd1 C11 2.836 1_554 S
Nd1 O23 2.414 . S
Nd1 O25 2.424 . S
Nd1 O26 2.500 1_554 S
Nd1 O27 2.492 1_554 S
Nd1 O28 2.487 . S
Nd1 O29 2.682 . S
Nd1 O30 2.410 1_554 S
C2 Nd0 2.836 . S
C2 C3 1.498 1_455 S
C2 O20 1.258 1_455 S
C2 O21 1.239 . S
C3 C2 1.498 1_655 S
C3 C4 1.366 . S
C3 C8 1.407 1_655 S
C4 C3 1.366 . S
C4 C5 1.392 . S
C4 H32 0.930 . S
C5 C4 1.392 . S
C5 C6 1.398 . S
C5 H33 0.929 . S
C6 C5 1.398 . S
C6 C7 1.352 . S
C7 C6 1.352 . S
C7 C8 1.384 1_655 S
C7 H34 0.930 1_645 S
C8 C3 1.407 1_455 S
C8 C7 1.384 1_455 S
C8 H35 0.929 . S
C9 O22 1.241 . S
C9 O23 1.273 . S
C10 O24 1.251 . S
C10 O25 1.268 . S
C11 Nd1 2.836 1_556 S
C11 C12 1.498 . S
C11 O26 1.258 . S
C11 O27 1.239 . S
C12 C11 1.498 . S
C12 C13 1.366 . S
C12 C17 1.407 . S
C13 C12 1.366 . S
C13 C14 1.392 . S
C13 H36 0.930 . S
C14 C13 1.392 . S
C14 C15 1.398 . S
C14 H37 0.929 . S
C15 C14 1.398 . S
C15 C16 1.352 . S
C16 C15 1.352 . S
C16 C17 1.384 . S
C16 H38 0.930 . S
C17 C12 1.407 . S
C17 C16 1.384 . S
C17 H39 0.929 . S
C18 O28 1.241 . S
C18 O29 1.273 . S
C19 O30 1.251 . S
C19 O31 1.268 1_556 S
O20 Nd0 2.500 1_655 S
O20 C2 1.258 1_655 S
O21 Nd0 2.492 . S
O21 C2 1.239 . S
O22 Nd0 2.487 . S
O22 C9 1.241 . S
O23 Nd0 2.682 . S
O23 Nd1 2.414 . S
O23 C9 1.273 . S
O24 Nd0 2.410 . S
O24 C10 1.251 . S
O25 Nd1 2.424 . S
O25 C10 1.268 . S
O26 Nd1 2.500 1_556 S
O26 C11 1.258 . S
O27 Nd1 2.492 1_556 S
O27 C11 1.239 . S
O28 Nd1 2.487 . S
O28 C18 1.241 . S
O29 Nd0 2.414 . S
O29 Nd1 2.682 . S
O29 C18 1.273 . S
O30 Nd1 2.410 1_556 S
O30 C19 1.251 . S
O31 Nd0 2.424 . S
O31 C19 1.268 1_554 S
H32 C4 0.930 . S
H33 C5 0.929 . S
H34 C7 0.930 1_465 S
H35 C8 0.929 . S
H36 C13 0.930 . S
H37 C14 0.929 . S
H38 C16 0.930 . S
H39 C17 0.929 . S
Nd40 C42 2.836 . S
Nd40 O60 2.500 1_545 S
Nd40 O61 2.492 . S
Nd40 O62 2.487 1_655 S
Nd40 O63 2.682 . S
Nd40 O64 2.410 . S
Nd40 O69 2.414 . S
Nd40 O71 2.424 . S
Nd41 C51 2.836 . S
Nd41 O63 2.414 . S
Nd41 O65 2.424 . S
Nd41 O66 2.500 . S
Nd41 O67 2.492 . S
Nd41 O68 2.487 . S
Nd41 O69 2.682 . S
Nd41 O70 2.410 . S
C42 Nd40 2.836 . S
C42 C43 1.498 1_545 S
C42 O60 1.258 1_545 S
C42 O61 1.239 . S
C43 C42 1.498 1_565 S
C43 C44 1.366 . S
C43 C48 1.407 1_565 S
C44 C43 1.366 . S
C44 C45 1.392 . S
C44 H72 0.930 . S
C45 C44 1.392 . S
C45 C46 1.398 . S
C45 H73 0.929 . S
C46 C45 1.398 . S
C46 C47 1.352 . S
C47 C46 1.352 . S
C47 C48 1.384 1_565 S
C47 H74 0.930 1_665 S
C48 C43 1.407 1_545 S
C48 C47 1.384 1_545 S
C48 H75 0.929 1_655 S
C49 O62 1.241 . S
C49 O63 1.273 1_455 S
C50 O64 1.251 . S
C50 O65 1.268 . S
C51 Nd41 2.836 . S
C51 C52 1.498 . S
C51 O66 1.258 . S
C51 O67 1.239 . S
C52 C51 1.498 . S
C52 C53 1.366 . S
C52 C57 1.407 . S
C53 C52 1.366 . S
C53 C54 1.392 . S
C53 H76 0.930 . S
C54 C53 1.392 . S
C54 C55 1.398 . S
C54 H77 0.929 . S
C55 C54 1.398 . S
C55 C56 1.352 . S
C56 C55 1.352 . S
C56 C57 1.384 . S
C56 H78 0.930 . S
C57 C52 1.407 . S
C57 C56 1.384 . S
C57 H79 0.929 . S
C58 O68 1.241 . S
C58 O69 1.273 . S
C59 O70 1.251 . S
C59 O71 1.268 . S
O60 Nd40 2.500 1_565 S
O60 C42 1.258 1_565 S
O61 Nd40 2.492 . S
O61 C42 1.239 . S
O62 Nd40 2.487 1_455 S
O62 C49 1.241 . S
O63 Nd40 2.682 . S
O63 Nd41 2.414 . S
O63 C49 1.273 1_655 S
O64 Nd40 2.410 . S
O64 C50 1.251 . S
O65 Nd41 2.424 . S
O65 C50 1.268 . S
O66 Nd41 2.500 . S
O66 C51 1.258 . S
O67 Nd41 2.492 . S
O67 C51 1.239 . S
O68 Nd41 2.487 . S
O68 C58 1.241 . S
O69 Nd40 2.414 . S
O69 Nd41 2.682 . S
O69 C58 1.273 . S
O70 Nd41 2.410 . S
O70 C59 1.251 . S
O71 Nd40 2.424 . S
O71 C59 1.268 . S
H72 C44 0.930 . S
H73 C45 0.929 . S
H74 C47 0.930 1_445 S
H75 C48 0.929 1_455 S
H76 C53 0.930 . S
H77 C54 0.929 . S
H78 C56 0.930 . S
H79 C57 0.929 . S
Nd80 C82 2.836 . S
Nd80 O100 2.500 . S
Nd80 O101 2.492 . S
Nd80 O102 2.487 1_565 S
Nd80 O103 2.682 . S
Nd80 O104 2.410 . S
Nd80 O109 2.414 . S
Nd80 O111 2.424 . S
Nd81 C91 2.836 . S
Nd81 O103 2.414 . S
Nd81 O105 2.424 . S
Nd81 O106 2.500 . S
Nd81 O107 2.492 . S
Nd81 O108 2.487 . S
Nd81 O109 2.682 . S
Nd81 O110 2.410 . S
C82 Nd80 2.836 . S
C82 C83 1.498 . S
C82 O100 1.258 . S
C82 O101 1.239 . S
C83 C82 1.498 . S
C83 C84 1.366 . S
C83 C88 1.407 . S
C84 C83 1.366 . S
C84 C85 1.392 . S
C84 H112 0.930 . S
C85 C84 1.392 . S
C85 C86 1.398 . S
C85 H113 0.929 . S
C86 C85 1.398 . S
C86 C87 1.352 . S
C87 C86 1.352 . S
C87 C88 1.384 . S
C87 H114 0.930 1_665 S
C88 C83 1.407 . S
C88 C87 1.384 . S
C88 H115 0.929 1_565 S
C89 O102 1.241 . S
C89 O103 1.273 1_545 S
C90 O104 1.251 . S
C90 O105 1.268 . S
C91 Nd81 2.836 . S
C91 C92 1.498 . S
C91 O106 1.258 . S
C91 O107 1.239 . S
C92 C91 1.498 . S
C92 C93 1.366 . S
C92 C97 1.407 . S
C93 C92 1.366 . S
C93 C94 1.392 . S
C93 H116 0.930 . S
C94 C93 1.392 . S
C94 C95 1.398 . S
C94 H117 0.929 . S
C95 C94 1.398 . S
C95 C96 1.352 . S
C96 C95 1.352 . S
C96 C97 1.384 . S
C96 H118 0.930 . S
C97 C92 1.407 . S
C97 C96 1.384 . S
C97 H119 0.929 . S
C98 O108 1.241 . S
C98 O109 1.273 . S
C99 O110 1.251 . S
C99 O111 1.268 . S
O100 Nd80 2.500 . S
O100 C82 1.258 . S
O101 Nd80 2.492 . S
O101 C82 1.239 . S
O102 Nd80 2.487 1_545 S
O102 C89 1.241 . S
O103 Nd80 2.682 . S
O103 Nd81 2.414 . S
O103 C89 1.273 1_565 S
O104 Nd80 2.410 . S
O104 C90 1.251 . S
O105 Nd81 2.424 . S
O105 C90 1.268 . S
O106 Nd81 2.500 . S
O106 C91 1.258 . S
O107 Nd81 2.492 . S
O107 C91 1.239 . S
O108 Nd81 2.487 . S
O108 C98 1.241 . S
O109 Nd80 2.414 . S
O109 Nd81 2.682 . S
O109 C98 1.273 . S
O110 Nd81 2.410 . S
O110 C99 1.251 . S
O111 Nd80 2.424 . S
O111 C99 1.268 . S
H112 C84 0.930 . S
H113 C85 0.929 . S
H114 C87 0.930 1_445 S
H115 C88 0.929 1_545 S
H116 C93 0.930 . S
H117 C94 0.929 . S
H118 C96 0.930 . S
H119 C97 0.929 . S
Nd120 C122 2.836 . S
Nd120 O140 2.500 1_655 S
Nd120 O141 2.492 . S
Nd120 O142 2.487 . S
Nd120 O143 2.682 . S
Nd120 O144 2.410 . S
Nd120 O149 2.414 . S
Nd120 O151 2.424 . S
Nd121 C131 2.836 1_554 S
Nd121 O143 2.414 . S
Nd121 O145 2.424 . S
Nd121 O146 2.500 1_554 S
Nd121 O147 2.492 1_554 S
Nd121 O148 2.487 . S
Nd121 O149 2.682 . S
Nd121 O150 2.410 1_554 S
C122 Nd120 2.836 . S
C122 C123 1.498 1_655 S
C122 O140 1.258 1_655 S
C122 O141 1.239 . S
C123 C122 1.498 1_455 S
C123 C124 1.366 . S
C123 C128 1.407 1_455 S
C124 C123 1.366 . S
C124 C125 1.392 . S
C124 H152 0.930 . S
C125 C124 1.392 . S
C125 C126 1.398 . S
C125 H153 0.929 . S
C126 C125 1.398 . S
C126 C127 1.352 . S
C127 C126 1.352 . S
C127 C128 1.384 1_455 S
C127 H154 0.930 1_465 S
C128 C123 1.407 1_655 S
C128 C127 1.384 1_655 S
C128 H155 0.929 . S
C129 O142 1.241 . S
C129 O143 1.273 . S
C130 O144 1.251 . S
C130 O145 1.268 . S
C131 Nd121 2.836 1_556 S
C131 C132 1.498 . S
C131 O146 1.258 . S
C131 O147 1.239 . S
C132 C131 1.498 . S
C132 C133 1.366 . S
C132 C137 1.407 . S
C133 C132 1.366 . S
C133 C134 1.392 . S
C133 H156 0.930 . S
C134 C133 1.392 . S
C134 C135 1.398 . S
C134 H157 0.929 . S
C135 C134 1.398 . S
C135 C136 1.352 . S
C136 C135 1.352 . S
C136 C137 1.384 . S
C136 H158 0.930 . S
C137 C132 1.407 . S
C137 C136 1.384 . S
C137 H159 0.929 . S
C138 O148 1.241 . S
C138 O149 1.273 . S
C139 O150 1.251 . S
C139 O151 1.268 1_556 S
O140 Nd120 2.500 1_455 S
O140 C122 1.258 1_455 S
O141 Nd120 2.492 . S
O141 C122 1.239 . S
O142 Nd120 2.487 . S
O142 C129 1.241 . S
O143 Nd120 2.682 . S
O143 Nd121 2.414 . S
O143 C129 1.273 . S
O144 Nd120 2.410 . S
O144 C130 1.251 . S
O145 Nd121 2.424 . S
O145 C130 1.268 . S
O146 Nd121 2.500 1_556 S
O146 C131 1.258 . S
O147 Nd121 2.492 1_556 S
O147 C131 1.239 . S
O148 Nd121 2.487 . S
O148 C138 1.241 . S
O149 Nd120 2.414 . S
O149 Nd121 2.682 . S
O149 C138 1.273 . S
O150 Nd121 2.410 1_556 S
O150 C139 1.251 . S
O151 Nd120 2.424 . S
O151 C139 1.268 1_554 S
H152 C124 0.930 . S
H153 C125 0.929 . S
H154 C127 0.930 1_645 S
H155 C128 0.929 . S
H156 C133 0.930 . S
H157 C134 0.929 . S
H158 C136 0.930 . S
H159 C137 0.929 . S
Nd160 C162 2.836 . S
Nd160 O180 2.500 1_565 S
Nd160 O181 2.492 . S
Nd160 O182 2.487 1_455 S
Nd160 O183 2.682 . S
Nd160 O184 2.410 . S
Nd160 O189 2.414 . S
Nd160 O191 2.424 . S
Nd161 C171 2.836 . S
Nd161 O183 2.414 . S
Nd161 O185 2.424 . S
Nd161 O186 2.500 . S
Nd161 O187 2.492 . S
Nd161 O188 2.487 . S
Nd161 O189 2.682 . S
Nd161 O190 2.410 . S
C162 Nd160 2.836 . S
C162 C163 1.498 1_565 S
C162 O180 1.258 1_565 S
C162 O181 1.239 . S
C163 C162 1.498 1_545 S
C163 C164 1.366 . S
C163 C168 1.407 1_545 S
C164 C163 1.366 . S
C164 C165 1.392 . S
C164 H192 0.930 . S
C165 C164 1.392 . S
C165 C166 1.398 . S
C165 H193 0.929 . S
C166 C165 1.398 . S
C166 C167 1.352 . S
C167 C166 1.352 . S
C167 C168 1.384 1_545 S
C167 H194 0.930 1_445 S
C168 C163 1.407 1_565 S
C168 C167 1.384 1_565 S
C168 H195 0.929 1_455 S
C169 O182 1.241 . S
C169 O183 1.273 1_655 S
C170 O184 1.251 . S
C170 O185 1.268 . S
C171 Nd161 2.836 . S
C171 C172 1.498 . S
C171 O186 1.258 . S
C171 O187 1.239 . S
C172 C171 1.498 . S
C172 C173 1.366 . S
C172 C177 1.407 . S
C173 C172 1.366 . S
C173 C174 1.392 . S
C173 H196 0.930 . S
C174 C173 1.392 . S
C174 C175 1.398 . S
C174 H197 0.929 . S
C175 C174 1.398 . S
C175 C176 1.352 . S
C176 C175 1.352 . S
C176 C177 1.384 . S
C176 H198 0.930 . S
C177 C172 1.407 . S
C177 C176 1.384 . S
C177 H199 0.929 . S
C178 O188 1.241 . S
C178 O189 1.273 . S
C179 O190 1.251 . S
C179 O191 1.268 . S
O180 Nd160 2.500 1_545 S
O180 C162 1.258 1_545 S
O181 Nd160 2.492 . S
O181 C162 1.239 . S
O182 Nd160 2.487 1_655 S
O182 C169 1.241 . S
O183 Nd160 2.682 . S
O183 Nd161 2.414 . S
O183 C169 1.273 1_455 S
O184 Nd160 2.410 . S
O184 C170 1.251 . S
O185 Nd161 2.424 . S
O185 C170 1.268 . S
O186 Nd161 2.500 . S
O186 C171 1.258 . S
O187 Nd161 2.492 . S
O187 C171 1.239 . S
O188 Nd161 2.487 . S
O188 C178 1.241 . S
O189 Nd160 2.414 . S
O189 Nd161 2.682 . S
O189 C178 1.273 . S
O190 Nd161 2.410 . S
O190 C179 1.251 . S
O191 Nd160 2.424 . S
O191 C179 1.268 . S
H192 C164 0.930 . S
H193 C165 0.929 . S
H194 C167 0.930 1_665 S
H195 C168 0.929 1_655 S
H196 C173 0.930 . S
H197 C174 0.929 . S
H198 C176 0.930 . S
H199 C177 0.929 . S
Nd200 C202 2.836 . S
Nd200 O220 2.500 . S
Nd200 O221 2.492 . S
Nd200 O222 2.487 1_545 S
Nd200 O223 2.682 . S
Nd200 O224 2.410 . S
Nd200 O229 2.414 . S
Nd200 O231 2.424 . S
Nd201 C211 2.836 . S
Nd201 O223 2.414 . S
Nd201 O225 2.424 . S
Nd201 O226 2.500 . S
Nd201 O227 2.492 . S
Nd201 O228 2.487 . S
Nd201 O229 2.682 . S
Nd201 O230 2.410 . S
C202 Nd200 2.836 . S
C202 C203 1.498 . S
C202 O220 1.258 . S
C202 O221 1.239 . S
C203 C202 1.498 . S
C203 C204 1.366 . S
C203 C208 1.407 . S
C204 C203 1.366 . S
C204 C205 1.392 . S
C204 H232 0.930 . S
C205 C204 1.392 . S
C205 C206 1.398 . S
C205 H233 0.929 . S
C206 C205 1.398 . S
C206 C207 1.352 . S
C207 C206 1.352 . S
C207 C208 1.384 . S
C207 H234 0.930 1_445 S
C208 C203 1.407 . S
C208 C207 1.384 . S
C208 H235 0.929 1_545 S
C209 O222 1.241 . S
C209 O223 1.273 1_565 S
C210 O224 1.251 . S
C210 O225 1.268 . S
C211 Nd201 2.836 . S
C211 C212 1.498 . S
C211 O226 1.258 . S
C211 O227 1.239 . S
C212 C211 1.498 . S
C212 C213 1.366 . S
C212 C217 1.407 . S
C213 C212 1.366 . S
C213 C214 1.392 . S
C213 H236 0.930 . S
C214 C213 1.392 . S
C214 C215 1.398 . S
C214 H237 0.929 . S
C215 C214 1.398 . S
C215 C216 1.352 . S
C216 C215 1.352 . S
C216 C217 1.384 . S
C216 H238 0.930 . S
C217 C212 1.407 . S
C217 C216 1.384 . S
C217 H239 0.929 . S
C218 O228 1.241 . S
C218 O229 1.273 . S
C219 O230 1.251 . S
C219 O231 1.268 . S
O220 Nd200 2.500 . S
O220 C202 1.258 . S
O221 Nd200 2.492 . S
O221 C202 1.239 . S
O222 Nd200 2.487 1_565 S
O222 C209 1.241 . S
O223 Nd200 2.682 . S
O223 Nd201 2.414 . S
O223 C209 1.273 1_545 S
O224 Nd200 2.410 . S
O224 C210 1.251 . S
O225 Nd201 2.424 . S
O225 C210 1.268 . S
O226 Nd201 2.500 . S
O226 C211 1.258 . S
O227 Nd201 2.492 . S
O227 C211 1.239 . S
O228 Nd201 2.487 . S
O228 C218 1.241 . S
O229 Nd200 2.414 . S
O229 Nd201 2.682 . S
O229 C218 1.273 . S
O230 Nd201 2.410 . S
O230 C219 1.251 . S
O231 Nd200 2.424 . S
O231 C219 1.268 . S
H232 C204 0.930 . S
H233 C205 0.929 . S
H234 C207 0.930 1_665 S
H235 C208 0.929 1_565 S
H236 C213 0.930 . S
H237 C214 0.929 . S
H238 C216 0.930 . S
H239 C217 0.929 . S
C175 C10 1.450 . S
C215 C50 1.449 . S
C15 C90 1.450 . S
C55 C130 1.450 . S
C95 C170 1.449 . S
C135 C210 1.450 . S
C9 C129 3.071 . S
C169 C49 3.073 1_655 S
C209 C89 3.075 1_565 S
C98 C218 1.968 . S
C18 C138 1.965 1_455 S
C178 C58 1.967 1_565 S
C206 C19 2.185 . S
C59 C6 2.183 . S
C99 C46 2.183 . S
C86 C139 2.185 . S
C179 C126 2.183 . S
C219 C166 2.183 . S
