# Generated by pormake.
# Topology why, (6)-cn, num edge types: 1
# Building blocks:
#     Node 0, Type 0, BuildingBlock: KUMBUR_clean_sbu_1, # of connection points: 6
#     Node 1, Type 0, BuildingBlock: KUMBUR_clean_sbu_1, # of connection points: 6
#     Node 2, Type 0, BuildingBlock: KUMBUR_clean_sbu_1, # of connection points: 6
#     Node 3, Type 0, BuildingBlock: KUMBUR_clean_sbu_1, # of connection points: 6
#     Node 4, Type 0, BuildingBlock: KUMBUR_clean_sbu_1, # of connection points: 6
#     Node 5, Type 0, BuildingBlock: KUMBUR_clean_sbu_1, # of connection points: 6
#     Node 6, Type 0, BuildingBlock: KUMBUR_clean_sbu_1, # of connection points: 6
#     Node 7, Type 0, BuildingBlock: KUMBUR_clean_sbu_1, # of connection points: 6
#     Node 8, Type 0, BuildingBlock: KUMBUR_clean_sbu_1, # of connection points: 6
#     Node 9, Type 0, BuildingBlock: KUMBUR_clean_sbu_1, # of connection points: 6
#     Node 10, Type 0, BuildingBlock: KUMBUR_clean_sbu_1, # of connection points: 6
#     Node 11, Type 0, BuildingBlock: KUMBUR_clean_sbu_1, # of connection points: 6
#     Node 12, Type 0, BuildingBlock: KUMBUR_clean_sbu_1, # of connection points: 6
#     Node 13, Type 0, BuildingBlock: KUMBUR_clean_sbu_1, # of connection points: 6
#     Node 14, Type 0, BuildingBlock: KUMBUR_clean_sbu_1, # of connection points: 6
#     Node 15, Type 0, BuildingBlock: KUMBUR_clean_sbu_1, # of connection points: 6
#     Edge 16, Type (0, 0), BuildingBlock: KIFKEQ_clean_linker_1, # of connection points: 2
#     Edge 17, Type (0, 0), BuildingBlock: KIFKEQ_clean_linker_1, # of connection points: 2
#     Edge 18, Type (0, 0), BuildingBlock: KIFKEQ_clean_linker_1, # of connection points: 2
#     Edge 19, Type (0, 0), BuildingBlock: KIFKEQ_clean_linker_1, # of connection points: 2
#     Edge 20, Type (0, 0), BuildingBlock: KIFKEQ_clean_linker_1, # of connection points: 2
#     Edge 21, Type (0, 0), BuildingBlock: KIFKEQ_clean_linker_1, # of connection points: 2
#     Edge 22, Type (0, 0), BuildingBlock: KIFKEQ_clean_linker_1, # of connection points: 2
#     Edge 23, Type (0, 0), BuildingBlock: KIFKEQ_clean_linker_1, # of connection points: 2
#     Edge 24, Type (0, 0), BuildingBlock: KIFKEQ_clean_linker_1, # of connection points: 2
#     Edge 25, Type (0, 0), BuildingBlock: KIFKEQ_clean_linker_1, # of connection points: 2
#     Edge 26, Type (0, 0), BuildingBlock: KIFKEQ_clean_linker_1, # of connection points: 2
#     Edge 27, Type (0, 0), BuildingBlock: KIFKEQ_clean_linker_1, # of connection points: 2
#     Edge 28, Type (0, 0), BuildingBlock: KIFKEQ_clean_linker_1, # of connection points: 2
#     Edge 29, Type (0, 0), BuildingBlock: KIFKEQ_clean_linker_1, # of connection points: 2
#     Edge 30, Type (0, 0), BuildingBlock: KIFKEQ_clean_linker_1, # of connection points: 2
#     Edge 31, Type (0, 0), BuildingBlock: KIFKEQ_clean_linker_1, # of connection points: 2
#     Edge 32, Type (0, 0), BuildingBlock: KIFKEQ_clean_linker_1, # of connection points: 2
#     Edge 33, Type (0, 0), BuildingBlock: KIFKEQ_clean_linker_1, # of connection points: 2
#     Edge 34, Type (0, 0), BuildingBlock: KIFKEQ_clean_linker_1, # of connection points: 2
#     Edge 35, Type (0, 0), BuildingBlock: KIFKEQ_clean_linker_1, # of connection points: 2
#     Edge 36, Type (0, 0), BuildingBlock: KIFKEQ_clean_linker_1, # of connection points: 2
#     Edge 37, Type (0, 0), BuildingBlock: KIFKEQ_clean_linker_1, # of connection points: 2
#     Edge 38, Type (0, 0), BuildingBlock: KIFKEQ_clean_linker_1, # of connection points: 2
#     Edge 39, Type (0, 0), BuildingBlock: KIFKEQ_clean_linker_1, # of connection points: 2
#     Edge 40, Type (0, 0), BuildingBlock: KIFKEQ_clean_linker_1, # of connection points: 2
#     Edge 41, Type (0, 0), BuildingBlock: KIFKEQ_clean_linker_1, # of connection points: 2
#     Edge 42, Type (0, 0), BuildingBlock: KIFKEQ_clean_linker_1, # of connection points: 2
#     Edge 43, Type (0, 0), BuildingBlock: KIFKEQ_clean_linker_1, # of connection points: 2
#     Edge 44, Type (0, 0), BuildingBlock: KIFKEQ_clean_linker_1, # of connection points: 2
#     Edge 45, Type (0, 0), BuildingBlock: KIFKEQ_clean_linker_1, # of connection points: 2
#     Edge 46, Type (0, 0), BuildingBlock: KIFKEQ_clean_linker_1, # of connection points: 2
#     Edge 47, Type (0, 0), BuildingBlock: KIFKEQ_clean_linker_1, # of connection points: 2
#     Edge 48, Type (0, 0), BuildingBlock: KIFKEQ_clean_linker_1, # of connection points: 2
#     Edge 49, Type (0, 0), BuildingBlock: KIFKEQ_clean_linker_1, # of connection points: 2
#     Edge 50, Type (0, 0), BuildingBlock: KIFKEQ_clean_linker_1, # of connection points: 2
#     Edge 51, Type (0, 0), BuildingBlock: KIFKEQ_clean_linker_1, # of connection points: 2
#     Edge 52, Type (0, 0), BuildingBlock: KIFKEQ_clean_linker_1, # of connection points: 2
#     Edge 53, Type (0, 0), BuildingBlock: KIFKEQ_clean_linker_1, # of connection points: 2
#     Edge 54, Type (0, 0), BuildingBlock: KIFKEQ_clean_linker_1, # of connection points: 2
#     Edge 55, Type (0, 0), BuildingBlock: KIFKEQ_clean_linker_1, # of connection points: 2
#     Edge 56, Type (0, 0), BuildingBlock: KIFKEQ_clean_linker_1, # of connection points: 2
#     Edge 57, Type (0, 0), BuildingBlock: KIFKEQ_clean_linker_1, # of connection points: 2
#     Edge 58, Type (0, 0), BuildingBlock: KIFKEQ_clean_linker_1, # of connection points: 2
#     Edge 59, Type (0, 0), BuildingBlock: KIFKEQ_clean_linker_1, # of connection points: 2
#     Edge 60, Type (0, 0), BuildingBlock: KIFKEQ_clean_linker_1, # of connection points: 2
#     Edge 61, Type (0, 0), BuildingBlock: KIFKEQ_clean_linker_1, # of connection points: 2
#     Edge 62, Type (0, 0), BuildingBlock: KIFKEQ_clean_linker_1, # of connection points: 2
#     Edge 63, Type (0, 0), BuildingBlock: KIFKEQ_clean_linker_1, # of connection points: 2
# Relax obj value: 0.279
# Max RMSD: 0.217
# Mean RMSD: 0.217
data_MOF--net-why--node1-KUMBUR_clean_sbu_1--edge1-KIFKEQ_clean_linker_1
_symmetry_space_group_name_H-M    P1
_symmetry_Int_Tables_number       1
_symmetry_cell_setting            triclinic
loop_
_symmetry_equiv_pos_as_xyz
'x, y, z'
_cell_length_a     48.260894
_cell_length_b     48.489993
_cell_length_c     41.683362
_cell_angle_alpha  89.996801
_cell_angle_beta   90.060989
_cell_angle_gamma 89.472513
loop_
_atom_site_label
_atom_site_type_symbol
_atom_site_fract_x
_atom_site_fract_y
_atom_site_fract_z
_atom_type_partial_charge
Tb0 Tb 0.417 0.20883 0.08263 0.0
C1 C 0.44429 0.1278 0.96425 0.0
N2 N 0.43985 0.12749 0.99642 0.0
C3 C 0.41474 0.08508 0.99093 0.0
C4 C 0.43373 0.10706 0.94404 0.0
C5 C 0.4257 0.10607 1.01001 0.0
C6 C 0.41857 0.08567 0.95777 0.0
C7 C 0.46679 0.14913 0.91881 0.0
C8 C 0.46041 0.14848 0.95181 0.0
C9 C 0.45562 0.12908 0.89833 0.0
C10 C 0.43909 0.10808 0.91093 0.0
Tb11 Tb 0.45722 0.16431 0.02485 0.0
N12 N 0.47112 0.16713 0.97246 0.0
C13 C 0.48476 0.16945 0.9076 0.0
C14 C 0.48952 0.18635 0.96182 0.0
C15 C 0.49642 0.18795 0.9293 0.0
H16 H 0.42179 0.10534 0.03537 0.0
H17 H 0.51083 0.20338 0.92104 0.0
H18 H 0.40698 0.27335 0.0562 0.0
H19 H 0.49941 0.17224 0.16207 0.0
H20 H 0.49902 0.20056 0.97828 0.0
H21 H 0.49023 0.17063 0.88244 0.0
H22 H 0.46954 0.16929 0.11491 0.0
H23 H 0.40319 0.06851 1.00183 0.0
H24 H 0.46008 0.12932 0.87286 0.0
H25 H 0.431 0.09245 0.89498 0.0
H26 H 0.41408 0.32036 0.07762 0.0
H27 H 0.41007 0.06936 0.94308 0.0
H28 H 0.50079 0.21516 0.19395 0.0
N29 N 0.42597 0.25352 0.09625 0.0
C30 C 0.43995 0.25667 0.12436 0.0
C31 C 0.42134 0.3026 0.09103 0.0
C32 C 0.44449 0.28304 0.13739 0.0
C33 C 0.41758 0.27602 0.07883 0.0
C34 C 0.43438 0.30611 0.12071 0.0
N35 N 0.45172 0.20933 0.12067 0.0
C36 C 0.46879 0.1878 0.12885 0.0
C37 C 0.47087 0.23648 0.16399 0.0
C38 C 0.45312 0.23358 0.13734 0.0
C39 C 0.48688 0.21377 0.17361 0.0
C40 C 0.48623 0.18955 0.15558 0.0
H41 H 0.43748 0.32675 0.1299 0.0
H42 H 0.4637 0.30567 0.1762 0.0
H43 H 0.48668 0.26489 0.1996 0.0
O44 O 0.39157 0.19802 0.12172 0.0
O45 O 0.45953 0.22752 0.07414 0.0
O46 O 0.48058 0.20476 0.03218 0.0
O47 O 0.38383 0.23511 0.09564 0.0
O48 O 0.4189 0.16557 0.10255 0.0
O49 O 0.44354 0.13851 0.06714 0.0
O50 O 0.49167 0.13991 1.01258 0.0
O51 O 0.41178 0.16127 1.01148 0.0
O52 O 0.38851 0.19394 0.04221 0.0
O53 O 0.48783 0.15831 0.06003 0.0
O54 O 0.4495 0.20576 1.00659 0.0
O55 O 0.41133 0.22379 0.03329 0.0
C56 C 0.48072 0.22509 0.05394 0.0
C57 C 0.34644 0.21752 0.12518 0.0
C58 C 0.30577 0.23212 0.15591 0.0
C59 C 0.28977 0.21296 0.13885 0.0
C60 C 0.3302 0.19874 0.10809 0.0
C61 C 0.30193 0.19654 0.11495 0.0
C62 C 0.33414 0.23426 0.14876 0.0
C63 C 0.42984 0.14126 0.09465 0.0
C64 C 0.37632 0.22013 0.11961 0.0
C65 C 0.46033 0.28562 0.16549 0.0
C66 C 0.47343 0.26237 0.17882 0.0
C67 C 0.38875 0.17563 1.01795 0.0
C68 C 0.53161 0.16133 0.03378 0.0
C69 C 0.56727 0.17794 0.99678 0.0
C70 C 0.57732 0.19529 0.02103 0.0
C71 C 0.54253 0.1784 0.05786 0.0
C72 C 0.54476 0.16063 1.00352 0.0
C73 C 0.56524 0.19519 0.05147 0.0
C74 C 0.42873 0.2233 1.00893 0.0
C75 C 0.50471 0.14721 0.03875 0.0
H76 H 0.26787 0.21085 0.14382 0.0
H77 H 0.33938 0.18578 0.08971 0.0
H78 H 0.28941 0.18196 0.10182 0.0
H79 H 0.34689 0.24857 0.16212 0.0
H80 H 0.59463 0.2088 1.01647 0.0
H81 H 0.53295 0.1795 0.08133 0.0
H82 H 0.53662 0.14773 0.98456 0.0
H83 H 0.57315 0.20863 0.07001 0.0
Tb84 Tb 0.65336 0.66363 0.33882 0.0
C85 C 0.73379 0.68541 0.2185 0.0
N86 N 0.73527 0.68058 0.25047 0.0
C87 C 0.77675 0.65359 0.24248 0.0
C88 C 0.75323 0.67388 0.19701 0.0
C89 C 0.75706 0.66571 0.26282 0.0
C90 C 0.77461 0.65735 0.20937 0.0
C91 C 0.71258 0.71108 0.17512 0.0
C92 C 0.71385 0.70357 0.20778 0.0
C93 C 0.73094 0.69865 0.1532 0.0
C94 C 0.75125 0.68004 0.16414 0.0
Tb95 Tb 0.7005 0.69912 0.2816 0.0
N96 N 0.69706 0.71548 0.22991 0.0
C97 C 0.69364 0.73154 0.16573 0.0
C98 C 0.67951 0.7365 0.22103 0.0
C99 C 0.67732 0.74459 0.18891 0.0
H100 H 0.75909 0.66254 0.28829 0.0
H101 H 0.6632 0.76105 0.1821 0.0
H102 H 0.61633 0.6136 0.30618 0.0
H103 H 0.62766 0.73048 0.43862 0.0
H104 H 0.66718 0.74733 0.23858 0.0
H105 H 0.69208 0.738 0.14091 0.0
H106 H 0.65912 0.70472 0.40244 0.0
H107 H 0.79357 0.64136 0.25239 0.0
H108 H 0.73014 0.70392 0.12795 0.0
H109 H 0.76581 0.67119 0.14717 0.0
H110 H 0.56683 0.60183 0.30074 0.0
H111 H 0.78997 0.64808 0.19369 0.0
H112 H 0.57685 0.72685 0.43193 0.0
N113 N 0.60848 0.64939 0.3344 0.0
C114 C 0.5893 0.66431 0.35087 0.0
C115 C 0.57284 0.61963 0.31467 0.0
C116 C 0.56089 0.65805 0.34908 0.0
C117 C 0.60084 0.62642 0.31769 0.0
C118 C 0.55271 0.6358 0.33 0.0
N119 N 0.62639 0.68762 0.3747 0.0
C120 C 0.63699 0.70304 0.39929 0.0
C121 C 0.57988 0.69816 0.39224 0.0
C122 C 0.59861 0.68405 0.37205 0.0
C123 C 0.59054 0.71563 0.41588 0.0
C124 C 0.61922 0.71766 0.4198 0.0
H125 H 0.53108 0.63029 0.32796 0.0
H126 H 0.51986 0.66909 0.36624 0.0
H127 H 0.53653 0.70426 0.40412 0.0
O128 O 0.6801 0.63197 0.35586 0.0
O129 O 0.64168 0.70904 0.33582 0.0
O130 O 0.66035 0.72437 0.28849 0.0
O131 O 0.64067 0.64019 0.3782 0.0
O132 O 0.69067 0.68422 0.3611 0.0
O133 O 0.7211 0.67561 0.32195 0.0
O134 O 0.73252 0.72705 0.27461 0.0
O135 O 0.70164 0.65371 0.26974 0.0
O136 O 0.66454 0.63475 0.29694 0.0
O137 O 0.7068 0.72959 0.31713 0.0
O138 O 0.65918 0.69583 0.26127 0.0
O139 O 0.63728 0.66107 0.28933 0.0
C140 C 0.64167 0.72736 0.31207 0.0
C141 C 0.65497 0.5942 0.37904 0.0
C142 C 0.6314 0.55715 0.40817 0.0
C143 C 0.63784 0.53906 0.38279 0.0
C144 C 0.66095 0.5758 0.35397 0.0
C145 C 0.65251 0.54835 0.356 0.0
C146 C 0.64032 0.58471 0.40606 0.0
C147 C 0.71683 0.67975 0.3529 0.0
C148 C 0.66196 0.62377 0.37708 0.0
C149 C 0.54184 0.67334 0.36754 0.0
C150 C 0.55133 0.69337 0.38912 0.0
C151 C 0.68437 0.63282 0.27434 0.0
C152 C 0.72003 0.77166 0.29191 0.0
C153 C 0.71307 0.80887 0.25264 0.0
C154 C 0.70831 0.8273 0.27819 0.0
C155 C 0.7151 0.79042 0.31686 0.0
C156 C 0.7195 0.78123 0.25993 0.0
C157 C 0.70946 0.81811 0.30998 0.0
C158 C 0.6396 0.67743 0.26424 0.0
C159 C 0.72506 0.7421 0.29908 0.0
H160 H 0.6311 0.51783 0.38332 0.0
H161 H 0.6718 0.58263 0.33271 0.0
H162 H 0.65708 0.53427 0.33652 0.0
H163 H 0.63582 0.59895 0.42545 0.0
H164 H 0.70386 0.84888 0.27369 0.0
H165 H 0.71552 0.78362 0.34162 0.0
H166 H 0.72341 0.76696 0.24052 0.0
H167 H 0.70575 0.83251 0.32939 0.0
Tb168 Tb 0.20085 0.9011 0.58207 0.0
C169 C 0.16439 0.97853 0.46366 0.0
N170 N 0.17314 0.98143 0.49441 0.0
C171 C 0.19735 1.02268 0.4799 0.0
C172 C 0.17223 0.9973 0.43957 0.0
C173 C 0.18868 1.00373 0.50304 0.0
C174 C 0.18937 1.01927 0.44794 0.0
C175 C 0.13412 0.95547 0.42614 0.0
C176 C 0.14579 0.95789 0.45704 0.0
C177 C 0.14278 0.97326 0.4016 0.0
C178 C 0.16188 0.99411 0.40828 0.0
Tb179 Tb 0.15937 0.94814 0.52995 0.0
N180 N 0.13749 0.94162 0.48162 0.0
C181 C 0.11332 0.93601 0.4212 0.0
C182 C 0.11624 0.92346 0.47721 0.0
C183 C 0.1041 0.9202 0.44697 0.0
H184 H 0.19511 1.00659 0.52759 0.0
H185 H 0.08748 0.90564 0.44364 0.0
H186 H 0.22158 0.839 0.56131 0.0
H187 H 0.11428 0.93499 0.65748 0.0
H188 H 0.10852 0.91135 0.49687 0.0
H189 H 0.10367 0.93364 0.39789 0.0
H190 H 0.14881 0.94088 0.61561 0.0
H191 H 0.21014 1.03993 0.48674 0.0
H192 H 0.13425 0.97158 0.37763 0.0
H193 H 0.16781 1.00819 0.38936 0.0
H194 H 0.21644 0.79141 0.58223 0.0
H195 H 0.19591 1.03412 0.43013 0.0
H196 H 0.10935 0.89004 0.68461 0.0
N197 N 0.1943 0.8565 0.59579 0.0
C198 C 0.17715 0.85226 0.62111 0.0
C199 C 0.20523 0.80834 0.59329 0.0
C200 C 0.17335 0.82558 0.63356 0.0
C201 C 0.208 0.83514 0.58141 0.0
C202 C 0.18801 0.80355 0.61965 0.0
N203 N 0.16474 0.89979 0.61834 0.0
C204 C 0.14753 0.92113 0.62682 0.0
C205 C 0.14178 0.87031 0.65682 0.0
C206 C 0.16167 0.87456 0.6326 0.0
C207 C 0.12492 0.89247 0.66615 0.0
C208 C 0.12761 0.91785 0.65082 0.0
H209 H 0.18575 0.78273 0.62864 0.0
H210 H 0.1514 0.80131 0.66882 0.0
H211 H 0.1237 0.84039 0.6891 0.0
O212 O 0.24293 0.88991 0.58125 0.0
O213 O 0.16377 0.87675 0.56525 0.0
O214 O 0.134 0.91044 0.54618 0.0
O215 O 0.22231 0.89371 0.62587 0.0
O216 O 0.19769 0.9431 0.60589 0.0
O217 O 0.18108 0.97321 0.56787 0.0
O218 O 0.13124 0.98058 0.52289 0.0
O219 O 0.20403 0.95025 0.51308 0.0
O220 O 0.22842 0.91806 0.54288 0.0
O221 O 0.12923 0.95525 0.56558 0.0
O222 O 0.16572 0.90881 0.50578 0.0
O223 O 0.20192 0.88622 0.53199 0.0
C224 C 0.13837 0.88436 0.55618 0.0
C225 C 0.25797 0.85926 0.62184 0.0
C226 C 0.26665 0.82301 0.66174 0.0
C227 C 0.28356 0.80918 0.6393 0.0
C228 C 0.27537 0.84506 0.60024 0.0
C229 C 0.2878 0.82014 0.60886 0.0
C230 C 0.25383 0.84817 0.65278 0.0
C231 C 0.19072 0.96868 0.59725 0.0
C232 C 0.24483 0.8857 0.61176 0.0
C233 C 0.15449 0.82164 0.65872 0.0
C234 C 0.13872 0.84392 0.67027 0.0
C235 C 0.22726 0.93593 0.51854 0.0
C236 C 0.08668 0.96909 0.54127 0.0
C237 C 1.04902 0.96272 0.50257 0.0
C238 C 1.0311 0.95653 0.52813 0.0
C239 C 0.06848 0.96283 0.56637 0.0
C240 C 0.07652 0.9697 0.5096 0.0
C241 C 1.04077 0.95682 0.55979 0.0
C242 C 0.18552 0.89006 0.5069 0.0
C243 C 0.11644 0.97363 0.54771 0.0
H244 H 0.29421 0.79017 0.64553 0.0
H245 H 0.27932 0.85313 0.57646 0.0
H246 H 0.30107 0.80941 0.59197 0.0
H247 H 0.24065 0.85899 0.66972 0.0
H248 H 1.00963 0.95145 0.5237 0.0
H249 H 0.07577 0.9623 0.59096 0.0
H250 H 0.0904 0.97444 0.49007 0.0
H251 H 1.02682 0.95196 0.57926 0.0
Tb252 Tb 0.96314 0.45518 0.83846 0.0
C253 C 0.87435 0.43368 0.73662 0.0
N254 N 0.88054 0.43657 0.76835 0.0
C255 C 0.84031 0.46556 0.77518 0.0
C256 C 0.85129 0.44726 0.72282 0.0
C257 C 0.86367 0.45209 0.78771 0.0
C258 C 0.83405 0.46312 0.74263 0.0
C259 C 0.88835 0.41721 0.68411 0.0
C260 C 0.89249 0.41866 0.71756 0.0
C261 C 0.8651 0.43022 0.67034 0.0
C262 C 0.84653 0.44509 0.68967 0.0
Tb263 Tb 0.91761 0.4108 0.78643 0.0
N264 N 0.9148 0.40642 0.73169 0.0
C265 C 0.90795 0.40314 0.66542 0.0
C266 C 0.93369 0.39213 0.71351 0.0
C267 C 0.93067 0.39046 0.68022 0.0
H268 H 0.86813 0.45459 0.81269 0.0
H269 H 0.94573 0.37918 0.66602 0.0
H270 H 1.02374 0.4735 0.80841 0.0
H271 H 0.93989 0.37383 0.92491 0.0
H272 H 0.95084 0.38137 0.72474 0.0
H273 H 0.90559 0.4017 0.63962 0.0
H274 H 0.93085 0.40102 0.87687 0.0
H275 H 0.82718 0.47793 0.79066 0.0
H276 H 0.86146 0.42916 0.64471 0.0
H277 H 0.82887 0.45531 0.67866 0.0
H278 H 0.07258 0.47244 0.82655 0.0
H279 H 0.81608 0.47382 0.73297 0.0
H280 H 0.98515 0.37689 0.95234 0.0
N281 N 1.00915 0.45083 0.84853 0.0
C282 C 1.01561 0.43761 0.87633 0.0
C283 C 0.05676 0.46249 0.84069 0.0
C284 C 1.04309 0.43665 0.88767 0.0
C285 C 1.02918 0.46281 0.8303 0.0
C286 C 0.06369 0.44969 0.86971 0.0
N287 N 0.96896 0.42272 0.87837 0.0
C288 C 0.94985 0.40435 0.88924 0.0
C289 C 1.00137 0.40682 0.91891 0.0
C290 C 0.99481 0.42307 0.89186 0.0
C291 C 0.98093 0.38978 0.93164 0.0
C292 C 0.95532 0.38807 0.91626 0.0
H293 H 0.08507 0.44951 0.87769 0.0
H294 H 0.07016 0.42133 0.92529 0.0
H295 H 1.0337 0.39505 0.95252 0.0
O296 O 0.97798 0.49559 0.83683 0.0
O297 O 0.98645 0.41503 0.82665 0.0
O298 O 0.9535 0.38491 0.80743 0.0
O299 O 0.96642 0.47831 0.88173 0.0
O300 O 0.91946 0.4549 0.85882 0.0
O301 O 0.89927 0.41729 0.8355 0.0
O302 O 0.91251 0.3706 0.76885 0.0
O303 O 0.91978 0.45388 0.76459 0.0
O304 O 0.94203 0.48228 0.80079 0.0
O305 O 0.88339 0.38778 0.80231 0.0
O306 O 0.95982 0.41409 0.7685 0.0
O307 O 0.9768 0.45516 0.7882 0.0
C308 C 0.97927 0.38935 0.81855 0.0
C309 C 1.00473 0.50976 0.88129 0.0
C310 C 1.03784 0.51616 0.92533 0.0
C311 C 1.05563 0.52977 0.90402 0.0
C312 C 1.02271 0.52441 0.861 0.0
C313 C 1.04801 0.53398 0.87221 0.0
C314 C 1.01221 0.50616 0.9139 0.0
C315 C 0.89875 0.43699 0.85758 0.0
C316 C 0.97845 0.49885 0.86766 0.0
C317 C 1.04922 0.42202 0.9159 0.0
C318 C 1.02842 0.4071 0.93146 0.0
C319 C 0.92863 0.4789 0.77292 0.0
C320 C 0.86556 0.35793 0.76215 0.0
C321 C 0.84976 0.33436 0.71381 0.0
C322 C 0.82233 0.33627 0.72476 0.0
C323 C 0.83795 0.3599 0.77269 0.0
C324 C 0.87119 0.34523 0.73257 0.0
C325 C 0.81648 0.3492 0.75398 0.0
C326 C 0.97565 0.43584 0.76605 0.0
C327 C 0.88862 0.36762 0.78255 0.0
H328 H 0.07526 0.53784 0.91223 0.0
H329 H 1.01744 0.52816 0.83611 0.0
H330 H 0.06174 0.54486 0.85618 0.0
H331 H 0.99845 0.4955 0.93013 0.0
H332 H 0.80552 0.32784 0.7107 0.0
H333 H 0.83297 0.36939 0.79552 0.0
H334 H 0.89241 0.34301 0.7244 0.0
H335 H 0.79529 0.35068 0.76233 0.0
Tb336 Tb 0.66317 0.94338 1.00953 0.0
C337 C 0.68002 0.84863 0.91314 0.0
N338 N 0.69356 0.85194 0.94152 0.0
C339 C 0.69629 0.80287 0.94837 0.0
C340 C 0.67502 0.82215 0.90067 0.0
C341 C 0.70053 0.82956 0.95999 0.0
C342 C 0.68401 0.79914 0.9183 0.0
C343 C 0.65037 0.86882 0.87225 0.0
C344 C 0.66767 0.87181 0.89928 0.0
C345 C 0.64752 0.84275 0.85793 0.0
C346 C 0.65974 0.81944 0.87218 0.0
Tb347 Tb 0.70297 0.8967 0.95467 0.0
N348 N 0.66924 0.8963 0.91545 0.0
C349 C 0.63495 0.89165 0.86178 0.0
C350 C 0.6525 0.9179 0.90662 0.0
C351 C 0.63557 0.91607 0.87946 0.0
H352 H 0.71054 0.83239 0.98296 0.0
H353 H 0.62269 0.93344 0.87242 0.0
H354 H 0.69857 1.00185 0.99976 0.0
H355 H 0.60484 0.90742 0.11165 0.0
H356 H 0.6515 0.93644 0.92047 0.0
H357 H 0.62139 0.8902 0.84113 0.0
H358 H 0.61734 0.91026 0.05457 0.0
H359 H 0.70257 0.78518 0.96254 0.0
H360 H 0.63462 0.84016 0.83687 0.0
H361 H 0.65607 0.79929 0.86188 0.0
H362 H 0.7191 1.03749 0.0341 0.0
H363 H 0.68051 0.77843 0.90954 0.0
H364 H 0.6278 0.93762 0.15126 0.0
N365 N 0.68183 0.9789 0.03877 0.0
C366 C 0.6775 0.97818 0.07091 0.0
C367 C 0.70755 1.02083 0.04479 0.0
C368 C 0.68885 0.9982 0.09149 0.0
C369 C 0.69571 1.00056 0.02535 0.0
C370 C 0.70446 1.01943 0.07806 0.0
N371 N 0.64806 0.94097 0.06155 0.0
C372 C 0.62791 0.92327 0.07151 0.0
C373 C 0.65329 0.95773 0.11566 0.0
C374 C 0.66004 0.95835 0.08277 0.0
C375 C 0.63363 0.93874 0.1262 0.0
C376 C 0.62061 0.92169 0.10392 0.0
H377 H 0.71356 1.03522 0.09303 0.0
H378 H 0.69215 1.01192 0.14085 0.0
H379 H 0.66095 0.97638 0.16206 0.0
O380 O 0.63254 0.97262 1.0197 0.0
O381 O 0.70911 0.9465 0.02126 0.0
O382 O 0.73054 0.90939 0.99656 0.0
O383 O 0.63223 0.95 0.97461 0.0
O384 O 0.66853 0.90221 0.02981 0.0
O385 O 0.7067 0.88246 1.00478 0.0
O386 O 0.73273 0.90953 0.92052 0.0
O387 O 0.65991 0.87889 0.96246 0.0
O388 O 0.63791 0.9039 1.00206 0.0
O389 O 0.73357 0.8687 0.93929 0.0
O390 O 0.70258 0.93972 0.93298 0.0
O391 O 0.67707 0.96754 0.9665 0.0
C392 C 0.73108 0.92981 1.01822 0.0
C393 C 0.58884 0.95968 0.99969 0.0
C394 C 0.55043 0.95268 0.03706 0.0
C395 C 0.53324 0.946 1.01097 0.0
C396 C 0.57136 0.95304 0.97399 0.0
C397 C 0.54368 0.9463 0.97967 0.0
C398 C 0.57806 0.95972 0.03103 0.0
C399 C 0.68875 0.88392 0.02866 0.0
C400 C 0.61829 0.96627 0.99411 0.0
C401 C 0.6834 0.99691 0.12457 0.0
C402 C 0.66563 0.97668 0.13665 0.0
C403 C 0.63816 0.88247 0.98166 0.0
C404 C 0.77546 0.8846 0.91863 0.0
C405 C 0.81681 0.87018 0.88915 0.0
C406 C 0.83287 0.87498 0.91668 0.0
C407 C 0.79172 0.88962 0.94587 0.0
C408 C 0.78811 0.87527 0.89033 0.0
C409 C 0.82037 0.88494 0.94476 0.0
C410 C 0.69145 0.96428 0.93969 0.0
C411 C 0.74507 0.88563 0.91973 0.0
H412 H 0.51173 0.94074 1.0147 0.0
H413 H 0.57912 0.95298 0.94961 0.0
H414 H 0.53029 0.94118 0.95973 0.0
H415 H 0.59141 0.96463 0.05105 0.0
H416 H 0.85502 0.87119 0.91639 0.0
H417 H 0.78223 0.8965 0.96804 0.0
H418 H 0.7754 0.87085 0.86951 0.0
H419 H 0.83287 0.88862 0.96589 0.0
Tb420 Tb 0.41467 0.40865 0.75484 0.0
C421 C 0.50882 0.4245 0.66148 0.0
N422 N 0.5056 0.4412 0.68742 0.0
C423 C 0.55439 0.44939 0.68912 0.0
C424 C 0.53522 0.41968 0.64818 0.0
C425 C 0.5278 0.45323 0.7018 0.0
C426 C 0.55808 0.4328 0.66198 0.0
C427 C 0.48896 0.39051 0.62582 0.0
C428 C 0.48579 0.4102 0.65048 0.0
C429 C 0.51499 0.38669 0.61127 0.0
C430 C 0.53805 0.40126 0.6224 0.0
Tb431 Tb 0.46119 0.45005 0.70192 0.0
N432 N 0.461 0.41389 0.66593 0.0
C433 C 0.46619 0.37448 0.61735 0.0
C434 C 0.43927 0.39718 0.65865 0.0
C435 C 0.44141 0.37753 0.63419 0.0
H436 H 0.52479 0.46634 0.72251 0.0
H437 H 0.42391 0.36461 0.62847 0.0
H438 H 0.35558 0.44479 0.75007 0.0
H439 H 0.45539 0.34487 0.85053 0.0
H440 H 0.42024 0.39837 0.67145 0.0
H441 H 0.46778 0.35908 0.59859 0.0
H442 H 0.45088 0.361 0.79463 0.0
H443 H 0.57197 0.45932 0.70017 0.0
H444 H 0.51769 0.37186 0.59206 0.0
H445 H 0.55813 0.39746 0.61158 0.0
H446 H 0.32057 0.46331 0.78753 0.0
H447 H 0.57872 0.42972 0.65236 0.0
H448 H 0.4258 0.36523 0.89296 0.0
N449 N 0.37996 0.42583 0.78676 0.0
C450 C 0.38194 0.41968 0.81848 0.0
C451 C 0.33781 0.45116 0.79656 0.0
C452 C 0.36231 0.42968 0.84071 0.0
C453 C 0.35767 0.44051 0.77536 0.0
C454 C 0.34033 0.44603 0.82942 0.0
N455 N 0.41976 0.39101 0.80542 0.0
C456 C 0.43808 0.37031 0.81297 0.0
C457 C 0.4043 0.39287 0.86035 0.0
C458 C 0.40265 0.40163 0.82816 0.0
C459 C 0.42394 0.37262 0.86852 0.0
C460 C 0.44065 0.36104 0.84462 0.0
H461 H 0.32481 0.45415 0.84573 0.0
H462 H 0.34997 0.42988 0.89071 0.0
H463 H 0.38674 0.39754 0.90791 0.0
O464 O 0.38444 0.37959 0.76606 0.0
O465 O 0.41205 0.45352 0.77096 0.0
O466 O 0.44438 0.47761 0.74158 0.0
O467 O 0.40705 0.37711 0.72134 0.0
O468 O 0.45482 0.41451 0.77734 0.0
O469 O 0.47613 0.45132 0.75192 0.0
O470 O 0.47508 0.49088 0.70236 0.0
O471 O 0.48553 0.41186 0.71775 0.0
O472 O 0.45324 0.38307 0.74081 0.0
O473 O 0.46805 0.47127 0.65781 0.0
O474 O 0.41793 0.45048 0.67973 0.0
O475 O 0.39001 0.42527 0.71326 0.0
C476 C 0.42631 0.47656 0.76581 0.0
C477 C 0.39632 0.33501 0.74767 0.0
C478 C 0.40356 0.29738 0.78606 0.0
C479 C 0.4098 0.2796 0.76033 0.0
C480 C 0.40261 0.31693 0.72241 0.0
C481 C 0.40917 0.28933 0.72876 0.0
C482 C 0.39635 0.32489 0.77933 0.0
C483 C 0.47301 0.43445 0.77652 0.0
C484 C 0.39036 0.36445 0.74114 0.0
C485 C 0.36471 0.42221 0.87318 0.0
C486 C 0.38565 0.40381 0.88298 0.0
C487 C 0.47875 0.38695 0.72873 0.0
C488 C 0.50508 0.50403 0.66027 0.0
C489 C 0.53958 0.51249 0.6182 0.0
C490 C 0.55663 0.52509 0.64118 0.0
C491 C 0.52241 0.51764 0.68229 0.0
C492 C 0.51363 0.50196 0.62785 0.0
C493 C 0.54803 0.52773 0.67285 0.0
C494 C 0.39323 0.43975 0.68655 0.0
C495 C 0.47813 0.49284 0.67167 0.0
H496 H 0.41504 0.25814 0.76455 0.0
H497 H 0.4026 0.32417 0.69782 0.0
H498 H 0.41401 0.27548 0.70915 0.0
H499 H 0.39157 0.33869 0.79899 0.0
H500 H 0.57646 0.53362 0.63442 0.0
H501 H 0.51639 0.52024 0.70714 0.0
H502 H 0.50035 0.49213 0.61036 0.0
H503 H 0.56122 0.53784 0.69017 0.0
Tb504 Tb 0.95008 0.16341 0.51306 0.0
C505 C 0.90872 0.27021 0.43869 0.0
N506 N 0.8951 0.25069 0.45558 0.0
C507 C 0.86138 0.28439 0.47227 0.0
C508 C 0.8998 0.29795 0.43878 0.0
C509 C 0.87091 0.25707 0.47104 0.0
C510 C 0.87617 0.30503 0.45654 0.0
C511 C 0.94292 0.2806 0.39813 0.0
C512 C 0.92991 0.2617 0.41873 0.0
C513 C 0.93547 0.30866 0.39964 0.0
C514 C 0.91392 0.31733 0.41996 0.0
Tb515 Tb 0.91352 0.20716 0.45406 0.0
N516 N 0.93586 0.23432 0.41742 0.0
C517 C 0.96197 0.27049 0.37561 0.0
C518 C 0.95281 0.22409 0.39384 0.0
C519 C 0.96653 0.24206 0.37305 0.0
H520 H 0.85927 0.24118 0.48301 0.0
H521 H 0.98058 0.23397 0.35508 0.0
H522 H 0.91664 0.10355 0.50676 0.0
H523 H 1.01256 0.20279 0.61064 0.0
H524 H 0.95647 0.20215 0.39181 0.0
H525 H 0.97245 0.28433 0.35932 0.0
H526 H 0.99636 0.19974 0.55517 0.0
H527 H 0.84261 0.2895 0.48523 0.0
H528 H 0.94547 0.32361 0.38431 0.0
H529 H 0.90762 0.33884 0.41997 0.0
H530 H 0.90007 0.06719 0.54253 0.0
H531 H 0.8686 0.32613 0.45725 0.0
H532 H 0.99478 0.17068 0.65165 0.0
N533 N 0.93574 0.12692 0.54398 0.0
C534 C 0.94218 0.12774 0.57561 0.0
C535 C 0.91182 0.08418 0.55222 0.0
C536 C 0.93331 0.1071 0.59702 0.0
C537 C 0.92137 0.105 0.53192 0.0
C538 C 0.91755 0.08537 0.585 0.0
N539 N 0.96823 0.16683 0.56401 0.0
C540 C 0.98766 0.18591 0.57255 0.0
C541 C 0.96816 0.14931 0.61821 0.0
C542 C 0.95914 0.14849 0.58602 0.0
C543 C 0.98718 0.16945 0.62723 0.0
C544 C 0.99724 0.18761 0.60416 0.0
H545 H 0.91029 0.06912 0.60063 0.0
H546 H 0.93436 0.09288 0.64634 0.0
H547 H 0.96508 0.1299 0.66492 0.0
O548 O 0.98132 0.13359 0.51703 0.0
O549 O 0.90448 0.15984 0.5235 0.0
O550 O 0.88492 0.19699 0.49675 0.0
O551 O 0.97983 0.16124 0.47601 0.0
O552 O 0.94006 0.20248 0.53663 0.0
O553 O 0.91164 0.22694 0.50132 0.0
O554 O 0.88204 0.1793 0.44047 0.0
O555 O 0.95882 0.21925 0.45711 0.0
O556 O 0.9722 0.20482 0.50699 0.0
O557 O 0.89087 0.21557 0.41246 0.0
O558 O 0.93605 0.17035 0.43336 0.0
O559 O 0.92752 0.14097 0.47323 0.0
C560 C 0.88342 0.17742 0.51962 0.0
C561 C 1.02406 0.15035 0.49821 0.0
C562 C 0.06228 0.15884 0.53574 0.0
C563 C 0.0791 0.16608 0.50955 0.0
C564 C 1.04122 0.15775 0.47258 0.0
C565 C 0.06863 0.16541 0.47826 0.0
C566 C 1.03493 0.15055 0.52963 0.0
C567 C 0.92372 0.22352 0.52947 0.0
C568 C 0.99471 0.14329 0.49232 0.0
C569 C 0.94112 0.10843 0.62946 0.0
C570 C 0.95858 0.12949 0.64004 0.0
C571 C 0.97574 0.22185 0.48212 0.0
C572 C 0.84436 0.20274 0.41349 0.0
C573 C 0.80835 0.22862 0.38432 0.0
C574 C 0.78862 0.21916 0.40643 0.0
C575 C 0.82434 0.19374 0.43542 0.0
C576 C 0.83612 0.22003 0.38796 0.0
C577 C 0.79663 0.20189 0.43177 0.0
C578 C 0.93181 0.14454 0.44213 0.0
C579 C 0.87405 0.19519 0.41671 0.0
H580 H 0.10043 0.17209 0.51315 0.0
H581 H 1.03338 0.15772 0.44821 0.0
H582 H 0.08178 0.17105 0.45834 0.0
H583 H 1.02184 0.1449 0.54956 0.0
H584 H 0.7671 0.22545 0.4044 0.0
H585 H 0.83004 0.18058 0.45541 0.0
H586 H 0.85146 0.22675 0.37073 0.0
H587 H 0.78129 0.19492 0.4488 0.0
Tb588 Tb 0.2004 0.69797 0.25961 0.0
C589 C 0.08977 0.66503 0.18688 0.0
N590 N 0.1081 0.64994 0.20445 0.0
C591 C 0.07131 0.62093 0.22267 0.0
C592 C 0.06123 0.65921 0.18726 0.0
C593 C 0.0995 0.6273 0.22109 0.0
C594 C 1.05202 0.63722 0.20609 0.0
C595 C 0.08231 0.699 0.14508 0.0
C596 C 0.10012 0.68458 0.16614 0.0
C597 C 1.05362 0.69456 0.1467 0.0
C598 C 1.04308 0.67469 0.16778 0.0
Tb599 Tb 0.15336 0.66321 0.20199 0.0
N600 N 0.12803 0.68781 0.16493 0.0
C601 C 0.094 0.71648 0.12217 0.0
C602 C 0.13965 0.70336 0.1411 0.0
C603 C 0.12281 0.7183 0.11983 0.0
H604 H 0.11436 0.61438 0.23356 0.0
H605 H 0.13207 0.73117 0.10161 0.0
H606 H 0.2589 0.66106 0.25298 0.0
H607 H 0.16333 0.75962 0.35932 0.0
H608 H 0.16186 0.70493 0.13902 0.0
H609 H 0.08104 0.72793 0.10552 0.0
H610 H 0.16746 0.74628 0.30274 0.0
H611 H 0.06451 0.60334 0.23648 0.0
H612 H 1.03952 0.70566 0.13098 0.0
H613 H 1.02102 0.67075 0.16796 0.0
H614 H 0.293 0.63934 0.28896 0.0
H615 H 1.03025 0.63204 0.20704 0.0
H616 H 0.19184 0.73603 0.40054 0.0
N617 N 0.23507 0.6791 0.29075 0.0
C618 C 0.23351 0.68373 0.32276 0.0
C619 C 0.27625 0.65166 0.29884 0.0
C620 C 0.25275 0.67186 0.3443 0.0
C621 C 0.25676 0.6641 0.27845 0.0
C622 C 0.27401 0.65522 0.33197 0.0
N623 N 0.19709 0.71419 0.31135 0.0
C624 C 0.17966 0.73527 0.32029 0.0
C625 C 0.21232 0.70924 0.36622 0.0
C626 C 0.21369 0.70199 0.33349 0.0
C627 C 0.19349 0.72977 0.37565 0.0
C628 C 0.17738 0.74313 0.35247 0.0
H629 H 0.28922 0.64569 0.34769 0.0
H630 H 0.26506 0.66867 0.39422 0.0
H631 H 0.22958 0.70155 0.41347 0.0
O632 O 0.23206 0.72628 0.26711 0.0
O633 O 0.20111 0.65246 0.27118 0.0
O634 O 0.16338 0.63436 0.24433 0.0
O635 O 0.20707 0.72808 0.22384 0.0
O636 O 0.15905 0.69476 0.27999 0.0
O637 O 0.13629 0.66102 0.25105 0.0
O638 O 0.17994 0.63092 0.18633 0.0
O639 O 0.14179 0.70858 0.20516 0.0
O640 O 0.16052 0.7236 0.25262 0.0
O641 O 0.14118 0.63962 0.16253 0.0
O642 O 0.19098 0.68338 0.18003 0.0
O643 O 0.2214 0.67469 0.21923 0.0
C644 C 0.18325 0.63201 0.26688 0.0
C645 C 0.22004 0.7706 0.24811 0.0
C646 C 0.21257 0.80896 0.28572 0.0
C647 C 0.20892 0.82676 0.25933 0.0
C648 C 0.21618 0.78876 0.22232 0.0
C649 C 0.21081 0.8167 0.22796 0.0
C650 C 0.21865 0.78099 0.27971 0.0
C651 C 0.1389 0.67701 0.27644 0.0
C652 C 0.22506 0.74087 0.24204 0.0
C653 C 0.25066 0.67779 0.37722 0.0
C654 C 0.23046 0.69649 0.38817 0.0
C655 C 0.14194 0.72683 0.22895 0.0
C656 C 0.15415 0.59332 0.16369 0.0
C657 C 0.12887 0.55664 0.13588 0.0
C658 C 0.13469 0.53889 0.16179 0.0
C659 C 0.15951 0.57528 0.18932 0.0
C660 C 0.139 0.5838 0.13704 0.0
C661 C 0.14992 0.54818 0.1882 0.0
C662 C 0.21711 0.67872 0.18823 0.0
C663 C 0.162 0.6227 0.16482 0.0
H664 H 0.20481 0.84854 0.26284 0.0
H665 H 0.21727 0.78132 0.19784 0.0
H666 H 0.20796 0.83063 0.2079 0.0
H667 H 0.22175 0.76718 0.29974 0.0
H668 H 0.12703 0.51797 0.16197 0.0
H669 H 0.17072 0.58216 0.21032 0.0
H670 H 0.13498 0.59776 0.11723 0.0
H671 H 0.15399 0.53439 0.20811 0.0
Tb672 Tb 0.91361 0.71379 0.58663 0.0
C673 C 0.94471 0.63793 0.46722 0.0
N674 N 0.93776 0.63479 0.49858 0.0
C675 C 0.9115 0.59451 0.48536 0.0
C676 C 0.93476 0.61983 0.4435 0.0
C677 C 0.92216 0.61282 0.50809 0.0
C678 C 0.91755 0.59821 0.45288 0.0
C679 C 0.97286 0.66108 0.42759 0.0
C680 C 0.96336 0.65829 0.45938 0.0
C681 C 0.96208 0.64395 0.40352 0.0
C682 C 0.94302 0.62338 0.41146 0.0
Tb683 Tb 0.95477 0.66726 0.53316 0.0
N684 N 0.97372 0.67398 0.48344 0.0
C685 C 0.9936 0.6803 0.42119 0.0
C686 C 0.99488 0.69189 0.47756 0.0
C687 C 1.00489 0.69551 0.44637 0.0
H688 H 0.91718 0.60982 0.53306 0.0
H689 H 1.02144 0.7099 0.44182 0.0
H690 H 0.89611 0.77734 0.56672 0.0
H691 H 1.00109 0.67617 0.65833 0.0
H692 H 1.00403 0.70354 0.49683 0.0
H693 H 1.00156 0.68297 0.39711 0.0
H694 H 0.9666 0.67274 0.61584 0.0
H695 H 0.89864 0.57754 0.49291 0.0
H696 H 0.96891 0.64593 0.37888 0.0
H697 H 0.93542 0.60984 0.39281 0.0
H698 H 0.90249 0.82408 0.58961 0.0
H699 H 0.90941 0.58388 0.43538 0.0
H700 H 1.00611 0.71959 0.6887 0.0
N701 N 0.92204 0.75791 0.6013 0.0
C702 C 0.93895 0.76089 0.62713 0.0
C703 C 0.91289 0.80648 0.60032 0.0
C704 C 0.9434 0.78705 0.64073 0.0
C705 C 0.90944 0.78014 0.58731 0.0
C706 C 0.92968 0.80992 0.62737 0.0
N707 N 0.9504 0.71335 0.62207 0.0
C708 C 0.96774 0.69167 0.62879 0.0
C709 C 0.9738 0.74086 0.66217 0.0
C710 C 0.95382 0.73789 0.63772 0.0
C711 C 0.99046 0.71814 0.67012 0.0
C712 C 0.98772 0.69362 0.65299 0.0
H713 H 0.93244 0.83037 0.63726 0.0
H714 H 0.96558 0.80954 0.67743 0.0
H715 H 0.9923 0.76917 0.6961 0.0
O716 O 0.87305 0.72958 0.5867 0.0
O717 O 0.95118 0.73792 0.57009 0.0
O718 O 0.98063 0.70476 0.54904 0.0
O719 O 0.89218 0.71886 0.63085 0.0
O720 O 0.91585 0.67157 0.60985 0.0
O721 O 0.93521 0.64215 0.57267 0.0
O722 O 0.98256 0.63544 0.5217 0.0
O723 O 0.91037 0.66731 0.51525 0.0
O724 O 0.88469 0.69474 0.54968 0.0
O725 O 0.9868 0.65811 0.56604 0.0
O726 O 0.9492 0.70769 0.51177 0.0
O727 O 0.91102 0.7278 0.53644 0.0
C728 C 0.97646 0.73056 0.56013 0.0
C729 C 0.86065 0.75738 0.63093 0.0
C730 C 0.85703 0.79152 0.67409 0.0
C731 C 0.84176 0.80882 0.65341 0.0
C732 C 0.84459 0.7749 0.61125 0.0
C733 C 0.83552 0.80049 0.62233 0.0
C734 C 0.86646 0.76565 0.66274 0.0
C735 C 0.92396 0.64627 0.60139 0.0
C736 C 0.87097 0.73078 0.61757 0.0
C737 C 0.96206 0.78965 0.66638 0.0
C738 C 0.97727 0.76663 0.67702 0.0
C739 C 0.88633 0.67919 0.52321 0.0
C740 C 1.0281 0.64487 0.53863 0.0
C741 C 0.06508 0.65095 0.49903 0.0
C742 C 0.08399 0.65477 0.52435 0.0
C743 C 1.0473 0.64886 0.56341 0.0
C744 C 1.03733 0.64538 0.50658 0.0
C745 C 0.07513 0.6536 0.55624 0.0
C746 C 0.92815 0.72497 0.51198 0.0
C747 C 0.99849 0.64067 0.54612 0.0
H748 H 0.83391 0.82861 0.66159 0.0
H749 H 0.83928 0.76902 0.58695 0.0
H750 H 0.82343 0.81386 0.60681 0.0
H751 H 0.87837 0.75224 0.67844 0.0
H752 H 0.10567 0.65856 0.51957 0.0
H753 H 1.04076 0.6484 0.58826 0.0
H754 H 1.02268 0.64228 0.48732 0.0
H755 H 0.08987 0.6566 0.57549 0.0
Tb756 Tb 0.15249 0.16134 0.83292 0.0
C757 C 0.2292 0.19537 0.71655 0.0
N758 N 0.23138 0.18787 0.74789 0.0
C759 C 0.27243 0.16149 0.73597 0.0
C760 C 0.24823 0.18566 0.69348 0.0
C761 C 0.25321 0.17191 0.75808 0.0
C762 C 0.26976 0.16813 0.70348 0.0
C763 C 0.20677 0.22403 0.67638 0.0
C764 C 0.20871 0.21415 0.70811 0.0
C765 C 0.22495 0.21359 0.65294 0.0
C766 C 0.24561 0.1944 0.66146 0.0
Tb767 Tb 0.1976 0.20485 0.7812 0.0
N768 N 0.19198 0.22416 0.73158 0.0
C769 C 0.18725 0.24473 0.66947 0.0
C770 C 0.17361 0.24511 0.72525 0.0
C771 C 0.17082 0.25552 0.6941 0.0
H772 H 0.25535 0.16644 0.78305 0.0
H773 H 0.15612 0.27198 0.68916 0.0
H774 H 0.08821 0.14818 0.81065 0.0
H775 H 0.18998 0.24374 0.91082 0.0
H776 H 0.16102 0.25379 0.74418 0.0
H777 H 0.1852 0.25299 0.64542 0.0
H778 H 0.19284 0.21295 0.86478 0.0
H779 H 0.2893 0.14834 0.74401 0.0
H780 H 0.22365 0.22073 0.62835 0.0
H781 H 0.2599 0.18701 0.64329 0.0
H782 H 1.04135 0.15402 0.83419 0.0
H783 H 0.2848 0.16017 0.68648 0.0
H784 H 0.1471 0.24621 0.94304 0.0
N785 N 0.10815 0.16987 0.8483 0.0
C786 C 0.10533 0.1845 0.87591 0.0
C787 C 0.05918 0.16268 0.84614 0.0
C788 C 0.07912 0.18849 0.89004 0.0
C789 C 0.08561 0.15952 0.8328 0.0
C790 C 1.05597 0.17684 0.87515 0.0
N791 N 0.15288 0.19572 0.87119 0.0
C792 C 0.17437 0.21269 0.87871 0.0
C793 C 0.12568 0.21613 0.91404 0.0
C794 C 0.12849 0.19807 0.8877 0.0
C795 C 0.14841 0.23203 0.92301 0.0
C796 C 0.17264 0.23069 0.90486 0.0
H797 H 1.03545 0.17937 0.88531 0.0
H798 H 0.05681 0.20798 0.92914 0.0
H799 H 0.09754 0.23225 0.95012 0.0
O800 O 0.13421 0.12232 0.83101 0.0
O801 O 0.12808 0.20048 0.82019 0.0
O802 O 0.15963 0.23019 0.79747 0.0
O803 O 0.14989 0.13718 0.87535 0.0
O804 O 0.19553 0.16099 0.85509 0.0
O805 O 0.22288 0.18691 0.82168 0.0
O806 O 0.22809 0.23374 0.7704 0.0
O807 O 0.19814 0.16119 0.76107 0.0
O808 O 0.17282 0.13381 0.79534 0.0
O809 O 0.20598 0.23565 0.81544 0.0
O810 O 0.15656 0.20031 0.76043 0.0
O811 O 0.13861 0.16053 0.78258 0.0
C812 C 0.13455 0.22588 0.81043 0.0
C813 C 0.10973 0.10854 0.87732 0.0
C814 C 0.08154 0.10077 0.92517 0.0
C815 C 0.0598 0.09164 0.90554 0.0
C816 C 0.08802 0.09802 0.85844 0.0
C817 C 0.06315 0.0901 0.87244 0.0
C818 C 0.10655 0.10928 0.91096 0.0
C819 C 0.22002 0.17199 0.84815 0.0
C820 C 0.1356 0.118 0.86159 0.0
C821 C 0.07672 0.20493 0.91763 0.0
C822 C 0.09995 0.21874 0.92959 0.0
C823 C 0.18773 0.13661 0.76854 0.0
C824 C 0.21671 0.27808 0.78982 0.0
C825 C 0.20938 0.31611 0.75201 0.0
C826 C 0.20303 0.33359 0.77797 0.0
C827 C 0.21033 0.29585 0.81535 0.0
C828 C 0.21673 0.28858 0.75836 0.0
C829 C 0.20369 0.32351 0.8094 0.0
C830 C 0.14019 0.1789 0.75933 0.0
C831 C 0.22254 0.24852 0.79571 0.0
H832 H 1.04048 0.08482 0.91595 0.0
H833 H 0.08999 0.09633 0.83263 0.0
H834 H 1.04647 0.08252 0.85757 0.0
H835 H 0.12333 0.11646 0.92602 0.0
H836 H 0.19765 0.35506 0.77404 0.0
H837 H 0.2103 0.28831 0.83982 0.0
H838 H 0.22154 0.27501 0.73851 0.0
H839 H 0.19875 0.33712 0.82921 0.0
Tb840 Tb 0.70252 0.3984 0.08959 0.0
C841 C 0.67531 0.48108 0.97502 0.0
N842 N 0.67969 0.481 1.00725 0.0
C843 C 0.70528 0.52311 1.00274 0.0
C844 C 0.68638 0.50179 0.95523 0.0
C845 C 0.69371 0.50221 0.02144 0.0
C846 C 0.70188 0.52274 0.96946 0.0
C847 C 0.65176 0.4612 0.92928 0.0
C848 C 0.65834 0.46108 0.96222 0.0
C849 C 0.66366 0.48107 0.90914 0.0
C850 C 0.68096 0.50132 0.9221 0.0
Tb851 Tb 0.66088 0.4447 0.03483 0.0
N852 N 0.64673 0.4427 0.98258 0.0
C853 C 0.63272 0.44193 0.91782 0.0
C854 C 0.62727 0.42462 0.97179 0.0
C855 C 0.62018 0.42377 0.93926 0.0
H856 H 0.69682 0.50273 0.04703 0.0
H857 H 0.60493 0.40924 0.9308 0.0
H858 H 0.719 0.33477 0.06879 0.0
H859 H 0.61662 0.43545 0.16373 0.0
H860 H 0.61718 0.41083 0.98829 0.0
H861 H 0.62703 0.44138 0.89267 0.0
H862 H 0.64889 0.43836 0.11894 0.0
H863 H 0.71686 0.53949 1.01401 0.0
H864 H 0.65906 0.48139 0.8837 0.0
H865 H 0.68947 0.51693 0.90643 0.0
H866 H 0.71381 0.28813 0.09239 0.0
H867 H 0.71077 0.53904 0.95509 0.0
H868 H 0.61409 0.39277 0.19594 0.0
N869 N 0.69483 0.35432 0.10484 0.0
C870 C 0.67919 0.35144 0.1317 0.0
C871 C 0.70395 0.30577 0.10363 0.0
C872 C 0.67552 0.32538 0.14585 0.0
C873 C 0.70671 0.33206 0.09021 0.0
C874 C 0.68859 0.30246 0.1318 0.0
N875 N 0.66694 0.39873 0.12641 0.0
C876 C 0.64921 0.42006 0.13307 0.0
C877 C 0.64573 0.37157 0.16836 0.0
C878 C 0.66463 0.37444 0.14285 0.0
C879 C 0.62895 0.39413 0.17655 0.0
C880 C 0.63033 0.41826 0.15841 0.0
H881 H 0.68635 0.28206 0.142 0.0
H882 H 0.65523 0.30311 0.18413 0.0
H883 H 0.62903 0.34348 0.20375 0.0
O884 O 0.74351 0.38403 0.08872 0.0
O885 O 0.66296 0.37567 0.07627 0.0
O886 O 0.63663 0.4049 0.04418 0.0
O887 O 0.72462 0.39249 0.13355 0.0
O888 O 0.70295 0.44157 0.11063 0.0
O889 O 0.67443 0.46808 0.07861 0.0
O890 O 0.63009 0.47328 0.02214 0.0
O891 O 0.70611 0.44729 0.02019 0.0
O892 O 0.72994 0.41447 0.04972 0.0
O893 O 0.628 0.4512 0.06725 0.0
O894 O 0.66806 0.4047 1.01277 0.0
O895 O 0.7039 0.38251 0.04019 0.0
C896 C 0.63943 0.38109 0.06048 0.0
C897 C 0.7582 0.35549 0.13156 0.0
C898 C 0.77228 0.32457 0.17529 0.0
C899 C 0.78403 0.30649 0.15264 0.0
C900 C 0.77095 0.33719 0.10966 0.0
C901 C 0.78327 0.31276 0.12012 0.0
C902 C 0.75886 0.34894 0.16464 0.0
C903 C 0.69017 0.46547 0.10455 0.0
C904 C 0.7461 0.38191 0.11946 0.0
C905 C 0.65811 0.32292 0.17264 0.0
C906 C 0.64322 0.34594 0.18384 0.0
C907 C 0.72913 0.43265 0.02568 0.0
C908 C 0.58559 0.46012 0.03956 0.0
C909 C 0.54835 0.45257 1.00053 0.0
C910 C 0.53047 0.44601 0.02602 0.0
C911 C 0.56737 0.45345 0.06451 0.0
C912 C 0.57575 0.46003 1.00772 0.0
C913 C 0.53995 0.44655 0.05772 0.0
C914 C 0.68766 0.38582 1.01496 0.0
C915 C 0.61475 0.46706 0.04675 0.0
H916 H 0.79413 0.28753 0.16022 0.0
H917 H 0.7714 0.34164 0.08421 0.0
H918 H 0.79266 0.29879 0.10294 0.0
H919 H 0.74989 0.36306 0.18198 0.0
H920 H 0.50908 0.44067 0.02154 0.0
H921 H 0.57436 0.45356 0.08922 0.0
H922 H 0.58961 0.4652 0.98832 0.0
H923 H 0.52598 0.44149 0.0771 0.0
Tb924 Tb 0.46191 0.94955 0.33423 0.0
C925 C 0.38488 0.9191 0.21632 0.0
N926 N 0.38342 0.92546 0.24803 0.0
C927 C 0.34176 0.95175 0.23841 0.0
C928 C 0.3652 0.92936 0.19424 0.0
C929 C 0.36163 0.94087 0.25947 0.0
C930 C 0.3437 0.94623 0.20561 0.0
C931 C 0.40674 0.89229 0.17418 0.0
C932 C 0.40535 0.90096 0.20642 0.0
C933 C 0.38791 0.90329 0.15175 0.0
C934 C 0.36719 0.92183 0.16176 0.0
Tb935 Tb 0.41838 0.90782 0.27966 0.0
N936 N 0.42271 0.89036 0.22894 0.0
C937 C 0.42643 0.8722 0.16571 0.0
C938 C 0.44122 0.86998 0.22106 0.0
C939 C 0.44353 0.86077 0.18936 0.0
H940 H 0.35991 0.94569 0.28463 0.0
H941 H 0.45838 0.84476 0.18325 0.0
H942 H 0.52372 0.97399 0.31838 0.0
H943 H 0.42965 0.86267 0.40869 0.0
H944 H 0.45422 0.86074 0.2392 0.0
H945 H 0.4281 0.86489 0.14122 0.0
H946 H 0.42396 0.89589 0.36531 0.0
H947 H 0.32494 0.96443 0.24751 0.0
H948 H 0.38877 0.89708 0.12679 0.0
H949 H 0.3524 0.92967 0.14436 0.0
H950 H 0.5708 0.97058 0.34221 0.0
H951 H 0.32818 0.95458 0.18942 0.0
H952 H 0.47336 0.86057 0.43946 0.0
N953 N 0.50622 0.9461 0.35173 0.0
C954 C 0.51035 0.92885 0.37717 0.0
C955 C 0.55396 0.95878 0.35221 0.0
C956 C 0.53671 0.9262 0.39135 0.0
C957 C 0.52747 0.96062 0.33871 0.0
C958 C 0.55857 0.94166 0.37876 0.0
N959 N 0.46319 0.91483 0.37206 0.0
C960 C 0.4428 0.89632 0.37874 0.0
C961 C 0.49244 0.8935 0.41256 0.0
C962 C 0.48811 0.91293 0.38783 0.0
C963 C 0.47083 0.87582 0.42066 0.0
C964 C 0.44612 0.87696 0.40334 0.0
H965 H 0.57916 0.9402 0.38904 0.0
H966 H 0.56063 0.90556 0.42838 0.0
H967 H 0.52205 0.87683 0.44676 0.0
O968 O 0.45482 0.99254 0.3357 0.0
O969 O 0.48718 0.91095 0.3218 0.0
O970 O 0.45794 0.88309 0.29239 0.0
O971 O 0.47685 0.973 0.37343 0.0
O972 O 0.41965 0.94617 0.35689 0.0
O973 O 0.39209 0.92401 0.3204 0.0
O974 O 0.38918 0.87778 0.26861 0.0
O975 O 0.41654 0.9523 0.26261 0.0
O976 O 0.45026 0.97556 0.29074 0.0
O977 O 0.4116 0.87652 0.31371 0.0
O978 O 0.45892 0.91407 0.25828 0.0
O979 O 0.48088 0.94945 0.28611 0.0
C980 C 0.48206 0.8866 0.30807 0.0
C981 C 0.49143 1.01762 0.35982 0.0
C982 C 0.52474 1.04644 0.3882 0.0
C983 C 0.53235 0.05845 0.35887 0.0
C984 C 0.49954 1.02967 0.33067 0.0
C985 C 0.5199 1.04996 0.3303 0.0
C986 C 0.50427 1.02597 0.38843 0.0
C987 C 0.39501 0.93666 0.34842 0.0
C988 C 0.4698 0.99629 0.36106 0.0
C989 C 0.54053 0.90782 0.41702 0.0
C990 C 0.5185 0.8915 0.42754 0.0
C991 C 0.43189 0.97475 0.26674 0.0
C992 C 0.40211 0.83376 0.28787 0.0
C993 C 0.40882 0.79558 0.25011 0.0
C994 C 0.41636 0.7784 0.27593 0.0
C995 C 0.40962 0.81625 0.31327 0.0
C996 C 0.40136 0.82309 0.25648 0.0
C997 C 0.41661 0.78869 0.30727 0.0
C998 C 0.47814 0.93296 0.26101 0.0
C999 C 0.39541 0.86314 0.2939 0.0
H1000 H 0.54812 0.07418 0.35804 0.0
H1001 H 0.49029 1.02338 0.30819 0.0
H1002 H 0.52605 0.05916 0.30777 0.0
H1003 H 0.49797 1.01682 0.41099 0.0
H1004 H 0.42191 0.75698 0.27196 0.0
H1005 H 0.4102 0.82391 0.33768 0.0
H1006 H 0.3957 0.83643 0.23668 0.0
H1007 H 0.4224 0.77529 0.32698 0.0
Tb1008 Tb 0.15558 0.44328 0.50576 0.0
C1009 C 0.17674 0.35018 0.40984 0.0
N1010 N 0.19119 0.35314 0.43759 0.0
C1011 C 0.20035 0.30458 0.43937 0.0
C1012 C 0.17385 0.32412 0.39542 0.0
C1013 C 0.20243 0.33088 0.45297 0.0
C1014 C 0.18638 0.30125 0.41022 0.0
C1015 C 0.1445 0.37009 0.37153 0.0
C1016 C 0.16239 0.37304 0.39803 0.0
C1017 C 0.14291 0.34452 0.35575 0.0
C1018 C 0.1576 0.3216 0.36763 0.0
Tb1019 Tb 0.19854 0.39737 0.45269 0.0
N1020 N 0.16383 0.39726 0.41473 0.0
C1021 C 0.1278 0.39251 0.36262 0.0
C1022 C 0.14618 0.41846 0.40726 0.0
C1023 C 0.12824 0.41657 0.38097 0.0
H1024 H 0.21381 0.33361 0.47508 0.0
H1025 H 0.11459 0.43366 0.37503 0.0
H1026 H 0.19133 0.50152 0.49439 0.0
H1027 H 0.098 0.40759 0.60838 0.0
H1028 H 0.14526 0.43675 0.42139 0.0
H1029 H 0.11369 0.39108 0.34247 0.0
H1030 H 0.11143 0.409 0.5513 0.0
H1031 H 0.20977 0.28697 0.45119 0.0
H1032 H 0.12957 0.34199 0.33506 0.0
H1033 H 0.15539 0.3018 0.35589 0.0
H1034 H 0.21033 0.5386 0.52779 0.0
H1035 H 0.18473 0.28085 0.39983 0.0
H1036 H 0.11894 0.44015 0.64695 0.0
N1037 N 0.17354 0.47982 0.53375 0.0
C1038 C 0.16848 0.47999 0.56583 0.0
C1039 C 0.19866 0.52217 0.5388 0.0
C1040 C 0.17895 0.50088 0.58584 0.0
C1041 C 0.18767 0.50108 0.51988 0.0
C1042 C 0.19455 0.52192 0.57196 0.0
N1043 N 0.14046 0.44128 0.55764 0.0
C1044 C 0.121 0.42302 0.56797 0.0
C1045 C 0.1442 0.46007 0.61097 0.0
C1046 C 0.15145 0.45987 0.57823 0.0
C1047 C 0.12514 0.44065 0.62198 0.0
C1048 C 0.11325 0.42225 0.60028 0.0
H1049 H 0.203 0.53835 0.5865 0.0
H1050 H 0.18089 0.51625 0.63462 0.0
H1051 H 0.15037 0.48051 0.65664 0.0
O1052 O 0.12438 0.47172 0.51735 0.0
O1053 O 0.20053 0.44628 0.52209 0.0
O1054 O 0.2257 0.41466 0.49233 0.0
O1055 O 0.12327 0.44936 0.4724 0.0
O1056 O 0.16211 0.40311 0.5276 0.0
O1057 O 0.20014 0.38291 0.50261 0.0
O1058 O 0.22208 0.39448 0.40958 0.0
O1059 O 0.15864 0.37434 0.4645 0.0
O1060 O 0.13153 0.40332 0.49585 0.0
O1061 O 0.23838 0.37995 0.45385 0.0
O1062 O 0.19927 0.44053 0.43147 0.0
O1063 O 0.16965 0.46678 0.4623 0.0
C1064 C 0.22419 0.43264 0.51659 0.0
C1065 C 0.08046 0.45722 0.49952 0.0
C1066 C 1.04338 0.44933 0.53849 0.0
C1067 C 1.02627 0.44017 0.51339 0.0
C1068 C 0.06299 0.44811 0.47486 0.0
C1069 C 1.03602 0.43974 0.48181 0.0
C1070 C 0.07025 0.45821 0.53114 0.0
C1071 C 0.18281 0.38541 0.52686 0.0
C1072 C 0.10942 0.46501 0.49256 0.0
C1073 C 0.17286 0.5005 0.61879 0.0
C1074 C 0.15549 0.48014 0.63134 0.0
C1075 C 0.13468 0.3795 0.47958 0.0
C1076 C 0.2522 0.35473 0.40811 0.0
C1077 C 0.25957 0.32472 0.36169 0.0
C1078 C 0.27155 0.30474 0.38181 0.0
C1079 C 0.26529 0.33463 0.42749 0.0
C1080 C 0.24973 0.34975 0.37482 0.0
C1081 C 0.27446 0.30974 0.41448 0.0
C1082 C 0.18606 0.46432 0.43693 0.0
C1083 C 0.24206 0.38075 0.42317 0.0
H1084 H 1.00531 0.43352 0.5181 0.0
H1085 H 0.07027 0.44728 0.45029 0.0
H1086 H 1.02267 0.4327 0.46266 0.0
H1087 H 0.08355 0.46514 0.55038 0.0
H1088 H 0.27926 0.28543 0.37203 0.0
H1089 H 0.26816 0.33794 0.45297 0.0
H1090 H 0.24049 0.3652 0.35925 0.0
H1091 H 0.2841 0.29435 0.42977 0.0
Tb1092 Tb 0.92095 0.91029 0.25946 0.0
C1093 C 1.0146 0.92959 0.16269 0.0
N1094 N 1.00966 0.94736 0.18745 0.0
C1095 C 0.0572 0.96077 0.188 0.0
C1096 C 1.04127 0.92704 0.14938 0.0
C1097 C 1.0304 0.96254 0.20061 0.0
C1098 C 0.06263 0.94309 0.16217 0.0
C1099 C 0.9979 0.89335 0.12765 0.0
C1100 C 0.9928 0.91318 0.15173 0.0
C1101 C 1.02429 0.89141 0.11353 0.0
C1102 C 1.04588 0.90821 0.12432 0.0
Tb1103 Tb 0.96498 0.95029 0.20379 0.0
N1104 N 0.96757 0.91497 0.16679 0.0
C1105 C 0.97671 0.8752 0.11941 0.0
C1106 C 0.94756 0.89605 0.16 0.0
C1107 C 0.95165 0.87629 0.13599 0.0
H1108 H 1.02602 0.97636 0.22036 0.0
H1109 H 0.9355 0.86166 0.13054 0.0
H1110 H 0.86226 0.94769 0.25428 0.0
H1111 H 0.96097 0.84801 0.35668 0.0
H1112 H 0.92844 0.89562 0.17292 0.0
H1113 H 0.97984 0.85962 0.10109 0.0
H1114 H 0.95616 0.86293 0.30043 0.0
H1115 H 0.07364 0.97306 0.19813 0.0
H1116 H 1.02844 0.87642 0.09483 0.0
H1117 H 0.06624 0.90601 0.11363 0.0
H1118 H 0.82785 0.96743 0.29136 0.0
H1119 H 0.08345 0.94171 0.15256 0.0
H1120 H 0.93179 0.86953 0.39874 0.0
N1121 N 0.88636 0.92849 0.29115 0.0
C1122 C 0.8882 0.92281 0.32298 0.0
C1123 C 0.8448 0.95498 0.30059 0.0
C1124 C 0.86885 0.93361 0.34507 0.0
C1125 C 0.86436 0.94356 0.27957 0.0
C1126 C 0.84723 0.95028 0.33353 0.0
N1127 N 0.92544 0.8934 0.31047 0.0
C1128 C 0.94363 0.87277 0.31853 0.0
C1129 C 0.91033 0.89659 0.36546 0.0
C1130 C 0.90859 0.90466 0.33302 0.0
C1131 C 0.92983 0.87637 0.37409 0.0
C1132 C 0.94631 0.86416 0.35042 0.0
H1133 H 0.83196 0.95904 0.34971 0.0
H1134 H 0.85676 0.93507 0.39513 0.0
H1135 H 0.89312 0.90255 0.41301 0.0
O1136 O 0.89146 0.88066 0.27074 0.0
O1137 O 0.91875 0.95546 0.27387 0.0
O1138 O 0.95444 0.97697 0.24725 0.0
O1139 O 0.91335 0.8793 0.22527 0.0
O1140 O 0.96173 0.9164 0.28063 0.0
O1141 O 0.98374 0.95132 0.25212 0.0
O1142 O 0.95505 0.99268 0.19912 0.0
O1143 O 0.98946 0.91145 0.21697 0.0
O1144 O 0.96008 0.8847 0.24743 0.0
O1145 O 0.98076 0.9731 0.1647 0.0
O1146 O 0.92309 0.94511 0.18057 0.0
O1147 O 0.89471 0.92613 0.21851 0.0
C1148 C 0.93522 0.9772 0.2704 0.0
C1149 C 0.90286 0.83655 0.25056 0.0
C1150 C 0.90835 0.79757 0.28744 0.0
C1151 C 0.91431 0.78036 0.26113 0.0
C1152 C 0.90873 0.81901 0.22465 0.0
C1153 C 0.91438 0.79105 0.22997 0.0
C1154 C 0.90245 0.82555 0.2818 0.0
C1155 C 0.98111 0.93511 0.27752 0.0
C1156 C 0.89702 0.86616 0.24513 0.0
C1157 C 0.87126 0.92677 0.37773 0.0
C1158 C 0.89196 0.90826 0.38791 0.0
C1159 C 0.98412 0.88754 0.23149 0.0
C1160 C 0.99114 1.01919 0.17573 0.0
C1161 C 1.02196 1.05037 0.14695 0.0
C1162 C 1.0296 0.06233 0.17631 0.0
C1163 C 0.99953 1.03099 0.20487 0.0
C1164 C 1.0026 1.02882 0.14689 0.0
C1165 C 1.01853 1.05255 0.20508 0.0
C1166 C 0.89819 0.93664 0.18943 0.0
C1167 C 0.97118 0.99632 0.17468 0.0
H1168 H 0.91869 0.75862 0.26459 0.0
H1169 H 0.90898 0.82693 0.20034 0.0
H1170 H 0.9189 0.77763 0.20986 0.0
H1171 H 0.89809 0.8389 0.30201 0.0
H1172 H 1.04454 0.07885 0.17706 0.0
H1173 H 0.99167 1.02337 0.22742 0.0
H1174 H 0.99631 1.01962 0.12435 0.0
H1175 H 1.02487 0.06158 0.22764 0.0
Tb1176 Tb 0.45386 0.66483 1.00732 0.0
C1177 C 0.43906 0.7558 0.90787 0.0
N1178 N 0.42431 0.75431 0.93558 0.0
C1179 C 0.4203 0.8036 0.93728 0.0
C1180 C 0.44445 0.78141 0.89332 0.0
C1181 C 0.41573 0.77774 0.95105 0.0
C1182 C 0.43427 0.80543 0.90799 0.0
C1183 C 0.47063 0.73319 0.87088 0.0
C1184 C 0.45211 0.73187 0.89699 0.0
C1185 C 0.47417 0.75827 0.85455 0.0
C1186 C 0.46116 0.78235 0.86579 0.0
Tb1187 Tb 0.41375 0.71062 0.95152 0.0
N1188 N 0.44945 0.70835 0.91481 0.0
C1189 C 0.48626 0.70972 0.86316 0.0
C1190 C 0.46616 0.68614 0.90849 0.0
C1191 C 0.48441 0.68632 0.88245 0.0
H1192 H 0.40461 0.77633 0.9735 0.0
H1193 H 0.49728 0.66842 0.87748 0.0
H1194 H 0.41516 0.60843 0.99701 0.0
H1195 H 0.51002 0.70166 0.11064 0.0
H1196 H 0.4661 0.6683 0.92333 0.0
H1197 H 0.50074 0.70988 0.84332 0.0
H1198 H 0.49788 0.6992 0.05328 0.0
H1199 H 0.41299 0.82211 0.94919 0.0
H1200 H 0.48803 0.75954 0.83418 0.0
H1201 H 0.46521 0.80178 0.85394 0.0
H1202 H 0.394 0.57302 0.03108 0.0
H1203 H 0.43802 0.82552 0.89758 0.0
H1204 H 0.48752 0.67049 0.14951 0.0
N1205 N 0.43367 0.62997 0.03607 0.0
C1206 C 0.43836 0.63024 0.06823 0.0
C1207 C 0.40638 0.58907 0.04184 0.0
C1208 C 0.42665 0.61032 0.08862 0.0
C1209 C 0.4186 0.60918 0.02254 0.0
C1210 C 0.41018 0.58978 0.07505 0.0
N1211 N 0.46797 0.66768 0.05958 0.0
C1212 C 0.48755 0.6858 0.07 0.0
C1213 C 0.46252 0.65037 0.11339 0.0
C1214 C 0.45597 0.64996 0.08044 0.0
C1215 C 0.48186 0.66954 0.12438 0.0
C1216 C 0.49462 0.68715 0.10251 0.0
H1217 H 0.40076 0.57411 0.08989 0.0
H1218 H 0.42326 0.59621 0.13781 0.0
H1219 H 0.45474 0.6313 0.15951 0.0
O1220 O 0.48362 0.63553 0.02082 0.0
O1221 O 0.40879 0.6646 0.02313 0.0
O1222 O 0.38463 0.69544 0.99094 0.0
O1223 O 0.48637 0.65637 0.97496 0.0
O1224 O 0.44851 0.70627 0.02629 0.0
O1225 O 0.40996 0.72534 1.00119 0.0
O1226 O 0.3899 0.70531 0.90952 0.0
O1227 O 0.45524 0.73116 0.96231 0.0
O1228 O 0.47969 0.70372 0.99793 0.0
O1229 O 0.37925 0.73656 0.94343 0.0
O1230 O 0.41167 0.66707 0.93185 0.0
O1231 O 0.43989 0.64059 0.96407 0.0
C1232 C 0.38542 0.67831 1.01625 0.0
C1233 C 0.52851 0.64611 1.00252 0.0
C1234 C 0.5662 0.65273 0.04109 0.0
C1235 C 0.58453 0.6569 1.01534 0.0
C1236 C 0.54713 0.65033 0.97724 0.0
C1237 C 0.575 0.65564 0.98368 0.0
C1238 C 0.53833 0.64708 0.0343 0.0
C1239 C 0.42767 0.72381 0.02525 0.0
C1240 C 0.49903 0.64042 0.99583 0.0
C1241 C 0.43223 0.61122 0.1217 0.0
C1242 C 0.45014 0.63121 0.13406 0.0
C1243 C 0.47818 0.72644 0.97945 0.0
C1244 C 0.34369 0.72201 0.90886 0.0
C1245 C 0.30424 0.73437 0.87471 0.0
C1246 C 0.28707 0.71841 0.89455 0.0
C1247 C 0.32636 0.70622 0.92837 0.0
C1248 C 0.33266 0.73579 0.8821 0.0
C1249 C 0.29813 0.70441 0.92112 0.0
C1250 C 0.42395 0.643 0.9382 0.0
C1251 C 0.37318 0.72561 0.9161 0.0
H1252 H 0.60626 0.66089 1.0196 0.0
H1253 H 0.54013 0.6495 0.95255 0.0
H1254 H 0.58929 0.65883 0.96405 0.0
H1255 H 0.52411 0.6439 0.05395 0.0
H1256 H 0.26506 0.71701 0.88986 0.0
H1257 H 0.33459 0.69552 0.94916 0.0
H1258 H 0.34645 0.74753 0.86692 0.0
H1259 H 0.28471 0.6923 0.93628 0.0
Tb1260 Tb 0.69789 0.20164 0.76419 0.0
C1261 C 0.60386 0.18159 0.6599 0.0
N1262 N 0.6055 0.16591 0.68684 0.0
C1263 C 0.55672 0.15748 0.68453 0.0
C1264 C 0.57841 0.18557 0.6439 0.0
C1265 C 0.58241 0.15433 0.69975 0.0
C1266 C 0.55477 0.17288 0.65626 0.0
C1267 C 0.62574 0.21436 0.62432 0.0
C1268 C 0.6274 0.19556 0.65008 0.0
C1269 C 0.60082 0.21718 0.60709 0.0
C1270 C 0.57723 0.20278 0.61683 0.0
Tb1271 Tb 0.64904 0.15807 0.70558 0.0
N1272 N 0.65094 0.19293 0.66808 0.0
C1273 C 0.64867 0.23082 0.61773 0.0
C1274 C 0.67229 0.21078 0.66338 0.0
C1275 C 0.67176 0.22948 0.63783 0.0
H1276 H 0.58391 0.1418 0.72112 0.0
H1277 H 0.68904 0.24317 0.63398 0.0
H1278 H 0.75767 0.16937 0.77179 0.0
H1279 H 0.63752 0.2603 0.85153 0.0
H1280 H 0.68952 0.21139 0.67945 0.0
H1281 H 0.64821 0.24559 0.59822 0.0
H1282 H 0.65254 0.24802 0.79778 0.0
H1283 H 0.53851 0.14782 0.69444 0.0
H1284 H 0.5993 0.23125 0.58696 0.0
H1285 H 0.55793 0.20586 0.60395 0.0
H1286 H 0.78699 0.15113 0.816 0.0
H1287 H 0.53483 0.17535 0.6446 0.0
H1288 H 0.66031 0.23951 0.89889 0.0
N1289 N 0.72692 0.18568 0.80313 0.0
C1290 C 0.71942 0.19098 0.83379 0.0
C1291 C 0.76795 0.16216 0.82134 0.0
C1292 C 0.73537 0.18103 0.85974 0.0
C1293 C 0.75143 0.17253 0.79644 0.0
C1294 C 0.75965 0.16604 0.85315 0.0
N1295 N 0.6829 0.21821 0.81309 0.0
C1296 C 0.6625 0.2377 0.81749 0.0
C1297 C 0.68891 0.21498 0.87059 0.0
C1298 C 0.69661 0.2078 0.83899 0.0
C1299 C 0.66693 0.23353 0.87503 0.0
C1300 C 0.654 0.24525 0.84836 0.0
H1301 H 0.77249 0.15805 0.87242 0.0
H1302 H 0.73884 0.17939 0.91155 0.0
H1303 H 0.698 0.20905 0.92108 0.0
O1304 O 0.73075 0.22814 0.77342 0.0
O1305 O 0.70121 0.15566 0.77681 0.0
O1306 O 0.67037 0.13082 0.7441 0.0
O1307 O 0.70684 0.2322 0.72975 0.0
O1308 O 0.66208 0.18075 0.75503 0.0
O1309 O 0.62597 0.1579 0.75141 0.0
O1310 O 0.63415 0.11765 0.70578 0.0
O1311 O 0.62853 0.20052 0.71666 0.0
O1312 O 0.65822 0.22645 0.75001 0.0
O1313 O 0.64765 0.13555 0.66188 0.0
O1314 O 0.69395 0.16065 0.68773 0.0
O1315 O 0.72309 0.18441 0.72308 0.0
C1316 C 0.68812 0.13205 0.76914 0.0
C1317 C 0.72245 0.27318 0.75494 0.0
C1318 C 0.71688 0.31095 0.7933 0.0
C1319 C 0.7194 0.32993 0.76798 0.0
C1320 C 0.72505 0.29236 0.73001 0.0
C1321 C 0.72341 0.32062 0.73654 0.0
C1322 C 0.71805 0.28265 0.78642 0.0
C1323 C 0.64062 0.1721 0.77083 0.0
C1324 C 0.72534 0.24342 0.74844 0.0
C1325 C 0.72705 0.18708 0.89125 0.0
C1326 C 0.70382 0.204 0.89666 0.0
C1327 C 0.63441 0.22406 0.73261 0.0
C1328 C 0.61018 0.10362 0.65916 0.0
C1329 C 0.5829 0.09395 0.6111 0.0
C1330 C 0.56161 0.08362 0.63048 0.0
C1331 C 0.589 0.09193 0.67788 0.0
C1332 C 0.60722 0.104 0.6255 0.0
C1333 C 0.56479 0.08244 0.66363 0.0
C1334 C 0.71892 0.17109 0.69536 0.0
C1335 C 0.63536 0.11468 0.67493 0.0
H1336 H 0.71875 0.35191 0.77254 0.0
H1337 H 0.72855 0.2855 0.7056 0.0
H1338 H 0.72554 0.33536 0.71723 0.0
H1339 H 0.7156 0.26797 0.80578 0.0
H1340 H 0.54281 0.07568 0.61983 0.0
H1341 H 0.59087 0.09052 0.70372 0.0
H1342 H 0.62363 0.11211 0.61059 0.0
H1343 H 0.54849 0.07395 0.67835 0.0
H1344 H 0.49971 0.25955 0.10411 0.0
H1345 H 0.51761 0.24348 1.00493 0.0
H1346 H 0.53606 0.29465 0.10543 0.0
H1347 H 0.55338 0.27949 1.00585 0.0
H1348 H 0.59964 0.36824 1.01203 0.0
H1349 H 0.56415 0.33203 1.00983 0.0
H1350 H 0.5881 0.30478 0.10402 0.0
H1351 H 0.62423 0.34012 0.10558 0.0
C1352 C 0.51107 0.26334 0.08224 0.0
C1353 C 0.5045 0.2476 0.05438 0.0
C1354 C 0.53254 0.28392 0.08304 0.0
C1355 C 0.54875 0.29118 0.05576 0.0
C1356 C 0.54202 0.2756 0.02773 0.0
C1357 C 0.52107 0.25438 0.02721 0.0
C1358 C 0.59768 0.35466 0.03247 0.0
C1359 C 0.61599 0.35823 0.05905 0.0
C1360 C 0.57691 0.3333 0.03113 0.0
C1361 C 0.57207 0.31433 0.05671 0.0
C1362 C 0.59009 0.31825 0.08347 0.0
C1363 C 0.61142 0.33898 0.08435 0.0
H1364 H 0.61072 0.75275 0.36228 0.0
H1365 H 0.61863 0.75826 0.25995 0.0
H1366 H 0.57473 0.78902 0.36126 0.0
H1367 H 0.58181 0.7938 0.25869 0.0
H1368 H 0.49334 0.84186 0.26483 0.0
H1369 H 0.53012 0.80634 0.26516 0.0
H1370 H 0.56202 0.8397 0.35308 0.0
H1371 H 0.52606 0.87583 0.35189 0.0
C1372 C 0.605 0.76139 0.33928 0.0
C1373 C 0.61888 0.75144 0.31128 0.0
C1374 C 0.58386 0.7828 0.33866 0.0
C1375 C 0.57404 0.79555 0.30985 0.0
C1376 C 0.58769 0.78533 0.28176 0.0
C1377 C 0.60945 0.76451 0.2825 0.0
C1378 C 0.50804 0.84206 0.2844 0.0
C1379 C 0.50545 0.86303 0.30832 0.0
C1380 C 0.52978 0.82119 0.28454 0.0
C1381 C 0.5503 0.81887 0.30921 0.0
C1382 C 0.54739 0.83957 0.33339 0.0
C1383 C 0.52622 0.86093 0.33266 0.0
H1384 H 0.14049 0.82658 0.56621 0.0
H1385 H 0.07971 0.88965 0.54673 0.0
H1386 H 0.10407 0.79172 0.56694 0.0
H1387 H 1.04301 0.85475 0.54761 0.0
H1388 H 0.97469 0.78825 0.57157 0.0
H1389 H 1.01103 0.82323 0.5704 0.0
H1390 H 0.07105 0.76063 0.54579 0.0
H1391 H 1.03446 0.72567 0.5468 0.0
C1392 C 0.11939 0.83344 0.56199 0.0
C1393 C 0.11427 0.86208 0.55631 0.0
C1394 C 0.09789 0.81284 0.56226 0.0
C1395 C 0.06919 0.81904 0.55732 0.0
C1396 C 0.06406 0.84782 0.55187 0.0
C1397 C 0.08567 0.86841 0.55118 0.0
C1398 C 0.99554 0.78153 0.56582 0.0
C1399 C 1.00042 0.75298 0.5593 0.0
C1400 C 1.01698 0.80219 0.56496 0.0
C1401 C 1.04538 0.79613 0.55794 0.0
C1402 C 1.05026 0.76745 0.55165 0.0
C1403 C 1.0287 0.74682 0.55209 0.0
H1404 H 0.97435 0.33144 0.80785 0.0
H1405 H 1.03772 0.39057 0.82805 0.0
H1406 H 1.00952 0.2945 0.80623 0.0
H1407 H 0.07302 0.35378 0.82604 0.0
H1408 H 0.13877 0.28382 0.79914 0.0
H1409 H 0.10369 0.32089 0.80152 0.0
H1410 H 1.04181 0.26153 0.82701 0.0
H1411 H 0.07696 0.22469 0.82492 0.0
C1412 C 0.99572 0.33697 0.8121 0.0
C1413 C 1.00199 0.3652 0.81826 0.0
C1414 C 1.01649 0.31519 0.81123 0.0
C1415 C 1.04549 0.31973 0.81589 0.0
C1416 C 1.0517 0.34807 0.82189 0.0
C1417 C 1.03087 0.36977 0.82326 0.0
C1418 C 0.11775 0.27829 0.80533 0.0
C1419 C 0.11186 0.25002 0.81175 0.0
C1420 C 0.09707 0.30014 0.80689 0.0
C1421 C 0.06853 0.29562 0.81449 0.0
C1422 C 0.06272 0.26724 0.8207 0.0
C1423 C 0.08348 0.24548 0.81963 0.0
H1424 H 0.60081 0.86514 0.03092 0.0
H1425 H 0.61934 0.84662 0.9325 0.0
H1426 H 0.565 0.82914 0.03092 0.0
H1427 H 0.58296 0.81149 0.93206 0.0
H1428 H 0.49537 0.76486 0.9321 0.0
H1429 H 0.53167 0.80007 0.93265 0.0
H1430 H 0.55267 0.77755 0.0294 0.0
H1431 H 0.51695 0.74151 0.02832 0.0
C1432 C 0.5974 0.85379 1.00894 0.0
C1433 C 0.61415 0.86002 0.98169 0.0
C1434 C 0.57644 0.8325 1.00897 0.0
C1435 C 0.56979 0.81618 0.98145 0.0
C1436 C 0.58627 0.8228 0.9541 0.0
C1437 C 0.60777 0.84344 0.95437 0.0
C1438 C 0.50755 0.76701 0.95371 0.0
C1439 C 0.50202 0.74908 0.98009 0.0
C1440 C 0.52902 0.78769 0.95401 0.0
C1441 C 0.54634 0.79296 0.98112 0.0
C1442 C 0.54055 0.77528 1.00772 0.0
C1443 C 0.51962 0.75397 1.00705 0.0
H1444 H 0.53712 0.38853 0.72006 0.0
H1445 H 0.47399 0.32896 0.7394 0.0
H1446 H 0.57259 0.35186 0.72151 0.0
H1447 H 0.50938 0.29205 0.74009 0.0
H1448 H 0.57774 0.22388 0.71452 0.0
H1449 H 0.54235 0.26057 0.71419 0.0
H1450 H 0.60256 0.31815 0.74894 0.0
H1451 H 0.63787 0.28113 0.74997 0.0
C1452 C 0.53038 0.36767 0.72461 0.0
C1453 C 0.50154 0.36293 0.72964 0.0
C1454 C 0.55128 0.34607 0.72559 0.0
C1455 C 0.54516 0.31765 0.73095 0.0
C1456 C 0.51621 0.31289 0.73562 0.0
C1457 C 0.49536 0.33461 0.73534 0.0
C1458 C 0.58385 0.24424 0.72231 0.0
C1459 C 0.61182 0.24829 0.73239 0.0
C1460 C 0.56295 0.26585 0.72223 0.0
C1461 C 0.56828 0.29367 0.73151 0.0
C1462 C 0.59641 0.2978 0.74124 0.0
C1463 C 0.61719 0.27599 0.742 0.0
H1464 H 1.00246 0.24954 0.43056 0.0
H1465 H 1.00463 0.24817 0.53348 0.0
H1466 H 1.03858 0.28499 0.43009 0.0
H1467 H 1.04019 0.28434 0.53315 0.0
H1468 H 0.08991 0.37001 0.52325 0.0
H1469 H 1.05437 0.33387 0.52441 0.0
H1470 H 0.08794 0.29917 0.43778 0.0
H1471 H 0.12396 0.33463 0.43735 0.0
C1472 C 1.01035 0.25658 0.4534 0.0
C1473 C 0.99951 0.24464 0.48204 0.0
C1474 C 1.03171 0.27742 0.45315 0.0
C1475 C 1.04361 0.28887 0.48157 0.0
C1476 C 1.03246 0.27717 0.51027 0.0
C1477 C 1.01164 0.25575 0.51048 0.0
C1478 C 0.09014 0.35478 0.50429 0.0
C1479 C 0.11115 0.35645 0.48023 0.0
C1480 C 0.06926 0.33342 0.50501 0.0
C1481 C 0.06696 0.31228 0.4812 0.0
C1482 C 0.08773 0.31428 0.45688 0.0
C1483 C 0.10906 0.33514 0.45669 0.0
H1484 H 0.11935 0.75815 0.28092 0.0
H1485 H 0.11116 0.7522 0.17862 0.0
H1486 H 0.08285 0.79404 0.28194 0.0
H1487 H 0.07553 0.7888 0.1794 0.0
H1488 H 1.02822 0.87621 0.18822 0.0
H1489 H 0.06372 0.83971 0.1874 0.0
H1490 H 1.03107 0.80685 0.27513 0.0
H1491 H 0.99465 0.84276 0.27505 0.0
C1492 C 0.11018 0.76437 0.25834 0.0
C1493 C 0.11941 0.75111 0.22963 0.0
C1494 C 0.08861 0.78539 0.25894 0.0
C1495 C 0.07503 0.79557 0.23077 0.0
C1496 C 0.08466 0.78261 0.20204 0.0
C1497 C 0.10558 0.76102 0.20156 0.0
C1498 C 1.02807 0.86133 0.20746 0.0
C1499 C 1.00719 0.86368 0.23159 0.0
C1500 C 1.04898 0.83976 0.20696 0.0
C1501 C 1.05155 0.8191 0.23121 0.0
C1502 C 1.03096 0.82167 0.25571 0.0
C1503 C 1.00944 0.84276 0.25561 0.0
H1504 H 0.23787 0.13033 0.8926 0.0
H1505 H 0.25989 0.21206 0.86286 0.0
H1506 H 0.27672 0.1302 0.93138 0.0
H1507 H 0.29752 0.21254 0.90276 0.0
H1508 H 0.34343 0.21232 1.00779 0.0
H1509 H 0.3055 0.2113 0.96825 0.0
H1510 H 0.33483 0.13276 0.93408 0.0
H1511 H 0.37393 0.13465 0.97218 0.0
C1512 C 0.25073 0.14847 0.89407 0.0
C1513 C 0.24481 0.1711 0.87323 0.0
C1514 C 0.27349 0.1484 0.91677 0.0
C1515 C 0.29136 0.1714 0.92137 0.0
C1516 C 0.28501 0.19418 0.90097 0.0
C1517 C 0.26301 0.19384 0.87748 0.0
C1518 C 0.34222 0.1947 0.99194 0.0
C1519 C 0.36296 0.17364 0.99434 0.0
C1520 C 0.31997 0.19412 0.96872 0.0
C1521 C 0.31592 0.17189 0.94687 0.0
C1522 C 0.3362 0.15043 0.94985 0.0
C1523 C 0.3591 0.15152 0.97223 0.0
H1524 H 0.73122 0.48263 0.14973 0.0
H1525 H 0.64908 0.50511 0.11896 0.0
H1526 H 0.73045 0.52101 0.18873 0.0
H1527 H 0.64775 0.54241 0.15894 0.0
H1528 H 0.64515 0.59091 0.26063 0.0
H1529 H 0.64654 0.55311 0.22119 0.0
H1530 H 0.72922 0.57589 0.19462 0.0
H1531 H 0.72717 0.61472 0.23261 0.0
C1532 C 0.71279 0.49548 0.15105 0.0
C1533 C 0.69032 0.48983 0.1299 0.0
C1534 C 0.71234 0.51798 0.17385 0.0
C1535 C 0.68896 0.53588 0.17818 0.0
C1536 C 0.66634 0.52982 0.15743 0.0
C1537 C 0.66719 0.50802 0.13389 0.0
C1538 C 0.66373 0.58829 0.24644 0.0
C1539 C 0.68594 0.6071 0.25088 0.0
C1540 C 0.66456 0.56612 0.22329 0.0
C1541 C 0.68806 0.5603 0.20359 0.0
C1542 C 0.71055 0.57866 0.20866 0.0
C1543 C 0.70934 0.60143 0.23096 0.0
H1544 H 0.37964 0.97678 0.39516 0.0
H1545 H 0.35217 0.89849 0.35962 0.0
H1546 H 0.34076 0.97767 0.43366 0.0
H1547 H 0.31436 0.89862 0.39936 0.0
H1548 H 0.2701 0.89748 0.50585 0.0
H1549 H 0.30758 0.89772 0.4659 0.0
H1550 H 0.2819 0.97855 0.43514 0.0
H1551 H 0.24311 0.97754 0.47375 0.0
C1552 C 0.36553 0.95956 0.39529 0.0
C1553 C 0.36997 0.93766 0.37298 0.0
C1554 C 0.34276 0.96008 0.41782 0.0
C1555 C 0.32335 0.93821 0.42074 0.0
C1556 C 0.32813 0.91611 0.39882 0.0
C1557 C 0.35022 0.91609 0.37547 0.0
C1558 C 0.27204 0.91547 0.49069 0.0
C1559 C 0.25247 0.93749 0.49425 0.0
C1560 C 0.29399 0.91557 0.46723 0.0
C1561 C 0.29891 0.93818 0.44624 0.0
C1562 C 0.27977 0.96053 0.45024 0.0
C1563 C 0.25708 0.95997 0.4729 0.0
H1564 H 0.91468 0.64618 0.66877 0.0
H1565 H 0.93165 0.58846 0.59299 0.0
H1566 H 0.91533 0.60832 0.70795 0.0
H1567 H 0.93199 0.55049 0.632 0.0
H1568 H 0.91393 0.47957 0.70691 0.0
H1569 H 0.9124 0.5174 0.6678 0.0
H1570 H 0.9369 0.57431 0.74149 0.0
H1571 H 0.93874 0.5363 0.78044 0.0
C1572 C 0.91833 0.62546 0.65996 0.0
C1573 C 0.92282 0.62155 0.62644 0.0
C1574 C 0.91895 0.60318 0.68304 0.0
C1575 C 0.92372 0.57496 0.67455 0.0
C1576 C 0.92791 0.57108 0.6409 0.0
C1577 C 0.92776 0.59343 0.61791 0.0
C1578 C 0.91888 0.50008 0.71526 0.0
C1579 C 0.92623 0.50374 0.74815 0.0
C1580 C 0.91822 0.52235 0.69218 0.0
C1581 C 0.92444 0.55031 0.70007 0.0
C1582 C 0.93153 0.55394 0.73311 0.0
C1583 C 0.93265 0.53157 0.75606 0.0
H1584 H 0.7733 0.89112 0.03383 0.0
H1585 H 0.74791 0.97328 0.05982 0.0
H1586 H 0.81058 0.89274 0.07408 0.0
H1587 H 0.78655 0.97559 0.09855 0.0
H1588 H 0.88454 0.97364 0.13865 0.0
H1589 H 0.84591 0.97304 0.09972 0.0
H1590 H 0.81646 0.89783 0.14146 0.0
H1591 H 0.85405 0.89931 0.18154 0.0
C1592 C 0.77544 0.90979 0.04779 0.0
C1593 C 0.75632 0.93194 0.04252 0.0
C1594 C 0.79735 0.91073 0.07136 0.0
C1595 C 0.80268 0.93434 0.09067 0.0
C1596 C 0.78406 0.95682 0.08484 0.0
C1597 C 0.76144 0.95548 0.06211 0.0
C1598 C 0.86981 0.95698 0.14007 0.0
C1599 C 0.87333 0.9367 0.16454 0.0
C1600 C 0.8472 0.95663 0.11728 0.0
C1601 C 0.82702 0.93533 0.11632 0.0
C1602 C 0.83087 0.91479 0.14042 0.0
C1603 C 0.85282 0.91572 0.16396 0.0
H1604 H 0.38144 0.62539 0.89503 0.0
H1605 H 0.4646 0.60315 0.92202 0.0
H1606 H 0.38094 0.58696 0.85604 0.0
H1607 H 0.46466 0.56587 0.8819 0.0
H1608 H 0.46375 0.51986 0.77799 0.0
H1609 H 0.46302 0.55705 0.8181 0.0
H1610 H 0.38326 0.53028 0.85064 0.0
H1611 H 0.38481 0.49184 0.81177 0.0
C1612 C 0.39983 0.61257 0.89292 0.0
C1613 C 0.42299 0.61835 0.91306 0.0
C1614 C 0.39953 0.59002 0.87008 0.0
C1615 C 0.42278 0.57217 0.86459 0.0
C1616 C 0.44606 0.57835 0.88434 0.0
C1617 C 0.44598 0.60016 0.90797 0.0
C1618 C 0.44587 0.52149 0.79354 0.0
C1619 C 0.42435 0.50167 0.79033 0.0
C1620 C 0.44549 0.54331 0.81715 0.0
C1621 C 0.42303 0.5479 0.83877 0.0
C1622 C 0.40114 0.5285 0.8351 0.0
C1623 C 0.40202 0.50597 0.81226 0.0
H1624 H 0.76305 0.20818 0.68621 0.0
H1625 H 0.73144 0.13427 0.64343 0.0
H1626 H 0.79965 0.21001 0.64525 0.0
H1627 H 0.76897 0.13536 0.60323 0.0
H1628 H 0.85991 0.13224 0.55278 0.0
H1629 H 0.82195 0.13031 0.59218 0.0
H1630 H 0.81164 0.21824 0.58554 0.0
H1631 H 0.8487 0.21994 0.54488 0.0
C1632 C 0.76379 0.1919 0.66845 0.0
C1633 C 0.74326 0.17089 0.66959 0.0
C1634 C 0.7852 0.19308 0.64426 0.0
C1635 C 0.78851 0.17287 0.61966 0.0
C1636 C 0.76824 0.15157 0.62107 0.0
C1637 C 0.7462 0.1509 0.64466 0.0
C1638 C 0.84946 0.15134 0.55907 0.0
C1639 C 0.85814 0.17623 0.54399 0.0
C1640 C 0.82719 0.15021 0.58224 0.0
C1641 C 0.81248 0.17404 0.5933 0.0
C1642 C 0.82157 0.19904 0.57866 0.0
C1643 C 0.84318 0.20003 0.55461 0.0
H1644 H 0.1453 0.50416 0.42161 0.0
H1645 H 0.22777 0.48144 0.39253 0.0
H1646 H 0.14465 0.54151 0.38168 0.0
H1647 H 0.22766 0.51985 0.35356 0.0
H1648 H 0.22574 0.61308 0.30876 0.0
H1649 H 0.22708 0.57423 0.34677 0.0
H1650 H 0.14394 0.55303 0.32012 0.0
H1651 H 0.14322 0.59086 0.28068 0.0
C1652 C 0.16363 0.50701 0.40706 0.0
C1653 C 0.18663 0.48872 0.41154 0.0
C1654 C 0.16318 0.52886 0.38353 0.0
C1655 C 0.18609 0.53489 0.36324 0.0
C1656 C 0.20933 0.51688 0.36805 0.0
C1657 C 0.20941 0.49434 0.39085 0.0
C1658 C 0.20764 0.60014 0.3104 0.0
C1659 C 0.18433 0.60629 0.29045 0.0
C1660 C 0.20844 0.57734 0.33273 0.0
C1661 C 0.18562 0.55939 0.3378 0.0
C1662 C 0.1622 0.56569 0.31806 0.0
C1663 C 0.16177 0.58789 0.29491 0.0
H1664 H 0.71706 0.68923 0.42033 0.0
H1665 H 0.77442 0.66937 0.34496 0.0
H1666 H 0.75514 0.68854 0.45939 0.0
H1667 H 0.81259 0.66883 0.38367 0.0
H1668 H 0.88144 0.6548 0.46151 0.0
H1669 H 0.84305 0.65469 0.42308 0.0
H1670 H 0.79319 0.70162 0.48943 0.0
H1671 H 0.83168 0.70141 0.52785 0.0
C1672 C 0.73774 0.6847 0.41164 0.0
C1673 C 0.74146 0.67934 0.37828 0.0
C1674 C 0.76026 0.68441 0.4346 0.0
C1675 C 0.78848 0.67858 0.42624 0.0
C1676 C 0.79203 0.67317 0.39275 0.0
C1677 C 0.76954 0.67361 0.36981 0.0
C1678 C 0.86231 0.66497 0.46844 0.0
C1679 C 0.86077 0.67776 0.49919 0.0
C1680 C 0.8397 0.66517 0.44565 0.0
C1681 C 0.81346 0.67817 0.45161 0.0
C1682 C 0.81199 0.69088 0.48255 0.0
C1683 C 0.83468 0.69079 0.50526 0.0
H1684 H 0.20516 0.13506 0.70335 0.0
H1685 H 0.17471 0.07977 0.77539 0.0
H1686 H 0.20626 0.09711 0.66431 0.0
H1687 H 0.17615 1.04167 0.73658 0.0
H1688 H 0.19743 0.96856 0.66511 0.0
H1689 H 0.19723 1.0065 0.70419 0.0
H1690 H 0.18637 0.06486 0.62741 0.0
H1691 H 0.1862 1.02681 0.58848 0.0
C1692 C 0.19888 0.11483 0.71142 0.0
C1693 C 0.19011 0.11163 0.74389 0.0
C1694 C 0.1993 0.0925 0.68836 0.0
C1695 C 0.19137 0.0649 0.69587 0.0
C1696 C 0.18287 0.06172 0.7285 0.0
C1697 C 0.18199 0.08415 0.75139 0.0
C1698 C 0.19516 0.9894 0.6561 0.0
C1699 C 0.19212 0.99341 0.62236 0.0
C1700 C 0.19481 1.01176 0.67912 0.0
C1701 C 0.1918 1.04016 0.6704 0.0
C1702 C 0.18905 1.04412 0.63654 0.0
C1703 C 0.18892 1.02172 0.61358 0.0
H1704 H 0.77346 0.39541 1.01471 0.0
H1705 H 0.74444 0.47411 0.98048 0.0
H1706 H 0.81189 0.3966 0.97616 0.0
H1707 H 0.78376 0.47592 0.94279 0.0
H1708 H 0.8756 0.48062 0.89551 0.0
H1709 H 0.83653 0.48045 0.93373 0.0
H1710 H 0.82642 0.39351 0.91809 0.0
H1711 H 0.86454 0.39396 0.8791 0.0
C1712 C 0.77512 0.41331 0.99934 0.0
C1713 C 0.75475 0.43467 1.00198 0.0
C1714 C 0.79763 0.41395 0.97659 0.0
C1715 C 0.8022 0.43642 0.95521 0.0
C1716 C 0.7821 0.45807 0.95823 0.0
C1717 C 0.75902 0.45702 0.98034 0.0
C1718 C 0.86523 0.4613 0.89997 0.0
C1719 C 0.8744 0.43729 0.88316 0.0
C1720 C 0.84223 0.4612 0.92226 0.0
C1721 C 0.82716 0.43692 0.93026 0.0
C1722 C 0.8367 0.4129 0.91375 0.0
C1723 C 0.85906 0.41317 0.8908 0.0
H1724 H 0.41297 0.97621 0.20216 0.0
H1725 H 0.44797 1.03074 0.27223 0.0
H1726 H 0.41258 1.01384 0.1625 0.0
H1727 H 0.44683 0.0686 0.23297 0.0
H1728 H 0.42017 0.14114 0.1617 0.0
H1729 H 0.42065 0.10332 0.201 0.0
H1730 H 0.43794 1.04536 0.12545 0.0
H1731 H 0.43841 0.08337 0.08632 0.0
C1732 C 0.42041 0.9962 0.20964 0.0
C1733 C 0.43035 0.99936 0.24166 0.0
C1734 C 0.42037 1.01827 0.18629 0.0
C1735 C 0.42959 1.04553 0.19326 0.0
C1736 C 0.43919 1.04871 0.22546 0.0
C1737 C 0.43992 1.02646 0.24852 0.0
C1738 C 0.42404 0.12042 0.15299 0.0
C1739 C 0.42901 0.11646 0.11957 0.0
C1740 C 0.4245 0.09821 0.17612 0.0
C1741 C 0.42927 0.07003 0.16769 0.0
C1742 C 0.43388 0.06603 0.13416 0.0
C1743 C 0.43417 0.08836 0.11114 0.0
H1744 H 0.23873 0.47486 0.56147 0.0
H1745 H 0.26922 0.3963 0.52864 0.0
H1746 H 0.27791 0.4777 0.59951 0.0
H1747 H 0.30716 0.39831 0.568 0.0
H1748 H 0.35346 0.39947 0.67247 0.0
H1749 H 0.31566 0.39838 0.63287 0.0
H1750 H 0.33611 0.48036 0.6026 0.0
H1751 H 0.37517 0.48083 0.64114 0.0
C1752 C 0.25354 0.45799 0.56203 0.0
C1753 C 0.24968 0.43534 0.54063 0.0
C1754 C 0.27652 0.45963 0.58436 0.0
C1755 C 0.29686 0.43826 0.58804 0.0
C1756 C 0.29271 0.4155 0.56698 0.0
C1757 C 0.27043 0.41435 0.54384 0.0
C1758 C 0.35027 0.41748 0.65752 0.0
C1759 C 0.3685 0.44028 0.66127 0.0
C1760 C 0.32812 0.41679 0.63421 0.0
C1761 C 0.32157 0.43927 0.61343 0.0
C1762 C 0.33945 0.46235 0.61751 0.0
C1763 C 0.36238 0.46263 0.64005 0.0
H1764 H 0.9195 0.0875 0.44959 0.0
H1765 H 0.94454 0.14372 0.37575 0.0
H1766 H 0.91986 1.04953 0.41064 0.0
H1767 H 0.94496 0.10594 0.33668 0.0
H1768 H 0.96155 1.02935 0.27022 0.0
H1769 H 0.96088 0.06708 0.30918 0.0
H1770 H 0.90503 1.02095 0.36855 0.0
H1771 H 0.90596 0.98319 0.32936 0.0
C1772 C 0.92514 0.09216 0.42509 0.0
C1773 C 0.932 0.11985 0.41704 0.0
C1774 C 0.92524 0.06983 0.40205 0.0
C1775 C 0.93248 0.07322 0.36902 0.0
C1776 C 0.93944 0.10101 0.36114 0.0
C1777 C 0.93908 0.12335 0.38411 0.0
C1778 C 0.94892 1.02693 0.29138 0.0
C1779 C 0.93373 1.00208 0.29523 0.0
C1780 C 0.9484 1.04923 0.31437 0.0
C1781 C 0.93284 1.04854 0.34351 0.0
C1782 C 0.9177 1.02353 0.3474 0.0
C1783 C 0.91804 1.00133 0.3242 0.0
H1784 H 0.21715 0.68955 0.12111 0.0
H1785 H 0.27471 0.66717 0.19547 0.0
H1786 H 0.25492 0.68908 0.08174 0.0
H1787 H 0.31259 0.66673 0.15636 0.0
H1788 H 0.38015 0.65224 0.07698 0.0
H1789 H 0.34214 0.65218 0.1158 0.0
H1790 H 0.29328 0.70281 0.05209 0.0
H1791 H 0.33146 0.70267 1.01328 0.0
C1792 C 0.23781 0.68449 0.12952 0.0
C1793 C 0.24165 0.67839 0.16272 0.0
C1794 C 0.26015 0.68433 0.10636 0.0
C1795 C 0.28833 0.67782 0.1143 0.0
C1796 C 0.29204 0.67164 0.14761 0.0
C1797 C 0.26972 0.67201 0.17078 0.0
C1798 C 0.36134 0.66328 0.0707 0.0
C1799 C 0.36001 0.67715 0.04054 0.0
C1800 C 0.33895 0.66349 0.09374 0.0
C1801 C 0.3131 0.67751 0.08865 0.0
C1802 C 0.31179 0.69127 0.0583 0.0
C1803 C 0.33431 0.69123 0.03535 0.0
H1804 H 0.64828 0.0923 0.7856 0.0
H1805 H 0.73229 0.11246 0.80939 0.0
H1806 H 0.6494 1.05452 0.82502 0.0
H1807 H 0.73392 0.0736 0.84771 0.0
H1808 H 0.73156 0.97879 0.89209 0.0
H1809 H 0.73193 1.01734 0.85326 0.0
H1810 H 0.65253 1.04465 0.88794 0.0
H1811 H 0.65287 1.00718 0.92778 0.0
C1812 C 0.66739 0.08863 0.79861 0.0
C1813 C 0.69028 0.10635 0.79276 0.0
C1814 C 0.66797 0.06658 0.82193 0.0
C1815 C 0.69182 0.05972 0.84064 0.0
C1816 C 0.71493 0.07713 0.83442 0.0
C1817 C 0.71401 0.0999 0.81191 0.0
C1818 C 0.71412 0.99299 0.89194 0.0
C1819 C 0.69227 0.98885 0.91442 0.0
C1820 C 0.71435 1.01562 0.8692 0.0
C1821 C 0.69223 1.03526 0.86624 0.0
C1822 C 0.6702 1.03074 0.88835 0.0
C1823 C 0.67045 1.00879 0.91181 0.0
H1824 H 0.58483 0.13425 0.96063 0.0
H1825 H 0.57724 0.22299 0.95924 0.0
H1826 H 0.60468 0.13513 0.9066 0.0
H1827 H 0.59693 0.22386 0.90498 0.0
H1828 H 0.59756 0.2023 0.79324 0.0
H1829 H 0.581 0.20553 0.8488 0.0
H1830 H 0.64928 0.15392 0.87976 0.0
H1831 H 0.66601 0.15133 0.82473 0.0
C1832 C 0.58742 0.15392 0.94873 0.0
C1833 C 0.5796 0.17854 0.96414 0.0
C1834 C 0.59894 0.15446 0.91794 0.0
C1835 C 0.60242 0.17958 0.90167 0.0
C1836 C 0.59442 0.20422 0.91696 0.0
C1837 C 0.58333 0.20372 0.94801 0.0
C1838 C 0.60926 0.19214 0.81211 0.0
C1839 C 0.63326 0.17687 0.80472 0.0
C1840 C 0.59982 0.19396 0.84382 0.0
C1841 C 0.61378 0.17984 0.86855 0.0
C1842 C 0.63796 0.1648 0.86113 0.0
C1843 C 0.64765 0.16343 0.82956 0.0
H1844 H 0.6758 0.84603 0.22747 0.0
H1845 H 0.74369 0.7923 0.19998 0.0
H1846 H 0.67069 0.86078 0.1722 0.0
H1847 H 0.73724 0.80568 0.14413 0.0
H1848 H 0.6487 0.86616 0.06917 0.0
H1849 H 0.65473 0.84563 0.1219 0.0
H1850 H 0.74338 0.84277 0.10722 0.0
H1851 H 0.73698 0.8624 0.05365 0.0
C1852 C 0.68973 0.83736 0.20971 0.0
C1853 C 0.71027 0.81804 0.2185 0.0
C1854 C 0.68644 0.84546 0.17774 0.0
C1855 C 0.70336 0.83424 0.15343 0.0
C1856 C 0.72394 0.81493 0.16214 0.0
C1857 C 0.72741 0.807 0.19424 0.0
C1858 C 0.66947 0.86086 0.07706 0.0
C1859 C 0.69246 0.86651 0.05757 0.0
C1860 C 0.67297 0.84926 0.10745 0.0
C1861 C 0.69961 0.84321 0.11937 0.0
C1862 C 0.72253 0.84717 0.09897 0.0
C1863 C 0.71893 0.85851 0.06825 0.0
H1864 H 1.00198 0.89615 0.31757 0.0
H1865 H 0.99812 0.9841 0.30238 0.0
H1866 H 1.02081 0.90341 0.37108 0.0
H1867 H 1.01585 0.99165 0.35655 0.0
H1868 H 0.06323 0.99536 0.45119 0.0
H1869 H 1.05225 0.98819 0.39485 0.0
H1870 H 1.00212 0.91815 0.42046 0.0
H1871 H 1.01476 0.92405 0.47639 0.0
C1872 C 1.00562 0.91706 0.3256 0.0
C1873 C 0.99856 0.93958 0.30599 0.0
C1874 C 1.01606 0.92127 0.35641 0.0
C1875 C 1.01922 0.94813 0.36854 0.0
C1876 C 1.01382 0.97067 0.34804 0.0
C1877 C 1.00375 0.9664 0.31693 0.0
C1878 C 1.05007 0.97824 0.4448 0.0
C1879 C 1.03996 0.96022 0.46849 0.0
C1880 C 1.04355 0.97431 0.41244 0.0
C1881 C 1.02648 0.95245 0.40293 0.0
C1882 C 1.01584 0.93486 0.42671 0.0
C1883 C 1.02262 0.93858 0.45899 0.0
H1884 H 0.90419 0.27641 0.52499 0.0
H1885 H 0.92243 0.21162 0.59322 0.0
H1886 H 0.88323 0.30405 0.56776 0.0
H1887 H 0.90182 0.23936 0.6359 0.0
H1888 H 0.88017 0.35388 0.66432 0.0
H1889 H 0.8983 0.32802 0.61849 0.0
H1890 H 0.85343 0.25622 0.6499 0.0
H1891 H 0.83563 0.28225 0.69602 0.0
C1892 C 0.90389 0.26819 0.54913 0.0
C1893 C 0.91486 0.24188 0.55576 0.0
C1894 C 0.89196 0.28401 0.57358 0.0
C1895 C 0.89058 0.27365 0.605 0.0
C1896 C 0.9022 0.24763 0.61176 0.0
C1897 C 0.91437 0.23195 0.58742 0.0
C1898 C 0.87402 0.3327 0.6611 0.0
C1899 C 0.85677 0.31996 0.68365 0.0
C1900 C 0.88423 0.31793 0.63489 0.0
C1901 C 0.87752 0.29004 0.63092 0.0
C1902 C 0.85924 0.27761 0.65272 0.0
C1903 C 0.84882 0.29252 0.67883 0.0
H1904 H 0.56254 0.98758 0.08693 0.0
H1905 H 0.51565 0.91471 0.06371 0.0
H1906 H 0.54998 0.98264 0.14307 0.0
H1907 H 0.50143 0.91095 0.11945 0.0
H1908 H 0.50036 0.8929 0.22368 0.0
H1909 H 0.51967 0.89842 0.17016 0.0
H1910 H 0.51245 0.98703 0.17968 0.0
H1911 H 0.49415 0.98128 0.23388 0.0
C1912 C 0.54942 0.97056 0.09374 0.0
C1913 C 0.54031 0.95138 0.07074 0.0
C1914 C 0.54197 0.96793 0.12595 0.0
C1915 C 0.52493 0.94624 0.13595 0.0
C1916 C 0.51514 0.92755 0.11279 0.0
C1917 C 0.52285 0.93 0.08063 0.0
C1918 C 0.50363 0.91355 0.21455 0.0
C1919 C 0.49584 0.93668 0.23275 0.0
C1920 C 0.51432 0.91674 0.18374 0.0
C1921 C 0.51702 0.94315 0.17024 0.0
C1922 C 0.5108 0.96638 0.18933 0.0
C1923 C 0.50044 0.96315 0.22044 0.0
H1924 H 0.37017 0.31117 0.83724 0.0
H1925 H 0.44233 0.26238 0.812 0.0
H1926 H 0.37626 0.29835 0.89332 0.0
H1927 H 0.44724 0.24812 0.86752 0.0
H1928 H 0.46783 0.24548 0.9706 0.0
H1929 H 0.46106 0.26589 0.9179 0.0
H1930 H 0.37229 0.26044 0.92995 0.0
H1931 H 0.37933 0.24104 0.98354 0.0
C1932 C 0.38728 0.29763 0.84357 0.0
C1933 C 0.40582 0.28789 0.81997 0.0
C1934 C 0.39058 0.29006 0.87574 0.0
C1935 C 0.41237 0.27239 0.88508 0.0
C1936 C 0.43055 0.26225 0.86138 0.0
C1937 C 0.42742 0.27001 0.82933 0.0
C1938 C 0.44686 0.24913 0.9622 0.0
C1939 C 0.42406 0.24122 0.98084 0.0
C1940 C 0.44296 0.26058 0.93185 0.0
C1941 C 0.41614 0.26407 0.91921 0.0
C1942 C 0.39325 0.25801 0.93886 0.0
C1943 C 0.39721 0.24686 0.96957 0.0
H1944 H 0.12563 0.13059 0.73031 0.0
H1945 H 0.11866 0.21901 0.72103 0.0
H1946 H 0.10586 0.1251 0.67667 0.0
H1947 H 0.0982 0.21371 0.66806 0.0
H1948 H 0.09673 0.19778 0.56128 0.0
H1949 H 0.11331 0.20158 0.61607 0.0
H1950 H 0.06637 0.12957 0.64235 0.0
H1951 H 1.05128 0.12462 0.58693 0.0
C1952 C 0.11919 0.1488 0.71711 0.0
C1953 C 0.12384 0.17522 0.72969 0.0
C1954 C 0.10789 0.14571 0.68633 0.0
C1955 C 0.10078 0.16899 0.66769 0.0
C1956 C 0.10412 0.19533 0.68122 0.0
C1957 C 0.11565 0.19839 0.71172 0.0
C1958 C 0.0903 0.18242 0.57852 0.0
C1959 C 0.07271 0.16083 0.56942 0.0
C1960 C 0.09942 0.1849 0.61022 0.0
C1961 C 0.091 0.16604 0.63388 0.0
C1962 C 0.07348 0.14437 0.62481 0.0
C1963 C 0.06453 0.14174 0.593 0.0
H1964 H 0.23363 0.86747 0.48337 0.0
H1965 H 0.1459 0.87378 0.46474 0.0
H1966 H 0.24062 0.84665 0.43052 0.0
H1967 H 0.15246 0.85216 0.41271 0.0
H1968 H 0.24139 0.79323 0.34014 0.0
H1969 H 0.23416 0.80875 0.39507 0.0
H1970 H 0.16991 0.86471 0.36233 0.0
H1971 H 0.17572 0.84784 0.30801 0.0
C1972 C 0.21579 0.86392 0.46822 0.0
C1973 C 0.18933 0.87284 0.47787 0.0
C1974 C 0.21973 0.85191 0.43792 0.0
C1975 C 0.19717 0.8482 0.41688 0.0
C1976 C 0.17048 0.8555 0.42766 0.0
C1977 C 0.16666 0.86779 0.45763 0.0
C1978 C 0.22543 0.80857 0.34466 0.0
C1979 C 0.20915 0.81923 0.31935 0.0
C1980 C 0.22153 0.81774 0.37623 0.0
C1981 C 0.20137 0.83797 0.38337 0.0
C1982 C 0.1853 0.84876 0.35802 0.0
C1983 C 0.189 0.83941 0.32658 0.0
H1984 H 0.1024 0.68732 0.47409 0.0
H1985 H 1.04714 0.62185 0.44614 0.0
H1986 H 0.11603 0.69316 0.41862 0.0
H1987 H 0.05922 0.62924 0.39015 0.0
H1988 H 0.11539 0.62962 0.29885 0.0
H1989 H 0.09544 0.62284 0.35212 0.0
H1990 H 0.10002 0.71062 0.36948 0.0
H1991 H 0.1212 0.71687 0.3172 0.0
C1992 C 0.09316 0.67409 0.45618 0.0
C1993 C 0.07375 0.65401 0.46486 0.0
C1994 C 0.10056 0.67785 0.42413 0.0
C1995 C 0.08847 0.66193 0.39967 0.0
C1996 C 0.06908 0.64178 0.40827 0.0
C1997 C 0.06192 0.63778 0.44046 0.0
C1998 C 0.11165 0.64741 0.31393 0.0
C1999 C 0.12039 0.67364 0.30426 0.0
C2000 C 0.10017 0.64361 0.34447 0.0
C2001 C 0.09679 0.66611 0.36558 0.0
C2002 C 0.10324 0.69266 0.35446 0.0
C2003 C 0.11511 0.69633 0.32431 0.0
H2004 H 0.24259 0.3025 0.70069 0.0
H2005 H 0.17053 0.35128 0.72637 0.0
H2006 H 0.23573 0.31449 0.64462 0.0
H2007 H 0.16501 0.36502 0.67071 0.0
H2008 H 0.14353 0.36592 0.56722 0.0
H2009 H 0.15057 0.34738 0.62085 0.0
H2010 H 0.2393 0.35086 0.60709 0.0
H2011 H 0.23196 0.36825 0.55277 0.0
C2012 C 0.22536 0.31592 0.69446 0.0
C2013 C 0.207 0.32577 0.71818 0.0
C2014 C 0.22163 0.32306 0.66226 0.0
C2015 C 0.19968 0.34055 0.65297 0.0
C2016 C 0.18179 0.35099 0.67681 0.0
C2017 C 0.18529 0.34356 0.70893 0.0
C2018 C 0.16452 0.36228 0.57554 0.0
C2019 C 0.18724 0.36892 0.55612 0.0
C2020 C 0.16859 0.35191 0.6064 0.0
C2021 C 0.19552 0.34829 0.61873 0.0
C2022 C 0.21826 0.35332 0.59845 0.0
C2023 C 0.21412 0.36332 0.5673 0.0
H2024 H 0.49367 0.39371 0.81434 0.0
H2025 H 0.49129 0.48216 0.80393 0.0
H2026 H 0.51427 0.39841 0.86727 0.0
H2027 H 0.51089 0.4872 0.85769 0.0
H2028 H 0.56212 0.4862 0.94976 0.0
H2029 H 0.5487 0.48147 0.89376 0.0
H2030 H 0.49836 0.41132 0.91841 0.0
H2031 H 0.51337 0.41476 0.97378 0.0
C2032 C 0.49769 0.41421 0.82342 0.0
C2033 C 0.49045 0.43761 0.80534 0.0
C2034 C 0.5093 0.41695 0.85389 0.0
C2035 C 0.51361 0.4432 0.86725 0.0
C2036 C 0.50793 0.46664 0.84825 0.0
C2037 C 0.49666 0.46383 0.81743 0.0
C2038 C 0.5485 0.4695 0.9432 0.0
C2039 C 0.53892 0.45081 0.96649 0.0
C2040 C 0.54052 0.46701 0.91105 0.0
C2041 C 0.52255 0.44592 0.90136 0.0
C2042 C 0.51269 0.4275 0.92474 0.0
C2043 C 0.52089 0.4298 0.95676 0.0
H2044 H 0.46732 0.74648 0.0624 0.0
H2045 H 0.3787 0.73792 0.05396 0.0
H2046 H 0.46178 0.76545 0.11604 0.0
H2047 H 0.373 0.75609 0.10834 0.0
H2048 H 0.37273 0.80748 0.20083 0.0
H2049 H 0.3769 0.79441 0.14462 0.0
H2050 H 0.4505 0.74672 0.16703 0.0
H2051 H 0.44737 0.76121 0.22272 0.0
C2052 C 0.44659 0.74906 0.07196 0.0
C2053 C 0.42343 0.74068 0.05419 0.0
C2054 C 0.44341 0.75962 0.10284 0.0
C2055 C 0.417 0.76171 0.11686 0.0
C2056 C 0.39364 0.75485 0.09827 0.0
C2057 C 0.39684 0.74454 0.06709 0.0
C2058 C 0.38997 0.79441 0.19372 0.0
C2059 C 0.40983 0.78554 0.21636 0.0
C2060 C 0.39218 0.78669 0.1615 0.0
C2061 C 0.41418 0.76974 0.15117 0.0
C2062 C 0.4336 0.7603 0.17397 0.0
C2063 C 0.43153 0.7682 0.2061 0.0
H2064 H 1.0123 0.40983 0.56815 0.0
H2065 H 1.05335 0.48717 0.58612 0.0
H2066 H 0.99844 0.40773 0.62416 0.0
H2067 H 1.041 0.48415 0.64259 0.0
H2068 H 1.00007 0.39556 0.73046 0.0
H2069 H 1.0178 0.39954 0.67595 0.0
H2070 H 1.00239 0.48751 0.67844 0.0
H2071 H 0.98541 0.48343 0.73341 0.0
C2072 C 1.01829 0.42646 0.58397 0.0
C2073 C 1.03394 0.44866 0.5725 0.0
C2074 C 1.01076 0.42501 0.61628 0.0
C2075 C 1.01888 0.44562 0.63805 0.0
C2076 C 1.03426 0.468 0.62652 0.0
C2077 C 1.0416 0.46955 0.59414 0.0
C2078 C 1.00089 0.41578 0.71944 0.0
C2079 C 0.99117 0.43915 0.73592 0.0
C2080 C 1.0108 0.41805 0.68813 0.0
C2081 C 1.01102 0.44376 0.6725 0.0
C2082 C 1.00267 0.4674 0.68974 0.0
C2083 C 0.99299 0.46511 0.72126 0.0
H2084 H 0.87339 0.81034 0.33732 0.0
H2085 H 0.94553 0.76101 0.31354 0.0
H2086 H 0.87766 0.79636 0.39327 0.0
H2087 H 0.94883 0.74583 0.36904 0.0
H2088 H 0.87907 0.73928 0.48363 0.0
H2089 H 0.87292 0.75731 0.42917 0.0
H2090 H 0.96175 0.7649 0.41989 0.0
H2091 H 0.96771 0.74642 0.47373 0.0
C2092 C 0.89009 0.7964 0.34397 0.0
C2093 C 0.90927 0.78696 0.32092 0.0
C2094 C 0.89234 0.78818 0.37602 0.0
C2095 C 0.91375 0.77022 0.38574 0.0
C2096 C 0.93242 0.76016 0.36251 0.0
C2097 C 0.93027 0.76849 0.33053 0.0
C2098 C 0.89714 0.74547 0.47012 0.0
C2099 C 0.92385 0.74129 0.48263 0.0
C2100 C 0.89368 0.75567 0.43891 0.0
C2101 C 0.9169 0.76202 0.41992 0.0
C2102 C 0.94347 0.75946 0.43347 0.0
C2103 C 0.9469 0.7491 0.4644 0.0
H2104 H 0.54989 0.62207 0.09326 0.0
H2105 H 0.60367 0.68896 0.06614 0.0
H2106 H 0.56238 0.62871 0.14924 0.0
H2107 H 0.61777 0.69413 0.12167 0.0
H2108 H 0.62124 0.71717 0.22373 0.0
H2109 H 0.60094 0.71081 0.17097 0.0
H2110 H 0.59878 0.62273 0.18712 0.0
H2111 H 0.61786 0.62957 0.24085 0.0
C2112 C 0.56444 0.63816 0.09915 0.0
C2113 C 0.5756 0.65513 0.07504 0.0
C2114 C 0.57187 0.64172 0.1313 0.0
C2115 C 0.59088 0.66213 0.14014 0.0
C2116 C 0.60254 0.67861 0.11593 0.0
C2117 C 0.59487 0.67529 0.08388 0.0
C2118 C 0.61587 0.69652 0.21624 0.0
C2119 C 0.62154 0.67378 0.23609 0.0
C2120 C 0.60453 0.6928 0.18582 0.0
C2121 C 0.599 0.66617 0.17429 0.0
C2122 C 0.60281 0.64355 0.19513 0.0
C2123 C 0.61376 0.64739 0.22593 0.0
H2124 H 0.64834 0.36888 0.97304 0.0
H2125 H 0.73612 0.36363 0.99225 0.0
H2126 H 0.6557 0.34904 0.92009 0.0
H2127 H 0.74365 0.34375 0.93891 0.0
H2128 H 0.74195 0.29029 0.84723 0.0
H2129 H 0.73448 0.30427 0.90282 0.0
H2130 H 0.67679 0.36722 0.871 0.0
H2131 H 0.68355 0.35266 0.81554 0.0
C2132 C 0.66922 0.36327 0.96597 0.0
C2133 C 0.69175 0.36831 0.98643 0.0
C2134 C 0.67344 0.35199 0.93561 0.0
C2135 C 0.70032 0.34544 0.92503 0.0
C2136 C 0.72269 0.34864 0.94638 0.0
C2137 C 0.71842 0.35994 0.97693 0.0
C2138 C 0.72751 0.30699 0.85214 0.0
C2139 C 0.71323 0.32032 0.82697 0.0
C2140 C 0.72343 0.31512 0.88396 0.0
C2141 C 0.70493 0.3367 0.89132 0.0
C2142 C 0.69088 0.35021 0.86614 0.0
C2143 C 0.695 0.34213 0.83432 0.0
H2144 H 0.31161 0.2875 0.16597 0.0
H2145 H 0.2723 0.21531 0.20487 0.0
H2146 H 0.29506 0.31471 0.21142 0.0
H2147 H 0.25654 0.24208 0.25092 0.0
H2148 H 0.22167 0.29583 0.32735 0.0
H2149 H 0.22809 0.27672 0.27343 0.0
H2150 H 0.30608 0.31951 0.26588 0.0
H2151 H 0.29877 0.33921 0.31898 0.0
C2152 C 0.29935 0.27748 0.18426 0.0
C2153 C 0.29342 0.24923 0.18197 0.0
C2154 C 0.28991 0.29305 0.2104 0.0
C2155 C 0.27461 0.28067 0.23519 0.0
C2156 C 0.26785 0.25256 0.23219 0.0
C2157 C 0.27701 0.2371 0.20583 0.0
C2158 C 0.23958 0.30186 0.31345 0.0
C2159 C 0.25954 0.31925 0.32687 0.0
C2160 C 0.24355 0.29062 0.2828 0.0
C2161 C 0.26783 0.29619 0.26525 0.0
C2162 C 0.28695 0.31494 0.27824 0.0
C2163 C 0.28282 0.32633 0.3087 0.0
H2164 H 0.63581 0.50752 0.43973 0.0
H2165 H 0.59026 0.58459 0.44111 0.0
H2166 H 0.61039 0.49215 0.48688 0.0
H2167 H 0.56567 0.56969 0.48902 0.0
H2168 H 0.51198 0.53039 0.56443 0.0
H2169 H 0.53178 0.53822 0.51107 0.0
H2170 H 0.60946 0.50269 0.54305 0.0
H2171 H 0.58946 0.49441 0.59572 0.0
C2172 C 0.62026 0.52115 0.44993 0.0
C2173 C 0.61531 0.54742 0.43662 0.0
C2174 C 0.60582 0.51241 0.4772 0.0
C2175 C 0.58597 0.52966 0.49197 0.0
C2176 C 0.58054 0.55567 0.4782 0.0
C2177 C 0.595 0.56442 0.45094 0.0
C2178 C 0.53301 0.52356 0.55965 0.0
C2179 C 0.5492 0.5119 0.58427 0.0
C2180 C 0.54451 0.52837 0.52924 0.0
C2181 C 0.57239 0.52144 0.52275 0.0
C2182 C 0.58792 0.50818 0.54692 0.0
C2183 C 0.57649 0.50351 0.57723 0.0
H2184 H 0.2672 0.85081 0.71916 0.0
H2185 H 0.26034 0.76902 0.67911 0.0
H2186 H 0.27021 0.83104 0.77287 0.0
H2187 H 0.26514 0.74919 0.73227 0.0
H2188 H 0.26391 0.71755 0.83247 0.0
H2189 H 0.24805 0.74073 0.78389 0.0
H2190 H 0.30439 0.80762 0.80277 0.0
H2191 H 0.3187 0.78545 0.85229 0.0
C2192 C 0.26591 0.82864 0.72182 0.0
C2193 C 0.26399 0.8115 0.69474 0.0
C2194 C 0.26805 0.81724 0.75263 0.0
C2195 C 0.26847 0.78842 0.75706 0.0
C2196 C 0.26478 0.77144 0.73006 0.0
C2197 C 0.2624 0.78283 0.69939 0.0
C2198 C 0.27245 0.7375 0.82666 0.0
C2199 C 0.29291 0.74938 0.84621 0.0
C2200 C 0.26359 0.75069 0.79851 0.0
C2201 C 0.2751 0.77599 0.78901 0.0
C2202 C 0.29476 0.78833 0.80926 0.0
C2203 C 0.30339 0.77531 0.83751 0.0
H2204 H 0.13085 0.50622 0.10576 0.0
H2205 H 0.08874 0.58516 0.10249 0.0
H2206 H 0.10489 0.49128 0.05872 0.0
H2207 H 0.06367 0.57066 0.05473 0.0
H2208 H 1.00967 0.53416 0.97842 0.0
H2209 H 1.0287 0.54054 0.03247 0.0
H2210 H 0.10521 0.50151 1.00237 0.0
H2211 H 0.08593 0.49475 0.94895 0.0
C2212 C 0.11592 0.52035 0.09519 0.0
C2213 C 0.11216 0.54703 0.10785 0.0
C2214 C 0.10117 0.51184 0.06801 0.0
C2215 C 0.0822 0.52976 0.05272 0.0
C2216 C 0.07784 0.55614 0.06597 0.0
C2217 C 0.09259 0.56465 0.09313 0.0
C2218 C 1.0302 0.52618 0.98379 0.0
C2219 C 1.04636 0.51404 0.95952 0.0
C2220 C 1.04128 0.53016 1.01459 0.0
C2221 C 0.06869 0.52192 0.02176 0.0
C2222 C 0.08403 0.508 0.99795 0.0
C2223 C 0.07302 0.50417 0.96725 0.0
H2224 H 0.81144 0.89071 0.82883 0.0
H2225 H 0.85003 0.82445 0.88215 0.0
H2226 H 0.82814 0.87052 0.7788 0.0
H2227 H 0.86681 0.80397 0.83177 0.0
H2228 H 0.84711 0.76255 0.72925 0.0
H2229 H 0.84325 0.78155 0.78355 0.0
H2230 H 0.87191 0.8602 0.74893 0.0
H2231 H 0.8758 0.84122 0.69487 0.0
C2232 C 0.82379 0.87196 0.82979 0.0
C2233 C 0.82944 0.85914 0.85929 0.0
C2234 C 0.83353 0.86047 0.80119 0.0
C2235 C 0.8489 0.83568 0.80133 0.0
C2236 C 0.855 0.82306 0.83092 0.0
C2237 C 0.84557 0.83484 0.8597 0.0
C2238 C 0.85344 0.78361 0.73351 0.0
C2239 C 0.86132 0.80054 0.70778 0.0
C2240 C 0.85118 0.79452 0.76457 0.0
C2241 C 0.85675 0.82253 0.77035 0.0
C2242 C 0.86692 0.83871 0.74508 0.0
C2243 C 0.86922 0.82783 0.71418 0.0
H2244 H 0.732 0.31723 0.22101 0.0
H2245 H 0.82046 0.3154 0.20671 0.0
H2246 H 0.73847 0.29792 0.27512 0.0
H2247 H 0.82704 0.29586 0.25988 0.0
H2248 H 0.83521 0.27459 0.36322 0.0
H2249 H 0.82437 0.30296 0.31651 0.0
H2250 H 0.75239 0.25322 0.29749 0.0
H2251 H 0.7631 0.22504 0.34458 0.0
C2252 C 0.75281 0.31328 0.22976 0.0
C2253 C 0.77574 0.31778 0.20979 0.0
C2254 C 0.75654 0.30194 0.26053 0.0
C2255 C 0.7833 0.29516 0.2719 0.0
C2256 C 0.80618 0.30107 0.25229 0.0
C2257 C 0.80243 0.31217 0.22169 0.0
C2258 C 0.81702 0.26976 0.34912 0.0
C2259 C 0.80025 0.24729 0.35738 0.0
C2260 C 0.81076 0.28605 0.32233 0.0
C2261 C 0.78765 0.28026 0.30292 0.0
C2262 C 0.77019 0.25851 0.312 0.0
C2263 C 0.77639 0.24226 0.33895 0.0
H2264 H 0.11392 0.07319 0.9683 0.0
H2265 H 1.04054 0.12427 0.96094 0.0
H2266 H 0.10269 0.06313 0.02444 0.0
H2267 H 1.02935 0.11442 1.01698 0.0
H2268 H 1.02716 0.10356 0.12615 0.0
H2269 H 1.04572 0.11948 0.07474 0.0
H2270 H 0.06296 1.03513 0.04761 0.0
H2271 H 1.04445 1.01927 0.0989 0.0
C2272 C 0.09584 0.08287 0.97901 0.0
C2273 C 0.07806 0.09946 0.96042 0.0
C2274 C 0.08927 0.07692 1.01097 0.0
C2275 C 0.06502 0.0878 0.02498 0.0
C2276 C 1.04824 0.10585 1.00691 0.0
C2277 C 1.05459 0.11146 0.97487 0.0
C2278 C 1.03519 0.08849 0.10929 0.0
C2279 C 1.03423 0.06018 0.1164 0.0
C2280 C 1.0457 0.09758 0.07988 0.0
C2281 C 1.05587 0.07856 0.05723 0.0
C2282 C 1.05557 1.0503 0.06473 0.0
C2283 C 1.04471 1.04119 0.09392 0.0
H2284 H 0.61576 0.06653 0.56851 0.0
H2285 H 0.54208 0.11723 0.57497 0.0
H2286 H 0.60533 0.05689 0.51198 0.0
H2287 H 0.53176 0.10794 0.51853 0.0
H2288 H 0.53168 0.0992 0.40938 0.0
H2289 H 0.5501 0.11415 0.46126 0.0
H2290 H 0.56518 1.02919 0.48749 0.0
H2291 H 0.54671 1.01426 0.4357 0.0
C2292 C 0.59779 0.0762 0.55751 0.0
C2293 C 0.57971 0.09262 0.57587 0.0
C2294 C 0.59169 0.07052 0.52536 0.0
C2295 C 0.56767 0.08155 0.51097 0.0
C2296 C 0.55052 0.09932 0.52892 0.0
C2297 C 0.55636 0.10461 0.56115 0.0
C2298 C 0.53928 0.08378 0.4261 0.0
C2299 C 0.53765 0.05558 0.41865 0.0
C2300 C 0.5497 0.09232 0.45578 0.0
C2301 C 0.5591 0.07284 0.47834 0.0
C2302 C 0.55834 1.04467 0.47043 0.0
C2303 C 0.54755 1.03612 0.44096 0.0
loop_
_geom_bond_atom_site_label_1
_geom_bond_atom_site_label_2
_geom_bond_distance
_geom_bond_site_symmetry_2
_ccdc_geom_bond_type
Tb0 N29 2.617 . S
Tb0 N35 2.572 . S
Tb0 O44 2.465 . S
Tb0 O45 2.387 . S
Tb0 O47 2.428 . S
Tb0 O48 2.308 . S
Tb0 O52 2.349 . S
Tb0 O55 2.393 . S
Tb0 C64 2.802 . S
C1 N2 1.379 1_556 S
C1 C4 1.416 . S
C1 C8 1.424 . S
N2 C1 1.379 1_554 S
N2 C5 1.334 . S
N2 Tb11 2.617 . S
C3 C5 1.390 . S
C3 C6 1.339 . S
C3 H23 0.930 . S
C4 C1 1.416 . S
C4 C6 1.416 1_556 S
C4 C10 1.448 . S
C5 N2 1.334 . S
C5 C3 1.390 . S
C5 H16 0.930 . S
C6 C3 1.339 . S
C6 C4 1.416 1_554 S
C6 H27 0.930 . S
C7 C8 1.413 . S
C7 C9 1.427 . S
C7 C13 1.416 . S
C8 C1 1.424 . S
C8 C7 1.413 . S
C8 N12 1.361 . S
C9 C7 1.427 . S
C9 C10 1.328 . S
C9 H24 0.929 . S
C10 C4 1.448 . S
C10 C9 1.328 . S
C10 H25 0.930 . S
Tb11 N2 2.617 . S
Tb11 N12 2.572 1_554 S
Tb11 O46 2.349 . S
Tb11 O49 2.393 . S
Tb11 O50 2.465 1_554 S
Tb11 O51 2.387 . S
Tb11 O53 2.428 1_554 S
Tb11 O54 2.308 1_554 S
Tb11 C75 2.802 1_554 S
N12 C8 1.361 . S
N12 Tb11 2.572 1_556 S
N12 C14 1.340 . S
C13 C7 1.416 . S
C13 C15 1.332 . S
C13 H21 0.931 . S
C14 N12 1.340 . S
C14 C15 1.407 . S
C14 H20 0.930 . S
C15 C13 1.332 . S
C15 C14 1.407 . S
C15 H17 0.929 . S
H16 C5 0.930 . S
H17 C15 0.929 . S
H18 C33 0.930 . S
H19 C40 0.929 . S
H20 C14 0.930 . S
H21 C13 0.931 . S
H22 C36 0.930 . S
H23 C3 0.930 . S
H24 C9 0.929 . S
H25 C10 0.930 . S
H26 C31 0.930 . S
H27 C6 0.930 . S
H28 C39 0.931 . S
N29 Tb0 2.617 . S
N29 C30 1.379 . S
N29 C33 1.334 . S
C30 N29 1.379 . S
C30 C32 1.416 . S
C30 C38 1.424 . S
C31 H26 0.930 . S
C31 C33 1.390 . S
C31 C34 1.339 . S
C32 C30 1.416 . S
C32 C34 1.416 . S
C32 C65 1.448 . S
C33 H18 0.930 . S
C33 N29 1.334 . S
C33 C31 1.390 . S
C34 C31 1.339 . S
C34 C32 1.416 . S
C34 H41 0.930 . S
N35 Tb0 2.572 . S
N35 C36 1.340 . S
N35 C38 1.361 . S
C36 H22 0.930 . S
C36 N35 1.340 . S
C36 C40 1.407 . S
C37 C38 1.413 . S
C37 C39 1.416 . S
C37 C66 1.427 . S
C38 C30 1.424 . S
C38 N35 1.361 . S
C38 C37 1.413 . S
C39 H28 0.931 . S
C39 C37 1.416 . S
C39 C40 1.332 . S
C40 H19 0.929 . S
C40 C36 1.407 . S
C40 C39 1.332 . S
H41 C34 0.930 . S
H42 C65 0.930 . S
H43 C66 0.929 . S
O44 Tb0 2.465 . S
O44 C64 1.264 . S
O45 Tb0 2.387 . S
O45 C56 1.264 . S
O46 Tb11 2.349 . S
O46 C56 1.243 . S
O47 Tb0 2.428 . S
O47 C64 1.256 . S
O48 Tb0 2.308 . S
O48 C63 1.266 . S
O49 Tb11 2.393 . S
O49 C63 1.248 . S
O50 Tb11 2.465 1_556 S
O50 C75 1.264 . S
O51 Tb11 2.387 . S
O51 C67 1.264 . S
O52 Tb0 2.349 . S
O52 C67 1.243 . S
O53 Tb11 2.428 1_556 S
O53 C75 1.256 . S
O54 Tb11 2.308 1_556 S
O54 C74 1.266 . S
O55 Tb0 2.393 . S
O55 C74 1.248 1_554 S
C56 O45 1.264 . S
C56 O46 1.243 . S
C57 C60 1.399 . S
C57 C62 1.383 . S
C57 C64 1.496 . S
C58 C59 1.399 . S
C58 C62 1.389 . S
C59 C58 1.399 . S
C59 C61 1.380 . S
C59 H76 0.929 . S
C60 C57 1.399 . S
C60 C61 1.392 . S
C60 H77 0.929 . S
C61 C59 1.380 . S
C61 C60 1.392 . S
C61 H78 0.929 . S
C62 C57 1.383 . S
C62 C58 1.389 . S
C62 H79 0.931 . S
C63 O48 1.266 . S
C63 O49 1.248 . S
C64 Tb0 2.802 . S
C64 O44 1.264 . S
C64 O47 1.256 . S
C64 C57 1.496 . S
C65 C32 1.448 . S
C65 H42 0.930 . S
C65 C66 1.328 . S
C66 C37 1.427 . S
C66 H43 0.929 . S
C66 C65 1.328 . S
C67 O51 1.264 . S
C67 O52 1.243 . S
C68 C71 1.399 . S
C68 C72 1.383 . S
C68 C75 1.496 . S
C69 C70 1.399 . S
C69 C72 1.389 . S
C70 C69 1.399 . S
C70 C73 1.380 . S
C70 H80 0.929 . S
C71 C68 1.399 . S
C71 C73 1.392 . S
C71 H81 0.929 . S
C72 C68 1.383 . S
C72 C69 1.389 . S
C72 H82 0.931 . S
C73 C70 1.380 . S
C73 C71 1.392 . S
C73 H83 0.929 . S
C74 O54 1.266 . S
C74 O55 1.248 1_556 S
C75 Tb11 2.802 1_556 S
C75 O50 1.264 . S
C75 O53 1.256 . S
C75 C68 1.496 . S
H76 C59 0.929 . S
H77 C60 0.929 . S
H78 C61 0.929 . S
H79 C62 0.931 . S
H80 C70 0.929 . S
H81 C71 0.929 . S
H82 C72 0.931 . S
H83 C73 0.929 . S
Tb84 N113 2.617 . S
Tb84 N119 2.572 . S
Tb84 O128 2.465 . S
Tb84 O129 2.387 . S
Tb84 O131 2.428 . S
Tb84 O132 2.308 . S
Tb84 O136 2.349 . S
Tb84 O139 2.393 . S
Tb84 C148 2.802 . S
C85 N86 1.379 . S
C85 C88 1.416 . S
C85 C92 1.424 . S
N86 C85 1.379 . S
N86 C89 1.334 . S
N86 Tb95 2.617 . S
C87 C89 1.390 . S
C87 C90 1.339 . S
C87 H107 0.930 . S
C88 C85 1.416 . S
C88 C90 1.416 . S
C88 C94 1.448 . S
C89 N86 1.334 . S
C89 C87 1.390 . S
C89 H100 0.930 . S
C90 C87 1.339 . S
C90 C88 1.416 . S
C90 H111 0.930 . S
C91 C92 1.413 . S
C91 C93 1.427 . S
C91 C97 1.416 . S
C92 C85 1.424 . S
C92 C91 1.413 . S
C92 N96 1.361 . S
C93 C91 1.427 . S
C93 C94 1.328 . S
C93 H108 0.929 . S
C94 C88 1.448 . S
C94 C93 1.328 . S
C94 H109 0.930 . S
Tb95 N86 2.617 . S
Tb95 N96 2.572 . S
Tb95 O130 2.349 . S
Tb95 O133 2.393 . S
Tb95 O134 2.465 . S
Tb95 O135 2.387 . S
Tb95 O137 2.428 . S
Tb95 O138 2.308 . S
Tb95 C159 2.802 . S
N96 C92 1.361 . S
N96 Tb95 2.572 . S
N96 C98 1.340 . S
C97 C91 1.416 . S
C97 C99 1.332 . S
C97 H105 0.931 . S
C98 N96 1.340 . S
C98 C99 1.407 . S
C98 H104 0.930 . S
C99 C97 1.332 . S
C99 C98 1.407 . S
C99 H101 0.929 . S
H100 C89 0.930 . S
H101 C99 0.929 . S
H102 C117 0.930 . S
H103 C124 0.929 . S
H104 C98 0.930 . S
H105 C97 0.931 . S
H106 C120 0.930 . S
H107 C87 0.930 . S
H108 C93 0.929 . S
H109 C94 0.930 . S
H110 C115 0.930 . S
H111 C90 0.930 . S
H112 C123 0.931 . S
N113 Tb84 2.617 . S
N113 C114 1.379 . S
N113 C117 1.334 . S
C114 N113 1.379 . S
C114 C116 1.416 . S
C114 C122 1.424 . S
C115 H110 0.930 . S
C115 C117 1.390 . S
C115 C118 1.339 . S
C116 C114 1.416 . S
C116 C118 1.416 . S
C116 C149 1.448 . S
C117 H102 0.930 . S
C117 N113 1.334 . S
C117 C115 1.390 . S
C118 C115 1.339 . S
C118 C116 1.416 . S
C118 H125 0.930 . S
N119 Tb84 2.572 . S
N119 C120 1.340 . S
N119 C122 1.361 . S
C120 H106 0.930 . S
C120 N119 1.340 . S
C120 C124 1.407 . S
C121 C122 1.413 . S
C121 C123 1.416 . S
C121 C150 1.427 . S
C122 C114 1.424 . S
C122 N119 1.361 . S
C122 C121 1.413 . S
C123 H112 0.931 . S
C123 C121 1.416 . S
C123 C124 1.332 . S
C124 H103 0.929 . S
C124 C120 1.407 . S
C124 C123 1.332 . S
H125 C118 0.930 . S
H126 C149 0.930 . S
H127 C150 0.929 . S
O128 Tb84 2.465 . S
O128 C148 1.264 . S
O129 Tb84 2.387 . S
O129 C140 1.264 . S
O130 Tb95 2.349 . S
O130 C140 1.243 . S
O131 Tb84 2.428 . S
O131 C148 1.256 . S
O132 Tb84 2.308 . S
O132 C147 1.266 . S
O133 Tb95 2.393 . S
O133 C147 1.248 . S
O134 Tb95 2.465 . S
O134 C159 1.264 . S
O135 Tb95 2.387 . S
O135 C151 1.264 . S
O136 Tb84 2.349 . S
O136 C151 1.243 . S
O137 Tb95 2.428 . S
O137 C159 1.256 . S
O138 Tb95 2.308 . S
O138 C158 1.266 . S
O139 Tb84 2.393 . S
O139 C158 1.248 . S
C140 O129 1.264 . S
C140 O130 1.243 . S
C141 C144 1.399 . S
C141 C146 1.383 . S
C141 C148 1.496 . S
C142 C143 1.399 . S
C142 C146 1.389 . S
C143 C142 1.399 . S
C143 C145 1.380 . S
C143 H160 0.929 . S
C144 C141 1.399 . S
C144 C145 1.392 . S
C144 H161 0.929 . S
C145 C143 1.380 . S
C145 C144 1.392 . S
C145 H162 0.929 . S
C146 C141 1.383 . S
C146 C142 1.389 . S
C146 H163 0.931 . S
C147 O132 1.266 . S
C147 O133 1.248 . S
C148 Tb84 2.802 . S
C148 O128 1.264 . S
C148 O131 1.256 . S
C148 C141 1.496 . S
C149 C116 1.448 . S
C149 H126 0.930 . S
C149 C150 1.328 . S
C150 C121 1.427 . S
C150 H127 0.929 . S
C150 C149 1.328 . S
C151 O135 1.264 . S
C151 O136 1.243 . S
C152 C155 1.399 . S
C152 C156 1.383 . S
C152 C159 1.496 . S
C153 C154 1.399 . S
C153 C156 1.389 . S
C154 C153 1.399 . S
C154 C157 1.380 . S
C154 H164 0.929 . S
C155 C152 1.399 . S
C155 C157 1.392 . S
C155 H165 0.929 . S
C156 C152 1.383 . S
C156 C153 1.389 . S
C156 H166 0.931 . S
C157 C154 1.380 . S
C157 C155 1.392 . S
C157 H167 0.929 . S
C158 O138 1.266 . S
C158 O139 1.248 . S
C159 Tb95 2.802 . S
C159 O134 1.264 . S
C159 O137 1.256 . S
C159 C152 1.496 . S
H160 C143 0.929 . S
H161 C144 0.929 . S
H162 C145 0.929 . S
H163 C146 0.931 . S
H164 C154 0.929 . S
H165 C155 0.929 . S
H166 C156 0.931 . S
H167 C157 0.929 . S
Tb168 N197 2.617 . S
Tb168 N203 2.572 . S
Tb168 O212 2.465 . S
Tb168 O213 2.387 . S
Tb168 O215 2.428 . S
Tb168 O216 2.308 . S
Tb168 O220 2.349 . S
Tb168 O223 2.393 . S
Tb168 C232 2.802 . S
C169 N170 1.379 . S
C169 C172 1.416 . S
C169 C176 1.424 . S
N170 C169 1.379 . S
N170 C173 1.334 . S
N170 Tb179 2.617 . S
C171 C173 1.390 . S
C171 C174 1.339 . S
C171 H191 0.930 . S
C172 C169 1.416 . S
C172 C174 1.416 . S
C172 C178 1.448 . S
C173 N170 1.334 . S
C173 C171 1.390 . S
C173 H184 0.930 . S
C174 C171 1.339 . S
C174 C172 1.416 . S
C174 H195 0.930 . S
C175 C176 1.413 . S
C175 C177 1.427 . S
C175 C181 1.416 . S
C176 C169 1.424 . S
C176 C175 1.413 . S
C176 N180 1.361 . S
C177 C175 1.427 . S
C177 C178 1.328 . S
C177 H192 0.929 . S
C178 C172 1.448 . S
C178 C177 1.328 . S
C178 H193 0.930 . S
Tb179 N170 2.617 . S
Tb179 N180 2.572 . S
Tb179 O214 2.349 . S
Tb179 O217 2.393 . S
Tb179 O218 2.465 . S
Tb179 O219 2.387 . S
Tb179 O221 2.428 . S
Tb179 O222 2.308 . S
Tb179 C243 2.802 . S
N180 C176 1.361 . S
N180 Tb179 2.572 . S
N180 C182 1.340 . S
C181 C175 1.416 . S
C181 C183 1.332 . S
C181 H189 0.931 . S
C182 N180 1.340 . S
C182 C183 1.407 . S
C182 H188 0.930 . S
C183 C181 1.332 . S
C183 C182 1.407 . S
C183 H185 0.929 . S
H184 C173 0.930 . S
H185 C183 0.929 . S
H186 C201 0.930 . S
H187 C208 0.929 . S
H188 C182 0.930 . S
H189 C181 0.931 . S
H190 C204 0.930 . S
H191 C171 0.930 . S
H192 C177 0.929 . S
H193 C178 0.930 . S
H194 C199 0.930 . S
H195 C174 0.930 . S
H196 C207 0.931 . S
N197 Tb168 2.617 . S
N197 C198 1.379 . S
N197 C201 1.334 . S
C198 N197 1.379 . S
C198 C200 1.416 . S
C198 C206 1.424 . S
C199 H194 0.930 . S
C199 C201 1.390 . S
C199 C202 1.339 . S
C200 C198 1.416 . S
C200 C202 1.416 . S
C200 C233 1.448 . S
C201 H186 0.930 . S
C201 N197 1.334 . S
C201 C199 1.390 . S
C202 C199 1.339 . S
C202 C200 1.416 . S
C202 H209 0.930 . S
N203 Tb168 2.572 . S
N203 C204 1.340 . S
N203 C206 1.361 . S
C204 H190 0.930 . S
C204 N203 1.340 . S
C204 C208 1.407 . S
C205 C206 1.413 . S
C205 C207 1.416 . S
C205 C234 1.427 . S
C206 C198 1.424 . S
C206 N203 1.361 . S
C206 C205 1.413 . S
C207 H196 0.931 . S
C207 C205 1.416 . S
C207 C208 1.332 . S
C208 H187 0.929 . S
C208 C204 1.407 . S
C208 C207 1.332 . S
H209 C202 0.930 . S
H210 C233 0.930 . S
H211 C234 0.929 . S
O212 Tb168 2.465 . S
O212 C232 1.264 . S
O213 Tb168 2.387 . S
O213 C224 1.264 . S
O214 Tb179 2.349 . S
O214 C224 1.243 . S
O215 Tb168 2.428 . S
O215 C232 1.256 . S
O216 Tb168 2.308 . S
O216 C231 1.266 . S
O217 Tb179 2.393 . S
O217 C231 1.248 . S
O218 Tb179 2.465 . S
O218 C243 1.264 . S
O219 Tb179 2.387 . S
O219 C235 1.264 . S
O220 Tb168 2.349 . S
O220 C235 1.243 . S
O221 Tb179 2.428 . S
O221 C243 1.256 . S
O222 Tb179 2.308 . S
O222 C242 1.266 . S
O223 Tb168 2.393 . S
O223 C242 1.248 . S
C224 O213 1.264 . S
C224 O214 1.243 . S
C225 C228 1.399 . S
C225 C230 1.383 . S
C225 C232 1.496 . S
C226 C227 1.399 . S
C226 C230 1.389 . S
C227 C226 1.399 . S
C227 C229 1.380 . S
C227 H244 0.929 . S
C228 C225 1.399 . S
C228 C229 1.392 . S
C228 H245 0.929 . S
C229 C227 1.380 . S
C229 C228 1.392 . S
C229 H246 0.929 . S
C230 C225 1.383 . S
C230 C226 1.389 . S
C230 H247 0.931 . S
C231 O216 1.266 . S
C231 O217 1.248 . S
C232 Tb168 2.802 . S
C232 O212 1.264 . S
C232 O215 1.256 . S
C232 C225 1.496 . S
C233 C200 1.448 . S
C233 H210 0.930 . S
C233 C234 1.328 . S
C234 C205 1.427 . S
C234 H211 0.929 . S
C234 C233 1.328 . S
C235 O219 1.264 . S
C235 O220 1.243 . S
C236 C239 1.399 . S
C236 C240 1.383 . S
C236 C243 1.496 . S
C237 C238 1.399 . S
C237 C240 1.389 . S
C238 C237 1.399 . S
C238 C241 1.380 . S
C238 H248 0.929 1_455 S
C239 C236 1.399 . S
C239 C241 1.392 . S
C239 H249 0.929 . S
C240 C236 1.383 . S
C240 C237 1.389 . S
C240 H250 0.931 . S
C241 C238 1.380 . S
C241 C239 1.392 . S
C241 H251 0.951 . S
C242 O222 1.266 . S
C242 O223 1.248 . S
C243 Tb179 2.802 . S
C243 O218 1.264 . S
C243 O221 1.256 . S
C243 C236 1.496 . S
H244 C227 0.929 . S
H245 C228 0.929 . S
H246 C229 0.929 . S
H247 C230 0.931 . S
H248 C238 0.929 1_655 S
H249 C239 0.929 . S
H250 C240 0.931 . S
H251 C241 0.951 . S
Tb252 N281 2.617 . S
Tb252 N287 2.572 . S
Tb252 O296 2.465 . S
Tb252 O297 2.387 . S
Tb252 O299 2.428 . S
Tb252 O300 2.308 . S
Tb252 O304 2.349 . S
Tb252 O307 2.393 . S
Tb252 C316 2.802 . S
C253 N254 1.379 . S
C253 C256 1.416 . S
C253 C260 1.424 . S
N254 C253 1.379 . S
N254 C257 1.334 . S
N254 Tb263 2.617 . S
C255 C257 1.390 . S
C255 C258 1.339 . S
C255 H275 0.930 . S
C256 C253 1.416 . S
C256 C258 1.416 . S
C256 C262 1.448 . S
C257 N254 1.334 . S
C257 C255 1.390 . S
C257 H268 0.930 . S
C258 C255 1.339 . S
C258 C256 1.416 . S
C258 H279 0.930 . S
C259 C260 1.413 . S
C259 C261 1.427 . S
C259 C265 1.416 . S
C260 C253 1.424 . S
C260 C259 1.413 . S
C260 N264 1.361 . S
C261 C259 1.427 . S
C261 C262 1.328 . S
C261 H276 0.929 . S
C262 C256 1.448 . S
C262 C261 1.328 . S
C262 H277 0.930 . S
Tb263 N254 2.617 . S
Tb263 N264 2.572 . S
Tb263 O298 2.349 . S
Tb263 O301 2.393 . S
Tb263 O302 2.465 . S
Tb263 O303 2.387 . S
Tb263 O305 2.428 . S
Tb263 O306 2.308 . S
Tb263 C327 2.802 . S
N264 C260 1.361 . S
N264 Tb263 2.572 . S
N264 C266 1.340 . S
C265 C259 1.416 . S
C265 C267 1.332 . S
C265 H273 0.931 . S
C266 N264 1.340 . S
C266 C267 1.407 . S
C266 H272 0.930 . S
C267 C265 1.332 . S
C267 C266 1.407 . S
C267 H269 0.929 . S
H268 C257 0.930 . S
H269 C267 0.929 . S
H270 C285 0.930 . S
H271 C292 0.929 . S
H272 C266 0.930 . S
H273 C265 0.931 . S
H274 C288 0.930 . S
H275 C255 0.930 . S
H276 C261 0.929 . S
H277 C262 0.930 . S
H278 C283 0.930 . S
H279 C258 0.930 . S
H280 C291 0.931 . S
N281 Tb252 2.617 . S
N281 C282 1.379 . S
N281 C285 1.334 1_655 S
C282 N281 1.379 . S
C282 C284 1.416 1_655 S
C282 C290 1.424 . S
C283 H278 0.930 . S
C283 C285 1.390 . S
C283 C286 1.339 . S
C284 C282 1.416 1_455 S
C284 C286 1.416 . S
C284 C317 1.448 . S
C285 H270 0.930 . S
C285 N281 1.334 1_455 S
C285 C283 1.390 . S
C286 C283 1.339 . S
C286 C284 1.416 . S
C286 H293 0.930 . S
N287 Tb252 2.572 . S
N287 C288 1.340 . S
N287 C290 1.361 . S
C288 H274 0.930 . S
C288 N287 1.340 . S
C288 C292 1.407 . S
C289 C290 1.413 . S
C289 C291 1.416 . S
C289 C318 1.427 1_655 S
C290 C282 1.424 . S
C290 N287 1.361 . S
C290 C289 1.413 . S
C291 H280 0.931 . S
C291 C289 1.416 . S
C291 C292 1.332 . S
C292 H271 0.929 . S
C292 C288 1.407 . S
C292 C291 1.332 . S
H293 C286 0.930 . S
H294 C317 0.930 . S
H295 C318 0.929 . S
O296 Tb252 2.465 . S
O296 C316 1.264 . S
O297 Tb252 2.387 . S
O297 C308 1.264 . S
O298 Tb263 2.349 . S
O298 C308 1.243 . S
O299 Tb252 2.428 . S
O299 C316 1.256 . S
O300 Tb252 2.308 . S
O300 C315 1.266 . S
O301 Tb263 2.393 . S
O301 C315 1.248 . S
O302 Tb263 2.465 . S
O302 C327 1.264 . S
O303 Tb263 2.387 . S
O303 C319 1.264 . S
O304 Tb252 2.349 . S
O304 C319 1.243 . S
O305 Tb263 2.428 . S
O305 C327 1.256 . S
O306 Tb263 2.308 . S
O306 C326 1.266 . S
O307 Tb252 2.393 . S
O307 C326 1.248 . S
C308 O297 1.264 . S
C308 O298 1.243 . S
C309 C312 1.399 . S
C309 C314 1.383 . S
C309 C316 1.496 . S
C310 C311 1.399 . S
C310 C314 1.389 . S
C311 C310 1.399 . S
C311 C313 1.380 . S
C311 H328 0.929 . S
C312 C309 1.399 . S
C312 C313 1.392 . S
C312 H329 0.929 . S
C313 C311 1.380 . S
C313 C312 1.392 . S
C313 H330 0.939 . S
C314 C309 1.383 . S
C314 C310 1.389 . S
C314 H331 0.931 . S
C315 O300 1.266 . S
C315 O301 1.248 . S
C316 Tb252 2.802 . S
C316 O296 1.264 . S
C316 O299 1.256 . S
C316 C309 1.496 . S
C317 C284 1.448 . S
C317 H294 0.930 . S
C317 C318 1.328 . S
C318 C289 1.427 1_455 S
C318 H295 0.929 . S
C318 C317 1.328 . S
C319 O303 1.264 . S
C319 O304 1.243 . S
C320 C323 1.399 . S
C320 C324 1.383 . S
C320 C327 1.496 . S
C321 C322 1.399 . S
C321 C324 1.389 . S
C322 C321 1.399 . S
C322 C325 1.380 . S
C322 H332 0.929 . S
C323 C320 1.399 . S
C323 C325 1.392 . S
C323 H333 0.929 . S
C324 C320 1.383 . S
C324 C321 1.389 . S
C324 H334 0.931 . S
C325 C322 1.380 . S
C325 C323 1.392 . S
C325 H335 0.929 . S
C326 O306 1.266 . S
C326 O307 1.248 . S
C327 Tb263 2.802 . S
C327 O302 1.264 . S
C327 O305 1.256 . S
C327 C320 1.496 . S
H328 C311 0.929 . S
H329 C312 0.929 . S
H330 C313 0.939 . S
H331 C314 0.931 . S
H332 C322 0.929 . S
H333 C323 0.929 . S
H334 C324 0.931 . S
H335 C325 0.929 . S
Tb336 N365 2.617 . S
Tb336 N371 2.572 1_556 S
Tb336 O380 2.465 1_556 S
Tb336 O381 2.387 . S
Tb336 O383 2.428 1_556 S
Tb336 O384 2.308 1_556 S
Tb336 O388 2.349 . S
Tb336 O391 2.393 . S
Tb336 C400 2.802 1_556 S
C337 N338 1.379 . S
C337 C340 1.416 . S
C337 C344 1.424 . S
N338 C337 1.379 . S
N338 C341 1.334 . S
N338 Tb347 2.617 . S
C339 C341 1.390 . S
C339 C342 1.339 . S
C339 H359 0.930 . S
C340 C337 1.416 . S
C340 C342 1.416 . S
C340 C346 1.448 . S
C341 N338 1.334 . S
C341 C339 1.390 . S
C341 H352 0.930 . S
C342 C339 1.339 . S
C342 C340 1.416 . S
C342 H363 0.930 . S
C343 C344 1.413 . S
C343 C345 1.427 . S
C343 C349 1.416 . S
C344 C337 1.424 . S
C344 C343 1.413 . S
C344 N348 1.361 . S
C345 C343 1.427 . S
C345 C346 1.328 . S
C345 H360 0.929 . S
C346 C340 1.448 . S
C346 C345 1.328 . S
C346 H361 0.930 . S
Tb347 N338 2.617 . S
Tb347 N348 2.572 . S
Tb347 O382 2.349 . S
Tb347 O385 2.393 . S
Tb347 O386 2.465 . S
Tb347 O387 2.387 . S
Tb347 O389 2.428 . S
Tb347 O390 2.308 . S
Tb347 C411 2.802 . S
N348 C344 1.361 . S
N348 Tb347 2.572 . S
N348 C350 1.340 . S
C349 C343 1.416 . S
C349 C351 1.332 . S
C349 H357 0.931 . S
C350 N348 1.340 . S
C350 C351 1.407 . S
C350 H356 0.930 . S
C351 C349 1.332 . S
C351 C350 1.407 . S
C351 H353 0.929 . S
H352 C341 0.930 . S
H353 C351 0.929 . S
H354 C369 0.930 . S
H355 C376 0.929 . S
H356 C350 0.930 . S
H357 C349 0.931 . S
H358 C372 0.930 . S
H359 C339 0.930 . S
H360 C345 0.929 . S
H361 C346 0.930 . S
H362 C367 0.930 . S
H363 C342 0.930 . S
H364 C375 0.931 . S
N365 Tb336 2.617 . S
N365 C366 1.379 1_556 S
N365 C369 1.334 . S
C366 N365 1.379 1_554 S
C366 C368 1.416 . S
C366 C374 1.424 . S
C367 H362 0.930 . S
C367 C369 1.390 . S
C367 C370 1.339 . S
C368 C366 1.416 . S
C368 C370 1.416 1_554 S
C368 C401 1.448 . S
C369 H354 0.930 . S
C369 N365 1.334 . S
C369 C367 1.390 . S
C370 C367 1.339 . S
C370 C368 1.416 1_556 S
C370 H377 0.930 . S
N371 Tb336 2.572 1_554 S
N371 C372 1.340 . S
N371 C374 1.361 . S
C372 H358 0.930 . S
C372 N371 1.340 . S
C372 C376 1.407 . S
C373 C374 1.413 . S
C373 C375 1.416 . S
C373 C402 1.427 . S
C374 C366 1.424 . S
C374 N371 1.361 . S
C374 C373 1.413 . S
C375 H364 0.931 . S
C375 C373 1.416 . S
C375 C376 1.332 . S
C376 H355 0.929 . S
C376 C372 1.407 . S
C376 C375 1.332 . S
H377 C370 0.930 . S
H378 C401 0.930 . S
H379 C402 0.929 . S
O380 Tb336 2.465 1_554 S
O380 C400 1.264 . S
O381 Tb336 2.387 . S
O381 C392 1.264 . S
O382 Tb347 2.349 . S
O382 C392 1.243 . S
O383 Tb336 2.428 1_554 S
O383 C400 1.256 . S
O384 Tb336 2.308 1_554 S
O384 C399 1.266 . S
O385 Tb347 2.393 . S
O385 C399 1.248 1_556 S
O386 Tb347 2.465 . S
O386 C411 1.264 . S
O387 Tb347 2.387 . S
O387 C403 1.264 . S
O388 Tb336 2.349 . S
O388 C403 1.243 . S
O389 Tb347 2.428 . S
O389 C411 1.256 . S
O390 Tb347 2.308 . S
O390 C410 1.266 . S
O391 Tb336 2.393 . S
O391 C410 1.248 . S
C392 O381 1.264 . S
C392 O382 1.243 . S
C393 C396 1.399 . S
C393 C398 1.383 . S
C393 C400 1.496 . S
C394 C395 1.399 . S
C394 C398 1.389 . S
C395 C394 1.399 . S
C395 C397 1.380 . S
C395 H412 0.929 . S
C396 C393 1.399 . S
C396 C397 1.392 . S
C396 H413 0.929 . S
C397 C395 1.380 . S
C397 C396 1.392 . S
C397 H414 0.929 . S
C398 C393 1.383 . S
C398 C394 1.389 . S
C398 H415 0.931 . S
C399 O384 1.266 . S
C399 O385 1.248 1_554 S
C400 Tb336 2.802 1_554 S
C400 O380 1.264 . S
C400 O383 1.256 . S
C400 C393 1.496 . S
C401 C368 1.448 . S
C401 H378 0.930 . S
C401 C402 1.328 . S
C402 C373 1.427 . S
C402 H379 0.929 . S
C402 C401 1.328 . S
C403 O387 1.264 . S
C403 O388 1.243 . S
C404 C407 1.399 . S
C404 C408 1.383 . S
C404 C411 1.496 . S
C405 C406 1.399 . S
C405 C408 1.389 . S
C406 C405 1.399 . S
C406 C409 1.380 . S
C406 H416 0.929 . S
C407 C404 1.399 . S
C407 C409 1.392 . S
C407 H417 0.929 . S
C408 C404 1.383 . S
C408 C405 1.389 . S
C408 H418 0.931 . S
C409 C406 1.380 . S
C409 C407 1.392 . S
C409 H419 0.929 . S
C410 O390 1.266 . S
C410 O391 1.248 . S
C411 Tb347 2.802 . S
C411 O386 1.264 . S
C411 O389 1.256 . S
C411 C404 1.496 . S
H412 C395 0.929 . S
H413 C396 0.929 . S
H414 C397 0.929 . S
H415 C398 0.931 . S
H416 C406 0.929 . S
H417 C407 0.929 . S
H418 C408 0.931 . S
H419 C409 0.929 . S
Tb420 N449 2.617 . S
Tb420 N455 2.572 . S
Tb420 O464 2.465 . S
Tb420 O465 2.387 . S
Tb420 O467 2.428 . S
Tb420 O468 2.308 . S
Tb420 O472 2.349 . S
Tb420 O475 2.393 . S
Tb420 C484 2.802 . S
C421 N422 1.379 . S
C421 C424 1.416 . S
C421 C428 1.424 . S
N422 C421 1.379 . S
N422 C425 1.334 . S
N422 Tb431 2.617 . S
C423 C425 1.390 . S
C423 C426 1.339 . S
C423 H443 0.930 . S
C424 C421 1.416 . S
C424 C426 1.416 . S
C424 C430 1.448 . S
C425 N422 1.334 . S
C425 C423 1.390 . S
C425 H436 0.930 . S
C426 C423 1.339 . S
C426 C424 1.416 . S
C426 H447 0.930 . S
C427 C428 1.413 . S
C427 C429 1.427 . S
C427 C433 1.416 . S
C428 C421 1.424 . S
C428 C427 1.413 . S
C428 N432 1.361 . S
C429 C427 1.427 . S
C429 C430 1.328 . S
C429 H444 0.929 . S
C430 C424 1.448 . S
C430 C429 1.328 . S
C430 H445 0.930 . S
Tb431 N422 2.617 . S
Tb431 N432 2.572 . S
Tb431 O466 2.349 . S
Tb431 O469 2.393 . S
Tb431 O470 2.465 . S
Tb431 O471 2.387 . S
Tb431 O473 2.428 . S
Tb431 O474 2.308 . S
Tb431 C495 2.802 . S
N432 C428 1.361 . S
N432 Tb431 2.572 . S
N432 C434 1.340 . S
C433 C427 1.416 . S
C433 C435 1.332 . S
C433 H441 0.931 . S
C434 N432 1.340 . S
C434 C435 1.407 . S
C434 H440 0.930 . S
C435 C433 1.332 . S
C435 C434 1.407 . S
C435 H437 0.929 . S
H436 C425 0.930 . S
H437 C435 0.929 . S
H438 C453 0.930 . S
H439 C460 0.929 . S
H440 C434 0.930 . S
H441 C433 0.931 . S
H442 C456 0.930 . S
H443 C423 0.930 . S
H444 C429 0.929 . S
H445 C430 0.930 . S
H446 C451 0.930 . S
H447 C426 0.930 . S
H448 C459 0.931 . S
N449 Tb420 2.617 . S
N449 C450 1.379 . S
N449 C453 1.334 . S
C450 N449 1.379 . S
C450 C452 1.416 . S
C450 C458 1.424 . S
C451 H446 0.930 . S
C451 C453 1.390 . S
C451 C454 1.339 . S
C452 C450 1.416 . S
C452 C454 1.416 . S
C452 C485 1.448 . S
C453 H438 0.930 . S
C453 N449 1.334 . S
C453 C451 1.390 . S
C454 C451 1.339 . S
C454 C452 1.416 . S
C454 H461 0.930 . S
N455 Tb420 2.572 . S
N455 C456 1.340 . S
N455 C458 1.361 . S
C456 H442 0.930 . S
C456 N455 1.340 . S
C456 C460 1.407 . S
C457 C458 1.413 . S
C457 C459 1.416 . S
C457 C486 1.427 . S
C458 C450 1.424 . S
C458 N455 1.361 . S
C458 C457 1.413 . S
C459 H448 0.931 . S
C459 C457 1.416 . S
C459 C460 1.332 . S
C460 H439 0.929 . S
C460 C456 1.407 . S
C460 C459 1.332 . S
H461 C454 0.930 . S
H462 C485 0.930 . S
H463 C486 0.929 . S
O464 Tb420 2.465 . S
O464 C484 1.264 . S
O465 Tb420 2.387 . S
O465 C476 1.264 . S
O466 Tb431 2.349 . S
O466 C476 1.243 . S
O467 Tb420 2.428 . S
O467 C484 1.256 . S
O468 Tb420 2.308 . S
O468 C483 1.266 . S
O469 Tb431 2.393 . S
O469 C483 1.248 . S
O470 Tb431 2.465 . S
O470 C495 1.264 . S
O471 Tb431 2.387 . S
O471 C487 1.264 . S
O472 Tb420 2.349 . S
O472 C487 1.243 . S
O473 Tb431 2.428 . S
O473 C495 1.256 . S
O474 Tb431 2.308 . S
O474 C494 1.266 . S
O475 Tb420 2.393 . S
O475 C494 1.248 . S
C476 O465 1.264 . S
C476 O466 1.243 . S
C477 C480 1.399 . S
C477 C482 1.383 . S
C477 C484 1.496 . S
C478 C479 1.399 . S
C478 C482 1.389 . S
C479 C478 1.399 . S
C479 C481 1.380 . S
C479 H496 0.929 . S
C480 C477 1.399 . S
C480 C481 1.392 . S
C480 H497 0.929 . S
C481 C479 1.380 . S
C481 C480 1.392 . S
C481 H498 0.929 . S
C482 C477 1.383 . S
C482 C478 1.389 . S
C482 H499 0.931 . S
C483 O468 1.266 . S
C483 O469 1.248 . S
C484 Tb420 2.802 . S
C484 O464 1.264 . S
C484 O467 1.256 . S
C484 C477 1.496 . S
C485 C452 1.448 . S
C485 H462 0.930 . S
C485 C486 1.328 . S
C486 C457 1.427 . S
C486 H463 0.929 . S
C486 C485 1.328 . S
C487 O471 1.264 . S
C487 O472 1.243 . S
C488 C491 1.399 . S
C488 C492 1.383 . S
C488 C495 1.496 . S
C489 C490 1.399 . S
C489 C492 1.389 . S
C490 C489 1.399 . S
C490 C493 1.380 . S
C490 H500 0.929 . S
C491 C488 1.399 . S
C491 C493 1.392 . S
C491 H501 0.929 . S
C492 C488 1.383 . S
C492 C489 1.389 . S
C492 H502 0.931 . S
C493 C490 1.380 . S
C493 C491 1.392 . S
C493 H503 0.929 . S
C494 O474 1.266 . S
C494 O475 1.248 . S
C495 Tb431 2.802 . S
C495 O470 1.264 . S
C495 O473 1.256 . S
C495 C488 1.496 . S
H496 C479 0.929 . S
H497 C480 0.929 . S
H498 C481 0.929 . S
H499 C482 0.931 . S
H500 C490 0.929 . S
H501 C491 0.929 . S
H502 C492 0.931 . S
H503 C493 0.929 . S
Tb504 N533 2.617 . S
Tb504 N539 2.572 . S
Tb504 O548 2.465 . S
Tb504 O549 2.387 . S
Tb504 O551 2.428 . S
Tb504 O552 2.308 . S
Tb504 O556 2.349 . S
Tb504 O559 2.393 . S
Tb504 C568 2.802 . S
C505 N506 1.379 . S
C505 C508 1.416 . S
C505 C512 1.424 . S
N506 C505 1.379 . S
N506 C509 1.334 . S
N506 Tb515 2.617 . S
C507 C509 1.390 . S
C507 C510 1.339 . S
C507 H527 0.930 . S
C508 C505 1.416 . S
C508 C510 1.416 . S
C508 C514 1.448 . S
C509 N506 1.334 . S
C509 C507 1.390 . S
C509 H520 0.930 . S
C510 C507 1.339 . S
C510 C508 1.416 . S
C510 H531 0.930 . S
C511 C512 1.413 . S
C511 C513 1.427 . S
C511 C517 1.416 . S
C512 C505 1.424 . S
C512 C511 1.413 . S
C512 N516 1.361 . S
C513 C511 1.427 . S
C513 C514 1.328 . S
C513 H528 0.929 . S
C514 C508 1.448 . S
C514 C513 1.328 . S
C514 H529 0.930 . S
Tb515 N506 2.617 . S
Tb515 N516 2.572 . S
Tb515 O550 2.349 . S
Tb515 O553 2.393 . S
Tb515 O554 2.465 . S
Tb515 O555 2.387 . S
Tb515 O557 2.428 . S
Tb515 O558 2.308 . S
Tb515 C579 2.802 . S
N516 C512 1.361 . S
N516 Tb515 2.572 . S
N516 C518 1.340 . S
C517 C511 1.416 . S
C517 C519 1.332 . S
C517 H525 0.931 . S
C518 N516 1.340 . S
C518 C519 1.407 . S
C518 H524 0.930 . S
C519 C517 1.332 . S
C519 C518 1.407 . S
C519 H521 0.929 . S
H520 C509 0.930 . S
H521 C519 0.929 . S
H522 C537 0.930 . S
H523 C544 0.929 . S
H524 C518 0.930 . S
H525 C517 0.931 . S
H526 C540 0.930 . S
H527 C507 0.930 . S
H528 C513 0.929 . S
H529 C514 0.930 . S
H530 C535 0.930 . S
H531 C510 0.930 . S
H532 C543 0.931 . S
N533 Tb504 2.617 . S
N533 C534 1.379 . S
N533 C537 1.334 . S
C534 N533 1.379 . S
C534 C536 1.416 . S
C534 C542 1.424 . S
C535 H530 0.930 . S
C535 C537 1.390 . S
C535 C538 1.339 . S
C536 C534 1.416 . S
C536 C538 1.416 . S
C536 C569 1.448 . S
C537 H522 0.930 . S
C537 N533 1.334 . S
C537 C535 1.390 . S
C538 C535 1.339 . S
C538 C536 1.416 . S
C538 H545 0.930 . S
N539 Tb504 2.572 . S
N539 C540 1.340 . S
N539 C542 1.361 . S
C540 H526 0.930 . S
C540 N539 1.340 . S
C540 C544 1.407 . S
C541 C542 1.413 . S
C541 C543 1.416 . S
C541 C570 1.427 . S
C542 C534 1.424 . S
C542 N539 1.361 . S
C542 C541 1.413 . S
C543 H532 0.931 . S
C543 C541 1.416 . S
C543 C544 1.332 . S
C544 H523 0.929 . S
C544 C540 1.407 . S
C544 C543 1.332 . S
H545 C538 0.930 . S
H546 C569 0.930 . S
H547 C570 0.929 . S
O548 Tb504 2.465 . S
O548 C568 1.264 . S
O549 Tb504 2.387 . S
O549 C560 1.264 . S
O550 Tb515 2.349 . S
O550 C560 1.243 . S
O551 Tb504 2.428 . S
O551 C568 1.256 . S
O552 Tb504 2.308 . S
O552 C567 1.266 . S
O553 Tb515 2.393 . S
O553 C567 1.248 . S
O554 Tb515 2.465 . S
O554 C579 1.264 . S
O555 Tb515 2.387 . S
O555 C571 1.264 . S
O556 Tb504 2.349 . S
O556 C571 1.243 . S
O557 Tb515 2.428 . S
O557 C579 1.256 . S
O558 Tb515 2.308 . S
O558 C578 1.266 . S
O559 Tb504 2.393 . S
O559 C578 1.248 . S
C560 O549 1.264 . S
C560 O550 1.243 . S
C561 C564 1.399 . S
C561 C566 1.383 . S
C561 C568 1.496 . S
C562 C563 1.399 . S
C562 C566 1.389 . S
C563 C562 1.399 . S
C563 C565 1.380 . S
C563 H580 0.929 1_655 S
C564 C561 1.399 . S
C564 C565 1.392 . S
C564 H581 0.929 . S
C565 C563 1.380 . S
C565 C564 1.392 . S
C565 H582 0.951 . S
C566 C561 1.383 . S
C566 C562 1.389 . S
C566 H583 0.931 . S
C567 O552 1.266 . S
C567 O553 1.248 . S
C568 Tb504 2.802 . S
C568 O548 1.264 . S
C568 O551 1.256 . S
C568 C561 1.496 . S
C569 C536 1.448 . S
C569 H546 0.930 . S
C569 C570 1.328 . S
C570 C541 1.427 . S
C570 H547 0.929 . S
C570 C569 1.328 . S
C571 O555 1.264 . S
C571 O556 1.243 . S
C572 C575 1.399 . S
C572 C576 1.383 . S
C572 C579 1.496 . S
C573 C574 1.399 . S
C573 C576 1.389 . S
C574 C573 1.399 . S
C574 C577 1.380 . S
C574 H584 0.929 . S
C575 C572 1.399 . S
C575 C577 1.392 . S
C575 H585 0.929 . S
C576 C572 1.383 . S
C576 C573 1.389 . S
C576 H586 0.931 . S
C577 C574 1.380 . S
C577 C575 1.392 . S
C577 H587 0.929 . S
C578 O558 1.266 . S
C578 O559 1.248 . S
C579 Tb515 2.802 . S
C579 O554 1.264 . S
C579 O557 1.256 . S
C579 C572 1.496 . S
H580 C563 0.929 1_455 S
H581 C564 0.929 . S
H582 C565 0.951 . S
H583 C566 0.931 . S
H584 C574 0.929 . S
H585 C575 0.929 . S
H586 C576 0.931 . S
H587 C577 0.929 . S
Tb588 N617 2.617 . S
Tb588 N623 2.572 . S
Tb588 O632 2.465 . S
Tb588 O633 2.387 . S
Tb588 O635 2.428 . S
Tb588 O636 2.308 . S
Tb588 O640 2.349 . S
Tb588 O643 2.393 . S
Tb588 C652 2.802 . S
C589 N590 1.379 . S
C589 C592 1.416 1_455 S
C589 C596 1.424 . S
N590 C589 1.379 . S
N590 C593 1.334 1_455 S
N590 Tb599 2.617 . S
C591 C593 1.390 . S
C591 C594 1.339 . S
C591 H611 0.930 . S
C592 C589 1.416 1_655 S
C592 C594 1.416 . S
C592 C598 1.448 . S
C593 N590 1.334 1_655 S
C593 C591 1.390 . S
C593 H604 0.930 . S
C594 C591 1.339 . S
C594 C592 1.416 . S
C594 H615 0.930 . S
C595 C596 1.413 . S
C595 C597 1.427 1_455 S
C595 C601 1.416 . S
C596 C589 1.424 . S
C596 C595 1.413 . S
C596 N600 1.361 . S
C597 C595 1.427 1_655 S
C597 C598 1.328 . S
C597 H612 0.929 . S
C598 C592 1.448 . S
C598 C597 1.328 . S
C598 H613 0.930 . S
Tb599 N590 2.617 . S
Tb599 N600 2.572 . S
Tb599 O634 2.349 . S
Tb599 O637 2.393 . S
Tb599 O638 2.465 . S
Tb599 O639 2.387 . S
Tb599 O641 2.428 . S
Tb599 O642 2.308 . S
Tb599 C663 2.802 . S
N600 C596 1.361 . S
N600 Tb599 2.572 . S
N600 C602 1.340 . S
C601 C595 1.416 . S
C601 C603 1.332 . S
C601 H609 0.931 . S
C602 N600 1.340 . S
C602 C603 1.407 . S
C602 H608 0.930 . S
C603 C601 1.332 . S
C603 C602 1.407 . S
C603 H605 0.929 . S
H604 C593 0.930 . S
H605 C603 0.929 . S
H606 C621 0.930 . S
H607 C628 0.929 . S
H608 C602 0.930 . S
H609 C601 0.931 . S
H610 C624 0.930 . S
H611 C591 0.930 . S
H612 C597 0.929 . S
H613 C598 0.930 . S
H614 C619 0.930 . S
H615 C594 0.930 . S
H616 C627 0.931 . S
N617 Tb588 2.617 . S
N617 C618 1.379 . S
N617 C621 1.334 . S
C618 N617 1.379 . S
C618 C620 1.416 . S
C618 C626 1.424 . S
C619 H614 0.930 . S
C619 C621 1.390 . S
C619 C622 1.339 . S
C620 C618 1.416 . S
C620 C622 1.416 . S
C620 C653 1.448 . S
C621 H606 0.930 . S
C621 N617 1.334 . S
C621 C619 1.390 . S
C622 C619 1.339 . S
C622 C620 1.416 . S
C622 H629 0.930 . S
N623 Tb588 2.572 . S
N623 C624 1.340 . S
N623 C626 1.361 . S
C624 H610 0.930 . S
C624 N623 1.340 . S
C624 C628 1.407 . S
C625 C626 1.413 . S
C625 C627 1.416 . S
C625 C654 1.427 . S
C626 C618 1.424 . S
C626 N623 1.361 . S
C626 C625 1.413 . S
C627 H616 0.931 . S
C627 C625 1.416 . S
C627 C628 1.332 . S
C628 H607 0.929 . S
C628 C624 1.407 . S
C628 C627 1.332 . S
H629 C622 0.930 . S
H630 C653 0.930 . S
H631 C654 0.929 . S
O632 Tb588 2.465 . S
O632 C652 1.264 . S
O633 Tb588 2.387 . S
O633 C644 1.264 . S
O634 Tb599 2.349 . S
O634 C644 1.243 . S
O635 Tb588 2.428 . S
O635 C652 1.256 . S
O636 Tb588 2.308 . S
O636 C651 1.266 . S
O637 Tb599 2.393 . S
O637 C651 1.248 . S
O638 Tb599 2.465 . S
O638 C663 1.264 . S
O639 Tb599 2.387 . S
O639 C655 1.264 . S
O640 Tb588 2.349 . S
O640 C655 1.243 . S
O641 Tb599 2.428 . S
O641 C663 1.256 . S
O642 Tb599 2.308 . S
O642 C662 1.266 . S
O643 Tb588 2.393 . S
O643 C662 1.248 . S
C644 O633 1.264 . S
C644 O634 1.243 . S
C645 C648 1.399 . S
C645 C650 1.383 . S
C645 C652 1.496 . S
C646 C647 1.399 . S
C646 C650 1.389 . S
C647 C646 1.399 . S
C647 C649 1.380 . S
C647 H664 0.929 . S
C648 C645 1.399 . S
C648 C649 1.392 . S
C648 H665 0.929 . S
C649 C647 1.380 . S
C649 C648 1.392 . S
C649 H666 0.929 . S
C650 C645 1.383 . S
C650 C646 1.389 . S
C650 H667 0.931 . S
C651 O636 1.266 . S
C651 O637 1.248 . S
C652 Tb588 2.802 . S
C652 O632 1.264 . S
C652 O635 1.256 . S
C652 C645 1.496 . S
C653 C620 1.448 . S
C653 H630 0.930 . S
C653 C654 1.328 . S
C654 C625 1.427 . S
C654 H631 0.929 . S
C654 C653 1.328 . S
C655 O639 1.264 . S
C655 O640 1.243 . S
C656 C659 1.399 . S
C656 C660 1.383 . S
C656 C663 1.496 . S
C657 C658 1.399 . S
C657 C660 1.389 . S
C658 C657 1.399 . S
C658 C661 1.380 . S
C658 H668 0.929 . S
C659 C656 1.399 . S
C659 C661 1.392 . S
C659 H669 0.929 . S
C660 C656 1.383 . S
C660 C657 1.389 . S
C660 H670 0.931 . S
C661 C658 1.380 . S
C661 C659 1.392 . S
C661 H671 0.939 . S
C662 O642 1.266 . S
C662 O643 1.248 . S
C663 Tb599 2.802 . S
C663 O638 1.264 . S
C663 O641 1.256 . S
C663 C656 1.496 . S
H664 C647 0.929 . S
H665 C648 0.929 . S
H666 C649 0.929 . S
H667 C650 0.931 . S
H668 C658 0.929 . S
H669 C659 0.929 . S
H670 C660 0.931 . S
H671 C661 0.939 . S
Tb672 N701 2.617 . S
Tb672 N707 2.572 . S
Tb672 O716 2.465 . S
Tb672 O717 2.387 . S
Tb672 O719 2.428 . S
Tb672 O720 2.308 . S
Tb672 O724 2.349 . S
Tb672 O727 2.393 . S
Tb672 C736 2.802 . S
C673 N674 1.379 . S
C673 C676 1.416 . S
C673 C680 1.424 . S
N674 C673 1.379 . S
N674 C677 1.334 . S
N674 Tb683 2.617 . S
C675 C677 1.390 . S
C675 C678 1.339 . S
C675 H695 0.930 . S
C676 C673 1.416 . S
C676 C678 1.416 . S
C676 C682 1.448 . S
C677 N674 1.334 . S
C677 C675 1.390 . S
C677 H688 0.930 . S
C678 C675 1.339 . S
C678 C676 1.416 . S
C678 H699 0.930 . S
C679 C680 1.413 . S
C679 C681 1.427 . S
C679 C685 1.416 . S
C680 C673 1.424 . S
C680 C679 1.413 . S
C680 N684 1.361 . S
C681 C679 1.427 . S
C681 C682 1.328 . S
C681 H696 0.929 . S
C682 C676 1.448 . S
C682 C681 1.328 . S
C682 H697 0.930 . S
Tb683 N674 2.617 . S
Tb683 N684 2.572 . S
Tb683 O718 2.349 . S
Tb683 O721 2.393 . S
Tb683 O722 2.465 . S
Tb683 O723 2.387 . S
Tb683 O725 2.428 . S
Tb683 O726 2.308 . S
Tb683 C747 2.802 . S
N684 C680 1.361 . S
N684 Tb683 2.572 . S
N684 C686 1.340 . S
C685 C679 1.416 . S
C685 C687 1.332 . S
C685 H693 0.931 . S
C686 N684 1.340 . S
C686 C687 1.407 . S
C686 H692 0.930 . S
C687 C685 1.332 . S
C687 C686 1.407 . S
C687 H689 0.929 . S
H688 C677 0.930 . S
H689 C687 0.929 . S
H690 C705 0.930 . S
H691 C712 0.929 . S
H692 C686 0.930 . S
H693 C685 0.931 . S
H694 C708 0.930 . S
H695 C675 0.930 . S
H696 C681 0.929 . S
H697 C682 0.930 . S
H698 C703 0.930 . S
H699 C678 0.930 . S
H700 C711 0.931 . S
N701 Tb672 2.617 . S
N701 C702 1.379 . S
N701 C705 1.334 . S
C702 N701 1.379 . S
C702 C704 1.416 . S
C702 C710 1.424 . S
C703 H698 0.930 . S
C703 C705 1.390 . S
C703 C706 1.339 . S
C704 C702 1.416 . S
C704 C706 1.416 . S
C704 C737 1.448 . S
C705 H690 0.930 . S
C705 N701 1.334 . S
C705 C703 1.390 . S
C706 C703 1.339 . S
C706 C704 1.416 . S
C706 H713 0.930 . S
N707 Tb672 2.572 . S
N707 C708 1.340 . S
N707 C710 1.361 . S
C708 H694 0.930 . S
C708 N707 1.340 . S
C708 C712 1.407 . S
C709 C710 1.413 . S
C709 C711 1.416 . S
C709 C738 1.427 . S
C710 C702 1.424 . S
C710 N707 1.361 . S
C710 C709 1.413 . S
C711 H700 0.931 . S
C711 C709 1.416 . S
C711 C712 1.332 . S
C712 H691 0.929 . S
C712 C708 1.407 . S
C712 C711 1.332 . S
H713 C706 0.930 . S
H714 C737 0.930 . S
H715 C738 0.929 . S
O716 Tb672 2.465 . S
O716 C736 1.264 . S
O717 Tb672 2.387 . S
O717 C728 1.264 . S
O718 Tb683 2.349 . S
O718 C728 1.243 . S
O719 Tb672 2.428 . S
O719 C736 1.256 . S
O720 Tb672 2.308 . S
O720 C735 1.266 . S
O721 Tb683 2.393 . S
O721 C735 1.248 . S
O722 Tb683 2.465 . S
O722 C747 1.264 . S
O723 Tb683 2.387 . S
O723 C739 1.264 . S
O724 Tb672 2.349 . S
O724 C739 1.243 . S
O725 Tb683 2.428 . S
O725 C747 1.256 . S
O726 Tb683 2.308 . S
O726 C746 1.266 . S
O727 Tb672 2.393 . S
O727 C746 1.248 . S
C728 O717 1.264 . S
C728 O718 1.243 . S
C729 C732 1.399 . S
C729 C734 1.383 . S
C729 C736 1.496 . S
C730 C731 1.399 . S
C730 C734 1.389 . S
C731 C730 1.399 . S
C731 C733 1.380 . S
C731 H748 0.929 . S
C732 C729 1.399 . S
C732 C733 1.392 . S
C732 H749 0.929 . S
C733 C731 1.380 . S
C733 C732 1.392 . S
C733 H750 0.929 . S
C734 C729 1.383 . S
C734 C730 1.389 . S
C734 H751 0.931 . S
C735 O720 1.266 . S
C735 O721 1.248 . S
C736 Tb672 2.802 . S
C736 O716 1.264 . S
C736 O719 1.256 . S
C736 C729 1.496 . S
C737 C704 1.448 . S
C737 H714 0.930 . S
C737 C738 1.328 . S
C738 C709 1.427 . S
C738 H715 0.929 . S
C738 C737 1.328 . S
C739 O723 1.264 . S
C739 O724 1.243 . S
C740 C743 1.399 . S
C740 C744 1.383 . S
C740 C747 1.496 . S
C741 C742 1.399 . S
C741 C744 1.389 . S
C742 C741 1.399 . S
C742 C745 1.380 . S
C742 H752 0.929 1_655 S
C743 C740 1.399 . S
C743 C745 1.392 . S
C743 H753 0.929 . S
C744 C740 1.383 . S
C744 C741 1.389 . S
C744 H754 0.931 . S
C745 C742 1.380 . S
C745 C743 1.392 . S
C745 H755 0.951 . S
C746 O726 1.266 . S
C746 O727 1.248 . S
C747 Tb683 2.802 . S
C747 O722 1.264 . S
C747 O725 1.256 . S
C747 C740 1.496 . S
H748 C731 0.929 . S
H749 C732 0.929 . S
H750 C733 0.929 . S
H751 C734 0.931 . S
H752 C742 0.929 1_455 S
H753 C743 0.929 . S
H754 C744 0.931 . S
H755 C745 0.951 . S
Tb756 N785 2.617 . S
Tb756 N791 2.572 . S
Tb756 O800 2.465 . S
Tb756 O801 2.387 . S
Tb756 O803 2.428 . S
Tb756 O804 2.308 . S
Tb756 O808 2.349 . S
Tb756 O811 2.393 . S
Tb756 C820 2.802 . S
C757 N758 1.379 . S
C757 C760 1.416 . S
C757 C764 1.424 . S
N758 C757 1.379 . S
N758 C761 1.334 . S
N758 Tb767 2.617 . S
C759 C761 1.390 . S
C759 C762 1.339 . S
C759 H779 0.930 . S
C760 C757 1.416 . S
C760 C762 1.416 . S
C760 C766 1.448 . S
C761 N758 1.334 . S
C761 C759 1.390 . S
C761 H772 0.930 . S
C762 C759 1.339 . S
C762 C760 1.416 . S
C762 H783 0.930 . S
C763 C764 1.413 . S
C763 C765 1.427 . S
C763 C769 1.416 . S
C764 C757 1.424 . S
C764 C763 1.413 . S
C764 N768 1.361 . S
C765 C763 1.427 . S
C765 C766 1.328 . S
C765 H780 0.929 . S
C766 C760 1.448 . S
C766 C765 1.328 . S
C766 H781 0.930 . S
Tb767 N758 2.617 . S
Tb767 N768 2.572 . S
Tb767 O802 2.349 . S
Tb767 O805 2.393 . S
Tb767 O806 2.465 . S
Tb767 O807 2.387 . S
Tb767 O809 2.428 . S
Tb767 O810 2.308 . S
Tb767 C831 2.802 . S
N768 C764 1.361 . S
N768 Tb767 2.572 . S
N768 C770 1.340 . S
C769 C763 1.416 . S
C769 C771 1.332 . S
C769 H777 0.931 . S
C770 N768 1.340 . S
C770 C771 1.407 . S
C770 H776 0.930 . S
C771 C769 1.332 . S
C771 C770 1.407 . S
C771 H773 0.929 . S
H772 C761 0.930 . S
H773 C771 0.929 . S
H774 C789 0.930 . S
H775 C796 0.929 . S
H776 C770 0.930 . S
H777 C769 0.931 . S
H778 C792 0.930 . S
H779 C759 0.930 . S
H780 C765 0.929 . S
H781 C766 0.930 . S
H782 C787 0.930 . S
H783 C762 0.930 . S
H784 C795 0.931 . S
N785 Tb756 2.617 . S
N785 C786 1.379 . S
N785 C789 1.334 1_455 S
C786 N785 1.379 . S
C786 C788 1.416 1_455 S
C786 C794 1.424 . S
C787 H782 0.930 . S
C787 C789 1.390 . S
C787 C790 1.339 . S
C788 C786 1.416 1_655 S
C788 C790 1.416 . S
C788 C821 1.448 . S
C789 H774 0.930 . S
C789 N785 1.334 1_655 S
C789 C787 1.390 . S
C790 C787 1.339 . S
C790 C788 1.416 . S
C790 H797 0.930 . S
N791 Tb756 2.572 . S
N791 C792 1.340 . S
N791 C794 1.361 . S
C792 H778 0.930 . S
C792 N791 1.340 . S
C792 C796 1.407 . S
C793 C794 1.413 . S
C793 C795 1.416 . S
C793 C822 1.427 1_455 S
C794 C786 1.424 . S
C794 N791 1.361 . S
C794 C793 1.413 . S
C795 H784 0.931 . S
C795 C793 1.416 . S
C795 C796 1.332 . S
C796 H775 0.929 . S
C796 C792 1.407 . S
C796 C795 1.332 . S
H797 C790 0.930 . S
H798 C821 0.930 . S
H799 C822 0.929 . S
O800 Tb756 2.465 . S
O800 C820 1.264 . S
O801 Tb756 2.387 . S
O801 C812 1.264 . S
O802 Tb767 2.349 . S
O802 C812 1.243 . S
O803 Tb756 2.428 . S
O803 C820 1.256 . S
O804 Tb756 2.308 . S
O804 C819 1.266 . S
O805 Tb767 2.393 . S
O805 C819 1.248 . S
O806 Tb767 2.465 . S
O806 C831 1.264 . S
O807 Tb767 2.387 . S
O807 C823 1.264 . S
O808 Tb756 2.349 . S
O808 C823 1.243 . S
O809 Tb767 2.428 . S
O809 C831 1.256 . S
O810 Tb767 2.308 . S
O810 C830 1.266 . S
O811 Tb756 2.393 . S
O811 C830 1.248 . S
C812 O801 1.264 . S
C812 O802 1.243 . S
C813 C816 1.399 . S
C813 C818 1.383 . S
C813 C820 1.496 . S
C814 C815 1.399 . S
C814 C818 1.389 . S
C815 C814 1.399 . S
C815 C817 1.380 . S
C815 H832 0.929 1_545 S
C816 C813 1.399 . S
C816 C817 1.392 . S
C816 H833 0.929 . S
C817 C815 1.380 . S
C817 C816 1.392 . S
C817 H834 0.939 . S
C818 C813 1.383 . S
C818 C814 1.389 . S
C818 H835 0.931 . S
C819 O804 1.266 . S
C819 O805 1.248 . S
C820 Tb756 2.802 . S
C820 O800 1.264 . S
C820 O803 1.256 . S
C820 C813 1.496 . S
C821 C788 1.448 . S
C821 H798 0.930 . S
C821 C822 1.328 . S
C822 C793 1.427 1_655 S
C822 H799 0.929 . S
C822 C821 1.328 . S
C823 O807 1.264 . S
C823 O808 1.243 . S
C824 C827 1.399 . S
C824 C828 1.383 . S
C824 C831 1.496 . S
C825 C826 1.399 . S
C825 C828 1.389 . S
C826 C825 1.399 . S
C826 C829 1.380 . S
C826 H836 0.929 . S
C827 C824 1.399 . S
C827 C829 1.392 . S
C827 H837 0.929 . S
C828 C824 1.383 . S
C828 C825 1.389 . S
C828 H838 0.931 . S
C829 C826 1.380 . S
C829 C827 1.392 . S
C829 H839 0.929 . S
C830 O810 1.266 . S
C830 O811 1.248 . S
C831 Tb767 2.802 . S
C831 O806 1.264 . S
C831 O809 1.256 . S
C831 C824 1.496 . S
H832 C815 0.929 1_565 S
H833 C816 0.929 . S
H834 C817 0.939 . S
H835 C818 0.931 . S
H836 C826 0.929 . S
H837 C827 0.929 . S
H838 C828 0.931 . S
H839 C829 0.929 . S
Tb840 N869 2.617 . S
Tb840 N875 2.572 . S
Tb840 O884 2.465 . S
Tb840 O885 2.387 . S
Tb840 O887 2.428 . S
Tb840 O888 2.308 . S
Tb840 O892 2.349 . S
Tb840 O895 2.393 . S
Tb840 C904 2.802 . S
C841 N842 1.379 1_556 S
C841 C844 1.416 . S
C841 C848 1.424 . S
N842 C841 1.379 1_554 S
N842 C845 1.334 . S
N842 Tb851 2.617 . S
C843 C845 1.390 . S
C843 C846 1.339 . S
C843 H863 0.930 . S
C844 C841 1.416 . S
C844 C846 1.416 1_556 S
C844 C850 1.448 . S
C845 N842 1.334 . S
C845 C843 1.390 . S
C845 H856 0.930 . S
C846 C843 1.339 . S
C846 C844 1.416 1_554 S
C846 H867 0.930 . S
C847 C848 1.413 . S
C847 C849 1.427 . S
C847 C853 1.416 . S
C848 C841 1.424 . S
C848 C847 1.413 . S
C848 N852 1.361 . S
C849 C847 1.427 . S
C849 C850 1.328 . S
C849 H864 0.929 . S
C850 C844 1.448 . S
C850 C849 1.328 . S
C850 H865 0.930 . S
Tb851 N842 2.617 . S
Tb851 N852 2.572 1_554 S
Tb851 O886 2.349 . S
Tb851 O889 2.393 . S
Tb851 O890 2.465 1_554 S
Tb851 O891 2.387 . S
Tb851 O893 2.428 1_554 S
Tb851 O894 2.308 1_554 S
Tb851 C915 2.802 1_554 S
N852 C848 1.361 . S
N852 Tb851 2.572 1_556 S
N852 C854 1.340 . S
C853 C847 1.416 . S
C853 C855 1.332 . S
C853 H861 0.931 . S
C854 N852 1.340 . S
C854 C855 1.407 . S
C854 H860 0.930 . S
C855 C853 1.332 . S
C855 C854 1.407 . S
C855 H857 0.929 . S
H856 C845 0.930 . S
H857 C855 0.929 . S
H858 C873 0.930 . S
H859 C880 0.929 . S
H860 C854 0.930 . S
H861 C853 0.931 . S
H862 C876 0.930 . S
H863 C843 0.930 . S
H864 C849 0.929 . S
H865 C850 0.930 . S
H866 C871 0.930 . S
H867 C846 0.930 . S
H868 C879 0.931 . S
N869 Tb840 2.617 . S
N869 C870 1.379 . S
N869 C873 1.334 . S
C870 N869 1.379 . S
C870 C872 1.416 . S
C870 C878 1.424 . S
C871 H866 0.930 . S
C871 C873 1.390 . S
C871 C874 1.339 . S
C872 C870 1.416 . S
C872 C874 1.416 . S
C872 C905 1.448 . S
C873 H858 0.930 . S
C873 N869 1.334 . S
C873 C871 1.390 . S
C874 C871 1.339 . S
C874 C872 1.416 . S
C874 H881 0.930 . S
N875 Tb840 2.572 . S
N875 C876 1.340 . S
N875 C878 1.361 . S
C876 H862 0.930 . S
C876 N875 1.340 . S
C876 C880 1.407 . S
C877 C878 1.413 . S
C877 C879 1.416 . S
C877 C906 1.427 . S
C878 C870 1.424 . S
C878 N875 1.361 . S
C878 C877 1.413 . S
C879 H868 0.931 . S
C879 C877 1.416 . S
C879 C880 1.332 . S
C880 H859 0.929 . S
C880 C876 1.407 . S
C880 C879 1.332 . S
H881 C874 0.930 . S
H882 C905 0.930 . S
H883 C906 0.929 . S
O884 Tb840 2.465 . S
O884 C904 1.264 . S
O885 Tb840 2.387 . S
O885 C896 1.264 . S
O886 Tb851 2.349 . S
O886 C896 1.243 . S
O887 Tb840 2.428 . S
O887 C904 1.256 . S
O888 Tb840 2.308 . S
O888 C903 1.266 . S
O889 Tb851 2.393 . S
O889 C903 1.248 . S
O890 Tb851 2.465 1_556 S
O890 C915 1.264 . S
O891 Tb851 2.387 . S
O891 C907 1.264 . S
O892 Tb840 2.349 . S
O892 C907 1.243 . S
O893 Tb851 2.428 1_556 S
O893 C915 1.256 . S
O894 Tb851 2.308 1_556 S
O894 C914 1.266 . S
O895 Tb840 2.393 . S
O895 C914 1.248 1_554 S
C896 O885 1.264 . S
C896 O886 1.243 . S
C897 C900 1.399 . S
C897 C902 1.383 . S
C897 C904 1.496 . S
C898 C899 1.399 . S
C898 C902 1.389 . S
C899 C898 1.399 . S
C899 C901 1.380 . S
C899 H916 0.929 . S
C900 C897 1.399 . S
C900 C901 1.392 . S
C900 H917 0.929 . S
C901 C899 1.380 . S
C901 C900 1.392 . S
C901 H918 0.929 . S
C902 C897 1.383 . S
C902 C898 1.389 . S
C902 H919 0.931 . S
C903 O888 1.266 . S
C903 O889 1.248 . S
C904 Tb840 2.802 . S
C904 O884 1.264 . S
C904 O887 1.256 . S
C904 C897 1.496 . S
C905 C872 1.448 . S
C905 H882 0.930 . S
C905 C906 1.328 . S
C906 C877 1.427 . S
C906 H883 0.929 . S
C906 C905 1.328 . S
C907 O891 1.264 . S
C907 O892 1.243 . S
C908 C911 1.399 . S
C908 C912 1.383 . S
C908 C915 1.496 . S
C909 C910 1.399 . S
C909 C912 1.389 . S
C910 C909 1.399 . S
C910 C913 1.380 . S
C910 H920 0.929 . S
C911 C908 1.399 . S
C911 C913 1.392 . S
C911 H921 0.929 . S
C912 C908 1.383 . S
C912 C909 1.389 . S
C912 H922 0.931 . S
C913 C910 1.380 . S
C913 C911 1.392 . S
C913 H923 0.929 . S
C914 O894 1.266 . S
C914 O895 1.248 1_556 S
C915 Tb851 2.802 1_556 S
C915 O890 1.264 . S
C915 O893 1.256 . S
C915 C908 1.496 . S
H916 C899 0.929 . S
H917 C900 0.929 . S
H918 C901 0.929 . S
H919 C902 0.931 . S
H920 C910 0.929 . S
H921 C911 0.929 . S
H922 C912 0.931 . S
H923 C913 0.929 . S
Tb924 N953 2.617 . S
Tb924 N959 2.572 . S
Tb924 O968 2.465 . S
Tb924 O969 2.387 . S
Tb924 O971 2.428 . S
Tb924 O972 2.308 . S
Tb924 O976 2.349 . S
Tb924 O979 2.393 . S
Tb924 C988 2.802 . S
C925 N926 1.379 . S
C925 C928 1.416 . S
C925 C932 1.424 . S
N926 C925 1.379 . S
N926 C929 1.334 . S
N926 Tb935 2.617 . S
C927 C929 1.390 . S
C927 C930 1.339 . S
C927 H947 0.930 . S
C928 C925 1.416 . S
C928 C930 1.416 . S
C928 C934 1.448 . S
C929 N926 1.334 . S
C929 C927 1.390 . S
C929 H940 0.930 . S
C930 C927 1.339 . S
C930 C928 1.416 . S
C930 H951 0.930 . S
C931 C932 1.413 . S
C931 C933 1.427 . S
C931 C937 1.416 . S
C932 C925 1.424 . S
C932 C931 1.413 . S
C932 N936 1.361 . S
C933 C931 1.427 . S
C933 C934 1.328 . S
C933 H948 0.929 . S
C934 C928 1.448 . S
C934 C933 1.328 . S
C934 H949 0.930 . S
Tb935 N926 2.617 . S
Tb935 N936 2.572 . S
Tb935 O970 2.349 . S
Tb935 O973 2.393 . S
Tb935 O974 2.465 . S
Tb935 O975 2.387 . S
Tb935 O977 2.428 . S
Tb935 O978 2.308 . S
Tb935 C999 2.802 . S
N936 C932 1.361 . S
N936 Tb935 2.572 . S
N936 C938 1.340 . S
C937 C931 1.416 . S
C937 C939 1.332 . S
C937 H945 0.931 . S
C938 N936 1.340 . S
C938 C939 1.407 . S
C938 H944 0.930 . S
C939 C937 1.332 . S
C939 C938 1.407 . S
C939 H941 0.929 . S
H940 C929 0.930 . S
H941 C939 0.929 . S
H942 C957 0.930 . S
H943 C964 0.929 . S
H944 C938 0.930 . S
H945 C937 0.931 . S
H946 C960 0.930 . S
H947 C927 0.930 . S
H948 C933 0.929 . S
H949 C934 0.930 . S
H950 C955 0.930 . S
H951 C930 0.930 . S
H952 C963 0.931 . S
N953 Tb924 2.617 . S
N953 C954 1.379 . S
N953 C957 1.334 . S
C954 N953 1.379 . S
C954 C956 1.416 . S
C954 C962 1.424 . S
C955 H950 0.930 . S
C955 C957 1.390 . S
C955 C958 1.339 . S
C956 C954 1.416 . S
C956 C958 1.416 . S
C956 C989 1.448 . S
C957 H942 0.930 . S
C957 N953 1.334 . S
C957 C955 1.390 . S
C958 C955 1.339 . S
C958 C956 1.416 . S
C958 H965 0.930 . S
N959 Tb924 2.572 . S
N959 C960 1.340 . S
N959 C962 1.361 . S
C960 H946 0.930 . S
C960 N959 1.340 . S
C960 C964 1.407 . S
C961 C962 1.413 . S
C961 C963 1.416 . S
C961 C990 1.427 . S
C962 C954 1.424 . S
C962 N959 1.361 . S
C962 C961 1.413 . S
C963 H952 0.931 . S
C963 C961 1.416 . S
C963 C964 1.332 . S
C964 H943 0.929 . S
C964 C960 1.407 . S
C964 C963 1.332 . S
H965 C958 0.930 . S
H966 C989 0.930 . S
H967 C990 0.929 . S
O968 Tb924 2.465 . S
O968 C988 1.264 . S
O969 Tb924 2.387 . S
O969 C980 1.264 . S
O970 Tb935 2.349 . S
O970 C980 1.243 . S
O971 Tb924 2.428 . S
O971 C988 1.256 . S
O972 Tb924 2.308 . S
O972 C987 1.266 . S
O973 Tb935 2.393 . S
O973 C987 1.248 . S
O974 Tb935 2.465 . S
O974 C999 1.264 . S
O975 Tb935 2.387 . S
O975 C991 1.264 . S
O976 Tb924 2.349 . S
O976 C991 1.243 . S
O977 Tb935 2.428 . S
O977 C999 1.256 . S
O978 Tb935 2.308 . S
O978 C998 1.266 . S
O979 Tb924 2.393 . S
O979 C998 1.248 . S
C980 O969 1.264 . S
C980 O970 1.243 . S
C981 C984 1.399 . S
C981 C986 1.383 . S
C981 C988 1.496 . S
C982 C983 1.399 . S
C982 C986 1.389 . S
C983 C982 1.399 . S
C983 C985 1.380 . S
C983 H1000 0.929 1_565 S
C984 C981 1.399 . S
C984 C985 1.392 . S
C984 H1001 0.929 . S
C985 C983 1.380 . S
C985 C984 1.392 . S
C985 H1002 0.929 . S
C986 C981 1.383 . S
C986 C982 1.389 . S
C986 H1003 0.931 . S
C987 O972 1.266 . S
C987 O973 1.248 . S
C988 Tb924 2.802 . S
C988 O968 1.264 . S
C988 O971 1.256 . S
C988 C981 1.496 . S
C989 C956 1.448 . S
C989 H966 0.930 . S
C989 C990 1.328 . S
C990 C961 1.427 . S
C990 H967 0.929 . S
C990 C989 1.328 . S
C991 O975 1.264 . S
C991 O976 1.243 . S
C992 C995 1.399 . S
C992 C996 1.383 . S
C992 C999 1.496 . S
C993 C994 1.399 . S
C993 C996 1.389 . S
C994 C993 1.399 . S
C994 C997 1.380 . S
C994 H1004 0.929 . S
C995 C992 1.399 . S
C995 C997 1.392 . S
C995 H1005 0.929 . S
C996 C992 1.383 . S
C996 C993 1.389 . S
C996 H1006 0.931 . S
C997 C994 1.380 . S
C997 C995 1.392 . S
C997 H1007 0.929 . S
C998 O978 1.266 . S
C998 O979 1.248 . S
C999 Tb935 2.802 . S
C999 O974 1.264 . S
C999 O977 1.256 . S
C999 C992 1.496 . S
H1000 C983 0.929 1_545 S
H1001 C984 0.929 . S
H1002 C985 0.929 . S
H1003 C986 0.931 . S
H1004 C994 0.929 . S
H1005 C995 0.929 . S
H1006 C996 0.931 . S
H1007 C997 0.929 . S
Tb1008 N1037 2.617 . S
Tb1008 N1043 2.572 . S
Tb1008 O1052 2.465 . S
Tb1008 O1053 2.387 . S
Tb1008 O1055 2.428 . S
Tb1008 O1056 2.308 . S
Tb1008 O1060 2.349 . S
Tb1008 O1063 2.393 . S
Tb1008 C1072 2.802 . S
C1009 N1010 1.379 . S
C1009 C1012 1.416 . S
C1009 C1016 1.424 . S
N1010 C1009 1.379 . S
N1010 C1013 1.334 . S
N1010 Tb1019 2.617 . S
C1011 C1013 1.390 . S
C1011 C1014 1.339 . S
C1011 H1031 0.930 . S
C1012 C1009 1.416 . S
C1012 C1014 1.416 . S
C1012 C1018 1.448 . S
C1013 N1010 1.334 . S
C1013 C1011 1.390 . S
C1013 H1024 0.930 . S
C1014 C1011 1.339 . S
C1014 C1012 1.416 . S
C1014 H1035 0.930 . S
C1015 C1016 1.413 . S
C1015 C1017 1.427 . S
C1015 C1021 1.416 . S
C1016 C1009 1.424 . S
C1016 C1015 1.413 . S
C1016 N1020 1.361 . S
C1017 C1015 1.427 . S
C1017 C1018 1.328 . S
C1017 H1032 0.929 . S
C1018 C1012 1.448 . S
C1018 C1017 1.328 . S
C1018 H1033 0.930 . S
Tb1019 N1010 2.617 . S
Tb1019 N1020 2.572 . S
Tb1019 O1054 2.349 . S
Tb1019 O1057 2.393 . S
Tb1019 O1058 2.465 . S
Tb1019 O1059 2.387 . S
Tb1019 O1061 2.428 . S
Tb1019 O1062 2.308 . S
Tb1019 C1083 2.802 . S
N1020 C1016 1.361 . S
N1020 Tb1019 2.572 . S
N1020 C1022 1.340 . S
C1021 C1015 1.416 . S
C1021 C1023 1.332 . S
C1021 H1029 0.931 . S
C1022 N1020 1.340 . S
C1022 C1023 1.407 . S
C1022 H1028 0.930 . S
C1023 C1021 1.332 . S
C1023 C1022 1.407 . S
C1023 H1025 0.929 . S
H1024 C1013 0.930 . S
H1025 C1023 0.929 . S
H1026 C1041 0.930 . S
H1027 C1048 0.929 . S
H1028 C1022 0.930 . S
H1029 C1021 0.931 . S
H1030 C1044 0.930 . S
H1031 C1011 0.930 . S
H1032 C1017 0.929 . S
H1033 C1018 0.930 . S
H1034 C1039 0.930 . S
H1035 C1014 0.930 . S
H1036 C1047 0.931 . S
N1037 Tb1008 2.617 . S
N1037 C1038 1.379 . S
N1037 C1041 1.334 . S
C1038 N1037 1.379 . S
C1038 C1040 1.416 . S
C1038 C1046 1.424 . S
C1039 H1034 0.930 . S
C1039 C1041 1.390 . S
C1039 C1042 1.339 . S
C1040 C1038 1.416 . S
C1040 C1042 1.416 . S
C1040 C1073 1.448 . S
C1041 H1026 0.930 . S
C1041 N1037 1.334 . S
C1041 C1039 1.390 . S
C1042 C1039 1.339 . S
C1042 C1040 1.416 . S
C1042 H1049 0.930 . S
N1043 Tb1008 2.572 . S
N1043 C1044 1.340 . S
N1043 C1046 1.361 . S
C1044 H1030 0.930 . S
C1044 N1043 1.340 . S
C1044 C1048 1.407 . S
C1045 C1046 1.413 . S
C1045 C1047 1.416 . S
C1045 C1074 1.427 . S
C1046 C1038 1.424 . S
C1046 N1043 1.361 . S
C1046 C1045 1.413 . S
C1047 H1036 0.931 . S
C1047 C1045 1.416 . S
C1047 C1048 1.332 . S
C1048 H1027 0.929 . S
C1048 C1044 1.407 . S
C1048 C1047 1.332 . S
H1049 C1042 0.930 . S
H1050 C1073 0.930 . S
H1051 C1074 0.929 . S
O1052 Tb1008 2.465 . S
O1052 C1072 1.264 . S
O1053 Tb1008 2.387 . S
O1053 C1064 1.264 . S
O1054 Tb1019 2.349 . S
O1054 C1064 1.243 . S
O1055 Tb1008 2.428 . S
O1055 C1072 1.256 . S
O1056 Tb1008 2.308 . S
O1056 C1071 1.266 . S
O1057 Tb1019 2.393 . S
O1057 C1071 1.248 . S
O1058 Tb1019 2.465 . S
O1058 C1083 1.264 . S
O1059 Tb1019 2.387 . S
O1059 C1075 1.264 . S
O1060 Tb1008 2.349 . S
O1060 C1075 1.243 . S
O1061 Tb1019 2.428 . S
O1061 C1083 1.256 . S
O1062 Tb1019 2.308 . S
O1062 C1082 1.266 . S
O1063 Tb1008 2.393 . S
O1063 C1082 1.248 . S
C1064 O1053 1.264 . S
C1064 O1054 1.243 . S
C1065 C1068 1.399 . S
C1065 C1070 1.383 . S
C1065 C1072 1.496 . S
C1066 C1067 1.399 . S
C1066 C1070 1.389 . S
C1067 C1066 1.399 . S
C1067 C1069 1.380 . S
C1067 H1084 0.929 1_455 S
C1068 C1065 1.399 . S
C1068 C1069 1.392 . S
C1068 H1085 0.929 . S
C1069 C1067 1.380 . S
C1069 C1068 1.392 . S
C1069 H1086 0.951 . S
C1070 C1065 1.383 . S
C1070 C1066 1.389 . S
C1070 H1087 0.931 . S
C1071 O1056 1.266 . S
C1071 O1057 1.248 . S
C1072 Tb1008 2.802 . S
C1072 O1052 1.264 . S
C1072 O1055 1.256 . S
C1072 C1065 1.496 . S
C1073 C1040 1.448 . S
C1073 H1050 0.930 . S
C1073 C1074 1.328 . S
C1074 C1045 1.427 . S
C1074 H1051 0.929 . S
C1074 C1073 1.328 . S
C1075 O1059 1.264 . S
C1075 O1060 1.243 . S
C1076 C1079 1.399 . S
C1076 C1080 1.383 . S
C1076 C1083 1.496 . S
C1077 C1078 1.399 . S
C1077 C1080 1.389 . S
C1078 C1077 1.399 . S
C1078 C1081 1.380 . S
C1078 H1088 0.929 . S
C1079 C1076 1.399 . S
C1079 C1081 1.392 . S
C1079 H1089 0.929 . S
C1080 C1076 1.383 . S
C1080 C1077 1.389 . S
C1080 H1090 0.931 . S
C1081 C1078 1.380 . S
C1081 C1079 1.392 . S
C1081 H1091 0.929 . S
C1082 O1062 1.266 . S
C1082 O1063 1.248 . S
C1083 Tb1019 2.802 . S
C1083 O1058 1.264 . S
C1083 O1061 1.256 . S
C1083 C1076 1.496 . S
H1084 C1067 0.929 1_655 S
H1085 C1068 0.929 . S
H1086 C1069 0.951 . S
H1087 C1070 0.931 . S
H1088 C1078 0.929 . S
H1089 C1079 0.929 . S
H1090 C1080 0.931 . S
H1091 C1081 0.929 . S
Tb1092 N1121 2.617 . S
Tb1092 N1127 2.572 . S
Tb1092 O1136 2.465 . S
Tb1092 O1137 2.387 . S
Tb1092 O1139 2.428 . S
Tb1092 O1140 2.308 . S
Tb1092 O1144 2.349 . S
Tb1092 O1147 2.393 . S
Tb1092 C1156 2.802 . S
C1093 N1094 1.379 . S
C1093 C1096 1.416 1_655 S
C1093 C1100 1.424 . S
N1094 C1093 1.379 . S
N1094 C1097 1.334 1_655 S
N1094 Tb1103 2.617 . S
C1095 C1097 1.390 . S
C1095 C1098 1.339 . S
C1095 H1115 0.930 . S
C1096 C1093 1.416 1_455 S
C1096 C1098 1.416 . S
C1096 C1102 1.448 . S
C1097 N1094 1.334 1_455 S
C1097 C1095 1.390 . S
C1097 H1108 0.930 . S
C1098 C1095 1.339 . S
C1098 C1096 1.416 . S
C1098 H1119 0.930 . S
C1099 C1100 1.413 . S
C1099 C1101 1.427 1_655 S
C1099 C1105 1.416 . S
C1100 C1093 1.424 . S
C1100 C1099 1.413 . S
C1100 N1104 1.361 . S
C1101 C1099 1.427 1_455 S
C1101 C1102 1.328 . S
C1101 H1116 0.929 . S
C1102 C1096 1.448 . S
C1102 C1101 1.328 . S
C1102 H1117 0.930 . S
Tb1103 N1094 2.617 . S
Tb1103 N1104 2.572 . S
Tb1103 O1138 2.349 . S
Tb1103 O1141 2.393 . S
Tb1103 O1142 2.465 . S
Tb1103 O1143 2.387 . S
Tb1103 O1145 2.428 . S
Tb1103 O1146 2.308 . S
Tb1103 C1167 2.802 . S
N1104 C1100 1.361 . S
N1104 Tb1103 2.572 . S
N1104 C1106 1.340 . S
C1105 C1099 1.416 . S
C1105 C1107 1.332 . S
C1105 H1113 0.931 . S
C1106 N1104 1.340 . S
C1106 C1107 1.407 . S
C1106 H1112 0.930 . S
C1107 C1105 1.332 . S
C1107 C1106 1.407 . S
C1107 H1109 0.929 . S
H1108 C1097 0.930 . S
H1109 C1107 0.929 . S
H1110 C1125 0.930 . S
H1111 C1132 0.929 . S
H1112 C1106 0.930 . S
H1113 C1105 0.931 . S
H1114 C1128 0.930 . S
H1115 C1095 0.930 . S
H1116 C1101 0.929 . S
H1117 C1102 0.930 . S
H1118 C1123 0.930 . S
H1119 C1098 0.930 . S
H1120 C1131 0.931 . S
N1121 Tb1092 2.617 . S
N1121 C1122 1.379 . S
N1121 C1125 1.334 . S
C1122 N1121 1.379 . S
C1122 C1124 1.416 . S
C1122 C1130 1.424 . S
C1123 H1118 0.930 . S
C1123 C1125 1.390 . S
C1123 C1126 1.339 . S
C1124 C1122 1.416 . S
C1124 C1126 1.416 . S
C1124 C1157 1.448 . S
C1125 H1110 0.930 . S
C1125 N1121 1.334 . S
C1125 C1123 1.390 . S
C1126 C1123 1.339 . S
C1126 C1124 1.416 . S
C1126 H1133 0.930 . S
N1127 Tb1092 2.572 . S
N1127 C1128 1.340 . S
N1127 C1130 1.361 . S
C1128 H1114 0.930 . S
C1128 N1127 1.340 . S
C1128 C1132 1.407 . S
C1129 C1130 1.413 . S
C1129 C1131 1.416 . S
C1129 C1158 1.427 . S
C1130 C1122 1.424 . S
C1130 N1127 1.361 . S
C1130 C1129 1.413 . S
C1131 H1120 0.931 . S
C1131 C1129 1.416 . S
C1131 C1132 1.332 . S
C1132 H1111 0.929 . S
C1132 C1128 1.407 . S
C1132 C1131 1.332 . S
H1133 C1126 0.930 . S
H1134 C1157 0.930 . S
H1135 C1158 0.929 . S
O1136 Tb1092 2.465 . S
O1136 C1156 1.264 . S
O1137 Tb1092 2.387 . S
O1137 C1148 1.264 . S
O1138 Tb1103 2.349 . S
O1138 C1148 1.243 . S
O1139 Tb1092 2.428 . S
O1139 C1156 1.256 . S
O1140 Tb1092 2.308 . S
O1140 C1155 1.266 . S
O1141 Tb1103 2.393 . S
O1141 C1155 1.248 . S
O1142 Tb1103 2.465 . S
O1142 C1167 1.264 . S
O1143 Tb1103 2.387 . S
O1143 C1159 1.264 . S
O1144 Tb1092 2.349 . S
O1144 C1159 1.243 . S
O1145 Tb1103 2.428 . S
O1145 C1167 1.256 . S
O1146 Tb1103 2.308 . S
O1146 C1166 1.266 . S
O1147 Tb1092 2.393 . S
O1147 C1166 1.248 . S
C1148 O1137 1.264 . S
C1148 O1138 1.243 . S
C1149 C1152 1.399 . S
C1149 C1154 1.383 . S
C1149 C1156 1.496 . S
C1150 C1151 1.399 . S
C1150 C1154 1.389 . S
C1151 C1150 1.399 . S
C1151 C1153 1.380 . S
C1151 H1168 0.929 . S
C1152 C1149 1.399 . S
C1152 C1153 1.392 . S
C1152 H1169 0.929 . S
C1153 C1151 1.380 . S
C1153 C1152 1.392 . S
C1153 H1170 0.929 . S
C1154 C1149 1.383 . S
C1154 C1150 1.389 . S
C1154 H1171 0.931 . S
C1155 O1140 1.266 . S
C1155 O1141 1.248 . S
C1156 Tb1092 2.802 . S
C1156 O1136 1.264 . S
C1156 O1139 1.256 . S
C1156 C1149 1.496 . S
C1157 C1124 1.448 . S
C1157 H1134 0.930 . S
C1157 C1158 1.328 . S
C1158 C1129 1.427 . S
C1158 H1135 0.929 . S
C1158 C1157 1.328 . S
C1159 O1143 1.264 . S
C1159 O1144 1.243 . S
C1160 C1163 1.399 . S
C1160 C1164 1.383 . S
C1160 C1167 1.496 . S
C1161 C1162 1.399 . S
C1161 C1164 1.389 . S
C1162 C1161 1.399 . S
C1162 C1165 1.380 . S
C1162 H1172 0.929 1_565 S
C1163 C1160 1.399 . S
C1163 C1165 1.392 . S
C1163 H1173 0.929 . S
C1164 C1160 1.383 . S
C1164 C1161 1.389 . S
C1164 H1174 0.931 . S
C1165 C1162 1.380 . S
C1165 C1163 1.392 . S
C1165 H1175 0.939 . S
C1166 O1146 1.266 . S
C1166 O1147 1.248 . S
C1167 Tb1103 2.802 . S
C1167 O1142 1.264 . S
C1167 O1145 1.256 . S
C1167 C1160 1.496 . S
H1168 C1151 0.929 . S
H1169 C1152 0.929 . S
H1170 C1153 0.929 . S
H1171 C1154 0.931 . S
H1172 C1162 0.929 1_545 S
H1173 C1163 0.929 . S
H1174 C1164 0.931 . S
H1175 C1165 0.939 . S
Tb1176 N1205 2.617 . S
Tb1176 N1211 2.572 1_556 S
Tb1176 O1220 2.465 1_556 S
Tb1176 O1221 2.387 . S
Tb1176 O1223 2.428 1_556 S
Tb1176 O1224 2.308 1_556 S
Tb1176 O1228 2.349 . S
Tb1176 O1231 2.393 . S
Tb1176 C1240 2.802 1_556 S
C1177 N1178 1.379 . S
C1177 C1180 1.416 . S
C1177 C1184 1.424 . S
N1178 C1177 1.379 . S
N1178 C1181 1.334 . S
N1178 Tb1187 2.617 . S
C1179 C1181 1.390 . S
C1179 C1182 1.339 . S
C1179 H1199 0.930 . S
C1180 C1177 1.416 . S
C1180 C1182 1.416 . S
C1180 C1186 1.448 . S
C1181 N1178 1.334 . S
C1181 C1179 1.390 . S
C1181 H1192 0.930 . S
C1182 C1179 1.339 . S
C1182 C1180 1.416 . S
C1182 H1203 0.930 . S
C1183 C1184 1.413 . S
C1183 C1185 1.427 . S
C1183 C1189 1.416 . S
C1184 C1177 1.424 . S
C1184 C1183 1.413 . S
C1184 N1188 1.361 . S
C1185 C1183 1.427 . S
C1185 C1186 1.328 . S
C1185 H1200 0.929 . S
C1186 C1180 1.448 . S
C1186 C1185 1.328 . S
C1186 H1201 0.930 . S
Tb1187 N1178 2.617 . S
Tb1187 N1188 2.572 . S
Tb1187 O1222 2.349 . S
Tb1187 O1225 2.393 . S
Tb1187 O1226 2.465 . S
Tb1187 O1227 2.387 . S
Tb1187 O1229 2.428 . S
Tb1187 O1230 2.308 . S
Tb1187 C1251 2.802 . S
N1188 C1184 1.361 . S
N1188 Tb1187 2.572 . S
N1188 C1190 1.340 . S
C1189 C1183 1.416 . S
C1189 C1191 1.332 . S
C1189 H1197 0.931 . S
C1190 N1188 1.340 . S
C1190 C1191 1.407 . S
C1190 H1196 0.930 . S
C1191 C1189 1.332 . S
C1191 C1190 1.407 . S
C1191 H1193 0.929 . S
H1192 C1181 0.930 . S
H1193 C1191 0.929 . S
H1194 C1209 0.930 . S
H1195 C1216 0.929 . S
H1196 C1190 0.930 . S
H1197 C1189 0.931 . S
H1198 C1212 0.930 . S
H1199 C1179 0.930 . S
H1200 C1185 0.929 . S
H1201 C1186 0.930 . S
H1202 C1207 0.930 . S
H1203 C1182 0.930 . S
H1204 C1215 0.931 . S
N1205 Tb1176 2.617 . S
N1205 C1206 1.379 1_556 S
N1205 C1209 1.334 . S
C1206 N1205 1.379 1_554 S
C1206 C1208 1.416 . S
C1206 C1214 1.424 . S
C1207 H1202 0.930 . S
C1207 C1209 1.390 . S
C1207 C1210 1.339 . S
C1208 C1206 1.416 . S
C1208 C1210 1.416 1_554 S
C1208 C1241 1.448 . S
C1209 H1194 0.930 . S
C1209 N1205 1.334 . S
C1209 C1207 1.390 . S
C1210 C1207 1.339 . S
C1210 C1208 1.416 1_556 S
C1210 H1217 0.930 . S
N1211 Tb1176 2.572 1_554 S
N1211 C1212 1.340 . S
N1211 C1214 1.361 . S
C1212 H1198 0.930 . S
C1212 N1211 1.340 . S
C1212 C1216 1.407 . S
C1213 C1214 1.413 . S
C1213 C1215 1.416 . S
C1213 C1242 1.427 . S
C1214 C1206 1.424 . S
C1214 N1211 1.361 . S
C1214 C1213 1.413 . S
C1215 H1204 0.931 . S
C1215 C1213 1.416 . S
C1215 C1216 1.332 . S
C1216 H1195 0.929 . S
C1216 C1212 1.407 . S
C1216 C1215 1.332 . S
H1217 C1210 0.930 . S
H1218 C1241 0.930 . S
H1219 C1242 0.929 . S
O1220 Tb1176 2.465 1_554 S
O1220 C1240 1.264 . S
O1221 Tb1176 2.387 . S
O1221 C1232 1.264 . S
O1222 Tb1187 2.349 . S
O1222 C1232 1.243 . S
O1223 Tb1176 2.428 1_554 S
O1223 C1240 1.256 . S
O1224 Tb1176 2.308 1_554 S
O1224 C1239 1.266 . S
O1225 Tb1187 2.393 . S
O1225 C1239 1.248 1_556 S
O1226 Tb1187 2.465 . S
O1226 C1251 1.264 . S
O1227 Tb1187 2.387 . S
O1227 C1243 1.264 . S
O1228 Tb1176 2.349 . S
O1228 C1243 1.243 . S
O1229 Tb1187 2.428 . S
O1229 C1251 1.256 . S
O1230 Tb1187 2.308 . S
O1230 C1250 1.266 . S
O1231 Tb1176 2.393 . S
O1231 C1250 1.248 . S
C1232 O1221 1.264 . S
C1232 O1222 1.243 . S
C1233 C1236 1.399 . S
C1233 C1238 1.383 . S
C1233 C1240 1.496 . S
C1234 C1235 1.399 . S
C1234 C1238 1.389 . S
C1235 C1234 1.399 . S
C1235 C1237 1.380 . S
C1235 H1252 0.929 . S
C1236 C1233 1.399 . S
C1236 C1237 1.392 . S
C1236 H1253 0.929 . S
C1237 C1235 1.380 . S
C1237 C1236 1.392 . S
C1237 H1254 0.929 . S
C1238 C1233 1.383 . S
C1238 C1234 1.389 . S
C1238 H1255 0.931 . S
C1239 O1224 1.266 . S
C1239 O1225 1.248 1_554 S
C1240 Tb1176 2.802 1_554 S
C1240 O1220 1.264 . S
C1240 O1223 1.256 . S
C1240 C1233 1.496 . S
C1241 C1208 1.448 . S
C1241 H1218 0.930 . S
C1241 C1242 1.328 . S
C1242 C1213 1.427 . S
C1242 H1219 0.929 . S
C1242 C1241 1.328 . S
C1243 O1227 1.264 . S
C1243 O1228 1.243 . S
C1244 C1247 1.399 . S
C1244 C1248 1.383 . S
C1244 C1251 1.496 . S
C1245 C1246 1.399 . S
C1245 C1248 1.389 . S
C1246 C1245 1.399 . S
C1246 C1249 1.380 . S
C1246 H1256 0.929 . S
C1247 C1244 1.399 . S
C1247 C1249 1.392 . S
C1247 H1257 0.929 . S
C1248 C1244 1.383 . S
C1248 C1245 1.389 . S
C1248 H1258 0.931 . S
C1249 C1246 1.380 . S
C1249 C1247 1.392 . S
C1249 H1259 0.929 . S
C1250 O1230 1.266 . S
C1250 O1231 1.248 . S
C1251 Tb1187 2.802 . S
C1251 O1226 1.264 . S
C1251 O1229 1.256 . S
C1251 C1244 1.496 . S
H1252 C1235 0.929 . S
H1253 C1236 0.929 . S
H1254 C1237 0.929 . S
H1255 C1238 0.931 . S
H1256 C1246 0.929 . S
H1257 C1247 0.929 . S
H1258 C1248 0.931 . S
H1259 C1249 0.929 . S
Tb1260 N1289 2.617 . S
Tb1260 N1295 2.572 . S
Tb1260 O1304 2.465 . S
Tb1260 O1305 2.387 . S
Tb1260 O1307 2.428 . S
Tb1260 O1308 2.308 . S
Tb1260 O1312 2.349 . S
Tb1260 O1315 2.393 . S
Tb1260 C1324 2.802 . S
C1261 N1262 1.379 . S
C1261 C1264 1.416 . S
C1261 C1268 1.424 . S
N1262 C1261 1.379 . S
N1262 C1265 1.334 . S
N1262 Tb1271 2.617 . S
C1263 C1265 1.390 . S
C1263 C1266 1.339 . S
C1263 H1283 0.930 . S
C1264 C1261 1.416 . S
C1264 C1266 1.416 . S
C1264 C1270 1.448 . S
C1265 N1262 1.334 . S
C1265 C1263 1.390 . S
C1265 H1276 0.930 . S
C1266 C1263 1.339 . S
C1266 C1264 1.416 . S
C1266 H1287 0.930 . S
C1267 C1268 1.413 . S
C1267 C1269 1.427 . S
C1267 C1273 1.416 . S
C1268 C1261 1.424 . S
C1268 C1267 1.413 . S
C1268 N1272 1.361 . S
C1269 C1267 1.427 . S
C1269 C1270 1.328 . S
C1269 H1284 0.929 . S
C1270 C1264 1.448 . S
C1270 C1269 1.328 . S
C1270 H1285 0.930 . S
Tb1271 N1262 2.617 . S
Tb1271 N1272 2.572 . S
Tb1271 O1306 2.349 . S
Tb1271 O1309 2.393 . S
Tb1271 O1310 2.465 . S
Tb1271 O1311 2.387 . S
Tb1271 O1313 2.428 . S
Tb1271 O1314 2.308 . S
Tb1271 C1335 2.802 . S
N1272 C1268 1.361 . S
N1272 Tb1271 2.572 . S
N1272 C1274 1.340 . S
C1273 C1267 1.416 . S
C1273 C1275 1.332 . S
C1273 H1281 0.931 . S
C1274 N1272 1.340 . S
C1274 C1275 1.407 . S
C1274 H1280 0.930 . S
C1275 C1273 1.332 . S
C1275 C1274 1.407 . S
C1275 H1277 0.929 . S
H1276 C1265 0.930 . S
H1277 C1275 0.929 . S
H1278 C1293 0.930 . S
H1279 C1300 0.929 . S
H1280 C1274 0.930 . S
H1281 C1273 0.931 . S
H1282 C1296 0.930 . S
H1283 C1263 0.930 . S
H1284 C1269 0.929 . S
H1285 C1270 0.930 . S
H1286 C1291 0.930 . S
H1287 C1266 0.930 . S
H1288 C1299 0.931 . S
N1289 Tb1260 2.617 . S
N1289 C1290 1.379 . S
N1289 C1293 1.334 . S
C1290 N1289 1.379 . S
C1290 C1292 1.416 . S
C1290 C1298 1.424 . S
C1291 H1286 0.930 . S
C1291 C1293 1.390 . S
C1291 C1294 1.339 . S
C1292 C1290 1.416 . S
C1292 C1294 1.416 . S
C1292 C1325 1.448 . S
C1293 H1278 0.930 . S
C1293 N1289 1.334 . S
C1293 C1291 1.390 . S
C1294 C1291 1.339 . S
C1294 C1292 1.416 . S
C1294 H1301 0.930 . S
N1295 Tb1260 2.572 . S
N1295 C1296 1.340 . S
N1295 C1298 1.361 . S
C1296 H1282 0.930 . S
C1296 N1295 1.340 . S
C1296 C1300 1.407 . S
C1297 C1298 1.413 . S
C1297 C1299 1.416 . S
C1297 C1326 1.427 . S
C1298 C1290 1.424 . S
C1298 N1295 1.361 . S
C1298 C1297 1.413 . S
C1299 H1288 0.931 . S
C1299 C1297 1.416 . S
C1299 C1300 1.332 . S
C1300 H1279 0.929 . S
C1300 C1296 1.407 . S
C1300 C1299 1.332 . S
H1301 C1294 0.930 . S
H1302 C1325 0.930 . S
H1303 C1326 0.929 . S
O1304 Tb1260 2.465 . S
O1304 C1324 1.264 . S
O1305 Tb1260 2.387 . S
O1305 C1316 1.264 . S
O1306 Tb1271 2.349 . S
O1306 C1316 1.243 . S
O1307 Tb1260 2.428 . S
O1307 C1324 1.256 . S
O1308 Tb1260 2.308 . S
O1308 C1323 1.266 . S
O1309 Tb1271 2.393 . S
O1309 C1323 1.248 . S
O1310 Tb1271 2.465 . S
O1310 C1335 1.264 . S
O1311 Tb1271 2.387 . S
O1311 C1327 1.264 . S
O1312 Tb1260 2.349 . S
O1312 C1327 1.243 . S
O1313 Tb1271 2.428 . S
O1313 C1335 1.256 . S
O1314 Tb1271 2.308 . S
O1314 C1334 1.266 . S
O1315 Tb1260 2.393 . S
O1315 C1334 1.248 . S
C1316 O1305 1.264 . S
C1316 O1306 1.243 . S
C1317 C1320 1.399 . S
C1317 C1322 1.383 . S
C1317 C1324 1.496 . S
C1318 C1319 1.399 . S
C1318 C1322 1.389 . S
C1319 C1318 1.399 . S
C1319 C1321 1.380 . S
C1319 H1336 0.929 . S
C1320 C1317 1.399 . S
C1320 C1321 1.392 . S
C1320 H1337 0.929 . S
C1321 C1319 1.380 . S
C1321 C1320 1.392 . S
C1321 H1338 0.929 . S
C1322 C1317 1.383 . S
C1322 C1318 1.389 . S
C1322 H1339 0.931 . S
C1323 O1308 1.266 . S
C1323 O1309 1.248 . S
C1324 Tb1260 2.802 . S
C1324 O1304 1.264 . S
C1324 O1307 1.256 . S
C1324 C1317 1.496 . S
C1325 C1292 1.448 . S
C1325 H1302 0.930 . S
C1325 C1326 1.328 . S
C1326 C1297 1.427 . S
C1326 H1303 0.929 . S
C1326 C1325 1.328 . S
C1327 O1311 1.264 . S
C1327 O1312 1.243 . S
C1328 C1331 1.399 . S
C1328 C1332 1.383 . S
C1328 C1335 1.496 . S
C1329 C1330 1.399 . S
C1329 C1332 1.389 . S
C1330 C1329 1.399 . S
C1330 C1333 1.380 . S
C1330 H1340 0.929 1_545 S
C1331 C1328 1.399 . S
C1331 C1333 1.392 . S
C1331 H1341 0.929 . S
C1332 C1328 1.383 . S
C1332 C1329 1.389 . S
C1332 H1342 0.931 . S
C1333 C1330 1.380 . S
C1333 C1331 1.392 . S
C1333 H1343 0.929 . S
C1334 O1314 1.266 . S
C1334 O1315 1.248 . S
C1335 Tb1271 2.802 . S
C1335 O1310 1.264 . S
C1335 O1313 1.256 . S
C1335 C1328 1.496 . S
H1336 C1319 0.929 . S
H1337 C1320 0.929 . S
H1338 C1321 0.929 . S
H1339 C1322 0.931 . S
H1340 C1330 0.929 1_565 S
H1341 C1331 0.929 . S
H1342 C1332 0.931 . S
H1343 C1333 0.929 . S
H1344 C1352 0.950 . S
H1345 C1357 0.950 . S
H1346 C1354 0.950 . S
H1347 C1356 0.950 . S
H1348 C1358 0.950 . S
H1349 C1360 0.950 . S
H1350 C1362 0.950 . S
H1351 C1363 0.950 . S
C1352 H1344 0.950 . S
C1352 C1353 1.386 . S
C1352 C1354 1.391 . S
C1353 C1352 1.386 . S
C1353 C1357 1.393 . S
C1354 H1346 0.950 . S
C1354 C1352 1.391 . S
C1354 C1355 1.400 . S
C1355 C1354 1.400 . S
C1355 C1356 1.398 . S
C1355 C1361 1.491 . S
C1356 H1347 0.950 . S
C1356 C1355 1.398 . S
C1356 C1357 1.391 . S
C1357 H1345 0.950 . S
C1357 C1353 1.393 . S
C1357 C1356 1.391 . S
C1358 H1348 0.950 . S
C1358 C1359 1.386 . S
C1358 C1360 1.391 . S
C1359 C1358 1.386 . S
C1359 C1363 1.393 . S
C1360 H1349 0.950 . S
C1360 C1358 1.391 . S
C1360 C1361 1.400 . S
C1361 C1355 1.491 . S
C1361 C1360 1.400 . S
C1361 C1362 1.398 . S
C1362 H1350 0.950 . S
C1362 C1361 1.398 . S
C1362 C1363 1.391 . S
C1363 H1351 0.950 . S
C1363 C1359 1.393 . S
C1363 C1362 1.391 . S
H1364 C1372 0.950 . S
H1365 C1377 0.950 . S
H1366 C1374 0.950 . S
H1367 C1376 0.950 . S
H1368 C1378 0.950 . S
H1369 C1380 0.950 . S
H1370 C1382 0.950 . S
H1371 C1383 0.950 . S
C1372 H1364 0.950 . S
C1372 C1373 1.386 . S
C1372 C1374 1.391 . S
C1373 C1372 1.386 . S
C1373 C1377 1.393 . S
C1374 H1366 0.950 . S
C1374 C1372 1.391 . S
C1374 C1375 1.400 . S
C1375 C1374 1.400 . S
C1375 C1376 1.398 . S
C1375 C1381 1.491 . S
C1376 H1367 0.950 . S
C1376 C1375 1.398 . S
C1376 C1377 1.391 . S
C1377 H1365 0.950 . S
C1377 C1373 1.393 . S
C1377 C1376 1.391 . S
C1378 H1368 0.950 . S
C1378 C1379 1.386 . S
C1378 C1380 1.391 . S
C1379 C1378 1.386 . S
C1379 C1383 1.393 . S
C1380 H1369 0.950 . S
C1380 C1378 1.391 . S
C1380 C1381 1.400 . S
C1381 C1375 1.491 . S
C1381 C1380 1.400 . S
C1381 C1382 1.398 . S
C1382 H1370 0.950 . S
C1382 C1381 1.398 . S
C1382 C1383 1.391 . S
C1383 H1371 0.950 . S
C1383 C1379 1.393 . S
C1383 C1382 1.391 . S
H1384 C1392 0.950 . S
H1385 C1397 0.950 . S
H1386 C1394 0.950 . S
H1387 C1396 0.950 1_655 S
H1388 C1398 0.950 . S
H1389 C1400 0.950 . S
H1390 C1402 0.950 1_455 S
H1391 C1403 0.950 . S
C1392 H1384 0.950 . S
C1392 C1393 1.386 . S
C1392 C1394 1.391 . S
C1393 C1392 1.386 . S
C1393 C1397 1.393 . S
C1394 H1386 0.950 . S
C1394 C1392 1.391 . S
C1394 C1395 1.400 . S
C1395 C1394 1.400 . S
C1395 C1396 1.398 . S
C1395 C1401 1.491 1_455 S
C1396 H1387 0.950 1_455 S
C1396 C1395 1.398 . S
C1396 C1397 1.391 . S
C1397 H1385 0.950 . S
C1397 C1393 1.393 . S
C1397 C1396 1.391 . S
C1398 H1388 0.950 . S
C1398 C1399 1.386 . S
C1398 C1400 1.391 . S
C1399 C1398 1.386 . S
C1399 C1403 1.393 . S
C1400 H1389 0.950 . S
C1400 C1398 1.391 . S
C1400 C1401 1.400 . S
C1401 C1395 1.491 1_655 S
C1401 C1400 1.400 . S
C1401 C1402 1.398 . S
C1402 H1390 0.950 1_655 S
C1402 C1401 1.398 . S
C1402 C1403 1.391 . S
C1403 H1391 0.950 . S
C1403 C1399 1.393 . S
C1403 C1402 1.391 . S
H1404 C1412 0.950 . S
H1405 C1417 0.950 . S
H1406 C1414 0.950 . S
H1407 C1416 0.950 1_455 S
H1408 C1418 0.950 . S
H1409 C1420 0.950 . S
H1410 C1422 0.950 1_655 S
H1411 C1423 0.950 . S
C1412 H1404 0.950 . S
C1412 C1413 1.386 . S
C1412 C1414 1.391 . S
C1413 C1412 1.386 . S
C1413 C1417 1.393 . S
C1414 H1406 0.950 . S
C1414 C1412 1.391 . S
C1414 C1415 1.400 . S
C1415 C1414 1.400 . S
C1415 C1416 1.398 . S
C1415 C1421 1.491 1_655 S
C1416 H1407 0.950 1_655 S
C1416 C1415 1.398 . S
C1416 C1417 1.391 . S
C1417 H1405 0.950 . S
C1417 C1413 1.393 . S
C1417 C1416 1.391 . S
C1418 H1408 0.950 . S
C1418 C1419 1.386 . S
C1418 C1420 1.391 . S
C1419 C1418 1.386 . S
C1419 C1423 1.393 . S
C1420 H1409 0.950 . S
C1420 C1418 1.391 . S
C1420 C1421 1.400 . S
C1421 C1415 1.491 1_455 S
C1421 C1420 1.400 . S
C1421 C1422 1.398 . S
C1422 H1410 0.950 1_455 S
C1422 C1421 1.398 . S
C1422 C1423 1.391 . S
C1423 H1411 0.950 . S
C1423 C1419 1.393 . S
C1423 C1422 1.391 . S
H1424 C1432 0.950 . S
H1425 C1437 0.950 . S
H1426 C1434 0.950 . S
H1427 C1436 0.950 . S
H1428 C1438 0.950 . S
H1429 C1440 0.950 . S
H1430 C1442 0.950 . S
H1431 C1443 0.950 . S
C1432 H1424 0.950 . S
C1432 C1433 1.386 . S
C1432 C1434 1.391 . S
C1433 C1432 1.386 . S
C1433 C1437 1.393 . S
C1434 H1426 0.950 . S
C1434 C1432 1.391 . S
C1434 C1435 1.400 . S
C1435 C1434 1.400 . S
C1435 C1436 1.398 . S
C1435 C1441 1.491 . S
C1436 H1427 0.950 . S
C1436 C1435 1.398 . S
C1436 C1437 1.391 . S
C1437 H1425 0.950 . S
C1437 C1433 1.393 . S
C1437 C1436 1.391 . S
C1438 H1428 0.950 . S
C1438 C1439 1.386 . S
C1438 C1440 1.391 . S
C1439 C1438 1.386 . S
C1439 C1443 1.393 . S
C1440 H1429 0.950 . S
C1440 C1438 1.391 . S
C1440 C1441 1.400 . S
C1441 C1435 1.491 . S
C1441 C1440 1.400 . S
C1441 C1442 1.398 . S
C1442 H1430 0.950 . S
C1442 C1441 1.398 . S
C1442 C1443 1.391 . S
C1443 H1431 0.950 . S
C1443 C1439 1.393 . S
C1443 C1442 1.391 . S
H1444 C1452 0.950 . S
H1445 C1457 0.950 . S
H1446 C1454 0.950 . S
H1447 C1456 0.950 . S
H1448 C1458 0.950 . S
H1449 C1460 0.950 . S
H1450 C1462 0.950 . S
H1451 C1463 0.950 . S
C1452 H1444 0.950 . S
C1452 C1453 1.386 . S
C1452 C1454 1.391 . S
C1453 C1452 1.386 . S
C1453 C1457 1.393 . S
C1454 H1446 0.950 . S
C1454 C1452 1.391 . S
C1454 C1455 1.400 . S
C1455 C1454 1.400 . S
C1455 C1456 1.398 . S
C1455 C1461 1.491 . S
C1456 H1447 0.950 . S
C1456 C1455 1.398 . S
C1456 C1457 1.391 . S
C1457 H1445 0.950 . S
C1457 C1453 1.393 . S
C1457 C1456 1.391 . S
C1458 H1448 0.950 . S
C1458 C1459 1.386 . S
C1458 C1460 1.391 . S
C1459 C1458 1.386 . S
C1459 C1463 1.393 . S
C1460 H1449 0.950 . S
C1460 C1458 1.391 . S
C1460 C1461 1.400 . S
C1461 C1455 1.491 . S
C1461 C1460 1.400 . S
C1461 C1462 1.398 . S
C1462 H1450 0.950 . S
C1462 C1461 1.398 . S
C1462 C1463 1.391 . S
C1463 H1451 0.950 . S
C1463 C1459 1.393 . S
C1463 C1462 1.391 . S
H1464 C1472 0.950 . S
H1465 C1477 0.950 . S
H1466 C1474 0.950 1_455 S
H1467 C1476 0.950 . S
H1468 C1478 0.950 . S
H1469 C1480 0.950 1_655 S
H1470 C1482 0.950 . S
H1471 C1483 0.950 . S
C1472 H1464 0.950 . S
C1472 C1473 1.386 . S
C1472 C1474 1.391 . S
C1473 C1472 1.386 . S
C1473 C1477 1.393 . S
C1474 H1466 0.950 1_655 S
C1474 C1472 1.391 . S
C1474 C1475 1.400 . S
C1475 C1474 1.400 . S
C1475 C1476 1.398 . S
C1475 C1481 1.491 1_655 S
C1476 H1467 0.950 . S
C1476 C1475 1.398 . S
C1476 C1477 1.391 . S
C1477 H1465 0.950 . S
C1477 C1473 1.393 . S
C1477 C1476 1.391 . S
C1478 H1468 0.950 . S
C1478 C1479 1.386 . S
C1478 C1480 1.391 . S
C1479 C1478 1.386 . S
C1479 C1483 1.393 . S
C1480 H1469 0.950 1_455 S
C1480 C1478 1.391 . S
C1480 C1481 1.400 . S
C1481 C1475 1.491 1_455 S
C1481 C1480 1.400 . S
C1481 C1482 1.398 . S
C1482 H1470 0.950 . S
C1482 C1481 1.398 . S
C1482 C1483 1.391 . S
C1483 H1471 0.950 . S
C1483 C1479 1.393 . S
C1483 C1482 1.391 . S
H1484 C1492 0.950 . S
H1485 C1497 0.950 . S
H1486 C1494 0.950 . S
H1487 C1496 0.950 . S
H1488 C1498 0.950 . S
H1489 C1500 0.950 . S
H1490 C1502 0.950 . S
H1491 C1503 0.950 . S
C1492 H1484 0.950 . S
C1492 C1493 1.386 . S
C1492 C1494 1.391 . S
C1493 C1492 1.386 . S
C1493 C1497 1.393 . S
C1494 H1486 0.950 . S
C1494 C1492 1.391 . S
C1494 C1495 1.400 . S
C1495 C1494 1.400 . S
C1495 C1496 1.398 . S
C1495 C1501 1.491 1_455 S
C1496 H1487 0.950 . S
C1496 C1495 1.398 . S
C1496 C1497 1.391 . S
C1497 H1485 0.950 . S
C1497 C1493 1.393 . S
C1497 C1496 1.391 . S
C1498 H1488 0.950 . S
C1498 C1499 1.386 . S
C1498 C1500 1.391 . S
C1499 C1498 1.386 . S
C1499 C1503 1.393 . S
C1500 H1489 0.950 . S
C1500 C1498 1.391 . S
C1500 C1501 1.400 . S
C1501 C1495 1.491 1_655 S
C1501 C1500 1.400 . S
C1501 C1502 1.398 . S
C1502 H1490 0.950 . S
C1502 C1501 1.398 . S
C1502 C1503 1.391 . S
C1503 H1491 0.950 . S
C1503 C1499 1.393 . S
C1503 C1502 1.391 . S
H1504 C1512 0.950 . S
H1505 C1517 0.950 . S
H1506 C1514 0.950 . S
H1507 C1516 0.950 . S
H1508 C1518 0.950 . S
H1509 C1520 0.950 . S
H1510 C1522 0.950 . S
H1511 C1523 0.950 . S
C1512 H1504 0.950 . S
C1512 C1513 1.386 . S
C1512 C1514 1.391 . S
C1513 C1512 1.386 . S
C1513 C1517 1.393 . S
C1514 H1506 0.950 . S
C1514 C1512 1.391 . S
C1514 C1515 1.400 . S
C1515 C1514 1.400 . S
C1515 C1516 1.398 . S
C1515 C1521 1.491 . S
C1516 H1507 0.950 . S
C1516 C1515 1.398 . S
C1516 C1517 1.391 . S
C1517 H1505 0.950 . S
C1517 C1513 1.393 . S
C1517 C1516 1.391 . S
C1518 H1508 0.950 . S
C1518 C1519 1.386 . S
C1518 C1520 1.391 . S
C1519 C1518 1.386 . S
C1519 C1523 1.393 . S
C1520 H1509 0.950 . S
C1520 C1518 1.391 . S
C1520 C1521 1.400 . S
C1521 C1515 1.491 . S
C1521 C1520 1.400 . S
C1521 C1522 1.398 . S
C1522 H1510 0.950 . S
C1522 C1521 1.398 . S
C1522 C1523 1.391 . S
C1523 H1511 0.950 . S
C1523 C1519 1.393 . S
C1523 C1522 1.391 . S
H1524 C1532 0.950 . S
H1525 C1537 0.950 . S
H1526 C1534 0.950 . S
H1527 C1536 0.950 . S
H1528 C1538 0.950 . S
H1529 C1540 0.950 . S
H1530 C1542 0.950 . S
H1531 C1543 0.950 . S
C1532 H1524 0.950 . S
C1532 C1533 1.386 . S
C1532 C1534 1.391 . S
C1533 C1532 1.386 . S
C1533 C1537 1.393 . S
C1534 H1526 0.950 . S
C1534 C1532 1.391 . S
C1534 C1535 1.400 . S
C1535 C1534 1.400 . S
C1535 C1536 1.398 . S
C1535 C1541 1.491 . S
C1536 H1527 0.950 . S
C1536 C1535 1.398 . S
C1536 C1537 1.391 . S
C1537 H1525 0.950 . S
C1537 C1533 1.393 . S
C1537 C1536 1.391 . S
C1538 H1528 0.950 . S
C1538 C1539 1.386 . S
C1538 C1540 1.391 . S
C1539 C1538 1.386 . S
C1539 C1543 1.393 . S
C1540 H1529 0.950 . S
C1540 C1538 1.391 . S
C1540 C1541 1.400 . S
C1541 C1535 1.491 . S
C1541 C1540 1.400 . S
C1541 C1542 1.398 . S
C1542 H1530 0.950 . S
C1542 C1541 1.398 . S
C1542 C1543 1.391 . S
C1543 H1531 0.950 . S
C1543 C1539 1.393 . S
C1543 C1542 1.391 . S
H1544 C1552 0.950 . S
H1545 C1557 0.950 . S
H1546 C1554 0.950 . S
H1547 C1556 0.950 . S
H1548 C1558 0.950 . S
H1549 C1560 0.950 . S
H1550 C1562 0.950 . S
H1551 C1563 0.950 . S
C1552 H1544 0.950 . S
C1552 C1553 1.386 . S
C1552 C1554 1.391 . S
C1553 C1552 1.386 . S
C1553 C1557 1.393 . S
C1554 H1546 0.950 . S
C1554 C1552 1.391 . S
C1554 C1555 1.400 . S
C1555 C1554 1.400 . S
C1555 C1556 1.398 . S
C1555 C1561 1.491 . S
C1556 H1547 0.950 . S
C1556 C1555 1.398 . S
C1556 C1557 1.391 . S
C1557 H1545 0.950 . S
C1557 C1553 1.393 . S
C1557 C1556 1.391 . S
C1558 H1548 0.950 . S
C1558 C1559 1.386 . S
C1558 C1560 1.391 . S
C1559 C1558 1.386 . S
C1559 C1563 1.393 . S
C1560 H1549 0.950 . S
C1560 C1558 1.391 . S
C1560 C1561 1.400 . S
C1561 C1555 1.491 . S
C1561 C1560 1.400 . S
C1561 C1562 1.398 . S
C1562 H1550 0.950 . S
C1562 C1561 1.398 . S
C1562 C1563 1.391 . S
C1563 H1551 0.950 . S
C1563 C1559 1.393 . S
C1563 C1562 1.391 . S
H1564 C1572 0.950 . S
H1565 C1577 0.950 . S
H1566 C1574 0.950 . S
H1567 C1576 0.950 . S
H1568 C1578 0.950 . S
H1569 C1580 0.950 . S
H1570 C1582 0.950 . S
H1571 C1583 0.950 . S
C1572 H1564 0.950 . S
C1572 C1573 1.386 . S
C1572 C1574 1.391 . S
C1573 C1572 1.386 . S
C1573 C1577 1.393 . S
C1574 H1566 0.950 . S
C1574 C1572 1.391 . S
C1574 C1575 1.400 . S
C1575 C1574 1.400 . S
C1575 C1576 1.398 . S
C1575 C1581 1.491 . S
C1576 H1567 0.950 . S
C1576 C1575 1.398 . S
C1576 C1577 1.391 . S
C1577 H1565 0.950 . S
C1577 C1573 1.393 . S
C1577 C1576 1.391 . S
C1578 H1568 0.950 . S
C1578 C1579 1.386 . S
C1578 C1580 1.391 . S
C1579 C1578 1.386 . S
C1579 C1583 1.393 . S
C1580 H1569 0.950 . S
C1580 C1578 1.391 . S
C1580 C1581 1.400 . S
C1581 C1575 1.491 . S
C1581 C1580 1.400 . S
C1581 C1582 1.398 . S
C1582 H1570 0.950 . S
C1582 C1581 1.398 . S
C1582 C1583 1.391 . S
C1583 H1571 0.950 . S
C1583 C1579 1.393 . S
C1583 C1582 1.391 . S
H1584 C1592 0.950 . S
H1585 C1597 0.967 . S
H1586 C1594 0.950 . S
H1587 C1596 0.950 . S
H1588 C1598 0.950 . S
H1589 C1600 0.950 . S
H1590 C1602 0.950 . S
H1591 C1603 0.950 . S
C1592 H1584 0.950 . S
C1592 C1593 1.386 . S
C1592 C1594 1.391 . S
C1593 C1592 1.386 . S
C1593 C1597 1.393 . S
C1594 H1586 0.950 . S
C1594 C1592 1.391 . S
C1594 C1595 1.400 . S
C1595 C1594 1.400 . S
C1595 C1596 1.398 . S
C1595 C1601 1.491 . S
C1596 H1587 0.950 . S
C1596 C1595 1.398 . S
C1596 C1597 1.391 . S
C1597 H1585 0.967 . S
C1597 C1593 1.393 . S
C1597 C1596 1.391 . S
C1598 H1588 0.950 . S
C1598 C1599 1.386 . S
C1598 C1600 1.391 . S
C1599 C1598 1.386 . S
C1599 C1603 1.393 . S
C1600 H1589 0.950 . S
C1600 C1598 1.391 . S
C1600 C1601 1.400 . S
C1601 C1595 1.491 . S
C1601 C1600 1.400 . S
C1601 C1602 1.398 . S
C1602 H1590 0.950 . S
C1602 C1601 1.398 . S
C1602 C1603 1.391 . S
C1603 H1591 0.950 . S
C1603 C1599 1.393 . S
C1603 C1602 1.391 . S
H1604 C1612 0.950 . S
H1605 C1617 0.950 . S
H1606 C1614 0.950 . S
H1607 C1616 0.950 . S
H1608 C1618 0.950 . S
H1609 C1620 0.950 . S
H1610 C1622 0.950 . S
H1611 C1623 0.950 . S
C1612 H1604 0.950 . S
C1612 C1613 1.386 . S
C1612 C1614 1.391 . S
C1613 C1612 1.386 . S
C1613 C1617 1.393 . S
C1614 H1606 0.950 . S
C1614 C1612 1.391 . S
C1614 C1615 1.400 . S
C1615 C1614 1.400 . S
C1615 C1616 1.398 . S
C1615 C1621 1.491 . S
C1616 H1607 0.950 . S
C1616 C1615 1.398 . S
C1616 C1617 1.391 . S
C1617 H1605 0.950 . S
C1617 C1613 1.393 . S
C1617 C1616 1.391 . S
C1618 H1608 0.950 . S
C1618 C1619 1.386 . S
C1618 C1620 1.391 . S
C1619 C1618 1.386 . S
C1619 C1623 1.393 . S
C1620 H1609 0.950 . S
C1620 C1618 1.391 . S
C1620 C1621 1.400 . S
C1621 C1615 1.491 . S
C1621 C1620 1.400 . S
C1621 C1622 1.398 . S
C1622 H1610 0.950 . S
C1622 C1621 1.398 . S
C1622 C1623 1.391 . S
C1623 H1611 0.950 . S
C1623 C1619 1.393 . S
C1623 C1622 1.391 . S
H1624 C1632 0.950 . S
H1625 C1637 0.950 . S
H1626 C1634 0.950 . S
H1627 C1636 0.950 . S
H1628 C1638 0.950 . S
H1629 C1640 0.950 . S
H1630 C1642 0.950 . S
H1631 C1643 0.950 . S
C1632 H1624 0.950 . S
C1632 C1633 1.386 . S
C1632 C1634 1.391 . S
C1633 C1632 1.386 . S
C1633 C1637 1.393 . S
C1634 H1626 0.950 . S
C1634 C1632 1.391 . S
C1634 C1635 1.400 . S
C1635 C1634 1.400 . S
C1635 C1636 1.398 . S
C1635 C1641 1.491 . S
C1636 H1627 0.950 . S
C1636 C1635 1.398 . S
C1636 C1637 1.391 . S
C1637 H1625 0.950 . S
C1637 C1633 1.393 . S
C1637 C1636 1.391 . S
C1638 H1628 0.950 . S
C1638 C1639 1.386 . S
C1638 C1640 1.391 . S
C1639 C1638 1.386 . S
C1639 C1643 1.393 . S
C1640 H1629 0.950 . S
C1640 C1638 1.391 . S
C1640 C1641 1.400 . S
C1641 C1635 1.491 . S
C1641 C1640 1.400 . S
C1641 C1642 1.398 . S
C1642 H1630 0.950 . S
C1642 C1641 1.398 . S
C1642 C1643 1.391 . S
C1643 H1631 0.950 . S
C1643 C1639 1.393 . S
C1643 C1642 1.391 . S
H1644 C1652 0.950 . S
H1645 C1657 0.950 . S
H1646 C1654 0.950 . S
H1647 C1656 0.950 . S
H1648 C1658 0.950 . S
H1649 C1660 0.950 . S
H1650 C1662 0.950 . S
H1651 C1663 0.950 . S
C1652 H1644 0.950 . S
C1652 C1653 1.386 . S
C1652 C1654 1.391 . S
C1653 C1652 1.386 . S
C1653 C1657 1.393 . S
C1654 H1646 0.950 . S
C1654 C1652 1.391 . S
C1654 C1655 1.400 . S
C1655 C1654 1.400 . S
C1655 C1656 1.398 . S
C1655 C1661 1.491 . S
C1656 H1647 0.950 . S
C1656 C1655 1.398 . S
C1656 C1657 1.391 . S
C1657 H1645 0.950 . S
C1657 C1653 1.393 . S
C1657 C1656 1.391 . S
C1658 H1648 0.950 . S
C1658 C1659 1.386 . S
C1658 C1660 1.391 . S
C1659 C1658 1.386 . S
C1659 C1663 1.393 . S
C1660 H1649 0.950 . S
C1660 C1658 1.391 . S
C1660 C1661 1.400 . S
C1661 C1655 1.491 . S
C1661 C1660 1.400 . S
C1661 C1662 1.398 . S
C1662 H1650 0.950 . S
C1662 C1661 1.398 . S
C1662 C1663 1.391 . S
C1663 H1651 0.950 . S
C1663 C1659 1.393 . S
C1663 C1662 1.391 . S
H1664 C1672 0.950 . S
H1665 C1677 0.950 . S
H1666 C1674 0.950 . S
H1667 C1676 0.950 . S
H1668 C1678 0.950 . S
H1669 C1680 0.950 . S
H1670 C1682 0.950 . S
H1671 C1683 0.950 . S
C1672 H1664 0.950 . S
C1672 C1673 1.386 . S
C1672 C1674 1.391 . S
C1673 C1672 1.386 . S
C1673 C1677 1.393 . S
C1674 H1666 0.950 . S
C1674 C1672 1.391 . S
C1674 C1675 1.400 . S
C1675 C1674 1.400 . S
C1675 C1676 1.398 . S
C1675 C1681 1.491 . S
C1676 H1667 0.950 . S
C1676 C1675 1.398 . S
C1676 C1677 1.391 . S
C1677 H1665 0.950 . S
C1677 C1673 1.393 . S
C1677 C1676 1.391 . S
C1678 H1668 0.950 . S
C1678 C1679 1.386 . S
C1678 C1680 1.391 . S
C1679 C1678 1.386 . S
C1679 C1683 1.393 . S
C1680 H1669 0.950 . S
C1680 C1678 1.391 . S
C1680 C1681 1.400 . S
C1681 C1675 1.491 . S
C1681 C1680 1.400 . S
C1681 C1682 1.398 . S
C1682 H1670 0.950 . S
C1682 C1681 1.398 . S
C1682 C1683 1.391 . S
C1683 H1671 0.950 . S
C1683 C1679 1.393 . S
C1683 C1682 1.391 . S
H1684 C1692 0.950 . S
H1685 C1697 0.951 . S
H1686 C1694 0.950 . S
H1687 C1696 0.950 . S
H1688 C1698 0.950 . S
H1689 C1700 0.950 . S
H1690 C1702 0.950 . S
H1691 C1703 0.950 . S
C1692 H1684 0.950 . S
C1692 C1693 1.386 . S
C1692 C1694 1.391 . S
C1693 C1692 1.386 . S
C1693 C1697 1.393 . S
C1694 H1686 0.950 . S
C1694 C1692 1.391 . S
C1694 C1695 1.400 1_545 S
C1695 C1694 1.400 1_565 S
C1695 C1696 1.398 . S
C1695 C1701 1.491 . S
C1696 H1687 0.950 . S
C1696 C1695 1.398 . S
C1696 C1697 1.391 1_565 S
C1697 H1685 0.951 . S
C1697 C1693 1.393 . S
C1697 C1696 1.391 1_545 S
C1698 H1688 0.950 . S
C1698 C1699 1.386 . S
C1698 C1700 1.391 . S
C1699 C1698 1.386 . S
C1699 C1703 1.393 . S
C1700 H1689 0.950 . S
C1700 C1698 1.391 . S
C1700 C1701 1.400 . S
C1701 C1695 1.491 . S
C1701 C1700 1.400 . S
C1701 C1702 1.398 . S
C1702 H1690 0.950 . S
C1702 C1701 1.398 . S
C1702 C1703 1.391 . S
C1703 H1691 0.950 . S
C1703 C1699 1.393 . S
C1703 C1702 1.391 . S
H1704 C1712 0.950 1_554 S
H1705 C1717 0.950 . S
H1706 C1714 0.950 . S
H1707 C1716 0.950 . S
H1708 C1718 0.950 . S
H1709 C1720 0.950 . S
H1710 C1722 0.950 . S
H1711 C1723 0.950 . S
C1712 H1704 0.950 1_556 S
C1712 C1713 1.386 . S
C1712 C1714 1.391 . S
C1713 C1712 1.386 . S
C1713 C1717 1.393 . S
C1714 H1706 0.950 . S
C1714 C1712 1.391 . S
C1714 C1715 1.400 . S
C1715 C1714 1.400 . S
C1715 C1716 1.398 . S
C1715 C1721 1.491 . S
C1716 H1707 0.950 . S
C1716 C1715 1.398 . S
C1716 C1717 1.391 . S
C1717 H1705 0.950 . S
C1717 C1713 1.393 . S
C1717 C1716 1.391 . S
C1718 H1708 0.950 . S
C1718 C1719 1.386 . S
C1718 C1720 1.391 . S
C1719 C1718 1.386 . S
C1719 C1723 1.393 . S
C1720 H1709 0.950 . S
C1720 C1718 1.391 . S
C1720 C1721 1.400 . S
C1721 C1715 1.491 . S
C1721 C1720 1.400 . S
C1721 C1722 1.398 . S
C1722 H1710 0.950 . S
C1722 C1721 1.398 . S
C1722 C1723 1.391 . S
C1723 H1711 0.950 . S
C1723 C1719 1.393 . S
C1723 C1722 1.391 . S
H1724 C1732 0.950 . S
H1725 C1737 0.948 1_545 S
H1726 C1734 0.950 . S
H1727 C1736 0.950 . S
H1728 C1738 0.950 . S
H1729 C1740 0.950 . S
H1730 C1742 0.950 . S
H1731 C1743 0.950 . S
C1732 H1724 0.950 . S
C1732 C1733 1.386 . S
C1732 C1734 1.391 . S
C1733 C1732 1.386 . S
C1733 C1737 1.393 . S
C1734 H1726 0.950 . S
C1734 C1732 1.391 . S
C1734 C1735 1.400 1_565 S
C1735 C1734 1.400 1_545 S
C1735 C1736 1.398 . S
C1735 C1741 1.491 . S
C1736 H1727 0.950 . S
C1736 C1735 1.398 . S
C1736 C1737 1.391 1_545 S
C1737 H1725 0.948 1_565 S
C1737 C1733 1.393 . S
C1737 C1736 1.391 1_565 S
C1738 H1728 0.950 . S
C1738 C1739 1.386 . S
C1738 C1740 1.391 . S
C1739 C1738 1.386 . S
C1739 C1743 1.393 . S
C1740 H1729 0.950 . S
C1740 C1738 1.391 . S
C1740 C1741 1.400 . S
C1741 C1735 1.491 . S
C1741 C1740 1.400 . S
C1741 C1742 1.398 . S
C1742 H1730 0.950 . S
C1742 C1741 1.398 . S
C1742 C1743 1.391 . S
C1743 H1731 0.950 . S
C1743 C1739 1.393 . S
C1743 C1742 1.391 . S
H1744 C1752 0.950 . S
H1745 C1757 0.950 . S
H1746 C1754 0.950 . S
H1747 C1756 0.950 . S
H1748 C1758 0.950 . S
H1749 C1760 0.950 . S
H1750 C1762 0.950 . S
H1751 C1763 0.950 . S
C1752 H1744 0.950 . S
C1752 C1753 1.386 . S
C1752 C1754 1.391 . S
C1753 C1752 1.386 . S
C1753 C1757 1.393 . S
C1754 H1746 0.950 . S
C1754 C1752 1.391 . S
C1754 C1755 1.400 . S
C1755 C1754 1.400 . S
C1755 C1756 1.398 . S
C1755 C1761 1.491 . S
C1756 H1747 0.950 . S
C1756 C1755 1.398 . S
C1756 C1757 1.391 . S
C1757 H1745 0.950 . S
C1757 C1753 1.393 . S
C1757 C1756 1.391 . S
C1758 H1748 0.950 . S
C1758 C1759 1.386 . S
C1758 C1760 1.391 . S
C1759 C1758 1.386 . S
C1759 C1763 1.393 . S
C1760 H1749 0.950 . S
C1760 C1758 1.391 . S
C1760 C1761 1.400 . S
C1761 C1755 1.491 . S
C1761 C1760 1.400 . S
C1761 C1762 1.398 . S
C1762 H1750 0.950 . S
C1762 C1761 1.398 . S
C1762 C1763 1.391 . S
C1763 H1751 0.950 . S
C1763 C1759 1.393 . S
C1763 C1762 1.391 . S
H1764 C1772 0.950 . S
H1765 C1777 0.950 . S
H1766 C1774 0.950 . S
H1767 C1776 0.950 . S
H1768 C1778 0.950 . S
H1769 C1780 0.950 . S
H1770 C1782 0.950 . S
H1771 C1783 0.950 . S
C1772 H1764 0.950 . S
C1772 C1773 1.386 . S
C1772 C1774 1.391 . S
C1773 C1772 1.386 . S
C1773 C1777 1.393 . S
C1774 H1766 0.950 . S
C1774 C1772 1.391 . S
C1774 C1775 1.400 . S
C1775 C1774 1.400 . S
C1775 C1776 1.398 . S
C1775 C1781 1.491 . S
C1776 H1767 0.950 . S
C1776 C1775 1.398 . S
C1776 C1777 1.391 . S
C1777 H1765 0.950 . S
C1777 C1773 1.393 . S
C1777 C1776 1.391 . S
C1778 H1768 0.950 . S
C1778 C1779 1.386 . S
C1778 C1780 1.391 1_565 S
C1779 C1778 1.386 . S
C1779 C1783 1.393 . S
C1780 H1769 0.950 . S
C1780 C1778 1.391 1_545 S
C1780 C1781 1.400 . S
C1781 C1775 1.491 . S
C1781 C1780 1.400 . S
C1781 C1782 1.398 1_545 S
C1782 H1770 0.950 . S
C1782 C1781 1.398 1_565 S
C1782 C1783 1.391 . S
C1783 H1771 0.950 . S
C1783 C1779 1.393 . S
C1783 C1782 1.391 . S
H1784 C1792 0.950 . S
H1785 C1797 0.950 . S
H1786 C1794 0.950 . S
H1787 C1796 0.950 . S
H1788 C1798 0.950 . S
H1789 C1800 0.950 . S
H1790 C1802 0.950 . S
H1791 C1803 0.950 1_556 S
C1792 H1784 0.950 . S
C1792 C1793 1.386 . S
C1792 C1794 1.391 . S
C1793 C1792 1.386 . S
C1793 C1797 1.393 . S
C1794 H1786 0.950 . S
C1794 C1792 1.391 . S
C1794 C1795 1.400 . S
C1795 C1794 1.400 . S
C1795 C1796 1.398 . S
C1795 C1801 1.491 . S
C1796 H1787 0.950 . S
C1796 C1795 1.398 . S
C1796 C1797 1.391 . S
C1797 H1785 0.950 . S
C1797 C1793 1.393 . S
C1797 C1796 1.391 . S
C1798 H1788 0.950 . S
C1798 C1799 1.386 . S
C1798 C1800 1.391 . S
C1799 C1798 1.386 . S
C1799 C1803 1.393 . S
C1800 H1789 0.950 . S
C1800 C1798 1.391 . S
C1800 C1801 1.400 . S
C1801 C1795 1.491 . S
C1801 C1800 1.400 . S
C1801 C1802 1.398 . S
C1802 H1790 0.950 . S
C1802 C1801 1.398 . S
C1802 C1803 1.391 . S
C1803 H1791 0.950 1_554 S
C1803 C1799 1.393 . S
C1803 C1802 1.391 . S
H1804 C1812 0.950 . S
H1805 C1817 0.950 . S
H1806 C1814 0.950 . S
H1807 C1816 0.950 . S
H1808 C1818 0.950 . S
H1809 C1820 0.950 . S
H1810 C1822 0.950 . S
H1811 C1823 0.950 . S
C1812 H1804 0.950 . S
C1812 C1813 1.386 . S
C1812 C1814 1.390 1_545 S
C1813 C1812 1.386 . S
C1813 C1817 1.393 . S
C1814 H1806 0.950 . S
C1814 C1812 1.390 1_565 S
C1814 C1815 1.401 . S
C1815 C1814 1.401 . S
C1815 C1816 1.398 . S
C1815 C1821 1.491 . S
C1816 H1807 0.950 . S
C1816 C1815 1.398 . S
C1816 C1817 1.391 1_565 S
C1817 H1805 0.950 . S
C1817 C1813 1.393 . S
C1817 C1816 1.391 1_545 S
C1818 H1808 0.950 . S
C1818 C1819 1.386 . S
C1818 C1820 1.391 . S
C1819 C1818 1.386 . S
C1819 C1823 1.393 . S
C1820 H1809 0.950 . S
C1820 C1818 1.391 . S
C1820 C1821 1.400 . S
C1821 C1815 1.491 . S
C1821 C1820 1.400 . S
C1821 C1822 1.398 . S
C1822 H1810 0.950 . S
C1822 C1821 1.398 . S
C1822 C1823 1.391 . S
C1823 H1811 0.950 . S
C1823 C1819 1.393 . S
C1823 C1822 1.391 . S
H1824 C1832 0.950 . S
H1825 C1837 0.950 . S
H1826 C1834 0.950 . S
H1827 C1836 0.950 . S
H1828 C1838 0.950 . S
H1829 C1840 0.950 . S
H1830 C1842 0.950 . S
H1831 C1843 0.950 . S
C1832 H1824 0.950 . S
C1832 C1833 1.386 . S
C1832 C1834 1.391 . S
C1833 C1832 1.386 . S
C1833 C1837 1.393 . S
C1834 H1826 0.950 . S
C1834 C1832 1.391 . S
C1834 C1835 1.400 . S
C1835 C1834 1.400 . S
C1835 C1836 1.398 . S
C1835 C1841 1.491 . S
C1836 H1827 0.950 . S
C1836 C1835 1.398 . S
C1836 C1837 1.391 . S
C1837 H1825 0.950 . S
C1837 C1833 1.393 . S
C1837 C1836 1.391 . S
C1838 H1828 0.950 . S
C1838 C1839 1.386 . S
C1838 C1840 1.391 . S
C1839 C1838 1.386 . S
C1839 C1843 1.393 . S
C1840 H1829 0.950 . S
C1840 C1838 1.391 . S
C1840 C1841 1.400 . S
C1841 C1835 1.491 . S
C1841 C1840 1.400 . S
C1841 C1842 1.398 . S
C1842 H1830 0.950 . S
C1842 C1841 1.398 . S
C1842 C1843 1.391 . S
C1843 H1831 0.950 . S
C1843 C1839 1.393 . S
C1843 C1842 1.391 . S
H1844 C1852 0.950 . S
H1845 C1857 0.950 . S
H1846 C1854 0.950 . S
H1847 C1856 0.950 . S
H1848 C1858 0.950 1_556 S
H1849 C1860 0.950 . S
H1850 C1862 0.950 . S
H1851 C1863 0.950 . S
C1852 H1844 0.950 . S
C1852 C1853 1.386 . S
C1852 C1854 1.391 . S
C1853 C1852 1.386 . S
C1853 C1857 1.393 . S
C1854 H1846 0.950 . S
C1854 C1852 1.391 . S
C1854 C1855 1.400 . S
C1855 C1854 1.400 . S
C1855 C1856 1.398 . S
C1855 C1861 1.491 . S
C1856 H1847 0.950 . S
C1856 C1855 1.398 . S
C1856 C1857 1.391 . S
C1857 H1845 0.950 . S
C1857 C1853 1.393 . S
C1857 C1856 1.391 . S
C1858 H1848 0.950 1_554 S
C1858 C1859 1.386 . S
C1858 C1860 1.391 . S
C1859 C1858 1.386 . S
C1859 C1863 1.393 . S
C1860 H1849 0.950 . S
C1860 C1858 1.391 . S
C1860 C1861 1.400 . S
C1861 C1855 1.491 . S
C1861 C1860 1.400 . S
C1861 C1862 1.398 . S
C1862 H1850 0.950 . S
C1862 C1861 1.398 . S
C1862 C1863 1.391 . S
C1863 H1851 0.950 . S
C1863 C1859 1.393 . S
C1863 C1862 1.391 . S
H1864 C1872 0.950 . S
H1865 C1877 0.950 . S
H1866 C1874 0.950 . S
H1867 C1876 0.950 . S
H1868 C1878 0.950 . S
H1869 C1880 0.950 . S
H1870 C1882 0.950 . S
H1871 C1883 0.950 . S
C1872 H1864 0.950 . S
C1872 C1873 1.386 . S
C1872 C1874 1.391 . S
C1873 C1872 1.386 . S
C1873 C1877 1.393 . S
C1874 H1866 0.950 . S
C1874 C1872 1.391 . S
C1874 C1875 1.400 . S
C1875 C1874 1.400 . S
C1875 C1876 1.398 . S
C1875 C1881 1.491 . S
C1876 H1867 0.950 . S
C1876 C1875 1.398 . S
C1876 C1877 1.391 . S
C1877 H1865 0.950 . S
C1877 C1873 1.393 . S
C1877 C1876 1.391 . S
C1878 H1868 0.950 . S
C1878 C1879 1.386 . S
C1878 C1880 1.391 1_455 S
C1879 C1878 1.386 . S
C1879 C1883 1.393 . S
C1880 H1869 0.950 . S
C1880 C1878 1.391 1_655 S
C1880 C1881 1.400 . S
C1881 C1875 1.491 . S
C1881 C1880 1.400 . S
C1881 C1882 1.398 . S
C1882 H1870 0.950 . S
C1882 C1881 1.398 . S
C1882 C1883 1.391 1_655 S
C1883 H1871 0.950 . S
C1883 C1879 1.393 . S
C1883 C1882 1.391 1_455 S
H1884 C1892 0.950 . S
H1885 C1897 0.950 . S
H1886 C1894 0.950 . S
H1887 C1896 0.950 . S
H1888 C1898 0.950 . S
H1889 C1900 0.950 . S
H1890 C1902 0.950 . S
H1891 C1903 0.950 . S
C1892 H1884 0.950 . S
C1892 C1893 1.386 . S
C1892 C1894 1.391 . S
C1893 C1892 1.386 . S
C1893 C1897 1.393 . S
C1894 H1886 0.950 . S
C1894 C1892 1.391 . S
C1894 C1895 1.400 . S
C1895 C1894 1.400 . S
C1895 C1896 1.398 . S
C1895 C1901 1.491 . S
C1896 H1887 0.950 . S
C1896 C1895 1.398 . S
C1896 C1897 1.391 . S
C1897 H1885 0.950 . S
C1897 C1893 1.393 . S
C1897 C1896 1.391 . S
C1898 H1888 0.950 . S
C1898 C1899 1.386 . S
C1898 C1900 1.391 . S
C1899 C1898 1.386 . S
C1899 C1903 1.393 . S
C1900 H1889 0.950 . S
C1900 C1898 1.391 . S
C1900 C1901 1.400 . S
C1901 C1895 1.491 . S
C1901 C1900 1.400 . S
C1901 C1902 1.398 . S
C1902 H1890 0.950 . S
C1902 C1901 1.398 . S
C1902 C1903 1.391 . S
C1903 H1891 0.950 . S
C1903 C1899 1.393 . S
C1903 C1902 1.391 . S
H1904 C1912 0.950 . S
H1905 C1917 0.950 . S
H1906 C1914 0.950 . S
H1907 C1916 0.950 . S
H1908 C1918 0.950 . S
H1909 C1920 0.950 . S
H1910 C1922 0.950 . S
H1911 C1923 0.950 . S
C1912 H1904 0.950 . S
C1912 C1913 1.386 . S
C1912 C1914 1.391 . S
C1913 C1912 1.386 . S
C1913 C1917 1.393 . S
C1914 H1906 0.950 . S
C1914 C1912 1.391 . S
C1914 C1915 1.400 . S
C1915 C1914 1.400 . S
C1915 C1916 1.398 . S
C1915 C1921 1.491 . S
C1916 H1907 0.950 . S
C1916 C1915 1.398 . S
C1916 C1917 1.391 . S
C1917 H1905 0.950 . S
C1917 C1913 1.393 . S
C1917 C1916 1.391 . S
C1918 H1908 0.950 . S
C1918 C1919 1.386 . S
C1918 C1920 1.391 . S
C1919 C1918 1.386 . S
C1919 C1923 1.393 . S
C1920 H1909 0.950 . S
C1920 C1918 1.391 . S
C1920 C1921 1.400 . S
C1921 C1915 1.491 . S
C1921 C1920 1.400 . S
C1921 C1922 1.398 . S
C1922 H1910 0.950 . S
C1922 C1921 1.398 . S
C1922 C1923 1.391 . S
C1923 H1911 0.950 . S
C1923 C1919 1.393 . S
C1923 C1922 1.391 . S
H1924 C1932 0.950 . S
H1925 C1937 0.950 . S
H1926 C1934 0.950 . S
H1927 C1936 0.950 . S
H1928 C1938 0.950 . S
H1929 C1940 0.950 . S
H1930 C1942 0.950 . S
H1931 C1943 0.950 . S
C1932 H1924 0.950 . S
C1932 C1933 1.386 . S
C1932 C1934 1.391 . S
C1933 C1932 1.386 . S
C1933 C1937 1.393 . S
C1934 H1926 0.950 . S
C1934 C1932 1.391 . S
C1934 C1935 1.400 . S
C1935 C1934 1.400 . S
C1935 C1936 1.398 . S
C1935 C1941 1.491 . S
C1936 H1927 0.950 . S
C1936 C1935 1.398 . S
C1936 C1937 1.391 . S
C1937 H1925 0.950 . S
C1937 C1933 1.393 . S
C1937 C1936 1.391 . S
C1938 H1928 0.950 . S
C1938 C1939 1.386 . S
C1938 C1940 1.391 . S
C1939 C1938 1.386 . S
C1939 C1943 1.393 . S
C1940 H1929 0.950 . S
C1940 C1938 1.391 . S
C1940 C1941 1.400 . S
C1941 C1935 1.491 . S
C1941 C1940 1.400 . S
C1941 C1942 1.398 . S
C1942 H1930 0.950 . S
C1942 C1941 1.398 . S
C1942 C1943 1.391 . S
C1943 H1931 0.950 . S
C1943 C1939 1.393 . S
C1943 C1942 1.391 . S
H1944 C1952 0.950 . S
H1945 C1957 0.950 . S
H1946 C1954 0.950 1_655 S
H1947 C1956 0.950 . S
H1948 C1958 0.950 . S
H1949 C1960 0.950 . S
H1950 C1962 0.950 . S
H1951 C1963 0.950 . S
C1952 H1944 0.950 . S
C1952 C1953 1.386 . S
C1952 C1954 1.391 . S
C1953 C1952 1.386 . S
C1953 C1957 1.393 . S
C1954 H1946 0.950 1_455 S
C1954 C1952 1.391 . S
C1954 C1955 1.400 . S
C1955 C1954 1.400 . S
C1955 C1956 1.398 . S
C1955 C1961 1.491 . S
C1956 H1947 0.950 . S
C1956 C1955 1.398 . S
C1956 C1957 1.391 . S
C1957 H1945 0.950 . S
C1957 C1953 1.393 . S
C1957 C1956 1.391 . S
C1958 H1948 0.950 . S
C1958 C1959 1.386 1_455 S
C1958 C1960 1.391 . S
C1959 C1958 1.386 1_655 S
C1959 C1963 1.393 . S
C1960 H1949 0.950 . S
C1960 C1958 1.391 . S
C1960 C1961 1.400 . S
C1961 C1955 1.491 . S
C1961 C1960 1.400 . S
C1961 C1962 1.398 1_455 S
C1962 H1950 0.950 . S
C1962 C1961 1.398 1_655 S
C1962 C1963 1.391 . S
C1963 H1951 0.950 . S
C1963 C1959 1.393 . S
C1963 C1962 1.391 . S
H1964 C1972 0.950 . S
H1965 C1977 0.950 . S
H1966 C1974 0.950 . S
H1967 C1976 0.950 . S
H1968 C1978 0.950 . S
H1969 C1980 0.950 . S
H1970 C1982 0.950 . S
H1971 C1983 0.950 . S
C1972 H1964 0.950 . S
C1972 C1973 1.386 . S
C1972 C1974 1.391 . S
C1973 C1972 1.386 . S
C1973 C1977 1.393 . S
C1974 H1966 0.950 . S
C1974 C1972 1.391 . S
C1974 C1975 1.400 . S
C1975 C1974 1.400 . S
C1975 C1976 1.398 . S
C1975 C1981 1.491 . S
C1976 H1967 0.950 . S
C1976 C1975 1.398 . S
C1976 C1977 1.391 . S
C1977 H1965 0.950 . S
C1977 C1973 1.393 . S
C1977 C1976 1.391 . S
C1978 H1968 0.950 . S
C1978 C1979 1.386 . S
C1978 C1980 1.391 . S
C1979 C1978 1.386 . S
C1979 C1983 1.393 . S
C1980 H1969 0.950 . S
C1980 C1978 1.391 . S
C1980 C1981 1.400 . S
C1981 C1975 1.491 . S
C1981 C1980 1.400 . S
C1981 C1982 1.398 . S
C1982 H1970 0.950 . S
C1982 C1981 1.398 . S
C1982 C1983 1.391 . S
C1983 H1971 0.950 . S
C1983 C1979 1.393 . S
C1983 C1982 1.391 . S
H1984 C1992 0.950 . S
H1985 C1997 0.950 . S
H1986 C1994 0.950 . S
H1987 C1996 0.950 . S
H1988 C1998 0.950 . S
H1989 C2000 0.936 1_655 S
H1990 C2002 0.950 . S
H1991 C2003 0.950 . S
C1992 H1984 0.950 . S
C1992 C1993 1.386 1_455 S
C1992 C1994 1.391 . S
C1993 C1992 1.386 1_655 S
C1993 C1997 1.393 . S
C1994 H1986 0.950 . S
C1994 C1992 1.391 . S
C1994 C1995 1.400 . S
C1995 C1994 1.400 . S
C1995 C1996 1.398 1_455 S
C1995 C2001 1.491 . S
C1996 H1987 0.950 . S
C1996 C1995 1.398 1_655 S
C1996 C1997 1.391 . S
C1997 H1985 0.950 . S
C1997 C1993 1.393 . S
C1997 C1996 1.391 . S
C1998 H1988 0.950 . S
C1998 C1999 1.386 . S
C1998 C2000 1.391 . S
C1999 C1998 1.386 . S
C1999 C2003 1.393 . S
C2000 H1989 0.936 1_455 S
C2000 C1998 1.391 . S
C2000 C2001 1.400 . S
C2001 C1995 1.491 . S
C2001 C2000 1.400 . S
C2001 C2002 1.398 . S
C2002 H1990 0.950 . S
C2002 C2001 1.398 . S
C2002 C2003 1.391 . S
C2003 H1991 0.950 . S
C2003 C1999 1.393 . S
C2003 C2002 1.391 . S
H2004 C2012 0.950 . S
H2005 C2017 0.950 . S
H2006 C2014 0.950 . S
H2007 C2016 0.950 . S
H2008 C2018 0.950 . S
H2009 C2020 0.950 . S
H2010 C2022 0.950 . S
H2011 C2023 0.950 . S
C2012 H2004 0.950 . S
C2012 C2013 1.386 . S
C2012 C2014 1.391 . S
C2013 C2012 1.386 . S
C2013 C2017 1.393 . S
C2014 H2006 0.950 . S
C2014 C2012 1.391 . S
C2014 C2015 1.400 . S
C2015 C2014 1.400 . S
C2015 C2016 1.398 . S
C2015 C2021 1.491 . S
C2016 H2007 0.950 . S
C2016 C2015 1.398 . S
C2016 C2017 1.391 . S
C2017 H2005 0.950 . S
C2017 C2013 1.393 . S
C2017 C2016 1.391 . S
C2018 H2008 0.950 . S
C2018 C2019 1.386 . S
C2018 C2020 1.391 . S
C2019 C2018 1.386 . S
C2019 C2023 1.393 . S
C2020 H2009 0.950 . S
C2020 C2018 1.391 . S
C2020 C2021 1.400 . S
C2021 C2015 1.491 . S
C2021 C2020 1.400 . S
C2021 C2022 1.398 . S
C2022 H2010 0.950 . S
C2022 C2021 1.398 . S
C2022 C2023 1.391 . S
C2023 H2011 0.950 . S
C2023 C2019 1.393 . S
C2023 C2022 1.391 . S
H2024 C2032 0.950 . S
H2025 C2037 0.950 . S
H2026 C2034 0.950 . S
H2027 C2036 0.950 . S
H2028 C2038 0.950 . S
H2029 C2040 0.950 . S
H2030 C2042 0.950 . S
H2031 C2043 0.950 . S
C2032 H2024 0.950 . S
C2032 C2033 1.386 . S
C2032 C2034 1.391 . S
C2033 C2032 1.386 . S
C2033 C2037 1.393 . S
C2034 H2026 0.950 . S
C2034 C2032 1.391 . S
C2034 C2035 1.400 . S
C2035 C2034 1.400 . S
C2035 C2036 1.398 . S
C2035 C2041 1.491 . S
C2036 H2027 0.950 . S
C2036 C2035 1.398 . S
C2036 C2037 1.391 . S
C2037 H2025 0.950 . S
C2037 C2033 1.393 . S
C2037 C2036 1.391 . S
C2038 H2028 0.950 . S
C2038 C2039 1.386 . S
C2038 C2040 1.391 . S
C2039 C2038 1.386 . S
C2039 C2043 1.393 . S
C2040 H2029 0.950 . S
C2040 C2038 1.391 . S
C2040 C2041 1.400 . S
C2041 C2035 1.491 . S
C2041 C2040 1.400 . S
C2041 C2042 1.398 . S
C2042 H2030 0.950 . S
C2042 C2041 1.398 . S
C2042 C2043 1.391 . S
C2043 H2031 0.950 . S
C2043 C2039 1.393 . S
C2043 C2042 1.391 . S
H2044 C2052 0.950 . S
H2045 C2057 0.950 . S
H2046 C2054 0.950 . S
H2047 C2056 0.950 . S
H2048 C2058 0.950 . S
H2049 C2060 0.950 . S
H2050 C2062 0.950 . S
H2051 C2063 0.950 . S
C2052 H2044 0.950 . S
C2052 C2053 1.386 . S
C2052 C2054 1.391 . S
C2053 C2052 1.386 . S
C2053 C2057 1.393 . S
C2054 H2046 0.950 . S
C2054 C2052 1.391 . S
C2054 C2055 1.400 . S
C2055 C2054 1.400 . S
C2055 C2056 1.398 . S
C2055 C2061 1.491 . S
C2056 H2047 0.950 . S
C2056 C2055 1.398 . S
C2056 C2057 1.391 . S
C2057 H2045 0.950 . S
C2057 C2053 1.393 . S
C2057 C2056 1.391 . S
C2058 H2048 0.950 . S
C2058 C2059 1.386 . S
C2058 C2060 1.391 . S
C2059 C2058 1.386 . S
C2059 C2063 1.393 . S
C2060 H2049 0.950 . S
C2060 C2058 1.391 . S
C2060 C2061 1.400 . S
C2061 C2055 1.491 . S
C2061 C2060 1.400 . S
C2061 C2062 1.398 . S
C2062 H2050 0.950 . S
C2062 C2061 1.398 . S
C2062 C2063 1.391 . S
C2063 H2051 0.950 . S
C2063 C2059 1.393 . S
C2063 C2062 1.391 . S
H2064 C2072 0.950 . S
H2065 C2077 0.950 . S
H2066 C2074 0.950 . S
H2067 C2076 0.950 . S
H2068 C2078 0.950 . S
H2069 C2080 0.950 1_455 S
H2070 C2082 0.950 . S
H2071 C2083 0.950 . S
C2072 H2064 0.950 . S
C2072 C2073 1.386 1_655 S
C2072 C2074 1.391 . S
C2073 C2072 1.386 1_455 S
C2073 C2077 1.393 . S
C2074 H2066 0.950 . S
C2074 C2072 1.391 . S
C2074 C2075 1.400 . S
C2075 C2074 1.400 . S
C2075 C2076 1.398 1_655 S
C2075 C2081 1.491 . S
C2076 H2067 0.950 . S
C2076 C2075 1.398 1_455 S
C2076 C2077 1.391 . S
C2077 H2065 0.950 . S
C2077 C2073 1.393 . S
C2077 C2076 1.391 . S
C2078 H2068 0.950 . S
C2078 C2079 1.386 . S
C2078 C2080 1.391 . S
C2079 C2078 1.386 . S
C2079 C2083 1.393 . S
C2080 H2069 0.950 1_655 S
C2080 C2078 1.391 . S
C2080 C2081 1.400 . S
C2081 C2075 1.491 . S
C2081 C2080 1.400 . S
C2081 C2082 1.398 . S
C2082 H2070 0.950 . S
C2082 C2081 1.398 . S
C2082 C2083 1.391 . S
C2083 H2071 0.950 . S
C2083 C2079 1.393 . S
C2083 C2082 1.391 . S
H2084 C2092 0.950 . S
H2085 C2097 0.950 . S
H2086 C2094 0.950 . S
H2087 C2096 0.950 . S
H2088 C2098 0.950 . S
H2089 C2100 0.950 . S
H2090 C2102 0.950 . S
H2091 C2103 0.950 . S
C2092 H2084 0.950 . S
C2092 C2093 1.386 . S
C2092 C2094 1.391 . S
C2093 C2092 1.386 . S
C2093 C2097 1.393 . S
C2094 H2086 0.950 . S
C2094 C2092 1.391 . S
C2094 C2095 1.400 . S
C2095 C2094 1.400 . S
C2095 C2096 1.398 . S
C2095 C2101 1.491 . S
C2096 H2087 0.950 . S
C2096 C2095 1.398 . S
C2096 C2097 1.391 . S
C2097 H2085 0.950 . S
C2097 C2093 1.393 . S
C2097 C2096 1.391 . S
C2098 H2088 0.950 . S
C2098 C2099 1.386 . S
C2098 C2100 1.391 . S
C2099 C2098 1.386 . S
C2099 C2103 1.393 . S
C2100 H2089 0.950 . S
C2100 C2098 1.391 . S
C2100 C2101 1.400 . S
C2101 C2095 1.491 . S
C2101 C2100 1.400 . S
C2101 C2102 1.398 . S
C2102 H2090 0.950 . S
C2102 C2101 1.398 . S
C2102 C2103 1.391 . S
C2103 H2091 0.950 . S
C2103 C2099 1.393 . S
C2103 C2102 1.391 . S
H2104 C2112 0.950 . S
H2105 C2117 0.950 . S
H2106 C2114 0.950 . S
H2107 C2116 0.950 . S
H2108 C2118 0.950 . S
H2109 C2120 0.950 . S
H2110 C2122 0.950 . S
H2111 C2123 0.950 . S
C2112 H2104 0.950 . S
C2112 C2113 1.386 . S
C2112 C2114 1.391 . S
C2113 C2112 1.386 . S
C2113 C2117 1.393 . S
C2114 H2106 0.950 . S
C2114 C2112 1.391 . S
C2114 C2115 1.400 . S
C2115 C2114 1.400 . S
C2115 C2116 1.398 . S
C2115 C2121 1.491 . S
C2116 H2107 0.950 . S
C2116 C2115 1.398 . S
C2116 C2117 1.391 . S
C2117 H2105 0.950 . S
C2117 C2113 1.393 . S
C2117 C2116 1.391 . S
C2118 H2108 0.950 . S
C2118 C2119 1.386 . S
C2118 C2120 1.391 . S
C2119 C2118 1.386 . S
C2119 C2123 1.393 . S
C2120 H2109 0.950 . S
C2120 C2118 1.391 . S
C2120 C2121 1.400 . S
C2121 C2115 1.491 . S
C2121 C2120 1.400 . S
C2121 C2122 1.398 . S
C2122 H2110 0.950 . S
C2122 C2121 1.398 . S
C2122 C2123 1.391 . S
C2123 H2111 0.950 . S
C2123 C2119 1.393 . S
C2123 C2122 1.391 . S
H2124 C2132 0.950 . S
H2125 C2137 0.950 . S
H2126 C2134 0.950 . S
H2127 C2136 0.950 . S
H2128 C2138 0.950 . S
H2129 C2140 0.950 . S
H2130 C2142 0.950 . S
H2131 C2143 0.950 . S
C2132 H2124 0.950 . S
C2132 C2133 1.386 . S
C2132 C2134 1.391 . S
C2133 C2132 1.386 . S
C2133 C2137 1.393 . S
C2134 H2126 0.950 . S
C2134 C2132 1.391 . S
C2134 C2135 1.400 . S
C2135 C2134 1.400 . S
C2135 C2136 1.398 . S
C2135 C2141 1.491 . S
C2136 H2127 0.950 . S
C2136 C2135 1.398 . S
C2136 C2137 1.391 . S
C2137 H2125 0.950 . S
C2137 C2133 1.393 . S
C2137 C2136 1.391 . S
C2138 H2128 0.950 . S
C2138 C2139 1.386 . S
C2138 C2140 1.391 . S
C2139 C2138 1.386 . S
C2139 C2143 1.393 . S
C2140 H2129 0.950 . S
C2140 C2138 1.391 . S
C2140 C2141 1.400 . S
C2141 C2135 1.491 . S
C2141 C2140 1.400 . S
C2141 C2142 1.398 . S
C2142 H2130 0.950 . S
C2142 C2141 1.398 . S
C2142 C2143 1.391 . S
C2143 H2131 0.950 . S
C2143 C2139 1.393 . S
C2143 C2142 1.391 . S
H2144 C2152 0.950 . S
H2145 C2157 0.950 . S
H2146 C2154 0.950 . S
H2147 C2156 0.950 . S
H2148 C2158 0.950 . S
H2149 C2160 0.950 . S
H2150 C2162 0.950 . S
H2151 C2163 0.950 . S
C2152 H2144 0.950 . S
C2152 C2153 1.386 . S
C2152 C2154 1.391 . S
C2153 C2152 1.386 . S
C2153 C2157 1.393 . S
C2154 H2146 0.950 . S
C2154 C2152 1.391 . S
C2154 C2155 1.400 . S
C2155 C2154 1.400 . S
C2155 C2156 1.398 . S
C2155 C2161 1.491 . S
C2156 H2147 0.950 . S
C2156 C2155 1.398 . S
C2156 C2157 1.391 . S
C2157 H2145 0.950 . S
C2157 C2153 1.393 . S
C2157 C2156 1.391 . S
C2158 H2148 0.950 . S
C2158 C2159 1.386 . S
C2158 C2160 1.391 . S
C2159 C2158 1.386 . S
C2159 C2163 1.393 . S
C2160 H2149 0.950 . S
C2160 C2158 1.391 . S
C2160 C2161 1.400 . S
C2161 C2155 1.491 . S
C2161 C2160 1.400 . S
C2161 C2162 1.398 . S
C2162 H2150 0.950 . S
C2162 C2161 1.398 . S
C2162 C2163 1.391 . S
C2163 H2151 0.950 . S
C2163 C2159 1.393 . S
C2163 C2162 1.391 . S
H2164 C2172 0.950 . S
H2165 C2177 0.950 . S
H2166 C2174 0.950 . S
H2167 C2176 0.950 . S
H2168 C2178 0.950 . S
H2169 C2180 0.950 . S
H2170 C2182 0.950 . S
H2171 C2183 0.950 . S
C2172 H2164 0.950 . S
C2172 C2173 1.386 . S
C2172 C2174 1.391 . S
C2173 C2172 1.386 . S
C2173 C2177 1.393 . S
C2174 H2166 0.950 . S
C2174 C2172 1.391 . S
C2174 C2175 1.400 . S
C2175 C2174 1.400 . S
C2175 C2176 1.398 . S
C2175 C2181 1.491 . S
C2176 H2167 0.950 . S
C2176 C2175 1.398 . S
C2176 C2177 1.391 . S
C2177 H2165 0.950 . S
C2177 C2173 1.393 . S
C2177 C2176 1.391 . S
C2178 H2168 0.950 . S
C2178 C2179 1.386 . S
C2178 C2180 1.391 . S
C2179 C2178 1.386 . S
C2179 C2183 1.393 . S
C2180 H2169 0.950 . S
C2180 C2178 1.391 . S
C2180 C2181 1.400 . S
C2181 C2175 1.491 . S
C2181 C2180 1.400 . S
C2181 C2182 1.398 . S
C2182 H2170 0.950 . S
C2182 C2181 1.398 . S
C2182 C2183 1.391 . S
C2183 H2171 0.950 . S
C2183 C2179 1.393 . S
C2183 C2182 1.391 . S
H2184 C2192 0.950 . S
H2185 C2197 0.950 . S
H2186 C2194 0.950 . S
H2187 C2196 0.950 . S
H2188 C2198 0.950 . S
H2189 C2200 0.950 . S
H2190 C2202 0.950 . S
H2191 C2203 0.950 . S
C2192 H2184 0.950 . S
C2192 C2193 1.386 . S
C2192 C2194 1.391 . S
C2193 C2192 1.386 . S
C2193 C2197 1.393 . S
C2194 H2186 0.950 . S
C2194 C2192 1.391 . S
C2194 C2195 1.400 . S
C2195 C2194 1.400 . S
C2195 C2196 1.398 . S
C2195 C2201 1.491 . S
C2196 H2187 0.950 . S
C2196 C2195 1.398 . S
C2196 C2197 1.391 . S
C2197 H2185 0.950 . S
C2197 C2193 1.393 . S
C2197 C2196 1.391 . S
C2198 H2188 0.950 . S
C2198 C2199 1.386 . S
C2198 C2200 1.391 . S
C2199 C2198 1.386 . S
C2199 C2203 1.393 . S
C2200 H2189 0.950 . S
C2200 C2198 1.391 . S
C2200 C2201 1.400 . S
C2201 C2195 1.491 . S
C2201 C2200 1.400 . S
C2201 C2202 1.398 . S
C2202 H2190 0.950 . S
C2202 C2201 1.398 . S
C2202 C2203 1.391 . S
C2203 H2191 0.950 . S
C2203 C2199 1.393 . S
C2203 C2202 1.391 . S
H2204 C2212 0.950 . S
H2205 C2217 0.950 . S
H2206 C2214 0.950 1_556 S
H2207 C2216 0.950 1_655 S
H2208 C2218 0.950 . S
H2209 C2220 0.950 1_554 S
H2210 C2222 0.950 1_455 S
H2211 C2223 0.950 . S
C2212 H2204 0.950 . S
C2212 C2213 1.386 . S
C2212 C2214 1.391 . S
C2213 C2212 1.386 . S
C2213 C2217 1.393 . S
C2214 H2206 0.950 1_554 S
C2214 C2212 1.391 . S
C2214 C2215 1.400 . S
C2215 C2214 1.400 . S
C2215 C2216 1.398 . S
C2215 C2221 1.491 1_454 S
C2216 H2207 0.950 1_455 S
C2216 C2215 1.398 . S
C2216 C2217 1.391 . S
C2217 H2205 0.950 . S
C2217 C2213 1.393 . S
C2217 C2216 1.391 . S
C2218 H2208 0.950 . S
C2218 C2219 1.386 . S
C2218 C2220 1.391 . S
C2219 C2218 1.386 . S
C2219 C2223 1.393 . S
C2220 H2209 0.950 1_556 S
C2220 C2218 1.391 . S
C2220 C2221 1.400 . S
C2221 C2215 1.491 1_656 S
C2221 C2220 1.400 . S
C2221 C2222 1.398 . S
C2222 H2210 0.950 1_655 S
C2222 C2221 1.398 . S
C2222 C2223 1.391 . S
C2223 H2211 0.950 . S
C2223 C2219 1.393 . S
C2223 C2222 1.391 . S
H2224 C2232 0.950 . S
H2225 C2237 0.950 . S
H2226 C2234 0.950 . S
H2227 C2236 0.950 . S
H2228 C2238 0.950 . S
H2229 C2240 0.950 . S
H2230 C2242 0.950 . S
H2231 C2243 0.950 . S
C2232 H2224 0.950 . S
C2232 C2233 1.386 . S
C2232 C2234 1.391 . S
C2233 C2232 1.386 . S
C2233 C2237 1.393 . S
C2234 H2226 0.950 . S
C2234 C2232 1.391 . S
C2234 C2235 1.400 . S
C2235 C2234 1.400 . S
C2235 C2236 1.398 . S
C2235 C2241 1.491 . S
C2236 H2227 0.950 . S
C2236 C2235 1.398 . S
C2236 C2237 1.391 . S
C2237 H2225 0.950 . S
C2237 C2233 1.393 . S
C2237 C2236 1.391 . S
C2238 H2228 0.950 . S
C2238 C2239 1.386 . S
C2238 C2240 1.391 . S
C2239 C2238 1.386 . S
C2239 C2243 1.393 . S
C2240 H2229 0.950 . S
C2240 C2238 1.391 . S
C2240 C2241 1.400 . S
C2241 C2235 1.491 . S
C2241 C2240 1.400 . S
C2241 C2242 1.398 . S
C2242 H2230 0.950 . S
C2242 C2241 1.398 . S
C2242 C2243 1.391 . S
C2243 H2231 0.950 . S
C2243 C2239 1.393 . S
C2243 C2242 1.391 . S
H2244 C2252 0.950 . S
H2245 C2257 0.950 . S
H2246 C2254 0.950 . S
H2247 C2256 0.950 . S
H2248 C2258 0.950 . S
H2249 C2260 0.950 . S
H2250 C2262 0.950 . S
H2251 C2263 0.950 . S
C2252 H2244 0.950 . S
C2252 C2253 1.386 . S
C2252 C2254 1.391 . S
C2253 C2252 1.386 . S
C2253 C2257 1.393 . S
C2254 H2246 0.950 . S
C2254 C2252 1.391 . S
C2254 C2255 1.400 . S
C2255 C2254 1.400 . S
C2255 C2256 1.398 . S
C2255 C2261 1.491 . S
C2256 H2247 0.950 . S
C2256 C2255 1.398 . S
C2256 C2257 1.391 . S
C2257 H2245 0.950 . S
C2257 C2253 1.393 . S
C2257 C2256 1.391 . S
C2258 H2248 0.950 . S
C2258 C2259 1.386 . S
C2258 C2260 1.391 . S
C2259 C2258 1.386 . S
C2259 C2263 1.393 . S
C2260 H2249 0.950 . S
C2260 C2258 1.391 . S
C2260 C2261 1.400 . S
C2261 C2255 1.491 . S
C2261 C2260 1.400 . S
C2261 C2262 1.398 . S
C2262 H2250 0.950 . S
C2262 C2261 1.398 . S
C2262 C2263 1.391 . S
C2263 H2251 0.950 . S
C2263 C2259 1.393 . S
C2263 C2262 1.391 . S
H2264 C2272 0.950 . S
H2265 C2277 0.950 . S
H2266 C2274 0.950 1_554 S
H2267 C2276 0.950 1_655 S
H2268 C2278 0.950 . S
H2269 C2280 0.950 1_556 S
H2270 C2282 0.950 1_455 S
H2271 C2283 0.950 . S
C2272 H2264 0.950 . S
C2272 C2273 1.386 . S
C2272 C2274 1.391 . S
C2273 C2272 1.386 . S
C2273 C2277 1.393 . S
C2274 H2266 0.950 1_556 S
C2274 C2272 1.391 . S
C2274 C2275 1.400 . S
C2275 C2274 1.400 . S
C2275 C2276 1.398 . S
C2275 C2281 1.491 1_446 S
C2276 H2267 0.950 1_455 S
C2276 C2275 1.398 . S
C2276 C2277 1.391 . S
C2277 H2265 0.950 . S
C2277 C2273 1.393 . S
C2277 C2276 1.391 . S
C2278 H2268 0.950 . S
C2278 C2279 1.386 . S
C2278 C2280 1.391 . S
C2279 C2278 1.386 . S
C2279 C2283 1.393 . S
C2280 H2269 0.950 1_554 S
C2280 C2278 1.391 . S
C2280 C2281 1.400 . S
C2281 C2275 1.491 1_664 S
C2281 C2280 1.400 . S
C2281 C2282 1.398 . S
C2282 H2270 0.950 1_655 S
C2282 C2281 1.398 . S
C2282 C2283 1.391 . S
C2283 H2271 0.950 . S
C2283 C2279 1.393 . S
C2283 C2282 1.391 . S
H2284 C2292 0.950 . S
H2285 C2297 0.950 . S
H2286 C2294 0.950 . S
H2287 C2296 0.950 . S
H2288 C2298 0.950 . S
H2289 C2300 0.950 . S
H2290 C2302 0.950 . S
H2291 C2303 0.950 . S
C2292 H2284 0.950 . S
C2292 C2293 1.386 1_565 S
C2292 C2294 1.391 . S
C2293 C2292 1.386 1_545 S
C2293 C2297 1.393 . S
C2294 H2286 0.950 . S
C2294 C2292 1.391 . S
C2294 C2295 1.400 1_565 S
C2295 C2294 1.400 1_545 S
C2295 C2296 1.398 . S
C2295 C2301 1.491 1_545 S
C2296 H2287 0.950 . S
C2296 C2295 1.398 . S
C2296 C2297 1.391 . S
C2297 H2285 0.950 . S
C2297 C2293 1.393 . S
C2297 C2296 1.391 . S
C2298 H2288 0.950 . S
C2298 C2299 1.386 1_545 S
C2298 C2300 1.391 . S
C2299 C2298 1.386 1_565 S
C2299 C2303 1.393 . S
C2300 H2289 0.950 . S
C2300 C2298 1.391 . S
C2300 C2301 1.400 1_545 S
C2301 C2295 1.491 1_565 S
C2301 C2300 1.400 1_565 S
C2301 C2302 1.398 . S
C2302 H2290 0.950 . S
C2302 C2301 1.398 . S
C2302 C2303 1.391 . S
C2303 H2291 0.950 . S
C2303 C2299 1.393 . S
C2303 C2302 1.391 . S
C1353 C56 2.087 . S
C1359 C896 2.082 . S
C1373 C140 2.087 . S
C1379 C980 2.081 . S
C1393 C224 2.087 . S
C1399 C728 2.077 . S
C1413 C308 2.064 . S
C1419 C812 2.073 . S
C1433 C403 2.081 . S
C1439 C1243 2.087 . S
C1453 C487 2.078 . S
C1459 C1327 2.087 . S
C1473 C571 2.073 . S
C1479 C1075 2.064 . S
C1493 C655 2.087 . S
C1499 C1159 2.083 . S
C1513 C819 3.510 . S
C1519 C67 3.568 1_556 S
C1533 C903 3.509 . S
C1539 C151 3.567 . S
C1553 C987 3.513 . S
C1559 C235 3.567 . S
C1573 C735 3.519 . S
C1579 C319 3.562 . S
C1593 C392 3.568 1_554 S
C1599 C1166 3.513 . S
C1613 C1250 3.518 . S
C1619 C476 3.561 . S
C1633 C1334 3.510 . S
C1639 C560 3.568 . S
C1653 C1082 3.512 . S
C1659 C644 3.567 . S
C1673 C147 3.518 . S
C1679 C739 3.563 . S
C1693 C823 3.567 . S
C1699 C231 3.509 . S
C1713 C907 3.562 1_556 S
C1719 C315 3.520 . S
C1733 C991 3.566 . S
C1739 C63 3.509 . S
C1753 C1064 3.562 . S
C1759 C494 3.515 . S
C1773 C578 3.519 . S
C1779 C1148 3.562 . S
C1793 C662 3.511 . S
C1799 C1232 3.566 1_554 S
C1813 C1316 3.567 . S
C1819 C410 3.513 . S
C1833 C69 0.639 . S
C1839 C1323 0.520 . S
C1853 C153 0.579 . S
C1859 C399 0.537 . S
C1873 C1155 0.541 . S
C1879 C237 0.597 . S
C1893 C567 0.541 . S
C1899 C321 0.571 . S
C1913 C394 0.562 . S
C1919 C998 0.550 . S
C1933 C478 0.590 . S
C1939 C74 0.543 . S
C1953 C830 0.547 . S
C1959 C562 0.560 . S
C1973 C242 0.523 . S
C1979 C646 0.635 . S
C1993 C741 0.565 . S
C1999 C651 0.550 . S
C2013 C825 0.632 . S
C2019 C1071 0.518 . S
C2033 C483 0.543 . S
C2039 C909 0.590 . S
C2053 C1239 0.547 . S
C2059 C993 0.577 . S
C2073 C1066 0.640 . S
C2079 C326 0.519 . S
C2093 C1150 0.573 . S
C2099 C746 0.539 . S
C2113 C1234 0.573 . S
C2119 C158 0.548 . S
C2133 C914 0.532 . S
C2139 C1318 0.590 . S
C2153 C58 1.248 . S
C2159 C1077 1.248 . S
C2173 C142 1.301 . S
C2179 C489 1.301 . S
C2193 C226 1.262 . S
C2199 C1245 1.262 . S
C2213 C657 1.280 . S
C2219 C310 1.280 . S
C2233 C405 1.285 . S
C2239 C730 1.285 . S
C2253 C898 1.255 . S
C2259 C573 1.255 . S
C2273 C814 1.261 . S
C2279 C1161 1.261 . S
C2293 C1329 1.252 . S
C2299 C982 1.252 . S
