# Generated by pormake.
# Topology smd, (6)-cn, num edge types: 1
# Building blocks:
#     Node 0, Type 0, BuildingBlock: MIFKUJ_clean_sbu_0, # of connection points: 6
#     Node 1, Type 0, BuildingBlock: MIFKUJ_clean_sbu_0, # of connection points: 6
#     Node 2, Type 0, BuildingBlock: MIFKUJ_clean_sbu_0, # of connection points: 6
#     Node 3, Type 0, BuildingBlock: MIFKUJ_clean_sbu_0, # of connection points: 6
#     Node 4, Type 0, BuildingBlock: MIFKUJ_clean_sbu_0, # of connection points: 6
#     Node 5, Type 0, BuildingBlock: MIFKUJ_clean_sbu_0, # of connection points: 6
#     Node 6, Type 0, BuildingBlock: MIFKUJ_clean_sbu_0, # of connection points: 6
#     Node 7, Type 0, BuildingBlock: MIFKUJ_clean_sbu_0, # of connection points: 6
#     Node 8, Type 0, BuildingBlock: MIFKUJ_clean_sbu_0, # of connection points: 6
#     Node 9, Type 0, BuildingBlock: MIFKUJ_clean_sbu_0, # of connection points: 6
#     Node 10, Type 0, BuildingBlock: MIFKUJ_clean_sbu_0, # of connection points: 6
#     Node 11, Type 0, BuildingBlock: MIFKUJ_clean_sbu_0, # of connection points: 6
#     Node 12, Type 0, BuildingBlock: MIFKUJ_clean_sbu_0, # of connection points: 6
#     Node 13, Type 0, BuildingBlock: MIFKUJ_clean_sbu_0, # of connection points: 6
#     Node 14, Type 0, BuildingBlock: MIFKUJ_clean_sbu_0, # of connection points: 6
#     Node 15, Type 0, BuildingBlock: MIFKUJ_clean_sbu_0, # of connection points: 6
#     Node 16, Type 0, BuildingBlock: MIFKUJ_clean_sbu_0, # of connection points: 6
#     Node 17, Type 0, BuildingBlock: MIFKUJ_clean_sbu_0, # of connection points: 6
#     Edge 18, Type (0, 0), BuildingBlock: KIFKEQ_clean_linker_1, # of connection points: 2
#     Edge 19, Type (0, 0), BuildingBlock: KIFKEQ_clean_linker_1, # of connection points: 2
#     Edge 20, Type (0, 0), BuildingBlock: KIFKEQ_clean_linker_1, # of connection points: 2
#     Edge 21, Type (0, 0), BuildingBlock: KIFKEQ_clean_linker_1, # of connection points: 2
#     Edge 22, Type (0, 0), BuildingBlock: KIFKEQ_clean_linker_1, # of connection points: 2
#     Edge 23, Type (0, 0), BuildingBlock: KIFKEQ_clean_linker_1, # of connection points: 2
#     Edge 24, Type (0, 0), BuildingBlock: KIFKEQ_clean_linker_1, # of connection points: 2
#     Edge 25, Type (0, 0), BuildingBlock: KIFKEQ_clean_linker_1, # of connection points: 2
#     Edge 26, Type (0, 0), BuildingBlock: KIFKEQ_clean_linker_1, # of connection points: 2
#     Edge 27, Type (0, 0), BuildingBlock: KIFKEQ_clean_linker_1, # of connection points: 2
#     Edge 28, Type (0, 0), BuildingBlock: KIFKEQ_clean_linker_1, # of connection points: 2
#     Edge 29, Type (0, 0), BuildingBlock: KIFKEQ_clean_linker_1, # of connection points: 2
#     Edge 30, Type (0, 0), BuildingBlock: KIFKEQ_clean_linker_1, # of connection points: 2
#     Edge 31, Type (0, 0), BuildingBlock: KIFKEQ_clean_linker_1, # of connection points: 2
#     Edge 32, Type (0, 0), BuildingBlock: KIFKEQ_clean_linker_1, # of connection points: 2
#     Edge 33, Type (0, 0), BuildingBlock: KIFKEQ_clean_linker_1, # of connection points: 2
#     Edge 34, Type (0, 0), BuildingBlock: KIFKEQ_clean_linker_1, # of connection points: 2
#     Edge 35, Type (0, 0), BuildingBlock: KIFKEQ_clean_linker_1, # of connection points: 2
#     Edge 36, Type (0, 0), BuildingBlock: KIFKEQ_clean_linker_1, # of connection points: 2
#     Edge 37, Type (0, 0), BuildingBlock: KIFKEQ_clean_linker_1, # of connection points: 2
#     Edge 38, Type (0, 0), BuildingBlock: KIFKEQ_clean_linker_1, # of connection points: 2
#     Edge 39, Type (0, 0), BuildingBlock: KIFKEQ_clean_linker_1, # of connection points: 2
#     Edge 40, Type (0, 0), BuildingBlock: KIFKEQ_clean_linker_1, # of connection points: 2
#     Edge 41, Type (0, 0), BuildingBlock: KIFKEQ_clean_linker_1, # of connection points: 2
#     Edge 42, Type (0, 0), BuildingBlock: KIFKEQ_clean_linker_1, # of connection points: 2
#     Edge 43, Type (0, 0), BuildingBlock: KIFKEQ_clean_linker_1, # of connection points: 2
#     Edge 44, Type (0, 0), BuildingBlock: KIFKEQ_clean_linker_1, # of connection points: 2
#     Edge 45, Type (0, 0), BuildingBlock: KIFKEQ_clean_linker_1, # of connection points: 2
#     Edge 46, Type (0, 0), BuildingBlock: KIFKEQ_clean_linker_1, # of connection points: 2
#     Edge 47, Type (0, 0), BuildingBlock: KIFKEQ_clean_linker_1, # of connection points: 2
#     Edge 48, Type (0, 0), BuildingBlock: KIFKEQ_clean_linker_1, # of connection points: 2
#     Edge 49, Type (0, 0), BuildingBlock: KIFKEQ_clean_linker_1, # of connection points: 2
#     Edge 50, Type (0, 0), BuildingBlock: KIFKEQ_clean_linker_1, # of connection points: 2
#     Edge 51, Type (0, 0), BuildingBlock: KIFKEQ_clean_linker_1, # of connection points: 2
#     Edge 52, Type (0, 0), BuildingBlock: KIFKEQ_clean_linker_1, # of connection points: 2
#     Edge 53, Type (0, 0), BuildingBlock: KIFKEQ_clean_linker_1, # of connection points: 2
#     Edge 54, Type (0, 0), BuildingBlock: KIFKEQ_clean_linker_1, # of connection points: 2
#     Edge 55, Type (0, 0), BuildingBlock: KIFKEQ_clean_linker_1, # of connection points: 2
#     Edge 56, Type (0, 0), BuildingBlock: KIFKEQ_clean_linker_1, # of connection points: 2
#     Edge 57, Type (0, 0), BuildingBlock: KIFKEQ_clean_linker_1, # of connection points: 2
#     Edge 58, Type (0, 0), BuildingBlock: KIFKEQ_clean_linker_1, # of connection points: 2
#     Edge 59, Type (0, 0), BuildingBlock: KIFKEQ_clean_linker_1, # of connection points: 2
#     Edge 60, Type (0, 0), BuildingBlock: KIFKEQ_clean_linker_1, # of connection points: 2
#     Edge 61, Type (0, 0), BuildingBlock: KIFKEQ_clean_linker_1, # of connection points: 2
#     Edge 62, Type (0, 0), BuildingBlock: KIFKEQ_clean_linker_1, # of connection points: 2
#     Edge 63, Type (0, 0), BuildingBlock: KIFKEQ_clean_linker_1, # of connection points: 2
#     Edge 64, Type (0, 0), BuildingBlock: KIFKEQ_clean_linker_1, # of connection points: 2
#     Edge 65, Type (0, 0), BuildingBlock: KIFKEQ_clean_linker_1, # of connection points: 2
#     Edge 66, Type (0, 0), BuildingBlock: KIFKEQ_clean_linker_1, # of connection points: 2
#     Edge 67, Type (0, 0), BuildingBlock: KIFKEQ_clean_linker_1, # of connection points: 2
#     Edge 68, Type (0, 0), BuildingBlock: KIFKEQ_clean_linker_1, # of connection points: 2
#     Edge 69, Type (0, 0), BuildingBlock: KIFKEQ_clean_linker_1, # of connection points: 2
#     Edge 70, Type (0, 0), BuildingBlock: KIFKEQ_clean_linker_1, # of connection points: 2
#     Edge 71, Type (0, 0), BuildingBlock: KIFKEQ_clean_linker_1, # of connection points: 2
# Relax obj value: 0.199
# Max RMSD: 0.244
# Mean RMSD: 0.244
data_MOF--net-smd--node1-MIFKUJ_clean_sbu_0--edge1-KIFKEQ_clean_linker_1
_symmetry_space_group_name_H-M    P1
_symmetry_Int_Tables_number       1
_symmetry_cell_setting            triclinic
loop_
_symmetry_equiv_pos_as_xyz
'x, y, z'
_cell_length_a     72.631252
_cell_length_b     72.692474
_cell_length_c     18.582582
_cell_angle_alpha  90.017362
_cell_angle_beta   90.014898
_cell_angle_gamma 119.99464
loop_
_atom_site_label
_atom_site_type_symbol
_atom_site_fract_x
_atom_site_fract_y
_atom_site_fract_z
_atom_type_partial_charge
Zn0 Zn 0.01525 0.24025 0.56159 0.0
Zn1 Zn 0.01907 0.22528 0.37982 0.0
C2 C 0.00554 0.27173 0.61101 0.0
O3 O 0.02637 0.28338 0.6108 0.0
C4 C 0.04801 0.21312 0.44301 0.0
O5 O 0.03159 0.19384 0.43716 0.0
O6 O 0.02925 0.24024 0.65653 0.0
O7 O 0.99388 0.20998 0.53134 0.0
O8 O 0.99344 0.19981 0.4187 0.0
C9 C 0.02303 0.22343 0.69365 0.0
O10 O 0.00908 0.20507 0.66573 0.0
O11 O 0.99686 0.25249 0.59049 0.0
C12 C 0.0358 0.23392 0.23467 0.0
O13 O 0.05178 0.2502 0.26671 0.0
O14 O 0.02005 0.2208 0.27241 0.0
O15 O 0.0182 0.25225 0.39003 0.0
O16 O 0.03665 0.26211 0.49096 0.0
O17 O 0.0461 0.22885 0.42367 0.0
C18 C 0.9859 0.19597 0.48203 0.0
C19 C 0.03084 0.26681 0.43242 0.0
Zn20 Zn 0.78382 0.78075 0.56556 0.0
Zn21 Zn 0.79921 0.81316 0.37988 0.0
C22 C 0.76433 0.74449 0.66134 0.0
O23 O 0.75613 0.75528 0.69023 0.0
C24 C 0.81706 0.85633 0.43778 0.0
O25 O 0.83566 0.85764 0.42996 0.0
O26 O 0.78588 0.79854 0.6532 0.0
O27 O 0.8127 0.79173 0.52108 0.0
O28 O 0.823 0.80903 0.41724 0.0
C29 C 0.79956 0.79954 0.6984 0.0
O30 O 0.81139 0.79129 0.68024 0.0
O31 O 0.77659 0.75217 0.60722 0.0
C32 C 0.78987 0.81794 0.23145 0.0
O33 O 0.77224 0.81542 0.26025 0.0
O34 O 0.804 0.818 0.2722 0.0
O35 O 0.76909 0.78923 0.39095 0.0
O36 O 0.75922 0.77339 0.49783 0.0
O37 O 0.80028 0.83913 0.42176 0.0
C38 C 0.82663 0.80097 0.47239 0.0
C39 C 0.75492 0.77604 0.43351 0.0
Zn40 Zn 0.24496 0.02217 0.5695 0.0
Zn41 Zn 0.21184 0.00699 0.3844 0.0
C42 C 0.28426 0.03213 0.63268 0.0
O43 O 0.27433 0.01127 0.63468 0.0
C44 C 0.16654 0.97951 0.39105 0.0
O45 O 0.16703 0.99148 0.33728 0.0
O46 O 0.22809 0.00815 0.65945 0.0
O47 O 0.2353 0.04145 0.52807 0.0
O48 O 0.21787 0.03531 0.42471 0.0
C49 C 0.22981 0.0219 0.70549 0.0
O50 O 0.24036 0.04206 0.68729 0.0
O51 O 0.27472 0.04123 0.60633 0.0
C52 C 0.20718 0.9937 0.23635 0.0
O53 O 0.20726 0.97727 0.26546 0.0
O54 O 0.20875 0.00852 0.27686 0.0
O55 O 0.23309 0.99706 0.39595 0.0
O56 O 0.24871 0.00248 0.50284 0.0
O57 O 0.18384 0.98369 0.42182 0.0
C58 C 0.22641 0.04677 0.48 0.0
C59 C 0.24519 0.99469 0.43977 0.0
Zn60 Zn 0.00283 0.8076 0.58917 0.0
Zn61 Zn 0.00923 0.79379 0.41225 0.0
C62 C 0.97098 0.81843 0.5695 0.0
O63 O 0.98325 0.83265 0.61721 0.0
C64 C 0.01998 0.76155 0.37823 0.0
O65 O 0.9992 0.74932 0.37843 0.0
O66 O 0.00152 0.8112 0.69583 0.0
O67 O 0.00384 0.78081 0.57714 0.0
O68 O 0.98545 0.77233 0.47676 0.0
C69 C 0.98831 0.79596 0.73495 0.0
O70 O 0.9751 0.77769 0.70469 0.0
O71 O 0.97633 0.80537 0.54568 0.0
C72 C 0.01187 0.80545 0.26878 0.0
O73 O 0.03187 0.81513 0.28912 0.0
O74 O 0.99756 0.79473 0.31503 0.0
O75 O 0.0295 0.82441 0.44203 0.0
O76 O 0.02833 0.83351 0.55478 0.0
O77 O 0.02804 0.7812 0.3925 0.0
C78 C 0.99039 0.76679 0.53519 0.0
C79 C 0.03646 0.83808 0.49246 0.0
Zn80 Zn 0.21962 0.21538 0.61303 0.0
Zn81 Zn 0.23566 0.25063 0.43178 0.0
C82 C 0.20665 0.17091 0.60244 0.0
O83 O 0.19632 0.1699 0.66168 0.0
C84 C 0.25989 0.28805 0.34807 0.0
O85 O 0.26822 0.27668 0.32533 0.0
O86 O 0.21491 0.21154 0.72142 0.0
O87 O 0.25006 0.2386 0.60236 0.0
O88 O 0.25981 0.25621 0.49872 0.0
C89 C 0.22877 0.21149 0.76327 0.0
O90 O 0.2461 0.21302 0.73543 0.0
O91 O 0.21709 0.18863 0.57029 0.0
C92 C 0.22046 0.23414 0.29529 0.0
O93 O 0.20964 0.24351 0.3132 0.0
O94 O 0.2331 0.23355 0.34161 0.0
O95 O 0.20675 0.24043 0.47548 0.0
O96 O 0.19672 0.22088 0.57509 0.0
O97 O 0.24505 0.28011 0.39449 0.0
C98 C 0.26423 0.25233 0.56114 0.0
C99 C 0.19304 0.23028 0.52408 0.0
Zn100 Zn 0.81401 0.02393 0.62799 0.0
Zn101 Zn 0.78698 0.0119 0.44887 0.0
C102 C 0.85726 0.05514 0.60836 0.0
O103 O 0.85902 0.04301 0.65707 0.0
C104 C 0.74637 0.00046 0.3882 0.0
O105 O 0.75715 0.0203 0.36658 0.0
O106 O 0.81935 0.02444 0.73459 0.0
O107 O 0.78698 0.02514 0.62162 0.0
O108 O 0.78863 0.0359 0.50932 0.0
C109 C 0.81829 0.03792 0.77534 0.0
O110 O 0.81445 0.0522 0.74673 0.0
O111 O 0.83889 0.04995 0.58431 0.0
C112 C 0.79801 0.00908 0.30632 0.0
O113 O 0.7873 0.98899 0.32529 0.0
O114 O 0.801 0.02316 0.35277 0.0
O115 O 0.79682 0.99215 0.48615 0.0
O116 O 0.81258 0.99739 0.59214 0.0
O117 O 0.75577 0.99305 0.42603 0.0
C118 C 0.78183 0.03411 0.57342 0.0
C119 C 0.80551 0.98672 0.53463 0.0
Zn120 Zn 0.67875 0.5591 0.92003 0.0
Zn121 Zn 0.67709 0.55105 0.75154 0.0
C122 C 0.6643 0.58566 0.96949 0.0
O123 O 0.68455 0.59587 0.98685 0.0
C124 C 0.70635 0.53529 0.76736 0.0
O125 O 0.69586 0.52389 0.71116 0.0
O126 O 0.68907 0.55919 0.02102 0.0
O127 O 0.66322 0.52779 0.88836 0.0
O128 O 0.64853 0.52971 0.78734 0.0
C129 C 0.67614 0.54455 0.06279 0.0
O130 O 0.65797 0.52958 0.03664 0.0
O131 O 0.65684 0.56803 0.9364 0.0
C132 C 0.67616 0.55929 0.59927 0.0
O133 O 0.67268 0.57428 0.62325 0.0
O134 O 0.678 0.54707 0.64401 0.0
O135 O 0.684 0.58069 0.76715 0.0
O136 O 0.70276 0.5841 0.86448 0.0
O137 O 0.70056 0.54744 0.7962 0.0
C138 C 0.64789 0.51963 0.84369 0.0
C139 C 0.69916 0.59222 0.80924 0.0
Zn140 Zn 0.46426 0.12443 0.90984 0.0
Zn141 Zn 0.47831 0.14812 0.73226 0.0
C142 C 0.43142 0.08208 0.94704 0.0
O143 O 0.41985 0.09135 0.94783 0.0
C144 C 0.48771 0.19056 0.75292 0.0
O145 O 0.50219 0.19337 0.70502 0.0
O146 O 0.46617 0.13769 0.00664 0.0
O147 O 0.49447 0.13421 0.87677 0.0
O148 O 0.50419 0.14848 0.76836 0.0
C149 C 0.47715 0.1345 0.053 0.0
O150 O 0.48678 0.12408 0.03334 0.0
O151 O 0.45102 0.093 0.93088 0.0
C152 C 0.46747 0.15115 0.58548 0.0
O153 O 0.44899 0.14585 0.6146 0.0
O154 O 0.48262 0.15342 0.62572 0.0
O155 O 0.45145 0.12006 0.74125 0.0
O156 O 0.44303 0.12747 0.84666 0.0
O157 O 0.47525 0.17189 0.776 0.0
C158 C 0.50835 0.14254 0.82729 0.0
C159 C 0.43746 0.11775 0.78681 0.0
Zn160 Zn 0.90286 0.34874 0.89788 0.0
Zn161 Zn 0.88601 0.34526 0.71685 0.0
C162 C 0.9443 0.35922 0.94722 0.0
O163 O 0.93548 0.33843 0.94602 0.0
C164 C 0.84312 0.31505 0.74378 0.0
O165 O 0.84106 0.32864 0.70279 0.0
O166 O 0.88817 0.33469 0.9911 0.0
O167 O 0.89265 0.36915 0.86689 0.0
O168 O 0.88511 0.37045 0.7523 0.0
C169 C 0.88682 0.34713 0.03618 0.0
O170 O 0.8938 0.36695 0.01749 0.0
O171 O 0.93341 0.36765 0.92777 0.0
C172 C 0.87522 0.32765 0.5719 0.0
O173 O 0.87034 0.30966 0.60386 0.0
O174 O 0.88181 0.34441 0.60951 0.0
O175 O 0.91388 0.34654 0.73103 0.0
O176 O 0.9037 0.32715 0.82944 0.0
O177 O 0.8617 0.3188 0.75974 0.0
C178 C 0.88703 0.37714 0.81639 0.0
C179 C 0.91508 0.33342 0.77291 0.0
Zn180 Zn 0.68091 0.14338 0.96093 0.0
Zn181 Zn 0.68454 0.13092 0.77899 0.0
C182 C 0.65307 0.15878 0.90984 0.0
O183 O 0.66989 0.17769 0.91793 0.0
C184 C 0.69442 0.10148 0.71125 0.0
O185 O 0.6756 0.09478 0.68242 0.0
O186 O 0.68108 0.14676 0.06794 0.0
O187 O 0.6787 0.11513 0.94458 0.0
O188 O 0.66093 0.10983 0.84345 0.0
C189 C 0.66437 0.13975 0.10603 0.0
O190 O 0.64565 0.12984 0.07474 0.0
O191 O 0.65453 0.1424 0.92269 0.0
C192 C 0.68589 0.1464 0.64006 0.0
O193 O 0.70589 0.15754 0.65982 0.0
O194 O 0.67237 0.1333 0.68437 0.0
O195 O 0.70609 0.1608 0.81054 0.0
O196 O 0.70729 0.16878 0.92583 0.0
O197 O 0.70172 0.11693 0.75531 0.0
C198 C 0.66519 0.10254 0.89924 0.0
C199 C 0.71445 0.1738 0.86236 0.0
Zn200 Zn 0.88012 0.54449 0.95901 0.0
Zn201 Zn 0.89468 0.57695 0.77409 0.0
C202 C 0.86548 0.49991 0.943 0.0
O203 O 0.85319 0.49847 0.99712 0.0
C204 C 0.92215 0.61504 0.70384 0.0
O205 O 0.9332 0.60522 0.70336 0.0
O206 O 0.87528 0.53983 0.06678 0.0
O207 O 0.91069 0.56779 0.94931 0.0
O208 O 0.91872 0.58365 0.84246 0.0
C209 C 0.88966 0.54055 0.10785 0.0
O210 O 0.90759 0.54377 0.0794 0.0
O211 O 0.87787 0.51805 0.91596 0.0
C212 C 0.87994 0.55956 0.63984 0.0
O213 O 0.86878 0.5686 0.65726 0.0
O214 O 0.89285 0.55951 0.68617 0.0
O215 O 0.86566 0.56632 0.81655 0.0
O216 O 0.85649 0.54909 0.92092 0.0
O217 O 0.90375 0.60581 0.73221 0.0
C218 C 0.92411 0.58093 0.90485 0.0
C219 C 0.85223 0.55697 0.8666 0.0
Zn220 Zn 0.47327 0.34876 0.97978 0.0
Zn221 Zn 0.45503 0.34529 0.80171 0.0
C222 C 0.51697 0.38066 0.97126 0.0
O223 O 0.51753 0.37019 0.028 0.0
C224 C 0.41534 0.33731 0.7431 0.0
O225 O 0.42716 0.35736 0.72481 0.0
O226 O 0.47719 0.34919 0.08669 0.0
O227 O 0.44721 0.35131 0.96652 0.0
O228 O 0.45835 0.36946 0.86585 0.0
C229 C 0.47696 0.36347 0.12545 0.0
O230 O 0.4741 0.37814 0.09481 0.0
O231 O 0.49942 0.3742 0.93842 0.0
C232 C 0.46419 0.342 0.65957 0.0
O233 O 0.45257 0.32211 0.68004 0.0
O234 O 0.4687 0.35661 0.70554 0.0
O235 O 0.46311 0.32335 0.83144 0.0
O236 O 0.47127 0.32195 0.94506 0.0
O237 O 0.42372 0.32847 0.77895 0.0
C238 C 0.44824 0.36562 0.92489 0.0
C239 C 0.46816 0.31475 0.8814 0.0
Zn240 Zn 0.34566 0.90231 0.22123 0.0
Zn241 Zn 0.34927 0.88539 0.0419 0.0
C242 C 0.31582 0.91092 0.29296 0.0
O243 O 0.31301 0.8946 0.33173 0.0
C244 C 0.38061 0.87319 0.06311 0.0
O245 O 0.36898 0.85955 0.01296 0.0
O246 O 0.35803 0.90189 0.31912 0.0
O247 O 0.32324 0.87221 0.19267 0.0
O248 O 0.32255 0.86113 0.08111 0.0
C249 C 0.35232 0.88493 0.35482 0.0
O250 O 0.33956 0.86653 0.32457 0.0
O251 O 0.32892 0.91705 0.2409 0.0
C252 C 0.3653 0.89385 0.8963 0.0
O253 O 0.38135 0.9101 0.92815 0.0
O254 O 0.34967 0.88067 0.93436 0.0
O255 O 0.35107 0.91375 0.05057 0.0
O256 O 0.36899 0.92248 0.15239 0.0
O257 O 0.37509 0.88614 0.08677 0.0
C258 C 0.31481 0.858 0.14414 0.0
C259 C 0.36412 0.92786 0.09338 0.0
Zn260 Zn 0.12465 0.46098 0.2254 0.0
Zn261 Zn 0.13838 0.48145 0.04301 0.0
C262 C 0.09306 0.4191 0.27017 0.0
O263 O 0.08115 0.42799 0.26962 0.0
C264 C 0.14867 0.52423 0.06412 0.0
O265 O 0.16303 0.52678 0.01608 0.0
O266 O 0.12493 0.47464 0.32097 0.0
O267 O 0.15505 0.47071 0.19299 0.0
O268 O 0.16398 0.48138 0.0802 0.0
C269 C 0.14174 0.48507 0.35823 0.0
O270 O 0.16007 0.48916 0.3308 0.0
O271 O 0.11249 0.43009 0.25186 0.0
C272 C 0.12985 0.48943 0.89726 0.0
O273 O 0.11384 0.48987 0.92854 0.0
O274 O 0.14258 0.48637 0.9356 0.0
O275 O 0.11143 0.45366 0.0537 0.0
O276 O 0.10257 0.46138 0.15805 0.0
O277 O 0.13588 0.5056 0.08684 0.0
C278 C 0.16857 0.47739 0.14195 0.0
C279 C 0.09732 0.45099 0.09931 0.0
Zn280 Zn 0.56365 0.67313 0.19883 0.0
Zn281 Zn 0.5598 0.67826 0.03031 0.0
C282 C 0.60447 0.68684 0.25033 0.0
O283 O 0.59433 0.66643 0.26513 0.0
C284 C 0.51447 0.64954 0.03668 0.0
O285 O 0.5145 0.66197 0.98531 0.0
O286 O 0.55318 0.66174 0.29937 0.0
O287 O 0.54792 0.68906 0.17091 0.0
O288 O 0.56418 0.70541 0.07097 0.0
C289 C 0.55276 0.6751 0.34273 0.0
O290 O 0.55748 0.69391 0.31824 0.0
O291 O 0.59453 0.69461 0.2175 0.0
C292 C 0.552 0.66282 0.88407 0.0
O293 O 0.54656 0.64476 0.91658 0.0
O294 O 0.5582 0.67952 0.92182 0.0
O295 O 0.58325 0.67267 0.05154 0.0
O296 O 0.56471 0.65014 0.13728 0.0
O297 O 0.532 0.65366 0.06547 0.0
C298 C 0.55406 0.70461 0.12754 0.0
C299 C 0.57878 0.65623 0.08808 0.0
Zn300 Zn 0.34534 0.48388 0.24841 0.0
Zn301 Zn 0.35098 0.46783 0.06456 0.0
C302 C 0.3141 0.49654 0.23557 0.0
O303 O 0.32646 0.51022 0.28446 0.0
C304 C 0.37889 0.45002 0.08079 0.0
O305 O 0.38067 0.45674 0.14744 0.0
O306 O 0.3459 0.48862 0.35585 0.0
O307 O 0.3422 0.45502 0.23869 0.0
O308 O 0.32757 0.44667 0.13045 0.0
C309 C 0.32981 0.47669 0.39438 0.0
O310 O 0.3127 0.4615 0.36318 0.0
O311 O 0.31938 0.48376 0.20862 0.0
C312 C 0.3459 0.48693 0.93327 0.0
O313 O 0.36098 0.50466 0.96153 0.0
O314 O 0.33839 0.46984 0.96954 0.0
O315 O 0.37325 0.49729 0.09807 0.0
O316 O 0.37217 0.5079 0.20896 0.0
O317 O 0.36736 0.45322 0.03692 0.0
C318 C 0.33015 0.44122 0.19306 0.0
C319 C 0.38096 0.51122 0.14763 0.0
Zn320 Zn 0.54913 0.87374 0.2733 0.0
Zn321 Zn 0.56621 0.90776 0.09014 0.0
C322 C 0.53651 0.82907 0.26976 0.0
O323 O 0.52829 0.82908 0.33268 0.0
C324 C 0.59047 0.94602 0.00958 0.0
O325 O 0.59831 0.93475 0.98195 0.0
O326 O 0.54469 0.87056 0.38124 0.0
O327 O 0.58012 0.89642 0.26251 0.0
O328 O 0.59 0.9127 0.15663 0.0
C329 C 0.55861 0.87032 0.42223 0.0
O330 O 0.57571 0.87153 0.39355 0.0
O331 O 0.54556 0.84615 0.2332 0.0
C332 C 0.55147 0.89235 0.95343 0.0
O333 O 0.5412 0.90226 0.9716 0.0
O334 O 0.56384 0.89121 0.99949 0.0
O335 O 0.53728 0.89719 0.13273 0.0
O336 O 0.52601 0.87915 0.23487 0.0
O337 O 0.57587 0.93762 0.05666 0.0
C338 C 0.59442 0.90932 0.21968 0.0
C339 C 0.52298 0.88786 0.18022 0.0
Zn340 Zn 0.14172 0.68652 0.29455 0.0
Zn341 Zn 0.11874 0.68022 0.11628 0.0
C342 C 0.1851 0.71834 0.27637 0.0
O343 O 0.18691 0.70675 0.32709 0.0
C344 C 0.0793 0.66873 0.04286 0.0
O345 O 0.09185 0.6855 0.0041 0.0
O346 O 0.14702 0.68718 0.40122 0.0
O347 O 0.11476 0.68775 0.28656 0.0
O348 O 0.1223 0.70416 0.18206 0.0
C349 C 0.14598 0.70086 0.44096 0.0
O350 O 0.1419 0.71485 0.41128 0.0
O351 O 0.16677 0.71255 0.25058 0.0
C352 C 0.12961 0.67718 0.97451 0.0
O353 O 0.11806 0.65721 0.99403 0.0
O354 O 0.13321 0.69158 0.02048 0.0
O355 O 0.12685 0.65849 0.14851 0.0
O356 O 0.13967 0.65976 0.25755 0.0
O357 O 0.08711 0.66343 0.09478 0.0
C358 C 0.11245 0.69962 0.24177 0.0
C359 C 0.13378 0.65097 0.19638 0.0
H360 H 0.11449 0.39824 0.30517 0.0
H361 H 0.05125 0.38952 0.28933 0.0
H362 H 0.09945 0.36156 0.34647 0.0
H363 H 0.0363 0.35291 0.33044 0.0
H364 H 0.01822 0.28235 0.32088 0.0
H365 H 0.03338 0.31916 0.2826 0.0
H366 H 0.07925 0.33916 0.45508 0.0
H367 H 0.06405 0.30222 0.49388 0.0
C368 C 0.0974 0.3885 0.31033 0.0
C369 C 0.08406 0.39678 0.29387 0.0
C370 C 0.08881 0.36756 0.33446 0.0
C371 C 0.06671 0.35439 0.34173 0.0
C372 C 0.05338 0.36264 0.32484 0.0
C373 C 0.06197 0.38363 0.30156 0.0
C374 C 0.03152 0.29456 0.35084 0.0
C375 C 0.03994 0.28931 0.41041 0.0
C376 C 0.04013 0.31566 0.32903 0.0
C377 C 0.0575 0.33202 0.3658 0.0
C378 C 0.06597 0.32684 0.42535 0.0
C379 C 0.05719 0.30571 0.44775 0.0
H380 H 0.71994 0.74579 0.50616 0.0
H381 H 0.73947 0.77763 0.30052 0.0
H382 H 0.6836 0.72495 0.46164 0.0
H383 H 0.70321 0.7567 0.25623 0.0
H384 H 0.63092 0.72964 0.22893 0.0
H385 H 0.66717 0.75174 0.27422 0.0
H386 H 0.6643 0.69656 0.37281 0.0
H387 H 0.62823 0.67462 0.32848 0.0
C388 C 0.71653 0.7484 0.45155 0.0
C389 C 0.73271 0.76345 0.40704 0.0
C390 C 0.69571 0.73637 0.42595 0.0
C391 C 0.69054 0.73917 0.35537 0.0
C392 C 0.70663 0.75435 0.31112 0.0
C393 C 0.72746 0.76629 0.33654 0.0
C394 C 0.63807 0.72226 0.26014 0.0
C395 C 0.62667 0.70038 0.27513 0.0
C396 C 0.65884 0.73488 0.28589 0.0
C397 C 0.66855 0.72591 0.32747 0.0
C398 C 0.65716 0.70403 0.34195 0.0
C399 C 0.63651 0.69142 0.316 0.0
H400 H 0.26728 0.98126 0.5231 0.0
H401 H 0.2463 0.98014 0.30454 0.0
H402 H 0.28391 0.96085 0.48589 0.0
H403 H 0.26277 0.95947 0.26771 0.0
H404 H 0.31621 0.94387 0.22015 0.0
H405 H 0.29892 0.964 0.25466 0.0
H406 H 0.27289 0.92452 0.44305 0.0
H407 H 0.29025 0.9045 0.40906 0.0
C408 C 0.26618 0.97667 0.46715 0.0
C409 C 0.25539 0.98233 0.4169 0.0
C410 C 0.2756 0.96483 0.44595 0.0
C411 C 0.27458 0.95848 0.37393 0.0
C412 C 0.26395 0.96427 0.3235 0.0
C413 C 0.2544 0.976 0.34477 0.0
C414 C 0.30673 0.93943 0.26879 0.0
C415 C 0.30465 0.92261 0.31195 0.0
C416 C 0.29675 0.9509 0.28835 0.0
C417 C 0.28461 0.94589 0.35172 0.0
C418 C 0.28236 0.92893 0.39441 0.0
C419 C 0.29221 0.91738 0.37464 0.0
H420 H 0.31175 0.01785 0.66099 0.0
H421 H 0.30672 0.07463 0.6638 0.0
H422 H 0.34858 0.03846 0.70138 0.0
H423 H 0.34363 0.09521 0.70494 0.0
H424 H 0.40348 0.11747 0.8519 0.0
H425 H 0.366 0.09671 0.81708 0.0
H426 H 0.38269 0.06827 0.64369 0.0
H427 H 0.42006 0.08906 0.67767 0.0
C428 C 0.31846 0.0347 0.6706 0.0
C429 C 0.30637 0.04464 0.65897 0.0
C430 C 0.33956 0.04649 0.69343 0.0
C431 C 0.34891 0.06839 0.7061 0.0
C432 C 0.33673 0.0783 0.69594 0.0
C433 C 0.31568 0.06656 0.67202 0.0
C434 C 0.39913 0.10676 0.80645 0.0
C435 C 0.41472 0.10493 0.76744 0.0
C436 C 0.37772 0.09499 0.78639 0.0
C437 C 0.37151 0.08092 0.72779 0.0
C438 C 0.38705 0.07889 0.68943 0.0
C439 C 0.40844 0.09087 0.70872 0.0
H440 H 0.94517 0.34746 0.66751 0.0
H441 H 0.9161 0.29938 0.83234 0.0
H442 H 0.96715 0.33252 0.63098 0.0
H443 H 0.93824 0.2844 0.79536 0.0
H444 H 0.96301 0.25053 0.64202 0.0
H445 H 0.94151 0.26556 0.68492 0.0
H446 H 0.99692 0.32828 0.68123 0.0
H447 H 0.01844 0.31334 0.63835 0.0
C448 C 0.94349 0.33372 0.69611 0.0
C449 C 0.9288 0.32455 0.75271 0.0
C450 C 0.95619 0.32524 0.67537 0.0
C451 C 0.95439 0.3073 0.71027 0.0
C452 C 0.93981 0.29815 0.76712 0.0
C453 C 0.92723 0.30678 0.78848 0.0
C454 C 0.9706 0.26752 0.65033 0.0
C455 C 0.99242 0.28076 0.63657 0.0
C456 C 0.95832 0.27609 0.67541 0.0
C457 C 0.96755 0.29807 0.68644 0.0
C458 C 0.98935 0.31129 0.67268 0.0
C459 C 0.00168 0.30271 0.64835 0.0
H460 H 0.74157 0.72516 0.7827 0.0
H461 H 0.77407 0.71571 0.60413 0.0
H462 H 0.7294 0.68896 0.82352 0.0
H463 H 0.76196 0.67956 0.64535 0.0
H464 H 0.70665 0.61021 0.6771 0.0
H465 H 0.72564 0.64772 0.64685 0.0
H466 H 0.74111 0.66359 0.87108 0.0
H467 H 0.72189 0.62561 0.90168 0.0
C468 C 0.74631 0.71545 0.75258 0.0
C469 C 0.75855 0.72322 0.68959 0.0
C470 C 0.73949 0.69478 0.7764 0.0
C471 C 0.74465 0.68141 0.73744 0.0
C472 C 0.75758 0.68946 0.67606 0.0
C473 C 0.76453 0.71017 0.65253 0.0
C474 C 0.71423 0.62165 0.72002 0.0
C475 C 0.71263 0.61499 0.79185 0.0
C476 C 0.72528 0.64316 0.70255 0.0
C477 C 0.73487 0.6586 0.75656 0.0
C478 C 0.73377 0.652 0.82842 0.0
C479 C 0.7229 0.63032 0.84587 0.0
H480 H 0.00246 0.74944 0.642 0.0
H481 H 0.95484 0.73305 0.47672 0.0
H482 H 0.98539 0.71238 0.67891 0.0
H483 H 0.93763 0.69578 0.51447 0.0
H484 H 0.90207 0.63765 0.67438 0.0
H485 H 0.91826 0.67415 0.62926 0.0
H486 H 0.97943 0.67786 0.62224 0.0
H487 H 0.96341 0.64155 0.66675 0.0
C488 C 0.98834 0.73793 0.61351 0.0
C489 C 0.98 0.74418 0.55639 0.0
C490 C 0.97864 0.71669 0.63449 0.0
C491 C 0.96024 0.70125 0.59943 0.0
C492 C 0.95175 0.70743 0.5426 0.0
C493 C 0.96165 0.72871 0.52084 0.0
C494 C 0.91895 0.64625 0.66289 0.0
C495 C 0.93149 0.63677 0.67439 0.0
C496 C 0.92816 0.66705 0.63671 0.0
C497 C 0.95008 0.67879 0.6226 0.0
C498 C 0.96252 0.66921 0.6333 0.0
C499 C 0.95331 0.64839 0.65852 0.0
H500 H 0.29946 0.28219 0.4885 0.0
H501 H 0.27949 0.25033 0.69395 0.0
H502 H 0.33584 0.30253 0.53299 0.0
H503 H 0.31573 0.27085 0.73844 0.0
H504 H 0.38699 0.29523 0.76676 0.0
H505 H 0.35068 0.27456 0.72186 0.0
H506 H 0.35674 0.33067 0.61944 0.0
H507 H 0.39316 0.35127 0.66321 0.0
C508 C 0.30278 0.27949 0.5431 0.0
C509 C 0.28649 0.26451 0.58747 0.0
C510 C 0.32363 0.29127 0.56874 0.0
C511 C 0.32869 0.28833 0.63931 0.0
C512 C 0.31244 0.2733 0.68351 0.0
C513 C 0.29161 0.26155 0.65796 0.0
C514 C 0.38056 0.30318 0.73486 0.0
C515 C 0.39299 0.32491 0.71856 0.0
C516 C 0.35971 0.29134 0.70934 0.0
C517 C 0.35082 0.30095 0.66689 0.0
C518 C 0.36321 0.32272 0.65109 0.0
C519 C 0.38404 0.33456 0.67667 0.0
H520 H 0.68592 0.07204 0.60598 0.0
H521 H 0.7316 0.10817 0.77184 0.0
H522 H 0.70695 0.05565 0.57269 0.0
H523 H 0.75265 0.09181 0.73819 0.0
H524 H 0.77064 0.03982 0.7087 0.0
H525 H 0.74941 0.05595 0.74192 0.0
H526 H 0.74237 0.06658 0.51749 0.0
H527 H 0.76357 0.05038 0.48391 0.0
C528 C 0.70043 0.07648 0.63538 0.0
C529 C 0.70709 0.09141 0.69158 0.0
C530 C 0.71253 0.06718 0.61598 0.0
C531 C 0.73145 0.07247 0.65278 0.0
C532 C 0.73803 0.08728 0.70929 0.0
C533 C 0.72603 0.09672 0.7283 0.0
C534 C 0.76459 0.04559 0.66633 0.0
C535 C 0.76887 0.04386 0.59359 0.0
C536 C 0.75252 0.05493 0.68547 0.0
C537 C 0.74427 0.06256 0.63233 0.0
C538 C 0.74838 0.06068 0.55959 0.0
C539 C 0.76063 0.05151 0.54042 0.0
H540 H 0.62927 0.93777 0.14284 0.0
H541 H 0.61049 0.90896 0.35332 0.0
H542 H 0.66572 0.95913 0.18473 0.0
H543 H 0.64701 0.93062 0.39535 0.0
H544 H 0.71953 0.9585 0.42087 0.0
H545 H 0.68292 0.93583 0.38035 0.0
H546 H 0.68575 0.98889 0.26588 0.0
H547 H 0.72232 0.01142 0.3053 0.0
C548 C 0.63287 0.93592 0.19807 0.0
C549 C 0.61684 0.92158 0.24467 0.0
C550 C 0.65379 0.94831 0.22219 0.0
C551 C 0.65927 0.94671 0.29354 0.0
C552 C 0.64336 0.93211 0.33988 0.0
C553 C 0.62238 0.91972 0.31578 0.0
C554 C 0.71231 0.96534 0.38719 0.0
C555 C 0.7239 0.98677 0.36613 0.0
C556 C 0.6913 0.95236 0.36423 0.0
C557 C 0.68144 0.96051 0.31953 0.0
C558 C 0.69297 0.982 0.29926 0.0
C559 C 0.71392 0.99497 0.32229 0.0
H560 H 0.06214 0.78316 0.34196 0.0
H561 H 0.00889 0.71975 0.37105 0.0
H562 H 0.08453 0.76825 0.30792 0.0
H563 H 0.03132 0.70493 0.33726 0.0
H564 H 0.08537 0.68915 0.35592 0.0
H565 H 0.0632 0.70426 0.38878 0.0
H566 H 0.08672 0.74612 0.20515 0.0
H567 H 0.10893 0.73094 0.17172 0.0
C568 C 0.05524 0.76606 0.34134 0.0
C569 C 0.03374 0.75263 0.35926 0.0
C570 C 0.06802 0.75754 0.32136 0.0
C571 C 0.05966 0.73544 0.31987 0.0
C572 C 0.03823 0.72203 0.33843 0.0
C573 C 0.02538 0.73053 0.35749 0.0
C574 C 0.08584 0.70157 0.32241 0.0
C575 C 0.09895 0.70884 0.26116 0.0
C576 C 0.07306 0.71014 0.34113 0.0
C577 C 0.07324 0.72636 0.29954 0.0
C578 C 0.08641 0.73375 0.23852 0.0
C579 C 0.09903 0.72498 0.21922 0.0
H580 H 0.31039 0.40644 0.1052 0.0
H581 H 0.32348 0.42477 0.32889 0.0
H582 H 0.29183 0.36904 0.14054 0.0
H583 H 0.30497 0.38744 0.36388 0.0
H584 H 0.25225 0.31865 0.40204 0.0
H585 H 0.26796 0.35556 0.3626 0.0
H586 H 0.30248 0.34407 0.19617 0.0
H587 H 0.28684 0.30724 0.23536 0.0
C588 C 0.30921 0.4025 0.16185 0.0
C589 C 0.31845 0.41857 0.21421 0.0
C590 C 0.29869 0.3811 0.18201 0.0
C591 C 0.29695 0.37535 0.25495 0.0
C592 C 0.30588 0.39141 0.30732 0.0
C593 C 0.31661 0.41278 0.28717 0.0
C594 C 0.26307 0.32396 0.35673 0.0
C595 C 0.26838 0.31006 0.32203 0.0
C596 C 0.27214 0.34511 0.33442 0.0
C597 C 0.28648 0.35268 0.27645 0.0
C598 C 0.29135 0.33863 0.24062 0.0
C599 C 0.28248 0.31757 0.26339 0.0
H600 H 0.97391 0.34708 0.96743 0.0
H601 H 0.96497 0.40143 0.98269 0.0
H602 H 0.01063 0.36894 0.00764 0.0
H603 H 0.00176 0.42327 0.02312 0.0
H604 H 0.06227 0.44835 0.16536 0.0
H605 H 0.02497 0.42594 0.13071 0.0
H606 H 0.0439 0.39982 0.95607 0.0
H607 H 0.08104 0.42212 0.9902 0.0
C608 C 0.97976 0.36368 0.9795 0.0
C609 C 0.96655 0.37254 0.97168 0.0
C610 C 0.00081 0.37619 0.00227 0.0
C611 C 0.00903 0.39779 0.01851 0.0
C612 C 0.99577 0.40662 0.01157 0.0
C613 C 0.97477 0.39415 0.98794 0.0
C614 C 0.05846 0.43778 0.11973 0.0
C615 C 0.07463 0.43708 0.0804 0.0
C616 C 0.03713 0.42504 0.09972 0.0
C617 C 0.03156 0.41116 0.04069 0.0
C618 C 0.0477 0.41024 0.00215 0.0
C619 C 0.06899 0.42311 0.02153 0.0
H620 H 0.6207 0.56673 0.9631 0.0
H621 H 0.67738 0.62529 0.02066 0.0
H622 H 0.59895 0.58268 0.99534 0.0
H623 H 0.65578 0.64099 0.05246 0.0
H624 H 0.61381 0.6696 0.00448 0.0
H625 H 0.63328 0.65135 0.9777 0.0
H626 H 0.58965 0.5983 0.10873 0.0
H627 H 0.56988 0.61674 0.13626 0.0
C628 C 0.62849 0.58294 0.98261 0.0
C629 C 0.65076 0.59479 0.98888 0.0
C630 C 0.61605 0.59198 0.00154 0.0
C631 C 0.62571 0.61308 0.02609 0.0
C632 C 0.64792 0.62476 0.03303 0.0
C633 C 0.66028 0.61572 0.01491 0.0
C634 C 0.60825 0.65404 0.02774 0.0
C635 C 0.59029 0.64465 0.07273 0.0
C636 C 0.6195 0.64363 0.01252 0.0
C637 C 0.61303 0.62347 0.04138 0.0
C638 C 0.5949 0.61382 0.08557 0.0
C639 C 0.58369 0.6244 0.10161 0.0
H640 H 0.45183 0.06007 0.98012 0.0
H641 H 0.38927 0.05281 0.96 0.0
H642 H 0.43579 0.02283 0.01623 0.0
H643 H 0.37332 0.01567 0.99595 0.0
H644 H 0.3534 0.94489 0.98115 0.0
H645 H 0.36994 0.98205 0.94552 0.0
H646 H 0.41447 0.99952 0.12134 0.0
H647 H 0.39788 0.96222 0.15745 0.0
C648 C 0.43468 0.05053 0.98315 0.0
C649 C 0.42182 0.0594 0.96713 0.0
C650 C 0.42551 0.02925 0.00432 0.0
C651 C 0.40331 0.01634 0.00897 0.0
C652 C 0.39047 0.02517 0.9923 0.0
C653 C 0.39962 0.04648 0.972 0.0
C654 C 0.36672 0.95661 0.01235 0.0
C655 C 0.3743 0.95055 0.07226 0.0
C656 C 0.37612 0.97793 0.99205 0.0
C657 C 0.39348 0.99369 0.03066 0.0
C658 C 0.40121 0.98768 0.09023 0.0
C659 C 0.39163 0.96634 0.11111 0.0
H660 H 0.64285 0.07034 0.80377 0.0
H661 H 0.6608 0.08263 0.02793 0.0
H662 H 0.62341 0.03216 0.82819 0.0
H663 H 0.6413 0.04452 0.05213 0.0
H664 H 0.58548 0.97644 0.07879 0.0
H665 H 0.6027 0.01429 0.05041 0.0
H666 H 0.63338 0.00452 0.86727 0.0
H667 H 0.61629 0.9667 0.89564 0.0
C668 C 0.64257 0.06489 0.85823 0.0
C669 C 0.65335 0.07947 0.91393 0.0
C670 C 0.63153 0.04307 0.87208 0.0
C671 C 0.63081 0.03543 0.94207 0.0
C672 C 0.64142 0.05 0.99784 0.0
C673 C 0.65271 0.07179 0.98384 0.0
C674 C 0.59575 0.98233 0.03213 0.0
C675 C 0.5996 0.96861 0.98961 0.0
C676 C 0.60569 0.004 0.01619 0.0
C677 C 0.61943 0.01231 0.95686 0.0
C678 C 0.62277 0.9985 0.91308 0.0
C679 C 0.61306 0.97689 0.92955 0.0
H680 H 0.0463 0.6422 0.13031 0.0
H681 H 0.06096 0.66603 0.91287 0.0
H682 H 0.0087 0.6215 0.09908 0.0
H683 H 0.02376 0.64447 0.88006 0.0
H684 H 0.95371 0.61978 0.85377 0.0
H685 H 0.99068 0.64121 0.88974 0.0
H686 H 0.98284 0.59198 0.03835 0.0
H687 H 0.94548 0.57118 0.00505 0.0
C688 C 0.04147 0.64282 0.07562 0.0
C689 C 0.05653 0.65581 0.02415 0.0
C690 C 0.01991 0.63083 0.05741 0.0
C691 C 0.01297 0.63123 0.98687 0.0
C692 C 0.02824 0.64407 0.93534 0.0
C693 C 0.04968 0.65636 0.95396 0.0
C694 C 0.95991 0.61357 0.89422 0.0
C695 C 0.94668 0.59379 0.92659 0.0
C696 C 0.98121 0.6258 0.91462 0.0
C697 C 0.99001 0.61838 0.96683 0.0
C698 C 0.97668 0.5985 0.999 0.0
C699 C 0.95524 0.58645 0.97961 0.0
H700 H 0.40372 0.43937 0.16135 0.0
H701 H 0.37863 0.43427 0.94678 0.0
H702 H 0.42103 0.41965 0.12297 0.0
H703 H 0.39561 0.41422 0.90885 0.0
H704 H 0.44642 0.39701 0.84894 0.0
H705 H 0.43042 0.41808 0.8864 0.0
H706 H 0.4114 0.38378 0.08757 0.0
H707 H 0.42769 0.36305 0.05094 0.0
C708 C 0.40188 0.43404 0.10602 0.0
C709 C 0.38976 0.43839 0.05721 0.0
C710 C 0.41171 0.42262 0.08411 0.0
C711 C 0.40967 0.41529 0.01286 0.0
C712 C 0.39772 0.41984 0.96388 0.0
C713 C 0.38787 0.43123 0.9858 0.0
C714 C 0.43886 0.394 0.90123 0.0
C715 C 0.43839 0.37836 0.94695 0.0
C716 C 0.42959 0.406 0.92253 0.0
C717 C 0.41966 0.40266 0.99008 0.0
C718 C 0.41918 0.387 0.03567 0.0
C719 C 0.42841 0.375 0.01437 0.0
H720 H 0.05788 0.18304 0.48567 0.0
H721 H 0.08577 0.25056 0.45067 0.0
H722 H 0.09301 0.18803 0.51159 0.0
H723 H 0.12083 0.25554 0.47753 0.0
H724 H 0.18028 0.25025 0.42822 0.0
H725 H 0.14531 0.2467 0.41636 0.0
H726 H 0.1229 0.20376 0.59748 0.0
H727 H 0.15793 0.20706 0.60906 0.0
C728 C 0.07145 0.19897 0.48433 0.0
C729 C 0.06902 0.21637 0.46547 0.0
C730 C 0.09159 0.20185 0.49959 0.0
C731 C 0.10974 0.22216 0.49612 0.0
C732 C 0.1072 0.23964 0.47958 0.0
C733 C 0.08708 0.23679 0.46457 0.0
C734 C 0.16798 0.24012 0.46587 0.0
C735 C 0.17196 0.22888 0.51948 0.0
C736 C 0.14793 0.23821 0.45933 0.0
C737 C 0.13132 0.22497 0.50602 0.0
C738 C 0.13533 0.21393 0.56025 0.0
C739 C 0.15544 0.21592 0.56707 0.0
H740 H 0.78741 0.95698 0.42824 0.0
H741 H 0.82797 0.97306 0.61546 0.0
H742 H 0.79051 0.92551 0.40928 0.0
H743 H 0.83095 0.94137 0.59634 0.0
H744 H 0.84925 0.89565 0.4787 0.0
H745 H 0.84661 0.92722 0.50523 0.0
H746 H 0.77875 0.89101 0.47139 0.0
H747 H 0.7813 0.8596 0.44468 0.0
C748 C 0.79697 0.95382 0.46543 0.0
C749 C 0.8074 0.96755 0.52348 0.0
C750 C 0.79865 0.9357 0.45475 0.0
C751 C 0.8109 0.93094 0.50152 0.0
C752 C 0.8215 0.94472 0.55921 0.0
C753 C 0.81968 0.96279 0.57032 0.0
C754 C 0.83376 0.89441 0.47744 0.0
C755 C 0.81552 0.87514 0.45914 0.0
C756 C 0.83224 0.91245 0.4929 0.0
C757 C 0.81249 0.9116 0.48976 0.0
C758 C 0.79422 0.89222 0.47316 0.0
C759 C 0.7957 0.87419 0.45826 0.0
H760 H 0.05525 0.85543 0.36329 0.0
H761 H 0.05902 0.86947 0.59075 0.0
H762 H 0.0859 0.8905 0.3416 0.0
H763 H 0.08957 0.90458 0.56868 0.0
H764 H 0.15942 0.9527 0.50414 0.0
H765 H 0.12721 0.91912 0.5298 0.0
H766 H 0.09613 0.92879 0.34751 0.0
H767 H 0.12835 0.96233 0.32142 0.0
C768 C 0.06255 0.86599 0.40862 0.0
C769 C 0.05472 0.85958 0.47879 0.0
C770 C 0.08002 0.88614 0.39609 0.0
C771 C 0.09012 0.90027 0.45347 0.0
C772 C 0.08222 0.89395 0.52352 0.0
C773 C 0.06465 0.87386 0.53602 0.0
C774 C 0.14566 0.94777 0.4699 0.0
C775 C 0.14647 0.96014 0.41056 0.0
C776 C 0.12719 0.92858 0.4848 0.0
C777 C 0.1092 0.92129 0.44039 0.0
C778 C 0.10984 0.9339 0.3821 0.0
C779 C 0.12826 0.95317 0.36751 0.0
H780 H 0.19324 0.13363 0.67408 0.0
H781 H 0.22331 0.16594 0.47622 0.0
H782 H 0.19823 0.10406 0.63984 0.0
H783 H 0.22817 0.13609 0.44189 0.0
H784 H 0.21141 0.06572 0.38695 0.0
H785 H 0.20596 0.09576 0.41207 0.0
H786 H 0.2315 0.10099 0.62563 0.0
H787 H 0.23712 0.07133 0.60095 0.0
C788 C 0.20072 0.13435 0.62293 0.0
C789 C 0.20799 0.15221 0.57808 0.0
C790 C 0.20368 0.11745 0.60357 0.0
C791 C 0.21376 0.1179 0.53857 0.0
C792 C 0.22031 0.13535 0.49225 0.0
C793 C 0.21758 0.15242 0.51205 0.0
C794 C 0.21602 0.0734 0.43904 0.0
C795 C 0.22459 0.06599 0.49205 0.0
C796 C 0.21293 0.0906 0.45328 0.0
C797 C 0.21808 0.1005 0.52106 0.0
C798 C 0.22708 0.09343 0.57329 0.0
C799 C 0.2304 0.07648 0.55887 0.0
H800 H 0.86075 0.08186 0.49821 0.0
H801 H 0.89683 0.07381 0.6679 0.0
H802 H 0.89204 0.11571 0.46547 0.0
H803 H 0.92787 0.10751 0.63529 0.0
H804 H 0.9683 0.18029 0.61393 0.0
H805 H 0.93736 0.14596 0.64141 0.0
H806 H 0.92958 0.1298 0.41565 0.0
H807 H 0.96071 0.16417 0.38773 0.0
C808 C 0.87534 0.08725 0.52827 0.0
C809 C 0.87628 0.07517 0.58576 0.0
C810 C 0.89326 0.10657 0.50933 0.0
C811 C 0.91234 0.11428 0.54811 0.0
C812 C 0.91331 0.10208 0.60498 0.0
C813 C 0.89553 0.08271 0.62335 0.0
C814 C 0.9601 0.16944 0.57003 0.0
C815 C 0.96711 0.17499 0.49862 0.0
C816 C 0.9424 0.14973 0.58588 0.0
C817 C 0.9311 0.1352 0.53068 0.0
C818 C 0.93792 0.14076 0.4592 0.0
C819 C 0.95582 0.1604 0.44336 0.0
H820 H 0.95105 0.83714 0.63497 0.0
H821 H 0.94452 0.7957 0.45792 0.0
H822 H 0.9163 0.83271 0.60708 0.0
H823 H 0.90962 0.79155 0.42951 0.0
H824 H 0.85809 0.81186 0.37143 0.0
H825 H 0.89348 0.81617 0.39012 0.0
H826 H 0.87841 0.7992 0.61356 0.0
H827 H 0.84318 0.79457 0.59523 0.0
C828 C 0.9423 0.82725 0.58964 0.0
C829 C 0.95049 0.81668 0.54885 0.0
C830 C 0.92236 0.82466 0.57393 0.0
C831 C 0.91029 0.81171 0.51646 0.0
C832 C 0.9187 0.80167 0.47399 0.0
C833 C 0.93858 0.80399 0.49045 0.0
C834 C 0.86231 0.80895 0.42443 0.0
C835 C 0.84781 0.80295 0.48191 0.0
C836 C 0.8825 0.81134 0.43494 0.0
C837 C 0.88864 0.80814 0.50334 0.0
C838 C 0.87411 0.80195 0.56045 0.0
C839 C 0.85389 0.79923 0.54977 0.0
H840 H 0.83492 0.56344 0.7458 0.0
H841 H 0.82036 0.54361 0.9678 0.0
H842 H 0.79892 0.5567 0.72826 0.0
H843 H 0.78409 0.53707 0.94983 0.0
H844 H 0.73057 0.55467 0.887 0.0
H845 H 0.76551 0.55925 0.91666 0.0
H846 H 0.7622 0.52275 0.72895 0.0
H847 H 0.72739 0.51798 0.69948 0.0
C848 C 0.82411 0.55778 0.79112 0.0
C849 C 0.83057 0.55401 0.85823 0.0
C850 C 0.80341 0.55379 0.7808 0.0
C851 C 0.78868 0.54617 0.83747 0.0
C852 C 0.79517 0.54294 0.90526 0.0
C853 C 0.81589 0.54664 0.91541 0.0
C854 C 0.73718 0.54738 0.85263 0.0
C855 C 0.72627 0.5361 0.79054 0.0
C856 C 0.75713 0.54996 0.86979 0.0
C857 C 0.76661 0.54155 0.82464 0.0
C858 C 0.75535 0.52962 0.76417 0.0
C859 C 0.73536 0.52682 0.74755 0.0
H860 H 0.46943 0.29918 0.74875 0.0
H861 H 0.47229 0.28804 0.97591 0.0
H862 H 0.47405 0.26902 0.72056 0.0
H863 H 0.47701 0.25782 0.9473 0.0
H864 H 0.4616 0.19143 0.85805 0.0
H865 H 0.45663 0.22127 0.89106 0.0
H866 H 0.50319 0.26046 0.73222 0.0
H867 H 0.50815 0.23082 0.69914 0.0
C868 C 0.47097 0.29028 0.79273 0.0
C869 C 0.4705 0.29607 0.86462 0.0
C870 C 0.47375 0.27306 0.7765 0.0
C871 C 0.47598 0.26112 0.83172 0.0
C872 C 0.4752 0.26666 0.90365 0.0
C873 C 0.47261 0.28403 0.91994 0.0
C874 C 0.47083 0.20645 0.83045 0.0
C875 C 0.48523 0.20873 0.77583 0.0
C876 C 0.46804 0.22354 0.84954 0.0
C877 C 0.47942 0.24315 0.81388 0.0
C878 C 0.49398 0.24546 0.75997 0.0
C879 C 0.49691 0.22849 0.74137 0.0
H880 H 0.72803 0.19373 0.73281 0.0
H881 H 0.74311 0.2019 0.9597 0.0
H882 H 0.75903 0.22823 0.7083 0.0
H883 H 0.77421 0.23665 0.93489 0.0
H884 H 0.84105 0.28498 0.83776 0.0
H885 H 0.80965 0.2512 0.86989 0.0
H886 H 0.77091 0.26638 0.73371 0.0
H887 H 0.80211 0.3 0.70151 0.0
C888 C 0.73797 0.20285 0.77748 0.0
C889 C 0.73313 0.19499 0.84817 0.0
C890 C 0.75565 0.22271 0.76346 0.0
C891 C 0.76901 0.23514 0.8197 0.0
C892 C 0.76425 0.22733 0.89046 0.0
C893 C 0.74639 0.20751 0.90464 0.0
C894 C 0.8258 0.28114 0.81504 0.0
C895 C 0.82409 0.29512 0.76679 0.0
C896 C 0.80783 0.26187 0.83372 0.0
C897 C 0.78787 0.25612 0.80394 0.0
C898 C 0.78613 0.27028 0.7568 0.0
C899 C 0.80401 0.28959 0.73866 0.0
H900 H 0.88817 0.49708 0.83027 0.0
H901 H 0.84516 0.46007 1.00114 0.0
H902 H 0.89227 0.46683 0.79731 0.0
H903 H 0.84915 0.42981 0.96765 0.0
H904 H 0.88515 0.39285 0.94839 0.0
H905 H 0.87845 0.42173 0.975 0.0
H906 H 0.87239 0.43009 0.74787 0.0
H907 H 0.87929 0.40122 0.7209 0.0
C908 C 0.87941 0.48243 0.86029 0.0
C909 C 0.86644 0.48103 0.91863 0.0
C910 C 0.88169 0.46508 0.84117 0.0
C911 C 0.87115 0.44601 0.88023 0.0
C912 C 0.85771 0.44441 0.93722 0.0
C913 C 0.85533 0.46171 0.95608 0.0
C914 C 0.88241 0.40079 0.90403 0.0
C915 C 0.88284 0.3947 0.83252 0.0
C916 C 0.87839 0.41726 0.91935 0.0
C917 C 0.87482 0.42813 0.86353 0.0
C918 C 0.87524 0.4221 0.79198 0.0
C919 C 0.87911 0.4055 0.77664 0.0
H920 H 0.52605 0.4003 0.8397 0.0
H921 H 0.55158 0.40555 0.05335 0.0
H922 H 0.55826 0.43282 0.80457 0.0
H923 H 0.58305 0.43854 0.02027 0.0
H924 H 0.64557 0.48837 0.93126 0.0
H925 H 0.61454 0.45399 0.9569 0.0
H926 H 0.57659 0.46949 0.81701 0.0
H927 H 0.60797 0.50324 0.78826 0.0
C928 C 0.5385 0.40852 0.87924 0.0
C929 C 0.53635 0.40035 0.9491 0.0
C930 C 0.55693 0.42726 0.85938 0.0
C931 C 0.57344 0.43846 0.90943 0.0
C932 C 0.57106 0.43022 0.97949 0.0
C933 C 0.55287 0.41132 0.99878 0.0
C934 C 0.63061 0.48431 0.90565 0.0
C935 C 0.6292 0.4985 0.8578 0.0
C936 C 0.61271 0.46465 0.92074 0.0
C937 C 0.59284 0.45887 0.88963 0.0
C938 C 0.59159 0.47308 0.84117 0.0
C939 C 0.60958 0.49256 0.82498 0.0
H940 H 0.64425 0.18983 0.86995 0.0
H941 H 0.61443 0.1224 0.91098 0.0
H942 H 0.6093 0.18606 0.8488 0.0
H943 H 0.57963 0.11871 0.88971 0.0
H944 H 0.52147 0.12625 0.93569 0.0
H945 H 0.55663 0.13035 0.95269 0.0
H946 H 0.57889 0.16888 0.7609 0.0
H947 H 0.54376 0.16489 0.74372 0.0
C948 C 0.63028 0.17421 0.87399 0.0
C949 C 0.63212 0.15644 0.89234 0.0
C950 C 0.61029 0.17205 0.86165 0.0
C951 C 0.59175 0.15211 0.8681 0.0
C952 C 0.59363 0.13432 0.88533 0.0
C953 C 0.61359 0.13643 0.897 0.0
C954 C 0.53384 0.13563 0.89716 0.0
C955 C 0.52976 0.14521 0.83827 0.0
C956 C 0.55395 0.13787 0.9067 0.0
C957 C 0.57047 0.14988 0.85797 0.0
C958 C 0.56649 0.15965 0.79956 0.0
C959 C 0.54633 0.15726 0.78959 0.0
H960 H 0.49033 0.87635 0.27743 0.0
H961 H 0.50801 0.89574 0.0565 0.0
H962 H 0.45528 0.87258 0.25449 0.0
H963 H 0.47322 0.89167 0.034 0.0
H964 H 0.40117 0.85472 1.00021 0.0
H965 H 0.43525 0.85833 0.03376 0.0
H966 H 0.43968 0.89778 0.21398 0.0
H967 H 0.40546 0.89445 0.1799 0.0
C968 C 0.48681 0.87985 0.22422 0.0
C969 C 0.502 0.88628 0.16877 0.0
C970 C 0.46681 0.87777 0.21126 0.0
C971 C 0.46155 0.88169 0.14236 0.0
C972 C 0.47679 0.88834 0.08741 0.0
C973 C 0.49679 0.89075 0.10054 0.0
C974 C 0.40927 0.86406 0.04732 0.0
C975 C 0.40065 0.8744 0.08714 0.0
C976 C 0.42882 0.86617 0.06632 0.0
C977 C 0.44011 0.87841 0.12619 0.0
C978 C 0.43123 0.88819 0.16771 0.0
C979 C 0.41174 0.88636 0.14798 0.0
H980 H 0.13983 0.62528 0.29018 0.0
H981 H 0.13131 0.6333 0.06446 0.0
H982 H 0.14325 0.59427 0.26103 0.0
H983 H 0.13473 0.60247 0.03576 0.0
H984 H 0.16847 0.56402 0.00676 0.0
H985 H 0.16452 0.59418 0.04125 0.0
H986 H 0.12068 0.55665 0.20908 0.0
H987 H 0.12454 0.52622 0.1744 0.0
C988 C 0.13863 0.62043 0.23445 0.0
C989 C 0.13531 0.63181 0.17964 0.0
C990 C 0.14048 0.60261 0.21789 0.0
C991 C 0.13935 0.59602 0.14612 0.0
C992 C 0.13589 0.60731 0.0915 0.0
C993 C 0.13379 0.62491 0.10806 0.0
C994 C 0.15804 0.56216 0.05124 0.0
C995 C 0.14676 0.54268 0.08769 0.0
C996 C 0.15569 0.57943 0.07069 0.0
C997 C 0.1422 0.57773 0.12755 0.0
C998 C 0.13126 0.55842 0.16521 0.0
C999 C 0.13341 0.541 0.14516 0.0
H1000 H 0.47629 0.63173 0.96702 0.0
H1001 H 0.50757 0.62323 0.15139 0.0
H1002 H 0.44397 0.59856 0.99574 0.0
H1003 H 0.47512 0.59001 0.18007 0.0
H1004 H 0.40489 0.54302 0.2436 0.0
H1005 H 0.43697 0.57693 0.21912 0.0
H1006 H 0.43354 0.5598 0.99508 0.0
H1007 H 0.40164 0.5259 0.01918 0.0
C1008 C 0.47624 0.62288 0.01396 0.0
C1009 C 0.49452 0.63008 0.0568 0.0
C1010 C 0.45776 0.60382 0.0301 0.0
C1011 C 0.45707 0.59166 0.08989 0.0
C1012 C 0.47516 0.59912 0.13387 0.0
C1013 C 0.49375 0.61808 0.11725 0.0
C1014 C 0.41097 0.54646 0.18909 0.0
C1015 C 0.40059 0.53173 0.1333 0.0
C1016 C 0.42939 0.56585 0.17522 0.0
C1017 C 0.43768 0.57103 0.10516 0.0
C1018 C 0.42735 0.55634 0.04945 0.0
C1019 C 0.4091 0.53687 0.0634 0.0
H1020 H 0.52468 0.70395 0.22109 0.0
H1021 H 0.57353 0.74457 0.07076 0.0
H1022 H 0.51822 0.7329 0.2503 0.0
H1023 H 0.56798 0.77387 0.10258 0.0
H1024 H 0.54413 0.81983 0.13383 0.0
H1025 H 0.54617 0.78881 0.09532 0.0
H1026 H 0.53305 0.76471 0.31325 0.0
H1027 H 0.5299 0.79502 0.3503 0.0
C1028 C 0.5341 0.71911 0.1945 0.0
C1029 C 0.54962 0.72197 0.14367 0.0
C1030 C 0.53052 0.73581 0.21159 0.0
C1031 C 0.54265 0.75591 0.17927 0.0
C1032 C 0.55802 0.75861 0.12777 0.0
C1033 C 0.56134 0.74181 0.10981 0.0
C1034 C 0.54149 0.80776 0.17319 0.0
C1035 C 0.53685 0.80987 0.24505 0.0
C1036 C 0.54282 0.79003 0.15132 0.0
C1037 C 0.53989 0.77416 0.20111 0.0
C1038 C 0.535 0.77627 0.27285 0.0
C1039 C 0.53333 0.79379 0.29435 0.0
H1040 H 0.29654 0.84372 0.27624 0.0
H1041 H 0.28903 0.82588 0.05161 0.0
H1042 H 0.26509 0.80995 0.30546 0.0
H1043 H 0.25743 0.79205 0.08126 0.0
H1044 H 0.18868 0.74426 0.16319 0.0
H1045 H 0.21988 0.77807 0.12927 0.0
H1046 H 0.25535 0.77158 0.3042 0.0
H1047 H 0.22441 0.73797 0.33797 0.0
C1048 C 0.28821 0.83263 0.23303 0.0
C1049 C 0.29544 0.83752 0.16157 0.0
C1050 C 0.27021 0.81323 0.24988 0.0
C1051 C 0.25884 0.79832 0.19568 0.0
C1052 C 0.2658 0.80329 0.12408 0.0
C1053 C 0.28398 0.82262 0.10725 0.0
C1054 C 0.20316 0.75003 0.19417 0.0
C1055 C 0.20403 0.73843 0.25335 0.0
C1056 C 0.22103 0.76933 0.17459 0.0
C1057 C 0.24001 0.77752 0.21437 0.0
C1058 C 0.24088 0.76582 0.27307 0.0
C1059 C 0.22316 0.74647 0.2921 0.0
H1060 H 0.29482 0.51565 0.30363 0.0
H1061 H 0.2864 0.47317 0.12787 0.0
H1062 H 0.25978 0.51111 0.27974 0.0
H1063 H 0.25126 0.46871 0.10396 0.0
H1064 H 0.19941 0.48557 0.04189 0.0
H1065 H 0.23484 0.4906 0.0623 0.0
H1066 H 0.22191 0.48088 0.29004 0.0
H1067 H 0.18644 0.47572 0.26998 0.0
C1068 C 0.28557 0.50546 0.25953 0.0
C1069 C 0.2934 0.49475 0.21768 0.0
C1070 C 0.26543 0.50275 0.24624 0.0
C1071 C 0.25275 0.48946 0.1903 0.0
C1072 C 0.26075 0.47913 0.14724 0.0
C1073 C 0.28083 0.48165 0.16107 0.0
C1074 C 0.20408 0.4845 0.09638 0.0
C1075 C 0.19006 0.48032 0.15436 0.0
C1076 C 0.22435 0.48728 0.10792 0.0
C1077 C 0.23114 0.4862 0.17773 0.0
C1078 C 0.21717 0.48203 0.23571 0.0
C1079 C 0.19681 0.479 0.22413 0.0
H1080 H 0.0673 0.2586 0.13923 0.0
H1081 H 0.00413 0.2039 0.15002 0.0
H1082 H 0.06667 0.2556 0.00845 0.0
H1083 H 0.00327 0.20121 0.0193 0.0
H1084 H 0.01291 0.19071 0.78722 0.0
H1085 H 0.01782 0.19267 0.91726 0.0
H1086 H 0.04967 0.26117 0.90651 0.0
H1087 H 0.04523 0.25921 0.77624 0.0
C1088 C 0.05327 0.24591 0.11376 0.0
C1089 C 0.03574 0.23152 0.15525 0.0
C1090 C 0.05287 0.24426 0.03863 0.0
C1091 C 0.03491 0.22819 0.00302 0.0
C1092 C 0.01752 0.2136 0.04473 0.0
C1093 C 0.01794 0.21523 0.11984 0.0
C1094 C 0.02124 0.20621 0.81242 0.0
C1095 C 0.02858 0.2248 0.77118 0.0
C1096 C 0.0239 0.20733 0.88719 0.0
C1097 C 0.03391 0.22706 0.92275 0.0
C1098 C 0.04204 0.24569 0.88108 0.0
C1099 C 0.03945 0.24457 0.80622 0.0
H1100 H 0.75921 0.80725 0.12888 0.0
H1101 H 0.82651 0.83124 0.15458 0.0
H1102 H 0.76284 0.80602 0.99905 0.0
H1103 H 0.83043 0.83103 0.02444 0.0
H1104 H 0.82432 0.79915 0.80736 0.0
H1105 H 0.82277 0.80622 0.93359 0.0
H1106 H 0.77518 0.82376 0.88801 0.0
H1107 H 0.77608 0.81564 0.76069 0.0
C1108 C 0.77487 0.81263 0.10666 0.0
C1109 C 0.79254 0.81912 0.15214 0.0
C1110 C 0.777 0.81208 0.03194 0.0
C1111 C 0.79692 0.81826 1.00068 0.0
C1112 C 0.81474 0.82565 0.04632 0.0
C1113 C 0.81254 0.8259 0.12108 0.0
C1114 C 0.81364 0.80472 0.82383 0.0
C1115 C 0.80022 0.80669 0.77371 0.0
C1116 C 0.81287 0.80896 0.89665 0.0
C1117 C 0.79883 0.81557 0.92171 0.0
C1118 C 0.78595 0.81836 0.87108 0.0
C1119 C 0.78658 0.81389 0.79791 0.0
H1120 H 0.21449 0.97103 0.13442 0.0
H1121 H 0.19846 0.02044 0.15941 0.0
H1122 H 0.21674 0.97626 0.0046 0.0
H1123 H 0.19978 0.02508 0.02937 0.0
H1124 H 0.2347 0.04859 0.81545 0.0
H1125 H 0.22641 0.04009 0.9413 0.0
H1126 H 0.19932 0.9733 0.89302 0.0
H1127 H 0.20851 0.98202 0.76611 0.0
C1128 C 0.21108 0.98276 0.11203 0.0
C1129 C 0.20657 0.99552 0.1572 0.0
C1130 C 0.21221 0.98566 0.03742 0.0
C1131 C 0.20863 0.00123 0.00622 0.0
C1132 C 0.20313 0.01328 0.05147 0.0
C1133 C 0.20228 0.01057 0.12607 0.0
C1134 C 0.22679 0.03204 0.83127 0.0
C1135 C 0.22239 0.01599 0.78064 0.0
C1136 C 0.22186 0.02713 0.90375 0.0
C1137 C 0.21216 0.00598 0.92775 0.0
C1138 C 0.20707 0.9898 0.87668 0.0
C1139 C 0.21218 0.99476 0.80385 0.0
H1140 H 0.96723 0.76507 0.83607 0.0
H1141 H 0.01081 0.83241 0.81276 0.0
H1142 H 0.97115 0.76863 0.96649 0.0
H1143 H 0.01428 0.83605 0.94302 0.0
H1144 H 0.03914 0.82729 0.15999 0.0
H1145 H 0.03136 0.82581 0.03252 0.0
H1146 H 0.96473 0.78321 0.07569 0.0
H1147 H 0.97263 0.7843 0.20412 0.0
C1148 C 0.97738 0.78068 0.85881 0.0
C1149 C 0.98892 0.79841 0.81406 0.0
C1150 C 0.97952 0.78275 0.93361 0.0
C1151 C 0.99318 0.8026 0.96516 0.0
C1152 C 0.00395 0.82046 0.92038 0.0
C1153 C 0.0019 0.81839 0.8457 0.0
C1154 C 0.02278 0.81772 0.14259 0.0
C1155 C 0.00652 0.80582 0.1922 0.0
C1156 C 0.01829 0.81701 0.06937 0.0
C1157 C 0.99741 0.80441 0.04382 0.0
C1158 C 0.98101 0.79289 0.09361 0.0
C1159 C 0.98552 0.79362 0.16716 0.0
H1160 H 0.24145 0.21511 0.23482 0.0
H1161 H 0.1979 0.23745 0.18417 0.0
H1162 H 0.24194 0.20636 0.10794 0.0
H1163 H 0.19903 0.22962 0.05825 0.0
H1164 H 0.19277 0.20183 0.83945 0.0
H1165 H 0.18915 0.2036 0.96925 0.0
H1166 H 0.25563 0.22337 0.99607 0.0
H1167 H 0.25894 0.22067 0.86668 0.0
C1168 C 0.2319 0.21804 0.1968 0.0
C1169 C 0.21967 0.22701 0.21982 0.0
C1170 C 0.2323 0.21319 0.12387 0.0
C1171 C 0.22057 0.21731 0.07227 0.0
C1172 C 0.20799 0.22582 0.09604 0.0
C1173 C 0.20747 0.23049 0.16864 0.0
C1174 C 0.20655 0.20636 0.87318 0.0
C1175 C 0.22616 0.21124 0.84258 0.0
C1176 C 0.20453 0.20751 0.94773 0.0
C1177 C 0.22215 0.21386 0.99365 0.0
C1178 C 0.24162 0.21815 0.96295 0.0
C1179 C 0.24357 0.21675 0.88846 0.0
H1180 H 0.81864 0.04885 0.24574 0.0
H1181 H 0.7922 0.98231 0.19507 0.0
H1182 H 0.82704 0.05772 0.11866 0.0
H1183 H 0.80003 0.99107 0.06865 0.0
H1184 H 0.82912 0.01251 0.85118 0.0
H1185 H 0.82776 0.0074 0.98103 0.0
H1186 H 0.80787 0.05394 0.0082 0.0
H1187 H 0.80981 0.05949 0.87851 0.0
C1188 C 0.81474 0.03614 0.20763 0.0
C1189 C 0.80468 0.01487 0.23052 0.0
C1190 C 0.81943 0.04121 0.13476 0.0
C1191 C 0.81417 0.02511 0.08332 0.0
C1192 C 0.80462 0.00392 0.10675 0.0
C1193 C 0.79998 0.99887 0.17939 0.0
C1194 C 0.82468 0.02183 0.88492 0.0
C1195 C 0.81939 0.03627 0.85445 0.0
C1196 C 0.8238 0.01882 0.95937 0.0
C1197 C 0.81749 0.03009 0.0051 0.0
C1198 C 0.813 0.04514 0.97475 0.0
C1199 C 0.81399 0.04824 0.90026 0.0
H1200 H 0.70541 0.57865 0.1409 0.0
H1201 H 0.65484 0.51353 0.16236 0.0
H1202 H 0.70775 0.58212 0.27193 0.0
H1203 H 0.65716 0.51707 0.29298 0.0
H1204 H 0.67966 0.5866 0.49258 0.0
H1205 H 0.68265 0.58276 0.36354 0.0
H1206 H 0.68082 0.52319 0.39958 0.0
H1207 H 0.67779 0.52697 0.52917 0.0
C1208 C 0.69507 0.56498 0.17352 0.0
C1209 C 0.67984 0.54586 0.14134 0.0
C1210 C 0.69631 0.56702 0.24847 0.0
C1211 C 0.68252 0.54992 0.2926 0.0
C1212 C 0.66808 0.53048 0.2604 0.0
C1213 C 0.66669 0.5285 0.18556 0.0
C1214 C 0.67995 0.5727 0.47313 0.0
C1215 C 0.67835 0.55702 0.52109 0.0
C1216 C 0.68187 0.57061 0.39922 0.0
C1217 C 0.68205 0.55272 0.37153 0.0
C1218 C 0.68062 0.5371 0.41945 0.0
C1219 C 0.67892 0.53929 0.49357 0.0
H1220 H 0.43695 0.14154 0.48295 0.0
H1221 H 0.50406 0.16421 0.50899 0.0
H1222 H 0.44073 0.14057 0.35292 0.0
H1223 H 0.50794 0.16376 0.37892 0.0
H1224 H 0.49886 0.12927 0.16302 0.0
H1225 H 0.49752 0.13626 0.29004 0.0
H1226 H 0.45568 0.16098 0.24343 0.0
H1227 H 0.45662 0.15347 0.11564 0.0
C1228 C 0.45258 0.14664 0.46088 0.0
C1229 C 0.47016 0.15271 0.50637 0.0
C1230 C 0.45477 0.14621 0.38624 0.0
C1231 C 0.47461 0.15192 0.35549 0.0
C1232 C 0.49236 0.15889 0.40093 0.0
C1233 C 0.49015 0.15923 0.4755 0.0
C1234 C 0.4895 0.13637 0.17958 0.0
C1235 C 0.47774 0.14069 0.12919 0.0
C1236 C 0.48886 0.14053 0.25254 0.0
C1237 C 0.47649 0.14918 0.27703 0.0
C1238 C 0.46517 0.15407 0.2264 0.0
C1239 C 0.46581 0.14989 0.15317 0.0
H1240 H 0.88685 0.31477 0.11186 0.0
H1241 H 0.87196 0.36512 0.13037 0.0
H1242 H 0.88157 0.30844 0.24137 0.0
H1243 H 0.86585 0.35832 0.25871 0.0
H1244 H 0.88871 0.36306 0.48926 0.0
H1245 H 0.88841 0.36536 0.35917 0.0
H1246 H 0.85819 0.297 0.34388 0.0
H1247 H 0.85914 0.29476 0.47495 0.0
C1248 C 0.88191 0.3241 0.14333 0.0
C1249 C 0.88008 0.34061 0.1113 0.0
C1250 C 0.87884 0.32047 0.21755 0.0
C1251 C 0.87366 0.33314 0.26085 0.0
C1252 C 0.87043 0.34867 0.22751 0.0
C1253 C 0.87377 0.35247 0.15379 0.0
C1254 C 0.88188 0.34848 0.45835 0.0
C1255 C 0.87398 0.32873 0.49258 0.0
C1256 C 0.88155 0.34978 0.38352 0.0
C1257 C 0.87312 0.33135 0.34077 0.0
C1258 C 0.86497 0.31153 0.37504 0.0
C1259 C 0.86543 0.31024 0.45018 0.0
H1260 H 0.63242 0.12877 0.20457 0.0
H1261 H 0.7005 0.15618 0.18647 0.0
H1262 H 0.63579 0.13225 0.33547 0.0
H1263 H 0.70377 0.15906 0.3163 0.0
H1264 H 0.70796 0.1781 0.54421 0.0
H1265 H 0.70112 0.17818 0.41611 0.0
H1266 H 0.64423 0.11684 0.43698 0.0
H1267 H 0.65074 0.11716 0.56607 0.0
C1268 C 0.64808 0.13553 0.22846 0.0
C1269 C 0.66619 0.14221 0.18513 0.0
C1270 C 0.65 0.13744 0.30342 0.0
C1271 C 0.67006 0.14604 0.33641 0.0
C1272 C 0.68812 0.15279 0.29277 0.0
C1273 C 0.68622 0.15098 0.21815 0.0
C1274 C 0.69383 0.16477 0.52161 0.0
C1275 C 0.68001 0.14752 0.56488 0.0
C1276 C 0.68997 0.16475 0.44812 0.0
C1277 C 0.67235 0.14734 0.41599 0.0
C1278 C 0.65789 0.13056 0.46003 0.0
C1279 C 0.66164 0.13069 0.53394 0.0
H1280 H 0.85293 0.52724 0.18424 0.0
H1281 H 0.9202 0.55108 0.21081 0.0
H1282 H 0.84891 0.52752 0.31434 0.0
H1283 H 0.91642 0.55229 0.34056 0.0
H1284 H 0.90276 0.54258 0.57867 0.0
H1285 H 0.90358 0.53418 0.45157 0.0
H1286 H 0.85702 0.55298 0.4043 0.0
H1287 H 0.8556 0.56042 0.53032 0.0
C1288 C 0.86687 0.53254 0.2179 0.0
C1289 C 0.8869 0.53931 0.1871 0.0
C1290 C 0.8646 0.53282 0.2926 0.0
C1291 C 0.88238 0.54017 0.33839 0.0
C1292 C 0.90231 0.54627 0.30746 0.0
C1293 C 0.90451 0.54573 0.23279 0.0
C1294 C 0.89246 0.54455 0.54114 0.0
C1295 C 0.87919 0.55226 0.56474 0.0
C1296 C 0.89304 0.53991 0.46814 0.0
C1297 C 0.88044 0.54298 0.41716 0.0
C1298 C 0.86671 0.55004 0.44162 0.0
C1299 C 0.86602 0.5545 0.51426 0.0
H1300 H 0.48915 0.33952 0.2028 0.0
H1301 H 0.46934 0.38622 0.22648 0.0
H1302 H 0.48992 0.33652 0.33305 0.0
H1303 H 0.46949 0.38275 0.35702 0.0
H1304 H 0.48413 0.38107 0.59386 0.0
H1305 H 0.49071 0.38835 0.46504 0.0
H1306 H 0.46304 0.32112 0.42402 0.0
H1307 H 0.45702 0.31395 0.55175 0.0
C1308 C 0.485 0.34918 0.23586 0.0
C1309 C 0.47894 0.36292 0.2044 0.0
C1310 C 0.48538 0.34742 0.31051 0.0
C1311 C 0.47954 0.35922 0.35544 0.0
C1312 C 0.47428 0.37358 0.32399 0.0
C1313 C 0.47404 0.37546 0.24917 0.0
C1314 C 0.47974 0.36791 0.55727 0.0
C1315 C 0.46999 0.34693 0.58295 0.0
C1316 C 0.48338 0.37206 0.48352 0.0
C1317 C 0.47737 0.35531 0.43423 0.0
C1318 C 0.46817 0.33443 0.46045 0.0
C1319 C 0.46457 0.33031 0.53383 0.0
H1320 H 0.3735 0.92038 0.43942 0.0
H1321 H 0.34208 0.85188 0.44718 0.0
H1322 H 0.3778 0.92188 0.56966 0.0
H1323 H 0.34682 0.8534 0.57733 0.0
H1324 H 0.3335 0.8638 0.81201 0.0
H1325 H 0.33227 0.86142 0.68113 0.0
H1326 H 0.39541 0.91616 0.66954 0.0
H1327 H 0.39644 0.91884 0.80039 0.0
C1328 C 0.36784 0.90564 0.46871 0.0
C1329 C 0.35734 0.886 0.43273 0.0
C1330 C 0.37037 0.9065 0.54354 0.0
C1331 C 0.36251 0.88774 0.5843 0.0
C1332 C 0.35272 0.86814 0.54791 0.0
C1333 C 0.35015 0.86728 0.47311 0.0
C1334 C 0.34717 0.87527 0.78161 0.0
C1335 C 0.36502 0.89157 0.81682 0.0
C1336 C 0.34653 0.87382 0.70643 0.0
C1337 C 0.36373 0.88862 0.66452 0.0
C1338 C 0.38175 0.90467 0.69992 0.0
C1339 C 0.38238 0.90614 0.77508 0.0
H1340 H 0.1595 0.48652 0.81496 0.0
H1341 H 0.10616 0.49712 0.79996 0.0
H1342 H 0.16266 0.48804 0.68448 0.0
H1343 H 0.10966 0.49918 0.66922 0.0
H1344 H 0.10588 0.47272 0.43898 0.0
H1345 H 0.10366 0.47593 0.56874 0.0
H1346 H 0.17224 0.51107 0.58186 0.0
H1347 H 0.17445 0.50738 0.45232 0.0
C1348 C 0.14859 0.48942 0.78388 0.0
C1349 C 0.13251 0.49159 0.818 0.0
C1350 C 0.15049 0.49044 0.70892 0.0
C1351 C 0.13642 0.49375 0.6661 0.0
C1352 C 0.12059 0.49634 0.70038 0.0
C1353 C 0.11865 0.49526 0.77543 0.0
C1354 C 0.12049 0.48139 0.46936 0.0
C1355 C 0.14035 0.48963 0.43523 0.0
C1356 C 0.11922 0.4833 0.54389 0.0
C1357 C 0.13778 0.49357 0.58605 0.0
C1358 C 0.15762 0.50268 0.55133 0.0
C1359 C 0.15889 0.5007 0.47689 0.0
H1360 H 0.56653 0.69803 0.7989 0.0
H1361 H 0.53493 0.62954 0.78921 0.0
H1362 H 0.56516 0.69952 0.6684 0.0
H1363 H 0.5329 0.63097 0.65847 0.0
H1364 H 0.55525 0.64435 0.42083 0.0
H1365 H 0.5542 0.64066 0.55171 0.0
H1366 H 0.54127 0.69239 0.57167 0.0
H1367 H 0.54305 0.69648 0.44163 0.0
C1368 C 0.55912 0.68327 0.76894 0.0
C1369 C 0.55085 0.66368 0.80457 0.0
C1370 C 0.55819 0.6841 0.69396 0.0
C1371 C 0.54879 0.66535 0.65259 0.0
C1372 C 0.54047 0.64574 0.68836 0.0
C1373 C 0.54154 0.64491 0.76343 0.0
C1374 C 0.55193 0.65474 0.45327 0.0
C1375 C 0.5494 0.6708 0.42093 0.0
C1376 C 0.55129 0.65262 0.52835 0.0
C1377 C 0.54793 0.66642 0.57257 0.0
C1378 C 0.54444 0.68183 0.53964 0.0
C1379 C 0.54529 0.68407 0.4649 0.0
H1380 H 0.31998 0.45202 0.85176 0.0
H1381 H 0.35923 0.52031 0.84001 0.0
H1382 H 0.3148 0.45048 0.72203 0.0
H1383 H 0.35358 0.51883 0.71037 0.0
H1384 H 0.3636 0.50437 0.47695 0.0
H1385 H 0.36536 0.5075 0.6075 0.0
H1386 H 0.29926 0.45872 0.6219 0.0
H1387 H 0.29767 0.45519 0.49122 0.0
C1388 C 0.32717 0.46676 0.82173 0.0
C1389 C 0.34018 0.48627 0.8563 0.0
C1390 C 0.32413 0.46589 0.74721 0.0
C1391 C 0.33394 0.48452 0.70546 0.0
C1392 C 0.34613 0.50413 0.7406 0.0
C1393 C 0.34924 0.50499 0.81509 0.0
C1394 C 0.3494 0.49438 0.50788 0.0
C1395 C 0.33054 0.47944 0.47359 0.0
C1396 C 0.35036 0.49628 0.58285 0.0
C1397 C 0.33244 0.48336 0.62543 0.0
C1398 C 0.31344 0.46872 0.59093 0.0
C1399 C 0.3125 0.46677 0.51592 0.0
H1400 H 0.57165 0.87261 0.89266 0.0
H1401 H 0.52896 0.89611 0.84327 0.0
H1402 H 0.57175 0.86375 0.76569 0.0
H1403 H 0.5297 0.88814 0.71729 0.0
H1404 H 0.52269 0.86028 0.49897 0.0
H1405 H 0.51921 0.86164 0.62894 0.0
H1406 H 0.58576 0.88147 0.65425 0.0
H1407 H 0.58895 0.87922 0.52455 0.0
C1408 C 0.5622 0.87576 0.85489 0.0
C1409 C 0.55036 0.88512 0.87814 0.0
C1410 C 0.56237 0.87084 0.78201 0.0
C1411 C 0.55079 0.87528 0.73088 0.0
C1412 C 0.53853 0.88412 0.75488 0.0
C1413 C 0.53825 0.88887 0.82743 0.0
C1414 C 0.53652 0.86474 0.53239 0.0
C1415 C 0.55613 0.86981 0.50141 0.0
C1416 C 0.53457 0.86562 0.60698 0.0
C1417 C 0.55225 0.8719 0.65238 0.0
C1418 C 0.57171 0.87632 0.62133 0.0
C1419 C 0.5736 0.87518 0.54677 0.0
H1420 H 0.13801 0.72322 0.54251 0.0
H1421 H 0.15784 0.67654 0.51853 0.0
H1422 H 0.13738 0.71915 0.67275 0.0
H1423 H 0.15781 0.67292 0.64886 0.0
H1424 H 0.12376 0.64962 0.8662 0.0
H1425 H 0.13081 0.65725 0.73899 0.0
H1426 H 0.15752 0.72425 0.78209 0.0
H1427 H 0.14987 0.71649 0.91022 0.0
C1428 C 0.14257 0.71234 0.56507 0.0
C1429 C 0.14772 0.70001 0.52012 0.0
C1430 C 0.14235 0.71011 0.63985 0.0
C1431 C 0.14738 0.69557 0.67135 0.0
C1432 C 0.15345 0.68396 0.62636 0.0
C1433 C 0.15355 0.68609 0.55162 0.0
C1434 C 0.13132 0.66602 0.84886 0.0
C1435 C 0.13612 0.68243 0.89837 0.0
C1436 C 0.13552 0.67042 0.77574 0.0
C1437 C 0.14473 0.69137 0.75012 0.0
C1438 C 0.15017 0.70791 0.79994 0.0
C1439 C 0.14592 0.70348 0.87338 0.0
loop_
_geom_bond_atom_site_label_1
_geom_bond_atom_site_label_2
_geom_bond_distance
_geom_bond_site_symmetry_2
_ccdc_geom_bond_type
Zn0 O6 1.969 . S
Zn0 O7 1.965 . S
Zn0 O11 2.024 1_455 S
Zn0 O16 1.969 . S
Zn1 O8 1.969 . S
Zn1 O14 1.969 . S
Zn1 O15 1.965 . S
Zn1 O17 2.024 . S
C2 O3 1.229 . S
C2 O11 1.058 . S
O3 C2 1.229 . S
C4 O5 1.229 . S
C4 O17 1.058 . S
O5 C4 1.229 . S
O6 Zn0 1.969 . S
O6 C9 1.267 . S
O7 Zn0 1.965 . S
O7 C18 1.260 1_455 S
O8 Zn1 1.969 . S
O8 C18 1.258 1_455 S
C9 O6 1.267 . S
C9 O10 1.228 1_455 S
O10 C9 1.228 1_655 S
O11 Zn0 2.024 1_655 S
O11 C2 1.058 . S
C12 O13 1.228 . S
C12 O14 1.267 . S
O13 C12 1.228 . S
O14 Zn1 1.969 . S
O14 C12 1.267 . S
O15 Zn1 1.965 . S
O15 C19 1.260 . S
O16 Zn0 1.969 . S
O16 C19 1.258 . S
O17 Zn1 2.024 . S
O17 C4 1.058 . S
C18 O7 1.260 1_655 S
C18 O8 1.258 1_655 S
C19 O15 1.260 . S
C19 O16 1.258 . S
Zn20 O26 1.969 . S
Zn20 O27 1.965 . S
Zn20 O31 2.024 . S
Zn20 O36 1.969 . S
Zn21 O28 1.969 . S
Zn21 O34 1.969 . S
Zn21 O35 1.965 . S
Zn21 O37 2.024 . S
C22 O23 1.229 . S
C22 O31 1.058 . S
O23 C22 1.229 . S
C24 O25 1.229 . S
C24 O37 1.058 . S
O25 C24 1.229 . S
O26 Zn20 1.969 . S
O26 C29 1.267 . S
O27 Zn20 1.965 . S
O27 C38 1.260 . S
O28 Zn21 1.969 . S
O28 C38 1.258 . S
C29 O26 1.267 . S
C29 O30 1.228 . S
O30 C29 1.228 . S
O31 Zn20 2.024 . S
O31 C22 1.058 . S
C32 O33 1.228 . S
C32 O34 1.267 . S
O33 C32 1.228 . S
O34 Zn21 1.969 . S
O34 C32 1.267 . S
O35 Zn21 1.965 . S
O35 C39 1.260 . S
O36 Zn20 1.969 . S
O36 C39 1.258 . S
O37 Zn21 2.024 . S
O37 C24 1.058 . S
C38 O27 1.260 . S
C38 O28 1.258 . S
C39 O35 1.260 . S
C39 O36 1.258 . S
Zn40 O46 1.969 . S
Zn40 O47 1.965 . S
Zn40 O51 2.024 . S
Zn40 O56 1.969 . S
Zn41 O48 1.969 . S
Zn41 O54 1.969 . S
Zn41 O55 1.965 . S
Zn41 O57 2.024 1_545 S
C42 O43 1.229 . S
C42 O51 1.058 . S
O43 C42 1.229 . S
C44 O45 1.229 . S
C44 O57 1.058 . S
O45 C44 1.229 . S
O46 Zn40 1.969 . S
O46 C49 1.267 . S
O47 Zn40 1.965 . S
O47 C58 1.260 . S
O48 Zn41 1.969 . S
O48 C58 1.258 . S
C49 O46 1.267 . S
C49 O50 1.228 . S
O50 C49 1.228 . S
O51 Zn40 2.024 . S
O51 C42 1.058 . S
C52 O53 1.228 1_545 S
C52 O54 1.267 . S
O53 C52 1.228 1_565 S
O54 Zn41 1.969 . S
O54 C52 1.267 . S
O55 Zn41 1.965 . S
O55 C59 1.260 1_545 S
O56 Zn40 1.969 . S
O56 C59 1.258 1_545 S
O57 Zn41 2.024 1_565 S
O57 C44 1.058 . S
C58 O47 1.260 . S
C58 O48 1.258 . S
C59 O55 1.260 1_565 S
C59 O56 1.258 1_565 S
Zn60 O66 1.941 1_655 S
Zn60 O67 1.944 . S
Zn60 O71 2.085 . S
Zn60 O76 1.945 1_655 S
Zn61 O68 1.969 1_455 S
Zn61 O74 1.969 . S
Zn61 O75 1.965 . S
Zn61 O77 2.024 . S
C62 O63 1.229 . S
C62 O71 1.058 . S
O63 C62 1.229 . S
C64 O65 1.229 . S
C64 O77 1.058 . S
O65 C64 1.229 . S
O66 Zn60 1.941 1_455 S
O66 C69 1.271 . S
O67 Zn60 1.944 . S
O67 C78 1.262 . S
O68 Zn61 1.969 1_655 S
O68 C78 1.258 . S
C69 O66 1.271 . S
C69 O70 1.221 1_455 S
O70 C69 1.221 1_655 S
O71 Zn60 2.085 . S
O71 C62 1.058 . S
C72 O73 1.228 . S
C72 O74 1.267 . S
O73 C72 1.228 . S
O74 Zn61 1.969 . S
O74 C72 1.267 . S
O75 Zn61 1.965 . S
O75 C79 1.260 . S
O76 Zn60 1.945 1_455 S
O76 C79 1.258 . S
O77 Zn61 2.024 . S
O77 C64 1.058 . S
C78 O67 1.262 . S
C78 O68 1.258 . S
C79 O75 1.260 . S
C79 O76 1.258 . S
Zn80 O86 1.969 . S
Zn80 O87 1.965 . S
Zn80 O91 2.024 . S
Zn80 O96 1.969 . S
Zn81 O88 1.969 . S
Zn81 O94 1.969 . S
Zn81 O95 1.965 . S
Zn81 O97 2.024 . S
C82 O83 1.229 . S
C82 O91 1.058 . S
O83 C82 1.229 . S
C84 O85 1.229 . S
C84 O97 1.058 . S
O85 C84 1.229 . S
O86 Zn80 1.969 . S
O86 C89 1.267 . S
O87 Zn80 1.965 . S
O87 C98 1.260 . S
O88 Zn81 1.969 . S
O88 C98 1.258 . S
C89 O86 1.267 . S
C89 O90 1.228 . S
O90 C89 1.228 . S
O91 Zn80 2.024 . S
O91 C82 1.058 . S
C92 O93 1.228 . S
C92 O94 1.267 . S
O93 C92 1.228 . S
O94 Zn81 1.969 . S
O94 C92 1.267 . S
O95 Zn81 1.965 . S
O95 C99 1.260 . S
O96 Zn80 1.969 . S
O96 C99 1.258 . S
O97 Zn81 2.024 . S
O97 C84 1.058 . S
C98 O87 1.260 . S
C98 O88 1.258 . S
C99 O95 1.260 . S
C99 O96 1.258 . S
Zn100 O106 1.969 . S
Zn100 O107 1.965 . S
Zn100 O111 2.024 . S
Zn100 O116 1.969 . S
Zn101 O108 1.969 . S
Zn101 O114 1.969 . S
Zn101 O115 1.965 . S
Zn101 O117 2.024 1_545 S
C102 O103 1.229 . S
C102 O111 1.058 . S
O103 C102 1.229 . S
C104 O105 1.229 . S
C104 O117 1.058 . S
O105 C104 1.229 . S
O106 Zn100 1.969 . S
O106 C109 1.267 . S
O107 Zn100 1.965 . S
O107 C118 1.260 . S
O108 Zn101 1.969 . S
O108 C118 1.258 . S
C109 O106 1.267 . S
C109 O110 1.228 . S
O110 C109 1.228 . S
O111 Zn100 2.024 . S
O111 C102 1.058 . S
C112 O113 1.228 1_545 S
C112 O114 1.267 . S
O113 C112 1.228 1_565 S
O114 Zn101 1.969 . S
O114 C112 1.267 . S
O115 Zn101 1.965 . S
O115 C119 1.260 1_545 S
O116 Zn100 1.969 . S
O116 C119 1.258 1_545 S
O117 Zn101 2.024 1_565 S
O117 C104 1.058 . S
C118 O107 1.260 . S
C118 O108 1.258 . S
C119 O115 1.260 1_565 S
C119 O116 1.258 1_565 S
Zn120 O126 1.969 1_556 S
Zn120 O127 1.965 . S
Zn120 O131 2.024 . S
Zn120 O136 1.969 . S
Zn121 O128 1.969 . S
Zn121 O134 1.969 . S
Zn121 O135 1.965 . S
Zn121 O137 2.024 . S
C122 O123 1.229 1_556 S
C122 O131 1.058 . S
O123 C122 1.229 1_554 S
C124 O125 1.229 . S
C124 O137 1.058 . S
O125 C124 1.229 . S
O126 Zn120 1.969 1_554 S
O126 C129 1.267 . S
O127 Zn120 1.965 . S
O127 C138 1.260 . S
O128 Zn121 1.969 . S
O128 C138 1.258 . S
C129 O126 1.267 . S
C129 O130 1.228 . S
O130 C129 1.228 . S
O131 Zn120 2.024 . S
O131 C122 1.058 . S
C132 O133 1.228 . S
C132 O134 1.267 . S
O133 C132 1.228 . S
O134 Zn121 1.969 . S
O134 C132 1.267 . S
O135 Zn121 1.965 . S
O135 C139 1.260 . S
O136 Zn120 1.969 . S
O136 C139 1.258 . S
O137 Zn121 2.024 . S
O137 C124 1.058 . S
C138 O127 1.260 . S
C138 O128 1.258 . S
C139 O135 1.260 . S
C139 O136 1.258 . S
Zn140 O146 1.969 1_556 S
Zn140 O147 1.965 . S
Zn140 O151 2.024 . S
Zn140 O156 1.969 . S
Zn141 O148 1.969 . S
Zn141 O154 1.969 . S
Zn141 O155 1.965 . S
Zn141 O157 2.024 . S
C142 O143 1.229 1_556 S
C142 O151 1.058 . S
O143 C142 1.229 1_554 S
C144 O145 1.229 . S
C144 O157 1.058 . S
O145 C144 1.229 . S
O146 Zn140 1.969 1_554 S
O146 C149 1.267 . S
O147 Zn140 1.965 . S
O147 C158 1.260 . S
O148 Zn141 1.969 . S
O148 C158 1.258 . S
C149 O146 1.267 . S
C149 O150 1.228 . S
O150 C149 1.228 . S
O151 Zn140 2.024 . S
O151 C142 1.058 . S
C152 O153 1.228 . S
C152 O154 1.267 . S
O153 C152 1.228 . S
O154 Zn141 1.969 . S
O154 C152 1.267 . S
O155 Zn141 1.965 . S
O155 C159 1.260 . S
O156 Zn140 1.969 . S
O156 C159 1.258 . S
O157 Zn141 2.024 . S
O157 C144 1.058 . S
C158 O147 1.260 . S
C158 O148 1.258 . S
C159 O155 1.260 . S
C159 O156 1.258 . S
Zn160 O166 1.969 1_556 S
Zn160 O167 1.965 . S
Zn160 O171 2.024 . S
Zn160 O176 1.969 . S
Zn161 O168 1.969 . S
Zn161 O174 1.969 . S
Zn161 O175 1.965 . S
Zn161 O177 2.024 . S
C162 O163 1.229 1_556 S
C162 O171 1.058 . S
O163 C162 1.229 1_554 S
C164 O165 1.229 . S
C164 O177 1.058 . S
O165 C164 1.229 . S
O166 Zn160 1.969 1_554 S
O166 C169 1.267 . S
O167 Zn160 1.965 . S
O167 C178 1.260 . S
O168 Zn161 1.969 . S
O168 C178 1.258 . S
C169 O166 1.267 . S
C169 O170 1.228 . S
O170 C169 1.228 . S
O171 Zn160 2.024 . S
O171 C162 1.058 . S
C172 O173 1.228 . S
C172 O174 1.267 . S
O173 C172 1.228 . S
O174 Zn161 1.969 . S
O174 C172 1.267 . S
O175 Zn161 1.965 . S
O175 C179 1.260 . S
O176 Zn160 1.969 . S
O176 C179 1.258 . S
O177 Zn161 2.024 . S
O177 C164 1.058 . S
C178 O167 1.260 . S
C178 O168 1.258 . S
C179 O175 1.260 . S
C179 O176 1.258 . S
Zn180 O186 1.969 . S
Zn180 O187 1.965 . S
Zn180 O191 2.024 . S
Zn180 O196 1.969 . S
Zn181 O188 1.969 . S
Zn181 O194 1.969 . S
Zn181 O195 1.965 . S
Zn181 O197 2.024 . S
C182 O183 1.229 . S
C182 O191 1.058 . S
O183 C182 1.229 . S
C184 O185 1.229 . S
C184 O197 1.058 . S
O185 C184 1.229 . S
O186 Zn180 1.969 . S
O186 C189 1.267 1_556 S
O187 Zn180 1.965 . S
O187 C198 1.260 . S
O188 Zn181 1.969 . S
O188 C198 1.258 . S
C189 O186 1.267 1_554 S
C189 O190 1.228 1_554 S
O190 C189 1.228 1_556 S
O191 Zn180 2.024 . S
O191 C182 1.058 . S
C192 O193 1.228 . S
C192 O194 1.267 . S
O193 C192 1.228 . S
O194 Zn181 1.969 . S
O194 C192 1.267 . S
O195 Zn181 1.965 . S
O195 C199 1.260 . S
O196 Zn180 1.969 . S
O196 C199 1.258 . S
O197 Zn181 2.024 . S
O197 C184 1.058 . S
C198 O187 1.260 . S
C198 O188 1.258 . S
C199 O195 1.260 . S
C199 O196 1.258 . S
Zn200 O206 1.969 . S
Zn200 O207 1.965 . S
Zn200 O211 2.024 . S
Zn200 O216 1.969 . S
Zn201 O208 1.969 . S
Zn201 O214 1.969 . S
Zn201 O215 1.965 . S
Zn201 O217 2.024 . S
C202 O203 1.229 . S
C202 O211 1.058 . S
O203 C202 1.229 . S
C204 O205 1.229 . S
C204 O217 1.058 . S
O205 C204 1.229 . S
O206 Zn200 1.969 . S
O206 C209 1.267 1_556 S
O207 Zn200 1.965 . S
O207 C218 1.260 . S
O208 Zn201 1.969 . S
O208 C218 1.258 . S
C209 O206 1.267 1_554 S
C209 O210 1.228 1_554 S
O210 C209 1.228 1_556 S
O211 Zn200 2.024 . S
O211 C202 1.058 . S
C212 O213 1.228 . S
C212 O214 1.267 . S
O213 C212 1.228 . S
O214 Zn201 1.969 . S
O214 C212 1.267 . S
O215 Zn201 1.965 . S
O215 C219 1.260 . S
O216 Zn200 1.969 . S
O216 C219 1.258 . S
O217 Zn201 2.024 . S
O217 C204 1.058 . S
C218 O207 1.260 . S
C218 O208 1.258 . S
C219 O215 1.260 . S
C219 O216 1.258 . S
Zn220 O226 1.969 . S
Zn220 O227 1.965 . S
Zn220 O231 2.024 . S
Zn220 O236 1.969 . S
Zn221 O228 1.969 . S
Zn221 O234 1.969 . S
Zn221 O235 1.965 . S
Zn221 O237 2.024 . S
C222 O223 1.229 . S
C222 O231 1.058 . S
O223 C222 1.229 . S
C224 O225 1.229 . S
C224 O237 1.058 . S
O225 C224 1.229 . S
O226 Zn220 1.969 . S
O226 C229 1.267 1_556 S
O227 Zn220 1.965 . S
O227 C238 1.260 . S
O228 Zn221 1.969 . S
O228 C238 1.258 . S
C229 O226 1.267 1_554 S
C229 O230 1.228 1_554 S
O230 C229 1.228 1_556 S
O231 Zn220 2.024 . S
O231 C222 1.058 . S
C232 O233 1.228 . S
C232 O234 1.267 . S
O233 C232 1.228 . S
O234 Zn221 1.969 . S
O234 C232 1.267 . S
O235 Zn221 1.965 . S
O235 C239 1.260 . S
O236 Zn220 1.969 . S
O236 C239 1.258 . S
O237 Zn221 2.024 . S
O237 C224 1.058 . S
C238 O227 1.260 . S
C238 O228 1.258 . S
C239 O235 1.260 . S
C239 O236 1.258 . S
Zn240 O246 1.969 . S
Zn240 O247 1.965 . S
Zn240 O251 2.024 . S
Zn240 O256 1.969 . S
Zn241 O248 1.969 . S
Zn241 O254 1.969 . S
Zn241 O255 1.965 . S
Zn241 O257 2.024 . S
C242 O243 1.229 . S
C242 O251 1.058 . S
O243 C242 1.229 . S
C244 O245 1.229 . S
C244 O257 1.058 . S
O245 C244 1.229 . S
O246 Zn240 1.969 . S
O246 C249 1.267 . S
O247 Zn240 1.965 . S
O247 C258 1.260 . S
O248 Zn241 1.969 . S
O248 C258 1.258 . S
C249 O246 1.267 . S
C249 O250 1.228 . S
O250 C249 1.228 . S
O251 Zn240 2.024 . S
O251 C242 1.058 . S
C252 O253 1.228 1_556 S
C252 O254 1.267 1_556 S
O253 C252 1.228 1_554 S
O254 Zn241 1.969 . S
O254 C252 1.267 1_554 S
O255 Zn241 1.965 . S
O255 C259 1.260 . S
O256 Zn240 1.969 . S
O256 C259 1.258 . S
O257 Zn241 2.024 . S
O257 C244 1.058 . S
C258 O247 1.260 . S
C258 O248 1.258 . S
C259 O255 1.260 . S
C259 O256 1.258 . S
Zn260 O266 1.969 . S
Zn260 O267 1.965 . S
Zn260 O271 2.024 . S
Zn260 O276 1.969 . S
Zn261 O268 1.969 . S
Zn261 O274 1.969 . S
Zn261 O275 1.965 . S
Zn261 O277 2.024 . S
C262 O263 1.229 . S
C262 O271 1.058 . S
O263 C262 1.229 . S
C264 O265 1.229 . S
C264 O277 1.058 . S
O265 C264 1.229 . S
O266 Zn260 1.969 . S
O266 C269 1.267 . S
O267 Zn260 1.965 . S
O267 C278 1.260 . S
O268 Zn261 1.969 . S
O268 C278 1.258 . S
C269 O266 1.267 . S
C269 O270 1.228 . S
O270 C269 1.228 . S
O271 Zn260 2.024 . S
O271 C262 1.058 . S
C272 O273 1.228 1_556 S
C272 O274 1.267 1_556 S
O273 C272 1.228 1_554 S
O274 Zn261 1.969 . S
O274 C272 1.267 1_554 S
O275 Zn261 1.965 . S
O275 C279 1.260 . S
O276 Zn260 1.969 . S
O276 C279 1.258 . S
O277 Zn261 2.024 . S
O277 C264 1.058 . S
C278 O267 1.260 . S
C278 O268 1.258 . S
C279 O275 1.260 . S
C279 O276 1.258 . S
Zn280 O286 1.969 . S
Zn280 O287 1.965 . S
Zn280 O291 2.024 . S
Zn280 O296 1.969 . S
Zn281 O288 1.969 . S
Zn281 O294 1.969 . S
Zn281 O295 1.965 . S
Zn281 O297 2.024 . S
C282 O283 1.229 . S
C282 O291 1.058 . S
O283 C282 1.229 . S
C284 O285 1.229 . S
C284 O297 1.058 . S
O285 C284 1.229 . S
O286 Zn280 1.969 . S
O286 C289 1.267 . S
O287 Zn280 1.965 . S
O287 C298 1.260 . S
O288 Zn281 1.969 . S
O288 C298 1.258 . S
C289 O286 1.267 . S
C289 O290 1.228 . S
O290 C289 1.228 . S
O291 Zn280 2.024 . S
O291 C282 1.058 . S
C292 O293 1.228 1_556 S
C292 O294 1.267 1_556 S
O293 C292 1.228 1_554 S
O294 Zn281 1.969 . S
O294 C292 1.267 1_554 S
O295 Zn281 1.965 . S
O295 C299 1.260 . S
O296 Zn280 1.969 . S
O296 C299 1.258 . S
O297 Zn281 2.024 . S
O297 C284 1.058 . S
C298 O287 1.260 . S
C298 O288 1.258 . S
C299 O295 1.260 . S
C299 O296 1.258 . S
Zn300 O306 1.969 . S
Zn300 O307 1.965 . S
Zn300 O311 2.024 . S
Zn300 O316 1.969 . S
Zn301 O308 1.969 . S
Zn301 O314 1.969 1_554 S
Zn301 O315 1.965 . S
Zn301 O317 2.024 . S
C302 O303 1.229 . S
C302 O311 1.058 . S
O303 C302 1.229 . S
C304 O305 1.229 1_554 S
C304 O317 1.058 . S
O305 C304 1.229 1_556 S
O306 Zn300 1.969 . S
O306 C309 1.267 . S
O307 Zn300 1.965 . S
O307 C318 1.260 . S
O308 Zn301 1.969 . S
O308 C318 1.258 . S
C309 O306 1.267 . S
C309 O310 1.228 . S
O310 C309 1.228 . S
O311 Zn300 2.024 . S
O311 C302 1.058 . S
C312 O313 1.228 . S
C312 O314 1.267 . S
O313 C312 1.228 . S
O314 Zn301 1.969 1_556 S
O314 C312 1.267 . S
O315 Zn301 1.965 . S
O315 C319 1.260 . S
O316 Zn300 1.969 . S
O316 C319 1.258 . S
O317 Zn301 2.024 . S
O317 C304 1.058 . S
C318 O307 1.260 . S
C318 O308 1.258 . S
C319 O315 1.260 . S
C319 O316 1.258 . S
Zn320 O326 1.969 . S
Zn320 O327 1.965 . S
Zn320 O331 2.024 . S
Zn320 O336 1.969 . S
Zn321 O328 1.969 . S
Zn321 O334 1.969 1_554 S
Zn321 O335 1.965 . S
Zn321 O337 2.024 . S
C322 O323 1.229 . S
C322 O331 1.058 . S
O323 C322 1.229 . S
C324 O325 1.229 1_554 S
C324 O337 1.058 . S
O325 C324 1.229 1_556 S
O326 Zn320 1.969 . S
O326 C329 1.267 . S
O327 Zn320 1.965 . S
O327 C338 1.260 . S
O328 Zn321 1.969 . S
O328 C338 1.258 . S
C329 O326 1.267 . S
C329 O330 1.228 . S
O330 C329 1.228 . S
O331 Zn320 2.024 . S
O331 C322 1.058 . S
C332 O333 1.228 . S
C332 O334 1.267 . S
O333 C332 1.228 . S
O334 Zn321 1.969 1_556 S
O334 C332 1.267 . S
O335 Zn321 1.965 . S
O335 C339 1.260 . S
O336 Zn320 1.969 . S
O336 C339 1.258 . S
O337 Zn321 2.024 . S
O337 C324 1.058 . S
C338 O327 1.260 . S
C338 O328 1.258 . S
C339 O335 1.260 . S
C339 O336 1.258 . S
Zn340 O346 1.969 . S
Zn340 O347 1.965 . S
Zn340 O351 2.024 . S
Zn340 O356 1.969 . S
Zn341 O348 1.969 . S
Zn341 O354 1.969 1_554 S
Zn341 O355 1.965 . S
Zn341 O357 2.024 . S
C342 O343 1.229 . S
C342 O351 1.058 . S
O343 C342 1.229 . S
C344 O345 1.229 1_554 S
C344 O357 1.058 . S
O345 C344 1.229 1_556 S
O346 Zn340 1.969 . S
O346 C349 1.267 . S
O347 Zn340 1.965 . S
O347 C358 1.260 . S
O348 Zn341 1.969 . S
O348 C358 1.258 . S
C349 O346 1.267 . S
C349 O350 1.228 . S
O350 C349 1.228 . S
O351 Zn340 2.024 . S
O351 C342 1.058 . S
C352 O353 1.228 . S
C352 O354 1.267 . S
O353 C352 1.228 . S
O354 Zn341 1.969 1_556 S
O354 C352 1.267 . S
O355 Zn341 1.965 . S
O355 C359 1.260 . S
O356 Zn340 1.969 . S
O356 C359 1.258 . S
O357 Zn341 2.024 . S
O357 C344 1.058 . S
C358 O347 1.260 . S
C358 O348 1.258 . S
C359 O355 1.260 . S
C359 O356 1.258 . S
H360 C368 0.950 . S
H361 C373 0.950 . S
H362 C370 0.950 . S
H363 C372 0.950 . S
H364 C374 0.950 . S
H365 C376 0.950 . S
H366 C378 0.950 . S
H367 C379 0.950 . S
C368 H360 0.950 . S
C368 C369 1.386 . S
C368 C370 1.391 . S
C369 C368 1.386 . S
C369 C373 1.393 . S
C370 H362 0.950 . S
C370 C368 1.391 . S
C370 C371 1.400 . S
C371 C370 1.400 . S
C371 C372 1.398 . S
C371 C377 1.491 . S
C372 H363 0.950 . S
C372 C371 1.398 . S
C372 C373 1.391 . S
C373 H361 0.950 . S
C373 C369 1.393 . S
C373 C372 1.391 . S
C374 H364 0.950 . S
C374 C375 1.386 . S
C374 C376 1.391 . S
C375 C374 1.386 . S
C375 C379 1.393 . S
C376 H365 0.950 . S
C376 C374 1.391 . S
C376 C377 1.400 . S
C377 C371 1.491 . S
C377 C376 1.400 . S
C377 C378 1.398 . S
C378 H366 0.950 . S
C378 C377 1.398 . S
C378 C379 1.391 . S
C379 H367 0.950 . S
C379 C375 1.393 . S
C379 C378 1.391 . S
H380 C388 0.950 . S
H381 C393 0.950 . S
H382 C390 0.950 . S
H383 C392 0.950 . S
H384 C394 0.950 . S
H385 C396 0.950 . S
H386 C398 0.950 . S
H387 C399 0.950 . S
C388 H380 0.950 . S
C388 C389 1.386 . S
C388 C390 1.391 . S
C389 C388 1.386 . S
C389 C393 1.393 . S
C390 H382 0.950 . S
C390 C388 1.391 . S
C390 C391 1.400 . S
C391 C390 1.400 . S
C391 C392 1.398 . S
C391 C397 1.491 . S
C392 H383 0.950 . S
C392 C391 1.398 . S
C392 C393 1.391 . S
C393 H381 0.950 . S
C393 C389 1.393 . S
C393 C392 1.391 . S
C394 H384 0.950 . S
C394 C395 1.386 . S
C394 C396 1.391 . S
C395 C394 1.386 . S
C395 C399 1.393 . S
C396 H385 0.950 . S
C396 C394 1.391 . S
C396 C397 1.400 . S
C397 C391 1.491 . S
C397 C396 1.400 . S
C397 C398 1.398 . S
C398 H386 0.950 . S
C398 C397 1.398 . S
C398 C399 1.391 . S
C399 H387 0.950 . S
C399 C395 1.393 . S
C399 C398 1.391 . S
H400 C408 0.950 . S
H401 C413 0.950 . S
H402 C410 0.950 . S
H403 C412 0.950 . S
H404 C414 0.950 . S
H405 C416 0.950 . S
H406 C418 0.950 . S
H407 C419 0.950 . S
C408 H400 0.950 . S
C408 C409 1.386 . S
C408 C410 1.391 . S
C409 C408 1.386 . S
C409 C413 1.393 . S
C410 H402 0.950 . S
C410 C408 1.391 . S
C410 C411 1.400 . S
C411 C410 1.400 . S
C411 C412 1.398 . S
C411 C417 1.491 . S
C412 H403 0.950 . S
C412 C411 1.398 . S
C412 C413 1.391 . S
C413 H401 0.950 . S
C413 C409 1.393 . S
C413 C412 1.391 . S
C414 H404 0.950 . S
C414 C415 1.386 . S
C414 C416 1.391 . S
C415 C414 1.386 . S
C415 C419 1.393 . S
C416 H405 0.950 . S
C416 C414 1.391 . S
C416 C417 1.400 . S
C417 C411 1.491 . S
C417 C416 1.400 . S
C417 C418 1.398 . S
C418 H406 0.950 . S
C418 C417 1.398 . S
C418 C419 1.391 . S
C419 H407 0.950 . S
C419 C415 1.393 . S
C419 C418 1.391 . S
H420 C428 0.950 . S
H421 C433 0.950 . S
H422 C430 0.950 . S
H423 C432 0.950 . S
H424 C434 0.950 . S
H425 C436 0.950 . S
H426 C438 0.950 . S
H427 C439 0.950 . S
C428 H420 0.950 . S
C428 C429 1.386 . S
C428 C430 1.391 . S
C429 C428 1.386 . S
C429 C433 1.393 . S
C430 H422 0.950 . S
C430 C428 1.391 . S
C430 C431 1.400 . S
C431 C430 1.400 . S
C431 C432 1.398 . S
C431 C437 1.491 . S
C432 H423 0.950 . S
C432 C431 1.398 . S
C432 C433 1.391 . S
C433 H421 0.950 . S
C433 C429 1.393 . S
C433 C432 1.391 . S
C434 H424 0.950 . S
C434 C435 1.386 . S
C434 C436 1.391 . S
C435 C434 1.386 . S
C435 C439 1.393 . S
C436 H425 0.950 . S
C436 C434 1.391 . S
C436 C437 1.400 . S
C437 C431 1.491 . S
C437 C436 1.400 . S
C437 C438 1.398 . S
C438 H426 0.950 . S
C438 C437 1.398 . S
C438 C439 1.391 . S
C439 H427 0.950 . S
C439 C435 1.393 . S
C439 C438 1.391 . S
H440 C448 0.950 . S
H441 C453 0.950 . S
H442 C450 0.950 . S
H443 C452 0.950 . S
H444 C454 0.950 . S
H445 C456 0.950 . S
H446 C458 0.950 . S
H447 C459 0.950 . S
C448 H440 0.950 . S
C448 C449 1.386 . S
C448 C450 1.391 . S
C449 C448 1.386 . S
C449 C453 1.393 . S
C450 H442 0.950 . S
C450 C448 1.391 . S
C450 C451 1.400 . S
C451 C450 1.400 . S
C451 C452 1.398 . S
C451 C457 1.491 . S
C452 H443 0.950 . S
C452 C451 1.398 . S
C452 C453 1.391 . S
C453 H441 0.950 . S
C453 C449 1.393 . S
C453 C452 1.391 . S
C454 H444 0.950 . S
C454 C455 1.386 . S
C454 C456 1.391 . S
C455 C454 1.386 . S
C455 C459 1.393 . S
C456 H445 0.950 . S
C456 C454 1.391 . S
C456 C457 1.400 . S
C457 C451 1.491 . S
C457 C456 1.400 . S
C457 C458 1.398 . S
C458 H446 0.950 . S
C458 C457 1.398 . S
C458 C459 1.391 . S
C459 H447 0.950 . S
C459 C455 1.393 . S
C459 C458 1.391 . S
H460 C468 0.950 . S
H461 C473 0.950 . S
H462 C470 0.950 . S
H463 C472 0.950 . S
H464 C474 0.950 . S
H465 C476 0.950 . S
H466 C478 0.950 . S
H467 C479 0.950 . S
C468 H460 0.950 . S
C468 C469 1.386 . S
C468 C470 1.391 . S
C469 C468 1.386 . S
C469 C473 1.393 . S
C470 H462 0.950 . S
C470 C468 1.391 . S
C470 C471 1.400 . S
C471 C470 1.400 . S
C471 C472 1.398 . S
C471 C477 1.491 . S
C472 H463 0.950 . S
C472 C471 1.398 . S
C472 C473 1.391 . S
C473 H461 0.950 . S
C473 C469 1.393 . S
C473 C472 1.391 . S
C474 H464 0.950 . S
C474 C475 1.386 . S
C474 C476 1.391 . S
C475 C474 1.386 . S
C475 C479 1.393 . S
C476 H465 0.950 . S
C476 C474 1.391 . S
C476 C477 1.400 . S
C477 C471 1.491 . S
C477 C476 1.400 . S
C477 C478 1.398 . S
C478 H466 0.950 . S
C478 C477 1.398 . S
C478 C479 1.391 . S
C479 H467 0.950 . S
C479 C475 1.393 . S
C479 C478 1.391 . S
H480 C488 0.950 . S
H481 C493 0.950 . S
H482 C490 0.950 . S
H483 C492 0.950 . S
H484 C494 0.950 . S
H485 C496 0.950 . S
H486 C498 0.950 . S
H487 C499 0.950 . S
C488 H480 0.950 . S
C488 C489 1.386 . S
C488 C490 1.391 . S
C489 C488 1.386 . S
C489 C493 1.393 . S
C490 H482 0.950 . S
C490 C488 1.391 . S
C490 C491 1.400 . S
C491 C490 1.400 . S
C491 C492 1.398 . S
C491 C497 1.491 . S
C492 H483 0.950 . S
C492 C491 1.398 . S
C492 C493 1.391 . S
C493 H481 0.950 . S
C493 C489 1.393 . S
C493 C492 1.391 . S
C494 H484 0.950 . S
C494 C495 1.386 . S
C494 C496 1.391 . S
C495 C494 1.386 . S
C495 C499 1.393 . S
C496 H485 0.950 . S
C496 C494 1.391 . S
C496 C497 1.400 . S
C497 C491 1.491 . S
C497 C496 1.400 . S
C497 C498 1.398 . S
C498 H486 0.950 . S
C498 C497 1.398 . S
C498 C499 1.391 . S
C499 H487 0.950 . S
C499 C495 1.393 . S
C499 C498 1.391 . S
H500 C508 0.950 . S
H501 C513 0.950 . S
H502 C510 0.950 . S
H503 C512 0.950 . S
H504 C514 0.950 . S
H505 C516 0.950 . S
H506 C518 0.950 . S
H507 C519 0.950 . S
C508 H500 0.950 . S
C508 C509 1.386 . S
C508 C510 1.391 . S
C509 C508 1.386 . S
C509 C513 1.393 . S
C510 H502 0.950 . S
C510 C508 1.391 . S
C510 C511 1.400 . S
C511 C510 1.400 . S
C511 C512 1.398 . S
C511 C517 1.491 . S
C512 H503 0.950 . S
C512 C511 1.398 . S
C512 C513 1.391 . S
C513 H501 0.950 . S
C513 C509 1.393 . S
C513 C512 1.391 . S
C514 H504 0.950 . S
C514 C515 1.386 . S
C514 C516 1.391 . S
C515 C514 1.386 . S
C515 C519 1.393 . S
C516 H505 0.950 . S
C516 C514 1.391 . S
C516 C517 1.400 . S
C517 C511 1.491 . S
C517 C516 1.400 . S
C517 C518 1.398 . S
C518 H506 0.950 . S
C518 C517 1.398 . S
C518 C519 1.391 . S
C519 H507 0.950 . S
C519 C515 1.393 . S
C519 C518 1.391 . S
H520 C528 0.950 . S
H521 C533 0.950 . S
H522 C530 0.950 . S
H523 C532 0.950 . S
H524 C534 0.950 . S
H525 C536 0.950 . S
H526 C538 0.950 . S
H527 C539 0.950 . S
C528 H520 0.950 . S
C528 C529 1.386 . S
C528 C530 1.391 . S
C529 C528 1.386 . S
C529 C533 1.393 . S
C530 H522 0.950 . S
C530 C528 1.391 . S
C530 C531 1.400 . S
C531 C530 1.400 . S
C531 C532 1.398 . S
C531 C537 1.491 . S
C532 H523 0.950 . S
C532 C531 1.398 . S
C532 C533 1.391 . S
C533 H521 0.950 . S
C533 C529 1.393 . S
C533 C532 1.391 . S
C534 H524 0.950 . S
C534 C535 1.386 . S
C534 C536 1.391 . S
C535 C534 1.386 . S
C535 C539 1.393 . S
C536 H525 0.950 . S
C536 C534 1.391 . S
C536 C537 1.400 . S
C537 C531 1.491 . S
C537 C536 1.400 . S
C537 C538 1.398 . S
C538 H526 0.950 . S
C538 C537 1.398 . S
C538 C539 1.391 . S
C539 H527 0.950 . S
C539 C535 1.393 . S
C539 C538 1.391 . S
H540 C548 0.950 . S
H541 C553 0.950 . S
H542 C550 0.950 . S
H543 C552 0.950 . S
H544 C554 0.950 . S
H545 C556 0.950 . S
H546 C558 0.950 . S
H547 C559 0.950 . S
C548 H540 0.950 . S
C548 C549 1.386 . S
C548 C550 1.391 . S
C549 C548 1.386 . S
C549 C553 1.393 . S
C550 H542 0.950 . S
C550 C548 1.391 . S
C550 C551 1.400 . S
C551 C550 1.400 . S
C551 C552 1.398 . S
C551 C557 1.491 . S
C552 H543 0.950 . S
C552 C551 1.398 . S
C552 C553 1.391 . S
C553 H541 0.950 . S
C553 C549 1.393 . S
C553 C552 1.391 . S
C554 H544 0.950 . S
C554 C555 1.386 . S
C554 C556 1.391 . S
C555 C554 1.386 . S
C555 C559 1.393 . S
C556 H545 0.950 . S
C556 C554 1.391 . S
C556 C557 1.400 . S
C557 C551 1.491 . S
C557 C556 1.400 . S
C557 C558 1.398 . S
C558 H546 0.950 . S
C558 C557 1.398 . S
C558 C559 1.391 . S
C559 H547 0.950 . S
C559 C555 1.393 . S
C559 C558 1.391 . S
H560 C568 0.950 . S
H561 C573 0.950 . S
H562 C570 0.950 . S
H563 C572 0.950 . S
H564 C574 0.950 . S
H565 C576 0.950 . S
H566 C578 0.950 . S
H567 C579 0.950 . S
C568 H560 0.950 . S
C568 C569 1.386 . S
C568 C570 1.391 . S
C569 C568 1.386 . S
C569 C573 1.393 . S
C570 H562 0.950 . S
C570 C568 1.391 . S
C570 C571 1.400 . S
C571 C570 1.400 . S
C571 C572 1.398 . S
C571 C577 1.491 . S
C572 H563 0.950 . S
C572 C571 1.398 . S
C572 C573 1.391 . S
C573 H561 0.950 . S
C573 C569 1.393 . S
C573 C572 1.391 . S
C574 H564 0.950 . S
C574 C575 1.386 . S
C574 C576 1.391 . S
C575 C574 1.386 . S
C575 C579 1.393 . S
C576 H565 0.950 . S
C576 C574 1.391 . S
C576 C577 1.400 . S
C577 C571 1.491 . S
C577 C576 1.400 . S
C577 C578 1.398 . S
C578 H566 0.950 . S
C578 C577 1.398 . S
C578 C579 1.391 . S
C579 H567 0.950 . S
C579 C575 1.393 . S
C579 C578 1.391 . S
H580 C588 0.950 . S
H581 C593 0.950 . S
H582 C590 0.950 . S
H583 C592 0.950 . S
H584 C594 0.950 . S
H585 C596 0.950 . S
H586 C598 0.950 . S
H587 C599 0.950 . S
C588 H580 0.950 . S
C588 C589 1.386 . S
C588 C590 1.391 . S
C589 C588 1.386 . S
C589 C593 1.393 . S
C590 H582 0.950 . S
C590 C588 1.391 . S
C590 C591 1.400 . S
C591 C590 1.400 . S
C591 C592 1.398 . S
C591 C597 1.491 . S
C592 H583 0.950 . S
C592 C591 1.398 . S
C592 C593 1.391 . S
C593 H581 0.950 . S
C593 C589 1.393 . S
C593 C592 1.391 . S
C594 H584 0.950 . S
C594 C595 1.386 . S
C594 C596 1.391 . S
C595 C594 1.386 . S
C595 C599 1.393 . S
C596 H585 0.950 . S
C596 C594 1.391 . S
C596 C597 1.400 . S
C597 C591 1.491 . S
C597 C596 1.400 . S
C597 C598 1.398 . S
C598 H586 0.950 . S
C598 C597 1.398 . S
C598 C599 1.391 . S
C599 H587 0.950 . S
C599 C595 1.393 . S
C599 C598 1.391 . S
H600 C608 0.950 . S
H601 C613 0.950 . S
H602 C610 0.950 . S
H603 C612 0.950 . S
H604 C614 0.950 . S
H605 C616 0.950 . S
H606 C618 0.950 . S
H607 C619 0.950 . S
C608 H600 0.950 . S
C608 C609 1.386 1_556 S
C608 C610 1.391 1_655 S
C609 C608 1.386 1_554 S
C609 C613 1.393 . S
C610 H602 0.950 . S
C610 C608 1.391 1_455 S
C610 C611 1.400 1_556 S
C611 C610 1.400 1_554 S
C611 C612 1.398 1_455 S
C611 C617 1.491 . S
C612 H603 0.950 . S
C612 C611 1.398 1_655 S
C612 C613 1.391 . S
C613 H601 0.950 . S
C613 C609 1.393 . S
C613 C612 1.391 . S
C614 H604 0.950 . S
C614 C615 1.386 . S
C614 C616 1.391 . S
C615 C614 1.386 . S
C615 C619 1.393 . S
C616 H605 0.950 . S
C616 C614 1.391 . S
C616 C617 1.400 . S
C617 C611 1.491 . S
C617 C616 1.400 . S
C617 C618 1.398 . S
C618 H606 0.950 . S
C618 C617 1.398 . S
C618 C619 1.391 . S
C619 H607 0.950 . S
C619 C615 1.393 . S
C619 C618 1.391 . S
H620 C628 0.950 . S
H621 C633 0.950 . S
H622 C630 0.956 . S
H623 C632 0.950 . S
H624 C634 0.950 . S
H625 C636 0.950 . S
H626 C638 0.950 . S
H627 C639 0.950 . S
C628 H620 0.950 . S
C628 C629 1.386 1_556 S
C628 C630 1.397 . S
C629 C628 1.386 1_554 S
C629 C633 1.393 . S
C630 H622 0.956 . S
C630 C628 1.397 . S
C630 C631 1.388 1_556 S
C631 C630 1.388 1_554 S
C631 C632 1.398 . S
C631 C637 1.491 . S
C632 H623 0.950 . S
C632 C631 1.398 . S
C632 C633 1.391 . S
C633 H621 0.950 . S
C633 C629 1.393 . S
C633 C632 1.391 . S
C634 H624 0.950 . S
C634 C635 1.386 . S
C634 C636 1.391 . S
C635 C634 1.386 . S
C635 C639 1.393 . S
C636 H625 0.950 . S
C636 C634 1.391 . S
C636 C637 1.400 . S
C637 C631 1.491 . S
C637 C636 1.400 . S
C637 C638 1.398 . S
C638 H626 0.950 . S
C638 C637 1.398 . S
C638 C639 1.391 . S
C639 H627 0.950 . S
C639 C635 1.393 . S
C639 C638 1.391 . S
H640 C648 0.950 . S
H641 C653 0.950 . S
H642 C650 0.950 . S
H643 C652 0.950 1_556 S
H644 C654 0.950 . S
H645 C656 0.950 . S
H646 C658 0.950 1_545 S
H647 C659 0.950 . S
C648 H640 0.950 . S
C648 C649 1.386 . S
C648 C650 1.391 . S
C649 C648 1.386 . S
C649 C653 1.393 1_554 S
C650 H642 0.950 . S
C650 C648 1.391 . S
C650 C651 1.400 . S
C651 C650 1.400 . S
C651 C652 1.398 . S
C651 C657 1.491 1_545 S
C652 H643 0.950 1_554 S
C652 C651 1.398 . S
C652 C653 1.391 1_554 S
C653 H641 0.950 . S
C653 C649 1.393 1_556 S
C653 C652 1.391 1_556 S
C654 H644 0.950 . S
C654 C655 1.386 . S
C654 C656 1.391 . S
C655 C654 1.386 . S
C655 C659 1.393 . S
C656 H645 0.950 . S
C656 C654 1.391 . S
C656 C657 1.400 . S
C657 C651 1.491 1_565 S
C657 C656 1.400 . S
C657 C658 1.398 . S
C658 H646 0.950 1_565 S
C658 C657 1.398 . S
C658 C659 1.391 . S
C659 H647 0.950 . S
C659 C655 1.393 . S
C659 C658 1.391 . S
H660 C668 0.950 . S
H661 C673 0.950 . S
H662 C670 0.950 . S
H663 C672 0.950 . S
H664 C674 0.950 . S
H665 C676 0.950 . S
H666 C678 0.950 . S
H667 C679 0.950 . S
C668 H660 0.950 . S
C668 C669 1.386 . S
C668 C670 1.391 . S
C669 C668 1.386 . S
C669 C673 1.393 . S
C670 H662 0.950 . S
C670 C668 1.391 . S
C670 C671 1.400 . S
C671 C670 1.400 . S
C671 C672 1.398 . S
C671 C677 1.491 . S
C672 H663 0.950 . S
C672 C671 1.398 . S
C672 C673 1.391 . S
C673 H661 0.950 . S
C673 C669 1.393 . S
C673 C672 1.391 . S
C674 H664 0.950 . S
C674 C675 1.386 . S
C674 C676 1.391 1_565 S
C675 C674 1.386 . S
C675 C679 1.393 . S
C676 H665 0.950 . S
C676 C674 1.391 1_545 S
C676 C677 1.400 . S
C677 C671 1.491 . S
C677 C676 1.400 . S
C677 C678 1.398 . S
C678 H666 0.950 . S
C678 C677 1.398 . S
C678 C679 1.391 1_545 S
C679 H667 0.950 . S
C679 C675 1.393 . S
C679 C678 1.391 1_565 S
H680 C688 0.950 . S
H681 C693 0.950 . S
H682 C690 0.948 . S
H683 C692 0.950 . S
H684 C694 0.950 . S
H685 C696 0.915 1_455 S
H686 C698 0.950 . S
H687 C699 0.950 . S
C688 H680 0.950 . S
C688 C689 1.386 1_554 S
C688 C690 1.391 . S
C689 C688 1.386 1_556 S
C689 C693 1.393 . S
C690 H682 0.948 . S
C690 C688 1.391 . S
C690 C691 1.400 1_554 S
C691 C690 1.400 1_556 S
C691 C692 1.398 . S
C691 C697 1.491 1_455 S
C692 H683 0.950 . S
C692 C691 1.398 . S
C692 C693 1.391 . S
C693 H681 0.950 . S
C693 C689 1.393 . S
C693 C692 1.391 . S
C694 H684 0.950 . S
C694 C695 1.386 . S
C694 C696 1.391 . S
C695 C694 1.386 . S
C695 C699 1.393 . S
C696 H685 0.915 1_655 S
C696 C694 1.391 . S
C696 C697 1.400 . S
C697 C691 1.491 1_655 S
C697 C696 1.400 . S
C697 C698 1.398 . S
C698 H686 0.950 . S
C698 C697 1.398 . S
C698 C699 1.391 . S
C699 H687 0.950 . S
C699 C695 1.393 . S
C699 C698 1.391 . S
H700 C708 0.950 1_554 S
H701 C713 0.950 . S
H702 C710 0.950 . S
H703 C712 0.950 . S
H704 C714 0.950 . S
H705 C716 0.950 . S
H706 C718 0.950 . S
H707 C719 0.950 . S
C708 H700 0.950 1_556 S
C708 C709 1.386 . S
C708 C710 1.391 . S
C709 C708 1.386 . S
C709 C713 1.393 . S
C710 H702 0.950 . S
C710 C708 1.391 . S
C710 C711 1.400 . S
C711 C710 1.400 . S
C711 C712 1.398 . S
C711 C717 1.491 . S
C712 H703 0.950 . S
C712 C711 1.398 . S
C712 C713 1.391 . S
C713 H701 0.950 . S
C713 C709 1.393 . S
C713 C712 1.391 . S
C714 H704 0.950 . S
C714 C715 1.386 . S
C714 C716 1.391 . S
C715 C714 1.386 . S
C715 C719 1.393 . S
C716 H705 0.950 . S
C716 C714 1.391 . S
C716 C717 1.400 . S
C717 C711 1.491 . S
C717 C716 1.400 . S
C717 C718 1.398 . S
C718 H706 0.950 . S
C718 C717 1.398 . S
C718 C719 1.391 . S
C719 H707 0.950 . S
C719 C715 1.393 . S
C719 C718 1.391 . S
H720 C728 0.950 . S
H721 C733 0.950 . S
H722 C730 0.950 . S
H723 C732 0.950 . S
H724 C734 0.950 . S
H725 C736 0.950 . S
H726 C738 0.950 . S
H727 C739 0.950 . S
C728 H720 0.950 . S
C728 C729 1.386 . S
C728 C730 1.391 . S
C729 C728 1.386 . S
C729 C733 1.393 . S
C730 H722 0.950 . S
C730 C728 1.391 . S
C730 C731 1.400 . S
C731 C730 1.400 . S
C731 C732 1.398 . S
C731 C737 1.491 . S
C732 H723 0.950 . S
C732 C731 1.398 . S
C732 C733 1.391 . S
C733 H721 0.950 . S
C733 C729 1.393 . S
C733 C732 1.391 . S
C734 H724 0.950 . S
C734 C735 1.386 . S
C734 C736 1.391 . S
C735 C734 1.386 . S
C735 C739 1.393 . S
C736 H725 0.950 . S
C736 C734 1.391 . S
C736 C737 1.400 . S
C737 C731 1.491 . S
C737 C736 1.400 . S
C737 C738 1.398 . S
C738 H726 0.950 . S
C738 C737 1.398 . S
C738 C739 1.391 . S
C739 H727 0.950 . S
C739 C735 1.393 . S
C739 C738 1.391 . S
H740 C748 0.950 . S
H741 C753 0.950 . S
H742 C750 0.950 . S
H743 C752 0.950 . S
H744 C754 0.950 . S
H745 C756 0.950 . S
H746 C758 0.950 . S
H747 C759 0.950 . S
C748 H740 0.950 . S
C748 C749 1.386 . S
C748 C750 1.391 . S
C749 C748 1.386 . S
C749 C753 1.393 . S
C750 H742 0.950 . S
C750 C748 1.391 . S
C750 C751 1.400 . S
C751 C750 1.400 . S
C751 C752 1.398 . S
C751 C757 1.491 . S
C752 H743 0.950 . S
C752 C751 1.398 . S
C752 C753 1.391 . S
C753 H741 0.950 . S
C753 C749 1.393 . S
C753 C752 1.391 . S
C754 H744 0.950 . S
C754 C755 1.386 . S
C754 C756 1.391 . S
C755 C754 1.386 . S
C755 C759 1.393 . S
C756 H745 0.950 . S
C756 C754 1.391 . S
C756 C757 1.400 . S
C757 C751 1.491 . S
C757 C756 1.400 . S
C757 C758 1.398 . S
C758 H746 0.950 . S
C758 C757 1.398 . S
C758 C759 1.391 . S
C759 H747 0.950 . S
C759 C755 1.393 . S
C759 C758 1.391 . S
H760 C768 0.950 . S
H761 C773 0.950 . S
H762 C770 0.950 . S
H763 C772 0.950 . S
H764 C774 0.950 . S
H765 C776 0.950 . S
H766 C778 0.950 . S
H767 C779 0.950 . S
C768 H760 0.950 . S
C768 C769 1.386 . S
C768 C770 1.391 . S
C769 C768 1.386 . S
C769 C773 1.393 . S
C770 H762 0.950 . S
C770 C768 1.391 . S
C770 C771 1.400 . S
C771 C770 1.400 . S
C771 C772 1.398 . S
C771 C777 1.491 . S
C772 H763 0.950 . S
C772 C771 1.398 . S
C772 C773 1.391 . S
C773 H761 0.950 . S
C773 C769 1.393 . S
C773 C772 1.391 . S
C774 H764 0.950 . S
C774 C775 1.386 . S
C774 C776 1.391 . S
C775 C774 1.386 . S
C775 C779 1.393 . S
C776 H765 0.950 . S
C776 C774 1.391 . S
C776 C777 1.400 . S
C777 C771 1.491 . S
C777 C776 1.400 . S
C777 C778 1.398 . S
C778 H766 0.950 . S
C778 C777 1.398 . S
C778 C779 1.391 . S
C779 H767 0.950 . S
C779 C775 1.393 . S
C779 C778 1.391 . S
H780 C788 0.950 . S
H781 C793 0.950 . S
H782 C790 0.950 . S
H783 C792 0.950 . S
H784 C794 0.950 . S
H785 C796 0.950 . S
H786 C798 0.950 . S
H787 C799 0.950 . S
C788 H780 0.950 . S
C788 C789 1.386 . S
C788 C790 1.391 . S
C789 C788 1.386 . S
C789 C793 1.393 . S
C790 H782 0.950 . S
C790 C788 1.391 . S
C790 C791 1.400 . S
C791 C790 1.400 . S
C791 C792 1.398 . S
C791 C797 1.491 . S
C792 H783 0.950 . S
C792 C791 1.398 . S
C792 C793 1.391 . S
C793 H781 0.950 . S
C793 C789 1.393 . S
C793 C792 1.391 . S
C794 H784 0.950 . S
C794 C795 1.386 . S
C794 C796 1.391 . S
C795 C794 1.386 . S
C795 C799 1.393 . S
C796 H785 0.950 . S
C796 C794 1.391 . S
C796 C797 1.400 . S
C797 C791 1.491 . S
C797 C796 1.400 . S
C797 C798 1.398 . S
C798 H786 0.950 . S
C798 C797 1.398 . S
C798 C799 1.391 . S
C799 H787 0.950 . S
C799 C795 1.393 . S
C799 C798 1.391 . S
H800 C808 0.950 . S
H801 C813 0.950 . S
H802 C810 0.950 . S
H803 C812 0.950 . S
H804 C814 0.950 . S
H805 C816 0.950 . S
H806 C818 0.950 . S
H807 C819 0.950 . S
C808 H800 0.950 . S
C808 C809 1.386 . S
C808 C810 1.391 . S
C809 C808 1.386 . S
C809 C813 1.393 . S
C810 H802 0.950 . S
C810 C808 1.391 . S
C810 C811 1.400 . S
C811 C810 1.400 . S
C811 C812 1.398 . S
C811 C817 1.491 . S
C812 H803 0.950 . S
C812 C811 1.398 . S
C812 C813 1.391 . S
C813 H801 0.950 . S
C813 C809 1.393 . S
C813 C812 1.391 . S
C814 H804 0.950 . S
C814 C815 1.386 . S
C814 C816 1.391 . S
C815 C814 1.386 . S
C815 C819 1.393 . S
C816 H805 0.950 . S
C816 C814 1.391 . S
C816 C817 1.400 . S
C817 C811 1.491 . S
C817 C816 1.400 . S
C817 C818 1.398 . S
C818 H806 0.950 . S
C818 C817 1.398 . S
C818 C819 1.391 . S
C819 H807 0.950 . S
C819 C815 1.393 . S
C819 C818 1.391 . S
H820 C828 0.950 . S
H821 C833 0.950 . S
H822 C830 0.950 . S
H823 C832 0.950 . S
H824 C834 0.950 . S
H825 C836 0.950 . S
H826 C838 0.950 . S
H827 C839 0.950 . S
C828 H820 0.950 . S
C828 C829 1.386 . S
C828 C830 1.391 . S
C829 C828 1.386 . S
C829 C833 1.393 . S
C830 H822 0.950 . S
C830 C828 1.391 . S
C830 C831 1.400 . S
C831 C830 1.400 . S
C831 C832 1.398 . S
C831 C837 1.491 . S
C832 H823 0.950 . S
C832 C831 1.398 . S
C832 C833 1.391 . S
C833 H821 0.950 . S
C833 C829 1.393 . S
C833 C832 1.391 . S
C834 H824 0.950 . S
C834 C835 1.386 . S
C834 C836 1.391 . S
C835 C834 1.386 . S
C835 C839 1.393 . S
C836 H825 0.950 . S
C836 C834 1.391 . S
C836 C837 1.400 . S
C837 C831 1.491 . S
C837 C836 1.400 . S
C837 C838 1.398 . S
C838 H826 0.950 . S
C838 C837 1.398 . S
C838 C839 1.391 . S
C839 H827 0.950 . S
C839 C835 1.393 . S
C839 C838 1.391 . S
H840 C848 0.950 . S
H841 C853 0.950 . S
H842 C850 0.950 . S
H843 C852 0.950 . S
H844 C854 0.950 . S
H845 C856 0.950 . S
H846 C858 0.950 . S
H847 C859 0.950 . S
C848 H840 0.950 . S
C848 C849 1.386 . S
C848 C850 1.391 . S
C849 C848 1.386 . S
C849 C853 1.393 . S
C850 H842 0.950 . S
C850 C848 1.391 . S
C850 C851 1.400 . S
C851 C850 1.400 . S
C851 C852 1.398 . S
C851 C857 1.491 . S
C852 H843 0.950 . S
C852 C851 1.398 . S
C852 C853 1.391 . S
C853 H841 0.950 . S
C853 C849 1.393 . S
C853 C852 1.391 . S
C854 H844 0.950 . S
C854 C855 1.386 . S
C854 C856 1.391 . S
C855 C854 1.386 . S
C855 C859 1.393 . S
C856 H845 0.950 . S
C856 C854 1.391 . S
C856 C857 1.400 . S
C857 C851 1.491 . S
C857 C856 1.400 . S
C857 C858 1.398 . S
C858 H846 0.950 . S
C858 C857 1.398 . S
C858 C859 1.391 . S
C859 H847 0.950 . S
C859 C855 1.393 . S
C859 C858 1.391 . S
H860 C868 0.950 . S
H861 C873 0.950 . S
H862 C870 0.950 . S
H863 C872 0.950 . S
H864 C874 0.950 . S
H865 C876 0.950 . S
H866 C878 0.950 . S
H867 C879 0.950 . S
C868 H860 0.950 . S
C868 C869 1.386 . S
C868 C870 1.391 . S
C869 C868 1.386 . S
C869 C873 1.393 . S
C870 H862 0.950 . S
C870 C868 1.391 . S
C870 C871 1.400 . S
C871 C870 1.400 . S
C871 C872 1.398 . S
C871 C877 1.491 . S
C872 H863 0.950 . S
C872 C871 1.398 . S
C872 C873 1.391 . S
C873 H861 0.950 . S
C873 C869 1.393 . S
C873 C872 1.391 . S
C874 H864 0.950 . S
C874 C875 1.386 . S
C874 C876 1.391 . S
C875 C874 1.386 . S
C875 C879 1.393 . S
C876 H865 0.950 . S
C876 C874 1.391 . S
C876 C877 1.400 . S
C877 C871 1.491 . S
C877 C876 1.400 . S
C877 C878 1.398 . S
C878 H866 0.950 . S
C878 C877 1.398 . S
C878 C879 1.391 . S
C879 H867 0.950 . S
C879 C875 1.393 . S
C879 C878 1.391 . S
H880 C888 0.950 . S
H881 C893 0.950 . S
H882 C890 0.950 . S
H883 C892 0.950 . S
H884 C894 0.950 . S
H885 C896 0.950 . S
H886 C898 0.950 . S
H887 C899 0.950 . S
C888 H880 0.950 . S
C888 C889 1.386 . S
C888 C890 1.391 . S
C889 C888 1.386 . S
C889 C893 1.393 . S
C890 H882 0.950 . S
C890 C888 1.391 . S
C890 C891 1.400 . S
C891 C890 1.400 . S
C891 C892 1.398 . S
C891 C897 1.491 . S
C892 H883 0.950 . S
C892 C891 1.398 . S
C892 C893 1.391 . S
C893 H881 0.950 . S
C893 C889 1.393 . S
C893 C892 1.391 . S
C894 H884 0.950 . S
C894 C895 1.386 . S
C894 C896 1.391 . S
C895 C894 1.386 . S
C895 C899 1.393 . S
C896 H885 0.950 . S
C896 C894 1.391 . S
C896 C897 1.400 . S
C897 C891 1.491 . S
C897 C896 1.400 . S
C897 C898 1.398 . S
C898 H886 0.950 . S
C898 C897 1.398 . S
C898 C899 1.391 . S
C899 H887 0.950 . S
C899 C895 1.393 . S
C899 C898 1.391 . S
H900 C908 0.950 . S
H901 C913 0.950 . S
H902 C910 0.950 . S
H903 C912 0.950 . S
H904 C914 0.950 . S
H905 C916 0.950 . S
H906 C918 0.950 . S
H907 C919 0.950 . S
C908 H900 0.950 . S
C908 C909 1.386 . S
C908 C910 1.391 . S
C909 C908 1.386 . S
C909 C913 1.393 . S
C910 H902 0.950 . S
C910 C908 1.391 . S
C910 C911 1.400 . S
C911 C910 1.400 . S
C911 C912 1.398 . S
C911 C917 1.491 . S
C912 H903 0.950 . S
C912 C911 1.398 . S
C912 C913 1.391 . S
C913 H901 0.950 . S
C913 C909 1.393 . S
C913 C912 1.391 . S
C914 H904 0.950 . S
C914 C915 1.386 . S
C914 C916 1.391 . S
C915 C914 1.386 . S
C915 C919 1.393 . S
C916 H905 0.950 . S
C916 C914 1.391 . S
C916 C917 1.400 . S
C917 C911 1.491 . S
C917 C916 1.400 . S
C917 C918 1.398 . S
C918 H906 0.950 . S
C918 C917 1.398 . S
C918 C919 1.391 . S
C919 H907 0.950 . S
C919 C915 1.393 . S
C919 C918 1.391 . S
H920 C928 0.950 . S
H921 C933 0.950 . S
H922 C930 0.950 . S
H923 C932 0.950 . S
H924 C934 0.950 . S
H925 C936 0.950 . S
H926 C938 0.950 . S
H927 C939 0.950 . S
C928 H920 0.950 . S
C928 C929 1.386 . S
C928 C930 1.391 . S
C929 C928 1.386 . S
C929 C933 1.393 . S
C930 H922 0.950 . S
C930 C928 1.391 . S
C930 C931 1.400 . S
C931 C930 1.400 . S
C931 C932 1.398 . S
C931 C937 1.491 . S
C932 H923 0.950 . S
C932 C931 1.398 . S
C932 C933 1.391 . S
C933 H921 0.950 . S
C933 C929 1.393 . S
C933 C932 1.391 . S
C934 H924 0.950 . S
C934 C935 1.386 . S
C934 C936 1.391 . S
C935 C934 1.386 . S
C935 C939 1.393 . S
C936 H925 0.950 . S
C936 C934 1.391 . S
C936 C937 1.400 . S
C937 C931 1.491 . S
C937 C936 1.400 . S
C937 C938 1.398 . S
C938 H926 0.950 . S
C938 C937 1.398 . S
C938 C939 1.391 . S
C939 H927 0.950 . S
C939 C935 1.393 . S
C939 C938 1.391 . S
H940 C948 0.950 . S
H941 C953 0.950 . S
H942 C950 0.950 . S
H943 C952 0.950 . S
H944 C954 0.950 . S
H945 C956 0.950 . S
H946 C958 0.950 . S
H947 C959 0.950 . S
C948 H940 0.950 . S
C948 C949 1.386 . S
C948 C950 1.391 . S
C949 C948 1.386 . S
C949 C953 1.393 . S
C950 H942 0.950 . S
C950 C948 1.391 . S
C950 C951 1.400 . S
C951 C950 1.400 . S
C951 C952 1.398 . S
C951 C957 1.491 . S
C952 H943 0.950 . S
C952 C951 1.398 . S
C952 C953 1.391 . S
C953 H941 0.950 . S
C953 C949 1.393 . S
C953 C952 1.391 . S
C954 H944 0.950 . S
C954 C955 1.386 . S
C954 C956 1.391 . S
C955 C954 1.386 . S
C955 C959 1.393 . S
C956 H945 0.950 . S
C956 C954 1.391 . S
C956 C957 1.400 . S
C957 C951 1.491 . S
C957 C956 1.400 . S
C957 C958 1.398 . S
C958 H946 0.950 . S
C958 C957 1.398 . S
C958 C959 1.391 . S
C959 H947 0.950 . S
C959 C955 1.393 . S
C959 C958 1.391 . S
H960 C968 0.950 . S
H961 C973 0.950 1_556 S
H962 C970 0.950 . S
H963 C972 0.950 1_556 S
H964 C974 0.950 . S
H965 C976 0.950 . S
H966 C978 0.950 . S
H967 C979 0.950 . S
C968 H960 0.950 . S
C968 C969 1.386 . S
C968 C970 1.391 . S
C969 C968 1.386 . S
C969 C973 1.393 . S
C970 H962 0.950 . S
C970 C968 1.391 . S
C970 C971 1.400 . S
C971 C970 1.400 . S
C971 C972 1.398 . S
C971 C977 1.491 . S
C972 H963 0.950 1_554 S
C972 C971 1.398 . S
C972 C973 1.391 . S
C973 H961 0.950 1_554 S
C973 C969 1.393 . S
C973 C972 1.391 . S
C974 H964 0.950 . S
C974 C975 1.386 . S
C974 C976 1.391 . S
C975 C974 1.386 . S
C975 C979 1.393 . S
C976 H965 0.950 . S
C976 C974 1.391 . S
C976 C977 1.400 . S
C977 C971 1.491 . S
C977 C976 1.400 . S
C977 C978 1.398 . S
C978 H966 0.950 . S
C978 C977 1.398 . S
C978 C979 1.391 . S
C979 H967 0.950 . S
C979 C975 1.393 . S
C979 C978 1.391 . S
H980 C988 0.950 . S
H981 C993 0.950 . S
H982 C990 0.950 . S
H983 C992 0.950 . S
H984 C994 0.950 . S
H985 C996 0.950 . S
H986 C998 0.950 . S
H987 C999 0.950 . S
C988 H980 0.950 . S
C988 C989 1.386 . S
C988 C990 1.391 . S
C989 C988 1.386 . S
C989 C993 1.393 . S
C990 H982 0.950 . S
C990 C988 1.391 . S
C990 C991 1.400 . S
C991 C990 1.400 . S
C991 C992 1.398 . S
C991 C997 1.491 . S
C992 H983 0.950 . S
C992 C991 1.398 . S
C992 C993 1.391 . S
C993 H981 0.950 . S
C993 C989 1.393 . S
C993 C992 1.391 . S
C994 H984 0.950 . S
C994 C995 1.386 . S
C994 C996 1.391 . S
C995 C994 1.386 . S
C995 C999 1.393 . S
C996 H985 0.950 . S
C996 C994 1.391 . S
C996 C997 1.400 . S
C997 C991 1.491 . S
C997 C996 1.400 . S
C997 C998 1.398 . S
C998 H986 0.950 . S
C998 C997 1.398 . S
C998 C999 1.391 . S
C999 H987 0.950 . S
C999 C995 1.393 . S
C999 C998 1.391 . S
H1000 C1008 0.950 . S
H1001 C1013 0.950 . S
H1002 C1010 0.950 . S
H1003 C1012 0.950 . S
H1004 C1014 0.950 . S
H1005 C1016 0.950 . S
H1006 C1018 0.950 . S
H1007 C1019 0.950 1_556 S
C1008 H1000 0.950 . S
C1008 C1009 1.386 . S
C1008 C1010 1.391 . S
C1009 C1008 1.386 . S
C1009 C1013 1.393 . S
C1010 H1002 0.950 . S
C1010 C1008 1.391 . S
C1010 C1011 1.400 . S
C1011 C1010 1.400 . S
C1011 C1012 1.398 . S
C1011 C1017 1.491 . S
C1012 H1003 0.950 . S
C1012 C1011 1.398 . S
C1012 C1013 1.391 . S
C1013 H1001 0.950 . S
C1013 C1009 1.393 . S
C1013 C1012 1.391 . S
C1014 H1004 0.950 . S
C1014 C1015 1.386 . S
C1014 C1016 1.391 . S
C1015 C1014 1.386 . S
C1015 C1019 1.393 . S
C1016 H1005 0.950 . S
C1016 C1014 1.391 . S
C1016 C1017 1.400 . S
C1017 C1011 1.491 . S
C1017 C1016 1.400 . S
C1017 C1018 1.398 . S
C1018 H1006 0.950 . S
C1018 C1017 1.398 . S
C1018 C1019 1.391 . S
C1019 H1007 0.950 1_554 S
C1019 C1015 1.393 . S
C1019 C1018 1.391 . S
H1020 C1028 0.950 . S
H1021 C1033 0.950 . S
H1022 C1030 0.950 . S
H1023 C1032 0.950 . S
H1024 C1034 0.950 . S
H1025 C1036 0.950 . S
H1026 C1038 0.950 . S
H1027 C1039 0.950 . S
C1028 H1020 0.950 . S
C1028 C1029 1.386 . S
C1028 C1030 1.391 . S
C1029 C1028 1.386 . S
C1029 C1033 1.393 . S
C1030 H1022 0.950 . S
C1030 C1028 1.391 . S
C1030 C1031 1.400 . S
C1031 C1030 1.400 . S
C1031 C1032 1.398 . S
C1031 C1037 1.491 . S
C1032 H1023 0.950 . S
C1032 C1031 1.398 . S
C1032 C1033 1.391 . S
C1033 H1021 0.950 . S
C1033 C1029 1.393 . S
C1033 C1032 1.391 . S
C1034 H1024 0.950 . S
C1034 C1035 1.386 . S
C1034 C1036 1.391 . S
C1035 C1034 1.386 . S
C1035 C1039 1.393 . S
C1036 H1025 0.950 . S
C1036 C1034 1.391 . S
C1036 C1037 1.400 . S
C1037 C1031 1.491 . S
C1037 C1036 1.400 . S
C1037 C1038 1.398 . S
C1038 H1026 0.950 . S
C1038 C1037 1.398 . S
C1038 C1039 1.391 . S
C1039 H1027 0.950 . S
C1039 C1035 1.393 . S
C1039 C1038 1.391 . S
H1040 C1048 0.950 . S
H1041 C1053 0.950 . S
H1042 C1050 0.950 . S
H1043 C1052 0.950 . S
H1044 C1054 0.950 . S
H1045 C1056 0.950 . S
H1046 C1058 0.950 . S
H1047 C1059 0.950 . S
C1048 H1040 0.950 . S
C1048 C1049 1.386 . S
C1048 C1050 1.391 . S
C1049 C1048 1.386 . S
C1049 C1053 1.393 . S
C1050 H1042 0.950 . S
C1050 C1048 1.391 . S
C1050 C1051 1.400 . S
C1051 C1050 1.400 . S
C1051 C1052 1.398 . S
C1051 C1057 1.491 . S
C1052 H1043 0.950 . S
C1052 C1051 1.398 . S
C1052 C1053 1.391 . S
C1053 H1041 0.950 . S
C1053 C1049 1.393 . S
C1053 C1052 1.391 . S
C1054 H1044 0.950 . S
C1054 C1055 1.386 . S
C1054 C1056 1.391 . S
C1055 C1054 1.386 . S
C1055 C1059 1.393 . S
C1056 H1045 0.950 . S
C1056 C1054 1.391 . S
C1056 C1057 1.400 . S
C1057 C1051 1.491 . S
C1057 C1056 1.400 . S
C1057 C1058 1.398 . S
C1058 H1046 0.950 . S
C1058 C1057 1.398 . S
C1058 C1059 1.391 . S
C1059 H1047 0.950 . S
C1059 C1055 1.393 . S
C1059 C1058 1.391 . S
H1060 C1068 0.950 . S
H1061 C1073 0.950 . S
H1062 C1070 0.950 . S
H1063 C1072 0.950 . S
H1064 C1074 0.950 . S
H1065 C1076 0.950 . S
H1066 C1078 0.950 . S
H1067 C1079 0.950 . S
C1068 H1060 0.950 . S
C1068 C1069 1.386 . S
C1068 C1070 1.391 . S
C1069 C1068 1.386 . S
C1069 C1073 1.393 . S
C1070 H1062 0.950 . S
C1070 C1068 1.391 . S
C1070 C1071 1.400 . S
C1071 C1070 1.400 . S
C1071 C1072 1.398 . S
C1071 C1077 1.491 . S
C1072 H1063 0.950 . S
C1072 C1071 1.398 . S
C1072 C1073 1.391 . S
C1073 H1061 0.950 . S
C1073 C1069 1.393 . S
C1073 C1072 1.391 . S
C1074 H1064 0.950 . S
C1074 C1075 1.386 . S
C1074 C1076 1.391 . S
C1075 C1074 1.386 . S
C1075 C1079 1.393 . S
C1076 H1065 0.950 . S
C1076 C1074 1.391 . S
C1076 C1077 1.400 . S
C1077 C1071 1.491 . S
C1077 C1076 1.400 . S
C1077 C1078 1.398 . S
C1078 H1066 0.950 . S
C1078 C1077 1.398 . S
C1078 C1079 1.391 . S
C1079 H1067 0.950 . S
C1079 C1075 1.393 . S
C1079 C1078 1.391 . S
H1080 C1088 0.950 . S
H1081 C1093 0.950 . S
H1082 C1090 0.950 . S
H1083 C1092 0.950 . S
H1084 C1094 0.950 . S
H1085 C1096 0.952 . S
H1086 C1098 0.950 1_554 S
H1087 C1099 0.950 . S
C1088 H1080 0.950 . S
C1088 C1089 1.386 . S
C1088 C1090 1.391 . S
C1089 C1088 1.386 . S
C1089 C1093 1.393 . S
C1090 H1082 0.950 . S
C1090 C1088 1.391 . S
C1090 C1091 1.400 . S
C1091 C1090 1.400 . S
C1091 C1092 1.398 . S
C1091 C1097 1.491 . S
C1092 H1083 0.950 . S
C1092 C1091 1.398 . S
C1092 C1093 1.391 . S
C1093 H1081 0.950 . S
C1093 C1089 1.393 . S
C1093 C1092 1.391 . S
C1094 H1084 0.950 . S
C1094 C1095 1.386 . S
C1094 C1096 1.391 . S
C1095 C1094 1.386 . S
C1095 C1099 1.393 . S
C1096 H1085 0.952 . S
C1096 C1094 1.391 . S
C1096 C1097 1.400 1_556 S
C1097 C1091 1.491 . S
C1097 C1096 1.400 1_554 S
C1097 C1098 1.398 1_554 S
C1098 H1086 0.950 1_556 S
C1098 C1097 1.398 1_556 S
C1098 C1099 1.391 . S
C1099 H1087 0.950 . S
C1099 C1095 1.393 . S
C1099 C1098 1.391 . S
H1100 C1108 0.950 . S
H1101 C1113 0.950 . S
H1102 C1110 0.950 . S
H1103 C1112 0.950 . S
H1104 C1114 0.950 . S
H1105 C1116 0.950 1_554 S
H1106 C1118 0.951 . S
H1107 C1119 0.950 . S
C1108 H1100 0.950 . S
C1108 C1109 1.386 . S
C1108 C1110 1.391 . S
C1109 C1108 1.386 . S
C1109 C1113 1.393 . S
C1110 H1102 0.950 . S
C1110 C1108 1.391 . S
C1110 C1111 1.400 . S
C1111 C1110 1.400 . S
C1111 C1112 1.398 . S
C1111 C1117 1.491 . S
C1112 H1103 0.950 . S
C1112 C1111 1.398 . S
C1112 C1113 1.391 . S
C1113 H1101 0.950 . S
C1113 C1109 1.393 . S
C1113 C1112 1.391 . S
C1114 H1104 0.950 . S
C1114 C1115 1.386 . S
C1114 C1116 1.391 . S
C1115 C1114 1.386 . S
C1115 C1119 1.393 . S
C1116 H1105 0.950 1_556 S
C1116 C1114 1.391 . S
C1116 C1117 1.400 1_556 S
C1117 C1111 1.491 . S
C1117 C1116 1.400 1_554 S
C1117 C1118 1.398 1_554 S
C1118 H1106 0.951 . S
C1118 C1117 1.398 1_556 S
C1118 C1119 1.391 . S
C1119 H1107 0.950 . S
C1119 C1115 1.393 . S
C1119 C1118 1.391 . S
H1120 C1128 0.950 . S
H1121 C1133 0.950 . S
H1122 C1130 0.950 . S
H1123 C1132 0.950 . S
H1124 C1134 0.950 . S
H1125 C1136 0.953 . S
H1126 C1138 0.950 1_554 S
H1127 C1139 0.950 . S
C1128 H1120 0.950 . S
C1128 C1129 1.386 . S
C1128 C1130 1.391 . S
C1129 C1128 1.386 . S
C1129 C1133 1.393 . S
C1130 H1122 0.950 . S
C1130 C1128 1.391 . S
C1130 C1131 1.400 . S
C1131 C1130 1.400 . S
C1131 C1132 1.398 . S
C1131 C1137 1.491 . S
C1132 H1123 0.950 . S
C1132 C1131 1.398 . S
C1132 C1133 1.391 . S
C1133 H1121 0.950 . S
C1133 C1129 1.393 . S
C1133 C1132 1.391 . S
C1134 H1124 0.950 . S
C1134 C1135 1.386 . S
C1134 C1136 1.391 . S
C1135 C1134 1.386 . S
C1135 C1139 1.393 . S
C1136 H1125 0.953 . S
C1136 C1134 1.391 . S
C1136 C1137 1.400 1_556 S
C1137 C1131 1.491 . S
C1137 C1136 1.400 1_554 S
C1137 C1138 1.398 1_554 S
C1138 H1126 0.950 1_556 S
C1138 C1137 1.398 1_556 S
C1138 C1139 1.391 . S
C1139 H1127 0.950 . S
C1139 C1135 1.393 . S
C1139 C1138 1.391 . S
H1140 C1148 0.950 . S
H1141 C1153 0.950 . S
H1142 C1150 0.950 . S
H1143 C1152 0.950 . S
H1144 C1154 0.950 . S
H1145 C1156 0.950 1_556 S
H1146 C1158 0.950 . S
H1147 C1159 0.950 . S
C1148 H1140 0.950 . S
C1148 C1149 1.386 1_655 S
C1148 C1150 1.391 . S
C1149 C1148 1.386 1_455 S
C1149 C1153 1.393 . S
C1150 H1142 0.950 . S
C1150 C1148 1.391 . S
C1150 C1151 1.400 1_655 S
C1151 C1150 1.400 1_455 S
C1151 C1152 1.398 . S
C1151 C1157 1.491 . S
C1152 H1143 0.950 . S
C1152 C1151 1.398 . S
C1152 C1153 1.391 . S
C1153 H1141 0.950 . S
C1153 C1149 1.393 . S
C1153 C1152 1.391 . S
C1154 H1144 0.950 . S
C1154 C1155 1.386 . S
C1154 C1156 1.391 . S
C1155 C1154 1.386 . S
C1155 C1159 1.393 1_455 S
C1156 H1145 0.950 1_554 S
C1156 C1154 1.391 . S
C1156 C1157 1.400 1_554 S
C1157 C1151 1.491 . S
C1157 C1156 1.400 1_556 S
C1157 C1158 1.398 1_456 S
C1158 H1146 0.950 . S
C1158 C1157 1.398 1_654 S
C1158 C1159 1.391 . S
C1159 H1147 0.950 . S
C1159 C1155 1.393 1_655 S
C1159 C1158 1.391 . S
H1160 C1168 0.950 . S
H1161 C1173 0.950 . S
H1162 C1170 0.950 . S
H1163 C1172 0.950 1_556 S
H1164 C1174 0.950 . S
H1165 C1176 0.950 . S
H1166 C1178 0.950 . S
H1167 C1179 0.950 . S
C1168 H1160 0.950 . S
C1168 C1169 1.386 . S
C1168 C1170 1.391 . S
C1169 C1168 1.386 . S
C1169 C1173 1.393 . S
C1170 H1162 0.950 . S
C1170 C1168 1.391 . S
C1170 C1171 1.400 1_554 S
C1171 C1170 1.400 1_556 S
C1171 C1172 1.398 1_556 S
C1171 C1177 1.491 . S
C1172 H1163 0.950 1_554 S
C1172 C1171 1.398 1_554 S
C1172 C1173 1.391 . S
C1173 H1161 0.950 . S
C1173 C1169 1.393 . S
C1173 C1172 1.391 . S
C1174 H1164 0.950 . S
C1174 C1175 1.386 . S
C1174 C1176 1.391 . S
C1175 C1174 1.386 . S
C1175 C1179 1.393 . S
C1176 H1165 0.950 . S
C1176 C1174 1.391 . S
C1176 C1177 1.400 . S
C1177 C1171 1.491 . S
C1177 C1176 1.400 . S
C1177 C1178 1.398 . S
C1178 H1166 0.950 . S
C1178 C1177 1.398 . S
C1178 C1179 1.391 . S
C1179 H1167 0.950 . S
C1179 C1175 1.393 . S
C1179 C1178 1.391 . S
H1180 C1188 0.950 . S
H1181 C1193 0.950 . S
H1182 C1190 0.950 . S
H1183 C1192 0.950 1_556 S
H1184 C1194 0.950 1_565 S
H1185 C1196 0.939 1_565 S
H1186 C1198 0.950 . S
H1187 C1199 0.950 . S
C1188 H1180 0.950 . S
C1188 C1189 1.386 . S
C1188 C1190 1.391 . S
C1189 C1188 1.386 . S
C1189 C1193 1.393 1_545 S
C1190 H1182 0.950 . S
C1190 C1188 1.391 . S
C1190 C1191 1.400 1_554 S
C1191 C1190 1.400 1_556 S
C1191 C1192 1.398 1_546 S
C1191 C1197 1.491 . S
C1192 H1183 0.950 1_554 S
C1192 C1191 1.398 1_564 S
C1192 C1193 1.391 . S
C1193 H1181 0.950 . S
C1193 C1189 1.393 1_565 S
C1193 C1192 1.391 . S
C1194 H1184 0.950 1_545 S
C1194 C1195 1.386 . S
C1194 C1196 1.392 . S
C1195 C1194 1.386 . S
C1195 C1199 1.393 . S
C1196 H1185 0.939 1_545 S
C1196 C1194 1.392 . S
C1196 C1197 1.410 . S
C1197 C1191 1.491 . S
C1197 C1196 1.410 . S
C1197 C1198 1.398 . S
C1198 H1186 0.950 . S
C1198 C1197 1.398 . S
C1198 C1199 1.391 . S
C1199 H1187 0.950 . S
C1199 C1195 1.393 . S
C1199 C1198 1.391 . S
H1200 C1208 0.950 . S
H1201 C1213 0.950 . S
H1202 C1210 0.950 . S
H1203 C1212 0.950 . S
H1204 C1214 0.950 . S
H1205 C1216 0.950 . S
H1206 C1218 0.950 . S
H1207 C1219 0.950 . S
C1208 H1200 0.950 . S
C1208 C1209 1.386 . S
C1208 C1210 1.391 . S
C1209 C1208 1.386 . S
C1209 C1213 1.393 . S
C1210 H1202 0.950 . S
C1210 C1208 1.391 . S
C1210 C1211 1.400 . S
C1211 C1210 1.400 . S
C1211 C1212 1.398 . S
C1211 C1217 1.491 . S
C1212 H1203 0.950 . S
C1212 C1211 1.398 . S
C1212 C1213 1.391 . S
C1213 H1201 0.950 . S
C1213 C1209 1.393 . S
C1213 C1212 1.391 . S
C1214 H1204 0.950 . S
C1214 C1215 1.386 . S
C1214 C1216 1.391 . S
C1215 C1214 1.386 . S
C1215 C1219 1.393 . S
C1216 H1205 0.950 . S
C1216 C1214 1.391 . S
C1216 C1217 1.400 . S
C1217 C1211 1.491 . S
C1217 C1216 1.400 . S
C1217 C1218 1.398 . S
C1218 H1206 0.950 . S
C1218 C1217 1.398 . S
C1218 C1219 1.391 . S
C1219 H1207 0.950 . S
C1219 C1215 1.393 . S
C1219 C1218 1.391 . S
H1220 C1228 0.950 . S
H1221 C1233 0.950 . S
H1222 C1230 0.950 . S
H1223 C1232 0.950 . S
H1224 C1234 0.950 . S
H1225 C1236 0.950 . S
H1226 C1238 0.950 . S
H1227 C1239 0.950 . S
C1228 H1220 0.950 . S
C1228 C1229 1.386 . S
C1228 C1230 1.391 . S
C1229 C1228 1.386 . S
C1229 C1233 1.393 . S
C1230 H1222 0.950 . S
C1230 C1228 1.391 . S
C1230 C1231 1.400 . S
C1231 C1230 1.400 . S
C1231 C1232 1.398 . S
C1231 C1237 1.491 . S
C1232 H1223 0.950 . S
C1232 C1231 1.398 . S
C1232 C1233 1.391 . S
C1233 H1221 0.950 . S
C1233 C1229 1.393 . S
C1233 C1232 1.391 . S
C1234 H1224 0.950 . S
C1234 C1235 1.386 . S
C1234 C1236 1.391 . S
C1235 C1234 1.386 . S
C1235 C1239 1.393 . S
C1236 H1225 0.950 . S
C1236 C1234 1.391 . S
C1236 C1237 1.400 . S
C1237 C1231 1.491 . S
C1237 C1236 1.400 . S
C1237 C1238 1.398 . S
C1238 H1226 0.950 . S
C1238 C1237 1.398 . S
C1238 C1239 1.391 . S
C1239 H1227 0.950 . S
C1239 C1235 1.393 . S
C1239 C1238 1.391 . S
H1240 C1248 0.950 . S
H1241 C1253 0.950 . S
H1242 C1250 0.950 . S
H1243 C1252 0.950 . S
H1244 C1254 0.950 . S
H1245 C1256 0.950 . S
H1246 C1258 0.950 . S
H1247 C1259 0.950 . S
C1248 H1240 0.950 . S
C1248 C1249 1.386 . S
C1248 C1250 1.391 . S
C1249 C1248 1.386 . S
C1249 C1253 1.393 . S
C1250 H1242 0.950 . S
C1250 C1248 1.391 . S
C1250 C1251 1.400 . S
C1251 C1250 1.400 . S
C1251 C1252 1.398 . S
C1251 C1257 1.491 . S
C1252 H1243 0.950 . S
C1252 C1251 1.398 . S
C1252 C1253 1.391 . S
C1253 H1241 0.950 . S
C1253 C1249 1.393 . S
C1253 C1252 1.391 . S
C1254 H1244 0.950 . S
C1254 C1255 1.386 . S
C1254 C1256 1.391 . S
C1255 C1254 1.386 . S
C1255 C1259 1.393 . S
C1256 H1245 0.950 . S
C1256 C1254 1.391 . S
C1256 C1257 1.400 . S
C1257 C1251 1.491 . S
C1257 C1256 1.400 . S
C1257 C1258 1.398 . S
C1258 H1246 0.950 . S
C1258 C1257 1.398 . S
C1258 C1259 1.391 . S
C1259 H1247 0.950 . S
C1259 C1255 1.393 . S
C1259 C1258 1.391 . S
H1260 C1268 0.950 . S
H1261 C1273 0.950 . S
H1262 C1270 0.950 . S
H1263 C1272 0.950 . S
H1264 C1274 0.950 . S
H1265 C1276 0.950 . S
H1266 C1278 0.950 . S
H1267 C1279 0.950 . S
C1268 H1260 0.950 . S
C1268 C1269 1.386 . S
C1268 C1270 1.391 . S
C1269 C1268 1.386 . S
C1269 C1273 1.393 . S
C1270 H1262 0.950 . S
C1270 C1268 1.391 . S
C1270 C1271 1.400 . S
C1271 C1270 1.400 . S
C1271 C1272 1.398 . S
C1271 C1277 1.491 . S
C1272 H1263 0.950 . S
C1272 C1271 1.398 . S
C1272 C1273 1.391 . S
C1273 H1261 0.950 . S
C1273 C1269 1.393 . S
C1273 C1272 1.391 . S
C1274 H1264 0.950 . S
C1274 C1275 1.386 . S
C1274 C1276 1.391 . S
C1275 C1274 1.386 . S
C1275 C1279 1.393 . S
C1276 H1265 0.950 . S
C1276 C1274 1.391 . S
C1276 C1277 1.400 . S
C1277 C1271 1.491 . S
C1277 C1276 1.400 . S
C1277 C1278 1.398 . S
C1278 H1266 0.950 . S
C1278 C1277 1.398 . S
C1278 C1279 1.391 . S
C1279 H1267 0.950 . S
C1279 C1275 1.393 . S
C1279 C1278 1.391 . S
H1280 C1288 0.950 . S
H1281 C1293 0.950 . S
H1282 C1290 0.950 . S
H1283 C1292 0.950 . S
H1284 C1294 0.950 . S
H1285 C1296 0.950 . S
H1286 C1298 0.950 . S
H1287 C1299 0.950 . S
C1288 H1280 0.950 . S
C1288 C1289 1.386 . S
C1288 C1290 1.391 . S
C1289 C1288 1.386 . S
C1289 C1293 1.393 . S
C1290 H1282 0.950 . S
C1290 C1288 1.391 . S
C1290 C1291 1.400 . S
C1291 C1290 1.400 . S
C1291 C1292 1.398 . S
C1291 C1297 1.491 . S
C1292 H1283 0.950 . S
C1292 C1291 1.398 . S
C1292 C1293 1.391 . S
C1293 H1281 0.950 . S
C1293 C1289 1.393 . S
C1293 C1292 1.391 . S
C1294 H1284 0.950 . S
C1294 C1295 1.386 . S
C1294 C1296 1.391 . S
C1295 C1294 1.386 . S
C1295 C1299 1.393 . S
C1296 H1285 0.950 . S
C1296 C1294 1.391 . S
C1296 C1297 1.400 . S
C1297 C1291 1.491 . S
C1297 C1296 1.400 . S
C1297 C1298 1.398 . S
C1298 H1286 0.950 . S
C1298 C1297 1.398 . S
C1298 C1299 1.391 . S
C1299 H1287 0.950 . S
C1299 C1295 1.393 . S
C1299 C1298 1.391 . S
H1300 C1308 0.950 . S
H1301 C1313 0.950 . S
H1302 C1310 0.950 . S
H1303 C1312 0.950 . S
H1304 C1314 0.950 . S
H1305 C1316 0.950 . S
H1306 C1318 0.950 . S
H1307 C1319 0.950 . S
C1308 H1300 0.950 . S
C1308 C1309 1.386 . S
C1308 C1310 1.391 . S
C1309 C1308 1.386 . S
C1309 C1313 1.393 . S
C1310 H1302 0.950 . S
C1310 C1308 1.391 . S
C1310 C1311 1.400 . S
C1311 C1310 1.400 . S
C1311 C1312 1.398 . S
C1311 C1317 1.491 . S
C1312 H1303 0.950 . S
C1312 C1311 1.398 . S
C1312 C1313 1.391 . S
C1313 H1301 0.950 . S
C1313 C1309 1.393 . S
C1313 C1312 1.391 . S
C1314 H1304 0.950 . S
C1314 C1315 1.386 . S
C1314 C1316 1.391 . S
C1315 C1314 1.386 . S
C1315 C1319 1.393 . S
C1316 H1305 0.950 . S
C1316 C1314 1.391 . S
C1316 C1317 1.400 . S
C1317 C1311 1.491 . S
C1317 C1316 1.400 . S
C1317 C1318 1.398 . S
C1318 H1306 0.950 . S
C1318 C1317 1.398 . S
C1318 C1319 1.391 . S
C1319 H1307 0.950 . S
C1319 C1315 1.393 . S
C1319 C1318 1.391 . S
H1320 C1328 0.950 . S
H1321 C1333 0.950 . S
H1322 C1330 0.950 . S
H1323 C1332 0.950 . S
H1324 C1334 0.950 . S
H1325 C1336 0.950 . S
H1326 C1338 0.950 . S
H1327 C1339 0.950 . S
C1328 H1320 0.950 . S
C1328 C1329 1.386 . S
C1328 C1330 1.391 . S
C1329 C1328 1.386 . S
C1329 C1333 1.393 . S
C1330 H1322 0.950 . S
C1330 C1328 1.391 . S
C1330 C1331 1.400 . S
C1331 C1330 1.400 . S
C1331 C1332 1.398 . S
C1331 C1337 1.491 . S
C1332 H1323 0.950 . S
C1332 C1331 1.398 . S
C1332 C1333 1.391 . S
C1333 H1321 0.950 . S
C1333 C1329 1.393 . S
C1333 C1332 1.391 . S
C1334 H1324 0.950 . S
C1334 C1335 1.386 . S
C1334 C1336 1.391 . S
C1335 C1334 1.386 . S
C1335 C1339 1.393 . S
C1336 H1325 0.950 . S
C1336 C1334 1.391 . S
C1336 C1337 1.400 . S
C1337 C1331 1.491 . S
C1337 C1336 1.400 . S
C1337 C1338 1.398 . S
C1338 H1326 0.950 . S
C1338 C1337 1.398 . S
C1338 C1339 1.391 . S
C1339 H1327 0.950 . S
C1339 C1335 1.393 . S
C1339 C1338 1.391 . S
H1340 C1348 0.950 . S
H1341 C1353 0.950 . S
H1342 C1350 0.950 . S
H1343 C1352 0.950 . S
H1344 C1354 0.950 . S
H1345 C1356 0.950 . S
H1346 C1358 0.950 . S
H1347 C1359 0.950 . S
C1348 H1340 0.950 . S
C1348 C1349 1.386 . S
C1348 C1350 1.391 . S
C1349 C1348 1.386 . S
C1349 C1353 1.393 . S
C1350 H1342 0.950 . S
C1350 C1348 1.391 . S
C1350 C1351 1.400 . S
C1351 C1350 1.400 . S
C1351 C1352 1.398 . S
C1351 C1357 1.491 . S
C1352 H1343 0.950 . S
C1352 C1351 1.398 . S
C1352 C1353 1.391 . S
C1353 H1341 0.950 . S
C1353 C1349 1.393 . S
C1353 C1352 1.391 . S
C1354 H1344 0.950 . S
C1354 C1355 1.386 . S
C1354 C1356 1.391 . S
C1355 C1354 1.386 . S
C1355 C1359 1.393 . S
C1356 H1345 0.950 . S
C1356 C1354 1.391 . S
C1356 C1357 1.400 . S
C1357 C1351 1.491 . S
C1357 C1356 1.400 . S
C1357 C1358 1.398 . S
C1358 H1346 0.950 . S
C1358 C1357 1.398 . S
C1358 C1359 1.391 . S
C1359 H1347 0.950 . S
C1359 C1355 1.393 . S
C1359 C1358 1.391 . S
H1360 C1368 0.950 . S
H1361 C1373 0.950 . S
H1362 C1370 0.950 . S
H1363 C1372 0.950 . S
H1364 C1374 0.950 . S
H1365 C1376 0.950 . S
H1366 C1378 0.950 . S
H1367 C1379 0.950 . S
C1368 H1360 0.950 . S
C1368 C1369 1.386 . S
C1368 C1370 1.391 . S
C1369 C1368 1.386 . S
C1369 C1373 1.393 . S
C1370 H1362 0.950 . S
C1370 C1368 1.391 . S
C1370 C1371 1.400 . S
C1371 C1370 1.400 . S
C1371 C1372 1.398 . S
C1371 C1377 1.491 . S
C1372 H1363 0.950 . S
C1372 C1371 1.398 . S
C1372 C1373 1.391 . S
C1373 H1361 0.950 . S
C1373 C1369 1.393 . S
C1373 C1372 1.391 . S
C1374 H1364 0.950 . S
C1374 C1375 1.386 . S
C1374 C1376 1.391 . S
C1375 C1374 1.386 . S
C1375 C1379 1.393 . S
C1376 H1365 0.950 . S
C1376 C1374 1.391 . S
C1376 C1377 1.400 . S
C1377 C1371 1.491 . S
C1377 C1376 1.400 . S
C1377 C1378 1.398 . S
C1378 H1366 0.950 . S
C1378 C1377 1.398 . S
C1378 C1379 1.391 . S
C1379 H1367 0.950 . S
C1379 C1375 1.393 . S
C1379 C1378 1.391 . S
H1380 C1388 0.950 . S
H1381 C1393 0.950 . S
H1382 C1390 0.950 . S
H1383 C1392 0.950 . S
H1384 C1394 0.950 . S
H1385 C1396 0.950 . S
H1386 C1398 0.950 . S
H1387 C1399 0.950 . S
C1388 H1380 0.950 . S
C1388 C1389 1.386 . S
C1388 C1390 1.391 . S
C1389 C1388 1.386 . S
C1389 C1393 1.393 . S
C1390 H1382 0.950 . S
C1390 C1388 1.391 . S
C1390 C1391 1.400 . S
C1391 C1390 1.400 . S
C1391 C1392 1.398 . S
C1391 C1397 1.491 . S
C1392 H1383 0.950 . S
C1392 C1391 1.398 . S
C1392 C1393 1.391 . S
C1393 H1381 0.950 . S
C1393 C1389 1.393 . S
C1393 C1392 1.391 . S
C1394 H1384 0.950 . S
C1394 C1395 1.386 . S
C1394 C1396 1.391 . S
C1395 C1394 1.386 . S
C1395 C1399 1.393 . S
C1396 H1385 0.950 . S
C1396 C1394 1.391 . S
C1396 C1397 1.400 . S
C1397 C1391 1.491 . S
C1397 C1396 1.400 . S
C1397 C1398 1.398 . S
C1398 H1386 0.950 . S
C1398 C1397 1.398 . S
C1398 C1399 1.391 . S
C1399 H1387 0.950 . S
C1399 C1395 1.393 . S
C1399 C1398 1.391 . S
H1400 C1408 0.950 . S
H1401 C1413 0.950 . S
H1402 C1410 0.950 . S
H1403 C1412 0.950 . S
H1404 C1414 0.950 . S
H1405 C1416 0.950 . S
H1406 C1418 0.950 . S
H1407 C1419 0.950 . S
C1408 H1400 0.950 . S
C1408 C1409 1.386 . S
C1408 C1410 1.391 . S
C1409 C1408 1.386 . S
C1409 C1413 1.393 . S
C1410 H1402 0.950 . S
C1410 C1408 1.391 . S
C1410 C1411 1.400 . S
C1411 C1410 1.400 . S
C1411 C1412 1.398 . S
C1411 C1417 1.491 . S
C1412 H1403 0.950 . S
C1412 C1411 1.398 . S
C1412 C1413 1.391 . S
C1413 H1401 0.950 . S
C1413 C1409 1.393 . S
C1413 C1412 1.391 . S
C1414 H1404 0.950 . S
C1414 C1415 1.386 . S
C1414 C1416 1.391 . S
C1415 C1414 1.386 . S
C1415 C1419 1.393 . S
C1416 H1405 0.950 . S
C1416 C1414 1.391 . S
C1416 C1417 1.400 . S
C1417 C1411 1.491 . S
C1417 C1416 1.400 . S
C1417 C1418 1.398 . S
C1418 H1406 0.950 . S
C1418 C1417 1.398 . S
C1418 C1419 1.391 . S
C1419 H1407 0.950 . S
C1419 C1415 1.393 . S
C1419 C1418 1.391 . S
H1420 C1428 0.950 . S
H1421 C1433 0.950 . S
H1422 C1430 0.950 . S
H1423 C1432 0.950 . S
H1424 C1434 0.950 . S
H1425 C1436 0.950 . S
H1426 C1438 0.950 . S
H1427 C1439 0.950 . S
C1428 H1420 0.950 . S
C1428 C1429 1.386 . S
C1428 C1430 1.391 . S
C1429 C1428 1.386 . S
C1429 C1433 1.393 . S
C1430 H1422 0.950 . S
C1430 C1428 1.391 . S
C1430 C1431 1.400 . S
C1431 C1430 1.400 . S
C1431 C1432 1.398 . S
C1431 C1437 1.491 . S
C1432 H1423 0.950 . S
C1432 C1431 1.398 . S
C1432 C1433 1.391 . S
C1433 H1421 0.950 . S
C1433 C1429 1.393 . S
C1433 C1432 1.391 . S
C1434 H1424 0.950 . S
C1434 C1435 1.386 . S
C1434 C1436 1.391 . S
C1435 C1434 1.386 . S
C1435 C1439 1.393 . S
C1436 H1425 0.950 . S
C1436 C1434 1.391 . S
C1436 C1437 1.400 . S
C1437 C1431 1.491 . S
C1437 C1436 1.400 . S
C1437 C1438 1.398 . S
C1438 H1426 0.950 . S
C1438 C1437 1.398 . S
C1438 C1439 1.391 . S
C1439 H1427 0.950 . S
C1439 C1435 1.393 . S
C1439 C1438 1.391 . S
C369 C262 1.561 . S
C375 C19 1.682 . S
C389 C39 1.683 . S
C395 C282 1.571 . S
C409 C59 1.683 . S
C415 C242 1.563 . S
C429 C42 1.588 . S
C435 C159 1.665 . S
C449 C179 1.663 . S
C455 C2 1.586 . S
C469 C22 1.584 . S
C475 C139 1.679 . S
C489 C78 1.680 . S
C495 C204 1.557 . S
C509 C98 1.669 . S
C515 C224 1.556 . S
C529 C184 1.590 . S
C535 C118 1.669 . S
C549 C338 1.666 . S
C555 C104 1.559 . S
C569 C64 1.588 . S
C575 C358 1.665 . S
C589 C318 1.664 . S
C595 C84 1.563 . S
C609 C162 1.583 1_554 S
C615 C279 1.662 . S
C629 C122 1.575 1_554 S
C635 C299 1.661 . S
C649 C142 1.560 1_554 S
C655 C259 1.682 . S
C669 C198 1.670 . S
C675 C324 1.556 1_556 S
C689 C344 1.561 1_556 S
C695 C218 1.682 . S
C709 C304 1.555 1_556 S
C715 C238 1.671 . S
C729 C4 1.612 . S
C735 C99 1.622 . S
C749 C119 1.635 . S
C755 C24 1.625 . S
C769 C79 1.621 . S
C775 C44 1.610 . S
C789 C82 1.628 . S
C795 C58 1.637 . S
C809 C102 1.612 . S
C815 C18 1.624 . S
C829 C62 1.625 . S
C835 C38 1.633 . S
C849 C219 1.624 . S
C855 C124 1.612 . S
C869 C239 1.630 . S
C875 C144 1.618 . S
C889 C199 1.621 . S
C895 C164 1.609 . S
C909 C202 1.610 . S
C915 C178 1.622 . S
C929 C222 1.610 . S
C935 C138 1.620 . S
C949 C182 1.627 . S
C955 C158 1.636 . S
C969 C339 1.633 . S
C975 C244 1.625 . S
C989 C359 1.636 . S
C995 C264 1.628 . S
C1009 C284 1.615 . S
C1015 C319 1.627 . S
C1029 C298 1.636 . S
C1035 C322 1.628 . S
C1049 C258 1.631 . S
C1055 C342 1.623 . S
C1069 C302 1.621 . S
C1075 C278 1.630 . S
C1089 C12 1.383 . S
C1095 C9 1.383 . S
C1109 C32 1.386 . S
C1115 C29 1.386 . S
C1129 C52 1.383 . S
C1135 C49 1.383 . S
C1149 C69 1.394 . S
C1155 C72 1.391 . S
C1169 C92 1.390 . S
C1175 C89 1.390 . S
C1189 C112 1.394 . S
C1195 C109 1.394 . S
C1209 C129 1.396 . S
C1215 C132 1.396 . S
C1229 C152 1.394 . S
C1235 C149 1.394 . S
C1249 C169 1.393 . S
C1255 C172 1.393 . S
C1269 C189 1.388 . S
C1275 C192 1.388 . S
C1289 C209 1.386 . S
C1295 C212 1.386 . S
C1309 C229 1.384 . S
C1315 C232 1.384 . S
C1329 C249 1.390 . S
C1335 C252 1.390 . S
C1349 C272 1.385 . S
C1355 C269 1.385 . S
C1369 C292 1.398 . S
C1375 C289 1.398 . S
C1389 C312 1.386 . S
C1395 C309 1.386 . S
C1409 C332 1.392 . S
C1415 C329 1.392 . S
C1429 C349 1.394 . S
C1435 C352 1.394 . S
