# Generated by pormake.
# Topology lta, (4)-cn, num edge types: 1
# Building blocks:
#     Node 0, Type 0, BuildingBlock: ICAMEG_clean_sbu_1, # of connection points: 4
#     Node 1, Type 0, BuildingBlock: ICAMEG_clean_sbu_1, # of connection points: 4
#     Node 2, Type 0, BuildingBlock: ICAMEG_clean_sbu_1, # of connection points: 4
#     Node 3, Type 0, BuildingBlock: ICAMEG_clean_sbu_1, # of connection points: 4
#     Node 4, Type 0, BuildingBlock: ICAMEG_clean_sbu_1, # of connection points: 4
#     Node 5, Type 0, BuildingBlock: ICAMEG_clean_sbu_1, # of connection points: 4
#     Node 6, Type 0, BuildingBlock: ICAMEG_clean_sbu_1, # of connection points: 4
#     Node 7, Type 0, BuildingBlock: ICAMEG_clean_sbu_1, # of connection points: 4
#     Node 8, Type 0, BuildingBlock: ICAMEG_clean_sbu_1, # of connection points: 4
#     Node 9, Type 0, BuildingBlock: ICAMEG_clean_sbu_1, # of connection points: 4
#     Node 10, Type 0, BuildingBlock: ICAMEG_clean_sbu_1, # of connection points: 4
#     Node 11, Type 0, BuildingBlock: ICAMEG_clean_sbu_1, # of connection points: 4
#     Node 12, Type 0, BuildingBlock: ICAMEG_clean_sbu_1, # of connection points: 4
#     Node 13, Type 0, BuildingBlock: ICAMEG_clean_sbu_1, # of connection points: 4
#     Node 14, Type 0, BuildingBlock: ICAMEG_clean_sbu_1, # of connection points: 4
#     Node 15, Type 0, BuildingBlock: ICAMEG_clean_sbu_1, # of connection points: 4
#     Node 16, Type 0, BuildingBlock: ICAMEG_clean_sbu_1, # of connection points: 4
#     Node 17, Type 0, BuildingBlock: ICAMEG_clean_sbu_1, # of connection points: 4
#     Node 18, Type 0, BuildingBlock: ICAMEG_clean_sbu_1, # of connection points: 4
#     Node 19, Type 0, BuildingBlock: ICAMEG_clean_sbu_1, # of connection points: 4
#     Node 20, Type 0, BuildingBlock: ICAMEG_clean_sbu_1, # of connection points: 4
#     Node 21, Type 0, BuildingBlock: ICAMEG_clean_sbu_1, # of connection points: 4
#     Node 22, Type 0, BuildingBlock: ICAMEG_clean_sbu_1, # of connection points: 4
#     Node 23, Type 0, BuildingBlock: ICAMEG_clean_sbu_1, # of connection points: 4
#     Edge 24, Type (0, 0), BuildingBlock: KIFKEQ_clean_linker_1, # of connection points: 2
#     Edge 25, Type (0, 0), BuildingBlock: KIFKEQ_clean_linker_1, # of connection points: 2
#     Edge 26, Type (0, 0), BuildingBlock: KIFKEQ_clean_linker_1, # of connection points: 2
#     Edge 27, Type (0, 0), BuildingBlock: KIFKEQ_clean_linker_1, # of connection points: 2
#     Edge 28, Type (0, 0), BuildingBlock: KIFKEQ_clean_linker_1, # of connection points: 2
#     Edge 29, Type (0, 0), BuildingBlock: KIFKEQ_clean_linker_1, # of connection points: 2
#     Edge 30, Type (0, 0), BuildingBlock: KIFKEQ_clean_linker_1, # of connection points: 2
#     Edge 31, Type (0, 0), BuildingBlock: KIFKEQ_clean_linker_1, # of connection points: 2
#     Edge 32, Type (0, 0), BuildingBlock: KIFKEQ_clean_linker_1, # of connection points: 2
#     Edge 33, Type (0, 0), BuildingBlock: KIFKEQ_clean_linker_1, # of connection points: 2
#     Edge 34, Type (0, 0), BuildingBlock: KIFKEQ_clean_linker_1, # of connection points: 2
#     Edge 35, Type (0, 0), BuildingBlock: KIFKEQ_clean_linker_1, # of connection points: 2
#     Edge 36, Type (0, 0), BuildingBlock: KIFKEQ_clean_linker_1, # of connection points: 2
#     Edge 37, Type (0, 0), BuildingBlock: KIFKEQ_clean_linker_1, # of connection points: 2
#     Edge 38, Type (0, 0), BuildingBlock: KIFKEQ_clean_linker_1, # of connection points: 2
#     Edge 39, Type (0, 0), BuildingBlock: KIFKEQ_clean_linker_1, # of connection points: 2
#     Edge 40, Type (0, 0), BuildingBlock: KIFKEQ_clean_linker_1, # of connection points: 2
#     Edge 41, Type (0, 0), BuildingBlock: KIFKEQ_clean_linker_1, # of connection points: 2
#     Edge 42, Type (0, 0), BuildingBlock: KIFKEQ_clean_linker_1, # of connection points: 2
#     Edge 43, Type (0, 0), BuildingBlock: KIFKEQ_clean_linker_1, # of connection points: 2
#     Edge 44, Type (0, 0), BuildingBlock: KIFKEQ_clean_linker_1, # of connection points: 2
#     Edge 45, Type (0, 0), BuildingBlock: KIFKEQ_clean_linker_1, # of connection points: 2
#     Edge 46, Type (0, 0), BuildingBlock: KIFKEQ_clean_linker_1, # of connection points: 2
#     Edge 47, Type (0, 0), BuildingBlock: KIFKEQ_clean_linker_1, # of connection points: 2
#     Edge 48, Type (0, 0), BuildingBlock: KIFKEQ_clean_linker_1, # of connection points: 2
#     Edge 49, Type (0, 0), BuildingBlock: KIFKEQ_clean_linker_1, # of connection points: 2
#     Edge 50, Type (0, 0), BuildingBlock: KIFKEQ_clean_linker_1, # of connection points: 2
#     Edge 51, Type (0, 0), BuildingBlock: KIFKEQ_clean_linker_1, # of connection points: 2
#     Edge 52, Type (0, 0), BuildingBlock: KIFKEQ_clean_linker_1, # of connection points: 2
#     Edge 53, Type (0, 0), BuildingBlock: KIFKEQ_clean_linker_1, # of connection points: 2
#     Edge 54, Type (0, 0), BuildingBlock: KIFKEQ_clean_linker_1, # of connection points: 2
#     Edge 55, Type (0, 0), BuildingBlock: KIFKEQ_clean_linker_1, # of connection points: 2
#     Edge 56, Type (0, 0), BuildingBlock: KIFKEQ_clean_linker_1, # of connection points: 2
#     Edge 57, Type (0, 0), BuildingBlock: KIFKEQ_clean_linker_1, # of connection points: 2
#     Edge 58, Type (0, 0), BuildingBlock: KIFKEQ_clean_linker_1, # of connection points: 2
#     Edge 59, Type (0, 0), BuildingBlock: KIFKEQ_clean_linker_1, # of connection points: 2
#     Edge 60, Type (0, 0), BuildingBlock: KIFKEQ_clean_linker_1, # of connection points: 2
#     Edge 61, Type (0, 0), BuildingBlock: KIFKEQ_clean_linker_1, # of connection points: 2
#     Edge 62, Type (0, 0), BuildingBlock: KIFKEQ_clean_linker_1, # of connection points: 2
#     Edge 63, Type (0, 0), BuildingBlock: KIFKEQ_clean_linker_1, # of connection points: 2
#     Edge 64, Type (0, 0), BuildingBlock: KIFKEQ_clean_linker_1, # of connection points: 2
#     Edge 65, Type (0, 0), BuildingBlock: KIFKEQ_clean_linker_1, # of connection points: 2
#     Edge 66, Type (0, 0), BuildingBlock: KIFKEQ_clean_linker_1, # of connection points: 2
#     Edge 67, Type (0, 0), BuildingBlock: KIFKEQ_clean_linker_1, # of connection points: 2
#     Edge 68, Type (0, 0), BuildingBlock: KIFKEQ_clean_linker_1, # of connection points: 2
#     Edge 69, Type (0, 0), BuildingBlock: KIFKEQ_clean_linker_1, # of connection points: 2
#     Edge 70, Type (0, 0), BuildingBlock: KIFKEQ_clean_linker_1, # of connection points: 2
#     Edge 71, Type (0, 0), BuildingBlock: KIFKEQ_clean_linker_1, # of connection points: 2
# Relax obj value: 0.361
# Max RMSD: 0.250
# Mean RMSD: 0.250
data_MOF--net-lta--node1-ICAMEG_clean_sbu_1--edge1-KIFKEQ_clean_linker_1
_symmetry_space_group_name_H-M    P1
_symmetry_Int_Tables_number       1
_symmetry_cell_setting            triclinic
loop_
_symmetry_equiv_pos_as_xyz
'x, y, z'
_cell_length_a     60.622366
_cell_length_b     60.603818
_cell_length_c     60.617401
_cell_angle_alpha  90.007902
_cell_angle_beta   90.131183
_cell_angle_gamma 89.991952
loop_
_atom_site_label
_atom_site_type_symbol
_atom_site_fract_x
_atom_site_fract_y
_atom_site_fract_z
_atom_type_partial_charge
Co0 Co 0.11909 0.34655 0.48699 0.0
Co1 Co 0.11737 0.29571 0.51112 0.0
O2 O 0.12853 0.31574 0.4883 0.0
C3 C 0.10736 0.35154 0.4399 0.0
O4 O 0.08705 0.35496 0.44653 0.0
C5 C 0.16597 0.28786 0.51104 0.0
O6 O 0.16913 0.30926 0.51005 0.0
O7 O 0.12765 0.3163 0.53464 0.0
O8 O 0.11606 0.34819 0.51987 0.0
H9 H 0.0772 0.27646 0.58095 0.0
H10 H 0.16042 0.33391 0.46422 0.0
O11 O 0.12211 0.34592 0.45389 0.0
H12 H 0.18242 0.39001 0.51894 0.0
H13 H 0.12162 0.42504 0.45949 0.0
H14 H 0.08335 0.37235 0.50817 0.0
H15 H 0.1435 0.37878 0.51531 0.0
H16 H 0.1341 0.38641 0.46206 0.0
O17 O 0.1465 0.28004 0.5118 0.0
H18 H 0.0907 0.30128 0.55171 0.0
H19 H 0.1217 0.24737 0.51946 0.0
H20 H 0.07042 0.41088 0.50621 0.0
H21 H 0.19948 0.34494 0.46707 0.0
H22 H 0.08958 0.43752 0.48171 0.0
H23 H 0.21071 0.37312 0.49464 0.0
O24 O 0.08794 0.33666 0.48494 0.0
H25 H 0.12513 0.25254 0.4408 0.0
H26 H 0.07535 0.27155 0.50217 0.0
H27 H 0.06224 0.24673 0.47269 0.0
H28 H 0.08723 0.23701 0.44176 0.0
H29 H 0.13752 0.27747 0.47053 0.0
H30 H 0.10871 0.222 0.54846 0.0
H31 H 0.08621 0.2365 0.57944 0.0
O32 O 0.08757 0.31042 0.51097 0.0
C33 C 0.12238 0.33659 0.53627 0.0
C34 C 0.08694 0.26993 0.5675 0.0
C35 C 0.10465 0.23937 0.54929 0.0
N36 N 0.10685 0.27577 0.53382 0.0
C37 C 0.09459 0.2839 0.55087 0.0
C38 C 0.11201 0.25383 0.53294 0.0
C39 C 0.09202 0.24751 0.56666 0.0
C40 C 0.16513 0.34638 0.47608 0.0
N41 N 0.14967 0.35575 0.4895 0.0
C42 C 0.1873 0.35247 0.47769 0.0
C43 C 0.19359 0.36826 0.4932 0.0
C44 C 0.17773 0.37772 0.50685 0.0
C45 C 0.15572 0.37122 0.50478 0.0
C46 C 0.11315 0.4136 0.47025 0.0
C47 C 0.09183 0.38385 0.49753 0.0
C48 C 0.12013 0.39169 0.47177 0.0
N49 N 0.10949 0.37712 0.48529 0.0
C50 C 0.08441 0.40565 0.49647 0.0
C51 C 0.09517 0.42059 0.48271 0.0
C52 C 0.07769 0.32393 0.49813 0.0
C53 C 0.11411 0.25661 0.45422 0.0
C54 C 0.0863 0.26748 0.48871 0.0
C55 C 0.0788 0.25338 0.4721 0.0
C56 C 0.09283 0.24792 0.45475 0.0
N57 N 0.10723 0.27586 0.48812 0.0
C58 C 0.12105 0.27067 0.47112 0.0
Co59 Co 0.64928 0.12304 0.48889 0.0
Co60 Co 0.70214 0.12136 0.50773 0.0
O61 O 0.67984 0.13319 0.48756 0.0
C62 C 0.65552 0.11891 0.43987 0.0
O63 O 0.67113 0.10417 0.44282 0.0
C64 C 0.70988 0.17005 0.50975 0.0
O65 O 0.68855 0.17311 0.51179 0.0
O66 O 0.68397 0.13047 0.53357 0.0
O67 O 0.65114 0.11829 0.52156 0.0
H68 H 0.72873 0.07855 0.57361 0.0
H69 H 0.65918 0.16595 0.46764 0.0
O70 O 0.64614 0.12791 0.45635 0.0
H71 H 0.60792 0.1834 0.52824 0.0
H72 H 0.56886 0.12434 0.46782 0.0
H73 H 0.62608 0.08638 0.51159 0.0
H74 H 0.6193 0.14498 0.52121 0.0
H75 H 0.60732 0.13757 0.46749 0.0
O76 O 0.71767 0.1506 0.50801 0.0
H77 H 0.70094 0.09309 0.54765 0.0
H78 H 0.75107 0.12562 0.51119 0.0
H79 H 0.58776 0.07277 0.51258 0.0
H80 H 0.64799 0.20458 0.47391 0.0
H81 H 0.55885 0.09178 0.49056 0.0
H82 H 0.62225 0.21351 0.50445 0.0
O83 O 0.65917 0.09206 0.48416 0.0
H84 H 0.73719 0.13232 0.43353 0.0
H85 H 0.72547 0.07996 0.49466 0.0
H86 H 0.74679 0.06821 0.46211 0.0
H87 H 0.75282 0.09449 0.43127 0.0
H88 H 0.71582 0.14333 0.46632 0.0
H89 H 0.77938 0.11161 0.53689 0.0
H90 H 0.76828 0.0878 0.56832 0.0
O91 O 0.68764 0.09147 0.50785 0.0
C92 C 0.66407 0.12461 0.53694 0.0
C93 C 0.73378 0.08886 0.55995 0.0
C94 C 0.76221 0.10744 0.53936 0.0
N95 N 0.72438 0.11008 0.52785 0.0
C96 C 0.71812 0.0971 0.54516 0.0
C97 C 0.74609 0.11538 0.5249 0.0
C98 C 0.75597 0.09407 0.55698 0.0
C99 C 0.64779 0.16968 0.48081 0.0
N100 N 0.63986 0.15322 0.49399 0.0
C101 C 0.64159 0.1916 0.48435 0.0
C102 C 0.62717 0.1966 0.50151 0.0
C103 C 0.61914 0.17971 0.51487 0.0
C104 C 0.62571 0.158 0.51085 0.0
C105 C 0.58131 0.11595 0.47751 0.0
C106 C 0.61357 0.09484 0.50207 0.0
C107 C 0.60313 0.12332 0.47735 0.0
N108 N 0.61893 0.11284 0.48961 0.0
C109 C 0.59191 0.08702 0.50265 0.0
C110 C 0.5757 0.09768 0.49028 0.0
C111 C 0.67319 0.08167 0.49598 0.0
C112 C 0.73473 0.12073 0.44688 0.0
C113 C 0.72797 0.09148 0.48128 0.0
C114 C 0.74009 0.08474 0.46291 0.0
C115 C 0.74347 0.0995 0.44562 0.0
N116 N 0.71952 0.11237 0.48243 0.0
C117 C 0.72271 0.1269 0.46552 0.0
Co118 Co 0.88059 0.64826 0.4926 0.0
Co119 Co 0.88423 0.70205 0.50877 0.0
O120 O 0.87131 0.67908 0.49008 0.0
C121 C 0.8834 0.65381 0.4436 0.0
O122 O 0.89745 0.67011 0.44618 0.0
C123 C 0.8357 0.71132 0.51079 0.0
O124 O 0.83179 0.69011 0.51276 0.0
O125 O 0.87572 0.68528 0.53582 0.0
O126 O 0.88585 0.65135 0.52501 0.0
H127 H 0.93021 0.73057 0.57168 0.0
H128 H 0.83777 0.65838 0.47111 0.0
O129 O 0.8753 0.64402 0.4603 0.0
H130 H 0.81947 0.61079 0.53446 0.0
H131 H 0.87629 0.56709 0.47527 0.0
H132 H 0.91674 0.62482 0.516 0.0
H133 H 0.85811 0.62063 0.52659 0.0
H134 H 0.86443 0.60596 0.47321 0.0
O135 O 0.85543 0.71836 0.50928 0.0
H136 H 0.91407 0.70199 0.54759 0.0
H137 H 0.8811 0.75121 0.51008 0.0
H138 H 0.92903 0.58612 0.51866 0.0
H139 H 0.79892 0.64865 0.47819 0.0
H140 H 0.90875 0.55694 0.49819 0.0
H141 H 0.78955 0.62477 0.51012 0.0
O142 O 0.91185 0.65678 0.48718 0.0
H143 H 0.87119 0.73363 0.43324 0.0
H144 H 0.92543 0.7242 0.49323 0.0
H145 H 0.93634 0.74369 0.45928 0.0
H146 H 0.90909 0.74857 0.42899 0.0
H147 H 0.86104 0.71405 0.46742 0.0
H148 H 0.89671 0.7803 0.53389 0.0
H149 H 0.92154 0.77006 0.56489 0.0
O150 O 0.91372 0.68694 0.5085 0.0
C151 C 0.88075 0.66526 0.5399 0.0
C152 C 0.91944 0.73525 0.5582 0.0
C153 C 0.90062 0.76316 0.53701 0.0
N154 N 0.89673 0.72492 0.52739 0.0
C155 C 0.91029 0.71914 0.54448 0.0
C156 C 0.89177 0.7466 0.52363 0.0
C157 C 0.91456 0.7574 0.55439 0.0
C158 C 0.83385 0.64778 0.48489 0.0
N159 N 0.8502 0.64005 0.49838 0.0
C160 C 0.81181 0.64241 0.48888 0.0
C161 C 0.80656 0.62904 0.50682 0.0
C162 C 0.82334 0.62121 0.52049 0.0
C163 C 0.84519 0.62691 0.516 0.0
C164 C 0.88524 0.57965 0.48429 0.0
C165 C 0.90775 0.61221 0.50713 0.0
C166 C 0.87864 0.60171 0.48315 0.0
N167 N 0.88981 0.61765 0.49457 0.0
C168 C 0.91482 0.59033 0.50866 0.0
C169 C 0.90345 0.57397 0.49716 0.0
C170 C 0.92288 0.67139 0.49762 0.0
C171 C 0.88319 0.73166 0.44634 0.0
C172 C 0.91351 0.72616 0.48011 0.0
C173 C 0.91976 0.73727 0.46093 0.0
C174 C 0.90447 0.74001 0.44395 0.0
N175 N 0.89259 0.71806 0.48235 0.0
C176 C 0.87752 0.72065 0.46575 0.0
Co177 Co 0.35619 0.88012 0.49094 0.0
Co178 Co 0.30327 0.88377 0.50919 0.0
O179 O 0.32522 0.8713 0.48907 0.0
C180 C 0.35047 0.88529 0.44191 0.0
O181 O 0.33531 0.90047 0.44488 0.0
C182 C 0.29348 0.83545 0.50931 0.0
O183 O 0.31473 0.83139 0.51021 0.0
O184 O 0.32082 0.87347 0.53507 0.0
O185 O 0.35424 0.8844 0.52366 0.0
H186 H 0.27808 0.92678 0.57539 0.0
H187 H 0.34505 0.83805 0.46856 0.0
O188 O 0.35941 0.87573 0.45836 0.0
H189 H 0.39461 0.81744 0.52981 0.0
H190 H 0.43669 0.87581 0.47093 0.0
H191 H 0.38068 0.91538 0.51459 0.0
H192 H 0.38476 0.85639 0.5234 0.0
H193 H 0.39771 0.86422 0.46983 0.0
O194 O 0.28646 0.85525 0.5089 0.0
H195 H 0.3054 0.91143 0.54951 0.0
H196 H 0.25418 0.88149 0.51211 0.0
H197 H 0.41951 0.92735 0.51635 0.0
H198 H 0.35476 0.79892 0.47417 0.0
H199 H 0.44782 0.90753 0.49439 0.0
H200 H 0.37963 0.7884 0.50504 0.0
O201 O 0.34764 0.91151 0.48659 0.0
H202 H 0.26835 0.87549 0.43442 0.0
H203 H 0.28181 0.92633 0.49654 0.0
H204 H 0.26125 0.93949 0.46395 0.0
H205 H 0.25435 0.91397 0.43261 0.0
H206 H 0.28899 0.86306 0.46726 0.0
H207 H 0.22632 0.89634 0.53771 0.0
H208 H 0.23821 0.91925 0.56957 0.0
O209 O 0.31904 0.913 0.50994 0.0
C210 C 0.34092 0.87841 0.53877 0.0
C211 C 0.27269 0.91687 0.56154 0.0
C212 C 0.24364 0.89977 0.54041 0.0
N213 N 0.2814 0.89571 0.52924 0.0
C214 C 0.28808 0.90818 0.5468 0.0
C215 C 0.2595 0.89135 0.526 0.0
C216 C 0.25032 0.91263 0.55828 0.0
C217 C 0.35608 0.83362 0.48188 0.0
N218 N 0.36434 0.8495 0.49561 0.0
C219 C 0.36144 0.81143 0.48504 0.0
C220 C 0.37536 0.80553 0.50238 0.0
C221 C 0.38375 0.82182 0.5163 0.0
C222 C 0.37804 0.84384 0.51264 0.0
C223 C 0.42451 0.88456 0.4806 0.0
C224 C 0.3929 0.90658 0.50509 0.0
C225 C 0.40239 0.87811 0.48001 0.0
N226 N 0.38692 0.88904 0.49223 0.0
C227 C 0.41487 0.91347 0.50611 0.0
C228 C 0.43074 0.90235 0.49377 0.0
C229 C 0.33397 0.92231 0.49837 0.0
C230 C 0.27119 0.88675 0.448 0.0
C231 C 0.27892 0.91513 0.48295 0.0
C232 C 0.26723 0.92267 0.46456 0.0
C233 C 0.26336 0.90835 0.44698 0.0
N234 N 0.28648 0.89389 0.48385 0.0
C235 C 0.28281 0.87978 0.46666 0.0
Co236 Co 0.13401 0.65383 0.50456 0.0
Co237 Co 0.12668 0.70939 0.49436 0.0
O238 O 0.14041 0.68492 0.5105 0.0
C239 C 0.12527 0.65574 0.55299 0.0
O240 O 0.11127 0.67194 0.54966 0.0
C241 C 0.17488 0.71918 0.49203 0.0
O242 O 0.17868 0.69816 0.48847 0.0
O243 O 0.13451 0.69599 0.4653 0.0
O244 O 0.13273 0.65954 0.47226 0.0
H245 H 0.07811 0.74347 0.43634 0.0
H246 H 0.17283 0.66548 0.53205 0.0
O247 O 0.13558 0.64714 0.53686 0.0
H248 H 0.20285 0.62486 0.46833 0.0
H249 H 0.14321 0.57193 0.51546 0.0
H250 H 0.10328 0.63004 0.47477 0.0
H251 H 0.1628 0.63092 0.47189 0.0
H252 H 0.15114 0.61123 0.52249 0.0
O253 O 0.15522 0.72612 0.49464 0.0
H254 H 0.09549 0.71283 0.45675 0.0
H255 H 0.12912 0.75843 0.49805 0.0
H256 H 0.09501 0.59094 0.46707 0.0
H257 H 0.21299 0.65953 0.52929 0.0
H258 H 0.11506 0.56157 0.48747 0.0
H259 H 0.22824 0.63916 0.4972 0.0
O260 O 0.10151 0.65916 0.50672 0.0
H261 H 0.14131 0.73354 0.57232 0.0
H262 H 0.08544 0.72845 0.51331 0.0
H263 H 0.07507 0.74401 0.54941 0.0
H264 H 0.10313 0.74668 0.57921 0.0
H265 H 0.15091 0.71791 0.53602 0.0
H266 H 0.11226 0.78957 0.47796 0.0
H267 H 0.08648 0.78218 0.44692 0.0
O268 O 0.09778 0.69365 0.49374 0.0
C269 C 0.13448 0.67586 0.45915 0.0
C270 C 0.08929 0.74691 0.44986 0.0
C271 C 0.10848 0.77278 0.4732 0.0
N272 N 0.11323 0.73382 0.47862 0.0
C273 C 0.09915 0.72962 0.4615 0.0
C274 C 0.11802 0.75508 0.48447 0.0
C275 C 0.094 0.76862 0.45579 0.0
C276 C 0.17933 0.6564 0.51816 0.0
N277 N 0.16548 0.64853 0.50218 0.0
C278 C 0.20209 0.65317 0.51663 0.0
C279 C 0.21064 0.64177 0.49861 0.0
C280 C 0.19641 0.63376 0.48239 0.0
C281 C 0.17374 0.63731 0.48446 0.0
C282 C 0.1344 0.58458 0.50643 0.0
C283 C 0.11216 0.61736 0.48365 0.0
C284 C 0.13877 0.60686 0.51038 0.0
N285 N 0.12779 0.62292 0.49894 0.0
C286 C 0.10736 0.59525 0.47925 0.0
C287 C 0.1186 0.57877 0.49073 0.0
C288 C 0.08969 0.67525 0.49995 0.0
C289 C 0.12895 0.73252 0.55945 0.0
C290 C 0.09772 0.72947 0.52621 0.0
C291 C 0.09176 0.73836 0.5466 0.0
C292 C 0.10752 0.73986 0.56331 0.0
N293 N 0.11879 0.72236 0.52253 0.0
C294 C 0.13431 0.72375 0.53884 0.0
Co295 Co 0.34966 0.13179 0.51475 0.0
Co296 Co 0.29702 0.12503 0.49577 0.0
O297 O 0.31821 0.13852 0.51616 0.0
C298 C 0.34323 0.12444 0.56312 0.0
O299 O 0.3287 0.10894 0.55883 0.0
C300 C 0.28569 0.17282 0.4947 0.0
O301 O 0.3068 0.17729 0.49292 0.0
O302 O 0.31417 0.13577 0.46987 0.0
O303 O 0.34839 0.12839 0.482 0.0
H304 H 0.27394 0.08053 0.42967 0.0
H305 H 0.3353 0.17228 0.53809 0.0
O306 O 0.35213 0.13527 0.5475 0.0
H307 H 0.38419 0.19808 0.47853 0.0
H308 H 0.42941 0.14078 0.53646 0.0
H309 H 0.37674 0.09899 0.49052 0.0
H310 H 0.37699 0.15837 0.48361 0.0
H311 H 0.38973 0.14971 0.53717 0.0
O312 O 0.27916 0.15288 0.49582 0.0
H313 H 0.30049 0.0972 0.45566 0.0
H314 H 0.24792 0.1253 0.49238 0.0
H315 H 0.41631 0.08968 0.48915 0.0
H316 H 0.34229 0.21215 0.53379 0.0
H317 H 0.44295 0.11063 0.51226 0.0
H318 H 0.36683 0.22528 0.50377 0.0
O319 O 0.34326 0.09973 0.51796 0.0
H320 H 0.2612 0.13221 0.57009 0.0
H321 H 0.27755 0.08163 0.50853 0.0
H322 H 0.25742 0.06773 0.54098 0.0
H323 H 0.24907 0.09311 0.57204 0.0
H324 H 0.28145 0.14538 0.53739 0.0
H325 H 0.2208 0.10911 0.46666 0.0
H326 H 0.23377 0.08646 0.43509 0.0
O327 O 0.31408 0.09659 0.4953 0.0
C328 C 0.33471 0.13276 0.46663 0.0
C329 C 0.26808 0.09032 0.4434 0.0
C330 C 0.23826 0.10638 0.46414 0.0
N331 N 0.27577 0.11208 0.47561 0.0
C332 C 0.28304 0.09975 0.45821 0.0
C333 C 0.2537 0.11556 0.47862 0.0
C334 C 0.24555 0.09367 0.44644 0.0
C335 C 0.34619 0.17786 0.52515 0.0
N336 N 0.35577 0.16301 0.51117 0.0
C337 C 0.35001 0.20046 0.52273 0.0
C338 C 0.36375 0.20781 0.50586 0.0
C339 C 0.37347 0.19257 0.49168 0.0
C340 C 0.36927 0.1701 0.49459 0.0
C341 C 0.41797 0.13156 0.52629 0.0
C342 C 0.38824 0.10829 0.50053 0.0
C343 C 0.39547 0.1365 0.52666 0.0
N344 N 0.38093 0.12497 0.5138 0.0
C345 C 0.41062 0.10289 0.49972 0.0
C346 C 0.42555 0.11464 0.5127 0.0
C347 C 0.32995 0.0882 0.50638 0.0
C348 C 0.26468 0.12101 0.55664 0.0
C349 C 0.27403 0.09277 0.522 0.0
C350 C 0.26259 0.08481 0.54031 0.0
C351 C 0.25791 0.09906 0.55773 0.0
N352 N 0.28056 0.11434 0.52101 0.0
C353 C 0.27608 0.12839 0.53805 0.0
Co354 Co 0.87055 0.35116 0.52358 0.0
Co355 Co 0.8718 0.30117 0.49661 0.0
O356 O 0.86181 0.32005 0.5212 0.0
C357 C 0.87074 0.33505 0.57142 0.0
O358 O 0.86362 0.31513 0.56681 0.0
C359 C 0.8232 0.29218 0.49918 0.0
O360 O 0.81944 0.31322 0.50264 0.0
O361 O 0.8604 0.32263 0.47433 0.0
O362 O 0.86863 0.35462 0.49093 0.0
H363 H 0.90851 0.2855 0.42401 0.0
H364 H 0.83165 0.33417 0.54863 0.0
O365 O 0.87339 0.34951 0.55645 0.0
H366 H 0.80344 0.39642 0.50464 0.0
H367 H 0.87159 0.42726 0.55724 0.0
H368 H 0.9013 0.37962 0.49839 0.0
H369 H 0.84258 0.38579 0.50265 0.0
H370 H 0.85953 0.38853 0.55386 0.0
O371 O 0.84282 0.2852 0.49645 0.0
H372 H 0.89628 0.30884 0.45498 0.0
H373 H 0.86764 0.25315 0.48638 0.0
H374 H 0.91357 0.41834 0.501 0.0
H375 H 0.79255 0.34446 0.55147 0.0
H376 H 0.89872 0.44242 0.53063 0.0
H377 H 0.77812 0.37578 0.52931 0.0
O378 O 0.90211 0.34267 0.52151 0.0
H379 H 0.86743 0.25401 0.56465 0.0
H380 H 0.91458 0.27742 0.50274 0.0
H381 H 0.92928 0.25144 0.53038 0.0
H382 H 0.90563 0.23951 0.56159 0.0
H383 H 0.85346 0.28017 0.53675 0.0
H384 H 0.87941 0.22925 0.45566 0.0
H385 H 0.90008 0.24539 0.42422 0.0
O386 O 0.90136 0.31599 0.49593 0.0
C387 C 0.86301 0.34351 0.47397 0.0
C388 C 0.89956 0.27826 0.43764 0.0
C389 C 0.8832 0.2467 0.45539 0.0
N390 N 0.88135 0.28237 0.47253 0.0
C391 C 0.89263 0.29139 0.45525 0.0
C392 C 0.87653 0.26033 0.47271 0.0
C393 C 0.8948 0.25576 0.43776 0.0
C394 C 0.82574 0.34804 0.53926 0.0
N395 N 0.83963 0.35953 0.52576 0.0
C396 C 0.80345 0.3537 0.54078 0.0
C397 C 0.79535 0.37122 0.52831 0.0
C398 C 0.80954 0.38279 0.51446 0.0
C399 C 0.83171 0.37664 0.51335 0.0
C400 C 0.87814 0.41693 0.54423 0.0
C401 C 0.89461 0.39005 0.51121 0.0
C402 C 0.87142 0.39497 0.54226 0.0
N403 N 0.87958 0.38185 0.52582 0.0
C404 C 0.90168 0.41194 0.51265 0.0
C405 C 0.89336 0.42544 0.52929 0.0
C406 C 0.9117 0.32984 0.50794 0.0
C407 C 0.87789 0.25906 0.55111 0.0
C408 C 0.90422 0.27245 0.51635 0.0
C409 C 0.91262 0.25765 0.53191 0.0
C410 C 0.89933 0.25095 0.5494 0.0
N411 N 0.88316 0.28033 0.51813 0.0
C412 C 0.87005 0.27382 0.53523 0.0
Co413 Co 0.66153 0.87287 0.5238 0.0
Co414 Co 0.70896 0.87724 0.49317 0.0
O415 O 0.69264 0.86628 0.51885 0.0
C416 C 0.66787 0.88937 0.57013 0.0
O417 O 0.67135 0.90943 0.56279 0.0
C418 C 0.71837 0.82905 0.49405 0.0
O419 O 0.69719 0.82559 0.49683 0.0
O420 O 0.68619 0.86546 0.47243 0.0
O421 O 0.65521 0.87192 0.49151 0.0
H422 H 0.71779 0.91573 0.42029 0.0
H423 H 0.68246 0.83566 0.54768 0.0
O424 O 0.66663 0.87322 0.55668 0.0
H425 H 0.62101 0.80249 0.50582 0.0
H426 H 0.58881 0.86692 0.56353 0.0
H427 H 0.62904 0.90285 0.50273 0.0
H428 H 0.628 0.84252 0.50407 0.0
H429 H 0.62768 0.85759 0.55619 0.0
O430 O 0.72564 0.84864 0.49176 0.0
H431 H 0.69734 0.90234 0.45275 0.0
H432 H 0.75598 0.87434 0.47909 0.0
H433 H 0.59007 0.91244 0.50929 0.0
H434 H 0.6759 0.79558 0.55016 0.0
H435 H 0.56971 0.89448 0.53993 0.0
H436 H 0.64504 0.77872 0.52905 0.0
O437 O 0.6677 0.90507 0.52114 0.0
H438 H 0.76088 0.87404 0.55785 0.0
H439 H 0.73184 0.9206 0.49772 0.0
H440 H 0.75936 0.93597 0.52349 0.0
H441 H 0.77413 0.9126 0.55378 0.0
H442 H 0.73317 0.85939 0.53183 0.0
H443 H 0.77704 0.88728 0.44682 0.0
H444 H 0.75795 0.90821 0.41717 0.0
O445 O 0.69296 0.90624 0.49412 0.0
C446 C 0.66525 0.86723 0.47365 0.0
C447 C 0.72631 0.90668 0.43312 0.0
C448 C 0.75956 0.89068 0.448 0.0
N449 N 0.72547 0.88769 0.46786 0.0
C450 C 0.71483 0.8991 0.45157 0.0
C451 C 0.74753 0.88334 0.46621 0.0
C452 C 0.74884 0.90243 0.43138 0.0
C453 C 0.66887 0.82848 0.53861 0.0
N454 N 0.65563 0.84144 0.52572 0.0
C455 C 0.66529 0.80576 0.54001 0.0
C456 C 0.648 0.79631 0.52813 0.0
C457 C 0.63454 0.80963 0.51507 0.0
C458 C 0.63863 0.83228 0.51405 0.0
C459 C 0.59751 0.87487 0.55013 0.0
C460 C 0.62027 0.89486 0.51602 0.0
C461 C 0.61956 0.86971 0.54595 0.0
N462 N 0.63066 0.87967 0.52905 0.0
C463 C 0.59821 0.9004 0.51968 0.0
C464 C 0.58679 0.89032 0.53688 0.0
C465 C 0.67899 0.91557 0.50681 0.0
C466 C 0.75461 0.88436 0.54468 0.0
C467 C 0.73811 0.91035 0.51091 0.0
C468 C 0.75374 0.91913 0.52542 0.0
C469 C 0.76202 0.90601 0.5424 0.0
N470 N 0.73099 0.88907 0.5132 0.0
C471 C 0.73897 0.87614 0.52986 0.0
Co472 Co 0.49934 0.12639 0.35303 0.0
Co473 Co 0.50662 0.12189 0.29675 0.0
O474 O 0.49172 0.1346 0.32259 0.0
C475 C 0.44934 0.12833 0.35243 0.0
O476 O 0.44857 0.12961 0.33086 0.0
C477 C 0.50993 0.17042 0.28739 0.0
O478 O 0.51809 0.17383 0.30719 0.0
O479 O 0.53632 0.12967 0.30896 0.0
O480 O 0.53108 0.1245 0.34524 0.0
H481 H 0.56329 0.07537 0.25819 0.0
H482 H 0.47301 0.16686 0.34447 0.0
O483 O 0.46772 0.12752 0.36262 0.0
H484 H 0.53985 0.19234 0.3833 0.0
H485 H 0.495 0.13149 0.43589 0.0
H486 H 0.52957 0.09338 0.37294 0.0
H487 H 0.53427 0.15281 0.37556 0.0
H488 H 0.48532 0.14173 0.3977 0.0
O489 O 0.50498 0.15098 0.28115 0.0
H490 H 0.54427 0.09135 0.29038 0.0
H491 H 0.5005 0.12612 0.24801 0.0
H492 H 0.53988 0.08278 0.41086 0.0
H493 H 0.47781 0.20652 0.3521 0.0
H494 H 0.52258 0.10193 0.44266 0.0
H495 H 0.51146 0.21951 0.37161 0.0
O496 O 0.4956 0.09453 0.34605 0.0
H497 H 0.42823 0.1374 0.27437 0.0
H498 H 0.48685 0.08114 0.27721 0.0
H499 H 0.45041 0.07127 0.26208 0.0
H500 H 0.42079 0.09955 0.2605 0.0
H501 H 0.46479 0.14639 0.28981 0.0
H502 H 0.51918 0.11068 0.21538 0.0
H503 H 0.55076 0.08503 0.22037 0.0
O504 O 0.50819 0.09221 0.31131 0.0
C505 C 0.54345 0.12755 0.32864 0.0
C506 C 0.54952 0.08649 0.25581 0.0
C507 C 0.52478 0.10633 0.23178 0.0
N508 N 0.52122 0.10956 0.27109 0.0
C509 C 0.53865 0.09555 0.27397 0.0
C510 C 0.51431 0.11508 0.25033 0.0
C511 C 0.54249 0.09193 0.23459 0.0
C512 C 0.48754 0.17232 0.35323 0.0
N513 N 0.50317 0.15746 0.35982 0.0
C514 C 0.49023 0.19483 0.35739 0.0
C515 C 0.50914 0.20211 0.3683 0.0
C516 C 0.52507 0.18688 0.37486 0.0
C517 C 0.52182 0.16451 0.37041 0.0
C518 C 0.50269 0.12306 0.42217 0.0
C519 C 0.52203 0.10186 0.38668 0.0
C520 C 0.49723 0.12875 0.4005 0.0
N521 N 0.50698 0.11827 0.38308 0.0
C522 C 0.52789 0.09574 0.40812 0.0
C523 C 0.51816 0.10647 0.42596 0.0
C524 C 0.50195 0.08337 0.32938 0.0
C525 C 0.44098 0.12491 0.27501 0.0
C526 C 0.47397 0.09341 0.27696 0.0
C527 C 0.4534 0.08778 0.26819 0.0
C528 C 0.43681 0.10367 0.26725 0.0
N529 N 0.47791 0.11423 0.28466 0.0
C530 C 0.46176 0.12993 0.28366 0.0
Co531 Co 0.87475 0.498 0.35079 0.0
Co532 Co 0.8785 0.50981 0.29531 0.0
O533 O 0.86628 0.49248 0.31995 0.0
C534 C 0.87083 0.44771 0.3479 0.0
O535 O 0.86476 0.44748 0.32711 0.0
C536 C 0.82982 0.51033 0.28644 0.0
O537 O 0.82605 0.51298 0.30758 0.0
O538 O 0.86959 0.5381 0.30963 0.0
O539 O 0.87612 0.53034 0.34526 0.0
H540 H 0.92276 0.57112 0.26142 0.0
H541 H 0.83381 0.47231 0.34082 0.0
O542 O 0.87444 0.46575 0.35809 0.0
H543 H 0.80949 0.53547 0.38575 0.0
H544 H 0.87159 0.48692 0.4331 0.0
H545 H 0.90771 0.52713 0.37238 0.0
H546 H 0.84874 0.53078 0.37645 0.0
H547 H 0.86049 0.48034 0.3945 0.0
O548 O 0.8495 0.50869 0.27932 0.0
H549 H 0.90744 0.54911 0.29198 0.0
H550 H 0.87485 0.50711 0.24624 0.0
H551 H 0.91915 0.53437 0.41077 0.0
H552 H 0.79453 0.47615 0.35005 0.0
H553 H 0.90104 0.51419 0.44145 0.0
H554 H 0.78207 0.50797 0.37263 0.0
O555 O 0.90646 0.49509 0.34319 0.0
H556 H 0.86633 0.43247 0.268 0.0
H557 H 0.92012 0.4931 0.27491 0.0
H558 H 0.93148 0.45814 0.25755 0.0
H559 H 0.90447 0.42753 0.25393 0.0
H560 H 0.85575 0.46765 0.2855 0.0
H561 H 0.88964 0.5288 0.2152 0.0
H562 H 0.91386 0.561 0.2227 0.0
O563 O 0.90812 0.51143 0.31008 0.0
C564 C 0.87217 0.54382 0.32969 0.0
C565 C 0.91226 0.55709 0.25794 0.0
C566 C 0.89366 0.53336 0.232 0.0
N567 N 0.89036 0.52677 0.27091 0.0
C568 C 0.90358 0.54454 0.27518 0.0
C569 C 0.88528 0.52117 0.24965 0.0
C570 C 0.90725 0.55142 0.23622 0.0
C571 C 0.82871 0.48593 0.351 0.0
N572 N 0.84374 0.50102 0.35839 0.0
C573 C 0.80635 0.48814 0.35603 0.0
C574 C 0.79935 0.50603 0.36864 0.0
C575 C 0.81473 0.52147 0.37599 0.0
C576 C 0.83695 0.51872 0.37064 0.0
C577 C 0.87957 0.49585 0.41988 0.0
C578 C 0.89965 0.51838 0.38564 0.0
C579 C 0.8734 0.49216 0.39798 0.0
N580 N 0.88332 0.50347 0.38119 0.0
C581 C 0.90624 0.5225 0.40735 0.0
C582 C 0.89609 0.51116 0.42455 0.0
C583 C 0.9173 0.50355 0.32733 0.0
C584 C 0.87825 0.44569 0.26947 0.0
C585 C 0.90832 0.47981 0.2736 0.0
C586 C 0.91483 0.46007 0.26365 0.0
C587 C 0.89965 0.44292 0.2616 0.0
N588 N 0.8873 0.4824 0.28129 0.0
C589 C 0.87234 0.46566 0.27931 0.0
Co590 Co 0.50435 0.87205 0.35276 0.0
Co591 Co 0.49727 0.87985 0.29627 0.0
O592 O 0.51171 0.86566 0.32179 0.0
C593 C 0.55462 0.87355 0.3516 0.0
O594 O 0.55577 0.87006 0.33028 0.0
C595 C 0.49157 0.83125 0.28817 0.0
O596 O 0.49065 0.82763 0.30949 0.0
O597 O 0.4671 0.87623 0.30936 0.0
O598 O 0.47259 0.87076 0.34562 0.0
H599 H 0.44582 0.93353 0.2595 0.0
H600 H 0.53436 0.8345 0.3421 0.0
O601 O 0.53615 0.87409 0.36157 0.0
H602 H 0.47182 0.80147 0.38198 0.0
H603 H 0.51195 0.86479 0.43525 0.0
H604 H 0.47127 0.90073 0.37456 0.0
H605 H 0.47305 0.84152 0.37511 0.0
H606 H 0.52143 0.8569 0.3965 0.0
O607 O 0.49388 0.85078 0.28075 0.0
H608 H 0.46396 0.91527 0.29108 0.0
H609 H 0.50059 0.8746 0.24737 0.0
H610 H 0.46107 0.90886 0.41307 0.0
H611 H 0.53395 0.79448 0.34889 0.0
H612 H 0.48146 0.89082 0.44374 0.0
H613 H 0.50247 0.77765 0.36891 0.0
O614 O 0.50468 0.90456 0.34728 0.0
H615 H 0.57233 0.85424 0.27219 0.0
H616 H 0.52121 0.91743 0.27543 0.0
H617 H 0.55807 0.92238 0.25905 0.0
H618 H 0.58389 0.89061 0.25727 0.0
H619 H 0.53546 0.85014 0.28878 0.0
H620 H 0.48269 0.89227 0.21535 0.0
H621 H 0.45516 0.92203 0.22132 0.0
O622 O 0.50054 0.9092 0.31067 0.0
C623 C 0.46016 0.87275 0.32888 0.0
C624 C 0.45783 0.92062 0.25669 0.0
C625 C 0.4785 0.89744 0.23191 0.0
N626 N 0.48339 0.89397 0.27108 0.0
C627 C 0.4682 0.91026 0.2745 0.0
C628 C 0.48853 0.88745 0.25012 0.0
C629 C 0.46306 0.91414 0.23527 0.0
C630 C 0.52081 0.82746 0.35117 0.0
N631 N 0.50396 0.84049 0.3585 0.0
C632 C 0.52057 0.80471 0.35481 0.0
C633 C 0.50288 0.79527 0.366 0.0
C634 C 0.48568 0.80862 0.37332 0.0
C635 C 0.48647 0.8313 0.36935 0.0
C636 C 0.50291 0.87272 0.42203 0.0
C637 C 0.48015 0.89271 0.38781 0.0
C638 C 0.50825 0.86837 0.40005 0.0
N639 N 0.49681 0.87823 0.38326 0.0
C640 C 0.47434 0.89744 0.40959 0.0
C641 C 0.4858 0.88732 0.42679 0.0
C642 C 0.50321 0.91667 0.33014 0.0
C643 C 0.56122 0.86821 0.27285 0.0
C644 C 0.53244 0.9036 0.27496 0.0
C645 C 0.55325 0.90646 0.26554 0.0
C646 C 0.56771 0.88862 0.26452 0.0
N647 N 0.5262 0.88353 0.28313 0.0
C648 C 0.54028 0.86596 0.28215 0.0
Co649 Co 0.12673 0.51922 0.35402 0.0
Co650 Co 0.12343 0.5012 0.29965 0.0
O651 O 0.13452 0.52145 0.3226 0.0
C652 C 0.12405 0.56832 0.34367 0.0
O653 O 0.12959 0.5656 0.32295 0.0
C654 C 0.1725 0.5003 0.29366 0.0
O655 O 0.17536 0.50166 0.31509 0.0
O656 O 0.13101 0.47468 0.31769 0.0
O657 O 0.13043 0.4866 0.35281 0.0
H658 H 0.0795 0.43698 0.2709 0.0
H659 H 0.1639 0.54802 0.33892 0.0
O660 O 0.12253 0.55198 0.35679 0.0
H661 H 0.19633 0.49813 0.3943 0.0
H662 H 0.12729 0.54234 0.43393 0.0
H663 H 0.09869 0.48864 0.37982 0.0
H664 H 0.15685 0.49573 0.38493 0.0
H665 H 0.1377 0.54496 0.39471 0.0
O666 O 0.15317 0.49995 0.28541 0.0
H667 H 0.09359 0.46242 0.29939 0.0
H668 H 0.1299 0.49761 0.25096 0.0
H669 H 0.08811 0.48523 0.41895 0.0
H670 H 0.20326 0.55129 0.34806 0.0
H671 H 0.10243 0.51223 0.44629 0.0
H672 H 0.21983 0.52617 0.3759 0.0
O673 O 0.09469 0.51655 0.34673 0.0
H674 H 0.1386 0.57404 0.26305 0.0
H675 H 0.08311 0.51588 0.27533 0.0
H676 H 0.07333 0.54841 0.25296 0.0
H677 H 0.10121 0.57775 0.24661 0.0
H678 H 0.14757 0.54139 0.28562 0.0
H679 H 0.11633 0.47245 0.22198 0.0
H680 H 0.09088 0.44191 0.23187 0.0
O681 O 0.0934 0.50184 0.31281 0.0
C682 C 0.1324 0.47139 0.33843 0.0
C683 C 0.09056 0.45024 0.26638 0.0
C684 C 0.11125 0.47013 0.23893 0.0
N685 N 0.11251 0.48151 0.27686 0.0
C686 C 0.09857 0.46472 0.28243 0.0
C687 C 0.11893 0.48428 0.25543 0.0
C688 C 0.09696 0.45301 0.24449 0.0
C689 C 0.17073 0.5373 0.35131 0.0
N690 N 0.15786 0.52189 0.36154 0.0
C691 C 0.19316 0.5391 0.35631 0.0
C692 C 0.20247 0.52497 0.37188 0.0
C693 C 0.1893 0.50923 0.38219 0.0
C694 C 0.16694 0.5079 0.37674 0.0
C695 C 0.12098 0.53045 0.42217 0.0
C696 C 0.10513 0.50034 0.39165 0.0
C697 C 0.12676 0.53189 0.39992 0.0
N698 N 0.11893 0.51686 0.385 0.0
C699 C 0.09902 0.49838 0.41377 0.0
C700 C 0.10704 0.51355 0.4291 0.0
C701 C 0.08409 0.50862 0.33035 0.0
C702 C 0.12631 0.56135 0.26567 0.0
C703 C 0.09527 0.52867 0.27286 0.0
C704 C 0.08967 0.54701 0.26007 0.0
C705 C 0.10533 0.56345 0.25649 0.0
N706 N 0.11588 0.52675 0.28185 0.0
C707 C 0.13133 0.54278 0.27836 0.0
Co708 Co 0.49956 0.87502 0.65222 0.0
Co709 Co 0.51339 0.87931 0.70686 0.0
O710 O 0.49597 0.86616 0.68301 0.0
C711 C 0.45076 0.87949 0.6562 0.0
O712 O 0.45365 0.89341 0.67257 0.0
C713 C 0.51643 0.83077 0.71538 0.0
O714 O 0.51926 0.82737 0.6942 0.0
O715 O 0.54149 0.87184 0.69133 0.0
O716 O 0.53184 0.87983 0.65646 0.0
H717 H 0.57346 0.92685 0.73867 0.0
H718 H 0.47689 0.8328 0.66201 0.0
O719 O 0.46727 0.87042 0.64694 0.0
H720 H 0.54156 0.81254 0.61714 0.0
H721 H 0.48509 0.86964 0.57055 0.0
H722 H 0.52416 0.9105 0.62913 0.0
H723 H 0.53414 0.85148 0.62631 0.0
H724 H 0.48136 0.85855 0.6095 0.0
O725 O 0.51414 0.85031 0.72278 0.0
H726 H 0.55116 0.91034 0.70886 0.0
H727 H 0.51279 0.87553 0.75596 0.0
H728 H 0.52853 0.92199 0.59037 0.0
H729 H 0.48354 0.79368 0.65298 0.0
H730 H 0.50891 0.90149 0.56076 0.0
H731 H 0.51612 0.78333 0.63045 0.0
O732 O 0.49438 0.90653 0.66002 0.0
H733 H 0.43706 0.86373 0.73497 0.0
H734 H 0.49563 0.9198 0.72866 0.0
H735 H 0.46055 0.92953 0.74671 0.0
H736 H 0.43098 0.90137 0.75 0.0
H737 H 0.47234 0.85477 0.71686 0.0
H738 H 0.53482 0.89149 0.78626 0.0
H739 H 0.56535 0.91743 0.7777 0.0
O740 O 0.51283 0.90892 0.69205 0.0
C741 C 0.54628 0.87618 0.67132 0.0
C742 C 0.56018 0.9156 0.74261 0.0
C743 C 0.53851 0.89573 0.76932 0.0
N744 N 0.53063 0.89207 0.73066 0.0
C745 C 0.54746 0.90623 0.72581 0.0
C746 C 0.52614 0.88669 0.75209 0.0
C747 C 0.55563 0.91029 0.76451 0.0
C748 C 0.49097 0.82845 0.652 0.0
N749 N 0.50507 0.84441 0.64465 0.0
C750 C 0.49471 0.80626 0.64703 0.0
C751 C 0.51301 0.80046 0.63442 0.0
C752 C 0.52731 0.81684 0.62697 0.0
C753 C 0.52306 0.83886 0.63228 0.0
C754 C 0.49376 0.87866 0.5833 0.0
C755 C 0.51568 0.9014 0.61634 0.0
C756 C 0.49168 0.8725 0.6054 0.0
N757 N 0.50269 0.88375 0.62158 0.0
C758 C 0.51817 0.90803 0.59442 0.0
C759 C 0.50714 0.89654 0.57781 0.0
C760 C 0.50328 0.91777 0.67545 0.0
C761 C 0.44984 0.87613 0.73368 0.0
C762 C 0.48282 0.90748 0.72993 0.0
C763 C 0.46301 0.91307 0.74023 0.0
C764 C 0.44643 0.89726 0.74209 0.0
N765 N 0.48607 0.88671 0.72176 0.0
C766 C 0.46987 0.87113 0.7235 0.0
Co767 Co 0.12872 0.49583 0.64956 0.0
Co768 Co 0.12251 0.5114 0.70355 0.0
O769 O 0.13611 0.49285 0.68086 0.0
C770 C 0.12203 0.4473 0.65421 0.0
O771 O 0.10718 0.45101 0.66952 0.0
C772 C 0.17078 0.51304 0.7142 0.0
O773 O 0.17515 0.51464 0.69307 0.0
O774 O 0.13152 0.53874 0.6875 0.0
O775 O 0.12489 0.52838 0.65253 0.0
H776 H 0.07551 0.57381 0.73117 0.0
H777 H 0.16968 0.47205 0.6619 0.0
O778 O 0.13246 0.46326 0.64545 0.0
H779 H 0.19402 0.53483 0.61628 0.0
H780 H 0.13693 0.47859 0.56872 0.0
H781 H 0.09516 0.52094 0.62415 0.0
H782 H 0.15451 0.52889 0.62377 0.0
H783 H 0.14635 0.47582 0.60822 0.0
O784 O 0.15088 0.51185 0.7208 0.0
H785 H 0.09258 0.55008 0.70289 0.0
H786 H 0.12424 0.5123 0.75277 0.0
H787 H 0.08532 0.52433 0.58481 0.0
H788 H 0.20935 0.47719 0.65454 0.0
H789 H 0.10627 0.50306 0.55678 0.0
H790 H 0.22175 0.50882 0.63166 0.0
O791 O 0.09678 0.49186 0.65605 0.0
H792 H 0.13454 0.43559 0.73487 0.0
H793 H 0.08062 0.49554 0.72402 0.0
H794 H 0.06907 0.46137 0.74278 0.0
H795 H 0.09615 0.4311 0.74836 0.0
H796 H 0.14533 0.46998 0.716 0.0
H797 H 0.10768 0.53575 0.78157 0.0
H798 H 0.08304 0.56671 0.77083 0.0
O799 O 0.09349 0.51119 0.68743 0.0
C800 C 0.12851 0.54305 0.66712 0.0
C801 C 0.08618 0.56035 0.73605 0.0
C802 C 0.10426 0.539 0.76434 0.0
N803 N 0.1093 0.52976 0.72617 0.0
C804 C 0.09586 0.54683 0.72012 0.0
C805 C 0.11364 0.52582 0.74796 0.0
C806 C 0.09043 0.55636 0.75831 0.0
C807 C 0.17493 0.48571 0.65172 0.0
N808 N 0.15979 0.50011 0.64324 0.0
C809 C 0.19742 0.4886 0.6477 0.0
C810 C 0.20437 0.50637 0.63489 0.0
C811 C 0.18882 0.52098 0.62628 0.0
C812 C 0.16647 0.51758 0.63065 0.0
C813 C 0.1277 0.48798 0.58077 0.0
C814 C 0.10445 0.51172 0.61205 0.0
C815 C 0.13293 0.48644 0.60317 0.0
N816 N 0.12142 0.49832 0.61848 0.0
C817 C 0.09875 0.51367 0.5898 0.0
C818 C 0.1105 0.50171 0.57408 0.0
C819 C 0.08511 0.50135 0.67075 0.0
C820 C 0.12261 0.44868 0.73258 0.0
C821 C 0.09247 0.48243 0.7263 0.0
C822 C 0.08585 0.46313 0.73699 0.0
C823 C 0.10106 0.44616 0.74012 0.0
N824 N 0.11366 0.4848 0.71899 0.0
C825 C 0.12864 0.46822 0.72197 0.0
Co826 Co 0.50674 0.12736 0.65221 0.0
Co827 Co 0.49304 0.12326 0.70682 0.0
O828 O 0.51072 0.13608 0.68305 0.0
C829 C 0.55556 0.12172 0.65563 0.0
O830 O 0.55268 0.10737 0.6716 0.0
C831 C 0.49141 0.17183 0.7157 0.0
O832 O 0.48908 0.1755 0.69449 0.0
O833 O 0.46516 0.13167 0.6913 0.0
O834 O 0.47436 0.12322 0.65645 0.0
H835 H 0.43175 0.0772 0.73818 0.0
H836 H 0.5303 0.16913 0.66199 0.0
O837 O 0.53907 0.13139 0.64687 0.0
H838 H 0.46571 0.19069 0.61733 0.0
H839 H 0.52093 0.13246 0.57054 0.0
H840 H 0.48121 0.09247 0.62911 0.0
H841 H 0.47245 0.15161 0.6264 0.0
H842 H 0.52503 0.14349 0.60949 0.0
O843 O 0.49305 0.15217 0.72296 0.0
H844 H 0.45444 0.09328 0.70853 0.0
H845 H 0.49384 0.12672 0.75595 0.0
H846 H 0.47651 0.08101 0.59036 0.0
H847 H 0.52436 0.20838 0.65301 0.0
H848 H 0.49644 0.10107 0.56075 0.0
H849 H 0.49181 0.21939 0.6306 0.0
O850 O 0.51135 0.09577 0.65996 0.0
H851 H 0.56984 0.13656 0.73514 0.0
H852 H 0.50973 0.08217 0.72842 0.0
H853 H 0.54457 0.07138 0.74647 0.0
H854 H 0.57492 0.09869 0.74998 0.0
H855 H 0.53477 0.14659 0.71701 0.0
H856 H 0.47145 0.11117 0.78609 0.0
H857 H 0.44021 0.08613 0.77729 0.0
O858 O 0.49275 0.09371 0.69184 0.0
C859 C 0.46015 0.12752 0.67129 0.0
C860 C 0.44535 0.08805 0.74223 0.0
C861 C 0.46761 0.10714 0.76912 0.0
N862 N 0.47551 0.11083 0.7305 0.0
C863 C 0.45828 0.09717 0.72551 0.0
C864 C 0.48019 0.11595 0.75197 0.0
C865 C 0.45009 0.09308 0.76417 0.0
C866 C 0.51624 0.17376 0.65202 0.0
N867 N 0.50178 0.15808 0.64469 0.0
C868 C 0.5129 0.19603 0.64708 0.0
C869 C 0.49461 0.20219 0.63454 0.0
C870 C 0.47995 0.1861 0.62711 0.0
C871 C 0.48381 0.164 0.63238 0.0
C872 C 0.51212 0.12361 0.58329 0.0
C873 C 0.48985 0.10136 0.61633 0.0
C874 C 0.51441 0.12976 0.60539 0.0
N875 N 0.50325 0.11874 0.62157 0.0
C876 C 0.48717 0.09476 0.59441 0.0
C877 C 0.49837 0.10601 0.57781 0.0
C878 C 0.50217 0.08469 0.6753 0.0
C879 C 0.55672 0.12453 0.73375 0.0
C880 C 0.52287 0.09412 0.72978 0.0
C881 C 0.54255 0.08793 0.74008 0.0
C882 C 0.55957 0.10327 0.74205 0.0
N883 N 0.52018 0.11502 0.72173 0.0
C884 C 0.5368 0.13013 0.72357 0.0
Co885 Co 0.87395 0.50087 0.64823 0.0
Co886 Co 0.8813 0.49142 0.70395 0.0
O887 O 0.86799 0.5075 0.67923 0.0
C888 C 0.88422 0.54901 0.65015 0.0
O889 O 0.89779 0.54533 0.66667 0.0
C890 C 0.8331 0.49023 0.71331 0.0
O891 O 0.82944 0.48617 0.69235 0.0
O892 O 0.87271 0.46236 0.69101 0.0
O893 O 0.87356 0.46855 0.65439 0.0
H894 H 0.92831 0.43281 0.73909 0.0
H895 H 0.83646 0.52996 0.66007 0.0
O896 O 0.87379 0.53313 0.64118 0.0
H897 H 0.8034 0.46781 0.6192 0.0
H898 H 0.86485 0.51094 0.5662 0.0
H899 H 0.90298 0.46927 0.62484 0.0
H900 H 0.84361 0.46963 0.62516 0.0
H901 H 0.85767 0.51912 0.60539 0.0
O902 O 0.85273 0.49261 0.72045 0.0
H903 H 0.91155 0.45319 0.70807 0.0
H904 H 0.87879 0.49586 0.75291 0.0
H905 H 0.9104 0.46034 0.58584 0.0
H906 H 0.79619 0.52895 0.65426 0.0
H907 H 0.89124 0.48122 0.55622 0.0
H908 H 0.7794 0.49765 0.63377 0.0
O909 O 0.90657 0.50185 0.65348 0.0
H910 H 0.86851 0.57005 0.72692 0.0
H911 H 0.92295 0.50973 0.72295 0.0
H912 H 0.93415 0.54582 0.73804 0.0
H913 H 0.90682 0.57628 0.74015 0.0
H914 H 0.85807 0.53374 0.71176 0.0
H915 H 0.89504 0.47582 0.78442 0.0
H916 H 0.92007 0.4441 0.77759 0.0
O917 O 0.91021 0.49002 0.6884 0.0
C918 C 0.87173 0.45583 0.67103 0.0
C919 C 0.91746 0.44662 0.74227 0.0
C920 C 0.89877 0.47075 0.76771 0.0
N921 N 0.89429 0.47574 0.72867 0.0
C922 C 0.90796 0.45825 0.72478 0.0
C923 C 0.88957 0.48199 0.74981 0.0
C924 C 0.91282 0.45296 0.76387 0.0
C925 C 0.82929 0.51639 0.65097 0.0
N926 N 0.84237 0.49986 0.643 0.0
C927 C 0.80647 0.51586 0.6478 0.0
C928 C 0.79706 0.49828 0.63634 0.0
C929 C 0.81051 0.48152 0.62818 0.0
C930 C 0.83326 0.48259 0.63168 0.0
C931 C 0.87327 0.50169 0.57896 0.0
C932 C 0.8945 0.47836 0.61204 0.0
C933 C 0.86934 0.5063 0.60119 0.0
N934 N 0.87978 0.49457 0.6174 0.0
C935 C 0.89882 0.47328 0.58999 0.0
C936 C 0.88808 0.48502 0.57337 0.0
C937 C 0.91835 0.4956 0.66984 0.0
C938 C 0.88056 0.55689 0.72614 0.0
C939 C 0.91098 0.52292 0.72373 0.0
C940 C 0.91741 0.5433 0.73235 0.0
C941 C 0.90206 0.56038 0.73353 0.0
N942 N 0.88984 0.5196 0.71656 0.0
C943 C 0.87472 0.53627 0.71765 0.0
Co944 Co 0.35172 0.4958 0.13193 0.0
Co945 Co 0.29681 0.50917 0.12726 0.0
O946 O 0.32084 0.49195 0.14037 0.0
C947 C 0.34739 0.44706 0.12608 0.0
O948 O 0.33102 0.4503 0.11223 0.0
C949 C 0.28887 0.51303 0.17574 0.0
O950 O 0.31009 0.51596 0.17892 0.0
O951 O 0.31219 0.53742 0.13438 0.0
O952 O 0.34766 0.52828 0.12859 0.0
H953 H 0.26432 0.5687 0.07952 0.0
H954 H 0.34123 0.4717 0.17317 0.0
O955 O 0.35684 0.46335 0.1354 0.0
H956 H 0.38641 0.53531 0.19636 0.0
H957 H 0.43328 0.48086 0.13737 0.0
H958 H 0.37511 0.52186 0.0978 0.0
H959 H 0.37776 0.52927 0.15706 0.0
H960 H 0.39425 0.47684 0.14803 0.0
O961 O 0.28126 0.51017 0.15635 0.0
H962 H 0.29437 0.54669 0.09598 0.0
H963 H 0.24776 0.50829 0.1314 0.0
H964 H 0.41396 0.52652 0.08674 0.0
H965 H 0.34975 0.47694 0.21263 0.0
H966 H 0.44336 0.50593 0.10658 0.0
H967 H 0.37241 0.50899 0.22446 0.0
O968 O 0.34422 0.49169 0.1001 0.0
H969 H 0.26906 0.43284 0.14377 0.0
H970 H 0.27479 0.49087 0.08708 0.0
H971 H 0.25679 0.45559 0.0778 0.0
H972 H 0.25379 0.42628 0.10628 0.0
H973 H 0.28711 0.46832 0.15228 0.0
H974 H 0.21722 0.53002 0.1155 0.0
H975 H 0.22542 0.56041 0.08928 0.0
O976 O 0.3113 0.50845 0.09767 0.0
C977 C 0.33245 0.54238 0.13184 0.0
C978 C 0.26054 0.55547 0.09089 0.0
C979 C 0.23411 0.53378 0.1111 0.0
N980 N 0.27283 0.52615 0.11454 0.0
C981 C 0.27748 0.54292 0.10022 0.0
C982 C 0.25147 0.52157 0.12011 0.0
C983 C 0.23871 0.55082 0.09638 0.0
C984 C 0.35131 0.48554 0.17816 0.0
N985 N 0.35904 0.50011 0.16281 0.0
C986 C 0.35599 0.48849 0.20054 0.0
C987 C 0.36868 0.50649 0.20717 0.0
C988 C 0.37652 0.52127 0.19141 0.0
C989 C 0.37151 0.51781 0.16919 0.0
C990 C 0.42063 0.48995 0.12862 0.0
C991 C 0.38782 0.51294 0.1066 0.0
C992 C 0.39849 0.4877 0.13455 0.0
N993 N 0.38243 0.49922 0.12365 0.0
C994 C 0.40978 0.5156 0.10022 0.0
C995 C 0.42627 0.50403 0.11135 0.0
C996 C 0.32831 0.49976 0.08886 0.0
C997 C 0.27023 0.4455 0.13124 0.0
C998 C 0.27365 0.47818 0.09953 0.0
C999 C 0.26338 0.45825 0.0942 0.0
C1000 C 0.26169 0.44182 0.11019 0.0
N1001 N 0.28195 0.48169 0.12022 0.0
C1002 C 0.28037 0.46565 0.13598 0.0
Co1003 Co 0.35012 0.50593 0.87983 0.0
Co1004 Co 0.29489 0.49317 0.8827 0.0
O1005 O 0.31934 0.51114 0.87103 0.0
C1006 C 0.3466 0.5562 0.8762 0.0
O1007 O 0.32591 0.55619 0.86981 0.0
C1008 C 0.28632 0.49408 0.83392 0.0
O1009 O 0.30753 0.4919 0.83026 0.0
O1010 O 0.30975 0.46536 0.87312 0.0
O1011 O 0.34501 0.47349 0.88099 0.0
H1012 H 0.26171 0.43028 0.92523 0.0
H1013 H 0.34048 0.53179 0.83891 0.0
O1014 O 0.357 0.53828 0.8798 0.0
H1015 H 0.3864 0.46927 0.81483 0.0
H1016 H 0.43231 0.51811 0.87779 0.0
H1017 H 0.37167 0.47693 0.91293 0.0
H1018 H 0.37648 0.47359 0.85396 0.0
H1019 H 0.39377 0.52423 0.86621 0.0
O1020 O 0.27901 0.49482 0.8536 0.0
H1021 H 0.29201 0.45313 0.91064 0.0
H1022 H 0.24581 0.49518 0.87877 0.0
H1023 H 0.40999 0.47016 0.92485 0.0
H1024 H 0.35033 0.52834 0.79975 0.0
H1025 H 0.44064 0.49083 0.90723 0.0
H1026 H 0.37341 0.49684 0.7874 0.0
O1027 O 0.34204 0.50857 0.91139 0.0
H1028 H 0.26661 0.57043 0.87233 0.0
H1029 H 0.27386 0.50847 0.92455 0.0
H1030 H 0.25593 0.54288 0.93667 0.0
H1031 H 0.25214 0.57416 0.91046 0.0
H1032 H 0.28467 0.53578 0.86098 0.0
H1033 H 0.21503 0.47265 0.89283 0.0
H1034 H 0.22289 0.43998 0.91632 0.0
O1035 O 0.30951 0.49107 0.91245 0.0
C1036 C 0.32979 0.45985 0.87628 0.0
C1037 C 0.25807 0.44449 0.91505 0.0
C1038 C 0.23187 0.46826 0.89684 0.0
N1039 N 0.27069 0.47554 0.89397 0.0
C1040 C 0.27516 0.45753 0.90678 0.0
C1041 C 0.24938 0.48092 0.88887 0.0
C1042 C 0.2363 0.44994 0.91003 0.0
C1043 C 0.35087 0.51832 0.83387 0.0
N1044 N 0.35818 0.50319 0.84891 0.0
C1045 C 0.35625 0.51632 0.81157 0.0
C1046 C 0.36915 0.49861 0.80464 0.0
C1047 C 0.37642 0.48314 0.82001 0.0
C1048 C 0.37071 0.48567 0.84217 0.0
C1049 C 0.4191 0.50897 0.88556 0.0
C1050 C 0.38491 0.4859 0.90508 0.0
C1051 C 0.39724 0.51239 0.87911 0.0
N1052 N 0.38048 0.50082 0.88876 0.0
C1053 C 0.40658 0.48204 0.91195 0.0
C1054 C 0.42377 0.49365 0.90207 0.0
C1055 C 0.32638 0.49943 0.92195 0.0
C1056 C 0.26815 0.55692 0.88391 0.0
C1057 C 0.27248 0.52206 0.9131 0.0
C1058 C 0.2622 0.54148 0.92003 0.0
C1059 C 0.26006 0.55901 0.90531 0.0
N1060 N 0.28039 0.52013 0.89208 0.0
C1061 C 0.27832 0.53724 0.87756 0.0
Co1062 Co 0.49141 0.35362 0.87558 0.0
Co1063 Co 0.50918 0.3005 0.88014 0.0
O1064 O 0.48947 0.32257 0.86709 0.0
C1065 C 0.44258 0.34758 0.87998 0.0
O1066 O 0.44582 0.3318 0.89448 0.0
C1067 C 0.51004 0.29042 0.83189 0.0
O1068 O 0.51133 0.31163 0.82777 0.0
O1069 O 0.53545 0.31768 0.87034 0.0
O1070 O 0.52405 0.35141 0.88035 0.0
H1071 H 0.57426 0.27486 0.92479 0.0
H1072 H 0.46938 0.3422 0.83339 0.0
O1073 O 0.45889 0.35708 0.87082 0.0
H1074 H 0.53117 0.39096 0.81298 0.0
H1075 H 0.47217 0.43429 0.86998 0.0
H1076 H 0.51476 0.37828 0.91092 0.0
H1077 H 0.52434 0.38158 0.85194 0.0
H1078 H 0.47081 0.39516 0.85891 0.0
O1079 O 0.50927 0.2835 0.85172 0.0
H1080 H 0.54894 0.30237 0.90871 0.0
H1081 H 0.51173 0.25136 0.87822 0.0
H1082 H 0.51676 0.41726 0.92241 0.0
H1083 H 0.47542 0.35143 0.79424 0.0
H1084 H 0.49535 0.44557 0.90188 0.0
H1085 H 0.50657 0.3759 0.78381 0.0
O1086 O 0.48662 0.34549 0.907 0.0
H1087 H 0.43429 0.26631 0.87048 0.0
H1088 H 0.4955 0.2795 0.92255 0.0
H1089 H 0.46249 0.2594 0.93514 0.0
H1090 H 0.4316 0.25264 0.90901 0.0
H1091 H 0.46755 0.2865 0.85862 0.0
H1092 H 0.53678 0.2233 0.89381 0.0
H1093 H 0.56826 0.235 0.91736 0.0
O1094 O 0.50949 0.31648 0.90929 0.0
C1095 C 0.53921 0.33782 0.87511 0.0
C1096 C 0.56057 0.26956 0.9146 0.0
C1097 C 0.53956 0.24062 0.89719 0.0
N1098 N 0.52879 0.27848 0.89266 0.0
C1099 C 0.54614 0.28506 0.90549 0.0
C1100 C 0.52546 0.25659 0.88836 0.0
C1101 C 0.55721 0.24719 0.91041 0.0
C1102 C 0.48282 0.35306 0.829 0.0
N1103 N 0.49646 0.36136 0.84494 0.0
C1104 C 0.48622 0.35814 0.8068 0.0
C1105 C 0.50372 0.37184 0.80096 0.0
C1106 C 0.51755 0.38027 0.81731 0.0
C1107 C 0.51365 0.37483 0.83934 0.0
C1108 C 0.4816 0.42211 0.87903 0.0
C1109 C 0.5055 0.39051 0.90182 0.0
C1110 C 0.48086 0.39991 0.87287 0.0
N1111 N 0.49281 0.38445 0.88417 0.0
C1112 C 0.50665 0.41255 0.90844 0.0
C1113 C 0.49462 0.42843 0.89693 0.0
C1114 C 0.49793 0.33169 0.91819 0.0
C1115 C 0.44767 0.2691 0.882 0.0
C1116 C 0.48212 0.27667 0.91108 0.0
C1117 C 0.46348 0.26525 0.9183 0.0
C1118 C 0.44616 0.26145 0.90363 0.0
N1119 N 0.4835 0.28405 0.88982 0.0
C1120 C 0.46657 0.28045 0.87536 0.0
Co1121 Co 0.6527 0.4925 0.87111 0.0
Co1122 Co 0.70511 0.51249 0.876 0.0
O1123 O 0.68387 0.49176 0.8631 0.0
C1124 C 0.65928 0.44397 0.87813 0.0
O1125 O 0.6736 0.44804 0.8939 0.0
C1126 C 0.71461 0.5135 0.82782 0.0
O1127 O 0.69332 0.51399 0.82393 0.0
O1128 O 0.6869 0.53808 0.86615 0.0
O1129 O 0.6534 0.5253 0.87499 0.0
H1130 H 0.72822 0.57877 0.92018 0.0
H1131 H 0.66557 0.46989 0.82973 0.0
O1132 O 0.6507 0.45972 0.86717 0.0
H1133 H 0.61439 0.52891 0.80689 0.0
H1134 H 0.57303 0.46973 0.86469 0.0
H1135 H 0.62667 0.5151 0.90581 0.0
H1136 H 0.62366 0.52358 0.84616 0.0
H1137 H 0.6123 0.46987 0.85421 0.0
O1138 O 0.72185 0.51316 0.84755 0.0
H1139 H 0.70172 0.55224 0.90435 0.0
H1140 H 0.75407 0.51708 0.87389 0.0
H1141 H 0.5875 0.51565 0.91668 0.0
H1142 H 0.65652 0.47445 0.7903 0.0
H1143 H 0.56037 0.49284 0.89606 0.0
H1144 H 0.63081 0.5042 0.77866 0.0
O1145 O 0.66063 0.48888 0.90278 0.0
H1146 H 0.74246 0.43907 0.86667 0.0
H1147 H 0.72679 0.49983 0.91844 0.0
H1148 H 0.74835 0.46776 0.93118 0.0
H1149 H 0.75637 0.4371 0.9052 0.0
H1150 H 0.72079 0.47138 0.85466 0.0
H1151 H 0.78112 0.54336 0.88923 0.0
H1152 H 0.76824 0.57442 0.91263 0.0
O1153 O 0.68928 0.51222 0.90508 0.0
C1154 C 0.66652 0.54108 0.87033 0.0
C1155 C 0.73404 0.56527 0.91006 0.0
C1156 C 0.76373 0.54541 0.89266 0.0
N1157 N 0.72634 0.53304 0.88834 0.0
C1158 C 0.71912 0.55016 0.9011 0.0
C1159 C 0.74832 0.53062 0.88398 0.0
C1160 C 0.75649 0.56283 0.9058 0.0
C1161 C 0.65419 0.48272 0.82481 0.0
N1162 N 0.64514 0.49642 0.84023 0.0
C1163 C 0.64921 0.48529 0.80245 0.0
C1164 C 0.63482 0.50201 0.79593 0.0
C1165 C 0.62562 0.5159 0.81176 0.0
C1166 C 0.631 0.51285 0.83396 0.0
C1167 C 0.58468 0.47981 0.87375 0.0
C1168 C 0.61495 0.50529 0.89663 0.0
C1169 C 0.60695 0.47993 0.86792 0.0
N1170 N 0.62175 0.4927 0.87923 0.0
C1171 C 0.5928 0.5056 0.90292 0.0
C1172 C 0.57759 0.49277 0.89135 0.0
C1173 C 0.67426 0.50042 0.91394 0.0
C1174 C 0.73912 0.45235 0.87813 0.0
C1175 C 0.73015 0.48654 0.90704 0.0
C1176 C 0.74241 0.46843 0.91435 0.0
C1177 C 0.74691 0.45124 0.89976 0.0
N1178 N 0.72265 0.48753 0.88578 0.0
C1179 C 0.72693 0.47072 0.8714 0.0
Co1180 Co 0.52257 0.65182 0.87481 0.0
Co1181 Co 0.49606 0.70181 0.87845 0.0
O1182 O 0.52016 0.68313 0.86714 0.0
C1183 C 0.57036 0.66778 0.87358 0.0
O1184 O 0.56551 0.68824 0.86848 0.0
C1185 C 0.49719 0.71121 0.83014 0.0
O1186 O 0.49927 0.68997 0.82644 0.0
O1187 O 0.47329 0.68084 0.86717 0.0
O1188 O 0.48985 0.64863 0.87436 0.0
H1189 H 0.42483 0.71703 0.91788 0.0
H1190 H 0.54636 0.66947 0.83552 0.0
O1191 O 0.55552 0.65314 0.87595 0.0
H1192 H 0.49989 0.6091 0.80717 0.0
H1193 H 0.55529 0.57541 0.87186 0.0
H1194 H 0.49866 0.62275 0.90599 0.0
H1195 H 0.49973 0.61848 0.8467 0.0
H1196 H 0.55182 0.61451 0.86118 0.0
O1197 O 0.4953 0.71839 0.8498 0.0
H1198 H 0.45526 0.69381 0.90417 0.0
H1199 H 0.48593 0.74991 0.87556 0.0
H1200 H 0.50138 0.58365 0.91693 0.0
H1201 H 0.54736 0.6604 0.796 0.0
H1202 H 0.52988 0.5597 0.89985 0.0
H1203 H 0.52393 0.63005 0.78151 0.0
O1204 O 0.52199 0.6595 0.90666 0.0
H1205 H 0.56403 0.74899 0.87321 0.0
H1206 H 0.50367 0.72427 0.92166 0.0
H1207 H 0.53181 0.7498 0.9362 0.0
H1208 H 0.56224 0.7624 0.91189 0.0
H1209 H 0.53568 0.72326 0.85941 0.0
H1210 H 0.45574 0.77371 0.88882 0.0
H1211 H 0.42494 0.75729 0.91021 0.0
O1212 O 0.49626 0.68609 0.90768 0.0
C1213 C 0.47281 0.65994 0.86945 0.0
C1214 C 0.43819 0.72439 0.90863 0.0
C1215 C 0.45552 0.7562 0.89229 0.0
N1216 N 0.47243 0.7205 0.8892 0.0
C1217 C 0.45549 0.71133 0.90087 0.0
C1218 C 0.47255 0.74262 0.88478 0.0
C1219 C 0.43825 0.74697 0.9043 0.0
C1220 C 0.53644 0.656 0.82954 0.0
N1221 N 0.52325 0.64437 0.8436 0.0
C1222 C 0.53693 0.65104 0.80704 0.0
C1223 C 0.52374 0.63406 0.79891 0.0
C1224 C 0.51023 0.62232 0.81329 0.0
C1225 C 0.51016 0.62777 0.83568 0.0
C1226 C 0.54277 0.58566 0.87939 0.0
C1227 C 0.51099 0.6124 0.89835 0.0
C1228 C 0.54076 0.60784 0.87345 0.0
N1229 N 0.52493 0.62088 0.88283 0.0
C1230 C 0.5125 0.59028 0.90466 0.0
C1231 C 0.5285 0.57686 0.89509 0.0
C1232 C 0.50872 0.67196 0.91715 0.0
C1233 C 0.55084 0.74364 0.88396 0.0
C1234 C 0.51695 0.72951 0.91102 0.0
C1235 C 0.53279 0.74406 0.91932 0.0
C1236 C 0.54984 0.75114 0.90567 0.0
N1237 N 0.51804 0.72223 0.8897 0.0
C1238 C 0.53471 0.72911 0.87622 0.0
Co1239 Co 0.65 0.51141 0.12135 0.0
Co1240 Co 0.70365 0.49405 0.11987 0.0
O1241 O 0.68069 0.5139 0.13145 0.0
C1242 C 0.65729 0.56074 0.12818 0.0
O1243 O 0.67766 0.55829 0.1351 0.0
C1244 C 0.71216 0.49462 0.16862 0.0
O1245 O 0.69084 0.49396 0.17227 0.0
O1246 O 0.68646 0.46784 0.12974 0.0
O1247 O 0.65291 0.47863 0.11846 0.0
H1248 H 0.73179 0.42805 0.07834 0.0
H1249 H 0.65969 0.53404 0.16415 0.0
O1250 O 0.64539 0.54417 0.12307 0.0
H1251 H 0.60835 0.47385 0.18249 0.0
H1252 H 0.56883 0.5293 0.1209 0.0
H1253 H 0.62795 0.48594 0.08576 0.0
H1254 H 0.62027 0.47968 0.14412 0.0
H1255 H 0.60718 0.53199 0.13431 0.0
O1256 O 0.71954 0.49477 0.14896 0.0
H1257 H 0.70337 0.45344 0.09253 0.0
H1258 H 0.75271 0.49224 0.1238 0.0
H1259 H 0.5898 0.4826 0.07199 0.0
H1260 H 0.64791 0.52907 0.20259 0.0
H1261 H 0.55992 0.50438 0.0896 0.0
H1262 H 0.62208 0.49872 0.21206 0.0
O1263 O 0.65979 0.51532 0.09047 0.0
H1264 H 0.73808 0.56887 0.12932 0.0
H1265 H 0.72567 0.50713 0.07778 0.0
H1266 H 0.74624 0.53987 0.06523 0.0
H1267 H 0.75261 0.57103 0.0911 0.0
H1268 H 0.7174 0.53589 0.14112 0.0
H1269 H 0.78164 0.46715 0.11011 0.0
H1270 H 0.77125 0.43484 0.08712 0.0
O1271 O 0.68895 0.49267 0.09001 0.0
C1272 C 0.66649 0.46379 0.12458 0.0
C1273 C 0.73653 0.44211 0.08829 0.0
C1274 C 0.7645 0.46404 0.10615 0.0
N1275 N 0.72637 0.47438 0.10886 0.0
C1276 C 0.72051 0.45657 0.09633 0.0
C1277 C 0.74804 0.47815 0.1139 0.0
C1278 C 0.75866 0.44591 0.09324 0.0
C1279 C 0.64814 0.52111 0.16793 0.0
N1280 N 0.64043 0.50748 0.15171 0.0
C1281 C 0.64166 0.51823 0.18983 0.0
C1282 C 0.62722 0.50117 0.19514 0.0
C1283 C 0.61952 0.48721 0.17857 0.0
C1284 C 0.62638 0.49059 0.15686 0.0
C1285 C 0.5817 0.51969 0.11313 0.0
C1286 C 0.61503 0.49538 0.09361 0.0
C1287 C 0.60346 0.52119 0.12061 0.0
N1288 N 0.61978 0.50901 0.11094 0.0
C1289 C 0.59346 0.49346 0.08569 0.0
C1290 C 0.57671 0.5057 0.09556 0.0
C1291 C 0.67407 0.50392 0.08018 0.0
C1292 C 0.73542 0.5554 0.1179 0.0
C1293 C 0.72821 0.52068 0.0891 0.0
C1294 C 0.73996 0.53914 0.08192 0.0
C1295 C 0.74355 0.55661 0.09644 0.0
N1296 N 0.72027 0.51963 0.11017 0.0
C1297 C 0.72376 0.53666 0.1245 0.0
Co1298 Co 0.49363 0.65085 0.12652 0.0
Co1299 Co 0.50858 0.70571 0.1214 0.0
O1300 O 0.48944 0.68225 0.13333 0.0
C1301 C 0.44375 0.65736 0.12593 0.0
O1302 O 0.44503 0.6784 0.13085 0.0
C1303 C 0.50766 0.71477 0.16984 0.0
O1304 O 0.50967 0.69354 0.17359 0.0
O1305 O 0.53572 0.69016 0.13165 0.0
O1306 O 0.52628 0.65444 0.12829 0.0
H1307 H 0.57315 0.736 0.07926 0.0
H1308 H 0.46554 0.66442 0.16471 0.0
O1309 O 0.46102 0.6455 0.12419 0.0
H1310 H 0.52254 0.61562 0.196 0.0
H1311 H 0.47714 0.56947 0.13109 0.0
H1312 H 0.52421 0.62648 0.09725 0.0
H1313 H 0.52185 0.62366 0.15619 0.0
H1314 H 0.47199 0.60876 0.14036 0.0
O1315 O 0.50704 0.72206 0.15014 0.0
H1316 H 0.54906 0.70674 0.094 0.0
H1317 H 0.5082 0.75486 0.12433 0.0
H1318 H 0.53009 0.58735 0.08771 0.0
H1319 H 0.46541 0.65656 0.20448 0.0
H1320 H 0.50644 0.55854 0.10468 0.0
H1321 H 0.49411 0.63203 0.22046 0.0
O1322 O 0.4938 0.65746 0.09436 0.0
H1323 H 0.43263 0.73788 0.12977 0.0
H1324 H 0.49452 0.72565 0.07856 0.0
H1325 H 0.46107 0.74467 0.06534 0.0
H1326 H 0.42984 0.75097 0.09104 0.0
H1327 H 0.46627 0.71865 0.14224 0.0
H1328 H 0.53194 0.78463 0.11008 0.0
H1329 H 0.56464 0.77528 0.08729 0.0
O1330 O 0.5107 0.69034 0.0922 0.0
C1331 C 0.54035 0.66965 0.13172 0.0
C1332 C 0.55892 0.74029 0.08913 0.0
C1333 C 0.53581 0.76758 0.10645 0.0
N1334 N 0.52719 0.72907 0.10993 0.0
C1335 C 0.5452 0.72379 0.09749 0.0
C1336 C 0.52246 0.75064 0.11453 0.0
C1337 C 0.55415 0.76232 0.09366 0.0
C1338 C 0.47781 0.65341 0.17132 0.0
N1339 N 0.49341 0.64423 0.15792 0.0
C1340 C 0.47777 0.64915 0.19397 0.0
C1341 C 0.49391 0.63544 0.20294 0.0
C1342 C 0.50987 0.62624 0.18923 0.0
C1343 C 0.50939 0.63088 0.16667 0.0
C1344 C 0.48758 0.58187 0.12362 0.0
C1345 C 0.51396 0.61402 0.10482 0.0
C1346 C 0.4847 0.60415 0.12876 0.0
N1347 N 0.49791 0.61989 0.11948 0.0
C1348 C 0.51732 0.5919 0.0993 0.0
C1349 C 0.50403 0.57574 0.10881 0.0
C1350 C 0.50287 0.6729 0.08337 0.0
C1351 C 0.44613 0.73525 0.11842 0.0
C1352 C 0.48093 0.72812 0.08981 0.0
C1353 C 0.46207 0.73901 0.08224 0.0
C1354 C 0.44457 0.74256 0.09668 0.0
N1355 N 0.48233 0.72097 0.11116 0.0
C1356 C 0.46526 0.72444 0.12541 0.0
Co1357 Co 0.50869 0.35211 0.1274 0.0
Co1358 Co 0.49258 0.29859 0.12198 0.0
O1359 O 0.51171 0.32101 0.13509 0.0
C1360 C 0.55733 0.34695 0.12183 0.0
O1361 O 0.55386 0.3313 0.10724 0.0
C1362 C 0.49146 0.28786 0.17002 0.0
O1363 O 0.48669 0.30858 0.17415 0.0
O1364 O 0.46585 0.31471 0.13243 0.0
O1365 O 0.47608 0.34911 0.12333 0.0
H1366 H 0.42778 0.27124 0.07796 0.0
H1367 H 0.53166 0.33983 0.16883 0.0
O1368 O 0.54119 0.35623 0.13151 0.0
H1369 H 0.46931 0.38675 0.19176 0.0
H1370 H 0.52596 0.43308 0.13452 0.0
H1371 H 0.48381 0.37696 0.09326 0.0
H1372 H 0.47574 0.3788 0.15241 0.0
H1373 H 0.52862 0.39374 0.14457 0.0
O1374 O 0.49388 0.28133 0.15019 0.0
H1375 H 0.45235 0.29943 0.09405 0.0
H1376 H 0.49177 0.24939 0.12335 0.0
H1377 H 0.48052 0.41614 0.08279 0.0
H1378 H 0.52599 0.34758 0.20837 0.0
H1379 H 0.50169 0.44451 0.10348 0.0
H1380 H 0.49458 0.37114 0.22006 0.0
O1381 O 0.51295 0.34485 0.09568 0.0
H1382 H 0.56878 0.26683 0.12973 0.0
H1383 H 0.50621 0.27879 0.07899 0.0
H1384 H 0.53965 0.26005 0.06546 0.0
H1385 H 0.57122 0.25391 0.09092 0.0
H1386 H 0.53509 0.28568 0.14253 0.0
H1387 H 0.4675 0.22066 0.10775 0.0
H1388 H 0.43529 0.23153 0.08478 0.0
O1389 O 0.49118 0.31501 0.09312 0.0
C1390 C 0.46147 0.33489 0.12842 0.0
C1391 C 0.44179 0.2663 0.08789 0.0
C1392 C 0.46407 0.23791 0.10463 0.0
N1393 N 0.47355 0.27607 0.1095 0.0
C1394 C 0.4558 0.28219 0.097 0.0
C1395 C 0.47771 0.25426 0.11347 0.0
C1396 C 0.44601 0.24402 0.09174 0.0
C1397 C 0.51809 0.35028 0.17378 0.0
N1398 N 0.50411 0.35892 0.15833 0.0
C1399 C 0.51491 0.35453 0.1962 0.0
C1400 C 0.49726 0.36772 0.20274 0.0
C1401 C 0.48307 0.37648 0.18688 0.0
C1402 C 0.48676 0.37187 0.16462 0.0
C1403 C 0.51662 0.42088 0.1254 0.0
C1404 C 0.49299 0.38921 0.10243 0.0
C1405 C 0.51809 0.39856 0.13098 0.0
N1406 N 0.50627 0.38307 0.11961 0.0
C1407 C 0.4911 0.41137 0.09639 0.0
C1408 C 0.503 0.42728 0.10799 0.0
C1409 C 0.502 0.33085 0.08438 0.0
C1410 C 0.55511 0.26935 0.1185 0.0
C1411 C 0.51989 0.27624 0.09017 0.0
C1412 C 0.53877 0.26557 0.08242 0.0
C1413 C 0.55648 0.26213 0.09671 0.0
N1414 N 0.51865 0.28321 0.11158 0.0
C1415 C 0.53596 0.27995 0.12567 0.0
H1416 H 0.15549 0.45814 0.37442 0.0
H1417 H 0.11422 0.43342 0.32187 0.0
H1418 H 0.15276 0.42301 0.39339 0.0
H1419 H 0.11146 0.39784 0.34095 0.0
H1420 H 0.08086 0.36511 0.40601 0.0
H1421 H 0.09132 0.38928 0.37576 0.0
H1422 H 0.15981 0.38295 0.3944 0.0
H1423 H 0.14937 0.35891 0.4249 0.0
C1424 C 0.14625 0.44498 0.36667 0.0
C1425 C 0.13481 0.44864 0.34685 0.0
C1426 C 0.14485 0.42471 0.37744 0.0
C1427 C 0.13177 0.40763 0.36876 0.0
C1428 C 0.12155 0.41075 0.34811 0.0
C1429 C 0.12322 0.43105 0.33713 0.0
C1430 C 0.09823 0.3683 0.40328 0.0
C1431 C 0.11421 0.36046 0.41819 0.0
C1432 C 0.10424 0.38208 0.38581 0.0
C1433 C 0.12637 0.38835 0.38292 0.0
C1434 C 0.14259 0.37867 0.39644 0.0
C1435 C 0.13659 0.3648 0.41386 0.0
H1436 H 0.66148 0.09526 0.40153 0.0
H1437 H 0.62833 0.15255 0.42791 0.0
H1438 H 0.64067 0.09928 0.36709 0.0
H1439 H 0.60737 0.15623 0.3941 0.0
H1440 H 0.57016 0.16313 0.33379 0.0
H1441 H 0.60431 0.16339 0.35545 0.0
H1442 H 0.60238 0.09216 0.3588 0.0
H1443 H 0.56879 0.09214 0.33673 0.0
C1444 C 0.65014 0.10897 0.39983 0.0
C1445 C 0.64633 0.12337 0.4176 0.0
C1446 C 0.63812 0.11121 0.38014 0.0
C1447 C 0.62217 0.12797 0.3778 0.0
C1448 C 0.61964 0.14328 0.39506 0.0
C1449 C 0.63155 0.14101 0.41465 0.0
C1450 C 0.57783 0.14756 0.33815 0.0
C1451 C 0.56719 0.1276 0.33336 0.0
C1452 C 0.59716 0.14767 0.35086 0.0
C1453 C 0.60594 0.12781 0.35924 0.0
C1454 C 0.59633 0.10777 0.35252 0.0
C1455 C 0.57708 0.1077 0.33979 0.0
H1456 H 0.84997 0.62607 0.43252 0.0
H1457 H 0.90568 0.66058 0.40466 0.0
H1458 H 0.8454 0.60554 0.39856 0.0
H1459 H 0.90079 0.64015 0.37011 0.0
H1460 H 0.90763 0.56883 0.33838 0.0
H1461 H 0.9081 0.6018 0.36135 0.0
H1462 H 0.83681 0.60349 0.35992 0.0
H1463 H 0.8366 0.56999 0.33728 0.0
C1464 C 0.86098 0.62964 0.41892 0.0
C1465 C 0.87844 0.6447 0.42144 0.0
C1466 C 0.85818 0.618 0.39926 0.0
C1467 C 0.87279 0.62107 0.38155 0.0
C1468 C 0.88939 0.63723 0.38352 0.0
C1469 C 0.89214 0.649 0.40327 0.0
C1470 C 0.89214 0.57693 0.34214 0.0
C1471 C 0.8721 0.56719 0.3359 0.0
C1472 C 0.89236 0.59582 0.35534 0.0
C1473 C 0.87247 0.60519 0.36276 0.0
C1474 C 0.85241 0.59652 0.35475 0.0
C1475 C 0.85224 0.57755 0.34153 0.0
H1476 H 0.34436 0.90865 0.40332 0.0
H1477 H 0.37755 0.85156 0.43023 0.0
H1478 H 0.36448 0.90381 0.36864 0.0
H1479 H 0.39792 0.84718 0.39635 0.0
H1480 H 0.43365 0.83767 0.33653 0.0
H1481 H 0.40003 0.83866 0.35863 0.0
H1482 H 0.4019 0.90998 0.35775 0.0
H1483 H 0.43477 0.90869 0.33472 0.0
C1484 C 0.35562 0.89486 0.40172 0.0
C1485 C 0.35955 0.88068 0.41966 0.0
C1486 C 0.36725 0.89216 0.3819 0.0
C1487 C 0.38297 0.87517 0.37961 0.0
C1488 C 0.38577 0.86025 0.39718 0.0
C1489 C 0.37421 0.86293 0.41684 0.0
C1490 C 0.42604 0.85347 0.34003 0.0
C1491 C 0.43647 0.87309 0.3337 0.0
C1492 C 0.40703 0.85411 0.35304 0.0
C1493 C 0.3985 0.87441 0.36052 0.0
C1494 C 0.40779 0.89404 0.35227 0.0
C1495 C 0.42661 0.89335 0.33895 0.0
H1496 H 0.16277 0.57197 0.66402 0.0
H1497 H 0.09326 0.56451 0.65103 0.0
H1498 H 0.16339 0.60532 0.641 0.0
H1499 H 0.09369 0.59752 0.62809 0.0
H1500 H 0.09791 0.65937 0.58891 0.0
H1501 H 0.09949 0.63756 0.62291 0.0
H1502 H 0.15985 0.60707 0.60054 0.0
H1503 H 0.15837 0.62881 0.56693 0.0
C1504 C 0.14748 0.57806 0.65699 0.0
C1505 C 0.12792 0.56598 0.65939 0.0
C1506 C 0.14784 0.59695 0.64365 0.0
C1507 C 0.12861 0.604 0.63258 0.0
C1508 C 0.10872 0.59278 0.63655 0.0
C1509 C 0.10844 0.57386 0.64967 0.0
C1510 C 0.11176 0.64838 0.59152 0.0
C1511 C 0.12783 0.64558 0.57509 0.0
C1512 C 0.11263 0.63584 0.61095 0.0
C1513 C 0.12974 0.62049 0.6144 0.0
C1514 C 0.14658 0.61889 0.59859 0.0
C1515 C 0.1456 0.63122 0.57917 0.0
H1516 H 0.36627 0.15952 0.57909 0.0
H1517 H 0.34182 0.09522 0.59767 0.0
H1518 H 0.38904 0.16055 0.61212 0.0
H1519 H 0.36462 0.09635 0.63102 0.0
H1520 H 0.44006 0.09295 0.65227 0.0
H1521 H 0.40537 0.09322 0.63202 0.0
H1522 H 0.39374 0.16038 0.65295 0.0
H1523 H 0.42879 0.1599 0.67345 0.0
C1524 C 0.36528 0.14585 0.59058 0.0
C1525 C 0.35253 0.12712 0.58558 0.0
C1526 C 0.37822 0.14654 0.60965 0.0
C1527 C 0.37883 0.12843 0.62411 0.0
C1528 C 0.36465 0.11046 0.62006 0.0
C1529 C 0.35152 0.10986 0.60102 0.0
C1530 C 0.42966 0.10748 0.65318 0.0
C1531 C 0.43693 0.12638 0.66439 0.0
C1532 C 0.40973 0.10763 0.64167 0.0
C1533 C 0.3968 0.12685 0.64079 0.0
C1534 C 0.4034 0.14535 0.65328 0.0
C1535 C 0.42331 0.14506 0.66513 0.0
H1536 H 0.9003 0.42247 0.68021 0.0
H1537 H 0.83753 0.43662 0.64986 0.0
H1538 H 0.90027 0.38577 0.66305 0.0
H1539 H 0.83732 0.40018 0.63279 0.0
H1540 H 0.83916 0.33415 0.60332 0.0
H1541 H 0.83805 0.35848 0.6357 0.0
H1542 H 0.90475 0.37942 0.62211 0.0
H1543 H 0.9056 0.35549 0.58986 0.0
C1544 C 0.88612 0.41734 0.6706 0.0
C1545 C 0.86893 0.43223 0.66625 0.0
C1546 C 0.88614 0.39645 0.66068 0.0
C1547 C 0.86883 0.39011 0.6465 0.0
C1548 C 0.85076 0.40441 0.64382 0.0
C1549 C 0.85091 0.42534 0.65345 0.0
C1550 C 0.85388 0.34317 0.60797 0.0
C1551 C 0.87252 0.34291 0.5943 0.0
C1552 C 0.8532 0.35724 0.62633 0.0
C1553 C 0.87127 0.37095 0.63138 0.0
C1554 C 0.89066 0.36891 0.61888 0.0
C1555 C 0.89118 0.3552 0.60039 0.0
H1556 H 0.58159 0.84836 0.67787 0.0
H1557 H 0.56266 0.91063 0.64908 0.0
H1558 H 0.6179 0.85122 0.65991 0.0
H1559 H 0.59828 0.91356 0.63128 0.0
H1560 H 0.66208 0.92065 0.60226 0.0
H1561 H 0.6379 0.91767 0.63415 0.0
H1562 H 0.62864 0.84831 0.62072 0.0
H1563 H 0.6534 0.85105 0.58936 0.0
C1564 C 0.58547 0.8629 0.66824 0.0
C1565 C 0.56943 0.87922 0.6647 0.0
C1566 C 0.60612 0.86451 0.65787 0.0
C1567 C 0.61104 0.88264 0.64415 0.0
C1568 C 0.59533 0.89956 0.64196 0.0
C1569 C 0.57479 0.8978 0.65201 0.0
C1570 C 0.65552 0.90459 0.60652 0.0
C1571 C 0.65915 0.88625 0.5928 0.0
C1572 C 0.64154 0.90291 0.62477 0.0
C1573 C 0.63082 0.8829 0.62961 0.0
C1574 C 0.63654 0.864 0.61747 0.0
C1575 C 0.65067 0.86563 0.59932 0.0
H1576 H 0.34816 0.09597 0.44639 0.0
H1577 H 0.34222 0.16629 0.43748 0.0
H1578 H 0.37262 0.09382 0.4145 0.0
H1579 H 0.36692 0.16423 0.40536 0.0
H1580 H 0.40827 0.14463 0.34164 0.0
H1581 H 0.37528 0.14522 0.36533 0.0
H1582 H 0.41173 0.11141 0.41639 0.0
H1583 H 0.44436 0.11113 0.39326 0.0
C1584 C 0.35143 0.11082 0.43697 0.0
C1585 C 0.34329 0.13125 0.4441 0.0
C1586 C 0.36549 0.10963 0.41886 0.0
C1587 C 0.37178 0.12889 0.40765 0.0
C1588 C 0.36214 0.14914 0.41364 0.0
C1589 C 0.34801 0.15033 0.4319 0.0
C1590 C 0.40907 0.13719 0.35786 0.0
C1591 C 0.42887 0.12786 0.36562 0.0
C1592 C 0.39028 0.13761 0.37138 0.0
C1593 C 0.39096 0.12817 0.39256 0.0
C1594 C 0.41065 0.11852 0.40002 0.0
C1595 C 0.42939 0.1185 0.38681 0.0
H1596 H 0.86038 0.32731 0.43121 0.0
H1597 H 0.86203 0.38799 0.46878 0.0
H1598 H 0.86288 0.34896 0.39687 0.0
H1599 H 0.86431 0.40899 0.4351 0.0
H1600 H 0.90004 0.43847 0.38002 0.0
H1601 H 0.89733 0.40976 0.40787 0.0
H1602 H 0.84057 0.38247 0.37454 0.0
H1603 H 0.84354 0.41138 0.34606 0.0
C1604 C 0.86086 0.34514 0.43219 0.0
C1605 C 0.8612 0.35584 0.45285 0.0
C1606 C 0.86231 0.35748 0.41257 0.0
C1607 C 0.86423 0.38058 0.41343 0.0
C1608 C 0.86331 0.39117 0.43397 0.0
C1609 C 0.86186 0.37903 0.45334 0.0
C1610 C 0.88733 0.42601 0.37826 0.0
C1611 C 0.87184 0.42726 0.36107 0.0
C1612 C 0.88575 0.40961 0.39422 0.0
C1613 C 0.86848 0.39419 0.39357 0.0
C1614 C 0.85402 0.39419 0.37538 0.0
C1615 C 0.85574 0.41067 0.35913 0.0
H1616 H 0.5943 0.85191 0.34667 0.0
H1617 H 0.55984 0.89867 0.38781 0.0
H1618 H 0.6239 0.84948 0.37451 0.0
H1619 H 0.58925 0.89673 0.41498 0.0
H1620 H 0.62073 0.86285 0.47149 0.0
H1621 H 0.59718 0.8649 0.43947 0.0
H1622 H 0.6542 0.87062 0.39733 0.0
H1623 H 0.67837 0.86802 0.4299 0.0
C1624 C 0.5934 0.86211 0.36131 0.0
C1625 C 0.57469 0.87522 0.36531 0.0
C1626 C 0.61027 0.86071 0.37721 0.0
C1627 C 0.60857 0.8725 0.39714 0.0
C1628 C 0.59072 0.88698 0.40007 0.0
C1629 C 0.57393 0.88819 0.38446 0.0
C1630 C 0.62848 0.8642 0.45549 0.0
C1631 C 0.65153 0.86545 0.4534 0.0
C1632 C 0.61488 0.86558 0.43707 0.0
C1633 C 0.62381 0.86849 0.41594 0.0
C1634 C 0.64688 0.86852 0.41347 0.0
C1635 C 0.66067 0.86701 0.4321 0.0
H1636 H 0.10063 0.67983 0.4304 0.0
H1637 H 0.1679 0.65751 0.43608 0.0
H1638 H 0.09655 0.65907 0.39593 0.0
H1639 H 0.16405 0.63705 0.40148 0.0
H1640 H 0.15112 0.60355 0.33604 0.0
H1641 H 0.15402 0.63699 0.35885 0.0
H1642 H 0.09739 0.61595 0.39643 0.0
H1643 H 0.09493 0.58252 0.37419 0.0
C1644 C 0.11486 0.67143 0.42362 0.0
C1645 C 0.13466 0.67043 0.43558 0.0
C1646 C 0.11249 0.65942 0.40404 0.0
C1647 C 0.12997 0.64643 0.39608 0.0
C1648 C 0.15041 0.64715 0.40706 0.0
C1649 C 0.15265 0.65885 0.42682 0.0
C1650 C 0.13891 0.60652 0.34872 0.0
C1651 C 0.12278 0.59056 0.3534 0.0
C1652 C 0.14063 0.62554 0.3618 0.0
C1653 C 0.12588 0.62907 0.37933 0.0
C1654 C 0.10878 0.61384 0.38284 0.0
C1655 C 0.10741 0.59467 0.37018 0.0
H1656 H 0.36158 0.91219 0.55877 0.0
H1657 H 0.34052 0.84503 0.56912 0.0
H1658 H 0.3828 0.91106 0.59295 0.0
H1659 H 0.36222 0.84365 0.60347 0.0
H1660 H 0.41519 0.90732 0.65827 0.0
H1661 H 0.3824 0.90633 0.63463 0.0
H1662 H 0.40431 0.84456 0.60677 0.0
H1663 H 0.43701 0.84557 0.63019 0.0
C1664 C 0.36105 0.89738 0.56878 0.0
C1665 C 0.34947 0.87871 0.56147 0.0
C1666 C 0.37309 0.89675 0.58839 0.0
C1667 C 0.37418 0.87726 0.60089 0.0
C1668 C 0.36163 0.85888 0.59415 0.0
C1669 C 0.34916 0.85969 0.57464 0.0
C1670 C 0.41267 0.89322 0.64757 0.0
C1671 C 0.42881 0.87668 0.64586 0.0
C1672 C 0.39395 0.8927 0.63399 0.0
C1673 C 0.39088 0.87545 0.61876 0.0
C1674 C 0.4061 0.85798 0.61845 0.0
C1675 C 0.42493 0.85865 0.63176 0.0
H1676 H 0.15711 0.43105 0.63147 0.0
H1677 H 0.09133 0.41424 0.65292 0.0
H1678 H 0.15745 0.39886 0.60728 0.0
H1679 H 0.09161 0.38213 0.62842 0.0
H1680 H 0.09109 0.36409 0.55172 0.0
H1681 H 0.09176 0.38564 0.58564 0.0
H1682 H 0.1538 0.3556 0.60376 0.0
H1683 H 0.15283 0.33344 0.5697 0.0
C1684 C 0.14296 0.42012 0.63147 0.0
C1685 C 0.1241 0.42528 0.64391 0.0
C1686 C 0.14322 0.40162 0.61771 0.0
C1687 C 0.1245 0.38812 0.61587 0.0
C1688 C 0.10624 0.39235 0.6295 0.0
C1689 C 0.10611 0.41067 0.64358 0.0
C1690 C 0.10468 0.36178 0.56315 0.0
C1691 C 0.12198 0.34725 0.55811 0.0
C1692 C 0.10496 0.37396 0.58265 0.0
C1693 C 0.12278 0.37222 0.59736 0.0
C1694 C 0.13983 0.35716 0.5927 0.0
C1695 C 0.13927 0.3445 0.57332 0.0
H1696 H 0.59042 0.09295 0.65593 0.0
H1697 H 0.56964 0.15635 0.63082 0.0
H1698 H 0.62271 0.09408 0.63176 0.0
H1699 H 0.60188 0.15751 0.6069 0.0
H1700 H 0.66557 0.15671 0.5687 0.0
H1701 H 0.64418 0.15734 0.60317 0.0
H1702 H 0.62112 0.09125 0.58977 0.0
H1703 H 0.64199 0.09087 0.55547 0.0
C1704 C 0.59309 0.10741 0.64579 0.0
C1705 C 0.57737 0.12443 0.64506 0.0
C1706 C 0.61152 0.10802 0.63191 0.0
C1707 C 0.61473 0.12582 0.61736 0.0
C1708 C 0.59997 0.14366 0.61804 0.0
C1709 C 0.58142 0.14292 0.63164 0.0
C1710 C 0.6564 0.14217 0.57356 0.0
C1711 C 0.6553 0.12377 0.55955 0.0
C1712 C 0.64412 0.14254 0.59315 0.0
C1713 C 0.63102 0.12433 0.59916 0.0
C1714 C 0.63125 0.10541 0.58577 0.0
C1715 C 0.64309 0.10523 0.56608 0.0
H1716 H 0.91218 0.58448 0.65426 0.0
H1717 H 0.85108 0.56387 0.62378 0.0
H1718 H 0.91076 0.61904 0.63329 0.0
H1719 H 0.84973 0.59808 0.60295 0.0
H1720 H 0.8472 0.66259 0.56968 0.0
H1721 H 0.84683 0.63897 0.60262 0.0
H1722 H 0.91595 0.62461 0.59298 0.0
H1723 H 0.91613 0.64803 0.56032 0.0
C1724 C 0.89824 0.58751 0.64347 0.0
C1725 C 0.88193 0.57131 0.64042 0.0
C1726 C 0.89744 0.60726 0.63145 0.0
C1727 C 0.88017 0.61128 0.6164 0.0
C1728 C 0.86313 0.59568 0.61456 0.0
C1729 C 0.86404 0.57592 0.62635 0.0
C1730 C 0.86245 0.6551 0.57527 0.0
C1731 C 0.88172 0.65715 0.56271 0.0
C1732 C 0.86223 0.64143 0.59393 0.0
C1733 C 0.88134 0.62979 0.60032 0.0
C1734 C 0.90103 0.63349 0.58872 0.0
C1735 C 0.90116 0.64687 0.57 0.0
H1736 H 0.34356 0.41094 0.09901 0.0
H1737 H 0.37385 0.43323 0.15962 0.0
H1738 H 0.36578 0.37721 0.10051 0.0
H1739 H 0.39595 0.39979 0.16105 0.0
H1740 H 0.43239 0.3366 0.16268 0.0
H1741 H 0.39848 0.35882 0.16381 0.0
H1742 H 0.4063 0.37406 0.09464 0.0
H1743 H 0.43994 0.35207 0.09372 0.0
C1744 C 0.3545 0.40839 0.11293 0.0
C1745 C 0.3572 0.42487 0.12902 0.0
C1746 C 0.36727 0.38912 0.11375 0.0
C1747 C 0.38273 0.38589 0.13082 0.0
C1748 C 0.38407 0.40162 0.1478 0.0
C1749 C 0.37153 0.42091 0.14685 0.0
C1750 C 0.42626 0.34402 0.14761 0.0
C1751 C 0.43852 0.34262 0.12809 0.0
C1752 C 0.40702 0.35687 0.14826 0.0
C1753 C 0.39975 0.36828 0.12933 0.0
C1754 C 0.41122 0.36529 0.10942 0.0
C1755 C 0.43051 0.35276 0.10888 0.0
H1756 H 0.46721 0.61549 0.86914 0.0
H1757 H 0.43019 0.67651 0.86682 0.0
H1758 H 0.43333 0.59482 0.8714 0.0
H1759 H 0.39564 0.65517 0.86922 0.0
H1760 H 0.34526 0.59234 0.84867 0.0
H1761 H 0.37368 0.62135 0.84628 0.0
H1762 H 0.40543 0.59474 0.90426 0.0
H1763 H 0.37762 0.56592 0.9064 0.0
C1764 C 0.45185 0.6246 0.86885 0.0
C1765 C 0.45157 0.64779 0.86798 0.0
C1766 C 0.43237 0.61264 0.87027 0.0
C1767 C 0.41192 0.62342 0.87091 0.0
C1768 C 0.41127 0.64652 0.86886 0.0
C1769 C 0.43101 0.65867 0.86748 0.0
C1770 C 0.35793 0.59325 0.86127 0.0
C1771 C 0.35948 0.5768 0.87756 0.0
C1772 C 0.37414 0.60978 0.85989 0.0
C1773 C 0.3919 0.60998 0.87487 0.0
C1774 C 0.3921 0.59474 0.89231 0.0
C1775 C 0.37617 0.57828 0.89356 0.0
H1776 H 0.42966 0.37483 0.84671 0.0
H1777 H 0.40515 0.34187 0.90488 0.0
H1778 H 0.39592 0.39621 0.84435 0.0
H1779 H 0.37092 0.36315 0.90228 0.0
H1780 H 0.34238 0.43548 0.911 0.0
H1781 H 0.36472 0.40213 0.90983 0.0
H1782 H 0.35634 0.39926 0.83905 0.0
H1783 H 0.33409 0.43307 0.84044 0.0
C1784 C 0.41681 0.37175 0.85872 0.0
C1785 C 0.42027 0.3569 0.87622 0.0
C1786 C 0.3973 0.38389 0.85722 0.0
C1787 C 0.38071 0.38156 0.87322 0.0
C1788 C 0.38349 0.36552 0.88983 0.0
C1789 C 0.40305 0.35325 0.89127 0.0
C1790 C 0.34453 0.42711 0.89535 0.0
C1791 C 0.33638 0.43655 0.87585 0.0
C1792 C 0.35734 0.40798 0.89463 0.0
C1793 C 0.36252 0.39807 0.87431 0.0
C1794 C 0.35282 0.40661 0.85494 0.0
C1795 C 0.33986 0.42576 0.85572 0.0
H1796 H 0.63722 0.42769 0.84251 0.0
H1797 H 0.65819 0.41047 0.90844 0.0
H1798 H 0.613 0.39564 0.8417 0.0
H1799 H 0.63382 0.3783 0.90761 0.0
H1800 H 0.55722 0.36119 0.90827 0.0
H1801 H 0.59218 0.38092 0.90825 0.0
H1802 H 0.60733 0.35388 0.84412 0.0
H1803 H 0.57208 0.33368 0.84438 0.0
C1804 C 0.63716 0.41667 0.85658 0.0
C1805 C 0.64938 0.42178 0.87567 0.0
C1806 C 0.62337 0.3982 0.85605 0.0
C1807 C 0.62134 0.38459 0.87468 0.0
C1808 C 0.63495 0.38863 0.89307 0.0
C1809 C 0.64898 0.40699 0.89351 0.0
C1810 C 0.5683 0.35901 0.89443 0.0
C1811 C 0.56204 0.34603 0.87629 0.0
C1812 C 0.5884 0.37017 0.89448 0.0
C1813 C 0.60253 0.36895 0.87619 0.0
C1814 C 0.59674 0.35508 0.85844 0.0
C1815 C 0.5767 0.34349 0.8586 0.0
H1816 H 0.6817 0.57904 0.85012 0.0
H1817 H 0.6309 0.55446 0.89356 0.0
H1818 H 0.66481 0.61603 0.85173 0.0
H1819 H 0.61452 0.59077 0.89526 0.0
H1820 H 0.59389 0.65625 0.90942 0.0
H1821 H 0.62357 0.62903 0.9096 0.0
H1822 H 0.62599 0.63136 0.83848 0.0
H1823 H 0.59646 0.65899 0.83845 0.0
C1824 C 0.66714 0.58156 0.86014 0.0
C1825 C 0.65754 0.56378 0.87157 0.0
C1826 C 0.65752 0.60265 0.86106 0.0
C1827 C 0.63856 0.60633 0.87388 0.0
C1828 C 0.62939 0.58861 0.88561 0.0
C1829 C 0.63867 0.56767 0.88439 0.0
C1830 C 0.60169 0.6519 0.89394 0.0
C1831 C 0.59319 0.65984 0.87395 0.0
C1832 C 0.61849 0.63615 0.894 0.0
C1833 C 0.6268 0.62782 0.87403 0.0
C1834 C 0.62 0.63759 0.85411 0.0
C1835 C 0.6032 0.65349 0.85408 0.0
H1836 H 0.62981 0.57665 0.09696 0.0
H1837 H 0.66002 0.59345 0.15925 0.0
H1838 H 0.60671 0.60951 0.09908 0.0
H1839 H 0.63624 0.62629 0.16174 0.0
H1840 H 0.55795 0.64712 0.16603 0.0
H1841 H 0.59227 0.62583 0.16548 0.0
H1842 H 0.60771 0.65282 0.10146 0.0
H1843 H 0.5735 0.6744 0.10227 0.0
C1844 C 0.63184 0.58772 0.11086 0.0
C1845 C 0.64668 0.58262 0.12791 0.0
C1846 C 0.6187 0.60657 0.11203 0.0
C1847 C 0.61975 0.62047 0.13054 0.0
C1848 C 0.63523 0.61588 0.14725 0.0
C1849 C 0.64886 0.59721 0.14579 0.0
C1850 C 0.5692 0.6492 0.15233 0.0
C1851 C 0.56335 0.66251 0.13432 0.0
C1852 C 0.58882 0.63707 0.152 0.0
C1853 C 0.6026 0.63767 0.1334 0.0
C1854 C 0.59741 0.65216 0.11602 0.0
C1855 C 0.57796 0.6646 0.11655 0.0
H1856 H 0.33619 0.56792 0.09575 0.0
H1857 H 0.34615 0.56762 0.16615 0.0
H1858 H 0.35872 0.60129 0.09267 0.0
H1859 H 0.36869 0.60108 0.16322 0.0
H1860 H 0.40601 0.66553 0.14951 0.0
H1861 H 0.37269 0.64235 0.15057 0.0
H1862 H 0.40023 0.60066 0.09986 0.0
H1863 H 0.43334 0.62333 0.09913 0.0
C1864 C 0.34238 0.57566 0.11065 0.0
C1865 C 0.33924 0.56558 0.13121 0.0
C1866 C 0.35539 0.5946 0.10889 0.0
C1867 C 0.36555 0.6037 0.12769 0.0
C1868 C 0.36085 0.5946 0.1485 0.0
C1869 C 0.34793 0.57553 0.15022 0.0
C1870 C 0.40461 0.65171 0.13826 0.0
C1871 C 0.42219 0.64616 0.12425 0.0
C1872 C 0.38565 0.63842 0.13895 0.0
C1873 C 0.38383 0.61979 0.12522 0.0
C1874 C 0.40098 0.61508 0.1104 0.0
C1875 C 0.42 0.62799 0.11006 0.0
H1876 H 0.66749 0.43301 0.15761 0.0
H1877 H 0.64643 0.44379 0.09048 0.0
H1878 H 0.64639 0.39832 0.15849 0.0
H1879 H 0.62573 0.40938 0.09113 0.0
H1880 H 0.59261 0.34499 0.09368 0.0
H1881 H 0.6257 0.36811 0.09507 0.0
H1882 H 0.60484 0.39439 0.15786 0.0
H1883 H 0.57195 0.37142 0.15651 0.0
C1884 C 0.65898 0.42753 0.14286 0.0
C1885 C 0.65844 0.44092 0.124 0.0
C1886 C 0.64685 0.40782 0.14337 0.0
C1887 C 0.63439 0.40114 0.12488 0.0
C1888 C 0.63536 0.41386 0.10553 0.0
C1889 C 0.64709 0.43363 0.10518 0.0
C1890 C 0.59545 0.3552 0.10808 0.0
C1891 C 0.57953 0.35666 0.12481 0.0
C1892 C 0.61435 0.36848 0.10883 0.0
C1893 C 0.61777 0.38321 0.12648 0.0
C1894 C 0.6028 0.38313 0.14413 0.0
C1895 C 0.58384 0.37008 0.14326 0.0
H1896 H 0.04928 0.34111 0.46743 0.0
H1897 H 0.05098 0.31047 0.5318 0.0
H1898 H 0.00911 0.34368 0.4697 0.0
H1899 H 0.01085 0.31337 0.53408 0.0
H1900 H 0.94142 0.3461 0.53792 0.0
H1901 H 0.98172 0.34534 0.53552 0.0
H1902 H 0.97727 0.31471 0.4714 0.0
H1903 H 0.93709 0.31511 0.47382 0.0
C1904 C 0.04113 0.33501 0.48208 0.0
C1905 C 0.05335 0.32553 0.4994 0.0
C1906 C 0.01814 0.33643 0.48333 0.0
C1907 C 0.00694 0.32878 0.50209 0.0
C1908 C 0.01912 0.31955 0.51952 0.0
C1909 C 0.04207 0.31776 0.51811 0.0
C1910 C 0.94903 0.33934 0.52325 0.0
C1911 C 0.93605 0.33063 0.50608 0.0
C1912 C 0.97207 0.3388 0.52195 0.0
C1913 C 0.98255 0.32995 0.50328 0.0
C1914 C 0.96959 0.32174 0.48591 0.0
C1915 C 0.9466 0.3219 0.48737 0.0
H1916 H 0.68762 0.05545 0.52949 0.0
H1917 H 0.65645 0.05268 0.46537 0.0
H1918 H 0.68683 0.0153 0.5317 0.0
H1919 H 0.65609 0.0122 0.4675 0.0
H1920 H 0.69136 0.94201 0.47241 0.0
H1921 H 0.6878 0.98202 0.46933 0.0
H1922 H 0.65653 0.98426 0.53314 0.0
H1923 H 0.65958 0.94412 0.53614 0.0
C1924 C 0.68061 0.04627 0.51583 0.0
C1925 C 0.67216 0.05726 0.49719 0.0
C1926 C 0.68003 0.02327 0.5172 0.0
C1927 C 0.67137 0.01067 0.4998 0.0
C1928 C 0.6629 0.02157 0.48113 0.0
C1929 C 0.66305 0.04469 0.47994 0.0
C1930 C 0.68358 0.95096 0.48576 0.0
C1931 C 0.67593 0.9398 0.50463 0.0
C1932 C 0.68143 0.97386 0.48389 0.0
C1933 C 0.67193 0.9862 0.50101 0.0
C1934 C 0.66402 0.97511 0.51975 0.0
C1935 C 0.66577 0.95213 0.52145 0.0
H1936 H 0.95016 0.63926 0.48028 0.0
H1937 H 0.95131 0.70094 0.51617 0.0
H1938 H 0.99066 0.63852 0.48086 0.0
H1939 H 0.99123 0.70007 0.51667 0.0
H1940 H 0.05971 0.7068 0.48846 0.0
H1941 H 0.01991 0.70414 0.4876 0.0
H1942 H 0.02365 0.63611 0.50829 0.0
H1943 H 0.06409 0.63863 0.50919 0.0
C1944 C 0.95896 0.65263 0.48825 0.0
C1945 C 0.94738 0.6703 0.49791 0.0
C1946 C 0.98212 0.65211 0.48871 0.0
C1947 C 0.9941 0.66934 0.49864 0.0
C1948 C 0.98249 0.68672 0.50859 0.0
C1949 C 0.95951 0.68718 0.5083 0.0
C1950 C 0.05225 0.6912 0.49291 0.0
C1951 C 0.06526 0.67299 0.49918 0.0
C1952 C 0.02932 0.68972 0.49244 0.0
C1953 C 0.01862 0.66999 0.49809 0.0
C1954 C 0.03148 0.65152 0.50381 0.0
C1955 C 0.0546 0.65303 0.50446 0.0
H1956 H 0.34927 0.06077 0.53678 0.0
H1957 H 0.31784 0.06099 0.47274 0.0
H1958 H 0.35248 0.02044 0.53489 0.0
H1959 H 0.32145 0.02094 0.47076 0.0
H1960 H 0.35183 0.95062 0.46795 0.0
H1961 H 0.35315 0.99105 0.46981 0.0
H1962 H 0.32211 0.98918 0.53377 0.0
H1963 H 0.32038 0.94901 0.53183 0.0
C1964 C 0.34328 0.05226 0.52224 0.0
C1965 C 0.33316 0.06402 0.505 0.0
C1966 C 0.34507 0.02922 0.52119 0.0
C1967 C 0.33725 0.01764 0.50265 0.0
C1968 C 0.32777 0.02948 0.48514 0.0
C1969 C 0.32556 0.05239 0.48639 0.0
C1970 C 0.34542 0.95886 0.48244 0.0
C1971 C 0.33587 0.94664 0.49966 0.0
C1972 C 0.34613 0.98194 0.48348 0.0
C1973 C 0.33779 0.99318 0.50197 0.0
C1974 C 0.32883 0.98093 0.51943 0.0
C1975 C 0.3277 0.95794 0.5182 0.0
H1976 H 0.52751 0.94454 0.30531 0.0
H1977 H 0.48275 0.94308 0.36045 0.0
H1978 H 0.52858 0.98453 0.30692 0.0
H1979 H 0.48251 0.98348 0.36135 0.0
H1980 H 0.49842 0.05727 0.3664 0.0
H1981 H 0.50036 0.01707 0.36843 0.0
H1982 H 0.50718 0.01415 0.29747 0.0
H1983 H 0.50688 0.05387 0.29572 0.0
C1984 C 0.51775 0.9529 0.31769 0.0
C1985 C 0.50489 0.94081 0.3326 0.0
C1986 C 0.51817 0.97589 0.31855 0.0
C1987 C 0.50522 0.98749 0.33394 0.0
C1988 C 0.49284 0.97525 0.34935 0.0
C1989 C 0.49286 0.95211 0.34882 0.0
C1990 C 0.50039 0.04798 0.35127 0.0
C1991 C 0.50239 0.0589 0.33088 0.0
C1992 C 0.50138 0.02487 0.3524 0.0
C1993 C 0.5041 0.01214 0.33314 0.0
C1994 C 0.5057 0.0232 0.31279 0.0
C1995 C 0.50517 0.04617 0.31172 0.0
H1996 H 0.94622 0.51845 0.29616 0.0
H1997 H 0.9439 0.4913 0.3621 0.0
H1998 H 0.9862 0.51971 0.29817 0.0
H1999 H 0.98421 0.4925 0.36395 0.0
H2000 H 0.05639 0.52061 0.36437 0.0
H2001 H 0.01599 0.51948 0.36464 0.0
H2002 H 0.0162 0.49231 0.2988 0.0
H2003 H 0.05614 0.49347 0.29835 0.0
C2004 C 0.95419 0.51267 0.31109 0.0
C2005 C 0.94174 0.50454 0.32888 0.0
C2006 C 0.97717 0.51335 0.31219 0.0
C2007 C 0.98839 0.50604 0.33114 0.0
C2008 C 0.97602 0.49834 0.34916 0.0
C2009 C 0.95294 0.49752 0.34802 0.0
C2010 C 0.04781 0.51437 0.34997 0.0
C2011 C 0.05962 0.50737 0.33126 0.0
C2012 C 0.02468 0.51363 0.35018 0.0
C2013 C 0.01291 0.50601 0.33165 0.0
C2014 C 0.02475 0.49865 0.31318 0.0
C2015 C 0.04773 0.49927 0.31299 0.0
H2016 H 0.48926 0.94429 0.6412 0.0
H2017 H 0.51722 0.94693 0.70687 0.0
H2018 H 0.489 0.98474 0.63994 0.0
H2019 H 0.51679 0.98691 0.70552 0.0
H2020 H 0.48712 0.05575 0.70634 0.0
H2021 H 0.4872 0.01575 0.70508 0.0
H2022 H 0.51632 0.0175 0.64021 0.0
H2023 H 0.51639 0.05795 0.64137 0.0
C2024 C 0.49528 0.95341 0.65536 0.0
C2025 C 0.50302 0.94226 0.67423 0.0
C2026 C 0.49526 0.97656 0.65456 0.0
C2027 C 0.50272 0.98897 0.6727 0.0
C2028 C 0.51063 0.97781 0.69141 0.0
C2029 C 0.51088 0.95482 0.69213 0.0
C2030 C 0.49365 0.04776 0.69177 0.0
C2031 C 0.50202 0.06019 0.67405 0.0
C2032 C 0.49369 0.02476 0.6911 0.0
C2033 C 0.50191 0.01348 0.67263 0.0
C2034 C 0.50981 0.02578 0.65463 0.0
C2035 C 0.50998 0.04892 0.65538 0.0
H2036 H 0.94429 0.50677 0.63403 0.0
H2037 H 0.94816 0.48371 0.70147 0.0
H2038 H 0.98475 0.50819 0.63261 0.0
H2039 H 0.98801 0.48524 0.69992 0.0
H2040 H 0.05499 0.51796 0.6998 0.0
H2041 H 0.01507 0.5163 0.69773 0.0
H2042 H 0.0192 0.48277 0.63507 0.0
H2043 H 0.05959 0.48432 0.63705 0.0
C2044 C 0.95366 0.50192 0.64847 0.0
C2045 C 0.94283 0.49539 0.66794 0.0
C2046 C 0.97682 0.50267 0.64761 0.0
C2047 C 0.98953 0.4971 0.66625 0.0
C2048 C 0.97869 0.49003 0.68542 0.0
C2049 C 0.95574 0.48911 0.68624 0.0
C2050 C 0.04755 0.51018 0.68553 0.0
C2051 C 0.06065 0.501 0.66873 0.0
C2052 C 0.02459 0.50922 0.68438 0.0
C2053 C 0.01398 0.49921 0.66635 0.0
C2054 C 0.02693 0.49062 0.64915 0.0
C2055 C 0.05005 0.49141 0.65037 0.0
H2056 H 0.36076 0.51206 0.94881 0.0
H2057 H 0.29525 0.48389 0.95067 0.0
H2058 H 0.36225 0.5112 0.98911 0.0
H2059 H 0.29686 0.48307 0.99075 0.0
H2060 H 0.29628 0.51281 0.05994 0.0
H2061 H 0.29689 0.51172 0.02001 0.0
H2062 H 0.36275 0.48467 0.0216 0.0
H2063 H 0.36225 0.48567 0.06204 0.0
C2064 C 0.3467 0.50565 0.95775 0.0
C2065 C 0.32776 0.49831 0.94641 0.0
C2066 C 0.34765 0.50502 0.98084 0.0
C2067 C 0.32962 0.49722 0.9931 0.0
C2068 C 0.3109 0.48948 0.98177 0.0
C2069 C 0.31001 0.48993 0.95875 0.0
C2070 C 0.31093 0.50648 0.05195 0.0
C2071 C 0.32916 0.49912 0.06436 0.0
C2072 C 0.31121 0.50581 0.02896 0.0
C2073 C 0.32978 0.49793 0.01763 0.0
C2074 C 0.34822 0.49088 0.02989 0.0
C2075 C 0.34788 0.49136 0.05304 0.0
H2076 H 0.46664 0.34951 0.94548 0.0
H2077 H 0.53076 0.31839 0.94591 0.0
H2078 H 0.46742 0.35116 0.98594 0.0
H2079 H 0.53167 0.32052 0.98613 0.0
H2080 H 0.53245 0.35015 0.05718 0.0
H2081 H 0.53145 0.35219 0.01676 0.0
H2082 H 0.46834 0.3193 0.01644 0.0
H2083 H 0.46947 0.3168 0.05665 0.0
C2084 C 0.48095 0.34323 0.95418 0.0
C2085 C 0.49857 0.33371 0.94253 0.0
C2086 C 0.48137 0.34413 0.97728 0.0
C2087 C 0.49964 0.33602 0.98908 0.0
C2088 C 0.51748 0.32704 0.97741 0.0
C2089 C 0.51686 0.3257 0.9544 0.0
C2090 C 0.51832 0.34348 0.04847 0.0
C2091 C 0.5011 0.33321 0.06008 0.0
C2092 C 0.51779 0.3446 0.02539 0.0
C2093 C 0.49979 0.33594 0.01355 0.0
C2094 C 0.48231 0.32624 0.02519 0.0
C2095 C 0.48306 0.32469 0.04818 0.0
H2096 H 0.65774 0.46835 0.94119 0.0
H2097 H 0.68708 0.53332 0.94168 0.0
H2098 H 0.65674 0.46872 0.98169 0.0
H2099 H 0.6856 0.53379 0.9819 0.0
H2100 H 0.65486 0.53374 0.0523 0.0
H2101 H 0.65359 0.53255 0.01196 0.0
H2102 H 0.68882 0.4707 0.0126 0.0
H2103 H 0.69056 0.47201 0.05292 0.0
C2104 C 0.66376 0.48275 0.94991 0.0
C2105 C 0.67254 0.50077 0.93828 0.0
C2106 C 0.66328 0.48291 0.97302 0.0
C2107 C 0.67107 0.5013 0.98482 0.0
C2108 C 0.67938 0.51948 0.97317 0.0
C2109 C 0.68031 0.51914 0.95016 0.0
C2110 C 0.6623 0.51987 0.04385 0.0
C2111 C 0.67291 0.50303 0.05579 0.0
C2112 C 0.66159 0.51922 0.0208 0.0
C2113 C 0.67105 0.50151 0.00926 0.0
C2114 C 0.68126 0.48445 0.02116 0.0
C2115 C 0.68239 0.4853 0.04419 0.0
H2116 H 0.54092 0.65741 0.94529 0.0
H2117 H 0.47426 0.68265 0.94409 0.0
H2118 H 0.53976 0.6563 0.98569 0.0
H2119 H 0.47302 0.68094 0.98441 0.0
H2120 H 0.47542 0.64989 0.0558 0.0
H2121 H 0.4767 0.64834 0.01537 0.0
H2122 H 0.53484 0.68937 0.01572 0.0
H2123 H 0.53331 0.69146 0.05598 0.0
C2124 C 0.52596 0.66247 0.95362 0.0
C2125 C 0.5077 0.67017 0.9415 0.0
C2126 C 0.52535 0.6619 0.9767 0.0
C2127 C 0.50629 0.66849 0.98807 0.0
C2128 C 0.48785 0.67565 0.97599 0.0
C2129 C 0.48863 0.67671 0.95295 0.0
C2130 C 0.48854 0.65847 0.04724 0.0
C2131 C 0.50423 0.67084 0.05906 0.0
C2132 C 0.4892 0.65765 0.02416 0.0
C2133 C 0.50589 0.66871 0.01252 0.0
C2134 C 0.52189 0.6806 0.02434 0.0
C2135 C 0.52093 0.68186 0.04735 0.0
H2136 H 0.20811 0.29561 0.49624 0.0
H2137 H 0.16641 0.24487 0.52374 0.0
H2138 H 0.23781 0.26861 0.49177 0.0
H2139 H 0.19608 0.21828 0.52018 0.0
H2140 H 0.2414 0.16965 0.48829 0.0
H2141 H 0.21371 0.19823 0.49228 0.0
H2142 H 0.26453 0.24528 0.50941 0.0
H2143 H 0.29253 0.21659 0.50451 0.0
C2144 C 0.20541 0.27878 0.50163 0.0
C2145 C 0.18484 0.27233 0.51013 0.0
C2146 C 0.22245 0.2633 0.49914 0.0
C2147 C 0.21931 0.2411 0.50528 0.0
C2148 C 0.19897 0.23501 0.51462 0.0
C2149 C 0.18195 0.25034 0.51684 0.0
C2150 C 0.24673 0.1861 0.49284 0.0
C2151 C 0.26917 0.1908 0.49621 0.0
C2152 C 0.23079 0.20252 0.49531 0.0
C2153 C 0.23675 0.22408 0.50156 0.0
C2154 C 0.2593 0.22893 0.50447 0.0
C2155 C 0.27535 0.21248 0.50173 0.0
H2156 H 0.7003 0.2141 0.50367 0.0
H2157 H 0.75453 0.16905 0.51419 0.0
H2158 H 0.72652 0.2447 0.50033 0.0
H2159 H 0.78041 0.19938 0.51161 0.0
H2160 H 0.82374 0.25075 0.48211 0.0
H2161 H 0.79544 0.2226 0.48433 0.0
H2162 H 0.75308 0.26786 0.51948 0.0
H2163 H 0.78145 0.29654 0.51653 0.0
C2164 C 0.71776 0.21075 0.50548 0.0
C2165 C 0.72531 0.18908 0.50897 0.0
C2166 C 0.73279 0.2283 0.50365 0.0
C2167 C 0.75567 0.22453 0.50537 0.0
C2168 C 0.76302 0.20291 0.50956 0.0
C2169 C 0.7481 0.18546 0.51119 0.0
C2170 C 0.80837 0.2548 0.49024 0.0
C2171 C 0.80495 0.27586 0.49933 0.0
C2172 C 0.79213 0.23856 0.49166 0.0
C2173 C 0.77205 0.24273 0.50248 0.0
C2174 C 0.76829 0.26405 0.51096 0.0
C2175 C 0.78456 0.28048 0.50933 0.0
H2176 H 0.83813 0.75576 0.51648 0.0
H2177 H 0.79179 0.70361 0.50189 0.0
H2178 H 0.80911 0.78294 0.51231 0.0
H2179 H 0.76258 0.73111 0.4969 0.0
H2180 H 0.71173 0.78713 0.51001 0.0
H2181 H 0.73923 0.75791 0.51455 0.0
H2182 H 0.78828 0.79977 0.48424 0.0
H2183 H 0.76116 0.82901 0.4805 0.0
C2184 C 0.82172 0.75008 0.51227 0.0
C2185 C 0.81735 0.72749 0.50938 0.0
C2186 C 0.80503 0.76574 0.50969 0.0
C2187 C 0.78348 0.75936 0.50387 0.0
C2188 C 0.77893 0.73667 0.50149 0.0
C2189 C 0.79568 0.72089 0.5043 0.0
C2190 C 0.72837 0.78998 0.50419 0.0
C2191 C 0.73429 0.81047 0.49506 0.0
C2192 C 0.74414 0.7732 0.50673 0.0
C2193 C 0.76614 0.77651 0.50006 0.0
C2194 C 0.77172 0.79676 0.49016 0.0
C2195 C 0.75608 0.81353 0.48784 0.0
H2196 H 0.21846 0.7111 0.50167 0.0
H2197 H 0.17286 0.76351 0.4859 0.0
H2198 H 0.24788 0.7383 0.50679 0.0
H2199 H 0.20216 0.79043 0.48985 0.0
H2200 H 0.25018 0.83683 0.52061 0.0
H2201 H 0.22268 0.80802 0.51689 0.0
H2202 H 0.27215 0.76409 0.49026 0.0
H2203 H 0.30004 0.79288 0.49512 0.0
C2204 C 0.21481 0.7284 0.49901 0.0
C2205 C 0.1933 0.73518 0.49359 0.0
C2206 C 0.23169 0.74401 0.50185 0.0
C2207 C 0.22745 0.76672 0.49906 0.0
C2208 C 0.20603 0.77325 0.49286 0.0
C2209 C 0.18918 0.75775 0.49039 0.0
C2210 C 0.25524 0.82099 0.51406 0.0
C2211 C 0.27727 0.81719 0.50803 0.0
C2212 C 0.23939 0.80444 0.51173 0.0
C2213 C 0.24497 0.78371 0.50285 0.0
C2214 C 0.26719 0.77974 0.49729 0.0
C2215 C 0.28319 0.79626 0.49999 0.0
H2216 H 0.52283 0.21397 0.29128 0.0
H2217 H 0.48878 0.16878 0.24781 0.0
H2218 H 0.51842 0.24338 0.26377 0.0
H2219 H 0.48411 0.19792 0.22088 0.0
H2220 H 0.50315 0.24459 0.16658 0.0
H2221 H 0.50769 0.21767 0.1958 0.0
H2222 H 0.49099 0.26712 0.24429 0.0
H2223 H 0.4868 0.2945 0.21479 0.0
C2224 C 0.5143 0.21034 0.27599 0.0
C2225 C 0.50645 0.18892 0.27167 0.0
C2226 C 0.51169 0.2272 0.26027 0.0
C2227 C 0.50118 0.22294 0.23996 0.0
C2228 C 0.49275 0.20169 0.23607 0.0
C2229 C 0.49538 0.18495 0.25164 0.0
C2230 C 0.50039 0.24984 0.18343 0.0
C2231 C 0.49438 0.27172 0.18826 0.0
C2232 C 0.50292 0.23432 0.20024 0.0
C2233 C 0.49944 0.24012 0.22242 0.0
C2234 C 0.49387 0.26212 0.22739 0.0
C2235 C 0.49134 0.27776 0.21047 0.0
H2236 H 0.78628 0.49981 0.29404 0.0
H2237 H 0.83169 0.51787 0.24234 0.0
H2238 H 0.75696 0.4952 0.26652 0.0
H2239 H 0.80254 0.51429 0.2152 0.0
H2240 H 0.75557 0.4836 0.16776 0.0
H2241 H 0.78268 0.48696 0.19699 0.0
H2242 H 0.73252 0.51244 0.24072 0.0
H2243 H 0.70498 0.50806 0.2114 0.0
C2244 C 0.78992 0.50305 0.27686 0.0
C2245 C 0.81138 0.50895 0.27035 0.0
C2246 C 0.7731 0.50049 0.26107 0.0
C2247 C 0.77735 0.50401 0.23848 0.0
C2248 C 0.79868 0.51072 0.23226 0.0
C2249 C 0.81545 0.51295 0.24791 0.0
C2250 C 0.75025 0.48985 0.18362 0.0
C2251 C 0.72813 0.49573 0.18718 0.0
C2252 C 0.76589 0.49196 0.20043 0.0
C2253 C 0.76001 0.50041 0.22123 0.0
C2254 C 0.7377 0.50578 0.225 0.0
C2255 C 0.7219 0.50334 0.20817 0.0
H2256 H 0.51474 0.75902 0.16855 0.0
H2257 H 0.49602 0.70658 0.21293 0.0
H2258 H 0.51027 0.78574 0.19791 0.0
H2259 H 0.49054 0.73366 0.24242 0.0
H2260 H 0.50357 0.78807 0.29522 0.0
H2261 H 0.50754 0.759 0.26744 0.0
H2262 H 0.4826 0.80361 0.21761 0.0
H2263 H 0.4797 0.83264 0.24501 0.0
C2264 C 0.50949 0.7532 0.1846 0.0
C2265 C 0.50561 0.73066 0.18834 0.0
C2266 C 0.50672 0.7686 0.20147 0.0
C2267 C 0.49962 0.76203 0.22257 0.0
C2268 C 0.49613 0.73937 0.22647 0.0
C2269 C 0.4992 0.72384 0.20955 0.0
C2270 C 0.49878 0.79151 0.27834 0.0
C2271 C 0.49155 0.81269 0.27225 0.0
C2272 C 0.501 0.77484 0.2624 0.0
C2273 C 0.49579 0.77898 0.2401 0.0
C2274 C 0.48749 0.79992 0.2344 0.0
C2275 C 0.48562 0.81657 0.25019 0.0
H2276 H 0.17342 0.48405 0.25208 0.0
H2277 H 0.21441 0.51644 0.3006 0.0
H2278 H 0.20278 0.48682 0.22515 0.0
H2279 H 0.24389 0.52002 0.27313 0.0
H2280 H 0.29786 0.50566 0.21971 0.0
H2281 H 0.27105 0.50153 0.24971 0.0
H2282 H 0.21815 0.51564 0.20391 0.0
H2283 H 0.24457 0.51897 0.1742 0.0
C2284 C 0.18877 0.49181 0.25699 0.0
C2285 C 0.19151 0.50025 0.27839 0.0
C2286 C 0.2056 0.49355 0.24147 0.0
C2287 C 0.22557 0.50413 0.24675 0.0
C2288 C 0.22874 0.51176 0.26849 0.0
C2289 C 0.21186 0.50975 0.28421 0.0
C2290 C 0.28049 0.50797 0.21618 0.0
C2291 C 0.27331 0.51235 0.19454 0.0
C2292 C 0.26513 0.50565 0.23335 0.0
C2293 C 0.24237 0.50782 0.22918 0.0
C2294 C 0.23545 0.51315 0.20767 0.0
C2295 C 0.25065 0.51521 0.1906 0.0
H2296 H 0.514 0.70512 0.78849 0.0
H2297 H 0.48342 0.7539 0.83039 0.0
H2298 H 0.51926 0.73315 0.75989 0.0
H2299 H 0.48783 0.78151 0.80177 0.0
H2300 H 0.52111 0.8322 0.75995 0.0
H2301 H 0.51639 0.80254 0.78633 0.0
H2302 H 0.50246 0.75718 0.73305 0.0
H2303 H 0.50805 0.78703 0.70639 0.0
C2304 C 0.50809 0.72173 0.79145 0.0
C2305 C 0.49849 0.72734 0.81179 0.0
C2306 C 0.51106 0.7378 0.77504 0.0
C2307 C 0.50431 0.75976 0.77858 0.0
C2308 C 0.49386 0.76499 0.79862 0.0
C2309 C 0.49115 0.74908 0.81503 0.0
C2310 C 0.51712 0.8159 0.75379 0.0
C2311 C 0.51482 0.81204 0.73105 0.0
C2312 C 0.51423 0.79885 0.76898 0.0
C2313 C 0.50861 0.77745 0.76194 0.0
C2314 C 0.50686 0.7734 0.73911 0.0
C2315 C 0.51001 0.79052 0.72381 0.0
H2316 H 0.24216 0.48635 0.83487 0.0
H2317 H 0.29443 0.50643 0.791 0.0
H2318 H 0.21545 0.49085 0.80542 0.0
H2319 H 0.26738 0.51205 0.76147 0.0
H2320 H 0.21403 0.50099 0.70777 0.0
H2321 H 0.2426 0.4959 0.7359 0.0
H2322 H 0.19687 0.51794 0.78592 0.0
H2323 H 0.16833 0.5219 0.75811 0.0
C2324 C 0.24794 0.49192 0.81891 0.0
C2325 C 0.27043 0.49615 0.81535 0.0
C2326 C 0.23253 0.4947 0.80198 0.0
C2327 C 0.23904 0.50222 0.78099 0.0
C2328 C 0.26168 0.50609 0.77729 0.0
C2329 C 0.27721 0.50295 0.79425 0.0
C2330 C 0.21019 0.50481 0.72479 0.0
C2331 C 0.18885 0.51165 0.73072 0.0
C2332 C 0.2266 0.50198 0.74095 0.0
C2333 C 0.2221 0.50618 0.76338 0.0
C2334 C 0.20091 0.51384 0.76902 0.0
C2335 C 0.1845 0.51632 0.75299 0.0
H2336 H 0.48343 0.17051 0.75975 0.0
H2337 H 0.50291 0.21499 0.7077 0.0
H2338 H 0.4877 0.19983 0.78662 0.0
H2339 H 0.50827 0.24439 0.7349 0.0
H2340 H 0.49719 0.29735 0.78893 0.0
H2341 H 0.49191 0.26955 0.7601 0.0
H2342 H 0.51528 0.21915 0.80492 0.0
H2343 H 0.51947 0.24661 0.83371 0.0
C2344 C 0.48877 0.18659 0.75406 0.0
C2345 C 0.49296 0.19037 0.73159 0.0
C2346 C 0.49143 0.20343 0.76954 0.0
C2347 C 0.49877 0.22451 0.76312 0.0
C2348 C 0.50247 0.22846 0.74051 0.0
C2349 C 0.49947 0.2116 0.7249 0.0
C2350 C 0.50126 0.28032 0.7925 0.0
C2351 C 0.50854 0.27415 0.81366 0.0
C2352 C 0.49831 0.26436 0.77596 0.0
C2353 C 0.50283 0.24193 0.78016 0.0
C2354 C 0.51093 0.23607 0.80115 0.0
C2355 C 0.51354 0.25189 0.81769 0.0
H2356 H 0.7577 0.52556 0.82854 0.0
H2357 H 0.70778 0.4979 0.78584 0.0
H2358 H 0.78516 0.52058 0.79992 0.0
H2359 H 0.73562 0.49183 0.75728 0.0
H2360 H 0.78983 0.50034 0.70423 0.0
H2361 H 0.76028 0.50727 0.73083 0.0
H2362 H 0.80515 0.4918 0.78419 0.0
H2363 H 0.83458 0.48595 0.75785 0.0
C2364 C 0.75262 0.51834 0.81299 0.0
C2365 C 0.73062 0.51199 0.80949 0.0
C2366 C 0.76842 0.51528 0.79659 0.0
C2367 C 0.7628 0.50534 0.77635 0.0
C2368 C 0.74058 0.49962 0.77257 0.0
C2369 C 0.72462 0.50304 0.78895 0.0
C2370 C 0.79326 0.49837 0.72167 0.0
C2371 C 0.81457 0.49281 0.72896 0.0
C2372 C 0.77632 0.50228 0.73693 0.0
C2373 C 0.78033 0.50045 0.75977 0.0
C2374 C 0.80152 0.49408 0.76685 0.0
C2375 C 0.81842 0.49052 0.75169 0.0
loop_
_geom_bond_atom_site_label_1
_geom_bond_atom_site_label_2
_geom_bond_distance
_geom_bond_site_symmetry_2
_ccdc_geom_bond_type
Co0 O2 2.143 . S
Co0 O8 2.074 . S
Co0 O11 2.093 . S
Co0 O24 2.097 . S
Co0 N41 2.151 . S
Co0 N49 2.214 . S
Co1 O2 2.160 . S
Co1 O7 2.058 . S
Co1 O17 2.057 . S
Co1 O32 2.037 . S
Co1 N36 2.145 . S
Co1 N57 2.257 . S
O2 Co0 2.143 . S
O2 Co1 2.160 . S
C3 O4 1.278 . S
C3 O11 1.224 . S
O4 C3 1.278 . S
C5 O6 1.245 . S
C5 O17 1.232 . S
O6 C5 1.245 . S
O7 Co1 2.058 . S
O7 C33 1.269 . S
O8 Co0 2.074 . S
O8 C33 1.257 . S
H9 C34 0.930 . S
H10 C40 0.930 . S
O11 Co0 2.093 . S
O11 C3 1.224 . S
H12 C44 0.929 . S
H13 C46 0.930 . S
H14 C47 0.930 . S
H15 C45 0.929 . S
H16 C48 0.928 . S
O17 Co1 2.057 . S
O17 C5 1.232 . S
H18 C37 0.929 . S
H19 C38 0.929 . S
H20 C50 0.931 . S
H21 C42 0.929 . S
H22 C51 0.930 . S
H23 C43 0.931 . S
O24 Co0 2.097 . S
O24 C52 1.214 . S
H25 C53 0.929 . S
H26 C54 0.929 . S
H27 C55 0.930 . S
H28 C56 0.929 . S
H29 C58 0.930 . S
H30 C35 0.930 . S
H31 C39 0.930 . S
O32 Co1 2.037 . S
O32 C52 1.234 . S
C33 O7 1.269 . S
C33 O8 1.257 . S
C34 H9 0.930 . S
C34 C37 1.388 . S
C34 C39 1.418 . S
C35 H30 0.930 . S
C35 C38 1.404 . S
C35 C39 1.353 . S
N36 Co1 2.145 . S
N36 C37 1.397 . S
N36 C38 1.334 . S
C37 H18 0.929 . S
C37 C34 1.388 . S
C37 N36 1.397 . S
C38 H19 0.929 . S
C38 C35 1.404 . S
C38 N36 1.334 . S
C39 H31 0.930 . S
C39 C34 1.418 . S
C39 C35 1.353 . S
C40 H10 0.930 . S
C40 N41 1.330 . S
C40 C42 1.446 . S
N41 Co0 2.151 . S
N41 C40 1.330 . S
N41 C45 1.418 . S
C42 H21 0.929 . S
C42 C40 1.446 . S
C42 C43 1.332 . S
C43 H23 0.931 . S
C43 C42 1.332 . S
C43 C44 1.267 . S
C44 H12 0.929 . S
C44 C43 1.267 . S
C44 C45 1.251 . S
C45 H15 0.929 . S
C45 N41 1.418 . S
C45 C44 1.251 . S
C46 H13 0.930 . S
C46 C48 1.406 . S
C46 C51 1.261 . S
C47 H14 0.930 . S
C47 N49 1.325 . S
C47 C50 1.357 . S
C48 H16 0.928 . S
C48 C46 1.406 . S
C48 N49 1.261 . S
N49 Co0 2.214 . S
N49 C47 1.325 . S
N49 C48 1.261 . S
C50 H20 0.931 . S
C50 C47 1.357 . S
C50 C51 1.312 . S
C51 H22 0.930 . S
C51 C46 1.261 . S
C51 C50 1.312 . S
C52 O24 1.214 . S
C52 O32 1.234 . S
C53 H25 0.929 . S
C53 C56 1.391 . S
C53 C58 1.391 . S
C54 H26 0.929 . S
C54 C55 1.390 . S
C54 N57 1.391 . S
C55 H27 0.930 . S
C55 C54 1.390 . S
C55 C56 1.392 . S
C56 H28 0.929 . S
C56 C53 1.391 . S
C56 C55 1.392 . S
N57 Co1 2.257 . S
N57 C54 1.391 . S
N57 C58 1.388 . S
C58 H29 0.930 . S
C58 C53 1.391 . S
C58 N57 1.388 . S
Co59 O61 2.143 . S
Co59 O67 2.074 . S
Co59 O70 2.093 . S
Co59 O83 2.097 . S
Co59 N100 2.151 . S
Co59 N108 2.214 . S
Co60 O61 2.160 . S
Co60 O66 2.058 . S
Co60 O76 2.057 . S
Co60 O91 2.037 . S
Co60 N95 2.145 . S
Co60 N116 2.257 . S
O61 Co59 2.143 . S
O61 Co60 2.160 . S
C62 O63 1.278 . S
C62 O70 1.224 . S
O63 C62 1.278 . S
C64 O65 1.245 . S
C64 O76 1.232 . S
O65 C64 1.245 . S
O66 Co60 2.058 . S
O66 C92 1.269 . S
O67 Co59 2.074 . S
O67 C92 1.257 . S
H68 C93 0.930 . S
H69 C99 0.930 . S
O70 Co59 2.093 . S
O70 C62 1.224 . S
H71 C103 0.929 . S
H72 C105 0.930 . S
H73 C106 0.930 . S
H74 C104 0.929 . S
H75 C107 0.928 . S
O76 Co60 2.057 . S
O76 C64 1.232 . S
H77 C96 0.929 . S
H78 C97 0.929 . S
H79 C109 0.931 . S
H80 C101 0.929 . S
H81 C110 0.930 . S
H82 C102 0.931 . S
O83 Co59 2.097 . S
O83 C111 1.214 . S
H84 C112 0.929 . S
H85 C113 0.929 . S
H86 C114 0.930 . S
H87 C115 0.929 . S
H88 C117 0.930 . S
H89 C94 0.930 . S
H90 C98 0.930 . S
O91 Co60 2.037 . S
O91 C111 1.234 . S
C92 O66 1.269 . S
C92 O67 1.257 . S
C93 H68 0.930 . S
C93 C96 1.388 . S
C93 C98 1.418 . S
C94 H89 0.930 . S
C94 C97 1.404 . S
C94 C98 1.353 . S
N95 Co60 2.145 . S
N95 C96 1.397 . S
N95 C97 1.334 . S
C96 H77 0.929 . S
C96 C93 1.388 . S
C96 N95 1.397 . S
C97 H78 0.929 . S
C97 C94 1.404 . S
C97 N95 1.334 . S
C98 H90 0.930 . S
C98 C93 1.418 . S
C98 C94 1.353 . S
C99 H69 0.930 . S
C99 N100 1.330 . S
C99 C101 1.446 . S
N100 Co59 2.151 . S
N100 C99 1.330 . S
N100 C104 1.418 . S
C101 H80 0.929 . S
C101 C99 1.446 . S
C101 C102 1.332 . S
C102 H82 0.931 . S
C102 C101 1.332 . S
C102 C103 1.267 . S
C103 H71 0.929 . S
C103 C102 1.267 . S
C103 C104 1.251 . S
C104 H74 0.929 . S
C104 N100 1.418 . S
C104 C103 1.251 . S
C105 H72 0.930 . S
C105 C107 1.406 . S
C105 C110 1.261 . S
C106 H73 0.930 . S
C106 N108 1.325 . S
C106 C109 1.357 . S
C107 H75 0.928 . S
C107 C105 1.406 . S
C107 N108 1.261 . S
N108 Co59 2.214 . S
N108 C106 1.325 . S
N108 C107 1.261 . S
C109 H79 0.931 . S
C109 C106 1.357 . S
C109 C110 1.312 . S
C110 H81 0.930 . S
C110 C105 1.261 . S
C110 C109 1.312 . S
C111 O83 1.214 . S
C111 O91 1.234 . S
C112 H84 0.929 . S
C112 C115 1.391 . S
C112 C117 1.391 . S
C113 H85 0.929 . S
C113 C114 1.390 . S
C113 N116 1.391 . S
C114 H86 0.930 . S
C114 C113 1.390 . S
C114 C115 1.392 . S
C115 H87 0.929 . S
C115 C112 1.391 . S
C115 C114 1.392 . S
N116 Co60 2.257 . S
N116 C113 1.391 . S
N116 C117 1.388 . S
C117 H88 0.930 . S
C117 C112 1.391 . S
C117 N116 1.388 . S
Co118 O120 2.143 . S
Co118 O126 2.074 . S
Co118 O129 2.093 . S
Co118 O142 2.097 . S
Co118 N159 2.151 . S
Co118 N167 2.214 . S
Co119 O120 2.160 . S
Co119 O125 2.058 . S
Co119 O135 2.057 . S
Co119 O150 2.037 . S
Co119 N154 2.145 . S
Co119 N175 2.257 . S
O120 Co118 2.143 . S
O120 Co119 2.160 . S
C121 O122 1.278 . S
C121 O129 1.224 . S
O122 C121 1.278 . S
C123 O124 1.245 . S
C123 O135 1.232 . S
O124 C123 1.245 . S
O125 Co119 2.058 . S
O125 C151 1.269 . S
O126 Co118 2.074 . S
O126 C151 1.257 . S
H127 C152 0.930 . S
H128 C158 0.930 . S
O129 Co118 2.093 . S
O129 C121 1.224 . S
H130 C162 0.929 . S
H131 C164 0.930 . S
H132 C165 0.930 . S
H133 C163 0.929 . S
H134 C166 0.928 . S
O135 Co119 2.057 . S
O135 C123 1.232 . S
H136 C155 0.929 . S
H137 C156 0.929 . S
H138 C168 0.931 . S
H139 C160 0.929 . S
H140 C169 0.930 . S
H141 C161 0.931 . S
O142 Co118 2.097 . S
O142 C170 1.214 . S
H143 C171 0.929 . S
H144 C172 0.929 . S
H145 C173 0.930 . S
H146 C174 0.929 . S
H147 C176 0.930 . S
H148 C153 0.930 . S
H149 C157 0.930 . S
O150 Co119 2.037 . S
O150 C170 1.234 . S
C151 O125 1.269 . S
C151 O126 1.257 . S
C152 H127 0.930 . S
C152 C155 1.388 . S
C152 C157 1.418 . S
C153 H148 0.930 . S
C153 C156 1.404 . S
C153 C157 1.353 . S
N154 Co119 2.145 . S
N154 C155 1.397 . S
N154 C156 1.334 . S
C155 H136 0.929 . S
C155 C152 1.388 . S
C155 N154 1.397 . S
C156 H137 0.929 . S
C156 C153 1.404 . S
C156 N154 1.334 . S
C157 H149 0.930 . S
C157 C152 1.418 . S
C157 C153 1.353 . S
C158 H128 0.930 . S
C158 N159 1.330 . S
C158 C160 1.446 . S
N159 Co118 2.151 . S
N159 C158 1.330 . S
N159 C163 1.418 . S
C160 H139 0.929 . S
C160 C158 1.446 . S
C160 C161 1.332 . S
C161 H141 0.931 . S
C161 C160 1.332 . S
C161 C162 1.267 . S
C162 H130 0.929 . S
C162 C161 1.267 . S
C162 C163 1.251 . S
C163 H133 0.929 . S
C163 N159 1.418 . S
C163 C162 1.251 . S
C164 H131 0.930 . S
C164 C166 1.406 . S
C164 C169 1.261 . S
C165 H132 0.930 . S
C165 N167 1.325 . S
C165 C168 1.357 . S
C166 H134 0.928 . S
C166 C164 1.406 . S
C166 N167 1.261 . S
N167 Co118 2.214 . S
N167 C165 1.325 . S
N167 C166 1.261 . S
C168 H138 0.931 . S
C168 C165 1.357 . S
C168 C169 1.312 . S
C169 H140 0.930 . S
C169 C164 1.261 . S
C169 C168 1.312 . S
C170 O142 1.214 . S
C170 O150 1.234 . S
C171 H143 0.929 . S
C171 C174 1.391 . S
C171 C176 1.391 . S
C172 H144 0.929 . S
C172 C173 1.390 . S
C172 N175 1.391 . S
C173 H145 0.930 . S
C173 C172 1.390 . S
C173 C174 1.392 . S
C174 H146 0.929 . S
C174 C171 1.391 . S
C174 C173 1.392 . S
N175 Co119 2.257 . S
N175 C172 1.391 . S
N175 C176 1.388 . S
C176 H147 0.930 . S
C176 C171 1.391 . S
C176 N175 1.388 . S
Co177 O179 2.143 . S
Co177 O185 2.074 . S
Co177 O188 2.093 . S
Co177 O201 2.097 . S
Co177 N218 2.151 . S
Co177 N226 2.214 . S
Co178 O179 2.160 . S
Co178 O184 2.058 . S
Co178 O194 2.057 . S
Co178 O209 2.037 . S
Co178 N213 2.145 . S
Co178 N234 2.257 . S
O179 Co177 2.143 . S
O179 Co178 2.160 . S
C180 O181 1.278 . S
C180 O188 1.224 . S
O181 C180 1.278 . S
C182 O183 1.245 . S
C182 O194 1.232 . S
O183 C182 1.245 . S
O184 Co178 2.058 . S
O184 C210 1.269 . S
O185 Co177 2.074 . S
O185 C210 1.257 . S
H186 C211 0.930 . S
H187 C217 0.930 . S
O188 Co177 2.093 . S
O188 C180 1.224 . S
H189 C221 0.929 . S
H190 C223 0.930 . S
H191 C224 0.930 . S
H192 C222 0.929 . S
H193 C225 0.928 . S
O194 Co178 2.057 . S
O194 C182 1.232 . S
H195 C214 0.929 . S
H196 C215 0.929 . S
H197 C227 0.931 . S
H198 C219 0.929 . S
H199 C228 0.930 . S
H200 C220 0.931 . S
O201 Co177 2.097 . S
O201 C229 1.214 . S
H202 C230 0.929 . S
H203 C231 0.929 . S
H204 C232 0.930 . S
H205 C233 0.929 . S
H206 C235 0.930 . S
H207 C212 0.930 . S
H208 C216 0.930 . S
O209 Co178 2.037 . S
O209 C229 1.234 . S
C210 O184 1.269 . S
C210 O185 1.257 . S
C211 H186 0.930 . S
C211 C214 1.388 . S
C211 C216 1.418 . S
C212 H207 0.930 . S
C212 C215 1.404 . S
C212 C216 1.353 . S
N213 Co178 2.145 . S
N213 C214 1.397 . S
N213 C215 1.334 . S
C214 H195 0.929 . S
C214 C211 1.388 . S
C214 N213 1.397 . S
C215 H196 0.929 . S
C215 C212 1.404 . S
C215 N213 1.334 . S
C216 H208 0.930 . S
C216 C211 1.418 . S
C216 C212 1.353 . S
C217 H187 0.930 . S
C217 N218 1.330 . S
C217 C219 1.446 . S
N218 Co177 2.151 . S
N218 C217 1.330 . S
N218 C222 1.418 . S
C219 H198 0.929 . S
C219 C217 1.446 . S
C219 C220 1.332 . S
C220 H200 0.931 . S
C220 C219 1.332 . S
C220 C221 1.267 . S
C221 H189 0.929 . S
C221 C220 1.267 . S
C221 C222 1.251 . S
C222 H192 0.929 . S
C222 N218 1.418 . S
C222 C221 1.251 . S
C223 H190 0.930 . S
C223 C225 1.406 . S
C223 C228 1.261 . S
C224 H191 0.930 . S
C224 N226 1.325 . S
C224 C227 1.357 . S
C225 H193 0.928 . S
C225 C223 1.406 . S
C225 N226 1.261 . S
N226 Co177 2.214 . S
N226 C224 1.325 . S
N226 C225 1.261 . S
C227 H197 0.931 . S
C227 C224 1.357 . S
C227 C228 1.312 . S
C228 H199 0.930 . S
C228 C223 1.261 . S
C228 C227 1.312 . S
C229 O201 1.214 . S
C229 O209 1.234 . S
C230 H202 0.929 . S
C230 C233 1.391 . S
C230 C235 1.391 . S
C231 H203 0.929 . S
C231 C232 1.390 . S
C231 N234 1.391 . S
C232 H204 0.930 . S
C232 C231 1.390 . S
C232 C233 1.392 . S
C233 H205 0.929 . S
C233 C230 1.391 . S
C233 C232 1.392 . S
N234 Co178 2.257 . S
N234 C231 1.391 . S
N234 C235 1.388 . S
C235 H206 0.930 . S
C235 C230 1.391 . S
C235 N234 1.388 . S
Co236 O238 2.143 . S
Co236 O244 2.074 . S
Co236 O247 2.093 . S
Co236 O260 2.097 . S
Co236 N277 2.151 . S
Co236 N285 2.214 . S
Co237 O238 2.160 . S
Co237 O243 2.058 . S
Co237 O253 2.057 . S
Co237 O268 2.037 . S
Co237 N272 2.145 . S
Co237 N293 2.257 . S
O238 Co236 2.143 . S
O238 Co237 2.160 . S
C239 O240 1.278 . S
C239 O247 1.224 . S
O240 C239 1.278 . S
C241 O242 1.245 . S
C241 O253 1.232 . S
O242 C241 1.245 . S
O243 Co237 2.058 . S
O243 C269 1.269 . S
O244 Co236 2.074 . S
O244 C269 1.257 . S
H245 C270 0.930 . S
H246 C276 0.930 . S
O247 Co236 2.093 . S
O247 C239 1.224 . S
H248 C280 0.929 . S
H249 C282 0.930 . S
H250 C283 0.930 . S
H251 C281 0.929 . S
H252 C284 0.928 . S
O253 Co237 2.057 . S
O253 C241 1.232 . S
H254 C273 0.929 . S
H255 C274 0.929 . S
H256 C286 0.931 . S
H257 C278 0.929 . S
H258 C287 0.930 . S
H259 C279 0.931 . S
O260 Co236 2.097 . S
O260 C288 1.214 . S
H261 C289 0.929 . S
H262 C290 0.929 . S
H263 C291 0.930 . S
H264 C292 0.929 . S
H265 C294 0.930 . S
H266 C271 0.930 . S
H267 C275 0.930 . S
O268 Co237 2.037 . S
O268 C288 1.234 . S
C269 O243 1.269 . S
C269 O244 1.257 . S
C270 H245 0.930 . S
C270 C273 1.388 . S
C270 C275 1.418 . S
C271 H266 0.930 . S
C271 C274 1.404 . S
C271 C275 1.353 . S
N272 Co237 2.145 . S
N272 C273 1.397 . S
N272 C274 1.334 . S
C273 H254 0.929 . S
C273 C270 1.388 . S
C273 N272 1.397 . S
C274 H255 0.929 . S
C274 C271 1.404 . S
C274 N272 1.334 . S
C275 H267 0.930 . S
C275 C270 1.418 . S
C275 C271 1.353 . S
C276 H246 0.930 . S
C276 N277 1.330 . S
C276 C278 1.446 . S
N277 Co236 2.151 . S
N277 C276 1.330 . S
N277 C281 1.418 . S
C278 H257 0.929 . S
C278 C276 1.446 . S
C278 C279 1.332 . S
C279 H259 0.931 . S
C279 C278 1.332 . S
C279 C280 1.267 . S
C280 H248 0.929 . S
C280 C279 1.267 . S
C280 C281 1.251 . S
C281 H251 0.929 . S
C281 N277 1.418 . S
C281 C280 1.251 . S
C282 H249 0.930 . S
C282 C284 1.406 . S
C282 C287 1.261 . S
C283 H250 0.930 . S
C283 N285 1.325 . S
C283 C286 1.357 . S
C284 H252 0.928 . S
C284 C282 1.406 . S
C284 N285 1.261 . S
N285 Co236 2.214 . S
N285 C283 1.325 . S
N285 C284 1.261 . S
C286 H256 0.931 . S
C286 C283 1.357 . S
C286 C287 1.312 . S
C287 H258 0.930 . S
C287 C282 1.261 . S
C287 C286 1.312 . S
C288 O260 1.214 . S
C288 O268 1.234 . S
C289 H261 0.929 . S
C289 C292 1.391 . S
C289 C294 1.391 . S
C290 H262 0.929 . S
C290 C291 1.390 . S
C290 N293 1.391 . S
C291 H263 0.930 . S
C291 C290 1.390 . S
C291 C292 1.392 . S
C292 H264 0.929 . S
C292 C289 1.391 . S
C292 C291 1.392 . S
N293 Co237 2.257 . S
N293 C290 1.391 . S
N293 C294 1.388 . S
C294 H265 0.930 . S
C294 C289 1.391 . S
C294 N293 1.388 . S
Co295 O297 2.143 . S
Co295 O303 2.074 . S
Co295 O306 2.093 . S
Co295 O319 2.097 . S
Co295 N336 2.151 . S
Co295 N344 2.214 . S
Co296 O297 2.160 . S
Co296 O302 2.058 . S
Co296 O312 2.057 . S
Co296 O327 2.037 . S
Co296 N331 2.145 . S
Co296 N352 2.257 . S
O297 Co295 2.143 . S
O297 Co296 2.160 . S
C298 O299 1.278 . S
C298 O306 1.224 . S
O299 C298 1.278 . S
C300 O301 1.245 . S
C300 O312 1.232 . S
O301 C300 1.245 . S
O302 Co296 2.058 . S
O302 C328 1.269 . S
O303 Co295 2.074 . S
O303 C328 1.257 . S
H304 C329 0.930 . S
H305 C335 0.930 . S
O306 Co295 2.093 . S
O306 C298 1.224 . S
H307 C339 0.929 . S
H308 C341 0.930 . S
H309 C342 0.930 . S
H310 C340 0.929 . S
H311 C343 0.928 . S
O312 Co296 2.057 . S
O312 C300 1.232 . S
H313 C332 0.929 . S
H314 C333 0.929 . S
H315 C345 0.931 . S
H316 C337 0.929 . S
H317 C346 0.930 . S
H318 C338 0.931 . S
O319 Co295 2.097 . S
O319 C347 1.214 . S
H320 C348 0.929 . S
H321 C349 0.929 . S
H322 C350 0.930 . S
H323 C351 0.929 . S
H324 C353 0.930 . S
H325 C330 0.930 . S
H326 C334 0.930 . S
O327 Co296 2.037 . S
O327 C347 1.234 . S
C328 O302 1.269 . S
C328 O303 1.257 . S
C329 H304 0.930 . S
C329 C332 1.388 . S
C329 C334 1.418 . S
C330 H325 0.930 . S
C330 C333 1.404 . S
C330 C334 1.353 . S
N331 Co296 2.145 . S
N331 C332 1.397 . S
N331 C333 1.334 . S
C332 H313 0.929 . S
C332 C329 1.388 . S
C332 N331 1.397 . S
C333 H314 0.929 . S
C333 C330 1.404 . S
C333 N331 1.334 . S
C334 H326 0.930 . S
C334 C329 1.418 . S
C334 C330 1.353 . S
C335 H305 0.930 . S
C335 N336 1.330 . S
C335 C337 1.446 . S
N336 Co295 2.151 . S
N336 C335 1.330 . S
N336 C340 1.418 . S
C337 H316 0.929 . S
C337 C335 1.446 . S
C337 C338 1.332 . S
C338 H318 0.931 . S
C338 C337 1.332 . S
C338 C339 1.267 . S
C339 H307 0.929 . S
C339 C338 1.267 . S
C339 C340 1.251 . S
C340 H310 0.929 . S
C340 N336 1.418 . S
C340 C339 1.251 . S
C341 H308 0.930 . S
C341 C343 1.406 . S
C341 C346 1.261 . S
C342 H309 0.930 . S
C342 N344 1.325 . S
C342 C345 1.357 . S
C343 H311 0.928 . S
C343 C341 1.406 . S
C343 N344 1.261 . S
N344 Co295 2.214 . S
N344 C342 1.325 . S
N344 C343 1.261 . S
C345 H315 0.931 . S
C345 C342 1.357 . S
C345 C346 1.312 . S
C346 H317 0.930 . S
C346 C341 1.261 . S
C346 C345 1.312 . S
C347 O319 1.214 . S
C347 O327 1.234 . S
C348 H320 0.929 . S
C348 C351 1.391 . S
C348 C353 1.391 . S
C349 H321 0.929 . S
C349 C350 1.390 . S
C349 N352 1.391 . S
C350 H322 0.930 . S
C350 C349 1.390 . S
C350 C351 1.392 . S
C351 H323 0.929 . S
C351 C348 1.391 . S
C351 C350 1.392 . S
N352 Co296 2.257 . S
N352 C349 1.391 . S
N352 C353 1.388 . S
C353 H324 0.930 . S
C353 C348 1.391 . S
C353 N352 1.388 . S
Co354 O356 2.143 . S
Co354 O362 2.074 . S
Co354 O365 2.093 . S
Co354 O378 2.097 . S
Co354 N395 2.151 . S
Co354 N403 2.214 . S
Co355 O356 2.160 . S
Co355 O361 2.058 . S
Co355 O371 2.057 . S
Co355 O386 2.037 . S
Co355 N390 2.145 . S
Co355 N411 2.257 . S
O356 Co354 2.143 . S
O356 Co355 2.160 . S
C357 O358 1.278 . S
C357 O365 1.224 . S
O358 C357 1.278 . S
C359 O360 1.245 . S
C359 O371 1.232 . S
O360 C359 1.245 . S
O361 Co355 2.058 . S
O361 C387 1.269 . S
O362 Co354 2.074 . S
O362 C387 1.257 . S
H363 C388 0.930 . S
H364 C394 0.930 . S
O365 Co354 2.093 . S
O365 C357 1.224 . S
H366 C398 0.929 . S
H367 C400 0.930 . S
H368 C401 0.930 . S
H369 C399 0.929 . S
H370 C402 0.928 . S
O371 Co355 2.057 . S
O371 C359 1.232 . S
H372 C391 0.929 . S
H373 C392 0.929 . S
H374 C404 0.931 . S
H375 C396 0.929 . S
H376 C405 0.930 . S
H377 C397 0.931 . S
O378 Co354 2.097 . S
O378 C406 1.214 . S
H379 C407 0.929 . S
H380 C408 0.929 . S
H381 C409 0.930 . S
H382 C410 0.929 . S
H383 C412 0.930 . S
H384 C389 0.930 . S
H385 C393 0.930 . S
O386 Co355 2.037 . S
O386 C406 1.234 . S
C387 O361 1.269 . S
C387 O362 1.257 . S
C388 H363 0.930 . S
C388 C391 1.388 . S
C388 C393 1.418 . S
C389 H384 0.930 . S
C389 C392 1.404 . S
C389 C393 1.353 . S
N390 Co355 2.145 . S
N390 C391 1.397 . S
N390 C392 1.334 . S
C391 H372 0.929 . S
C391 C388 1.388 . S
C391 N390 1.397 . S
C392 H373 0.929 . S
C392 C389 1.404 . S
C392 N390 1.334 . S
C393 H385 0.930 . S
C393 C388 1.418 . S
C393 C389 1.353 . S
C394 H364 0.930 . S
C394 N395 1.330 . S
C394 C396 1.446 . S
N395 Co354 2.151 . S
N395 C394 1.330 . S
N395 C399 1.418 . S
C396 H375 0.929 . S
C396 C394 1.446 . S
C396 C397 1.332 . S
C397 H377 0.931 . S
C397 C396 1.332 . S
C397 C398 1.267 . S
C398 H366 0.929 . S
C398 C397 1.267 . S
C398 C399 1.251 . S
C399 H369 0.929 . S
C399 N395 1.418 . S
C399 C398 1.251 . S
C400 H367 0.930 . S
C400 C402 1.406 . S
C400 C405 1.261 . S
C401 H368 0.930 . S
C401 N403 1.325 . S
C401 C404 1.357 . S
C402 H370 0.928 . S
C402 C400 1.406 . S
C402 N403 1.261 . S
N403 Co354 2.214 . S
N403 C401 1.325 . S
N403 C402 1.261 . S
C404 H374 0.931 . S
C404 C401 1.357 . S
C404 C405 1.312 . S
C405 H376 0.930 . S
C405 C400 1.261 . S
C405 C404 1.312 . S
C406 O378 1.214 . S
C406 O386 1.234 . S
C407 H379 0.929 . S
C407 C410 1.391 . S
C407 C412 1.391 . S
C408 H380 0.929 . S
C408 C409 1.390 . S
C408 N411 1.391 . S
C409 H381 0.930 . S
C409 C408 1.390 . S
C409 C410 1.392 . S
C410 H382 0.929 . S
C410 C407 1.391 . S
C410 C409 1.392 . S
N411 Co355 2.257 . S
N411 C408 1.391 . S
N411 C412 1.388 . S
C412 H383 0.930 . S
C412 C407 1.391 . S
C412 N411 1.388 . S
Co413 O415 2.143 . S
Co413 O421 2.074 . S
Co413 O424 2.093 . S
Co413 O437 2.097 . S
Co413 N454 2.151 . S
Co413 N462 2.214 . S
Co414 O415 2.160 . S
Co414 O420 2.058 . S
Co414 O430 2.057 . S
Co414 O445 2.037 . S
Co414 N449 2.145 . S
Co414 N470 2.257 . S
O415 Co413 2.143 . S
O415 Co414 2.160 . S
C416 O417 1.278 . S
C416 O424 1.224 . S
O417 C416 1.278 . S
C418 O419 1.245 . S
C418 O430 1.232 . S
O419 C418 1.245 . S
O420 Co414 2.058 . S
O420 C446 1.269 . S
O421 Co413 2.074 . S
O421 C446 1.257 . S
H422 C447 0.930 . S
H423 C453 0.930 . S
O424 Co413 2.093 . S
O424 C416 1.224 . S
H425 C457 0.929 . S
H426 C459 0.930 . S
H427 C460 0.930 . S
H428 C458 0.929 . S
H429 C461 0.928 . S
O430 Co414 2.057 . S
O430 C418 1.232 . S
H431 C450 0.929 . S
H432 C451 0.929 . S
H433 C463 0.931 . S
H434 C455 0.929 . S
H435 C464 0.930 . S
H436 C456 0.931 . S
O437 Co413 2.097 . S
O437 C465 1.214 . S
H438 C466 0.929 . S
H439 C467 0.929 . S
H440 C468 0.930 . S
H441 C469 0.929 . S
H442 C471 0.930 . S
H443 C448 0.930 . S
H444 C452 0.930 . S
O445 Co414 2.037 . S
O445 C465 1.234 . S
C446 O420 1.269 . S
C446 O421 1.257 . S
C447 H422 0.930 . S
C447 C450 1.388 . S
C447 C452 1.418 . S
C448 H443 0.930 . S
C448 C451 1.404 . S
C448 C452 1.353 . S
N449 Co414 2.145 . S
N449 C450 1.397 . S
N449 C451 1.334 . S
C450 H431 0.929 . S
C450 C447 1.388 . S
C450 N449 1.397 . S
C451 H432 0.929 . S
C451 C448 1.404 . S
C451 N449 1.334 . S
C452 H444 0.930 . S
C452 C447 1.418 . S
C452 C448 1.353 . S
C453 H423 0.930 . S
C453 N454 1.330 . S
C453 C455 1.446 . S
N454 Co413 2.151 . S
N454 C453 1.330 . S
N454 C458 1.418 . S
C455 H434 0.929 . S
C455 C453 1.446 . S
C455 C456 1.332 . S
C456 H436 0.931 . S
C456 C455 1.332 . S
C456 C457 1.267 . S
C457 H425 0.929 . S
C457 C456 1.267 . S
C457 C458 1.251 . S
C458 H428 0.929 . S
C458 N454 1.418 . S
C458 C457 1.251 . S
C459 H426 0.930 . S
C459 C461 1.406 . S
C459 C464 1.261 . S
C460 H427 0.930 . S
C460 N462 1.325 . S
C460 C463 1.357 . S
C461 H429 0.928 . S
C461 C459 1.406 . S
C461 N462 1.261 . S
N462 Co413 2.214 . S
N462 C460 1.325 . S
N462 C461 1.261 . S
C463 H433 0.931 . S
C463 C460 1.357 . S
C463 C464 1.312 . S
C464 H435 0.930 . S
C464 C459 1.261 . S
C464 C463 1.312 . S
C465 O437 1.214 . S
C465 O445 1.234 . S
C466 H438 0.929 . S
C466 C469 1.391 . S
C466 C471 1.391 . S
C467 H439 0.929 . S
C467 C468 1.390 . S
C467 N470 1.391 . S
C468 H440 0.930 . S
C468 C467 1.390 . S
C468 C469 1.392 . S
C469 H441 0.929 . S
C469 C466 1.391 . S
C469 C468 1.392 . S
N470 Co414 2.257 . S
N470 C467 1.391 . S
N470 C471 1.388 . S
C471 H442 0.930 . S
C471 C466 1.391 . S
C471 N470 1.388 . S
Co472 O474 2.143 . S
Co472 O480 2.074 . S
Co472 O483 2.093 . S
Co472 O496 2.097 . S
Co472 N513 2.151 . S
Co472 N521 2.214 . S
Co473 O474 2.160 . S
Co473 O479 2.058 . S
Co473 O489 2.057 . S
Co473 O504 2.037 . S
Co473 N508 2.145 . S
Co473 N529 2.257 . S
O474 Co472 2.143 . S
O474 Co473 2.160 . S
C475 O476 1.278 . S
C475 O483 1.224 . S
O476 C475 1.278 . S
C477 O478 1.245 . S
C477 O489 1.232 . S
O478 C477 1.245 . S
O479 Co473 2.058 . S
O479 C505 1.269 . S
O480 Co472 2.074 . S
O480 C505 1.257 . S
H481 C506 0.930 . S
H482 C512 0.930 . S
O483 Co472 2.093 . S
O483 C475 1.224 . S
H484 C516 0.929 . S
H485 C518 0.930 . S
H486 C519 0.930 . S
H487 C517 0.929 . S
H488 C520 0.928 . S
O489 Co473 2.057 . S
O489 C477 1.232 . S
H490 C509 0.929 . S
H491 C510 0.929 . S
H492 C522 0.931 . S
H493 C514 0.929 . S
H494 C523 0.930 . S
H495 C515 0.931 . S
O496 Co472 2.097 . S
O496 C524 1.214 . S
H497 C525 0.929 . S
H498 C526 0.929 . S
H499 C527 0.930 . S
H500 C528 0.929 . S
H501 C530 0.930 . S
H502 C507 0.930 . S
H503 C511 0.930 . S
O504 Co473 2.037 . S
O504 C524 1.234 . S
C505 O479 1.269 . S
C505 O480 1.257 . S
C506 H481 0.930 . S
C506 C509 1.388 . S
C506 C511 1.418 . S
C507 H502 0.930 . S
C507 C510 1.404 . S
C507 C511 1.353 . S
N508 Co473 2.145 . S
N508 C509 1.397 . S
N508 C510 1.334 . S
C509 H490 0.929 . S
C509 C506 1.388 . S
C509 N508 1.397 . S
C510 H491 0.929 . S
C510 C507 1.404 . S
C510 N508 1.334 . S
C511 H503 0.930 . S
C511 C506 1.418 . S
C511 C507 1.353 . S
C512 H482 0.930 . S
C512 N513 1.330 . S
C512 C514 1.446 . S
N513 Co472 2.151 . S
N513 C512 1.330 . S
N513 C517 1.418 . S
C514 H493 0.929 . S
C514 C512 1.446 . S
C514 C515 1.332 . S
C515 H495 0.931 . S
C515 C514 1.332 . S
C515 C516 1.267 . S
C516 H484 0.929 . S
C516 C515 1.267 . S
C516 C517 1.251 . S
C517 H487 0.929 . S
C517 N513 1.418 . S
C517 C516 1.251 . S
C518 H485 0.930 . S
C518 C520 1.406 . S
C518 C523 1.261 . S
C519 H486 0.930 . S
C519 N521 1.325 . S
C519 C522 1.357 . S
C520 H488 0.928 . S
C520 C518 1.406 . S
C520 N521 1.261 . S
N521 Co472 2.214 . S
N521 C519 1.325 . S
N521 C520 1.261 . S
C522 H492 0.931 . S
C522 C519 1.357 . S
C522 C523 1.312 . S
C523 H494 0.930 . S
C523 C518 1.261 . S
C523 C522 1.312 . S
C524 O496 1.214 . S
C524 O504 1.234 . S
C525 H497 0.929 . S
C525 C528 1.391 . S
C525 C530 1.391 . S
C526 H498 0.929 . S
C526 C527 1.390 . S
C526 N529 1.391 . S
C527 H499 0.930 . S
C527 C526 1.390 . S
C527 C528 1.392 . S
C528 H500 0.929 . S
C528 C525 1.391 . S
C528 C527 1.392 . S
N529 Co473 2.257 . S
N529 C526 1.391 . S
N529 C530 1.388 . S
C530 H501 0.930 . S
C530 C525 1.391 . S
C530 N529 1.388 . S
Co531 O533 2.143 . S
Co531 O539 2.074 . S
Co531 O542 2.093 . S
Co531 O555 2.097 . S
Co531 N572 2.151 . S
Co531 N580 2.214 . S
Co532 O533 2.160 . S
Co532 O538 2.058 . S
Co532 O548 2.057 . S
Co532 O563 2.037 . S
Co532 N567 2.145 . S
Co532 N588 2.257 . S
O533 Co531 2.143 . S
O533 Co532 2.160 . S
C534 O535 1.278 . S
C534 O542 1.224 . S
O535 C534 1.278 . S
C536 O537 1.245 . S
C536 O548 1.232 . S
O537 C536 1.245 . S
O538 Co532 2.058 . S
O538 C564 1.269 . S
O539 Co531 2.074 . S
O539 C564 1.257 . S
H540 C565 0.930 . S
H541 C571 0.930 . S
O542 Co531 2.093 . S
O542 C534 1.224 . S
H543 C575 0.929 . S
H544 C577 0.930 . S
H545 C578 0.930 . S
H546 C576 0.929 . S
H547 C579 0.928 . S
O548 Co532 2.057 . S
O548 C536 1.232 . S
H549 C568 0.929 . S
H550 C569 0.929 . S
H551 C581 0.931 . S
H552 C573 0.929 . S
H553 C582 0.930 . S
H554 C574 0.931 . S
O555 Co531 2.097 . S
O555 C583 1.214 . S
H556 C584 0.929 . S
H557 C585 0.929 . S
H558 C586 0.930 . S
H559 C587 0.929 . S
H560 C589 0.930 . S
H561 C566 0.930 . S
H562 C570 0.930 . S
O563 Co532 2.037 . S
O563 C583 1.234 . S
C564 O538 1.269 . S
C564 O539 1.257 . S
C565 H540 0.930 . S
C565 C568 1.388 . S
C565 C570 1.418 . S
C566 H561 0.930 . S
C566 C569 1.404 . S
C566 C570 1.353 . S
N567 Co532 2.145 . S
N567 C568 1.397 . S
N567 C569 1.334 . S
C568 H549 0.929 . S
C568 C565 1.388 . S
C568 N567 1.397 . S
C569 H550 0.929 . S
C569 C566 1.404 . S
C569 N567 1.334 . S
C570 H562 0.930 . S
C570 C565 1.418 . S
C570 C566 1.353 . S
C571 H541 0.930 . S
C571 N572 1.330 . S
C571 C573 1.446 . S
N572 Co531 2.151 . S
N572 C571 1.330 . S
N572 C576 1.418 . S
C573 H552 0.929 . S
C573 C571 1.446 . S
C573 C574 1.332 . S
C574 H554 0.931 . S
C574 C573 1.332 . S
C574 C575 1.267 . S
C575 H543 0.929 . S
C575 C574 1.267 . S
C575 C576 1.251 . S
C576 H546 0.929 . S
C576 N572 1.418 . S
C576 C575 1.251 . S
C577 H544 0.930 . S
C577 C579 1.406 . S
C577 C582 1.261 . S
C578 H545 0.930 . S
C578 N580 1.325 . S
C578 C581 1.357 . S
C579 H547 0.928 . S
C579 C577 1.406 . S
C579 N580 1.261 . S
N580 Co531 2.214 . S
N580 C578 1.325 . S
N580 C579 1.261 . S
C581 H551 0.931 . S
C581 C578 1.357 . S
C581 C582 1.312 . S
C582 H553 0.930 . S
C582 C577 1.261 . S
C582 C581 1.312 . S
C583 O555 1.214 . S
C583 O563 1.234 . S
C584 H556 0.929 . S
C584 C587 1.391 . S
C584 C589 1.391 . S
C585 H557 0.929 . S
C585 C586 1.390 . S
C585 N588 1.391 . S
C586 H558 0.930 . S
C586 C585 1.390 . S
C586 C587 1.392 . S
C587 H559 0.929 . S
C587 C584 1.391 . S
C587 C586 1.392 . S
N588 Co532 2.257 . S
N588 C585 1.391 . S
N588 C589 1.388 . S
C589 H560 0.930 . S
C589 C584 1.391 . S
C589 N588 1.388 . S
Co590 O592 2.143 . S
Co590 O598 2.074 . S
Co590 O601 2.093 . S
Co590 O614 2.097 . S
Co590 N631 2.151 . S
Co590 N639 2.214 . S
Co591 O592 2.160 . S
Co591 O597 2.058 . S
Co591 O607 2.057 . S
Co591 O622 2.037 . S
Co591 N626 2.145 . S
Co591 N647 2.257 . S
O592 Co590 2.143 . S
O592 Co591 2.160 . S
C593 O594 1.278 . S
C593 O601 1.224 . S
O594 C593 1.278 . S
C595 O596 1.245 . S
C595 O607 1.232 . S
O596 C595 1.245 . S
O597 Co591 2.058 . S
O597 C623 1.269 . S
O598 Co590 2.074 . S
O598 C623 1.257 . S
H599 C624 0.930 . S
H600 C630 0.930 . S
O601 Co590 2.093 . S
O601 C593 1.224 . S
H602 C634 0.929 . S
H603 C636 0.930 . S
H604 C637 0.930 . S
H605 C635 0.929 . S
H606 C638 0.928 . S
O607 Co591 2.057 . S
O607 C595 1.232 . S
H608 C627 0.929 . S
H609 C628 0.929 . S
H610 C640 0.931 . S
H611 C632 0.929 . S
H612 C641 0.930 . S
H613 C633 0.931 . S
O614 Co590 2.097 . S
O614 C642 1.214 . S
H615 C643 0.929 . S
H616 C644 0.929 . S
H617 C645 0.930 . S
H618 C646 0.929 . S
H619 C648 0.930 . S
H620 C625 0.930 . S
H621 C629 0.930 . S
O622 Co591 2.037 . S
O622 C642 1.234 . S
C623 O597 1.269 . S
C623 O598 1.257 . S
C624 H599 0.930 . S
C624 C627 1.388 . S
C624 C629 1.418 . S
C625 H620 0.930 . S
C625 C628 1.404 . S
C625 C629 1.353 . S
N626 Co591 2.145 . S
N626 C627 1.397 . S
N626 C628 1.334 . S
C627 H608 0.929 . S
C627 C624 1.388 . S
C627 N626 1.397 . S
C628 H609 0.929 . S
C628 C625 1.404 . S
C628 N626 1.334 . S
C629 H621 0.930 . S
C629 C624 1.418 . S
C629 C625 1.353 . S
C630 H600 0.930 . S
C630 N631 1.330 . S
C630 C632 1.446 . S
N631 Co590 2.151 . S
N631 C630 1.330 . S
N631 C635 1.418 . S
C632 H611 0.929 . S
C632 C630 1.446 . S
C632 C633 1.332 . S
C633 H613 0.931 . S
C633 C632 1.332 . S
C633 C634 1.267 . S
C634 H602 0.929 . S
C634 C633 1.267 . S
C634 C635 1.251 . S
C635 H605 0.929 . S
C635 N631 1.418 . S
C635 C634 1.251 . S
C636 H603 0.930 . S
C636 C638 1.406 . S
C636 C641 1.261 . S
C637 H604 0.930 . S
C637 N639 1.325 . S
C637 C640 1.357 . S
C638 H606 0.928 . S
C638 C636 1.406 . S
C638 N639 1.261 . S
N639 Co590 2.214 . S
N639 C637 1.325 . S
N639 C638 1.261 . S
C640 H610 0.931 . S
C640 C637 1.357 . S
C640 C641 1.312 . S
C641 H612 0.930 . S
C641 C636 1.261 . S
C641 C640 1.312 . S
C642 O614 1.214 . S
C642 O622 1.234 . S
C643 H615 0.929 . S
C643 C646 1.391 . S
C643 C648 1.391 . S
C644 H616 0.929 . S
C644 C645 1.390 . S
C644 N647 1.391 . S
C645 H617 0.930 . S
C645 C644 1.390 . S
C645 C646 1.392 . S
C646 H618 0.929 . S
C646 C643 1.391 . S
C646 C645 1.392 . S
N647 Co591 2.257 . S
N647 C644 1.391 . S
N647 C648 1.388 . S
C648 H619 0.930 . S
C648 C643 1.391 . S
C648 N647 1.388 . S
Co649 O651 2.143 . S
Co649 O657 2.074 . S
Co649 O660 2.093 . S
Co649 O673 2.097 . S
Co649 N690 2.151 . S
Co649 N698 2.214 . S
Co650 O651 2.160 . S
Co650 O656 2.058 . S
Co650 O666 2.057 . S
Co650 O681 2.037 . S
Co650 N685 2.145 . S
Co650 N706 2.257 . S
O651 Co649 2.143 . S
O651 Co650 2.160 . S
C652 O653 1.278 . S
C652 O660 1.224 . S
O653 C652 1.278 . S
C654 O655 1.245 . S
C654 O666 1.232 . S
O655 C654 1.245 . S
O656 Co650 2.058 . S
O656 C682 1.269 . S
O657 Co649 2.074 . S
O657 C682 1.257 . S
H658 C683 0.930 . S
H659 C689 0.930 . S
O660 Co649 2.093 . S
O660 C652 1.224 . S
H661 C693 0.929 . S
H662 C695 0.930 . S
H663 C696 0.930 . S
H664 C694 0.929 . S
H665 C697 0.928 . S
O666 Co650 2.057 . S
O666 C654 1.232 . S
H667 C686 0.929 . S
H668 C687 0.929 . S
H669 C699 0.931 . S
H670 C691 0.929 . S
H671 C700 0.930 . S
H672 C692 0.931 . S
O673 Co649 2.097 . S
O673 C701 1.214 . S
H674 C702 0.929 . S
H675 C703 0.929 . S
H676 C704 0.930 . S
H677 C705 0.929 . S
H678 C707 0.930 . S
H679 C684 0.930 . S
H680 C688 0.930 . S
O681 Co650 2.037 . S
O681 C701 1.234 . S
C682 O656 1.269 . S
C682 O657 1.257 . S
C683 H658 0.930 . S
C683 C686 1.388 . S
C683 C688 1.418 . S
C684 H679 0.930 . S
C684 C687 1.404 . S
C684 C688 1.353 . S
N685 Co650 2.145 . S
N685 C686 1.397 . S
N685 C687 1.334 . S
C686 H667 0.929 . S
C686 C683 1.388 . S
C686 N685 1.397 . S
C687 H668 0.929 . S
C687 C684 1.404 . S
C687 N685 1.334 . S
C688 H680 0.930 . S
C688 C683 1.418 . S
C688 C684 1.353 . S
C689 H659 0.930 . S
C689 N690 1.330 . S
C689 C691 1.446 . S
N690 Co649 2.151 . S
N690 C689 1.330 . S
N690 C694 1.418 . S
C691 H670 0.929 . S
C691 C689 1.446 . S
C691 C692 1.332 . S
C692 H672 0.931 . S
C692 C691 1.332 . S
C692 C693 1.267 . S
C693 H661 0.929 . S
C693 C692 1.267 . S
C693 C694 1.251 . S
C694 H664 0.929 . S
C694 N690 1.418 . S
C694 C693 1.251 . S
C695 H662 0.930 . S
C695 C697 1.406 . S
C695 C700 1.261 . S
C696 H663 0.930 . S
C696 N698 1.325 . S
C696 C699 1.357 . S
C697 H665 0.928 . S
C697 C695 1.406 . S
C697 N698 1.261 . S
N698 Co649 2.214 . S
N698 C696 1.325 . S
N698 C697 1.261 . S
C699 H669 0.931 . S
C699 C696 1.357 . S
C699 C700 1.312 . S
C700 H671 0.930 . S
C700 C695 1.261 . S
C700 C699 1.312 . S
C701 O673 1.214 . S
C701 O681 1.234 . S
C702 H674 0.929 . S
C702 C705 1.391 . S
C702 C707 1.391 . S
C703 H675 0.929 . S
C703 C704 1.390 . S
C703 N706 1.391 . S
C704 H676 0.930 . S
C704 C703 1.390 . S
C704 C705 1.392 . S
C705 H677 0.929 . S
C705 C702 1.391 . S
C705 C704 1.392 . S
N706 Co650 2.257 . S
N706 C703 1.391 . S
N706 C707 1.388 . S
C707 H678 0.930 . S
C707 C702 1.391 . S
C707 N706 1.388 . S
Co708 O710 2.143 . S
Co708 O716 2.074 . S
Co708 O719 2.093 . S
Co708 O732 2.097 . S
Co708 N749 2.151 . S
Co708 N757 2.214 . S
Co709 O710 2.160 . S
Co709 O715 2.058 . S
Co709 O725 2.057 . S
Co709 O740 2.037 . S
Co709 N744 2.145 . S
Co709 N765 2.257 . S
O710 Co708 2.143 . S
O710 Co709 2.160 . S
C711 O712 1.278 . S
C711 O719 1.224 . S
O712 C711 1.278 . S
C713 O714 1.245 . S
C713 O725 1.232 . S
O714 C713 1.245 . S
O715 Co709 2.058 . S
O715 C741 1.269 . S
O716 Co708 2.074 . S
O716 C741 1.257 . S
H717 C742 0.930 . S
H718 C748 0.930 . S
O719 Co708 2.093 . S
O719 C711 1.224 . S
H720 C752 0.929 . S
H721 C754 0.930 . S
H722 C755 0.930 . S
H723 C753 0.929 . S
H724 C756 0.928 . S
O725 Co709 2.057 . S
O725 C713 1.232 . S
H726 C745 0.929 . S
H727 C746 0.929 . S
H728 C758 0.931 . S
H729 C750 0.929 . S
H730 C759 0.930 . S
H731 C751 0.931 . S
O732 Co708 2.097 . S
O732 C760 1.214 . S
H733 C761 0.929 . S
H734 C762 0.929 . S
H735 C763 0.930 . S
H736 C764 0.929 . S
H737 C766 0.930 . S
H738 C743 0.930 . S
H739 C747 0.930 . S
O740 Co709 2.037 . S
O740 C760 1.234 . S
C741 O715 1.269 . S
C741 O716 1.257 . S
C742 H717 0.930 . S
C742 C745 1.388 . S
C742 C747 1.418 . S
C743 H738 0.930 . S
C743 C746 1.404 . S
C743 C747 1.353 . S
N744 Co709 2.145 . S
N744 C745 1.397 . S
N744 C746 1.334 . S
C745 H726 0.929 . S
C745 C742 1.388 . S
C745 N744 1.397 . S
C746 H727 0.929 . S
C746 C743 1.404 . S
C746 N744 1.334 . S
C747 H739 0.930 . S
C747 C742 1.418 . S
C747 C743 1.353 . S
C748 H718 0.930 . S
C748 N749 1.330 . S
C748 C750 1.446 . S
N749 Co708 2.151 . S
N749 C748 1.330 . S
N749 C753 1.418 . S
C750 H729 0.929 . S
C750 C748 1.446 . S
C750 C751 1.332 . S
C751 H731 0.931 . S
C751 C750 1.332 . S
C751 C752 1.267 . S
C752 H720 0.929 . S
C752 C751 1.267 . S
C752 C753 1.251 . S
C753 H723 0.929 . S
C753 N749 1.418 . S
C753 C752 1.251 . S
C754 H721 0.930 . S
C754 C756 1.406 . S
C754 C759 1.261 . S
C755 H722 0.930 . S
C755 N757 1.325 . S
C755 C758 1.357 . S
C756 H724 0.928 . S
C756 C754 1.406 . S
C756 N757 1.261 . S
N757 Co708 2.214 . S
N757 C755 1.325 . S
N757 C756 1.261 . S
C758 H728 0.931 . S
C758 C755 1.357 . S
C758 C759 1.312 . S
C759 H730 0.930 . S
C759 C754 1.261 . S
C759 C758 1.312 . S
C760 O732 1.214 . S
C760 O740 1.234 . S
C761 H733 0.929 . S
C761 C764 1.391 . S
C761 C766 1.391 . S
C762 H734 0.929 . S
C762 C763 1.390 . S
C762 N765 1.391 . S
C763 H735 0.930 . S
C763 C762 1.390 . S
C763 C764 1.392 . S
C764 H736 0.929 . S
C764 C761 1.391 . S
C764 C763 1.392 . S
N765 Co709 2.257 . S
N765 C762 1.391 . S
N765 C766 1.388 . S
C766 H737 0.930 . S
C766 C761 1.391 . S
C766 N765 1.388 . S
Co767 O769 2.143 . S
Co767 O775 2.074 . S
Co767 O778 2.093 . S
Co767 O791 2.097 . S
Co767 N808 2.151 . S
Co767 N816 2.214 . S
Co768 O769 2.160 . S
Co768 O774 2.058 . S
Co768 O784 2.057 . S
Co768 O799 2.037 . S
Co768 N803 2.145 . S
Co768 N824 2.257 . S
O769 Co767 2.143 . S
O769 Co768 2.160 . S
C770 O771 1.278 . S
C770 O778 1.224 . S
O771 C770 1.278 . S
C772 O773 1.245 . S
C772 O784 1.232 . S
O773 C772 1.245 . S
O774 Co768 2.058 . S
O774 C800 1.269 . S
O775 Co767 2.074 . S
O775 C800 1.257 . S
H776 C801 0.930 . S
H777 C807 0.930 . S
O778 Co767 2.093 . S
O778 C770 1.224 . S
H779 C811 0.929 . S
H780 C813 0.930 . S
H781 C814 0.930 . S
H782 C812 0.929 . S
H783 C815 0.928 . S
O784 Co768 2.057 . S
O784 C772 1.232 . S
H785 C804 0.929 . S
H786 C805 0.929 . S
H787 C817 0.931 . S
H788 C809 0.929 . S
H789 C818 0.930 . S
H790 C810 0.931 . S
O791 Co767 2.097 . S
O791 C819 1.214 . S
H792 C820 0.929 . S
H793 C821 0.929 . S
H794 C822 0.930 . S
H795 C823 0.929 . S
H796 C825 0.930 . S
H797 C802 0.930 . S
H798 C806 0.930 . S
O799 Co768 2.037 . S
O799 C819 1.234 . S
C800 O774 1.269 . S
C800 O775 1.257 . S
C801 H776 0.930 . S
C801 C804 1.388 . S
C801 C806 1.418 . S
C802 H797 0.930 . S
C802 C805 1.404 . S
C802 C806 1.353 . S
N803 Co768 2.145 . S
N803 C804 1.397 . S
N803 C805 1.334 . S
C804 H785 0.929 . S
C804 C801 1.388 . S
C804 N803 1.397 . S
C805 H786 0.929 . S
C805 C802 1.404 . S
C805 N803 1.334 . S
C806 H798 0.930 . S
C806 C801 1.418 . S
C806 C802 1.353 . S
C807 H777 0.930 . S
C807 N808 1.330 . S
C807 C809 1.446 . S
N808 Co767 2.151 . S
N808 C807 1.330 . S
N808 C812 1.418 . S
C809 H788 0.929 . S
C809 C807 1.446 . S
C809 C810 1.332 . S
C810 H790 0.931 . S
C810 C809 1.332 . S
C810 C811 1.267 . S
C811 H779 0.929 . S
C811 C810 1.267 . S
C811 C812 1.251 . S
C812 H782 0.929 . S
C812 N808 1.418 . S
C812 C811 1.251 . S
C813 H780 0.930 . S
C813 C815 1.406 . S
C813 C818 1.261 . S
C814 H781 0.930 . S
C814 N816 1.325 . S
C814 C817 1.357 . S
C815 H783 0.928 . S
C815 C813 1.406 . S
C815 N816 1.261 . S
N816 Co767 2.214 . S
N816 C814 1.325 . S
N816 C815 1.261 . S
C817 H787 0.931 . S
C817 C814 1.357 . S
C817 C818 1.312 . S
C818 H789 0.930 . S
C818 C813 1.261 . S
C818 C817 1.312 . S
C819 O791 1.214 . S
C819 O799 1.234 . S
C820 H792 0.929 . S
C820 C823 1.391 . S
C820 C825 1.391 . S
C821 H793 0.929 . S
C821 C822 1.390 . S
C821 N824 1.391 . S
C822 H794 0.930 . S
C822 C821 1.390 . S
C822 C823 1.392 . S
C823 H795 0.929 . S
C823 C820 1.391 . S
C823 C822 1.392 . S
N824 Co768 2.257 . S
N824 C821 1.391 . S
N824 C825 1.388 . S
C825 H796 0.930 . S
C825 C820 1.391 . S
C825 N824 1.388 . S
Co826 O828 2.143 . S
Co826 O834 2.074 . S
Co826 O837 2.093 . S
Co826 O850 2.097 . S
Co826 N867 2.151 . S
Co826 N875 2.214 . S
Co827 O828 2.160 . S
Co827 O833 2.058 . S
Co827 O843 2.057 . S
Co827 O858 2.037 . S
Co827 N862 2.145 . S
Co827 N883 2.257 . S
O828 Co826 2.143 . S
O828 Co827 2.160 . S
C829 O830 1.278 . S
C829 O837 1.224 . S
O830 C829 1.278 . S
C831 O832 1.245 . S
C831 O843 1.232 . S
O832 C831 1.245 . S
O833 Co827 2.058 . S
O833 C859 1.269 . S
O834 Co826 2.074 . S
O834 C859 1.257 . S
H835 C860 0.930 . S
H836 C866 0.930 . S
O837 Co826 2.093 . S
O837 C829 1.224 . S
H838 C870 0.929 . S
H839 C872 0.930 . S
H840 C873 0.930 . S
H841 C871 0.929 . S
H842 C874 0.928 . S
O843 Co827 2.057 . S
O843 C831 1.232 . S
H844 C863 0.929 . S
H845 C864 0.929 . S
H846 C876 0.931 . S
H847 C868 0.929 . S
H848 C877 0.930 . S
H849 C869 0.931 . S
O850 Co826 2.097 . S
O850 C878 1.214 . S
H851 C879 0.929 . S
H852 C880 0.929 . S
H853 C881 0.930 . S
H854 C882 0.929 . S
H855 C884 0.930 . S
H856 C861 0.930 . S
H857 C865 0.930 . S
O858 Co827 2.037 . S
O858 C878 1.234 . S
C859 O833 1.269 . S
C859 O834 1.257 . S
C860 H835 0.930 . S
C860 C863 1.388 . S
C860 C865 1.418 . S
C861 H856 0.930 . S
C861 C864 1.404 . S
C861 C865 1.353 . S
N862 Co827 2.145 . S
N862 C863 1.397 . S
N862 C864 1.334 . S
C863 H844 0.929 . S
C863 C860 1.388 . S
C863 N862 1.397 . S
C864 H845 0.929 . S
C864 C861 1.404 . S
C864 N862 1.334 . S
C865 H857 0.930 . S
C865 C860 1.418 . S
C865 C861 1.353 . S
C866 H836 0.930 . S
C866 N867 1.330 . S
C866 C868 1.446 . S
N867 Co826 2.151 . S
N867 C866 1.330 . S
N867 C871 1.418 . S
C868 H847 0.929 . S
C868 C866 1.446 . S
C868 C869 1.332 . S
C869 H849 0.931 . S
C869 C868 1.332 . S
C869 C870 1.267 . S
C870 H838 0.929 . S
C870 C869 1.267 . S
C870 C871 1.251 . S
C871 H841 0.929 . S
C871 N867 1.418 . S
C871 C870 1.251 . S
C872 H839 0.930 . S
C872 C874 1.406 . S
C872 C877 1.261 . S
C873 H840 0.930 . S
C873 N875 1.325 . S
C873 C876 1.357 . S
C874 H842 0.928 . S
C874 C872 1.406 . S
C874 N875 1.261 . S
N875 Co826 2.214 . S
N875 C873 1.325 . S
N875 C874 1.261 . S
C876 H846 0.931 . S
C876 C873 1.357 . S
C876 C877 1.312 . S
C877 H848 0.930 . S
C877 C872 1.261 . S
C877 C876 1.312 . S
C878 O850 1.214 . S
C878 O858 1.234 . S
C879 H851 0.929 . S
C879 C882 1.391 . S
C879 C884 1.391 . S
C880 H852 0.929 . S
C880 C881 1.390 . S
C880 N883 1.391 . S
C881 H853 0.930 . S
C881 C880 1.390 . S
C881 C882 1.392 . S
C882 H854 0.929 . S
C882 C879 1.391 . S
C882 C881 1.392 . S
N883 Co827 2.257 . S
N883 C880 1.391 . S
N883 C884 1.388 . S
C884 H855 0.930 . S
C884 C879 1.391 . S
C884 N883 1.388 . S
Co885 O887 2.143 . S
Co885 O893 2.074 . S
Co885 O896 2.093 . S
Co885 O909 2.097 . S
Co885 N926 2.151 . S
Co885 N934 2.214 . S
Co886 O887 2.160 . S
Co886 O892 2.058 . S
Co886 O902 2.057 . S
Co886 O917 2.037 . S
Co886 N921 2.145 . S
Co886 N942 2.257 . S
O887 Co885 2.143 . S
O887 Co886 2.160 . S
C888 O889 1.278 . S
C888 O896 1.224 . S
O889 C888 1.278 . S
C890 O891 1.245 . S
C890 O902 1.232 . S
O891 C890 1.245 . S
O892 Co886 2.058 . S
O892 C918 1.269 . S
O893 Co885 2.074 . S
O893 C918 1.257 . S
H894 C919 0.930 . S
H895 C925 0.930 . S
O896 Co885 2.093 . S
O896 C888 1.224 . S
H897 C929 0.929 . S
H898 C931 0.930 . S
H899 C932 0.930 . S
H900 C930 0.929 . S
H901 C933 0.928 . S
O902 Co886 2.057 . S
O902 C890 1.232 . S
H903 C922 0.929 . S
H904 C923 0.929 . S
H905 C935 0.931 . S
H906 C927 0.929 . S
H907 C936 0.930 . S
H908 C928 0.931 . S
O909 Co885 2.097 . S
O909 C937 1.214 . S
H910 C938 0.929 . S
H911 C939 0.929 . S
H912 C940 0.930 . S
H913 C941 0.929 . S
H914 C943 0.930 . S
H915 C920 0.930 . S
H916 C924 0.930 . S
O917 Co886 2.037 . S
O917 C937 1.234 . S
C918 O892 1.269 . S
C918 O893 1.257 . S
C919 H894 0.930 . S
C919 C922 1.388 . S
C919 C924 1.418 . S
C920 H915 0.930 . S
C920 C923 1.404 . S
C920 C924 1.353 . S
N921 Co886 2.145 . S
N921 C922 1.397 . S
N921 C923 1.334 . S
C922 H903 0.929 . S
C922 C919 1.388 . S
C922 N921 1.397 . S
C923 H904 0.929 . S
C923 C920 1.404 . S
C923 N921 1.334 . S
C924 H916 0.930 . S
C924 C919 1.418 . S
C924 C920 1.353 . S
C925 H895 0.930 . S
C925 N926 1.330 . S
C925 C927 1.446 . S
N926 Co885 2.151 . S
N926 C925 1.330 . S
N926 C930 1.418 . S
C927 H906 0.929 . S
C927 C925 1.446 . S
C927 C928 1.332 . S
C928 H908 0.931 . S
C928 C927 1.332 . S
C928 C929 1.267 . S
C929 H897 0.929 . S
C929 C928 1.267 . S
C929 C930 1.251 . S
C930 H900 0.929 . S
C930 N926 1.418 . S
C930 C929 1.251 . S
C931 H898 0.930 . S
C931 C933 1.406 . S
C931 C936 1.261 . S
C932 H899 0.930 . S
C932 N934 1.325 . S
C932 C935 1.357 . S
C933 H901 0.928 . S
C933 C931 1.406 . S
C933 N934 1.261 . S
N934 Co885 2.214 . S
N934 C932 1.325 . S
N934 C933 1.261 . S
C935 H905 0.931 . S
C935 C932 1.357 . S
C935 C936 1.312 . S
C936 H907 0.930 . S
C936 C931 1.261 . S
C936 C935 1.312 . S
C937 O909 1.214 . S
C937 O917 1.234 . S
C938 H910 0.929 . S
C938 C941 1.391 . S
C938 C943 1.391 . S
C939 H911 0.929 . S
C939 C940 1.390 . S
C939 N942 1.391 . S
C940 H912 0.930 . S
C940 C939 1.390 . S
C940 C941 1.392 . S
C941 H913 0.929 . S
C941 C938 1.391 . S
C941 C940 1.392 . S
N942 Co886 2.257 . S
N942 C939 1.391 . S
N942 C943 1.388 . S
C943 H914 0.930 . S
C943 C938 1.391 . S
C943 N942 1.388 . S
Co944 O946 2.143 . S
Co944 O952 2.074 . S
Co944 O955 2.093 . S
Co944 O968 2.097 . S
Co944 N985 2.151 . S
Co944 N993 2.214 . S
Co945 O946 2.160 . S
Co945 O951 2.058 . S
Co945 O961 2.057 . S
Co945 O976 2.037 . S
Co945 N980 2.145 . S
Co945 N1001 2.257 . S
O946 Co944 2.143 . S
O946 Co945 2.160 . S
C947 O948 1.278 . S
C947 O955 1.224 . S
O948 C947 1.278 . S
C949 O950 1.245 . S
C949 O961 1.232 . S
O950 C949 1.245 . S
O951 Co945 2.058 . S
O951 C977 1.269 . S
O952 Co944 2.074 . S
O952 C977 1.257 . S
H953 C978 0.930 . S
H954 C984 0.930 . S
O955 Co944 2.093 . S
O955 C947 1.224 . S
H956 C988 0.929 . S
H957 C990 0.930 . S
H958 C991 0.930 . S
H959 C989 0.929 . S
H960 C992 0.928 . S
O961 Co945 2.057 . S
O961 C949 1.232 . S
H962 C981 0.929 . S
H963 C982 0.929 . S
H964 C994 0.931 . S
H965 C986 0.929 . S
H966 C995 0.930 . S
H967 C987 0.931 . S
O968 Co944 2.097 . S
O968 C996 1.214 . S
H969 C997 0.929 . S
H970 C998 0.929 . S
H971 C999 0.930 . S
H972 C1000 0.929 . S
H973 C1002 0.930 . S
H974 C979 0.930 . S
H975 C983 0.930 . S
O976 Co945 2.037 . S
O976 C996 1.234 . S
C977 O951 1.269 . S
C977 O952 1.257 . S
C978 H953 0.930 . S
C978 C981 1.388 . S
C978 C983 1.418 . S
C979 H974 0.930 . S
C979 C982 1.404 . S
C979 C983 1.353 . S
N980 Co945 2.145 . S
N980 C981 1.397 . S
N980 C982 1.334 . S
C981 H962 0.929 . S
C981 C978 1.388 . S
C981 N980 1.397 . S
C982 H963 0.929 . S
C982 C979 1.404 . S
C982 N980 1.334 . S
C983 H975 0.930 . S
C983 C978 1.418 . S
C983 C979 1.353 . S
C984 H954 0.930 . S
C984 N985 1.330 . S
C984 C986 1.446 . S
N985 Co944 2.151 . S
N985 C984 1.330 . S
N985 C989 1.418 . S
C986 H965 0.929 . S
C986 C984 1.446 . S
C986 C987 1.332 . S
C987 H967 0.931 . S
C987 C986 1.332 . S
C987 C988 1.267 . S
C988 H956 0.929 . S
C988 C987 1.267 . S
C988 C989 1.251 . S
C989 H959 0.929 . S
C989 N985 1.418 . S
C989 C988 1.251 . S
C990 H957 0.930 . S
C990 C992 1.406 . S
C990 C995 1.261 . S
C991 H958 0.930 . S
C991 N993 1.325 . S
C991 C994 1.357 . S
C992 H960 0.928 . S
C992 C990 1.406 . S
C992 N993 1.261 . S
N993 Co944 2.214 . S
N993 C991 1.325 . S
N993 C992 1.261 . S
C994 H964 0.931 . S
C994 C991 1.357 . S
C994 C995 1.312 . S
C995 H966 0.930 . S
C995 C990 1.261 . S
C995 C994 1.312 . S
C996 O968 1.214 . S
C996 O976 1.234 . S
C997 H969 0.929 . S
C997 C1000 1.391 . S
C997 C1002 1.391 . S
C998 H970 0.929 . S
C998 C999 1.390 . S
C998 N1001 1.391 . S
C999 H971 0.930 . S
C999 C998 1.390 . S
C999 C1000 1.392 . S
C1000 H972 0.929 . S
C1000 C997 1.391 . S
C1000 C999 1.392 . S
N1001 Co945 2.257 . S
N1001 C998 1.391 . S
N1001 C1002 1.388 . S
C1002 H973 0.930 . S
C1002 C997 1.391 . S
C1002 N1001 1.388 . S
Co1003 O1005 2.143 . S
Co1003 O1011 2.074 . S
Co1003 O1014 2.093 . S
Co1003 O1027 2.097 . S
Co1003 N1044 2.151 . S
Co1003 N1052 2.214 . S
Co1004 O1005 2.160 . S
Co1004 O1010 2.058 . S
Co1004 O1020 2.057 . S
Co1004 O1035 2.037 . S
Co1004 N1039 2.145 . S
Co1004 N1060 2.257 . S
O1005 Co1003 2.143 . S
O1005 Co1004 2.160 . S
C1006 O1007 1.278 . S
C1006 O1014 1.224 . S
O1007 C1006 1.278 . S
C1008 O1009 1.245 . S
C1008 O1020 1.232 . S
O1009 C1008 1.245 . S
O1010 Co1004 2.058 . S
O1010 C1036 1.269 . S
O1011 Co1003 2.074 . S
O1011 C1036 1.257 . S
H1012 C1037 0.930 . S
H1013 C1043 0.930 . S
O1014 Co1003 2.093 . S
O1014 C1006 1.224 . S
H1015 C1047 0.929 . S
H1016 C1049 0.930 . S
H1017 C1050 0.930 . S
H1018 C1048 0.929 . S
H1019 C1051 0.928 . S
O1020 Co1004 2.057 . S
O1020 C1008 1.232 . S
H1021 C1040 0.929 . S
H1022 C1041 0.929 . S
H1023 C1053 0.931 . S
H1024 C1045 0.929 . S
H1025 C1054 0.930 . S
H1026 C1046 0.931 . S
O1027 Co1003 2.097 . S
O1027 C1055 1.214 . S
H1028 C1056 0.929 . S
H1029 C1057 0.929 . S
H1030 C1058 0.930 . S
H1031 C1059 0.929 . S
H1032 C1061 0.930 . S
H1033 C1038 0.930 . S
H1034 C1042 0.930 . S
O1035 Co1004 2.037 . S
O1035 C1055 1.234 . S
C1036 O1010 1.269 . S
C1036 O1011 1.257 . S
C1037 H1012 0.930 . S
C1037 C1040 1.388 . S
C1037 C1042 1.418 . S
C1038 H1033 0.930 . S
C1038 C1041 1.404 . S
C1038 C1042 1.353 . S
N1039 Co1004 2.145 . S
N1039 C1040 1.397 . S
N1039 C1041 1.334 . S
C1040 H1021 0.929 . S
C1040 C1037 1.388 . S
C1040 N1039 1.397 . S
C1041 H1022 0.929 . S
C1041 C1038 1.404 . S
C1041 N1039 1.334 . S
C1042 H1034 0.930 . S
C1042 C1037 1.418 . S
C1042 C1038 1.353 . S
C1043 H1013 0.930 . S
C1043 N1044 1.330 . S
C1043 C1045 1.446 . S
N1044 Co1003 2.151 . S
N1044 C1043 1.330 . S
N1044 C1048 1.418 . S
C1045 H1024 0.929 . S
C1045 C1043 1.446 . S
C1045 C1046 1.332 . S
C1046 H1026 0.931 . S
C1046 C1045 1.332 . S
C1046 C1047 1.267 . S
C1047 H1015 0.929 . S
C1047 C1046 1.267 . S
C1047 C1048 1.251 . S
C1048 H1018 0.929 . S
C1048 N1044 1.418 . S
C1048 C1047 1.251 . S
C1049 H1016 0.930 . S
C1049 C1051 1.406 . S
C1049 C1054 1.261 . S
C1050 H1017 0.930 . S
C1050 N1052 1.325 . S
C1050 C1053 1.357 . S
C1051 H1019 0.928 . S
C1051 C1049 1.406 . S
C1051 N1052 1.261 . S
N1052 Co1003 2.214 . S
N1052 C1050 1.325 . S
N1052 C1051 1.261 . S
C1053 H1023 0.931 . S
C1053 C1050 1.357 . S
C1053 C1054 1.312 . S
C1054 H1025 0.930 . S
C1054 C1049 1.261 . S
C1054 C1053 1.312 . S
C1055 O1027 1.214 . S
C1055 O1035 1.234 . S
C1056 H1028 0.929 . S
C1056 C1059 1.391 . S
C1056 C1061 1.391 . S
C1057 H1029 0.929 . S
C1057 C1058 1.390 . S
C1057 N1060 1.391 . S
C1058 H1030 0.930 . S
C1058 C1057 1.390 . S
C1058 C1059 1.392 . S
C1059 H1031 0.929 . S
C1059 C1056 1.391 . S
C1059 C1058 1.392 . S
N1060 Co1004 2.257 . S
N1060 C1057 1.391 . S
N1060 C1061 1.388 . S
C1061 H1032 0.930 . S
C1061 C1056 1.391 . S
C1061 N1060 1.388 . S
Co1062 O1064 2.143 . S
Co1062 O1070 2.074 . S
Co1062 O1073 2.093 . S
Co1062 O1086 2.097 . S
Co1062 N1103 2.151 . S
Co1062 N1111 2.214 . S
Co1063 O1064 2.160 . S
Co1063 O1069 2.058 . S
Co1063 O1079 2.057 . S
Co1063 O1094 2.037 . S
Co1063 N1098 2.145 . S
Co1063 N1119 2.257 . S
O1064 Co1062 2.143 . S
O1064 Co1063 2.160 . S
C1065 O1066 1.278 . S
C1065 O1073 1.224 . S
O1066 C1065 1.278 . S
C1067 O1068 1.245 . S
C1067 O1079 1.232 . S
O1068 C1067 1.245 . S
O1069 Co1063 2.058 . S
O1069 C1095 1.269 . S
O1070 Co1062 2.074 . S
O1070 C1095 1.257 . S
H1071 C1096 0.930 . S
H1072 C1102 0.930 . S
O1073 Co1062 2.093 . S
O1073 C1065 1.224 . S
H1074 C1106 0.929 . S
H1075 C1108 0.930 . S
H1076 C1109 0.930 . S
H1077 C1107 0.929 . S
H1078 C1110 0.928 . S
O1079 Co1063 2.057 . S
O1079 C1067 1.232 . S
H1080 C1099 0.929 . S
H1081 C1100 0.929 . S
H1082 C1112 0.931 . S
H1083 C1104 0.929 . S
H1084 C1113 0.930 . S
H1085 C1105 0.931 . S
O1086 Co1062 2.097 . S
O1086 C1114 1.214 . S
H1087 C1115 0.929 . S
H1088 C1116 0.929 . S
H1089 C1117 0.930 . S
H1090 C1118 0.929 . S
H1091 C1120 0.930 . S
H1092 C1097 0.930 . S
H1093 C1101 0.930 . S
O1094 Co1063 2.037 . S
O1094 C1114 1.234 . S
C1095 O1069 1.269 . S
C1095 O1070 1.257 . S
C1096 H1071 0.930 . S
C1096 C1099 1.388 . S
C1096 C1101 1.418 . S
C1097 H1092 0.930 . S
C1097 C1100 1.404 . S
C1097 C1101 1.353 . S
N1098 Co1063 2.145 . S
N1098 C1099 1.397 . S
N1098 C1100 1.334 . S
C1099 H1080 0.929 . S
C1099 C1096 1.388 . S
C1099 N1098 1.397 . S
C1100 H1081 0.929 . S
C1100 C1097 1.404 . S
C1100 N1098 1.334 . S
C1101 H1093 0.930 . S
C1101 C1096 1.418 . S
C1101 C1097 1.353 . S
C1102 H1072 0.930 . S
C1102 N1103 1.330 . S
C1102 C1104 1.446 . S
N1103 Co1062 2.151 . S
N1103 C1102 1.330 . S
N1103 C1107 1.418 . S
C1104 H1083 0.929 . S
C1104 C1102 1.446 . S
C1104 C1105 1.332 . S
C1105 H1085 0.931 . S
C1105 C1104 1.332 . S
C1105 C1106 1.267 . S
C1106 H1074 0.929 . S
C1106 C1105 1.267 . S
C1106 C1107 1.251 . S
C1107 H1077 0.929 . S
C1107 N1103 1.418 . S
C1107 C1106 1.251 . S
C1108 H1075 0.930 . S
C1108 C1110 1.406 . S
C1108 C1113 1.261 . S
C1109 H1076 0.930 . S
C1109 N1111 1.325 . S
C1109 C1112 1.357 . S
C1110 H1078 0.928 . S
C1110 C1108 1.406 . S
C1110 N1111 1.261 . S
N1111 Co1062 2.214 . S
N1111 C1109 1.325 . S
N1111 C1110 1.261 . S
C1112 H1082 0.931 . S
C1112 C1109 1.357 . S
C1112 C1113 1.312 . S
C1113 H1084 0.930 . S
C1113 C1108 1.261 . S
C1113 C1112 1.312 . S
C1114 O1086 1.214 . S
C1114 O1094 1.234 . S
C1115 H1087 0.929 . S
C1115 C1118 1.391 . S
C1115 C1120 1.391 . S
C1116 H1088 0.929 . S
C1116 C1117 1.390 . S
C1116 N1119 1.391 . S
C1117 H1089 0.930 . S
C1117 C1116 1.390 . S
C1117 C1118 1.392 . S
C1118 H1090 0.929 . S
C1118 C1115 1.391 . S
C1118 C1117 1.392 . S
N1119 Co1063 2.257 . S
N1119 C1116 1.391 . S
N1119 C1120 1.388 . S
C1120 H1091 0.930 . S
C1120 C1115 1.391 . S
C1120 N1119 1.388 . S
Co1121 O1123 2.143 . S
Co1121 O1129 2.074 . S
Co1121 O1132 2.093 . S
Co1121 O1145 2.097 . S
Co1121 N1162 2.151 . S
Co1121 N1170 2.214 . S
Co1122 O1123 2.160 . S
Co1122 O1128 2.058 . S
Co1122 O1138 2.057 . S
Co1122 O1153 2.037 . S
Co1122 N1157 2.145 . S
Co1122 N1178 2.257 . S
O1123 Co1121 2.143 . S
O1123 Co1122 2.160 . S
C1124 O1125 1.278 . S
C1124 O1132 1.224 . S
O1125 C1124 1.278 . S
C1126 O1127 1.245 . S
C1126 O1138 1.232 . S
O1127 C1126 1.245 . S
O1128 Co1122 2.058 . S
O1128 C1154 1.269 . S
O1129 Co1121 2.074 . S
O1129 C1154 1.257 . S
H1130 C1155 0.930 . S
H1131 C1161 0.930 . S
O1132 Co1121 2.093 . S
O1132 C1124 1.224 . S
H1133 C1165 0.929 . S
H1134 C1167 0.930 . S
H1135 C1168 0.930 . S
H1136 C1166 0.929 . S
H1137 C1169 0.928 . S
O1138 Co1122 2.057 . S
O1138 C1126 1.232 . S
H1139 C1158 0.929 . S
H1140 C1159 0.929 . S
H1141 C1171 0.931 . S
H1142 C1163 0.929 . S
H1143 C1172 0.930 . S
H1144 C1164 0.931 . S
O1145 Co1121 2.097 . S
O1145 C1173 1.214 . S
H1146 C1174 0.929 . S
H1147 C1175 0.929 . S
H1148 C1176 0.930 . S
H1149 C1177 0.929 . S
H1150 C1179 0.930 . S
H1151 C1156 0.930 . S
H1152 C1160 0.930 . S
O1153 Co1122 2.037 . S
O1153 C1173 1.234 . S
C1154 O1128 1.269 . S
C1154 O1129 1.257 . S
C1155 H1130 0.930 . S
C1155 C1158 1.388 . S
C1155 C1160 1.418 . S
C1156 H1151 0.930 . S
C1156 C1159 1.404 . S
C1156 C1160 1.353 . S
N1157 Co1122 2.145 . S
N1157 C1158 1.397 . S
N1157 C1159 1.334 . S
C1158 H1139 0.929 . S
C1158 C1155 1.388 . S
C1158 N1157 1.397 . S
C1159 H1140 0.929 . S
C1159 C1156 1.404 . S
C1159 N1157 1.334 . S
C1160 H1152 0.930 . S
C1160 C1155 1.418 . S
C1160 C1156 1.353 . S
C1161 H1131 0.930 . S
C1161 N1162 1.330 . S
C1161 C1163 1.446 . S
N1162 Co1121 2.151 . S
N1162 C1161 1.330 . S
N1162 C1166 1.418 . S
C1163 H1142 0.929 . S
C1163 C1161 1.446 . S
C1163 C1164 1.332 . S
C1164 H1144 0.931 . S
C1164 C1163 1.332 . S
C1164 C1165 1.267 . S
C1165 H1133 0.929 . S
C1165 C1164 1.267 . S
C1165 C1166 1.251 . S
C1166 H1136 0.929 . S
C1166 N1162 1.418 . S
C1166 C1165 1.251 . S
C1167 H1134 0.930 . S
C1167 C1169 1.406 . S
C1167 C1172 1.261 . S
C1168 H1135 0.930 . S
C1168 N1170 1.325 . S
C1168 C1171 1.357 . S
C1169 H1137 0.928 . S
C1169 C1167 1.406 . S
C1169 N1170 1.261 . S
N1170 Co1121 2.214 . S
N1170 C1168 1.325 . S
N1170 C1169 1.261 . S
C1171 H1141 0.931 . S
C1171 C1168 1.357 . S
C1171 C1172 1.312 . S
C1172 H1143 0.930 . S
C1172 C1167 1.261 . S
C1172 C1171 1.312 . S
C1173 O1145 1.214 . S
C1173 O1153 1.234 . S
C1174 H1146 0.929 . S
C1174 C1177 1.391 . S
C1174 C1179 1.391 . S
C1175 H1147 0.929 . S
C1175 C1176 1.390 . S
C1175 N1178 1.391 . S
C1176 H1148 0.930 . S
C1176 C1175 1.390 . S
C1176 C1177 1.392 . S
C1177 H1149 0.929 . S
C1177 C1174 1.391 . S
C1177 C1176 1.392 . S
N1178 Co1122 2.257 . S
N1178 C1175 1.391 . S
N1178 C1179 1.388 . S
C1179 H1150 0.930 . S
C1179 C1174 1.391 . S
C1179 N1178 1.388 . S
Co1180 O1182 2.143 . S
Co1180 O1188 2.074 . S
Co1180 O1191 2.093 . S
Co1180 O1204 2.097 . S
Co1180 N1221 2.151 . S
Co1180 N1229 2.214 . S
Co1181 O1182 2.160 . S
Co1181 O1187 2.058 . S
Co1181 O1197 2.057 . S
Co1181 O1212 2.037 . S
Co1181 N1216 2.145 . S
Co1181 N1237 2.257 . S
O1182 Co1180 2.143 . S
O1182 Co1181 2.160 . S
C1183 O1184 1.278 . S
C1183 O1191 1.224 . S
O1184 C1183 1.278 . S
C1185 O1186 1.245 . S
C1185 O1197 1.232 . S
O1186 C1185 1.245 . S
O1187 Co1181 2.058 . S
O1187 C1213 1.269 . S
O1188 Co1180 2.074 . S
O1188 C1213 1.257 . S
H1189 C1214 0.930 . S
H1190 C1220 0.930 . S
O1191 Co1180 2.093 . S
O1191 C1183 1.224 . S
H1192 C1224 0.929 . S
H1193 C1226 0.930 . S
H1194 C1227 0.930 . S
H1195 C1225 0.929 . S
H1196 C1228 0.928 . S
O1197 Co1181 2.057 . S
O1197 C1185 1.232 . S
H1198 C1217 0.929 . S
H1199 C1218 0.929 . S
H1200 C1230 0.931 . S
H1201 C1222 0.929 . S
H1202 C1231 0.930 . S
H1203 C1223 0.931 . S
O1204 Co1180 2.097 . S
O1204 C1232 1.214 . S
H1205 C1233 0.929 . S
H1206 C1234 0.929 . S
H1207 C1235 0.930 . S
H1208 C1236 0.929 . S
H1209 C1238 0.930 . S
H1210 C1215 0.930 . S
H1211 C1219 0.930 . S
O1212 Co1181 2.037 . S
O1212 C1232 1.234 . S
C1213 O1187 1.269 . S
C1213 O1188 1.257 . S
C1214 H1189 0.930 . S
C1214 C1217 1.388 . S
C1214 C1219 1.418 . S
C1215 H1210 0.930 . S
C1215 C1218 1.404 . S
C1215 C1219 1.353 . S
N1216 Co1181 2.145 . S
N1216 C1217 1.397 . S
N1216 C1218 1.334 . S
C1217 H1198 0.929 . S
C1217 C1214 1.388 . S
C1217 N1216 1.397 . S
C1218 H1199 0.929 . S
C1218 C1215 1.404 . S
C1218 N1216 1.334 . S
C1219 H1211 0.930 . S
C1219 C1214 1.418 . S
C1219 C1215 1.353 . S
C1220 H1190 0.930 . S
C1220 N1221 1.330 . S
C1220 C1222 1.446 . S
N1221 Co1180 2.151 . S
N1221 C1220 1.330 . S
N1221 C1225 1.418 . S
C1222 H1201 0.929 . S
C1222 C1220 1.446 . S
C1222 C1223 1.332 . S
C1223 H1203 0.931 . S
C1223 C1222 1.332 . S
C1223 C1224 1.267 . S
C1224 H1192 0.929 . S
C1224 C1223 1.267 . S
C1224 C1225 1.251 . S
C1225 H1195 0.929 . S
C1225 N1221 1.418 . S
C1225 C1224 1.251 . S
C1226 H1193 0.930 . S
C1226 C1228 1.406 . S
C1226 C1231 1.261 . S
C1227 H1194 0.930 . S
C1227 N1229 1.325 . S
C1227 C1230 1.357 . S
C1228 H1196 0.928 . S
C1228 C1226 1.406 . S
C1228 N1229 1.261 . S
N1229 Co1180 2.214 . S
N1229 C1227 1.325 . S
N1229 C1228 1.261 . S
C1230 H1200 0.931 . S
C1230 C1227 1.357 . S
C1230 C1231 1.312 . S
C1231 H1202 0.930 . S
C1231 C1226 1.261 . S
C1231 C1230 1.312 . S
C1232 O1204 1.214 . S
C1232 O1212 1.234 . S
C1233 H1205 0.929 . S
C1233 C1236 1.391 . S
C1233 C1238 1.391 . S
C1234 H1206 0.929 . S
C1234 C1235 1.390 . S
C1234 N1237 1.391 . S
C1235 H1207 0.930 . S
C1235 C1234 1.390 . S
C1235 C1236 1.392 . S
C1236 H1208 0.929 . S
C1236 C1233 1.391 . S
C1236 C1235 1.392 . S
N1237 Co1181 2.257 . S
N1237 C1234 1.391 . S
N1237 C1238 1.388 . S
C1238 H1209 0.930 . S
C1238 C1233 1.391 . S
C1238 N1237 1.388 . S
Co1239 O1241 2.143 . S
Co1239 O1247 2.074 . S
Co1239 O1250 2.093 . S
Co1239 O1263 2.097 . S
Co1239 N1280 2.151 . S
Co1239 N1288 2.214 . S
Co1240 O1241 2.160 . S
Co1240 O1246 2.058 . S
Co1240 O1256 2.057 . S
Co1240 O1271 2.037 . S
Co1240 N1275 2.145 . S
Co1240 N1296 2.257 . S
O1241 Co1239 2.143 . S
O1241 Co1240 2.160 . S
C1242 O1243 1.278 . S
C1242 O1250 1.224 . S
O1243 C1242 1.278 . S
C1244 O1245 1.245 . S
C1244 O1256 1.232 . S
O1245 C1244 1.245 . S
O1246 Co1240 2.058 . S
O1246 C1272 1.269 . S
O1247 Co1239 2.074 . S
O1247 C1272 1.257 . S
H1248 C1273 0.930 . S
H1249 C1279 0.930 . S
O1250 Co1239 2.093 . S
O1250 C1242 1.224 . S
H1251 C1283 0.929 . S
H1252 C1285 0.930 . S
H1253 C1286 0.930 . S
H1254 C1284 0.929 . S
H1255 C1287 0.928 . S
O1256 Co1240 2.057 . S
O1256 C1244 1.232 . S
H1257 C1276 0.929 . S
H1258 C1277 0.929 . S
H1259 C1289 0.931 . S
H1260 C1281 0.929 . S
H1261 C1290 0.930 . S
H1262 C1282 0.931 . S
O1263 Co1239 2.097 . S
O1263 C1291 1.214 . S
H1264 C1292 0.929 . S
H1265 C1293 0.929 . S
H1266 C1294 0.930 . S
H1267 C1295 0.929 . S
H1268 C1297 0.930 . S
H1269 C1274 0.930 . S
H1270 C1278 0.930 . S
O1271 Co1240 2.037 . S
O1271 C1291 1.234 . S
C1272 O1246 1.269 . S
C1272 O1247 1.257 . S
C1273 H1248 0.930 . S
C1273 C1276 1.388 . S
C1273 C1278 1.418 . S
C1274 H1269 0.930 . S
C1274 C1277 1.404 . S
C1274 C1278 1.353 . S
N1275 Co1240 2.145 . S
N1275 C1276 1.397 . S
N1275 C1277 1.334 . S
C1276 H1257 0.929 . S
C1276 C1273 1.388 . S
C1276 N1275 1.397 . S
C1277 H1258 0.929 . S
C1277 C1274 1.404 . S
C1277 N1275 1.334 . S
C1278 H1270 0.930 . S
C1278 C1273 1.418 . S
C1278 C1274 1.353 . S
C1279 H1249 0.930 . S
C1279 N1280 1.330 . S
C1279 C1281 1.446 . S
N1280 Co1239 2.151 . S
N1280 C1279 1.330 . S
N1280 C1284 1.418 . S
C1281 H1260 0.929 . S
C1281 C1279 1.446 . S
C1281 C1282 1.332 . S
C1282 H1262 0.931 . S
C1282 C1281 1.332 . S
C1282 C1283 1.267 . S
C1283 H1251 0.929 . S
C1283 C1282 1.267 . S
C1283 C1284 1.251 . S
C1284 H1254 0.929 . S
C1284 N1280 1.418 . S
C1284 C1283 1.251 . S
C1285 H1252 0.930 . S
C1285 C1287 1.406 . S
C1285 C1290 1.261 . S
C1286 H1253 0.930 . S
C1286 N1288 1.325 . S
C1286 C1289 1.357 . S
C1287 H1255 0.928 . S
C1287 C1285 1.406 . S
C1287 N1288 1.261 . S
N1288 Co1239 2.214 . S
N1288 C1286 1.325 . S
N1288 C1287 1.261 . S
C1289 H1259 0.931 . S
C1289 C1286 1.357 . S
C1289 C1290 1.312 . S
C1290 H1261 0.930 . S
C1290 C1285 1.261 . S
C1290 C1289 1.312 . S
C1291 O1263 1.214 . S
C1291 O1271 1.234 . S
C1292 H1264 0.929 . S
C1292 C1295 1.391 . S
C1292 C1297 1.391 . S
C1293 H1265 0.929 . S
C1293 C1294 1.390 . S
C1293 N1296 1.391 . S
C1294 H1266 0.930 . S
C1294 C1293 1.390 . S
C1294 C1295 1.392 . S
C1295 H1267 0.929 . S
C1295 C1292 1.391 . S
C1295 C1294 1.392 . S
N1296 Co1240 2.257 . S
N1296 C1293 1.391 . S
N1296 C1297 1.388 . S
C1297 H1268 0.930 . S
C1297 C1292 1.391 . S
C1297 N1296 1.388 . S
Co1298 O1300 2.143 . S
Co1298 O1306 2.074 . S
Co1298 O1309 2.093 . S
Co1298 O1322 2.097 . S
Co1298 N1339 2.151 . S
Co1298 N1347 2.214 . S
Co1299 O1300 2.160 . S
Co1299 O1305 2.058 . S
Co1299 O1315 2.057 . S
Co1299 O1330 2.037 . S
Co1299 N1334 2.145 . S
Co1299 N1355 2.257 . S
O1300 Co1298 2.143 . S
O1300 Co1299 2.160 . S
C1301 O1302 1.278 . S
C1301 O1309 1.224 . S
O1302 C1301 1.278 . S
C1303 O1304 1.245 . S
C1303 O1315 1.232 . S
O1304 C1303 1.245 . S
O1305 Co1299 2.058 . S
O1305 C1331 1.269 . S
O1306 Co1298 2.074 . S
O1306 C1331 1.257 . S
H1307 C1332 0.930 . S
H1308 C1338 0.930 . S
O1309 Co1298 2.093 . S
O1309 C1301 1.224 . S
H1310 C1342 0.929 . S
H1311 C1344 0.930 . S
H1312 C1345 0.930 . S
H1313 C1343 0.929 . S
H1314 C1346 0.928 . S
O1315 Co1299 2.057 . S
O1315 C1303 1.232 . S
H1316 C1335 0.929 . S
H1317 C1336 0.929 . S
H1318 C1348 0.931 . S
H1319 C1340 0.929 . S
H1320 C1349 0.930 . S
H1321 C1341 0.931 . S
O1322 Co1298 2.097 . S
O1322 C1350 1.214 . S
H1323 C1351 0.929 . S
H1324 C1352 0.929 . S
H1325 C1353 0.930 . S
H1326 C1354 0.929 . S
H1327 C1356 0.930 . S
H1328 C1333 0.930 . S
H1329 C1337 0.930 . S
O1330 Co1299 2.037 . S
O1330 C1350 1.234 . S
C1331 O1305 1.269 . S
C1331 O1306 1.257 . S
C1332 H1307 0.930 . S
C1332 C1335 1.388 . S
C1332 C1337 1.418 . S
C1333 H1328 0.930 . S
C1333 C1336 1.404 . S
C1333 C1337 1.353 . S
N1334 Co1299 2.145 . S
N1334 C1335 1.397 . S
N1334 C1336 1.334 . S
C1335 H1316 0.929 . S
C1335 C1332 1.388 . S
C1335 N1334 1.397 . S
C1336 H1317 0.929 . S
C1336 C1333 1.404 . S
C1336 N1334 1.334 . S
C1337 H1329 0.930 . S
C1337 C1332 1.418 . S
C1337 C1333 1.353 . S
C1338 H1308 0.930 . S
C1338 N1339 1.330 . S
C1338 C1340 1.446 . S
N1339 Co1298 2.151 . S
N1339 C1338 1.330 . S
N1339 C1343 1.418 . S
C1340 H1319 0.929 . S
C1340 C1338 1.446 . S
C1340 C1341 1.332 . S
C1341 H1321 0.931 . S
C1341 C1340 1.332 . S
C1341 C1342 1.267 . S
C1342 H1310 0.929 . S
C1342 C1341 1.267 . S
C1342 C1343 1.251 . S
C1343 H1313 0.929 . S
C1343 N1339 1.418 . S
C1343 C1342 1.251 . S
C1344 H1311 0.930 . S
C1344 C1346 1.406 . S
C1344 C1349 1.261 . S
C1345 H1312 0.930 . S
C1345 N1347 1.325 . S
C1345 C1348 1.357 . S
C1346 H1314 0.928 . S
C1346 C1344 1.406 . S
C1346 N1347 1.261 . S
N1347 Co1298 2.214 . S
N1347 C1345 1.325 . S
N1347 C1346 1.261 . S
C1348 H1318 0.931 . S
C1348 C1345 1.357 . S
C1348 C1349 1.312 . S
C1349 H1320 0.930 . S
C1349 C1344 1.261 . S
C1349 C1348 1.312 . S
C1350 O1322 1.214 . S
C1350 O1330 1.234 . S
C1351 H1323 0.929 . S
C1351 C1354 1.391 . S
C1351 C1356 1.391 . S
C1352 H1324 0.929 . S
C1352 C1353 1.390 . S
C1352 N1355 1.391 . S
C1353 H1325 0.930 . S
C1353 C1352 1.390 . S
C1353 C1354 1.392 . S
C1354 H1326 0.929 . S
C1354 C1351 1.391 . S
C1354 C1353 1.392 . S
N1355 Co1299 2.257 . S
N1355 C1352 1.391 . S
N1355 C1356 1.388 . S
C1356 H1327 0.930 . S
C1356 C1351 1.391 . S
C1356 N1355 1.388 . S
Co1357 O1359 2.143 . S
Co1357 O1365 2.074 . S
Co1357 O1368 2.093 . S
Co1357 O1381 2.097 . S
Co1357 N1398 2.151 . S
Co1357 N1406 2.214 . S
Co1358 O1359 2.160 . S
Co1358 O1364 2.058 . S
Co1358 O1374 2.057 . S
Co1358 O1389 2.037 . S
Co1358 N1393 2.145 . S
Co1358 N1414 2.257 . S
O1359 Co1357 2.143 . S
O1359 Co1358 2.160 . S
C1360 O1361 1.278 . S
C1360 O1368 1.224 . S
O1361 C1360 1.278 . S
C1362 O1363 1.245 . S
C1362 O1374 1.232 . S
O1363 C1362 1.245 . S
O1364 Co1358 2.058 . S
O1364 C1390 1.269 . S
O1365 Co1357 2.074 . S
O1365 C1390 1.257 . S
H1366 C1391 0.930 . S
H1367 C1397 0.930 . S
O1368 Co1357 2.093 . S
O1368 C1360 1.224 . S
H1369 C1401 0.929 . S
H1370 C1403 0.930 . S
H1371 C1404 0.930 . S
H1372 C1402 0.929 . S
H1373 C1405 0.928 . S
O1374 Co1358 2.057 . S
O1374 C1362 1.232 . S
H1375 C1394 0.929 . S
H1376 C1395 0.929 . S
H1377 C1407 0.931 . S
H1378 C1399 0.929 . S
H1379 C1408 0.930 . S
H1380 C1400 0.931 . S
O1381 Co1357 2.097 . S
O1381 C1409 1.214 . S
H1382 C1410 0.929 . S
H1383 C1411 0.929 . S
H1384 C1412 0.930 . S
H1385 C1413 0.929 . S
H1386 C1415 0.930 . S
H1387 C1392 0.930 . S
H1388 C1396 0.930 . S
O1389 Co1358 2.037 . S
O1389 C1409 1.234 . S
C1390 O1364 1.269 . S
C1390 O1365 1.257 . S
C1391 H1366 0.930 . S
C1391 C1394 1.388 . S
C1391 C1396 1.418 . S
C1392 H1387 0.930 . S
C1392 C1395 1.404 . S
C1392 C1396 1.353 . S
N1393 Co1358 2.145 . S
N1393 C1394 1.397 . S
N1393 C1395 1.334 . S
C1394 H1375 0.929 . S
C1394 C1391 1.388 . S
C1394 N1393 1.397 . S
C1395 H1376 0.929 . S
C1395 C1392 1.404 . S
C1395 N1393 1.334 . S
C1396 H1388 0.930 . S
C1396 C1391 1.418 . S
C1396 C1392 1.353 . S
C1397 H1367 0.930 . S
C1397 N1398 1.330 . S
C1397 C1399 1.446 . S
N1398 Co1357 2.151 . S
N1398 C1397 1.330 . S
N1398 C1402 1.418 . S
C1399 H1378 0.929 . S
C1399 C1397 1.446 . S
C1399 C1400 1.332 . S
C1400 H1380 0.931 . S
C1400 C1399 1.332 . S
C1400 C1401 1.267 . S
C1401 H1369 0.929 . S
C1401 C1400 1.267 . S
C1401 C1402 1.251 . S
C1402 H1372 0.929 . S
C1402 N1398 1.418 . S
C1402 C1401 1.251 . S
C1403 H1370 0.930 . S
C1403 C1405 1.406 . S
C1403 C1408 1.261 . S
C1404 H1371 0.930 . S
C1404 N1406 1.325 . S
C1404 C1407 1.357 . S
C1405 H1373 0.928 . S
C1405 C1403 1.406 . S
C1405 N1406 1.261 . S
N1406 Co1357 2.214 . S
N1406 C1404 1.325 . S
N1406 C1405 1.261 . S
C1407 H1377 0.931 . S
C1407 C1404 1.357 . S
C1407 C1408 1.312 . S
C1408 H1379 0.930 . S
C1408 C1403 1.261 . S
C1408 C1407 1.312 . S
C1409 O1381 1.214 . S
C1409 O1389 1.234 . S
C1410 H1382 0.929 . S
C1410 C1413 1.391 . S
C1410 C1415 1.391 . S
C1411 H1383 0.929 . S
C1411 C1412 1.390 . S
C1411 N1414 1.391 . S
C1412 H1384 0.930 . S
C1412 C1411 1.390 . S
C1412 C1413 1.392 . S
C1413 H1385 0.929 . S
C1413 C1410 1.391 . S
C1413 C1412 1.392 . S
N1414 Co1358 2.257 . S
N1414 C1411 1.391 . S
N1414 C1415 1.388 . S
C1415 H1386 0.930 . S
C1415 C1410 1.391 . S
C1415 N1414 1.388 . S
H1416 C1424 0.950 . S
H1417 C1429 0.950 . S
H1418 C1426 0.950 . S
H1419 C1428 0.950 . S
H1420 C1430 0.950 . S
H1421 C1432 0.950 . S
H1422 C1434 0.950 . S
H1423 C1435 0.950 . S
C1424 H1416 0.950 . S
C1424 C1425 1.386 . S
C1424 C1426 1.391 . S
C1425 C1424 1.386 . S
C1425 C1429 1.393 . S
C1426 H1418 0.950 . S
C1426 C1424 1.391 . S
C1426 C1427 1.400 . S
C1427 C1426 1.400 . S
C1427 C1428 1.398 . S
C1427 C1433 1.491 . S
C1428 H1419 0.950 . S
C1428 C1427 1.398 . S
C1428 C1429 1.391 . S
C1429 H1417 0.950 . S
C1429 C1425 1.393 . S
C1429 C1428 1.391 . S
C1430 H1420 0.950 . S
C1430 C1431 1.386 . S
C1430 C1432 1.391 . S
C1431 C1430 1.386 . S
C1431 C1435 1.393 . S
C1432 H1421 0.950 . S
C1432 C1430 1.391 . S
C1432 C1433 1.400 . S
C1433 C1427 1.491 . S
C1433 C1432 1.400 . S
C1433 C1434 1.398 . S
C1434 H1422 0.950 . S
C1434 C1433 1.398 . S
C1434 C1435 1.391 . S
C1435 H1423 0.950 . S
C1435 C1431 1.393 . S
C1435 C1434 1.391 . S
H1436 C1444 0.950 . S
H1437 C1449 0.950 . S
H1438 C1446 0.950 . S
H1439 C1448 0.950 . S
H1440 C1450 0.950 . S
H1441 C1452 0.950 . S
H1442 C1454 0.950 . S
H1443 C1455 0.950 . S
C1444 H1436 0.950 . S
C1444 C1445 1.386 . S
C1444 C1446 1.391 . S
C1445 C1444 1.386 . S
C1445 C1449 1.393 . S
C1446 H1438 0.950 . S
C1446 C1444 1.391 . S
C1446 C1447 1.400 . S
C1447 C1446 1.400 . S
C1447 C1448 1.398 . S
C1447 C1453 1.491 . S
C1448 H1439 0.950 . S
C1448 C1447 1.398 . S
C1448 C1449 1.391 . S
C1449 H1437 0.950 . S
C1449 C1445 1.393 . S
C1449 C1448 1.391 . S
C1450 H1440 0.950 . S
C1450 C1451 1.386 . S
C1450 C1452 1.391 . S
C1451 C1450 1.386 . S
C1451 C1455 1.393 . S
C1452 H1441 0.950 . S
C1452 C1450 1.391 . S
C1452 C1453 1.400 . S
C1453 C1447 1.491 . S
C1453 C1452 1.400 . S
C1453 C1454 1.398 . S
C1454 H1442 0.950 . S
C1454 C1453 1.398 . S
C1454 C1455 1.391 . S
C1455 H1443 0.950 . S
C1455 C1451 1.393 . S
C1455 C1454 1.391 . S
H1456 C1464 0.950 . S
H1457 C1469 0.950 . S
H1458 C1466 0.950 . S
H1459 C1468 0.950 . S
H1460 C1470 0.950 . S
H1461 C1472 0.950 . S
H1462 C1474 0.950 . S
H1463 C1475 0.950 . S
C1464 H1456 0.950 . S
C1464 C1465 1.386 . S
C1464 C1466 1.391 . S
C1465 C1464 1.386 . S
C1465 C1469 1.393 . S
C1466 H1458 0.950 . S
C1466 C1464 1.391 . S
C1466 C1467 1.400 . S
C1467 C1466 1.400 . S
C1467 C1468 1.398 . S
C1467 C1473 1.491 . S
C1468 H1459 0.950 . S
C1468 C1467 1.398 . S
C1468 C1469 1.391 . S
C1469 H1457 0.950 . S
C1469 C1465 1.393 . S
C1469 C1468 1.391 . S
C1470 H1460 0.950 . S
C1470 C1471 1.386 . S
C1470 C1472 1.391 . S
C1471 C1470 1.386 . S
C1471 C1475 1.393 . S
C1472 H1461 0.950 . S
C1472 C1470 1.391 . S
C1472 C1473 1.400 . S
C1473 C1467 1.491 . S
C1473 C1472 1.400 . S
C1473 C1474 1.398 . S
C1474 H1462 0.950 . S
C1474 C1473 1.398 . S
C1474 C1475 1.391 . S
C1475 H1463 0.950 . S
C1475 C1471 1.393 . S
C1475 C1474 1.391 . S
H1476 C1484 0.950 . S
H1477 C1489 0.950 . S
H1478 C1486 0.950 . S
H1479 C1488 0.950 . S
H1480 C1490 0.950 . S
H1481 C1492 0.950 . S
H1482 C1494 0.950 . S
H1483 C1495 0.950 . S
C1484 H1476 0.950 . S
C1484 C1485 1.386 . S
C1484 C1486 1.391 . S
C1485 C1484 1.386 . S
C1485 C1489 1.393 . S
C1486 H1478 0.950 . S
C1486 C1484 1.391 . S
C1486 C1487 1.400 . S
C1487 C1486 1.400 . S
C1487 C1488 1.398 . S
C1487 C1493 1.491 . S
C1488 H1479 0.950 . S
C1488 C1487 1.398 . S
C1488 C1489 1.391 . S
C1489 H1477 0.950 . S
C1489 C1485 1.393 . S
C1489 C1488 1.391 . S
C1490 H1480 0.950 . S
C1490 C1491 1.386 . S
C1490 C1492 1.391 . S
C1491 C1490 1.386 . S
C1491 C1495 1.393 . S
C1492 H1481 0.950 . S
C1492 C1490 1.391 . S
C1492 C1493 1.400 . S
C1493 C1487 1.491 . S
C1493 C1492 1.400 . S
C1493 C1494 1.398 . S
C1494 H1482 0.950 . S
C1494 C1493 1.398 . S
C1494 C1495 1.391 . S
C1495 H1483 0.950 . S
C1495 C1491 1.393 . S
C1495 C1494 1.391 . S
H1496 C1504 0.950 . S
H1497 C1509 0.950 . S
H1498 C1506 0.950 . S
H1499 C1508 0.950 . S
H1500 C1510 0.950 . S
H1501 C1512 0.950 . S
H1502 C1514 0.950 . S
H1503 C1515 0.950 . S
C1504 H1496 0.950 . S
C1504 C1505 1.386 . S
C1504 C1506 1.391 . S
C1505 C1504 1.386 . S
C1505 C1509 1.393 . S
C1506 H1498 0.950 . S
C1506 C1504 1.391 . S
C1506 C1507 1.400 . S
C1507 C1506 1.400 . S
C1507 C1508 1.398 . S
C1507 C1513 1.491 . S
C1508 H1499 0.950 . S
C1508 C1507 1.398 . S
C1508 C1509 1.391 . S
C1509 H1497 0.950 . S
C1509 C1505 1.393 . S
C1509 C1508 1.391 . S
C1510 H1500 0.950 . S
C1510 C1511 1.386 . S
C1510 C1512 1.391 . S
C1511 C1510 1.386 . S
C1511 C1515 1.393 . S
C1512 H1501 0.950 . S
C1512 C1510 1.391 . S
C1512 C1513 1.400 . S
C1513 C1507 1.491 . S
C1513 C1512 1.400 . S
C1513 C1514 1.398 . S
C1514 H1502 0.950 . S
C1514 C1513 1.398 . S
C1514 C1515 1.391 . S
C1515 H1503 0.950 . S
C1515 C1511 1.393 . S
C1515 C1514 1.391 . S
H1516 C1524 0.950 . S
H1517 C1529 0.950 . S
H1518 C1526 0.950 . S
H1519 C1528 0.950 . S
H1520 C1530 0.950 . S
H1521 C1532 0.950 . S
H1522 C1534 0.950 . S
H1523 C1535 0.950 . S
C1524 H1516 0.950 . S
C1524 C1525 1.386 . S
C1524 C1526 1.391 . S
C1525 C1524 1.386 . S
C1525 C1529 1.393 . S
C1526 H1518 0.950 . S
C1526 C1524 1.391 . S
C1526 C1527 1.400 . S
C1527 C1526 1.400 . S
C1527 C1528 1.398 . S
C1527 C1533 1.491 . S
C1528 H1519 0.950 . S
C1528 C1527 1.398 . S
C1528 C1529 1.391 . S
C1529 H1517 0.950 . S
C1529 C1525 1.393 . S
C1529 C1528 1.391 . S
C1530 H1520 0.950 . S
C1530 C1531 1.386 . S
C1530 C1532 1.391 . S
C1531 C1530 1.386 . S
C1531 C1535 1.393 . S
C1532 H1521 0.950 . S
C1532 C1530 1.391 . S
C1532 C1533 1.400 . S
C1533 C1527 1.491 . S
C1533 C1532 1.400 . S
C1533 C1534 1.398 . S
C1534 H1522 0.950 . S
C1534 C1533 1.398 . S
C1534 C1535 1.391 . S
C1535 H1523 0.950 . S
C1535 C1531 1.393 . S
C1535 C1534 1.391 . S
H1536 C1544 0.950 . S
H1537 C1549 0.950 . S
H1538 C1546 0.950 . S
H1539 C1548 0.950 . S
H1540 C1550 0.950 . S
H1541 C1552 0.950 . S
H1542 C1554 0.950 . S
H1543 C1555 0.950 . S
C1544 H1536 0.950 . S
C1544 C1545 1.386 . S
C1544 C1546 1.391 . S
C1545 C1544 1.386 . S
C1545 C1549 1.393 . S
C1546 H1538 0.950 . S
C1546 C1544 1.391 . S
C1546 C1547 1.400 . S
C1547 C1546 1.400 . S
C1547 C1548 1.398 . S
C1547 C1553 1.491 . S
C1548 H1539 0.950 . S
C1548 C1547 1.398 . S
C1548 C1549 1.391 . S
C1549 H1537 0.950 . S
C1549 C1545 1.393 . S
C1549 C1548 1.391 . S
C1550 H1540 0.950 . S
C1550 C1551 1.386 . S
C1550 C1552 1.391 . S
C1551 C1550 1.386 . S
C1551 C1555 1.393 . S
C1552 H1541 0.950 . S
C1552 C1550 1.391 . S
C1552 C1553 1.400 . S
C1553 C1547 1.491 . S
C1553 C1552 1.400 . S
C1553 C1554 1.398 . S
C1554 H1542 0.950 . S
C1554 C1553 1.398 . S
C1554 C1555 1.391 . S
C1555 H1543 0.950 . S
C1555 C1551 1.393 . S
C1555 C1554 1.391 . S
H1556 C1564 0.950 . S
H1557 C1569 0.950 . S
H1558 C1566 0.950 . S
H1559 C1568 0.950 . S
H1560 C1570 0.950 . S
H1561 C1572 0.950 . S
H1562 C1574 0.950 . S
H1563 C1575 0.950 . S
C1564 H1556 0.950 . S
C1564 C1565 1.386 . S
C1564 C1566 1.391 . S
C1565 C1564 1.386 . S
C1565 C1569 1.393 . S
C1566 H1558 0.950 . S
C1566 C1564 1.391 . S
C1566 C1567 1.400 . S
C1567 C1566 1.400 . S
C1567 C1568 1.398 . S
C1567 C1573 1.491 . S
C1568 H1559 0.950 . S
C1568 C1567 1.398 . S
C1568 C1569 1.391 . S
C1569 H1557 0.950 . S
C1569 C1565 1.393 . S
C1569 C1568 1.391 . S
C1570 H1560 0.950 . S
C1570 C1571 1.386 . S
C1570 C1572 1.391 . S
C1571 C1570 1.386 . S
C1571 C1575 1.393 . S
C1572 H1561 0.950 . S
C1572 C1570 1.391 . S
C1572 C1573 1.400 . S
C1573 C1567 1.491 . S
C1573 C1572 1.400 . S
C1573 C1574 1.398 . S
C1574 H1562 0.950 . S
C1574 C1573 1.398 . S
C1574 C1575 1.391 . S
C1575 H1563 0.950 . S
C1575 C1571 1.393 . S
C1575 C1574 1.391 . S
H1576 C1584 0.950 . S
H1577 C1589 0.950 . S
H1578 C1586 0.950 . S
H1579 C1588 0.950 . S
H1580 C1590 0.950 . S
H1581 C1592 0.950 . S
H1582 C1594 0.950 . S
H1583 C1595 0.950 . S
C1584 H1576 0.950 . S
C1584 C1585 1.386 . S
C1584 C1586 1.391 . S
C1585 C1584 1.386 . S
C1585 C1589 1.393 . S
C1586 H1578 0.950 . S
C1586 C1584 1.391 . S
C1586 C1587 1.400 . S
C1587 C1586 1.400 . S
C1587 C1588 1.398 . S
C1587 C1593 1.491 . S
C1588 H1579 0.950 . S
C1588 C1587 1.398 . S
C1588 C1589 1.391 . S
C1589 H1577 0.950 . S
C1589 C1585 1.393 . S
C1589 C1588 1.391 . S
C1590 H1580 0.950 . S
C1590 C1591 1.386 . S
C1590 C1592 1.391 . S
C1591 C1590 1.386 . S
C1591 C1595 1.393 . S
C1592 H1581 0.950 . S
C1592 C1590 1.391 . S
C1592 C1593 1.400 . S
C1593 C1587 1.491 . S
C1593 C1592 1.400 . S
C1593 C1594 1.398 . S
C1594 H1582 0.950 . S
C1594 C1593 1.398 . S
C1594 C1595 1.391 . S
C1595 H1583 0.950 . S
C1595 C1591 1.393 . S
C1595 C1594 1.391 . S
H1596 C1604 0.950 . S
H1597 C1609 0.950 . S
H1598 C1606 0.950 . S
H1599 C1608 0.950 . S
H1600 C1610 0.950 . S
H1601 C1612 0.950 . S
H1602 C1614 0.950 . S
H1603 C1615 0.950 . S
C1604 H1596 0.950 . S
C1604 C1605 1.386 . S
C1604 C1606 1.391 . S
C1605 C1604 1.386 . S
C1605 C1609 1.393 . S
C1606 H1598 0.950 . S
C1606 C1604 1.391 . S
C1606 C1607 1.400 . S
C1607 C1606 1.400 . S
C1607 C1608 1.398 . S
C1607 C1613 1.491 . S
C1608 H1599 0.950 . S
C1608 C1607 1.398 . S
C1608 C1609 1.391 . S
C1609 H1597 0.950 . S
C1609 C1605 1.393 . S
C1609 C1608 1.391 . S
C1610 H1600 0.950 . S
C1610 C1611 1.386 . S
C1610 C1612 1.391 . S
C1611 C1610 1.386 . S
C1611 C1615 1.393 . S
C1612 H1601 0.950 . S
C1612 C1610 1.391 . S
C1612 C1613 1.400 . S
C1613 C1607 1.491 . S
C1613 C1612 1.400 . S
C1613 C1614 1.398 . S
C1614 H1602 0.950 . S
C1614 C1613 1.398 . S
C1614 C1615 1.391 . S
C1615 H1603 0.950 . S
C1615 C1611 1.393 . S
C1615 C1614 1.391 . S
H1616 C1624 0.950 . S
H1617 C1629 0.950 . S
H1618 C1626 0.950 . S
H1619 C1628 0.950 . S
H1620 C1630 0.950 . S
H1621 C1632 0.950 . S
H1622 C1634 0.950 . S
H1623 C1635 0.950 . S
C1624 H1616 0.950 . S
C1624 C1625 1.386 . S
C1624 C1626 1.391 . S
C1625 C1624 1.386 . S
C1625 C1629 1.393 . S
C1626 H1618 0.950 . S
C1626 C1624 1.391 . S
C1626 C1627 1.400 . S
C1627 C1626 1.400 . S
C1627 C1628 1.398 . S
C1627 C1633 1.491 . S
C1628 H1619 0.950 . S
C1628 C1627 1.398 . S
C1628 C1629 1.391 . S
C1629 H1617 0.950 . S
C1629 C1625 1.393 . S
C1629 C1628 1.391 . S
C1630 H1620 0.950 . S
C1630 C1631 1.386 . S
C1630 C1632 1.391 . S
C1631 C1630 1.386 . S
C1631 C1635 1.393 . S
C1632 H1621 0.950 . S
C1632 C1630 1.391 . S
C1632 C1633 1.400 . S
C1633 C1627 1.491 . S
C1633 C1632 1.400 . S
C1633 C1634 1.398 . S
C1634 H1622 0.950 . S
C1634 C1633 1.398 . S
C1634 C1635 1.391 . S
C1635 H1623 0.950 . S
C1635 C1631 1.393 . S
C1635 C1634 1.391 . S
H1636 C1644 0.950 . S
H1637 C1649 0.950 . S
H1638 C1646 0.950 . S
H1639 C1648 0.950 . S
H1640 C1650 0.950 . S
H1641 C1652 0.950 . S
H1642 C1654 0.950 . S
H1643 C1655 0.950 . S
C1644 H1636 0.950 . S
C1644 C1645 1.386 . S
C1644 C1646 1.391 . S
C1645 C1644 1.386 . S
C1645 C1649 1.393 . S
C1646 H1638 0.950 . S
C1646 C1644 1.391 . S
C1646 C1647 1.400 . S
C1647 C1646 1.400 . S
C1647 C1648 1.398 . S
C1647 C1653 1.491 . S
C1648 H1639 0.950 . S
C1648 C1647 1.398 . S
C1648 C1649 1.391 . S
C1649 H1637 0.950 . S
C1649 C1645 1.393 . S
C1649 C1648 1.391 . S
C1650 H1640 0.950 . S
C1650 C1651 1.386 . S
C1650 C1652 1.391 . S
C1651 C1650 1.386 . S
C1651 C1655 1.393 . S
C1652 H1641 0.950 . S
C1652 C1650 1.391 . S
C1652 C1653 1.400 . S
C1653 C1647 1.491 . S
C1653 C1652 1.400 . S
C1653 C1654 1.398 . S
C1654 H1642 0.950 . S
C1654 C1653 1.398 . S
C1654 C1655 1.391 . S
C1655 H1643 0.950 . S
C1655 C1651 1.393 . S
C1655 C1654 1.391 . S
H1656 C1664 0.950 . S
H1657 C1669 0.950 . S
H1658 C1666 0.950 . S
H1659 C1668 0.950 . S
H1660 C1670 0.950 . S
H1661 C1672 0.950 . S
H1662 C1674 0.950 . S
H1663 C1675 0.950 . S
C1664 H1656 0.950 . S
C1664 C1665 1.386 . S
C1664 C1666 1.391 . S
C1665 C1664 1.386 . S
C1665 C1669 1.393 . S
C1666 H1658 0.950 . S
C1666 C1664 1.391 . S
C1666 C1667 1.400 . S
C1667 C1666 1.400 . S
C1667 C1668 1.398 . S
C1667 C1673 1.491 . S
C1668 H1659 0.950 . S
C1668 C1667 1.398 . S
C1668 C1669 1.391 . S
C1669 H1657 0.950 . S
C1669 C1665 1.393 . S
C1669 C1668 1.391 . S
C1670 H1660 0.950 . S
C1670 C1671 1.386 . S
C1670 C1672 1.391 . S
C1671 C1670 1.386 . S
C1671 C1675 1.393 . S
C1672 H1661 0.950 . S
C1672 C1670 1.391 . S
C1672 C1673 1.400 . S
C1673 C1667 1.491 . S
C1673 C1672 1.400 . S
C1673 C1674 1.398 . S
C1674 H1662 0.950 . S
C1674 C1673 1.398 . S
C1674 C1675 1.391 . S
C1675 H1663 0.950 . S
C1675 C1671 1.393 . S
C1675 C1674 1.391 . S
H1676 C1684 0.950 . S
H1677 C1689 0.950 . S
H1678 C1686 0.950 . S
H1679 C1688 0.950 . S
H1680 C1690 0.950 . S
H1681 C1692 0.950 . S
H1682 C1694 0.950 . S
H1683 C1695 0.950 . S
C1684 H1676 0.950 . S
C1684 C1685 1.386 . S
C1684 C1686 1.391 . S
C1685 C1684 1.386 . S
C1685 C1689 1.393 . S
C1686 H1678 0.950 . S
C1686 C1684 1.391 . S
C1686 C1687 1.400 . S
C1687 C1686 1.400 . S
C1687 C1688 1.398 . S
C1687 C1693 1.491 . S
C1688 H1679 0.950 . S
C1688 C1687 1.398 . S
C1688 C1689 1.391 . S
C1689 H1677 0.950 . S
C1689 C1685 1.393 . S
C1689 C1688 1.391 . S
C1690 H1680 0.950 . S
C1690 C1691 1.386 . S
C1690 C1692 1.391 . S
C1691 C1690 1.386 . S
C1691 C1695 1.393 . S
C1692 H1681 0.950 . S
C1692 C1690 1.391 . S
C1692 C1693 1.400 . S
C1693 C1687 1.491 . S
C1693 C1692 1.400 . S
C1693 C1694 1.398 . S
C1694 H1682 0.950 . S
C1694 C1693 1.398 . S
C1694 C1695 1.391 . S
C1695 H1683 0.950 . S
C1695 C1691 1.393 . S
C1695 C1694 1.391 . S
H1696 C1704 0.950 . S
H1697 C1709 0.950 . S
H1698 C1706 0.950 . S
H1699 C1708 0.950 . S
H1700 C1710 0.950 . S
H1701 C1712 0.950 . S
H1702 C1714 0.950 . S
H1703 C1715 0.950 . S
C1704 H1696 0.950 . S
C1704 C1705 1.386 . S
C1704 C1706 1.391 . S
C1705 C1704 1.386 . S
C1705 C1709 1.393 . S
C1706 H1698 0.950 . S
C1706 C1704 1.391 . S
C1706 C1707 1.400 . S
C1707 C1706 1.400 . S
C1707 C1708 1.398 . S
C1707 C1713 1.491 . S
C1708 H1699 0.950 . S
C1708 C1707 1.398 . S
C1708 C1709 1.391 . S
C1709 H1697 0.950 . S
C1709 C1705 1.393 . S
C1709 C1708 1.391 . S
C1710 H1700 0.950 . S
C1710 C1711 1.386 . S
C1710 C1712 1.391 . S
C1711 C1710 1.386 . S
C1711 C1715 1.393 . S
C1712 H1701 0.950 . S
C1712 C1710 1.391 . S
C1712 C1713 1.400 . S
C1713 C1707 1.491 . S
C1713 C1712 1.400 . S
C1713 C1714 1.398 . S
C1714 H1702 0.950 . S
C1714 C1713 1.398 . S
C1714 C1715 1.391 . S
C1715 H1703 0.950 . S
C1715 C1711 1.393 . S
C1715 C1714 1.391 . S
H1716 C1724 0.950 . S
H1717 C1729 0.950 . S
H1718 C1726 0.950 . S
H1719 C1728 0.950 . S
H1720 C1730 0.950 . S
H1721 C1732 0.950 . S
H1722 C1734 0.950 . S
H1723 C1735 0.950 . S
C1724 H1716 0.950 . S
C1724 C1725 1.386 . S
C1724 C1726 1.391 . S
C1725 C1724 1.386 . S
C1725 C1729 1.393 . S
C1726 H1718 0.950 . S
C1726 C1724 1.391 . S
C1726 C1727 1.400 . S
C1727 C1726 1.400 . S
C1727 C1728 1.398 . S
C1727 C1733 1.491 . S
C1728 H1719 0.950 . S
C1728 C1727 1.398 . S
C1728 C1729 1.391 . S
C1729 H1717 0.950 . S
C1729 C1725 1.393 . S
C1729 C1728 1.391 . S
C1730 H1720 0.950 . S
C1730 C1731 1.386 . S
C1730 C1732 1.391 . S
C1731 C1730 1.386 . S
C1731 C1735 1.393 . S
C1732 H1721 0.950 . S
C1732 C1730 1.391 . S
C1732 C1733 1.400 . S
C1733 C1727 1.491 . S
C1733 C1732 1.400 . S
C1733 C1734 1.398 . S
C1734 H1722 0.950 . S
C1734 C1733 1.398 . S
C1734 C1735 1.391 . S
C1735 H1723 0.950 . S
C1735 C1731 1.393 . S
C1735 C1734 1.391 . S
H1736 C1744 0.950 . S
H1737 C1749 0.950 . S
H1738 C1746 0.950 . S
H1739 C1748 0.950 . S
H1740 C1750 0.950 . S
H1741 C1752 0.950 . S
H1742 C1754 0.950 . S
H1743 C1755 0.950 . S
C1744 H1736 0.950 . S
C1744 C1745 1.386 . S
C1744 C1746 1.391 . S
C1745 C1744 1.386 . S
C1745 C1749 1.393 . S
C1746 H1738 0.950 . S
C1746 C1744 1.391 . S
C1746 C1747 1.400 . S
C1747 C1746 1.400 . S
C1747 C1748 1.398 . S
C1747 C1753 1.491 . S
C1748 H1739 0.950 . S
C1748 C1747 1.398 . S
C1748 C1749 1.391 . S
C1749 H1737 0.950 . S
C1749 C1745 1.393 . S
C1749 C1748 1.391 . S
C1750 H1740 0.950 . S
C1750 C1751 1.386 . S
C1750 C1752 1.391 . S
C1751 C1750 1.386 . S
C1751 C1755 1.393 . S
C1752 H1741 0.950 . S
C1752 C1750 1.391 . S
C1752 C1753 1.400 . S
C1753 C1747 1.491 . S
C1753 C1752 1.400 . S
C1753 C1754 1.398 . S
C1754 H1742 0.950 . S
C1754 C1753 1.398 . S
C1754 C1755 1.391 . S
C1755 H1743 0.950 . S
C1755 C1751 1.393 . S
C1755 C1754 1.391 . S
H1756 C1764 0.950 . S
H1757 C1769 0.950 . S
H1758 C1766 0.950 . S
H1759 C1768 0.950 . S
H1760 C1770 0.950 . S
H1761 C1772 0.950 . S
H1762 C1774 0.950 . S
H1763 C1775 0.950 . S
C1764 H1756 0.950 . S
C1764 C1765 1.386 . S
C1764 C1766 1.391 . S
C1765 C1764 1.386 . S
C1765 C1769 1.393 . S
C1766 H1758 0.950 . S
C1766 C1764 1.391 . S
C1766 C1767 1.400 . S
C1767 C1766 1.400 . S
C1767 C1768 1.398 . S
C1767 C1773 1.491 . S
C1768 H1759 0.950 . S
C1768 C1767 1.398 . S
C1768 C1769 1.391 . S
C1769 H1757 0.950 . S
C1769 C1765 1.393 . S
C1769 C1768 1.391 . S
C1770 H1760 0.950 . S
C1770 C1771 1.386 . S
C1770 C1772 1.391 . S
C1771 C1770 1.386 . S
C1771 C1775 1.393 . S
C1772 H1761 0.950 . S
C1772 C1770 1.391 . S
C1772 C1773 1.400 . S
C1773 C1767 1.491 . S
C1773 C1772 1.400 . S
C1773 C1774 1.398 . S
C1774 H1762 0.950 . S
C1774 C1773 1.398 . S
C1774 C1775 1.391 . S
C1775 H1763 0.950 . S
C1775 C1771 1.393 . S
C1775 C1774 1.391 . S
H1776 C1784 0.950 . S
H1777 C1789 0.950 . S
H1778 C1786 0.950 . S
H1779 C1788 0.950 . S
H1780 C1790 0.950 . S
H1781 C1792 0.950 . S
H1782 C1794 0.950 . S
H1783 C1795 0.950 . S
C1784 H1776 0.950 . S
C1784 C1785 1.386 . S
C1784 C1786 1.391 . S
C1785 C1784 1.386 . S
C1785 C1789 1.393 . S
C1786 H1778 0.950 . S
C1786 C1784 1.391 . S
C1786 C1787 1.400 . S
C1787 C1786 1.400 . S
C1787 C1788 1.398 . S
C1787 C1793 1.491 . S
C1788 H1779 0.950 . S
C1788 C1787 1.398 . S
C1788 C1789 1.391 . S
C1789 H1777 0.950 . S
C1789 C1785 1.393 . S
C1789 C1788 1.391 . S
C1790 H1780 0.950 . S
C1790 C1791 1.386 . S
C1790 C1792 1.391 . S
C1791 C1790 1.386 . S
C1791 C1795 1.393 . S
C1792 H1781 0.950 . S
C1792 C1790 1.391 . S
C1792 C1793 1.400 . S
C1793 C1787 1.491 . S
C1793 C1792 1.400 . S
C1793 C1794 1.398 . S
C1794 H1782 0.950 . S
C1794 C1793 1.398 . S
C1794 C1795 1.391 . S
C1795 H1783 0.950 . S
C1795 C1791 1.393 . S
C1795 C1794 1.391 . S
H1796 C1804 0.950 . S
H1797 C1809 0.950 . S
H1798 C1806 0.950 . S
H1799 C1808 0.950 . S
H1800 C1810 0.950 . S
H1801 C1812 0.950 . S
H1802 C1814 0.950 . S
H1803 C1815 0.950 . S
C1804 H1796 0.950 . S
C1804 C1805 1.386 . S
C1804 C1806 1.391 . S
C1805 C1804 1.386 . S
C1805 C1809 1.393 . S
C1806 H1798 0.950 . S
C1806 C1804 1.391 . S
C1806 C1807 1.400 . S
C1807 C1806 1.400 . S
C1807 C1808 1.398 . S
C1807 C1813 1.491 . S
C1808 H1799 0.950 . S
C1808 C1807 1.398 . S
C1808 C1809 1.391 . S
C1809 H1797 0.950 . S
C1809 C1805 1.393 . S
C1809 C1808 1.391 . S
C1810 H1800 0.950 . S
C1810 C1811 1.386 . S
C1810 C1812 1.391 . S
C1811 C1810 1.386 . S
C1811 C1815 1.393 . S
C1812 H1801 0.950 . S
C1812 C1810 1.391 . S
C1812 C1813 1.400 . S
C1813 C1807 1.491 . S
C1813 C1812 1.400 . S
C1813 C1814 1.398 . S
C1814 H1802 0.950 . S
C1814 C1813 1.398 . S
C1814 C1815 1.391 . S
C1815 H1803 0.950 . S
C1815 C1811 1.393 . S
C1815 C1814 1.391 . S
H1816 C1824 0.950 . S
H1817 C1829 0.950 . S
H1818 C1826 0.950 . S
H1819 C1828 0.950 . S
H1820 C1830 0.950 . S
H1821 C1832 0.950 . S
H1822 C1834 0.950 . S
H1823 C1835 0.950 . S
C1824 H1816 0.950 . S
C1824 C1825 1.386 . S
C1824 C1826 1.391 . S
C1825 C1824 1.386 . S
C1825 C1829 1.393 . S
C1826 H1818 0.950 . S
C1826 C1824 1.391 . S
C1826 C1827 1.400 . S
C1827 C1826 1.400 . S
C1827 C1828 1.398 . S
C1827 C1833 1.491 . S
C1828 H1819 0.950 . S
C1828 C1827 1.398 . S
C1828 C1829 1.391 . S
C1829 H1817 0.950 . S
C1829 C1825 1.393 . S
C1829 C1828 1.391 . S
C1830 H1820 0.950 . S
C1830 C1831 1.386 . S
C1830 C1832 1.391 . S
C1831 C1830 1.386 . S
C1831 C1835 1.393 . S
C1832 H1821 0.950 . S
C1832 C1830 1.391 . S
C1832 C1833 1.400 . S
C1833 C1827 1.491 . S
C1833 C1832 1.400 . S
C1833 C1834 1.398 . S
C1834 H1822 0.950 . S
C1834 C1833 1.398 . S
C1834 C1835 1.391 . S
C1835 H1823 0.950 . S
C1835 C1831 1.393 . S
C1835 C1834 1.391 . S
H1836 C1844 0.950 . S
H1837 C1849 0.950 . S
H1838 C1846 0.950 . S
H1839 C1848 0.950 . S
H1840 C1850 0.950 . S
H1841 C1852 0.950 . S
H1842 C1854 0.950 . S
H1843 C1855 0.950 . S
C1844 H1836 0.950 . S
C1844 C1845 1.386 . S
C1844 C1846 1.391 . S
C1845 C1844 1.386 . S
C1845 C1849 1.393 . S
C1846 H1838 0.950 . S
C1846 C1844 1.391 . S
C1846 C1847 1.400 . S
C1847 C1846 1.400 . S
C1847 C1848 1.398 . S
C1847 C1853 1.491 . S
C1848 H1839 0.950 . S
C1848 C1847 1.398 . S
C1848 C1849 1.391 . S
C1849 H1837 0.950 . S
C1849 C1845 1.393 . S
C1849 C1848 1.391 . S
C1850 H1840 0.950 . S
C1850 C1851 1.386 . S
C1850 C1852 1.391 . S
C1851 C1850 1.386 . S
C1851 C1855 1.393 . S
C1852 H1841 0.950 . S
C1852 C1850 1.391 . S
C1852 C1853 1.400 . S
C1853 C1847 1.491 . S
C1853 C1852 1.400 . S
C1853 C1854 1.398 . S
C1854 H1842 0.950 . S
C1854 C1853 1.398 . S
C1854 C1855 1.391 . S
C1855 H1843 0.950 . S
C1855 C1851 1.393 . S
C1855 C1854 1.391 . S
H1856 C1864 0.950 . S
H1857 C1869 0.950 . S
H1858 C1866 0.950 . S
H1859 C1868 0.950 . S
H1860 C1870 0.950 . S
H1861 C1872 0.950 . S
H1862 C1874 0.950 . S
H1863 C1875 0.950 . S
C1864 H1856 0.950 . S
C1864 C1865 1.386 . S
C1864 C1866 1.391 . S
C1865 C1864 1.386 . S
C1865 C1869 1.393 . S
C1866 H1858 0.950 . S
C1866 C1864 1.391 . S
C1866 C1867 1.400 . S
C1867 C1866 1.400 . S
C1867 C1868 1.398 . S
C1867 C1873 1.491 . S
C1868 H1859 0.950 . S
C1868 C1867 1.398 . S
C1868 C1869 1.391 . S
C1869 H1857 0.950 . S
C1869 C1865 1.393 . S
C1869 C1868 1.391 . S
C1870 H1860 0.950 . S
C1870 C1871 1.386 . S
C1870 C1872 1.391 . S
C1871 C1870 1.386 . S
C1871 C1875 1.393 . S
C1872 H1861 0.950 . S
C1872 C1870 1.391 . S
C1872 C1873 1.400 . S
C1873 C1867 1.491 . S
C1873 C1872 1.400 . S
C1873 C1874 1.398 . S
C1874 H1862 0.950 . S
C1874 C1873 1.398 . S
C1874 C1875 1.391 . S
C1875 H1863 0.950 . S
C1875 C1871 1.393 . S
C1875 C1874 1.391 . S
H1876 C1884 0.950 . S
H1877 C1889 0.950 . S
H1878 C1886 0.950 . S
H1879 C1888 0.950 . S
H1880 C1890 0.950 . S
H1881 C1892 0.950 . S
H1882 C1894 0.950 . S
H1883 C1895 0.950 . S
C1884 H1876 0.950 . S
C1884 C1885 1.386 . S
C1884 C1886 1.391 . S
C1885 C1884 1.386 . S
C1885 C1889 1.393 . S
C1886 H1878 0.950 . S
C1886 C1884 1.391 . S
C1886 C1887 1.400 . S
C1887 C1886 1.400 . S
C1887 C1888 1.398 . S
C1887 C1893 1.491 . S
C1888 H1879 0.950 . S
C1888 C1887 1.398 . S
C1888 C1889 1.391 . S
C1889 H1877 0.950 . S
C1889 C1885 1.393 . S
C1889 C1888 1.391 . S
C1890 H1880 0.950 . S
C1890 C1891 1.386 . S
C1890 C1892 1.391 . S
C1891 C1890 1.386 . S
C1891 C1895 1.393 . S
C1892 H1881 0.950 . S
C1892 C1890 1.391 . S
C1892 C1893 1.400 . S
C1893 C1887 1.491 . S
C1893 C1892 1.400 . S
C1893 C1894 1.398 . S
C1894 H1882 0.950 . S
C1894 C1893 1.398 . S
C1894 C1895 1.391 . S
C1895 H1883 0.950 . S
C1895 C1891 1.393 . S
C1895 C1894 1.391 . S
H1896 C1904 0.950 . S
H1897 C1909 0.950 . S
H1898 C1906 0.950 . S
H1899 C1908 0.950 . S
H1900 C1910 0.950 . S
H1901 C1912 0.950 . S
H1902 C1914 0.950 . S
H1903 C1915 0.950 . S
C1904 H1896 0.950 . S
C1904 C1905 1.386 . S
C1904 C1906 1.391 . S
C1905 C1904 1.386 . S
C1905 C1909 1.393 . S
C1906 H1898 0.950 . S
C1906 C1904 1.391 . S
C1906 C1907 1.400 . S
C1907 C1906 1.400 . S
C1907 C1908 1.398 . S
C1907 C1913 1.491 1_455 S
C1908 H1899 0.950 . S
C1908 C1907 1.398 . S
C1908 C1909 1.391 . S
C1909 H1897 0.950 . S
C1909 C1905 1.393 . S
C1909 C1908 1.391 . S
C1910 H1900 0.950 . S
C1910 C1911 1.386 . S
C1910 C1912 1.391 . S
C1911 C1910 1.386 . S
C1911 C1915 1.393 . S
C1912 H1901 0.950 . S
C1912 C1910 1.391 . S
C1912 C1913 1.400 . S
C1913 C1907 1.491 1_655 S
C1913 C1912 1.400 . S
C1913 C1914 1.398 . S
C1914 H1902 0.950 . S
C1914 C1913 1.398 . S
C1914 C1915 1.391 . S
C1915 H1903 0.950 . S
C1915 C1911 1.393 . S
C1915 C1914 1.391 . S
H1916 C1924 0.950 . S
H1917 C1929 0.950 . S
H1918 C1926 0.950 . S
H1919 C1928 0.950 . S
H1920 C1930 0.950 . S
H1921 C1932 0.950 . S
H1922 C1934 0.950 . S
H1923 C1935 0.950 . S
C1924 H1916 0.950 . S
C1924 C1925 1.386 . S
C1924 C1926 1.391 . S
C1925 C1924 1.386 . S
C1925 C1929 1.393 . S
C1926 H1918 0.950 . S
C1926 C1924 1.391 . S
C1926 C1927 1.400 . S
C1927 C1926 1.400 . S
C1927 C1928 1.398 . S
C1927 C1933 1.491 1_545 S
C1928 H1919 0.950 . S
C1928 C1927 1.398 . S
C1928 C1929 1.391 . S
C1929 H1917 0.950 . S
C1929 C1925 1.393 . S
C1929 C1928 1.391 . S
C1930 H1920 0.950 . S
C1930 C1931 1.386 . S
C1930 C1932 1.391 . S
C1931 C1930 1.386 . S
C1931 C1935 1.393 . S
C1932 H1921 0.950 . S
C1932 C1930 1.391 . S
C1932 C1933 1.400 . S
C1933 C1927 1.491 1_565 S
C1933 C1932 1.400 . S
C1933 C1934 1.398 . S
C1934 H1922 0.950 . S
C1934 C1933 1.398 . S
C1934 C1935 1.391 . S
C1935 H1923 0.950 . S
C1935 C1931 1.393 . S
C1935 C1934 1.391 . S
H1936 C1944 0.950 . S
H1937 C1949 0.950 . S
H1938 C1946 0.950 . S
H1939 C1948 0.950 . S
H1940 C1950 0.950 . S
H1941 C1952 0.950 . S
H1942 C1954 0.950 . S
H1943 C1955 0.950 . S
C1944 H1936 0.950 . S
C1944 C1945 1.386 . S
C1944 C1946 1.391 . S
C1945 C1944 1.386 . S
C1945 C1949 1.393 . S
C1946 H1938 0.950 . S
C1946 C1944 1.391 . S
C1946 C1947 1.400 . S
C1947 C1946 1.400 . S
C1947 C1948 1.398 . S
C1947 C1953 1.491 1_655 S
C1948 H1939 0.950 . S
C1948 C1947 1.398 . S
C1948 C1949 1.391 . S
C1949 H1937 0.950 . S
C1949 C1945 1.393 . S
C1949 C1948 1.391 . S
C1950 H1940 0.950 . S
C1950 C1951 1.386 . S
C1950 C1952 1.391 . S
C1951 C1950 1.386 . S
C1951 C1955 1.393 . S
C1952 H1941 0.950 . S
C1952 C1950 1.391 . S
C1952 C1953 1.400 . S
C1953 C1947 1.491 1_455 S
C1953 C1952 1.400 . S
C1953 C1954 1.398 . S
C1954 H1942 0.950 . S
C1954 C1953 1.398 . S
C1954 C1955 1.391 . S
C1955 H1943 0.950 . S
C1955 C1951 1.393 . S
C1955 C1954 1.391 . S
H1956 C1964 0.950 . S
H1957 C1969 0.950 . S
H1958 C1966 0.950 . S
H1959 C1968 0.950 . S
H1960 C1970 0.950 . S
H1961 C1972 0.950 . S
H1962 C1974 0.950 . S
H1963 C1975 0.950 . S
C1964 H1956 0.950 . S
C1964 C1965 1.386 . S
C1964 C1966 1.391 . S
C1965 C1964 1.386 . S
C1965 C1969 1.393 . S
C1966 H1958 0.950 . S
C1966 C1964 1.391 . S
C1966 C1967 1.400 . S
C1967 C1966 1.400 . S
C1967 C1968 1.398 . S
C1967 C1973 1.491 1_545 S
C1968 H1959 0.950 . S
C1968 C1967 1.398 . S
C1968 C1969 1.391 . S
C1969 H1957 0.950 . S
C1969 C1965 1.393 . S
C1969 C1968 1.391 . S
C1970 H1960 0.950 . S
C1970 C1971 1.386 . S
C1970 C1972 1.391 . S
C1971 C1970 1.386 . S
C1971 C1975 1.393 . S
C1972 H1961 0.950 . S
C1972 C1970 1.391 . S
C1972 C1973 1.400 . S
C1973 C1967 1.491 1_565 S
C1973 C1972 1.400 . S
C1973 C1974 1.398 . S
C1974 H1962 0.950 . S
C1974 C1973 1.398 . S
C1974 C1975 1.391 . S
C1975 H1963 0.950 . S
C1975 C1971 1.393 . S
C1975 C1974 1.391 . S
H1976 C1984 0.950 . S
H1977 C1989 0.950 . S
H1978 C1986 0.950 . S
H1979 C1988 0.950 . S
H1980 C1990 0.950 . S
H1981 C1992 0.950 . S
H1982 C1994 0.950 . S
H1983 C1995 0.950 . S
C1984 H1976 0.950 . S
C1984 C1985 1.386 . S
C1984 C1986 1.391 . S
C1985 C1984 1.386 . S
C1985 C1989 1.393 . S
C1986 H1978 0.950 . S
C1986 C1984 1.391 . S
C1986 C1987 1.400 . S
C1987 C1986 1.400 . S
C1987 C1988 1.398 . S
C1987 C1993 1.491 1_565 S
C1988 H1979 0.950 . S
C1988 C1987 1.398 . S
C1988 C1989 1.391 . S
C1989 H1977 0.950 . S
C1989 C1985 1.393 . S
C1989 C1988 1.391 . S
C1990 H1980 0.950 . S
C1990 C1991 1.386 . S
C1990 C1992 1.391 . S
C1991 C1990 1.386 . S
C1991 C1995 1.393 . S
C1992 H1981 0.950 . S
C1992 C1990 1.391 . S
C1992 C1993 1.400 . S
C1993 C1987 1.491 1_545 S
C1993 C1992 1.400 . S
C1993 C1994 1.398 . S
C1994 H1982 0.950 . S
C1994 C1993 1.398 . S
C1994 C1995 1.391 . S
C1995 H1983 0.950 . S
C1995 C1991 1.393 . S
C1995 C1994 1.391 . S
H1996 C2004 0.950 . S
H1997 C2009 0.950 . S
H1998 C2006 0.950 . S
H1999 C2008 0.950 . S
H2000 C2010 0.950 . S
H2001 C2012 0.950 . S
H2002 C2014 0.950 . S
H2003 C2015 0.950 . S
C2004 H1996 0.950 . S
C2004 C2005 1.386 . S
C2004 C2006 1.391 . S
C2005 C2004 1.386 . S
C2005 C2009 1.393 . S
C2006 H1998 0.950 . S
C2006 C2004 1.391 . S
C2006 C2007 1.400 . S
C2007 C2006 1.400 . S
C2007 C2008 1.398 . S
C2007 C2013 1.491 1_655 S
C2008 H1999 0.950 . S
C2008 C2007 1.398 . S
C2008 C2009 1.391 . S
C2009 H1997 0.950 . S
C2009 C2005 1.393 . S
C2009 C2008 1.391 . S
C2010 H2000 0.950 . S
C2010 C2011 1.386 . S
C2010 C2012 1.391 . S
C2011 C2010 1.386 . S
C2011 C2015 1.393 . S
C2012 H2001 0.950 . S
C2012 C2010 1.391 . S
C2012 C2013 1.400 . S
C2013 C2007 1.491 1_455 S
C2013 C2012 1.400 . S
C2013 C2014 1.398 . S
C2014 H2002 0.950 . S
C2014 C2013 1.398 . S
C2014 C2015 1.391 . S
C2015 H2003 0.950 . S
C2015 C2011 1.393 . S
C2015 C2014 1.391 . S
H2016 C2024 0.950 . S
H2017 C2029 0.950 . S
H2018 C2026 0.950 . S
H2019 C2028 0.950 . S
H2020 C2030 0.950 . S
H2021 C2032 0.950 . S
H2022 C2034 0.950 . S
H2023 C2035 0.950 . S
C2024 H2016 0.950 . S
C2024 C2025 1.386 . S
C2024 C2026 1.391 . S
C2025 C2024 1.386 . S
C2025 C2029 1.393 . S
C2026 H2018 0.950 . S
C2026 C2024 1.391 . S
C2026 C2027 1.400 . S
C2027 C2026 1.400 . S
C2027 C2028 1.398 . S
C2027 C2033 1.491 1_565 S
C2028 H2019 0.950 . S
C2028 C2027 1.398 . S
C2028 C2029 1.391 . S
C2029 H2017 0.950 . S
C2029 C2025 1.393 . S
C2029 C2028 1.391 . S
C2030 H2020 0.950 . S
C2030 C2031 1.386 . S
C2030 C2032 1.391 . S
C2031 C2030 1.386 . S
C2031 C2035 1.393 . S
C2032 H2021 0.950 . S
C2032 C2030 1.391 . S
C2032 C2033 1.400 . S
C2033 C2027 1.491 1_545 S
C2033 C2032 1.400 . S
C2033 C2034 1.398 . S
C2034 H2022 0.950 . S
C2034 C2033 1.398 . S
C2034 C2035 1.391 . S
C2035 H2023 0.950 . S
C2035 C2031 1.393 . S
C2035 C2034 1.391 . S
H2036 C2044 0.950 . S
H2037 C2049 0.950 . S
H2038 C2046 0.950 . S
H2039 C2048 0.950 . S
H2040 C2050 0.950 . S
H2041 C2052 0.950 . S
H2042 C2054 0.950 . S
H2043 C2055 0.950 . S
C2044 H2036 0.950 . S
C2044 C2045 1.386 . S
C2044 C2046 1.391 . S
C2045 C2044 1.386 . S
C2045 C2049 1.393 . S
C2046 H2038 0.950 . S
C2046 C2044 1.391 . S
C2046 C2047 1.400 . S
C2047 C2046 1.400 . S
C2047 C2048 1.398 . S
C2047 C2053 1.491 1_655 S
C2048 H2039 0.950 . S
C2048 C2047 1.398 . S
C2048 C2049 1.391 . S
C2049 H2037 0.950 . S
C2049 C2045 1.393 . S
C2049 C2048 1.391 . S
C2050 H2040 0.950 . S
C2050 C2051 1.386 . S
C2050 C2052 1.391 . S
C2051 C2050 1.386 . S
C2051 C2055 1.393 . S
C2052 H2041 0.950 . S
C2052 C2050 1.391 . S
C2052 C2053 1.400 . S
C2053 C2047 1.491 1_455 S
C2053 C2052 1.400 . S
C2053 C2054 1.398 . S
C2054 H2042 0.950 . S
C2054 C2053 1.398 . S
C2054 C2055 1.391 . S
C2055 H2043 0.950 . S
C2055 C2051 1.393 . S
C2055 C2054 1.391 . S
H2056 C2064 0.950 . S
H2057 C2069 0.950 . S
H2058 C2066 0.950 . S
H2059 C2068 0.950 . S
H2060 C2070 0.950 . S
H2061 C2072 0.950 . S
H2062 C2074 0.950 . S
H2063 C2075 0.950 . S
C2064 H2056 0.950 . S
C2064 C2065 1.386 . S
C2064 C2066 1.391 . S
C2065 C2064 1.386 . S
C2065 C2069 1.393 . S
C2066 H2058 0.950 . S
C2066 C2064 1.391 . S
C2066 C2067 1.400 . S
C2067 C2066 1.400 . S
C2067 C2068 1.398 . S
C2067 C2073 1.491 1_556 S
C2068 H2059 0.950 . S
C2068 C2067 1.398 . S
C2068 C2069 1.391 . S
C2069 H2057 0.950 . S
C2069 C2065 1.393 . S
C2069 C2068 1.391 . S
C2070 H2060 0.950 . S
C2070 C2071 1.386 . S
C2070 C2072 1.391 . S
C2071 C2070 1.386 . S
C2071 C2075 1.393 . S
C2072 H2061 0.950 . S
C2072 C2070 1.391 . S
C2072 C2073 1.400 . S
C2073 C2067 1.491 1_554 S
C2073 C2072 1.400 . S
C2073 C2074 1.398 . S
C2074 H2062 0.950 . S
C2074 C2073 1.398 . S
C2074 C2075 1.391 . S
C2075 H2063 0.950 . S
C2075 C2071 1.393 . S
C2075 C2074 1.391 . S
H2076 C2084 0.950 . S
H2077 C2089 0.950 . S
H2078 C2086 0.950 . S
H2079 C2088 0.950 . S
H2080 C2090 0.950 . S
H2081 C2092 0.950 . S
H2082 C2094 0.950 . S
H2083 C2095 0.950 . S
C2084 H2076 0.950 . S
C2084 C2085 1.386 . S
C2084 C2086 1.391 . S
C2085 C2084 1.386 . S
C2085 C2089 1.393 . S
C2086 H2078 0.950 . S
C2086 C2084 1.391 . S
C2086 C2087 1.400 . S
C2087 C2086 1.400 . S
C2087 C2088 1.398 . S
C2087 C2093 1.491 1_556 S
C2088 H2079 0.950 . S
C2088 C2087 1.398 . S
C2088 C2089 1.391 . S
C2089 H2077 0.950 . S
C2089 C2085 1.393 . S
C2089 C2088 1.391 . S
C2090 H2080 0.950 . S
C2090 C2091 1.386 . S
C2090 C2092 1.391 . S
C2091 C2090 1.386 . S
C2091 C2095 1.393 . S
C2092 H2081 0.950 . S
C2092 C2090 1.391 . S
C2092 C2093 1.400 . S
C2093 C2087 1.491 1_554 S
C2093 C2092 1.400 . S
C2093 C2094 1.398 . S
C2094 H2082 0.950 . S
C2094 C2093 1.398 . S
C2094 C2095 1.391 . S
C2095 H2083 0.950 . S
C2095 C2091 1.393 . S
C2095 C2094 1.391 . S
H2096 C2104 0.950 . S
H2097 C2109 0.950 . S
H2098 C2106 0.950 . S
H2099 C2108 0.950 . S
H2100 C2110 0.950 . S
H2101 C2112 0.950 . S
H2102 C2114 0.950 . S
H2103 C2115 0.950 . S
C2104 H2096 0.950 . S
C2104 C2105 1.386 . S
C2104 C2106 1.391 . S
C2105 C2104 1.386 . S
C2105 C2109 1.393 . S
C2106 H2098 0.950 . S
C2106 C2104 1.391 . S
C2106 C2107 1.400 . S
C2107 C2106 1.400 . S
C2107 C2108 1.398 . S
C2107 C2113 1.491 1_556 S
C2108 H2099 0.950 . S
C2108 C2107 1.398 . S
C2108 C2109 1.391 . S
C2109 H2097 0.950 . S
C2109 C2105 1.393 . S
C2109 C2108 1.391 . S
C2110 H2100 0.950 . S
C2110 C2111 1.386 . S
C2110 C2112 1.391 . S
C2111 C2110 1.386 . S
C2111 C2115 1.393 . S
C2112 H2101 0.950 . S
C2112 C2110 1.391 . S
C2112 C2113 1.400 . S
C2113 C2107 1.491 1_554 S
C2113 C2112 1.400 . S
C2113 C2114 1.398 . S
C2114 H2102 0.950 . S
C2114 C2113 1.398 . S
C2114 C2115 1.391 . S
C2115 H2103 0.950 . S
C2115 C2111 1.393 . S
C2115 C2114 1.391 . S
H2116 C2124 0.950 . S
H2117 C2129 0.950 . S
H2118 C2126 0.950 . S
H2119 C2128 0.950 . S
H2120 C2130 0.950 . S
H2121 C2132 0.950 . S
H2122 C2134 0.950 . S
H2123 C2135 0.950 . S
C2124 H2116 0.950 . S
C2124 C2125 1.386 . S
C2124 C2126 1.391 . S
C2125 C2124 1.386 . S
C2125 C2129 1.393 . S
C2126 H2118 0.950 . S
C2126 C2124 1.391 . S
C2126 C2127 1.400 . S
C2127 C2126 1.400 . S
C2127 C2128 1.398 . S
C2127 C2133 1.491 1_556 S
C2128 H2119 0.950 . S
C2128 C2127 1.398 . S
C2128 C2129 1.391 . S
C2129 H2117 0.950 . S
C2129 C2125 1.393 . S
C2129 C2128 1.391 . S
C2130 H2120 0.950 . S
C2130 C2131 1.386 . S
C2130 C2132 1.391 . S
C2131 C2130 1.386 . S
C2131 C2135 1.393 . S
C2132 H2121 0.950 . S
C2132 C2130 1.391 . S
C2132 C2133 1.400 . S
C2133 C2127 1.491 1_554 S
C2133 C2132 1.400 . S
C2133 C2134 1.398 . S
C2134 H2122 0.950 . S
C2134 C2133 1.398 . S
C2134 C2135 1.391 . S
C2135 H2123 0.950 . S
C2135 C2131 1.393 . S
C2135 C2134 1.391 . S
H2136 C2144 0.950 . S
H2137 C2149 0.950 . S
H2138 C2146 0.950 . S
H2139 C2148 0.950 . S
H2140 C2150 0.950 . S
H2141 C2152 0.950 . S
H2142 C2154 0.950 . S
H2143 C2155 0.950 . S
C2144 H2136 0.950 . S
C2144 C2145 1.386 . S
C2144 C2146 1.391 . S
C2145 C2144 1.386 . S
C2145 C2149 1.393 . S
C2146 H2138 0.950 . S
C2146 C2144 1.391 . S
C2146 C2147 1.400 . S
C2147 C2146 1.400 . S
C2147 C2148 1.398 . S
C2147 C2153 1.491 . S
C2148 H2139 0.950 . S
C2148 C2147 1.398 . S
C2148 C2149 1.391 . S
C2149 H2137 0.950 . S
C2149 C2145 1.393 . S
C2149 C2148 1.391 . S
C2150 H2140 0.950 . S
C2150 C2151 1.386 . S
C2150 C2152 1.391 . S
C2151 C2150 1.386 . S
C2151 C2155 1.393 . S
C2152 H2141 0.950 . S
C2152 C2150 1.391 . S
C2152 C2153 1.400 . S
C2153 C2147 1.491 . S
C2153 C2152 1.400 . S
C2153 C2154 1.398 . S
C2154 H2142 0.950 . S
C2154 C2153 1.398 . S
C2154 C2155 1.391 . S
C2155 H2143 0.950 . S
C2155 C2151 1.393 . S
C2155 C2154 1.391 . S
H2156 C2164 0.950 . S
H2157 C2169 0.950 . S
H2158 C2166 0.950 . S
H2159 C2168 0.950 . S
H2160 C2170 0.950 . S
H2161 C2172 0.950 . S
H2162 C2174 0.950 . S
H2163 C2175 0.950 . S
C2164 H2156 0.950 . S
C2164 C2165 1.386 . S
C2164 C2166 1.391 . S
C2165 C2164 1.386 . S
C2165 C2169 1.393 . S
C2166 H2158 0.950 . S
C2166 C2164 1.391 . S
C2166 C2167 1.400 . S
C2167 C2166 1.400 . S
C2167 C2168 1.398 . S
C2167 C2173 1.491 . S
C2168 H2159 0.950 . S
C2168 C2167 1.398 . S
C2168 C2169 1.391 . S
C2169 H2157 0.950 . S
C2169 C2165 1.393 . S
C2169 C2168 1.391 . S
C2170 H2160 0.950 . S
C2170 C2171 1.386 . S
C2170 C2172 1.391 . S
C2171 C2170 1.386 . S
C2171 C2175 1.393 . S
C2172 H2161 0.950 . S
C2172 C2170 1.391 . S
C2172 C2173 1.400 . S
C2173 C2167 1.491 . S
C2173 C2172 1.400 . S
C2173 C2174 1.398 . S
C2174 H2162 0.950 . S
C2174 C2173 1.398 . S
C2174 C2175 1.391 . S
C2175 H2163 0.950 . S
C2175 C2171 1.393 . S
C2175 C2174 1.391 . S
H2176 C2184 0.950 . S
H2177 C2189 0.950 . S
H2178 C2186 0.950 . S
H2179 C2188 0.950 . S
H2180 C2190 0.950 . S
H2181 C2192 0.950 . S
H2182 C2194 0.950 . S
H2183 C2195 0.950 . S
C2184 H2176 0.950 . S
C2184 C2185 1.386 . S
C2184 C2186 1.391 . S
C2185 C2184 1.386 . S
C2185 C2189 1.393 . S
C2186 H2178 0.950 . S
C2186 C2184 1.391 . S
C2186 C2187 1.400 . S
C2187 C2186 1.400 . S
C2187 C2188 1.398 . S
C2187 C2193 1.491 . S
C2188 H2179 0.950 . S
C2188 C2187 1.398 . S
C2188 C2189 1.391 . S
C2189 H2177 0.950 . S
C2189 C2185 1.393 . S
C2189 C2188 1.391 . S
C2190 H2180 0.950 . S
C2190 C2191 1.386 . S
C2190 C2192 1.391 . S
C2191 C2190 1.386 . S
C2191 C2195 1.393 . S
C2192 H2181 0.950 . S
C2192 C2190 1.391 . S
C2192 C2193 1.400 . S
C2193 C2187 1.491 . S
C2193 C2192 1.400 . S
C2193 C2194 1.398 . S
C2194 H2182 0.950 . S
C2194 C2193 1.398 . S
C2194 C2195 1.391 . S
C2195 H2183 0.950 . S
C2195 C2191 1.393 . S
C2195 C2194 1.391 . S
H2196 C2204 0.950 . S
H2197 C2209 0.950 . S
H2198 C2206 0.950 . S
H2199 C2208 0.950 . S
H2200 C2210 0.950 . S
H2201 C2212 0.950 . S
H2202 C2214 0.950 . S
H2203 C2215 0.950 . S
C2204 H2196 0.950 . S
C2204 C2205 1.386 . S
C2204 C2206 1.391 . S
C2205 C2204 1.386 . S
C2205 C2209 1.393 . S
C2206 H2198 0.950 . S
C2206 C2204 1.391 . S
C2206 C2207 1.400 . S
C2207 C2206 1.400 . S
C2207 C2208 1.398 . S
C2207 C2213 1.491 . S
C2208 H2199 0.950 . S
C2208 C2207 1.398 . S
C2208 C2209 1.391 . S
C2209 H2197 0.950 . S
C2209 C2205 1.393 . S
C2209 C2208 1.391 . S
C2210 H2200 0.950 . S
C2210 C2211 1.386 . S
C2210 C2212 1.391 . S
C2211 C2210 1.386 . S
C2211 C2215 1.393 . S
C2212 H2201 0.950 . S
C2212 C2210 1.391 . S
C2212 C2213 1.400 . S
C2213 C2207 1.491 . S
C2213 C2212 1.400 . S
C2213 C2214 1.398 . S
C2214 H2202 0.950 . S
C2214 C2213 1.398 . S
C2214 C2215 1.391 . S
C2215 H2203 0.950 . S
C2215 C2211 1.393 . S
C2215 C2214 1.391 . S
H2216 C2224 0.950 . S
H2217 C2229 0.950 . S
H2218 C2226 0.950 . S
H2219 C2228 0.950 . S
H2220 C2230 0.950 . S
H2221 C2232 0.950 . S
H2222 C2234 0.950 . S
H2223 C2235 0.950 . S
C2224 H2216 0.950 . S
C2224 C2225 1.386 . S
C2224 C2226 1.391 . S
C2225 C2224 1.386 . S
C2225 C2229 1.393 . S
C2226 H2218 0.950 . S
C2226 C2224 1.391 . S
C2226 C2227 1.400 . S
C2227 C2226 1.400 . S
C2227 C2228 1.398 . S
C2227 C2233 1.491 . S
C2228 H2219 0.950 . S
C2228 C2227 1.398 . S
C2228 C2229 1.391 . S
C2229 H2217 0.950 . S
C2229 C2225 1.393 . S
C2229 C2228 1.391 . S
C2230 H2220 0.950 . S
C2230 C2231 1.386 . S
C2230 C2232 1.391 . S
C2231 C2230 1.386 . S
C2231 C2235 1.393 . S
C2232 H2221 0.950 . S
C2232 C2230 1.391 . S
C2232 C2233 1.400 . S
C2233 C2227 1.491 . S
C2233 C2232 1.400 . S
C2233 C2234 1.398 . S
C2234 H2222 0.950 . S
C2234 C2233 1.398 . S
C2234 C2235 1.391 . S
C2235 H2223 0.950 . S
C2235 C2231 1.393 . S
C2235 C2234 1.391 . S
H2236 C2244 0.950 . S
H2237 C2249 0.950 . S
H2238 C2246 0.950 . S
H2239 C2248 0.950 . S
H2240 C2250 0.950 . S
H2241 C2252 0.950 . S
H2242 C2254 0.950 . S
H2243 C2255 0.950 . S
C2244 H2236 0.950 . S
C2244 C2245 1.386 . S
C2244 C2246 1.391 . S
C2245 C2244 1.386 . S
C2245 C2249 1.393 . S
C2246 H2238 0.950 . S
C2246 C2244 1.391 . S
C2246 C2247 1.400 . S
C2247 C2246 1.400 . S
C2247 C2248 1.398 . S
C2247 C2253 1.491 . S
C2248 H2239 0.950 . S
C2248 C2247 1.398 . S
C2248 C2249 1.391 . S
C2249 H2237 0.950 . S
C2249 C2245 1.393 . S
C2249 C2248 1.391 . S
C2250 H2240 0.950 . S
C2250 C2251 1.386 . S
C2250 C2252 1.391 . S
C2251 C2250 1.386 . S
C2251 C2255 1.393 . S
C2252 H2241 0.950 . S
C2252 C2250 1.391 . S
C2252 C2253 1.400 . S
C2253 C2247 1.491 . S
C2253 C2252 1.400 . S
C2253 C2254 1.398 . S
C2254 H2242 0.950 . S
C2254 C2253 1.398 . S
C2254 C2255 1.391 . S
C2255 H2243 0.950 . S
C2255 C2251 1.393 . S
C2255 C2254 1.391 . S
H2256 C2264 0.950 . S
H2257 C2269 0.950 . S
H2258 C2266 0.950 . S
H2259 C2268 0.950 . S
H2260 C2270 0.950 . S
H2261 C2272 0.950 . S
H2262 C2274 0.950 . S
H2263 C2275 0.950 . S
C2264 H2256 0.950 . S
C2264 C2265 1.386 . S
C2264 C2266 1.391 . S
C2265 C2264 1.386 . S
C2265 C2269 1.393 . S
C2266 H2258 0.950 . S
C2266 C2264 1.391 . S
C2266 C2267 1.400 . S
C2267 C2266 1.400 . S
C2267 C2268 1.398 . S
C2267 C2273 1.491 . S
C2268 H2259 0.950 . S
C2268 C2267 1.398 . S
C2268 C2269 1.391 . S
C2269 H2257 0.950 . S
C2269 C2265 1.393 . S
C2269 C2268 1.391 . S
C2270 H2260 0.950 . S
C2270 C2271 1.386 . S
C2270 C2272 1.391 . S
C2271 C2270 1.386 . S
C2271 C2275 1.393 . S
C2272 H2261 0.950 . S
C2272 C2270 1.391 . S
C2272 C2273 1.400 . S
C2273 C2267 1.491 . S
C2273 C2272 1.400 . S
C2273 C2274 1.398 . S
C2274 H2262 0.950 . S
C2274 C2273 1.398 . S
C2274 C2275 1.391 . S
C2275 H2263 0.950 . S
C2275 C2271 1.393 . S
C2275 C2274 1.391 . S
H2276 C2284 0.950 . S
H2277 C2289 0.950 . S
H2278 C2286 0.950 . S
H2279 C2288 0.950 . S
H2280 C2290 0.950 . S
H2281 C2292 0.950 . S
H2282 C2294 0.950 . S
H2283 C2295 0.950 . S
C2284 H2276 0.950 . S
C2284 C2285 1.386 . S
C2284 C2286 1.391 . S
C2285 C2284 1.386 . S
C2285 C2289 1.393 . S
C2286 H2278 0.950 . S
C2286 C2284 1.391 . S
C2286 C2287 1.400 . S
C2287 C2286 1.400 . S
C2287 C2288 1.398 . S
C2287 C2293 1.491 . S
C2288 H2279 0.950 . S
C2288 C2287 1.398 . S
C2288 C2289 1.391 . S
C2289 H2277 0.950 . S
C2289 C2285 1.393 . S
C2289 C2288 1.391 . S
C2290 H2280 0.950 . S
C2290 C2291 1.386 . S
C2290 C2292 1.391 . S
C2291 C2290 1.386 . S
C2291 C2295 1.393 . S
C2292 H2281 0.950 . S
C2292 C2290 1.391 . S
C2292 C2293 1.400 . S
C2293 C2287 1.491 . S
C2293 C2292 1.400 . S
C2293 C2294 1.398 . S
C2294 H2282 0.950 . S
C2294 C2293 1.398 . S
C2294 C2295 1.391 . S
C2295 H2283 0.950 . S
C2295 C2291 1.393 . S
C2295 C2294 1.391 . S
H2296 C2304 0.950 . S
H2297 C2309 0.950 . S
H2298 C2306 0.950 . S
H2299 C2308 0.950 . S
H2300 C2310 0.950 . S
H2301 C2312 0.950 . S
H2302 C2314 0.950 . S
H2303 C2315 0.950 . S
C2304 H2296 0.950 . S
C2304 C2305 1.386 . S
C2304 C2306 1.391 . S
C2305 C2304 1.386 . S
C2305 C2309 1.393 . S
C2306 H2298 0.950 . S
C2306 C2304 1.391 . S
C2306 C2307 1.400 . S
C2307 C2306 1.400 . S
C2307 C2308 1.398 . S
C2307 C2313 1.491 . S
C2308 H2299 0.950 . S
C2308 C2307 1.398 . S
C2308 C2309 1.391 . S
C2309 H2297 0.950 . S
C2309 C2305 1.393 . S
C2309 C2308 1.391 . S
C2310 H2300 0.950 . S
C2310 C2311 1.386 . S
C2310 C2312 1.391 . S
C2311 C2310 1.386 . S
C2311 C2315 1.393 . S
C2312 H2301 0.950 . S
C2312 C2310 1.391 . S
C2312 C2313 1.400 . S
C2313 C2307 1.491 . S
C2313 C2312 1.400 . S
C2313 C2314 1.398 . S
C2314 H2302 0.950 . S
C2314 C2313 1.398 . S
C2314 C2315 1.391 . S
C2315 H2303 0.950 . S
C2315 C2311 1.393 . S
C2315 C2314 1.391 . S
H2316 C2324 0.950 . S
H2317 C2329 0.950 . S
H2318 C2326 0.950 . S
H2319 C2328 0.950 . S
H2320 C2330 0.950 . S
H2321 C2332 0.950 . S
H2322 C2334 0.950 . S
H2323 C2335 0.950 . S
C2324 H2316 0.950 . S
C2324 C2325 1.386 . S
C2324 C2326 1.391 . S
C2325 C2324 1.386 . S
C2325 C2329 1.393 . S
C2326 H2318 0.950 . S
C2326 C2324 1.391 . S
C2326 C2327 1.400 . S
C2327 C2326 1.400 . S
C2327 C2328 1.398 . S
C2327 C2333 1.491 . S
C2328 H2319 0.950 . S
C2328 C2327 1.398 . S
C2328 C2329 1.391 . S
C2329 H2317 0.950 . S
C2329 C2325 1.393 . S
C2329 C2328 1.391 . S
C2330 H2320 0.950 . S
C2330 C2331 1.386 . S
C2330 C2332 1.391 . S
C2331 C2330 1.386 . S
C2331 C2335 1.393 . S
C2332 H2321 0.950 . S
C2332 C2330 1.391 . S
C2332 C2333 1.400 . S
C2333 C2327 1.491 . S
C2333 C2332 1.400 . S
C2333 C2334 1.398 . S
C2334 H2322 0.950 . S
C2334 C2333 1.398 . S
C2334 C2335 1.391 . S
C2335 H2323 0.950 . S
C2335 C2331 1.393 . S
C2335 C2334 1.391 . S
H2336 C2344 0.950 . S
H2337 C2349 0.950 . S
H2338 C2346 0.950 . S
H2339 C2348 0.950 . S
H2340 C2350 0.950 . S
H2341 C2352 0.950 . S
H2342 C2354 0.950 . S
H2343 C2355 0.950 . S
C2344 H2336 0.950 . S
C2344 C2345 1.386 . S
C2344 C2346 1.391 . S
C2345 C2344 1.386 . S
C2345 C2349 1.393 . S
C2346 H2338 0.950 . S
C2346 C2344 1.391 . S
C2346 C2347 1.400 . S
C2347 C2346 1.400 . S
C2347 C2348 1.398 . S
C2347 C2353 1.491 . S
C2348 H2339 0.950 . S
C2348 C2347 1.398 . S
C2348 C2349 1.391 . S
C2349 H2337 0.950 . S
C2349 C2345 1.393 . S
C2349 C2348 1.391 . S
C2350 H2340 0.950 . S
C2350 C2351 1.386 . S
C2350 C2352 1.391 . S
C2351 C2350 1.386 . S
C2351 C2355 1.393 . S
C2352 H2341 0.950 . S
C2352 C2350 1.391 . S
C2352 C2353 1.400 . S
C2353 C2347 1.491 . S
C2353 C2352 1.400 . S
C2353 C2354 1.398 . S
C2354 H2342 0.950 . S
C2354 C2353 1.398 . S
C2354 C2355 1.391 . S
C2355 H2343 0.950 . S
C2355 C2351 1.393 . S
C2355 C2354 1.391 . S
H2356 C2364 0.950 . S
H2357 C2369 0.950 . S
H2358 C2366 0.950 . S
H2359 C2368 0.950 . S
H2360 C2370 0.950 . S
H2361 C2372 0.950 . S
H2362 C2374 0.950 . S
H2363 C2375 0.950 . S
C2364 H2356 0.950 . S
C2364 C2365 1.386 . S
C2364 C2366 1.391 . S
C2365 C2364 1.386 . S
C2365 C2369 1.393 . S
C2366 H2358 0.950 . S
C2366 C2364 1.391 . S
C2366 C2367 1.400 . S
C2367 C2366 1.400 . S
C2367 C2368 1.398 . S
C2367 C2373 1.491 . S
C2368 H2359 0.950 . S
C2368 C2367 1.398 . S
C2368 C2369 1.391 . S
C2369 H2357 0.950 . S
C2369 C2365 1.393 . S
C2369 C2368 1.391 . S
C2370 H2360 0.950 . S
C2370 C2371 1.386 . S
C2370 C2372 1.391 . S
C2371 C2370 1.386 . S
C2371 C2375 1.393 . S
C2372 H2361 0.950 . S
C2372 C2370 1.391 . S
C2372 C2373 1.400 . S
C2373 C2367 1.491 . S
C2373 C2372 1.400 . S
C2373 C2374 1.398 . S
C2374 H2362 0.950 . S
C2374 C2373 1.398 . S
C2374 C2375 1.391 . S
C2375 H2363 0.950 . S
C2375 C2371 1.393 . S
C2375 C2374 1.391 . S
C1425 C682 1.564 . S
C1431 C3 1.513 . S
C1445 C62 1.490 . S
C1451 C505 1.572 . S
C1465 C121 1.519 . S
C1471 C564 1.559 . S
C1485 C180 1.492 . S
C1491 C623 1.569 . S
C1505 C800 1.561 . S
C1511 C239 1.517 . S
C1525 C298 1.514 . S
C1531 C859 1.559 . S
C1545 C918 1.573 . S
C1551 C357 1.491 . S
C1565 C741 1.560 . S
C1571 C416 1.510 . S
C1585 C328 1.569 . S
C1591 C475 1.503 . S
C1605 C387 1.562 . S
C1611 C534 1.505 . S
C1625 C593 1.501 . S
C1631 C446 1.564 . S
C1645 C269 1.573 . S
C1651 C652 1.490 . S
C1665 C210 1.566 . S
C1671 C711 1.510 . S
C1685 C770 1.519 . S
C1691 C33 1.559 . S
C1705 C829 1.490 . S
C1711 C92 1.572 . S
C1725 C888 1.490 . S
C1731 C151 1.571 . S
C1745 C947 1.493 . S
C1751 C1390 1.573 . S
C1765 C1213 1.572 . S
C1771 C1006 1.494 . S
C1785 C1065 1.519 . S
C1791 C1036 1.559 . S
C1805 C1124 1.516 . S
C1811 C1095 1.558 . S
C1825 C1154 1.559 . S
C1831 C1183 1.512 . S
C1845 C1242 1.500 . S
C1851 C1331 1.570 . S
C1865 C977 1.573 . S
C1871 C1301 1.490 . S
C1885 C1272 1.563 . S
C1891 C1360 1.515 . S
C1905 C52 1.649 . S
C1911 C406 1.649 . S
C1925 C111 1.649 . S
C1931 C465 1.649 . S
C1945 C170 1.649 . S
C1951 C288 1.649 . S
C1965 C347 1.650 . S
C1971 C229 1.650 . S
C1985 C642 1.650 . S
C1991 C524 1.650 . S
C2005 C583 1.650 . S
C2011 C701 1.650 . S
C2025 C760 1.649 . S
C2031 C878 1.649 . S
C2045 C937 1.649 . S
C2051 C819 1.649 . S
C2065 C1055 1.649 . S
C2071 C996 1.649 . S
C2085 C1114 1.650 . S
C2091 C1409 1.650 . S
C2105 C1173 1.650 . S
C2111 C1291 1.650 . S
C2125 C1232 1.650 . S
C2131 C1350 1.650 . S
C2145 C5 1.126 . S
C2151 C300 1.130 . S
C2165 C64 1.126 . S
C2171 C359 1.130 . S
C2185 C123 1.137 . S
C2191 C418 1.133 . S
C2205 C241 1.125 . S
C2211 C182 1.128 . S
C2225 C477 1.125 . S
C2231 C1362 1.125 . S
C2245 C536 1.125 . S
C2251 C1244 1.128 . S
C2265 C1303 1.138 . S
C2271 C595 1.135 . S
C2285 C654 1.138 . S
C2291 C949 1.135 . S
C2305 C1185 1.129 . S
C2311 C713 1.126 . S
C2325 C1008 1.138 . S
C2331 C772 1.136 . S
C2345 C831 1.138 . S
C2351 C1067 1.134 . S
C2365 C1126 1.134 . S
C2371 C890 1.138 . S
