# Generated by pormake.
# Topology vbk, (5)-cn, num edge types: 1
# Building blocks:
#     Node 0, Type 0, BuildingBlock: XOMCOT_clean_sbu_1, # of connection points: 5
#     Node 1, Type 0, BuildingBlock: XOMCOT_clean_sbu_1, # of connection points: 5
#     Node 2, Type 0, BuildingBlock: XOMCOT_clean_sbu_1, # of connection points: 5
#     Node 3, Type 0, BuildingBlock: XOMCOT_clean_sbu_1, # of connection points: 5
#     Node 4, Type 0, BuildingBlock: XOMCOT_clean_sbu_1, # of connection points: 5
#     Node 5, Type 0, BuildingBlock: XOMCOT_clean_sbu_1, # of connection points: 5
#     Node 6, Type 0, BuildingBlock: XOMCOT_clean_sbu_1, # of connection points: 5
#     Node 7, Type 0, BuildingBlock: XOMCOT_clean_sbu_1, # of connection points: 5
#     Node 8, Type 0, BuildingBlock: XOMCOT_clean_sbu_1, # of connection points: 5
#     Node 9, Type 0, BuildingBlock: XOMCOT_clean_sbu_1, # of connection points: 5
#     Node 10, Type 0, BuildingBlock: XOMCOT_clean_sbu_1, # of connection points: 5
#     Node 11, Type 0, BuildingBlock: XOMCOT_clean_sbu_1, # of connection points: 5
#     Node 12, Type 0, BuildingBlock: XOMCOT_clean_sbu_1, # of connection points: 5
#     Node 13, Type 0, BuildingBlock: XOMCOT_clean_sbu_1, # of connection points: 5
#     Node 14, Type 0, BuildingBlock: XOMCOT_clean_sbu_1, # of connection points: 5
#     Node 15, Type 0, BuildingBlock: XOMCOT_clean_sbu_1, # of connection points: 5
#     Edge 16, Type (0, 0), BuildingBlock: OJICUG_clean_linker_0, # of connection points: 2
#     Edge 17, Type (0, 0), BuildingBlock: OJICUG_clean_linker_0, # of connection points: 2
#     Edge 18, Type (0, 0), BuildingBlock: OJICUG_clean_linker_0, # of connection points: 2
#     Edge 19, Type (0, 0), BuildingBlock: OJICUG_clean_linker_0, # of connection points: 2
#     Edge 20, Type (0, 0), BuildingBlock: OJICUG_clean_linker_0, # of connection points: 2
#     Edge 21, Type (0, 0), BuildingBlock: OJICUG_clean_linker_0, # of connection points: 2
#     Edge 22, Type (0, 0), BuildingBlock: OJICUG_clean_linker_0, # of connection points: 2
#     Edge 23, Type (0, 0), BuildingBlock: OJICUG_clean_linker_0, # of connection points: 2
#     Edge 24, Type (0, 0), BuildingBlock: OJICUG_clean_linker_0, # of connection points: 2
#     Edge 25, Type (0, 0), BuildingBlock: OJICUG_clean_linker_0, # of connection points: 2
#     Edge 26, Type (0, 0), BuildingBlock: OJICUG_clean_linker_0, # of connection points: 2
#     Edge 27, Type (0, 0), BuildingBlock: OJICUG_clean_linker_0, # of connection points: 2
#     Edge 28, Type (0, 0), BuildingBlock: OJICUG_clean_linker_0, # of connection points: 2
#     Edge 29, Type (0, 0), BuildingBlock: OJICUG_clean_linker_0, # of connection points: 2
#     Edge 30, Type (0, 0), BuildingBlock: OJICUG_clean_linker_0, # of connection points: 2
#     Edge 31, Type (0, 0), BuildingBlock: OJICUG_clean_linker_0, # of connection points: 2
#     Edge 32, Type (0, 0), BuildingBlock: OJICUG_clean_linker_0, # of connection points: 2
#     Edge 33, Type (0, 0), BuildingBlock: OJICUG_clean_linker_0, # of connection points: 2
#     Edge 34, Type (0, 0), BuildingBlock: OJICUG_clean_linker_0, # of connection points: 2
#     Edge 35, Type (0, 0), BuildingBlock: OJICUG_clean_linker_0, # of connection points: 2
#     Edge 36, Type (0, 0), BuildingBlock: OJICUG_clean_linker_0, # of connection points: 2
#     Edge 37, Type (0, 0), BuildingBlock: OJICUG_clean_linker_0, # of connection points: 2
#     Edge 38, Type (0, 0), BuildingBlock: OJICUG_clean_linker_0, # of connection points: 2
#     Edge 39, Type (0, 0), BuildingBlock: OJICUG_clean_linker_0, # of connection points: 2
#     Edge 40, Type (0, 0), BuildingBlock: OJICUG_clean_linker_0, # of connection points: 2
#     Edge 41, Type (0, 0), BuildingBlock: OJICUG_clean_linker_0, # of connection points: 2
#     Edge 42, Type (0, 0), BuildingBlock: OJICUG_clean_linker_0, # of connection points: 2
#     Edge 43, Type (0, 0), BuildingBlock: OJICUG_clean_linker_0, # of connection points: 2
#     Edge 44, Type (0, 0), BuildingBlock: OJICUG_clean_linker_0, # of connection points: 2
#     Edge 45, Type (0, 0), BuildingBlock: OJICUG_clean_linker_0, # of connection points: 2
#     Edge 46, Type (0, 0), BuildingBlock: OJICUG_clean_linker_0, # of connection points: 2
#     Edge 47, Type (0, 0), BuildingBlock: OJICUG_clean_linker_0, # of connection points: 2
#     Edge 48, Type (0, 0), BuildingBlock: OJICUG_clean_linker_0, # of connection points: 2
#     Edge 49, Type (0, 0), BuildingBlock: OJICUG_clean_linker_0, # of connection points: 2
#     Edge 50, Type (0, 0), BuildingBlock: OJICUG_clean_linker_0, # of connection points: 2
#     Edge 51, Type (0, 0), BuildingBlock: OJICUG_clean_linker_0, # of connection points: 2
#     Edge 52, Type (0, 0), BuildingBlock: OJICUG_clean_linker_0, # of connection points: 2
#     Edge 53, Type (0, 0), BuildingBlock: OJICUG_clean_linker_0, # of connection points: 2
#     Edge 54, Type (0, 0), BuildingBlock: OJICUG_clean_linker_0, # of connection points: 2
#     Edge 55, Type (0, 0), BuildingBlock: OJICUG_clean_linker_0, # of connection points: 2
# Relax obj value: 0.081
# Max RMSD: 0.146
# Mean RMSD: 0.146
data_MOF--net-vbk--node1-XOMCOT_clean_sbu_1--edge1-OJICUG_clean_linker_0
_symmetry_space_group_name_H-M    P1
_symmetry_Int_Tables_number       1
_symmetry_cell_setting            triclinic
loop_
_symmetry_equiv_pos_as_xyz
'x, y, z'
_cell_length_a     50.905499
_cell_length_b     32.544988
_cell_length_c     21.871224
_cell_angle_alpha  90.008813
_cell_angle_beta   90.026524
_cell_angle_gamma 90.118668
loop_
_atom_site_label
_atom_site_type_symbol
_atom_site_fract_x
_atom_site_fract_y
_atom_site_fract_z
_atom_type_partial_charge
C0 C 0.13063 0.28736 0.09374 0.0
C1 C 0.10391 0.29119 0.08945 0.0
N2 N 0.09367 0.25416 0.07588 0.0
N3 N 0.13749 0.24813 0.08246 0.0
C4 C 0.11441 0.22826 0.0722 0.0
H5 H 0.14438 0.31198 0.10275 0.0
Co6 Co 0.1731 0.23408 0.07922 0.0
C7 C 0.17512 0.16031 0.00144 0.0
O8 O 0.19264 0.17938 0.96769 0.0
N9 N 0.2102 0.22045 0.07793 0.0
C10 C 0.25356 0.2216 0.06182 0.0
C11 C 0.22933 0.23164 0.03827 0.0
C12 C 0.22372 0.2019 0.12389 0.0
N13 N 0.25011 0.20341 0.11654 0.0
O14 O 0.17074 0.21625 0.16192 0.0
H15 H 0.22633 0.24733 -0.00462 0.0
H16 H 0.21443 0.18839 0.16335 0.0
O17 O 0.16494 0.17864 0.04759 0.0
C18 C 0.1791 0.24807 0.19006 0.0
O19 O 0.18722 0.27979 0.15808 0.0
N20 N 0.17451 0.25879 0.00224 0.0
C21 C 0.16733 0.31706 0.91005 0.0
C22 C 0.15512 0.27827 0.90665 0.0
C23 C 0.15844 0.2499 0.95401 0.0
C24 C 0.18632 0.29635 0.00627 0.0
C25 C 0.1833 0.32566 0.96054 0.0
H26 H 0.14684 0.22207 0.95362 0.0
H27 H 0.19724 0.30442 0.04692 0.0
H28 H 0.1129 0.19613 0.0599 0.0
H29 H 0.09278 0.31927 0.09497 0.0
H30 H 0.27225 0.22917 0.04115 0.0
H31 H 0.14256 0.27016 0.86853 0.0
H32 H 0.19253 0.35542 0.96619 0.0
C33 C 0.44516 0.81058 0.57886 0.0
C34 C 0.47188 0.80737 0.57406 0.0
N35 N 0.48198 0.84529 0.56684 0.0
N36 N 0.43809 0.85034 0.57417 0.0
C37 C 0.4611 0.8711 0.56754 0.0
H38 H 0.43155 0.78527 0.58401 0.0
Co39 Co 0.40231 0.86421 0.57417 0.0
C40 C 0.39979 0.93807 0.49534 0.0
O41 O 0.38242 0.919 0.46118 0.0
N42 N 0.36514 0.87742 0.57619 0.0
C43 C 0.32179 0.879 0.55889 0.0
C44 C 0.34604 0.87004 0.5344 0.0
C45 C 0.35156 0.89222 0.62502 0.0
N46 N 0.32527 0.8926 0.61639 0.0
O47 O 0.40601 0.88241 0.65633 0.0
H48 H 0.34912 0.85798 0.48897 0.0
H49 H 0.36054 0.9012 0.66762 0.0
O50 O 0.40987 0.9197 0.54163 0.0
C51 C 0.39996 0.84961 0.6851 0.0
O52 O 0.39277 0.81702 0.65379 0.0
N53 N 0.39958 0.83948 0.49738 0.0
C54 C 0.40604 0.78066 0.40575 0.0
C55 C 0.41872 0.81906 0.40205 0.0
C56 C 0.41571 0.84771 0.44907 0.0
C57 C 0.38691 0.80259 0.50125 0.0
C58 C 0.38962 0.77297 0.45578 0.0
H59 H 0.42776 0.87507 0.44864 0.0
H60 H 0.37585 0.79507 0.54192 0.0
H61 H 0.46249 0.90403 0.56136 0.0
H62 H 0.48312 0.77918 0.57539 0.0
H63 H 0.30306 0.87517 0.53618 0.0
H64 H 0.43151 0.82656 0.36412 0.0
H65 H 0.37992 0.74358 0.46146 0.0
C66 C 0.12923 0.86039 0.88263 0.0
C67 C 0.10269 0.85811 0.89182 0.0
N68 N 0.09279 0.89633 0.88869 0.0
N69 N 0.13633 0.9 0.87457 0.0
C70 C 0.11351 0.92135 0.87748 0.0
H71 H 0.14273 0.83478 0.88306 0.0
Co72 Co 0.1718 0.91484 0.86321 0.0
C73 C 0.1719 0.98796 0.94839 0.0
O74 O 0.18746 0.9688 -0.01316 0.0
N75 N 0.2077 0.92856 0.84824 0.0
C76 C 0.24599 0.9606 0.8344 0.0
C77 C 0.22246 0.96119 0.8652 0.0
C78 C 0.22298 0.9088 0.80675 0.0
N79 N 0.24635 0.92771 0.79706 0.0
O80 O 0.16369 0.93322 0.78274 0.0
H81 H 0.21647 0.98569 0.89497 0.0
H82 H 0.2167 0.88143 0.78291 0.0
O83 O 0.16505 0.97054 0.89808 0.0
C84 C 0.16256 0.89969 0.75269 0.0
O85 O 0.16688 0.86489 0.78136 0.0
N86 N 0.17974 0.89091 0.93955 0.0
C87 C 0.18006 0.83122 0.03113 0.0
C88 C 0.16298 0.86485 0.03455 0.0
C89 C 0.16294 0.8941 -0.01186 0.0
C90 C 0.19736 0.85937 0.93713 0.0
C91 C 0.19806 0.82941 -0.01718 0.0
H92 H 0.14786 0.91744 -0.0112 0.0
H93 H 0.20941 0.85505 0.8971 0.0
H94 H 0.11217 0.95439 0.87289 0.0
H95 H 0.09143 0.8304 0.90007 0.0
H96 H 0.26098 0.98415 0.837 0.0
H97 H 0.14906 0.86782 0.07172 0.0
H98 H 0.21147 0.80379 -0.02159 0.0
C99 C 0.44835 0.23802 0.38212 0.0
C100 C 0.47486 0.23932 0.39192 0.0
N101 N 0.48418 0.20074 0.38897 0.0
N102 N 0.44067 0.19868 0.37388 0.0
C103 C 0.46314 0.17648 0.37727 0.0
H104 H 0.43524 0.26415 0.38218 0.0
Co105 Co 0.40502 0.18529 0.36121 0.0
C106 C 0.40494 0.1113 0.44674 0.0
O107 O 0.39269 0.13139 0.49016 0.0
N108 N 0.36904 0.17288 0.34574 0.0
C109 C 0.32756 0.15077 0.34901 0.0
C110 C 0.35136 0.15137 0.37895 0.0
C111 C 0.35521 0.18528 0.29601 0.0
N112 N 0.33 0.17202 0.29654 0.0
O113 O 0.41358 0.16662 0.28081 0.0
H114 H 0.35503 0.13721 0.4225 0.0
H115 H 0.36325 0.20468 0.26062 0.0
O116 O 0.41034 0.12897 0.39567 0.0
C117 C 0.41647 0.20009 0.25117 0.0
O118 O 0.41196 0.23504 0.27927 0.0
N119 N 0.39684 0.20971 0.4371 0.0
C120 C 0.39528 0.27009 0.52758 0.0
C121 C 0.41288 0.23719 0.53192 0.0
C122 C 0.41355 0.20761 0.48603 0.0
C123 C 0.37889 0.24077 0.43354 0.0
C124 C 0.37753 0.27099 0.47873 0.0
H125 H 0.42893 0.18476 0.4875 0.0
H126 H 0.36697 0.24438 0.39304 0.0
H127 H 0.46401 0.14341 0.37252 0.0
H128 H 0.48653 0.26659 0.40041 0.0
H129 H 0.30989 0.13546 0.36459 0.0
H130 H 0.42668 0.23501 0.56951 0.0
H131 H 0.36375 0.29607 0.47363 0.0
C132 C 0.94613 0.86064 0.88452 0.0
C133 C 0.97267 0.85829 0.89352 0.0
N134 N 0.98274 0.89645 0.88988 0.0
N135 N 0.93918 0.90023 0.87609 0.0
C136 C 0.9621 0.9215 0.87856 0.0
H137 H 0.93251 0.83508 0.88525 0.0
Co138 Co 0.90377 0.9152 0.86463 0.0
C139 C 0.90405 0.98856 0.94933 0.0
O140 O 0.88843 0.96962 -0.01205 0.0
N141 N 0.86794 0.92907 0.84956 0.0
C142 C 0.82978 0.96124 0.83557 0.0
C143 C 0.85336 0.96186 0.86622 0.0
C144 C 0.85251 0.90919 0.80836 0.0
N145 N 0.82921 0.92816 0.79861 0.0
O146 O 0.91196 0.93339 0.78415 0.0
H147 H 0.85951 0.98647 0.89571 0.0
H148 H 0.85863 0.88166 0.7848 0.0
O149 O 0.91079 0.97092 0.89917 0.0
C150 C 0.91292 0.89981 0.75423 0.0
O151 O 0.90844 0.86508 0.783 0.0
N152 N 0.89574 0.89149 0.94107 0.0
C153 C 0.89522 0.83191 0.03278 0.0
C154 C 0.91241 0.86551 0.03617 0.0
C155 C 0.91255 0.89471 -0.01032 0.0
C156 C 0.878 0.86 0.93872 0.0
C157 C 0.87721 0.83009 -0.01552 0.0
H158 H 0.92772 0.91801 -0.00973 0.0
H159 H 0.86593 0.85564 0.89868 0.0
H160 H 0.96358 0.9545 0.87349 0.0
H161 H 0.98383 0.83057 0.9019 0.0
H162 H 0.8149 0.98485 0.83804 0.0
H163 H 0.92636 0.86847 0.07333 0.0
H164 H 0.86371 0.80449 -0.01991 0.0
C165 C 0.63019 0.237 0.3861 0.0
C166 C 0.60362 0.23872 0.39498 0.0
N167 N 0.59392 0.20036 0.39096 0.0
N168 N 0.63749 0.19758 0.37741 0.0
C169 C 0.61477 0.1758 0.37956 0.0
H170 H 0.64358 0.26284 0.38715 0.0
Co171 Co 0.673 0.18321 0.36619 0.0
C172 C 0.6728 0.10971 0.45073 0.0
O173 O 0.68799 0.12881 0.49012 0.0
N174 N 0.70891 0.1699 0.35144 0.0
C175 C 0.74742 0.13853 0.33887 0.0
C176 C 0.7239 0.13795 0.36968 0.0
C177 C 0.72409 0.18934 0.30933 0.0
N178 N 0.74759 0.1708 0.30032 0.0
O179 O 0.66501 0.16501 0.28556 0.0
H180 H 0.71811 0.11395 0.40059 0.0
H181 H 0.71765 0.21624 0.28464 0.0
O182 O 0.66628 0.12735 0.40041 0.0
C183 C 0.66367 0.1986 0.25575 0.0
O184 O 0.66784 0.23339 0.28463 0.0
N185 N 0.68081 0.20695 0.44277 0.0
C186 C 0.68089 0.26655 0.53448 0.0
C187 C 0.66384 0.23278 0.53765 0.0
C188 C 0.66391 0.20358 0.49117 0.0
C189 C 0.69843 0.23861 0.44065 0.0
C190 C 0.699 0.26854 0.48641 0.0
H191 H 0.64883 0.18014 0.49158 0.0
H192 H 0.71057 0.24304 0.40076 0.0
H193 H 0.61359 0.14279 0.37424 0.0
H194 H 0.59219 0.26615 0.40358 0.0
H195 H 0.76258 0.11542 0.34248 0.0
H196 H 0.64983 0.22967 0.57463 0.0
H197 H 0.71241 0.29427 0.48221 0.0
C198 C 0.9462 0.28923 0.08522 0.0
C199 C 0.97289 0.29301 0.08026 0.0
N200 N 0.98316 0.25542 0.07134 0.0
N201 N 0.93932 0.24944 0.07906 0.0
C202 C 0.9624 0.22923 0.0713 0.0
H203 H 0.93248 0.3142 0.09141 0.0
Co204 Co 0.90361 0.23507 0.07847 0.0
C205 C 0.90157 0.16131 -0.00047 0.0
O206 O 0.88443 0.18028 0.96478 0.0
N207 N 0.86648 0.22131 0.07982 0.0
C208 C 0.82319 0.21925 0.06194 0.0
C209 C 0.84748 0.22852 0.03779 0.0
C210 C 0.85283 0.20624 0.12838 0.0
N211 N 0.82655 0.2056 0.11943 0.0
O212 O 0.90714 0.21677 0.16056 0.0
H213 H 0.85065 0.24071 -0.00753 0.0
H214 H 0.86172 0.19728 0.17105 0.0
O215 O 0.9114 0.17972 0.0461 0.0
C216 C 0.90074 0.24928 0.18953 0.0
O217 O 0.89332 0.28177 0.15843 0.0
N218 N 0.90104 0.25987 0.00174 0.0
C219 C 0.90742 0.31889 0.91032 0.0
C220 C 0.92027 0.28071 0.90666 0.0
C221 C 0.91731 0.25197 0.95359 0.0
C222 C 0.88827 0.29659 0.00566 0.0
C223 C 0.89093 0.32629 0.96029 0.0
H224 H 0.92945 0.22479 0.95318 0.0
H225 H 0.8771 0.30388 0.04625 0.0
H226 H 0.96392 0.19646 0.06367 0.0
H227 H 0.98399 0.32138 0.08263 0.0
H228 H 0.80449 0.22296 0.03904 0.0
H229 H 0.93313 0.27344 0.86879 0.0
H230 H 0.88111 0.35552 0.96598 0.0
C231 C 0.62874 0.81071 0.58901 0.0
C232 C 0.60201 0.80774 0.58366 0.0
N233 N 0.59231 0.84548 0.57301 0.0
N234 N 0.63619 0.85013 0.5813 0.0
C235 C 0.61341 0.87095 0.57213 0.0
H236 H 0.6421 0.7854 0.59622 0.0
Co237 Co 0.67206 0.86346 0.58028 0.0
C238 C 0.67478 0.93686 0.50079 0.0
O239 O 0.69174 0.91742 0.46613 0.0
N240 N 0.70934 0.87625 0.58119 0.0
C241 C 0.75261 0.87736 0.56288 0.0
C242 C 0.72821 0.86825 0.53917 0.0
C243 C 0.72321 0.89159 0.62929 0.0
N244 N 0.74947 0.89169 0.62008 0.0
O245 O 0.66888 0.88225 0.6622 0.0
H246 H 0.72485 0.85573 0.49411 0.0
H247 H 0.71447 0.9012 0.6718 0.0
O248 O 0.66482 0.91881 0.54747 0.0
C249 C 0.67512 0.84979 0.69145 0.0
O250 O 0.68225 0.81701 0.66065 0.0
N251 N 0.67421 0.83822 0.50379 0.0
C252 C 0.6675 0.77932 0.41227 0.0
C253 C 0.65496 0.81775 0.40849 0.0
C254 C 0.65809 0.84644 0.45546 0.0
C255 C 0.68658 0.80118 0.50797 0.0
C256 C 0.68376 0.77153 0.46254 0.0
H257 H 0.64624 0.87394 0.45483 0.0
H258 H 0.69761 0.79368 0.54869 0.0
H259 H 0.61238 0.90354 0.56262 0.0
H260 H 0.59049 0.77978 0.58643 0.0
H261 H 0.77122 0.87316 0.53985 0.0
H262 H 0.64226 0.8253 0.37042 0.0
H263 H 0.69332 0.7421 0.46832 0.0
C264 C 0.62844 0.73796 0.06103 0.0
C265 C 0.60192 0.74004 0.0516 0.0
N266 N 0.59207 0.7017 0.05408 0.0
N267 N 0.63559 0.69838 0.0686 0.0
C268 C 0.6128 0.67681 0.06513 0.0
H269 H 0.64192 0.76371 0.06098 0.0
Co270 Co 0.6711 0.68384 0.07984 0.0
C271 C 0.67073 0.61066 -0.00566 0.0
O272 O 0.68553 0.63009 0.95455 0.0
N273 N 0.707 0.67039 0.09457 0.0
C274 C 0.74576 0.63945 0.10534 0.0
C275 C 0.72216 0.63907 0.07477 0.0
C276 C 0.72216 0.68929 0.1373 0.0
N277 N 0.74581 0.67099 0.14521 0.0
O278 O 0.66302 0.66523 0.16023 0.0
H279 H 0.7165 0.61575 0.04258 0.0
H280 H 0.71568 0.71574 0.16296 0.0
O281 O 0.66443 0.62808 0.04498 0.0
C282 C 0.66175 0.69867 0.19046 0.0
O283 O 0.6661 0.73358 0.16208 0.0
N284 N 0.67899 0.70799 0.00363 0.0
C285 C 0.67957 0.76801 0.91256 0.0
C286 C 0.66225 0.73457 0.90898 0.0
C287 C 0.66208 0.70517 0.95516 0.0
C288 C 0.69681 0.73938 0.00623 0.0
C289 C 0.69764 0.76949 0.96078 0.0
H290 H 0.64687 0.68194 0.95437 0.0
H291 H 0.70895 0.74344 0.04623 0.0
H292 H 0.61151 0.64372 0.06908 0.0
H293 H 0.59062 0.76767 0.04348 0.0
H294 H 0.76111 0.61676 0.10039 0.0
H295 H 0.64826 0.73187 0.87186 0.0
H296 H 0.71123 0.79495 0.9653 0.0
C297 C 0.94634 0.36036 0.55953 0.0
C298 C 0.97285 0.35789 0.55036 0.0
N299 N 0.98295 0.39606 0.55318 0.0
N300 N 0.93942 0.40003 0.56729 0.0
C301 C 0.96235 0.42125 0.56419 0.0
H302 H 0.9327 0.33482 0.55927 0.0
Co303 Co 0.90398 0.41492 0.57847 0.0
C304 C 0.90423 0.48811 0.49334 0.0
O305 O 0.88887 0.46894 0.45437 0.0
N306 N 0.8681 0.42863 0.59324 0.0
C307 C 0.82969 0.4603 0.60597 0.0
C308 C 0.85327 0.46086 0.57535 0.0
C309 C 0.8528 0.40911 0.63503 0.0
N310 N 0.82936 0.42781 0.64407 0.0
O311 O 0.9121 0.43343 0.65886 0.0
H312 H 0.85921 0.48502 0.54486 0.0
H313 H 0.85908 0.38202 0.65944 0.0
O314 O 0.91087 0.4706 0.54368 0.0
C315 C 0.91319 0.4 0.68909 0.0
O316 O 0.90874 0.36511 0.66069 0.0
N317 N 0.89603 0.39097 0.50214 0.0
C318 C 0.8957 0.33118 0.41072 0.0
C319 C 0.91287 0.3648 0.40735 0.0
C320 C 0.91292 0.3941 0.45368 0.0
C321 C 0.87831 0.35945 0.50448 0.0
C322 C 0.87761 0.32943 0.45885 0.0
H323 H 0.92806 0.41743 0.45311 0.0
H324 H 0.86619 0.35519 0.54443 0.0
H325 H 0.96384 0.45431 0.56846 0.0
H326 H 0.98398 0.33009 0.54229 0.0
H327 H 0.81461 0.48356 0.6026 0.0
H328 H 0.92686 0.36772 0.3703 0.0
H329 H 0.86412 0.30382 0.46319 0.0
C330 C 0.63028 0.30963 0.86246 0.0
C331 C 0.60357 0.30624 0.86737 0.0
N332 N 0.59344 0.34414 0.87395 0.0
N333 N 0.63732 0.34948 0.86639 0.0
C334 C 0.6143 0.3701 0.87266 0.0
H335 H 0.64391 0.28439 0.85769 0.0
Co336 Co 0.67306 0.3638 0.86626 0.0
C337 C 0.67511 0.43783 0.94484 0.0
O338 O 0.69234 0.41909 -0.02037 0.0
N339 N 0.71019 0.37753 0.86422 0.0
C340 C 0.75348 0.38011 0.8821 0.0
C341 C 0.72921 0.37097 0.90646 0.0
C342 C 0.72382 0.39203 0.81523 0.0
N343 N 0.75009 0.393 0.82423 0.0
O344 O 0.66932 0.38182 0.78409 0.0
H345 H 0.72606 0.35934 0.95212 0.0
H346 H 0.71492 0.40039 0.7723 0.0
O347 O 0.66532 0.41923 0.89839 0.0
C348 C 0.67532 0.349 0.75541 0.0
O349 O 0.68247 0.31648 0.78681 0.0
N350 N 0.67588 0.33926 0.94316 0.0
C351 C 0.6697 0.28037 0.03486 0.0
C352 C 0.65679 0.3185 0.03844 0.0
C353 C 0.65965 0.34717 -0.00861 0.0
C354 C 0.68878 0.30264 0.93941 0.0
C355 C 0.68621 0.273 -0.01509 0.0
H356 H 0.64744 0.37428 -0.00829 0.0
H357 H 0.69993 0.29532 0.89879 0.0
H358 H 0.6129 0.40308 0.87808 0.0
H359 H 0.59235 0.27794 0.86633 0.0
H360 H 0.77217 0.37689 0.90517 0.0
H361 H 0.64392 0.32577 0.07631 0.0
H362 H 0.69609 0.24381 -0.02072 0.0
C363 C 0.94575 0.7885 0.35766 0.0
C364 C 0.97247 0.79186 0.36258 0.0
N365 N 0.9825 0.75409 0.37121 0.0
N366 N 0.93863 0.7488 0.36364 0.0
C367 C 0.9616 0.72822 0.37123 0.0
H368 H 0.93217 0.81369 0.35179 0.0
Co369 Co 0.90288 0.73471 0.36447 0.0
C370 C 0.90098 0.6609 0.44342 0.0
O371 O 0.88401 0.67988 0.47857 0.0
N372 N 0.86571 0.72116 0.36342 0.0
C373 C 0.82251 0.71872 0.38227 0.0
C374 C 0.84689 0.72796 0.406 0.0
C375 C 0.85186 0.70644 0.31488 0.0
N376 N 0.82563 0.70554 0.32446 0.0
O377 O 0.90621 0.71651 0.28228 0.0
H378 H 0.85025 0.73979 0.45147 0.0
H379 H 0.86057 0.69787 0.27186 0.0
O380 O 0.91061 0.67929 0.39665 0.0
C381 C 0.89993 0.7492 0.25358 0.0
O382 O 0.89265 0.78165 0.28496 0.0
N383 N 0.9005 0.75946 0.44128 0.0
C384 C 0.90694 0.81835 0.53293 0.0
C385 C 0.91987 0.78023 0.53632 0.0
C386 C 0.91687 0.75156 0.48928 0.0
C387 C 0.88767 0.79614 0.43761 0.0
C388 C 0.89036 0.82578 0.48308 0.0
H389 H 0.92904 0.7244 0.4895 0.0
H390 H 0.87641 0.80345 0.39713 0.0
H391 H 0.96292 0.69544 0.37886 0.0
H392 H 0.98376 0.82007 0.36064 0.0
H393 H 0.80393 0.72207 0.40573 0.0
H394 H 0.9328 0.77295 0.57407 0.0
H395 H 0.88048 0.85497 0.47758 0.0
C396 C 0.44668 0.31251 0.84329 0.0
C397 C 0.47344 0.30944 0.84756 0.0
N398 N 0.48314 0.34638 0.86354 0.0
N399 N 0.43925 0.35115 0.85695 0.0
C400 C 0.46204 0.37145 0.8688 0.0
H401 H 0.43328 0.28767 0.83279 0.0
Co402 Co 0.40342 0.36375 0.86083 0.0
C403 C 0.40046 0.43728 0.93944 0.0
O404 O 0.38329 0.41774 -0.02646 0.0
N405 N 0.36607 0.37572 0.86275 0.0
C406 C 0.32283 0.37369 0.88105 0.0
C407 C 0.3474 0.3644 0.90356 0.0
C408 C 0.35191 0.39326 0.8169 0.0
N409 N 0.32565 0.39142 0.82587 0.0
O410 O 0.40538 0.38271 0.77879 0.0
H411 H 0.35101 0.3494 0.94676 0.0
H412 H 0.36054 0.4056 0.77579 0.0
O413 O 0.41075 0.41919 0.89323 0.0
C414 C 0.39774 0.35105 0.74931 0.0
O415 O 0.39012 0.3184 0.77988 0.0
N416 N 0.40257 0.33838 0.93733 0.0
C417 C 0.41128 0.27986 0.02862 0.0
C418 C 0.42234 0.31949 0.03272 0.0
C419 C 0.41836 0.34791 -0.01425 0.0
C420 C 0.39163 0.30021 0.93276 0.0
C421 C 0.39555 0.27067 -0.02214 0.0
H422 H 0.42926 0.3764 -0.01334 0.0
H423 H 0.38087 0.29186 0.89199 0.0
H424 H 0.46309 0.40317 0.88345 0.0
H425 H 0.48496 0.28189 0.84071 0.0
H426 H 0.30433 0.36707 0.90335 0.0
H427 H 0.43455 0.32833 0.07107 0.0
H428 H 0.38716 0.24038 -0.02855 0.0
C429 C 0.12975 0.78816 0.35659 0.0
C430 C 0.10305 0.79156 0.36173 0.0
N431 N 0.09293 0.75383 0.37069 0.0
N432 N 0.13677 0.74847 0.36274 0.0
C433 C 0.11375 0.72793 0.37069 0.0
H434 H 0.14339 0.81332 0.3504 0.0
Co435 Co 0.1725 0.73449 0.36317 0.0
C436 C 0.17467 0.66076 0.4422 0.0
O437 O 0.19184 0.67991 0.47682 0.0
N438 N 0.20966 0.72111 0.36162 0.0
C439 C 0.25297 0.71936 0.3793 0.0
C440 C 0.2287 0.72845 0.40357 0.0
C441 C 0.22329 0.70617 0.31297 0.0
N442 N 0.24957 0.70571 0.3218 0.0
O443 O 0.16893 0.71622 0.28103 0.0
H444 H 0.22556 0.74058 0.44893 0.0
H445 H 0.21436 0.69716 0.27032 0.0
O446 O 0.16481 0.67902 0.39559 0.0
C447 C 0.17523 0.74886 0.25216 0.0
O448 O 0.18263 0.78138 0.28336 0.0
N449 N 0.1751 0.75931 0.43996 0.0
C450 C 0.16869 0.81824 0.53154 0.0
C451 C 0.15586 0.77996 0.53511 0.0
C452 C 0.15884 0.75127 0.48813 0.0
C453 C 0.18785 0.79613 0.43614 0.0
C454 C 0.18519 0.82578 0.48159 0.0
H455 H 0.14672 0.72399 0.4885 0.0
H456 H 0.19901 0.80355 0.39555 0.0
H457 H 0.11235 0.69517 0.37853 0.0
H458 H 0.09185 0.81978 0.35972 0.0
H459 H 0.27168 0.72317 0.40214 0.0
H460 H 0.14299 0.77257 0.57296 0.0
H461 H 0.195 0.85509 0.47597 0.0
C462 C 0.44572 0.73781 0.05395 0.0
C463 C 0.47229 0.73987 0.04527 0.0
N464 N 0.48212 0.70165 0.04959 0.0
N465 N 0.43851 0.69833 0.06283 0.0
C466 C 0.4613 0.67685 0.06099 0.0
H467 H 0.43227 0.76349 0.05278 0.0
Co468 Co 0.40299 0.68375 0.07433 0.0
C469 C 0.40303 0.61014 -0.01013 0.0
O470 O 0.38787 0.62917 0.95046 0.0
N471 N 0.36708 0.67028 0.0894 0.0
C472 C 0.32851 0.63884 0.10207 0.0
C473 C 0.352 0.63834 0.07111 0.0
C474 C 0.35199 0.68962 0.13169 0.0
N475 N 0.32846 0.67104 0.14075 0.0
O476 O 0.41107 0.66561 0.15491 0.0
H477 H 0.3577 0.61443 0.04 0.0
H478 H 0.3585 0.7165 0.15642 0.0
O479 O 0.40961 0.62785 0.04014 0.0
C480 C 0.41253 0.69918 0.18476 0.0
O481 O 0.4084 0.73399 0.15596 0.0
N482 N 0.39507 0.7074 -0.00223 0.0
C483 C 0.39483 0.76695 0.90598 0.0
C484 C 0.41189 0.7333 0.90271 0.0
C485 C 0.4119 0.70412 0.94923 0.0
C486 C 0.37744 0.73893 -1e-05 0.0
C487 C 0.37679 0.76883 0.9542 0.0
H488 H 0.42699 0.6808 0.94874 0.0
H489 H 0.36536 0.74331 0.03998 0.0
H490 H 0.46256 0.64388 0.06668 0.0
H491 H 0.48365 0.76744 0.03675 0.0
H492 H 0.3133 0.61572 0.09842 0.0
H493 H 0.42584 0.73027 0.86562 0.0
H494 H 0.36338 0.79447 0.9585 0.0
C495 C 0.12964 0.35993 0.55602 0.0
C496 C 0.10312 0.35755 0.54654 0.0
N497 N 0.09305 0.39562 0.551 0.0
N498 N 0.13657 0.39947 0.56553 0.0
C499 C 0.11367 0.42063 0.56327 0.0
H500 H 0.14324 0.33444 0.55506 0.0
Co501 Co 0.17187 0.41481 0.57857 0.0
C502 C 0.17198 0.48823 0.49403 0.0
O503 O 0.18793 0.46946 0.45609 0.0
N504 N 0.20755 0.42919 0.59528 0.0
C505 C 0.24535 0.46224 0.61116 0.0
C506 C 0.22201 0.46242 0.57958 0.0
C507 C 0.22282 0.40951 0.63692 0.0
N508 N 0.24592 0.429 0.64779 0.0
O509 O 0.16303 0.43249 0.65889 0.0
H510 H 0.2159 0.48702 0.55011 0.0
H511 H 0.21672 0.38172 0.65994 0.0
O512 O 0.16494 0.47056 0.544 0.0
C513 C 0.16196 0.39861 0.68808 0.0
O514 O 0.16679 0.36422 0.65878 0.0
N515 N 0.18059 0.3914 0.5023 0.0
C516 C 0.18213 0.33182 0.41065 0.0
C517 C 0.16469 0.36495 0.40666 0.0
C518 C 0.16407 0.39422 0.45307 0.0
C519 C 0.19854 0.36034 0.50525 0.0
C520 C 0.19987 0.33048 0.4595 0.0
H521 H 0.14877 0.41719 0.45191 0.0
H522 H 0.21038 0.35625 0.54569 0.0
H523 H 0.11219 0.45355 0.56939 0.0
H524 H 0.09196 0.32985 0.53748 0.0
H525 H 0.26006 0.48623 0.60943 0.0
H526 H 0.15093 0.36748 0.36905 0.0
H527 H 0.21355 0.30524 0.46428 0.0
C528 C 0.297 0.19254 0.14517 0.0
C529 C 0.27021 0.19338 0.1614 0.0
H530 H 0.33676 0.18521 0.17487 0.0
C531 C 0.26365 0.18631 0.22319 0.0
H532 H 0.30311 0.19718 0.09835 0.0
C533 C 0.28315 0.1792 0.26711 0.0
C534 C 0.30987 0.1791 0.25091 0.0
H535 H 0.24349 0.18707 0.23853 0.0
H536 H 0.27725 0.17467 0.31415 0.0
C537 C 0.31649 0.18572 0.1893 0.0
C538 C 0.29182 0.93472 0.75676 0.0
C539 C 0.26639 0.91779 0.75217 0.0
H540 H 0.33003 0.94093 0.7173 0.0
C541 C 0.26083 0.89221 0.70182 0.0
H542 H 0.29717 0.95404 0.79502 0.0
C543 C 0.27992 0.8844 0.65711 0.0
C544 C 0.30524 0.90168 0.66155 0.0
H545 H 0.24166 0.87841 0.69626 0.0
H546 H 0.27487 0.86428 0.6195 0.0
C547 C 0.31089 0.92685 0.71218 0.0
C548 C 0.76438 0.92683 0.71482 0.0
C549 C 0.76974 0.90121 0.66456 0.0
H550 H 0.77849 0.95464 0.79692 0.0
C551 C 0.795 0.88391 0.65991 0.0
H552 H 0.74531 0.94098 0.72008 0.0
C553 C 0.8143 0.89207 0.7041 0.0
C554 C 0.809 0.91802 0.75415 0.0
H555 H 0.79984 0.86348 0.62257 0.0
H556 H 0.83342 0.87824 0.6984 0.0
C557 C 0.78365 0.93502 0.7589 0.0
C558 C 0.79302 0.16371 0.25993 0.0
C559 C 0.76761 0.18051 0.25523 0.0
H560 H 0.83122 0.15749 0.22051 0.0
C561 C 0.76206 0.20584 0.20461 0.0
H562 H 0.79839 0.14458 0.29833 0.0
C563 C 0.78116 0.21355 0.15984 0.0
C564 C 0.80647 0.19643 0.16445 0.0
H565 H 0.74292 0.21956 0.19892 0.0
H566 H 0.77614 0.23352 0.12208 0.0
C567 C 0.81209 0.17146 0.21526 0.0
C568 C 0.79155 0.66439 0.18403 0.0
C569 C 0.76601 0.68051 0.19003 0.0
H570 H 0.83007 0.65867 0.22194 0.0
C571 C 0.76054 0.70505 0.24154 0.0
H572 H 0.79686 0.64586 0.14494 0.0
C573 C 0.77987 0.71276 0.28582 0.0
C574 C 0.80533 0.69638 0.27987 0.0
H575 H 0.74129 0.71816 0.24828 0.0
H576 H 0.77489 0.73215 0.32426 0.0
C577 C 0.81084 0.67211 0.22824 0.0
C578 C 0.78375 0.43444 0.68355 0.0
C579 C 0.80924 0.41799 0.68886 0.0
H580 H 0.74539 0.44032 0.72231 0.0
C581 C 0.81477 0.39296 0.73979 0.0
H582 H 0.77842 0.45333 0.64485 0.0
C583 C 0.79558 0.38522 0.78436 0.0
C584 C 0.7702 0.40201 0.77919 0.0
H585 H 0.83398 0.37954 0.74592 0.0
H586 H 0.8006 0.36553 0.82243 0.0
C587 C 0.76458 0.42663 0.72799 0.0
C588 C 0.26084 0.39191 0.74141 0.0
C589 C 0.26601 0.41898 0.69259 0.0
H590 H 0.27541 0.36198 0.82162 0.0
C591 C 0.29114 0.43707 0.68926 0.0
H592 H 0.24186 0.37734 0.74617 0.0
C593 C 0.31035 0.4287 0.73331 0.0
C594 C 0.30523 0.40165 0.78208 0.0
H595 H 0.29621 0.45765 0.65229 0.0
H596 H 0.32923 0.44371 0.72901 0.0
C597 C 0.28014 0.38343 0.78548 0.0
C598 C 0.26395 0.67165 0.22586 0.0
C599 C 0.26963 0.69659 0.27672 0.0
H600 H 0.27758 0.64482 0.14274 0.0
C601 C 0.29499 0.7137 0.28137 0.0
H602 H 0.24479 0.65768 0.22057 0.0
C603 C 0.31408 0.70599 0.23658 0.0
C604 C 0.30846 0.68071 0.18591 0.0
H605 H 0.30007 0.73363 0.31916 0.0
H606 H 0.33327 0.7197 0.2423 0.0
C607 C 0.283 0.66392 0.18118 0.0
C608 C 1.0242 0.21748 0.09566 0.0
C609 C 1.01071 0.24747 0.06162 0.0
H610 H 0.06202 0.19592 0.12665 0.0
C611 C 1.02524 0.27449 0.02471 0.0
H612 H 1.01342 0.19651 0.12479 0.0
C613 C 0.05261 0.27417 0.02582 0.0
C614 C 0.06624 0.24675 0.06372 0.0
H615 H 1.01532 0.29758 -0.0024 0.0
H616 H 0.06324 0.29708 -0.00028 0.0
C617 C 0.0519 0.21713 0.09671 0.0
C618 C 0.55077 0.88207 0.59662 0.0
C619 C 0.56504 0.85398 0.56079 0.0
H620 H 0.51232 0.90154 0.62635 0.0
C621 C 0.55136 0.82859 0.51981 0.0
H622 H 0.56093 0.90164 0.62899 0.0
C623 C 0.52399 0.82855 0.51829 0.0
C624 C 0.50951 0.85384 0.55779 0.0
H625 H 0.56194 0.80684 0.49161 0.0
H626 H 0.51399 0.80679 0.48884 0.0
C627 C 0.52308 0.88201 0.59511 0.0
C628 C 1.02392 0.92885 0.85314 0.0
C629 C 1.01011 0.90624 0.89756 0.0
H630 H 0.06197 0.94359 0.81566 0.0
C631 C 1.0242 0.887 0.94462 0.0
H632 H 1.01341 0.94363 0.81618 0.0
C633 C 0.05154 0.88698 0.94433 0.0
C634 C 0.06549 0.9062 0.89698 0.0
H635 H 1.01395 0.86969 -0.02043 0.0
H636 H 0.06189 0.86965 -0.02095 0.0
C637 C 0.05157 0.92883 0.85286 0.0
C638 C 0.55255 0.20791 0.44651 0.0
C639 C 0.56665 0.18993 0.39842 0.0
H640 H 0.51482 0.22451 0.48152 0.0
C641 C 0.55289 0.1684 0.35273 0.0
H642 H 0.56279 0.22445 0.48232 0.0
C643 C 0.52524 0.16844 0.35228 0.0
C644 C 0.5113 0.18997 0.39753 0.0
H645 H 0.56342 0.15466 0.31494 0.0
H646 H 0.51487 0.15476 0.31411 0.0
C647 C 0.5252 0.20792 0.44608 0.0
C648 C 0.52385 0.71044 -0.00425 0.0
C649 C 0.50946 0.69162 0.04275 0.0
H650 H 0.56177 0.72754 0.96221 0.0
C651 C 0.52297 0.66934 0.08796 0.0
H652 H 0.51383 0.72751 0.96023 0.0
C653 C 0.55062 0.66934 0.08906 0.0
C654 C 0.56483 0.6916 0.04496 0.0
H655 H 0.51223 0.65491 0.12491 0.0
H656 H 0.56079 0.65491 0.12685 0.0
C657 C 0.55119 0.71044 -0.00315 0.0
C658 C 0.05204 0.42816 0.58812 0.0
C659 C 0.06567 0.40536 0.5437 0.0
H660 H 1.01412 0.44325 0.62581 0.0
C661 C 0.05141 0.38612 0.49682 0.0
H662 H 0.06268 0.44298 0.62492 0.0
C663 C 1.02406 0.3863 0.4973 0.0
C664 C 1.01028 0.40573 0.54466 0.0
H665 H 0.06151 0.36871 0.46182 0.0
H666 H 1.01357 0.36898 0.46272 0.0
C667 C 1.02439 0.42834 0.5886 0.0
C668 C 0.52515 0.3828 0.84376 0.0
C669 C 0.51036 0.35409 0.87742 0.0
H670 H 0.56397 0.40233 0.81655 0.0
C671 C 0.52349 0.32727 0.91717 0.0
H672 H 0.5154 0.40343 0.81228 0.0
C673 C 0.55085 0.32662 0.91959 0.0
C674 C 0.56586 0.35268 0.88213 0.0
H675 H 0.51249 0.30495 0.94355 0.0
H676 H 0.56041 0.30394 0.94814 0.0
C677 C 0.55282 0.38213 0.84616 0.0
C678 C 1.02412 0.77141 0.4213 0.0
C679 C 1.00994 0.74575 0.38161 0.0
H680 H 0.06187 0.79327 0.44964 0.0
C681 C 1.02376 0.71726 0.34552 0.0
H682 H 1.01392 0.79341 0.44983 0.0
C683 C 0.05146 0.71718 0.34542 0.0
C684 C 0.06548 0.74559 0.3814 0.0
H685 H 1.01322 0.69743 0.31419 0.0
H686 H 0.06184 0.69729 0.31399 0.0
C687 C 0.0515 0.77133 0.42121 0.0
C688 C 0.16425 0.08829 0.03349 0.0
C689 C 0.1688 0.11696 -0.01322 0.0
H690 H 0.16182 1.02449 0.05756 0.0
C691 C 0.17053 0.10294 0.92598 0.0
H692 H 0.16298 0.09817 0.0807 0.0
C693 C 0.16919 0.06088 0.9125 0.0
C694 C 0.16679 1.03204 0.95981 0.0
H695 H 0.17395 0.12443 0.889 0.0
H696 H 0.17193 0.05086 0.8657 0.0
C697 C 0.16363 1.04617 0.0202 0.0
C698 C 0.40287 0.99648 0.42098 0.0
C699 C 0.40613 0.98151 0.48098 0.0
H700 H 0.40075 0.04944 0.3625 0.0
C701 C 0.41264 1.00933 0.5276 0.0
H702 H 0.39799 0.97568 0.38398 0.0
C703 C 0.41378 0.05156 0.51536 0.0
C704 C 0.4091 0.06671 0.45603 0.0
H705 H 0.41521 0.99879 0.57419 0.0
H706 H 0.41729 0.07257 0.55293 0.0
C707 C 0.40463 1.03865 0.40847 0.0
C708 C 0.91225 1.04723 0.02049 0.0
C709 C 0.90933 1.03269 0.96023 0.0
H710 H 0.9129 0.09965 0.08017 0.0
C711 C 0.90738 0.06121 0.91239 0.0
H712 H 0.91374 1.02581 0.05824 0.0
C713 C 0.90625 0.10337 0.92514 0.0
C714 C 0.90773 0.11781 -0.01424 0.0
H715 H 0.90484 0.05087 0.86566 0.0
H716 H 0.90317 0.12462 0.8877 0.0
C717 C 0.91183 0.08945 0.03308 0.0
C718 C 0.66985 1.03707 0.41357 0.0
C719 C 0.66758 0.06556 0.46138 0.0
H720 H 0.67415 0.97366 0.38894 0.0
C721 C 0.66427 0.051 0.52149 0.0
H722 H 0.67268 1.04743 0.36696 0.0
C723 C 0.66458 1.00879 0.53403 0.0
C724 C 0.66896 0.98044 0.48683 0.0
H725 H 0.66251 0.07241 0.55921 0.0
H726 H 0.66315 0.99858 0.58106 0.0
C727 C 0.67087 0.9949 0.42629 0.0
C728 C 0.66277 0.55153 0.92386 0.0
C729 C 0.66601 0.56632 -0.01609 0.0
H730 H 0.66233 0.49898 0.86446 0.0
C731 C 0.66881 0.53799 0.03176 0.0
H732 H 0.66061 0.5728 0.88609 0.0
C733 C 0.67044 0.49586 0.01914 0.0
C734 C 0.66863 0.48122 0.95867 0.0
H735 H 0.67162 0.54852 0.07831 0.0
H736 H 0.67412 0.47481 0.05654 0.0
C737 C 0.6637 0.50932 0.91144 0.0
C738 C 0.91215 0.54692 0.42231 0.0
C739 C 0.90928 0.53231 0.48253 0.0
H740 H 0.91257 0.59937 0.36271 0.0
C741 C 0.90716 0.56078 0.53041 0.0
H742 H 0.91377 0.52554 0.38453 0.0
C743 C 0.90582 0.60293 0.51772 0.0
C744 C 0.90725 0.61742 0.45713 0.0
H745 H 0.90465 0.55039 0.57711 0.0
H746 H 0.90264 0.62412 0.55519 0.0
C747 C 0.91152 0.58913 0.40978 0.0
C748 C 0.40412 0.4953 0.01418 0.0
C749 C 0.40634 0.48085 0.95369 0.0
H750 H 0.40226 0.54782 0.07354 0.0
C751 C 0.41118 0.5092 0.9067 0.0
H752 H 0.40049 0.47406 0.05137 0.0
C753 C 0.41167 0.5514 0.91932 0.0
C754 C 0.40809 0.56596 -0.02065 0.0
H755 H 0.41285 0.499 0.85971 0.0
H756 H 0.41377 0.57282 0.88171 0.0
C757 C 0.40533 0.53745 0.02702 0.0
C758 C 0.16434 0.5887 0.4093 0.0
C759 C 0.16844 0.61729 0.45635 0.0
H760 H 0.16239 0.52493 0.38475 0.0
C761 C 0.16982 0.60313 0.51713 0.0
H762 H 0.16333 0.59868 0.36211 0.0
C763 C 0.16861 0.56102 0.53029 0.0
C764 C 0.16667 0.53227 0.48272 0.0
H765 H 0.17289 0.62456 0.55437 0.0
H766 H 0.1711 0.5509 0.57713 0.0
C767 C 0.16384 0.54653 0.42231 0.0
C768 C 0.13738 0.37452 0.77687 0.0
C769 C 0.15932 0.39568 0.75425 0.0
H770 H 0.12248 0.33357 0.84495 0.0
C771 C 0.18237 0.39707 0.78912 0.0
H772 H 0.11956 0.37245 0.74989 0.0
C773 C 0.18457 0.37329 0.84203 0.0
C774 C 0.16351 0.34827 0.86121 0.0
H775 H 0.19969 0.41251 0.77163 0.0
H776 H 0.20347 0.37191 0.86464 0.0
C777 C 0.13937 0.35127 0.83026 0.0
C778 C 0.38899 0.72416 0.33781 0.0
C779 C 0.41004 0.74892 0.35776 0.0
H780 H 0.37423 0.68499 0.26687 0.0
C781 C 0.43444 0.74531 0.32811 0.0
H782 H 0.36993 0.7259 0.35957 0.0
C783 C 0.43669 0.72203 0.27482 0.0
C784 C 0.41477 0.70143 0.25108 0.0
H785 H 0.45136 0.76267 0.34358 0.0
H786 H 0.45474 0.72381 0.24866 0.0
C787 C 0.39147 0.70025 0.28506 0.0
C788 C 0.20202 0.78412 0.10555 0.0
C789 C 0.17887 0.79853 0.07816 0.0
H790 H 0.21876 0.75435 0.18352 0.0
C791 C 0.15446 0.78492 0.10075 0.0
H792 H 0.22109 0.79394 0.08904 0.0
C793 C 0.15319 0.76169 0.15437 0.0
C794 C 0.17629 0.75181 0.18571 0.0
H795 H 0.13631 0.79475 0.0795 0.0
H796 H 0.13418 0.75562 0.17482 0.0
C797 C 0.20071 0.76101 0.15918 0.0
C798 C 0.37268 0.33824 0.65593 0.0
C799 C 0.39681 0.3487 0.68283 0.0
H800 H 0.35325 0.3046 0.58504 0.0
C801 C 0.42019 0.34078 0.65139 0.0
H802 H 0.35445 0.34354 0.6803 0.0
C803 C 0.41958 0.31789 0.59739 0.0
C804 C 0.39556 0.30284 0.57449 0.0
H805 H 0.439 0.34791 0.67211 0.0
H806 H 0.43799 0.30931 0.57617 0.0
C807 C 0.37202 0.31554 0.60186 0.0
C808 C 0.87443 0.76163 0.16074 0.0
C809 C 0.89883 0.7523 0.18715 0.0
H810 H 0.85411 0.79471 0.09078 0.0
C811 C 0.92194 0.76219 0.1558 0.0
H812 H 0.85637 0.75496 0.18511 0.0
C813 C 0.92071 0.78551 0.10228 0.0
C814 C 0.89633 0.79921 0.07979 0.0
H815 H 0.94094 0.75602 0.17618 0.0
H816 H 0.93889 0.79533 0.08102 0.0
C817 C 0.87315 0.78483 0.1072 0.0
C818 C 0.65504 0.31263 0.60368 0.0
C819 C 0.67954 0.29923 0.58149 0.0
H820 H 0.63451 0.34176 0.6774 0.0
C821 C 0.70258 0.31384 0.60927 0.0
H822 H 0.63696 0.30264 0.58212 0.0
C823 C 0.70108 0.33695 0.66288 0.0
C824 C 0.67658 0.34596 0.68899 0.0
H825 H 0.72171 0.30419 0.59308 0.0
H826 H 0.71906 0.34376 0.68751 0.0
C827 C 0.65358 0.33585 0.65728 0.0
C828 C 0.93559 0.35467 0.83244 0.0
C829 C 0.91124 0.35066 0.86226 0.0
H830 H 0.95568 0.37639 0.75276 0.0
C831 C 0.89005 0.375 0.84237 0.0
H832 H 0.9526 0.33764 0.84785 0.0
C833 C 0.89234 0.39885 0.78952 0.0
C834 C 0.91559 0.39804 0.75538 0.0
H835 H 0.87101 0.37294 0.86424 0.0
H836 H 0.875 0.41374 0.77138 0.0
C837 C 0.93766 0.3779 0.77906 0.0
C838 C 0.63933 0.74408 0.33378 0.0
C839 C 0.66363 0.74771 0.36398 0.0
H840 H 0.6193 0.72277 0.25373 0.0
C841 C 0.68475 0.72319 0.34421 0.0
H842 H 0.62238 0.7613 0.34904 0.0
C843 C 0.68246 0.69951 0.29117 0.0
C844 C 0.65928 0.70063 0.25675 0.0
H845 H 0.70374 0.72497 0.36638 0.0
H846 H 0.69978 0.68448 0.27317 0.0
C847 C 0.63726 0.72099 0.28025 0.0
C848 C 0.65427 0.81473 0.84322 0.0
C849 C 0.67859 0.80078 0.86568 0.0
H850 H 0.63413 0.84412 0.76912 0.0
C851 C 0.70182 0.81481 0.83811 0.0
H852 H 0.63606 0.80519 0.86462 0.0
C853 C 0.70063 0.83781 0.78437 0.0
C854 C 0.67625 0.84724 0.75792 0.0
H855 H 0.72083 0.80473 0.85453 0.0
H856 H 0.7187 0.84412 0.75986 0.0
C857 C 0.65311 0.83784 0.78949 0.0
C858 C 0.8751 0.26122 0.28224 0.0
C859 C 0.89954 0.25204 0.25597 0.0
H860 H 0.85467 0.29403 0.35227 0.0
C861 C 0.92261 0.26173 0.2877 0.0
H862 H 0.85708 0.25467 0.2576 0.0
C863 C 0.92129 0.28481 0.34145 0.0
C864 C 0.89687 0.29847 0.36375 0.0
H865 H 0.94164 0.25565 0.26747 0.0
H866 H 0.93943 0.29456 0.36299 0.0
C867 C 0.87374 0.28419 0.33599 0.0
C868 C 0.68466 0.20017 0.15544 0.0
C869 C 0.66137 0.20089 0.18945 0.0
H870 H 0.70608 0.22625 0.08099 0.0
C871 C 0.63935 0.22115 0.16579 0.0
H872 H 0.70197 0.18517 0.17357 0.0
C873 C 0.64148 0.24451 0.11256 0.0
C874 C 0.66586 0.24857 0.08287 0.0
H875 H 0.6213 0.22259 0.19199 0.0
H876 H 0.62449 0.26158 0.09715 0.0
C877 C 0.68702 0.22417 0.10275 0.0
C878 C 0.93513 0.85416 0.61083 0.0
C879 C 0.91075 0.85005 0.58112 0.0
H880 H 0.9553 0.87604 0.69036 0.0
C881 C 0.88953 0.87427 0.60118 0.0
H882 H 0.95215 0.83721 0.59533 0.0
C883 C 0.89186 0.89815 0.654 0.0
C884 C 0.91518 0.89755 0.68793 0.0
H885 H 0.87047 0.87211 0.57943 0.0
H886 H 0.87451 0.91295 0.67225 0.0
C887 C 0.93724 0.87744 0.66418 0.0
C888 C 0.43961 0.24857 0.11053 0.0
C889 C 0.41596 0.2486 0.07721 0.0
H890 H 0.45878 0.23054 0.19335 0.0
C891 C 0.39606 0.22064 0.09417 0.0
H892 H 0.45586 0.26819 0.09746 0.0
C893 C 0.39855 0.19717 0.14737 0.0
C894 C 0.42049 0.20225 0.18518 0.0
H895 H 0.3776 0.21934 0.06965 0.0
H896 H 0.382 0.17903 0.16272 0.0
C897 C 0.4417 0.22595 0.16448 0.0
C898 C 0.18359 0.89839 0.65242 0.0
C899 C 0.16028 0.8975 0.68637 0.0
H900 H 0.20503 0.87255 0.57791 0.0
C901 C 0.13827 0.87713 0.66258 0.0
H902 H 0.2009 0.91344 0.67067 0.0
C903 C 0.14043 0.85383 0.60928 0.0
C904 C 0.16481 0.84998 0.57962 0.0
H905 H 0.12021 0.87553 0.68873 0.0
H906 H 0.12344 0.83665 0.59379 0.0
C907 C 0.18597 0.87449 0.59964 0.0
C908 C 0.3744 0.8374 0.77793 0.0
C909 C 0.39886 0.84655 0.75155 0.0
H910 H 0.35391 0.80445 0.84787 0.0
C911 C 0.42191 0.83648 0.78294 0.0
H912 H 0.35638 0.84417 0.75354 0.0
C913 C 0.42056 0.81317 0.83647 0.0
C914 C 0.3961 0.79964 0.85894 0.0
H915 H 0.44095 0.8425 0.76258 0.0
H916 H 0.43868 0.80324 0.85777 0.0
C917 C 0.37301 0.8142 0.83148 0.0
C918 C 0.20427 0.26276 0.28274 0.0
C919 C 0.18008 0.25186 0.25645 0.0
H920 H 0.2239 0.29704 0.35264 0.0
C921 C 0.15677 0.26047 0.28779 0.0
H922 H 0.22244 0.25722 0.2583 0.0
C923 C 0.15752 0.28407 0.34114 0.0
C924 C 0.18162 0.29911 0.36362 0.0
H925 H 0.13791 0.25312 0.26748 0.0
H926 H 0.13917 0.29299 0.36235 0.0
C927 C 0.20507 0.28605 0.33623 0.0
loop_
_geom_bond_atom_site_label_1
_geom_bond_atom_site_label_2
_geom_bond_distance
_geom_bond_site_symmetry_2
_ccdc_geom_bond_type
C0 C1 1.351 . S
C0 N3 1.368 . S
C0 H5 0.931 . S
C1 C0 1.351 . S
C1 N2 1.373 . S
C1 H29 0.930 . S
N2 C1 1.373 . S
N2 C4 1.340 . S
N3 C0 1.368 . S
N3 C4 1.321 . S
N3 Co6 2.135 . S
C4 N2 1.340 . S
C4 N3 1.321 . S
C4 H28 0.930 . S
H5 C0 0.931 . S
Co6 N3 2.135 . S
Co6 N9 2.121 . S
Co6 O14 2.055 . S
Co6 O17 2.039 . S
Co6 N20 2.140 . S
C7 O8 1.227 . S
C7 O17 1.265 . S
O8 C7 1.227 . S
N9 Co6 2.121 . S
N9 C11 1.375 . S
N9 C12 1.313 . S
C10 C11 1.338 . S
C10 N13 1.377 . S
C10 H30 0.930 . S
C11 N9 1.375 . S
C11 C10 1.338 . S
C11 H15 0.931 . S
C12 N9 1.313 . S
C12 N13 1.344 . S
C12 H16 0.930 . S
N13 C10 1.377 . S
N13 C12 1.344 . S
O14 Co6 2.055 . S
O14 C18 1.253 . S
H15 C11 0.931 . S
H16 C12 0.930 . S
O17 Co6 2.039 . S
O17 C7 1.265 . S
C18 O14 1.253 . S
C18 O19 1.227 . S
O19 C18 1.227 . S
N20 Co6 2.140 . S
N20 C23 1.346 1_554 S
N20 C24 1.345 . S
C21 C22 1.387 . S
C21 C25 1.391 . S
C22 C21 1.387 . S
C22 C23 1.369 . S
C22 H31 0.929 . S
C23 N20 1.346 1_556 S
C23 C22 1.369 . S
C23 H26 0.928 . S
C24 N20 1.345 . S
C24 C25 1.371 1_554 S
C24 H27 0.931 . S
C25 C21 1.391 . S
C25 C24 1.371 1_556 S
C25 H32 0.930 . S
H26 C23 0.928 . S
H27 C24 0.931 . S
H28 C4 0.930 . S
H29 C1 0.930 . S
H30 C10 0.930 . S
H31 C22 0.929 . S
H32 C25 0.930 . S
C33 C34 1.351 . S
C33 N36 1.368 . S
C33 H38 0.931 . S
C34 C33 1.351 . S
C34 N35 1.373 . S
C34 H62 0.930 . S
N35 C34 1.373 . S
N35 C37 1.340 . S
N36 C33 1.368 . S
N36 C37 1.321 . S
N36 Co39 2.135 . S
C37 N35 1.340 . S
C37 N36 1.321 . S
C37 H61 0.930 . S
H38 C33 0.931 . S
Co39 N36 2.135 . S
Co39 N42 2.121 . S
Co39 O47 2.055 . S
Co39 O50 2.039 . S
Co39 N53 2.140 . S
C40 O41 1.227 . S
C40 O50 1.265 . S
O41 C40 1.227 . S
N42 Co39 2.121 . S
N42 C44 1.375 . S
N42 C45 1.313 . S
C43 C44 1.338 . S
C43 N46 1.377 . S
C43 H63 0.930 . S
C44 N42 1.375 . S
C44 C43 1.338 . S
C44 H48 0.931 . S
C45 N42 1.313 . S
C45 N46 1.344 . S
C45 H49 0.930 . S
N46 C43 1.377 . S
N46 C45 1.344 . S
O47 Co39 2.055 . S
O47 C51 1.253 . S
H48 C44 0.931 . S
H49 C45 0.930 . S
O50 Co39 2.039 . S
O50 C40 1.265 . S
C51 O47 1.253 . S
C51 O52 1.227 . S
O52 C51 1.227 . S
N53 Co39 2.140 . S
N53 C56 1.346 . S
N53 C57 1.345 . S
C54 C55 1.387 . S
C54 C58 1.391 . S
C55 C54 1.387 . S
C55 C56 1.369 . S
C55 H64 0.929 . S
C56 N53 1.346 . S
C56 C55 1.369 . S
C56 H59 0.928 . S
C57 N53 1.345 . S
C57 C58 1.371 . S
C57 H60 0.931 . S
C58 C54 1.391 . S
C58 C57 1.371 . S
C58 H65 0.930 . S
H59 C56 0.928 . S
H60 C57 0.931 . S
H61 C37 0.930 . S
H62 C34 0.930 . S
H63 C43 0.930 . S
H64 C55 0.929 . S
H65 C58 0.930 . S
C66 C67 1.351 . S
C66 N69 1.368 . S
C66 H71 0.931 . S
C67 C66 1.351 . S
C67 N68 1.373 . S
C67 H95 0.930 . S
N68 C67 1.373 . S
N68 C70 1.340 . S
N69 C66 1.368 . S
N69 C70 1.321 . S
N69 Co72 2.135 . S
C70 N68 1.340 . S
C70 N69 1.321 . S
C70 H94 0.930 . S
H71 C66 0.931 . S
Co72 N69 2.135 . S
Co72 N75 2.121 . S
Co72 O80 2.055 . S
Co72 O83 2.039 . S
Co72 N86 2.140 . S
C73 O74 1.227 . S
C73 O83 1.265 . S
O74 C73 1.227 . S
N75 Co72 2.121 . S
N75 C77 1.375 . S
N75 C78 1.313 . S
C76 C77 1.338 . S
C76 N79 1.377 . S
C76 H96 0.930 . S
C77 N75 1.375 . S
C77 C76 1.338 . S
C77 H81 0.931 . S
C78 N75 1.313 . S
C78 N79 1.344 . S
C78 H82 0.930 . S
N79 C76 1.377 . S
N79 C78 1.344 . S
O80 Co72 2.055 . S
O80 C84 1.253 . S
H81 C77 0.931 . S
H82 C78 0.930 . S
O83 Co72 2.039 . S
O83 C73 1.265 . S
C84 O80 1.253 . S
C84 O85 1.227 . S
O85 C84 1.227 . S
N86 Co72 2.140 . S
N86 C89 1.346 1_556 S
N86 C90 1.345 . S
C87 C88 1.387 . S
C87 C91 1.391 . S
C88 C87 1.387 . S
C88 C89 1.369 . S
C88 H97 0.929 . S
C89 N86 1.346 1_554 S
C89 C88 1.369 . S
C89 H92 0.928 . S
C90 N86 1.345 . S
C90 C91 1.371 1_556 S
C90 H93 0.931 . S
C91 C87 1.391 . S
C91 C90 1.371 1_554 S
C91 H98 0.930 . S
H92 C89 0.928 . S
H93 C90 0.931 . S
H94 C70 0.930 . S
H95 C67 0.930 . S
H96 C76 0.930 . S
H97 C88 0.929 . S
H98 C91 0.930 . S
C99 C100 1.351 . S
C99 N102 1.368 . S
C99 H104 0.931 . S
C100 C99 1.351 . S
C100 N101 1.373 . S
C100 H128 0.930 . S
N101 C100 1.373 . S
N101 C103 1.340 . S
N102 C99 1.368 . S
N102 C103 1.321 . S
N102 Co105 2.135 . S
C103 N101 1.340 . S
C103 N102 1.321 . S
C103 H127 0.930 . S
H104 C99 0.931 . S
Co105 N102 2.135 . S
Co105 N108 2.121 . S
Co105 O113 2.055 . S
Co105 O116 2.039 . S
Co105 N119 2.140 . S
C106 O107 1.227 . S
C106 O116 1.265 . S
O107 C106 1.227 . S
N108 Co105 2.121 . S
N108 C110 1.375 . S
N108 C111 1.313 . S
C109 C110 1.338 . S
C109 N112 1.377 . S
C109 H129 0.930 . S
C110 N108 1.375 . S
C110 C109 1.338 . S
C110 H114 0.931 . S
C111 N108 1.313 . S
C111 N112 1.344 . S
C111 H115 0.930 . S
N112 C109 1.377 . S
N112 C111 1.344 . S
O113 Co105 2.055 . S
O113 C117 1.253 . S
H114 C110 0.931 . S
H115 C111 0.930 . S
O116 Co105 2.039 . S
O116 C106 1.265 . S
C117 O113 1.253 . S
C117 O118 1.227 . S
O118 C117 1.227 . S
N119 Co105 2.140 . S
N119 C122 1.346 . S
N119 C123 1.345 . S
C120 C121 1.387 . S
C120 C124 1.391 . S
C121 C120 1.387 . S
C121 C122 1.369 . S
C121 H130 0.929 . S
C122 N119 1.346 . S
C122 C121 1.369 . S
C122 H125 0.928 . S
C123 N119 1.345 . S
C123 C124 1.371 . S
C123 H126 0.931 . S
C124 C120 1.391 . S
C124 C123 1.371 . S
C124 H131 0.930 . S
H125 C122 0.928 . S
H126 C123 0.931 . S
H127 C103 0.930 . S
H128 C100 0.930 . S
H129 C109 0.930 . S
H130 C121 0.929 . S
H131 C124 0.930 . S
C132 C133 1.351 . S
C132 N135 1.368 . S
C132 H137 0.931 . S
C133 C132 1.351 . S
C133 N134 1.373 . S
C133 H161 0.930 . S
N134 C133 1.373 . S
N134 C136 1.340 . S
N135 C132 1.368 . S
N135 C136 1.321 . S
N135 Co138 2.135 . S
C136 N134 1.340 . S
C136 N135 1.321 . S
C136 H160 0.930 . S
H137 C132 0.931 . S
Co138 N135 2.135 . S
Co138 N141 2.121 . S
Co138 O146 2.055 . S
Co138 O149 2.039 . S
Co138 N152 2.140 . S
C139 O140 1.227 . S
C139 O149 1.265 . S
O140 C139 1.227 . S
N141 Co138 2.121 . S
N141 C143 1.375 . S
N141 C144 1.313 . S
C142 C143 1.338 . S
C142 N145 1.377 . S
C142 H162 0.930 . S
C143 N141 1.375 . S
C143 C142 1.338 . S
C143 H147 0.931 . S
C144 N141 1.313 . S
C144 N145 1.344 . S
C144 H148 0.930 . S
N145 C142 1.377 . S
N145 C144 1.344 . S
O146 Co138 2.055 . S
O146 C150 1.253 . S
H147 C143 0.931 . S
H148 C144 0.930 . S
O149 Co138 2.039 . S
O149 C139 1.265 . S
C150 O146 1.253 . S
C150 O151 1.227 . S
O151 C150 1.227 . S
N152 Co138 2.140 . S
N152 C155 1.346 1_556 S
N152 C156 1.345 . S
C153 C154 1.387 . S
C153 C157 1.391 . S
C154 C153 1.387 . S
C154 C155 1.369 . S
C154 H163 0.929 . S
C155 N152 1.346 1_554 S
C155 C154 1.369 . S
C155 H158 0.928 . S
C156 N152 1.345 . S
C156 C157 1.371 1_556 S
C156 H159 0.931 . S
C157 C153 1.391 . S
C157 C156 1.371 1_554 S
C157 H164 0.930 . S
H158 C155 0.928 . S
H159 C156 0.931 . S
H160 C136 0.930 . S
H161 C133 0.930 . S
H162 C142 0.930 . S
H163 C154 0.929 . S
H164 C157 0.930 . S
C165 C166 1.351 . S
C165 N168 1.368 . S
C165 H170 0.931 . S
C166 C165 1.351 . S
C166 N167 1.373 . S
C166 H194 0.930 . S
N167 C166 1.373 . S
N167 C169 1.340 . S
N168 C165 1.368 . S
N168 C169 1.321 . S
N168 Co171 2.135 . S
C169 N167 1.340 . S
C169 N168 1.321 . S
C169 H193 0.930 . S
H170 C165 0.931 . S
Co171 N168 2.135 . S
Co171 N174 2.121 . S
Co171 O179 2.055 . S
Co171 O182 2.039 . S
Co171 N185 2.140 . S
C172 O173 1.227 . S
C172 O182 1.265 . S
O173 C172 1.227 . S
N174 Co171 2.121 . S
N174 C176 1.375 . S
N174 C177 1.313 . S
C175 C176 1.338 . S
C175 N178 1.377 . S
C175 H195 0.930 . S
C176 N174 1.375 . S
C176 C175 1.338 . S
C176 H180 0.931 . S
C177 N174 1.313 . S
C177 N178 1.344 . S
C177 H181 0.930 . S
N178 C175 1.377 . S
N178 C177 1.344 . S
O179 Co171 2.055 . S
O179 C183 1.253 . S
H180 C176 0.931 . S
H181 C177 0.930 . S
O182 Co171 2.039 . S
O182 C172 1.265 . S
C183 O179 1.253 . S
C183 O184 1.227 . S
O184 C183 1.227 . S
N185 Co171 2.140 . S
N185 C188 1.346 . S
N185 C189 1.345 . S
C186 C187 1.387 . S
C186 C190 1.391 . S
C187 C186 1.387 . S
C187 C188 1.369 . S
C187 H196 0.929 . S
C188 N185 1.346 . S
C188 C187 1.369 . S
C188 H191 0.928 . S
C189 N185 1.345 . S
C189 C190 1.371 . S
C189 H192 0.931 . S
C190 C186 1.391 . S
C190 C189 1.371 . S
C190 H197 0.930 . S
H191 C188 0.928 . S
H192 C189 0.931 . S
H193 C169 0.930 . S
H194 C166 0.930 . S
H195 C175 0.930 . S
H196 C187 0.929 . S
H197 C190 0.930 . S
C198 C199 1.351 . S
C198 N201 1.368 . S
C198 H203 0.931 . S
C199 C198 1.351 . S
C199 N200 1.373 . S
C199 H227 0.930 . S
N200 C199 1.373 . S
N200 C202 1.340 . S
N201 C198 1.368 . S
N201 C202 1.321 . S
N201 Co204 2.135 . S
C202 N200 1.340 . S
C202 N201 1.321 . S
C202 H226 0.930 . S
H203 C198 0.931 . S
Co204 N201 2.135 . S
Co204 N207 2.121 . S
Co204 O212 2.055 . S
Co204 O215 2.039 . S
Co204 N218 2.140 . S
C205 O206 1.227 . S
C205 O215 1.265 . S
O206 C205 1.227 . S
N207 Co204 2.121 . S
N207 C209 1.375 . S
N207 C210 1.313 . S
C208 C209 1.338 . S
C208 N211 1.377 . S
C208 H228 0.930 . S
C209 N207 1.375 . S
C209 C208 1.338 . S
C209 H213 0.931 . S
C210 N207 1.313 . S
C210 N211 1.344 . S
C210 H214 0.930 . S
N211 C208 1.377 . S
N211 C210 1.344 . S
O212 Co204 2.055 . S
O212 C216 1.253 . S
H213 C209 0.931 . S
H214 C210 0.930 . S
O215 Co204 2.039 . S
O215 C205 1.265 . S
C216 O212 1.253 . S
C216 O217 1.227 . S
O217 C216 1.227 . S
N218 Co204 2.140 . S
N218 C221 1.346 1_554 S
N218 C222 1.345 . S
C219 C220 1.387 . S
C219 C223 1.391 . S
C220 C219 1.387 . S
C220 C221 1.369 . S
C220 H229 0.929 . S
C221 N218 1.346 1_556 S
C221 C220 1.369 . S
C221 H224 0.928 . S
C222 N218 1.345 . S
C222 C223 1.371 1_554 S
C222 H225 0.931 . S
C223 C219 1.391 . S
C223 C222 1.371 1_556 S
C223 H230 0.930 . S
H224 C221 0.928 . S
H225 C222 0.931 . S
H226 C202 0.930 . S
H227 C199 0.930 . S
H228 C208 0.930 . S
H229 C220 0.929 . S
H230 C223 0.930 . S
C231 C232 1.351 . S
C231 N234 1.368 . S
C231 H236 0.931 . S
C232 C231 1.351 . S
C232 N233 1.373 . S
C232 H260 0.930 . S
N233 C232 1.373 . S
N233 C235 1.340 . S
N234 C231 1.368 . S
N234 C235 1.321 . S
N234 Co237 2.135 . S
C235 N233 1.340 . S
C235 N234 1.321 . S
C235 H259 0.930 . S
H236 C231 0.931 . S
Co237 N234 2.135 . S
Co237 N240 2.121 . S
Co237 O245 2.055 . S
Co237 O248 2.039 . S
Co237 N251 2.140 . S
C238 O239 1.227 . S
C238 O248 1.265 . S
O239 C238 1.227 . S
N240 Co237 2.121 . S
N240 C242 1.375 . S
N240 C243 1.313 . S
C241 C242 1.338 . S
C241 N244 1.377 . S
C241 H261 0.930 . S
C242 N240 1.375 . S
C242 C241 1.338 . S
C242 H246 0.931 . S
C243 N240 1.313 . S
C243 N244 1.344 . S
C243 H247 0.930 . S
N244 C241 1.377 . S
N244 C243 1.344 . S
O245 Co237 2.055 . S
O245 C249 1.253 . S
H246 C242 0.931 . S
H247 C243 0.930 . S
O248 Co237 2.039 . S
O248 C238 1.265 . S
C249 O245 1.253 . S
C249 O250 1.227 . S
O250 C249 1.227 . S
N251 Co237 2.140 . S
N251 C254 1.346 . S
N251 C255 1.345 . S
C252 C253 1.387 . S
C252 C256 1.391 . S
C253 C252 1.387 . S
C253 C254 1.369 . S
C253 H262 0.929 . S
C254 N251 1.346 . S
C254 C253 1.369 . S
C254 H257 0.928 . S
C255 N251 1.345 . S
C255 C256 1.371 . S
C255 H258 0.931 . S
C256 C252 1.391 . S
C256 C255 1.371 . S
C256 H263 0.930 . S
H257 C254 0.928 . S
H258 C255 0.931 . S
H259 C235 0.930 . S
H260 C232 0.930 . S
H261 C241 0.930 . S
H262 C253 0.929 . S
H263 C256 0.930 . S
C264 C265 1.351 . S
C264 N267 1.368 . S
C264 H269 0.931 . S
C265 C264 1.351 . S
C265 N266 1.373 . S
C265 H293 0.930 . S
N266 C265 1.373 . S
N266 C268 1.340 . S
N267 C264 1.368 . S
N267 C268 1.321 . S
N267 Co270 2.135 . S
C268 N266 1.340 . S
C268 N267 1.321 . S
C268 H292 0.930 . S
H269 C264 0.931 . S
Co270 N267 2.135 . S
Co270 N273 2.121 . S
Co270 O278 2.055 . S
Co270 O281 2.039 . S
Co270 N284 2.140 . S
C271 O272 1.227 . S
C271 O281 1.265 . S
O272 C271 1.227 . S
N273 Co270 2.121 . S
N273 C275 1.375 . S
N273 C276 1.313 . S
C274 C275 1.338 . S
C274 N277 1.377 . S
C274 H294 0.930 . S
C275 N273 1.375 . S
C275 C274 1.338 . S
C275 H279 0.931 . S
C276 N273 1.313 . S
C276 N277 1.344 . S
C276 H280 0.930 . S
N277 C274 1.377 . S
N277 C276 1.344 . S
O278 Co270 2.055 . S
O278 C282 1.253 . S
H279 C275 0.931 . S
H280 C276 0.930 . S
O281 Co270 2.039 . S
O281 C271 1.265 . S
C282 O278 1.253 . S
C282 O283 1.227 . S
O283 C282 1.227 . S
N284 Co270 2.140 . S
N284 C287 1.346 1_554 S
N284 C288 1.345 . S
C285 C286 1.387 . S
C285 C289 1.391 . S
C286 C285 1.387 . S
C286 C287 1.369 . S
C286 H295 0.929 . S
C287 N284 1.346 1_556 S
C287 C286 1.369 . S
C287 H290 0.928 . S
C288 N284 1.345 . S
C288 C289 1.371 1_554 S
C288 H291 0.931 . S
C289 C285 1.391 . S
C289 C288 1.371 1_556 S
C289 H296 0.930 . S
H290 C287 0.928 . S
H291 C288 0.931 . S
H292 C268 0.930 . S
H293 C265 0.930 . S
H294 C274 0.930 . S
H295 C286 0.929 . S
H296 C289 0.930 . S
C297 C298 1.351 . S
C297 N300 1.368 . S
C297 H302 0.931 . S
C298 C297 1.351 . S
C298 N299 1.373 . S
C298 H326 0.930 . S
N299 C298 1.373 . S
N299 C301 1.340 . S
N300 C297 1.368 . S
N300 C301 1.321 . S
N300 Co303 2.135 . S
C301 N299 1.340 . S
C301 N300 1.321 . S
C301 H325 0.930 . S
H302 C297 0.931 . S
Co303 N300 2.135 . S
Co303 N306 2.121 . S
Co303 O311 2.055 . S
Co303 O314 2.039 . S
Co303 N317 2.140 . S
C304 O305 1.227 . S
C304 O314 1.265 . S
O305 C304 1.227 . S
N306 Co303 2.121 . S
N306 C308 1.375 . S
N306 C309 1.313 . S
C307 C308 1.338 . S
C307 N310 1.377 . S
C307 H327 0.930 . S
C308 N306 1.375 . S
C308 C307 1.338 . S
C308 H312 0.931 . S
C309 N306 1.313 . S
C309 N310 1.344 . S
C309 H313 0.930 . S
N310 C307 1.377 . S
N310 C309 1.344 . S
O311 Co303 2.055 . S
O311 C315 1.253 . S
H312 C308 0.931 . S
H313 C309 0.930 . S
O314 Co303 2.039 . S
O314 C304 1.265 . S
C315 O311 1.253 . S
C315 O316 1.227 . S
O316 C315 1.227 . S
N317 Co303 2.140 . S
N317 C320 1.346 . S
N317 C321 1.345 . S
C318 C319 1.387 . S
C318 C322 1.391 . S
C319 C318 1.387 . S
C319 C320 1.369 . S
C319 H328 0.929 . S
C320 N317 1.346 . S
C320 C319 1.369 . S
C320 H323 0.928 . S
C321 N317 1.345 . S
C321 C322 1.371 . S
C321 H324 0.931 . S
C322 C318 1.391 . S
C322 C321 1.371 . S
C322 H329 0.930 . S
H323 C320 0.928 . S
H324 C321 0.931 . S
H325 C301 0.930 . S
H326 C298 0.930 . S
H327 C307 0.930 . S
H328 C319 0.929 . S
H329 C322 0.930 . S
C330 C331 1.351 . S
C330 N333 1.368 . S
C330 H335 0.931 . S
C331 C330 1.351 . S
C331 N332 1.373 . S
C331 H359 0.930 . S
N332 C331 1.373 . S
N332 C334 1.340 . S
N333 C330 1.368 . S
N333 C334 1.321 . S
N333 Co336 2.135 . S
C334 N332 1.340 . S
C334 N333 1.321 . S
C334 H358 0.930 . S
H335 C330 0.931 . S
Co336 N333 2.135 . S
Co336 N339 2.121 . S
Co336 O344 2.055 . S
Co336 O347 2.039 . S
Co336 N350 2.140 . S
C337 O338 1.227 . S
C337 O347 1.265 . S
O338 C337 1.227 . S
N339 Co336 2.121 . S
N339 C341 1.375 . S
N339 C342 1.313 . S
C340 C341 1.338 . S
C340 N343 1.377 . S
C340 H360 0.930 . S
C341 N339 1.375 . S
C341 C340 1.338 . S
C341 H345 0.931 . S
C342 N339 1.313 . S
C342 N343 1.344 . S
C342 H346 0.930 . S
N343 C340 1.377 . S
N343 C342 1.344 . S
O344 Co336 2.055 . S
O344 C348 1.253 . S
H345 C341 0.931 . S
H346 C342 0.930 . S
O347 Co336 2.039 . S
O347 C337 1.265 . S
C348 O344 1.253 . S
C348 O349 1.227 . S
O349 C348 1.227 . S
N350 Co336 2.140 . S
N350 C353 1.346 1_556 S
N350 C354 1.345 . S
C351 C352 1.387 . S
C351 C355 1.391 . S
C352 C351 1.387 . S
C352 C353 1.369 . S
C352 H361 0.929 . S
C353 N350 1.346 1_554 S
C353 C352 1.369 . S
C353 H356 0.928 . S
C354 N350 1.345 . S
C354 C355 1.371 1_556 S
C354 H357 0.931 . S
C355 C351 1.391 . S
C355 C354 1.371 1_554 S
C355 H362 0.930 . S
H356 C353 0.928 . S
H357 C354 0.931 . S
H358 C334 0.930 . S
H359 C331 0.930 . S
H360 C340 0.930 . S
H361 C352 0.929 . S
H362 C355 0.930 . S
C363 C364 1.351 . S
C363 N366 1.368 . S
C363 H368 0.931 . S
C364 C363 1.351 . S
C364 N365 1.373 . S
C364 H392 0.930 . S
N365 C364 1.373 . S
N365 C367 1.340 . S
N366 C363 1.368 . S
N366 C367 1.321 . S
N366 Co369 2.135 . S
C367 N365 1.340 . S
C367 N366 1.321 . S
C367 H391 0.930 . S
H368 C363 0.931 . S
Co369 N366 2.135 . S
Co369 N372 2.121 . S
Co369 O377 2.055 . S
Co369 O380 2.039 . S
Co369 N383 2.140 . S
C370 O371 1.227 . S
C370 O380 1.265 . S
O371 C370 1.227 . S
N372 Co369 2.121 . S
N372 C374 1.375 . S
N372 C375 1.313 . S
C373 C374 1.338 . S
C373 N376 1.377 . S
C373 H393 0.930 . S
C374 N372 1.375 . S
C374 C373 1.338 . S
C374 H378 0.931 . S
C375 N372 1.313 . S
C375 N376 1.344 . S
C375 H379 0.930 . S
N376 C373 1.377 . S
N376 C375 1.344 . S
O377 Co369 2.055 . S
O377 C381 1.253 . S
H378 C374 0.931 . S
H379 C375 0.930 . S
O380 Co369 2.039 . S
O380 C370 1.265 . S
C381 O377 1.253 . S
C381 O382 1.227 . S
O382 C381 1.227 . S
N383 Co369 2.140 . S
N383 C386 1.346 . S
N383 C387 1.345 . S
C384 C385 1.387 . S
C384 C388 1.391 . S
C385 C384 1.387 . S
C385 C386 1.369 . S
C385 H394 0.929 . S
C386 N383 1.346 . S
C386 C385 1.369 . S
C386 H389 0.928 . S
C387 N383 1.345 . S
C387 C388 1.371 . S
C387 H390 0.931 . S
C388 C384 1.391 . S
C388 C387 1.371 . S
C388 H395 0.930 . S
H389 C386 0.928 . S
H390 C387 0.931 . S
H391 C367 0.930 . S
H392 C364 0.930 . S
H393 C373 0.930 . S
H394 C385 0.929 . S
H395 C388 0.930 . S
C396 C397 1.351 . S
C396 N399 1.368 . S
C396 H401 0.931 . S
C397 C396 1.351 . S
C397 N398 1.373 . S
C397 H425 0.930 . S
N398 C397 1.373 . S
N398 C400 1.340 . S
N399 C396 1.368 . S
N399 C400 1.321 . S
N399 Co402 2.135 . S
C400 N398 1.340 . S
C400 N399 1.321 . S
C400 H424 0.930 . S
H401 C396 0.931 . S
Co402 N399 2.135 . S
Co402 N405 2.121 . S
Co402 O410 2.055 . S
Co402 O413 2.039 . S
Co402 N416 2.140 . S
C403 O404 1.227 . S
C403 O413 1.265 . S
O404 C403 1.227 . S
N405 Co402 2.121 . S
N405 C407 1.375 . S
N405 C408 1.313 . S
C406 C407 1.338 . S
C406 N409 1.377 . S
C406 H426 0.930 . S
C407 N405 1.375 . S
C407 C406 1.338 . S
C407 H411 0.931 . S
C408 N405 1.313 . S
C408 N409 1.344 . S
C408 H412 0.930 . S
N409 C406 1.377 . S
N409 C408 1.344 . S
O410 Co402 2.055 . S
O410 C414 1.253 . S
H411 C407 0.931 . S
H412 C408 0.930 . S
O413 Co402 2.039 . S
O413 C403 1.265 . S
C414 O410 1.253 . S
C414 O415 1.227 . S
O415 C414 1.227 . S
N416 Co402 2.140 . S
N416 C419 1.346 1_556 S
N416 C420 1.345 . S
C417 C418 1.387 . S
C417 C421 1.391 . S
C418 C417 1.387 . S
C418 C419 1.369 . S
C418 H427 0.929 . S
C419 N416 1.346 1_554 S
C419 C418 1.369 . S
C419 H422 0.928 . S
C420 N416 1.345 . S
C420 C421 1.371 1_556 S
C420 H423 0.931 . S
C421 C417 1.391 . S
C421 C420 1.371 1_554 S
C421 H428 0.930 . S
H422 C419 0.928 . S
H423 C420 0.931 . S
H424 C400 0.930 . S
H425 C397 0.930 . S
H426 C406 0.930 . S
H427 C418 0.929 . S
H428 C421 0.930 . S
C429 C430 1.351 . S
C429 N432 1.368 . S
C429 H434 0.931 . S
C430 C429 1.351 . S
C430 N431 1.373 . S
C430 H458 0.930 . S
N431 C430 1.373 . S
N431 C433 1.340 . S
N432 C429 1.368 . S
N432 C433 1.321 . S
N432 Co435 2.135 . S
C433 N431 1.340 . S
C433 N432 1.321 . S
C433 H457 0.930 . S
H434 C429 0.931 . S
Co435 N432 2.135 . S
Co435 N438 2.121 . S
Co435 O443 2.055 . S
Co435 O446 2.039 . S
Co435 N449 2.140 . S
C436 O437 1.227 . S
C436 O446 1.265 . S
O437 C436 1.227 . S
N438 Co435 2.121 . S
N438 C440 1.375 . S
N438 C441 1.313 . S
C439 C440 1.338 . S
C439 N442 1.377 . S
C439 H459 0.930 . S
C440 N438 1.375 . S
C440 C439 1.338 . S
C440 H444 0.931 . S
C441 N438 1.313 . S
C441 N442 1.344 . S
C441 H445 0.930 . S
N442 C439 1.377 . S
N442 C441 1.344 . S
O443 Co435 2.055 . S
O443 C447 1.253 . S
H444 C440 0.931 . S
H445 C441 0.930 . S
O446 Co435 2.039 . S
O446 C436 1.265 . S
C447 O443 1.253 . S
C447 O448 1.227 . S
O448 C447 1.227 . S
N449 Co435 2.140 . S
N449 C452 1.346 . S
N449 C453 1.345 . S
C450 C451 1.387 . S
C450 C454 1.391 . S
C451 C450 1.387 . S
C451 C452 1.369 . S
C451 H460 0.929 . S
C452 N449 1.346 . S
C452 C451 1.369 . S
C452 H455 0.928 . S
C453 N449 1.345 . S
C453 C454 1.371 . S
C453 H456 0.931 . S
C454 C450 1.391 . S
C454 C453 1.371 . S
C454 H461 0.930 . S
H455 C452 0.928 . S
H456 C453 0.931 . S
H457 C433 0.930 . S
H458 C430 0.930 . S
H459 C439 0.930 . S
H460 C451 0.929 . S
H461 C454 0.930 . S
C462 C463 1.351 . S
C462 N465 1.368 . S
C462 H467 0.931 . S
C463 C462 1.351 . S
C463 N464 1.373 . S
C463 H491 0.930 . S
N464 C463 1.373 . S
N464 C466 1.340 . S
N465 C462 1.368 . S
N465 C466 1.321 . S
N465 Co468 2.135 . S
C466 N464 1.340 . S
C466 N465 1.321 . S
C466 H490 0.930 . S
H467 C462 0.931 . S
Co468 N465 2.135 . S
Co468 N471 2.121 . S
Co468 O476 2.055 . S
Co468 O479 2.039 . S
Co468 N482 2.140 . S
C469 O470 1.227 . S
C469 O479 1.265 . S
O470 C469 1.227 . S
N471 Co468 2.121 . S
N471 C473 1.375 . S
N471 C474 1.313 . S
C472 C473 1.338 . S
C472 N475 1.377 . S
C472 H492 0.930 . S
C473 N471 1.375 . S
C473 C472 1.338 . S
C473 H477 0.931 . S
C474 N471 1.313 . S
C474 N475 1.344 . S
C474 H478 0.930 . S
N475 C472 1.377 . S
N475 C474 1.344 . S
O476 Co468 2.055 . S
O476 C480 1.253 . S
H477 C473 0.931 . S
H478 C474 0.930 . S
O479 Co468 2.039 . S
O479 C469 1.265 . S
C480 O476 1.253 . S
C480 O481 1.227 . S
O481 C480 1.227 . S
N482 Co468 2.140 . S
N482 C485 1.346 1_554 S
N482 C486 1.345 . S
C483 C484 1.387 . S
C483 C487 1.391 . S
C484 C483 1.387 . S
C484 C485 1.369 . S
C484 H493 0.929 . S
C485 N482 1.346 1_556 S
C485 C484 1.369 . S
C485 H488 0.928 . S
C486 N482 1.345 . S
C486 C487 1.371 1_554 S
C486 H489 0.931 . S
C487 C483 1.391 . S
C487 C486 1.371 1_556 S
C487 H494 0.930 . S
H488 C485 0.928 . S
H489 C486 0.931 . S
H490 C466 0.930 . S
H491 C463 0.930 . S
H492 C472 0.930 . S
H493 C484 0.929 . S
H494 C487 0.930 . S
C495 C496 1.351 . S
C495 N498 1.368 . S
C495 H500 0.931 . S
C496 C495 1.351 . S
C496 N497 1.373 . S
C496 H524 0.930 . S
N497 C496 1.373 . S
N497 C499 1.340 . S
N498 C495 1.368 . S
N498 C499 1.321 . S
N498 Co501 2.135 . S
C499 N497 1.340 . S
C499 N498 1.321 . S
C499 H523 0.930 . S
H500 C495 0.931 . S
Co501 N498 2.135 . S
Co501 N504 2.121 . S
Co501 O509 2.055 . S
Co501 O512 2.039 . S
Co501 N515 2.140 . S
C502 O503 1.227 . S
C502 O512 1.265 . S
O503 C502 1.227 . S
N504 Co501 2.121 . S
N504 C506 1.375 . S
N504 C507 1.313 . S
C505 C506 1.338 . S
C505 N508 1.377 . S
C505 H525 0.930 . S
C506 N504 1.375 . S
C506 C505 1.338 . S
C506 H510 0.931 . S
C507 N504 1.313 . S
C507 N508 1.344 . S
C507 H511 0.930 . S
N508 C505 1.377 . S
N508 C507 1.344 . S
O509 Co501 2.055 . S
O509 C513 1.253 . S
H510 C506 0.931 . S
H511 C507 0.930 . S
O512 Co501 2.039 . S
O512 C502 1.265 . S
C513 O509 1.253 . S
C513 O514 1.227 . S
O514 C513 1.227 . S
N515 Co501 2.140 . S
N515 C518 1.346 . S
N515 C519 1.345 . S
C516 C517 1.387 . S
C516 C520 1.391 . S
C517 C516 1.387 . S
C517 C518 1.369 . S
C517 H526 0.929 . S
C518 N515 1.346 . S
C518 C517 1.369 . S
C518 H521 0.928 . S
C519 N515 1.345 . S
C519 C520 1.371 . S
C519 H522 0.931 . S
C520 C516 1.391 . S
C520 C519 1.371 . S
C520 H527 0.930 . S
H521 C518 0.928 . S
H522 C519 0.931 . S
H523 C499 0.930 . S
H524 C496 0.930 . S
H525 C505 0.930 . S
H526 C517 0.929 . S
H527 C520 0.930 . S
C528 C529 1.387 . S
C528 H532 0.950 . S
C528 C537 1.390 . S
C529 C528 1.387 . S
C529 C531 1.387 . S
H530 C537 0.950 . S
C531 C529 1.387 . S
C531 C533 1.390 . S
C531 H535 0.950 . S
H532 C528 0.950 . S
C533 C531 1.390 . S
C533 C534 1.387 . S
C533 H536 0.950 . S
C534 C533 1.387 . S
C534 C537 1.387 . S
H535 C531 0.950 . S
H536 C533 0.950 . S
C537 C528 1.390 . S
C537 H530 0.950 . S
C537 C534 1.387 . S
C538 C539 1.387 . S
C538 H542 0.950 . S
C538 C547 1.390 . S
C539 C538 1.387 . S
C539 C541 1.387 . S
H540 C547 0.950 . S
C541 C539 1.387 . S
C541 C543 1.390 . S
C541 H545 0.950 . S
H542 C538 0.950 . S
C543 C541 1.390 . S
C543 C544 1.387 . S
C543 H546 0.950 . S
C544 C543 1.387 . S
C544 C547 1.387 . S
H545 C541 0.950 . S
H546 C543 0.950 . S
C547 C538 1.390 . S
C547 H540 0.950 . S
C547 C544 1.387 . S
C548 C549 1.387 . S
C548 H552 0.950 . S
C548 C557 1.390 . S
C549 C548 1.387 . S
C549 C551 1.387 . S
H550 C557 0.950 . S
C551 C549 1.387 . S
C551 C553 1.390 . S
C551 H555 0.950 . S
H552 C548 0.950 . S
C553 C551 1.390 . S
C553 C554 1.387 . S
C553 H556 0.950 . S
C554 C553 1.387 . S
C554 C557 1.387 . S
H555 C551 0.950 . S
H556 C553 0.950 . S
C557 C548 1.390 . S
C557 H550 0.950 . S
C557 C554 1.387 . S
C558 C559 1.387 . S
C558 H562 0.950 . S
C558 C567 1.390 . S
C559 C558 1.387 . S
C559 C561 1.387 . S
H560 C567 0.950 . S
C561 C559 1.387 . S
C561 C563 1.390 . S
C561 H565 0.950 . S
H562 C558 0.950 . S
C563 C561 1.390 . S
C563 C564 1.387 . S
C563 H566 0.950 . S
C564 C563 1.387 . S
C564 C567 1.387 . S
H565 C561 0.950 . S
H566 C563 0.950 . S
C567 C558 1.390 . S
C567 H560 0.950 . S
C567 C564 1.387 . S
C568 C569 1.387 . S
C568 H572 0.950 . S
C568 C577 1.390 . S
C569 C568 1.387 . S
C569 C571 1.387 . S
H570 C577 0.950 . S
C571 C569 1.387 . S
C571 C573 1.390 . S
C571 H575 0.950 . S
H572 C568 0.950 . S
C573 C571 1.390 . S
C573 C574 1.387 . S
C573 H576 0.950 . S
C574 C573 1.387 . S
C574 C577 1.387 . S
H575 C571 0.950 . S
H576 C573 0.950 . S
C577 C568 1.390 . S
C577 H570 0.950 . S
C577 C574 1.387 . S
C578 C579 1.387 . S
C578 H582 0.950 . S
C578 C587 1.390 . S
C579 C578 1.387 . S
C579 C581 1.387 . S
H580 C587 0.950 . S
C581 C579 1.387 . S
C581 C583 1.390 . S
C581 H585 0.950 . S
H582 C578 0.950 . S
C583 C581 1.390 . S
C583 C584 1.387 . S
C583 H586 0.950 . S
C584 C583 1.387 . S
C584 C587 1.387 . S
H585 C581 0.950 . S
H586 C583 0.950 . S
C587 C578 1.390 . S
C587 H580 0.950 . S
C587 C584 1.387 . S
C588 C589 1.387 . S
C588 H592 0.950 . S
C588 C597 1.390 . S
C589 C588 1.387 . S
C589 C591 1.387 . S
H590 C597 0.950 . S
C591 C589 1.387 . S
C591 C593 1.390 . S
C591 H595 0.950 . S
H592 C588 0.950 . S
C593 C591 1.390 . S
C593 C594 1.387 . S
C593 H596 0.950 . S
C594 C593 1.387 . S
C594 C597 1.387 . S
H595 C591 0.950 . S
H596 C593 0.950 . S
C597 C588 1.390 . S
C597 H590 0.950 . S
C597 C594 1.387 . S
C598 C599 1.387 . S
C598 H602 0.950 . S
C598 C607 1.390 . S
C599 C598 1.387 . S
C599 C601 1.387 . S
H600 C607 0.950 . S
C601 C599 1.387 . S
C601 C603 1.390 . S
C601 H605 0.950 . S
H602 C598 0.950 . S
C603 C601 1.390 . S
C603 C604 1.387 . S
C603 H606 0.950 . S
C604 C603 1.387 . S
C604 C607 1.387 . S
H605 C601 0.950 . S
H606 C603 0.950 . S
C607 C598 1.390 . S
C607 H600 0.950 . S
C607 C604 1.387 . S
C608 C609 1.387 . S
C608 H612 0.950 . S
C608 C617 1.390 1_655 S
C609 C608 1.387 . S
C609 C611 1.387 . S
H610 C617 0.950 . S
C611 C609 1.387 . S
C611 C613 1.390 1_655 S
C611 H615 0.950 1_554 S
H612 C608 0.950 . S
C613 C611 1.390 1_455 S
C613 C614 1.387 . S
C613 H616 0.950 1_554 S
C614 C613 1.387 . S
C614 C617 1.387 . S
H615 C611 0.950 1_556 S
H616 C613 0.950 1_556 S
C617 C608 1.390 1_455 S
C617 H610 0.950 . S
C617 C614 1.387 . S
C618 C619 1.387 . S
C618 H622 0.950 . S
C618 C627 1.390 . S
C619 C618 1.387 . S
C619 C621 1.387 . S
H620 C627 0.950 . S
C621 C619 1.387 . S
C621 C623 1.390 . S
C621 H625 0.950 . S
H622 C618 0.950 . S
C623 C621 1.390 . S
C623 C624 1.387 . S
C623 H626 0.950 . S
C624 C623 1.387 . S
C624 C627 1.387 . S
H625 C621 0.950 . S
H626 C623 0.950 . S
C627 C618 1.390 . S
C627 H620 0.950 . S
C627 C624 1.387 . S
C628 C629 1.387 . S
C628 H632 0.950 . S
C628 C637 1.390 1_655 S
C629 C628 1.387 . S
C629 C631 1.387 . S
H630 C637 0.950 . S
C631 C629 1.387 . S
C631 C633 1.390 1_655 S
C631 H635 0.950 . S
H632 C628 0.950 . S
C633 C631 1.390 1_455 S
C633 C634 1.387 . S
C633 H636 0.950 . S
C634 C633 1.387 . S
C634 C637 1.387 . S
H635 C631 0.950 . S
H636 C633 0.950 . S
C637 C628 1.390 1_455 S
C637 H630 0.950 . S
C637 C634 1.387 . S
C638 C639 1.387 . S
C638 H642 0.950 . S
C638 C647 1.390 . S
C639 C638 1.387 . S
C639 C641 1.387 . S
H640 C647 0.950 . S
C641 C639 1.387 . S
C641 C643 1.390 . S
C641 H645 0.950 . S
H642 C638 0.950 . S
C643 C641 1.390 . S
C643 C644 1.387 . S
C643 H646 0.950 . S
C644 C643 1.387 . S
C644 C647 1.387 . S
H645 C641 0.950 . S
H646 C643 0.950 . S
C647 C638 1.390 . S
C647 H640 0.950 . S
C647 C644 1.387 . S
C648 C649 1.387 . S
C648 H652 0.950 . S
C648 C657 1.390 . S
C649 C648 1.387 . S
C649 C651 1.387 . S
H650 C657 0.950 . S
C651 C649 1.387 . S
C651 C653 1.390 . S
C651 H655 0.950 . S
H652 C648 0.950 . S
C653 C651 1.390 . S
C653 C654 1.387 . S
C653 H656 0.950 . S
C654 C653 1.387 . S
C654 C657 1.387 . S
H655 C651 0.950 . S
H656 C653 0.950 . S
C657 C648 1.390 . S
C657 H650 0.950 . S
C657 C654 1.387 . S
C658 C659 1.387 . S
C658 H662 0.950 . S
C658 C667 1.390 1_455 S
C659 C658 1.387 . S
C659 C661 1.387 . S
H660 C667 0.950 . S
C661 C659 1.387 . S
C661 C663 1.390 1_455 S
C661 H665 0.950 . S
H662 C658 0.950 . S
C663 C661 1.390 1_655 S
C663 C664 1.387 . S
C663 H666 0.950 . S
C664 C663 1.387 . S
C664 C667 1.387 . S
H665 C661 0.950 . S
H666 C663 0.950 . S
C667 C658 1.390 1_655 S
C667 H660 0.950 . S
C667 C664 1.387 . S
C668 C669 1.387 . S
C668 H672 0.950 . S
C668 C677 1.390 . S
C669 C668 1.387 . S
C669 C671 1.387 . S
H670 C677 0.950 . S
C671 C669 1.387 . S
C671 C673 1.390 . S
C671 H675 0.950 1_556 S
H672 C668 0.950 . S
C673 C671 1.390 . S
C673 C674 1.387 . S
C673 H676 0.950 1_556 S
C674 C673 1.387 . S
C674 C677 1.387 . S
H675 C671 0.950 1_554 S
H676 C673 0.950 1_554 S
C677 C668 1.390 . S
C677 H670 0.950 . S
C677 C674 1.387 . S
C678 C679 1.387 . S
C678 H682 0.950 . S
C678 C687 1.390 1_655 S
C679 C678 1.387 . S
C679 C681 1.387 . S
H680 C687 0.950 . S
C681 C679 1.387 . S
C681 C683 1.390 1_655 S
C681 H685 0.950 . S
H682 C678 0.950 . S
C683 C681 1.390 1_455 S
C683 C684 1.387 . S
C683 H686 0.950 . S
C684 C683 1.387 . S
C684 C687 1.387 . S
H685 C681 0.950 . S
H686 C683 0.950 . S
C687 C678 1.390 1_455 S
C687 H680 0.950 . S
C687 C684 1.387 . S
C688 C689 1.387 . S
C688 H692 0.950 . S
C688 C697 1.390 1_544 S
C689 C688 1.387 . S
C689 C691 1.387 . S
H690 C697 0.950 . S
C691 C689 1.387 . S
C691 C693 1.390 1_544 S
C691 H695 0.950 . S
H692 C688 0.950 . S
C693 C691 1.390 1_566 S
C693 C694 1.387 . S
C693 H696 0.950 . S
C694 C693 1.387 . S
C694 C697 1.387 . S
H695 C691 0.950 . S
H696 C693 0.950 . S
C697 C688 1.390 1_566 S
C697 H690 0.950 . S
C697 C694 1.387 . S
C698 C699 1.387 . S
C698 H702 0.950 . S
C698 C707 1.390 1_565 S
C699 C698 1.387 . S
C699 C701 1.387 . S
H700 C707 0.950 . S
C701 C699 1.387 . S
C701 C703 1.390 1_565 S
C701 H705 0.950 . S
H702 C698 0.950 . S
C703 C701 1.390 1_545 S
C703 C704 1.387 . S
C703 H706 0.950 . S
C704 C703 1.387 . S
C704 C707 1.387 . S
H705 C701 0.950 . S
H706 C703 0.950 . S
C707 C698 1.390 1_545 S
C707 H700 0.950 . S
C707 C704 1.387 . S
C708 C709 1.387 . S
C708 H712 0.950 . S
C708 C717 1.390 1_566 S
C709 C708 1.387 . S
C709 C711 1.387 . S
H710 C717 0.950 . S
C711 C709 1.387 . S
C711 C713 1.390 1_566 S
C711 H715 0.950 . S
H712 C708 0.950 . S
C713 C711 1.390 1_544 S
C713 C714 1.387 . S
C713 H716 0.950 . S
C714 C713 1.387 . S
C714 C717 1.387 . S
H715 C711 0.950 . S
H716 C713 0.950 . S
C717 C708 1.390 1_544 S
C717 H710 0.950 . S
C717 C714 1.387 . S
C718 C719 1.387 . S
C718 H722 0.950 . S
C718 C727 1.390 1_545 S
C719 C718 1.387 . S
C719 C721 1.387 . S
H720 C727 0.950 . S
C721 C719 1.387 . S
C721 C723 1.390 1_545 S
C721 H725 0.950 . S
H722 C718 0.950 . S
C723 C721 1.390 1_565 S
C723 C724 1.387 . S
C723 H726 0.950 . S
C724 C723 1.387 . S
C724 C727 1.387 . S
H725 C721 0.950 . S
H726 C723 0.950 . S
C727 C718 1.390 1_565 S
C727 H720 0.950 . S
C727 C724 1.387 . S
C728 C729 1.387 . S
C728 H732 0.950 . S
C728 C737 1.390 1_554 S
C729 C728 1.387 . S
C729 C731 1.387 . S
H730 C737 0.950 . S
C731 C729 1.387 . S
C731 C733 1.390 1_554 S
C731 H735 0.950 . S
H732 C728 0.950 . S
C733 C731 1.390 1_556 S
C733 C734 1.387 . S
C733 H736 0.950 . S
C734 C733 1.387 . S
C734 C737 1.387 . S
H735 C731 0.950 . S
H736 C733 0.950 . S
C737 C728 1.390 1_556 S
C737 H730 0.950 . S
C737 C734 1.387 . S
C738 C739 1.387 . S
C738 H742 0.950 . S
C738 C747 1.390 . S
C739 C738 1.387 . S
C739 C741 1.387 . S
H740 C747 0.950 . S
C741 C739 1.387 . S
C741 C743 1.390 . S
C741 H745 0.950 . S
H742 C738 0.950 . S
C743 C741 1.390 . S
C743 C744 1.387 . S
C743 H746 0.950 . S
C744 C743 1.387 . S
C744 C747 1.387 . S
H745 C741 0.950 . S
H746 C743 0.950 . S
C747 C738 1.390 . S
C747 H740 0.950 . S
C747 C744 1.387 . S
C748 C749 1.387 . S
C748 H752 0.950 . S
C748 C757 1.390 1_556 S
C749 C748 1.387 . S
C749 C751 1.387 . S
H750 C757 0.950 . S
C751 C749 1.387 . S
C751 C753 1.390 1_556 S
C751 H755 0.950 . S
H752 C748 0.950 . S
C753 C751 1.390 1_554 S
C753 C754 1.387 . S
C753 H756 0.950 . S
C754 C753 1.387 . S
C754 C757 1.387 . S
H755 C751 0.950 . S
H756 C753 0.950 . S
C757 C748 1.390 1_554 S
C757 H750 0.950 . S
C757 C754 1.387 . S
C758 C759 1.387 . S
C758 H762 0.950 . S
C758 C767 1.390 . S
C759 C758 1.387 . S
C759 C761 1.387 . S
H760 C767 0.950 . S
C761 C759 1.387 . S
C761 C763 1.390 . S
C761 H765 0.950 . S
H762 C758 0.950 . S
C763 C761 1.390 . S
C763 C764 1.387 . S
C763 H766 0.950 . S
C764 C763 1.387 . S
C764 C767 1.387 . S
H765 C761 0.950 . S
H766 C763 0.950 . S
C767 C758 1.390 . S
C767 H760 0.950 . S
C767 C764 1.387 . S
C768 C769 1.387 . S
C768 H772 0.950 . S
C768 C777 1.390 . S
C769 C768 1.387 . S
C769 C771 1.387 . S
H770 C777 0.950 . S
C771 C769 1.387 . S
C771 C773 1.390 . S
C771 H775 0.950 . S
H772 C768 0.950 . S
C773 C771 1.390 . S
C773 C774 1.387 . S
C773 H776 0.950 . S
C774 C773 1.387 . S
C774 C777 1.387 . S
H775 C771 0.950 . S
H776 C773 0.950 . S
C777 C768 1.390 . S
C777 H770 0.950 . S
C777 C774 1.387 . S
C778 C779 1.387 . S
C778 H782 0.950 . S
C778 C787 1.390 . S
C779 C778 1.387 . S
C779 C781 1.387 . S
H780 C787 0.950 . S
C781 C779 1.387 . S
C781 C783 1.390 . S
C781 H785 0.950 . S
H782 C778 0.950 . S
C783 C781 1.390 . S
C783 C784 1.387 . S
C783 H786 0.950 . S
C784 C783 1.387 . S
C784 C787 1.387 . S
H785 C781 0.950 . S
H786 C783 0.950 . S
C787 C778 1.390 . S
C787 H780 0.950 . S
C787 C784 1.387 . S
C788 C789 1.387 . S
C788 H792 0.950 . S
C788 C797 1.390 . S
C789 C788 1.387 . S
C789 C791 1.387 . S
H790 C797 0.950 . S
C791 C789 1.387 . S
C791 C793 1.390 . S
C791 H795 0.950 . S
H792 C788 0.950 . S
C793 C791 1.390 . S
C793 C794 1.387 . S
C793 H796 0.950 . S
C794 C793 1.387 . S
C794 C797 1.387 . S
H795 C791 0.950 . S
H796 C793 0.950 . S
C797 C788 1.390 . S
C797 H790 0.950 . S
C797 C794 1.387 . S
C798 C799 1.387 . S
C798 H802 0.950 . S
C798 C807 1.390 . S
C799 C798 1.387 . S
C799 C801 1.387 . S
H800 C807 0.950 . S
C801 C799 1.387 . S
C801 C803 1.390 . S
C801 H805 0.950 . S
H802 C798 0.950 . S
C803 C801 1.390 . S
C803 C804 1.387 . S
C803 H806 0.950 . S
C804 C803 1.387 . S
C804 C807 1.387 . S
H805 C801 0.950 . S
H806 C803 0.950 . S
C807 C798 1.390 . S
C807 H800 0.950 . S
C807 C804 1.387 . S
C808 C809 1.387 . S
C808 H812 0.950 . S
C808 C817 1.390 . S
C809 C808 1.387 . S
C809 C811 1.387 . S
H810 C817 0.950 . S
C811 C809 1.387 . S
C811 C813 1.390 . S
C811 H815 0.950 . S
H812 C808 0.950 . S
C813 C811 1.390 . S
C813 C814 1.387 . S
C813 H816 0.950 . S
C814 C813 1.387 . S
C814 C817 1.387 . S
H815 C811 0.950 . S
H816 C813 0.950 . S
C817 C808 1.390 . S
C817 H810 0.950 . S
C817 C814 1.387 . S
C818 C819 1.387 . S
C818 H822 0.950 . S
C818 C827 1.390 . S
C819 C818 1.387 . S
C819 C821 1.387 . S
H820 C827 0.950 . S
C821 C819 1.387 . S
C821 C823 1.390 . S
C821 H825 0.950 . S
H822 C818 0.950 . S
C823 C821 1.390 . S
C823 C824 1.387 . S
C823 H826 0.950 . S
C824 C823 1.387 . S
C824 C827 1.387 . S
H825 C821 0.950 . S
H826 C823 0.950 . S
C827 C818 1.390 . S
C827 H820 0.950 . S
C827 C824 1.387 . S
C828 C829 1.387 . S
C828 H832 0.950 . S
C828 C837 1.390 . S
C829 C828 1.387 . S
C829 C831 1.387 . S
H830 C837 0.950 . S
C831 C829 1.387 . S
C831 C833 1.390 . S
C831 H835 0.950 . S
H832 C828 0.950 . S
C833 C831 1.390 . S
C833 C834 1.387 . S
C833 H836 0.950 . S
C834 C833 1.387 . S
C834 C837 1.387 . S
H835 C831 0.950 . S
H836 C833 0.950 . S
C837 C828 1.390 . S
C837 H830 0.950 . S
C837 C834 1.387 . S
C838 C839 1.387 . S
C838 H842 0.950 . S
C838 C847 1.390 . S
C839 C838 1.387 . S
C839 C841 1.387 . S
H840 C847 0.950 . S
C841 C839 1.387 . S
C841 C843 1.390 . S
C841 H845 0.950 . S
H842 C838 0.950 . S
C843 C841 1.390 . S
C843 C844 1.387 . S
C843 H846 0.950 . S
C844 C843 1.387 . S
C844 C847 1.387 . S
H845 C841 0.950 . S
H846 C843 0.950 . S
C847 C838 1.390 . S
C847 H840 0.950 . S
C847 C844 1.387 . S
C848 C849 1.387 . S
C848 H852 0.950 . S
C848 C857 1.390 . S
C849 C848 1.387 . S
C849 C851 1.387 . S
H850 C857 0.950 . S
C851 C849 1.387 . S
C851 C853 1.390 . S
C851 H855 0.950 . S
H852 C848 0.950 . S
C853 C851 1.390 . S
C853 C854 1.387 . S
C853 H856 0.950 . S
C854 C853 1.387 . S
C854 C857 1.387 . S
H855 C851 0.950 . S
H856 C853 0.950 . S
C857 C848 1.390 . S
C857 H850 0.950 . S
C857 C854 1.387 . S
C858 C859 1.387 . S
C858 H862 0.950 . S
C858 C867 1.390 . S
C859 C858 1.387 . S
C859 C861 1.387 . S
H860 C867 0.950 . S
C861 C859 1.387 . S
C861 C863 1.390 . S
C861 H865 0.950 . S
H862 C858 0.950 . S
C863 C861 1.390 . S
C863 C864 1.387 . S
C863 H866 0.950 . S
C864 C863 1.387 . S
C864 C867 1.387 . S
H865 C861 0.950 . S
H866 C863 0.950 . S
C867 C858 1.390 . S
C867 H860 0.950 . S
C867 C864 1.387 . S
C868 C869 1.387 . S
C868 H872 0.950 . S
C868 C877 1.390 . S
C869 C868 1.387 . S
C869 C871 1.387 . S
H870 C877 0.950 . S
C871 C869 1.387 . S
C871 C873 1.390 . S
C871 H875 0.950 . S
H872 C868 0.950 . S
C873 C871 1.390 . S
C873 C874 1.387 . S
C873 H876 0.950 . S
C874 C873 1.387 . S
C874 C877 1.387 . S
H875 C871 0.950 . S
H876 C873 0.950 . S
C877 C868 1.390 . S
C877 H870 0.950 . S
C877 C874 1.387 . S
C878 C879 1.387 . S
C878 H882 0.950 . S
C878 C887 1.390 . S
C879 C878 1.387 . S
C879 C881 1.387 . S
H880 C887 0.950 . S
C881 C879 1.387 . S
C881 C883 1.390 . S
C881 H885 0.950 . S
H882 C878 0.950 . S
C883 C881 1.390 . S
C883 C884 1.387 . S
C883 H886 0.950 . S
C884 C883 1.387 . S
C884 C887 1.387 . S
H885 C881 0.950 . S
H886 C883 0.950 . S
C887 C878 1.390 . S
C887 H880 0.950 . S
C887 C884 1.387 . S
C888 C889 1.387 . S
C888 H892 0.950 . S
C888 C897 1.390 . S
C889 C888 1.387 . S
C889 C891 1.387 . S
H890 C897 0.950 . S
C891 C889 1.387 . S
C891 C893 1.390 . S
C891 H895 0.950 . S
H892 C888 0.950 . S
C893 C891 1.390 . S
C893 C894 1.387 . S
C893 H896 0.950 . S
C894 C893 1.387 . S
C894 C897 1.387 . S
H895 C891 0.950 . S
H896 C893 0.950 . S
C897 C888 1.390 . S
C897 H890 0.950 . S
C897 C894 1.387 . S
C898 C899 1.387 . S
C898 H902 0.950 . S
C898 C907 1.390 . S
C899 C898 1.387 . S
C899 C901 1.387 . S
H900 C907 0.950 . S
C901 C899 1.387 . S
C901 C903 1.390 . S
C901 H905 0.950 . S
H902 C898 0.950 . S
C903 C901 1.390 . S
C903 C904 1.387 . S
C903 H906 0.950 . S
C904 C903 1.387 . S
C904 C907 1.387 . S
H905 C901 0.950 . S
H906 C903 0.950 . S
C907 C898 1.390 . S
C907 H900 0.950 . S
C907 C904 1.387 . S
C908 C909 1.387 . S
C908 H912 0.950 . S
C908 C917 1.390 . S
C909 C908 1.387 . S
C909 C911 1.387 . S
H910 C917 0.950 . S
C911 C909 1.387 . S
C911 C913 1.390 . S
C911 H915 0.950 . S
H912 C908 0.950 . S
C913 C911 1.390 . S
C913 C914 1.387 . S
C913 H916 0.950 . S
C914 C913 1.387 . S
C914 C917 1.387 . S
H915 C911 0.950 . S
H916 C913 0.950 . S
C917 C908 1.390 . S
C917 H910 0.950 . S
C917 C914 1.387 . S
C918 C919 1.387 . S
C918 H922 0.950 . S
C918 C927 1.390 . S
C919 C918 1.387 . S
C919 C921 1.387 . S
H920 C927 0.950 . S
C921 C919 1.387 . S
C921 C923 1.390 . S
C921 H925 0.950 . S
H922 C918 0.950 . S
C923 C921 1.390 . S
C923 C924 1.387 . S
C923 H926 0.950 . S
C924 C923 1.387 . S
C924 C927 1.387 . S
H925 C921 0.950 . S
H926 C923 0.950 . S
C927 C918 1.390 . S
C927 H920 0.950 . S
C927 C924 1.387 . S
C529 N13 1.747 . S
C534 N112 1.747 . S
C539 N79 1.747 . S
C544 N46 1.747 . S
C549 N244 1.749 . S
C554 N145 1.749 . S
C559 N178 1.749 . S
C564 N211 1.749 . S
C569 N277 1.747 . S
C574 N376 1.747 . S
C579 N310 1.747 . S
C584 N343 1.747 . S
C589 N508 1.747 . S
C594 N409 1.747 . S
C599 N442 1.749 . S
C604 N475 1.749 . S
C609 N200 1.548 . S
C614 N2 1.550 . S
C619 N233 1.547 . S
C624 N35 1.550 . S
C629 N134 1.547 . S
C634 N68 1.550 . S
C639 N167 1.550 . S
C644 N101 1.547 . S
C649 N464 1.550 . S
C654 N266 1.547 . S
C659 N497 1.547 . S
C664 N299 1.550 . S
C669 N398 1.547 . S
C674 N332 1.550 . S
C679 N365 1.547 . S
C684 N431 1.550 . S
C689 C7 1.581 . S
C694 C73 1.581 . S
C699 C40 1.577 . S
C704 C106 1.577 . S
C709 C139 1.578 . S
C714 C205 1.578 . S
C719 C172 1.580 . S
C724 C238 1.580 . S
C729 C271 1.581 . S
C734 C337 1.581 . S
C739 C304 1.577 . S
C744 C370 1.577 . S
C749 C403 1.581 . S
C754 C469 1.581 . S
C759 C436 1.577 . S
C764 C502 1.577 . S
C769 C513 1.237 . S
C774 C21 1.247 . S
C779 C54 1.245 . S
C784 C480 1.235 . S
C789 C87 1.245 . S
C794 C447 1.234 . S
C799 C414 1.235 . S
C804 C120 1.246 . S
C809 C381 1.236 . S
C814 C153 1.246 . S
C819 C186 1.245 . S
C824 C348 1.235 . S
C829 C219 1.245 . S
C834 C315 1.234 . S
C839 C252 1.245 . S
C844 C282 1.234 . S
C849 C285 1.246 . S
C854 C249 1.236 . S
C859 C216 1.235 . S
C864 C318 1.245 . S
C869 C183 1.234 . S
C874 C351 1.245 . S
C879 C384 1.247 . S
C884 C150 1.237 . S
C889 C417 1.246 . S
C894 C117 1.235 . S
C899 C84 1.236 . S
C904 C450 1.246 . S
C909 C51 1.236 . S
C914 C483 1.246 . S
C919 C18 1.237 . S
C924 C516 1.247 . S
