# Generated by pormake.
# Topology kag, (6)-cn, num edge types: 1
# Building blocks:
#     Node 0, Type 0, BuildingBlock: INOVEN_clean_sbu_0, # of connection points: 6
#     Node 1, Type 0, BuildingBlock: INOVEN_clean_sbu_0, # of connection points: 6
#     Node 2, Type 0, BuildingBlock: INOVEN_clean_sbu_0, # of connection points: 6
#     Edge 3, Type (0, 0), BuildingBlock: FUNLAD_clean_linker_1, # of connection points: 2
#     Edge 4, Type (0, 0), BuildingBlock: FUNLAD_clean_linker_1, # of connection points: 2
#     Edge 5, Type (0, 0), BuildingBlock: FUNLAD_clean_linker_1, # of connection points: 2
#     Edge 6, Type (0, 0), BuildingBlock: FUNLAD_clean_linker_1, # of connection points: 2
#     Edge 7, Type (0, 0), BuildingBlock: FUNLAD_clean_linker_1, # of connection points: 2
#     Edge 8, Type (0, 0), BuildingBlock: FUNLAD_clean_linker_1, # of connection points: 2
#     Edge 9, Type (0, 0), BuildingBlock: FUNLAD_clean_linker_1, # of connection points: 2
#     Edge 10, Type (0, 0), BuildingBlock: FUNLAD_clean_linker_1, # of connection points: 2
#     Edge 11, Type (0, 0), BuildingBlock: FUNLAD_clean_linker_1, # of connection points: 2
# Relax obj value: 0.069
# Max RMSD: 0.195
# Mean RMSD: 0.103
data_MOF--net-kag--node1-INOVEN_clean_sbu_0--edge1-FUNLAD_clean_linker_1
_symmetry_space_group_name_H-M    P1
_symmetry_Int_Tables_number       1
_symmetry_cell_setting            triclinic
loop_
_symmetry_equiv_pos_as_xyz
'x, y, z'
_cell_length_a     33.237224
_cell_length_b     43.592182
_cell_length_c     15.444164
_cell_angle_alpha  96.760931
_cell_angle_beta   91.651394
_cell_angle_gamma 97.701028
loop_
_atom_site_label
_atom_site_type_symbol
_atom_site_fract_x
_atom_site_fract_y
_atom_site_fract_z
_atom_type_partial_charge
Gd0 Gd 0.05254 0.4652 0.99189 0.0
Gd1 Gd 0.06101 0.53409 0.00558 0.0
C2 C 0.96887 0.49828 0.00185 0.0
C3 C 1.03627 0.40717 0.01595 0.0
C4 C 1.00277 0.38116 0.00417 0.0
C5 C 1.01197 0.35082 0.98339 0.0
C6 C 0.96213 0.38589 0.01458 0.0
C7 C 0.94052 0.32979 0.98674 0.0
C8 C 0.93118 0.3604 0.00589 0.0
C9 C 0.98115 0.32542 0.97439 0.0
C10 C 0.05415 0.48764 0.8353 0.0
C11 C 0.14436 0.49932 5e-05 0.0
C12 C 0.07813 0.59206 0.98005 0.0
C13 C 0.1121 0.61791 0.99014 0.0
C14 C 0.10366 0.6484 0.01262 0.0
C15 C 0.15244 0.61291 0.97665 0.0
C16 C 0.17525 0.66896 0.00484 0.0
C17 C 0.18371 0.63822 0.9842 0.0
C18 C 0.1348 0.67366 0.02034 0.0
C19 C 0.059 0.51178 0.16222 0.0
O20 O 0.98664 0.4733 0.01108 0.0
O21 O 0.9912 0.52491 0.98906 0.0
O22 O 0.05184 0.41625 0.9449 0.0
O23 O 1.03269 0.43036 0.07602 0.0
O24 O 0.071 0.46369 0.85176 0.0
O25 O 1.03558 0.4976 0.90062 0.0
O26 O 0.12823 0.5251 0.98888 0.0
O27 O 0.1206 0.47371 0.01363 0.0
O28 O 0.06297 0.58329 0.05181 0.0
O29 O 0.08069 0.56862 0.92007 0.0
O30 O 1.0425 0.5359 0.1457 0.0
O31 O 0.07772 0.50183 0.0971 0.0
H32 H 1.04314 0.34674 0.9748 0.0
H33 H 0.95434 0.40922 0.02972 0.0
H34 H 0.90017 0.36488 0.01348 0.0
H35 H 0.98922 0.30219 0.95895 0.0
H36 H 0.07278 0.65272 0.02417 0.0
H37 H 0.15977 0.58953 0.95988 0.0
H38 H 0.21455 0.63379 0.97299 0.0
H39 H 0.12688 0.69666 0.03958 0.0
Gd40 Gd 0.57746 0.02317 0.00876 0.0
Gd41 Gd 0.48805 1.00571 0.00828 0.0
C42 C 0.51939 0.07835 0.01835 0.0
C43 C 0.65061 0.04646 0.9774 0.0
C44 C 0.67447 0.07766 0.98855 0.0
C45 C 0.70903 0.0834 0.94012 0.0
C46 C 0.6628 0.10191 0.04612 0.0
C47 C 0.72095 0.13737 0.00842 0.0
C48 C 0.6859 0.13147 0.05601 0.0
C49 C 0.73202 0.11298 0.9495 0.0
C50 C 0.54865 0.01871 0.17011 0.0
C51 C 0.54686 0.95074 0.00069 0.0
C52 C 0.41519 0.98121 0.03822 0.0
C53 C 0.39213 0.94944 0.02881 0.0
C54 C 0.35245 0.94433 0.99178 0.0
C55 C 0.40918 0.92408 0.05567 0.0
C56 C 0.34665 0.88911 0.01009 0.0
C57 C 0.38678 0.89419 0.04617 0.0
C58 C 0.33003 0.9145 0.98228 0.0
C59 C 0.51728 1.01035 0.84738 0.0
O60 O 0.55451 0.06956 0.99479 0.0
O61 O 0.48956 0.05784 0.0403 0.0
O62 O 0.6411 0.03455 0.04912 0.0
O63 O 0.62046 0.04199 0.91902 0.0
O64 O 0.58292 1.01025 0.14583 0.0
O65 O 0.53228 0.03063 0.10982 0.0
O66 O 0.51112 0.95923 0.02049 0.0
O67 O 0.57712 0.97133 0.98159 0.0
O68 O 0.42449 0.99277 0.96585 0.0
O69 O 0.44484 0.98742 0.09795 0.0
O70 O 0.48333 0.01945 0.87187 0.0
O71 O 0.53321 0.99808 0.90752 0.0
H72 H 0.71811 0.065 0.89453 0.0
H73 H 0.63585 0.09798 0.08335 0.0
H74 H 0.67627 0.14982 0.10094 0.0
H75 H 0.75787 0.11645 0.90924 0.0
H76 H 0.33872 0.96348 0.97027 0.0
H77 H 0.43985 0.92731 0.08404 0.0
H78 H 0.40129 0.87526 0.06631 0.0
H79 H 0.29937 0.91133 0.95374 0.0
Gd80 Gd 0.56765 0.55405 0.99846 0.0
Gd81 Gd 0.55151 0.48306 0.97677 0.0
C82 C 0.4723 0.51975 0.98376 0.0
C83 C 0.57458 0.61304 0.97834 0.0
C84 C 0.56104 0.64446 0.99221 0.0
C85 C 0.58919 0.67014 0.02802 0.0
C86 C 0.52256 0.65003 0.96263 0.0
C87 C 0.54158 0.70648 0.00075 0.0
C88 C 0.51289 0.68064 0.96761 0.0
C89 C 0.57966 0.70068 0.03251 0.0
C90 C 0.56396 0.52889 0.15144 0.0
C91 C 0.64684 0.5186 0.98833 0.0
C92 C 0.54665 0.42334 0.98384 0.0
C93 C 0.54378 0.38863 0.98254 0.0
C94 C 0.54076 0.36932 0.90228 0.0
C95 C 0.5446 0.37434 0.05971 0.0
C96 C 0.53978 0.32237 0.97554 0.0
C97 C 0.54256 0.34162 0.05638 0.0
C98 C 0.53898 0.33687 0.89894 0.0
C99 C 0.55373 0.50915 0.82543 0.0
O100 O 0.49845 0.54523 0.97778 0.0
O101 O 0.48548 0.49271 0.9934 0.0
O102 O 0.59148 0.60244 0.04421 0.0
O103 O 0.55383 0.59092 0.92352 0.0
O104 O 0.58709 0.55435 0.13999 0.0
O105 O 0.54165 0.51921 0.08365 0.0
O106 O 0.62207 0.49274 0.99968 0.0
O107 O 0.63161 0.54416 0.97391 0.0
O108 O 0.54145 0.43574 0.91207 0.0
O109 O 0.55433 0.4437 0.05394 0.0
O110 O 0.5288 0.48476 0.8383 0.0
O111 O 0.57725 0.51788 0.8919 0.0
H112 H 0.61916 0.66664 0.05097 0.0
H113 H 0.50021 0.63084 0.93417 0.0
H114 H 0.48316 0.6842 0.94344 0.0
H115 H 0.60229 0.71959 0.06116 0.0
H116 H 0.54017 0.3793 0.84134 0.0
H117 H 0.54707 0.38844 0.12273 0.0
H118 H 0.54397 0.3317 0.11718 0.0
H119 H 0.53707 0.32299 0.83559 0.0
H120 H 1.03275 0.51688 0.74011 0.0
C121 C 0.05005 0.49781 0.74735 0.0
H122 H 0.08248 0.46404 0.68362 0.0
H123 H 1.00472 0.46056 0.305 0.0
H124 H 0.97442 0.41077 0.34447 0.0
H125 H 0.9831 0.39769 0.49433 0.0
H126 H 1.02193 0.43447 0.60593 0.0
C127 C 0.06641 0.48382 0.67677 0.0
C128 C 0.06056 0.49252 0.58636 0.0
C129 C 1.03844 0.47057 0.52084 0.0
C130 C 1.0339 0.47795 0.43368 0.0
C131 C 1.01019 0.45595 0.37127 0.0
C132 C 0.99234 0.4273 0.39321 0.0
C133 C 0.9972 0.41995 0.47761 0.0
C134 C 1.01975 0.44126 0.54098 0.0
H135 H 0.08009 0.48256 0.25782 0.0
C136 C 0.0629 0.50167 0.25028 0.0
H137 H 1.03047 0.53556 0.31341 0.0
H138 H 0.10768 0.53923 0.69268 0.0
H139 H 0.13772 0.58911 0.65335 0.0
H140 H 0.12905 0.60217 0.50348 0.0
H141 H 0.09048 0.56529 0.39174 0.0
C142 C 0.04646 0.51577 0.3206 0.0
C143 C 0.05209 0.50716 0.41117 0.0
C144 C 0.0741 0.52915 0.47675 0.0
C145 C 0.07864 0.52177 0.56391 0.0
C146 C 0.10223 0.54382 0.6264 0.0
C147 C 0.11993 0.57252 0.60454 0.0
C148 C 0.11507 0.57987 0.52014 0.0
C149 C 0.09267 0.5585 0.45668 0.0
H150 H 0.50631 0.02892 0.27479 0.0
C151 C 0.53463 0.01986 0.26084 0.0
H152 H 0.58526 1.00248 0.31241 0.0
H153 H 0.57486 0.05967 0.70429 0.0
H154 H 0.63414 0.09188 0.6608 0.0
H155 H 0.65284 0.08842 0.50694 0.0
H156 H 0.61217 0.05284 0.39539 0.0
C157 C 0.55623 0.0105 0.3259 0.0
C158 C 0.54375 0.01293 0.41902 0.0
C159 C 0.56816 0.03344 0.48432 0.0
C160 C 0.55763 0.03516 0.57367 0.0
C161 C 0.58188 0.05677 0.63616 0.0
C162 C 0.61592 0.07558 0.61199 0.0
C163 C 0.62643 0.07364 0.52535 0.0
C164 C 0.60288 0.053 0.46199 0.0
H165 H 0.55964 0.99976 0.74308 0.0
C166 C 0.53148 1.00911 0.75677 0.0
H167 H 0.48131 0.02686 0.70459 0.0
H168 H 0.49215 0.96895 0.3134 0.0
H169 H 0.43309 0.93653 0.357 0.0
H170 H 0.41431 0.94006 0.51081 0.0
H171 H 0.4547 0.97591 0.62223 0.0
C172 C 0.51023 0.01862 0.69146 0.0
C173 C 0.52292 0.016 0.59848 0.0
C174 C 0.49861 0.9954 0.53323 0.0
C175 C 0.50916 0.99366 0.44389 0.0
C176 C 0.48507 0.9719 0.38149 0.0
C177 C 0.45117 0.95296 0.40574 0.0
C178 C 0.44061 0.95494 0.49235 0.0
C179 C 0.46399 0.97574 0.55562 0.0
H180 H 0.58537 0.53843 0.73325 0.0
C181 C 0.56119 0.51939 0.7383 0.0
H182 H 0.51715 0.48499 0.67042 0.0
H183 H 0.54815 0.58294 0.3718 0.0
H184 H 0.52127 0.62053 0.47469 0.0
H185 H 0.50629 0.60898 0.62386 0.0
H186 H 0.51831 0.55986 0.67128 0.0
C187 C 0.54019 0.50482 0.66553 0.0
C188 C 0.55 0.51255 0.57565 0.0
C189 C 0.54262 0.54138 0.5485 0.0
C190 C 0.55086 0.54789 0.46178 0.0
C191 C 0.54285 0.57681 0.43677 0.0
C192 C 0.52721 0.59858 0.49509 0.0
C193 C 0.5188 0.59208 0.57909 0.0
C194 C 0.52613 0.56382 0.60567 0.0
H195 H 0.53231 0.49909 0.24243 0.0
C196 C 0.55599 0.51855 0.23831 0.0
H197 H 0.59878 0.55354 0.3076 0.0
H198 H 0.56729 0.45495 0.60502 0.0
H199 H 0.59417 0.41733 0.50219 0.0
H200 H 0.60958 0.42898 0.35332 0.0
H201 H 0.59796 0.4782 0.30607 0.0
C202 C 0.57614 0.53338 0.31179 0.0
C203 C 0.56599 0.52549 0.4014 0.0
C204 C 0.57334 0.49664 0.42854 0.0
C205 C 0.56499 0.4901 0.51521 0.0
C206 C 0.57278 0.46112 0.54015 0.0
C207 C 0.5884 0.43933 0.48187 0.0
C208 C 0.59705 0.44588 0.39802 0.0
C209 C 0.58992 0.4742 0.37151 0.0
H210 H 0.19824 0.47497 0.01111 0.0
C211 C 0.1896 0.49741 0.99989 0.0
H212 H 0.21281 0.54314 0.97778 0.0
H213 H 0.39375 0.5439 0.12735 0.0
H214 H 0.36851 0.58155 0.23234 0.0
H215 H 0.29653 0.58954 0.22667 0.0
H216 H 0.24901 0.55964 0.1164 0.0
C217 C 0.22022 0.52014 0.98633 0.0
C218 C 0.26519 0.51532 0.98771 0.0
C219 C 0.29361 0.53345 0.05088 0.0
C220 C 0.33592 0.52927 0.05297 0.0
C221 C 0.36209 0.54676 0.12028 0.0
C222 C 0.34789 0.56833 0.18164 0.0
C223 C 0.30732 0.5728 0.17853 0.0
C224 C 0.28037 0.55553 0.11454 0.0
H225 H 0.42061 0.54655 0.9715 0.0
C226 C 0.42756 0.52357 0.982 0.0
H227 H 0.40171 0.4782 0.00151 0.0
H228 H 0.22245 0.47901 0.85053 0.0
H229 H 0.24773 0.44164 0.74474 0.0
H230 H 0.31978 0.43382 0.74979 0.0
H231 H 0.36729 0.46356 0.86029 0.0
C232 C 0.39562 0.50159 0.99352 0.0
C233 C 0.35101 0.50737 0.99039 0.0
C234 C 0.32264 0.48946 0.92673 0.0
C235 C 0.28033 0.49359 0.92478 0.0
C236 C 0.25414 0.47617 0.85737 0.0
C237 C 0.26836 0.45478 0.79556 0.0
C238 C 0.30896 0.45041 0.79833 0.0
C239 C 0.3359 0.46756 0.86253 0.0
H240 H 0.72971 0.18803 0.05452 0.0
C241 C 0.74403 0.16944 0.02003 0.0
H242 H 0.79745 0.15927 0.95706 0.0
H243 H 0.84821 0.29279 0.84874 0.0
H244 H 0.82134 0.26466 0.70967 0.0
H245 H 0.78494 0.21114 0.7011 0.0
H246 H 0.77504 0.18548 0.83149 0.0
C247 C 0.78149 0.17678 0.99123 0.0
C248 C 0.80147 0.20968 0.99828 0.0
C249 C 0.80726 0.22423 0.92132 0.0
C250 C 0.82867 0.25492 0.92606 0.0
C251 C 0.83314 0.26919 0.84847 0.0
C252 C 0.81759 0.2534 0.76832 0.0
C253 C 0.79706 0.22328 0.76351 0.0
C254 C 0.79173 0.20878 0.83888 0.0
H255 H 0.9178 0.28001 0.94698 0.0
C256 C 0.90923 0.30174 0.97831 0.0
H257 H 0.8631 0.32143 0.04869 0.0
H258 H 0.7958 0.18862 0.15866 0.0
H259 H 0.82076 0.21747 0.29781 0.0
H260 H 0.85676 0.27109 0.30613 0.0
H261 H 0.8682 0.29612 0.17516 0.0
C262 C 0.8722 0.30098 0.01161 0.0
C263 C 0.84484 0.27081 0.0076 0.0
C264 C 0.83732 0.25689 0.08508 0.0
C265 C 0.81599 0.22613 0.0804 0.0
C266 C 0.81079 0.2122 0.15842 0.0
C267 C 0.82521 0.22844 0.23882 0.0
C268 C 0.84553 0.25861 0.2435 0.0
C269 C 0.85183 0.27272 0.16775 0.0
H270 H 0.58446 0.91229 0.98957 0.0
C271 C 0.55376 0.91758 0.99943 0.0
H272 H 0.49301 0.89864 0.01649 0.0
H273 H 0.5186 0.7616 0.853 0.0
H274 H 0.48105 0.77787 0.73387 0.0
H275 H 0.46594 0.8319 0.73942 0.0
H276 H 0.48885 0.8702 0.86391 0.0
C277 C 0.52416 0.89406 0.01007 0.0
C278 C 0.53225 0.86084 0.00882 0.0
C279 C 0.51758 0.83826 0.93711 0.0
C280 C 0.52545 0.8067 0.93497 0.0
C281 C 0.51235 0.78543 0.85986 0.0
C282 C 0.49098 0.79454 0.79053 0.0
C283 C 0.48252 0.82498 0.79358 0.0
C284 C 0.49576 0.84671 0.86557 0.0
H285 H 0.49855 0.7415 0.99979 0.0
C286 C 0.53063 0.73891 0.00232 0.0
H287 H 0.5904 0.76291 0.00407 0.0
H288 H 0.56137 0.89696 0.16012 0.0
H289 H 0.59746 0.88055 0.28134 0.0
H290 H 0.61075 0.82614 0.27839 0.0
H291 H 0.58788 0.78769 0.15437 0.0
C292 C 0.5582 0.76483 0.0028 0.0
C293 C 0.54698 0.79732 0.00605 0.0
C294 C 0.56083 0.81983 0.07865 0.0
C295 C 0.55339 0.85143 0.08017 0.0
C296 C 0.56683 0.87292 0.15466 0.0
C297 C 0.58742 0.86377 0.22499 0.0
C298 C 0.59489 0.83313 0.22334 0.0
C299 C 0.58174 0.81131 0.15144 0.0
H300 H 0.90805 0.47103 0.01086 0.0
C301 C 0.92276 0.49431 0.00332 0.0
H302 H 0.91223 0.53981 0.98583 0.0
H303 H 0.72925 0.51199 0.83939 0.0
H304 H 0.76477 0.52866 0.715 0.0
H305 H 0.83959 0.53726 0.71719 0.0
H306 H 0.87957 0.52891 0.84359 0.0
C307 C 0.89822 0.51665 0.99629 0.0
C308 C 0.8515 0.51056 0.9959 0.0
C309 C 0.82766 0.51615 0.92253 0.0
C310 C 0.78386 0.51181 0.92199 0.0
C311 C 0.76205 0.5161 0.84529 0.0
C312 C 0.7821 0.52538 0.77281 0.0
C313 C 0.82426 0.53018 0.77399 0.0
C314 C 0.84686 0.52546 0.84735 0.0
H315 H 0.70897 0.54349 0.98037 0.0
C316 C 0.69286 0.52068 0.98843 0.0
H317 H 0.70091 0.47473 0.00723 0.0
H318 H 0.88501 0.50032 0.15157 0.0
H319 H 0.84947 0.48342 0.27572 0.0
H320 H 0.77464 0.47507 0.27375 0.0
H321 H 0.73466 0.48382 0.14777 0.0
C322 C 0.71601 0.49754 0.99635 0.0
C323 C 0.76276 0.50252 0.99588 0.0
C324 C 0.78658 0.49671 0.06901 0.0
C325 C 0.8304 0.501 0.06949 0.0
C326 C 0.85221 0.4964 0.14586 0.0
C327 C 0.83213 0.48695 0.21815 0.0
C328 C 0.78998 0.48228 0.21709 0.0
C329 C 0.76737 0.48726 0.144 0.0
H330 H 0.24015 0.68998 0.01952 0.0
C331 C 0.20931 0.69533 0.01176 0.0
H332 H 0.17393 0.7316 0.99691 0.0
H333 H 0.30206 0.83825 0.19697 0.0
H334 H 0.26027 0.82617 0.31791 0.0
H335 H 0.20829 0.7796 0.30325 0.0
H336 H 0.19773 0.74482 0.16737 0.0
C337 C 0.20397 0.72518 0.00677 0.0
C338 C 0.23852 0.75111 0.01789 0.0
C339 C 0.24466 0.77104 0.09791 0.0
C340 C 0.27487 0.79777 0.10654 0.0
C341 C 0.27982 0.8175 0.18692 0.0
C342 C 0.25599 0.81086 0.2569 0.0
C343 C 0.22669 0.78466 0.24863 0.0
C344 C 0.22091 0.76492 0.17022 0.0
H345 H 0.29382 0.85491 0.957 0.0
C346 C 0.32113 0.85792 0.99943 0.0
H347 H 0.35351 0.83642 0.0902 0.0
H348 H 0.23525 0.71741 0.85622 0.0
H349 H 0.27892 0.72824 0.73704 0.0
H350 H 0.33289 0.77354 0.75364 0.0
H351 H 0.34323 0.80853 0.88918 0.0
C352 C 0.32831 0.83395 0.04261 0.0
C353 C 0.29883 0.80464 0.03492 0.0
C354 C 0.29387 0.78395 0.95605 0.0
C355 C 0.26341 0.75734 0.94723 0.0
C356 C 0.2583 0.73766 0.86686 0.0
C357 C 0.28314 0.74362 0.79792 0.0
C358 C 0.31348 0.76917 0.8072 0.0
C359 C 0.31895 0.78916 0.88519 0.0
H360 H 0.54474 0.27608 0.90225 0.0
C361 C 0.53937 0.28749 0.96655 0.0
H362 H 0.52448 0.27894 0.09479 0.0
H363 H 0.45362 0.13637 0.97196 0.0
H364 H 0.39157 0.15874 0.99567 0.0
H365 H 0.39298 0.21553 0.03052 0.0
H366 H 0.45662 0.25041 0.03974 0.0
C367 C 0.53235 0.26906 0.03078 0.0
C368 C 0.53217 0.23412 0.01502 0.0
C369 C 0.49515 0.2136 0.01471 0.0
C370 C 0.49458 0.18047 0.99915 0.0
C371 C 0.45644 0.16127 0.99022 0.0
C372 C 0.42036 0.17389 0.00213 0.0
C373 C 0.42114 0.20588 0.02141 0.0
C374 C 0.45793 0.22563 0.0269 0.0
H375 H 0.49675 0.12064 0.0817 0.0
C376 C 0.51486 0.11221 0.02891 0.0
H377 H 0.54954 0.12309 0.9228 0.0
H378 H 0.6086 0.26601 0.01234 0.0
H379 H 0.67067 0.24398 0.98376 0.0
H380 H 0.67003 0.18711 0.95815 0.0
H381 H 0.60828 0.15182 0.9658 0.0
C382 C 0.53231 0.13239 0.97607 0.0
C383 C 0.53155 0.1674 0.98934 0.0
C384 C 0.56856 0.18811 0.98806 0.0
C385 C 0.56882 0.22123 0.00092 0.0
C386 C 0.60637 0.24089 0.00068 0.0
C387 C 0.64236 0.22856 0.98503 0.0
C388 C 0.64208 0.19652 0.97128 0.0
C389 C 0.60601 0.17647 0.9745 0.0
loop_
_geom_bond_atom_site_label_1
_geom_bond_atom_site_label_2
_geom_bond_distance
_geom_bond_site_symmetry_2
_ccdc_geom_bond_type
Gd0 C3 2.818 . S
Gd0 O20 2.377 . S
Gd0 O22 2.448 . S
Gd0 O23 2.506 1_556 S
Gd0 O24 2.435 . S
Gd0 O25 2.717 1_655 S
Gd0 O27 2.395 1_655 S
Gd0 O31 2.327 1_556 S
Gd1 C12 2.818 . S
Gd1 O21 2.395 1_455 S
Gd1 O25 2.327 1_554 S
Gd1 O26 2.377 . S
Gd1 O28 2.448 . S
Gd1 O29 2.506 1_554 S
Gd1 O30 2.435 . S
Gd1 O31 2.717 1_455 S
C2 O20 1.242 . S
C2 O21 1.239 1_556 S
C3 Gd0 2.818 . S
C3 C4 1.510 . S
C3 O22 1.249 . S
C3 O23 1.252 1_556 S
C4 C3 1.510 . S
C4 C5 1.404 . S
C4 C6 1.352 1_556 S
C5 C4 1.404 . S
C5 C9 1.389 . S
C5 H32 0.930 . S
C6 C4 1.352 1_554 S
C6 C8 1.374 . S
C6 H33 0.931 . S
C7 C8 1.356 1_556 S
C7 C9 1.368 . S
C8 C6 1.374 . S
C8 C7 1.356 1_554 S
C8 H34 0.931 . S
C9 C5 1.389 . S
C9 C7 1.368 . S
C9 H35 0.931 . S
C10 O24 1.256 1_455 S
C10 O25 1.257 . S
C11 O26 1.245 . S
C11 O27 1.238 1_554 S
C12 Gd1 2.818 . S
C12 C13 1.510 . S
C12 O28 1.249 . S
C12 O29 1.252 1_554 S
C13 C12 1.510 . S
C13 C14 1.404 . S
C13 C15 1.352 1_554 S
C14 C13 1.404 . S
C14 C18 1.389 . S
C14 H36 0.930 . S
C15 C13 1.352 1_556 S
C15 C17 1.374 . S
C15 H37 0.931 . S
C16 C17 1.350 1_554 S
C16 C18 1.375 . S
C17 C15 1.374 . S
C17 C16 1.350 1_556 S
C17 H38 0.931 . S
C18 C14 1.389 . S
C18 C16 1.375 . S
C18 H39 0.931 . S
C19 O30 1.256 . S
C19 O31 1.257 1_455 S
O20 Gd0 2.377 . S
O20 C2 1.242 . S
O21 Gd1 2.395 1_655 S
O21 C2 1.239 1_554 S
O22 Gd0 2.448 . S
O22 C3 1.249 . S
O23 Gd0 2.506 1_554 S
O23 C3 1.252 1_554 S
O24 Gd0 2.435 . S
O24 C10 1.256 1_655 S
O25 Gd0 2.717 1_455 S
O25 Gd1 2.327 1_556 S
O25 C10 1.257 . S
O26 Gd1 2.377 . S
O26 C11 1.245 . S
O27 Gd0 2.395 1_455 S
O27 C11 1.238 1_556 S
O28 Gd1 2.448 . S
O28 C12 1.249 . S
O29 Gd1 2.506 1_556 S
O29 C12 1.252 1_556 S
O30 Gd1 2.435 . S
O30 C19 1.256 . S
O31 Gd0 2.327 1_554 S
O31 Gd1 2.717 1_655 S
O31 C19 1.257 1_655 S
H32 C5 0.930 . S
H33 C6 0.931 . S
H34 C8 0.931 . S
H35 C9 0.931 . S
H36 C14 0.930 . S
H37 C15 0.931 . S
H38 C17 0.931 . S
H39 C18 0.931 . S
Gd40 C43 2.818 . S
Gd40 O60 2.377 . S
Gd40 O62 2.448 . S
Gd40 O63 2.506 1_554 S
Gd40 O64 2.435 . S
Gd40 O65 2.717 1_545 S
Gd40 O67 2.395 1_545 S
Gd40 O71 2.327 1_554 S
Gd41 C52 2.818 . S
Gd41 O61 2.395 1_565 S
Gd41 O65 2.327 1_556 S
Gd41 O66 2.377 . S
Gd41 O68 2.448 . S
Gd41 O69 2.506 1_556 S
Gd41 O70 2.435 . S
Gd41 O71 2.717 1_565 S
C42 O60 1.240 . S
C42 O61 1.240 1_554 S
C43 Gd40 2.818 . S
C43 C44 1.510 1_554 S
C43 O62 1.249 . S
C43 O63 1.252 1_554 S
C44 C43 1.510 1_556 S
C44 C45 1.404 1_556 S
C44 C46 1.352 . S
C45 C44 1.404 1_554 S
C45 C49 1.389 . S
C45 H72 0.930 . S
C46 C44 1.352 . S
C46 C48 1.374 . S
C46 H73 0.931 . S
C47 C48 1.359 . S
C47 C49 1.364 1_556 S
C48 C46 1.374 . S
C48 C47 1.359 . S
C48 H74 0.931 . S
C49 C45 1.389 . S
C49 C47 1.364 1_554 S
C49 H75 0.931 . S
C50 O64 1.256 . S
C50 O65 1.257 1_545 S
C51 O66 1.240 . S
C51 O67 1.240 1_556 S
C52 Gd41 2.818 . S
C52 C53 1.510 1_556 S
C52 O68 1.249 . S
C52 O69 1.252 1_556 S
C53 C52 1.510 1_554 S
C53 C54 1.404 1_554 S
C53 C55 1.352 . S
C54 C53 1.404 1_556 S
C54 C58 1.389 . S
C54 H76 0.930 . S
C55 C53 1.352 . S
C55 C57 1.374 . S
C55 H77 0.931 . S
C56 C57 1.359 . S
C56 C58 1.364 1_554 S
C57 C55 1.374 . S
C57 C56 1.359 . S
C57 H78 0.931 . S
C58 C54 1.389 . S
C58 C56 1.364 1_556 S
C58 H79 0.931 . S
C59 O70 1.256 . S
C59 O71 1.257 1_565 S
O60 Gd40 2.377 . S
O60 C42 1.240 . S
O61 Gd41 2.395 1_545 S
O61 C42 1.240 1_556 S
O62 Gd40 2.448 . S
O62 C43 1.249 . S
O63 Gd40 2.506 1_556 S
O63 C43 1.252 1_556 S
O64 Gd40 2.435 . S
O64 C50 1.256 . S
O65 Gd40 2.717 1_565 S
O65 Gd41 2.327 1_554 S
O65 C50 1.257 1_565 S
O66 Gd41 2.377 . S
O66 C51 1.240 . S
O67 Gd40 2.395 1_565 S
O67 C51 1.240 1_554 S
O68 Gd41 2.448 . S
O68 C52 1.249 . S
O69 Gd41 2.506 1_554 S
O69 C52 1.252 1_554 S
O70 Gd41 2.435 . S
O70 C59 1.256 . S
O71 Gd40 2.327 1_556 S
O71 Gd41 2.717 1_545 S
O71 C59 1.257 1_545 S
H72 C45 0.930 . S
H73 C46 0.931 . S
H74 C48 0.931 . S
H75 C49 0.931 . S
H76 C54 0.930 . S
H77 C55 0.931 . S
H78 C57 0.931 . S
H79 C58 0.931 . S
Gd80 C83 2.818 . S
Gd80 O100 2.377 . S
Gd80 O102 2.448 . S
Gd80 O103 2.506 1_554 S
Gd80 O104 2.435 . S
Gd80 O105 2.717 . S
Gd80 O107 2.395 . S
Gd80 O111 2.327 1_554 S
Gd81 C92 2.818 . S
Gd81 O101 2.395 . S
Gd81 O105 2.327 1_556 S
Gd81 O106 2.377 . S
Gd81 O108 2.448 . S
Gd81 O109 2.506 1_556 S
Gd81 O110 2.435 . S
Gd81 O111 2.717 . S
C82 O100 1.239 1_556 S
C82 O101 1.241 . S
C83 Gd80 2.818 . S
C83 C84 1.510 . S
C83 O102 1.249 . S
C83 O103 1.252 1_554 S
C84 C83 1.510 . S
C84 C85 1.404 . S
C84 C86 1.352 1_554 S
C85 C84 1.404 . S
C85 C89 1.389 . S
C85 H112 0.930 . S
C86 C84 1.352 1_556 S
C86 C88 1.374 . S
C86 H113 0.931 . S
C87 C88 1.359 . S
C87 C89 1.364 1_556 S
C88 C86 1.374 . S
C88 C87 1.359 . S
C88 H114 0.931 . S
C89 C85 1.389 . S
C89 C87 1.364 1_554 S
C89 H115 0.931 . S
C90 O104 1.256 . S
C90 O105 1.257 . S
C91 O106 1.236 1_554 S
C91 O107 1.242 . S
C92 Gd81 2.818 . S
C92 C93 1.510 . S
C92 O108 1.249 . S
C92 O109 1.252 1_556 S
C93 C92 1.510 . S
C93 C94 1.404 . S
C93 C95 1.352 1_556 S
C94 C93 1.404 . S
C94 C98 1.389 . S
C94 H116 0.930 . S
C95 C93 1.352 1_554 S
C95 C97 1.374 . S
C95 H117 0.931 . S
C96 C97 1.359 . S
C96 C98 1.364 1_554 S
C97 C95 1.374 . S
C97 C96 1.359 . S
C97 H118 0.931 . S
C98 C94 1.389 . S
C98 C96 1.364 1_556 S
C98 H119 0.931 . S
C99 O110 1.256 . S
C99 O111 1.257 . S
O100 Gd80 2.377 . S
O100 C82 1.239 1_554 S
O101 Gd81 2.395 . S
O101 C82 1.241 . S
O102 Gd80 2.448 . S
O102 C83 1.249 . S
O103 Gd80 2.506 1_556 S
O103 C83 1.252 1_556 S
O104 Gd80 2.435 . S
O104 C90 1.256 . S
O105 Gd80 2.717 . S
O105 Gd81 2.327 1_554 S
O105 C90 1.257 . S
O106 Gd81 2.377 . S
O106 C91 1.236 1_556 S
O107 Gd80 2.395 . S
O107 C91 1.242 . S
O108 Gd81 2.448 . S
O108 C92 1.249 . S
O109 Gd81 2.506 1_554 S
O109 C92 1.252 1_554 S
O110 Gd81 2.435 . S
O110 C99 1.256 . S
O111 Gd80 2.327 1_556 S
O111 Gd81 2.717 . S
O111 C99 1.257 . S
H112 C85 0.930 . S
H113 C86 0.931 . S
H114 C88 0.931 . S
H115 C89 0.931 . S
H116 C94 0.930 . S
H117 C95 0.931 . S
H118 C97 0.931 . S
H119 C98 0.931 . S
H120 C121 0.956 . S
C121 H120 0.956 . S
C121 C127 1.262 1_655 S
H122 C127 0.950 . S
H123 C131 0.949 . S
H124 C132 0.950 . S
H125 C133 0.951 . S
H126 C134 0.951 . S
C127 C121 1.262 1_455 S
C127 H122 0.950 . S
C127 C128 1.478 . S
C128 C127 1.478 . S
C128 C129 1.397 1_455 S
C128 C145 1.394 . S
C129 C128 1.397 1_655 S
C129 C130 1.438 . S
C129 C134 1.429 . S
C130 C129 1.438 . S
C130 C131 1.428 . S
C130 C143 1.394 . S
C131 H123 0.949 . S
C131 C130 1.428 . S
C131 C132 1.345 . S
C132 H124 0.950 . S
C132 C131 1.345 . S
C132 C133 1.424 . S
C133 H125 0.951 . S
C133 C132 1.424 . S
C133 C134 1.347 . S
C134 H126 0.951 . S
C134 C129 1.429 . S
C134 C133 1.347 . S
H135 C136 0.951 . S
C136 H135 0.951 . S
C136 C142 1.265 1_455 S
H137 C142 0.950 . S
H138 C146 0.949 . S
H139 C147 0.950 . S
H140 C148 0.951 . S
H141 C149 0.951 . S
C142 C136 1.265 1_655 S
C142 H137 0.950 . S
C142 C143 1.478 . S
C143 C130 1.394 . S
C143 C142 1.478 . S
C143 C144 1.397 1_655 S
C144 C143 1.397 1_455 S
C144 C145 1.438 . S
C144 C149 1.429 . S
C145 C128 1.394 . S
C145 C144 1.438 . S
C145 C146 1.428 . S
C146 H138 0.949 . S
C146 C145 1.428 . S
C146 C147 1.345 . S
C147 H139 0.950 . S
C147 C146 1.345 . S
C147 C148 1.424 . S
C148 H140 0.951 . S
C148 C147 1.424 . S
C148 C149 1.347 . S
C149 H141 0.951 . S
C149 C144 1.429 . S
C149 C148 1.347 . S
H150 C151 0.951 . S
C151 H150 0.951 . S
C151 C157 1.256 1_545 S
H152 C157 0.957 . S
H153 C161 0.949 . S
H154 C162 0.950 . S
H155 C163 0.951 . S
H156 C164 0.951 . S
C157 C151 1.256 1_565 S
C157 H152 0.957 . S
C157 C158 1.480 . S
C158 C157 1.480 . S
C158 C159 1.391 1_565 S
C158 C175 1.401 . S
C159 C158 1.391 1_545 S
C159 C160 1.438 . S
C159 C164 1.429 . S
C160 C159 1.438 . S
C160 C161 1.428 . S
C160 C173 1.415 . S
C161 H153 0.949 . S
C161 C160 1.428 . S
C161 C162 1.345 . S
C162 H154 0.950 . S
C162 C161 1.345 . S
C162 C163 1.424 . S
C163 H155 0.951 . S
C163 C162 1.424 . S
C163 C164 1.347 . S
C164 H156 0.951 . S
C164 C159 1.429 . S
C164 C163 1.347 . S
H165 C166 0.951 . S
C166 H165 0.951 . S
C166 C172 1.265 1_565 S
H167 C172 0.950 . S
H168 C176 0.949 . S
H169 C177 0.950 . S
H170 C178 0.951 . S
H171 C179 0.951 . S
C172 C166 1.265 1_545 S
C172 H167 0.950 . S
C172 C173 1.476 . S
C173 C160 1.415 . S
C173 C172 1.476 . S
C173 C174 1.379 1_545 S
C174 C173 1.379 1_565 S
C174 C175 1.438 . S
C174 C179 1.429 . S
C175 C158 1.401 . S
C175 C174 1.438 . S
C175 C176 1.428 . S
C176 H168 0.949 . S
C176 C175 1.428 . S
C176 C177 1.345 . S
C177 H169 0.950 . S
C177 C176 1.345 . S
C177 C178 1.424 . S
C178 H170 0.951 . S
C178 C177 1.424 . S
C178 C179 1.347 . S
C179 H171 0.951 . S
C179 C174 1.429 . S
C179 C178 1.347 . S
H180 C181 0.951 . S
C181 H180 0.951 . S
C181 C187 1.265 . S
H182 C187 0.950 . S
H183 C191 0.949 . S
H184 C192 0.950 . S
H185 C193 0.951 . S
H186 C194 0.951 . S
C187 C181 1.265 . S
C187 H182 0.950 . S
C187 C188 1.478 . S
C188 C187 1.478 . S
C188 C189 1.397 . S
C188 C205 1.394 . S
C189 C188 1.397 . S
C189 C190 1.438 . S
C189 C194 1.429 . S
C190 C189 1.438 . S
C190 C191 1.428 . S
C190 C203 1.394 . S
C191 H183 0.949 . S
C191 C190 1.428 . S
C191 C192 1.345 . S
C192 H184 0.950 . S
C192 C191 1.345 . S
C192 C193 1.424 . S
C193 H185 0.951 . S
C193 C192 1.424 . S
C193 C194 1.347 . S
C194 H186 0.951 . S
C194 C189 1.429 . S
C194 C193 1.347 . S
H195 C196 0.951 . S
C196 H195 0.951 . S
C196 C202 1.265 . S
H197 C202 0.950 . S
H198 C206 0.949 . S
H199 C207 0.950 . S
H200 C208 0.951 . S
H201 C209 0.951 . S
C202 C196 1.265 . S
C202 H197 0.950 . S
C202 C203 1.478 . S
C203 C190 1.394 . S
C203 C202 1.478 . S
C203 C204 1.397 . S
C204 C203 1.397 . S
C204 C205 1.438 . S
C204 C209 1.429 . S
C205 C188 1.394 . S
C205 C204 1.438 . S
C205 C206 1.428 . S
C206 H198 0.949 . S
C206 C205 1.428 . S
C206 C207 1.345 . S
C207 H199 0.950 . S
C207 C206 1.345 . S
C207 C208 1.424 . S
C208 H200 0.951 . S
C208 C207 1.424 . S
C208 C209 1.347 . S
C209 H201 0.951 . S
C209 C204 1.429 . S
C209 C208 1.347 . S
H210 C211 0.951 . S
C211 H210 0.951 . S
C211 C217 1.265 . S
H212 C217 0.950 1_554 S
H213 C221 0.949 . S
H214 C222 0.950 . S
H215 C223 0.951 . S
H216 C224 0.951 . S
C217 C211 1.265 . S
C217 H212 0.950 1_556 S
C217 C218 1.478 . S
C218 C217 1.478 . S
C218 C219 1.397 1_556 S
C218 C235 1.394 . S
C219 C218 1.397 1_554 S
C219 C220 1.438 . S
C219 C224 1.429 . S
C220 C219 1.438 . S
C220 C221 1.428 . S
C220 C233 1.394 1_554 S
C221 H213 0.949 . S
C221 C220 1.428 . S
C221 C222 1.345 . S
C222 H214 0.950 . S
C222 C221 1.345 . S
C222 C223 1.424 . S
C223 H215 0.951 . S
C223 C222 1.424 . S
C223 C224 1.347 . S
C224 H216 0.951 . S
C224 C219 1.429 . S
C224 C223 1.347 . S
H225 C226 0.951 . S
C226 H225 0.951 . S
C226 C232 1.265 . S
H227 C232 0.950 . S
H228 C236 0.949 . S
H229 C237 0.950 . S
H230 C238 0.951 . S
H231 C239 0.951 . S
C232 C226 1.265 . S
C232 H227 0.950 . S
C232 C233 1.478 . S
C233 C220 1.394 1_556 S
C233 C232 1.478 . S
C233 C234 1.397 . S
C234 C233 1.397 . S
C234 C235 1.438 . S
C234 C239 1.429 . S
C235 C218 1.394 . S
C235 C234 1.438 . S
C235 C236 1.428 . S
C236 H228 0.949 . S
C236 C235 1.428 . S
C236 C237 1.345 . S
C237 H229 0.950 . S
C237 C236 1.345 . S
C237 C238 1.424 . S
C238 H230 0.951 . S
C238 C237 1.424 . S
C238 C239 1.347 . S
C239 H231 0.951 . S
C239 C234 1.429 . S
C239 C238 1.347 . S
H240 C241 0.951 1_554 S
C241 H240 0.951 1_556 S
C241 C247 1.265 . S
H242 C247 0.950 . S
H243 C251 0.949 . S
H244 C252 0.950 . S
H245 C253 0.951 . S
H246 C254 0.951 . S
C247 C241 1.265 . S
C247 H242 0.950 . S
C247 C248 1.478 . S
C248 C247 1.478 . S
C248 C249 1.397 . S
C248 C265 1.394 1_556 S
C249 C248 1.397 . S
C249 C250 1.438 . S
C249 C254 1.429 . S
C250 C249 1.438 . S
C250 C251 1.428 . S
C250 C263 1.400 . S
C251 H243 0.949 . S
C251 C250 1.428 . S
C251 C252 1.345 . S
C252 H244 0.950 . S
C252 C251 1.345 . S
C252 C253 1.424 . S
C253 H245 0.951 . S
C253 C252 1.424 . S
C253 C254 1.347 . S
C254 H246 0.951 . S
C254 C249 1.429 . S
C254 C253 1.347 . S
H255 C256 0.951 . S
C256 H255 0.951 . S
C256 C262 1.265 1_556 S
H257 C262 0.950 . S
H258 C266 0.949 . S
H259 C267 0.950 . S
H260 C268 0.951 . S
H261 C269 0.951 . S
C262 C256 1.265 1_554 S
C262 H257 0.950 . S
C262 C263 1.479 1_554 S
C263 C250 1.400 . S
C263 C262 1.479 1_556 S
C263 C264 1.390 1_556 S
C264 C263 1.390 1_554 S
C264 C265 1.438 . S
C264 C269 1.429 . S
C265 C248 1.394 1_554 S
C265 C264 1.438 . S
C265 C266 1.428 . S
C266 H258 0.949 . S
C266 C265 1.428 . S
C266 C267 1.345 . S
C267 H259 0.950 . S
C267 C266 1.345 . S
C267 C268 1.424 . S
C268 H260 0.951 . S
C268 C267 1.424 . S
C268 C269 1.347 . S
C269 H261 0.951 . S
C269 C264 1.429 . S
C269 C268 1.347 . S
H270 C271 0.951 1_554 S
C271 H270 0.951 1_556 S
C271 C277 1.265 . S
H272 C277 0.950 . S
H273 C281 0.949 . S
H274 C282 0.950 . S
H275 C283 0.951 . S
H276 C284 0.951 . S
C277 C271 1.265 . S
C277 H272 0.950 . S
C277 C278 1.478 . S
C278 C277 1.478 . S
C278 C279 1.397 . S
C278 C295 1.394 1_556 S
C279 C278 1.397 . S
C279 C280 1.438 . S
C279 C284 1.429 . S
C280 C279 1.438 . S
C280 C281 1.428 . S
C280 C293 1.394 1_556 S
C281 H273 0.949 . S
C281 C280 1.428 . S
C281 C282 1.345 . S
C282 H274 0.950 . S
C282 C281 1.345 . S
C282 C283 1.424 . S
C283 H275 0.951 . S
C283 C282 1.424 . S
C283 C284 1.347 . S
C284 H276 0.951 . S
C284 C279 1.429 . S
C284 C283 1.347 . S
H285 C286 0.951 . S
C286 H285 0.951 . S
C286 C292 1.265 1_556 S
H287 C292 0.950 . S
H288 C296 0.949 . S
H289 C297 0.950 . S
H290 C298 0.951 . S
H291 C299 0.951 . S
C292 C286 1.265 1_554 S
C292 H287 0.950 . S
C292 C293 1.478 . S
C293 C280 1.394 1_554 S
C293 C292 1.478 . S
C293 C294 1.397 . S
C294 C293 1.397 . S
C294 C295 1.438 . S
C294 C299 1.429 . S
C295 C278 1.394 1_554 S
C295 C294 1.438 . S
C295 C296 1.428 . S
C296 H288 0.949 . S
C296 C295 1.428 . S
C296 C297 1.345 . S
C297 H289 0.950 . S
C297 C296 1.345 . S
C297 C298 1.424 . S
C298 H290 0.951 . S
C298 C297 1.424 . S
C298 C299 1.347 . S
C299 H291 0.951 . S
C299 C294 1.429 . S
C299 C298 1.347 . S
H300 C301 0.951 1_556 S
C301 H300 0.951 1_554 S
C301 C307 1.265 . S
H302 C307 0.950 . S
H303 C311 0.949 . S
H304 C312 0.950 . S
H305 C313 0.951 . S
H306 C314 0.951 . S
C307 C301 1.265 . S
C307 H302 0.950 . S
C307 C308 1.478 . S
C308 C307 1.478 . S
C308 C309 1.397 1_554 S
C308 C325 1.394 . S
C309 C308 1.397 1_556 S
C309 C310 1.438 . S
C309 C314 1.429 . S
C310 C309 1.438 . S
C310 C311 1.428 . S
C310 C323 1.394 1_556 S
C311 H303 0.949 . S
C311 C310 1.428 . S
C311 C312 1.345 . S
C312 H304 0.950 . S
C312 C311 1.345 . S
C312 C313 1.424 . S
C313 H305 0.951 . S
C313 C312 1.424 . S
C313 C314 1.347 . S
C314 H306 0.951 . S
C314 C309 1.429 . S
C314 C313 1.347 . S
H315 C316 0.951 . S
C316 H315 0.951 . S
C316 C322 1.266 . S
H317 C322 0.949 1_556 S
H318 C326 0.949 . S
H319 C327 0.950 . S
H320 C328 0.951 . S
H321 C329 0.951 . S
C322 C316 1.266 . S
C322 H317 0.949 1_554 S
C322 C323 1.478 . S
C323 C310 1.394 1_554 S
C323 C322 1.478 . S
C323 C324 1.397 . S
C324 C323 1.397 . S
C324 C325 1.438 . S
C324 C329 1.429 . S
C325 C308 1.394 . S
C325 C324 1.438 . S
C325 C326 1.428 . S
C326 H318 0.949 . S
C326 C325 1.428 . S
C326 C327 1.345 . S
C327 H319 0.950 . S
C327 C326 1.345 . S
C327 C328 1.424 . S
C328 H320 0.951 . S
C328 C327 1.424 . S
C328 C329 1.347 . S
C329 H321 0.951 . S
C329 C324 1.429 . S
C329 C328 1.347 . S
H330 C331 0.951 1_556 S
C331 H330 0.951 1_554 S
C331 C337 1.265 . S
H332 C337 0.950 . S
H333 C341 0.949 . S
H334 C342 0.950 . S
H335 C343 0.951 . S
H336 C344 0.951 . S
C337 C331 1.265 . S
C337 H332 0.950 . S
C337 C338 1.478 . S
C338 C337 1.478 . S
C338 C339 1.397 . S
C338 C355 1.394 1_554 S
C339 C338 1.397 . S
C339 C340 1.438 . S
C339 C344 1.429 . S
C340 C339 1.438 . S
C340 C341 1.428 . S
C340 C353 1.394 . S
C341 H333 0.949 . S
C341 C340 1.428 . S
C341 C342 1.345 . S
C342 H334 0.950 . S
C342 C341 1.345 . S
C342 C343 1.424 . S
C343 H335 0.951 . S
C343 C342 1.424 . S
C343 C344 1.347 . S
C344 H336 0.951 . S
C344 C339 1.429 . S
C344 C343 1.347 . S
H345 C346 0.951 . S
C346 H345 0.951 . S
C346 C352 1.265 . S
H347 C352 0.950 1_556 S
H348 C356 0.949 . S
H349 C357 0.950 . S
H350 C358 0.951 . S
H351 C359 0.951 . S
C352 C346 1.265 . S
C352 H347 0.950 1_554 S
C352 C353 1.478 . S
C353 C340 1.394 . S
C353 C352 1.478 . S
C353 C354 1.397 1_554 S
C354 C353 1.397 1_556 S
C354 C355 1.438 . S
C354 C359 1.429 . S
C355 C338 1.394 1_556 S
C355 C354 1.438 . S
C355 C356 1.428 . S
C356 H348 0.949 . S
C356 C355 1.428 . S
C356 C357 1.345 . S
C357 H349 0.950 . S
C357 C356 1.345 . S
C357 C358 1.424 . S
C358 H350 0.951 . S
C358 C357 1.424 . S
C358 C359 1.347 . S
C359 H351 0.951 . S
C359 C354 1.429 . S
C359 C358 1.347 . S
H360 C361 0.951 . S
C361 H360 0.951 . S
C361 C367 1.265 1_556 S
H362 C367 0.950 . S
H363 C371 0.949 . S
H364 C372 0.950 . S
H365 C373 0.951 . S
H366 C374 0.951 . S
C367 C361 1.265 1_554 S
C367 H362 0.950 . S
C367 C368 1.478 . S
C368 C367 1.478 . S
C368 C369 1.397 . S
C368 C385 1.394 1_554 S
C369 C368 1.397 . S
C369 C370 1.438 . S
C369 C374 1.429 . S
C370 C369 1.438 . S
C370 C371 1.428 . S
C370 C383 1.394 1_554 S
C371 H363 0.949 . S
C371 C370 1.428 . S
C371 C372 1.345 . S
C372 H364 0.950 . S
C372 C371 1.345 . S
C372 C373 1.424 . S
C373 H365 0.951 . S
C373 C372 1.424 . S
C373 C374 1.347 . S
C374 H366 0.951 . S
C374 C369 1.429 . S
C374 C373 1.347 . S
H375 C376 0.951 . S
C376 H375 0.951 . S
C376 C382 1.265 1_554 S
H377 C382 0.950 . S
H378 C386 0.949 . S
H379 C387 0.950 . S
H380 C388 0.951 . S
H381 C389 0.951 . S
C382 C376 1.265 1_556 S
C382 H377 0.950 . S
C382 C383 1.478 . S
C383 C370 1.394 1_556 S
C383 C382 1.478 . S
C383 C384 1.397 . S
C384 C383 1.397 . S
C384 C385 1.438 . S
C384 C389 1.429 . S
C385 C368 1.394 1_556 S
C385 C384 1.438 . S
C385 C386 1.428 . S
C386 H378 0.949 . S
C386 C385 1.428 . S
C386 C387 1.345 . S
C387 H379 0.950 . S
C387 C386 1.345 . S
C387 C388 1.424 . S
C388 H380 0.951 . S
C388 C387 1.424 . S
C388 C389 1.347 . S
C389 H381 0.951 . S
C389 C384 1.429 . S
C389 C388 1.347 . S
C121 C10 1.462 1_655 S
C136 C19 1.463 . S
C151 C50 1.483 . S
C166 C59 1.483 . S
C181 C99 1.443 . S
C196 C90 1.443 . S
C211 C11 2.599 1_556 S
C226 C82 2.582 . S
C241 C47 0.863 . S
C256 C7 0.853 . S
C271 C51 2.026 . S
C286 C87 1.991 . S
C301 C2 2.603 1_554 S
C316 C91 2.547 . S
C331 C16 0.921 . S
C346 C56 0.915 . S
C361 C96 1.931 1_556 S
C376 C42 1.990 . S
