# Generated by pormake.
# Topology smc, (6)-cn, num edge types: 1
# Building blocks:
#     Node 0, Type 0, BuildingBlock: MAKGUD_clean_sbu_1, # of connection points: 6
#     Node 1, Type 0, BuildingBlock: MAKGUD_clean_sbu_1, # of connection points: 6
#     Node 2, Type 0, BuildingBlock: MAKGUD_clean_sbu_1, # of connection points: 6
#     Node 3, Type 0, BuildingBlock: MAKGUD_clean_sbu_1, # of connection points: 6
#     Node 4, Type 0, BuildingBlock: MAKGUD_clean_sbu_1, # of connection points: 6
#     Node 5, Type 0, BuildingBlock: MAKGUD_clean_sbu_1, # of connection points: 6
#     Node 6, Type 0, BuildingBlock: MAKGUD_clean_sbu_1, # of connection points: 6
#     Node 7, Type 0, BuildingBlock: MAKGUD_clean_sbu_1, # of connection points: 6
#     Node 8, Type 0, BuildingBlock: MAKGUD_clean_sbu_1, # of connection points: 6
#     Edge 9, Type (0, 0), BuildingBlock: CIFDUS_clean_linker_0, # of connection points: 2
#     Edge 10, Type (0, 0), BuildingBlock: CIFDUS_clean_linker_0, # of connection points: 2
#     Edge 11, Type (0, 0), BuildingBlock: CIFDUS_clean_linker_0, # of connection points: 2
#     Edge 12, Type (0, 0), BuildingBlock: CIFDUS_clean_linker_0, # of connection points: 2
#     Edge 13, Type (0, 0), BuildingBlock: CIFDUS_clean_linker_0, # of connection points: 2
#     Edge 14, Type (0, 0), BuildingBlock: CIFDUS_clean_linker_0, # of connection points: 2
#     Edge 15, Type (0, 0), BuildingBlock: CIFDUS_clean_linker_0, # of connection points: 2
#     Edge 16, Type (0, 0), BuildingBlock: CIFDUS_clean_linker_0, # of connection points: 2
#     Edge 17, Type (0, 0), BuildingBlock: CIFDUS_clean_linker_0, # of connection points: 2
#     Edge 18, Type (0, 0), BuildingBlock: CIFDUS_clean_linker_0, # of connection points: 2
#     Edge 19, Type (0, 0), BuildingBlock: CIFDUS_clean_linker_0, # of connection points: 2
#     Edge 20, Type (0, 0), BuildingBlock: CIFDUS_clean_linker_0, # of connection points: 2
#     Edge 21, Type (0, 0), BuildingBlock: CIFDUS_clean_linker_0, # of connection points: 2
#     Edge 22, Type (0, 0), BuildingBlock: CIFDUS_clean_linker_0, # of connection points: 2
#     Edge 23, Type (0, 0), BuildingBlock: CIFDUS_clean_linker_0, # of connection points: 2
#     Edge 24, Type (0, 0), BuildingBlock: CIFDUS_clean_linker_0, # of connection points: 2
#     Edge 25, Type (0, 0), BuildingBlock: CIFDUS_clean_linker_0, # of connection points: 2
#     Edge 26, Type (0, 0), BuildingBlock: CIFDUS_clean_linker_0, # of connection points: 2
#     Edge 27, Type (0, 0), BuildingBlock: CIFDUS_clean_linker_0, # of connection points: 2
#     Edge 28, Type (0, 0), BuildingBlock: CIFDUS_clean_linker_0, # of connection points: 2
#     Edge 29, Type (0, 0), BuildingBlock: CIFDUS_clean_linker_0, # of connection points: 2
#     Edge 30, Type (0, 0), BuildingBlock: CIFDUS_clean_linker_0, # of connection points: 2
#     Edge 31, Type (0, 0), BuildingBlock: CIFDUS_clean_linker_0, # of connection points: 2
#     Edge 32, Type (0, 0), BuildingBlock: CIFDUS_clean_linker_0, # of connection points: 2
#     Edge 33, Type (0, 0), BuildingBlock: CIFDUS_clean_linker_0, # of connection points: 2
#     Edge 34, Type (0, 0), BuildingBlock: CIFDUS_clean_linker_0, # of connection points: 2
#     Edge 35, Type (0, 0), BuildingBlock: CIFDUS_clean_linker_0, # of connection points: 2
# Relax obj value: 0.130
# Max RMSD: 0.293
# Mean RMSD: 0.293
data_MOF--net-smc--node1-MAKGUD_clean_sbu_1--edge1-CIFDUS_clean_linker_0
_symmetry_space_group_name_H-M    P1
_symmetry_Int_Tables_number       1
_symmetry_cell_setting            triclinic
loop_
_symmetry_equiv_pos_as_xyz
'x, y, z'
_cell_length_a     33.23619
_cell_length_b     33.070216
_cell_length_c     31.513926
_cell_angle_alpha  90.492961
_cell_angle_beta   89.866169
_cell_angle_gamma 120.40466
loop_
_atom_site_label
_atom_site_type_symbol
_atom_site_fract_x
_atom_site_fract_y
_atom_site_fract_z
_atom_type_partial_charge
O0 O 0.92299 0.36411 0.03542 0.0
Tb1 Tb 0.97585 0.43539 0.01863 0.0
C2 C 0.0554 0.46275 0.94815 0.0
O3 O 0.07829 0.47184 0.04314 0.0
Tb4 Tb 0.14207 0.51114 1.00581 0.0
C5 C 0.21351 0.49648 1.00024 0.0
O6 O 1.01079 0.43269 0.07715 0.0
O7 O 0.16927 0.58567 0.01775 0.0
C8 C 0.19238 0.60441 0.05328 0.0
O9 O 0.19588 0.57685 0.0809 0.0
O10 O 1.03863 0.47469 0.9806 0.0
O11 O 0.10107 0.48106 0.9472 0.0
O12 O 0.94719 0.48093 0.02803 0.0
C13 C 0.05662 0.45162 0.07852 0.0
C14 C 0.90533 0.35067 0.99765 0.0
O15 O 0.188 0.48892 0.03409 0.0
O16 O 0.19787 0.51106 0.96975 0.0
C17 C 0.93343 0.49418 0.99447 0.0
O18 O 0.9395 0.48097 0.95671 0.0
O19 O 0.92874 0.38472 0.97108 0.0
O20 O 0.73776 0.58599 0.02866 0.0
Tb21 Tb 0.66549 0.56488 1.01525 0.0
C22 C 0.63785 0.619 0.94873 0.0
O23 O 0.60457 0.60572 0.04575 0.0
Tb24 Tb 0.57488 0.63792 1.00634 0.0
C25 C 0.5854 0.72103 0.02639 0.0
O26 O 0.67188 0.61189 0.06749 0.0
O27 O 0.50091 0.58787 1.00012 0.0
C28 C 0.47682 0.56844 0.03473 0.0
O29 O 0.49925 0.57733 0.07103 0.0
O30 O 0.62446 0.58467 0.97599 0.0
O31 O 0.61604 0.64294 0.95003 0.0
O32 O 0.62201 0.49261 0.03482 0.0
C33 C 0.64201 0.6269 0.06978 0.0
C34 C 0.74721 0.57595 0.9913 0.0
O35 O 0.58191 0.69004 0.05373 0.0
O36 O 0.58395 0.70538 0.9881 0.0
C37 C 0.60177 0.45957 1.00568 0.0
O38 O 0.60567 0.47181 0.96566 0.0
O39 O 0.71084 0.56122 0.96667 0.0
O40 O 0.3749 0.90219 1.00165 0.0
Tb41 Tb 0.4456 0.9516 0.02245 0.0
C42 C 0.47362 1.03283 0.09219 0.0
O43 O 0.51029 0.05781 0.99281 0.0
Tb44 Tb 0.53586 0.11709 0.03757 0.0
C45 C 0.52653 0.19131 0.02371 0.0
O46 O 0.44262 0.99422 0.9712 0.0
O47 O 0.61022 0.14221 0.04047 0.0
C48 C 0.63619 0.16237 1.00689 0.0
O49 O 0.61575 0.16415 0.97192 0.0
O50 O 0.48499 1.01425 0.06092 0.0
O51 O 0.49565 0.07888 0.09357 0.0
O52 O 0.49098 0.92434 1.00665 0.0
C53 C 0.47213 0.03989 0.96933 0.0
C54 C 0.36064 0.87922 0.03702 0.0
O55 O 0.51771 0.15836 0.99603 0.0
O56 O 0.53964 0.18178 0.0592 0.0
C57 C 0.50801 0.91125 0.03784 0.0
O58 O 0.4991 0.91794 0.0771 0.0
O59 O 0.39405 0.8985 0.0653 0.0
O60 O 0.58205 0.70548 0.36933 0.0
Tb61 Tb 0.64162 0.76997 0.34517 0.0
C62 C 0.71758 0.78553 0.27484 0.0
O63 O 0.76389 0.80882 0.38985 0.0
Tb64 Tb 0.79623 0.84486 0.32917 0.0
C65 C 0.88544 0.86903 0.31907 0.0
O66 O 0.68104 0.77346 0.40252 0.0
O67 O 0.80174 0.91272 0.33939 0.0
C68 C 0.82856 0.9395 0.37066 0.0
O69 O 0.84265 0.92049 0.3991 0.0
O70 O 0.70484 0.79384 0.3115 0.0
O71 O 0.76239 0.80754 0.27093 0.0
O72 O 0.61933 0.82147 0.34238 0.0
C73 C 0.725 0.78631 0.41343 0.0
C74 C 0.56587 0.68598 0.3324 0.0
O75 O 0.85505 0.83326 0.34103 0.0
O76 O 0.86551 0.89071 0.30364 0.0
C77 C 0.60355 0.82703 0.30586 0.0
O78 O 0.60682 0.80509 0.27223 0.0
O79 O 0.59346 0.7133 0.30274 0.0
O80 O 0.40508 0.91338 0.38256 0.0
Tb81 Tb 0.3367 0.89694 0.36018 0.0
C82 C 0.30993 0.95252 0.29342 0.0
O83 O 0.27665 0.94274 0.39339 0.0
Tb84 Tb 0.24951 0.97497 0.34991 0.0
C85 C 0.25514 0.05652 0.36856 0.0
O86 O 0.34142 0.94193 0.41386 0.0
O87 O 0.17614 0.92626 0.33748 0.0
C88 C 0.15321 0.94043 0.3138 0.0
O89 O 0.17693 0.98083 0.29439 0.0
O90 O 0.29869 0.92282 0.32461 0.0
O91 O 0.28893 0.9772 0.29307 0.0
O92 O 0.28957 0.82224 0.36915 0.0
C93 C 0.31574 0.96209 0.41566 0.0
C94 C 0.42191 0.9115 0.34578 0.0
O95 O 0.24047 1.02115 0.39421 0.0
O96 O 0.26836 0.04652 0.33308 0.0
C97 C 0.27629 0.79454 0.33546 0.0
O98 O 0.29025 0.81357 0.2979 0.0
O99 O 0.39083 0.90266 0.31622 0.0
O100 O 0.17865 0.50381 0.36397 0.0
Tb101 Tb 0.19078 0.44749 0.34491 0.0
C102 C 0.1231 0.36253 0.2857 0.0
O103 O 0.14635 0.3448 0.3793 0.0
Tb104 Tb 0.10642 0.27982 0.34325 0.0
C105 C 1.02418 0.20773 0.367 0.0
O106 O 0.14651 0.41044 0.39923 0.0
O107 O 0.15309 0.25314 0.3304 0.0
C108 C 0.1686 0.24036 0.36306 0.0
O109 O 0.1575 0.24725 0.4014 0.0
O110 O 0.16371 0.38429 0.30543 0.0
O111 O 0.09607 0.31686 0.29109 0.0
O112 O 0.2647 0.47534 0.358 0.0
C113 C 0.12935 0.36502 0.40369 0.0
C114 C 0.18178 0.52098 0.32637 0.0
O115 O 0.05798 0.2352 0.39276 0.0
O116 O 1.03652 0.22193 0.32825 0.0
C117 C 0.29508 0.49332 0.32677 0.0
O118 O 0.27931 0.48984 0.28792 0.0
O119 O 0.18808 0.49525 0.29848 0.0
O120 O 0.24933 0.07504 0.73092 0.0
Tb121 Tb 0.31733 0.11723 0.70086 0.0
C122 C 0.37901 0.11687 0.62831 0.0
O123 O 0.42107 0.17154 0.75824 0.0
Tb124 Tb 0.45457 0.18268 0.69664 0.0
C125 C 0.53708 0.18753 0.70594 0.0
O126 O 0.35454 0.10014 0.74781 0.0
O127 O 0.47322 0.25484 0.68339 0.0
C128 C 0.49555 0.28658 0.71341 0.0
O129 O 0.49945 0.27197 0.75099 0.0
O130 O 0.35052 0.13201 0.63866 0.0
O131 O 0.41346 0.12341 0.65354 0.0
O132 O 0.30468 0.1751 0.71101 0.0
C133 C 0.39022 0.1295 0.77158 0.0
C134 C 0.23039 0.0431 0.70155 0.0
O135 O 0.50489 0.17401 0.73478 0.0
O136 O 0.52263 0.19802 0.67178 0.0
C137 C 0.28307 0.1842 0.68082 0.0
O138 O 0.27904 0.16496 0.64324 0.0
O139 O 0.26061 0.05278 0.67124 0.0
O140 O 0.05082 0.22612 0.7186 0.0
Tb141 Tb 0.99613 0.23822 0.69329 0.0
C142 C 0.97105 0.29399 0.6114 0.0
O143 O 0.94593 0.28551 0.71216 0.0
Tb144 Tb 0.90792 0.3125 0.67994 0.0
C145 C 0.91964 0.39831 0.68834 0.0
O146 O 0.99426 0.2748 0.75068 0.0
O147 O 0.83318 0.26459 0.67248 0.0
C148 C 0.8048 0.25714 0.70455 0.0
O149 O 0.8228 0.2739 0.74216 0.0
O150 O 0.98602 0.27235 0.63712 0.0
O151 O 0.94112 0.30833 0.62134 0.0
O152 O 0.94481 0.16352 0.686 0.0
C153 C 0.96945 0.29504 0.74763 0.0
C154 C 0.07983 0.24464 0.68727 0.0
O155 O 0.909 0.36841 0.71923 0.0
O156 O 0.92597 0.38046 0.65374 0.0
C157 C 0.94631 0.14199 0.65108 0.0
O158 O 0.97499 0.16764 0.62084 0.0
O159 O 0.06187 0.26001 0.65969 0.0
O160 O 0.71227 0.56725 0.66282 0.0
Tb161 Tb 0.77896 0.62678 0.68317 0.0
C162 C 0.80565 0.71121 0.7489 0.0
O163 O 0.84002 0.73458 0.65098 0.0
Tb164 Tb 0.86502 0.79676 0.69246 0.0
C165 C 0.85108 0.86893 0.68053 0.0
O166 O 0.77559 0.66733 0.62935 0.0
O167 O 0.94011 0.82868 0.70137 0.0
C168 C 0.9667 0.83603 0.66788 0.0
O169 O 0.94648 0.81909 0.63102 0.0
O170 O 0.81812 0.69193 0.71899 0.0
O171 O 0.82588 0.75731 0.74876 0.0
O172 O 0.82445 0.59683 0.68092 0.0
C173 C 0.80229 0.71367 0.62688 0.0
C174 C 0.69396 0.5552 0.70047 0.0
O175 O 0.86151 0.8481 0.65072 0.0
O176 O 0.84624 0.8473 0.71609 0.0
C177 C 0.83154 0.58154 0.7171 0.0
O178 O 0.81418 0.58905 0.7518 0.0
O179 O 0.72322 0.58476 0.72857 0.0
H180 H 0.41985 0.54854 0.96624 0.0
H181 H 0.41752 0.53265 0.10218 0.0
H182 H 0.33372 0.50284 0.10298 0.0
H183 H 0.26289 0.49036 0.06612 0.0
H184 H 0.26626 0.50873 0.93059 0.0
H185 H 0.34739 0.52769 0.92851 0.0
C186 C 0.40093 0.53789 0.99597 0.0
C187 C 0.42514 0.5435 0.03411 0.0
C188 C 0.35279 0.52138 0.99633 0.0
C189 C 0.39991 0.52912 0.07232 0.0
C190 C 0.35191 0.51213 0.07287 0.0
C191 C 0.28115 0.49748 0.03608 0.0
C192 C 0.25887 0.49852 0.99863 0.0
C193 C 0.32823 0.50942 0.03523 0.0
C194 C 0.28284 0.50795 0.95989 0.0
C195 C 0.3293 0.51901 0.95868 0.0
H196 H 0.53618 0.86951 0.09527 0.0
H197 H 0.53199 0.89125 0.96081 0.0
H198 H 0.56133 0.83824 0.9459 0.0
H199 H 0.58024 0.77967 0.97057 0.0
H200 H 0.58112 0.7549 0.10459 0.0
H201 H 0.56167 0.81572 0.12027 0.0
C202 C 0.54224 0.86317 0.0627 0.0
C203 C 0.53137 0.88397 0.02916 0.0
C204 C 0.55833 0.83195 0.05431 0.0
C205 C 0.53967 0.87546 0.9872 0.0
C206 C 0.55641 0.84509 0.97864 0.0
C207 C 0.57694 0.78815 1.00324 0.0
C208 C 0.58169 0.76269 0.0364 0.0
C209 C 0.56468 0.82224 1.01186 0.0
C210 C 0.57743 0.77399 0.07857 0.0
C211 C 0.56611 0.80858 0.08749 0.0
H212 H 0.33676 0.81519 0.10015 0.0
H213 H 0.29126 0.83673 0.97878 0.0
H214 H 0.23178 0.75378 0.97447 0.0
H215 H 0.19918 0.67333 1.00101 0.0
H216 H 0.24559 0.65174 0.12207 0.0
H217 H 0.29755 0.73593 0.13069 0.0
C218 C 0.31305 0.80188 0.0733 0.0
C219 C 0.31864 0.83197 0.03972 0.0
C220 C 0.27943 0.75378 0.07057 0.0
C221 C 0.28777 0.81423 1.00502 0.0
C222 C 0.25389 0.76668 1.00237 0.0
C223 C 0.22016 0.68707 0.02953 0.0
C224 C 0.21889 0.656 0.06044 0.0
C225 C 0.25044 0.73579 0.03427 0.0
C226 C 0.24613 0.67462 0.09741 0.0
C227 C 0.27599 0.72291 0.10245 0.0
H228 H 0.54613 0.26161 0.07927 0.0
H229 H 0.51448 0.2223 0.94746 0.0
H230 H 0.53101 0.30147 0.9307 0.0
H231 H 0.5618 0.38362 0.9526 0.0
H232 H 0.59494 0.42283 0.08447 0.0
H233 H 0.57001 0.34182 0.10218 0.0
C234 C 0.54218 0.27022 0.04699 0.0
C235 C 0.52945 0.23642 1.01458 0.0
C236 C 0.55236 0.31586 0.03757 0.0
C237 C 0.52429 0.24785 0.97292 0.0
C238 C 0.53394 0.29313 0.96332 0.0
C239 C 0.56304 0.37439 0.98532 0.0
C240 C 0.58076 0.40947 0.01708 0.0
C241 C 0.54915 0.32774 0.99524 0.0
C242 C 0.58177 0.39671 0.05933 0.0
C243 C 0.56762 0.35035 0.06949 0.0
H244 H 0.69862 0.20932 0.94395 0.0
H245 H 0.69012 0.17336 0.07635 0.0
H246 H 0.77448 0.22408 0.08345 0.0
H247 H 0.84902 0.2853 0.05422 0.0
H248 H 0.85733 0.32375 0.92272 0.0
H249 H 0.77485 0.26473 0.91286 0.0
C250 C 0.71524 0.21206 0.97426 0.0
C251 C 0.68788 0.18798 1.00972 0.0
C252 C 0.76376 0.24186 0.97828 0.0
C253 C 0.71016 0.1917 0.04861 0.0
C254 C 0.75846 0.22079 0.05273 0.0
C255 C 0.83301 0.28009 0.02317 0.0
C256 C 0.85904 0.30903 0.9893 0.0
C257 C 0.78538 0.24699 0.01809 0.0
C258 C 0.83793 0.30191 0.94927 0.0
C259 C 0.79071 0.2684 0.94373 0.0
H260 H 0.88651 0.51104 0.93303 0.0
H261 H 0.92085 0.53303 0.06646 0.0
H262 H 0.87079 0.56674 0.07568 0.0
H263 H 0.81138 0.58241 0.04747 0.0
H264 H 0.77274 0.55551 0.91531 0.0
H265 H 0.83111 0.53212 0.90367 0.0
C266 C 0.88354 0.52374 0.96404 0.0
C267 C 0.90711 0.51912 0.99911 0.0
C268 C 0.85387 0.54214 0.9693 0.0
C269 C 0.90284 0.5358 0.03903 0.0
C270 C 0.87421 0.5551 0.04432 0.0
C271 C 0.81639 0.57231 0.01594 0.0
C272 C 0.78779 0.57048 0.98228 0.0
C273 C 0.84874 0.5574 1.00992 0.0
C274 C 0.79439 0.55711 0.94166 0.0
C275 C 0.82753 0.5435 0.9351 0.0
H276 H 0.93669 0.8332 0.35338 0.0
H277 H 0.945 0.93819 0.2676 0.0
H278 H 1.02728 0.96646 0.25549 0.0
H279 H 0.0978 0.96467 0.27181 0.0
H280 H 0.09244 0.86226 0.35908 0.0
H281 H 1.00827 0.82931 0.36752 0.0
C282 C 0.95661 0.86206 0.33193 0.0
C283 C 0.93488 0.88376 0.31163 0.0
C284 C 1.00444 0.87861 0.32527 0.0
C285 C 0.96096 0.92108 0.28384 0.0
C286 C 1.00806 0.93727 0.27679 0.0
C287 C 0.07827 0.9348 0.29237 0.0
C288 C 0.10153 0.91615 0.31488 0.0
C289 C 1.03028 0.91673 0.29769 0.0
C290 C 0.07546 0.87734 0.34129 0.0
C291 C 1.02732 0.85862 0.34632 0.0
H292 H 0.19362 0.19993 0.42425 0.0
H293 H 0.19811 0.22003 0.2888 0.0
H294 H 0.23093 0.16898 0.27911 0.0
H295 H 0.25153 0.11294 0.30866 0.0
H296 H 0.24184 0.08917 0.44356 0.0
H297 H 0.21852 0.14788 0.45407 0.0
C298 C 0.20224 0.19365 0.39259 0.0
C299 C 0.19308 0.2136 0.35726 0.0
C300 C 0.22012 0.16348 0.38721 0.0
C301 C 0.20457 0.205 0.31653 0.0
C302 C 0.2233 0.17574 0.31097 0.0
C303 C 0.24518 0.12135 0.34041 0.0
C304 C 0.24837 0.0969 0.37535 0.0
C305 C 0.23029 0.15401 0.346 0.0
C306 C 0.23952 0.10758 0.41625 0.0
C307 C 0.22603 0.14098 0.42221 0.0
H308 H 0.95093 0.1503 0.3163 0.0
H309 H 1.00536 0.16228 0.44274 0.0
H310 H 0.94522 0.08105 0.45707 0.0
H311 H 0.88357 1.00403 0.43042 0.0
H312 H 0.82936 0.99222 0.30375 0.0
H313 H 0.88226 0.07601 0.29309 0.0
C314 C 0.94905 0.13537 0.34727 0.0
C315 C 0.98286 0.16208 0.37828 0.0
C316 C 0.91455 0.08852 0.35513 0.0
C317 C 0.97984 0.14242 0.41832 0.0
C318 C 0.94556 0.09588 0.42643 0.0
C319 C 0.88263 1.01991 0.40075 0.0
C320 C 0.8528 0.99154 0.36775 0.0
C321 C 0.91365 0.06816 0.39462 0.0
C322 C 0.85189 1.01296 0.32969 0.0
C323 C 0.88244 0.06094 0.32344 0.0
H324 H 0.25264 0.72905 0.27264 0.0
H325 H 0.2414 0.74333 0.40782 0.0
H326 H 0.20541 0.65859 0.41578 0.0
H327 H 0.18401 0.58169 0.38547 0.0
H328 H 0.19876 0.56745 0.25105 0.0
H329 H 0.2257 0.65084 0.2415 0.0
C330 C 0.24187 0.71364 0.30382 0.0
C331 C 0.25016 0.74271 0.33967 0.0
C332 C 0.22184 0.66488 0.30827 0.0
C333 C 0.23578 0.72197 0.37975 0.0
C334 C 0.21519 0.67345 0.38433 0.0
C335 C 0.1923 0.59664 0.35394 0.0
C336 C 0.18956 0.56854 0.319 0.0
C337 C 0.209 0.64474 0.34897 0.0
C338 C 0.20054 0.58838 0.2784 0.0
C339 C 0.21623 0.63611 0.27301 0.0
H340 H 0.36573 0.53247 0.26912 0.0
H341 H 0.33935 0.52029 0.4039 0.0
H342 H 0.42187 0.57582 0.41772 0.0
H343 H 0.50035 0.63317 0.39129 0.0
H344 H 0.5261 0.64591 0.25651 0.0
H345 H 0.4453 0.58464 0.24299 0.0
C346 C 0.37802 0.5415 0.30158 0.0
C347 C 0.34608 0.52239 0.3354 0.0
C348 C 0.42553 0.57383 0.3093 0.0
C349 C 0.36294 0.53441 0.37722 0.0
C350 C 0.4102 0.56635 0.38516 0.0
C351 C 0.48843 0.62197 0.359 0.0
C352 C 0.51913 0.64424 0.32492 0.0
C353 C 0.44164 0.58705 0.35144 0.0
C354 C 0.50317 0.62941 0.28328 0.0
C355 C 0.45689 0.59448 0.27552 0.0
H356 H 0.45313 0.88661 0.27548 0.0
H357 H 0.48699 0.93049 0.40616 0.0
H358 H 0.54959 0.91245 0.40444 0.0
H359 H 0.58856 0.87537 0.3686 0.0
H360 H 0.55475 0.83092 0.23793 0.0
H361 H 0.49907 0.8583 0.2368 0.0
C362 C 0.47492 0.89316 0.30321 0.0
C363 C 0.46513 0.9094 0.34099 0.0
C364 C 0.51063 0.88199 0.30224 0.0
C365 C 0.49362 0.91772 0.37673 0.0
C366 C 0.52936 0.90721 0.37587 0.0
C367 C 0.56954 0.8723 0.33969 0.0
C368 C 0.57547 0.85047 0.30368 0.0
C369 C 0.5372 0.88788 0.33925 0.0
C370 C 0.55076 0.84724 0.26633 0.0
C371 C 0.5187 0.8628 0.26562 0.0
H372 H 0.736 0.22829 0.76389 0.0
H373 H 0.75938 0.24234 0.62869 0.0
H374 H 0.67817 0.22045 0.61702 0.0
H375 H 0.60179 0.20288 0.64555 0.0
H376 H 0.57776 0.18653 0.78045 0.0
H377 H 0.65771 0.20366 0.79189 0.0
C378 C 0.72322 0.22603 0.73181 0.0
C379 C 0.754 0.23733 0.69726 0.0
C380 C 0.67637 0.2134 0.72529 0.0
C381 C 0.73662 0.23383 0.65591 0.0
C382 C 0.69016 0.22155 0.64919 0.0
C383 C 0.61402 0.20271 0.67739 0.0
C384 C 0.58412 0.19391 0.71215 0.0
C385 C 0.65996 0.21218 0.68368 0.0
C386 C 0.60019 0.19334 0.7532 0.0
C387 C 0.64593 0.20322 0.75976 0.0
H388 H 0.89566 0.43482 0.75534 0.0
H389 H 0.92944 0.45482 0.62219 0.0
H390 H 0.90756 0.51499 0.61915 0.0
H391 H 0.87227 0.5575 0.65298 0.0
H392 H 0.83974 0.53788 0.7866 0.0
H393 H 0.86766 0.48277 0.79065 0.0
C394 C 0.89902 0.45297 0.72588 0.0
C395 C 0.91397 0.44012 0.68905 0.0
C396 C 0.886 0.48747 0.72423 0.0
C397 C 0.91805 0.46397 0.65107 0.0
C398 C 0.90526 0.49829 0.64921 0.0
C399 C 0.87175 0.54156 0.68305 0.0
C400 C 0.85337 0.55171 0.71924 0.0
C401 C 0.88812 0.50962 0.68536 0.0
C402 C 0.85335 0.53077 0.75802 0.0
C403 C 0.86932 0.49903 0.76047 0.0
H404 H 0.63404 0.48946 0.64418 0.0
H405 H 0.65854 0.51867 0.77825 0.0
H406 H 0.59571 0.43906 0.79409 0.0
H407 H 0.53946 0.35899 0.76974 0.0
H408 H 0.51547 0.3292 0.63561 0.0
H409 H 0.57184 0.41124 0.61994 0.0
C410 C 0.62509 0.47863 0.67688 0.0
C411 C 0.65119 0.50987 0.71002 0.0
C412 C 0.58917 0.43255 0.68572 0.0
C413 C 0.6391 0.49534 0.75219 0.0
C414 C 0.60327 0.44971 0.76124 0.0
C415 C 0.54598 0.37049 0.73703 0.0
C416 C 0.52342 0.33764 0.70388 0.0
C417 C 0.57891 0.41766 0.72826 0.0
C418 C 0.53219 0.35349 0.66178 0.0
C419 C 0.5647 0.40045 0.65278 0.0
H420 H 0.88124 0.92925 0.61341 0.0
H421 H 0.83367 0.91542 0.7427 0.0
H422 H 0.8551 0.99779 0.74433 0.0
H423 H 0.89507 0.07618 0.71155 0.0
H424 H 0.94333 0.08992 0.58233 0.0
H425 H 0.91378 1.00592 0.57817 0.0
C426 C 0.87467 0.94404 0.6416 0.0
C427 C 0.85603 0.91615 0.67791 0.0
C428 C 0.88781 0.9919 0.64258 0.0
C429 C 0.84799 0.93602 0.71428 0.0
C430 C 0.86049 0.98331 0.71534 0.0
C431 C 0.89847 0.06072 0.68227 0.0
C432 C 0.92196 0.08978 0.64753 0.0
C433 C 0.88163 1.01201 0.68008 0.0
C434 C 0.92585 0.06879 0.60982 0.0
C435 C 0.90896 1.02055 0.60734 0.0
H436 H 1.01831 0.89356 0.73336 0.0
H437 H 1.03074 0.8516 0.60626 0.0
H438 H 0.11371 0.91037 0.60576 0.0
H439 H 0.18236 0.97723 0.6399 0.0
H440 H 0.16892 1.02023 0.76618 0.0
H441 H 0.08732 0.95785 0.76849 0.0
C442 C 1.03926 0.89682 0.70576 0.0
C443 C 1.01811 0.86813 0.66992 0.0
C444 C 0.08697 0.93133 0.70536 0.0
C445 C 1.04593 0.87319 0.63432 0.0
C446 C 0.09348 0.90695 0.63392 0.0
C447 C 0.16157 0.97266 0.66797 0.0
C448 C 0.18163 1.00343 0.70273 0.0
C449 C 0.11429 0.93679 0.66898 0.0
C450 C 0.15428 0.99713 0.7389 0.0
C451 C 0.10755 0.96141 0.74029 0.0
H452 H 0.24782 0.22146 0.62597 0.0
H453 H 0.25005 0.19137 0.75855 0.0
H454 H 0.18857 0.2096 0.77293 0.0
H455 H 0.1284 0.22635 0.74635 0.0
H456 H 0.12832 0.25878 0.61412 0.0
H457 H 0.1945 0.24746 0.60112 0.0
C458 C 0.23549 0.21975 0.65817 0.0
C459 C 0.25341 0.20476 0.69105 0.0
C460 C 0.19995 0.23011 0.66618 0.0
C461 C 0.23716 0.20302 0.73263 0.0
C462 C 0.20162 0.21303 0.74083 0.0
C463 C 0.14331 0.23147 0.71484 0.0
C464 C 0.12319 0.2429 0.68115 0.0
C465 C 0.18183 0.22536 0.70765 0.0
C466 C 0.14308 0.24987 0.64056 0.0
C467 C 0.18089 0.24329 0.63307 0.0
H468 H 0.17416 0.43027 0.22662 0.0
H469 H 1.03535 0.34533 0.27678 0.0
H470 H 1.00328 0.36826 0.21852 0.0
H471 H 1.01306 0.40455 0.14957 0.0
H472 H 0.15024 0.49037 0.09784 0.0
H473 H 0.18475 0.47506 0.1599 0.0
C474 C 0.13712 0.41799 0.22534 0.0
C475 C 0.10714 0.38618 0.25608 0.0
C476 C 0.11854 0.43047 0.19082 0.0
C477 C 0.05911 0.36985 0.25359 0.0
C478 C 1.04068 0.38271 0.2201 0.0
C479 C 0.05062 0.42034 0.15176 0.0
C480 C 0.0791 0.44733 0.11791 0.0
C481 C 0.06982 0.41167 0.18783 0.0
C482 C 0.12758 0.46799 0.12225 0.0
C483 C 0.14722 0.45957 0.15815 0.0
H484 H 0.71707 0.80177 0.19154 0.0
H485 H 0.65664 0.69221 0.28443 0.0
H486 H 0.6214 0.63313 0.22787 0.0
H487 H 0.61736 0.61222 0.1519 0.0
H488 H 0.68492 0.72136 0.05932 0.0
H489 H 0.70788 0.78121 0.11531 0.0
C490 C 0.69484 0.76501 0.19924 0.0
C491 C 0.68753 0.7514 0.24208 0.0
C492 C 0.67683 0.73125 0.16643 0.0
C493 C 0.6605 0.70365 0.2518 0.0
C494 C 0.6412 0.66984 0.21939 0.0
C495 C 0.63614 0.64919 0.14407 0.0
C496 C 0.64894 0.66269 0.10172 0.0
C497 C 0.65032 0.68314 0.17662 0.0
C498 C 0.67425 0.71044 0.09173 0.0
C499 C 0.68751 0.74452 0.12375 0.0
H500 H 0.48657 1.03344 0.17612 0.0
H501 H 0.38037 0.97407 0.07942 0.0
H502 H 0.31969 0.93965 0.13418 0.0
H503 H 0.29705 0.93388 0.20977 0.0
H504 H 0.40346 0.99393 0.30628 0.0
H505 H 0.46425 1.02048 0.2517 0.0
C506 C 0.45012 1.01206 0.16722 0.0
C507 C 0.43767 1.00553 0.12404 0.0
C508 C 0.41573 0.99295 0.19887 0.0
C509 C 0.39055 0.9785 0.11253 0.0
C510 C 0.35598 0.95931 0.14383 0.0
C511 C 0.33363 0.9519 0.21869 0.0
C512 C 0.34611 0.96154 0.26177 0.0
C513 C 0.36813 0.96725 0.18708 0.0
C514 C 0.39334 0.98551 0.27328 0.0
C515 C 0.42795 1.00094 0.24208 0.0
H516 H 0.38984 1.02087 0.93525 0.0
H517 H 0.53756 0.11874 0.92809 0.0
H518 H 0.52488 0.15872 0.86905 0.0
H519 H 0.47199 0.16177 0.81577 0.0
H520 H 0.32516 0.05837 0.81946 0.0
H521 H 0.3372 1.02474 0.88337 0.0
C522 C 0.41923 0.05132 0.9211 0.0
C523 C 0.46452 0.06752 0.93677 0.0
C524 C 0.41177 0.07285 0.88616 0.0
C525 C 0.50226 0.10648 0.91755 0.0
C526 C 0.49502 0.12901 0.88345 0.0
C527 C 0.44258 0.13216 0.83077 0.0
C528 C 0.39774 0.11247 0.81259 0.0
C529 C 0.44995 0.11202 0.86701 0.0
C530 C 0.36007 0.07401 0.8325 0.0
C531 C 0.36691 0.05472 0.8691 0.0
H532 H 1.04062 0.47284 0.86554 0.0
H533 H 1.00806 0.3689 0.96151 0.0
H534 H 0.97257 0.30642 0.90773 0.0
H535 H 0.95973 0.2825 0.83222 0.0
H536 H 0.99489 0.38649 0.73581 0.0
H537 H 1.01945 0.44775 0.79052 0.0
C538 C 1.02456 0.43636 0.87466 0.0
C539 C 1.02609 0.42522 0.91743 0.0
C540 C 1.00484 0.40076 0.84334 0.0
C541 C 1.00636 0.37807 0.9289 0.0
C542 C 0.98642 0.34245 0.89809 0.0
C543 C 0.97148 0.31843 0.82338 0.0
C544 C 0.97424 0.32986 0.78011 0.0
C545 C 0.98661 0.35347 0.85507 0.0
C546 C 0.99068 0.37661 0.7689 0.0
C547 C 1.00548 0.41172 0.80022 0.0
H548 H 0.81613 0.69883 0.83177 0.0
H549 H 0.71211 0.66627 0.73552 0.0
H550 H 0.65028 0.63108 0.78908 0.0
H551 H 0.62663 0.61554 0.8642 0.0
H552 H 0.73065 0.65159 0.96113 0.0
H553 H 0.79184 0.67893 0.90678 0.0
C554 C 0.77977 0.68308 0.8226 0.0
C555 C 0.76831 0.68402 0.7798 0.0
C556 C 0.74465 0.66378 0.85377 0.0
C557 C 0.72142 0.66488 0.76819 0.0
C558 C 0.68622 0.64511 0.79884 0.0
C559 C 0.66268 0.62865 0.8732 0.0
C560 C 0.67422 0.63045 0.91636 0.0
C561 C 0.6975 0.64515 0.84181 0.0
C562 C 0.72096 0.64843 0.92796 0.0
C563 C 0.75589 0.66455 0.89691 0.0
H564 H 0.80506 0.82252 0.46168 0.0
H565 H 0.65872 0.71694 0.46309 0.0
H566 H 0.66909 0.68794 0.53054 0.0
H567 H 0.7205 0.68835 0.58682 0.0
H568 H 0.86647 0.79373 0.58636 0.0
H569 H 0.85528 0.82724 0.52163 0.0
C570 C 0.77531 0.79335 0.4768 0.0
C571 C 0.73117 0.77185 0.45671 0.0
C572 C 0.78141 0.77673 0.51603 0.0
C573 C 0.69309 0.73443 0.47743 0.0
C574 C 0.69899 0.71759 0.51612 0.0
C575 C 0.74975 0.7191 0.5729 0.0
C576 C 0.79427 0.73858 0.59167 0.0
C577 C 0.74309 0.73791 0.53537 0.0
C578 C 0.83173 0.7784 0.57312 0.0
C579 C 0.8254 0.79731 0.53575 0.0
H580 H 0.33372 0.95376 0.4972 0.0
H581 H 0.32334 0.04844 0.4116 0.0
H582 H 0.33666 0.10306 0.47055 0.0
H583 H 0.35448 0.1248 0.5471 0.0
H584 H 0.37573 1.03364 0.62929 0.0
H585 H 0.35587 0.97709 0.57139 0.0
C586 C 0.33411 0.98628 0.49155 0.0
C587 C 0.32463 0.99594 0.4506 0.0
C588 C 0.34445 1.01834 0.52514 0.0
C589 C 0.32675 0.03875 0.44343 0.0
C590 C 0.33559 0.0704 0.47701 0.0
C591 C 0.35451 0.09242 0.55218 0.0
C592 C 0.36636 0.08325 0.59244 0.0
C593 C 0.34445 0.06054 0.51815 0.0
C594 C 0.36693 0.04154 0.59856 0.0
C595 C 0.3555 1.00914 0.56549 0.0
H596 H 1.02468 0.2635 0.5715 0.0
H597 H 0.96457 0.35137 0.55302 0.0
H598 H 1.00495 0.37765 0.48556 0.0
H599 H 0.06259 0.38123 0.43438 0.0
H600 H 0.12365 0.29468 0.4526 0.0
H601 H 0.07734 0.26205 0.51703 0.0
C602 C 1.01998 0.28808 0.55264 0.0
C603 C 0.99176 0.30564 0.56797 0.0
C604 C 1.04357 0.30339 0.51361 0.0
C605 C 0.98597 0.33714 0.5425 0.0
C606 C 1.00924 0.35243 0.50377 0.0
C607 C 0.06509 0.3546 0.4521 0.0
C608 C 0.09601 0.3399 0.43844 0.0
C609 C 1.03884 0.33655 0.48942 0.0
C610 C 0.09932 0.30578 0.46192 0.0
C611 C 0.07319 0.28749 0.49903 0.0
loop_
_geom_bond_atom_site_label_1
_geom_bond_atom_site_label_2
_geom_bond_distance
_geom_bond_site_symmetry_2
_ccdc_geom_bond_type
O0 Tb1 2.506 . S
O0 C14 1.265 . S
Tb1 O0 2.506 . S
Tb1 O6 2.312 . S
Tb1 O10 2.271 1_554 S
Tb1 O12 2.338 . S
Tb1 O19 2.441 1_554 S
C2 O10 1.252 . S
C2 O11 1.253 1_655 S
O3 Tb4 2.271 1_554 S
O3 C13 1.252 . S
Tb4 O3 2.271 1_556 S
Tb4 O7 2.338 . S
Tb4 O11 2.312 . S
Tb4 O15 2.441 1_556 S
Tb4 O16 2.506 . S
C5 O15 1.244 1_556 S
C5 O16 1.265 . S
O6 Tb1 2.312 . S
O6 C13 1.253 1_655 S
O7 Tb4 2.338 . S
O7 C8 1.258 1_556 S
C8 O7 1.258 1_554 S
C8 O9 1.251 . S
O9 C8 1.251 . S
O10 Tb1 2.271 1_556 S
O10 C2 1.252 . S
O11 C2 1.253 1_455 S
O11 Tb4 2.312 . S
O12 Tb1 2.338 . S
O12 C17 1.258 1_554 S
C13 O3 1.252 . S
C13 O6 1.253 1_455 S
C14 O0 1.265 . S
C14 O19 1.244 1_554 S
O15 Tb4 2.441 1_554 S
O15 C5 1.244 1_554 S
O16 Tb4 2.506 . S
O16 C5 1.265 . S
C17 O12 1.258 1_556 S
C17 O18 1.251 . S
O18 C17 1.251 . S
O19 Tb1 2.441 1_556 S
O19 C14 1.244 1_556 S
O20 Tb21 2.506 . S
O20 C34 1.265 . S
Tb21 O20 2.506 . S
Tb21 O26 2.312 . S
Tb21 O30 2.271 1_554 S
Tb21 O32 2.338 . S
Tb21 O39 2.441 1_554 S
C22 O30 1.252 . S
C22 O31 1.253 . S
O23 Tb24 2.271 1_554 S
O23 C33 1.252 . S
Tb24 O23 2.271 1_556 S
Tb24 O27 2.338 . S
Tb24 O31 2.312 . S
Tb24 O35 2.441 1_556 S
Tb24 O36 2.506 . S
C25 O35 1.244 1_556 S
C25 O36 1.265 . S
O26 Tb21 2.312 . S
O26 C33 1.253 . S
O27 Tb24 2.338 . S
O27 C28 1.258 1_556 S
C28 O27 1.258 1_554 S
C28 O29 1.251 . S
O29 C28 1.251 . S
O30 Tb21 2.271 1_556 S
O30 C22 1.252 . S
O31 C22 1.253 . S
O31 Tb24 2.312 . S
O32 Tb21 2.338 . S
O32 C37 1.258 1_554 S
C33 O23 1.252 . S
C33 O26 1.253 . S
C34 O20 1.265 . S
C34 O39 1.244 1_554 S
O35 Tb24 2.441 1_554 S
O35 C25 1.244 1_554 S
O36 Tb24 2.506 . S
O36 C25 1.265 . S
C37 O32 1.258 1_556 S
C37 O38 1.251 . S
O38 C37 1.251 . S
O39 Tb21 2.441 1_556 S
O39 C34 1.244 1_556 S
O40 Tb41 2.506 . S
O40 C54 1.265 . S
Tb41 O40 2.506 . S
Tb41 O46 2.312 . S
Tb41 O50 2.271 1_556 S
Tb41 O52 2.338 . S
Tb41 O59 2.441 1_556 S
C42 O50 1.252 . S
C42 O51 1.253 1_565 S
O43 Tb44 2.271 1_556 S
O43 C53 1.252 . S
Tb44 O43 2.271 1_554 S
Tb44 O47 2.338 . S
Tb44 O51 2.312 . S
Tb44 O55 2.441 1_554 S
Tb44 O56 2.506 . S
C45 O55 1.244 1_554 S
C45 O56 1.265 . S
O46 Tb41 2.312 . S
O46 C53 1.253 1_565 S
O47 Tb44 2.338 . S
O47 C48 1.258 1_554 S
C48 O47 1.258 1_556 S
C48 O49 1.251 . S
O49 C48 1.251 . S
O50 Tb41 2.271 1_554 S
O50 C42 1.252 . S
O51 C42 1.253 1_545 S
O51 Tb44 2.312 . S
O52 Tb41 2.338 . S
O52 C57 1.258 1_556 S
C53 O43 1.252 . S
C53 O46 1.253 1_545 S
C54 O40 1.265 . S
C54 O59 1.244 1_556 S
O55 Tb44 2.441 1_556 S
O55 C45 1.244 1_556 S
O56 Tb44 2.506 . S
O56 C45 1.265 . S
C57 O52 1.258 1_554 S
C57 O58 1.251 . S
O58 C57 1.251 . S
O59 Tb41 2.441 1_554 S
O59 C54 1.244 1_554 S
O60 Tb61 2.506 . S
O60 C74 1.265 . S
Tb61 O60 2.506 . S
Tb61 O66 2.312 . S
Tb61 O70 2.271 . S
Tb61 O72 2.338 . S
Tb61 O79 2.441 . S
C62 O70 1.252 . S
C62 O71 1.253 . S
O63 Tb64 2.271 . S
O63 C73 1.252 . S
Tb64 O63 2.271 . S
Tb64 O67 2.338 . S
Tb64 O71 2.312 . S
Tb64 O75 2.441 . S
Tb64 O76 2.506 . S
C65 O75 1.244 . S
C65 O76 1.265 . S
O66 Tb61 2.312 . S
O66 C73 1.253 . S
O67 Tb64 2.338 . S
O67 C68 1.258 . S
C68 O67 1.258 . S
C68 O69 1.251 . S
O69 C68 1.251 . S
O70 Tb61 2.271 . S
O70 C62 1.252 . S
O71 C62 1.253 . S
O71 Tb64 2.312 . S
O72 Tb61 2.338 . S
O72 C77 1.258 . S
C73 O63 1.252 . S
C73 O66 1.253 . S
C74 O60 1.265 . S
C74 O79 1.244 . S
O75 Tb64 2.441 . S
O75 C65 1.244 . S
O76 Tb64 2.506 . S
O76 C65 1.265 . S
C77 O72 1.258 . S
C77 O78 1.251 . S
O78 C77 1.251 . S
O79 Tb61 2.441 . S
O79 C74 1.244 . S
O80 Tb81 2.506 . S
O80 C94 1.265 . S
Tb81 O80 2.506 . S
Tb81 O86 2.312 . S
Tb81 O90 2.271 . S
Tb81 O92 2.338 . S
Tb81 O99 2.441 . S
C82 O90 1.252 . S
C82 O91 1.253 . S
O83 Tb84 2.271 . S
O83 C93 1.252 . S
Tb84 O83 2.271 . S
Tb84 O87 2.338 . S
Tb84 O91 2.312 . S
Tb84 O95 2.441 . S
Tb84 O96 2.506 . S
C85 O95 1.244 . S
C85 O96 1.265 . S
O86 Tb81 2.312 . S
O86 C93 1.253 . S
O87 Tb84 2.338 . S
O87 C88 1.258 . S
C88 O87 1.258 . S
C88 O89 1.251 . S
O89 C88 1.251 . S
O90 Tb81 2.271 . S
O90 C82 1.252 . S
O91 C82 1.253 . S
O91 Tb84 2.312 . S
O92 Tb81 2.338 . S
O92 C97 1.258 . S
C93 O83 1.252 . S
C93 O86 1.253 . S
C94 O80 1.265 . S
C94 O99 1.244 . S
O95 Tb84 2.441 . S
O95 C85 1.244 . S
O96 Tb84 2.506 . S
O96 C85 1.265 . S
C97 O92 1.258 . S
C97 O98 1.251 . S
O98 C97 1.251 . S
O99 Tb81 2.441 . S
O99 C94 1.244 . S
O100 Tb101 2.506 . S
O100 C114 1.265 . S
Tb101 O100 2.506 . S
Tb101 O106 2.312 . S
Tb101 O110 2.271 . S
Tb101 O112 2.338 . S
Tb101 O119 2.441 . S
C102 O110 1.252 . S
C102 O111 1.253 . S
O103 Tb104 2.271 . S
O103 C113 1.252 . S
Tb104 O103 2.271 . S
Tb104 O107 2.338 . S
Tb104 O111 2.312 . S
Tb104 O115 2.441 . S
Tb104 O116 2.506 . S
C105 O115 1.244 . S
C105 O116 1.265 . S
O106 Tb101 2.312 . S
O106 C113 1.253 . S
O107 Tb104 2.338 . S
O107 C108 1.258 . S
C108 O107 1.258 . S
C108 O109 1.251 . S
O109 C108 1.251 . S
O110 Tb101 2.271 . S
O110 C102 1.252 . S
O111 C102 1.253 . S
O111 Tb104 2.312 . S
O112 Tb101 2.338 . S
O112 C117 1.258 . S
C113 O103 1.252 . S
C113 O106 1.253 . S
C114 O100 1.265 . S
C114 O119 1.244 . S
O115 Tb104 2.441 . S
O115 C105 1.244 . S
O116 Tb104 2.506 . S
O116 C105 1.265 . S
C117 O112 1.258 . S
C117 O118 1.251 . S
O118 C117 1.251 . S
O119 Tb101 2.441 . S
O119 C114 1.244 . S
O120 Tb121 2.506 . S
O120 C134 1.265 . S
Tb121 O120 2.506 . S
Tb121 O126 2.312 . S
Tb121 O130 2.271 . S
Tb121 O132 2.338 . S
Tb121 O139 2.441 . S
C122 O130 1.252 . S
C122 O131 1.253 . S
O123 Tb124 2.271 . S
O123 C133 1.252 . S
Tb124 O123 2.271 . S
Tb124 O127 2.338 . S
Tb124 O131 2.312 . S
Tb124 O135 2.441 . S
Tb124 O136 2.506 . S
C125 O135 1.244 . S
C125 O136 1.265 . S
O126 Tb121 2.312 . S
O126 C133 1.253 . S
O127 Tb124 2.338 . S
O127 C128 1.258 . S
C128 O127 1.258 . S
C128 O129 1.251 . S
O129 C128 1.251 . S
O130 Tb121 2.271 . S
O130 C122 1.252 . S
O131 C122 1.253 . S
O131 Tb124 2.312 . S
O132 Tb121 2.338 . S
O132 C137 1.258 . S
C133 O123 1.252 . S
C133 O126 1.253 . S
C134 O120 1.265 . S
C134 O139 1.244 . S
O135 Tb124 2.441 . S
O135 C125 1.244 . S
O136 Tb124 2.506 . S
O136 C125 1.265 . S
C137 O132 1.258 . S
C137 O138 1.251 . S
O138 C137 1.251 . S
O139 Tb121 2.441 . S
O139 C134 1.244 . S
O140 Tb141 2.506 . S
O140 C154 1.265 . S
Tb141 O140 2.506 . S
Tb141 O146 2.312 . S
Tb141 O150 2.271 . S
Tb141 O152 2.338 . S
Tb141 O159 2.441 . S
C142 O150 1.252 . S
C142 O151 1.253 . S
O143 Tb144 2.271 . S
O143 C153 1.252 . S
Tb144 O143 2.271 . S
Tb144 O147 2.338 . S
Tb144 O151 2.312 . S
Tb144 O155 2.441 . S
Tb144 O156 2.506 . S
C145 O155 1.244 . S
C145 O156 1.265 . S
O146 Tb141 2.312 . S
O146 C153 1.253 . S
O147 Tb144 2.338 . S
O147 C148 1.258 . S
C148 O147 1.258 . S
C148 O149 1.251 . S
O149 C148 1.251 . S
O150 Tb141 2.271 . S
O150 C142 1.252 . S
O151 C142 1.253 . S
O151 Tb144 2.312 . S
O152 Tb141 2.338 . S
O152 C157 1.258 . S
C153 O143 1.252 . S
C153 O146 1.253 . S
C154 O140 1.265 . S
C154 O159 1.244 . S
O155 Tb144 2.441 . S
O155 C145 1.244 . S
O156 Tb144 2.506 . S
O156 C145 1.265 . S
C157 O152 1.258 . S
C157 O158 1.251 . S
O158 C157 1.251 . S
O159 Tb141 2.441 . S
O159 C154 1.244 . S
O160 Tb161 2.506 . S
O160 C174 1.265 . S
Tb161 O160 2.506 . S
Tb161 O166 2.312 . S
Tb161 O170 2.271 . S
Tb161 O172 2.338 . S
Tb161 O179 2.441 . S
C162 O170 1.252 . S
C162 O171 1.253 . S
O163 Tb164 2.271 . S
O163 C173 1.252 . S
Tb164 O163 2.271 . S
Tb164 O167 2.338 . S
Tb164 O171 2.312 . S
Tb164 O175 2.441 . S
Tb164 O176 2.506 . S
C165 O175 1.244 . S
C165 O176 1.265 . S
O166 Tb161 2.312 . S
O166 C173 1.253 . S
O167 Tb164 2.338 . S
O167 C168 1.258 . S
C168 O167 1.258 . S
C168 O169 1.251 . S
O169 C168 1.251 . S
O170 Tb161 2.271 . S
O170 C162 1.252 . S
O171 C162 1.253 . S
O171 Tb164 2.312 . S
O172 Tb161 2.338 . S
O172 C177 1.258 . S
C173 O163 1.252 . S
C173 O166 1.253 . S
C174 O160 1.265 . S
C174 O179 1.244 . S
O175 Tb164 2.441 . S
O175 C165 1.244 . S
O176 Tb164 2.506 . S
O176 C165 1.265 . S
C177 O172 1.258 . S
C177 O178 1.251 . S
O178 C177 1.251 . S
O179 Tb161 2.441 . S
O179 C174 1.244 . S
H180 C186 0.920 1_556 S
H181 C189 0.930 . S
H182 C190 0.930 . S
H183 C191 0.930 . S
H184 C194 0.930 . S
H185 C195 0.930 . S
C186 H180 0.920 1_554 S
C186 C187 1.366 . S
C186 C188 1.413 1_554 S
C187 C186 1.366 . S
C187 C189 1.419 . S
C188 C186 1.413 1_556 S
C188 C193 1.425 1_556 S
C188 C195 1.409 . S
C189 H181 0.930 . S
C189 C187 1.419 . S
C189 C190 1.362 . S
C190 H182 0.930 . S
C190 C189 1.362 . S
C190 C193 1.409 . S
C191 H183 0.930 . S
C191 C192 1.355 1_554 S
C191 C193 1.415 . S
C192 C191 1.355 1_556 S
C192 C194 1.419 . S
C193 C188 1.425 1_554 S
C193 C190 1.409 . S
C193 C191 1.415 . S
C194 H184 0.930 . S
C194 C192 1.419 . S
C194 C195 1.362 . S
C195 H185 0.930 . S
C195 C188 1.409 . S
C195 C194 1.362 . S
H196 C202 0.930 . S
H197 C205 0.930 . S
H198 C206 0.930 . S
H199 C207 0.930 . S
H200 C210 0.930 . S
H201 C211 0.930 . S
C202 H196 0.930 . S
C202 C203 1.355 . S
C202 C204 1.415 . S
C203 C202 1.355 . S
C203 C205 1.419 . S
C204 C202 1.415 . S
C204 C209 1.425 . S
C204 C211 1.409 . S
C205 H197 0.930 . S
C205 C203 1.419 . S
C205 C206 1.362 . S
C206 H198 0.930 . S
C206 C205 1.362 . S
C206 C209 1.409 . S
C207 H199 0.930 . S
C207 C208 1.355 . S
C207 C209 1.415 1_556 S
C208 C207 1.355 . S
C208 C210 1.419 . S
C209 C204 1.425 . S
C209 C206 1.409 . S
C209 C207 1.415 1_554 S
C210 H200 0.930 . S
C210 C208 1.419 . S
C210 C211 1.362 1_556 S
C211 H201 0.930 . S
C211 C204 1.409 . S
C211 C210 1.362 1_554 S
H212 C218 0.930 . S
H213 C221 0.930 . S
H214 C222 0.930 . S
H215 C223 0.930 1_556 S
H216 C226 0.930 . S
H217 C227 0.930 . S
C218 H212 0.930 . S
C218 C219 1.355 1_554 S
C218 C220 1.415 . S
C219 C218 1.355 1_556 S
C219 C221 1.419 . S
C220 C218 1.415 . S
C220 C225 1.425 1_554 S
C220 C227 1.409 . S
C221 H213 0.930 . S
C221 C219 1.419 . S
C221 C222 1.362 . S
C222 H214 0.930 . S
C222 C221 1.362 . S
C222 C225 1.409 . S
C223 H215 0.930 1_554 S
C223 C224 1.355 . S
C223 C225 1.415 1_554 S
C224 C223 1.355 . S
C224 C226 1.419 . S
C225 C220 1.425 1_556 S
C225 C222 1.409 . S
C225 C223 1.415 1_556 S
C226 H216 0.930 . S
C226 C224 1.419 . S
C226 C227 1.362 . S
C227 H217 0.930 . S
C227 C220 1.409 . S
C227 C226 1.362 . S
H228 C234 0.930 . S
H229 C237 0.930 . S
H230 C238 0.931 . S
H231 C239 0.930 . S
H232 C242 0.930 . S
H233 C243 0.930 . S
C234 H228 0.930 . S
C234 C235 1.355 . S
C234 C236 1.415 1_554 S
C235 C234 1.355 . S
C235 C237 1.419 . S
C236 C234 1.415 1_556 S
C236 C241 1.425 . S
C236 C243 1.409 . S
C237 H229 0.930 . S
C237 C235 1.419 . S
C237 C238 1.361 1_554 S
C238 H230 0.931 . S
C238 C237 1.361 1_556 S
C238 C241 1.410 . S
C239 H231 0.930 . S
C239 C240 1.355 . S
C239 C241 1.415 . S
C240 C239 1.355 . S
C240 C242 1.419 . S
C241 C236 1.425 . S
C241 C238 1.410 . S
C241 C239 1.415 . S
C242 H232 0.930 . S
C242 C240 1.419 . S
C242 C243 1.362 . S
C243 H233 0.930 . S
C243 C236 1.409 . S
C243 C242 1.362 . S
H244 C250 0.930 . S
H245 C253 0.930 . S
H246 C254 0.930 . S
H247 C255 0.930 . S
H248 C258 0.930 . S
H249 C259 0.930 . S
C250 H244 0.930 . S
C250 C251 1.355 . S
C250 C252 1.415 . S
C251 C250 1.355 . S
C251 C253 1.419 1_556 S
C252 C250 1.415 . S
C252 C257 1.425 1_556 S
C252 C259 1.409 . S
C253 H245 0.930 . S
C253 C251 1.419 1_554 S
C253 C254 1.362 . S
C254 H246 0.930 . S
C254 C253 1.362 . S
C254 C257 1.409 . S
C255 H247 0.930 . S
C255 C256 1.355 . S
C255 C257 1.415 . S
C256 C255 1.355 . S
C256 C258 1.419 1_554 S
C257 C252 1.425 1_554 S
C257 C254 1.409 . S
C257 C255 1.415 . S
C258 H248 0.930 . S
C258 C256 1.419 1_556 S
C258 C259 1.362 . S
C259 H249 0.930 . S
C259 C252 1.409 . S
C259 C258 1.362 . S
H260 C266 0.930 . S
H261 C269 0.930 . S
H262 C270 0.930 . S
H263 C271 0.930 . S
H264 C274 0.930 . S
H265 C275 0.930 . S
C266 H260 0.930 . S
C266 C267 1.355 . S
C266 C268 1.415 . S
C267 C266 1.355 . S
C267 C269 1.419 1_556 S
C268 C266 1.415 . S
C268 C273 1.425 1_556 S
C268 C275 1.409 . S
C269 H261 0.930 . S
C269 C267 1.419 1_554 S
C269 C270 1.362 . S
C270 H262 0.930 . S
C270 C269 1.362 . S
C270 C273 1.409 . S
C271 H263 0.930 . S
C271 C272 1.355 . S
C271 C273 1.415 . S
C272 C271 1.355 . S
C272 C274 1.419 1_554 S
C273 C268 1.425 1_554 S
C273 C270 1.409 . S
C273 C271 1.415 . S
C274 H264 0.930 . S
C274 C272 1.419 1_556 S
C274 C275 1.362 . S
C275 H265 0.930 . S
C275 C268 1.409 . S
C275 C274 1.362 . S
H276 C282 0.930 . S
H277 C285 0.930 . S
H278 C286 0.930 . S
H279 C287 0.930 . S
H280 C290 0.930 . S
H281 C291 0.930 . S
C282 H276 0.930 . S
C282 C283 1.355 . S
C282 C284 1.415 . S
C283 C282 1.355 . S
C283 C285 1.419 . S
C284 C282 1.415 . S
C284 C289 1.425 . S
C284 C291 1.409 . S
C285 H277 0.930 . S
C285 C283 1.419 . S
C285 C286 1.362 . S
C286 H278 0.930 . S
C286 C285 1.362 . S
C286 C289 1.409 . S
C287 H279 0.930 . S
C287 C288 1.355 . S
C287 C289 1.415 1_455 S
C288 C287 1.355 . S
C288 C290 1.419 . S
C289 C284 1.425 . S
C289 C286 1.409 . S
C289 C287 1.415 1_655 S
C290 H280 0.930 . S
C290 C288 1.419 . S
C290 C291 1.362 1_455 S
C291 H281 0.930 . S
C291 C284 1.409 . S
C291 C290 1.362 1_655 S
H292 C298 0.930 . S
H293 C301 0.930 . S
H294 C302 0.930 . S
H295 C303 0.930 . S
H296 C306 0.930 . S
H297 C307 0.930 . S
C298 H292 0.930 . S
C298 C299 1.355 . S
C298 C300 1.415 . S
C299 C298 1.355 . S
C299 C301 1.419 . S
C300 C298 1.415 . S
C300 C305 1.425 . S
C300 C307 1.409 . S
C301 H293 0.930 . S
C301 C299 1.419 . S
C301 C302 1.362 . S
C302 H294 0.930 . S
C302 C301 1.362 . S
C302 C305 1.409 . S
C303 H295 0.930 . S
C303 C304 1.355 . S
C303 C305 1.415 . S
C304 C303 1.355 . S
C304 C306 1.419 . S
C305 C300 1.425 . S
C305 C302 1.409 . S
C305 C303 1.415 . S
C306 H296 0.930 . S
C306 C304 1.419 . S
C306 C307 1.362 . S
C307 H297 0.930 . S
C307 C300 1.409 . S
C307 C306 1.362 . S
H308 C314 0.930 . S
H309 C317 0.930 . S
H310 C318 0.930 . S
H311 C319 0.930 . S
H312 C322 0.930 . S
H313 C323 0.930 . S
C314 H308 0.930 . S
C314 C315 1.355 . S
C314 C316 1.415 . S
C315 C314 1.355 . S
C315 C317 1.419 . S
C316 C314 1.415 . S
C316 C321 1.425 . S
C316 C323 1.409 . S
C317 H309 0.930 . S
C317 C315 1.419 . S
C317 C318 1.362 . S
C318 H310 0.930 . S
C318 C317 1.362 . S
C318 C321 1.409 . S
C319 H311 0.930 . S
C319 C320 1.355 1_545 S
C319 C321 1.415 . S
C320 C319 1.355 1_565 S
C320 C322 1.419 . S
C321 C316 1.425 . S
C321 C318 1.409 . S
C321 C319 1.415 . S
C322 H312 0.930 . S
C322 C320 1.419 . S
C322 C323 1.362 1_565 S
C323 H313 0.930 . S
C323 C316 1.409 . S
C323 C322 1.362 1_545 S
H324 C330 0.930 . S
H325 C333 0.930 . S
H326 C334 0.930 . S
H327 C335 0.930 . S
H328 C338 0.930 . S
H329 C339 0.930 . S
C330 H324 0.930 . S
C330 C331 1.355 . S
C330 C332 1.415 . S
C331 C330 1.355 . S
C331 C333 1.419 . S
C332 C330 1.415 . S
C332 C337 1.425 . S
C332 C339 1.409 . S
C333 H325 0.930 . S
C333 C331 1.419 . S
C333 C334 1.362 . S
C334 H326 0.930 . S
C334 C333 1.362 . S
C334 C337 1.409 . S
C335 H327 0.930 . S
C335 C336 1.355 . S
C335 C337 1.415 . S
C336 C335 1.355 . S
C336 C338 1.419 . S
C337 C332 1.425 . S
C337 C334 1.409 . S
C337 C335 1.415 . S
C338 H328 0.930 . S
C338 C336 1.419 . S
C338 C339 1.362 . S
C339 H329 0.930 . S
C339 C332 1.409 . S
C339 C338 1.362 . S
H340 C346 0.930 . S
H341 C349 0.930 . S
H342 C350 0.930 . S
H343 C351 0.930 . S
H344 C354 0.930 . S
H345 C355 0.930 . S
C346 H340 0.930 . S
C346 C347 1.355 . S
C346 C348 1.415 . S
C347 C346 1.355 . S
C347 C349 1.419 . S
C348 C346 1.415 . S
C348 C353 1.425 . S
C348 C355 1.409 . S
C349 H341 0.930 . S
C349 C347 1.419 . S
C349 C350 1.362 . S
C350 H342 0.930 . S
C350 C349 1.362 . S
C350 C353 1.409 . S
C351 H343 0.930 . S
C351 C352 1.355 . S
C351 C353 1.415 . S
C352 C351 1.355 . S
C352 C354 1.419 . S
C353 C348 1.425 . S
C353 C350 1.409 . S
C353 C351 1.415 . S
C354 H344 0.930 . S
C354 C352 1.419 . S
C354 C355 1.362 . S
C355 H345 0.930 . S
C355 C348 1.409 . S
C355 C354 1.362 . S
H356 C362 0.930 . S
H357 C365 0.930 . S
H358 C366 0.930 . S
H359 C367 0.930 . S
H360 C370 0.930 . S
H361 C371 0.930 . S
C362 H356 0.930 . S
C362 C363 1.355 . S
C362 C364 1.415 . S
C363 C362 1.355 . S
C363 C365 1.419 . S
C364 C362 1.415 . S
C364 C369 1.425 . S
C364 C371 1.409 . S
C365 H357 0.930 . S
C365 C363 1.419 . S
C365 C366 1.362 . S
C366 H358 0.930 . S
C366 C365 1.362 . S
C366 C369 1.409 . S
C367 H359 0.930 . S
C367 C368 1.355 . S
C367 C369 1.415 . S
C368 C367 1.355 . S
C368 C370 1.419 . S
C369 C364 1.425 . S
C369 C366 1.409 . S
C369 C367 1.415 . S
C370 H360 0.930 . S
C370 C368 1.419 . S
C370 C371 1.362 . S
C371 H361 0.930 . S
C371 C364 1.409 . S
C371 C370 1.362 . S
H372 C378 0.930 . S
H373 C381 0.930 . S
H374 C382 0.930 . S
H375 C383 0.930 . S
H376 C386 0.930 . S
H377 C387 0.930 . S
C378 H372 0.930 . S
C378 C379 1.355 . S
C378 C380 1.415 . S
C379 C378 1.355 . S
C379 C381 1.419 . S
C380 C378 1.415 . S
C380 C385 1.425 . S
C380 C387 1.409 . S
C381 H373 0.930 . S
C381 C379 1.419 . S
C381 C382 1.362 . S
C382 H374 0.930 . S
C382 C381 1.362 . S
C382 C385 1.409 . S
C383 H375 0.930 . S
C383 C384 1.355 . S
C383 C385 1.415 . S
C384 C383 1.355 . S
C384 C386 1.419 . S
C385 C380 1.425 . S
C385 C382 1.409 . S
C385 C383 1.415 . S
C386 H376 0.930 . S
C386 C384 1.419 . S
C386 C387 1.362 . S
C387 H377 0.930 . S
C387 C380 1.409 . S
C387 C386 1.362 . S
H388 C394 0.930 . S
H389 C397 0.930 . S
H390 C398 0.930 . S
H391 C399 0.930 . S
H392 C402 0.930 . S
H393 C403 0.930 . S
C394 H388 0.930 . S
C394 C395 1.355 . S
C394 C396 1.415 . S
C395 C394 1.355 . S
C395 C397 1.419 . S
C396 C394 1.415 . S
C396 C401 1.425 . S
C396 C403 1.409 . S
C397 H389 0.930 . S
C397 C395 1.419 . S
C397 C398 1.362 . S
C398 H390 0.930 . S
C398 C397 1.362 . S
C398 C401 1.409 . S
C399 H391 0.930 . S
C399 C400 1.355 . S
C399 C401 1.415 . S
C400 C399 1.355 . S
C400 C402 1.419 . S
C401 C396 1.425 . S
C401 C398 1.409 . S
C401 C399 1.415 . S
C402 H392 0.930 . S
C402 C400 1.419 . S
C402 C403 1.362 . S
C403 H393 0.930 . S
C403 C396 1.409 . S
C403 C402 1.362 . S
H404 C410 0.930 . S
H405 C413 0.930 . S
H406 C414 0.930 . S
H407 C415 0.930 . S
H408 C418 0.930 . S
H409 C419 0.930 . S
C410 H404 0.930 . S
C410 C411 1.355 . S
C410 C412 1.415 . S
C411 C410 1.355 . S
C411 C413 1.419 . S
C412 C410 1.415 . S
C412 C417 1.425 . S
C412 C419 1.409 . S
C413 H405 0.930 . S
C413 C411 1.419 . S
C413 C414 1.362 . S
C414 H406 0.930 . S
C414 C413 1.362 . S
C414 C417 1.409 . S
C415 H407 0.930 . S
C415 C416 1.355 . S
C415 C417 1.415 . S
C416 C415 1.355 . S
C416 C418 1.419 . S
C417 C412 1.425 . S
C417 C414 1.409 . S
C417 C415 1.415 . S
C418 H408 0.930 . S
C418 C416 1.419 . S
C418 C419 1.362 . S
C419 H409 0.930 . S
C419 C412 1.409 . S
C419 C418 1.362 . S
H420 C426 0.930 . S
H421 C429 0.930 . S
H422 C430 0.930 . S
H423 C431 0.930 . S
H424 C434 0.930 . S
H425 C435 0.930 . S
C426 H420 0.930 . S
C426 C427 1.355 . S
C426 C428 1.415 . S
C427 C426 1.355 . S
C427 C429 1.419 . S
C428 C426 1.415 . S
C428 C433 1.425 . S
C428 C435 1.409 . S
C429 H421 0.930 . S
C429 C427 1.419 . S
C429 C430 1.362 . S
C430 H422 0.930 . S
C430 C429 1.362 . S
C430 C433 1.409 . S
C431 H423 0.930 . S
C431 C432 1.355 . S
C431 C433 1.415 1_545 S
C432 C431 1.355 . S
C432 C434 1.419 . S
C433 C428 1.425 . S
C433 C430 1.409 . S
C433 C431 1.415 1_565 S
C434 H424 0.930 . S
C434 C432 1.419 . S
C434 C435 1.362 1_545 S
C435 H425 0.930 . S
C435 C428 1.409 . S
C435 C434 1.362 1_565 S
H436 C442 0.930 . S
H437 C445 0.930 1_655 S
H438 C446 0.930 . S
H439 C447 0.930 . S
H440 C450 0.926 1_545 S
H441 C451 0.930 . S
C442 H436 0.930 . S
C442 C443 1.355 . S
C442 C444 1.415 1_655 S
C443 C442 1.355 . S
C443 C445 1.419 1_655 S
C444 C442 1.415 1_455 S
C444 C449 1.425 . S
C444 C451 1.409 . S
C445 H437 0.930 1_455 S
C445 C443 1.419 1_455 S
C445 C446 1.362 . S
C446 H438 0.930 . S
C446 C445 1.362 . S
C446 C449 1.409 . S
C447 H439 0.930 . S
C447 C448 1.355 . S
C447 C449 1.415 . S
C448 C447 1.355 . S
C448 C450 1.419 . S
C449 C444 1.425 . S
C449 C446 1.409 . S
C449 C447 1.415 . S
C450 H440 0.926 1_565 S
C450 C448 1.419 . S
C450 C451 1.362 . S
C451 H441 0.930 . S
C451 C444 1.409 . S
C451 C450 1.362 . S
H452 C458 0.930 . S
H453 C461 0.930 . S
H454 C462 0.930 . S
H455 C463 0.930 . S
H456 C466 0.930 . S
H457 C467 0.930 . S
C458 H452 0.930 . S
C458 C459 1.355 . S
C458 C460 1.415 . S
C459 C458 1.355 . S
C459 C461 1.419 . S
C460 C458 1.415 . S
C460 C465 1.425 . S
C460 C467 1.409 . S
C461 H453 0.930 . S
C461 C459 1.419 . S
C461 C462 1.362 . S
C462 H454 0.930 . S
C462 C461 1.362 . S
C462 C465 1.409 . S
C463 H455 0.930 . S
C463 C464 1.355 . S
C463 C465 1.415 . S
C464 C463 1.355 . S
C464 C466 1.419 . S
C465 C460 1.425 . S
C465 C462 1.409 . S
C465 C463 1.415 . S
C466 H456 0.930 . S
C466 C464 1.419 . S
C466 C467 1.362 . S
C467 H457 0.930 . S
C467 C460 1.409 . S
C467 C466 1.362 . S
H468 C474 0.930 . S
H469 C477 0.930 . S
H470 C478 0.930 . S
H471 C479 0.930 . S
H472 C482 0.930 . S
H473 C483 0.930 . S
C474 H468 0.930 . S
C474 C475 1.355 . S
C474 C476 1.415 . S
C475 C474 1.355 . S
C475 C477 1.419 . S
C476 C474 1.415 . S
C476 C481 1.425 . S
C476 C483 1.409 . S
C477 H469 0.930 . S
C477 C475 1.419 . S
C477 C478 1.362 . S
C478 H470 0.930 . S
C478 C477 1.362 . S
C478 C481 1.409 . S
C479 H471 0.930 . S
C479 C480 1.355 . S
C479 C481 1.415 . S
C480 C479 1.355 . S
C480 C482 1.419 . S
C481 C476 1.425 . S
C481 C478 1.409 . S
C481 C479 1.415 . S
C482 H472 0.930 . S
C482 C480 1.419 . S
C482 C483 1.362 . S
C483 H473 0.930 . S
C483 C476 1.409 . S
C483 C482 1.362 . S
H484 C490 0.930 . S
H485 C493 0.930 . S
H486 C494 0.930 . S
H487 C495 0.930 . S
H488 C498 0.930 . S
H489 C499 0.930 . S
C490 H484 0.930 . S
C490 C491 1.355 . S
C490 C492 1.415 . S
C491 C490 1.355 . S
C491 C493 1.419 . S
C492 C490 1.415 . S
C492 C497 1.425 . S
C492 C499 1.409 . S
C493 H485 0.930 . S
C493 C491 1.419 . S
C493 C494 1.362 . S
C494 H486 0.930 . S
C494 C493 1.362 . S
C494 C497 1.409 . S
C495 H487 0.930 . S
C495 C496 1.355 . S
C495 C497 1.415 . S
C496 C495 1.355 . S
C496 C498 1.419 . S
C497 C492 1.425 . S
C497 C494 1.409 . S
C497 C495 1.415 . S
C498 H488 0.930 . S
C498 C496 1.419 . S
C498 C499 1.362 . S
C499 H489 0.930 . S
C499 C492 1.409 . S
C499 C498 1.362 . S
H500 C506 0.930 . S
H501 C509 0.930 . S
H502 C510 0.930 . S
H503 C511 0.930 . S
H504 C514 0.930 . S
H505 C515 0.930 . S
C506 H500 0.930 . S
C506 C507 1.355 . S
C506 C508 1.415 . S
C507 C506 1.355 . S
C507 C509 1.419 . S
C508 C506 1.415 . S
C508 C513 1.425 . S
C508 C515 1.409 . S
C509 H501 0.930 . S
C509 C507 1.419 . S
C509 C510 1.362 . S
C510 H502 0.930 . S
C510 C509 1.362 . S
C510 C513 1.409 . S
C511 H503 0.930 . S
C511 C512 1.355 . S
C511 C513 1.415 . S
C512 C511 1.355 . S
C512 C514 1.419 . S
C513 C508 1.425 . S
C513 C510 1.409 . S
C513 C511 1.415 . S
C514 H504 0.930 . S
C514 C512 1.419 . S
C514 C515 1.362 . S
C515 H505 0.930 . S
C515 C508 1.409 . S
C515 C514 1.362 . S
H516 C522 0.930 . S
H517 C525 0.930 . S
H518 C526 0.930 . S
H519 C527 0.930 . S
H520 C530 0.930 . S
H521 C531 0.930 . S
C522 H516 0.930 . S
C522 C523 1.355 . S
C522 C524 1.415 . S
C523 C522 1.355 . S
C523 C525 1.419 . S
C524 C522 1.415 . S
C524 C529 1.425 . S
C524 C531 1.409 . S
C525 H517 0.930 . S
C525 C523 1.419 . S
C525 C526 1.362 . S
C526 H518 0.930 . S
C526 C525 1.362 . S
C526 C529 1.409 . S
C527 H519 0.930 . S
C527 C528 1.355 . S
C527 C529 1.415 . S
C528 C527 1.355 . S
C528 C530 1.419 . S
C529 C524 1.425 . S
C529 C526 1.409 . S
C529 C527 1.415 . S
C530 H520 0.930 . S
C530 C528 1.419 . S
C530 C531 1.362 . S
C531 H521 0.930 . S
C531 C524 1.409 . S
C531 C530 1.362 . S
H532 C538 0.930 . S
H533 C541 0.930 . S
H534 C542 0.930 . S
H535 C543 0.930 . S
H536 C546 0.930 . S
H537 C547 0.930 . S
C538 H532 0.930 . S
C538 C539 1.355 . S
C538 C540 1.415 . S
C539 C538 1.355 . S
C539 C541 1.419 . S
C540 C538 1.415 . S
C540 C545 1.425 . S
C540 C547 1.409 . S
C541 H533 0.930 . S
C541 C539 1.419 . S
C541 C542 1.362 . S
C542 H534 0.930 . S
C542 C541 1.362 . S
C542 C545 1.409 . S
C543 H535 0.930 . S
C543 C544 1.355 . S
C543 C545 1.415 . S
C544 C543 1.355 . S
C544 C546 1.419 . S
C545 C540 1.425 . S
C545 C542 1.409 . S
C545 C543 1.415 . S
C546 H536 0.930 . S
C546 C544 1.419 . S
C546 C547 1.362 . S
C547 H537 0.930 . S
C547 C540 1.409 . S
C547 C546 1.362 . S
H548 C554 0.930 . S
H549 C557 0.930 . S
H550 C558 0.930 . S
H551 C559 0.930 . S
H552 C562 0.930 . S
H553 C563 0.930 . S
C554 H548 0.930 . S
C554 C555 1.355 . S
C554 C556 1.415 . S
C555 C554 1.355 . S
C555 C557 1.419 . S
C556 C554 1.415 . S
C556 C561 1.425 . S
C556 C563 1.409 . S
C557 H549 0.930 . S
C557 C555 1.419 . S
C557 C558 1.362 . S
C558 H550 0.930 . S
C558 C557 1.362 . S
C558 C561 1.409 . S
C559 H551 0.930 . S
C559 C560 1.355 . S
C559 C561 1.415 . S
C560 C559 1.355 . S
C560 C562 1.419 . S
C561 C556 1.425 . S
C561 C558 1.409 . S
C561 C559 1.415 . S
C562 H552 0.930 . S
C562 C560 1.419 . S
C562 C563 1.362 . S
C563 H553 0.930 . S
C563 C556 1.409 . S
C563 C562 1.362 . S
H564 C570 0.930 . S
H565 C573 0.930 . S
H566 C574 0.930 . S
H567 C575 0.930 . S
H568 C578 0.930 . S
H569 C579 0.930 . S
C570 H564 0.930 . S
C570 C571 1.355 . S
C570 C572 1.415 . S
C571 C570 1.355 . S
C571 C573 1.419 . S
C572 C570 1.415 . S
C572 C577 1.425 . S
C572 C579 1.409 . S
C573 H565 0.930 . S
C573 C571 1.419 . S
C573 C574 1.362 . S
C574 H566 0.930 . S
C574 C573 1.362 . S
C574 C577 1.409 . S
C575 H567 0.930 . S
C575 C576 1.355 . S
C575 C577 1.415 . S
C576 C575 1.355 . S
C576 C578 1.419 . S
C577 C572 1.425 . S
C577 C574 1.409 . S
C577 C575 1.415 . S
C578 H568 0.930 . S
C578 C576 1.419 . S
C578 C579 1.362 . S
C579 H569 0.930 . S
C579 C572 1.409 . S
C579 C578 1.362 . S
H580 C586 0.930 . S
H581 C589 0.930 . S
H582 C590 0.930 . S
H583 C591 0.930 . S
H584 C594 0.930 . S
H585 C595 0.930 . S
C586 H580 0.930 . S
C586 C587 1.355 . S
C586 C588 1.415 . S
C587 C586 1.355 . S
C587 C589 1.419 . S
C588 C586 1.415 . S
C588 C593 1.425 1_565 S
C588 C595 1.409 . S
C589 H581 0.930 . S
C589 C587 1.419 . S
C589 C590 1.362 1_565 S
C590 H582 0.930 . S
C590 C589 1.362 1_545 S
C590 C593 1.409 . S
C591 H583 0.930 . S
C591 C592 1.355 . S
C591 C593 1.415 . S
C592 C591 1.355 . S
C592 C594 1.419 . S
C593 C588 1.425 1_545 S
C593 C590 1.409 . S
C593 C591 1.415 . S
C594 H584 0.930 . S
C594 C592 1.419 . S
C594 C595 1.362 1_545 S
C595 H585 0.930 . S
C595 C588 1.409 . S
C595 C594 1.362 1_565 S
H596 C602 0.930 . S
H597 C605 0.930 . S
H598 C606 0.930 . S
H599 C607 0.930 . S
H600 C610 0.930 . S
H601 C611 0.930 . S
C602 H596 0.930 . S
C602 C603 1.355 . S
C602 C604 1.415 1_655 S
C603 C602 1.355 . S
C603 C605 1.419 . S
C604 C602 1.415 1_455 S
C604 C609 1.424 1_455 S
C604 C611 1.409 . S
C605 H597 0.930 . S
C605 C603 1.419 . S
C605 C606 1.362 . S
C606 H598 0.930 . S
C606 C605 1.362 . S
C606 C609 1.412 . S
C607 H599 0.930 . S
C607 C608 1.355 . S
C607 C609 1.413 1_455 S
C608 C607 1.355 . S
C608 C610 1.419 . S
C609 C604 1.424 1_655 S
C609 C606 1.412 . S
C609 C607 1.413 1_655 S
C610 H600 0.930 . S
C610 C608 1.419 . S
C610 C611 1.362 . S
C611 H601 0.930 . S
C611 C604 1.409 . S
C611 C610 1.362 . S
C187 C28 1.681 . S
C192 C5 1.875 . S
C203 C57 1.616 . S
C208 C25 1.885 . S
C219 C54 1.880 . S
C224 C8 1.687 . S
C235 C45 1.883 . S
C240 C37 1.591 . S
C251 C48 1.583 . S
C256 C14 1.881 . S
C267 C17 1.595 . S
C272 C34 1.873 . S
C283 C65 1.885 . S
C288 C88 1.662 . S
C299 C108 1.594 . S
C304 C85 1.873 1_545 S
C315 C105 1.875 1_655 S
C320 C68 1.680 . S
C331 C97 1.590 . S
C336 C114 1.873 . S
C347 C117 1.646 . S
C352 C74 1.871 . S
C363 C94 1.877 . S
C368 C77 1.686 . S
C379 C148 1.579 . S
C384 C125 1.879 . S
C395 C145 1.885 . S
C400 C177 1.635 . S
C411 C174 1.872 . S
C416 C128 1.608 . S
C427 C165 1.878 . S
C432 C157 1.687 . S
C443 C168 1.654 . S
C448 C134 1.885 1_565 S
C459 C137 1.626 . S
C464 C154 1.871 1_455 S
C475 C102 2.260 . S
C480 C13 2.304 . S
C491 C62 2.275 . S
C496 C33 2.251 . S
C507 C42 2.272 . S
C512 C82 2.251 . S
C523 C53 2.313 . S
C528 C133 2.300 . S
C539 C2 2.277 . S
C544 C153 2.251 . S
C555 C162 2.254 . S
C560 C22 2.266 . S
C571 C73 2.252 . S
C576 C173 2.291 . S
C587 C93 2.275 . S
C592 C122 2.251 . S
C603 C142 2.275 . S
C608 C113 2.314 . S
