# Generated by pormake.
# Topology tfs, (6)-cn, num edge types: 1
# Building blocks:
#     Node 0, Type 0, BuildingBlock: INOVEN_clean_sbu_0, # of connection points: 6
#     Node 1, Type 0, BuildingBlock: INOVEN_clean_sbu_0, # of connection points: 6
#     Node 2, Type 0, BuildingBlock: INOVEN_clean_sbu_0, # of connection points: 6
#     Node 3, Type 0, BuildingBlock: INOVEN_clean_sbu_0, # of connection points: 6
#     Node 4, Type 0, BuildingBlock: INOVEN_clean_sbu_0, # of connection points: 6
#     Node 5, Type 0, BuildingBlock: INOVEN_clean_sbu_0, # of connection points: 6
#     Edge 6, Type (0, 0), BuildingBlock: TEMPAE_clean_linker_10, # of connection points: 2
#     Edge 7, Type (0, 0), BuildingBlock: TEMPAE_clean_linker_10, # of connection points: 2
#     Edge 8, Type (0, 0), BuildingBlock: TEMPAE_clean_linker_10, # of connection points: 2
#     Edge 9, Type (0, 0), BuildingBlock: TEMPAE_clean_linker_10, # of connection points: 2
#     Edge 10, Type (0, 0), BuildingBlock: TEMPAE_clean_linker_10, # of connection points: 2
#     Edge 11, Type (0, 0), BuildingBlock: TEMPAE_clean_linker_10, # of connection points: 2
#     Edge 12, Type (0, 0), BuildingBlock: TEMPAE_clean_linker_10, # of connection points: 2
#     Edge 13, Type (0, 0), BuildingBlock: TEMPAE_clean_linker_10, # of connection points: 2
#     Edge 14, Type (0, 0), BuildingBlock: TEMPAE_clean_linker_10, # of connection points: 2
#     Edge 15, Type (0, 0), BuildingBlock: TEMPAE_clean_linker_10, # of connection points: 2
#     Edge 16, Type (0, 0), BuildingBlock: TEMPAE_clean_linker_10, # of connection points: 2
#     Edge 17, Type (0, 0), BuildingBlock: TEMPAE_clean_linker_10, # of connection points: 2
#     Edge 18, Type (0, 0), BuildingBlock: TEMPAE_clean_linker_10, # of connection points: 2
#     Edge 19, Type (0, 0), BuildingBlock: TEMPAE_clean_linker_10, # of connection points: 2
#     Edge 20, Type (0, 0), BuildingBlock: TEMPAE_clean_linker_10, # of connection points: 2
#     Edge 21, Type (0, 0), BuildingBlock: TEMPAE_clean_linker_10, # of connection points: 2
#     Edge 22, Type (0, 0), BuildingBlock: TEMPAE_clean_linker_10, # of connection points: 2
#     Edge 23, Type (0, 0), BuildingBlock: TEMPAE_clean_linker_10, # of connection points: 2
# Relax obj value: 0.474
# Max RMSD: 0.395
# Mean RMSD: 0.354
data_MOF--net-tfs--node1-INOVEN_clean_sbu_0--edge1-TEMPAE_clean_linker_10
_symmetry_space_group_name_H-M    P1
_symmetry_Int_Tables_number       1
_symmetry_cell_setting            triclinic
loop_
_symmetry_equiv_pos_as_xyz
'x, y, z'
_cell_length_a     52.352572
_cell_length_b     51.845236
_cell_length_c     12.723174
_cell_angle_alpha  92.493578
_cell_angle_beta   99.640424
_cell_angle_gamma 119.97685
loop_
_atom_site_label
_atom_site_type_symbol
_atom_site_fract_x
_atom_site_fract_y
_atom_site_fract_z
_atom_type_partial_charge
Gd0 Gd 0.19794 0.38365 0.16099 0.0
Gd1 Gd 0.16218 0.41282 0.04372 0.0
C2 C 0.12943 0.36079 0.17759 0.0
C3 C 0.22135 0.36058 0.29316 0.0
C4 C 0.23265 0.33964 0.30301 0.0
C5 C 0.25563 0.34222 0.25304 0.0
C6 C 0.22147 0.31784 0.37121 0.0
C7 C 0.25728 0.3026 0.3453 0.0
C8 C 0.23356 0.29946 0.39193 0.0
C9 C 0.26788 0.32385 0.27418 0.0
C10 C 0.17533 0.36463 0.94799 0.0
C11 C 0.23429 0.44231 0.05128 0.0
C12 C 0.13702 0.43489 0.91482 0.0
C13 C 0.13943 0.4646 0.92042 0.0
C14 C 0.141 0.47937 0.01869 0.0
C15 C 0.14059 0.47866 0.82807 0.0
C16 C 0.1441 0.52149 0.93185 0.0
C17 C 0.14304 0.50693 0.83374 0.0
C18 C 0.14316 0.50738 0.02419 0.0
C19 C 0.18894 0.4364 0.25324 0.0
O20 O 0.15678 0.36855 0.22995 0.0
O21 O 0.12507 0.37052 0.08568 0.0
O22 O 0.23755 0.3862 0.25917 0.0
O23 O 0.19224 0.34865 0.25801 0.0
O24 O 0.19713 0.36226 0.00244 0.0
O25 O 0.16331 0.3713 0.01339 0.0
O26 O 0.20807 0.43895 0.00307 0.0
O27 O 0.23655 0.42571 0.12466 0.0
O28 O 0.12419 0.41829 -0.01373 0.0
O29 O 0.16101 0.43436 0.90125 0.0
O30 O 0.16586 0.43745 0.2032 0.0
O31 O 0.1975 0.42564 0.18681 0.0
H32 H 0.26461 0.35882 0.19983 0.0
H33 H 0.20392 0.31566 0.41132 0.0
H34 H 0.22519 0.28366 0.44823 0.0
H35 H 0.28597 0.3266 0.23633 0.0
H36 H 0.14057 0.4693 0.09167 0.0
H37 H 0.13949 0.46772 0.75159 0.0
H38 H 0.14363 0.51717 0.7611 0.0
H39 H 0.14448 0.51819 0.10135 0.0
Gd40 Gd 0.77997 0.20634 0.86838 0.0
Gd41 Gd 0.84223 0.23481 0.79707 0.0
C42 C 0.82728 0.27833 0.92398 0.0
C43 C 0.73693 0.18907 0.97125 0.0
C44 C 0.7121 0.19454 0.97811 0.0
C45 C 0.68811 0.18566 0.88904 0.0
C46 C 0.71177 0.20792 0.07586 0.0
C47 C 0.66368 0.20316 -0.00438 0.0
C48 C 0.68784 0.21228 0.08452 0.0
C49 C 0.66417 0.18982 0.89785 0.0
C50 C 0.77864 0.22305 0.67031 0.0
C51 C 0.79566 0.16211 0.74439 0.0
C52 C 0.88678 0.25751 0.70141 0.0
C53 C 0.91359 0.25831 0.67538 0.0
C54 C 0.9421 0.28375 0.71926 0.0
C55 C 0.91106 0.23725 0.59482 0.0
C56 C 0.9638 0.27047 0.58716 0.0
C57 C 0.93593 0.2434 0.55038 0.0
C58 C 0.967 0.28956 0.6767 0.0
C59 C 0.84132 0.21554 -0.00969 0.0
O60 O 0.80553 0.25445 0.95386 0.0
O61 O 0.84084 0.27579 0.84892 0.0
O62 O 0.73459 0.17402 0.88122 0.0
O63 O 0.76449 0.21138 0.01168 0.0
O64 O 0.75519 0.20234 0.70016 0.0
O65 O 0.80018 0.2359 0.75129 0.0
O66 O 0.81899 0.186 0.7201 0.0
O67 O 0.7803 0.16454 0.81353 0.0
O68 O 0.88888 0.26707 0.80117 0.0
O69 O 0.85953 0.23566 0.6531 0.0
O70 O 0.86538 0.238 0.96983 0.0
O71 O 0.82099 0.20426 0.90727 0.0
H72 H 0.68757 0.17516 0.81257 0.0
H73 H 0.72998 0.21492 0.14578 0.0
H74 H 0.68837 0.22293 0.16063 0.0
H75 H 0.64571 0.18201 0.82826 0.0
H76 H 0.94484 0.30026 0.78221 0.0
H77 H 0.88942 0.2172 0.56045 0.0
H78 H 0.9326 0.22801 0.48209 0.0
H79 H 0.98839 0.30999 0.71021 0.0
Gd80 Gd 0.55478 0.76261 0.18711 0.0
Gd81 Gd 0.59883 0.82753 0.13947 0.0
C82 C 0.52566 0.79784 0.06534 0.0
C83 C 0.51489 0.71711 0.2588 0.0
C84 C 0.48519 0.68991 0.21481 0.0
C85 C 0.48106 0.66907 0.12955 0.0
C86 C 0.46078 0.68417 0.2614 0.0
C87 C 0.42896 0.63611 0.14329 0.0
C88 C 0.43289 0.65765 0.22556 0.0
C89 C 0.45324 0.64236 0.09444 0.0
C90 C 0.57492 0.76481 0.00626 0.0
C91 C 0.62525 0.7879 0.24017 0.0
C92 C 0.63023 0.87864 0.0761 0.0
C93 C 0.65273 0.90805 0.14105 0.0
C94 C 0.65057 0.91418 0.2467 0.0
C95 C 0.67644 0.92995 0.09987 0.0
C96 C 0.69542 0.96382 0.26978 0.0
C97 C 0.69762 0.95778 0.16372 0.0
C98 C 0.67163 0.9417 0.31024 0.0
C99 C 0.59742 0.82349 0.34884 0.0
O100 O 0.52095 0.77138 0.08833 0.0
O101 O 0.55293 0.82232 0.08278 0.0
O102 O 0.53819 0.71809 0.23024 0.0
O103 O 0.51597 0.7429 0.26132 0.0
O104 O 0.56654 0.74168 0.05695 0.0
O105 O 0.56846 0.78285 0.04524 0.0
O106 O 0.62823 0.8068 0.16932 0.0
O107 O 0.59995 0.7726 0.27428 0.0
O108 O 0.60259 0.86819 0.08827 0.0
O109 O 0.63786 0.85811 0.07661 0.0
O110 O 0.62007 0.8442 0.31601 0.0
O111 O 0.57573 0.80904 0.26927 0.0
H112 H 0.49946 0.67302 0.09145 0.0
H113 H 0.46342 0.70003 0.32673 0.0
H114 H 0.41448 0.65388 0.26334 0.0
H115 H 0.4511 0.62621 0.03153 0.0
H116 H 0.63232 0.89779 0.28008 0.0
H117 H 0.67851 0.92558 0.01862 0.0
H118 H 0.71576 0.97447 0.1306 0.0
H119 H 0.66889 0.94588 0.39059 0.0
Gd120 Gd 0.83598 0.59481 0.89657 0.0
Gd121 Gd 0.80655 0.63458 0.83738 0.0
C122 C 0.76891 0.57138 0.92963 0.0
C123 C 0.87021 0.57195 0.93759 0.0
C124 C 0.86671 0.54246 0.95368 0.0
C125 C 0.87928 0.53076 0.89124 0.0
C126 C 0.85073 0.52561 0.02846 0.0
C127 C 0.85941 0.48544 0.97573 0.0
C128 C 0.84727 0.49738 0.03984 0.0
C129 C 0.87558 0.50248 0.90178 0.0
C130 C 0.79374 0.57441 0.711 0.0
C131 C 0.87066 0.65517 0.77999 0.0
C132 C 0.77835 0.66003 0.75028 0.0
C133 C 0.77723 0.68401 0.69537 0.0
C134 C 0.76619 0.70004 0.74402 0.0
C135 C 0.78362 0.68917 0.59283 0.0
C136 C 0.76546 0.72446 0.58562 0.0
C137 C 0.77788 0.70938 0.5385 0.0
C138 C 0.76034 0.71994 0.69004 0.0
C139 C 0.83551 0.64549 0.04623 0.0
O140 O 0.79399 0.57085 0.96309 0.0
O141 O 0.76791 0.5912 0.86888 0.0
O142 O 0.85913 0.57395 0.84047 0.0
O143 O 0.86548 0.58595 0.0128 0.0
O144 O 0.79731 0.55712 0.77507 0.0
O145 O 0.81283 0.60138 0.7513 0.0
O146 O 0.8491 0.6616 0.77758 0.0
O147 O 0.87018 0.63227 0.82395 0.0
O148 O 0.79312 0.66748 0.85072 0.0
O149 O 0.7793 0.63845 0.69663 0.0
O150 O 0.813 0.64927 0.01367 0.0
O151 O 0.84262 0.63798 0.96514 0.0
H152 H 0.89177 0.54343 0.83339 0.0
H153 H 0.84065 0.53405 0.07719 0.0
H154 H 0.83451 0.48458 0.09681 0.0
H155 H 0.88541 0.49392 0.85214 0.0
H156 H 0.7607 0.69611 0.82246 0.0
H157 H 0.7921 0.677 0.55352 0.0
H158 H 0.78235 0.71253 0.45853 0.0
H159 H 0.75015 0.73046 0.72825 0.0
Gd160 Gd 0.15509 0.77653 0.13507 0.0
Gd161 Gd 0.21835 0.79977 0.07067 0.0
C162 C 0.20931 0.84661 0.21191 0.0
C163 C 0.11061 0.7649 0.22296 0.0
C164 C 0.08516 0.75835 0.27355 0.0
C165 C 0.05982 0.72917 0.25567 0.0
C166 C 0.08649 0.78095 0.34301 0.0
C167 C 0.03731 0.74513 0.37705 0.0
C168 C 0.06287 0.77433 0.39525 0.0
C169 C 0.03594 0.72267 0.30613 0.0
C170 C 0.15597 0.78258 0.92539 0.0
C171 C 0.17058 0.72832 0.03967 0.0
C172 C 0.26492 0.82321 -0.01466 0.0
C173 C 0.28895 0.81693 0.97425 0.0
C174 C 0.30119 0.80696 0.05806 0.0
C175 C 0.30059 0.82192 0.88093 0.0
C176 C 0.33672 0.80715 0.95524 0.0
C177 C 0.32372 0.81645 0.87029 0.0
C178 C 0.3251 0.80269 0.04958 0.0
C179 C 0.21182 0.77434 0.25104 0.0
O180 O 0.1839 0.82367 0.22781 0.0
O181 O 0.22456 0.84333 0.14464 0.0
O182 O 0.12186 0.78739 0.1678 0.0
O183 O 0.12309 0.74835 0.22821 0.0
O184 O 0.13272 0.76276 0.95854 0.0
O185 O 0.17648 0.79943 0.00568 0.0
O186 O 0.19342 0.75024 0.00605 0.0
O187 O 0.15423 0.73306 0.09827 0.0
O188 O 0.2654 0.83235 0.08386 0.0
O189 O 0.23756 0.80382 0.9291 0.0
O190 O 0.23147 0.77611 0.19713 0.0
O191 O 0.20092 0.78983 0.21644 0.0
H192 H 0.05851 0.71141 0.20271 0.0
H193 H 0.10606 0.80355 0.35854 0.0
H194 H 0.06453 0.79203 0.44967 0.0
H195 H 0.01672 0.69989 0.29178 0.0
H196 H 0.29278 0.80314 0.13153 0.0
H197 H 0.29202 0.8304 0.81667 0.0
H198 H 0.33137 0.81974 0.79545 0.0
H199 H 0.33479 0.79659 0.11884 0.0
Gd200 Gd 0.40565 0.18369 0.82818 0.0
Gd201 Gd 0.45075 0.24856 0.77058 0.0
C202 C 0.37863 0.21641 0.68089 0.0
C203 C 0.37144 0.13405 0.8961 0.0
C204 C 0.34971 0.10392 0.83348 0.0
C205 C 0.33811 0.1011 0.72309 0.0
C206 C 0.3427 0.07782 0.88016 0.0
C207 C 0.31387 0.04643 0.70516 0.0
C208 C 0.32482 0.04932 0.81679 0.0
C209 C 0.32055 0.07277 0.65966 0.0
C210 C 0.42237 0.18367 0.64139 0.0
C211 C 0.47865 0.21556 0.91463 0.0
C212 C 0.48544 0.2967 0.69679 0.0
C213 C 0.51457 0.32507 0.74025 0.0
C214 C 0.51591 0.34921 0.8012 0.0
C215 C 0.54147 0.32837 0.71929 0.0
C216 C 0.57036 0.37946 0.81723 0.0
C217 C 0.56901 0.35513 0.75779 0.0
C218 C 0.54352 0.37609 0.83947 0.0
C219 C 0.43902 0.24762 0.96799 0.0
O220 O 0.37364 0.19839 0.75513 0.0
O221 O 0.40571 0.23373 0.66137 0.0
O222 O 0.39973 0.14379 0.89531 0.0
O223 O 0.36446 0.15482 0.88202 0.0
O224 O 0.39648 0.16281 0.65553 0.0
O225 O 0.43778 0.20169 0.72573 0.0
O226 O 0.4837 0.23613 0.84989 0.0
O227 O 0.4513 0.19572 0.92855 0.0
O228 O 0.46193 0.29281 0.73317 0.0
O229 O 0.4866 0.27205 0.68535 0.0
O230 O 0.46303 0.2691 0.94346 0.0
O231 O 0.42085 0.23098 0.88294 0.0
H232 H 0.3433 0.12091 0.68502 0.0
H233 H 0.35156 0.07949 0.96508 0.0
H234 H 0.3198 0.02959 0.85521 0.0
H235 H 0.31307 0.07168 0.57406 0.0
H236 H 0.4956 0.34753 0.81846 0.0
H237 H 0.54124 0.31026 0.67245 0.0
H238 H 0.58931 0.3568 0.74052 0.0
H239 H 0.54372 0.3945 0.88395 0.0
C240 C 0.3481 0.21777 0.51181 0.0
C241 C 0.35417 0.22027 0.62434 0.0
C242 C 0.32892 0.2268 0.45745 0.0
C243 C 0.31676 0.23991 0.51777 0.0
C244 C 0.32202 0.24142 0.63151 0.0
C245 C 0.34034 0.2311 0.68337 0.0
C246 C 0.32301 0.22379 0.33602 0.0
C247 C 0.31016 0.25593 0.69908 0.0
C248 C 0.30396 0.3003 0.40676 0.0
C249 C 0.27235 0.28544 0.37811 0.0
C250 C 0.31864 0.28547 0.44979 0.0
C251 C 0.30131 0.2549 0.46371 0.0
C252 C 0.26943 0.23939 0.43082 0.0
C253 C 0.25531 0.25489 0.38899 0.0
C254 C 0.3527 0.30292 0.48449 0.0
C255 C 0.25022 0.20665 0.44233 0.0
H256 H 0.35903 0.20949 0.4666 0.0
H257 H 0.34557 0.23348 0.77067 0.0
H258 H 0.29865 0.21446 0.30146 0.0
H259 H 0.33566 0.24632 0.31138 0.0
H260 H 0.33011 0.20904 0.30076 0.0
H261 H 0.31458 0.25358 0.78558 0.0
H262 H 0.32111 0.28028 0.69223 0.0
H263 H 0.28549 0.24586 0.66928 0.0
H264 H 0.31725 0.32398 0.39989 0.0
H265 H 0.23086 0.2432 0.36586 0.0
H266 H 0.36226 0.29139 0.44415 0.0
H267 H 0.35952 0.30391 0.57268 0.0
H268 H 0.36288 0.3263 0.4655 0.0
H269 H 0.25851 0.19318 0.40597 0.0
H270 H 0.22604 0.19711 0.40363 0.0
H271 H 0.25195 0.20421 0.52899 0.0
C272 C 0.07394 0.33194 0.17649 0.0
C273 C 0.10388 0.3424 0.22874 0.0
C274 C 0.05012 0.31631 0.22909 0.0
C275 C 0.05653 0.31161 0.33688 0.0
C276 C 0.08653 0.32087 0.38804 0.0
C277 C 0.10976 0.33597 0.33319 0.0
C278 C 0.01816 0.30548 0.17042 0.0
C279 C 0.09434 0.31538 0.50146 0.0
C280 C 1.00487 0.31107 0.51327 0.0
C281 C 0.98823 0.28059 0.52568 0.0
C282 C 0.02724 0.3213 0.45296 0.0
C283 C 0.03261 0.30044 0.40031 0.0
C284 C 0.01578 0.26958 0.41111 0.0
C285 C 0.99402 0.26006 0.47475 0.0
C286 C 0.04515 0.35454 0.44562 0.0
C287 C 0.02082 0.24658 0.35659 0.0
H288 H 0.06913 0.33634 0.09523 0.0
H289 H 0.13275 0.34351 0.37403 0.0
H290 H 1.003 0.28163 0.17922 0.0
H291 H 0.00986 0.31896 0.20641 0.0
H292 H 0.01649 0.30739 0.08321 0.0
H293 H 0.11907 0.32847 0.53594 0.0
H294 H 0.08282 0.32118 0.55562 0.0
H295 H 0.08648 0.29115 0.50067 0.0
H296 H 1.00012 0.3271 0.54929 0.0
H297 H 0.98157 0.23654 0.48458 0.0
H298 H 0.06973 0.36305 0.46848 0.0
H299 H 0.03991 0.36808 0.49851 0.0
H300 H 0.04016 0.35824 0.36132 0.0
H301 H 1.00127 0.22335 0.34977 0.0
H302 H 0.04104 0.24749 0.40484 0.0
H303 H 0.02488 0.25126 0.27479 0.0
C304 C 0.75383 0.11069 0.66255 0.0
C305 C 0.78481 0.13205 0.68633 0.0
C306 C 0.74216 0.08347 0.59501 0.0
C307 C 0.76205 0.07729 0.55152 0.0
C308 C 0.79354 0.09826 0.57887 0.0
C309 C 0.80457 0.12554 0.64582 0.0
C310 C 0.7084 0.06179 0.5673 0.0
C311 C 0.81543 0.09227 0.535 0.0
C312 C 0.72776 0.99475 0.4477 0.0
C313 C 0.71675 0.99341 0.33795 0.0
C314 C 0.74404 0.02221 0.51736 0.0
C315 C 0.74947 0.04898 0.47617 0.0
C316 C 0.73998 0.04803 0.36428 0.0
C317 C 0.72376 0.0202 0.29633 0.0
C318 C 0.75394 0.02233 0.63598 0.0
C319 C 0.74552 0.07617 0.31733 0.0
H320 H 0.73846 0.11582 0.69288 0.0
H321 H 0.82857 0.14207 0.66445 0.0
H322 H 0.69971 0.0587 0.47914 0.0
H323 H 0.70311 0.03941 0.58885 0.0
H324 H 0.69613 0.06975 0.60962 0.0
H325 H 0.83934 0.10957 0.57156 0.0
H326 H 0.81161 0.0698 0.54988 0.0
H327 H 0.81163 0.09206 0.44647 0.0
H328 H 0.7228 0.97411 0.47982 0.0
H329 H 0.71518 0.01925 0.21169 0.0
H330 H 0.74051 0.02765 0.682 0.0
H331 H 0.77804 0.04001 0.66616 0.0
H332 H 0.75092 1.00026 0.65313 0.0
H333 H 0.7336 0.08587 0.35256 0.0
H334 H 0.73766 0.07176 0.22823 0.0
H335 H 0.76998 0.09336 0.3381 0.0
C336 C 0.75573 0.76724 0.57539 0.0
C337 C 0.75439 0.74198 0.52332 0.0
C338 C 0.73922 0.77961 0.52521 0.0
C339 C 0.72121 0.76664 0.41984 0.0
C340 C 0.72212 0.7431 0.3631 0.0
C341 C 0.7386 0.73098 0.4156 0.0
C342 C 0.73898 0.80468 0.58917 0.0
C343 C 0.70337 0.72874 0.25041 0.0
C344 C 0.6457 0.762 0.3556 0.0
C345 C 0.65058 0.78358 0.28621 0.0
C346 C 0.66868 0.75683 0.40076 0.0
C347 C 0.69752 0.7737 0.37656 0.0
C348 C 0.703 0.7961 0.30889 0.0
C349 C 0.67936 0.80071 0.26391 0.0
C350 C 0.66187 0.73303 0.47389 0.0
C351 C 0.73376 0.81507 0.2841 0.0
H352 H 0.76843 0.7764 0.65782 0.0
H353 H 0.7372 0.71141 0.37453 0.0
H354 H 0.73696 0.82042 0.53685 0.0
H355 H 0.71925 0.79483 0.62765 0.0
H356 H 0.75971 0.81762 0.6541 0.0
H357 H 0.70994 0.71396 0.21174 0.0
H358 H 0.67918 0.71492 0.25369 0.0
H359 H 0.70561 0.74618 0.19904 0.0
H360 H 0.62371 0.74879 0.37473 0.0
H361 H 0.68343 0.8177 0.21161 0.0
H362 H 0.67689 0.7434 0.55502 0.0
H363 H 0.66631 0.71577 0.44153 0.0
H364 H 0.63806 0.72156 0.48298 0.0
H365 H 0.75108 0.82659 0.36024 0.0
H366 H 0.73469 0.83231 0.23344 0.0
H367 H 0.73983 0.80047 0.24146 0.0
C368 C 0.98233 0.72097 0.3792 0.0
C369 C 0.01264 0.73758 0.43502 0.0
C370 C 0.95873 0.71108 0.43448 0.0
C371 C 0.96568 0.71767 0.5484 0.0
C372 C 0.99623 0.73556 0.60469 0.0
C373 C 0.01935 0.74542 0.54721 0.0
C374 C 0.92643 0.6922 0.37148 0.0
C375 C 1.00459 0.74275 0.72619 0.0
C376 C 0.9021 0.70038 0.69434 0.0
C377 C 0.8955 0.67234 0.72417 0.0
C378 C 0.9252 0.71577 0.63816 0.0
C379 C 0.94143 0.7024 0.60921 0.0
C380 C 0.93455 0.67397 0.6382 0.0
C381 C 0.91204 0.65956 0.6963 0.0
C382 C 0.93221 0.74623 0.6096 0.0
C383 C 0.95076 0.65852 0.6069 0.0
H384 H 0.97709 0.7152 0.29228 0.0
H385 H 0.04276 0.75807 0.59067 0.0
H386 H 0.91241 0.70076 0.39666 0.0
H387 H 0.92468 0.69193 0.28316 0.0
H388 H 0.91667 0.66868 0.38842 0.0
H389 H 0.02895 0.75971 0.75675 0.0
H390 H 0.991 0.75131 0.75544 0.0
H391 H 0.99945 0.72191 0.7613 0.0
H392 H 0.88937 0.71035 0.71537 0.0
H393 H 0.90699 0.63778 0.71795 0.0
H394 H 0.92849 0.74541 0.52079 0.0
H395 H 0.95635 0.76318 0.64373 0.0
H396 H 0.91803 0.75386 0.6401 0.0
H397 H 0.94768 0.65514 0.51795 0.0
H398 H 0.94243 0.63624 0.63484 0.0
H399 H 0.97536 0.67286 0.64157 0.0
C400 C 0.24855 0.90167 0.26137 0.0
C401 C 0.22266 0.87633 0.27972 0.0
C402 C 0.26266 0.92932 0.32986 0.0
C403 C 0.25074 0.93174 0.41943 0.0
C404 C 0.22438 0.90639 0.43756 0.0
C405 C 0.21062 0.87907 0.36743 0.0
C406 C 0.29062 0.95585 0.30725 0.0
C407 C 0.21106 0.90791 0.53247 0.0
C408 C 0.30438 0.99436 0.65323 0.0
C409 C 0.29659 0.01635 0.63521 0.0
C410 C 0.28935 0.96661 0.58476 0.0
C411 C 0.26614 0.96068 0.49503 0.0
C412 C 0.25794 0.98258 0.47679 0.0
C413 C 0.27305 0.00997 0.54735 0.0
C414 C 0.29866 0.94378 0.60751 0.0
C415 C 0.23341 0.97723 0.38183 0.0
H416 H 0.25807 0.89987 0.19398 0.0
H417 H 0.19077 0.85964 0.38308 0.0
H418 H 0.28722 0.97521 0.29908 0.0
H419 H 0.31006 0.96308 0.37585 0.0
H420 H 0.29654 0.95055 0.23261 0.0
H421 H 0.19015 0.88637 0.53417 0.0
H422 H 0.2278 0.91349 0.60873 0.0
H423 H 0.20571 0.92609 0.52998 0.0
H424 H 0.32279 0.99908 0.71949 0.0
H425 H 0.26638 0.02645 0.53341 0.0
H426 H 0.30757 0.93961 0.53958 0.0
H427 H 0.27876 0.92199 0.61431 0.0
H428 H 0.31626 0.95129 0.68293 0.0
H429 H 0.22964 0.99648 0.3789 0.0
H430 H 0.21187 0.95668 0.38557 0.0
H431 H 0.23947 0.97336 0.30561 0.0
C432 C 0.18308 0.68964 0.08902 0.0
C433 C 0.16526 0.69765 0.02017 0.0
C434 C 0.17903 0.66075 0.07227 0.0
C435 C 0.1571 0.63966 -0.01722 0.0
C436 C 0.13914 0.64783 0.91262 0.0
C437 C 0.14304 0.67658 0.9335 0.0
C438 C 0.19812 0.65277 0.15061 0.0
C439 C 0.11595 0.62627 0.81524 0.0
C440 C 0.16664 0.57461 0.89084 0.0
C441 C 0.14629 0.55132 0.93913 0.0
C442 C 0.17005 0.60334 0.90279 0.0
C443 C 0.15262 0.60891 0.96422 0.0
C444 C 0.13155 0.58529 0.01102 0.0
C445 C 0.12865 0.55684 -0.00208 0.0
C446 C 0.19274 0.62793 0.85155 0.0
C447 C 0.11245 0.5902 0.07673 0.0
H448 H 0.20008 0.70599 0.15664 0.0
H449 H 0.12885 0.68256 0.88138 0.0
H450 H 0.18336 0.63281 0.18614 0.0
H451 H 0.21159 0.64671 0.10767 0.0
H452 H 0.21379 0.67156 0.21707 0.0
H453 H 0.1046 0.63646 0.76655 0.0
H454 H 0.12688 0.61899 0.76313 0.0
H455 H 0.09852 0.60578 0.84104 0.0
H456 H 0.18053 0.5706 0.84609 0.0
H457 H 0.11255 0.53883 0.03408 0.0
H458 H 0.21075 0.64631 0.91512 0.0
H459 H 0.18164 0.6378 0.79982 0.0
H460 H 0.20343 0.61961 0.8019 0.0
H461 H 0.12723 0.6078 0.14747 0.0
H462 H 0.09667 0.56934 0.10589 0.0
H463 H 0.09907 0.59838 0.02787 0.0
C464 C 0.5029 0.18533 0.95024 0.0
C465 C 0.50457 0.21307 0.96434 0.0
C466 C 0.52922 0.18376 0.9719 0.0
C467 C 0.55753 0.21045 0.01233 0.0
C468 C 0.55874 0.23797 0.03711 0.0
C469 C 0.53228 0.2391 0.01002 0.0
C470 C 0.52699 0.15411 0.94166 0.0
C471 C 0.58823 0.26667 0.08475 0.0
C472 C 0.62555 0.20145 0.09668 0.0
C473 C 0.63775 0.20703 0.00416 0.0
C474 C 0.59991 0.20331 0.10222 0.0
C475 C 0.5859 0.2104 0.01249 0.0
C476 C 0.5985 0.2167 0.91998 0.0
C477 C 0.6244 0.21526 0.91748 0.0
C478 C 0.58751 0.19717 0.2031 0.0
C479 C 0.58424 0.22436 0.82237 0.0
H480 H 0.4814 0.1653 0.9136 0.0
H481 H 0.53341 0.26054 0.02111 0.0
H482 H 0.53666 0.15521 0.86956 0.0
H483 H 0.54025 0.14954 0.00763 0.0
H484 H 0.50324 0.13498 0.92282 0.0
H485 H 0.58455 0.28422 0.11993 0.0
H486 H 0.60241 0.26241 0.1483 0.0
H487 H 0.60103 0.27558 0.0208 0.0
H488 H 0.63555 0.19487 0.16381 0.0
H489 H 0.63408 0.22035 0.84682 0.0
H490 H 0.56516 0.17602 0.18553 0.0
H491 H 0.58402 0.21554 0.23099 0.0
H492 H 0.6027 0.19497 0.26951 0.0
H493 H 0.56048 0.20588 0.79159 0.0
H494 H 0.59653 0.22805 0.75609 0.0
H495 H 0.58383 0.24503 0.84488 0.0
C496 C 0.38526 0.59212 0.19322 0.0
C497 C 0.40019 0.60662 0.11295 0.0
C498 C 0.35817 0.56434 0.16744 0.0
C499 C 0.34592 0.55028 0.05877 0.0
C500 C 0.36107 0.56437 0.97723 0.0
C501 C 0.38794 0.59256 0.00519 0.0
C502 C 0.34257 0.55013 0.25683 0.0
C503 C 0.34885 0.54974 0.86078 0.0
C504 C 0.28904 0.46786 0.0478 0.0
C505 C 0.26209 0.46816 0.0327 0.0
C506 C 0.3164 0.49398 0.04527 0.0
C507 C 0.31681 0.52116 0.03211 0.0
C508 C 0.28935 0.52106 0.01032 0.0
C509 C 0.26222 0.49437 0.00908 0.0
C510 C 0.34507 0.49292 0.0637 0.0
C511 C 0.28882 0.54966 -0.00167 0.0
H512 H 0.39493 0.60238 0.27693 0.0
H513 H 0.39921 0.60369 0.94251 0.0
H514 H 0.31915 0.54578 0.23909 0.0
H515 H 0.34107 0.52814 0.26223 0.0
H516 H 0.3546 0.56454 0.33659 0.0
H517 H 0.36455 0.56252 0.8085 0.0
H518 H 0.34461 0.52645 0.85365 0.0
H519 H 0.32691 0.54812 0.8301 0.0
H520 H 0.28882 0.44739 0.06393 0.0
H521 H 0.24136 0.49465 -0.00275 0.0
H522 H 0.35802 0.50326 0.14757 0.0
H523 H 0.35961 0.50598 0.00872 0.0
H524 H 0.3403 0.46945 0.05134 0.0
H525 H 0.29833 0.56425 0.07787 0.0
H526 H 0.26555 0.54512 0.96844 0.0
H527 H 0.30305 0.56246 0.94231 0.0
C528 C 0.86028 0.44636 0.08334 0.0
C529 C 0.85456 0.45493 -0.01687 0.0
C530 C 0.85661 0.41776 0.09007 0.0
C531 C 0.84658 0.39722 -0.0056 0.0
C532 C 0.84025 0.40564 0.89328 0.0
C533 C 0.84449 0.43444 0.88891 0.0
C534 C 0.86408 0.40974 0.19901 0.0
C535 C 0.82922 0.38431 0.78938 0.0
C536 C 0.86213 0.33383 0.9636 0.0
C537 C 0.8338 0.30866 0.96294 0.0
C538 C 0.86733 0.36307 -0.01763 0.0
C539 C 0.84337 0.36714 -0.00183 0.0
C540 C 0.81525 0.34186 0.00404 0.0
C541 C 0.81089 0.31285 -0.01253 0.0
C542 C 0.89788 0.38946 0.97826 0.0
C543 C 0.78904 0.34524 0.01949 0.0
H544 H 0.86829 0.46231 0.15621 0.0
H545 H 0.8397 0.44091 0.81149 0.0
H546 H 0.84433 0.38878 0.21233 0.0
H547 H 0.88284 0.40533 0.20201 0.0
H548 H 0.87081 0.42792 0.26589 0.0
H549 H 0.8241 0.39388 0.71799 0.0
H550 H 0.84663 0.37886 0.7777 0.0
H551 H 0.80853 0.36285 0.79321 0.0
H552 H 0.87999 0.33061 0.94591 0.0
H553 H 0.78893 0.29339 -0.01334 0.0
H554 H 0.90567 0.40771 0.04603 0.0
H555 H 0.89615 0.39875 0.90221 0.0
H556 H 0.91521 0.38293 -0.01833 0.0
H557 H 0.79631 0.36329 0.08734 0.0
H558 H 0.77003 0.32399 0.03525 0.0
H559 H 0.78067 0.35186 0.94572 0.0
C560 C 0.38383 0.82018 0.88597 0.0
C561 C 0.36299 0.80328 0.94838 0.0
C562 C 0.40973 0.81834 0.8862 0.0
C563 C 0.41594 0.8005 0.95492 0.0
C564 C 0.39476 0.78278 0.01562 0.0
C565 C 0.36821 0.78365 0.00885 0.0
C566 C 0.4309 0.83629 0.81551 0.0
C567 C 0.40076 0.76392 0.09196 0.0
C568 C 0.47476 0.77841 0.94661 0.0
C569 C 0.49916 0.80054 0.02547 0.0
C570 C 0.4482 0.77939 0.91647 0.0
C571 C 0.44555 0.80208 0.97089 0.0
C572 C 0.47053 0.82488 0.04878 0.0
C573 C 0.49729 0.82417 0.0734 0.0
C574 C 0.42276 0.75568 0.82873 0.0
C575 C 0.46842 0.84897 0.11106 0.0
H576 H 0.38063 0.83566 0.83907 0.0
H577 H 0.35189 0.76931 0.05355 0.0
H578 H 0.45084 0.85679 0.86503 0.0
H579 H 0.43919 0.82298 0.77796 0.0
H580 H 0.41982 0.84342 0.75067 0.0
H581 H 0.38237 0.75212 0.13585 0.0
H582 H 0.40331 0.74685 0.04708 0.0
H583 H 0.42225 0.77845 0.15203 0.0
H584 H 0.4764 0.76028 0.90897 0.0
H585 H 0.51616 0.84112 0.13503 0.0
H586 H 0.4129 0.76598 0.77352 0.0
H587 H 0.40453 0.73901 0.86501 0.0
H588 H 0.43044 0.74349 0.78085 0.0
H589 H 0.46215 0.86167 0.05499 0.0
H590 H 0.48998 0.86517 0.16832 0.0
H591 H 0.4504 0.83835 0.15722 0.0
C592 C 0.71295 0.54593 0.91292 0.0
C593 C 0.74001 0.54619 0.94679 0.0
C594 C 0.68486 0.51998 0.90948 0.0
C595 C 0.6838 0.49361 0.94031 0.0
C596 C 0.71105 0.49452 -0.01676 0.0
C597 C 0.73883 0.5208 -0.014 0.0
C598 C 0.65635 0.52012 0.86485 0.0
C599 C 0.71096 0.46701 0.01803 0.0
C600 C 0.6079 0.42544 0.95337 0.0
C601 C 0.59949 0.40863 0.85106 0.0
C602 C 0.63537 0.45312 -0.01552 0.0
C603 C 0.65478 0.46419 0.91144 0.0
C604 C 0.64639 0.44727 0.80832 0.0
C605 C 0.61889 0.41985 0.77942 0.0
C606 C 0.64361 0.47053 0.0951 0.0
C607 C 0.66638 0.45825 0.72778 0.0
H608 H 0.71356 0.56556 0.88404 0.0
H609 H 0.75953 0.52071 0.01299 0.0
H610 H 0.64608 0.50697 0.78263 0.0
H611 H 0.63953 0.50927 0.91535 0.0
H612 H 0.66079 0.5433 0.85993 0.0
H613 H 0.7334 0.47266 0.06558 0.0
H614 H 0.69383 0.45567 0.06699 0.0
H615 H 0.70488 0.45069 0.94558 0.0
H616 H 0.59314 0.41681 0.00952 0.0
H617 H 0.61233 0.40734 0.69953 0.0
H618 H 0.64635 0.49297 0.0877 0.0
H619 H 0.66559 0.4744 0.14008 0.0
H620 H 0.62626 0.45864 0.14296 0.0
H621 H 0.66965 0.4802 0.7081 0.0
H622 H 0.65677 0.44215 0.65169 0.0
H623 H 0.68899 0.46188 0.76303 0.0
C624 C 0.20862 0.39671 0.83473 0.0
C625 C 0.17924 0.37819 0.84985 0.0
C626 C 0.21393 0.41536 0.75569 0.0
C627 C 0.189 0.41263 0.68239 0.0
C628 C 0.15921 0.39391 0.69686 0.0
C629 C 0.15476 0.37732 0.7827 0.0
C630 C 0.24608 0.43723 0.74808 0.0
C631 C 0.13214 0.39122 0.62177 0.0
C632 C 0.18969 0.45261 0.4411 0.0
C633 C 0.19533 0.43602 0.36871 0.0
C634 C 0.19033 0.44733 0.5483 0.0
C635 C 0.19361 0.42295 0.57817 0.0
C636 C 0.19993 0.40675 0.50465 0.0
C637 C 0.20324 0.41546 0.40417 0.0
C638 C 0.18665 0.46738 0.62621 0.0
C639 C 0.20151 0.37899 0.52666 0.0
H640 H 0.22774 0.39804 0.88875 0.0
H641 H 0.13225 0.36367 0.7974 0.0
H642 H 0.25176 0.42855 0.68001 0.0
H643 H 0.24872 0.45928 0.73286 0.0
H644 H 0.2626 0.44073 0.82251 0.0
H645 H 0.11051 0.37377 0.6396 0.0
H646 H 0.13295 0.41299 0.63057 0.0
H647 H 0.13229 0.38577 0.53661 0.0
H648 H 0.18453 0.46936 0.41394 0.0
H649 H 0.20882 0.40373 0.34926 0.0
H650 H 0.18895 0.46254 0.71022 0.0
H651 H 0.16423 0.46506 0.59862 0.0
H652 H 0.20388 0.49126 0.62568 0.0
H653 H 0.22538 0.38473 0.54094 0.0
H654 H 0.18891 0.36126 0.45513 0.0
H655 H 0.19181 0.36884 0.59555 0.0
C656 C 0.78102 0.19131 0.52961 0.0
C657 C 0.78384 0.21866 0.56434 0.0
C658 C 0.79431 0.18889 0.44681 0.0
C659 C 0.80542 0.21254 0.38465 0.0
C660 C 0.80442 0.23891 0.41075 0.0
C661 C 0.79546 0.24245 0.50531 0.0
C662 C 0.7984 0.16212 0.43389 0.0
C663 C 0.8131 0.26361 0.34118 0.0
C664 C 0.85617 0.22828 0.18864 0.0
C665 C 0.83487 0.20995 0.09624 0.0
C666 C 0.84743 0.22762 0.28662 0.0
C667 C 0.8165 0.20911 0.28944 0.0
C668 C 0.79545 0.18874 0.19727 0.0
C669 C 0.80536 0.18865 0.1026 0.0
C670 C 0.8713 0.24813 0.38381 0.0
C671 C 0.76208 0.16888 0.19525 0.0
H672 H 0.77045 0.1725 0.57251 0.0
H673 H 0.79709 0.26348 0.53199 0.0
H674 H 0.80327 0.15805 0.35551 0.0
H675 H 0.81794 0.1663 0.49714 0.0
H676 H 0.77816 0.14138 0.446 0.0
H677 H 0.80015 0.27507 0.34723 0.0
H678 H 0.83737 0.28082 0.37006 0.0
H679 H 0.80907 0.25497 0.25502 0.0
H680 H 0.87924 0.24411 0.18359 0.0
H681 H 0.78918 0.1737 0.0309 0.0
H682 H 0.86382 0.24215 0.45988 0.0
H683 H 0.8774 0.27171 0.37775 0.0
H684 H 0.89216 0.24732 0.38559 0.0
H685 H 0.7487 0.15603 0.11412 0.0
H686 H 0.75301 0.18279 0.22162 0.0
H687 H 0.75829 0.15211 0.25082 0.0
C688 C 0.59644 0.7499 0.87074 0.0
C689 C 0.59213 0.77137 0.92232 0.0
C690 C 0.60791 0.7553 0.77685 0.0
C691 C 0.6146 0.78241 0.73605 0.0
C692 C 0.61514 0.80591 0.79912 0.0
C693 C 0.60304 0.79967 0.88994 0.0
C694 C 0.60992 0.73093 0.71662 0.0
C695 C 0.62388 0.8361 0.76268 0.0
C696 C 0.63102 0.81658 0.49137 0.0
C697 C 0.60189 0.81009 0.4432 0.0
C698 C 0.63537 0.80235 0.57735 0.0
C699 C 0.61028 0.78302 0.6195 0.0
C700 C 0.58058 0.77377 0.56296 0.0
C701 C 0.57682 0.78774 0.47555 0.0
C702 C 0.66696 0.81006 0.6282 0.0
C703 C 0.55289 0.75175 0.60174 0.0
H704 H 0.589 0.72834 0.8988 0.0
H705 H 0.59993 0.81633 0.9306 0.0
H706 H 0.58689 0.71259 0.67556 0.0
H707 H 0.62388 0.73949 0.65549 0.0
H708 H 0.61971 0.72099 0.77404 0.0
H709 H 0.62552 0.85249 0.82665 0.0
H710 H 0.64601 0.84598 0.73955 0.0
H711 H 0.60675 0.83323 0.69136 0.0
H712 H 0.65042 0.83259 0.46172 0.0
H713 H 0.55433 0.78201 0.435 0.0
H714 H 0.66689 0.79262 0.676 0.0
H715 H 0.67882 0.83195 0.68216 0.0
H716 H 0.68005 0.81253 0.56514 0.0
H717 H 0.55388 0.73144 0.61866 0.0
H718 H 0.53166 0.74452 0.54161 0.0
H719 H 0.55194 0.76232 0.67762 0.0
C720 C 0.81765 0.5689 0.57485 0.0
C721 C 0.79181 0.5675 0.59795 0.0
C722 C 0.82986 0.58378 0.49161 0.0
C723 C 0.81303 0.59282 0.42054 0.0
C724 C 0.78368 0.58547 0.43112 0.0
C725 C 0.77395 0.57408 0.52349 0.0
C726 C 0.8615 0.59143 0.48615 0.0
C727 C 0.76341 0.5915 0.35008 0.0
C728 C 0.83991 0.65345 0.24377 0.0
C729 C 0.84017 0.6374 0.15327 0.0
C730 C 0.83428 0.64025 0.33751 0.0
C731 C 0.82582 0.60954 0.33462 0.0
C732 C 0.82791 0.59423 0.2454 0.0
C733 C 0.83705 0.60944 0.1597 0.0
C734 C 0.83597 0.65883 0.43596 0.0
C735 C 0.81865 0.56133 0.23441 0.0
H736 H 0.83124 0.56346 0.63308 0.0
H737 H 0.75389 0.57283 0.5419 0.0
H738 H 0.86032 0.57199 0.44072 0.0
H739 H 0.87342 0.61162 0.44695 0.0
H740 H 0.87537 0.59545 0.56803 0.0
H741 H 0.76817 0.61462 0.3726 0.0
H742 H 0.76702 0.58942 0.26732 0.0
H743 H 0.73923 0.57564 0.34953 0.0
H744 H 0.84294 0.67564 0.24001 0.0
H745 H 0.83752 0.59767 0.09143 0.0
H746 H 0.83775 0.64907 0.51084 0.0
H747 H 0.81557 0.6608 0.42427 0.0
H748 H 0.85582 0.68203 0.44658 0.0
H749 H 0.80738 0.55021 0.14985 0.0
H750 H 0.80308 0.54839 0.28657 0.0
H751 H 0.8392 0.55971 0.25435 0.0
C752 C 0.17649 0.74218 0.35679 0.0
C753 C 0.20641 0.76129 0.34975 0.0
C754 C 0.16807 0.7407 0.45543 0.0
C755 C 0.19078 0.75738 0.5492 0.0
C756 C 0.22162 0.77165 0.54426 0.0
C757 C 0.22923 0.77423 0.44323 0.0
C758 C 0.13481 0.7242 0.45695 0.0
C759 C 0.24639 0.78652 0.64445 0.0
C760 C 0.17608 0.79849 0.76168 0.0
C761 C 0.16256 0.77595 0.82417 0.0
C762 C 0.18431 0.79226 0.66884 0.0
C763 C 0.18206 0.76399 0.64654 0.0
C764 C 0.16909 0.74155 0.71204 0.0
C765 C 0.15749 0.74725 0.79505 0.0
C766 C 0.19478 0.81577 0.59443 0.0
C767 C 0.16782 0.71179 0.69853 0.0
H768 H 0.15918 0.73056 0.28467 0.0
H769 H 0.25256 0.78854 0.43753 0.0
H770 H 0.12968 0.70689 0.51095 0.0
H771 H 0.12869 0.74027 0.48807 0.0
H772 H 0.12015 0.71268 0.37588 0.0
H773 H 0.26761 0.7883 0.63099 0.0
H774 H 0.25107 0.8096 0.66688 0.0
H775 H 0.23962 0.7739 0.71292 0.0
H776 H 0.17939 0.82056 0.78368 0.0
H777 H 0.14588 0.72963 0.8412 0.0
H778 H 0.18805 0.8326 0.60907 0.0
H779 H 0.18531 0.80523 0.50859 0.0
H780 H 0.21974 0.82801 0.60785 0.0
H781 H 0.14403 0.693 0.68605 0.0
H782 H 0.18035 0.70977 0.77418 0.0
H783 H 0.17763 0.70894 0.63132 0.0
C784 C 0.4326 0.16666 0.47759 0.0
C785 C 0.43129 0.18858 0.54007 0.0
C786 C 0.44179 0.17256 0.37996 0.0
C787 C 0.44804 0.20021 0.34479 0.0
C788 C 0.4487 0.22304 0.41265 0.0
C789 C 0.44055 0.21678 0.51003 0.0
C790 C 0.44365 0.14888 0.31431 0.0
C791 C 0.45547 0.25325 0.38001 0.0
C792 C 0.47025 0.24223 0.12312 0.0
C793 C 0.44158 0.23463 0.06483 0.0
C794 C 0.47303 0.22568 0.20288 0.0
C795 C 0.44661 0.20353 0.2314 0.0
C796 C 0.41775 0.19426 0.16763 0.0
C797 C 0.41561 0.21018 0.08487 0.0
C798 C 0.50396 0.23328 0.26271 0.0
C799 C 0.38903 0.16958 0.19332 0.0
H800 H 0.42661 0.14522 0.5049 0.0
H801 H 0.43999 0.23362 0.56028 0.0
H802 H 0.42057 0.12932 0.2819 0.0
H803 H 0.45497 0.15739 0.24655 0.0
H804 H 0.45626 0.14053 0.36698 0.0
H805 H 0.45362 0.26757 0.44233 0.0
H806 H 0.47874 0.26589 0.36631 0.0
H807 H 0.43956 0.25003 0.30418 0.0
H808 H 0.49049 0.26025 0.1037 0.0
H809 H 0.39364 0.20383 0.03665 0.0
H810 H 0.50491 0.21237 0.26417 0.0
H811 H 0.50837 0.24305 0.34768 0.0
H812 H 0.5222 0.24958 0.22532 0.0
H813 H 0.39018 0.1489 0.19882 0.0
H814 H 0.36865 0.16401 0.1313 0.0
H815 H 0.38632 0.1766 0.27243 0.0
loop_
_geom_bond_atom_site_label_1
_geom_bond_atom_site_label_2
_geom_bond_distance
_geom_bond_site_symmetry_2
_ccdc_geom_bond_type
Gd0 C3 2.818 . S
Gd0 O20 2.377 1_554 S
Gd0 O22 2.448 1_554 S
Gd0 O23 2.506 . S
Gd0 O24 2.435 1_554 S
Gd0 O25 2.717 1_554 S
Gd0 O27 2.395 1_554 S
Gd0 O31 2.327 . S
Gd1 C12 2.818 . S
Gd1 O21 2.395 1_556 S
Gd1 O25 2.327 . S
Gd1 O26 2.377 1_556 S
Gd1 O28 2.448 1_556 S
Gd1 O29 2.506 . S
Gd1 O30 2.435 1_556 S
Gd1 O31 2.717 1_556 S
C2 O20 1.240 1_554 S
C2 O21 1.240 . S
C3 Gd0 2.818 . S
C3 C4 1.510 . S
C3 O22 1.249 1_554 S
C3 O23 1.252 . S
C4 C3 1.510 . S
C4 C5 1.404 . S
C4 C6 1.352 . S
C5 C4 1.404 . S
C5 C9 1.389 . S
C5 H32 0.930 1_554 S
C6 C4 1.352 . S
C6 C8 1.374 . S
C6 H33 0.931 . S
C7 C8 1.359 . S
C7 C9 1.364 . S
C8 C6 1.374 . S
C8 C7 1.359 . S
C8 H34 0.931 . S
C9 C5 1.389 . S
C9 C7 1.364 . S
C9 H35 0.931 . S
C10 O24 1.256 . S
C10 O25 1.257 . S
C11 O26 1.240 1_556 S
C11 O27 1.240 . S
C12 Gd1 2.818 . S
C12 C13 1.510 . S
C12 O28 1.249 1_556 S
C12 O29 1.252 . S
C13 C12 1.510 . S
C13 C14 1.404 . S
C13 C15 1.352 . S
C14 C13 1.404 . S
C14 C18 1.389 . S
C14 H36 0.930 1_556 S
C15 C13 1.352 . S
C15 C17 1.374 . S
C15 H37 0.931 . S
C16 C17 1.359 . S
C16 C18 1.364 . S
C17 C15 1.374 . S
C17 C16 1.359 . S
C17 H38 0.931 . S
C18 C14 1.389 . S
C18 C16 1.364 . S
C18 H39 0.931 . S
C19 O30 1.256 . S
C19 O31 1.257 . S
O20 Gd0 2.377 1_556 S
O20 C2 1.240 1_556 S
O21 Gd1 2.395 1_554 S
O21 C2 1.240 . S
O22 Gd0 2.448 1_556 S
O22 C3 1.249 1_556 S
O23 Gd0 2.506 . S
O23 C3 1.252 . S
O24 Gd0 2.435 1_556 S
O24 C10 1.256 . S
O25 Gd0 2.717 1_556 S
O25 Gd1 2.327 . S
O25 C10 1.257 . S
O26 Gd1 2.377 1_554 S
O26 C11 1.240 1_554 S
O27 Gd0 2.395 1_556 S
O27 C11 1.240 . S
O28 Gd1 2.448 1_554 S
O28 C12 1.249 1_554 S
O29 Gd1 2.506 . S
O29 C12 1.252 . S
O30 Gd1 2.435 1_554 S
O30 C19 1.256 . S
O31 Gd0 2.327 . S
O31 Gd1 2.717 1_554 S
O31 C19 1.257 . S
H32 C5 0.930 1_556 S
H33 C6 0.931 . S
H34 C8 0.931 . S
H35 C9 0.931 . S
H36 C14 0.930 1_554 S
H37 C15 0.931 . S
H38 C17 0.931 . S
H39 C18 0.931 . S
Gd40 C43 2.818 1_556 S
Gd40 O60 2.377 . S
Gd40 O62 2.448 . S
Gd40 O63 2.506 1_556 S
Gd40 O64 2.435 . S
Gd40 O65 2.717 . S
Gd40 O67 2.395 . S
Gd40 O71 2.327 1_556 S
Gd41 C52 2.818 1_554 S
Gd41 O61 2.395 . S
Gd41 O65 2.327 1_554 S
Gd41 O66 2.377 . S
Gd41 O68 2.448 . S
Gd41 O69 2.506 1_554 S
Gd41 O70 2.435 . S
Gd41 O71 2.717 . S
C42 O60 1.240 1_554 S
C42 O61 1.240 . S
C43 Gd40 2.818 1_554 S
C43 C44 1.510 . S
C43 O62 1.249 1_554 S
C43 O63 1.252 . S
C44 C43 1.510 . S
C44 C45 1.404 1_554 S
C44 C46 1.352 . S
C45 C44 1.404 1_556 S
C45 C49 1.389 1_556 S
C45 H72 0.930 . S
C46 C44 1.352 . S
C46 C48 1.374 . S
C46 H73 0.931 . S
C47 C48 1.359 . S
C47 C49 1.365 . S
C48 C46 1.374 . S
C48 C47 1.359 . S
C48 H74 0.931 . S
C49 C45 1.389 1_554 S
C49 C47 1.365 . S
C49 H75 0.931 1_554 S
C50 O64 1.256 . S
C50 O65 1.257 . S
C51 O66 1.240 1_556 S
C51 O67 1.240 . S
C52 Gd41 2.818 1_556 S
C52 C53 1.510 . S
C52 O68 1.249 1_556 S
C52 O69 1.252 . S
C53 C52 1.510 . S
C53 C54 1.404 1_556 S
C53 C55 1.352 . S
C54 C53 1.404 1_554 S
C54 C58 1.388 1_554 S
C54 H76 0.930 . S
C55 C53 1.352 . S
C55 C57 1.374 . S
C55 H77 0.931 . S
C56 C57 1.359 . S
C56 C58 1.367 . S
C57 C55 1.374 . S
C57 C56 1.359 . S
C57 H78 0.931 . S
C58 C54 1.388 1_556 S
C58 C56 1.367 . S
C58 H79 0.929 1_656 S
C59 O70 1.256 . S
C59 O71 1.257 . S
O60 Gd40 2.377 . S
O60 C42 1.240 1_556 S
O61 Gd41 2.395 . S
O61 C42 1.240 . S
O62 Gd40 2.448 . S
O62 C43 1.249 1_556 S
O63 Gd40 2.506 1_554 S
O63 C43 1.252 . S
O64 Gd40 2.435 . S
O64 C50 1.256 . S
O65 Gd40 2.717 . S
O65 Gd41 2.327 1_556 S
O65 C50 1.257 . S
O66 Gd41 2.377 . S
O66 C51 1.240 1_554 S
O67 Gd40 2.395 . S
O67 C51 1.240 . S
O68 Gd41 2.448 . S
O68 C52 1.249 1_554 S
O69 Gd41 2.506 1_556 S
O69 C52 1.252 . S
O70 Gd41 2.435 . S
O70 C59 1.256 . S
O71 Gd40 2.327 1_554 S
O71 Gd41 2.717 . S
O71 C59 1.257 . S
H72 C45 0.930 . S
H73 C46 0.931 . S
H74 C48 0.931 . S
H75 C49 0.931 1_556 S
H76 C54 0.930 . S
H77 C55 0.931 . S
H78 C57 0.931 . S
H79 C58 0.929 1_454 S
Gd80 C83 2.818 . S
Gd80 O100 2.377 . S
Gd80 O102 2.448 . S
Gd80 O103 2.506 1_556 S
Gd80 O104 2.435 . S
Gd80 O105 2.717 . S
Gd80 O107 2.395 1_556 S
Gd80 O111 2.327 1_556 S
Gd81 C92 2.818 . S
Gd81 O101 2.395 1_554 S
Gd81 O105 2.327 1_554 S
Gd81 O106 2.377 . S
Gd81 O108 2.448 . S
Gd81 O109 2.506 1_554 S
Gd81 O110 2.435 . S
Gd81 O111 2.717 . S
C82 O100 1.240 . S
C82 O101 1.240 . S
C83 Gd80 2.818 . S
C83 C84 1.510 . S
C83 O102 1.249 . S
C83 O103 1.252 1_556 S
C84 C83 1.510 . S
C84 C85 1.404 . S
C84 C86 1.352 . S
C85 C84 1.404 . S
C85 C89 1.389 . S
C85 H112 0.930 . S
C86 C84 1.352 . S
C86 C88 1.374 . S
C86 H113 0.931 1_556 S
C87 C88 1.359 . S
C87 C89 1.364 . S
C88 C86 1.374 . S
C88 C87 1.359 . S
C88 H114 0.931 1_556 S
C89 C85 1.389 . S
C89 C87 1.364 . S
C89 H115 0.931 . S
C90 O104 1.256 . S
C90 O105 1.257 . S
C91 O106 1.240 . S
C91 O107 1.240 . S
C92 Gd81 2.818 . S
C92 C93 1.510 . S
C92 O108 1.249 . S
C92 O109 1.252 1_554 S
C93 C92 1.510 . S
C93 C94 1.404 . S
C93 C95 1.352 . S
C94 C93 1.404 . S
C94 C98 1.389 . S
C94 H116 0.930 . S
C95 C93 1.352 . S
C95 C97 1.374 . S
C95 H117 0.931 1_554 S
C96 C97 1.359 . S
C96 C98 1.364 . S
C97 C95 1.374 . S
C97 C96 1.359 . S
C97 H118 0.931 1_554 S
C98 C94 1.389 . S
C98 C96 1.364 . S
C98 H119 0.931 . S
C99 O110 1.256 . S
C99 O111 1.257 . S
O100 Gd80 2.377 . S
O100 C82 1.240 . S
O101 Gd81 2.395 1_556 S
O101 C82 1.240 . S
O102 Gd80 2.448 . S
O102 C83 1.249 . S
O103 Gd80 2.506 1_554 S
O103 C83 1.252 1_554 S
O104 Gd80 2.435 . S
O104 C90 1.256 . S
O105 Gd80 2.717 . S
O105 Gd81 2.327 1_556 S
O105 C90 1.257 . S
O106 Gd81 2.377 . S
O106 C91 1.240 . S
O107 Gd80 2.395 1_554 S
O107 C91 1.240 . S
O108 Gd81 2.448 . S
O108 C92 1.249 . S
O109 Gd81 2.506 1_556 S
O109 C92 1.252 1_556 S
O110 Gd81 2.435 . S
O110 C99 1.256 . S
O111 Gd80 2.327 1_554 S
O111 Gd81 2.717 . S
O111 C99 1.257 . S
H112 C85 0.930 . S
H113 C86 0.931 1_554 S
H114 C88 0.931 1_554 S
H115 C89 0.931 . S
H116 C94 0.930 . S
H117 C95 0.931 1_556 S
H118 C97 0.931 1_556 S
H119 C98 0.931 . S
Gd120 C123 2.818 . S
Gd120 O140 2.377 1_554 S
Gd120 O142 2.448 1_554 S
Gd120 O143 2.506 . S
Gd120 O144 2.435 1_554 S
Gd120 O145 2.717 1_554 S
Gd120 O147 2.395 1_554 S
Gd120 O151 2.327 . S
Gd121 C132 2.818 . S
Gd121 O141 2.395 1_556 S
Gd121 O145 2.327 . S
Gd121 O146 2.377 1_556 S
Gd121 O148 2.448 1_556 S
Gd121 O149 2.506 . S
Gd121 O150 2.435 1_556 S
Gd121 O151 2.717 1_556 S
C122 O140 1.240 1_554 S
C122 O141 1.240 . S
C123 Gd120 2.818 . S
C123 C124 1.510 . S
C123 O142 1.249 1_554 S
C123 O143 1.252 . S
C124 C123 1.510 . S
C124 C125 1.404 . S
C124 C126 1.352 . S
C125 C124 1.404 . S
C125 C129 1.389 . S
C125 H152 0.930 1_554 S
C126 C124 1.352 . S
C126 C128 1.374 . S
C126 H153 0.931 . S
C127 C128 1.359 . S
C127 C129 1.364 . S
C128 C126 1.374 . S
C128 C127 1.359 . S
C128 H154 0.931 . S
C129 C125 1.389 . S
C129 C127 1.364 . S
C129 H155 0.931 . S
C130 O144 1.256 . S
C130 O145 1.257 . S
C131 O146 1.240 1_556 S
C131 O147 1.240 . S
C132 Gd121 2.818 . S
C132 C133 1.510 . S
C132 O148 1.249 1_556 S
C132 O149 1.252 . S
C133 C132 1.510 . S
C133 C134 1.404 . S
C133 C135 1.352 . S
C134 C133 1.404 . S
C134 C138 1.389 . S
C134 H156 0.930 1_556 S
C135 C133 1.352 . S
C135 C137 1.374 . S
C135 H157 0.931 . S
C136 C137 1.359 . S
C136 C138 1.364 . S
C137 C135 1.374 . S
C137 C136 1.359 . S
C137 H158 0.931 . S
C138 C134 1.389 . S
C138 C136 1.364 . S
C138 H159 0.931 . S
C139 O150 1.256 . S
C139 O151 1.257 . S
O140 Gd120 2.377 1_556 S
O140 C122 1.240 1_556 S
O141 Gd121 2.395 1_554 S
O141 C122 1.240 . S
O142 Gd120 2.448 1_556 S
O142 C123 1.249 1_556 S
O143 Gd120 2.506 . S
O143 C123 1.252 . S
O144 Gd120 2.435 1_556 S
O144 C130 1.256 . S
O145 Gd120 2.717 1_556 S
O145 Gd121 2.327 . S
O145 C130 1.257 . S
O146 Gd121 2.377 1_554 S
O146 C131 1.240 1_554 S
O147 Gd120 2.395 1_556 S
O147 C131 1.240 . S
O148 Gd121 2.448 1_554 S
O148 C132 1.249 1_554 S
O149 Gd121 2.506 . S
O149 C132 1.252 . S
O150 Gd121 2.435 1_554 S
O150 C139 1.256 . S
O151 Gd120 2.327 . S
O151 Gd121 2.717 1_554 S
O151 C139 1.257 . S
H152 C125 0.930 1_556 S
H153 C126 0.931 . S
H154 C128 0.931 . S
H155 C129 0.931 . S
H156 C134 0.930 1_554 S
H157 C135 0.931 . S
H158 C137 0.931 . S
H159 C138 0.931 . S
Gd160 C163 2.818 1_556 S
Gd160 O180 2.377 . S
Gd160 O182 2.448 . S
Gd160 O183 2.506 1_556 S
Gd160 O184 2.435 . S
Gd160 O185 2.717 . S
Gd160 O187 2.395 . S
Gd160 O191 2.327 1_556 S
Gd161 C172 2.818 1_554 S
Gd161 O181 2.395 . S
Gd161 O185 2.327 1_554 S
Gd161 O186 2.377 . S
Gd161 O188 2.448 . S
Gd161 O189 2.506 1_554 S
Gd161 O190 2.435 . S
Gd161 O191 2.717 . S
C162 O180 1.240 1_554 S
C162 O181 1.240 . S
C163 Gd160 2.818 1_554 S
C163 C164 1.510 . S
C163 O182 1.249 1_554 S
C163 O183 1.252 . S
C164 C163 1.510 . S
C164 C165 1.404 1_554 S
C164 C166 1.352 . S
C165 C164 1.404 1_556 S
C165 C169 1.388 1_556 S
C165 H192 0.930 . S
C166 C164 1.352 . S
C166 C168 1.374 . S
C166 H193 0.931 . S
C167 C168 1.359 . S
C167 C169 1.367 . S
C168 C166 1.374 . S
C168 C167 1.359 . S
C168 H194 0.931 . S
C169 C165 1.388 1_554 S
C169 C167 1.367 . S
C169 H195 0.929 1_454 S
C170 O184 1.256 . S
C170 O185 1.257 . S
C171 O186 1.240 1_556 S
C171 O187 1.240 . S
C172 Gd161 2.818 1_556 S
C172 C173 1.510 . S
C172 O188 1.249 1_556 S
C172 O189 1.252 . S
C173 C172 1.510 . S
C173 C174 1.404 1_556 S
C173 C175 1.352 . S
C174 C173 1.404 1_554 S
C174 C178 1.389 1_554 S
C174 H196 0.930 . S
C175 C173 1.352 . S
C175 C177 1.374 . S
C175 H197 0.931 . S
C176 C177 1.359 . S
C176 C178 1.365 . S
C177 C175 1.374 . S
C177 C176 1.359 . S
C177 H198 0.931 . S
C178 C174 1.389 1_556 S
C178 C176 1.365 . S
C178 H199 0.931 1_556 S
C179 O190 1.256 . S
C179 O191 1.257 . S
O180 Gd160 2.377 . S
O180 C162 1.240 1_556 S
O181 Gd161 2.395 . S
O181 C162 1.240 . S
O182 Gd160 2.448 . S
O182 C163 1.249 1_556 S
O183 Gd160 2.506 1_554 S
O183 C163 1.252 . S
O184 Gd160 2.435 . S
O184 C170 1.256 . S
O185 Gd160 2.717 . S
O185 Gd161 2.327 1_556 S
O185 C170 1.257 . S
O186 Gd161 2.377 . S
O186 C171 1.240 1_554 S
O187 Gd160 2.395 . S
O187 C171 1.240 . S
O188 Gd161 2.448 . S
O188 C172 1.249 1_554 S
O189 Gd161 2.506 1_556 S
O189 C172 1.252 . S
O190 Gd161 2.435 . S
O190 C179 1.256 . S
O191 Gd160 2.327 1_554 S
O191 Gd161 2.717 . S
O191 C179 1.257 . S
H192 C165 0.930 . S
H193 C166 0.931 . S
H194 C168 0.931 . S
H195 C169 0.929 1_656 S
H196 C174 0.930 . S
H197 C175 0.931 . S
H198 C177 0.931 . S
H199 C178 0.931 1_554 S
Gd200 C203 2.818 . S
Gd200 O220 2.377 . S
Gd200 O222 2.448 . S
Gd200 O223 2.506 1_556 S
Gd200 O224 2.435 . S
Gd200 O225 2.717 . S
Gd200 O227 2.395 1_556 S
Gd200 O231 2.327 1_556 S
Gd201 C212 2.818 . S
Gd201 O221 2.395 1_554 S
Gd201 O225 2.327 1_554 S
Gd201 O226 2.377 . S
Gd201 O228 2.448 . S
Gd201 O229 2.506 1_554 S
Gd201 O230 2.435 . S
Gd201 O231 2.717 . S
C202 O220 1.240 . S
C202 O221 1.240 . S
C203 Gd200 2.818 . S
C203 C204 1.510 . S
C203 O222 1.249 . S
C203 O223 1.252 1_556 S
C204 C203 1.510 . S
C204 C205 1.404 . S
C204 C206 1.352 . S
C205 C204 1.404 . S
C205 C209 1.389 . S
C205 H232 0.930 . S
C206 C204 1.352 . S
C206 C208 1.374 . S
C206 H233 0.931 1_556 S
C207 C208 1.359 . S
C207 C209 1.364 . S
C208 C206 1.374 . S
C208 C207 1.359 . S
C208 H234 0.931 1_556 S
C209 C205 1.389 . S
C209 C207 1.364 . S
C209 H235 0.931 . S
C210 O224 1.256 . S
C210 O225 1.257 . S
C211 O226 1.240 . S
C211 O227 1.240 . S
C212 Gd201 2.818 . S
C212 C213 1.510 . S
C212 O228 1.249 . S
C212 O229 1.252 1_554 S
C213 C212 1.510 . S
C213 C214 1.404 . S
C213 C215 1.352 . S
C214 C213 1.404 . S
C214 C218 1.389 . S
C214 H236 0.930 . S
C215 C213 1.352 . S
C215 C217 1.374 . S
C215 H237 0.931 1_554 S
C216 C217 1.359 . S
C216 C218 1.364 . S
C217 C215 1.374 . S
C217 C216 1.359 . S
C217 H238 0.931 1_554 S
C218 C214 1.389 . S
C218 C216 1.364 . S
C218 H239 0.931 . S
C219 O230 1.256 . S
C219 O231 1.257 . S
O220 Gd200 2.377 . S
O220 C202 1.240 . S
O221 Gd201 2.395 1_556 S
O221 C202 1.240 . S
O222 Gd200 2.448 . S
O222 C203 1.249 . S
O223 Gd200 2.506 1_554 S
O223 C203 1.252 1_554 S
O224 Gd200 2.435 . S
O224 C210 1.256 . S
O225 Gd200 2.717 . S
O225 Gd201 2.327 1_556 S
O225 C210 1.257 . S
O226 Gd201 2.377 . S
O226 C211 1.240 . S
O227 Gd200 2.395 1_554 S
O227 C211 1.240 . S
O228 Gd201 2.448 . S
O228 C212 1.249 . S
O229 Gd201 2.506 1_556 S
O229 C212 1.252 1_556 S
O230 Gd201 2.435 . S
O230 C219 1.256 . S
O231 Gd200 2.327 1_554 S
O231 Gd201 2.717 . S
O231 C219 1.257 . S
H232 C205 0.930 . S
H233 C206 0.931 1_554 S
H234 C208 0.931 1_554 S
H235 C209 0.931 . S
H236 C214 0.930 . S
H237 C215 0.931 1_556 S
H238 C217 0.931 1_556 S
H239 C218 0.931 . S
C240 C241 1.391 . S
C240 C242 1.394 . S
C240 H256 0.931 . S
C241 C240 1.391 . S
C241 C245 1.376 . S
C242 C240 1.394 . S
C242 C243 1.369 . S
C242 C246 1.531 . S
C243 C242 1.369 . S
C243 C244 1.410 . S
C243 C251 1.503 . S
C244 C243 1.410 . S
C244 C245 1.392 . S
C244 C247 1.511 . S
C245 C241 1.376 . S
C245 C244 1.392 . S
C245 H257 0.929 . S
C246 C242 1.531 . S
C246 H258 0.960 . S
C246 H259 0.962 . S
C246 H260 0.960 . S
C247 C244 1.511 . S
C247 H261 0.961 . S
C247 H262 0.961 . S
C247 H263 0.961 . S
C248 C249 1.370 . S
C248 C250 1.363 . S
C248 H264 0.931 . S
C249 C248 1.370 . S
C249 C253 1.408 . S
C250 C248 1.363 . S
C250 C251 1.370 . S
C250 C254 1.524 . S
C251 C243 1.503 . S
C251 C250 1.370 . S
C251 C252 1.403 . S
C252 C251 1.403 . S
C252 C253 1.404 . S
C252 C255 1.539 . S
C253 C249 1.408 . S
C253 C252 1.404 . S
C253 H265 0.930 . S
C254 C250 1.524 . S
C254 H266 0.956 . S
C254 H267 0.961 . S
C254 H268 0.961 . S
C255 C252 1.539 . S
C255 H269 0.958 . S
C255 H270 0.961 . S
C255 H271 0.960 . S
H256 C240 0.931 . S
H257 C245 0.929 . S
H258 C246 0.960 . S
H259 C246 0.962 . S
H260 C246 0.960 . S
H261 C247 0.961 . S
H262 C247 0.961 . S
H263 C247 0.961 . S
H264 C248 0.931 . S
H265 C253 0.930 . S
H266 C254 0.956 . S
H267 C254 0.961 . S
H268 C254 0.961 . S
H269 C255 0.958 . S
H270 C255 0.961 . S
H271 C255 0.960 . S
C272 C273 1.391 . S
C272 C274 1.394 . S
C272 H288 0.931 . S
C273 C272 1.391 . S
C273 C277 1.376 . S
C274 C272 1.394 . S
C274 C275 1.369 . S
C274 C278 1.558 . S
C275 C274 1.369 . S
C275 C276 1.410 . S
C275 C283 1.503 . S
C276 C275 1.410 . S
C276 C277 1.392 . S
C276 C279 1.511 . S
C277 C273 1.376 . S
C277 C276 1.392 . S
C277 H289 0.929 . S
C278 C274 1.558 . S
C278 H290 0.964 1_455 S
C278 H291 0.936 1_455 S
C278 H292 0.957 1_455 S
C279 C276 1.511 . S
C279 H293 0.961 . S
C279 H294 0.961 . S
C279 H295 0.961 . S
C280 C281 1.370 . S
C280 C282 1.363 . S
C280 H296 0.931 . S
C281 C280 1.370 . S
C281 C285 1.408 . S
C282 C280 1.363 . S
C282 C283 1.370 . S
C282 C286 1.524 . S
C283 C275 1.503 . S
C283 C282 1.370 . S
C283 C284 1.403 . S
C284 C283 1.403 . S
C284 C285 1.404 . S
C284 C287 1.539 . S
C285 C281 1.408 . S
C285 C284 1.404 . S
C285 H297 0.930 . S
C286 C282 1.524 . S
C286 H298 0.956 . S
C286 H299 0.961 . S
C286 H300 0.961 . S
C287 C284 1.539 . S
C287 H301 0.958 . S
C287 H302 0.961 . S
C287 H303 0.960 . S
H288 C272 0.931 . S
H289 C277 0.929 . S
H290 C278 0.964 1_655 S
H291 C278 0.936 1_655 S
H292 C278 0.957 1_655 S
H293 C279 0.961 . S
H294 C279 0.961 . S
H295 C279 0.961 . S
H296 C280 0.931 . S
H297 C285 0.930 . S
H298 C286 0.956 . S
H299 C286 0.961 . S
H300 C286 0.961 . S
H301 C287 0.958 . S
H302 C287 0.961 . S
H303 C287 0.960 . S
C304 C305 1.391 . S
C304 C306 1.394 . S
C304 H320 0.931 . S
C305 C304 1.391 . S
C305 C309 1.376 . S
C306 C304 1.394 . S
C306 C307 1.369 . S
C306 C310 1.531 . S
C307 C306 1.369 . S
C307 C308 1.410 . S
C307 C315 1.503 . S
C308 C307 1.410 . S
C308 C309 1.392 . S
C308 C311 1.511 . S
C309 C305 1.376 . S
C309 C308 1.392 . S
C309 H321 0.929 . S
C310 C306 1.531 . S
C310 H322 0.960 . S
C310 H323 0.962 . S
C310 H324 0.960 . S
C311 C308 1.511 . S
C311 H325 0.961 . S
C311 H326 0.961 . S
C311 H327 0.961 . S
C312 C313 1.378 . S
C312 C314 1.363 1_565 S
C312 H328 0.931 . S
C313 C312 1.378 . S
C313 C317 1.380 1_565 S
C314 C312 1.363 1_545 S
C314 C315 1.370 . S
C314 C318 1.524 . S
C315 C307 1.503 . S
C315 C314 1.370 . S
C315 C316 1.403 . S
C316 C315 1.403 . S
C316 C317 1.404 . S
C316 C319 1.539 . S
C317 C313 1.380 1_545 S
C317 C316 1.404 . S
C317 H329 0.930 . S
C318 C314 1.524 . S
C318 H330 0.956 . S
C318 H331 0.961 . S
C318 H332 0.961 1_545 S
C319 C316 1.539 . S
C319 H333 0.958 . S
C319 H334 0.961 . S
C319 H335 0.960 . S
H320 C304 0.931 . S
H321 C309 0.929 . S
H322 C310 0.960 . S
H323 C310 0.962 . S
H324 C310 0.960 . S
H325 C311 0.961 . S
H326 C311 0.961 . S
H327 C311 0.961 . S
H328 C312 0.931 . S
H329 C317 0.930 . S
H330 C318 0.956 . S
H331 C318 0.961 . S
H332 C318 0.961 1_565 S
H333 C319 0.958 . S
H334 C319 0.961 . S
H335 C319 0.960 . S
C336 C337 1.391 . S
C336 C338 1.394 . S
C336 H352 0.931 . S
C337 C336 1.391 . S
C337 C341 1.376 . S
C338 C336 1.394 . S
C338 C339 1.369 . S
C338 C342 1.531 . S
C339 C338 1.369 . S
C339 C340 1.410 . S
C339 C347 1.503 . S
C340 C339 1.410 . S
C340 C341 1.392 . S
C340 C343 1.511 . S
C341 C337 1.376 . S
C341 C340 1.392 . S
C341 H353 0.929 . S
C342 C338 1.531 . S
C342 H354 0.960 . S
C342 H355 0.962 . S
C342 H356 0.960 . S
C343 C340 1.511 . S
C343 H357 0.961 . S
C343 H358 0.961 . S
C343 H359 0.961 . S
C344 C345 1.370 . S
C344 C346 1.363 . S
C344 H360 0.931 . S
C345 C344 1.370 . S
C345 C349 1.408 . S
C346 C344 1.363 . S
C346 C347 1.370 . S
C346 C350 1.524 . S
C347 C339 1.503 . S
C347 C346 1.370 . S
C347 C348 1.403 . S
C348 C347 1.403 . S
C348 C349 1.404 . S
C348 C351 1.539 . S
C349 C345 1.408 . S
C349 C348 1.404 . S
C349 H361 0.930 . S
C350 C346 1.524 . S
C350 H362 0.956 . S
C350 H363 0.961 . S
C350 H364 0.961 . S
C351 C348 1.539 . S
C351 H365 0.958 . S
C351 H366 0.961 . S
C351 H367 0.960 . S
H352 C336 0.931 . S
H353 C341 0.929 . S
H354 C342 0.960 . S
H355 C342 0.962 . S
H356 C342 0.960 . S
H357 C343 0.961 . S
H358 C343 0.961 . S
H359 C343 0.961 . S
H360 C344 0.931 . S
H361 C349 0.930 . S
H362 C350 0.956 . S
H363 C350 0.961 . S
H364 C350 0.961 . S
H365 C351 0.958 . S
H366 C351 0.961 . S
H367 C351 0.960 . S
C368 C369 1.391 . S
C368 C370 1.394 . S
C368 H384 0.931 . S
C369 C368 1.391 . S
C369 C373 1.376 . S
C370 C368 1.394 . S
C370 C371 1.369 . S
C370 C374 1.531 . S
C371 C370 1.369 . S
C371 C372 1.410 . S
C371 C379 1.503 . S
C372 C371 1.410 . S
C372 C373 1.392 . S
C372 C375 1.511 1_655 S
C373 C369 1.376 . S
C373 C372 1.392 . S
C373 H385 0.929 1_655 S
C374 C370 1.531 . S
C374 H386 0.960 . S
C374 H387 0.962 . S
C374 H388 0.960 . S
C375 C372 1.511 1_455 S
C375 H389 0.961 . S
C375 H390 0.961 . S
C375 H391 0.961 . S
C376 C377 1.370 . S
C376 C378 1.363 . S
C376 H392 0.931 . S
C377 C376 1.370 . S
C377 C381 1.408 . S
C378 C376 1.363 . S
C378 C379 1.370 . S
C378 C382 1.524 . S
C379 C371 1.503 . S
C379 C378 1.370 . S
C379 C380 1.403 . S
C380 C379 1.403 . S
C380 C381 1.404 . S
C380 C383 1.539 . S
C381 C377 1.408 . S
C381 C380 1.404 . S
C381 H393 0.930 . S
C382 C378 1.524 . S
C382 H394 0.956 . S
C382 H395 0.961 . S
C382 H396 0.961 . S
C383 C380 1.539 . S
C383 H397 0.958 . S
C383 H398 0.961 . S
C383 H399 0.960 . S
H384 C368 0.931 . S
H385 C373 0.929 1_455 S
H386 C374 0.960 . S
H387 C374 0.962 . S
H388 C374 0.960 . S
H389 C375 0.961 . S
H390 C375 0.961 . S
H391 C375 0.961 . S
H392 C376 0.931 . S
H393 C381 0.930 . S
H394 C382 0.956 . S
H395 C382 0.961 . S
H396 C382 0.961 . S
H397 C383 0.958 . S
H398 C383 0.961 . S
H399 C383 0.960 . S
C400 C401 1.391 . S
C400 C402 1.394 . S
C400 H416 0.931 . S
C401 C400 1.391 . S
C401 C405 1.376 . S
C402 C400 1.394 . S
C402 C403 1.369 . S
C402 C406 1.531 . S
C403 C402 1.369 . S
C403 C404 1.410 . S
C403 C411 1.503 . S
C404 C403 1.410 . S
C404 C405 1.392 . S
C404 C407 1.511 . S
C405 C401 1.376 . S
C405 C404 1.392 . S
C405 H417 0.929 . S
C406 C402 1.531 . S
C406 H418 0.960 . S
C406 H419 0.962 . S
C406 H420 0.960 . S
C407 C404 1.511 . S
C407 H421 0.961 . S
C407 H422 0.961 . S
C407 H423 0.961 . S
C408 C409 1.370 1_565 S
C408 C410 1.363 . S
C408 H424 0.931 . S
C409 C408 1.370 1_545 S
C409 C413 1.408 1_545 S
C410 C408 1.363 . S
C410 C411 1.370 . S
C410 C414 1.524 . S
C411 C403 1.503 . S
C411 C410 1.370 . S
C411 C412 1.403 . S
C412 C411 1.403 . S
C412 C413 1.404 . S
C412 C415 1.539 . S
C413 C409 1.408 1_565 S
C413 C412 1.404 . S
C413 H425 0.930 1_565 S
C414 C410 1.524 . S
C414 H426 0.956 . S
C414 H427 0.961 . S
C414 H428 0.961 . S
C415 C412 1.539 . S
C415 H429 0.958 . S
C415 H430 0.961 . S
C415 H431 0.960 . S
H416 C400 0.931 . S
H417 C405 0.929 . S
H418 C406 0.960 . S
H419 C406 0.962 . S
H420 C406 0.960 . S
H421 C407 0.961 . S
H422 C407 0.961 . S
H423 C407 0.961 . S
H424 C408 0.931 . S
H425 C413 0.930 1_545 S
H426 C414 0.956 . S
H427 C414 0.961 . S
H428 C414 0.961 . S
H429 C415 0.958 . S
H430 C415 0.961 . S
H431 C415 0.960 . S
C432 C433 1.391 1_554 S
C432 C434 1.394 1_554 S
C432 H448 0.931 . S
C433 C432 1.391 1_556 S
C433 C437 1.376 . S
C434 C432 1.394 1_556 S
C434 C435 1.369 . S
C434 C438 1.531 1_556 S
C435 C434 1.369 . S
C435 C436 1.410 . S
C435 C443 1.503 . S
C436 C435 1.410 . S
C436 C437 1.392 . S
C436 C439 1.511 . S
C437 C433 1.376 . S
C437 C436 1.392 . S
C437 H449 0.929 . S
C438 C434 1.531 1_554 S
C438 H450 0.960 . S
C438 H451 0.962 . S
C438 H452 0.960 . S
C439 C436 1.511 . S
C439 H453 0.961 . S
C439 H454 0.961 . S
C439 H455 0.961 . S
C440 C441 1.370 . S
C440 C442 1.363 . S
C440 H456 0.931 . S
C441 C440 1.370 . S
C441 C445 1.408 . S
C442 C440 1.363 . S
C442 C443 1.370 . S
C442 C446 1.524 . S
C443 C435 1.503 . S
C443 C442 1.370 . S
C443 C444 1.403 . S
C444 C443 1.403 . S
C444 C445 1.404 . S
C444 C447 1.539 . S
C445 C441 1.408 . S
C445 C444 1.404 . S
C445 H457 0.930 . S
C446 C442 1.524 . S
C446 H458 0.956 . S
C446 H459 0.961 . S
C446 H460 0.961 . S
C447 C444 1.539 . S
C447 H461 0.958 . S
C447 H462 0.961 . S
C447 H463 0.960 . S
H448 C432 0.931 . S
H449 C437 0.929 . S
H450 C438 0.960 . S
H451 C438 0.962 . S
H452 C438 0.960 . S
H453 C439 0.961 . S
H454 C439 0.961 . S
H455 C439 0.961 . S
H456 C440 0.931 . S
H457 C445 0.930 . S
H458 C446 0.956 . S
H459 C446 0.961 . S
H460 C446 0.961 . S
H461 C447 0.958 . S
H462 C447 0.961 . S
H463 C447 0.960 . S
C464 C465 1.391 1_556 S
C464 C466 1.394 . S
C464 H480 0.931 . S
C465 C464 1.391 1_554 S
C465 C469 1.376 . S
C466 C464 1.394 . S
C466 C467 1.369 1_556 S
C466 C470 1.531 . S
C467 C466 1.369 1_554 S
C467 C468 1.410 . S
C467 C475 1.503 . S
C468 C467 1.410 . S
C468 C469 1.392 . S
C468 C471 1.511 . S
C469 C465 1.376 . S
C469 C468 1.392 . S
C469 H481 0.929 . S
C470 C466 1.531 . S
C470 H482 0.960 . S
C470 H483 0.962 . S
C470 H484 0.960 . S
C471 C468 1.511 . S
C471 H485 0.961 . S
C471 H486 0.961 . S
C471 H487 0.961 . S
C472 C473 1.370 . S
C472 C474 1.363 . S
C472 H488 0.931 . S
C473 C472 1.370 . S
C473 C477 1.408 . S
C474 C472 1.363 . S
C474 C475 1.370 . S
C474 C478 1.524 . S
C475 C467 1.503 . S
C475 C474 1.370 . S
C475 C476 1.403 . S
C476 C475 1.403 . S
C476 C477 1.404 . S
C476 C479 1.539 1_554 S
C477 C473 1.408 . S
C477 C476 1.404 . S
C477 H489 0.930 . S
C478 C474 1.524 . S
C478 H490 0.956 . S
C478 H491 0.961 . S
C478 H492 0.961 . S
C479 C476 1.539 1_556 S
C479 H493 0.958 . S
C479 H494 0.961 . S
C479 H495 0.960 1_556 S
H480 C464 0.931 . S
H481 C469 0.929 . S
H482 C470 0.960 . S
H483 C470 0.962 . S
H484 C470 0.960 . S
H485 C471 0.961 . S
H486 C471 0.961 . S
H487 C471 0.961 . S
H488 C472 0.931 . S
H489 C477 0.930 . S
H490 C478 0.956 . S
H491 C478 0.961 . S
H492 C478 0.961 . S
H493 C479 0.958 . S
H494 C479 0.961 . S
H495 C479 0.960 1_554 S
C496 C497 1.391 . S
C496 C498 1.394 . S
C496 H512 0.931 . S
C497 C496 1.391 . S
C497 C501 1.376 . S
C498 C496 1.394 . S
C498 C499 1.369 . S
C498 C502 1.531 1_556 S
C499 C498 1.369 . S
C499 C500 1.410 . S
C499 C507 1.503 . S
C500 C499 1.410 . S
C500 C501 1.392 . S
C500 C503 1.511 . S
C501 C497 1.376 . S
C501 C500 1.392 . S
C501 H513 0.929 . S
C502 C498 1.531 1_554 S
C502 H514 0.960 . S
C502 H515 0.962 . S
C502 H516 0.960 . S
C503 C500 1.511 . S
C503 H517 0.961 . S
C503 H518 0.961 . S
C503 H519 0.961 . S
C504 C505 1.370 . S
C504 C506 1.363 . S
C504 H520 0.931 . S
C505 C504 1.370 . S
C505 C509 1.408 1_556 S
C506 C504 1.363 . S
C506 C507 1.370 . S
C506 C510 1.524 . S
C507 C499 1.503 . S
C507 C506 1.370 . S
C507 C508 1.403 1_556 S
C508 C507 1.403 1_554 S
C508 C509 1.404 . S
C508 C511 1.539 . S
C509 C505 1.408 1_554 S
C509 C508 1.404 . S
C509 H521 0.930 . S
C510 C506 1.524 . S
C510 H522 0.956 . S
C510 H523 0.961 . S
C510 H524 0.961 . S
C511 C508 1.539 . S
C511 H525 0.958 . S
C511 H526 0.961 . S
C511 H527 0.960 . S
H512 C496 0.931 . S
H513 C501 0.929 . S
H514 C502 0.960 . S
H515 C502 0.962 . S
H516 C502 0.960 . S
H517 C503 0.961 . S
H518 C503 0.961 . S
H519 C503 0.961 . S
H520 C504 0.931 . S
H521 C509 0.930 . S
H522 C510 0.956 . S
H523 C510 0.961 . S
H524 C510 0.961 . S
H525 C511 0.958 . S
H526 C511 0.961 . S
H527 C511 0.960 . S
C528 C529 1.391 . S
C528 C530 1.394 . S
C528 H544 0.931 . S
C529 C528 1.391 . S
C529 C533 1.376 . S
C530 C528 1.394 . S
C530 C531 1.369 . S
C530 C534 1.531 . S
C531 C530 1.369 . S
C531 C532 1.410 . S
C531 C539 1.503 . S
C532 C531 1.410 . S
C532 C533 1.392 . S
C532 C535 1.511 1_554 S
C533 C529 1.376 . S
C533 C532 1.392 . S
C533 H545 0.929 . S
C534 C530 1.531 . S
C534 H546 0.960 . S
C534 H547 0.962 . S
C534 H548 0.960 . S
C535 C532 1.511 1_556 S
C535 H549 0.961 . S
C535 H550 0.961 . S
C535 H551 0.961 . S
C536 C537 1.370 . S
C536 C538 1.363 . S
C536 H552 0.931 . S
C537 C536 1.370 . S
C537 C541 1.408 . S
C538 C536 1.363 . S
C538 C539 1.370 . S
C538 C542 1.524 . S
C539 C531 1.503 . S
C539 C538 1.370 . S
C539 C540 1.403 . S
C540 C539 1.403 . S
C540 C541 1.404 . S
C540 C543 1.539 . S
C541 C537 1.408 . S
C541 C540 1.404 . S
C541 H553 0.930 . S
C542 C538 1.524 . S
C542 H554 0.956 . S
C542 H555 0.961 . S
C542 H556 0.961 . S
C543 C540 1.539 . S
C543 H557 0.958 . S
C543 H558 0.961 1_554 S
C543 H559 0.960 . S
H544 C528 0.931 . S
H545 C533 0.929 . S
H546 C534 0.960 . S
H547 C534 0.962 . S
H548 C534 0.960 . S
H549 C535 0.961 . S
H550 C535 0.961 . S
H551 C535 0.961 . S
H552 C536 0.931 . S
H553 C541 0.930 . S
H554 C542 0.956 . S
H555 C542 0.961 . S
H556 C542 0.961 . S
H557 C543 0.958 . S
H558 C543 0.961 1_556 S
H559 C543 0.960 . S
C560 C561 1.391 . S
C560 C562 1.394 . S
C560 H576 0.931 . S
C561 C560 1.391 . S
C561 C565 1.376 . S
C562 C560 1.394 . S
C562 C563 1.369 . S
C562 C566 1.531 . S
C563 C562 1.369 . S
C563 C564 1.418 . S
C563 C571 1.503 . S
C564 C563 1.418 . S
C564 C565 1.392 . S
C564 C567 1.504 1_556 S
C565 C561 1.376 . S
C565 C564 1.392 . S
C565 H577 0.929 1_556 S
C566 C562 1.531 . S
C566 H578 0.960 . S
C566 H579 0.962 . S
C566 H580 0.960 . S
C567 C564 1.504 1_554 S
C567 H581 0.961 . S
C567 H582 0.961 . S
C567 H583 0.961 . S
C568 C569 1.370 . S
C568 C570 1.363 . S
C568 H584 0.931 . S
C569 C568 1.370 . S
C569 C573 1.408 . S
C570 C568 1.363 . S
C570 C571 1.370 . S
C570 C574 1.524 . S
C571 C563 1.503 . S
C571 C570 1.370 . S
C571 C572 1.403 . S
C572 C571 1.403 . S
C572 C573 1.404 . S
C572 C575 1.539 1_556 S
C573 C569 1.408 . S
C573 C572 1.404 . S
C573 H585 0.930 1_556 S
C574 C570 1.524 . S
C574 H586 0.956 . S
C574 H587 0.961 . S
C574 H588 0.961 . S
C575 C572 1.539 1_554 S
C575 H589 0.958 . S
C575 H590 0.961 . S
C575 H591 0.960 . S
H576 C560 0.931 . S
H577 C565 0.929 1_554 S
H578 C566 0.960 . S
H579 C566 0.962 . S
H580 C566 0.960 . S
H581 C567 0.961 . S
H582 C567 0.961 . S
H583 C567 0.961 . S
H584 C568 0.931 . S
H585 C573 0.930 1_554 S
H586 C574 0.956 . S
H587 C574 0.961 . S
H588 C574 0.961 . S
H589 C575 0.958 . S
H590 C575 0.961 . S
H591 C575 0.960 . S
C592 C593 1.391 . S
C592 C594 1.394 . S
C592 H608 0.931 1_554 S
C593 C592 1.391 . S
C593 C597 1.376 . S
C594 C592 1.394 . S
C594 C595 1.369 . S
C594 C598 1.531 1_554 S
C595 C594 1.369 . S
C595 C596 1.410 . S
C595 C603 1.503 . S
C596 C595 1.410 . S
C596 C597 1.392 . S
C596 C599 1.511 . S
C597 C593 1.376 . S
C597 C596 1.392 . S
C597 H609 0.929 . S
C598 C594 1.531 1_556 S
C598 H610 0.960 . S
C598 H611 0.962 1_556 S
C598 H612 0.960 . S
C599 C596 1.511 . S
C599 H613 0.961 . S
C599 H614 0.961 . S
C599 H615 0.961 . S
C600 C601 1.370 . S
C600 C602 1.363 . S
C600 H616 0.931 . S
C601 C600 1.370 . S
C601 C605 1.408 . S
C602 C600 1.363 . S
C602 C603 1.370 . S
C602 C606 1.524 . S
C603 C595 1.503 . S
C603 C602 1.370 . S
C603 C604 1.403 . S
C604 C603 1.403 . S
C604 C605 1.404 . S
C604 C607 1.539 1_554 S
C605 C601 1.408 . S
C605 C604 1.404 . S
C605 H617 0.930 1_554 S
C606 C602 1.524 . S
C606 H618 0.956 . S
C606 H619 0.961 . S
C606 H620 0.961 . S
C607 C604 1.539 1_556 S
C607 H621 0.958 . S
C607 H622 0.961 . S
C607 H623 0.960 . S
H608 C592 0.931 1_556 S
H609 C597 0.929 . S
H610 C598 0.960 . S
H611 C598 0.962 1_554 S
H612 C598 0.960 . S
H613 C599 0.961 . S
H614 C599 0.961 . S
H615 C599 0.961 . S
H616 C600 0.931 . S
H617 C605 0.930 1_556 S
H618 C606 0.956 . S
H619 C606 0.961 . S
H620 C606 0.961 . S
H621 C607 0.958 . S
H622 C607 0.961 . S
H623 C607 0.960 . S
C624 C625 1.391 . S
C624 C626 1.394 . S
C624 H640 0.931 . S
C625 C624 1.391 . S
C625 C629 1.376 . S
C626 C624 1.394 . S
C626 C627 1.369 . S
C626 C630 1.531 . S
C627 C626 1.369 . S
C627 C628 1.410 . S
C627 C635 1.503 . S
C628 C627 1.410 . S
C628 C629 1.392 . S
C628 C631 1.511 . S
C629 C625 1.376 . S
C629 C628 1.392 . S
C629 H641 0.929 . S
C630 C626 1.531 . S
C630 H642 0.960 . S
C630 H643 0.962 . S
C630 H644 0.960 . S
C631 C628 1.511 . S
C631 H645 0.961 . S
C631 H646 0.961 . S
C631 H647 0.961 . S
C632 C633 1.370 . S
C632 C634 1.363 . S
C632 H648 0.931 . S
C633 C632 1.370 . S
C633 C637 1.408 . S
C634 C632 1.363 . S
C634 C635 1.370 . S
C634 C638 1.524 . S
C635 C627 1.503 . S
C635 C634 1.370 . S
C635 C636 1.403 . S
C636 C635 1.403 . S
C636 C637 1.404 . S
C636 C639 1.539 . S
C637 C633 1.408 . S
C637 C636 1.404 . S
C637 H649 0.930 . S
C638 C634 1.524 . S
C638 H650 0.956 . S
C638 H651 0.961 . S
C638 H652 0.961 . S
C639 C636 1.539 . S
C639 H653 0.958 . S
C639 H654 0.961 . S
C639 H655 0.960 . S
H640 C624 0.931 . S
H641 C629 0.929 . S
H642 C630 0.960 . S
H643 C630 0.962 . S
H644 C630 0.960 . S
H645 C631 0.961 . S
H646 C631 0.961 . S
H647 C631 0.961 . S
H648 C632 0.931 . S
H649 C637 0.930 . S
H650 C638 0.956 . S
H651 C638 0.961 . S
H652 C638 0.961 . S
H653 C639 0.958 . S
H654 C639 0.961 . S
H655 C639 0.960 . S
C656 C657 1.391 . S
C656 C658 1.394 . S
C656 H672 0.931 . S
C657 C656 1.391 . S
C657 C661 1.376 . S
C658 C656 1.394 . S
C658 C659 1.369 . S
C658 C662 1.531 . S
C659 C658 1.369 . S
C659 C660 1.410 . S
C659 C667 1.503 . S
C660 C659 1.410 . S
C660 C661 1.392 . S
C660 C663 1.511 . S
C661 C657 1.376 . S
C661 C660 1.392 . S
C661 H673 0.929 . S
C662 C658 1.531 . S
C662 H674 0.960 . S
C662 H675 0.962 . S
C662 H676 0.960 . S
C663 C660 1.511 . S
C663 H677 0.961 . S
C663 H678 0.961 . S
C663 H679 0.961 . S
C664 C665 1.370 . S
C664 C666 1.363 . S
C664 H680 0.931 . S
C665 C664 1.370 . S
C665 C669 1.408 . S
C666 C664 1.363 . S
C666 C667 1.370 . S
C666 C670 1.524 . S
C667 C659 1.503 . S
C667 C666 1.370 . S
C667 C668 1.403 . S
C668 C667 1.403 . S
C668 C669 1.404 . S
C668 C671 1.539 . S
C669 C665 1.408 . S
C669 C668 1.404 . S
C669 H681 0.930 . S
C670 C666 1.524 . S
C670 H682 0.956 . S
C670 H683 0.961 . S
C670 H684 0.961 . S
C671 C668 1.539 . S
C671 H685 0.958 . S
C671 H686 0.961 . S
C671 H687 0.960 . S
H672 C656 0.931 . S
H673 C661 0.929 . S
H674 C662 0.960 . S
H675 C662 0.962 . S
H676 C662 0.960 . S
H677 C663 0.961 . S
H678 C663 0.961 . S
H679 C663 0.961 . S
H680 C664 0.931 . S
H681 C669 0.930 . S
H682 C670 0.956 . S
H683 C670 0.961 . S
H684 C670 0.961 . S
H685 C671 0.958 . S
H686 C671 0.961 . S
H687 C671 0.960 . S
C688 C689 1.391 . S
C688 C690 1.394 . S
C688 H704 0.931 . S
C689 C688 1.391 . S
C689 C693 1.376 . S
C690 C688 1.394 . S
C690 C691 1.369 . S
C690 C694 1.531 . S
C691 C690 1.369 . S
C691 C692 1.410 . S
C691 C699 1.503 . S
C692 C691 1.410 . S
C692 C693 1.392 . S
C692 C695 1.511 . S
C693 C689 1.376 . S
C693 C692 1.392 . S
C693 H705 0.929 . S
C694 C690 1.531 . S
C694 H706 0.960 . S
C694 H707 0.962 . S
C694 H708 0.960 . S
C695 C692 1.511 . S
C695 H709 0.961 . S
C695 H710 0.961 . S
C695 H711 0.961 . S
C696 C697 1.370 . S
C696 C698 1.363 . S
C696 H712 0.931 . S
C697 C696 1.370 . S
C697 C701 1.408 . S
C698 C696 1.363 . S
C698 C699 1.370 . S
C698 C702 1.524 . S
C699 C691 1.503 . S
C699 C698 1.370 . S
C699 C700 1.403 . S
C700 C699 1.403 . S
C700 C701 1.404 . S
C700 C703 1.539 . S
C701 C697 1.408 . S
C701 C700 1.404 . S
C701 H713 0.930 . S
C702 C698 1.524 . S
C702 H714 0.956 . S
C702 H715 0.961 . S
C702 H716 0.961 . S
C703 C700 1.539 . S
C703 H717 0.958 . S
C703 H718 0.961 . S
C703 H719 0.960 . S
H704 C688 0.931 . S
H705 C693 0.929 . S
H706 C694 0.960 . S
H707 C694 0.962 . S
H708 C694 0.960 . S
H709 C695 0.961 . S
H710 C695 0.961 . S
H711 C695 0.961 . S
H712 C696 0.931 . S
H713 C701 0.930 . S
H714 C702 0.956 . S
H715 C702 0.961 . S
H716 C702 0.961 . S
H717 C703 0.958 . S
H718 C703 0.961 . S
H719 C703 0.960 . S
C720 C721 1.391 . S
C720 C722 1.394 . S
C720 H736 0.931 . S
C721 C720 1.391 . S
C721 C725 1.376 . S
C722 C720 1.394 . S
C722 C723 1.369 . S
C722 C726 1.531 . S
C723 C722 1.369 . S
C723 C724 1.410 . S
C723 C731 1.503 . S
C724 C723 1.410 . S
C724 C725 1.392 . S
C724 C727 1.511 . S
C725 C721 1.376 . S
C725 C724 1.392 . S
C725 H737 0.929 . S
C726 C722 1.531 . S
C726 H738 0.960 . S
C726 H739 0.962 . S
C726 H740 0.960 . S
C727 C724 1.511 . S
C727 H741 0.961 . S
C727 H742 0.961 . S
C727 H743 0.961 . S
C728 C729 1.370 . S
C728 C730 1.363 . S
C728 H744 0.931 . S
C729 C728 1.370 . S
C729 C733 1.408 . S
C730 C728 1.363 . S
C730 C731 1.370 . S
C730 C734 1.524 . S
C731 C723 1.503 . S
C731 C730 1.370 . S
C731 C732 1.403 . S
C732 C731 1.403 . S
C732 C733 1.404 . S
C732 C735 1.539 . S
C733 C729 1.408 . S
C733 C732 1.404 . S
C733 H745 0.930 . S
C734 C730 1.524 . S
C734 H746 0.956 . S
C734 H747 0.961 . S
C734 H748 0.961 . S
C735 C732 1.539 . S
C735 H749 0.958 . S
C735 H750 0.961 . S
C735 H751 0.960 . S
H736 C720 0.931 . S
H737 C725 0.929 . S
H738 C726 0.960 . S
H739 C726 0.962 . S
H740 C726 0.960 . S
H741 C727 0.961 . S
H742 C727 0.961 . S
H743 C727 0.961 . S
H744 C728 0.931 . S
H745 C733 0.930 . S
H746 C734 0.956 . S
H747 C734 0.961 . S
H748 C734 0.961 . S
H749 C735 0.958 . S
H750 C735 0.961 . S
H751 C735 0.960 . S
C752 C753 1.391 . S
C752 C754 1.394 . S
C752 H768 0.931 . S
C753 C752 1.391 . S
C753 C757 1.376 . S
C754 C752 1.394 . S
C754 C755 1.369 . S
C754 C758 1.531 . S
C755 C754 1.369 . S
C755 C756 1.410 . S
C755 C763 1.503 . S
C756 C755 1.410 . S
C756 C757 1.392 . S
C756 C759 1.511 . S
C757 C753 1.376 . S
C757 C756 1.392 . S
C757 H769 0.929 . S
C758 C754 1.531 . S
C758 H770 0.960 . S
C758 H771 0.962 . S
C758 H772 0.960 . S
C759 C756 1.511 . S
C759 H773 0.961 . S
C759 H774 0.961 . S
C759 H775 0.961 . S
C760 C761 1.370 . S
C760 C762 1.363 . S
C760 H776 0.931 . S
C761 C760 1.370 . S
C761 C765 1.408 . S
C762 C760 1.363 . S
C762 C763 1.370 . S
C762 C766 1.524 . S
C763 C755 1.503 . S
C763 C762 1.370 . S
C763 C764 1.403 . S
C764 C763 1.403 . S
C764 C765 1.404 . S
C764 C767 1.539 . S
C765 C761 1.408 . S
C765 C764 1.404 . S
C765 H777 0.930 . S
C766 C762 1.524 . S
C766 H778 0.956 . S
C766 H779 0.961 . S
C766 H780 0.961 . S
C767 C764 1.539 . S
C767 H781 0.958 . S
C767 H782 0.961 . S
C767 H783 0.960 . S
H768 C752 0.931 . S
H769 C757 0.929 . S
H770 C758 0.960 . S
H771 C758 0.962 . S
H772 C758 0.960 . S
H773 C759 0.961 . S
H774 C759 0.961 . S
H775 C759 0.961 . S
H776 C760 0.931 . S
H777 C765 0.930 . S
H778 C766 0.956 . S
H779 C766 0.961 . S
H780 C766 0.961 . S
H781 C767 0.958 . S
H782 C767 0.961 . S
H783 C767 0.960 . S
C784 C785 1.391 . S
C784 C786 1.394 . S
C784 H800 0.931 . S
C785 C784 1.391 . S
C785 C789 1.376 . S
C786 C784 1.394 . S
C786 C787 1.369 . S
C786 C790 1.531 . S
C787 C786 1.369 . S
C787 C788 1.410 . S
C787 C795 1.503 . S
C788 C787 1.410 . S
C788 C789 1.392 . S
C788 C791 1.511 . S
C789 C785 1.376 . S
C789 C788 1.392 . S
C789 H801 0.929 . S
C790 C786 1.531 . S
C790 H802 0.960 . S
C790 H803 0.962 . S
C790 H804 0.960 . S
C791 C788 1.511 . S
C791 H805 0.961 . S
C791 H806 0.961 . S
C791 H807 0.961 . S
C792 C793 1.370 . S
C792 C794 1.363 . S
C792 H808 0.931 . S
C793 C792 1.370 . S
C793 C797 1.408 . S
C794 C792 1.363 . S
C794 C795 1.370 . S
C794 C798 1.524 . S
C795 C787 1.503 . S
C795 C794 1.370 . S
C795 C796 1.403 . S
C796 C795 1.403 . S
C796 C797 1.404 . S
C796 C799 1.539 . S
C797 C793 1.408 . S
C797 C796 1.404 . S
C797 H809 0.930 . S
C798 C794 1.524 . S
C798 H810 0.956 . S
C798 H811 0.961 . S
C798 H812 0.961 . S
C799 C796 1.539 . S
C799 H813 0.958 . S
C799 H814 0.961 . S
C799 H815 0.960 . S
H800 C784 0.931 . S
H801 C789 0.929 . S
H802 C790 0.960 . S
H803 C790 0.962 . S
H804 C790 0.960 . S
H805 C791 0.961 . S
H806 C791 0.961 . S
H807 C791 0.961 . S
H808 C792 0.931 . S
H809 C797 0.930 . S
H810 C798 0.956 . S
H811 C798 0.961 . S
H812 C798 0.961 . S
H813 C799 0.958 . S
H814 C799 0.961 . S
H815 C799 0.960 . S
C241 C202 3.112 . S
C249 C7 2.947 . S
C273 C2 3.306 . S
C281 C56 3.044 1_455 S
C305 C51 3.104 . S
C313 C96 2.962 . S
C337 C136 2.954 . S
C345 C91 3.114 . S
C369 C167 3.014 1_655 S
C377 C131 3.292 . S
C401 C162 3.130 . S
C409 C207 2.944 . S
C433 C171 2.252 . S
C441 C16 2.246 . S
C465 C211 2.094 . S
C473 C47 2.080 . S
C497 C87 2.092 . S
C505 C11 2.143 . S
C529 C127 2.241 . S
C537 C42 2.260 . S
C561 C176 2.061 . S
C569 C82 2.094 . S
C593 C122 2.135 . S
C601 C216 2.100 . S
C625 C10 0.394 . S
C633 C19 0.455 . S
C657 C50 0.273 . S
C665 C59 0.308 . S
C689 C90 0.356 . S
C697 C99 0.523 . S
C721 C130 0.510 . S
C729 C139 0.405 . S
C753 C179 0.352 . S
C761 C170 0.284 . S
C785 C210 0.360 . S
C793 C219 0.521 . S
