# Generated by pormake.
# Topology acs-f, (3)-cn, num edge types: 1
# Building blocks:
#     Node 0, Type 0, BuildingBlock: OLANEW_clean_sbu_2, # of connection points: 3
#     Node 1, Type 0, BuildingBlock: OLANEW_clean_sbu_2, # of connection points: 3
#     Node 2, Type 0, BuildingBlock: OLANEW_clean_sbu_2, # of connection points: 3
#     Node 3, Type 0, BuildingBlock: OLANEW_clean_sbu_2, # of connection points: 3
#     Node 4, Type 0, BuildingBlock: OLANEW_clean_sbu_2, # of connection points: 3
#     Node 5, Type 0, BuildingBlock: OLANEW_clean_sbu_2, # of connection points: 3
#     Node 6, Type 0, BuildingBlock: OLANEW_clean_sbu_2, # of connection points: 3
#     Node 7, Type 0, BuildingBlock: OLANEW_clean_sbu_2, # of connection points: 3
#     Node 8, Type 0, BuildingBlock: OLANEW_clean_sbu_2, # of connection points: 3
#     Node 9, Type 0, BuildingBlock: OLANEW_clean_sbu_2, # of connection points: 3
#     Node 10, Type 0, BuildingBlock: OLANEW_clean_sbu_2, # of connection points: 3
#     Node 11, Type 0, BuildingBlock: OLANEW_clean_sbu_2, # of connection points: 3
#     Edge 12, Type (0, 0), BuildingBlock: XIVTED_clean_linker_0, # of connection points: 2
#     Edge 13, Type (0, 0), BuildingBlock: XIVTED_clean_linker_0, # of connection points: 2
#     Edge 14, Type (0, 0), BuildingBlock: XIVTED_clean_linker_0, # of connection points: 2
#     Edge 15, Type (0, 0), BuildingBlock: XIVTED_clean_linker_0, # of connection points: 2
#     Edge 16, Type (0, 0), BuildingBlock: XIVTED_clean_linker_0, # of connection points: 2
#     Edge 17, Type (0, 0), BuildingBlock: XIVTED_clean_linker_0, # of connection points: 2
#     Edge 18, Type (0, 0), BuildingBlock: XIVTED_clean_linker_0, # of connection points: 2
#     Edge 19, Type (0, 0), BuildingBlock: XIVTED_clean_linker_0, # of connection points: 2
#     Edge 20, Type (0, 0), BuildingBlock: XIVTED_clean_linker_0, # of connection points: 2
#     Edge 21, Type (0, 0), BuildingBlock: XIVTED_clean_linker_0, # of connection points: 2
#     Edge 22, Type (0, 0), BuildingBlock: XIVTED_clean_linker_0, # of connection points: 2
#     Edge 23, Type (0, 0), BuildingBlock: XIVTED_clean_linker_0, # of connection points: 2
#     Edge 24, Type (0, 0), BuildingBlock: XIVTED_clean_linker_0, # of connection points: 2
#     Edge 25, Type (0, 0), BuildingBlock: XIVTED_clean_linker_0, # of connection points: 2
#     Edge 26, Type (0, 0), BuildingBlock: XIVTED_clean_linker_0, # of connection points: 2
#     Edge 27, Type (0, 0), BuildingBlock: XIVTED_clean_linker_0, # of connection points: 2
#     Edge 28, Type (0, 0), BuildingBlock: XIVTED_clean_linker_0, # of connection points: 2
#     Edge 29, Type (0, 0), BuildingBlock: XIVTED_clean_linker_0, # of connection points: 2
# Relax obj value: 0.062
# Max RMSD: 0.033
# Mean RMSD: 0.033
data_MOF--net-acs-f--node1-OLANEW_clean_sbu_2--edge1-XIVTED_clean_linker_0
_symmetry_space_group_name_H-M    P1
_symmetry_Int_Tables_number       1
_symmetry_cell_setting            triclinic
loop_
_symmetry_equiv_pos_as_xyz
'x, y, z'
_cell_length_a     37.213766
_cell_length_b     37.191868
_cell_length_c     50.930033
_cell_angle_alpha  89.984586
_cell_angle_beta   90.026195
_cell_angle_gamma 120.0406
loop_
_atom_site_label
_atom_site_type_symbol
_atom_site_fract_x
_atom_site_fract_y
_atom_site_fract_z
_atom_type_partial_charge
O0 O 0.93366 0.44261 0.13951 0.0
Cd1 Cd 0.93201 0.41918 0.09439 0.0
O2 O 0.99895 0.45888 0.14153 0.0
Cd3 Cd 0.05568 0.47526 0.16346 0.0
O4 O 0.10636 0.48014 0.18769 0.0
C5 C 0.1036 0.44663 0.19601 0.0
O6 O 0.07077 0.41109 0.18968 0.0
C7 C 0.96711 0.45637 0.15255 0.0
C8 C 0.95386 0.47976 0.05567 0.0
O9 O 0.91588 0.45653 0.06253 0.0
O10 O 0.98156 0.47496 0.06753 0.0
O11 O 0.56103 0.49082 0.14478 0.0
Cd12 Cd 0.58464 0.5117 0.09959 0.0
O13 O 0.54509 0.5401 0.14621 0.0
Cd14 Cd 0.52887 0.58124 0.16729 0.0
O15 O 0.52362 0.62859 0.18954 0.0
C16 C 0.55324 0.6659 0.18802 0.0
O17 O 0.58526 0.67432 0.17304 0.0
C18 C 0.5474 0.51086 0.15754 0.0
C19 C 0.52304 0.4761 0.06118 0.0
O20 O 0.54443 0.45918 0.06776 0.0
O21 O 0.53017 0.50934 0.07318 0.0
O22 O 0.50124 0.06815 0.14059 0.0
Cd23 Cd 0.48178 0.07118 0.09509 0.0
O24 O 0.45313 0.00235 0.14127 0.0
Cd25 Cd 0.41307 0.94465 0.16236 0.0
O26 O 0.36945 0.89391 0.18743 0.0
C27 C 0.36214 0.9025 0.21026 0.0
O28 O 0.38165 0.94141 0.21807 0.0
C29 C 0.48147 0.03408 0.15302 0.0
C30 C 0.52092 0.04823 0.05735 0.0
O31 O 0.5363 0.08628 0.06428 0.0
O32 O 0.48754 0.02096 0.06868 0.0
O33 O 0.54697 0.05424 0.35908 0.0
Cd34 Cd 0.56846 0.05284 0.40432 0.0
O35 O 0.53943 0.99235 0.35438 0.0
Cd36 Cd 0.52448 0.93427 0.33443 0.0
O37 O 0.51997 0.88293 0.31106 0.0
C38 C 0.54937 0.89047 0.29527 0.0
O39 O 0.58094 0.92854 0.29367 0.0
C40 C 0.53868 0.02339 0.34441 0.0
C41 C 0.50868 0.03538 0.44289 0.0
O42 O 0.53418 0.07291 0.43604 0.0
O43 O 0.5108 0.0061 0.43103 0.0
O44 O 0.94256 0.50052 0.35834 0.0
Cd45 Cd 0.9439 0.52199 0.40393 0.0
O46 O 0.00541 0.55359 0.35428 0.0
Cd47 Cd 0.06443 0.59556 0.3349 0.0
O48 O 0.118 0.6413 0.31254 0.0
C49 C 0.13604 0.67922 0.31943 0.0
O50 O 0.12238 0.68975 0.34016 0.0
C51 C 0.97389 0.52272 0.34394 0.0
C52 C 0.96459 0.48065 0.44147 0.0
O53 O 0.92664 0.46737 0.43512 0.0
O54 O 0.99278 0.51287 0.42959 0.0
O55 O 0.49682 0.44621 0.3631 0.0
Cd56 Cd 0.47474 0.42676 0.40868 0.0
O57 O 0.44456 0.45711 0.35873 0.0
Cd58 Cd 0.40313 0.4743 0.33881 0.0
O59 O 0.35628 0.47849 0.31531 0.0
C60 C 0.32632 0.44482 0.30649 0.0
O61 O 0.32501 0.40965 0.31197 0.0
C62 C 0.475 0.45557 0.34852 0.0
C63 C 0.51836 0.48759 0.44653 0.0
O64 O 0.52968 0.46143 0.44005 0.0
O65 O 0.4871 0.48567 0.43459 0.0
O66 O 0.08606 0.65597 0.81906 0.0
Cd67 Cd 0.06081 0.69424 0.84486 0.0
O68 O 0.09491 0.68934 0.78177 0.0
Cd69 Cd 0.06475 0.72339 0.79519 0.0
O70 O 0.01188 0.73256 0.78868 0.0
C71 C 0.97757 0.69936 0.7848 0.0
O72 O 0.97654 0.66359 0.78648 0.0
C73 C 0.09772 0.66204 0.79521 0.0
C74 C 0.03635 0.65692 0.89421 0.0
O75 O 0.01016 0.64657 0.87536 0.0
O76 O 0.07386 0.68553 0.88988 0.0
O77 O 0.34061 0.43181 0.82548 0.0
Cd78 Cd 0.30191 0.36998 0.85277 0.0
O79 O 0.30884 0.40405 0.78819 0.0
Cd80 Cd 0.27282 0.34083 0.8033 0.0
O81 O 0.25322 0.27506 0.79919 0.0
C82 C 0.24723 0.26112 0.77585 0.0
O83 O 0.25116 0.2861 0.75643 0.0
C84 C 0.33548 0.43534 0.80112 0.0
C85 C 0.34218 0.38317 0.90111 0.0
O86 O 0.31481 0.39394 0.89736 0.0
O87 O 0.34993 0.36539 0.88216 0.0
O88 O 0.57677 0.92384 0.82189 0.0
Cd89 Cd 0.63856 0.94603 0.84901 0.0
O90 O 0.60336 0.91945 0.78423 0.0
Cd91 Cd 0.66677 0.94558 0.79874 0.0
O92 O 0.73278 0.99033 0.79386 0.0
C93 C 0.74636 0.99676 0.77042 0.0
O94 O 0.72084 0.97502 0.75137 0.0
C95 C 0.57259 0.91528 0.79752 0.0
C96 C 0.62432 0.97058 0.89792 0.0
O97 O 0.64224 0.99706 0.87944 0.0
O98 O 0.61406 0.93271 0.89348 0.0
O99 O 0.34124 0.92394 0.68251 0.0
Cd100 Cd 0.30111 0.94602 0.65585 0.0
O101 O 0.30992 0.91863 0.72017 0.0
Cd102 Cd 0.2728 0.94499 0.70578 0.0
O103 O 0.25278 0.99075 0.71026 0.0
C104 C 0.24782 0.99916 0.73371 0.0
O105 O 0.25297 0.97875 0.75304 0.0
C106 C 0.33673 0.91491 0.70682 0.0
C107 C 0.33639 0.96667 0.60579 0.0
O108 O 0.34728 0.99434 0.62376 0.0
O109 O 0.30814 0.92947 0.61132 0.0
O110 O 0.09179 0.42659 0.6769 0.0
Cd111 Cd 0.06813 0.36441 0.6499 0.0
O112 O 0.09272 0.39856 0.7148 0.0
Cd113 Cd 0.06516 0.33504 0.70019 0.0
O114 O 0.01867 0.26954 0.70523 0.0
C115 C 0.01154 0.25625 0.72874 0.0
O116 O 0.03359 0.28164 0.74775 0.0
C117 C 0.09905 0.43008 0.70144 0.0
C118 C 0.04439 0.37901 0.60079 0.0
O119 O 0.01785 0.36208 0.61935 0.0
O120 O 0.08193 0.38818 0.60528 0.0
O121 O 0.5751 0.66054 0.68452 0.0
Cd122 Cd 0.63819 0.69843 0.65823 0.0
O123 O 0.59973 0.69609 0.72109 0.0
Cd124 Cd 0.66378 0.72958 0.70727 0.0
O125 O 0.72526 0.73752 0.71413 0.0
C126 C 0.72485 0.70445 0.72097 0.0
O127 O 0.68904 0.66962 0.72192 0.0
C128 C 0.56965 0.6678 0.70814 0.0
C129 C 0.62348 0.66226 0.60843 0.0
O130 O 0.63909 0.65079 0.62681 0.0
O131 O 0.61569 0.69145 0.61343 0.0
H132 H 0.25685 0.37801 0.28636 0.0
H133 H 0.17471 0.51453 0.21414 0.0
H134 H 0.32061 0.51196 0.2897 0.0
H135 H 0.10816 0.38044 0.21536 0.0
H136 H 0.22911 0.51457 0.24116 0.0
H137 H 0.20277 0.37864 0.25965 0.0
C138 C 0.25951 0.4076 0.28149 0.0
C139 C 0.29336 0.445 0.29031 0.0
C140 C 0.20258 0.48515 0.23552 0.0
C141 C 0.23139 0.44594 0.25963 0.0
C142 C 0.17151 0.4851 0.22008 0.0
C143 C 0.1368 0.44741 0.21245 0.0
C144 C 0.19898 0.44726 0.24335 0.0
C145 C 0.13433 0.41024 0.22075 0.0
C146 C 0.22855 0.40792 0.26622 0.0
C147 C 0.29506 0.48237 0.28335 0.0
N148 N 0.16499 0.41112 0.23571 0.0
N149 N 0.26454 0.48189 0.2684 0.0
H150 H 0.61129 0.74862 0.18874 0.0
H151 H 0.48935 0.80803 0.29383 0.0
H152 H 0.4929 0.65939 0.2219 0.0
H153 H 0.60746 0.89646 0.25995 0.0
H154 H 0.48941 0.75322 0.26733 0.0
H155 H 0.60974 0.80324 0.21435 0.0
C156 C 0.58491 0.74048 0.20138 0.0
C157 C 0.55219 0.69931 0.20318 0.0
C158 C 0.51528 0.78463 0.26568 0.0
C159 C 0.55024 0.76184 0.23265 0.0
C160 C 0.51527 0.81596 0.28081 0.0
C161 C 0.54849 0.85692 0.27916 0.0
C162 C 0.54875 0.79432 0.24877 0.0
C163 C 0.58121 0.86534 0.26192 0.0
C164 C 0.58405 0.77174 0.21602 0.0
C165 C 0.51882 0.69069 0.2199 0.0
N166 N 0.58052 0.83433 0.24744 0.0
N167 N 0.51873 0.72169 0.23402 0.0
H168 H 0.16986 0.66884 0.27422 0.0
H169 H 0.33579 0.91102 0.25883 0.0
H170 H 0.18205 0.76272 0.32915 0.0
H171 H 0.31711 0.81875 0.2007 0.0
H172 H 0.28231 0.85647 0.28609 0.0
H173 H 0.22644 0.7227 0.24827 0.0
C174 C 0.1845 0.70075 0.28088 0.0
C175 C 0.17108 0.71127 0.30389 0.0
C176 C 0.28996 0.84812 0.2674 0.0
C177 C 0.23591 0.77312 0.27422 0.0
C178 C 0.32057 0.87927 0.25182 0.0
C179 C 0.33088 0.86949 0.22738 0.0
C180 C 0.26952 0.80681 0.25853 0.0
C181 C 0.31009 0.82776 0.21936 0.0
C182 C 0.21679 0.73151 0.26602 0.0
C183 C 0.19127 0.75315 0.31154 0.0
N184 N 0.28037 0.79799 0.23487 0.0
N185 N 0.2226 0.78252 0.29673 0.0
H186 H 0.80342 0.77185 0.72653 0.0
H187 H 0.89962 0.63375 0.77696 0.0
H188 H 0.73363 0.63846 0.73496 0.0
H189 H 0.97003 0.76768 0.7736 0.0
H190 H 0.8388 0.6355 0.7611 0.0
H191 H 0.86534 0.77155 0.74267 0.0
C192 C 0.80115 0.74251 0.73164 0.0
C193 C 0.76325 0.70512 0.72941 0.0
C194 C 0.86748 0.66458 0.76388 0.0
C195 C 0.83382 0.70459 0.74798 0.0
C196 C 0.90228 0.6636 0.77299 0.0
C197 C 0.94005 0.70063 0.7766 0.0
C198 C 0.87031 0.70287 0.7582 0.0
C199 C 0.94153 0.73837 0.77113 0.0
C200 C 0.83646 0.74238 0.74094 0.0
C201 C 0.76211 0.66805 0.73639 0.0
N202 N 0.90717 0.73852 0.76211 0.0
N203 N 0.7968 0.66876 0.74535 0.0
H204 H 0.24093 0.20214 0.81092 0.0
H205 H 0.23911 0.05054 0.69878 0.0
H206 H 0.23708 0.22393 0.72796 0.0
H207 H 0.23965 0.02708 0.78177 0.0
H208 H 0.23276 0.11132 0.7091 0.0
H209 H 0.23488 0.1351 0.80071 0.0
C210 C 0.23847 0.19271 0.79057 0.0
C211 C 0.23986 0.21888 0.77026 0.0
C212 C 0.23396 0.09269 0.72506 0.0
C213 C 0.23315 0.14224 0.75842 0.0
C214 C 0.23756 0.05795 0.71917 0.0
C215 C 0.24026 0.03384 0.73944 0.0
C216 C 0.23322 0.10353 0.75141 0.0
C217 C 0.23793 0.04488 0.76549 0.0
C218 C 0.23505 0.15442 0.78475 0.0
C219 C 0.2364 0.20492 0.74427 0.0
N220 N 0.23486 0.07905 0.77072 0.0
N221 N 0.23351 0.16773 0.73909 0.0
H222 H 0.98613 0.22049 0.77714 0.0
H223 H 0.78295 0.02062 0.72213 0.0
H224 H 0.95686 0.19669 0.69468 0.0
H225 H 0.80644 0.05057 0.80453 0.0
H226 H 0.85055 0.08051 0.71184 0.0
H227 H 0.92465 0.15408 0.7875 0.0
C228 C 0.96698 0.20117 0.76117 0.0
C229 C 0.97651 0.21439 0.73499 0.0
C230 C 0.84106 0.07385 0.73218 0.0
C231 C 0.90588 0.13825 0.74678 0.0
C232 C 0.80245 0.03958 0.7381 0.0
C233 C 0.7888 0.03072 0.76424 0.0
C234 C 0.86632 0.09954 0.75253 0.0
C235 C 0.81555 0.05633 0.78409 0.0
C236 C 0.9318 0.16324 0.76713 0.0
C237 C 0.9506 0.18789 0.71515 0.0
N238 N 0.85291 0.08973 0.77781 0.0
N239 N 0.91633 0.15121 0.72146 0.0
H240 H 0.90187 0.4902 0.02243 0.0
H241 H 0.0864 0.66504 0.93589 0.0
H242 H 0.03172 0.53775 0.03906 0.0
H243 H 0.95838 0.59913 0.91086 0.0
H244 H 0.06613 0.6254 0.97684 0.0
H245 H 0.9214 0.5367 0.98455 0.0
C246 C 0.9345 0.51065 0.01825 0.0
C247 C 0.96521 0.50989 0.03387 0.0
C248 C 0.04245 0.61975 0.96243 0.0
C249 C 0.98775 0.56318 0.99052 0.0
C250 C 0.05397 0.64246 0.93908 0.0
C251 C 0.02407 0.63523 0.91983 0.0
C252 C 0.00068 0.58973 0.96668 0.0
C253 C 0.98251 0.60558 0.92507 0.0
C254 C 0.94561 0.5371 0.99657 0.0
C255 C 0.00699 0.53711 0.0275 0.0
N256 N 0.97207 0.58385 0.94796 0.0
N257 N 0.01702 0.56255 0.00629 0.0
H258 H 0.39725 0.35882 0.91674 0.0
H259 H 0.468 0.50042 0.0455 0.0
H260 H 0.34012 0.42905 0.94253 0.0
H261 H 0.5084 0.41281 0.02745 0.0
H262 H 0.42087 0.47464 0.00793 0.0
H263 H 0.43821 0.37813 0.95715 0.0
C264 C 0.39314 0.37811 0.93096 0.0
C265 C 0.3653 0.39246 0.92619 0.0
C266 C 0.43982 0.46084 0.01228 0.0
C267 C 0.41234 0.41493 0.97244 0.0
C268 C 0.46679 0.47559 0.03373 0.0
C269 C 0.49233 0.45887 0.03959 0.0
C270 C 0.43861 0.42939 0.99638 0.0
C271 C 0.48933 0.42665 0.02367 0.0
C272 C 0.41651 0.38909 0.95406 0.0
C273 C 0.36122 0.4173 0.94536 0.0
N274 N 0.46322 0.41319 0.00269 0.0
N275 N 0.38469 0.42798 0.96754 0.0
H276 H 0.49991 0.96994 0.04102 0.0
H277 H 0.6469 0.04904 0.91486 0.0
H278 H 0.58523 0.09943 0.025 0.0
H279 H 0.57793 0.92037 0.93845 0.0
H280 H 0.62536 0.06825 0.95533 0.0
H281 H 0.52866 0.95115 0.00383 0.0
C282 C 0.52487 0.99443 0.02978 0.0
C283 C 0.54004 0.03634 0.03607 0.0
C284 C 0.61519 0.03584 0.95175 0.0
C285 C 0.57293 0.01504 0.99331 0.0
C286 C 0.62745 0.02484 0.92863 0.0
C287 C 0.61405 0.983 0.92319 0.0
C288 C 0.58901 0.00477 0.96949 0.0
C289 C 0.58896 0.953 0.9418 0.0
C290 C 0.54132 0.98367 0.00856 0.0
C291 C 0.57252 0.06673 0.02085 0.0
N292 N 0.577 0.96444 0.964 0.0
N293 N 0.58765 0.05549 1.00006 0.0
H294 H 0.32576 0.91364 0.56538 0.0
H295 H 0.50217 0.09058 0.47536 0.0
H296 H 0.39454 0.04315 0.58714 0.0
H297 H 0.44796 0.95928 0.46038 0.0
H298 H 0.45668 0.07449 0.51346 0.0
H299 H 0.36401 0.93065 0.52397 0.0
C300 C 0.34867 0.94571 0.56138 0.0
C301 C 0.35712 0.97699 0.57985 0.0
C302 C 0.45459 0.04921 0.50175 0.0
C303 C 0.40109 0.99665 0.53246 0.0
C304 C 0.48047 0.05836 0.47994 0.0
C305 C 0.47907 0.02621 0.46473 0.0
C306 C 0.42695 0.0076 0.50838 0.0
C307 C 0.45028 0.98506 0.47162 0.0
C308 C 0.37058 0.95538 0.53775 0.0
C309 C 0.38715 0.018 0.57355 0.0
N310 N 0.42549 0.97694 0.49298 0.0
N311 N 0.40813 0.02662 0.55044 0.0
H312 H 0.09496 0.42227 0.55959 0.0
H313 H 0.91187 0.4178 0.47424 0.0
H314 H 0.96669 0.3596 0.58408 0.0
H315 H 0.04203 0.49818 0.45743 0.0
H316 H 0.93069 0.38901 0.51147 0.0
H317 H 0.07526 0.44317 0.51904 0.0
C318 C 0.06259 0.41262 0.55637 0.0
C319 C 0.03246 0.38934 0.57535 0.0
C320 C 0.95512 0.4128 0.49955 0.0
C321 C 0.00972 0.41323 0.52894 0.0
C322 C 0.94441 0.42917 0.47823 0.0
C323 C 0.97543 0.46065 0.46277 0.0
C324 C 0.99716 0.42785 0.50541 0.0
C325 C 0.01707 0.47413 0.46889 0.0
C326 C 0.0514 0.42467 0.53323 0.0
C327 C 0.991 0.37772 0.57006 0.0
N328 N 0.02671 0.45776 0.48977 0.0
N329 N 0.98088 0.3899 0.5474 0.0
H330 H 0.57949 0.49359 0.47934 0.0
H331 H 0.58286 0.6738 0.5673 0.0
H332 H 0.50468 0.54982 0.46309 0.0
H333 H 0.63997 0.60242 0.59072 0.0
H334 H 0.56149 0.63504 0.52605 0.0
H335 H 0.60946 0.53969 0.51716 0.0
C336 C 0.56962 0.51587 0.48358 0.0
C337 C 0.53931 0.51765 0.46811 0.0
C338 C 0.57888 0.62801 0.54016 0.0
C339 C 0.57345 0.57046 0.51143 0.0
C340 C 0.5912 0.6502 0.5637 0.0
C341 C 0.61303 0.64117 0.58259 0.0
C342 C 0.58858 0.59664 0.53539 0.0
C343 C 0.623 0.61028 0.5768 0.0
C344 C 0.58666 0.5421 0.50523 0.0
C345 C 0.52777 0.54719 0.47455 0.0
N346 N 0.61058 0.58903 0.55376 0.0
N347 N 0.54473 0.5723 0.49576 0.0
H348 H 0.92817 0.44706 0.32038 0.0
H349 H 0.02937 0.5218 0.17897 0.0
H350 H 0.01476 0.57554 0.30279 0.0
H351 H 0.90715 0.41559 0.18948 0.0
H352 H 0.0312 0.53789 0.22581 0.0
H353 H 0.9258 0.43074 0.27355 0.0
C354 C 0.94712 0.47176 0.30677 0.0
C355 C 0.973 0.51251 0.31574 0.0
C356 C 0.00401 0.51107 0.21784 0.0
C357 C 0.97041 0.49402 0.26227 0.0
C358 C 0.00309 0.50172 0.19122 0.0
C359 C 0.96825 0.4671 0.18052 0.0
C360 C 0.97007 0.48525 0.23389 0.0
C361 C 0.93458 0.44258 0.19706 0.0
C362 C 0.94566 0.46242 0.28008 0.0
C363 C 0.99635 0.54336 0.29714 0.0
N364 N 0.93645 0.45189 0.22302 0.0
N365 N 0.99476 0.53344 0.27132 0.0
H366 H 0.42194 0.44276 0.30735 0.0
H367 H 0.58744 0.49127 0.19474 0.0
H368 H 0.5502 0.48373 0.32476 0.0
H369 H 0.48236 0.50884 0.18374 0.0
H370 H 0.57005 0.47786 0.24155 0.0
H371 H 0.43965 0.45744 0.261 0.0
C372 C 0.45405 0.45612 0.30163 0.0
C373 C 0.48496 0.46391 0.32022 0.0
C374 C 0.55094 0.48482 0.22888 0.0
C375 C 0.50492 0.47806 0.26683 0.0
C376 C 0.56068 0.49222 0.20222 0.0
C377 C 0.53659 0.50171 0.18555 0.0
C378 C 0.51629 0.48596 0.23872 0.0
C379 C 0.5022 0.50249 0.19611 0.0
C380 C 0.46399 0.46374 0.27504 0.0
C381 C 0.52549 0.47791 0.31116 0.0
N382 N 0.4929 0.49449 0.22203 0.0
N383 N 0.53432 0.48449 0.28509 0.0
H384 H 0.48534 0.97171 0.17876 0.0
H385 H 0.50602 0.0672 0.32158 0.0
H386 H 0.49742 0.09201 0.19087 0.0
H387 H 0.5524 0.9848 0.30276 0.0
H388 H 0.49183 0.07008 0.27482 0.0
H389 H 0.49814 0.96841 0.2257 0.0
C390 C 0.49033 0.99723 0.19139 0.0
C391 C 0.48993 0.03199 0.1811 0.0
C392 C 0.50465 0.05097 0.28108 0.0
C393 C 0.50468 0.02853 0.23456 0.0
C394 C 0.51267 0.04923 0.30771 0.0
C395 C 0.52895 0.02438 0.3163 0.0
C396 C 0.51277 0.02754 0.26293 0.0
C397 C 0.53757 0.00229 0.29738 0.0
C398 C 0.49795 0.9955 0.21806 0.0
C399 C 0.49753 0.0647 0.19812 0.0
N400 N 0.52911 0.00414 0.27163 0.0
N401 N 0.50426 0.06205 0.22411 0.0
H402 H 0.10778 0.60067 0.81773 0.0
H403 H 0.11436 0.50383 0.67952 0.0
H404 H 0.11613 0.66001 0.7433 0.0
H405 H 0.11078 0.44696 0.75414 0.0
H406 H 0.12458 0.56575 0.70266 0.0
H407 H 0.1185 0.54897 0.79509 0.0
C408 C 0.11241 0.60319 0.79667 0.0
C409 C 0.11046 0.63444 0.78237 0.0
C410 C 0.12206 0.53992 0.71397 0.0
C411 C 0.12236 0.57501 0.75626 0.0
C412 C 0.11624 0.50452 0.70075 0.0
C413 C 0.11111 0.46985 0.7149 0.0
C414 C 0.12248 0.54062 0.74155 0.0
C415 C 0.11415 0.47274 0.7424 0.0
C416 C 0.1185 0.57359 0.78373 0.0
C417 C 0.11701 0.63627 0.75512 0.0
N418 N 0.11913 0.50727 0.75482 0.0
N419 N 0.12213 0.60665 0.74292 0.0
H420 H 0.54949 0.6687 0.75984 0.0
H421 H 0.33744 0.45218 0.74857 0.0
H422 H 0.49851 0.60421 0.68676 0.0
H423 H 0.39685 0.50842 0.82209 0.0
H424 H 0.38929 0.51409 0.72549 0.0
H425 H 0.48701 0.61693 0.78249 0.0
C426 C 0.52494 0.64402 0.74846 0.0
C427 C 0.52957 0.64051 0.72138 0.0
C428 C 0.39072 0.51306 0.74669 0.0
C429 C 0.45802 0.58096 0.74728 0.0
C430 C 0.36105 0.47773 0.75992 0.0
C431 C 0.36309 0.4748 0.78731 0.0
C432 C 0.42273 0.54575 0.76092 0.0
C433 C 0.39428 0.50908 0.80094 0.0
C434 C 0.4893 0.61438 0.76145 0.0
C435 C 0.49655 0.60794 0.70769 0.0
N436 N 0.4231 0.54294 0.78758 0.0
N437 N 0.46238 0.5792 0.72083 0.0
H438 H 0.55415 0.90008 0.74513 0.0
H439 H 0.33958 0.89864 0.75906 0.0
H440 H 0.5007 0.9051 0.81933 0.0
H441 H 0.3991 0.90594 0.6849 0.0
H442 H 0.39243 0.88921 0.78127 0.0
H443 H 0.49186 0.89045 0.72282 0.0
C444 C 0.52914 0.89866 0.75679 0.0
C445 C 0.53296 0.90396 0.78415 0.0
C446 C 0.39369 0.89246 0.76011 0.0
C447 C 0.46157 0.89316 0.75865 0.0
C448 C 0.36345 0.89777 0.74738 0.0
C449 C 0.36517 0.90365 0.72007 0.0
C450 C 0.42597 0.89308 0.74547 0.0
C451 C 0.39673 0.90194 0.706 0.0
C452 C 0.49359 0.89324 0.74401 0.0
C453 C 0.49936 0.90157 0.7982 0.0
N454 N 0.42609 0.89722 0.71889 0.0
N455 N 0.46527 0.89675 0.78526 0.0
loop_
_geom_bond_atom_site_label_1
_geom_bond_atom_site_label_2
_geom_bond_distance
_geom_bond_site_symmetry_2
_ccdc_geom_bond_type
O0 Cd1 2.300 1_655 S
O0 C7 1.275 . S
Cd1 O0 2.300 1_455 S
Cd1 O9 2.381 1_455 S
Cd1 O10 2.378 . S
O2 Cd3 2.385 . S
O2 C7 1.255 1_455 S
Cd3 O2 2.385 . S
Cd3 O4 2.317 . S
O4 Cd3 2.317 . S
O4 C5 1.232 . S
C5 O4 1.232 . S
C5 O6 1.218 . S
O6 C5 1.218 . S
C7 O0 1.275 . S
C7 O2 1.255 1_655 S
C8 O9 1.258 . S
C8 O10 1.256 1_655 S
O9 Cd1 2.381 1_655 S
O9 C8 1.258 . S
O10 Cd1 2.378 . S
O10 C8 1.256 1_455 S
O11 Cd12 2.300 . S
O11 C18 1.275 . S
Cd12 O11 2.300 . S
Cd12 O20 2.381 . S
Cd12 O21 2.378 . S
O13 Cd14 2.385 . S
O13 C18 1.255 . S
Cd14 O13 2.385 . S
Cd14 O15 2.317 . S
O15 Cd14 2.317 . S
O15 C16 1.232 . S
C16 O15 1.232 . S
C16 O17 1.218 . S
O17 C16 1.218 . S
C18 O11 1.275 . S
C18 O13 1.255 . S
C19 O20 1.258 . S
C19 O21 1.256 . S
O20 Cd12 2.381 . S
O20 C19 1.258 . S
O21 Cd12 2.378 . S
O21 C19 1.256 . S
O22 Cd23 2.300 1_545 S
O22 C29 1.275 . S
Cd23 O22 2.300 1_565 S
Cd23 O31 2.381 1_565 S
Cd23 O32 2.378 . S
O24 Cd25 2.385 . S
O24 C29 1.255 1_565 S
Cd25 O24 2.385 . S
Cd25 O26 2.317 . S
O26 Cd25 2.317 . S
O26 C27 1.232 . S
C27 O26 1.232 . S
C27 O28 1.218 . S
O28 C27 1.218 . S
C29 O22 1.275 . S
C29 O24 1.255 1_545 S
C30 O31 1.258 . S
C30 O32 1.256 1_545 S
O31 Cd23 2.381 1_545 S
O31 C30 1.258 . S
O32 Cd23 2.378 . S
O32 C30 1.256 1_565 S
O33 Cd34 2.300 1_545 S
O33 C40 1.275 . S
Cd34 O33 2.300 1_565 S
Cd34 O42 2.381 1_565 S
Cd34 O43 2.378 . S
O35 Cd36 2.385 . S
O35 C40 1.255 1_565 S
Cd36 O35 2.385 . S
Cd36 O37 2.317 . S
O37 Cd36 2.317 . S
O37 C38 1.232 . S
C38 O37 1.232 . S
C38 O39 1.218 . S
O39 C38 1.218 . S
C40 O33 1.275 . S
C40 O35 1.255 1_545 S
C41 O42 1.258 . S
C41 O43 1.256 1_545 S
O42 Cd34 2.381 1_545 S
O42 C41 1.258 . S
O43 Cd34 2.378 . S
O43 C41 1.256 1_565 S
O44 Cd45 2.300 1_655 S
O44 C51 1.275 . S
Cd45 O44 2.300 1_455 S
Cd45 O53 2.381 1_455 S
Cd45 O54 2.378 . S
O46 Cd47 2.385 . S
O46 C51 1.255 1_455 S
Cd47 O46 2.385 . S
Cd47 O48 2.317 . S
O48 Cd47 2.317 . S
O48 C49 1.232 . S
C49 O48 1.232 . S
C49 O50 1.218 . S
O50 C49 1.218 . S
C51 O44 1.275 . S
C51 O46 1.255 1_655 S
C52 O53 1.258 . S
C52 O54 1.256 1_655 S
O53 Cd45 2.381 1_655 S
O53 C52 1.258 . S
O54 Cd45 2.378 . S
O54 C52 1.256 1_455 S
O55 Cd56 2.300 . S
O55 C62 1.275 . S
Cd56 O55 2.300 . S
Cd56 O64 2.381 . S
Cd56 O65 2.378 . S
O57 Cd58 2.385 . S
O57 C62 1.255 . S
Cd58 O57 2.385 . S
Cd58 O59 2.317 . S
O59 Cd58 2.317 . S
O59 C60 1.232 . S
C60 O59 1.232 . S
C60 O61 1.218 . S
O61 C60 1.218 . S
C62 O55 1.275 . S
C62 O57 1.255 . S
C63 O64 1.258 . S
C63 O65 1.256 . S
O64 Cd56 2.381 . S
O64 C63 1.258 . S
O65 Cd56 2.378 . S
O65 C63 1.256 . S
O66 Cd67 2.300 . S
O66 C73 1.275 . S
Cd67 O66 2.300 . S
Cd67 O75 2.381 . S
Cd67 O76 2.378 . S
O68 Cd69 2.385 . S
O68 C73 1.255 . S
Cd69 O68 2.385 . S
Cd69 O70 2.317 1_455 S
O70 Cd69 2.317 1_655 S
O70 C71 1.232 . S
C71 O70 1.232 . S
C71 O72 1.218 . S
O72 C71 1.218 . S
C73 O66 1.275 . S
C73 O68 1.255 . S
C74 O75 1.258 . S
C74 O76 1.256 . S
O75 Cd67 2.381 . S
O75 C74 1.258 . S
O76 Cd67 2.378 . S
O76 C74 1.256 . S
O77 Cd78 2.300 . S
O77 C84 1.275 . S
Cd78 O77 2.300 . S
Cd78 O86 2.381 . S
Cd78 O87 2.378 . S
O79 Cd80 2.385 . S
O79 C84 1.255 . S
Cd80 O79 2.385 . S
Cd80 O81 2.317 . S
O81 Cd80 2.317 . S
O81 C82 1.232 . S
C82 O81 1.232 . S
C82 O83 1.218 . S
O83 C82 1.218 . S
C84 O77 1.275 . S
C84 O79 1.255 . S
C85 O86 1.258 . S
C85 O87 1.256 . S
O86 Cd78 2.381 . S
O86 C85 1.258 . S
O87 Cd78 2.378 . S
O87 C85 1.256 . S
O88 Cd89 2.300 . S
O88 C95 1.275 . S
Cd89 O88 2.300 . S
Cd89 O97 2.381 . S
Cd89 O98 2.378 . S
O90 Cd91 2.385 . S
O90 C95 1.255 . S
Cd91 O90 2.385 . S
Cd91 O92 2.317 1_565 S
O92 Cd91 2.317 1_545 S
O92 C93 1.232 . S
C93 O92 1.232 . S
C93 O94 1.218 . S
O94 C93 1.218 . S
C95 O88 1.275 . S
C95 O90 1.255 . S
C96 O97 1.258 . S
C96 O98 1.256 . S
O97 Cd89 2.381 . S
O97 C96 1.258 . S
O98 Cd89 2.378 . S
O98 C96 1.256 . S
O99 Cd100 2.300 . S
O99 C106 1.275 . S
Cd100 O99 2.300 . S
Cd100 O108 2.381 . S
Cd100 O109 2.378 . S
O101 Cd102 2.385 . S
O101 C106 1.255 . S
Cd102 O101 2.385 . S
Cd102 O103 2.317 1_565 S
O103 Cd102 2.317 1_545 S
O103 C104 1.232 . S
C104 O103 1.232 . S
C104 O105 1.218 . S
O105 C104 1.218 . S
C106 O99 1.275 . S
C106 O101 1.255 . S
C107 O108 1.258 . S
C107 O109 1.256 . S
O108 Cd100 2.381 . S
O108 C107 1.258 . S
O109 Cd100 2.378 . S
O109 C107 1.256 . S
O110 Cd111 2.300 . S
O110 C117 1.275 . S
Cd111 O110 2.300 . S
Cd111 O119 2.381 . S
Cd111 O120 2.378 . S
O112 Cd113 2.385 . S
O112 C117 1.255 . S
Cd113 O112 2.385 . S
Cd113 O114 2.317 1_455 S
O114 Cd113 2.317 1_655 S
O114 C115 1.232 . S
C115 O114 1.232 . S
C115 O116 1.218 . S
O116 C115 1.218 . S
C117 O110 1.275 . S
C117 O112 1.255 . S
C118 O119 1.258 . S
C118 O120 1.256 . S
O119 Cd111 2.381 . S
O119 C118 1.258 . S
O120 Cd111 2.378 . S
O120 C118 1.256 . S
O121 Cd122 2.300 . S
O121 C128 1.275 . S
Cd122 O121 2.300 . S
Cd122 O130 2.381 . S
Cd122 O131 2.378 . S
O123 Cd124 2.385 . S
O123 C128 1.255 . S
Cd124 O123 2.385 . S
Cd124 O125 2.317 . S
O125 Cd124 2.317 . S
O125 C126 1.232 . S
C126 O125 1.232 . S
C126 O127 1.218 . S
O127 C126 1.218 . S
C128 O121 1.275 . S
C128 O123 1.255 . S
C129 O130 1.258 . S
C129 O131 1.256 . S
O130 Cd122 2.381 . S
O130 C129 1.258 . S
O131 Cd122 2.378 . S
O131 C129 1.256 . S
H132 C138 0.930 . S
H133 C142 0.930 . S
H134 C147 0.929 . S
H135 C145 0.929 . S
H136 C140 0.929 . S
H137 C146 0.929 . S
C138 H132 0.930 . S
C138 C139 1.367 . S
C138 C146 1.378 . S
C139 C138 1.367 . S
C139 C147 1.433 . S
C140 H136 0.929 . S
C140 C142 1.378 . S
C140 C144 1.350 . S
C141 C144 1.463 . S
C141 C146 1.350 . S
C141 N149 1.427 . S
C142 H133 0.930 . S
C142 C140 1.378 . S
C142 C143 1.367 . S
C143 C142 1.367 . S
C143 C145 1.433 . S
C144 C140 1.350 . S
C144 C141 1.463 . S
C144 N148 1.427 . S
C145 H135 0.929 . S
C145 C143 1.433 . S
C145 N148 1.384 . S
C146 H137 0.929 . S
C146 C138 1.378 . S
C146 C141 1.350 . S
C147 H134 0.929 . S
C147 C139 1.433 . S
C147 N149 1.384 . S
N148 C144 1.427 . S
N148 C145 1.384 . S
N149 C141 1.427 . S
N149 C147 1.384 . S
H150 C156 0.930 . S
H151 C160 0.930 . S
H152 C165 0.929 . S
H153 C163 0.929 . S
H154 C158 0.929 . S
H155 C164 0.929 . S
C156 H150 0.930 . S
C156 C157 1.367 . S
C156 C164 1.378 . S
C157 C156 1.367 . S
C157 C165 1.433 . S
C158 H154 0.929 . S
C158 C160 1.378 . S
C158 C162 1.350 . S
C159 C162 1.463 . S
C159 C164 1.350 . S
C159 N167 1.427 . S
C160 H151 0.930 . S
C160 C158 1.378 . S
C160 C161 1.367 . S
C161 C160 1.367 . S
C161 C163 1.433 . S
C162 C158 1.350 . S
C162 C159 1.463 . S
C162 N166 1.427 . S
C163 H153 0.929 . S
C163 C161 1.433 . S
C163 N166 1.384 . S
C164 H155 0.929 . S
C164 C156 1.378 . S
C164 C159 1.350 . S
C165 H152 0.929 . S
C165 C157 1.433 . S
C165 N167 1.384 . S
N166 C162 1.427 . S
N166 C163 1.384 . S
N167 C159 1.427 . S
N167 C165 1.384 . S
H168 C174 0.930 . S
H169 C178 0.930 . S
H170 C183 0.929 . S
H171 C181 0.929 . S
H172 C176 0.929 . S
H173 C182 0.929 . S
C174 H168 0.930 . S
C174 C175 1.367 . S
C174 C182 1.378 . S
C175 C174 1.367 . S
C175 C183 1.433 . S
C176 H172 0.929 . S
C176 C178 1.378 . S
C176 C180 1.350 . S
C177 C180 1.463 . S
C177 C182 1.350 . S
C177 N185 1.427 . S
C178 H169 0.930 . S
C178 C176 1.378 . S
C178 C179 1.367 . S
C179 C178 1.367 . S
C179 C181 1.433 . S
C180 C176 1.350 . S
C180 C177 1.463 . S
C180 N184 1.427 . S
C181 H171 0.929 . S
C181 C179 1.433 . S
C181 N184 1.384 . S
C182 H173 0.929 . S
C182 C174 1.378 . S
C182 C177 1.350 . S
C183 H170 0.929 . S
C183 C175 1.433 . S
C183 N185 1.384 . S
N184 C180 1.427 . S
N184 C181 1.384 . S
N185 C177 1.427 . S
N185 C183 1.384 . S
H186 C192 0.930 . S
H187 C196 0.930 . S
H188 C201 0.929 . S
H189 C199 0.929 . S
H190 C194 0.929 . S
H191 C200 0.929 . S
C192 H186 0.930 . S
C192 C193 1.367 . S
C192 C200 1.378 . S
C193 C192 1.367 . S
C193 C201 1.433 . S
C194 H190 0.929 . S
C194 C196 1.378 . S
C194 C198 1.350 . S
C195 C198 1.463 . S
C195 C200 1.350 . S
C195 N203 1.427 . S
C196 H187 0.930 . S
C196 C194 1.378 . S
C196 C197 1.367 . S
C197 C196 1.367 . S
C197 C199 1.433 . S
C198 C194 1.350 . S
C198 C195 1.463 . S
C198 N202 1.427 . S
C199 H189 0.929 . S
C199 C197 1.433 . S
C199 N202 1.384 . S
C200 H191 0.929 . S
C200 C192 1.378 . S
C200 C195 1.350 . S
C201 H188 0.929 . S
C201 C193 1.433 . S
C201 N203 1.384 . S
N202 C198 1.427 . S
N202 C199 1.384 . S
N203 C195 1.427 . S
N203 C201 1.384 . S
H204 C210 0.930 . S
H205 C214 0.930 . S
H206 C219 0.929 . S
H207 C217 0.929 . S
H208 C212 0.929 . S
H209 C218 0.929 . S
C210 H204 0.930 . S
C210 C211 1.367 . S
C210 C218 1.378 . S
C211 C210 1.367 . S
C211 C219 1.433 . S
C212 H208 0.929 . S
C212 C214 1.378 . S
C212 C216 1.350 . S
C213 C216 1.463 . S
C213 C218 1.350 . S
C213 N221 1.427 . S
C214 H205 0.930 . S
C214 C212 1.378 . S
C214 C215 1.367 . S
C215 C214 1.367 . S
C215 C217 1.433 . S
C216 C212 1.350 . S
C216 C213 1.463 . S
C216 N220 1.427 . S
C217 H207 0.929 . S
C217 C215 1.433 . S
C217 N220 1.384 . S
C218 H209 0.929 . S
C218 C210 1.378 . S
C218 C213 1.350 . S
C219 H206 0.929 . S
C219 C211 1.433 . S
C219 N221 1.384 . S
N220 C216 1.427 . S
N220 C217 1.384 . S
N221 C213 1.427 . S
N221 C219 1.384 . S
H222 C228 0.930 . S
H223 C232 0.930 . S
H224 C237 0.929 . S
H225 C235 0.929 . S
H226 C230 0.929 . S
H227 C236 0.929 . S
C228 H222 0.930 . S
C228 C229 1.367 . S
C228 C236 1.378 . S
C229 C228 1.367 . S
C229 C237 1.433 . S
C230 H226 0.929 . S
C230 C232 1.378 . S
C230 C234 1.350 . S
C231 C234 1.463 . S
C231 C236 1.350 . S
C231 N239 1.427 . S
C232 H223 0.930 . S
C232 C230 1.378 . S
C232 C233 1.367 . S
C233 C232 1.367 . S
C233 C235 1.433 . S
C234 C230 1.350 . S
C234 C231 1.463 . S
C234 N238 1.427 . S
C235 H225 0.929 . S
C235 C233 1.433 . S
C235 N238 1.384 . S
C236 H227 0.929 . S
C236 C228 1.378 . S
C236 C231 1.350 . S
C237 H224 0.929 . S
C237 C229 1.433 . S
C237 N239 1.384 . S
N238 C234 1.427 . S
N238 C235 1.384 . S
N239 C231 1.427 . S
N239 C237 1.384 . S
H240 C246 0.930 . S
H241 C250 0.930 . S
H242 C255 0.929 . S
H243 C253 0.929 . S
H244 C248 0.929 1_554 S
H245 C254 0.929 1_556 S
C246 H240 0.930 . S
C246 C247 1.367 . S
C246 C254 1.378 . S
C247 C246 1.367 . S
C247 C255 1.433 . S
C248 H244 0.929 1_556 S
C248 C250 1.378 . S
C248 C252 1.350 . S
C249 C252 1.463 1_654 S
C249 C254 1.350 . S
C249 N257 1.428 1_655 S
C250 H241 0.930 . S
C250 C248 1.378 . S
C250 C251 1.367 . S
C251 C250 1.367 . S
C251 C253 1.433 . S
C252 C248 1.350 . S
C252 C249 1.463 1_456 S
C252 N256 1.428 1_455 S
C253 H243 0.929 . S
C253 C251 1.433 . S
C253 N256 1.385 1_455 S
C254 H245 0.929 1_554 S
C254 C246 1.378 . S
C254 C249 1.350 . S
C255 H242 0.929 . S
C255 C247 1.433 . S
C255 N257 1.385 1_655 S
N256 C252 1.428 1_655 S
N256 C253 1.385 1_655 S
N257 C249 1.428 1_455 S
N257 C255 1.385 1_455 S
H258 C264 0.930 . S
H259 C268 0.930 . S
H260 C273 0.929 . S
H261 C271 0.929 . S
H262 C266 0.929 . S
H263 C272 0.929 . S
C264 H258 0.930 . S
C264 C265 1.367 . S
C264 C272 1.378 . S
C265 C264 1.367 . S
C265 C273 1.433 . S
C266 H262 0.929 . S
C266 C268 1.378 . S
C266 C270 1.350 . S
C267 C270 1.463 1_556 S
C267 C272 1.350 . S
C267 N275 1.427 . S
C268 H259 0.930 . S
C268 C266 1.378 . S
C268 C269 1.367 . S
C269 C268 1.367 . S
C269 C271 1.433 . S
C270 C266 1.350 . S
C270 C267 1.463 1_554 S
C270 N274 1.427 . S
C271 H261 0.929 . S
C271 C269 1.433 . S
C271 N274 1.384 . S
C272 H263 0.929 . S
C272 C264 1.378 . S
C272 C267 1.350 . S
C273 H260 0.929 . S
C273 C265 1.433 . S
C273 N275 1.384 . S
N274 C270 1.427 . S
N274 C271 1.384 . S
N275 C267 1.427 . S
N275 C273 1.384 . S
H276 C282 0.930 . S
H277 C286 0.930 . S
H278 C291 0.929 . S
H279 C289 0.929 . S
H280 C284 0.929 . S
H281 C290 0.929 . S
C282 H276 0.930 . S
C282 C283 1.367 1_565 S
C282 C290 1.378 . S
C283 C282 1.367 1_545 S
C283 C291 1.433 . S
C284 H280 0.929 . S
C284 C286 1.378 . S
C284 C288 1.350 1_545 S
C285 C288 1.463 1_544 S
C285 C290 1.350 1_545 S
C285 N293 1.427 . S
C286 H277 0.930 . S
C286 C284 1.378 . S
C286 C287 1.367 1_545 S
C287 C286 1.367 1_565 S
C287 C289 1.433 . S
C288 C284 1.350 1_565 S
C288 C285 1.463 1_566 S
C288 N292 1.427 . S
C289 H279 0.929 . S
C289 C287 1.433 . S
C289 N292 1.384 . S
C290 H281 0.929 . S
C290 C282 1.378 . S
C290 C285 1.350 1_565 S
C291 H278 0.929 . S
C291 C283 1.433 . S
C291 N293 1.384 . S
N292 C288 1.427 . S
N292 C289 1.384 . S
N293 C285 1.427 . S
N293 C291 1.384 . S
H294 C300 0.930 . S
H295 C304 0.930 . S
H296 C309 0.929 . S
H297 C307 0.929 . S
H298 C302 0.929 . S
H299 C308 0.929 . S
C300 H294 0.930 . S
C300 C301 1.367 . S
C300 C308 1.378 . S
C301 C300 1.367 . S
C301 C309 1.433 . S
C302 H298 0.929 . S
C302 C304 1.378 . S
C302 C306 1.350 . S
C303 C306 1.463 1_565 S
C303 C308 1.350 . S
C303 N311 1.429 1_565 S
C304 H295 0.930 . S
C304 C302 1.378 . S
C304 C305 1.367 . S
C305 C304 1.367 . S
C305 C307 1.433 . S
C306 C302 1.350 . S
C306 C303 1.463 1_545 S
C306 N310 1.429 1_545 S
C307 H297 0.929 . S
C307 C305 1.433 . S
C307 N310 1.386 1_545 S
C308 H299 0.929 . S
C308 C300 1.378 . S
C308 C303 1.350 . S
C309 H296 0.929 . S
C309 C301 1.433 . S
C309 N311 1.386 1_565 S
N310 C306 1.429 1_565 S
N310 C307 1.386 1_565 S
N311 C303 1.429 1_545 S
N311 C309 1.386 1_545 S
H312 C318 0.930 . S
H313 C322 0.930 . S
H314 C327 0.929 . S
H315 C325 0.929 . S
H316 C320 0.929 . S
H317 C326 0.929 . S
C318 H312 0.930 . S
C318 C319 1.367 . S
C318 C326 1.378 . S
C319 C318 1.367 . S
C319 C327 1.433 1_455 S
C320 H316 0.929 . S
C320 C322 1.378 . S
C320 C324 1.350 . S
C321 C324 1.463 1_455 S
C321 C326 1.350 . S
C321 N329 1.427 1_455 S
C322 H313 0.930 . S
C322 C320 1.378 . S
C322 C323 1.367 . S
C323 C322 1.367 . S
C323 C325 1.433 1_655 S
C324 C320 1.350 . S
C324 C321 1.463 1_655 S
C324 N328 1.427 1_655 S
C325 H315 0.929 . S
C325 C323 1.433 1_455 S
C325 N328 1.384 . S
C326 H317 0.929 . S
C326 C318 1.378 . S
C326 C321 1.350 . S
C327 H314 0.929 . S
C327 C319 1.433 1_655 S
C327 N329 1.384 . S
N328 C324 1.427 1_455 S
N328 C325 1.384 . S
N329 C321 1.427 1_655 S
N329 C327 1.384 . S
H330 C336 0.930 . S
H331 C340 0.930 . S
H332 C345 0.929 . S
H333 C343 0.929 . S
H334 C338 0.929 . S
H335 C344 0.929 . S
C336 H330 0.930 . S
C336 C337 1.367 . S
C336 C344 1.378 . S
C337 C336 1.367 . S
C337 C345 1.433 . S
C338 H334 0.929 . S
C338 C340 1.378 . S
C338 C342 1.350 . S
C339 C342 1.463 . S
C339 C344 1.350 . S
C339 N347 1.427 . S
C340 H331 0.930 . S
C340 C338 1.378 . S
C340 C341 1.367 . S
C341 C340 1.367 . S
C341 C343 1.433 . S
C342 C338 1.350 . S
C342 C339 1.463 . S
C342 N346 1.427 . S
C343 H333 0.929 . S
C343 C341 1.433 . S
C343 N346 1.384 . S
C344 H335 0.929 . S
C344 C336 1.378 . S
C344 C339 1.350 . S
C345 H332 0.929 . S
C345 C337 1.433 . S
C345 N347 1.384 . S
N346 C342 1.427 . S
N346 C343 1.384 . S
N347 C339 1.427 . S
N347 C345 1.384 . S
H348 C354 0.930 . S
H349 C358 0.930 . S
H350 C363 0.929 . S
H351 C361 0.929 . S
H352 C356 0.929 . S
H353 C362 0.929 . S
C354 H348 0.930 . S
C354 C355 1.367 . S
C354 C362 1.378 . S
C355 C354 1.367 . S
C355 C363 1.433 1_655 S
C356 H352 0.929 . S
C356 C358 1.378 . S
C356 C360 1.350 1_455 S
C357 C360 1.463 . S
C357 C362 1.350 . S
C357 N365 1.427 1_655 S
C358 H349 0.930 . S
C358 C356 1.378 . S
C358 C359 1.367 1_455 S
C359 C358 1.367 1_655 S
C359 C361 1.433 . S
C360 C356 1.350 1_655 S
C360 C357 1.463 . S
C360 N364 1.427 . S
C361 H351 0.929 . S
C361 C359 1.433 . S
C361 N364 1.384 . S
C362 H353 0.929 . S
C362 C354 1.378 . S
C362 C357 1.350 . S
C363 H350 0.929 . S
C363 C355 1.433 1_455 S
C363 N365 1.384 . S
N364 C360 1.427 . S
N364 C361 1.384 . S
N365 C357 1.427 1_455 S
N365 C363 1.384 . S
H366 C372 0.930 . S
H367 C376 0.930 . S
H368 C381 0.929 . S
H369 C379 0.929 . S
H370 C374 0.929 . S
H371 C380 0.929 . S
C372 H366 0.930 . S
C372 C373 1.367 . S
C372 C380 1.378 . S
C373 C372 1.367 . S
C373 C381 1.433 . S
C374 H370 0.929 . S
C374 C376 1.378 . S
C374 C378 1.350 . S
C375 C378 1.463 . S
C375 C380 1.350 . S
C375 N383 1.427 . S
C376 H367 0.930 . S
C376 C374 1.378 . S
C376 C377 1.367 . S
C377 C376 1.367 . S
C377 C379 1.433 . S
C378 C374 1.350 . S
C378 C375 1.463 . S
C378 N382 1.427 . S
C379 H369 0.929 . S
C379 C377 1.433 . S
C379 N382 1.384 . S
C380 H371 0.929 . S
C380 C372 1.378 . S
C380 C375 1.350 . S
C381 H368 0.929 . S
C381 C373 1.433 . S
C381 N383 1.384 . S
N382 C378 1.427 . S
N382 C379 1.384 . S
N383 C375 1.427 . S
N383 C381 1.384 . S
H384 C390 0.930 . S
H385 C394 0.930 . S
H386 C399 0.929 . S
H387 C397 0.929 . S
H388 C392 0.929 . S
H389 C398 0.929 . S
C390 H384 0.930 . S
C390 C391 1.367 1_565 S
C390 C398 1.378 . S
C391 C390 1.367 1_545 S
C391 C399 1.433 . S
C392 H388 0.929 . S
C392 C394 1.378 . S
C392 C396 1.350 . S
C393 C396 1.463 . S
C393 C398 1.350 1_545 S
C393 N401 1.427 . S
C394 H385 0.930 . S
C394 C392 1.378 . S
C394 C395 1.367 . S
C395 C394 1.367 . S
C395 C397 1.433 1_545 S
C396 C392 1.350 . S
C396 C393 1.463 . S
C396 N400 1.427 1_545 S
C397 H387 0.929 . S
C397 C395 1.433 1_565 S
C397 N400 1.384 . S
C398 H389 0.929 . S
C398 C390 1.378 . S
C398 C393 1.350 1_565 S
C399 H386 0.929 . S
C399 C391 1.433 . S
C399 N401 1.384 . S
N400 C396 1.427 1_565 S
N400 C397 1.384 . S
N401 C393 1.427 . S
N401 C399 1.384 . S
H402 C408 0.930 . S
H403 C412 0.930 . S
H404 C417 0.929 . S
H405 C415 0.929 . S
H406 C410 0.929 . S
H407 C416 0.929 . S
C408 H402 0.930 . S
C408 C409 1.367 . S
C408 C416 1.378 . S
C409 C408 1.367 . S
C409 C417 1.433 . S
C410 H406 0.929 . S
C410 C412 1.378 . S
C410 C414 1.350 . S
C411 C414 1.463 . S
C411 C416 1.350 . S
C411 N419 1.427 . S
C412 H403 0.930 . S
C412 C410 1.378 . S
C412 C413 1.367 . S
C413 C412 1.367 . S
C413 C415 1.433 . S
C414 C410 1.350 . S
C414 C411 1.463 . S
C414 N418 1.427 . S
C415 H405 0.929 . S
C415 C413 1.433 . S
C415 N418 1.384 . S
C416 H407 0.929 . S
C416 C408 1.378 . S
C416 C411 1.350 . S
C417 H404 0.929 . S
C417 C409 1.433 . S
C417 N419 1.384 . S
N418 C414 1.427 . S
N418 C415 1.384 . S
N419 C411 1.427 . S
N419 C417 1.384 . S
H420 C426 0.930 . S
H421 C430 0.930 . S
H422 C435 0.929 . S
H423 C433 0.929 . S
H424 C428 0.929 . S
H425 C434 0.929 . S
C426 H420 0.930 . S
C426 C427 1.367 . S
C426 C434 1.378 . S
C427 C426 1.367 . S
C427 C435 1.433 . S
C428 H424 0.929 . S
C428 C430 1.378 . S
C428 C432 1.350 . S
C429 C432 1.463 . S
C429 C434 1.350 . S
C429 N437 1.427 . S
C430 H421 0.930 . S
C430 C428 1.378 . S
C430 C431 1.367 . S
C431 C430 1.367 . S
C431 C433 1.433 . S
C432 C428 1.350 . S
C432 C429 1.463 . S
C432 N436 1.427 . S
C433 H423 0.929 . S
C433 C431 1.433 . S
C433 N436 1.384 . S
C434 H425 0.929 . S
C434 C426 1.378 . S
C434 C429 1.350 . S
C435 H422 0.929 . S
C435 C427 1.433 . S
C435 N437 1.384 . S
N436 C432 1.427 . S
N436 C433 1.384 . S
N437 C429 1.427 . S
N437 C435 1.384 . S
H438 C444 0.930 . S
H439 C448 0.930 . S
H440 C453 0.929 . S
H441 C451 0.929 . S
H442 C446 0.929 . S
H443 C452 0.929 . S
C444 H438 0.930 . S
C444 C445 1.367 1_545 S
C444 C452 1.378 . S
C445 C444 1.367 1_565 S
C445 C453 1.433 . S
C446 H442 0.929 . S
C446 C448 1.378 . S
C446 C450 1.350 . S
C447 C450 1.463 . S
C447 C452 1.350 1_565 S
C447 N455 1.427 . S
C448 H439 0.930 . S
C448 C446 1.378 . S
C448 C449 1.367 . S
C449 C448 1.367 . S
C449 C451 1.433 1_565 S
C450 C446 1.350 . S
C450 C447 1.463 . S
C450 N454 1.427 1_565 S
C451 H441 0.929 . S
C451 C449 1.433 1_545 S
C451 N454 1.384 . S
C452 H443 0.929 . S
C452 C444 1.378 . S
C452 C447 1.350 1_545 S
C453 H440 0.929 . S
C453 C445 1.433 . S
C453 N455 1.384 . S
N454 C450 1.427 1_545 S
N454 C451 1.384 . S
N455 C447 1.427 . S
N455 C453 1.384 . S
C139 C60 1.479 . S
C143 C5 1.452 . S
C157 C16 1.477 . S
C161 C38 1.456 . S
C175 C49 1.451 . S
C179 C27 1.476 . S
C193 C126 1.699 . S
C197 C71 1.710 . S
C211 C82 1.711 . S
C215 C104 1.718 . S
C229 C115 1.708 . S
C233 C93 1.699 . S
C247 C8 1.936 . S
C251 C74 2.041 . S
C265 C85 2.038 . S
C269 C19 1.928 . S
C283 C30 1.924 . S
C287 C96 2.036 . S
C301 C107 2.041 . S
C305 C41 1.936 . S
C319 C118 2.037 . S
C323 C52 1.931 . S
C337 C63 1.934 . S
C341 C129 2.040 . S
C355 C51 1.002 . S
C359 C7 0.988 . S
C373 C62 1.009 . S
C377 C18 1.018 . S
C391 C29 0.988 . S
C395 C40 1.002 . S
C409 C73 1.064 . S
C413 C117 1.064 . S
C427 C128 1.078 . S
C431 C84 1.076 . S
C445 C95 1.076 . S
C449 C106 1.073 . S
