# Generated by pormake.
# Topology dft, (4)-cn, num edge types: 1
# Building blocks:
#     Node 0, Type 0, BuildingBlock: KUFVIS_clean_sbu_0, # of connection points: 4
#     Node 1, Type 0, BuildingBlock: KUFVIS_clean_sbu_0, # of connection points: 4
#     Node 2, Type 0, BuildingBlock: KUFVIS_clean_sbu_0, # of connection points: 4
#     Node 3, Type 0, BuildingBlock: KUFVIS_clean_sbu_0, # of connection points: 4
#     Node 4, Type 0, BuildingBlock: KUFVIS_clean_sbu_0, # of connection points: 4
#     Node 5, Type 0, BuildingBlock: KUFVIS_clean_sbu_0, # of connection points: 4
#     Node 6, Type 0, BuildingBlock: KUFVIS_clean_sbu_0, # of connection points: 4
#     Node 7, Type 0, BuildingBlock: KUFVIS_clean_sbu_0, # of connection points: 4
#     Edge 8, Type (0, 0), BuildingBlock: KIFKEQ_clean_linker_1, # of connection points: 2
#     Edge 9, Type (0, 0), BuildingBlock: KIFKEQ_clean_linker_1, # of connection points: 2
#     Edge 10, Type (0, 0), BuildingBlock: KIFKEQ_clean_linker_1, # of connection points: 2
#     Edge 11, Type (0, 0), BuildingBlock: KIFKEQ_clean_linker_1, # of connection points: 2
#     Edge 12, Type (0, 0), BuildingBlock: KIFKEQ_clean_linker_1, # of connection points: 2
#     Edge 13, Type (0, 0), BuildingBlock: KIFKEQ_clean_linker_1, # of connection points: 2
#     Edge 14, Type (0, 0), BuildingBlock: KIFKEQ_clean_linker_1, # of connection points: 2
#     Edge 15, Type (0, 0), BuildingBlock: KIFKEQ_clean_linker_1, # of connection points: 2
#     Edge 16, Type (0, 0), BuildingBlock: KIFKEQ_clean_linker_1, # of connection points: 2
#     Edge 17, Type (0, 0), BuildingBlock: KIFKEQ_clean_linker_1, # of connection points: 2
#     Edge 18, Type (0, 0), BuildingBlock: KIFKEQ_clean_linker_1, # of connection points: 2
#     Edge 19, Type (0, 0), BuildingBlock: KIFKEQ_clean_linker_1, # of connection points: 2
#     Edge 20, Type (0, 0), BuildingBlock: KIFKEQ_clean_linker_1, # of connection points: 2
#     Edge 21, Type (0, 0), BuildingBlock: KIFKEQ_clean_linker_1, # of connection points: 2
#     Edge 22, Type (0, 0), BuildingBlock: KIFKEQ_clean_linker_1, # of connection points: 2
#     Edge 23, Type (0, 0), BuildingBlock: KIFKEQ_clean_linker_1, # of connection points: 2
# Relax obj value: 0.171
# Max RMSD: 0.158
# Mean RMSD: 0.158
data_MOF--net-dft--node1-KUFVIS_clean_sbu_0--edge1-KIFKEQ_clean_linker_1
_symmetry_space_group_name_H-M    P1
_symmetry_Int_Tables_number       1
_symmetry_cell_setting            triclinic
loop_
_symmetry_equiv_pos_as_xyz
'x, y, z'
_cell_length_a     34.576241
_cell_length_b     34.567155
_cell_length_c     41.350533
_cell_angle_alpha  89.879019
_cell_angle_beta   90.066736
_cell_angle_gamma 89.998277
loop_
_atom_site_label
_atom_site_type_symbol
_atom_site_fract_x
_atom_site_fract_y
_atom_site_fract_z
_atom_type_partial_charge
Mn0 Mn 0.3306 0.06014 0.18712 0.0
Mn1 Mn 0.35989 0.1481 0.16079 0.0
C2 C 0.31448 0.11635 0.2147 0.0
C3 C 0.28635 0.00933 0.19392 0.0
C4 C 0.41432 0.08932 0.19045 0.0
O5 O 0.34128 0.05049 0.13876 0.0
O6 O 0.35819 0.11152 0.12439 0.0
C7 C 0.29419 0.16939 0.11831 0.0
N8 N 0.31705 0.17707 0.14437 0.0
C9 C 0.28369 0.23694 0.15443 0.0
C10 C 0.25979 0.22968 0.12771 0.0
C11 C 0.265 0.19571 0.10964 0.0
C12 C 0.31224 0.20964 0.16196 0.0
H13 H 0.2982 0.14339 0.10428 0.0
C14 C 0.35137 0.07599 0.11764 0.0
O15 O 0.32324 0.00448 0.1977 0.0
O16 O 0.27525 0.04301 0.18339 0.0
N17 N 0.36154 0.18564 0.19466 0.0
C18 C 0.38533 0.18697 0.22091 0.0
C19 C 0.38305 0.21855 0.2421 0.0
C20 C 0.35648 0.24841 0.236 0.0
C21 C 0.33207 0.24623 0.20895 0.0
C22 C 0.33577 0.21414 0.18863 0.0
H23 H 0.40592 0.16416 0.2256 0.0
O24 O 0.31681 0.08373 0.23023 0.0
O25 O 0.32399 0.11517 0.18458 0.0
O26 O 0.3886 0.06396 0.19628 0.0
O27 O 0.40665 0.12176 0.17723 0.0
C28 C 0.3041 0.27449 0.20144 0.0
C29 C 0.27995 0.26987 0.1742 0.0
H30 H 0.23718 0.24986 0.12099 0.0
H31 H 0.2466 0.18986 0.08903 0.0
H32 H 0.40186 0.21996 0.263 0.0
H33 H 0.35518 0.27284 0.25227 0.0
H34 H 0.30076 0.29976 0.21653 0.0
H35 H 0.2583 0.29163 0.16887 0.0
Mn36 Mn 0.04363 0.32766 0.69241 0.0
Mn37 Mn 0.9562 0.35624 0.66426 0.0
C38 C 0.98687 0.31146 0.71906 0.0
C39 C 0.09439 0.28357 0.7003 0.0
C40 C 0.01329 0.41116 0.69519 0.0
O41 O 0.05472 0.33823 0.64431 0.0
O42 O 0.99437 0.35616 0.62888 0.0
C43 C 0.93845 0.29095 0.62044 0.0
N44 N 0.929 0.31311 0.64646 0.0
C45 C 0.86964 0.27803 0.65431 0.0
C46 C 0.87869 0.25487 0.62757 0.0
C47 C 0.9133 0.2613 0.61062 0.0
C48 C 0.8958 0.30714 0.66296 0.0
H49 H 0.96496 0.29585 0.60728 0.0
C50 C 0.03007 0.34928 0.62287 0.0
O51 O 0.09904 0.32048 0.70412 0.0
O52 O 0.06102 0.27239 0.68924 0.0
N53 N 0.91704 0.35637 0.69691 0.0
C54 C 0.91394 0.37948 0.72343 0.0
C55 C 0.88168 0.37567 0.74378 0.0
C56 C 0.85291 0.3483 0.73657 0.0
C57 C 0.85679 0.32481 0.70916 0.0
C58 C 0.88951 0.32998 0.68973 0.0
H59 H 0.93598 0.40058 0.72902 0.0
O60 O 0.01904 0.31409 0.73516 0.0
O61 O 0.98873 0.32063 0.68884 0.0
O62 O 0.03908 0.38577 0.70093 0.0
O63 O 0.98093 0.4031 0.68204 0.0
C64 C 0.8297 0.29619 0.70054 0.0
C65 C 0.83604 0.27292 0.67307 0.0
H66 H 0.85943 0.23189 0.61999 0.0
H67 H 0.92054 0.24347 0.59002 0.0
H68 H 0.87895 0.39381 0.76495 0.0
H69 H 0.82804 0.34553 0.75228 0.0
H70 H 0.80407 0.2916 0.71501 0.0
H71 H 0.81516 0.25077 0.66687 0.0
Mn72 Mn 0.77945 0.04984 0.19097 0.0
Mn73 Mn 0.75122 0.96394 0.15959 0.0
C74 C 0.79581 0.99181 0.21545 0.0
C75 C 0.82317 0.10032 0.20095 0.0
C76 C 0.69616 0.01837 0.19317 0.0
O77 O 0.76906 0.06381 0.14346 0.0
O78 O 0.74949 0.00466 0.12602 0.0
C79 C 0.81583 0.95078 0.11396 0.0
N80 N 0.79442 0.93894 0.13978 0.0
C81 C 0.83137 0.8802 0.14458 0.0
C82 C 0.85373 0.8917 0.11798 0.0
C83 C 0.84596 0.92718 0.10265 0.0
C84 C 0.80161 0.90482 0.15468 0.0
H85 H 0.80998 0.97802 0.10211 0.0
C86 C 0.75665 0.04066 0.12151 0.0
O87 O 0.78621 0.10452 0.20485 0.0
O88 O 0.8346 0.0677 0.18864 0.0
N89 N 0.75261 0.92241 0.19026 0.0
C90 C 0.73019 0.9169 0.21694 0.0
C91 C 0.73537 0.88347 0.23582 0.0
C92 C 0.7634 0.85604 0.227 0.0
C93 C 0.78611 0.86236 0.19942 0.0
C94 C 0.77951 0.8961 0.18145 0.0
H95 H 0.70866 0.93796 0.22383 0.0
O96 O 0.79279 0.02298 0.23273 0.0
O97 O 0.78689 0.99522 0.18523 0.0
O98 O 0.72127 0.04437 0.19906 0.0
O99 O 0.70446 0.9865 0.17935 0.0
C100 C 0.81543 0.8368 0.18934 0.0
C101 C 0.83798 0.84566 0.16189 0.0
H102 H 0.87715 0.8737 0.1093 0.0
H103 H 0.86319 0.93633 0.08219 0.0
H104 H 0.71783 0.87887 0.25714 0.0
H105 H 0.76736 0.83034 0.24164 0.0
H106 H 0.82123 0.81049 0.20275 0.0
H107 H 0.86077 0.82603 0.15462 0.0
Mn108 Mn 0.05334 0.77647 0.68674 0.0
Mn109 Mn 0.13905 0.74748 0.65559 0.0
C110 C 0.11142 0.7924 0.7113 0.0
C111 C 0.00299 0.82034 0.6964 0.0
C112 C 0.08395 0.69292 0.68924 0.0
O113 O 0.03953 0.76617 0.6392 0.0
O114 O 0.09869 0.74671 0.62179 0.0
C115 C 0.15356 0.81252 0.61046 0.0
N116 N 0.16486 0.79056 0.63617 0.0
C117 C 0.22407 0.8266 0.64157 0.0
C118 C 0.21311 0.84954 0.6151 0.0
C119 C 0.17767 0.84251 0.59952 0.0
C120 C 0.19892 0.79706 0.65132 0.0
H121 H 0.12635 0.80724 0.59842 0.0
C122 C 0.06276 0.75404 0.61722 0.0
O123 O 0.99868 0.7834 0.70039 0.0
O124 O 0.03572 0.83173 0.68422 0.0
N125 N 0.18026 0.74789 0.68649 0.0
C126 C 0.18533 0.72478 0.71289 0.0
C127 C 0.21893 0.72876 0.73168 0.0
C128 C 0.24692 0.75635 0.7231 0.0
C129 C 0.24092 0.78 0.69597 0.0
C130 C 0.20707 0.77445 0.67797 0.0
H131 H 0.16389 0.70349 0.71953 0.0
O132 O 0.08013 0.78972 0.72851 0.0
O133 O 0.10804 0.78345 0.68113 0.0
O134 O 0.05834 0.71835 0.69523 0.0
O135 O 0.1157 0.70081 0.67505 0.0
C136 C 0.26699 0.8091 0.68626 0.0
C137 C 0.25858 0.83238 0.65908 0.0
H138 H 0.23153 0.87283 0.6067 0.0
H139 H 0.16895 0.86018 0.57915 0.0
H140 H 0.2233 0.71053 0.75268 0.0
H141 H 0.27292 0.75906 0.73748 0.0
H142 H 0.29336 0.81414 0.69975 0.0
H143 H 0.27861 0.85499 0.65211 0.0
Mn144 Mn 0.32615 0.04243 0.80842 0.0
Mn145 Mn 0.35514 0.95367 0.83319 0.0
C146 C 0.30974 0.98699 0.77991 0.0
C147 C 0.28205 0.09354 0.80251 0.0
C148 C 0.40966 0.01266 0.80416 0.0
O149 O 0.33713 0.05096 0.85688 0.0
O150 O 0.35465 0.98973 0.87001 0.0
C151 C 0.29014 0.93275 0.8764 0.0
N152 N 0.31226 0.92511 0.84994 0.0
C153 C 0.27796 0.86576 0.83995 0.0
C154 C 0.25484 0.87296 0.86711 0.0
C155 C 0.26089 0.90667 0.88535 0.0
C156 C 0.30663 0.8928 0.83218 0.0
H157 H 0.29479 0.95853 0.89058 0.0
C158 C 0.34773 0.02503 0.87745 0.0
O159 O 0.31894 0.09837 0.79875 0.0
O160 O 0.2709 0.05965 0.81251 0.0
N161 N 0.35552 0.91651 0.79897 0.0
C162 C 0.37848 0.91526 0.77225 0.0
C163 C 0.37486 0.88421 0.7506 0.0
C164 C 0.34788 0.85472 0.75678 0.0
C165 C 0.32457 0.85669 0.78445 0.0
C166 C 0.32944 0.88832 0.80512 0.0
H167 H 0.39929 0.93784 0.76746 0.0
O168 O 0.31213 0.01996 0.76493 0.0
O169 O 0.31928 0.98738 0.81006 0.0
O170 O 0.38409 0.03848 0.79926 0.0
O171 O 0.40187 0.97971 0.81642 0.0
C172 C 0.29645 0.8287 0.79218 0.0
C173 C 0.27329 0.83313 0.81999 0.0
H174 H 0.23219 0.85296 0.87404 0.0
H175 H 0.24309 0.91249 0.90629 0.0
H176 H 0.39286 0.88297 0.72924 0.0
H177 H 0.34523 0.8308 0.74006 0.0
H178 H 0.29221 0.80382 0.77681 0.0
H179 H 0.25157 0.81153 0.82553 0.0
Mn180 Mn 0.06316 0.32886 0.3135 0.0
Mn181 Mn 0.15187 0.35815 0.33776 0.0
C182 C 0.11848 0.31306 0.28446 0.0
C183 C 0.01225 0.28457 0.30772 0.0
C184 C 0.09177 0.41271 0.31011 0.0
O185 O 0.05526 0.33908 0.36221 0.0
O186 O 0.11689 0.35527 0.3752 0.0
C187 C 0.17549 0.29174 0.37865 0.0
N188 N 0.18185 0.31522 0.3527 0.0
C189 C 0.24161 0.28274 0.34046 0.0
C190 C 0.23574 0.25825 0.36707 0.0
C191 C 0.20246 0.2627 0.38618 0.0
C192 C 0.21369 0.31109 0.33408 0.0
H193 H 0.15003 0.29514 0.39347 0.0
C194 C 0.08166 0.34822 0.38283 0.0
O195 O 0.00721 0.32149 0.30431 0.0
O196 O 0.04629 0.27343 0.31737 0.0
N197 N 0.18785 0.36076 0.30274 0.0
C198 C 0.18776 0.3849 0.27666 0.0
C199 C 0.21829 0.38313 0.25437 0.0
C200 C 0.24864 0.35674 0.25923 0.0
C201 C 0.24798 0.33207 0.28619 0.0
C202 C 0.21681 0.33514 0.30757 0.0
H203 H 0.16456 0.40534 0.2729 0.0
O204 O 0.08535 0.31535 0.26973 0.0
O205 O 0.11822 0.32246 0.3146 0.0
O206 O 0.0665 0.38688 0.30443 0.0
O207 O 0.12452 0.40508 0.32277 0.0
C208 C 0.27687 0.30439 0.29259 0.0
C209 C 0.27376 0.27979 0.31972 0.0
H210 H 0.25643 0.23577 0.37292 0.0
H211 H 0.19765 0.24382 0.4067 0.0
H212 H 0.21851 0.40215 0.23355 0.0
H213 H 0.27221 0.35566 0.24206 0.0
H214 H 0.3015 0.30167 0.27672 0.0
H215 H 0.29605 0.25842 0.3242 0.0
Mn216 Mn 0.77386 0.05762 0.81272 0.0
Mn217 Mn 0.74417 0.14431 0.84139 0.0
C218 C 0.78996 0.11489 0.78685 0.0
C219 C 0.81785 0.007 0.80454 0.0
C220 C 0.69024 0.08772 0.8089 0.0
O221 O 0.76319 0.04555 0.86055 0.0
O222 O 0.74321 0.10521 0.87627 0.0
C223 C 0.80841 0.16095 0.88671 0.0
N224 N 0.78685 0.17107 0.86043 0.0
C225 C 0.82262 0.23027 0.85374 0.0
C226 C 0.84514 0.22053 0.88077 0.0
C227 C 0.83805 0.18568 0.89728 0.0
C228 C 0.79341 0.20456 0.84439 0.0
H229 H 0.80306 0.13421 0.89948 0.0
C230 C 0.75075 0.0695 0.88187 0.0
O231 O 0.78095 0.0025 0.80054 0.0
O232 O 0.82913 0.04016 0.81593 0.0
N233 N 0.74484 0.18428 0.80932 0.0
C234 C 0.72229 0.18809 0.78246 0.0
C235 C 0.72664 0.22079 0.7626 0.0
C236 C 0.75402 0.24923 0.77061 0.0
C237 C 0.77701 0.24458 0.7983 0.0
C238 C 0.7712 0.21153 0.81729 0.0
H239 H 0.70121 0.16628 0.77623 0.0
O240 O 0.7875 0.08302 0.77037 0.0
O241 O 0.78058 0.11249 0.817 0.0
O242 O 0.71586 0.06205 0.80376 0.0
O243 O 0.6978 0.12004 0.82226 0.0
C244 C 0.80577 0.27121 0.80759 0.0
C245 C 0.8285 0.2641 0.83533 0.0
H246 H 0.86816 0.23942 0.8889 0.0
H247 H 0.8554 0.17789 0.91809 0.0
H248 H 0.70891 0.2241 0.74119 0.0
H249 H 0.75716 0.27447 0.75531 0.0
H250 H 0.81095 0.29702 0.79339 0.0
H251 H 0.85083 0.28457 0.84201 0.0
Mn252 Mn 0.04889 0.77756 0.30825 0.0
Mn253 Mn 0.96182 0.74884 0.33698 0.0
C254 C 0.99184 0.79384 0.28214 0.0
C255 C 0.09962 0.82144 0.29964 0.0
C256 C 0.01797 0.69409 0.30513 0.0
O257 O 0.06076 0.76721 0.35619 0.0
O258 O 1.001 0.74725 0.37175 0.0
C259 C 0.94618 0.81313 0.38234 0.0
N260 N 0.93571 0.79184 0.35608 0.0
C261 C 0.87687 0.82827 0.34972 0.0
C262 C 0.88697 0.85051 0.37675 0.0
C263 C 0.92183 0.84296 0.39308 0.0
C264 C 0.90222 0.79884 0.3402 0.0
H265 H 0.97291 0.80741 0.39501 0.0
C266 C 0.0367 0.75464 0.37742 0.0
O267 O 0.10409 0.78448 0.29597 0.0
O268 O 0.06648 0.8328 0.311 0.0
N269 N 0.92173 0.75017 0.30503 0.0
C270 C 0.91763 0.72794 0.27808 0.0
C271 C 0.8851 0.73308 0.25815 0.0
C272 C 0.85707 0.76085 0.26624 0.0
C273 C 0.86191 0.78333 0.29414 0.0
C274 C 0.89487 0.77686 0.3131 0.0
H275 H 0.93916 0.70662 0.27176 0.0
O276 O 0.02371 0.79092 0.26573 0.0
O277 O 0.99406 0.78474 0.31239 0.0
O278 O 0.04406 0.71936 0.30004 0.0
O279 O 0.98544 0.70222 0.3179 0.0
C280 C 0.83562 0.81228 0.30363 0.0
C281 C 0.84302 0.83463 0.33147 0.0
H282 H 0.86836 0.87367 0.38501 0.0
H283 H 0.9299 0.8601 0.4139 0.0
H284 H 0.88164 0.71572 0.2366 0.0
H285 H 0.83208 0.76481 0.25077 0.0
H286 H 0.80985 0.81793 0.2895 0.0
H287 H 0.8228 0.8571 0.33831 0.0
H288 H 0.38039 0.12077 0.06923 0.0
H289 H 0.32676 0.00954 0.08669 0.0
H290 H 0.3786 0.10929 0.01164 0.0
H291 H 0.32528 0.99807 0.02817 0.0
H292 H 0.3723 0.97709 0.92562 0.0
H293 H 0.37259 0.98833 0.98323 0.0
H294 H 0.32916 0.10397 0.96764 0.0
H295 H 0.32866 0.09285 0.90908 0.0
C296 C 0.36825 0.09368 0.06088 0.0
C297 C 0.3535 0.06605 0.08281 0.0
C298 C 0.367 0.08738 0.02769 0.0
C299 C 0.35133 0.05313 0.01538 0.0
C300 C 0.33755 0.02483 0.0371 0.0
C301 C 0.33853 0.03127 0.07057 0.0
C302 C 0.36278 0.00511 0.93415 0.0
C303 C 0.35036 0.03416 0.91245 0.0
C304 C 0.36269 0.01129 0.96737 0.0
C305 C 0.35052 0.04677 0.97996 0.0
C306 C 0.33879 0.07627 0.95849 0.0
C307 C 0.33858 0.06998 0.92499 0.0
H308 H 0.09247 0.31642 0.59185 0.0
H309 H 0.99185 0.38821 0.57553 0.0
H310 H 0.10399 0.31486 0.53338 0.0
H311 H 0.00334 0.3865 0.51776 0.0
H312 H 0.01153 0.33858 0.41418 0.0
H313 H 1.00037 0.33865 0.47279 0.0
H314 H 0.12191 0.35961 0.48922 0.0
H315 H 0.13324 0.35936 0.43173 0.0
C316 C 0.07324 0.3323 0.57594 0.0
C317 C 0.04121 0.35224 0.58839 0.0
C318 C 0.07964 0.33123 0.54249 0.0
C319 C 0.0541 0.35004 0.521 0.0
C320 C 0.02291 0.37094 0.5336 0.0
C321 C 0.01663 0.37215 0.56682 0.0
C322 C 0.03576 0.34327 0.43032 0.0
C323 C 0.07314 0.34912 0.41802 0.0
C324 C 0.02943 0.34335 0.46384 0.0
C325 C 0.06041 0.34893 0.48555 0.0
C326 C 0.0976 0.35464 0.4732 0.0
C327 C 0.10388 0.35485 0.44001 0.0
H328 H 0.80337 0.03069 0.91908 0.0
H329 H 0.69129 0.08542 0.92163 0.0
H330 H 0.80377 0.02772 0.97846 0.0
H331 H 0.69161 0.08271 0.9805 0.0
H332 H 0.69319 0.03271 0.08454 0.0
H333 H 0.69021 0.03616 0.0257 0.0
H334 H 0.80798 0.07782 0.02336 0.0
H335 H 0.81078 0.0742 0.08268 0.0
C336 C 0.77835 0.04085 0.93232 0.0
C337 C 0.74709 0.0578 0.91593 0.0
C338 C 0.77888 0.03993 0.96621 0.0
C339 C 0.74797 0.05556 0.98408 0.0
C340 C 0.71581 0.07042 0.96745 0.0
C341 C 0.71549 0.07171 0.93377 0.0
C342 C 0.71795 0.04387 0.07145 0.0
C343 C 0.75196 0.05388 0.08799 0.0
C344 C 0.71639 0.04551 0.03779 0.0
C345 C 0.74905 0.0567 0.01993 0.0
C346 C 0.78258 0.0685 0.03656 0.0
C347 C 0.78396 0.06727 0.07042 0.0
H348 H 0.02217 0.69355 0.41588 0.0
H349 H 0.07368 0.8072 0.41579 0.0
H350 H 0.02403 0.69223 0.47475 0.0
H351 H 0.07589 0.80593 0.47519 0.0
H352 H 0.02859 0.80874 0.57917 0.0
H353 H 0.0257 0.80765 0.5198 0.0
H354 H 0.06934 0.69053 0.52035 0.0
H355 H 0.07194 0.69177 0.57922 0.0
C356 C 0.03506 0.71775 0.42858 0.0
C357 C 0.0483 0.75025 0.41143 0.0
C358 C 0.03585 0.71713 0.46226 0.0
C359 C 0.04955 0.74921 0.47959 0.0
C360 C 0.06456 0.78107 0.46241 0.0
C361 C 0.06411 0.78151 0.42851 0.0
C362 C 0.03608 0.78239 0.56649 0.0
C363 C 0.04981 0.7501 0.58357 0.0
C364 C 0.03528 0.78201 0.5326 0.0
C365 C 0.04788 0.74919 0.51545 0.0
C366 C 0.05937 0.71619 0.53282 0.0
C367 C 0.06053 0.71674 0.56649 0.0
H368 H 0.47819 0.13504 0.18133 0.0
H369 H 0.44388 0.02182 0.21544 0.0
H370 H 0.5458 0.11701 0.18731 0.0
H371 H 0.51166 0.00416 0.22208 0.0
H372 H 0.66531 0.0842 0.21977 0.0
H373 H 0.59722 0.10124 0.22479 0.0
H374 H 0.56515 0.98961 0.18644 0.0
H375 H 0.63306 0.97217 0.18205 0.0
C376 C 0.48498 0.10648 0.19056 0.0
C377 C 0.45541 0.0798 0.19758 0.0
C378 C 0.52386 0.09622 0.1942 0.0
C379 C 0.53426 0.05903 0.20502 0.0
C380 C 0.50471 0.03284 0.21322 0.0
C381 C 0.46579 0.0431 0.20958 0.0
C382 C 0.64379 0.06301 0.21285 0.0
C383 C 0.65486 0.02689 0.20022 0.0
C384 C 0.60469 0.07293 0.21554 0.0
C385 C 0.57565 0.04699 0.20571 0.0
C386 C 0.58667 0.01022 0.19451 0.0
C387 C 0.62575 1.00027 0.19183 0.0
H388 H 0.08089 0.4417 0.71897 0.0
H389 H 0.96683 0.47448 0.68581 0.0
H390 H 0.09847 0.50975 0.72339 0.0
H391 H 0.98477 0.54233 0.68959 0.0
H392 H 0.01855 0.66323 0.71752 0.0
H393 H 1.00154 0.59542 0.72498 0.0
H394 H 0.11201 0.56152 0.68544 0.0
H395 H 0.12944 0.62921 0.67859 0.0
C396 C 0.05939 0.46333 0.71293 0.0
C397 C 0.02249 0.45244 0.70175 0.0
C398 C 0.06961 0.5024 0.71526 0.0
C399 C 0.04319 0.53156 0.70656 0.0
C400 C 0.00576 0.5207 0.69679 0.0
C401 C 0.99553 0.48167 0.69443 0.0
C402 C 0.03948 0.64138 0.71079 0.0
C403 C 0.07528 0.65184 0.69716 0.0
C404 C 0.02958 0.60244 0.71491 0.0
C405 C 0.05523 0.57295 0.70555 0.0
C406 C 0.09166 0.58342 0.69321 0.0
C407 C 0.10158 0.62235 0.68909 0.0
H408 H 0.66148 0.02154 0.7813 0.0
H409 H 0.62592 0.13249 0.81914 0.0
H410 H 0.59395 0.00341 0.77421 0.0
H411 H 0.5585 0.11393 0.8127 0.0
H412 H 0.43912 0.08055 0.77998 0.0
H413 H 0.50684 0.09913 0.77525 0.0
H414 H 0.54124 0.98622 0.80976 0.0
H415 H 0.4737 0.96726 0.81383 0.0
C416 C 0.63934 0.04224 0.78787 0.0
C417 C 0.6493 0.0784 0.80108 0.0
C418 C 0.60056 0.0317 0.78397 0.0
C419 C 0.57073 0.05702 0.79316 0.0
C420 C 0.58068 0.09381 0.80506 0.0
C421 C 0.61945 0.10438 0.80894 0.0
C422 C 0.46109 0.05944 0.78614 0.0
C423 C 0.45078 0.02246 0.79757 0.0
C424 C 0.49996 0.07023 0.78361 0.0
C425 C 0.52954 0.04434 0.79241 0.0
C426 C 0.51928 0.00682 0.80248 0.0
C427 C 0.48043 0.996 0.80499 0.0
H428 H 0.02457 0.44169 0.28422 0.0
H429 H 0.1364 0.47709 0.32051 0.0
H430 H 0.00643 0.50929 0.27721 0.0
H431 H 0.11785 0.54455 0.31418 0.0
H432 H 0.97197 0.63064 0.31546 0.0
H433 H 0.99022 0.56285 0.31202 0.0
H434 H 0.1029 0.59568 0.27627 0.0
H435 H 0.08503 0.66366 0.28039 0.0
C436 C 0.04542 0.46381 0.29054 0.0
C437 C 0.0819 0.45378 0.30318 0.0
C438 C 0.03489 0.50263 0.28667 0.0
C439 C 0.06055 0.53244 0.29532 0.0
C440 C 0.09749 0.52241 0.30691 0.0
C441 C 0.10804 0.48361 0.31076 0.0
C442 C 1.00049 0.62351 0.30645 0.0
C443 C 0.02712 0.65281 0.29853 0.0
C444 C 0.01091 0.5845 0.30432 0.0
C445 C 0.04819 0.57374 0.29414 0.0
C446 C 0.07419 0.60295 0.28477 0.0
C447 C 0.0638 0.64198 0.28692 0.0
H448 H 0.1567 0.31269 0.22608 0.0
H449 H 0.14623 0.25206 0.31695 0.0
H450 H 0.20744 0.26694 0.20945 0.0
H451 H 0.19684 0.20731 0.30091 0.0
H452 H 0.2543 0.14487 0.18149 0.0
H453 H 0.20965 0.19577 0.19723 0.0
H454 H 0.26788 0.20537 0.28932 0.0
H455 H 0.3137 0.15467 0.27291 0.0
C456 C 0.16542 0.28975 0.24241 0.0
C457 C 0.14844 0.28629 0.27299 0.0
C458 C 0.19448 0.26378 0.23309 0.0
C459 C 0.20665 0.23409 0.25423 0.0
C460 C 0.18887 0.23044 0.28448 0.0
C461 C 0.15981 0.25598 0.29357 0.0
C462 C 0.25804 0.15844 0.20489 0.0
C463 C 0.28801 0.14682 0.22571 0.0
C464 C 0.23253 0.18761 0.21382 0.0
C465 C 0.23578 0.20514 0.24419 0.0
C466 C 0.26512 0.19272 0.26554 0.0
C467 C 0.29112 0.16366 0.25635 0.0
H468 H 0.94718 0.31181 0.77663 0.0
H469 H 0.95908 0.25079 0.68629 0.0
H470 H 0.89576 0.26654 0.79282 0.0
H471 H 0.90778 0.20647 0.7019 0.0
H472 H 0.79052 0.15421 0.72908 0.0
H473 H 0.83608 0.20536 0.71307 0.0
H474 H 0.89413 0.19483 0.80519 0.0
H475 H 0.84966 0.14351 0.82059 0.0
C476 C 0.93857 0.28893 0.76029 0.0
C477 C 0.95614 0.28523 0.72998 0.0
C478 C 0.90917 0.26322 0.76937 0.0
C479 C 0.89729 0.23351 0.74827 0.0
C480 C 0.91558 0.22964 0.71827 0.0
C481 C 0.94499 0.25493 0.70941 0.0
C482 C 0.81297 0.16313 0.74576 0.0
C483 C 0.81607 0.14592 0.77631 0.0
C484 C 0.83883 0.19241 0.73678 0.0
C485 C 0.86809 0.20462 0.75823 0.0
C486 C 0.8713 0.18679 0.78854 0.0
C487 C 0.8459 0.1574 0.79728 0.0
H488 H 0.95256 0.79442 0.22433 0.0
H489 H 0.96384 0.85402 0.31543 0.0
H490 H 0.90141 0.84009 0.20823 0.0
H491 H 0.91268 0.8986 0.29993 0.0
H492 H 0.79536 0.95084 0.27234 0.0
H493 H 0.84068 0.89929 0.28799 0.0
H494 H 0.90045 0.91256 0.19701 0.0
H495 H 0.8562 0.96429 0.18198 0.0
C496 C 0.94382 0.81703 0.24087 0.0
C497 C 0.96112 0.8202 0.27138 0.0
C498 C 0.91458 0.84295 0.23184 0.0
C499 C 0.90256 0.87232 0.25319 0.0
C500 C 0.92059 0.87568 0.28338 0.0
C501 C 0.94989 0.85022 0.29217 0.0
C502 C 0.81814 0.94243 0.25582 0.0
C503 C 0.82178 0.96051 0.22567 0.0
C504 C 0.84386 0.91294 0.2646 0.0
C505 C 0.87352 0.9014 0.24335 0.0
C506 C 0.8773 0.9201 0.21346 0.0
C507 C 0.85202 0.94971 0.20493 0.0
H508 H 0.15207 0.7916 0.76829 0.0
H509 H 0.13971 0.85255 0.67773 0.0
H510 H 0.20352 0.83677 0.78417 0.0
H511 H 0.1915 0.89658 0.69293 0.0
H512 H 0.30909 0.94925 0.72135 0.0
H513 H 0.2635 0.89832 0.70461 0.0
H514 H 0.20463 0.90793 0.79632 0.0
H515 H 0.24928 0.95858 0.81252 0.0
C516 C 0.16077 0.81431 0.75175 0.0
C517 C 0.14295 0.81807 0.72151 0.0
C518 C 0.19024 0.83995 0.76064 0.0
C519 C 0.20209 0.86962 0.73942 0.0
C520 C 0.18374 0.87343 0.70938 0.0
C521 C 0.1541 0.84826 0.70075 0.0
C522 C 0.28636 0.94025 0.73772 0.0
C523 C 0.2831 0.95692 0.76842 0.0
C524 C 0.26047 0.91114 0.72832 0.0
C525 C 0.23104 0.89869 0.74949 0.0
C526 C 0.22757 0.91616 0.77986 0.0
C527 C 0.25305 0.94523 0.78905 0.0
H528 H 0.89735 0.01026 0.8033 0.0
H529 H 0.80081 0.93804 0.7761 0.0
H530 H 0.94158 0.9654 0.77647 0.0
H531 H 0.84444 0.89421 0.74848 0.0
H532 H 0.9357 0.8032 0.72754 0.0
H533 H 0.89251 0.84705 0.75565 0.0
H534 H 0.96124 0.94428 0.72372 0.0
H535 H 0.00549 0.89989 0.69639 0.0
C536 C 0.8856 0.98464 0.79191 0.0
C537 C 0.84552 0.97769 0.79205 0.0
C538 C 0.9109 0.95915 0.7761 0.0
C539 C 0.89672 0.92616 0.75998 0.0
C540 C 0.85668 0.91891 0.76089 0.0
C541 C 0.83152 0.94419 0.77676 0.0
C542 C 0.94144 0.83396 0.72614 0.0
C543 C 0.97406 0.84797 0.70955 0.0
C544 C 0.91653 0.85924 0.7423 0.0
C545 C 0.92327 0.89939 0.74219 0.0
C546 C 0.95542 0.91353 0.72488 0.0
C547 C 0.98055 0.88812 0.70881 0.0
H548 H 0.20683 0.01269 0.19477 0.0
H549 H 0.30299 0.93971 0.22171 0.0
H550 H 0.16232 0.96748 0.22097 0.0
H551 H 0.25907 0.89553 0.24878 0.0
H552 H 0.09727 0.90098 0.29985 0.0
H553 H 0.14193 0.94557 0.27312 0.0
H554 H 0.21108 0.84857 0.24164 0.0
H555 H 0.16745 0.80451 0.26922 0.0
C556 C 0.21845 0.98683 0.20598 0.0
C557 C 0.25851 0.97979 0.20593 0.0
C558 C 0.19297 0.96112 0.22143 0.0
C559 C 0.20694 0.9278 0.23736 0.0
C560 C 0.24697 0.92045 0.23652 0.0
C561 C 0.2723 0.94595 0.22096 0.0
C562 C 0.12239 0.8893 0.28767 0.0
C563 C 0.12885 0.84914 0.28691 0.0
C564 C 0.14777 0.91483 0.27192 0.0
C565 C 0.18016 0.90085 0.25488 0.0
C566 C 0.18688 0.86068 0.25477 0.0
C567 C 0.16172 0.83527 0.27064 0.0
H568 H 0.09198 0.20406 0.69923 0.0
H569 H 0.16265 0.29997 0.73044 0.0
H570 H 0.13695 0.15901 0.72512 0.0
H571 H 0.20661 0.25541 0.7572 0.0
H572 H 0.29861 0.16364 0.77551 0.0
H573 H 0.25448 0.20845 0.7493 0.0
H574 H 0.15786 0.13628 0.77685 0.0
H575 H 0.20255 0.09049 0.80217 0.0
C576 C 0.11727 0.21553 0.71136 0.0
C577 C 0.12377 0.25566 0.71254 0.0
C578 C 0.14283 0.18972 0.72663 0.0
C579 C 0.17546 0.20339 0.7436 0.0
C580 C 0.18223 0.24355 0.74411 0.0
C581 C 0.15687 0.26924 0.72872 0.0
C582 C 0.26791 0.15748 0.77639 0.0
C583 C 0.25419 0.12341 0.79107 0.0
C584 C 0.24246 0.18334 0.76132 0.0
C585 C 0.20239 0.17611 0.76065 0.0
C586 C 0.18853 0.14256 0.77626 0.0
C587 C 0.21411 0.11651 0.79121 0.0
H588 H 0.94145 0.30145 0.28234 0.0
H589 H 0.01616 0.20511 0.30524 0.0
H590 H 0.89679 0.25804 0.25535 0.0
H591 H 0.97049 0.16106 0.27911 0.0
H592 H 0.90266 0.09868 0.19952 0.0
H593 H 0.94742 0.14256 0.22685 0.0
H594 H 0.85056 0.20923 0.26212 0.0
H595 H 0.80628 0.16642 0.23393 0.0
C596 C 0.94798 0.2708 0.28224 0.0
C597 C 0.98246 0.25683 0.29607 0.0
C598 C 0.92221 0.24576 0.26672 0.0
C599 C 0.92991 0.20585 0.26473 0.0
C600 C 0.96384 0.19166 0.27955 0.0
C601 C 0.98982 0.21685 0.29497 0.0
C602 C 0.89102 0.12309 0.21269 0.0
C603 C 0.85085 0.12913 0.21429 0.0
C604 C 0.91667 0.148 0.22878 0.0
C605 C 0.90279 0.17948 0.24702 0.0
C606 C 0.86257 0.18576 0.24805 0.0
C607 C 0.83704 0.16107 0.23184 0.0
loop_
_geom_bond_atom_site_label_1
_geom_bond_atom_site_label_2
_geom_bond_distance
_geom_bond_site_symmetry_2
_ccdc_geom_bond_type
Mn0 O5 2.095 . S
Mn0 O15 2.155 1_545 S
Mn0 O16 2.297 . S
Mn0 O24 2.385 . S
Mn0 O25 2.209 . S
Mn0 O26 2.094 . S
Mn1 O6 2.121 . S
Mn1 N8 2.257 . S
Mn1 N17 2.282 . S
Mn1 O25 2.215 . S
Mn1 O27 2.117 . S
C2 O24 1.234 . S
C2 O25 1.283 . S
C3 O15 1.280 1_545 S
C3 O16 1.236 . S
C4 O26 1.240 . S
C4 O27 1.264 . S
O5 Mn0 2.095 . S
O5 C14 1.250 . S
O6 Mn1 2.121 . S
O6 C14 1.258 . S
C7 N8 1.326 . S
C7 C11 1.460 . S
C7 H13 0.929 . S
N8 Mn1 2.257 . S
N8 C7 1.326 . S
N8 C12 1.362 . S
C9 C10 1.258 . S
C9 C12 1.431 . S
C9 C29 1.449 . S
C10 C9 1.258 . S
C10 C11 1.477 . S
C10 H30 0.931 . S
C11 C7 1.460 . S
C11 C10 1.477 . S
C11 H31 0.930 . S
C12 N8 1.362 . S
C12 C9 1.431 . S
C12 C22 1.476 . S
H13 C7 0.929 . S
C14 O5 1.250 . S
C14 O6 1.258 . S
O15 Mn0 2.155 1_565 S
O15 C3 1.280 1_565 S
O16 Mn0 2.297 . S
O16 C3 1.236 . S
N17 Mn1 2.282 . S
N17 C18 1.328 . S
N17 C22 1.318 . S
C18 N17 1.328 . S
C18 C19 1.457 . S
C18 H23 0.929 . S
C19 C18 1.457 . S
C19 C20 1.291 . S
C19 H32 0.931 . S
C20 C19 1.291 . S
C20 C21 1.373 . S
C20 H33 0.929 . S
C21 C20 1.373 . S
C21 C22 1.396 . S
C21 C28 1.403 . S
C22 C12 1.476 . S
C22 N17 1.318 . S
C22 C21 1.396 . S
H23 C18 0.929 . S
O24 Mn0 2.385 . S
O24 C2 1.234 . S
O25 Mn0 2.209 . S
O25 Mn1 2.215 . S
O25 C2 1.283 . S
O26 Mn0 2.094 . S
O26 C4 1.240 . S
O27 Mn1 2.117 . S
O27 C4 1.264 . S
C28 C21 1.403 . S
C28 C29 1.399 . S
C28 H34 0.929 . S
C29 C9 1.449 . S
C29 C28 1.399 . S
C29 H35 0.930 . S
H30 C10 0.931 . S
H31 C11 0.930 . S
H32 C19 0.931 . S
H33 C20 0.929 . S
H34 C28 0.929 . S
H35 C29 0.930 . S
Mn36 O41 2.095 . S
Mn36 O51 2.162 . S
Mn36 O52 2.297 . S
Mn36 O60 2.385 . S
Mn36 O61 2.209 1_455 S
Mn36 O62 2.094 . S
Mn37 O42 2.121 . S
Mn37 N44 2.257 . S
Mn37 N53 2.282 . S
Mn37 O61 2.215 . S
Mn37 O63 2.117 . S
C38 O60 1.234 1_655 S
C38 O61 1.283 . S
C39 O51 1.281 . S
C39 O52 1.236 . S
C40 O62 1.240 . S
C40 O63 1.264 1_455 S
O41 Mn36 2.095 . S
O41 C50 1.250 . S
O42 Mn37 2.121 . S
O42 C50 1.258 1_655 S
C43 N44 1.326 . S
C43 C47 1.460 . S
C43 H49 0.929 . S
N44 Mn37 2.257 . S
N44 C43 1.326 . S
N44 C48 1.362 . S
C45 C46 1.258 . S
C45 C48 1.431 . S
C45 C65 1.449 . S
C46 C45 1.258 . S
C46 C47 1.477 . S
C46 H66 0.931 . S
C47 C43 1.460 . S
C47 C46 1.477 . S
C47 H67 0.930 . S
C48 N44 1.362 . S
C48 C45 1.431 . S
C48 C58 1.476 . S
H49 C43 0.929 . S
C50 O41 1.250 . S
C50 O42 1.258 1_455 S
O51 Mn36 2.162 . S
O51 C39 1.281 . S
O52 Mn36 2.297 . S
O52 C39 1.236 . S
N53 Mn37 2.282 . S
N53 C54 1.328 . S
N53 C58 1.318 . S
C54 N53 1.328 . S
C54 C55 1.457 . S
C54 H59 0.929 . S
C55 C54 1.457 . S
C55 C56 1.291 . S
C55 H68 0.931 . S
C56 C55 1.291 . S
C56 C57 1.373 . S
C56 H69 0.929 . S
C57 C56 1.373 . S
C57 C58 1.396 . S
C57 C64 1.403 . S
C58 C48 1.476 . S
C58 N53 1.318 . S
C58 C57 1.396 . S
H59 C54 0.929 . S
O60 Mn36 2.385 . S
O60 C38 1.234 1_455 S
O61 Mn36 2.209 1_655 S
O61 Mn37 2.215 . S
O61 C38 1.283 . S
O62 Mn36 2.094 . S
O62 C40 1.240 . S
O63 Mn37 2.117 . S
O63 C40 1.264 1_655 S
C64 C57 1.403 . S
C64 C65 1.399 . S
C64 H70 0.929 . S
C65 C45 1.449 . S
C65 C64 1.399 . S
C65 H71 0.930 . S
H66 C46 0.931 . S
H67 C47 0.930 . S
H68 C55 0.931 . S
H69 C56 0.929 . S
H70 C64 0.929 . S
H71 C65 0.930 . S
Mn72 O77 2.095 . S
Mn72 O87 2.162 . S
Mn72 O88 2.297 . S
Mn72 O96 2.385 . S
Mn72 O97 2.209 1_545 S
Mn72 O98 2.094 . S
Mn73 O78 2.121 . S
Mn73 N80 2.257 . S
Mn73 N89 2.282 . S
Mn73 O97 2.215 . S
Mn73 O99 2.117 . S
C74 O96 1.234 1_565 S
C74 O97 1.283 . S
C75 O87 1.281 . S
C75 O88 1.236 . S
C76 O98 1.240 . S
C76 O99 1.264 1_545 S
O77 Mn72 2.095 . S
O77 C86 1.250 . S
O78 Mn73 2.121 . S
O78 C86 1.258 1_565 S
C79 N80 1.326 . S
C79 C83 1.460 . S
C79 H85 0.929 . S
N80 Mn73 2.257 . S
N80 C79 1.326 . S
N80 C84 1.362 . S
C81 C82 1.258 . S
C81 C84 1.431 . S
C81 C101 1.449 . S
C82 C81 1.258 . S
C82 C83 1.477 . S
C82 H102 0.931 . S
C83 C79 1.460 . S
C83 C82 1.477 . S
C83 H103 0.930 . S
C84 N80 1.362 . S
C84 C81 1.431 . S
C84 C94 1.476 . S
H85 C79 0.929 . S
C86 O77 1.250 . S
C86 O78 1.258 1_545 S
O87 Mn72 2.162 . S
O87 C75 1.281 . S
O88 Mn72 2.297 . S
O88 C75 1.236 . S
N89 Mn73 2.282 . S
N89 C90 1.328 . S
N89 C94 1.318 . S
C90 N89 1.328 . S
C90 C91 1.457 . S
C90 H95 0.929 . S
C91 C90 1.457 . S
C91 C92 1.291 . S
C91 H104 0.931 . S
C92 C91 1.291 . S
C92 C93 1.373 . S
C92 H105 0.929 . S
C93 C92 1.373 . S
C93 C94 1.396 . S
C93 C100 1.403 . S
C94 C84 1.476 . S
C94 N89 1.318 . S
C94 C93 1.396 . S
H95 C90 0.929 . S
O96 Mn72 2.385 . S
O96 C74 1.234 1_545 S
O97 Mn72 2.209 1_565 S
O97 Mn73 2.215 . S
O97 C74 1.283 . S
O98 Mn72 2.094 . S
O98 C76 1.240 . S
O99 Mn73 2.117 . S
O99 C76 1.264 1_565 S
C100 C93 1.403 . S
C100 C101 1.399 . S
C100 H106 0.929 . S
C101 C81 1.449 . S
C101 C100 1.399 . S
C101 H107 0.930 . S
H102 C82 0.931 . S
H103 C83 0.930 . S
H104 C91 0.931 . S
H105 C92 0.929 . S
H106 C100 0.929 . S
H107 C101 0.930 . S
Mn108 O113 2.095 . S
Mn108 O123 2.155 1_455 S
Mn108 O124 2.297 . S
Mn108 O132 2.385 . S
Mn108 O133 2.209 . S
Mn108 O134 2.094 . S
Mn109 O114 2.121 . S
Mn109 N116 2.257 . S
Mn109 N125 2.282 . S
Mn109 O133 2.215 . S
Mn109 O135 2.117 . S
C110 O132 1.234 . S
C110 O133 1.283 . S
C111 O123 1.280 1_455 S
C111 O124 1.236 . S
C112 O134 1.240 . S
C112 O135 1.264 . S
O113 Mn108 2.095 . S
O113 C122 1.250 . S
O114 Mn109 2.121 . S
O114 C122 1.258 . S
C115 N116 1.326 . S
C115 C119 1.460 . S
C115 H121 0.929 . S
N116 Mn109 2.257 . S
N116 C115 1.326 . S
N116 C120 1.362 . S
C117 C118 1.258 . S
C117 C120 1.431 . S
C117 C137 1.449 . S
C118 C117 1.258 . S
C118 C119 1.477 . S
C118 H138 0.931 . S
C119 C115 1.460 . S
C119 C118 1.477 . S
C119 H139 0.930 . S
C120 N116 1.362 . S
C120 C117 1.431 . S
C120 C130 1.476 . S
H121 C115 0.929 . S
C122 O113 1.250 . S
C122 O114 1.258 . S
O123 Mn108 2.155 1_655 S
O123 C111 1.280 1_655 S
O124 Mn108 2.297 . S
O124 C111 1.236 . S
N125 Mn109 2.282 . S
N125 C126 1.328 . S
N125 C130 1.318 . S
C126 N125 1.328 . S
C126 C127 1.457 . S
C126 H131 0.929 . S
C127 C126 1.457 . S
C127 C128 1.291 . S
C127 H140 0.931 . S
C128 C127 1.291 . S
C128 C129 1.373 . S
C128 H141 0.929 . S
C129 C128 1.373 . S
C129 C130 1.396 . S
C129 C136 1.403 . S
C130 C120 1.476 . S
C130 N125 1.318 . S
C130 C129 1.396 . S
H131 C126 0.929 . S
O132 Mn108 2.385 . S
O132 C110 1.234 . S
O133 Mn108 2.209 . S
O133 Mn109 2.215 . S
O133 C110 1.283 . S
O134 Mn108 2.094 . S
O134 C112 1.240 . S
O135 Mn109 2.117 . S
O135 C112 1.264 . S
C136 C129 1.403 . S
C136 C137 1.399 . S
C136 H142 0.929 . S
C137 C117 1.449 . S
C137 C136 1.399 . S
C137 H143 0.930 . S
H138 C118 0.931 . S
H139 C119 0.930 . S
H140 C127 0.931 . S
H141 C128 0.929 . S
H142 C136 0.929 . S
H143 C137 0.930 . S
Mn144 O149 2.095 . S
Mn144 O159 2.162 . S
Mn144 O160 2.297 . S
Mn144 O168 2.385 . S
Mn144 O169 2.209 1_545 S
Mn144 O170 2.094 . S
Mn145 O150 2.121 . S
Mn145 N152 2.257 . S
Mn145 N161 2.282 . S
Mn145 O169 2.215 . S
Mn145 O171 2.117 . S
C146 O168 1.234 1_565 S
C146 O169 1.283 . S
C147 O159 1.281 . S
C147 O160 1.236 . S
C148 O170 1.240 . S
C148 O171 1.264 1_545 S
O149 Mn144 2.095 . S
O149 C158 1.250 . S
O150 Mn145 2.121 . S
O150 C158 1.258 1_565 S
C151 N152 1.326 . S
C151 C155 1.460 . S
C151 H157 0.929 . S
N152 Mn145 2.257 . S
N152 C151 1.326 . S
N152 C156 1.362 . S
C153 C154 1.258 . S
C153 C156 1.431 . S
C153 C173 1.449 . S
C154 C153 1.258 . S
C154 C155 1.477 . S
C154 H174 0.931 . S
C155 C151 1.460 . S
C155 C154 1.477 . S
C155 H175 0.930 . S
C156 N152 1.362 . S
C156 C153 1.431 . S
C156 C166 1.476 . S
H157 C151 0.929 . S
C158 O149 1.250 . S
C158 O150 1.258 1_545 S
O159 Mn144 2.162 . S
O159 C147 1.281 . S
O160 Mn144 2.297 . S
O160 C147 1.236 . S
N161 Mn145 2.282 . S
N161 C162 1.328 . S
N161 C166 1.318 . S
C162 N161 1.328 . S
C162 C163 1.457 . S
C162 H167 0.929 . S
C163 C162 1.457 . S
C163 C164 1.291 . S
C163 H176 0.931 . S
C164 C163 1.291 . S
C164 C165 1.373 . S
C164 H177 0.929 . S
C165 C164 1.373 . S
C165 C166 1.396 . S
C165 C172 1.403 . S
C166 C156 1.476 . S
C166 N161 1.318 . S
C166 C165 1.396 . S
H167 C162 0.929 . S
O168 Mn144 2.385 . S
O168 C146 1.234 1_545 S
O169 Mn144 2.209 1_565 S
O169 Mn145 2.215 . S
O169 C146 1.283 . S
O170 Mn144 2.094 . S
O170 C148 1.240 . S
O171 Mn145 2.117 . S
O171 C148 1.264 1_565 S
C172 C165 1.403 . S
C172 C173 1.399 . S
C172 H178 0.929 . S
C173 C153 1.449 . S
C173 C172 1.399 . S
C173 H179 0.930 . S
H174 C154 0.931 . S
H175 C155 0.930 . S
H176 C163 0.931 . S
H177 C164 0.929 . S
H178 C172 0.929 . S
H179 C173 0.930 . S
Mn180 O185 2.095 . S
Mn180 O195 2.155 1_455 S
Mn180 O196 2.297 . S
Mn180 O204 2.385 . S
Mn180 O205 2.209 . S
Mn180 O206 2.094 . S
Mn181 O186 2.121 . S
Mn181 N188 2.257 . S
Mn181 N197 2.282 . S
Mn181 O205 2.215 . S
Mn181 O207 2.117 . S
C182 O204 1.234 . S
C182 O205 1.283 . S
C183 O195 1.280 1_455 S
C183 O196 1.236 . S
C184 O206 1.240 . S
C184 O207 1.264 . S
O185 Mn180 2.095 . S
O185 C194 1.250 . S
O186 Mn181 2.121 . S
O186 C194 1.258 . S
C187 N188 1.326 . S
C187 C191 1.460 . S
C187 H193 0.929 . S
N188 Mn181 2.257 . S
N188 C187 1.326 . S
N188 C192 1.362 . S
C189 C190 1.258 . S
C189 C192 1.431 . S
C189 C209 1.449 . S
C190 C189 1.258 . S
C190 C191 1.477 . S
C190 H210 0.931 . S
C191 C187 1.460 . S
C191 C190 1.477 . S
C191 H211 0.930 . S
C192 N188 1.362 . S
C192 C189 1.431 . S
C192 C202 1.476 . S
H193 C187 0.929 . S
C194 O185 1.250 . S
C194 O186 1.258 . S
O195 Mn180 2.155 1_655 S
O195 C183 1.280 1_655 S
O196 Mn180 2.297 . S
O196 C183 1.236 . S
N197 Mn181 2.282 . S
N197 C198 1.328 . S
N197 C202 1.318 . S
C198 N197 1.328 . S
C198 C199 1.457 . S
C198 H203 0.929 . S
C199 C198 1.457 . S
C199 C200 1.291 . S
C199 H212 0.931 . S
C200 C199 1.291 . S
C200 C201 1.373 . S
C200 H213 0.929 . S
C201 C200 1.373 . S
C201 C202 1.396 . S
C201 C208 1.403 . S
C202 C192 1.476 . S
C202 N197 1.318 . S
C202 C201 1.396 . S
H203 C198 0.929 . S
O204 Mn180 2.385 . S
O204 C182 1.234 . S
O205 Mn180 2.209 . S
O205 Mn181 2.215 . S
O205 C182 1.283 . S
O206 Mn180 2.094 . S
O206 C184 1.240 . S
O207 Mn181 2.117 . S
O207 C184 1.264 . S
C208 C201 1.403 . S
C208 C209 1.399 . S
C208 H214 0.929 . S
C209 C189 1.449 . S
C209 C208 1.399 . S
C209 H215 0.930 . S
H210 C190 0.931 . S
H211 C191 0.930 . S
H212 C199 0.931 . S
H213 C200 0.929 . S
H214 C208 0.929 . S
H215 C209 0.930 . S
Mn216 O221 2.095 . S
Mn216 O231 2.155 1_545 S
Mn216 O232 2.297 . S
Mn216 O240 2.385 . S
Mn216 O241 2.209 . S
Mn216 O242 2.094 . S
Mn217 O222 2.121 . S
Mn217 N224 2.257 . S
Mn217 N233 2.282 . S
Mn217 O241 2.215 . S
Mn217 O243 2.117 . S
C218 O240 1.234 . S
C218 O241 1.283 . S
C219 O231 1.280 1_545 S
C219 O232 1.236 . S
C220 O242 1.240 . S
C220 O243 1.264 . S
O221 Mn216 2.095 . S
O221 C230 1.250 . S
O222 Mn217 2.121 . S
O222 C230 1.258 . S
C223 N224 1.326 . S
C223 C227 1.460 . S
C223 H229 0.929 . S
N224 Mn217 2.257 . S
N224 C223 1.326 . S
N224 C228 1.362 . S
C225 C226 1.258 . S
C225 C228 1.431 . S
C225 C245 1.449 . S
C226 C225 1.258 . S
C226 C227 1.477 . S
C226 H246 0.931 . S
C227 C223 1.460 . S
C227 C226 1.477 . S
C227 H247 0.930 . S
C228 N224 1.362 . S
C228 C225 1.431 . S
C228 C238 1.476 . S
H229 C223 0.929 . S
C230 O221 1.250 . S
C230 O222 1.258 . S
O231 Mn216 2.155 1_565 S
O231 C219 1.280 1_565 S
O232 Mn216 2.297 . S
O232 C219 1.236 . S
N233 Mn217 2.282 . S
N233 C234 1.328 . S
N233 C238 1.318 . S
C234 N233 1.328 . S
C234 C235 1.457 . S
C234 H239 0.929 . S
C235 C234 1.457 . S
C235 C236 1.291 . S
C235 H248 0.931 . S
C236 C235 1.291 . S
C236 C237 1.373 . S
C236 H249 0.929 . S
C237 C236 1.373 . S
C237 C238 1.396 . S
C237 C244 1.403 . S
C238 C228 1.476 . S
C238 N233 1.318 . S
C238 C237 1.396 . S
H239 C234 0.929 . S
O240 Mn216 2.385 . S
O240 C218 1.234 . S
O241 Mn216 2.209 . S
O241 Mn217 2.215 . S
O241 C218 1.283 . S
O242 Mn216 2.094 . S
O242 C220 1.240 . S
O243 Mn217 2.117 . S
O243 C220 1.264 . S
C244 C237 1.403 . S
C244 C245 1.399 . S
C244 H250 0.929 . S
C245 C225 1.449 . S
C245 C244 1.399 . S
C245 H251 0.930 . S
H246 C226 0.931 . S
H247 C227 0.930 . S
H248 C235 0.931 . S
H249 C236 0.929 . S
H250 C244 0.929 . S
H251 C245 0.930 . S
Mn252 O257 2.095 . S
Mn252 O267 2.162 . S
Mn252 O268 2.297 . S
Mn252 O276 2.385 . S
Mn252 O277 2.209 1_455 S
Mn252 O278 2.094 . S
Mn253 O258 2.121 . S
Mn253 N260 2.257 . S
Mn253 N269 2.282 . S
Mn253 O277 2.215 . S
Mn253 O279 2.117 . S
C254 O276 1.234 1_655 S
C254 O277 1.283 . S
C255 O267 1.281 . S
C255 O268 1.236 . S
C256 O278 1.240 . S
C256 O279 1.264 1_455 S
O257 Mn252 2.095 . S
O257 C266 1.250 . S
O258 Mn253 2.121 . S
O258 C266 1.258 1_655 S
C259 N260 1.326 . S
C259 C263 1.460 . S
C259 H265 0.929 . S
N260 Mn253 2.257 . S
N260 C259 1.326 . S
N260 C264 1.362 . S
C261 C262 1.258 . S
C261 C264 1.431 . S
C261 C281 1.449 . S
C262 C261 1.258 . S
C262 C263 1.477 . S
C262 H282 0.931 . S
C263 C259 1.460 . S
C263 C262 1.477 . S
C263 H283 0.930 . S
C264 N260 1.362 . S
C264 C261 1.431 . S
C264 C274 1.476 . S
H265 C259 0.929 . S
C266 O257 1.250 . S
C266 O258 1.258 1_455 S
O267 Mn252 2.162 . S
O267 C255 1.281 . S
O268 Mn252 2.297 . S
O268 C255 1.236 . S
N269 Mn253 2.282 . S
N269 C270 1.328 . S
N269 C274 1.318 . S
C270 N269 1.328 . S
C270 C271 1.457 . S
C270 H275 0.929 . S
C271 C270 1.457 . S
C271 C272 1.291 . S
C271 H284 0.931 . S
C272 C271 1.291 . S
C272 C273 1.373 . S
C272 H285 0.929 . S
C273 C272 1.373 . S
C273 C274 1.396 . S
C273 C280 1.403 . S
C274 C264 1.476 . S
C274 N269 1.318 . S
C274 C273 1.396 . S
H275 C270 0.929 . S
O276 Mn252 2.385 . S
O276 C254 1.234 1_455 S
O277 Mn252 2.209 1_655 S
O277 Mn253 2.215 . S
O277 C254 1.283 . S
O278 Mn252 2.094 . S
O278 C256 1.240 . S
O279 Mn253 2.117 . S
O279 C256 1.264 1_655 S
C280 C273 1.403 . S
C280 C281 1.399 . S
C280 H286 0.929 . S
C281 C261 1.449 . S
C281 C280 1.399 . S
C281 H287 0.930 . S
H282 C262 0.931 . S
H283 C263 0.930 . S
H284 C271 0.931 . S
H285 C272 0.929 . S
H286 C280 0.929 . S
H287 C281 0.930 . S
H288 C296 0.950 . S
H289 C301 0.950 1_565 S
H290 C298 0.950 . S
H291 C300 0.950 1_565 S
H292 C302 0.950 1_565 S
H293 C304 0.950 1_565 S
H294 C306 0.950 . S
H295 C307 0.950 . S
C296 H288 0.950 . S
C296 C297 1.386 . S
C296 C298 1.391 . S
C297 C296 1.386 . S
C297 C301 1.393 . S
C298 H290 0.950 . S
C298 C296 1.391 . S
C298 C299 1.400 . S
C299 C298 1.400 . S
C299 C300 1.398 . S
C299 C305 1.491 1_554 S
C300 H291 0.950 1_545 S
C300 C299 1.398 . S
C300 C301 1.391 . S
C301 H289 0.950 1_545 S
C301 C297 1.393 . S
C301 C300 1.391 . S
C302 H292 0.950 1_545 S
C302 C303 1.386 . S
C302 C304 1.391 . S
C303 C302 1.386 . S
C303 C307 1.393 . S
C304 H293 0.950 1_545 S
C304 C302 1.391 . S
C304 C305 1.400 . S
C305 C299 1.491 1_556 S
C305 C304 1.400 . S
C305 C306 1.398 . S
C306 H294 0.950 . S
C306 C305 1.398 . S
C306 C307 1.391 . S
C307 H295 0.950 . S
C307 C303 1.393 . S
C307 C306 1.391 . S
H308 C316 0.950 . S
H309 C321 0.950 . S
H310 C318 0.950 . S
H311 C320 0.950 . S
H312 C322 0.950 . S
H313 C324 0.950 . S
H314 C326 0.950 . S
H315 C327 0.950 . S
C316 H308 0.950 . S
C316 C317 1.386 . S
C316 C318 1.391 . S
C317 C316 1.386 . S
C317 C321 1.393 . S
C318 H310 0.950 . S
C318 C316 1.391 . S
C318 C319 1.400 . S
C319 C318 1.400 . S
C319 C320 1.398 . S
C319 C325 1.491 . S
C320 H311 0.950 . S
C320 C319 1.398 . S
C320 C321 1.391 . S
C321 H309 0.950 . S
C321 C317 1.393 . S
C321 C320 1.391 . S
C322 H312 0.950 . S
C322 C323 1.386 . S
C322 C324 1.391 . S
C323 C322 1.386 . S
C323 C327 1.393 . S
C324 H313 0.950 . S
C324 C322 1.391 . S
C324 C325 1.400 . S
C325 C319 1.491 . S
C325 C324 1.400 . S
C325 C326 1.398 . S
C326 H314 0.950 . S
C326 C325 1.398 . S
C326 C327 1.391 . S
C327 H315 0.950 . S
C327 C323 1.393 . S
C327 C326 1.391 . S
H328 C336 0.950 . S
H329 C341 0.950 . S
H330 C338 0.950 . S
H331 C340 0.950 . S
H332 C342 0.950 . S
H333 C344 0.950 . S
H334 C346 0.950 1_565 S
H335 C347 0.950 1_565 S
C336 H328 0.950 . S
C336 C337 1.386 . S
C336 C338 1.391 . S
C337 C336 1.386 . S
C337 C341 1.393 . S
C338 H330 0.950 . S
C338 C336 1.391 . S
C338 C339 1.400 . S
C339 C338 1.400 . S
C339 C340 1.398 . S
C339 C345 1.491 1_556 S
C340 H331 0.950 . S
C340 C339 1.398 . S
C340 C341 1.391 . S
C341 H329 0.950 . S
C341 C337 1.393 . S
C341 C340 1.391 . S
C342 H332 0.950 . S
C342 C343 1.386 . S
C342 C344 1.391 . S
C343 C342 1.386 . S
C343 C347 1.393 . S
C344 H333 0.950 . S
C344 C342 1.391 . S
C344 C345 1.400 . S
C345 C339 1.491 1_554 S
C345 C344 1.400 . S
C345 C346 1.398 . S
C346 H334 0.950 1_545 S
C346 C345 1.398 . S
C346 C347 1.391 . S
C347 H335 0.950 1_545 S
C347 C343 1.393 . S
C347 C346 1.391 . S
H348 C356 0.950 1_655 S
H349 C361 0.950 . S
H350 C358 0.950 1_655 S
H351 C360 0.950 . S
H352 C362 0.950 . S
H353 C364 0.950 . S
H354 C366 0.950 1_655 S
H355 C367 0.950 . S
C356 H348 0.950 1_455 S
C356 C357 1.386 . S
C356 C358 1.391 . S
C357 C356 1.386 . S
C357 C361 1.393 . S
C358 H350 0.950 1_455 S
C358 C356 1.391 . S
C358 C359 1.400 . S
C359 C358 1.400 . S
C359 C360 1.398 . S
C359 C365 1.491 . S
C360 H351 0.950 . S
C360 C359 1.398 . S
C360 C361 1.391 . S
C361 H349 0.950 . S
C361 C357 1.393 . S
C361 C360 1.391 . S
C362 H352 0.950 . S
C362 C363 1.386 . S
C362 C364 1.391 . S
C363 C362 1.386 . S
C363 C367 1.393 . S
C364 H353 0.950 . S
C364 C362 1.391 . S
C364 C365 1.400 . S
C365 C359 1.491 . S
C365 C364 1.400 . S
C365 C366 1.398 . S
C366 H354 0.950 1_455 S
C366 C365 1.398 . S
C366 C367 1.391 . S
C367 H355 0.950 . S
C367 C363 1.393 . S
C367 C366 1.391 . S
H368 C376 0.950 . S
H369 C381 0.950 . S
H370 C378 0.950 . S
H371 C380 0.950 . S
H372 C382 0.950 . S
H373 C384 0.950 . S
H374 C386 0.950 . S
H375 C387 0.950 . S
C376 H368 0.950 . S
C376 C377 1.386 . S
C376 C378 1.391 . S
C377 C376 1.386 . S
C377 C381 1.393 . S
C378 H370 0.950 . S
C378 C376 1.391 . S
C378 C379 1.400 . S
C379 C378 1.400 . S
C379 C380 1.398 . S
C379 C385 1.491 . S
C380 H371 0.950 . S
C380 C379 1.398 . S
C380 C381 1.391 . S
C381 H369 0.950 . S
C381 C377 1.393 . S
C381 C380 1.391 . S
C382 H372 0.950 . S
C382 C383 1.386 . S
C382 C384 1.391 . S
C383 C382 1.386 . S
C383 C387 1.393 . S
C384 H373 0.950 . S
C384 C382 1.391 . S
C384 C385 1.400 . S
C385 C379 1.491 . S
C385 C384 1.400 . S
C385 C386 1.398 . S
C386 H374 0.950 . S
C386 C385 1.398 . S
C386 C387 1.391 . S
C387 H375 0.950 . S
C387 C383 1.393 . S
C387 C386 1.391 . S
H388 C396 0.950 . S
H389 C401 0.950 1_655 S
H390 C398 0.950 . S
H391 C400 0.950 1_655 S
H392 C402 0.950 . S
H393 C404 0.950 . S
H394 C406 0.950 . S
H395 C407 0.950 . S
C396 H388 0.950 . S
C396 C397 1.386 . S
C396 C398 1.391 . S
C397 C396 1.386 . S
C397 C401 1.393 . S
C398 H390 0.950 . S
C398 C396 1.391 . S
C398 C399 1.400 . S
C399 C398 1.400 . S
C399 C400 1.398 . S
C399 C405 1.491 . S
C400 H391 0.950 1_455 S
C400 C399 1.398 . S
C400 C401 1.391 . S
C401 H389 0.950 1_455 S
C401 C397 1.393 . S
C401 C400 1.391 . S
C402 H392 0.950 . S
C402 C403 1.386 . S
C402 C404 1.391 . S
C403 C402 1.386 . S
C403 C407 1.393 . S
C404 H393 0.950 . S
C404 C402 1.391 . S
C404 C405 1.400 . S
C405 C399 1.491 . S
C405 C404 1.400 . S
C405 C406 1.398 . S
C406 H394 0.950 . S
C406 C405 1.398 . S
C406 C407 1.391 . S
C407 H395 0.950 . S
C407 C403 1.393 . S
C407 C406 1.391 . S
H408 C416 0.950 . S
H409 C421 0.950 . S
H410 C418 0.950 . S
H411 C420 0.950 . S
H412 C422 0.950 . S
H413 C424 0.950 . S
H414 C426 0.950 1_565 S
H415 C427 0.959 . S
C416 H408 0.950 . S
C416 C417 1.386 . S
C416 C418 1.391 . S
C417 C416 1.386 . S
C417 C421 1.393 . S
C418 H410 0.950 . S
C418 C416 1.391 . S
C418 C419 1.400 . S
C419 C418 1.400 . S
C419 C420 1.398 . S
C419 C425 1.491 . S
C420 H411 0.950 . S
C420 C419 1.398 . S
C420 C421 1.391 . S
C421 H409 0.950 . S
C421 C417 1.393 . S
C421 C420 1.391 . S
C422 H412 0.950 . S
C422 C423 1.386 . S
C422 C424 1.391 . S
C423 C422 1.386 . S
C423 C427 1.386 1_545 S
C424 H413 0.950 . S
C424 C422 1.391 . S
C424 C425 1.400 . S
C425 C419 1.491 . S
C425 C424 1.400 . S
C425 C426 1.398 . S
C426 H414 0.950 1_545 S
C426 C425 1.398 . S
C426 C427 1.388 1_545 S
C427 H415 0.959 . S
C427 C423 1.386 1_565 S
C427 C426 1.388 1_565 S
H428 C436 0.950 . S
H429 C441 0.950 . S
H430 C438 0.950 . S
H431 C440 0.950 . S
H432 C442 0.950 . S
H433 C444 0.950 . S
H434 C446 0.950 . S
H435 C447 0.950 . S
C436 H428 0.950 . S
C436 C437 1.386 . S
C436 C438 1.391 . S
C437 C436 1.386 . S
C437 C441 1.393 . S
C438 H430 0.950 . S
C438 C436 1.391 . S
C438 C439 1.400 . S
C439 C438 1.400 . S
C439 C440 1.398 . S
C439 C445 1.491 . S
C440 H431 0.950 . S
C440 C439 1.398 . S
C440 C441 1.391 . S
C441 H429 0.950 . S
C441 C437 1.393 . S
C441 C440 1.391 . S
C442 H432 0.950 . S
C442 C443 1.386 . S
C442 C444 1.391 . S
C443 C442 1.386 . S
C443 C447 1.393 . S
C444 H433 0.950 . S
C444 C442 1.391 . S
C444 C445 1.400 . S
C445 C439 1.491 . S
C445 C444 1.400 . S
C445 C446 1.398 . S
C446 H434 0.950 . S
C446 C445 1.398 . S
C446 C447 1.391 . S
C447 H435 0.950 . S
C447 C443 1.393 . S
C447 C446 1.391 . S
H448 C456 0.950 . S
H449 C461 0.950 . S
H450 C458 0.950 . S
H451 C460 0.950 . S
H452 C462 0.950 . S
H453 C464 0.950 . S
H454 C466 0.950 . S
H455 C467 0.950 . S
C456 H448 0.950 . S
C456 C457 1.386 . S
C456 C458 1.391 . S
C457 C456 1.386 . S
C457 C461 1.393 . S
C458 H450 0.950 . S
C458 C456 1.391 . S
C458 C459 1.400 . S
C459 C458 1.400 . S
C459 C460 1.398 . S
C459 C465 1.491 . S
C460 H451 0.950 . S
C460 C459 1.398 . S
C460 C461 1.391 . S
C461 H449 0.950 . S
C461 C457 1.393 . S
C461 C460 1.391 . S
C462 H452 0.950 . S
C462 C463 1.386 . S
C462 C464 1.391 . S
C463 C462 1.386 . S
C463 C467 1.393 . S
C464 H453 0.950 . S
C464 C462 1.391 . S
C464 C465 1.400 . S
C465 C459 1.491 . S
C465 C464 1.400 . S
C465 C466 1.398 . S
C466 H454 0.950 . S
C466 C465 1.398 . S
C466 C467 1.391 . S
C467 H455 0.950 . S
C467 C463 1.393 . S
C467 C466 1.391 . S
H468 C476 0.950 . S
H469 C481 0.950 . S
H470 C478 0.950 . S
H471 C480 0.950 . S
H472 C482 0.950 . S
H473 C484 0.950 . S
H474 C486 0.950 . S
H475 C487 0.950 . S
C476 H468 0.950 . S
C476 C477 1.386 . S
C476 C478 1.391 . S
C477 C476 1.386 . S
C477 C481 1.393 . S
C478 H470 0.950 . S
C478 C476 1.391 . S
C478 C479 1.400 . S
C479 C478 1.400 . S
C479 C480 1.398 . S
C479 C485 1.491 . S
C480 H471 0.950 . S
C480 C479 1.398 . S
C480 C481 1.391 . S
C481 H469 0.950 . S
C481 C477 1.393 . S
C481 C480 1.391 . S
C482 H472 0.950 . S
C482 C483 1.386 . S
C482 C484 1.391 . S
C483 C482 1.386 . S
C483 C487 1.393 . S
C484 H473 0.950 . S
C484 C482 1.391 . S
C484 C485 1.400 . S
C485 C479 1.491 . S
C485 C484 1.400 . S
C485 C486 1.398 . S
C486 H474 0.950 . S
C486 C485 1.398 . S
C486 C487 1.391 . S
C487 H475 0.950 . S
C487 C483 1.393 . S
C487 C486 1.391 . S
H488 C496 0.950 . S
H489 C501 0.950 . S
H490 C498 0.950 . S
H491 C500 0.950 . S
H492 C502 0.950 . S
H493 C504 0.950 . S
H494 C506 0.950 . S
H495 C507 0.950 . S
C496 H488 0.950 . S
C496 C497 1.386 . S
C496 C498 1.391 . S
C497 C496 1.386 . S
C497 C501 1.393 . S
C498 H490 0.950 . S
C498 C496 1.391 . S
C498 C499 1.400 . S
C499 C498 1.400 . S
C499 C500 1.398 . S
C499 C505 1.491 . S
C500 H491 0.950 . S
C500 C499 1.398 . S
C500 C501 1.391 . S
C501 H489 0.950 . S
C501 C497 1.393 . S
C501 C500 1.391 . S
C502 H492 0.950 . S
C502 C503 1.386 . S
C502 C504 1.391 . S
C503 C502 1.386 . S
C503 C507 1.393 . S
C504 H493 0.950 . S
C504 C502 1.391 . S
C504 C505 1.400 . S
C505 C499 1.491 . S
C505 C504 1.400 . S
C505 C506 1.398 . S
C506 H494 0.950 . S
C506 C505 1.398 . S
C506 C507 1.391 . S
C507 H495 0.950 . S
C507 C503 1.393 . S
C507 C506 1.391 . S
H508 C516 0.950 . S
H509 C521 0.950 . S
H510 C518 0.950 . S
H511 C520 0.950 . S
H512 C522 0.950 . S
H513 C524 0.950 . S
H514 C526 0.950 . S
H515 C527 0.950 . S
C516 H508 0.950 . S
C516 C517 1.386 . S
C516 C518 1.391 . S
C517 C516 1.386 . S
C517 C521 1.393 . S
C518 H510 0.950 . S
C518 C516 1.391 . S
C518 C519 1.400 . S
C519 C518 1.400 . S
C519 C520 1.398 . S
C519 C525 1.491 . S
C520 H511 0.950 . S
C520 C519 1.398 . S
C520 C521 1.391 . S
C521 H509 0.950 . S
C521 C517 1.393 . S
C521 C520 1.391 . S
C522 H512 0.950 . S
C522 C523 1.386 . S
C522 C524 1.391 . S
C523 C522 1.386 . S
C523 C527 1.393 . S
C524 H513 0.950 . S
C524 C522 1.391 . S
C524 C525 1.400 . S
C525 C519 1.491 . S
C525 C524 1.400 . S
C525 C526 1.398 . S
C526 H514 0.950 . S
C526 C525 1.398 . S
C526 C527 1.391 . S
C527 H515 0.950 . S
C527 C523 1.393 . S
C527 C526 1.391 . S
H528 C536 0.950 1_545 S
H529 C541 0.950 . S
H530 C538 0.950 . S
H531 C540 0.950 . S
H532 C542 0.950 . S
H533 C544 0.950 . S
H534 C546 0.950 . S
H535 C547 0.950 1_455 S
C536 H528 0.950 1_565 S
C536 C537 1.386 . S
C536 C538 1.391 . S
C537 C536 1.386 . S
C537 C541 1.393 . S
C538 H530 0.950 . S
C538 C536 1.391 . S
C538 C539 1.400 . S
C539 C538 1.400 . S
C539 C540 1.398 . S
C539 C545 1.491 . S
C540 H531 0.950 . S
C540 C539 1.398 . S
C540 C541 1.391 . S
C541 H529 0.950 . S
C541 C537 1.393 . S
C541 C540 1.391 . S
C542 H532 0.950 . S
C542 C543 1.386 . S
C542 C544 1.391 . S
C543 C542 1.386 . S
C543 C547 1.393 . S
C544 H533 0.950 . S
C544 C542 1.391 . S
C544 C545 1.400 . S
C545 C539 1.491 . S
C545 C544 1.400 . S
C545 C546 1.398 . S
C546 H534 0.950 . S
C546 C545 1.398 . S
C546 C547 1.391 . S
C547 H535 0.950 1_655 S
C547 C543 1.393 . S
C547 C546 1.391 . S
H548 C556 0.950 . S
H549 C561 0.950 . S
H550 C558 0.950 . S
H551 C560 0.950 . S
H552 C562 0.950 . S
H553 C564 0.950 . S
H554 C566 0.950 . S
H555 C567 0.950 . S
C556 H548 0.950 . S
C556 C557 1.386 . S
C556 C558 1.391 . S
C557 C556 1.386 . S
C557 C561 1.393 . S
C558 H550 0.950 . S
C558 C556 1.391 . S
C558 C559 1.400 . S
C559 C558 1.400 . S
C559 C560 1.398 . S
C559 C565 1.491 . S
C560 H551 0.950 . S
C560 C559 1.398 . S
C560 C561 1.391 . S
C561 H549 0.950 . S
C561 C557 1.393 . S
C561 C560 1.391 . S
C562 H552 0.950 . S
C562 C563 1.386 . S
C562 C564 1.391 . S
C563 C562 1.386 . S
C563 C567 1.393 . S
C564 H553 0.950 . S
C564 C562 1.391 . S
C564 C565 1.400 . S
C565 C559 1.491 . S
C565 C564 1.400 . S
C565 C566 1.398 . S
C566 H554 0.950 . S
C566 C565 1.398 . S
C566 C567 1.391 . S
C567 H555 0.950 . S
C567 C563 1.393 . S
C567 C566 1.391 . S
H568 C576 0.950 . S
H569 C581 0.950 . S
H570 C578 0.950 . S
H571 C580 0.950 . S
H572 C582 0.950 . S
H573 C584 0.950 . S
H574 C586 0.950 . S
H575 C587 0.950 . S
C576 H568 0.950 . S
C576 C577 1.386 . S
C576 C578 1.391 . S
C577 C576 1.386 . S
C577 C581 1.393 . S
C578 H570 0.950 . S
C578 C576 1.391 . S
C578 C579 1.400 . S
C579 C578 1.400 . S
C579 C580 1.398 . S
C579 C585 1.491 . S
C580 H571 0.950 . S
C580 C579 1.398 . S
C580 C581 1.391 . S
C581 H569 0.950 . S
C581 C577 1.393 . S
C581 C580 1.391 . S
C582 H572 0.950 . S
C582 C583 1.386 . S
C582 C584 1.391 . S
C583 C582 1.386 . S
C583 C587 1.393 . S
C584 H573 0.950 . S
C584 C582 1.391 . S
C584 C585 1.400 . S
C585 C579 1.491 . S
C585 C584 1.400 . S
C585 C586 1.398 . S
C586 H574 0.950 . S
C586 C585 1.398 . S
C586 C587 1.391 . S
C587 H575 0.950 . S
C587 C583 1.393 . S
C587 C586 1.391 . S
H588 C596 0.950 . S
H589 C601 0.950 1_455 S
H590 C598 0.950 . S
H591 C600 0.950 . S
H592 C602 0.950 . S
H593 C604 0.950 . S
H594 C606 0.950 . S
H595 C607 0.950 . S
C596 H588 0.950 . S
C596 C597 1.386 . S
C596 C598 1.391 . S
C597 C596 1.386 . S
C597 C601 1.393 . S
C598 H590 0.950 . S
C598 C596 1.391 . S
C598 C599 1.400 . S
C599 C598 1.400 . S
C599 C600 1.398 . S
C599 C605 1.491 . S
C600 H591 0.950 . S
C600 C599 1.398 . S
C600 C601 1.391 . S
C601 H589 0.950 1_655 S
C601 C597 1.393 . S
C601 C600 1.391 . S
C602 H592 0.950 . S
C602 C603 1.386 . S
C602 C604 1.391 . S
C603 C602 1.386 . S
C603 C607 1.393 . S
C604 H593 0.950 . S
C604 C602 1.391 . S
C604 C605 1.400 . S
C605 C599 1.491 . S
C605 C604 1.400 . S
C605 C606 1.398 . S
C606 H594 0.950 . S
C606 C605 1.398 . S
C606 C607 1.391 . S
C607 H595 0.950 . S
C607 C603 1.393 . S
C607 C606 1.391 . S
C297 C14 1.495 . S
C303 C158 1.509 . S
C317 C50 1.494 . S
C323 C194 1.492 . S
C337 C230 1.502 . S
C343 C86 1.491 . S
C357 C266 1.504 . S
C363 C122 1.515 . S
C377 C4 1.267 . S
C383 C76 1.266 . S
C397 C40 1.260 . S
C403 C112 1.270 . S
C417 C220 1.259 . S
C423 C148 1.270 . S
C437 C184 1.258 . S
C443 C256 1.257 . S
C457 C182 1.260 . S
C463 C2 1.268 . S
C477 C38 1.269 . S
C483 C218 1.259 . S
C497 C254 1.267 . S
C503 C74 1.261 . S
C517 C110 1.272 . S
C523 C146 1.257 . S
C537 C219 1.330 1_565 S
C543 C111 1.330 1_655 S
C557 C3 1.329 1_565 S
C563 C255 1.329 . S
C577 C39 1.329 . S
C583 C147 1.329 . S
C597 C183 1.328 1_655 S
C603 C75 1.329 . S
