# Generated by pormake.
# Topology mok, (4)-cn, num edge types: 1
# Building blocks:
#     Node 0, Type 0, BuildingBlock: NAHDIM_clean_sbu_0, # of connection points: 4
#     Node 1, Type 0, BuildingBlock: NAHDIM_clean_sbu_0, # of connection points: 4
#     Node 2, Type 0, BuildingBlock: NAHDIM_clean_sbu_0, # of connection points: 4
#     Node 3, Type 0, BuildingBlock: NAHDIM_clean_sbu_0, # of connection points: 4
#     Node 4, Type 0, BuildingBlock: NAHDIM_clean_sbu_0, # of connection points: 4
#     Node 5, Type 0, BuildingBlock: NAHDIM_clean_sbu_0, # of connection points: 4
#     Node 6, Type 0, BuildingBlock: NAHDIM_clean_sbu_0, # of connection points: 4
#     Node 7, Type 0, BuildingBlock: NAHDIM_clean_sbu_0, # of connection points: 4
#     Edge 8, Type (0, 0), BuildingBlock: CIFDUS_clean_linker_0, # of connection points: 2
#     Edge 9, Type (0, 0), BuildingBlock: CIFDUS_clean_linker_0, # of connection points: 2
#     Edge 10, Type (0, 0), BuildingBlock: CIFDUS_clean_linker_0, # of connection points: 2
#     Edge 11, Type (0, 0), BuildingBlock: CIFDUS_clean_linker_0, # of connection points: 2
#     Edge 12, Type (0, 0), BuildingBlock: CIFDUS_clean_linker_0, # of connection points: 2
#     Edge 13, Type (0, 0), BuildingBlock: CIFDUS_clean_linker_0, # of connection points: 2
#     Edge 14, Type (0, 0), BuildingBlock: CIFDUS_clean_linker_0, # of connection points: 2
#     Edge 15, Type (0, 0), BuildingBlock: CIFDUS_clean_linker_0, # of connection points: 2
#     Edge 16, Type (0, 0), BuildingBlock: CIFDUS_clean_linker_0, # of connection points: 2
#     Edge 17, Type (0, 0), BuildingBlock: CIFDUS_clean_linker_0, # of connection points: 2
#     Edge 18, Type (0, 0), BuildingBlock: CIFDUS_clean_linker_0, # of connection points: 2
#     Edge 19, Type (0, 0), BuildingBlock: CIFDUS_clean_linker_0, # of connection points: 2
#     Edge 20, Type (0, 0), BuildingBlock: CIFDUS_clean_linker_0, # of connection points: 2
#     Edge 21, Type (0, 0), BuildingBlock: CIFDUS_clean_linker_0, # of connection points: 2
#     Edge 22, Type (0, 0), BuildingBlock: CIFDUS_clean_linker_0, # of connection points: 2
#     Edge 23, Type (0, 0), BuildingBlock: CIFDUS_clean_linker_0, # of connection points: 2
# Relax obj value: 0.050
# Max RMSD: 0.061
# Mean RMSD: 0.061
data_MOF--net-mok--node1-NAHDIM_clean_sbu_0--edge1-CIFDUS_clean_linker_0
_symmetry_space_group_name_H-M    P1
_symmetry_Int_Tables_number       1
_symmetry_cell_setting            triclinic
loop_
_symmetry_equiv_pos_as_xyz
'x, y, z'
_cell_length_a     44.059398
_cell_length_b     17.588436
_cell_length_c     21.869474
_cell_angle_alpha  89.997743
_cell_angle_beta   90.124404
_cell_angle_gamma 90.205039
loop_
_atom_site_label
_atom_site_type_symbol
_atom_site_fract_x
_atom_site_fract_y
_atom_site_fract_z
_atom_type_partial_charge
C0 C 0.53734 0.17984 0.02258 0.0
O1 O 0.52636 0.24917 0.02067 0.0
O2 O 0.58376 0.33285 0.96415 0.0
Zn3 Zn 0.59291 0.26314 0.03584 0.0
O4 O 0.58592 0.31217 0.11864 0.0
C5 C 0.65742 0.27391 0.01062 0.0
O6 O 0.6498 0.34122 0.98969 0.0
O7 O 0.56579 0.17095 0.02904 0.0
C8 C 0.60267 0.36563 0.13888 0.0
O9 O 0.62455 0.3926 0.10436 0.0
C10 C 0.57813 0.40355 0.96766 0.0
O11 O 0.5771 0.43655 0.02143 0.0
O12 O 0.63686 0.23013 0.03155 0.0
C13 C 0.44914 0.78247 0.99872 0.0
O14 O 0.46004 0.71334 0.00398 0.0
O15 O 0.4009 0.64972 0.89859 0.0
Zn16 Zn 0.39422 0.69781 0.98141 0.0
O17 O 0.40243 0.62862 0.05359 0.0
C18 C 0.3304 0.67614 0.99589 0.0
O19 O 0.33969 0.6061 0.0046 0.0
O20 O 0.4209 0.79091 0.98884 0.0
C21 C 0.40453 0.55653 0.05396 0.0
O22 O 0.40205 0.51851 0.00252 0.0
C23 C 0.42184 0.60534 0.88091 0.0
O24 O 0.44302 0.58363 0.91941 0.0
O25 O 0.34997 0.7278 0.98515 0.0
C26 C 0.55824 0.79689 0.52726 0.0
O27 O 0.54869 0.73937 0.49397 0.0
O28 O 0.59739 0.63068 0.62917 0.0
Zn29 Zn 0.6085 0.69666 0.55697 0.0
O30 O 0.60519 0.64532 0.47419 0.0
C31 C 0.67399 0.69255 0.55005 0.0
O32 O 0.6688 0.62637 0.52414 0.0
O33 O 0.58263 0.79036 0.55783 0.0
C34 C 0.60336 0.57452 0.46291 0.0
O35 O 0.60293 0.52561 0.50826 0.0
C36 C 0.575 0.58536 0.63426 0.0
O37 O 0.55618 0.57584 0.5882 0.0
O38 O 0.65166 0.73204 0.5682 0.0
C39 C 0.4512 0.16054 0.496 0.0
O40 O 0.46183 0.21853 0.52739 0.0
O41 O 0.41148 0.31496 0.55564 0.0
Zn42 Zn 0.40098 0.26223 0.47559 0.0
O43 O 0.40834 0.32788 0.40105 0.0
C44 C 0.33636 0.26448 0.50521 0.0
O45 O 0.34372 0.32257 0.54004 0.0
O46 O 0.42578 0.16674 0.46895 0.0
C47 C 0.39074 0.38314 0.38921 0.0
O48 O 0.36855 0.39889 0.42708 0.0
C49 C 0.41615 0.38584 0.56248 0.0
O50 O 0.41444 0.43127 0.51501 0.0
O51 O 0.35694 0.23077 0.47505 0.0
C52 C 0.04283 0.72007 0.03113 0.0
O53 O 0.03166 0.78831 0.04005 0.0
O54 O 0.08495 0.8505 0.91859 0.0
Zn55 Zn 0.09589 0.80693 0.00064 0.0
O56 O 0.0889 0.88365 0.06744 0.0
C57 C 0.15948 0.82656 0.97735 0.0
O58 O 0.14948 0.89047 0.95384 0.0
O59 O 0.07041 0.71347 0.01513 0.0
C60 C 0.09307 0.95458 0.05972 0.0
O61 O 0.10149 0.97979 0.00581 0.0
C62 C 0.06198 0.8917 0.90705 0.0
O63 O 0.04299 0.90879 0.95114 0.0
O64 O 0.1405 0.77985 1.00012 0.0
C65 C 0.9575 0.31897 0.02704 0.0
O66 O 0.96895 0.25012 0.02715 0.0
O67 O 0.91217 0.18616 0.93028 0.0
Zn68 Zn 0.9024 0.23451 0.01175 0.0
O69 O 0.9084 0.16657 0.08531 0.0
C70 C 0.83747 0.21746 0.01313 0.0
O71 O 0.84484 0.1456 0.01959 0.0
O72 O 0.92896 0.327 0.0216 0.0
C73 C 0.90856 0.09432 0.08663 0.0
O74 O 0.90505 0.05578 0.03566 0.0
C75 C 0.93289 0.13919 0.91615 0.0
O76 O 0.9513 0.11307 0.95844 0.0
O77 O 0.85847 0.26701 0.00908 0.0
C78 C 0.03939 0.30064 0.49204 0.0
O79 O 0.0261 0.23532 0.47998 0.0
O80 O 0.07911 0.1417 0.57901 0.0
Zn81 Zn 0.09176 0.20604 0.50767 0.0
O82 O 0.08503 0.14617 0.43085 0.0
C83 C 0.1571 0.1946 0.49352 0.0
O84 O 0.15011 0.13393 0.46135 0.0
O85 O 0.06744 0.30164 0.50532 0.0
C86 C 0.08784 0.17484 0.37789 0.0
O87 O 0.0951 0.24705 0.37251 0.0
C88 C 0.08737 0.07257 0.57904 0.0
O89 O 0.10314 0.04672 0.53262 0.0
O90 O 0.13596 0.23381 0.51708 0.0
C91 C 0.96881 0.71713 0.50802 0.0
O92 O 0.98197 0.78217 0.52154 0.0
O93 O 0.92635 0.85881 0.58948 0.0
Zn94 Zn 0.91443 0.80726 0.5101 0.0
O95 O 0.919 0.87333 0.43518 0.0
C96 C 0.85011 0.80242 0.54359 0.0
O97 O 0.85615 0.8645 0.5748 0.0
O98 O 0.94026 0.715 0.5003 0.0
C99 C 0.90306 0.93258 0.42706 0.0
O100 O 0.88404 0.95395 0.46987 0.0
C101 C 0.93527 0.92721 0.59546 0.0
O102 O 0.93724 0.97132 0.5472 0.0
O103 O 0.87122 0.77013 0.51397 0.0
H104 H 0.78784 0.12796 0.03165 0.0
H105 H 0.81435 0.35804 0.98756 0.0
H106 H 0.76106 0.39512 0.98156 0.0
H107 H 0.70698 0.36253 0.98934 0.0
H108 H 0.68049 0.13323 0.03588 0.0
H109 H 0.73376 0.09561 0.04022 0.0
C110 C 0.782 0.18623 0.02066 0.0
C111 C 0.80512 0.24006 0.01 0.0
C112 C 0.75131 0.20733 0.01764 0.0
C113 C 0.79707 0.3154 0.99608 0.0
C114 C 0.76658 0.33668 0.99255 0.0
C115 C 0.71282 0.30422 1.00019 0.0
C116 C 0.68972 0.25076 0.0121 0.0
C117 C 0.74352 0.28313 0.00325 0.0
C118 C 0.69777 0.17559 0.02655 0.0
C119 C 0.72825 0.15399 0.02905 0.0
H120 H 0.18756 0.69631 0.01398 0.0
H121 H 0.20562 0.92023 0.9415 0.0
H122 H 0.25997 0.89437 0.94208 0.0
H123 H 0.30251 0.80793 0.96236 0.0
H124 H 0.28434 0.5831 0.03282 0.0
H125 H 0.23006 0.60977 0.03394 0.0
C126 C 0.20337 0.7395 0.99836 0.0
C127 C 0.19245 0.81008 0.97775 0.0
C128 C 0.23466 0.72418 0.99847 0.0
C129 C 0.21332 0.86529 0.95752 0.0
C130 C 0.24446 0.85064 0.95788 0.0
C131 C 0.28669 0.76486 0.97817 0.0
C132 C 0.29754 0.69367 0.9975 0.0
C133 C 0.2554 0.78027 0.97819 0.0
C134 C 0.27667 0.63837 0.01753 0.0
C135 C 0.24557 0.65354 0.01823 0.0
H136 H 0.79871 0.86327 0.59218 0.0
H137 H 0.83141 0.67005 0.49019 0.0
H138 H 0.78008 0.61841 0.48457 0.0
H139 H 0.72579 0.62886 0.5068 0.0
H140 H 0.69272 0.82283 0.60725 0.0
H141 H 0.74429 0.8731 0.61532 0.0
C142 C 0.79464 0.80975 0.5689 0.0
C143 C 0.81892 0.77075 0.54163 0.0
C144 C 0.76497 0.78042 0.56544 0.0
C145 C 0.81317 0.70149 0.5115 0.0
C146 C 0.7838 0.67178 0.50825 0.0
C147 C 0.72983 0.682 0.53067 0.0
C148 C 0.70538 0.72195 0.55631 0.0
C149 C 0.75951 0.71091 0.53479 0.0
C150 C 0.71109 0.79087 0.58695 0.0
C151 C 0.74059 0.81974 0.59161 0.0
H152 H 0.2072 0.12495 0.44796 0.0
H153 H 0.17927 0.31487 0.55928 0.0
H154 H 0.23219 0.35224 0.57376 0.0
H155 H 0.28641 0.3319 0.55399 0.0
H156 H 0.31417 0.14258 0.44179 0.0
H157 H 0.26132 0.10414 0.42876 0.0
C158 C 0.21265 0.17451 0.47545 0.0
C159 C 0.18924 0.21702 0.50241 0.0
C160 C 0.24313 0.19583 0.48352 0.0
C161 C 0.19678 0.2811 0.5379 0.0
C162 C 0.22707 0.30254 0.54626 0.0
C163 C 0.28093 0.28206 0.52685 0.0
C164 C 0.30427 0.24027 0.49894 0.0
C165 C 0.25043 0.26042 0.5192 0.0
C166 C 0.2967 0.17593 0.46378 0.0
C167 C 0.26645 0.15386 0.45625 0.0
H168 H 0.61972 0.50365 0.18215 0.0
H169 H 0.57613 0.29421 0.23601 0.0
H170 H 0.57238 0.34021 0.34131 0.0
H171 H 0.58313 0.43864 0.41885 0.0
H172 H 0.62424 0.65055 0.36304 0.0
H173 H 0.62723 0.60505 0.25782 0.0
C174 C 0.60932 0.46819 0.21693 0.0
C175 C 0.59846 0.39544 0.2015 0.0
C176 C 0.60686 0.4954 0.27707 0.0
C177 C 0.58464 0.35051 0.24679 0.0
C178 C 0.58259 0.37665 0.30703 0.0
C179 C 0.59268 0.47481 0.38358 0.0
C180 C 0.60367 0.54758 0.39883 0.0
C181 C 0.5939 0.44874 0.32284 0.0
C182 C 0.61561 0.5943 0.35252 0.0
C183 C 0.61741 0.56827 0.29234 0.0
H184 H 0.38853 0.60867 0.16574 0.0
H185 H 0.42507 0.41223 0.07399 0.0
H186 H 0.42632 0.34279 0.171 0.0
H187 H 0.41463 0.33616 0.28116 0.0
H188 H 0.37425 0.52977 0.37017 0.0
H189 H 0.37707 0.60235 0.2751 0.0
C190 C 0.39706 0.55091 0.16706 0.0
C191 C 0.40679 0.51567 0.11286 0.0
C192 C 0.39691 0.51082 0.2225 0.0
C193 C 0.41738 0.44047 0.11513 0.0
C194 C 0.41811 0.40081 0.17055 0.0
C195 C 0.40676 0.39451 0.27976 0.0
C196 C 0.39433 0.42775 0.33251 0.0
C197 C 0.40761 0.43513 0.22442 0.0
C198 C 0.38382 0.50297 0.33002 0.0
C199 C 0.38543 0.54447 0.27573 0.0
H200 H 0.44176 0.46877 0.83903 0.0
H201 H 0.40069 0.67891 0.78065 0.0
H202 H 0.39738 0.63142 0.6759 0.0
H203 H 0.40382 0.52814 0.60192 0.0
H204 H 0.44066 0.31359 0.66132 0.0
H205 H 0.44807 0.36459 0.76448 0.0
C206 C 0.43237 0.50423 0.80315 0.0
C207 C 0.42154 0.57719 0.81734 0.0
C208 C 0.42964 0.47559 0.74333 0.0
C209 C 0.40905 0.62237 0.77075 0.0
C210 C 0.40717 0.59531 0.71089 0.0
C211 C 0.41371 0.49279 0.63735 0.0
C212 C 0.42175 0.41738 0.62411 0.0
C213 C 0.41703 0.52171 0.6968 0.0
C214 C 0.43418 0.37182 0.67058 0.0
C215 C 0.43844 0.40095 0.7295 0.0
H216 H 0.55951 0.35726 0.85486 0.0
H217 H 0.59207 0.55318 0.95434 0.0
H218 H 0.59341 0.62716 0.8599 0.0
H219 H 0.58808 0.63412 0.74831 0.0
H220 H 0.55216 0.44206 0.64899 0.0
H221 H 0.54917 0.36854 0.74407 0.0
C222 C 0.5667 0.4163 0.85577 0.0
C223 C 0.576 0.44954 0.91129 0.0
C224 C 0.56693 0.45895 0.80138 0.0
C225 C 0.58481 0.52636 0.91216 0.0
C226 C 0.58571 0.5686 0.85815 0.0
C227 C 0.57949 0.57623 0.74763 0.0
C228 C 0.57076 0.54299 0.69186 0.0
C229 C 0.57728 0.53513 0.80243 0.0
C230 C 0.55909 0.4686 0.69151 0.0
C231 C 0.55748 0.42657 0.74576 0.0
H232 H 0.07756 0.92004 0.17657 0.0
H233 H 0.10277 0.1082 0.06025 0.0
H234 H 0.1019 0.19395 0.14802 0.0
H235 H 0.09658 0.21411 0.25871 0.0
H236 H 0.07213 0.02484 0.37464 0.0
H237 H 0.07001 0.94118 0.28596 0.0
C238 C 0.0827 0.97988 0.17025 0.0
C239 C 0.09044 0.00747 0.11199 0.0
C240 C 0.08242 0.02872 0.22092 0.0
C241 C 0.09687 0.0853 0.10465 0.0
C242 C 0.09642 0.13443 0.15485 0.0
C243 C 0.0906 0.15468 0.26454 0.0
C244 C 0.08474 0.12579 0.32331 0.0
C245 C 0.08964 0.10654 0.21334 0.0
C246 C 0.07692 0.04862 0.32999 0.0
C247 C 0.07571 0.00061 0.27929 0.0
H248 H 0.92085 0.879 0.31639 0.0
H249 H 0.88849 0.08076 0.40716 0.0
H250 H 0.88895 0.14976 0.31014 0.0
H251 H 0.89671 0.15135 0.19916 0.0
H252 H 0.9256 0.94729 0.10689 0.0
H253 H 0.92836 0.88046 0.20487 0.0
C254 C 0.91416 0.93827 0.31495 0.0
C255 C 0.90475 0.9749 0.36882 0.0
C256 C 0.9137 0.97695 0.25874 0.0
C257 C 0.89575 0.05134 0.36623 0.0
C258 C 0.89602 0.09079 0.31081 0.0
C259 C 0.90382 0.09239 0.20052 0.0
C260 C 0.91102 0.05435 0.1459 0.0
C261 C 0.90467 0.05396 0.25673 0.0
C262 C 0.91984 0.97772 0.14831 0.0
C263 C 0.92146 0.93955 0.20431 0.0
H264 H 0.92492 0.07063 0.63402 0.0
H265 H 0.95765 0.85273 0.69502 0.0
H266 H 0.96314 0.90179 0.79933 0.0
H267 H 0.95453 0.00391 0.87465 0.0
H268 H 0.91683 0.21718 0.81417 0.0
H269 H 0.91743 0.17303 0.70839 0.0
C270 C 0.93359 0.03426 0.67008 0.0
C271 C 0.94085 0.95834 0.65712 0.0
C272 C 0.93549 0.06189 0.73017 0.0
C273 C 0.95173 0.91135 0.70422 0.0
C274 C 0.95486 0.93934 0.76377 0.0
C275 C 0.94675 0.04083 0.83815 0.0
C276 C 0.93551 0.11348 0.85211 0.0
C277 C 0.94617 0.01407 0.77755 0.0
C278 C 0.92531 0.1607 0.80454 0.0
C279 C 0.92568 0.13557 0.74405 0.0
H280 H 0.0919 0.85209 0.80425 0.0
H281 H 0.0246 0.00837 0.87216 0.0
H282 H 0.02468 0.0754 0.77414 0.0
H283 H 0.04799 0.09705 0.67297 0.0
H284 H 0.1148 0.93856 0.60605 0.0
H285 H 0.11073 0.86495 0.7 0.0
C286 C 0.07708 0.90052 0.79756 0.0
C287 C 0.05878 0.9262 0.8458 0.0
C288 C 0.07739 0.93888 0.7415 0.0
C289 C 0.03919 0.98797 0.83595 0.0
C290 C 0.03931 0.02652 0.78 0.0
C291 C 0.06146 0.04605 0.67883 0.0
C292 C 0.08205 0.02403 0.63306 0.0
C293 C 0.059 0.00375 0.73309 0.0
C294 C 0.09894 0.9571 0.64073 0.0
C295 C 0.0967 0.91501 0.69452 0.0
H296 H 0.43385 0.93249 0.99436 0.0
H297 H 0.51054 0.78254 0.01554 0.0
H298 H 0.54447 0.89181 0.0247 0.0
H299 H 0.55252 0.0299 0.02675 0.0
H300 H 0.47587 0.18004 0.00604 0.0
H301 H 0.4419 0.07076 0.9967 0.0
C302 C 0.45798 0.92365 0.00096 0.0
C303 C 0.46957 0.84929 0.00424 0.0
C304 C 0.47744 0.98682 0.00631 0.0
C305 C 0.50093 0.83904 0.01288 0.0
C306 C 0.52041 0.90155 0.01812 0.0
C307 C 0.52839 0.03881 0.02019 0.0
C308 C 0.51682 0.11319 0.01709 0.0
C309 C 0.50892 0.97568 0.01491 0.0
C310 C 0.48545 0.12351 0.00861 0.0
C311 C 0.46596 0.06099 0.00324 0.0
H312 H 0.50638 0.83183 0.46538 0.0
H313 H 0.57237 0.92564 0.591 0.0
H314 H 0.54538 0.04632 0.5915 0.0
H315 H 0.50315 0.1254 0.55658 0.0
H316 H 0.43685 0.03206 0.43151 0.0
H317 H 0.46397 0.91124 0.43043 0.0
C318 C 0.51484 0.87859 0.49293 0.0
C319 C 0.54137 0.86952 0.52807 0.0
C320 C 0.49923 0.94809 0.49304 0.0
C321 C 0.552 0.93088 0.56349 0.0
C322 C 0.53661 6e-05 0.56381 0.0
C323 C 0.49465 0.07877 0.52891 0.0
C324 C 0.46803 0.0879 0.49416 0.0
C325 C 0.51023 0.00934 0.52871 0.0
C326 C 0.4573 0.02666 0.45874 0.0
C327 C 0.47277 0.95746 0.4581 0.0
H328 H 0.05958 0.57146 0.02535 0.0
H329 H 0.98146 0.71628 0.04763 0.0
H330 H 0.94826 0.60499 0.04968 0.0
H331 H 0.94117 0.4669 0.04154 0.0
H332 H 0.01934 0.32195 0.02068 0.0
H333 H 0.0527 0.43299 0.02187 0.0
C334 C 0.03531 0.57871 0.03089 0.0
C335 C 0.02304 0.65217 0.03595 0.0
C336 C 0.01631 0.51446 0.03211 0.0
C337 C 0.99154 0.66045 0.04356 0.0
C338 C 0.9725 0.59682 0.04461 0.0
C339 C 0.96551 0.45955 0.0374 0.0
C340 C 0.97769 0.38623 0.03062 0.0
C341 C 0.9846 0.52362 0.03832 0.0
C342 C 0.00932 0.37771 0.02586 0.0
C343 C 0.02844 0.44121 0.02644 0.0
H344 H 0.06089 0.44364 0.51093 0.0
H345 H 0.97875 0.31864 0.47028 0.0
H346 H 0.94989 0.43689 0.47016 0.0
H347 H 0.94784 0.575 0.4835 0.0
H348 H 0.02992 0.70003 0.52466 0.0
H349 H 0.059 0.58212 0.52239 0.0
C350 C 0.03668 0.44215 0.50196 0.0
C351 C 0.02199 0.37232 0.49083 0.0
C352 C 0.02023 0.51025 0.50202 0.0
C353 C 0.99062 0.37155 0.47908 0.0
C354 C 0.97409 0.43914 0.47901 0.0
C355 C 0.97211 0.57663 0.4918 0.0
C356 C 0.98666 0.64627 0.50439 0.0
C357 C 0.98865 0.50871 0.49069 0.0
C358 C 0.01814 0.64724 0.51493 0.0
C359 C 0.03478 0.57983 0.51371 0.0
loop_
_geom_bond_atom_site_label_1
_geom_bond_atom_site_label_2
_geom_bond_distance
_geom_bond_site_symmetry_2
_ccdc_geom_bond_type
C0 O1 1.160 1_554 S
C0 O7 1.185 . S
O1 C0 1.160 1_556 S
O2 Zn3 1.899 1_556 S
O2 C10 1.284 . S
Zn3 O2 1.899 1_554 S
Zn3 O4 2.032 . S
Zn3 O7 2.086 . S
Zn3 O12 1.977 . S
O4 Zn3 2.032 . S
O4 C8 1.278 . S
C5 O6 1.203 1_554 S
C5 O12 1.266 . S
O6 C5 1.203 1_556 S
O7 C0 1.185 . S
O7 Zn3 2.086 . S
C8 O4 1.278 . S
C8 O9 1.211 . S
O9 C8 1.211 . S
C10 O2 1.284 . S
C10 O11 1.273 . S
O11 C10 1.273 . S
O12 Zn3 1.977 . S
O12 C5 1.266 . S
C13 O14 1.160 1_554 S
C13 O20 1.185 . S
O14 C13 1.160 1_556 S
O15 Zn16 1.899 1_556 S
O15 C23 1.284 . S
Zn16 O15 1.899 1_554 S
Zn16 O17 2.032 . S
Zn16 O20 2.086 . S
Zn16 O25 1.977 . S
O17 Zn16 2.032 . S
O17 C21 1.278 . S
C18 O19 1.203 1_554 S
C18 O25 1.266 . S
O19 C18 1.203 1_556 S
O20 C13 1.185 . S
O20 Zn16 2.086 . S
C21 O17 1.278 . S
C21 O22 1.211 . S
O22 C21 1.211 . S
C23 O15 1.284 . S
C23 O24 1.273 . S
O24 C23 1.273 . S
O25 Zn16 1.977 . S
O25 C18 1.266 . S
C26 O27 1.160 . S
C26 O33 1.185 . S
O27 C26 1.160 . S
O28 Zn29 1.899 . S
O28 C36 1.284 . S
Zn29 O28 1.899 . S
Zn29 O30 2.032 . S
Zn29 O33 2.086 . S
Zn29 O38 1.977 . S
O30 Zn29 2.032 . S
O30 C34 1.278 . S
C31 O32 1.203 . S
C31 O38 1.267 . S
O32 C31 1.203 . S
O33 C26 1.185 . S
O33 Zn29 2.086 . S
C34 O30 1.278 . S
C34 O35 1.211 . S
O35 C34 1.211 . S
C36 O28 1.284 . S
C36 O37 1.273 . S
O37 C36 1.273 . S
O38 Zn29 1.977 . S
O38 C31 1.267 . S
C39 O40 1.160 . S
C39 O46 1.185 . S
O40 C39 1.160 . S
O41 Zn42 1.899 . S
O41 C49 1.284 . S
Zn42 O41 1.899 . S
Zn42 O43 2.032 . S
Zn42 O46 2.086 . S
Zn42 O51 1.977 . S
O43 Zn42 2.032 . S
O43 C47 1.278 . S
C44 O45 1.203 . S
C44 O51 1.267 . S
O45 C44 1.203 . S
O46 C39 1.185 . S
O46 Zn42 2.086 . S
C47 O43 1.278 . S
C47 O48 1.211 . S
O48 C47 1.211 . S
C49 O41 1.284 . S
C49 O50 1.273 . S
O50 C49 1.273 . S
O51 Zn42 1.977 . S
O51 C44 1.267 . S
C52 O53 1.160 1_554 S
C52 O59 1.185 . S
O53 C52 1.160 1_556 S
O54 Zn55 1.899 1_556 S
O54 C62 1.284 . S
Zn55 O54 1.899 1_554 S
Zn55 O56 2.032 . S
Zn55 O59 2.086 . S
Zn55 O64 1.977 . S
O56 Zn55 2.032 . S
O56 C60 1.278 . S
C57 O58 1.203 1_554 S
C57 O64 1.266 . S
O58 C57 1.203 1_556 S
O59 C52 1.185 . S
O59 Zn55 2.086 . S
C60 O56 1.278 . S
C60 O61 1.211 . S
O61 C60 1.211 . S
C62 O54 1.284 . S
C62 O63 1.273 . S
O63 C62 1.273 . S
O64 Zn55 1.977 . S
O64 C57 1.266 . S
C65 O66 1.160 1_554 S
C65 O72 1.185 . S
O66 C65 1.160 1_556 S
O67 Zn68 1.899 1_556 S
O67 C75 1.284 . S
Zn68 O67 1.899 1_554 S
Zn68 O69 2.032 . S
Zn68 O72 2.086 . S
Zn68 O77 1.977 . S
O69 Zn68 2.032 . S
O69 C73 1.278 . S
C70 O71 1.203 1_554 S
C70 O77 1.266 . S
O71 C70 1.203 1_556 S
O72 C65 1.185 . S
O72 Zn68 2.086 . S
C73 O69 1.278 . S
C73 O74 1.211 . S
O74 C73 1.211 . S
C75 O67 1.284 . S
C75 O76 1.273 . S
O76 C75 1.273 . S
O77 Zn68 1.977 . S
O77 C70 1.266 . S
C78 O79 1.160 . S
C78 O85 1.185 . S
O79 C78 1.160 . S
O80 Zn81 1.899 . S
O80 C88 1.284 . S
Zn81 O80 1.899 . S
Zn81 O82 2.032 . S
Zn81 O85 2.086 . S
Zn81 O90 1.977 . S
O82 Zn81 2.032 . S
O82 C86 1.278 . S
C83 O84 1.203 . S
C83 O90 1.267 . S
O84 C83 1.203 . S
O85 C78 1.185 . S
O85 Zn81 2.086 . S
C86 O82 1.278 . S
C86 O87 1.211 . S
O87 C86 1.211 . S
C88 O80 1.284 . S
C88 O89 1.273 . S
O89 C88 1.273 . S
O90 Zn81 1.977 . S
O90 C83 1.267 . S
C91 O92 1.160 . S
C91 O98 1.185 . S
O92 C91 1.160 . S
O93 Zn94 1.899 . S
O93 C101 1.284 . S
Zn94 O93 1.899 . S
Zn94 O95 2.032 . S
Zn94 O98 2.086 . S
Zn94 O103 1.977 . S
O95 Zn94 2.032 . S
O95 C99 1.278 . S
C96 O97 1.203 . S
C96 O103 1.267 . S
O97 C96 1.203 . S
O98 C91 1.185 . S
O98 Zn94 2.086 . S
C99 O95 1.278 . S
C99 O100 1.211 . S
O100 C99 1.211 . S
C101 O93 1.284 . S
C101 O102 1.273 . S
O102 C101 1.273 . S
O103 Zn94 1.977 . S
O103 C96 1.267 . S
H104 C110 0.930 . S
H105 C113 0.930 . S
H106 C114 0.930 . S
H107 C115 0.930 . S
H108 C118 0.930 . S
H109 C119 0.930 . S
C110 H104 0.930 . S
C110 C111 1.355 1_556 S
C110 C112 1.415 . S
C111 C110 1.355 1_554 S
C111 C113 1.419 . S
C112 C110 1.415 . S
C112 C117 1.425 1_556 S
C112 C119 1.409 . S
C113 H105 0.930 . S
C113 C111 1.419 . S
C113 C114 1.362 . S
C114 H106 0.930 . S
C114 C113 1.362 . S
C114 C117 1.409 . S
C115 H107 0.930 . S
C115 C116 1.355 . S
C115 C117 1.415 . S
C116 C115 1.355 . S
C116 C118 1.419 1_554 S
C117 C112 1.425 1_554 S
C117 C114 1.409 . S
C117 C115 1.415 . S
C118 H108 0.930 . S
C118 C116 1.419 1_556 S
C118 C119 1.362 . S
C119 H109 0.930 . S
C119 C112 1.409 . S
C119 C118 1.362 . S
H120 C126 0.930 . S
H121 C129 0.930 . S
H122 C130 0.930 . S
H123 C131 0.930 . S
H124 C134 0.930 . S
H125 C135 0.930 . S
C126 H120 0.930 . S
C126 C127 1.355 1_556 S
C126 C128 1.415 . S
C127 C126 1.355 1_554 S
C127 C129 1.419 . S
C128 C126 1.415 . S
C128 C133 1.425 1_556 S
C128 C135 1.409 . S
C129 H121 0.930 . S
C129 C127 1.419 . S
C129 C130 1.362 . S
C130 H122 0.930 . S
C130 C129 1.362 . S
C130 C133 1.409 . S
C131 H123 0.930 . S
C131 C132 1.355 . S
C131 C133 1.415 . S
C132 C131 1.355 . S
C132 C134 1.419 1_554 S
C133 C128 1.425 1_554 S
C133 C130 1.409 . S
C133 C131 1.415 . S
C134 H124 0.930 . S
C134 C132 1.419 1_556 S
C134 C135 1.362 . S
C135 H125 0.930 . S
C135 C128 1.409 . S
C135 C134 1.362 . S
H136 C142 0.930 . S
H137 C145 0.930 . S
H138 C146 0.930 . S
H139 C147 0.930 . S
H140 C150 0.930 . S
H141 C151 0.930 . S
C142 H136 0.930 . S
C142 C143 1.355 . S
C142 C144 1.415 . S
C143 C142 1.355 . S
C143 C145 1.419 . S
C144 C142 1.415 . S
C144 C149 1.425 . S
C144 C151 1.409 . S
C145 H137 0.930 . S
C145 C143 1.419 . S
C145 C146 1.362 . S
C146 H138 0.930 . S
C146 C145 1.362 . S
C146 C149 1.409 . S
C147 H139 0.930 . S
C147 C148 1.355 . S
C147 C149 1.415 . S
C148 C147 1.355 . S
C148 C150 1.419 . S
C149 C144 1.425 . S
C149 C146 1.409 . S
C149 C147 1.415 . S
C150 H140 0.930 . S
C150 C148 1.419 . S
C150 C151 1.362 . S
C151 H141 0.930 . S
C151 C144 1.409 . S
C151 C150 1.362 . S
H152 C158 0.930 . S
H153 C161 0.930 . S
H154 C162 0.930 . S
H155 C163 0.930 . S
H156 C166 0.930 . S
H157 C167 0.930 . S
C158 H152 0.930 . S
C158 C159 1.355 . S
C158 C160 1.415 . S
C159 C158 1.355 . S
C159 C161 1.419 . S
C160 C158 1.415 . S
C160 C165 1.425 . S
C160 C167 1.409 . S
C161 H153 0.930 . S
C161 C159 1.419 . S
C161 C162 1.362 . S
C162 H154 0.930 . S
C162 C161 1.362 . S
C162 C165 1.409 . S
C163 H155 0.930 . S
C163 C164 1.355 . S
C163 C165 1.415 . S
C164 C163 1.355 . S
C164 C166 1.419 . S
C165 C160 1.425 . S
C165 C162 1.409 . S
C165 C163 1.415 . S
C166 H156 0.930 . S
C166 C164 1.419 . S
C166 C167 1.362 . S
C167 H157 0.930 . S
C167 C160 1.409 . S
C167 C166 1.362 . S
H168 C174 0.930 . S
H169 C177 0.930 . S
H170 C178 0.930 . S
H171 C179 0.930 . S
H172 C182 0.930 . S
H173 C183 0.930 . S
C174 H168 0.930 . S
C174 C175 1.355 . S
C174 C176 1.415 . S
C175 C174 1.355 . S
C175 C177 1.419 . S
C176 C174 1.415 . S
C176 C181 1.425 . S
C176 C183 1.409 . S
C177 H169 0.930 . S
C177 C175 1.419 . S
C177 C178 1.362 . S
C178 H170 0.930 . S
C178 C177 1.362 . S
C178 C181 1.409 . S
C179 H171 0.930 . S
C179 C180 1.355 . S
C179 C181 1.415 . S
C180 C179 1.355 . S
C180 C182 1.419 . S
C181 C176 1.425 . S
C181 C178 1.409 . S
C181 C179 1.415 . S
C182 H172 0.930 . S
C182 C180 1.419 . S
C182 C183 1.362 . S
C183 H173 0.930 . S
C183 C176 1.409 . S
C183 C182 1.362 . S
H184 C190 0.930 . S
H185 C193 0.930 . S
H186 C194 0.930 . S
H187 C195 0.930 . S
H188 C198 0.930 . S
H189 C199 0.930 . S
C190 H184 0.930 . S
C190 C191 1.355 . S
C190 C192 1.415 . S
C191 C190 1.355 . S
C191 C193 1.419 . S
C192 C190 1.415 . S
C192 C197 1.425 . S
C192 C199 1.409 . S
C193 H185 0.930 . S
C193 C191 1.419 . S
C193 C194 1.362 . S
C194 H186 0.930 . S
C194 C193 1.362 . S
C194 C197 1.409 . S
C195 H187 0.930 . S
C195 C196 1.355 . S
C195 C197 1.415 . S
C196 C195 1.355 . S
C196 C198 1.419 . S
C197 C192 1.425 . S
C197 C194 1.409 . S
C197 C195 1.415 . S
C198 H188 0.930 . S
C198 C196 1.419 . S
C198 C199 1.362 . S
C199 H189 0.930 . S
C199 C192 1.409 . S
C199 C198 1.362 . S
H200 C206 0.930 . S
H201 C209 0.930 . S
H202 C210 0.930 . S
H203 C211 0.930 . S
H204 C214 0.930 . S
H205 C215 0.930 . S
C206 H200 0.930 . S
C206 C207 1.355 . S
C206 C208 1.415 . S
C207 C206 1.355 . S
C207 C209 1.419 . S
C208 C206 1.415 . S
C208 C213 1.425 . S
C208 C215 1.409 . S
C209 H201 0.930 . S
C209 C207 1.419 . S
C209 C210 1.362 . S
C210 H202 0.930 . S
C210 C209 1.362 . S
C210 C213 1.409 . S
C211 H203 0.930 . S
C211 C212 1.355 . S
C211 C213 1.415 . S
C212 C211 1.355 . S
C212 C214 1.419 . S
C213 C208 1.425 . S
C213 C210 1.409 . S
C213 C211 1.415 . S
C214 H204 0.930 . S
C214 C212 1.419 . S
C214 C215 1.362 . S
C215 H205 0.930 . S
C215 C208 1.409 . S
C215 C214 1.362 . S
H216 C222 0.930 . S
H217 C225 0.930 . S
H218 C226 0.930 . S
H219 C227 0.930 . S
H220 C230 0.930 . S
H221 C231 0.930 . S
C222 H216 0.930 . S
C222 C223 1.355 . S
C222 C224 1.415 . S
C223 C222 1.355 . S
C223 C225 1.419 . S
C224 C222 1.415 . S
C224 C229 1.425 . S
C224 C231 1.409 . S
C225 H217 0.930 . S
C225 C223 1.419 . S
C225 C226 1.362 . S
C226 H218 0.930 . S
C226 C225 1.362 . S
C226 C229 1.409 . S
C227 H219 0.930 . S
C227 C228 1.355 . S
C227 C229 1.415 . S
C228 C227 1.355 . S
C228 C230 1.419 . S
C229 C224 1.425 . S
C229 C226 1.409 . S
C229 C227 1.415 . S
C230 H220 0.930 . S
C230 C228 1.419 . S
C230 C231 1.362 . S
C231 H221 0.930 . S
C231 C224 1.409 . S
C231 C230 1.362 . S
H232 C238 0.930 . S
H233 C241 0.930 . S
H234 C242 0.930 . S
H235 C243 0.930 . S
H236 C246 0.930 . S
H237 C247 0.930 . S
C238 H232 0.930 . S
C238 C239 1.355 . S
C238 C240 1.415 . S
C239 C238 1.355 . S
C239 C241 1.419 . S
C240 C238 1.415 . S
C240 C245 1.425 1_565 S
C240 C247 1.409 . S
C241 H233 0.930 . S
C241 C239 1.419 . S
C241 C242 1.362 1_565 S
C242 H234 0.930 . S
C242 C241 1.362 1_545 S
C242 C245 1.409 . S
C243 H235 0.930 . S
C243 C244 1.355 . S
C243 C245 1.415 . S
C244 C243 1.355 . S
C244 C246 1.419 . S
C245 C240 1.425 1_545 S
C245 C242 1.409 . S
C245 C243 1.415 . S
C246 H236 0.930 . S
C246 C244 1.419 . S
C246 C247 1.362 1_545 S
C247 H237 0.930 . S
C247 C240 1.409 . S
C247 C246 1.362 1_565 S
H248 C254 0.930 . S
H249 C257 0.930 . S
H250 C258 0.930 . S
H251 C259 0.930 . S
H252 C262 0.930 . S
H253 C263 0.930 . S
C254 H248 0.930 . S
C254 C255 1.355 . S
C254 C256 1.415 . S
C255 C254 1.355 . S
C255 C257 1.419 1_565 S
C256 C254 1.415 . S
C256 C261 1.425 1_565 S
C256 C263 1.409 . S
C257 H249 0.930 . S
C257 C255 1.419 1_545 S
C257 C258 1.362 . S
C258 H250 0.930 . S
C258 C257 1.362 . S
C258 C261 1.409 . S
C259 H251 0.930 . S
C259 C260 1.355 . S
C259 C261 1.415 . S
C260 C259 1.355 . S
C260 C262 1.419 1_545 S
C261 C256 1.425 1_545 S
C261 C258 1.409 . S
C261 C259 1.415 . S
C262 H252 0.930 . S
C262 C260 1.419 1_565 S
C262 C263 1.362 . S
C263 H253 0.930 . S
C263 C256 1.409 . S
C263 C262 1.362 . S
H264 C270 0.937 . S
H265 C273 0.930 . S
H266 C274 0.930 . S
H267 C275 0.937 . S
H268 C278 0.930 . S
H269 C279 0.930 . S
C270 H264 0.937 . S
C270 C271 1.344 1_545 S
C270 C272 1.418 . S
C271 C270 1.344 1_565 S
C271 C273 1.419 . S
C272 C270 1.418 . S
C272 C277 1.425 1_545 S
C272 C279 1.409 . S
C273 H265 0.930 . S
C273 C271 1.419 . S
C273 C274 1.362 . S
C274 H266 0.930 . S
C274 C273 1.362 . S
C274 C277 1.409 . S
C275 H267 0.937 . S
C275 C276 1.344 1_565 S
C275 C277 1.418 . S
C276 C275 1.344 1_545 S
C276 C278 1.419 . S
C277 C272 1.425 1_565 S
C277 C274 1.409 . S
C277 C275 1.418 . S
C278 H268 0.930 . S
C278 C276 1.419 . S
C278 C279 1.362 . S
C279 H269 0.930 . S
C279 C272 1.409 . S
C279 C278 1.362 . S
H280 C286 0.930 . S
H281 C289 0.930 . S
H282 C290 0.930 . S
H283 C291 0.930 . S
H284 C294 0.930 . S
H285 C295 0.930 . S
C286 H280 0.930 . S
C286 C287 1.355 . S
C286 C288 1.415 . S
C287 C286 1.355 . S
C287 C289 1.420 1_565 S
C288 C286 1.415 . S
C288 C293 1.425 1_565 S
C288 C295 1.409 . S
C289 H281 0.930 . S
C289 C287 1.420 1_545 S
C289 C290 1.361 . S
C290 H282 0.930 . S
C290 C289 1.361 . S
C290 C293 1.409 . S
C291 H283 0.930 . S
C291 C292 1.355 . S
C291 C293 1.415 . S
C292 C291 1.355 . S
C292 C294 1.420 1_545 S
C293 C288 1.425 1_545 S
C293 C290 1.409 . S
C293 C291 1.415 . S
C294 H284 0.930 . S
C294 C292 1.420 1_565 S
C294 C295 1.361 . S
C295 H285 0.930 . S
C295 C288 1.409 . S
C295 C294 1.361 . S
H296 C302 0.930 . S
H297 C305 0.930 . S
H298 C306 0.930 . S
H299 C307 0.930 . S
H300 C310 0.930 . S
H301 C311 0.930 . S
C302 H296 0.930 . S
C302 C303 1.355 . S
C302 C304 1.418 . S
C303 C302 1.355 . S
C303 C305 1.419 1_554 S
C304 C302 1.418 . S
C304 C309 1.425 1_564 S
C304 C311 1.406 1_565 S
C305 H297 0.930 . S
C305 C303 1.419 1_556 S
C305 C306 1.362 . S
C306 H298 0.930 . S
C306 C305 1.362 . S
C306 C309 1.406 1_565 S
C307 H299 0.930 . S
C307 C308 1.355 1_556 S
C307 C309 1.418 . S
C308 C307 1.355 1_554 S
C308 C310 1.419 . S
C309 C304 1.425 1_546 S
C309 C306 1.406 1_545 S
C309 C307 1.418 . S
C310 H300 0.930 . S
C310 C308 1.419 . S
C310 C311 1.362 . S
C311 H301 0.930 . S
C311 C304 1.406 1_545 S
C311 C310 1.362 . S
H312 C318 0.930 . S
H313 C321 0.930 . S
H314 C322 0.930 . S
H315 C323 0.930 . S
H316 C326 0.930 . S
H317 C327 0.930 . S
C318 H312 0.930 . S
C318 C319 1.355 . S
C318 C320 1.415 . S
C319 C318 1.355 . S
C319 C321 1.419 . S
C320 C318 1.415 . S
C320 C325 1.425 1_565 S
C320 C327 1.409 . S
C321 H313 0.930 . S
C321 C319 1.419 . S
C321 C322 1.362 1_565 S
C322 H314 0.930 . S
C322 C321 1.362 1_545 S
C322 C325 1.409 . S
C323 H315 0.930 . S
C323 C324 1.355 . S
C323 C325 1.415 . S
C324 C323 1.355 . S
C324 C326 1.419 . S
C325 C320 1.425 1_545 S
C325 C322 1.409 . S
C325 C323 1.415 . S
C326 H316 0.930 . S
C326 C324 1.419 . S
C326 C327 1.362 1_545 S
C327 H317 0.930 . S
C327 C320 1.409 . S
C327 C326 1.362 1_565 S
H328 C334 0.930 . S
H329 C337 0.930 1_655 S
H330 C338 0.930 . S
H331 C339 0.930 . S
H332 C342 0.930 1_455 S
H333 C343 0.930 . S
C334 H328 0.930 . S
C334 C335 1.355 . S
C334 C336 1.415 . S
C335 C334 1.355 . S
C335 C337 1.419 1_554 S
C336 C334 1.415 . S
C336 C341 1.430 1_455 S
C336 C343 1.409 . S
C337 H329 0.930 1_455 S
C337 C335 1.419 1_556 S
C337 C338 1.362 1_455 S
C338 H330 0.930 . S
C338 C337 1.362 1_655 S
C338 C341 1.405 1_556 S
C339 H331 0.930 . S
C339 C340 1.355 1_556 S
C339 C341 1.414 1_556 S
C340 C339 1.355 1_554 S
C340 C342 1.419 . S
C341 C336 1.430 1_655 S
C341 C338 1.405 1_554 S
C341 C339 1.414 1_554 S
C342 H332 0.930 1_655 S
C342 C340 1.419 . S
C342 C343 1.362 1_655 S
C343 H333 0.930 . S
C343 C336 1.409 . S
C343 C342 1.362 1_455 S
H344 C350 0.930 . S
H345 C353 0.930 . S
H346 C354 0.930 . S
H347 C355 0.930 . S
H348 C358 0.930 . S
H349 C359 0.930 . S
C350 H344 0.930 . S
C350 C351 1.355 . S
C350 C352 1.415 . S
C351 C350 1.355 . S
C351 C353 1.419 . S
C352 C350 1.415 . S
C352 C357 1.425 1_455 S
C352 C359 1.409 . S
C353 H345 0.930 . S
C353 C351 1.419 . S
C353 C354 1.362 1_455 S
C354 H346 0.930 . S
C354 C353 1.362 1_655 S
C354 C357 1.409 . S
C355 H347 0.930 . S
C355 C356 1.355 . S
C355 C357 1.415 . S
C356 C355 1.355 . S
C356 C358 1.419 . S
C357 C352 1.425 1_655 S
C357 C354 1.409 . S
C357 C355 1.415 . S
C358 H348 0.930 . S
C358 C356 1.419 . S
C358 C359 1.362 1_655 S
C359 H349 0.930 . S
C359 C352 1.409 . S
C359 C358 1.362 1_455 S
C111 C70 1.499 . S
C116 C5 1.489 . S
C127 C57 1.449 . S
C132 C18 1.436 . S
C143 C96 1.485 . S
C148 C31 1.498 . S
C159 C83 1.499 . S
C164 C44 1.488 . S
C175 C8 1.310 . S
C180 C34 1.359 . S
C191 C21 1.353 . S
C196 C47 1.335 . S
C207 C23 1.389 . S
C212 C49 1.385 . S
C223 C10 1.367 . S
C228 C36 1.377 . S
C239 C60 1.315 . S
C244 C86 1.370 . S
C255 C99 1.364 . S
C260 C73 1.323 . S
C271 C101 1.388 . S
C276 C75 1.387 . S
C287 C62 1.370 . S
C292 C88 1.365 . S
C303 C13 1.466 . S
C308 C0 1.515 . S
C319 C26 1.502 . S
C324 C39 1.488 . S
C335 C52 1.471 . S
C340 C65 1.506 . S
C351 C78 1.467 . S
C356 C91 1.516 . S
