# Generated by pormake.
# Topology umu, (4)-cn, num edge types: 1
# Building blocks:
#     Node 0, Type 0, BuildingBlock: ICAMEG_clean_sbu_1, # of connection points: 4
#     Node 1, Type 0, BuildingBlock: ICAMEG_clean_sbu_1, # of connection points: 4
#     Node 2, Type 0, BuildingBlock: ICAMEG_clean_sbu_1, # of connection points: 4
#     Node 3, Type 0, BuildingBlock: ICAMEG_clean_sbu_1, # of connection points: 4
#     Node 4, Type 0, BuildingBlock: ICAMEG_clean_sbu_1, # of connection points: 4
#     Node 5, Type 0, BuildingBlock: ICAMEG_clean_sbu_1, # of connection points: 4
#     Node 6, Type 0, BuildingBlock: ICAMEG_clean_sbu_1, # of connection points: 4
#     Node 7, Type 0, BuildingBlock: ICAMEG_clean_sbu_1, # of connection points: 4
#     Node 8, Type 0, BuildingBlock: ICAMEG_clean_sbu_1, # of connection points: 4
#     Node 9, Type 0, BuildingBlock: ICAMEG_clean_sbu_1, # of connection points: 4
#     Node 10, Type 0, BuildingBlock: ICAMEG_clean_sbu_1, # of connection points: 4
#     Node 11, Type 0, BuildingBlock: ICAMEG_clean_sbu_1, # of connection points: 4
#     Node 12, Type 0, BuildingBlock: ICAMEG_clean_sbu_1, # of connection points: 4
#     Node 13, Type 0, BuildingBlock: ICAMEG_clean_sbu_1, # of connection points: 4
#     Node 14, Type 0, BuildingBlock: ICAMEG_clean_sbu_1, # of connection points: 4
#     Node 15, Type 0, BuildingBlock: ICAMEG_clean_sbu_1, # of connection points: 4
#     Node 16, Type 0, BuildingBlock: ICAMEG_clean_sbu_1, # of connection points: 4
#     Node 17, Type 0, BuildingBlock: ICAMEG_clean_sbu_1, # of connection points: 4
#     Node 18, Type 0, BuildingBlock: ICAMEG_clean_sbu_1, # of connection points: 4
#     Node 19, Type 0, BuildingBlock: ICAMEG_clean_sbu_1, # of connection points: 4
#     Node 20, Type 0, BuildingBlock: ICAMEG_clean_sbu_1, # of connection points: 4
#     Node 21, Type 0, BuildingBlock: ICAMEG_clean_sbu_1, # of connection points: 4
#     Node 22, Type 0, BuildingBlock: ICAMEG_clean_sbu_1, # of connection points: 4
#     Node 23, Type 0, BuildingBlock: ICAMEG_clean_sbu_1, # of connection points: 4
#     Node 24, Type 0, BuildingBlock: ICAMEG_clean_sbu_1, # of connection points: 4
#     Node 25, Type 0, BuildingBlock: ICAMEG_clean_sbu_1, # of connection points: 4
#     Node 26, Type 0, BuildingBlock: ICAMEG_clean_sbu_1, # of connection points: 4
#     Node 27, Type 0, BuildingBlock: ICAMEG_clean_sbu_1, # of connection points: 4
#     Node 28, Type 0, BuildingBlock: ICAMEG_clean_sbu_1, # of connection points: 4
#     Node 29, Type 0, BuildingBlock: ICAMEG_clean_sbu_1, # of connection points: 4
#     Node 30, Type 0, BuildingBlock: ICAMEG_clean_sbu_1, # of connection points: 4
#     Node 31, Type 0, BuildingBlock: ICAMEG_clean_sbu_1, # of connection points: 4
#     Edge 32, Type (0, 0), BuildingBlock: CIFDUS_clean_linker_0, # of connection points: 2
#     Edge 33, Type (0, 0), BuildingBlock: CIFDUS_clean_linker_0, # of connection points: 2
#     Edge 34, Type (0, 0), BuildingBlock: CIFDUS_clean_linker_0, # of connection points: 2
#     Edge 35, Type (0, 0), BuildingBlock: CIFDUS_clean_linker_0, # of connection points: 2
#     Edge 36, Type (0, 0), BuildingBlock: CIFDUS_clean_linker_0, # of connection points: 2
#     Edge 37, Type (0, 0), BuildingBlock: CIFDUS_clean_linker_0, # of connection points: 2
#     Edge 38, Type (0, 0), BuildingBlock: CIFDUS_clean_linker_0, # of connection points: 2
#     Edge 39, Type (0, 0), BuildingBlock: CIFDUS_clean_linker_0, # of connection points: 2
#     Edge 40, Type (0, 0), BuildingBlock: CIFDUS_clean_linker_0, # of connection points: 2
#     Edge 41, Type (0, 0), BuildingBlock: CIFDUS_clean_linker_0, # of connection points: 2
#     Edge 42, Type (0, 0), BuildingBlock: CIFDUS_clean_linker_0, # of connection points: 2
#     Edge 43, Type (0, 0), BuildingBlock: CIFDUS_clean_linker_0, # of connection points: 2
#     Edge 44, Type (0, 0), BuildingBlock: CIFDUS_clean_linker_0, # of connection points: 2
#     Edge 45, Type (0, 0), BuildingBlock: CIFDUS_clean_linker_0, # of connection points: 2
#     Edge 46, Type (0, 0), BuildingBlock: CIFDUS_clean_linker_0, # of connection points: 2
#     Edge 47, Type (0, 0), BuildingBlock: CIFDUS_clean_linker_0, # of connection points: 2
#     Edge 48, Type (0, 0), BuildingBlock: CIFDUS_clean_linker_0, # of connection points: 2
#     Edge 49, Type (0, 0), BuildingBlock: CIFDUS_clean_linker_0, # of connection points: 2
#     Edge 50, Type (0, 0), BuildingBlock: CIFDUS_clean_linker_0, # of connection points: 2
#     Edge 51, Type (0, 0), BuildingBlock: CIFDUS_clean_linker_0, # of connection points: 2
#     Edge 52, Type (0, 0), BuildingBlock: CIFDUS_clean_linker_0, # of connection points: 2
#     Edge 53, Type (0, 0), BuildingBlock: CIFDUS_clean_linker_0, # of connection points: 2
#     Edge 54, Type (0, 0), BuildingBlock: CIFDUS_clean_linker_0, # of connection points: 2
#     Edge 55, Type (0, 0), BuildingBlock: CIFDUS_clean_linker_0, # of connection points: 2
#     Edge 56, Type (0, 0), BuildingBlock: CIFDUS_clean_linker_0, # of connection points: 2
#     Edge 57, Type (0, 0), BuildingBlock: CIFDUS_clean_linker_0, # of connection points: 2
#     Edge 58, Type (0, 0), BuildingBlock: CIFDUS_clean_linker_0, # of connection points: 2
#     Edge 59, Type (0, 0), BuildingBlock: CIFDUS_clean_linker_0, # of connection points: 2
#     Edge 60, Type (0, 0), BuildingBlock: CIFDUS_clean_linker_0, # of connection points: 2
#     Edge 61, Type (0, 0), BuildingBlock: CIFDUS_clean_linker_0, # of connection points: 2
#     Edge 62, Type (0, 0), BuildingBlock: CIFDUS_clean_linker_0, # of connection points: 2
#     Edge 63, Type (0, 0), BuildingBlock: CIFDUS_clean_linker_0, # of connection points: 2
#     Edge 64, Type (0, 0), BuildingBlock: CIFDUS_clean_linker_0, # of connection points: 2
#     Edge 65, Type (0, 0), BuildingBlock: CIFDUS_clean_linker_0, # of connection points: 2
#     Edge 66, Type (0, 0), BuildingBlock: CIFDUS_clean_linker_0, # of connection points: 2
#     Edge 67, Type (0, 0), BuildingBlock: CIFDUS_clean_linker_0, # of connection points: 2
#     Edge 68, Type (0, 0), BuildingBlock: CIFDUS_clean_linker_0, # of connection points: 2
#     Edge 69, Type (0, 0), BuildingBlock: CIFDUS_clean_linker_0, # of connection points: 2
#     Edge 70, Type (0, 0), BuildingBlock: CIFDUS_clean_linker_0, # of connection points: 2
#     Edge 71, Type (0, 0), BuildingBlock: CIFDUS_clean_linker_0, # of connection points: 2
#     Edge 72, Type (0, 0), BuildingBlock: CIFDUS_clean_linker_0, # of connection points: 2
#     Edge 73, Type (0, 0), BuildingBlock: CIFDUS_clean_linker_0, # of connection points: 2
#     Edge 74, Type (0, 0), BuildingBlock: CIFDUS_clean_linker_0, # of connection points: 2
#     Edge 75, Type (0, 0), BuildingBlock: CIFDUS_clean_linker_0, # of connection points: 2
#     Edge 76, Type (0, 0), BuildingBlock: CIFDUS_clean_linker_0, # of connection points: 2
#     Edge 77, Type (0, 0), BuildingBlock: CIFDUS_clean_linker_0, # of connection points: 2
#     Edge 78, Type (0, 0), BuildingBlock: CIFDUS_clean_linker_0, # of connection points: 2
#     Edge 79, Type (0, 0), BuildingBlock: CIFDUS_clean_linker_0, # of connection points: 2
#     Edge 80, Type (0, 0), BuildingBlock: CIFDUS_clean_linker_0, # of connection points: 2
#     Edge 81, Type (0, 0), BuildingBlock: CIFDUS_clean_linker_0, # of connection points: 2
#     Edge 82, Type (0, 0), BuildingBlock: CIFDUS_clean_linker_0, # of connection points: 2
#     Edge 83, Type (0, 0), BuildingBlock: CIFDUS_clean_linker_0, # of connection points: 2
#     Edge 84, Type (0, 0), BuildingBlock: CIFDUS_clean_linker_0, # of connection points: 2
#     Edge 85, Type (0, 0), BuildingBlock: CIFDUS_clean_linker_0, # of connection points: 2
#     Edge 86, Type (0, 0), BuildingBlock: CIFDUS_clean_linker_0, # of connection points: 2
#     Edge 87, Type (0, 0), BuildingBlock: CIFDUS_clean_linker_0, # of connection points: 2
#     Edge 88, Type (0, 0), BuildingBlock: CIFDUS_clean_linker_0, # of connection points: 2
#     Edge 89, Type (0, 0), BuildingBlock: CIFDUS_clean_linker_0, # of connection points: 2
#     Edge 90, Type (0, 0), BuildingBlock: CIFDUS_clean_linker_0, # of connection points: 2
#     Edge 91, Type (0, 0), BuildingBlock: CIFDUS_clean_linker_0, # of connection points: 2
#     Edge 92, Type (0, 0), BuildingBlock: CIFDUS_clean_linker_0, # of connection points: 2
#     Edge 93, Type (0, 0), BuildingBlock: CIFDUS_clean_linker_0, # of connection points: 2
#     Edge 94, Type (0, 0), BuildingBlock: CIFDUS_clean_linker_0, # of connection points: 2
#     Edge 95, Type (0, 0), BuildingBlock: CIFDUS_clean_linker_0, # of connection points: 2
# Relax obj value: 0.094
# Max RMSD: 0.096
# Mean RMSD: 0.096
data_MOF--net-umu--node1-ICAMEG_clean_sbu_1--edge1-CIFDUS_clean_linker_0
_symmetry_space_group_name_H-M    P1
_symmetry_Int_Tables_number       1
_symmetry_cell_setting            triclinic
loop_
_symmetry_equiv_pos_as_xyz
'x, y, z'
_cell_length_a     76.010575
_cell_length_b     76.011517
_cell_length_c     25.754835
_cell_angle_alpha  89.992007
_cell_angle_beta   90.051023
_cell_angle_gamma 90.029998
loop_
_atom_site_label
_atom_site_type_symbol
_atom_site_fract_x
_atom_site_fract_y
_atom_site_fract_z
_atom_type_partial_charge
Co0 Co 0.2392 0.16679 0.10365 0.0
Co1 Co 0.19693 0.17458 0.05944 0.0
O2 O 0.21367 0.16282 0.1057 0.0
C3 C 0.23187 0.1767 0.21258 0.0
O4 O 0.21986 0.18762 0.19509 0.0
C5 C 0.18768 0.13716 0.03505 0.0
O6 O 0.20436 0.13377 0.02646 0.0
O7 O 0.21118 0.16837 -0.00283 0.0
O8 O 0.23898 0.16683 0.02646 0.0
H9 H 0.1795 0.2147 0.91315 0.0
H10 H 0.22467 0.1374 0.16589 0.0
O11 O 0.24021 0.16677 0.18136 0.0
H12 H 0.26365 0.10954 0.03693 0.0
H13 H 0.30164 0.15693 0.16228 0.0
H14 H 0.26309 0.18933 0.04147 0.0
H15 H 0.26024 0.14178 0.03943 0.0
H16 H 0.26953 0.15223 0.16338 0.0
O17 O 0.18299 0.15231 0.05109 0.0
H18 H 0.20026 0.1997 0.97198 0.0
H19 H 0.15781 0.17438 0.04877 0.0
H20 H 0.29514 0.19429 0.03871 0.0
H21 H 0.22782 0.1051 0.16504 0.0
H22 H 0.31465 0.17803 0.09945 0.0
H23 H 0.2474 0.09096 0.10013 0.0
O24 O 0.23623 0.19298 0.1039 0.0
H25 H 0.16685 0.16212 0.22905 0.0
H26 H 0.18038 0.20766 0.0987 0.0
H27 H 0.16348 0.21566 0.17684 0.0
H28 H 0.15656 0.19279 0.24264 0.0
H29 H 0.18389 0.15474 0.15048 0.0
H30 H 0.13659 0.18894 0.99041 0.0
H31 H 0.14741 0.20934 0.92215 0.0
O32 O 0.20995 0.19716 0.06631 0.0
C33 C 0.2277 0.1667 0.98984 0.0
C34 C 0.17462 0.20587 0.94279 0.0
C35 C 0.15054 0.19139 0.98611 0.0
N36 N 0.18025 0.18622 0.01389 0.0
C37 C 0.18631 0.19736 0.97628 0.0
C38 C 0.16262 0.18313 0.01892 0.0
C39 C 0.15662 0.20284 0.94784 0.0
C40 C 0.23331 0.13135 0.13778 0.0
N41 N 0.24231 0.14146 0.10291 0.0
C42 C 0.235 0.11305 0.13738 0.0
C43 C 0.24597 0.10513 0.10091 0.0
C44 C 0.25509 0.11554 0.06542 0.0
C45 C 0.25307 0.13379 0.06694 0.0
C46 C 0.29328 0.16407 0.13556 0.0
C47 C 0.2715 0.18212 0.06781 0.0
C48 C 0.27509 0.1615 0.13608 0.0
N49 N 0.26446 0.17041 0.10226 0.0
C50 C 0.28964 0.18503 0.06617 0.0
C51 C 0.30057 0.17591 0.10028 0.0
C52 C 0.22429 0.20298 0.08538 0.0
C53 C 0.16975 0.1722 0.20061 0.0
C54 C 0.17752 0.19766 0.12725 0.0
C55 C 0.16788 0.20225 0.17136 0.0
C56 C 0.164 0.18941 0.20824 0.0
N57 N 0.18308 0.18074 0.12 0.0
C58 C 0.17934 0.16808 0.156 0.0
Co59 Co 0.08127 0.99121 0.35122 0.0
Co60 Co 0.08179 0.94763 0.31386 0.0
O61 O 0.09022 0.96704 0.35715 0.0
C62 C 0.07684 0.98284 0.46234 0.0
O63 O 0.07059 0.96744 0.44847 0.0
C64 C 0.1202 0.94378 0.29056 0.0
O65 O 0.12089 0.96024 0.27515 0.0
O66 O 0.08611 0.96154 0.24963 0.0
O67 O 0.08066 0.98935 0.27423 0.0
H68 H 0.04697 0.92076 0.1681 0.0
H69 H 0.11362 0.98384 0.41175 0.0
O70 O 0.08181 0.99385 0.42821 0.0
H71 H 0.13181 0.02538 0.27483 0.0
H72 H 0.0789 0.05549 0.398 0.0
H73 H 0.05388 0.00873 0.28759 0.0
H74 H 0.10094 0.01572 0.28158 0.0
H75 H 0.08999 0.02507 0.40397 0.0
O76 O 0.10606 0.93753 0.30968 0.0
H77 H 0.05748 0.94489 0.22414 0.0
H78 H 0.0886 0.90894 0.31083 0.0
H79 H 0.04251 0.03901 0.28001 0.0
H80 H 0.14462 0.99329 0.40674 0.0
H81 H 0.05504 0.06264 0.3355 0.0
H82 H 0.1539 0.01418 0.33781 0.0
O83 O 0.05628 0.98308 0.35525 0.0
H84 H 0.09765 0.92328 0.48904 0.0
H85 H 0.05155 0.9266 0.3546 0.0
H86 H 0.0458 0.91014 0.43529 0.0
H87 H 0.06896 0.90837 0.50319 0.0
H88 H 0.10277 0.93977 0.40791 0.0
H89 H 0.07856 0.88446 0.25542 0.0
H90 H 0.05753 0.89028 0.18357 0.0
O91 O 0.05729 0.95669 0.31672 0.0
C92 C 0.08391 0.97783 0.23962 0.0
C93 C 0.0561 0.91804 0.19935 0.0
C94 C 0.07385 0.89768 0.24832 0.0
N95 N 0.07358 0.92832 0.27087 0.0
C96 C 0.06207 0.93165 0.23128 0.0
C97 C 0.07953 0.9116 0.27947 0.0
C98 C 0.06205 0.90095 0.20802 0.0
C99 C 0.11753 0.99303 0.38187 0.0
N100 N 0.10546 0.99926 0.3471 0.0
C101 C 0.13512 0.99829 0.37913 0.0
C102 C 0.14032 0.01 0.34041 0.0
C103 C 0.12793 0.01628 0.30505 0.0
C104 C 0.11047 0.01072 0.30896 0.0
C105 C 0.07335 0.04532 0.37356 0.0
C106 C 0.05947 0.01896 0.31166 0.0
C107 C 0.07955 0.02806 0.37686 0.0
N108 N 0.07266 0.01516 0.34593 0.0
C109 C 0.05295 0.03607 0.30729 0.0
C110 C 0.05997 0.04932 0.33847 0.0
C111 C 0.04879 0.96958 0.33583 0.0
C112 C 0.08746 0.92392 0.4597 0.0
C113 C 0.06165 0.92599 0.38404 0.0
C114 C 0.05835 0.91658 0.4296 0.0
C115 C 0.07136 0.91558 0.46765 0.0
N116 N 0.07748 0.93413 0.37653 0.0
C117 C 0.09031 0.93318 0.41361 0.0
Co118 Co 0.25751 0.83981 0.58198 0.0
Co119 Co 0.30235 0.83551 0.56247 0.0
O120 O 0.28192 0.84737 0.59296 0.0
C121 C 0.26111 0.83938 0.69394 0.0
O122 O 0.27647 0.83185 0.68705 0.0
C123 C 0.30629 0.8723 0.52561 0.0
O124 O 0.28928 0.87244 0.51669 0.0
O125 O 0.29132 0.83558 0.49234 0.0
O126 O 0.26235 0.83506 0.50881 0.0
H127 H 0.33281 0.78969 0.45448 0.0
H128 H 0.2645 0.87432 0.63141 0.0
O129 O 0.25192 0.84421 0.65551 0.0
H130 H 0.23156 0.88786 0.47126 0.0
H131 H 0.1918 0.84426 0.60331 0.0
H132 H 0.2404 0.8103 0.52586 0.0
H133 H 0.2382 0.85715 0.49493 0.0
H134 H 0.2226 0.85351 0.61618 0.0
O135 O 0.31351 0.8588 0.54589 0.0
H136 H 0.30724 0.8048 0.49301 0.0
H137 H 0.3411 0.84145 0.56736 0.0
H138 H 0.20979 0.80067 0.51164 0.0
H139 H 0.25797 0.90525 0.60948 0.0
H140 H 0.18523 0.81771 0.5505 0.0
H141 H 0.24145 0.91217 0.52879 0.0
O142 O 0.26333 0.81497 0.59916 0.0
H143 H 0.32073 0.86293 0.7314 0.0
H144 H 0.32 0.80833 0.62803 0.0
H145 H 0.33294 0.80804 0.71588 0.0
H146 H 0.33336 0.83549 0.7682 0.0
H147 H 0.3078 0.86259 0.64347 0.0
H148 H 0.36703 0.82688 0.52915 0.0
H149 H 0.36297 0.80075 0.47247 0.0
O150 O 0.29177 0.81194 0.57745 0.0
C151 C 0.27532 0.83438 0.47799 0.0
C152 C 0.33475 0.80104 0.47923 0.0
C153 C 0.35396 0.82192 0.52109 0.0
N154 N 0.32268 0.8239 0.53268 0.0
C155 C 0.32033 0.80961 0.50127 0.0
C156 C 0.33922 0.83014 0.54251 0.0
C157 C 0.35167 0.80726 0.48931 0.0
C158 C 0.25714 0.87724 0.59653 0.0
N159 N 0.25167 0.86395 0.56465 0.0
C160 C 0.25355 0.89477 0.58419 0.0
C161 C 0.2443 0.89864 0.53886 0.0
C162 C 0.23876 0.88502 0.50655 0.0
C163 C 0.24259 0.86765 0.5201 0.0
C164 C 0.20238 0.83676 0.58605 0.0
C165 C 0.22978 0.81785 0.54262 0.0
C166 C 0.21985 0.84192 0.59326 0.0
N167 N 0.23328 0.83256 0.57134 0.0
C168 C 0.21248 0.81231 0.53456 0.0
C169 C 0.19871 0.82186 0.55641 0.0
C170 C 0.27706 0.80564 0.59254 0.0
C171 C 0.32066 0.8509 0.70894 0.0
C172 C 0.3201 0.82032 0.65059 0.0
C173 C 0.32748 0.82008 0.70027 0.0
C174 C 0.32772 0.83549 0.72959 0.0
N175 N 0.3132 0.83548 0.63063 0.0
C176 C 0.31343 0.85065 0.65907 0.0
Co177 Co 0.4279 0.0126 0.83591 0.0
Co178 Co 0.42512 0.05685 0.80593 0.0
O179 O 0.41719 0.03607 0.84483 0.0
C180 C 0.42845 0.01787 0.94988 0.0
O181 O 0.43179 0.03465 0.94324 0.0
C182 C 0.38675 0.05819 0.77934 0.0
O183 O 0.38685 0.04123 0.76963 0.0
O184 O 0.42265 0.04395 0.73906 0.0
O185 O 0.42987 0.01627 0.76016 0.0
H186 H 0.46112 0.08824 0.67115 0.0
H187 H 0.39402 0.01651 0.89134 0.0
O188 O 0.4262 0.00772 0.9114 0.0
H189 H 0.38132 0.97718 0.74373 0.0
H190 H 0.43377 0.94752 0.8689 0.0
H191 H 0.45779 0.99863 0.77462 0.0
H192 H 0.41132 0.98845 0.75835 0.0
H193 H 0.42044 0.97689 0.87915 0.0
O194 O 0.4004 0.0657 0.79774 0.0
H195 H 0.45088 0.06256 0.72135 0.0
H196 H 0.41622 0.09513 0.8077 0.0
H197 H 0.47143 0.96947 0.76293 0.0
H198 H 0.36383 0.00539 0.87853 0.0
H199 H 0.45941 0.94366 0.81028 0.0
H200 H 0.35732 0.98562 0.80417 0.0
O201 O 0.4521 0.02219 0.84651 0.0
H202 H 0.40397 0.07719 0.98045 0.0
H203 H 0.45311 0.07887 0.85574 0.0
H204 H 0.45601 0.09424 0.93959 0.0
H205 H 0.4313 0.09349 0.0026 0.0
H206 H 0.40175 0.0618 0.89631 0.0
H207 H 0.42593 0.12112 0.75807 0.0
H208 H 0.44859 0.11778 0.68936 0.0
O209 O 0.45014 0.0492 0.81221 0.0
C210 C 0.42605 0.02805 0.72703 0.0
C211 C 0.45126 0.08987 0.70105 0.0
C212 C 0.4315 0.10833 0.7498 0.0
N213 N 0.43302 0.07735 0.76753 0.0
C214 C 0.44544 0.07539 0.72966 0.0
C215 C 0.42602 0.09355 0.77769 0.0
C216 C 0.44422 0.10644 0.71127 0.0
C217 C 0.3913 0.00782 0.85911 0.0
N218 N 0.40443 0.00314 0.82565 0.0
C219 C 0.37418 1.0016 0.85196 0.0
C220 C 0.37053 0.99052 0.8102 0.0
C221 C 0.38399 0.9858 0.77626 0.0
C222 C 0.40095 0.99227 0.78461 0.0
C223 C 0.43911 0.95866 0.84799 0.0
C224 C 0.45242 0.98745 0.79515 0.0
C225 C 0.43164 0.97533 0.85372 0.0
N226 N 0.43826 0.98945 0.82723 0.0
C227 C 0.46023 0.97098 0.78847 0.0
C228 C 0.45349 0.9565 0.81508 0.0
C229 C 0.45907 0.0365 0.8309 0.0
C230 C 0.41482 0.07763 0.9533 0.0
C231 C 0.44237 0.07835 0.88309 0.0
C232 C 0.44405 0.08715 0.93043 0.0
C233 C 0.43017 0.08675 0.96573 0.0
N234 N 0.42729 0.06941 0.87121 0.0
C235 C 0.41361 0.069 0.90555 0.0
Co236 Co 0.24303 0.85401 0.10108 0.0
Co237 Co 0.19903 0.84723 0.12999 0.0
O238 O 0.218 0.85986 0.09437 0.0
C239 C 0.2364 0.84901 0.9906 0.0
O240 O 0.22101 0.84227 0.00239 0.0
C241 C 0.19552 0.88414 0.16796 0.0
O242 O 0.21263 0.88611 0.16467 0.0
O243 O 0.21255 0.84611 0.19617 0.0
O244 O 0.24057 0.85236 0.17627 0.0
H245 H 0.17354 0.79922 0.24107 0.0
H246 H 0.2325 0.88554 0.04108 0.0
O247 O 0.24632 0.85532 0.02542 0.0
H248 H 0.26941 0.90793 0.18412 0.0
H249 H 0.30753 0.86063 0.06072 0.0
H250 H 0.26339 0.82834 0.16368 0.0
H251 H 0.26378 0.87612 0.17492 0.0
H252 H 0.27598 0.86767 0.05255 0.0
O253 O 0.18818 0.86984 0.15385 0.0
H254 H 0.19725 0.8154 0.19646 0.0
H255 H 0.16023 0.85237 0.13849 0.0
H256 H 0.29481 0.82101 0.17348 0.0
H257 H 0.23792 0.91745 0.04855 0.0
H258 H 0.31713 0.83721 0.12173 0.0
H259 H 0.25646 0.92883 0.12057 0.0
O260 O 0.2383 0.82808 0.09464 0.0
H261 H 0.17368 0.87706 0.97282 0.0
H262 H 0.17953 0.82079 0.0666 0.0
H263 H 0.16311 0.82169 0.98398 0.0
H264 H 0.16008 0.84999 0.93657 0.0
H265 H 0.19012 0.87552 0.05537 0.0
H266 H 0.13614 0.83671 0.183 0.0
H267 H 0.14273 0.80988 0.23454 0.0
O268 O 0.20937 0.82436 0.10853 0.0
C269 C 0.22862 0.84848 0.20848 0.0
C270 C 0.17049 0.81086 0.21859 0.0
C271 C 0.14951 0.83191 0.18603 0.0
N272 N 0.18011 0.83471 0.16449 0.0
C273 C 0.18385 0.82004 0.19308 0.0
C274 C 0.16321 0.84074 0.161 0.0
C275 C 0.15321 0.81685 0.21494 0.0
C276 C 0.2407 0.89039 0.07225 0.0
N277 N 0.24787 0.87898 0.10738 0.0
C278 C 0.24367 0.90847 0.0764 0.0
C279 C 0.25406 0.91485 0.11687 0.0
C280 C 0.26132 0.90313 0.15256 0.0
C281 C 0.25804 0.88514 0.14723 0.0
C282 C 0.29793 0.8535 0.08355 0.0
C283 C 0.27302 0.83552 0.14125 0.0
C284 C 0.28004 0.8574 0.07901 0.0
N285 N 0.26785 0.84851 0.1079 0.0
C286 C 0.2908 0.83128 0.14686 0.0
C287 C 0.30331 0.84036 0.11779 0.0
C288 C 0.22462 0.81836 0.09811 0.0
C289 C 0.17487 0.86466 0.99319 0.0
C290 C 0.1783 0.83314 0.04612 0.0
C291 C 0.16896 0.83358 -0.00059 0.0
C292 C 0.16726 0.84946 0.97284 0.0
N293 N 0.18568 0.84811 0.06589 0.0
C294 C 0.18409 0.86373 0.04003 0.0
Co295 Co 0.40411 0.99199 0.35017 0.0
Co296 Co 0.41523 0.94901 0.3813 0.0
O297 O 0.40073 0.9664 0.34475 0.0
C298 C 0.40923 0.98643 0.23867 0.0
O299 O 0.41872 0.97259 0.25076 0.0
C300 C 0.37936 0.9392 0.41965 0.0
O301 O 0.3755 0.95591 0.42571 0.0
O302 O 0.41322 0.9621 0.44824 0.0
O303 O 0.40736 0.99002 0.42575 0.0
H304 H 0.46416 0.92962 0.49948 0.0
H305 H 0.37291 0.97793 0.29517 0.0
O306 O 0.4012 0.9949 0.2739 0.0
H307 H 0.34921 0.01257 0.44107 0.0
H308 H 0.38999 0.05524 0.30956 0.0
H309 H 0.42848 0.01522 0.40862 0.0
H310 H 0.38122 0.01049 0.42688 0.0
H311 H 0.3862 0.02309 0.30319 0.0
O312 O 0.39406 0.93466 0.40013 0.0
H313 H 0.44555 0.95117 0.45358 0.0
H314 H 0.41588 0.90976 0.38566 0.0
H315 H 0.43259 0.04728 0.41656 0.0
H316 H 0.34077 0.97976 0.30766 0.0
H317 H 0.41327 0.06754 0.36676 0.0
H318 H 0.32874 0.99715 0.38114 0.0
O319 O 0.43025 0.99004 0.34033 0.0
H320 H 0.39208 0.92146 0.21773 0.0
H321 H 0.44524 0.93384 0.32134 0.0
H322 H 0.44808 0.91836 0.23762 0.0
H323 H 0.42135 0.91205 0.18524 0.0
H324 H 0.38987 0.93707 0.3015 0.0
H325 H 0.43405 0.88776 0.43128 0.0
H326 H 0.45845 0.89766 0.4885 0.0
O327 O 0.4368 0.96246 0.3643 0.0
C328 C 0.41077 0.97828 0.45934 0.0
C329 C 0.45359 0.92514 0.47459 0.0
C330 C 0.43668 0.90165 0.43636 0.0
N331 N 0.42968 0.93173 0.41681 0.0
C332 C 0.44303 0.93728 0.44841 0.0
C333 C 0.4264 0.91417 0.41075 0.0
C334 C 0.45037 0.90721 0.46844 0.0
C335 C 0.36775 0.98563 0.32697 0.0
N336 N 0.37891 0.99415 0.36011 0.0
C337 C 0.34955 0.98657 0.33396 0.0
C338 C 0.34281 0.99631 0.37524 0.0
C339 C 0.35429 0.00496 0.4089 0.0
C340 C 0.37241 0.0037 0.40075 0.0
C341 C 0.39848 0.04655 0.33149 0.0
C342 C 0.41996 0.02394 0.38702 0.0
C343 C 0.39643 0.02833 0.32793 0.0
N344 N 0.40705 0.01728 0.3557 0.0
C345 C 0.42238 0.04209 0.39159 0.0
C346 C 0.41154 0.05344 0.36361 0.0
C347 C 0.44129 0.97774 0.34904 0.0
C348 C 0.40381 0.9241 0.24026 0.0
C349 C 0.43356 0.9312 0.29869 0.0
C350 C 0.43524 0.92239 0.25137 0.0
C351 C 0.42025 0.91884 0.22202 0.0
N352 N 0.41739 0.93628 0.31636 0.0
C353 C 0.40263 0.93287 0.28778 0.0
Co354 Co 0.26801 0.15942 0.60615 0.0
Co355 Co 0.30987 0.16936 0.64999 0.0
O356 O 0.29364 0.15632 0.60522 0.0
C357 C 0.2736 0.16855 0.4951 0.0
O358 O 0.28316 0.18204 0.50973 0.0
C359 C 0.32 0.1324 0.67818 0.0
O360 O 0.30332 0.12832 0.68383 0.0
O361 O 0.2956 0.16384 0.71273 0.0
O362 O 0.26794 0.16093 0.68328 0.0
H363 H 0.32561 0.21245 0.79049 0.0
H364 H 0.28373 0.12945 0.5491 0.0
O365 O 0.26733 0.15784 0.52832 0.0
H366 H 0.24533 0.10266 0.68159 0.0
H367 H 0.20617 0.14631 0.54748 0.0
H368 H 0.24312 0.18223 0.66392 0.0
H369 H 0.24763 0.13492 0.67384 0.0
H370 H 0.23842 0.14272 0.5481 0.0
O371 O 0.32441 0.14769 0.66244 0.0
H372 H 0.30549 0.19582 0.7335 0.0
H373 H 0.34894 0.17065 0.66138 0.0
H374 H 0.21092 0.18612 0.66492 0.0
H375 H 0.28171 0.09712 0.55524 0.0
H376 H 0.19221 0.16808 0.60636 0.0
H377 H 0.26243 0.08353 0.62195 0.0
O378 O 0.27009 0.18567 0.60234 0.0
H379 H 0.34109 0.15477 0.48375 0.0
H380 H 0.32544 0.20221 0.6058 0.0
H381 H 0.34249 0.20929 0.52712 0.0
H382 H 0.35047 0.18546 0.46551 0.0
H383 H 0.3239 0.1483 0.56275 0.0
H384 H 0.36952 0.18686 0.71797 0.0
H385 H 0.35788 0.208 0.78295 0.0
O386 O 0.2962 0.19139 0.63924 0.0
C387 C 0.27912 0.16192 0.72005 0.0
C388 C 0.33084 0.20329 0.76229 0.0
C389 C 0.35549 0.18891 0.72163 0.0
N390 N 0.32604 0.18231 0.69407 0.0
C391 C 0.31952 0.19386 0.72985 0.0
C392 C 0.34377 0.17973 0.68982 0.0
C393 C 0.34895 0.20078 0.75806 0.0
C394 C 0.27521 0.12362 0.57795 0.0
N395 N 0.26575 0.13405 0.61088 0.0
C396 C 0.27416 0.10531 0.58136 0.0
C397 C 0.26336 0.0977 0.61884 0.0
C398 C 0.25377 0.10843 0.65233 0.0
C399 C 0.25515 0.12668 0.64783 0.0
C400 C 0.21417 0.15422 0.57323 0.0
C401 C 0.23506 0.17426 0.63855 0.0
C402 C 0.23245 0.15228 0.57368 0.0
N403 N 0.24263 0.16217 0.60629 0.0
C404 C 0.21684 0.17655 0.63919 0.0
C405 C 0.20635 0.16644 0.60629 0.0
C406 C 0.28168 0.19637 0.61936 0.0
C407 C 0.33773 0.16526 0.51036 0.0
C408 C 0.32879 0.19178 0.57907 0.0
C409 C 0.33849 0.19586 0.53465 0.0
C410 C 0.34297 0.18248 0.50011 0.0
N411 N 0.32375 0.17484 0.58893 0.0
C412 C 0.32805 0.16167 0.5552 0.0
Co413 Co 0.09225 0.015 0.85385 0.0
Co414 Co 0.08556 0.05808 0.89373 0.0
O415 O 0.09772 0.04026 0.85206 0.0
C416 C 0.0861 0.02466 0.74456 0.0
O417 O 0.07919 0.03943 0.76124 0.0
C418 C 0.12306 0.06254 0.92563 0.0
O419 O 0.12496 0.04538 0.92406 0.0
O420 O 0.08727 0.04334 0.95744 0.0
O421 O 0.09133 0.01551 0.93078 0.0
H422 H 0.04051 0.07946 0.02163 0.0
H423 H 0.12303 0.02753 0.79388 0.0
O424 O 0.09275 0.01373 0.77643 0.0
H425 H 0.1473 0.98765 0.92688 0.0
H426 H 0.09909 0.95195 0.79748 0.0
H427 H 0.06771 0.99263 0.91427 0.0
H428 H 0.11533 0.99285 0.92115 0.0
H429 H 0.10568 0.98373 0.79628 0.0
O430 O 0.10848 0.06958 0.91271 0.0
H431 H 0.05601 0.05731 0.96874 0.0
H432 H 0.08947 0.09689 0.90707 0.0
H433 H 0.06084 0.96092 0.91714 0.0
H434 H 0.15508 0.0226 0.79793 0.0
H435 H 0.07658 0.94035 0.85841 0.0
H436 H 0.16741 0.00257 0.86491 0.0
O437 O 0.06637 0.01942 0.85033 0.0
H438 H 0.10919 0.08723 0.73326 0.0
H439 H 0.05651 0.07767 0.84128 0.0
H440 H 0.05414 0.09544 0.76146 0.0
H441 H 0.08062 0.10034 0.70688 0.0
H442 H 0.11092 0.0694 0.81321 0.0
H443 H 0.07446 0.11944 0.9597 0.0
H444 H 0.04973 0.11078 0.01733 0.0
O445 O 0.06237 0.04726 0.87669 0.0
C446 C 0.08929 0.02696 0.96632 0.0
C447 C 0.05123 0.08341 -0.00345 0.0
C448 C 0.07029 0.10584 0.96184 0.0
N449 N 0.07354 0.07582 0.93457 0.0
C450 C 0.06002 0.07093 0.9664 0.0
C451 C 0.07877 0.09301 0.93222 0.0
C452 C 0.05642 0.10098 0.99416 0.0
C453 C 0.12829 0.01868 0.82283 0.0
N454 N 0.11733 0.01044 0.85708 0.0
C455 C 0.14645 0.01599 0.82507 0.0
C456 C 0.15336 0.00477 0.8627 0.0
C457 C 0.14209 0.9964 0.8975 0.0
C458 C 0.124 0.99943 0.89415 0.0
C459 C 0.09217 0.96077 0.82333 0.0
C460 C 0.0747 0.98374 0.88884 0.0
C461 C 0.09582 0.97878 0.82275 0.0
N462 N 0.08717 0.99 0.85545 0.0
C463 C 0.07071 0.96581 0.89054 0.0
C464 C 0.07954 0.95427 0.85754 0.0
C465 C 0.05649 0.03251 0.86075 0.0
C466 C 0.09757 0.08522 0.75679 0.0
C467 C 0.06807 0.07969 0.81765 0.0
C468 C 0.06666 0.0898 0.77256 0.0
C469 C 0.08153 0.09255 0.74197 0.0
N470 N 0.08386 0.07257 0.83195 0.0
C471 C 0.09849 0.0752 0.80218 0.0
Co472 Co 0.75612 0.84265 0.08834 0.0
Co473 Co 0.7994 0.83848 0.12906 0.0
O474 O 0.7811 0.84943 0.08604 0.0
C475 C 0.76511 0.83835 0.97728 0.0
O476 O 0.78016 0.83136 0.9914 0.0
C477 C 0.80359 0.87642 0.15676 0.0
O478 O 0.7864 0.87808 0.15767 0.0
O479 O 0.78493 0.84132 0.19291 0.0
O480 O 0.75693 0.84117 0.16516 0.0
H481 H 0.82222 0.7967 0.26445 0.0
H482 H 0.76694 0.87462 0.03087 0.0
O483 O 0.75436 0.84398 0.01118 0.0
H484 H 0.72604 0.89549 0.166 0.0
H485 H 0.69247 0.84665 0.03508 0.0
H486 H 0.73542 0.81634 0.14741 0.0
H487 H 0.73287 0.86391 0.1576 0.0
H488 H 0.72383 0.85498 0.03325 0.0
O489 O 0.81062 0.8619 0.14333 0.0
H490 H 0.79953 0.81068 0.20978 0.0
H491 H 0.83824 0.84321 0.13956 0.0
H492 H 0.70415 0.80772 0.15087 0.0
H493 H 0.76035 0.90632 0.03756 0.0
H494 H 0.68244 0.82291 0.09439 0.0
H495 H 0.7398 0.91694 0.10562 0.0
O496 O 0.76196 0.81707 0.08286 0.0
H497 H 0.82723 0.85927 0.9633 0.0
H498 H 0.81931 0.80875 0.08112 0.0
H499 H 0.83669 0.80507 0.00107 0.0
H500 H 0.84077 0.83047 0.94155 0.0
H501 H 0.80981 0.86231 0.04362 0.0
H502 H 0.86132 0.82972 0.19389 0.0
H503 H 0.85337 0.80623 0.25672 0.0
O504 O 0.78902 0.81476 0.11692 0.0
C505 C 0.76839 0.84142 0.20118 0.0
C506 C 0.82586 0.80689 0.23712 0.0
C507 C 0.8478 0.82543 0.19755 0.0
N508 N 0.81757 0.82766 0.17127 0.0
C509 C 0.81307 0.81482 0.20596 0.0
C510 C 0.83466 0.83305 0.16698 0.0
C511 C 0.84333 0.81225 0.23279 0.0
C512 C 0.75787 0.87913 0.0603 0.0
N513 N 0.75026 0.86743 0.09369 0.0
C514 C 0.75424 0.8971 0.06403 0.0
C515 C 0.74273 0.90305 0.10227 0.0
C516 C 0.73501 0.89103 0.13617 0.0
C517 C 0.73897 0.87316 0.13133 0.0
C518 C 0.7018 0.83995 0.05994 0.0
C519 C 0.72603 0.82308 0.12294 0.0
C520 C 0.71958 0.84458 0.05898 0.0
N521 N 0.73143 0.83622 0.09042 0.0
C522 C 0.70835 0.81811 0.12497 0.0
C523 C 0.69618 0.82663 0.09323 0.0
C524 C 0.77509 0.80796 0.09803 0.0
C525 C 0.82558 0.84812 0.98898 0.0
C526 C 0.82096 0.81984 0.05532 0.0
C527 C 0.83086 0.81769 0.01012 0.0
C528 C 0.83315 0.83195 0.97676 0.0
N529 N 0.81359 0.83575 0.06705 0.0
C530 C 0.81579 0.84978 0.03458 0.0
Co531 Co 0.919 0.01538 0.8478 0.0
Co532 Co 0.91789 0.05897 0.88706 0.0
O533 O 0.90939 0.0394 0.84412 0.0
C534 C 0.92212 0.02468 0.73638 0.0
O535 O 0.92732 0.04048 0.75006 0.0
C536 C 0.87936 0.05928 0.91036 0.0
O537 O 0.87888 0.04203 0.90908 0.0
O538 O 0.91595 0.04448 0.95111 0.0
O539 O 0.9198 0.01659 0.92483 0.0
H540 H 0.95553 0.0866 0.02525 0.0
H541 H 0.88632 0.02227 0.78836 0.0
O542 O 0.91825 0.01328 0.77064 0.0
H543 H 0.86958 0.97932 0.92307 0.0
H544 H 0.92286 0.95157 0.79635 0.0
H545 H 0.94709 0.99808 0.90918 0.0
H546 H 0.90016 0.98989 0.91639 0.0
H547 H 0.91091 0.98171 0.79304 0.0
O548 O 0.89341 0.0676 0.89935 0.0
H549 H 0.94475 0.06239 0.96993 0.0
H550 H 0.90881 0.09708 0.89591 0.0
H551 H 0.95933 0.96807 0.91409 0.0
H552 H 0.85561 0.0119 0.79326 0.0
H553 H 0.9472 0.94458 0.85736 0.0
H554 H 0.84707 0.99031 0.8611 0.0
O555 O 0.94381 0.02412 0.84348 0.0
H556 H 0.89562 0.08368 0.71863 0.0
H557 H 0.94558 0.08207 0.84075 0.0
H558 H 0.948 0.09949 0.76029 0.0
H559 H 0.92287 0.10039 0.6986 0.0
H560 H 0.89385 0.06629 0.79941 0.0
H561 H 0.91908 0.12161 0.95079 0.0
H562 H 0.94265 0.11646 0.01588 0.0
O563 O 0.94266 0.05128 0.87718 0.0
C564 C 0.91763 0.02808 0.96022 0.0
C565 C 0.9453 0.08903 -0.0031 0.0
C566 C 0.92482 0.10867 0.95515 0.0
N567 N 0.92628 0.07835 0.92942 0.0
C568 C 0.93918 0.07538 0.96536 0.0
C569 C 0.91905 0.09472 0.92423 0.0
C570 C 0.93805 0.10577 0.99166 0.0
C571 C 0.88273 0.01277 0.81771 0.0
N572 N 0.89504 0.00667 0.85197 0.0
C573 C 0.86531 0.00699 0.82042 0.0
C574 C 0.86052 0.99489 0.85853 0.0
C575 C 0.87314 0.98873 0.89334 0.0
C576 C 0.89043 0.99482 0.88949 0.0
C577 C 0.92824 0.96169 0.82132 0.0
C578 C 0.94168 0.9879 0.88459 0.0
C579 C 0.92155 0.97879 0.81953 0.0
N580 N 0.92823 0.99162 0.85111 0.0
C581 C 0.94869 0.97094 0.88745 0.0
C582 C 0.94189 0.95777 0.85557 0.0
C583 C 0.95119 0.03824 0.85912 0.0
C584 C 0.90664 0.08342 0.74525 0.0
C585 C 0.93464 0.08232 0.81399 0.0
C586 C 0.93606 0.09226 0.76857 0.0
C587 C 0.92195 0.09277 0.73399 0.0
N588 N 0.91959 0.07318 0.82473 0.0
C589 C 0.90569 0.07365 0.7911 0.0
Co590 Co 0.74559 0.18023 0.6015 0.0
Co591 Co 0.70201 0.17923 0.6401 0.0
O592 O 0.72143 0.17107 0.59635 0.0
C593 C 0.73657 0.18531 0.49076 0.0
O594 O 0.72105 0.19104 0.50528 0.0
C595 C 0.70023 0.1406 0.66169 0.0
O596 O 0.71739 0.1402 0.66753 0.0
O597 O 0.71632 0.17569 0.70398 0.0
O598 O 0.74424 0.18011 0.67861 0.0
H599 H 0.67509 0.21443 0.7847 0.0
H600 H 0.73794 0.14836 0.53919 0.0
O601 O 0.74778 0.18037 0.52437 0.0
H602 H 0.78074 0.12931 0.67171 0.0
H603 H 0.80954 0.18361 0.55141 0.0
H604 H 0.76332 0.2072 0.66616 0.0
H605 H 0.77088 0.16017 0.66777 0.0
H606 H 0.77918 0.17227 0.54631 0.0
O607 O 0.6926 0.15471 0.64739 0.0
H608 H 0.69917 0.20411 0.72826 0.0
H609 H 0.66352 0.17155 0.64513 0.0
H610 H 0.79355 0.21879 0.67293 0.0
H611 H 0.74758 0.11739 0.54134 0.0
H612 H 0.81691 0.20698 0.61525 0.0
H613 H 0.7691 0.10768 0.60807 0.0
O614 O 0.7373 0.20525 0.59947 0.0
H615 H 0.67721 0.16117 0.4674 0.0
H616 H 0.68005 0.20857 0.59785 0.0
H617 H 0.66306 0.21315 0.51738 0.0
H618 H 0.66154 0.18933 0.4515 0.0
H619 H 0.69419 0.15721 0.54828 0.0
H620 H 0.63909 0.18137 0.70099 0.0
H621 H 0.64479 0.20303 0.77126 0.0
O622 O 0.71042 0.20394 0.63481 0.0
C623 C 0.73271 0.1773 0.71351 0.0
C624 C 0.67243 0.20502 0.75415 0.0
C625 C 0.65223 0.18646 0.70721 0.0
N626 N 0.68274 0.18729 0.68333 0.0
C627 C 0.686 0.19916 0.72201 0.0
C628 C 0.66612 0.18091 0.67579 0.0
C629 C 0.65544 0.19861 0.74662 0.0
C630 C 0.74739 0.14426 0.56814 0.0
N631 N 0.75383 0.15607 0.60333 0.0
C632 C 0.75276 0.12669 0.56925 0.0
C633 C 0.76482 0.12125 0.60674 0.0
C634 C 0.77135 0.13337 0.64248 0.0
C635 C 0.76566 0.15083 0.64021 0.0
C636 C 0.79949 0.18884 0.57681 0.0
C637 C 0.77343 0.20192 0.64114 0.0
C638 C 0.78226 0.18251 0.57399 0.0
N639 N 0.76951 0.189 0.60612 0.0
C640 C 0.79052 0.20857 0.64506 0.0
C641 C 0.80361 0.20195 0.61265 0.0
C642 C 0.72343 0.21259 0.61702 0.0
C643 C 0.67774 0.17163 0.49587 0.0
C644 C 0.67952 0.19817 0.56929 0.0
C645 C 0.66983 0.20082 0.52386 0.0
C646 C 0.66897 0.18745 0.48693 0.0
N647 N 0.68808 0.18262 0.57777 0.0
C648 C 0.68727 0.16944 0.5418 0.0
Co649 Co 0.57745 0.00266 0.35026 0.0
Co650 Co 0.5809 0.9583 0.378 0.0
O651 O 0.58848 0.97944 0.34036 0.0
C652 C 0.57613 0.99748 0.23693 0.0
O653 O 0.57236 0.98082 0.24432 0.0
C654 C 0.61905 0.95724 0.40749 0.0
O655 O 0.61826 0.9738 0.42187 0.0
O656 O 0.58296 0.97084 0.44557 0.0
O657 O 0.57574 0.99865 0.42581 0.0
H658 H 0.54557 0.92537 0.51111 0.0
H659 H 0.61125 0.99946 0.29392 0.0
O660 O 0.5789 0.00771 0.27493 0.0
H661 H 0.62374 0.03845 0.44246 0.0
H662 H 0.57052 0.06772 0.319 0.0
H663 H 0.54758 0.01602 0.41283 0.0
H664 H 0.59387 0.02677 0.4282 0.0
H665 H 0.58423 0.03858 0.30765 0.0
O666 O 0.60584 0.94997 0.38568 0.0
H667 H 0.55526 0.95155 0.46225 0.0
H668 H 0.59044 0.92021 0.37382 0.0
H669 H 0.53357 0.04495 0.42564 0.0
H670 H 0.64129 0.01101 0.30636 0.0
H671 H 0.54504 0.07106 0.37852 0.0
H672 H 0.6477 0.03061 0.38118 0.0
O673 O 0.55337 0.99279 0.33995 0.0
H674 H 0.60254 0.93958 0.2024 0.0
H675 H 0.5534 0.93607 0.32678 0.0
H676 H 0.55083 0.92123 0.24202 0.0
H677 H 0.57555 0.92289 0.17917 0.0
H678 H 0.60444 0.95441 0.28746 0.0
H679 H 0.58132 0.89373 0.42216 0.0
H680 H 0.55866 0.8962 0.49122 0.0
O681 O 0.55576 0.96549 0.37193 0.0
C682 C 0.57951 0.98667 0.45835 0.0
C683 C 0.55544 0.92412 0.48108 0.0
C684 C 0.57552 0.90636 0.4312 0.0
N685 N 0.5734 0.93741 0.41522 0.0
C686 C 0.56096 0.93889 0.45323 0.0
C687 C 0.58069 0.92142 0.40411 0.0
C688 C 0.5628 0.90776 0.46992 0.0
C689 C 0.61391 0.00807 0.32637 0.0
N690 N 0.60081 0.01243 0.36028 0.0
C691 C 0.63096 0.01453 0.3333 0.0
C692 C 0.63455 0.02552 0.37531 0.0
C693 C 0.62112 0.02991 0.40973 0.0
C694 C 0.60423 0.0232 0.40158 0.0
C695 C 0.56542 0.05645 0.33982 0.0
C696 C 0.55272 0.02734 0.39241 0.0
C697 C 0.57311 0.03991 0.33347 0.0
N698 N 0.56679 0.02563 0.35983 0.0
C699 C 0.5447 0.04368 0.39972 0.0
C700 C 0.55113 0.05832 0.37324 0.0
C701 C 0.54663 0.97824 0.35436 0.0
C702 C 0.59169 0.93873 0.22948 0.0
C703 C 0.56414 0.93698 0.29952 0.0
C704 C 0.56265 0.92848 0.25166 0.0
C705 C 0.57653 0.9294 0.21644 0.0
N706 N 0.57904 0.94612 0.31202 0.0
C707 C 0.59272 0.94704 0.27775 0.0
Co708 Co 0.76892 0.17023 0.09872 0.0
Co709 Co 0.81247 0.17034 0.05956 0.0
O710 O 0.79324 0.16165 0.1032 0.0
C711 C 0.77819 0.17686 0.20798 0.0
O712 O 0.79346 0.18269 0.19153 0.0
C713 C 0.81635 0.13222 0.03008 0.0
O714 O 0.80033 0.13194 0.01104 0.0
O715 O 0.79814 0.16715 -0.0046 0.0
O716 O 0.77012 0.17017 0.02175 0.0
H717 H 0.83905 0.2066 0.91652 0.0
H718 H 0.7771 0.13878 0.16216 0.0
O719 O 0.76701 0.17071 0.176 0.0
H720 H 0.73493 0.11837 0.02956 0.0
H721 H 0.70509 0.1722 0.15056 0.0
H722 H 0.75038 0.19668 0.03407 0.0
H723 H 0.74429 0.14943 0.0324 0.0
H724 H 0.73573 0.16162 0.155 0.0
O725 O 0.82222 0.14596 0.05262 0.0
H726 H 0.81509 0.19579 0.9726 0.0
H727 H 0.85099 0.1629 0.05357 0.0
H728 H 0.71987 0.20751 0.02795 0.0
H729 H 0.76798 0.10762 0.16106 0.0
H730 H 0.69698 0.19526 0.08651 0.0
H731 H 0.74677 0.09724 0.09433 0.0
O732 O 0.77667 0.19535 0.09986 0.0
H733 H 0.83766 0.15223 0.23183 0.0
H734 H 0.83403 0.19986 0.10225 0.0
H735 H 0.85107 0.2045 0.1826 0.0
H736 H 0.85299 0.18057 0.24804 0.0
H737 H 0.82062 0.1482 0.15111 0.0
H738 H 0.8753 0.17322 -0.00195 0.0
H739 H 0.86941 0.19529 0.92905 0.0
O740 O 0.80374 0.19489 0.06545 0.0
C741 C 0.78167 0.16844 0.98633 0.0
C742 C 0.84179 0.19702 0.94653 0.0
C743 C 0.86213 0.17827 0.99224 0.0
N744 N 0.83164 0.17879 0.0165 0.0
C745 C 0.82829 0.19087 0.97849 0.0
C746 C 0.8483 0.17243 0.02347 0.0
C747 C 0.85882 0.19065 0.95355 0.0
C748 C 0.76778 0.13437 0.13323 0.0
N749 N 0.76119 0.14591 0.09751 0.0
C750 C 0.76271 0.11671 0.13269 0.0
C751 C 0.75082 0.11089 0.09521 0.0
C752 C 0.74418 0.12274 0.05884 0.0
C753 C 0.74957 0.1403 0.06053 0.0
C754 C 0.71494 0.17762 0.12478 0.0
C755 C 0.74047 0.1912 0.05946 0.0
C756 C 0.73232 0.17171 0.12719 0.0
N757 N 0.7448 0.17844 0.09459 0.0
C758 C 0.72323 0.19742 0.05592 0.0
C759 C 0.7104 0.19056 0.08882 0.0
C760 C 0.7904 0.20309 0.08287 0.0
C761 C 0.83696 0.16274 0.20355 0.0
C762 C 0.83475 0.1894 0.1306 0.0
C763 C 0.84446 0.19209 0.17598 0.0
C764 C 0.84554 0.17865 0.21266 0.0
N765 N 0.82639 0.17375 0.12193 0.0
C766 C 0.82739 0.16051 0.1577 0.0
Co767 Co 0.60148 0.02107 0.83617 0.0
Co768 Co 0.59111 0.06428 0.80602 0.0
O769 O 0.60527 0.04657 0.84221 0.0
C770 C 0.59623 0.02682 0.94722 0.0
O771 O 0.58718 0.0409 0.93458 0.0
C772 C 0.62717 0.07362 0.76768 0.0
O773 O 0.63068 0.05689 0.76022 0.0
O774 O 0.59299 0.05135 0.73887 0.0
O775 O 0.59851 0.02328 0.76059 0.0
H776 H 0.54277 0.08489 0.68752 0.0
H777 H 0.63274 0.03452 0.89227 0.0
O778 O 0.60408 0.01801 0.91239 0.0
H779 H 0.65632 0.99973 0.7465 0.0
H780 H 0.61437 0.95752 0.8763 0.0
H781 H 0.57699 0.99836 0.77642 0.0
H782 H 0.6243 0.00234 0.7598 0.0
H783 H 0.61867 0.9896 0.88332 0.0
O784 O 0.61259 0.07828 0.78786 0.0
H785 H 0.56092 0.06288 0.7331 0.0
H786 H 0.59111 0.10355 0.80291 0.0
H787 H 0.57238 0.96637 0.76781 0.0
H788 H 0.66488 0.03215 0.88066 0.0
H789 H 0.59114 0.94571 0.81803 0.0
H790 H 0.67685 0.01469 0.80726 0.0
O791 O 0.57535 0.0234 0.84536 0.0
H792 H 0.61448 0.09101 0.97053 0.0
H793 H 0.56126 0.07973 0.86605 0.0
H794 H 0.55855 0.09499 0.95016 0.0
H795 H 0.5853 0.10075 0.00297 0.0
H796 H 0.61655 0.07563 0.88637 0.0
H797 H 0.57341 0.12601 0.75762 0.0
H798 H 0.54898 0.11672 0.69961 0.0
O799 O 0.56924 0.05117 0.82236 0.0
C800 C 0.5953 0.03519 0.72734 0.0
C801 C 0.55336 0.08911 0.71274 0.0
C802 C 0.57057 0.11218 0.75204 0.0
N803 N 0.57703 0.08192 0.77076 0.0
C804 C 0.56366 0.0767 0.73874 0.0
C805 C 0.58058 0.0994 0.77744 0.0
C806 C 0.55686 0.10696 0.71952 0.0
C807 C 0.63787 0.02679 0.86048 0.0
N808 N 0.62667 0.01852 0.82689 0.0
C809 C 0.65607 0.02554 0.854 0.0
C810 C 0.66278 0.01576 0.81277 0.0
C811 C 0.65127 0.00737 0.77864 0.0
C812 C 0.63315 0.00893 0.78629 0.0
C813 C 0.60613 0.96639 0.85418 0.0
C814 C 0.58527 0.98945 0.79819 0.0
C815 C 0.60846 0.98456 0.8581 0.0
N816 N 0.59815 0.99584 0.8301 0.0
C817 C 0.58257 0.97135 0.79325 0.0
C818 C 0.59309 0.95977 0.82146 0.0
C819 C 0.56449 0.03589 0.83695 0.0
C820 C 0.60273 0.08861 0.94781 0.0
C821 C 0.57295 0.08213 0.88889 0.0
C822 C 0.57134 0.09082 0.93642 0.0
C823 C 0.58636 0.09405 0.96602 0.0
N824 N 0.58907 0.07686 0.87125 0.0
C825 C 0.60384 0.07997 0.90006 0.0
Co826 Co 0.73055 0.84651 0.58541 0.0
Co827 Co 0.68711 0.84347 0.54527 0.0
O828 O 0.70577 0.85414 0.58751 0.0
C829 C 0.72145 0.84217 0.69602 0.0
O830 O 0.70628 0.83559 0.68122 0.0
C831 C 0.68249 0.88116 0.51241 0.0
O832 O 0.69958 0.88328 0.50827 0.0
O833 O 0.70154 0.84578 0.48108 0.0
O834 O 0.72957 0.84485 0.50864 0.0
H835 H 0.66329 0.802 0.4105 0.0
H836 H 0.7208 0.87888 0.64249 0.0
O837 O 0.73236 0.84785 0.6626 0.0
H838 H 0.76214 0.89827 0.50654 0.0
H839 H 0.79429 0.84874 0.63858 0.0
H840 H 0.75047 0.81955 0.52655 0.0
H841 H 0.7543 0.86693 0.51545 0.0
H842 H 0.76319 0.85797 0.64033 0.0
O843 O 0.67611 0.8669 0.53042 0.0
H844 H 0.68635 0.81577 0.46431 0.0
H845 H 0.64821 0.84836 0.53675 0.0
H846 H 0.78146 0.81003 0.52319 0.0
H847 H 0.72839 0.91035 0.63525 0.0
H848 H 0.80361 0.82466 0.57953 0.0
H849 H 0.74917 0.92022 0.5668 0.0
O850 O 0.72408 0.82102 0.59139 0.0
H851 H 0.66025 0.86544 0.711 0.0
H852 H 0.66679 0.81427 0.59497 0.0
H853 H 0.64965 0.81126 0.67573 0.0
H854 H 0.64627 0.83698 0.73436 0.0
H855 H 0.67743 0.86781 0.63 0.0
H856 H 0.62476 0.83503 0.48348 0.0
H857 H 0.63223 0.81163 0.4199 0.0
O858 O 0.69697 0.81968 0.55767 0.0
C859 C 0.71808 0.84528 0.4727 0.0
C860 C 0.65986 0.81216 0.43815 0.0
C861 C 0.63823 0.8307 0.47909 0.0
N862 N 0.66863 0.83279 0.50384 0.0
C863 C 0.67286 0.81998 0.46878 0.0
C864 C 0.65158 0.83821 0.50911 0.0
C865 C 0.64244 0.81757 0.44342 0.0
C866 C 0.72995 0.88307 0.61285 0.0
N867 N 0.73714 0.87108 0.57957 0.0
C868 C 0.73415 0.90091 0.60883 0.0
C869 C 0.7458 0.90644 0.57038 0.0
C870 C 0.75307 0.89413 0.53653 0.0
C871 C 0.74855 0.87641 0.54168 0.0
C872 C 0.78477 0.84229 0.61379 0.0
C873 C 0.76005 0.82605 0.55096 0.0
C874 C 0.76713 0.84742 0.6147 0.0
N875 N 0.75504 0.83937 0.58334 0.0
C876 C 0.77757 0.82057 0.54899 0.0
C877 C 0.78999 0.82878 0.58064 0.0
C878 C 0.71064 0.81238 0.57628 0.0
C879 C 0.6616 0.85415 0.68572 0.0
C880 C 0.66545 0.8255 0.62037 0.0
C881 C 0.65568 0.82373 0.66598 0.0
C882 C 0.65378 0.83817 0.69884 0.0
N883 N 0.67306 0.84122 0.60776 0.0
C884 C 0.67124 0.85544 0.63974 0.0
Co885 Co 0.90735 0.9909 0.3451 0.0
Co886 Co 0.91528 0.94799 0.30598 0.0
O887 O 0.90257 0.96547 0.34745 0.0
C888 C 0.91335 0.98207 0.4548 0.0
O889 O 0.92123 0.96774 0.4385 0.0
C890 C 0.8784 0.93982 0.27174 0.0
O891 O 0.87561 0.95659 0.26262 0.0
O892 O 0.9119 0.96206 0.24149 0.0
O893 O 0.90904 0.99007 0.2682 0.0
H894 H 0.95956 0.92826 0.1735 0.0
H895 H 0.87642 0.9777 0.40304 0.0
O896 O 0.90614 0.99249 0.4225 0.0
H897 H 0.85224 0.01629 0.26659 0.0
H898 H 0.89811 0.05395 0.39834 0.0
H899 H 0.93175 0.01376 0.28567 0.0
H900 H 0.88428 0.01203 0.27504 0.0
H901 H 0.89249 0.02199 0.40036 0.0
O902 O 0.89297 0.93476 0.29127 0.0
H903 H 0.94336 0.9499 0.22635 0.0
H904 H 0.91421 0.90882 0.2977 0.0
H905 H 0.93766 0.04564 0.282 0.0
H906 H 0.84428 0.98169 0.39625 0.0
H907 H 0.92078 0.06597 0.33866 0.0
H908 H 0.832 1.00107 0.32755 0.0
O909 O 0.93333 0.98732 0.35075 0.0
H910 H 0.8957 0.91917 0.47163 0.0
H911 H 0.94623 0.93087 0.3567 0.0
H912 H 0.95078 0.91422 0.43777 0.0
H913 H 0.92539 0.90825 0.49584 0.0
H914 H 0.89178 0.93593 0.39036 0.0
H915 H 0.92996 0.88674 0.24522 0.0
H916 H 0.95288 0.89642 0.18273 0.0
O917 O 0.93795 0.96027 0.31908 0.0
C918 C 0.91044 0.97852 0.2326 0.0
C919 C 0.94962 0.92388 0.20064 0.0
C920 C 0.93299 0.90058 0.24084 0.0
N921 N 0.92788 0.93063 0.26517 0.0
C922 C 0.94042 0.93607 0.23074 0.0
C923 C 0.92406 0.91314 0.27032 0.0
C924 C 0.94586 0.90602 0.20581 0.0
C925 C 0.87116 0.98626 0.3733 0.0
N926 N 0.8822 0.99468 0.33964 0.0
C927 C 0.85296 0.98842 0.36954 0.0
C928 C 0.84608 0.99928 0.33094 0.0
C929 C 0.85743 0.00782 0.2967 0.0
C930 C 0.87556 0.00532 0.3016 0.0
C931 C 0.90553 0.04523 0.3734 0.0
C932 C 0.92427 0.02253 0.31019 0.0
C933 C 0.90243 0.02712 0.37445 0.0
N934 N 0.9117 0.01604 0.34288 0.0
C935 C 0.92771 0.04057 0.30806 0.0
C936 C 0.91825 0.05197 0.33989 0.0
C937 C 0.94352 0.97484 0.3371 0.0
C938 C 0.90686 0.92165 0.44658 0.0
C939 C 0.93513 0.92838 0.38184 0.0
C940 C 0.93778 0.9189 0.42763 0.0
C941 C 0.92352 0.91555 0.46018 0.0
N942 N 0.91874 0.93431 0.36875 0.0
C943 C 0.9047 0.93106 0.40043 0.0
Co944 Co 0.73997 0.67245 0.60091 0.0
Co945 Co 0.69679 0.67788 0.56134 0.0
O946 O 0.7148 0.66648 0.60425 0.0
C947 C 0.73159 0.67759 0.71168 0.0
O948 O 0.71694 0.68533 0.69723 0.0
C949 C 0.6891 0.64045 0.53141 0.0
O950 O 0.70567 0.63809 0.51884 0.0
O951 O 0.71072 0.67355 0.49704 0.0
O952 O 0.73882 0.67391 0.52406 0.0
H953 H 0.67531 0.71895 0.42219 0.0
H954 H 0.72826 0.6409 0.65885 0.0
O955 O 0.74198 0.67117 0.67802 0.0
H956 H 0.76799 0.61859 0.52268 0.0
H957 H 0.80365 0.66639 0.65196 0.0
H958 H 0.7613 0.69794 0.54062 0.0
H959 H 0.76224 0.65038 0.53108 0.0
H960 H 0.77204 0.65915 0.65508 0.0
O961 O 0.68409 0.65498 0.55124 0.0
H962 H 0.6976 0.70439 0.47698 0.0
H963 H 0.65762 0.67555 0.55458 0.0
H964 H 0.79283 0.70547 0.53585 0.0
H965 H 0.73375 0.60899 0.65215 0.0
H966 H 0.81424 0.68965 0.59183 0.0
H967 H 0.75372 0.59765 0.58359 0.0
O968 O 0.73505 0.69824 0.60646 0.0
H969 H 0.66939 0.66077 0.73137 0.0
H970 H 0.6787 0.7092 0.607 0.0
H971 H 0.66226 0.71482 0.68776 0.0
H972 H 0.65748 0.69049 0.75058 0.0
H973 H 0.68594 0.65578 0.6503 0.0
H974 H 0.63491 0.68964 0.50024 0.0
H975 H 0.64371 0.71157 0.43362 0.0
O976 O 0.70843 0.70114 0.5701 0.0
C977 C 0.72725 0.67336 0.48833 0.0
C978 C 0.67131 0.70942 0.45112 0.0
C979 C 0.64864 0.69296 0.49488 0.0
N980 N 0.67892 0.68916 0.51902 0.0
C981 C 0.68387 0.70116 0.48232 0.0
C982 C 0.66156 0.68497 0.5254 0.0
C983 C 0.65358 0.70527 0.45753 0.0
C984 C 0.73705 0.63607 0.62915 0.0
N985 N 0.74496 0.64749 0.59551 0.0
C986 C 0.74008 0.61799 0.62544 0.0
C987 C 0.75126 0.61163 0.58693 0.0
C988 C 0.75927 0.62337 0.55273 0.0
C989 C 0.75592 0.64136 0.55757 0.0
C990 C 0.79446 0.67336 0.62731 0.0
C991 C 0.77056 0.69092 0.56487 0.0
C992 C 0.77653 0.66935 0.629 0.0
N993 N 0.76485 0.67804 0.59783 0.0
C994 C 0.78838 0.69528 0.5621 0.0
C995 C 0.80039 0.68641 0.59356 0.0
C996 C 0.72239 0.70765 0.58963 0.0
C997 C 0.67136 0.67147 0.70425 0.0
C998 C 0.67678 0.69857 0.63425 0.0
C999 C 0.66739 0.70181 0.67984 0.0
C1000 C 0.6647 0.68815 0.71505 0.0
N1001 N 0.68327 0.68217 0.62393 0.0
C1002 C 0.68066 0.66871 0.65822 0.0
Co1003 Co 0.58631 0.49415 0.84948 0.0
Co1004 Co 0.57974 0.45105 0.81105 0.0
O1005 O 0.59149 0.46888 0.85361 0.0
C1006 C 0.58077 0.48577 0.9599 0.0
O1007 O 0.57278 0.47129 0.94522 0.0
C1008 C 0.61714 0.44386 0.78376 0.0
O1009 O 0.61936 0.4607 0.7745 0.0
O1010 O 0.58429 0.46473 0.74654 0.0
O1011 O 0.58513 0.4929 0.77269 0.0
H1012 H 0.53814 0.42983 0.67285 0.0
H1013 H 0.61728 0.48171 0.90893 0.0
O1014 O 0.58734 0.49617 0.9265 0.0
H1015 H 0.64127 0.52038 0.77248 0.0
H1016 H 0.59404 0.5577 0.8998 0.0
H1017 H 0.56172 0.51611 0.78787 0.0
H1018 H 0.60929 0.51558 0.77989 0.0
H1019 H 0.60031 0.52589 0.90373 0.0
O1020 O 0.60248 0.43821 0.80101 0.0
H1021 H 0.55305 0.45204 0.72709 0.0
H1022 H 0.58179 0.4119 0.80434 0.0
H1023 H 0.55517 0.54784 0.78229 0.0
H1024 H 0.64936 0.48627 0.90321 0.0
H1025 H 0.57138 0.56887 0.83856 0.0
H1026 H 0.66154 0.50569 0.8345 0.0
O1027 O 0.5604 0.48997 0.85406 0.0
H1028 H 0.59637 0.42333 0.98118 0.0
H1029 H 0.54805 0.43382 0.85709 0.0
H1030 H 0.54211 0.41751 0.93796 0.0
H1031 H 0.56638 0.41215 0.00064 0.0
H1032 H 0.60169 0.43973 0.89999 0.0
H1033 H 0.56733 0.38926 0.75056 0.0
H1034 H 0.54526 0.39818 0.6844 0.0
O1035 O 0.55672 0.46314 0.81956 0.0
C1036 C 0.5852 0.48119 0.73736 0.0
C1037 C 0.5477 0.42578 0.70162 0.0
C1038 C 0.5641 0.40301 0.7452 0.0
N1039 N 0.56819 0.43327 0.76906 0.0
C1040 C 0.55615 0.43829 0.73254 0.0
C1041 C 0.57228 0.41589 0.77544 0.0
C1042 C 0.55171 0.40802 0.7081 0.0
C1043 C 0.62248 0.49029 0.87919 0.0
N1044 N 0.61142 0.49842 0.84494 0.0
C1045 C 0.64066 0.49278 0.87603 0.0
C1046 C 0.64749 0.50366 0.83743 0.0
C1047 C 0.63612 0.5119 0.8026 0.0
C1048 C 0.61802 0.50909 0.80691 0.0
C1049 C 0.58691 0.54867 0.87501 0.0
C1050 C 0.56891 0.5252 0.81225 0.0
C1051 C 0.59037 0.53064 0.87715 0.0
N1052 N 0.58147 0.51918 0.84579 0.0
C1053 C 0.56511 0.54314 0.80902 0.0
C1054 C 0.5742 0.55493 0.84063 0.0
C1055 C 0.55064 0.47747 0.83788 0.0
C1056 C 0.58569 0.42554 0.95411 0.0
C1057 C 0.55867 0.4316 0.88425 0.0
C1058 C 0.55523 0.42231 0.92992 0.0
C1059 C 0.56886 0.4193 0.96505 0.0
N1060 N 0.57522 0.43768 0.8738 0.0
C1061 C 0.58865 0.43475 0.90801 0.0
Co1062 Co 0.76149 0.34224 0.09524 0.0
Co1063 Co 0.80349 0.33821 0.04552 0.0
O1064 O 0.78625 0.34949 0.09117 0.0
C1065 C 0.77279 0.33961 0.20358 0.0
O1066 O 0.78739 0.33213 0.18776 0.0
C1067 C 0.80657 0.37604 0.01614 0.0
O1068 O 0.78936 0.37733 0.01824 0.0
O1069 O 0.78744 0.34058 0.98487 0.0
O1070 O 0.76043 0.33845 0.0197 0.0
H1071 H 0.82327 0.29528 0.90926 0.0
H1072 H 0.77248 0.37587 0.14348 0.0
O1073 O 0.76165 0.3455 0.17129 0.0
H1074 H 0.72864 0.39214 0.01064 0.0
H1075 H 0.6992 0.34671 0.16043 0.0
H1076 H 0.74012 0.31359 0.04871 0.0
H1077 H 0.73646 0.36104 0.02512 0.0
H1078 H 0.73028 0.3557 0.15307 0.0
O1079 O 0.81415 0.36161 0.02773 0.0
H1080 H 0.80184 0.30967 0.96726 0.0
H1081 H 0.84189 0.34314 0.02634 0.0
H1082 H 0.70911 0.30424 0.05453 0.0
H1083 H 0.76491 0.40714 0.13064 0.0
H1084 H 0.68842 0.32084 0.11075 0.0
H1085 H 0.74288 0.41544 0.06368 0.0
O1086 O 0.76811 0.31717 0.10515 0.0
H1087 H 0.83509 0.36023 0.20399 0.0
H1088 H 0.82471 0.30892 0.0909 0.0
H1089 H 0.84399 0.30585 0.1674 0.0
H1090 H 0.84932 0.33165 0.22452 0.0
H1091 H 0.81576 0.36265 0.1273 0.0
H1092 H 0.8637 0.32926 0.96856 0.0
H1093 H 0.85445 0.30508 0.90967 0.0
O1094 O 0.79349 0.31446 0.06146 0.0
C1095 C 0.77079 0.33902 0.9812 0.0
C1096 C 0.82747 0.30577 0.93485 0.0
C1097 C 0.85016 0.32485 0.96809 0.0
N1098 N 0.82063 0.32714 0.00039 0.0
C1099 C 0.81541 0.31393 0.96787 0.0
C1100 C 0.83774 0.33269 0.00062 0.0
C1101 C 0.84496 0.31128 0.93507 0.0
C1102 C 0.76275 0.37938 0.11464 0.0
N1103 N 0.75487 0.36665 0.08526 0.0
C1104 C 0.75857 0.3971 0.10738 0.0
C1105 C 0.74623 0.40175 0.06975 0.0
C1106 C 0.73825 0.38869 0.03995 0.0
C1107 C 0.74277 0.3711 0.04824 0.0
C1108 C 0.70808 0.3394 0.13565 0.0
C1109 C 0.73116 0.32098 0.07288 0.0
C1110 C 0.72569 0.34442 0.13136 0.0
N1111 N 0.73697 0.3353 0.10003 0.0
C1112 C 0.71363 0.31558 0.07618 0.0
C1113 C 0.70203 0.32489 0.10778 0.0
C1114 C 0.78053 0.30792 0.08632 0.0
C1115 C 0.83291 0.34891 0.17934 0.0
C1116 C 0.8269 0.32018 0.11568 0.0
C1117 C 0.83787 0.31838 0.15886 0.0
C1118 C 0.84087 0.33286 0.19087 0.0
N1119 N 0.81916 0.33597 0.1046 0.0
C1120 C 0.82203 0.35022 0.13577 0.0
Co1121 Co 0.92643 0.51866 0.34267 0.0
Co1122 Co 0.92434 0.55984 0.28977 0.0
O1123 O 0.91612 0.54235 0.34006 0.0
C1124 C 0.9274 0.52932 0.45284 0.0
O1125 O 0.93348 0.54478 0.43888 0.0
C1126 C 0.88612 0.56567 0.26014 0.0
O1127 O 0.88524 0.55038 0.23656 0.0
O1128 O 0.91929 0.54314 0.23198 0.0
O1129 O 0.93 0.51829 0.26641 0.0
H1130 H 0.95802 0.58003 0.1329 0.0
H1131 H 0.89167 0.52531 0.39061 0.0
O1132 O 0.92328 0.51789 0.41905 0.0
H1133 H 0.88121 0.47922 0.25939 0.0
H1134 H 0.93077 0.45607 0.40567 0.0
H1135 H 0.95741 0.50157 0.29409 0.0
H1136 H 0.91102 0.49112 0.27341 0.0
H1137 H 0.91758 0.48564 0.39973 0.0
O1138 O 0.9 0.57015 0.28477 0.0
H1139 H 0.94787 0.55856 0.19817 0.0
H1140 H 0.91766 0.59816 0.27274 0.0
H1141 H 0.97095 0.47214 0.29858 0.0
H1142 H 0.86165 0.51365 0.37819 0.0
H1143 H 0.95762 0.44914 0.35469 0.0
H1144 H 0.85628 0.49046 0.31209 0.0
O1145 O 0.95031 0.5288 0.35201 0.0
H1146 H 0.91056 0.59114 0.45656 0.0
H1147 H 0.95484 0.58269 0.31912 0.0
H1148 H 0.96146 0.60242 0.39251 0.0
H1149 H 0.93919 0.6068 0.46186 0.0
H1150 H 0.9046 0.57133 0.38274 0.0
H1151 H 0.92732 0.62 0.20799 0.0
H1152 H 0.94772 0.61099 0.13754 0.0
O1153 O 0.94914 0.55079 0.29423 0.0
C1154 C 0.92437 0.52721 0.22813 0.0
C1155 C 0.94915 0.58412 0.16345 0.0
C1156 C 0.9319 0.60654 0.20554 0.0
N1157 N 0.93222 0.5771 0.23933 0.0
C1158 C 0.94338 0.57203 0.20058 0.0
C1159 C 0.92642 0.5941 0.242 0.0
C1160 C 0.94336 0.60149 0.16605 0.0
C1161 C 0.88944 0.51513 0.36203 0.0
N1162 N 0.90308 0.50886 0.33295 0.0
C1163 C 0.87242 0.50862 0.35506 0.0
C1164 C 0.86941 0.49562 0.31794 0.0
C1165 C 0.88339 0.48931 0.28834 0.0
C1166 C 0.90023 0.49613 0.29638 0.0
C1167 C 0.93668 0.46597 0.38099 0.0
C1168 C 0.95146 0.49161 0.31836 0.0
C1169 C 0.92929 0.48274 0.37753 0.0
N1170 N 0.93664 0.49529 0.34629 0.0
C1171 C 0.95922 0.47498 0.32084 0.0
C1172 C 0.95174 0.46209 0.35237 0.0
C1173 C 0.95773 0.54048 0.32409 0.0
C1174 C 0.92036 0.58936 0.42656 0.0
C1175 C 0.94516 0.58439 0.34932 0.0
C1176 C 0.94894 0.59566 0.39068 0.0
C1177 C 0.93644 0.59812 0.42955 0.0
N1178 N 0.92937 0.57583 0.34666 0.0
C1179 C 0.91704 0.5782 0.38458 0.0
Co1180 Co 0.74038 0.35492 0.58684 0.0
Co1181 Co 0.69905 0.34598 0.63707 0.0
O1182 O 0.71478 0.35827 0.58894 0.0
C1183 C 0.72943 0.34406 0.48208 0.0
O1184 O 0.71539 0.33652 0.50166 0.0
C1185 C 0.69309 0.38367 0.66367 0.0
O1186 O 0.70992 0.38673 0.65674 0.0
O1187 O 0.7154 0.34981 0.69658 0.0
O1188 O 0.74168 0.35697 0.66272 0.0
H1189 H 0.68426 0.30224 0.7767 0.0
H1190 H 0.72351 0.38219 0.52152 0.0
O1191 O 0.73994 0.35275 0.5105 0.0
H1192 H 0.76493 0.41435 0.63441 0.0
H1193 H 0.80127 0.36442 0.51505 0.0
H1194 H 0.76601 0.33458 0.64949 0.0
H1195 H 0.76244 0.38205 0.63985 0.0
H1196 H 0.76912 0.36855 0.51884 0.0
O1197 O 0.68672 0.36844 0.65511 0.0
H1198 H 0.7038 0.31798 0.71602 0.0
H1199 H 0.66059 0.34782 0.65967 0.0
H1200 H 0.79816 0.33023 0.64744 0.0
H1201 H 0.7257 0.41449 0.51439 0.0
H1202 H 0.81601 0.3452 0.57982 0.0
H1203 H 0.74648 0.43078 0.57125 0.0
O1204 O 0.73813 0.32862 0.59219 0.0
H1205 H 0.66401 0.36447 0.48095 0.0
H1206 H 0.68001 0.31477 0.59464 0.0
H1207 H 0.6602 0.3097 0.52022 0.0
H1208 H 0.65205 0.33468 0.46282 0.0
H1209 H 0.6839 0.36891 0.5556 0.0
H1210 H 0.6406 0.33253 0.7201 0.0
H1211 H 0.65241 0.3095 0.77903 0.0
O1212 O 0.71082 0.32333 0.62119 0.0
C1213 C 0.73151 0.35431 0.70089 0.0
C1214 C 0.67895 0.31222 0.75114 0.0
C1215 C 0.65445 0.32923 0.71942 0.0
N1216 N 0.68334 0.33374 0.68416 0.0
C1217 C 0.68994 0.32115 0.71662 0.0
C1218 C 0.66584 0.33788 0.68537 0.0
C1219 C 0.66108 0.31631 0.75245 0.0
C1220 C 0.73267 0.38919 0.54615 0.0
N1221 N 0.74282 0.38025 0.58111 0.0
C1222 C 0.73381 0.40748 0.54204 0.0
C1223 C 0.74546 0.41661 0.57399 0.0
C1224 C 0.7558 0.4074 0.60948 0.0
C1225 C 0.75429 0.38912 0.61254 0.0
C1226 C 0.79364 0.35785 0.54477 0.0
C1227 C 0.77371 0.34123 0.62016 0.0
C1228 C 0.77542 0.36011 0.54704 0.0
N1229 N 0.76571 0.3519 0.58457 0.0
C1230 C 0.7919 0.33868 0.6191 0.0
C1231 C 0.8019 0.34707 0.58112 0.0
C1232 C 0.72581 0.31811 0.60554 0.0
C1233 C 0.66742 0.3535 0.50576 0.0
C1234 C 0.67656 0.32569 0.56976 0.0
C1235 C 0.66531 0.32275 0.52774 0.0
C1236 C 0.66074 0.33677 0.49557 0.0
N1237 N 0.68302 0.34215 0.57956 0.0
C1238 C 0.67862 0.35595 0.54817 0.0
Co1239 Co 0.90813 0.4952 0.83758 0.0
Co1240 Co 0.91654 0.45346 0.88605 0.0
O1241 O 0.90474 0.46955 0.83772 0.0
C1242 C 0.91897 0.48553 0.73166 0.0
O1243 O 0.9271 0.47175 0.75085 0.0
C1244 C 0.87912 0.44376 0.91155 0.0
O1245 O 0.87533 0.46032 0.92079 0.0
O1246 O 0.91037 0.46858 0.94684 0.0
O1247 O 0.90635 0.49574 0.91403 0.0
H1248 H 0.95702 0.43799 0.03354 0.0
H1249 H 0.88054 0.4788 0.77238 0.0
O1250 O 0.90999 0.49556 0.76075 0.0
H1251 H 0.849 0.51961 0.88839 0.0
H1252 H 0.89854 0.55681 0.77125 0.0
H1253 H 0.92871 0.52018 0.90188 0.0
H1254 H 0.88132 0.51702 0.89252 0.0
H1255 H 0.89436 0.52464 0.77237 0.0
O1256 O 0.89438 0.43946 0.89549 0.0
H1257 H 0.94199 0.45793 0.9724 0.0
H1258 H 0.91638 0.4145 0.90128 0.0
H1259 H 0.93311 0.55234 0.90251 0.0
H1260 H 0.84821 0.4811 0.76648 0.0
H1261 H 0.91797 0.57088 0.83681 0.0
H1262 H 0.83223 0.50158 0.82491 0.0
O1263 O 0.93444 0.49288 0.84189 0.0
H1264 H 0.90429 0.42096 0.72012 0.0
H1265 H 0.94977 0.43677 0.8486 0.0
H1266 H 0.9579 0.41887 0.77247 0.0
H1267 H 0.93506 0.41083 0.70762 0.0
H1268 H 0.89677 0.43898 0.79664 0.0
H1269 H 0.931 0.3941 0.96193 0.0
H1270 H 0.95154 0.40581 0.02856 0.0
O1271 O 0.939 0.46646 0.87792 0.0
C1272 C 0.9071 0.48498 0.95171 0.0
C1273 C 0.94808 0.43272 0.00472 0.0
C1274 C 0.93346 0.40809 0.96457 0.0
N1275 N 0.92826 0.43741 0.93343 0.0
C1276 C 0.93953 0.44395 0.97 0.0
C1277 C 0.92515 0.41972 0.93048 0.0
C1278 C 0.945 0.41467 0.00191 0.0
C1279 C 0.87367 0.48779 0.79777 0.0
N1280 N 0.88279 0.49771 0.83291 0.0
C1281 C 0.85537 0.48902 0.79432 0.0
C1282 C 0.84641 0.5005 0.82714 0.0
C1283 C 0.85581 0.51061 0.86281 0.0
C1284 C 0.8741 0.50902 0.86517 0.0
C1285 C 0.90518 0.54888 0.80012 0.0
C1286 C 0.92199 0.52818 0.87338 0.0
C1287 C 0.9029 0.53065 0.80087 0.0
N1288 N 0.9112 0.52055 0.83735 0.0
C1289 C 0.92457 0.54637 0.87383 0.0
C1290 C 0.91608 0.55676 0.83693 0.0
C1291 C 0.94461 0.481 0.85996 0.0
C1292 C 0.91435 0.42434 0.74818 0.0
C1293 C 0.93977 0.43337 0.82049 0.0
C1294 C 0.94444 0.4232 0.77751 0.0
C1295 C 0.93162 0.41868 0.74115 0.0
N1296 N 0.92279 0.43885 0.82715 0.0
C1297 C 0.91015 0.43448 0.79167 0.0
Co1298 Co 0.76545 0.66967 0.10357 0.0
Co1299 Co 0.80885 0.6712 0.14516 0.0
O1300 O 0.79003 0.66151 0.10132 0.0
C1301 C 0.77498 0.67442 0.99321 0.0
O1302 O 0.79038 0.68036 0.00827 0.0
C1303 C 0.81136 0.63238 0.16594 0.0
O1304 O 0.79424 0.63077 0.16105 0.0
O1305 O 0.79408 0.66882 0.20858 0.0
O1306 O 0.76618 0.67062 0.1805 0.0
H1307 H 0.83355 0.71091 0.28309 0.0
H1308 H 0.77431 0.63762 0.04372 0.0
O1309 O 0.76382 0.66904 0.02633 0.0
H1310 H 0.73221 0.61809 0.17745 0.0
H1311 H 0.70182 0.66966 0.04881 0.0
H1312 H 0.74614 0.6967 0.16381 0.0
H1313 H 0.74102 0.64925 0.17152 0.0
H1314 H 0.73265 0.65957 0.04712 0.0
O1315 O 0.81882 0.64719 0.1588 0.0
H1316 H 0.81029 0.69854 0.22706 0.0
H1317 H 0.84735 0.66429 0.15638 0.0
H1318 H 0.71542 0.70707 0.16712 0.0
H1319 H 0.76571 0.60634 0.04789 0.0
H1320 H 0.69302 0.69353 0.1093 0.0
H1321 H 0.74456 0.5964 0.11524 0.0
O1322 O 0.77272 0.69493 0.09961 0.0
H1323 H 0.83579 0.64976 0.97888 0.0
H1324 H 0.8306 0.69998 0.09905 0.0
H1325 H 0.84837 0.70308 0.01951 0.0
H1326 H 0.85108 0.67783 0.95882 0.0
H1327 H 0.81801 0.64729 0.05869 0.0
H1328 H 0.87096 0.67617 0.21198 0.0
H1329 H 0.86414 0.6997 0.27576 0.0
O1330 O 0.79985 0.69551 0.13375 0.0
C1331 C 0.77755 0.66962 0.21666 0.0
C1332 C 0.8367 0.7007 0.25533 0.0
C1333 C 0.85769 0.68119 0.21546 0.0
N1334 N 0.82748 0.68081 0.18821 0.0
C1335 C 0.8236 0.69368 0.2234 0.0
C1336 C 0.84426 0.67449 0.18415 0.0
C1337 C 0.85386 0.69439 0.25123 0.0
C1338 C 0.76498 0.63341 0.07284 0.0
N1339 N 0.75815 0.64525 0.10725 0.0
C1340 C 0.76021 0.61568 0.07514 0.0
C1341 C 0.74836 0.6101 0.11299 0.0
C1342 C 0.74144 0.62226 0.14794 0.0
C1343 C 0.74653 0.63988 0.14451 0.0
C1344 C 0.71145 0.67564 0.07426 0.0
C1345 C 0.73644 0.69067 0.13876 0.0
C1346 C 0.72894 0.67001 0.0734 0.0
N1347 N 0.74116 0.67747 0.10558 0.0
C1348 C 0.71908 0.69663 0.14071 0.0
C1349 C 0.70652 0.68903 0.10822 0.0
C1350 C 0.78635 0.70319 0.11508 0.0
C1351 C 0.83475 0.66084 0.00508 0.0
C1352 C 0.83165 0.68896 0.07274 0.0
C1353 C 0.84178 0.69078 0.02783 0.0
C1354 C 0.8433 0.6766 0.99381 0.0
N1355 N 0.82333 0.67345 0.08355 0.0
C1356 C 0.82476 0.65949 0.05041 0.0
Co1357 Co 0.59323 0.51798 0.35159 0.0
Co1358 Co 0.58726 0.5611 0.39188 0.0
O1359 O 0.59899 0.54318 0.34951 0.0
C1360 C 0.58741 0.52758 0.24226 0.0
O1361 O 0.58045 0.54237 0.25858 0.0
C1362 C 0.62508 0.56569 0.42016 0.0
O1363 O 0.62706 0.54854 0.41841 0.0
O1364 O 0.58973 0.54654 0.45558 0.0
O1365 O 0.5922 0.51857 0.42847 0.0
H1366 H 0.54377 0.58273 0.52403 0.0
H1367 H 0.62426 0.53001 0.29184 0.0
O1368 O 0.59386 0.51663 0.27435 0.0
H1369 H 0.6478 0.49001 0.42568 0.0
H1370 H 0.59942 0.45477 0.29606 0.0
H1371 H 0.56827 0.49599 0.41177 0.0
H1372 H 0.61592 0.49566 0.41956 0.0
H1373 H 0.60639 0.48647 0.2946 0.0
O1374 O 0.61035 0.57266 0.40847 0.0
H1375 H 0.55866 0.56047 0.47004 0.0
H1376 H 0.59123 0.59996 0.40385 0.0
H1377 H 0.56102 0.46437 0.4149 0.0
H1378 H 0.65624 0.52461 0.29629 0.0
H1379 H 0.57664 0.44353 0.35671 0.0
H1380 H 0.66819 0.50451 0.36369 0.0
O1381 O 0.56742 0.52272 0.34768 0.0
H1382 H 0.60903 0.58995 0.2287 0.0
H1383 H 0.55757 0.58042 0.34175 0.0
H1384 H 0.55427 0.59798 0.26181 0.0
H1385 H 0.58013 0.60287 0.2047 0.0
H1386 H 0.6117 0.57234 0.30883 0.0
H1387 H 0.57681 0.62262 0.45753 0.0
H1388 H 0.55284 0.61406 0.51798 0.0
O1389 O 0.56388 0.55023 0.37743 0.0
C1390 C 0.59107 0.53008 0.46419 0.0
C1391 C 0.55415 0.58663 0.49771 0.0
C1392 C 0.57271 0.60902 0.46042 0.0
N1393 N 0.57569 0.57893 0.43352 0.0
C1394 C 0.5626 0.5741 0.46692 0.0
C1395 C 0.58085 0.59612 0.4302 0.0
C1396 C 0.55926 0.60421 0.49433 0.0
C1397 C 0.62936 0.52113 0.32097 0.0
N1398 N 0.61824 0.51311 0.35524 0.0
C1399 C 0.64748 0.51817 0.32344 0.0
C1400 C 0.65418 0.50692 0.36131 0.0
C1401 C 0.64275 0.49878 0.39613 0.0
C1402 C 0.62471 0.50207 0.39255 0.0
C1403 C 0.59255 0.46372 0.32168 0.0
C1404 C 0.57521 0.48698 0.38658 0.0
C1405 C 0.59641 0.48168 0.32096 0.0
N1406 N 0.58784 0.49304 0.35337 0.0
C1407 C 0.57101 0.4691 0.38842 0.0
C1408 C 0.57977 0.45742 0.35573 0.0
C1409 C 0.55774 0.53572 0.36032 0.0
C1410 C 0.59768 0.58796 0.25334 0.0
C1411 C 0.56887 0.58244 0.31702 0.0
C1412 C 0.56693 0.59243 0.27187 0.0
C1413 C 0.58145 0.59518 0.23986 0.0
N1414 N 0.58483 0.57543 0.33 0.0
C1415 C 0.59913 0.57806 0.29884 0.0
Co1416 Co 0.26251 0.33387 0.59427 0.0
Co1417 Co 0.30605 0.33555 0.63257 0.0
O1418 O 0.2866 0.34303 0.58784 0.0
C1419 C 0.27111 0.32757 0.48389 0.0
O1420 O 0.28659 0.32178 0.49872 0.0
C1421 C 0.31021 0.37412 0.65629 0.0
O1422 O 0.29439 0.37464 0.67667 0.0
O1423 O 0.29191 0.34026 0.696 0.0
O1424 O 0.26412 0.33462 0.67129 0.0
H1425 H 0.33324 0.30305 0.78241 0.0
H1426 H 0.26978 0.36519 0.52928 0.0
O1427 O 0.26006 0.33303 0.51719 0.0
H1428 H 0.22734 0.38522 0.66133 0.0
H1429 H 0.1984 0.32982 0.54602 0.0
H1430 H 0.24509 0.30741 0.66144 0.0
H1431 H 0.23741 0.35441 0.65973 0.0
H1432 H 0.22871 0.3412 0.53928 0.0
O1433 O 0.31576 0.36014 0.63434 0.0
H1434 H 0.30905 0.31237 0.72477 0.0
H1435 H 0.34457 0.34323 0.63586 0.0
H1436 H 0.21492 0.29579 0.66985 0.0
H1437 H 0.25993 0.39611 0.52909 0.0
H1438 H 0.19134 0.307 0.61184 0.0
H1439 H 0.23859 0.40631 0.59555 0.0
O1440 O 0.27093 0.30891 0.59421 0.0
H1441 H 0.33062 0.34967 0.45646 0.0
H1442 H 0.3276 0.30518 0.59553 0.0
H1443 H 0.3444 0.29873 0.51593 0.0
H1444 H 0.34601 0.32108 0.44572 0.0
H1445 H 0.31382 0.3555 0.53657 0.0
H1446 H 0.36911 0.33438 0.69282 0.0
H1447 H 0.36353 0.31409 0.76661 0.0
O1448 O 0.2974 0.31083 0.63207 0.0
C1449 C 0.27559 0.3382 0.70582 0.0
C1450 C 0.33585 0.31186 0.75031 0.0
C1451 C 0.35598 0.32947 0.70008 0.0
N1452 N 0.3254 0.32826 0.67682 0.0
C1453 C 0.32221 0.31716 0.71747 0.0
C1454 C 0.34202 0.33447 0.66803 0.0
C1455 C 0.35284 0.31808 0.74146 0.0
C1456 C 0.26042 0.36951 0.55814 0.0
N1457 N 0.25417 0.35799 0.59445 0.0
C1458 C 0.25492 0.38704 0.55792 0.0
C1459 C 0.24296 0.39276 0.59525 0.0
C1460 C 0.23666 0.38094 0.63219 0.0
C1461 C 0.24246 0.36352 0.63122 0.0
C1462 C 0.20856 0.32485 0.57156 0.0
C1463 C 0.23488 0.31242 0.63626 0.0
C1464 C 0.22576 0.33121 0.56783 0.0
N1465 N 0.23864 0.32504 0.60014 0.0
C1466 C 0.21783 0.30576 0.64111 0.0
C1467 C 0.2046 0.31205 0.60852 0.0
C1468 C 0.28456 0.30188 0.61436 0.0
C1469 C 0.33006 0.33984 0.48683 0.0
C1470 C 0.32817 0.31494 0.56509 0.0
C1471 C 0.33775 0.31124 0.52015 0.0
C1472 C 0.33866 0.32379 0.4808 0.0
N1473 N 0.31978 0.33072 0.57073 0.0
C1474 C 0.32062 0.3431 0.53234 0.0
Co1475 Co 0.41936 0.52231 0.34143 0.0
Co1476 Co 0.41977 0.56526 0.38501 0.0
O1477 O 0.4116 0.54687 0.33774 0.0
C1478 C 0.43194 0.51483 0.23542 0.0
O1479 O 0.44634 0.50881 0.25734 0.0
C1480 C 0.38111 0.56945 0.40545 0.0
O1481 O 0.38005 0.55294 0.42015 0.0
O1482 O 0.41455 0.55036 0.44672 0.0
O1483 O 0.41887 0.52272 0.41877 0.0
H1484 H 0.45361 0.58897 0.53743 0.0
H1485 H 0.3885 0.53194 0.27699 0.0
O1486 O 0.41979 0.52152 0.26333 0.0
H1487 H 0.36587 0.48991 0.40662 0.0
H1488 H 0.41813 0.4582 0.29083 0.0
H1489 H 0.4457 0.50281 0.40365 0.0
H1490 H 0.39726 0.498 0.40544 0.0
H1491 H 0.40878 0.48923 0.28641 0.0
O1492 O 0.39556 0.57565 0.38819 0.0
H1493 H 0.44336 0.56605 0.47673 0.0
H1494 H 0.41318 0.60386 0.39419 0.0
H1495 H 0.45543 0.47192 0.40938 0.0
H1496 H 0.35703 0.52405 0.27638 0.0
H1497 H 0.44162 0.44937 0.35267 0.0
H1498 H 0.34552 0.50292 0.34163 0.0
O1499 O 0.44472 0.52965 0.34238 0.0
H1500 H 0.40646 0.59309 0.21249 0.0
H1501 H 0.45071 0.58665 0.35128 0.0
H1502 H 0.4576 0.60475 0.27451 0.0
H1503 H 0.43536 0.60811 0.20449 0.0
H1504 H 0.40019 0.57496 0.2898 0.0
H1505 H 0.42297 0.62716 0.45428 0.0
H1506 H 0.44339 0.61978 0.52641 0.0
O1507 O 0.44414 0.55577 0.38283 0.0
C1508 C 0.4159 0.53385 0.45473 0.0
C1509 C 0.44475 0.59235 0.50607 0.0
C1510 C 0.42753 0.61378 0.45945 0.0
N1511 N 0.42777 0.58362 0.43177 0.0
C1512 C 0.43893 0.57944 0.4715 0.0
C1513 C 0.42199 0.60053 0.42563 0.0
C1514 C 0.43899 0.60964 0.4999 0.0
C1515 C 0.38363 0.52262 0.30523 0.0
N1516 N 0.39475 0.51539 0.34104 0.0
C1517 C 0.36578 0.51825 0.30482 0.0
C1518 C 0.35932 0.50642 0.34148 0.0
C1519 C 0.37073 0.49913 0.37798 0.0
C1520 C 0.38849 0.50381 0.37725 0.0
C1521 C 0.42424 0.4679 0.31577 0.0
C1522 C 0.43962 0.49307 0.37887 0.0
C1523 C 0.41899 0.48548 0.31347 0.0
N1524 N 0.42669 0.49783 0.34478 0.0
C1525 C 0.44518 0.4756 0.38229 0.0
C1526 C 0.43742 0.46296 0.35046 0.0
C1527 C 0.45243 0.5428 0.36334 0.0
C1528 C 0.41625 0.59175 0.24277 0.0
C1529 C 0.44101 0.58795 0.32085 0.0
C1530 C 0.44496 0.59827 0.27754 0.0
C1531 C 0.43247 0.60016 0.23828 0.0
N1532 N 0.42505 0.57978 0.32505 0.0
C1533 C 0.41275 0.58153 0.28667 0.0
Co1534 Co 0.23881 0.68015 0.09953 0.0
Co1535 Co 0.19511 0.68079 0.13672 0.0
O1536 O 0.21451 0.67135 0.09517 0.0
C1537 C 0.23051 0.68303 0.98767 0.0
O1538 O 0.21517 0.68964 0.00058 0.0
C1539 C 0.19071 0.64297 0.16922 0.0
O1540 O 0.20701 0.64249 0.18614 0.0
O1541 O 0.20907 0.67801 0.20174 0.0
O1542 O 0.23707 0.68193 0.17637 0.0
H1543 H 0.16851 0.71923 0.27451 0.0
H1544 H 0.23091 0.647 0.04366 0.0
O1545 O 0.24139 0.67839 0.02259 0.0
H1546 H 0.27256 0.63045 0.1822 0.0
H1547 H 0.30306 0.68113 0.05199 0.0
H1548 H 0.25671 0.70831 0.15915 0.0
H1549 H 0.26328 0.6613 0.17131 0.0
H1550 H 0.27251 0.67025 0.04784 0.0
O1551 O 0.18486 0.65664 0.14625 0.0
H1552 H 0.19254 0.70725 0.22082 0.0
H1553 H 0.15637 0.67422 0.14134 0.0
H1554 H 0.28712 0.7195 0.16486 0.0
H1555 H 0.23997 0.616 0.0528 0.0
H1556 H 0.31054 0.70589 0.11099 0.0
H1557 H 0.26091 0.60755 0.12257 0.0
O1558 O 0.23099 0.70518 0.09207 0.0
H1559 H 0.17105 0.66063 0.9651 0.0
H1560 H 0.17368 0.70974 0.08983 0.0
H1561 H 0.15726 0.71343 0.00798 0.0
H1562 H 0.15585 0.68874 0.94494 0.0
H1563 H 0.1875 0.65761 0.04726 0.0
H1564 H 0.13198 0.68569 0.19453 0.0
H1565 H 0.13797 0.70842 0.26155 0.0
O1566 O 0.2042 0.70521 0.12825 0.0
C1567 C 0.22545 0.6798 0.21143 0.0
C1568 C 0.16573 0.70934 0.24538 0.0
C1569 C 0.14523 0.6905 0.20055 0.0
N1570 N 0.17587 0.69008 0.1779 0.0
C1571 C 0.17927 0.70254 0.2148 0.0
C1572 C 0.15911 0.68401 0.17068 0.0
C1573 C 0.1486 0.70326 0.23812 0.0
C1574 C 0.24011 0.64344 0.07391 0.0
N1575 N 0.24657 0.65596 0.10686 0.0
C1576 C 0.24516 0.62586 0.07898 0.0
C1577 C 0.25689 0.62112 0.11817 0.0
C1578 C 0.26342 0.63397 0.15166 0.0
C1579 C 0.25807 0.65141 0.14543 0.0
C1580 C 0.29298 0.68716 0.0757 0.0
C1581 C 0.26685 0.70226 0.13581 0.0
C1582 C 0.27565 0.68109 0.07342 0.0
N1583 N 0.26287 0.68858 0.10345 0.0
C1584 C 0.28404 0.70868 0.13911 0.0
C1585 C 0.29717 0.70104 0.10883 0.0
C1586 C 0.21735 0.71318 0.1086 0.0
C1587 C 0.17155 0.67148 0.99227 0.0
C1588 C 0.17325 0.699 0.06248 0.0
C1589 C 0.16386 0.70113 0.01627 0.0
C1590 C 0.16305 0.68726 0.98095 0.0
N1591 N 0.18158 0.6835 0.07328 0.0
C1592 C 0.18079 0.66983 0.03891 0.0
Co1593 Co 0.08325 0.49487 0.85811 0.0
Co1594 Co 0.08204 0.45145 0.89682 0.0
O1595 O 0.09113 0.4703 0.85246 0.0
C1596 C 0.07873 0.48668 0.74642 0.0
O1597 O 0.07197 0.47145 0.75984 0.0
C1598 C 0.12029 0.44505 0.92031 0.0
O1599 O 0.12196 0.46118 0.93794 0.0
O1600 O 0.08758 0.4653 0.96019 0.0
O1601 O 0.08266 0.49319 0.93539 0.0
H1602 H 0.04703 0.4269 0.04554 0.0
H1603 H 0.11522 0.48592 0.79793 0.0
O1604 O 0.0839 0.49747 0.78094 0.0
H1605 H 0.13525 0.5271 0.93361 0.0
H1606 H 0.08354 0.55915 0.81057 0.0
H1607 H 0.05668 0.51361 0.92154 0.0
H1608 H 0.10399 0.51877 0.92703 0.0
H1609 H 0.09336 0.52829 0.80498 0.0
O1610 O 0.10585 0.44001 0.89986 0.0
H1611 H 0.05839 0.45028 0.98821 0.0
H1612 H 0.08674 0.41246 0.90043 0.0
H1613 H 0.04658 0.54434 0.92876 0.0
H1614 H 0.14661 0.49403 0.80276 0.0
H1615 H 0.06004 0.56736 0.87298 0.0
H1616 H 0.15681 0.51473 0.87106 0.0
O1617 O 0.05791 0.48779 0.85406 0.0
H1618 H 0.09523 0.42557 0.72174 0.0
H1619 H 0.05033 0.43212 0.85845 0.0
H1620 H 0.04308 0.41569 0.77872 0.0
H1621 H 0.06564 0.41229 0.70971 0.0
H1622 H 0.10185 0.44207 0.80193 0.0
H1623 H 0.07583 0.3887 0.95709 0.0
H1624 H 0.05576 0.39585 0.03016 0.0
O1625 O 0.05795 0.46183 0.89518 0.0
C1626 C 0.08594 0.48165 0.97003 0.0
C1627 C 0.05573 0.42361 0.01377 0.0
C1628 C 0.07192 0.40218 0.96417 0.0
N1629 N 0.07315 0.43274 0.94086 0.0
C1630 C 0.06218 0.43679 0.98111 0.0
C1631 C 0.0781 0.4157 0.9323 0.0
C1632 C 0.06065 0.4062 0.00514 0.0
C1633 C 0.11955 0.49502 0.82757 0.0
N1634 N 0.10777 0.50188 0.86211 0.0
C1635 C 0.13734 0.49953 0.83019 0.0
C1636 C 0.14306 0.51113 0.86856 0.0
C1637 C 0.13098 0.51807 0.90368 0.0
C1638 C 0.11329 0.51325 0.89989 0.0
C1639 C 0.07759 0.54925 0.83513 0.0
C1640 C 0.06267 0.52357 0.89735 0.0
C1641 C 0.08307 0.53174 0.83204 0.0
N1642 N 0.07567 0.51918 0.86313 0.0
C1643 C 0.05687 0.54094 0.90152 0.0
C1644 C 0.06441 0.55384 0.87017 0.0
C1645 C 0.04991 0.47486 0.87506 0.0
C1646 C 0.0853 0.42692 0.75159 0.0
C1647 C 0.06018 0.43079 0.8285 0.0
C1648 C 0.05602 0.42141 0.78351 0.0
C1649 C 0.06869 0.4195 0.74482 0.0
N1650 N 0.07651 0.43803 0.83485 0.0
C1651 C 0.089 0.43618 0.79714 0.0
Co1652 Co 0.2628 0.66819 0.59622 0.0
Co1653 Co 0.30637 0.66877 0.55583 0.0
O1654 O 0.28699 0.65893 0.59702 0.0
C1655 C 0.27295 0.67189 0.70647 0.0
O1656 O 0.2886 0.67696 0.69094 0.0
C1657 C 0.30645 0.6308 0.52304 0.0
O1658 O 0.28934 0.62962 0.52878 0.0
O1659 O 0.29143 0.66971 0.49218 0.0
O1660 O 0.26337 0.66972 0.51944 0.0
H1661 H 0.33364 0.71138 0.43027 0.0
H1662 H 0.27057 0.63535 0.65364 0.0
O1663 O 0.26141 0.6671 0.67359 0.0
H1664 H 0.22725 0.61859 0.51984 0.0
H1665 H 0.19943 0.67038 0.6528 0.0
H1666 H 0.24439 0.69641 0.53816 0.0
H1667 H 0.23733 0.64932 0.52764 0.0
H1668 H 0.22982 0.65903 0.65296 0.0
O1669 O 0.31464 0.64487 0.53459 0.0
H1670 H 0.30965 0.69874 0.48284 0.0
H1671 H 0.34429 0.65965 0.54151 0.0
H1672 H 0.21412 0.70806 0.53639 0.0
H1673 H 0.26072 0.60447 0.64756 0.0
H1674 H 0.1914 0.69502 0.59405 0.0
H1675 H 0.23894 0.59593 0.58017 0.0
O1676 O 0.27107 0.69314 0.60156 0.0
H1677 H 0.33174 0.63972 0.71414 0.0
H1678 H 0.33029 0.69409 0.6098 0.0
H1679 H 0.34829 0.69308 0.68944 0.0
H1680 H 0.34912 0.66572 0.74217 0.0
H1681 H 0.31378 0.64138 0.63443 0.0
H1682 H 0.3686 0.67175 0.48915 0.0
H1683 H 0.36336 0.69785 0.43318 0.0
O1684 O 0.29911 0.69297 0.57474 0.0
C1685 C 0.27489 0.67025 0.48367 0.0
C1686 C 0.3361 0.70004 0.45464 0.0
C1687 C 0.35571 0.67779 0.48764 0.0
N1688 N 0.32559 0.67856 0.51552 0.0
C1689 C 0.32258 0.69286 0.48462 0.0
C1690 C 0.34189 0.67098 0.51713 0.0
C1691 C 0.35277 0.69243 0.45625 0.0
C1692 C 0.26098 0.63174 0.62451 0.0
N1693 N 0.25449 0.64412 0.59116 0.0
C1694 C 0.2555 0.61423 0.62112 0.0
C1695 C 0.2433 0.60944 0.58325 0.0
C1696 C 0.23674 0.62215 0.54936 0.0
C1697 C 0.24254 0.63952 0.55386 0.0
C1698 C 0.20921 0.67615 0.62744 0.0
C1699 C 0.23455 0.6906 0.56313 0.0
C1700 C 0.22645 0.6698 0.62744 0.0
N1701 N 0.23884 0.67698 0.59537 0.0
C1702 C 0.21744 0.69728 0.56206 0.0
C1703 C 0.20471 0.68997 0.59445 0.0
C1704 C 0.28552 0.70093 0.59135 0.0
C1705 C 0.33152 0.6517 0.69145 0.0
C1706 C 0.33051 0.68218 0.63266 0.0
C1707 C 0.34078 0.68166 0.67764 0.0
C1708 C 0.34125 0.6663 0.70719 0.0
N1709 N 0.32102 0.66779 0.61746 0.0
C1710 C 0.32142 0.65269 0.6462 0.0
Co1711 Co 0.09818 0.5187 0.35552 0.0
Co1712 Co 0.09236 0.56182 0.31442 0.0
O1713 O 0.10396 0.54393 0.35745 0.0
C1714 C 0.09141 0.52833 0.46463 0.0
O1715 O 0.08468 0.54313 0.44751 0.0
C1716 C 0.13037 0.56668 0.28761 0.0
O1717 O 0.13288 0.54964 0.29156 0.0
O1718 O 0.09488 0.54711 0.25105 0.0
O1719 O 0.09757 0.51918 0.27833 0.0
H1720 H 0.04935 0.58319 0.18026 0.0
H1721 H 0.1288 0.53072 0.41714 0.0
O1722 O 0.09826 0.51741 0.43313 0.0
H1723 H 0.15319 0.4906 0.28511 0.0
H1724 H 0.10394 0.45557 0.41229 0.0
H1725 H 0.07361 0.49664 0.29408 0.0
H1726 H 0.12128 0.49632 0.28912 0.0
H1727 H 0.11093 0.48726 0.41375 0.0
O1728 O 0.11541 0.57339 0.2979 0.0
H1729 H 0.06409 0.56103 0.23505 0.0
H1730 H 0.09626 0.60069 0.3022 0.0
H1731 H 0.06635 0.46502 0.29094 0.0
H1732 H 0.16079 0.52526 0.41484 0.0
H1733 H 0.08156 0.44425 0.35038 0.0
H1734 H 0.17317 0.5051 0.34836 0.0
O1735 O 0.07237 0.52347 0.35782 0.0
H1736 H 0.11388 0.59094 0.47752 0.0
H1737 H 0.06259 0.58124 0.36364 0.0
H1738 H 0.05918 0.59896 0.44322 0.0
H1739 H 0.08496 0.60393 0.50074 0.0
H1740 H 0.11666 0.57317 0.39774 0.0
H1741 H 0.082 0.62325 0.24773 0.0
H1742 H 0.0583 0.61456 0.18638 0.0
O1743 O 0.06896 0.55104 0.3284 0.0
C1744 C 0.09631 0.53065 0.24248 0.0
C1745 C 0.0596 0.58716 0.20699 0.0
C1746 C 0.07794 0.60963 0.24482 0.0
N1747 N 0.08088 0.57958 0.27219 0.0
C1748 C 0.06796 0.57468 0.23825 0.0
C1749 C 0.08598 0.59679 0.27552 0.0
C1750 C 0.06465 0.60475 0.21041 0.0
C1751 C 0.13409 0.52182 0.38841 0.0
N1752 N 0.1232 0.5138 0.35346 0.0
C1753 C 0.15221 0.51883 0.38716 0.0
C1754 C 0.15915 0.50754 0.3498 0.0
C1755 C 0.14795 0.49941 0.31427 0.0
C1756 C 0.1299 0.50273 0.31664 0.0
C1757 C 0.09725 0.46448 0.38612 0.0
C1758 C 0.08037 0.48766 0.31982 0.0
C1759 C 0.10113 0.48245 0.38684 0.0
N1760 N 0.09278 0.49376 0.35375 0.0
C1761 C 0.07617 0.46978 0.31798 0.0
C1762 C 0.0847 0.45814 0.35137 0.0
C1763 C 0.06277 0.5365 0.34494 0.0
C1764 C 0.10257 0.58891 0.4527 0.0
C1765 C 0.07386 0.58331 0.38855 0.0
C1766 C 0.07186 0.59339 0.43349 0.0
C1767 C 0.08633 0.59618 0.46574 0.0
N1768 N 0.08984 0.57626 0.37599 0.0
C1769 C 0.10408 0.57893 0.4074 0.0
Co1770 Co 0.23892 0.34129 0.09159 0.0
Co1771 Co 0.19538 0.34088 0.05096 0.0
O1772 O 0.21445 0.34971 0.0953 0.0
C1773 C 0.22927 0.33429 0.20067 0.0
O1774 O 0.2139 0.32874 0.18408 0.0
C1775 C 0.19369 0.37958 0.02944 0.0
O1776 O 0.21092 0.38063 0.03119 0.0
O1777 O 0.21006 0.34358 0.98756 0.0
O1778 O 0.23811 0.34187 0.01459 0.0
H1779 H 0.16966 0.30335 0.90935 0.0
H1780 H 0.23022 0.37222 0.15654 0.0
O1781 O 0.24053 0.34036 0.16889 0.0
H1782 H 0.27267 0.39392 0.02674 0.0
H1783 H 0.30254 0.33961 0.14613 0.0
H1784 H 0.258 0.31543 0.0264 0.0
H1785 H 0.26363 0.36276 0.0275 0.0
H1786 H 0.27179 0.34987 0.14979 0.0
O1787 O 0.18588 0.36516 0.0396 0.0
H1788 H 0.19325 0.31458 0.9662 0.0
H1789 H 0.15698 0.34855 0.04145 0.0
H1790 H 0.28865 0.30493 0.02104 0.0
H1791 H 0.23902 0.40347 0.15753 0.0
H1792 H 0.31115 0.31703 0.08124 0.0
H1793 H 0.26036 0.41451 0.09219 0.0
O1794 O 0.23145 0.316 0.09114 0.0
H1795 H 0.16914 0.36109 0.21951 0.0
H1796 H 0.17334 0.31197 0.09507 0.0
H1797 H 0.15572 0.30835 0.17472 0.0
H1798 H 0.15352 0.33304 0.23757 0.0
H1799 H 0.18674 0.36408 0.13949 0.0
H1800 H 0.13303 0.33781 0.98508 0.0
H1801 H 0.13929 0.315 0.91857 0.0
O1802 O 0.20395 0.31639 0.05977 0.0
C1803 C 0.22657 0.34311 0.97893 0.0
C1804 C 0.16675 0.31325 0.9383 0.0
C1805 C 0.1462 0.3326 0.98078 0.0
N1806 N 0.17648 0.33209 0.0074 0.0
C1807 C 0.18005 0.31962 0.97071 0.0
C1808 C 0.15982 0.33864 0.01254 0.0
C1809 C 0.14972 0.3198 0.94347 0.0
C1810 C 0.23961 0.37691 0.12825 0.0
N1811 N 0.24644 0.36568 0.0921 0.0
C1812 C 0.2445 0.39462 0.12888 0.0
C1813 C 0.25646 0.40081 0.09216 0.0
C1814 C 0.26336 0.38927 0.05541 0.0
C1815 C 0.25815 0.37165 0.05592 0.0
C1816 C 0.29286 0.33425 0.11964 0.0
C1817 C 0.26775 0.32083 0.05251 0.0
C1818 C 0.27541 0.33998 0.12161 0.0
N1819 N 0.26313 0.33333 0.08813 0.0
C1820 C 0.28507 0.3148 0.04939 0.0
C1821 C 0.29768 0.32159 0.08321 0.0
C1822 C 0.21752 0.30821 0.07577 0.0
C1823 C 0.16996 0.35025 0.19236 0.0
C1824 C 0.17249 0.32275 0.12229 0.0
C1825 C 0.16246 0.32064 0.16727 0.0
C1826 C 0.16122 0.3345 0.2025 0.0
N1827 N 0.181 0.33825 0.1126 0.0
C1828 C 0.17984 0.3519 0.14693 0.0
Co1829 Co 0.41238 0.49177 0.83827 0.0
Co1830 Co 0.41312 0.44909 0.79054 0.0
O1831 O 0.40423 0.46718 0.83799 0.0
C1832 C 0.42154 0.48015 0.94419 0.0
O1833 O 0.42815 0.46594 0.92284 0.0
C1834 C 0.37431 0.44761 0.76984 0.0
O1835 O 0.37297 0.46469 0.77616 0.0
O1836 O 0.41048 0.46503 0.72981 0.0
O1837 O 0.41128 0.49263 0.761 0.0
H1838 H 0.45094 0.42641 0.64533 0.0
H1839 H 0.38206 0.48147 0.90374 0.0
O1840 O 0.41385 0.49159 0.91603 0.0
H1841 H 0.35894 0.5261 0.78263 0.0
H1842 H 0.41378 0.55403 0.90491 0.0
H1843 H 0.4375 0.51264 0.77525 0.0
H1844 H 0.39017 0.51738 0.77971 0.0
H1845 H 0.40392 0.52311 0.9033 0.0
O1846 O 0.3889 0.43978 0.77719 0.0
H1847 H 0.4396 0.44876 0.70611 0.0
H1848 H 0.40548 0.41095 0.77402 0.0
H1849 H 0.4476 0.54348 0.77516 0.0
H1850 H 0.35076 0.48992 0.90835 0.0
H1851 H 0.43572 0.56441 0.84036 0.0
H1852 H 0.33901 0.51236 0.84738 0.0
O1853 O 0.43775 0.48468 0.8348 0.0
H1854 H 0.39279 0.41949 0.9541 0.0
H1855 H 0.44195 0.42613 0.83085 0.0
H1856 H 0.44549 0.40689 0.90726 0.0
H1857 H 0.42077 0.40345 0.96948 0.0
H1858 H 0.38988 0.43873 0.87735 0.0
H1859 H 0.41632 0.38824 0.71365 0.0
H1860 H 0.43927 0.3959 0.64885 0.0
O1861 O 0.43756 0.45749 0.80126 0.0
C1862 C 0.41045 0.48168 0.72358 0.0
C1863 C 0.44098 0.42289 0.67351 0.0
C1864 C 0.42154 0.40147 0.71182 0.0
N1865 N 0.422 0.43114 0.74385 0.0
C1866 C 0.43455 0.43548 0.70813 0.0
C1867 C 0.41543 0.4144 0.74585 0.0
C1868 C 0.43442 0.40578 0.67548 0.0
C1869 C 0.37706 0.49134 0.87737 0.0
N1870 N 0.38793 0.49896 0.84163 0.0
C1871 C 0.35932 0.49603 0.88003 0.0
C1872 C 0.35273 0.50861 0.84577 0.0
C1873 C 0.36391 0.51631 0.8094 0.0
C1874 C 0.38157 0.51128 0.80783 0.0
C1875 C 0.41903 0.54504 0.87626 0.0
C1876 C 0.4322 0.52169 0.80354 0.0
C1877 C 0.41353 0.52751 0.87523 0.0
N1878 N 0.42005 0.51611 0.83899 0.0
C1879 C 0.438 0.53913 0.80339 0.0
C1880 C 0.43134 0.55086 0.84002 0.0
C1881 C 0.44563 0.47096 0.81834 0.0
C1882 C 0.40364 0.42085 0.92721 0.0
C1883 C 0.43116 0.42475 0.85783 0.0
C1884 C 0.43323 0.4138 0.90097 0.0
C1885 C 0.41935 0.41187 0.93585 0.0
N1886 N 0.41569 0.43348 0.84959 0.0
C1887 C 0.40204 0.43167 0.88362 0.0
H1888 H 0.11991 0.09496 0.96768 0.0
H1889 H 0.15849 0.05555 0.92888 0.0
H1890 H 0.18204 0.07484 0.96077 0.0
H1891 H 0.19165 0.10344 -0.00218 0.0
H1892 H 0.15221 0.14185 0.0394 0.0
H1893 H 0.12913 0.12237 0.0087 0.0
C1894 C 0.13348 0.09058 0.96598 0.0
C1895 C 0.13746 0.07393 0.94533 0.0
C1896 C 0.14684 0.10156 0.98515 0.0
C1897 C 0.15508 0.06834 0.94442 0.0
C1898 C 0.16855 0.07937 0.96265 0.0
C1899 C 0.178 0.10748 0.00053 0.0
C1900 C 0.17379 0.12423 0.02064 0.0
C1901 C 0.16459 0.09608 0.98294 0.0
C1902 C 0.15597 0.12915 0.02402 0.0
C1903 C 0.14268 0.11801 0.0063 0.0
H1904 H 0.15135 0.95028 0.23957 0.0
H1905 H 0.12158 0.90896 0.31427 0.0
H1906 H 0.14234 0.88716 0.2833 0.0
H1907 H 0.16762 0.87931 0.23001 0.0
H1908 H 0.19898 0.91993 0.159 0.0
H1909 H 0.17902 0.9425 0.1936 0.0
C1910 C 0.14956 0.93655 0.2497 0.0
C1911 C 0.13467 0.93132 0.27846 0.0
C1912 C 0.16173 0.9239 0.23198 0.0
C1913 C 0.1327 0.91344 0.2916 0.0
C1914 C 0.14458 0.90088 0.27384 0.0
C1915 C 0.17011 0.89313 0.22226 0.0
C1916 C 0.18451 0.898 0.19137 0.0
C1917 C 0.15887 0.9059 0.24302 0.0
C1918 C 0.18787 0.91592 0.18252 0.0
C1919 C 0.17646 0.92878 0.20222 0.0
H1920 H 0.34408 0.94129 0.44279 0.0
H1921 H 0.3882 0.9055 0.44219 0.0
H1922 H 0.36977 0.8822 0.4768 0.0
H1923 H 0.34126 0.87162 0.50659 0.0
H1924 H 0.29631 0.90619 0.50363 0.0
H1925 H 0.31486 0.93023 0.47142 0.0
C1926 C 0.34962 0.92839 0.45026 0.0
C1927 C 0.36753 0.92521 0.43969 0.0
C1928 C 0.33881 0.91479 0.46972 0.0
C1929 C 0.37446 0.90836 0.44939 0.0
C1930 C 0.36394 0.89498 0.46948 0.0
C1931 C 0.33551 0.88445 0.49933 0.0
C1932 C 0.31745 0.88714 0.50792 0.0
C1933 C 0.34613 0.89802 0.47976 0.0
C1934 C 0.31019 0.90378 0.49743 0.0
C1935 C 0.3208 0.91753 0.47897 0.0
H1936 H 0.38797 0.09267 0.75498 0.0
H1937 H 0.3521 0.04883 0.76337 0.0
H1938 H 0.32804 0.06778 0.73266 0.0
H1939 H 0.31733 0.09718 0.7033 0.0
H1940 H 0.35464 0.13991 0.69153 0.0
H1941 H 0.37792 0.12099 0.72339 0.0
C1942 C 0.37487 0.08722 0.75068 0.0
C1943 C 0.3718 0.0694 0.76228 0.0
C1944 C 0.36133 0.09803 0.73194 0.0
C1945 C 0.3548 0.06254 0.75507 0.0
C1946 C 0.34105 0.07338 0.73743 0.0
C1947 C 0.33056 0.10231 0.70756 0.0
C1948 C 0.3341 0.12005 0.695 0.0
C1949 C 0.34417 0.09119 0.72562 0.0
C1950 C 0.3514 0.12639 0.70057 0.0
C1951 C 0.3648 0.11557 0.71907 0.0
H1952 H 0.83615 0.87299 0.19724 0.0
H1953 H 0.79676 0.91194 0.16153 0.0
H1954 H 0.81621 0.93521 0.19461 0.0
H1955 H 0.84488 0.94439 0.23289 0.0
H1956 H 0.88304 0.90436 0.27172 0.0
H1957 H 0.86358 0.88172 0.23854 0.0
C1958 C 0.83182 0.88658 0.19631 0.0
C1959 C 0.81512 0.89075 0.17626 0.0
C1960 C 0.84286 0.89974 0.21628 0.0
C1961 C 0.80959 0.90839 0.17652 0.0
C1962 C 0.82072 0.92169 0.19546 0.0
C1963 C 0.84888 0.93072 0.23433 0.0
C1964 C 0.86553 0.92622 0.25464 0.0
C1965 C 0.83744 0.91752 0.21542 0.0
C1966 C 0.87039 0.90835 0.25638 0.0
C1967 C 0.85927 0.89531 0.23721 0.0
H1968 H 0.88195 0.08494 0.98068 0.0
H1969 H 0.84395 0.05625 0.88994 0.0
H1970 H 0.82037 0.07565 0.92189 0.0
H1971 H 0.81128 0.10239 0.97099 0.0
H1972 H 0.85003 0.12948 0.06445 0.0
H1973 H 0.87251 0.10896 0.03653 0.0
C1974 C 0.86846 0.08288 0.96812 0.0
C1975 C 0.86464 0.06946 0.93244 0.0
C1976 C 0.85514 0.09382 0.98714 0.0
C1977 C 0.84713 0.06661 0.91725 0.0
C1978 C 0.83372 0.07772 0.93542 0.0
C1979 C 0.82457 0.10363 0.98585 0.0
C1980 C 0.82894 0.11774 0.01908 0.0
C1981 C 0.83763 0.0916 0.96976 0.0
C1982 C 0.84625 0.11899 0.03827 0.0
C1983 C 0.85919 0.10725 0.0223 0.0
H1984 H 0.6657 0.14139 0.68544 0.0
H1985 H 0.70989 0.10597 0.67686 0.0
H1986 H 0.69124 0.08178 0.70826 0.0
H1987 H 0.66212 0.07094 0.73964 0.0
H1988 H 0.61909 0.10787 0.75125 0.0
H1989 H 0.6376 0.13115 0.71744 0.0
C1990 C 0.67131 0.12837 0.68986 0.0
C1991 C 0.68915 0.1255 0.67824 0.0
C1992 C 0.6607 0.11477 0.70897 0.0
C1993 C 0.69617 0.10855 0.68529 0.0
C1994 C 0.68551 0.09473 0.70334 0.0
C1995 C 0.65684 0.08409 0.73477 0.0
C1996 C 0.63919 0.08757 0.74823 0.0
C1997 C 0.66773 0.0977 0.71562 0.0
C1998 C 0.63261 0.10473 0.74181 0.0
C1999 C 0.64317 0.11812 0.72216 0.0
H2000 H 0.62077 0.92175 0.40307 0.0
H2001 H 0.65093 0.9671 0.45015 0.0
H2002 H 0.67397 0.9477 0.48473 0.0
H2003 H 0.68473 0.91739 0.50581 0.0
H2004 H 0.65243 0.87299 0.4628 0.0
H2005 H 0.63106 0.89246 0.42296 0.0
C2006 C 0.6324 0.92752 0.42045 0.0
C2007 C 0.63404 0.94591 0.42385 0.0
C2008 C 0.64519 0.91636 0.44166 0.0
C2009 C 0.64929 0.95299 0.44686 0.0
C2010 C 0.66244 0.94188 0.46685 0.0
C2011 C 0.67303 0.91207 0.48753 0.0
C2012 C 0.67011 0.89374 0.4879 0.0
C2013 C 0.66042 0.92349 0.4652 0.0
C2014 C 0.65487 0.88701 0.46407 0.0
C2015 C 0.64266 0.89814 0.44087 0.0
H2016 H 0.69357 0.60762 0.4879 0.0
H2017 H 0.65366 0.64356 0.54269 0.0
H2018 H 0.63075 0.62388 0.51236 0.0
H2019 H 0.62169 0.59706 0.46799 0.0
H2020 H 0.66072 0.5598 0.41679 0.0
H2021 H 0.68423 0.57932 0.44795 0.0
C2022 C 0.67987 0.61107 0.49357 0.0
C2023 C 0.67547 0.62723 0.51719 0.0
C2024 C 0.66654 0.5995 0.47633 0.0
C2025 C 0.65758 0.63135 0.52444 0.0
C2026 C 0.64437 0.62009 0.50698 0.0
C2027 C 0.63535 0.59321 0.46343 0.0
C2028 C 0.63947 0.57712 0.43946 0.0
C2029 C 0.64868 0.60427 0.48232 0.0
C2030 C 0.65722 0.57216 0.43492 0.0
C2031 C 0.67065 0.58333 0.45273 0.0
H2032 H 0.64931 0.44992 0.73845 0.0
H2033 H 0.61555 0.4083 0.79461 0.0
H2034 H 0.63597 0.38636 0.76224 0.0
H2035 H 0.66265 0.37871 0.7153 0.0
H2036 H 0.69744 0.41956 0.66087 0.0
H2037 H 0.67741 0.44203 0.69528 0.0
C2038 C 0.64651 0.43606 0.74402 0.0
C2039 C 0.63078 0.43085 0.76861 0.0
C2040 C 0.65842 0.42333 0.72526 0.0
C2041 C 0.62744 0.41279 0.77564 0.0
C2042 C 0.63911 0.40016 0.75701 0.0
C2043 C 0.66586 0.39254 0.71073 0.0
C2044 C 0.68139 0.39747 0.68494 0.0
C2045 C 0.65448 0.40527 0.73115 0.0
C2046 C 0.68552 0.41543 0.68038 0.0
C2047 C 0.67406 0.42827 0.70004 0.0
H2048 H 0.84552 0.44654 0.95103 0.0
H2049 H 0.8843 0.40851 0.90164 0.0
H2050 H 0.86548 0.38464 0.93006 0.0
H2051 H 0.83861 0.37424 0.97141 0.0
H2052 H 0.79871 0.41132 0.01774 0.0
H2053 H 0.81729 0.43576 0.98802 0.0
C2054 C 0.84978 0.43303 0.94612 0.0
C2055 C 0.86648 0.42947 0.92465 0.0
C2056 C 0.83873 0.41913 0.96232 0.0
C2057 C 0.87167 0.41181 0.91835 0.0
C2058 C 0.86089 0.39805 0.93468 0.0
C2059 C 0.83397 0.38768 0.9752 0.0
C2060 C 0.81741 0.39098 -0.00261 0.0
C2061 C 0.84454 0.40154 0.9573 0.0
C2062 C 0.81145 0.40844 0.00097 0.0
C2063 C 0.82208 0.42241 0.984 0.0
H2064 H 0.84004 0.63366 0.22708 0.0
H2065 H 0.80716 0.59733 0.14283 0.0
H2066 H 0.82693 0.57301 0.16637 0.0
H2067 H 0.85469 0.56253 0.20732 0.0
H2068 H 0.88597 0.59937 0.29588 0.0
H2069 H 0.86565 0.62288 0.27459 0.0
C2070 C 0.83716 0.62039 0.21396 0.0
C2071 C 0.82233 0.6173 0.18264 0.0
C2072 C 0.84834 0.60654 0.22845 0.0
C2073 C 0.81855 0.60002 0.16684 0.0
C2074 C 0.82988 0.58614 0.18022 0.0
C2075 C 0.85694 0.57565 0.22246 0.0
C2076 C 0.8721 0.57912 0.2525 0.0
C2077 C 0.84497 0.58928 0.21055 0.0
C2078 C 0.87463 0.59622 0.27215 0.0
C2079 C 0.86299 0.60977 0.25997 0.0
H2080 H 0.3057 0.40438 0.71365 0.0
H2081 H 0.34381 0.37635 0.62069 0.0
H2082 H 0.36661 0.39687 0.64692 0.0
H2083 H 0.37646 0.42125 0.70104 0.0
H2084 H 0.33899 0.45074 0.79129 0.0
H2085 H 0.3152 0.43128 0.76112 0.0
C2086 C 0.31892 0.40293 0.69849 0.0
C2087 C 0.323 0.38858 0.66586 0.0
C2088 C 0.33214 0.41493 0.71364 0.0
C2089 C 0.34023 0.38705 0.64635 0.0
C2090 C 0.35336 0.39879 0.66139 0.0
C2091 C 0.36306 0.42347 0.71398 0.0
C2092 C 0.35948 0.43717 0.749 0.0
C2093 C 0.34957 0.41248 0.69594 0.0
C2094 C 0.34204 0.44018 0.76453 0.0
C2095 C 0.32848 0.42904 0.74735 0.0
H2096 H 0.33322 0.63441 0.45653 0.0
H2097 H 0.30262 0.59503 0.53599 0.0
H2098 H 0.32236 0.57193 0.50306 0.0
H2099 H 0.34999 0.56353 0.45742 0.0
H2100 H 0.37937 0.60375 0.37641 0.0
H2101 H 0.35833 0.62584 0.40382 0.0
C2102 C 0.33079 0.62074 0.46638 0.0
C2103 C 0.31671 0.6164 0.49923 0.0
C2104 C 0.34202 0.60769 0.44711 0.0
C2105 C 0.31345 0.59865 0.51085 0.0
C2106 C 0.32477 0.58548 0.49219 0.0
C2107 C 0.35162 0.57707 0.44509 0.0
C2108 C 0.36648 0.58194 0.41557 0.0
C2109 C 0.33934 0.5899 0.46106 0.0
C2110 C 0.36827 0.59957 0.39968 0.0
C2111 C 0.35622 0.61229 0.41538 0.0
H2112 H 0.12582 0.59543 0.22828 0.0
H2113 H 0.1662 0.56376 0.2994 0.0
H2114 H 0.18884 0.58417 0.26733 0.0
H2115 H 0.19683 0.61196 0.22191 0.0
H2116 H 0.15574 0.64195 0.14685 0.0
H2117 H 0.13383 0.62119 0.17722 0.0
C2118 C 0.13959 0.59298 0.23684 0.0
C2119 C 0.14434 0.5783 0.26685 0.0
C2120 C 0.15243 0.60448 0.21741 0.0
C2121 C 0.16224 0.57506 0.27657 0.0
C2122 C 0.17515 0.58673 0.25827 0.0
C2123 C 0.18312 0.61384 0.21174 0.0
C2124 C 0.17803 0.62875 0.18267 0.0
C2125 C 0.17039 0.60162 0.22898 0.0
C2126 C 0.16016 0.63081 0.16957 0.0
C2127 C 0.14752 0.61892 0.187 0.0
H2128 H 0.15199 0.44905 0.97119 0.0
H2129 H 0.11957 0.41047 0.89327 0.0
H2130 H 0.1394 0.3872 0.92019 0.0
H2131 H 0.16483 0.3773 0.96973 0.0
H2132 H 0.19877 0.41509 0.04415 0.0
H2133 H 0.17955 0.43914 0.01459 0.0
C2134 C 0.14939 0.43559 0.95954 0.0
C2135 C 0.13407 0.43159 0.93082 0.0
C2136 C 0.16103 0.42207 0.97492 0.0
C2137 C 0.13106 0.41403 0.91581 0.0
C2138 C 0.1424 0.40063 0.93126 0.0
C2139 C 0.16804 0.39081 0.97954 0.0
C2140 C 0.18299 0.39443 0.00985 0.0
C2141 C 0.1572 0.40444 0.96164 0.0
C2142 C 0.18724 0.412 0.02112 0.0
C2143 C 0.17624 0.42572 0.00425 0.0
H2144 H 0.26186 0.16464 0.95915 0.0
H2145 H 0.20869 0.16445 0.89947 0.0
H2146 H 0.22002 0.16212 0.81103 0.0
H2147 H 0.24489 0.16104 0.75092 0.0
H2148 H 0.29804 0.16207 0.81069 0.0
H2149 H 0.28668 0.16305 0.89925 0.0
C2150 C 0.25267 0.16402 0.92696 0.0
C2151 C 0.23441 0.16475 0.93614 0.0
C2152 C 0.25925 0.16283 0.87628 0.0
C2153 C 0.22279 0.16395 0.89369 0.0
C2154 C 0.22926 0.16261 0.84307 0.0
C2155 C 0.25406 0.16138 0.78319 0.0
C2156 C 0.27233 0.16151 0.77395 0.0
C2157 C 0.24746 0.16217 0.83395 0.0
C2158 C 0.28393 0.16197 0.8165 0.0
C2159 C 0.27745 0.16256 0.86719 0.0
H2160 H 0.0812 0.01145 0.20503 0.0
H2161 H 0.09019 0.95826 0.15197 0.0
H2162 H 0.09309 0.96895 0.06288 0.0
H2163 H 0.09286 0.99326 0.00055 0.0
H2164 H 0.08403 0.0464 0.05441 0.0
H2165 H 0.08151 0.0357 0.14335 0.0
C2166 C 0.08385 0.00211 0.1742 0.0
C2167 C 0.0855 0.98405 0.18538 0.0
C2168 C 0.08562 0.00832 0.12334 0.0
C2169 C 0.08886 0.97223 0.1446 0.0
C2170 C 0.09055 0.97833 0.09365 0.0
C2171 C 0.09047 0.00257 0.03164 0.0
C2172 C 0.08864 0.02064 0.02062 0.0
C2173 C 0.08894 0.99635 0.08265 0.0
C2174 C 0.08552 0.03244 0.06162 0.0
C2175 C 0.08403 0.02634 0.11251 0.0
H2176 H 0.26147 0.85282 0.24648 0.0
H2177 H 0.20921 0.83553 0.28947 0.0
H2178 H 0.22018 0.82705 0.37504 0.0
H2179 H 0.24417 0.82524 0.43675 0.0
H2180 H 0.29605 0.8439 0.39559 0.0
H2181 H 0.28569 0.85014 0.30747 0.0
C2182 C 0.25237 0.84724 0.2744 0.0
C2183 C 0.23448 0.84491 0.26173 0.0
C2184 C 0.25876 0.84222 0.3228 0.0
C2185 C 0.22297 0.83765 0.2985 0.0
C2186 C 0.22926 0.83263 0.34708 0.0
C2187 C 0.25332 0.83056 0.40851 0.0
C2188 C 0.27078 0.83438 0.42271 0.0
C2189 C 0.2471 0.83488 0.3594 0.0
C2190 C 0.28255 0.84086 0.38543 0.0
C2191 C 0.27657 0.84465 0.33547 0.0
H2192 H 0.43232 0.99538 0.68916 0.0
H2193 H 0.41448 0.0471 0.64314 0.0
H2194 H 0.40747 0.03582 0.55667 0.0
H2195 H 0.40554 0.01127 0.49614 0.0
H2196 H 0.42263 0.95939 0.54312 0.0
H2197 H 0.43012 0.9708 0.62902 0.0
C2198 C 0.42687 0.00428 0.66044 0.0
C2199 C 0.42379 0.02208 0.67287 0.0
C2200 C 0.4224 0.99763 0.61165 0.0
C2201 C 0.417 0.03337 0.63466 0.0
C2202 C 0.41285 0.0269 0.58542 0.0
C2203 C 0.4108 0.00235 0.52508 0.0
C2204 C 0.41349 0.98445 0.5131 0.0
C2205 C 0.41528 0.00901 0.57388 0.0
C2206 C 0.42031 0.97317 0.55133 0.0
C2207 C 0.42473 0.97972 0.60026 0.0
H2208 H 0.73433 0.84247 0.2331 0.0
H2209 H 0.78773 0.84182 0.29112 0.0
H2210 H 0.7767 0.84312 0.38005 0.0
H2211 H 0.75211 0.84438 0.44069 0.0
H2212 H 0.69871 0.8452 0.38275 0.0
H2213 H 0.70973 0.84398 0.29377 0.0
C2214 C 0.74364 0.84265 0.26503 0.0
C2215 C 0.76188 0.84209 0.25526 0.0
C2216 C 0.73724 0.84347 0.31592 0.0
C2217 C 0.77364 0.84226 0.29738 0.0
C2218 C 0.76735 0.84302 0.34825 0.0
C2219 C 0.7428 0.84436 0.40876 0.0
C2220 C 0.72457 0.84492 0.41856 0.0
C2221 C 0.74919 0.84363 0.35787 0.0
C2222 C 0.7128 0.84482 0.37646 0.0
C2223 C 0.71908 0.84409 0.32556 0.0
H2224 H 0.91923 0.99421 0.99393 0.0
H2225 H 0.91292 0.0476 0.04865 0.0
H2226 H 0.9096 0.0368 0.13739 0.0
H2227 H 0.90844 0.01237 0.19891 0.0
H2228 H 0.91458 0.95898 0.14399 0.0
H2229 H 0.91772 0.96977 0.05523 0.0
C2230 C 0.9171 0.00356 0.02509 0.0
C2231 C 0.91629 0.02172 0.01441 0.0
C2232 C 0.91503 0.99728 0.07584 0.0
C2233 C 0.91361 0.03356 0.0556 0.0
C2234 C 0.91166 0.0274 0.10636 0.0
C2235 C 0.91037 0.00302 0.16764 0.0
C2236 C 0.91125 0.98485 0.1783 0.0
C2237 C 0.9123 0.00929 0.11682 0.0
C2238 C 0.91379 0.97301 0.13705 0.0
C2239 C 0.91566 0.97917 0.08627 0.0
H2240 H 0.7478 0.16826 0.95257 0.0
H2241 H 0.80148 0.16983 0.89751 0.0
H2242 H 0.79092 0.17292 0.80841 0.0
H2243 H 0.76662 0.17616 0.7471 0.0
H2244 H 0.71294 0.17396 0.80192 0.0
H2245 H 0.72349 0.17036 0.89085 0.0
C2246 C 0.75726 0.16915 0.9212 0.0
C2247 C 0.77544 0.16884 0.9319 0.0
C2248 C 0.75112 0.17098 0.87021 0.0
C2249 C 0.78743 0.16998 0.89051 0.0
C2250 C 0.7814 0.17183 0.83956 0.0
C2251 C 0.75716 0.1748 0.77828 0.0
C2252 C 0.73898 0.17531 0.76763 0.0
C2253 C 0.76329 0.17251 0.82911 0.0
C2254 C 0.72699 0.17361 0.80886 0.0
C2255 C 0.73301 0.17153 0.85972 0.0
H2256 H 0.60043 0.00235 0.6894 0.0
H2257 H 0.58344 0.05448 0.64445 0.0
H2258 H 0.5757 0.04342 0.55837 0.0
H2259 H 0.57324 0.0191 0.4976 0.0
H2260 H 0.59109 0.96715 0.54131 0.0
H2261 H 0.59829 0.97805 0.62809 0.0
C2262 C 0.59514 0.0114 0.66085 0.0
C2263 C 0.59254 0.02926 0.67344 0.0
C2264 C 0.59052 0.00495 0.61195 0.0
C2265 C 0.5857 0.04072 0.63574 0.0
C2266 C 0.58112 0.03438 0.58673 0.0
C2267 C 0.57873 0.01007 0.52587 0.0
C2268 C 0.58176 0.99233 0.51273 0.0
C2269 C 0.58335 0.01651 0.57474 0.0
C2270 C 0.5886 0.98085 0.55037 0.0
C2271 C 0.59286 0.9871 0.59977 0.0
H2272 H 0.76122 0.67171 0.45615 0.0
H2273 H 0.70782 0.67295 0.39842 0.0
H2274 H 0.71881 0.67164 0.30936 0.0
H2275 H 0.74344 0.67048 0.24851 0.0
H2276 H 0.7968 0.6691 0.30667 0.0
H2277 H 0.78577 0.67005 0.39558 0.0
C2278 C 0.75189 0.67163 0.42428 0.0
C2279 C 0.73367 0.6724 0.43416 0.0
C2280 C 0.75827 0.67084 0.37338 0.0
C2281 C 0.72189 0.67234 0.39208 0.0
C2282 C 0.72816 0.6716 0.34114 0.0
C2283 C 0.75273 0.67031 0.28048 0.0
C2284 C 0.77097 0.6697 0.27073 0.0
C2285 C 0.74632 0.67088 0.33143 0.0
C2286 C 0.78272 0.66953 0.3129 0.0
C2287 C 0.77642 0.6701 0.36377 0.0
H2288 H 0.59106 0.49613 0.49744 0.0
H2289 H 0.5902 0.5498 0.55309 0.0
H2290 H 0.58845 0.53922 0.64233 0.0
H2291 H 0.58658 0.51499 0.70382 0.0
H2292 H 0.58704 0.46127 0.64867 0.0
H2293 H 0.58945 0.4718 0.55932 0.0
C2294 C 0.59057 0.50558 0.52897 0.0
C2295 C 0.59076 0.52377 0.51844 0.0
C2296 C 0.58941 0.49943 0.5801 0.0
C2297 C 0.59008 0.53574 0.55996 0.0
C2298 C 0.58905 0.52971 0.61101 0.0
C2299 C 0.58724 0.5055 0.67244 0.0
C2300 C 0.58663 0.48733 0.68308 0.0
C2301 C 0.5886 0.5116 0.6214 0.0
C2302 C 0.58746 0.47532 0.64168 0.0
C2303 C 0.58886 0.48132 0.5906 0.0
H2304 H 0.72196 0.33578 0.78568 0.0
H2305 H 0.75972 0.37385 0.73058 0.0
H2306 H 0.77616 0.3715 0.81154 0.0
H2307 H 0.78016 0.35809 0.8974 0.0
H2308 H 0.74226 0.32019 0.95242 0.0
H2309 H 0.7257 0.32271 0.87161 0.0
C2310 C 0.73361 0.34377 0.79182 0.0
C2311 C 0.73963 0.35495 0.75247 0.0
C2312 C 0.74318 0.34209 0.8379 0.0
C2313 C 0.75488 0.36509 0.76046 0.0
C2314 C 0.76435 0.36369 0.80654 0.0
C2315 C 0.76844 0.3502 0.8911 0.0
C2316 C 0.76246 0.33889 0.9301 0.0
C2317 C 0.75878 0.35202 0.84516 0.0
C2318 C 0.74707 0.32896 0.92246 0.0
C2319 C 0.73755 0.33046 0.87656 0.0
H2320 H 0.90251 0.53409 0.14689 0.0
H2321 H 0.94363 0.49897 0.19829 0.0
H2322 H 0.94029 0.48139 0.12004 0.0
H2323 H 0.92627 0.47631 0.03598 0.0
H2324 H 0.88575 0.51163 0.98278 0.0
H2325 H 0.88792 0.52851 0.06319 0.0
C2326 C 0.91084 0.52271 0.14059 0.0
C2327 C 0.92333 0.51791 0.1781 0.0
C2328 C 0.90874 0.51248 0.09566 0.0
C2329 C 0.93389 0.50296 0.16989 0.0
C2330 C 0.93195 0.49282 0.1253 0.0
C2331 C 0.91766 0.48746 0.04255 0.0
C2332 C 0.90587 0.49272 0.00379 0.0
C2333 C 0.91938 0.4974 0.08804 0.0
C2334 C 0.89497 0.50738 0.01225 0.0
C2335 C 0.89628 0.5171 0.058 0.0
H2336 H 0.24175 0.33811 0.73945 0.0
H2337 H 0.29536 0.34249 0.7941 0.0
H2338 H 0.28476 0.34498 0.88333 0.0
H2339 H 0.26043 0.34515 0.94541 0.0
H2340 H 0.20685 0.34126 0.89008 0.0
H2341 H 0.21745 0.33957 0.80087 0.0
C2342 C 0.25119 0.33972 0.77065 0.0
C2343 C 0.26936 0.3401 0.75991 0.0
C2344 C 0.24504 0.34127 0.82161 0.0
C2345 C 0.28131 0.34216 0.80114 0.0
C2346 C 0.27527 0.34358 0.85217 0.0
C2347 C 0.25101 0.34405 0.91394 0.0
C2348 C 0.23284 0.34329 0.9246 0.0
C2349 C 0.25717 0.34306 0.8628 0.0
C2350 C 0.22089 0.3419 0.88313 0.0
C2351 C 0.22694 0.34087 0.83209 0.0
H2352 H 0.41499 0.49964 0.48527 0.0
H2353 H 0.4125 0.55268 0.54515 0.0
H2354 H 0.40997 0.54117 0.63343 0.0
H2355 H 0.40923 0.5161 0.6935 0.0
H2356 H 0.41143 0.46315 0.63259 0.0
H2357 H 0.4131 0.47472 0.54454 0.0
C2358 C 0.41379 0.50876 0.51743 0.0
C2359 C 0.41395 0.52703 0.50835 0.0
C2360 C 0.41226 0.50208 0.56793 0.0
C2361 C 0.41241 0.53856 0.55083 0.0
C2362 C 0.41097 0.53199 0.60137 0.0
C2363 C 0.40996 0.50704 0.66104 0.0
C2364 C 0.41025 0.48874 0.66992 0.0
C2365 C 0.41097 0.51377 0.61036 0.0
C2366 C 0.41117 0.47728 0.62715 0.0
C2367 C 0.41218 0.48388 0.57669 0.0
H2368 H 0.2409 0.67028 0.45034 0.0
H2369 H 0.29444 0.67465 0.39522 0.0
H2370 H 0.28367 0.67865 0.3067 0.0
H2371 H 0.25929 0.68096 0.24555 0.0
H2372 H 0.20575 0.67576 0.29992 0.0
H2373 H 0.21646 0.67229 0.38882 0.0
C2374 C 0.25029 0.67204 0.41909 0.0
C2375 C 0.2685 0.6721 0.42961 0.0
C2376 C 0.24404 0.67431 0.36832 0.0
C2377 C 0.28038 0.67446 0.38838 0.0
C2378 C 0.27423 0.67681 0.33775 0.0
C2379 C 0.24987 0.67903 0.27663 0.0
C2380 C 0.2317 0.67853 0.2658 0.0
C2381 C 0.25611 0.67677 0.32737 0.0
C2382 C 0.21979 0.67617 0.30696 0.0
C2383 C 0.22591 0.67414 0.3578 0.0
H2384 H 0.09816 0.49678 0.20826 0.0
H2385 H 0.09202 0.55029 0.1543 0.0
H2386 H 0.08811 0.53971 0.06573 0.0
H2387 H 0.08551 0.51545 0.00441 0.0
H2388 H 0.09189 0.46189 0.05747 0.0
H2389 H 0.09639 0.47244 0.14609 0.0
C2390 C 0.09609 0.50619 0.17719 0.0
C2391 C 0.09537 0.52434 0.18816 0.0
C2392 C 0.09372 0.50003 0.12633 0.0
C2393 C 0.09267 0.53627 0.14717 0.0
C2394 C 0.09036 0.53023 0.09647 0.0
C2395 C 0.08796 0.50601 0.03513 0.0
C2396 C 0.08838 0.48787 0.02407 0.0
C2397 C 0.09069 0.51215 0.08576 0.0
C2398 C 0.09148 0.47592 0.06473 0.0
C2399 C 0.0941 0.48194 0.11543 0.0
H2400 H 0.20117 0.22752 0.05177 0.0
H2401 H 0.2524 0.22239 0.1227 0.0
H2402 H 0.25505 0.25456 0.12618 0.0
H2403 H 0.24244 0.28428 0.10935 0.0
H2404 H 0.19068 0.28789 0.04007 0.0
H2405 H 0.18872 0.25618 0.03627 0.0
C2406 C 0.21297 0.23329 0.06823 0.0
C2407 C 0.22653 0.22242 0.0871 0.0
C2408 C 0.21431 0.25163 0.07059 0.0
C2409 C 0.24171 0.23037 0.10789 0.0
C2410 C 0.24323 0.24878 0.10995 0.0
C2411 C 0.23073 0.27812 0.09354 0.0
C2412 C 0.21675 0.28865 0.07512 0.0
C2413 C 0.22955 0.25958 0.09152 0.0
C2414 C 0.20169 0.28033 0.05472 0.0
C2415 C 0.20051 0.2621 0.05238 0.0
H2416 H 0.02424 0.99412 0.36742 0.0
H2417 H 0.02919 0.94219 0.30022 0.0
H2418 H 0.99757 0.93947 0.29576 0.0
H2419 H 0.96857 0.95143 0.3094 0.0
H2420 H 0.96219 0.00326 0.37527 0.0
H2421 H 0.99424 0.00633 0.38158 0.0
C2422 C 0.01839 0.9822 0.35199 0.0
C2423 C 0.02927 0.96839 0.33448 0.0
C2424 C 0.99991 0.98065 0.3491 0.0
C2425 C 0.02135 0.95307 0.31432 0.0
C2426 C 0.00317 0.95145 0.31159 0.0
C2427 C 0.97406 0.96344 0.32535 0.0
C2428 C 0.96288 0.97706 0.34192 0.0
C2429 C 0.99235 0.96513 0.32872 0.0
C2430 C 0.97043 0.99252 0.36224 0.0
C2431 C 0.98878 0.99429 0.36585 0.0
H2432 H 0.30355 0.78173 0.58798 0.0
H2433 H 0.2476 0.78596 0.61412 0.0
H2434 H 0.24532 0.75393 0.61934 0.0
H2435 H 0.25903 0.72457 0.61108 0.0
H2436 H 0.315 0.72115 0.58322 0.0
H2437 H 0.31733 0.75293 0.58445 0.0
C2438 C 0.29084 0.77573 0.59526 0.0
C2439 C 0.27578 0.78633 0.60035 0.0
C2440 C 0.28957 0.75736 0.59776 0.0
C2441 C 0.25945 0.77819 0.60997 0.0
C2442 C 0.25811 0.75984 0.61284 0.0
C2443 C 0.27176 0.73077 0.60586 0.0
C2444 C 0.28677 0.72034 0.59688 0.0
C2445 C 0.27306 0.74926 0.60601 0.0
C2446 C 0.30316 0.72869 0.59007 0.0
C2447 C 0.30455 0.74695 0.59067 0.0
H2448 H 0.48456 0.01208 0.85675 0.0
H2449 H 0.47757 0.06624 0.80948 0.0
H2450 H 0.50904 0.07069 0.81021 0.0
H2451 H 0.53846 0.05951 0.821 0.0
H2452 H 0.547 0.00536 0.86488 0.0
H2453 H 0.51505 1.00073 0.86889 0.0
C2454 C 0.48992 0.02487 0.84696 0.0
C2455 C 0.4785 0.0388 0.83342 0.0
C2456 C 0.50834 0.0274 0.84665 0.0
C2457 C 0.48581 0.05525 0.82044 0.0
C2458 C 0.50392 0.05786 0.82068 0.0
C2459 C 0.53349 0.04664 0.83177 0.0
C2460 C 0.54524 0.03282 0.84259 0.0
C2461 C 0.51527 0.04404 0.83332 0.0
C2462 C 0.53832 0.01629 0.85638 0.0
C2463 C 0.52003 0.01362 0.85857 0.0
H2464 H 0.19915 0.79395 0.11283 0.0
H2465 H 0.25402 0.79884 0.0722 0.0
H2466 H 0.25666 0.76668 0.06968 0.0
H2467 H 0.24339 0.73701 0.08256 0.0
H2468 H 0.18878 0.73362 0.12849 0.0
H2469 H 0.1862 0.76528 0.12535 0.0
C2470 C 0.21174 0.78812 0.10309 0.0
C2471 C 0.22635 0.79893 0.09271 0.0
C2472 C 0.21325 0.76976 0.10281 0.0
C2473 C 0.24251 0.79091 0.08031 0.0
C2474 C 0.24404 0.77249 0.07901 0.0
C2475 C 0.23092 0.7432 0.09155 0.0
C2476 C 0.21629 0.73272 0.10526 0.0
C2477 C 0.22951 0.76174 0.09074 0.0
C2478 C 0.20028 0.74111 0.11731 0.0
C2479 C 0.19874 0.75933 0.11569 0.0
H2480 H 0.46757 0.95428 0.36315 0.0
H2481 H 0.45841 0.0086 0.32223 0.0
H2482 H 0.4903 0.0136 0.31825 0.0
H2483 H 0.5209 0.00251 0.32986 0.0
H2484 H 0.52852 0.94811 0.37387 0.0
H2485 H 0.49708 0.94333 0.37299 0.0
C2486 C 0.47239 0.96727 0.35301 0.0
C2487 C 0.46048 0.98104 0.34305 0.0
C2488 C 0.49056 0.97006 0.35147 0.0
C2489 C 0.46721 0.99772 0.33003 0.0
C2490 C 0.48546 1.00059 0.32789 0.0
C2491 C 0.51568 0.98959 0.3389 0.0
C2492 C 0.52725 0.97571 0.35166 0.0
C2493 C 0.4973 0.98686 0.33905 0.0
C2494 C 0.52014 0.95908 0.36362 0.0
C2495 C 0.50207 0.95628 0.36326 0.0
H2496 H 0.30333 0.22231 0.65267 0.0
H2497 H 0.25351 0.21408 0.57575 0.0
H2498 H 0.24976 0.24602 0.56727 0.0
H2499 H 0.26104 0.27645 0.58122 0.0
H2500 H 0.31132 0.28321 0.65758 0.0
H2501 H 0.31436 0.2517 0.66624 0.0
C2502 C 0.29159 0.22736 0.6339 0.0
C2503 C 0.27876 0.21568 0.61477 0.0
C2504 C 0.2896 0.24558 0.62885 0.0
C2505 C 0.26364 0.2227 0.59089 0.0
C2506 C 0.2615 0.24098 0.58595 0.0
C2507 C 0.27266 0.27102 0.59966 0.0
C2508 C 0.28591 0.28239 0.61849 0.0
C2509 C 0.27446 0.25259 0.60466 0.0
C2510 C 0.30086 0.27499 0.64243 0.0
C2511 C 0.30266 0.25688 0.64758 0.0
H2512 H 0.97575 0.0129 0.83459 0.0
H2513 H 0.97077 0.06724 0.88208 0.0
H2514 H 0.00247 0.07017 0.88504 0.0
H2515 H 0.0316 0.05748 0.87722 0.0
H2516 H 0.03761 0.0032 0.83117 0.0
H2517 H 0.00562 1.0002 0.82464 0.0
C2518 C 0.9816 0.02541 0.84519 0.0
C2519 C 0.97071 0.0398 0.85793 0.0
C2520 C 1.00008 0.02707 0.84738 0.0
C2521 C 0.97863 0.05588 0.87188 0.0
C2522 C 0.99686 0.05762 0.87375 0.0
C2523 C 0.02602 0.04496 0.86549 0.0
C2524 C 0.03711 0.0306 0.85479 0.0
C2525 C 0.00769 0.0433 0.86202 0.0
C2526 C 0.02946 0.01452 0.83968 0.0
C2527 C 0.01113 0.01277 0.83597 0.0
H2528 H 0.76034 0.72586 0.08206 0.0
H2529 H 0.81346 0.72478 0.14227 0.0
H2530 H 0.8146 0.75663 0.14068 0.0
H2531 H 0.80071 0.78478 0.12458 0.0
H2532 H 0.7476 0.78696 0.06525 0.0
H2533 H 0.74639 0.75475 0.06409 0.0
C2534 C 0.77219 0.73258 0.09461 0.0
C2535 C 0.78678 0.72275 0.1122 0.0
C2536 C 0.77281 0.75114 0.09389 0.0
C2537 C 0.80199 0.73181 0.12842 0.0
C2538 C 0.80269 0.75012 0.12762 0.0
C2539 C 0.78883 0.77833 0.11108 0.0
C2540 C 0.77427 0.78841 0.095 0.0
C2541 C 0.78819 0.7599 0.11073 0.0
C2542 C 0.75905 0.77961 0.07779 0.0
C2543 C 0.75833 0.76116 0.0772 0.0
H2544 H 0.74754 0.23756 0.58427 0.0
H2545 H 0.69564 0.23187 0.65113 0.0
H2546 H 0.69211 0.26344 0.65274 0.0
H2547 H 0.70321 0.29262 0.63604 0.0
H2548 H 0.75494 0.29983 0.57027 0.0
H2549 H 0.75897 0.2678 0.56756 0.0
C2550 C 0.73546 0.24324 0.59909 0.0
C2551 C 0.72188 0.23213 0.61726 0.0
C2552 C 0.73341 0.26172 0.60023 0.0
C2553 C 0.70635 0.23986 0.63655 0.0
C2554 C 0.70426 0.25802 0.63763 0.0
C2555 C 0.71542 0.28733 0.62092 0.0
C2556 C 0.72872 0.29875 0.60325 0.0
C2557 C 0.71765 0.26905 0.61961 0.0
C2558 C 0.74443 0.29142 0.58411 0.0
C2559 C 0.74675 0.27308 0.58255 0.0
H2560 H 0.80526 0.28415 0.05714 0.0
H2561 H 0.75401 0.28788 0.12851 0.0
H2562 H 0.75253 0.25581 0.13459 0.0
H2563 H 0.7656 0.22658 0.11768 0.0
H2564 H 0.81702 0.22369 0.04643 0.0
H2565 H 0.8185 0.25552 0.04256 0.0
C2566 C 0.79376 0.27804 0.07431 0.0
C2567 C 0.77979 0.2885 0.09229 0.0
C2568 C 0.79297 0.25966 0.07766 0.0
C2569 C 0.76501 0.2802 0.11439 0.0
C2570 C 0.76413 0.26184 0.11781 0.0
C2571 C 0.77715 0.23291 0.10147 0.0
C2572 C 0.79113 0.22261 0.08235 0.0
C2573 C 0.778 0.25141 0.09927 0.0
C2574 C 0.806 0.23113 0.06152 0.0
C2575 C 0.8069 0.24941 0.05918 0.0
H2576 H 0.69716 0.73094 0.56244 0.0
H2577 H 0.7501 0.72849 0.62281 0.0
H2578 H 0.75126 0.76077 0.62526 0.0
H2579 H 0.73706 0.78983 0.60863 0.0
H2580 H 0.68385 0.79061 0.5488 0.0
H2581 H 0.68308 0.75888 0.54839 0.0
C2582 C 0.709 0.73731 0.57652 0.0
C2583 C 0.7235 0.72717 0.59251 0.0
C2584 C 0.70954 0.7557 0.57801 0.0
C2585 C 0.73869 0.73591 0.61031 0.0
C2586 C 0.73936 0.75438 0.61169 0.0
C2587 C 0.72528 0.78305 0.59581 0.0
C2588 C 0.71056 0.79281 0.57883 0.0
C2589 C 0.72484 0.76446 0.59546 0.0
C2590 C 0.69543 0.78368 0.56222 0.0
C2591 C 0.69493 0.76541 0.56181 0.0
H2592 H 0.52643 0.45393 0.80454 0.0
H2593 H 0.53092 0.50542 0.87415 0.0
H2594 H 0.49877 0.50814 0.87455 0.0
H2595 H 0.46927 0.4957 0.8544 0.0
H2596 H 0.46617 0.44412 0.78392 0.0
H2597 H 0.49788 0.4418 0.78477 0.0
C2598 C 0.52051 0.4658 0.82003 0.0
C2599 C 0.53119 0.47942 0.83942 0.0
C2600 C 0.50217 0.46729 0.81995 0.0
C2601 C 0.52307 0.49467 0.85906 0.0
C2602 C 0.50467 0.49625 0.85924 0.0
C2603 C 0.47554 0.48396 0.83926 0.0
C2604 C 0.46516 0.47012 0.8193 0.0
C2605 C 0.49406 0.48262 0.83967 0.0
C2606 C 0.47362 0.45502 0.79976 0.0
C2607 C 0.49185 0.45362 0.80013 0.0
H2608 H 0.98177 0.51867 0.37089 0.0
H2609 H 0.9777 0.5658 0.2777 0.0
H2610 H 0.00946 0.56895 0.27817 0.0
H2611 H 0.03837 0.55838 0.30341 0.0
H2612 H 0.04337 0.51052 0.3925 0.0
H2613 H 0.01129 0.50766 0.39511 0.0
C2614 C 0.98782 0.52966 0.35086 0.0
C2615 C 0.97721 0.54208 0.32485 0.0
C2616 C 0.00628 0.53128 0.35036 0.0
C2617 C 0.98538 0.55612 0.29858 0.0
C2618 C 0.00361 0.55794 0.29864 0.0
C2619 C 0.03253 0.54732 0.32364 0.0
C2620 C 0.04334 0.53473 0.34786 0.0
C2621 C 0.01418 0.54561 0.32429 0.0
C2622 C 0.0354 0.52043 0.37349 0.0
C2623 C 0.01704 0.51878 0.375 0.0
H2624 H 0.96909 0.45958 0.90235 0.0
H2625 H 0.96408 0.50812 0.8166 0.0
H2626 H 0.99627 0.51087 0.81396 0.0
H2627 H 0.02603 0.49881 0.83475 0.0
H2628 H 0.0294 0.44993 0.92029 0.0
H2629 H 0.99771 0.44811 0.92383 0.0
C2630 C 0.97489 0.47084 0.88296 0.0
C2631 C 0.96405 0.48358 0.85948 0.0
C2632 C 0.99324 0.47226 0.88135 0.0
C2633 C 0.97204 0.49808 0.83502 0.0
C2634 C 0.99047 0.49963 0.83341 0.0
C2635 C 0.01982 0.48779 0.85417 0.0
C2636 C 0.03031 0.4745 0.8769 0.0
C2637 C 1.00125 0.4867 0.8562 0.0
C2638 C 0.0219 0.46035 0.90209 0.0
C2639 C 0.00366 0.45926 0.90429 0.0
H2640 H 0.47662 0.51823 0.32949 0.0
H2641 H 0.47252 0.5692 0.40316 0.0
H2642 H 0.50421 0.57142 0.40742 0.0
H2643 H 0.53314 0.55931 0.3912 0.0
H2644 H 0.53844 0.50825 0.31955 0.0
H2645 H 0.50636 0.50577 0.31365 0.0
C2646 C 0.48266 0.52982 0.34638 0.0
C2647 C 0.47199 0.54354 0.36559 0.0
C2648 C 0.50118 0.53107 0.34918 0.0
C2649 C 0.48018 0.55842 0.38765 0.0
C2650 C 0.49841 0.55975 0.39025 0.0
C2651 C 0.52739 0.54761 0.3741 0.0
C2652 C 0.5383 0.53403 0.35574 0.0
C2653 C 0.50903 0.5462 0.37117 0.0
C2654 C 0.53042 0.51896 0.33399 0.0
C2655 C 0.51205 0.51751 0.33062 0.0
H2656 H 0.24815 0.15107 0.26801 0.0
H2657 H 0.22867 0.20423 0.27964 0.0
H2658 H 0.24097 0.20674 0.36705 0.0
H2659 H 0.2578 0.194 0.43966 0.0
H2660 H 0.27487 0.14005 0.43161 0.0
H2661 H 0.26321 0.13765 0.34296 0.0
C2662 C 0.2465 0.16315 0.28989 0.0
C2663 C 0.23757 0.17746 0.2674 0.0
C2664 C 0.25339 0.16441 0.34037 0.0
C2665 C 0.23538 0.19299 0.29625 0.0
C2666 C 0.24253 0.19448 0.34606 0.0
C2667 C 0.2591 0.18181 0.41807 0.0
C2668 C 0.26749 0.16733 0.44111 0.0
C2669 C 0.25171 0.18035 0.36827 0.0
C2670 C 0.26866 0.1514 0.41392 0.0
C2671 C 0.26193 0.15002 0.36352 0.0
H2672 H 0.07858 0.01567 0.50244 0.0
H2673 H 0.07842 0.96084 0.54608 0.0
H2674 H 0.08202 0.96905 0.6374 0.0
H2675 H 0.08523 0.99181 0.7044 0.0
H2676 H 0.0836 0.04664 0.66121 0.0
H2677 H 0.08077 0.03842 0.56965 0.0
C2678 C 0.07936 0.00551 0.53194 0.0
C2679 C 0.07834 0.98767 0.51764 0.0
C2680 C 0.08117 0.01033 0.58419 0.0
C2681 C 0.07912 0.97465 0.55624 0.0
C2682 C 0.08125 0.97934 0.60834 0.0
C2683 C 0.08439 0.00196 0.67487 0.0
C2684 C 0.08481 0.01981 0.68929 0.0
C2685 C 0.08233 0.99713 0.62268 0.0
C2686 C 0.08335 0.03283 0.65088 0.0
C2687 C 0.08173 0.02813 0.59866 0.0
H2688 H 0.21812 0.8469 0.90069 0.0
H2689 H 0.27075 0.84763 0.96388 0.0
H2690 H 0.28312 0.84442 0.87739 0.0
H2691 H 0.27905 0.84126 0.78389 0.0
H2692 H 0.22661 0.84199 0.71959 0.0
H2693 H 0.21409 0.8448 0.80634 0.0
C2694 C 0.23227 0.84635 0.89527 0.0
C2695 C 0.2435 0.8475 0.93814 0.0
C2696 C 0.23934 0.84477 0.8454 0.0
C2697 C 0.26184 0.84692 0.93109 0.0
C2698 C 0.26895 0.84501 0.88178 0.0
C2699 C 0.2649 0.842 0.78905 0.0
C2700 C 0.25376 0.84137 0.74595 0.0
C2701 C 0.25782 0.8439 0.83871 0.0
C2702 C 0.23544 0.84255 0.7526 0.0
C2703 C 0.22826 0.8441 0.80205 0.0
H2704 H 0.41328 0.03232 0.03495 0.0
H2705 H 0.4399 0.98587 0.97991 0.0
H2706 H 0.43583 0.97163 0.06404 0.0
H2707 H 0.42455 0.97232 0.15303 0.0
H2708 H 0.3964 0.01817 0.20674 0.0
H2709 H 0.4009 0.03252 0.12329 0.0
C2710 C 0.41833 0.01918 0.04184 0.0
C2711 C 0.42703 0.01019 0.00195 0.0
C2712 C 0.41544 0.01085 0.08973 0.0
C2713 C 0.43322 0.99302 0.01049 0.0
C2714 C 0.43084 0.98485 0.0584 0.0
C2715 C 0.41928 0.98539 0.14635 0.0
C2716 C 0.41023 0.99414 0.18614 0.0
C2717 C 0.42187 0.99359 0.0982 0.0
C2718 C 0.40341 0.01107 0.17676 0.0
C2719 C 0.40606 0.01937 0.12912 0.0
H2720 H 0.73208 0.84006 0.93864 0.0
H2721 H 0.78658 0.83817 0.89218 0.0
H2722 H 0.77777 0.83983 0.80078 0.0
H2723 H 0.75457 0.84166 0.73457 0.0
H2724 H 0.70003 0.84168 0.78102 0.0
H2725 H 0.70888 0.84094 0.87246 0.0
C2726 C 0.74205 0.84009 0.90853 0.0
C2727 C 0.75997 0.83913 0.92204 0.0
C2728 C 0.73687 0.84071 0.8563 0.0
C2729 C 0.77271 0.83888 0.88265 0.0
C2730 C 0.76768 0.83987 0.8305 0.0
C2731 C 0.74461 0.84161 0.76473 0.0
C2732 C 0.72666 0.84188 0.75122 0.0
C2733 C 0.7498 0.84079 0.81695 0.0
C2734 C 0.71391 0.84149 0.79057 0.0
C2735 C 0.71897 0.84109 0.84274 0.0
H2736 H 0.92174 0.99181 0.69633 0.0
H2737 H 0.91879 0.04654 0.65249 0.0
H2738 H 0.9149 0.03805 0.56143 0.0
H2739 H 0.91243 0.01504 0.49461 0.0
H2740 H 0.91717 0.96044 0.53835 0.0
H2741 H 0.92013 0.96893 0.6296 0.0
C2742 C 0.92022 0.0019 0.66688 0.0
C2743 C 0.92046 0.01978 0.68109 0.0
C2744 C 0.91823 0.99694 0.61481 0.0
C2745 C 0.9187 0.0327 0.64245 0.0
C2746 C 0.91641 0.02785 0.59049 0.0
C2747 C 0.91395 0.005 0.52421 0.0
C2748 C 0.9144 0.98712 0.51 0.0
C2749 C 0.91611 0.01001 0.57629 0.0
C2750 C 0.91673 0.97427 0.54849 0.0
C2751 C 0.91844 0.97912 0.60056 0.0
H2752 H 0.74533 0.1783 0.24819 0.0
H2753 H 0.8002 0.17923 0.29141 0.0
H2754 H 0.79203 0.18194 0.38296 0.0
H2755 H 0.76935 0.18393 0.45025 0.0
H2756 H 0.71448 0.18444 0.40694 0.0
H2757 H 0.72262 0.18141 0.3154 0.0
C2758 C 0.7555 0.179 0.27769 0.0
C2759 C 0.77334 0.1784 0.26324 0.0
C2760 C 0.75071 0.18091 0.32997 0.0
C2761 C 0.78638 0.17964 0.30168 0.0
C2762 C 0.78172 0.18118 0.35394 0.0
C2763 C 0.75915 0.18336 0.42079 0.0
C2764 C 0.74132 0.18429 0.43528 0.0
C2765 C 0.76393 0.18182 0.36845 0.0
C2766 C 0.72828 0.18379 0.39669 0.0
C2767 C 0.73293 0.18199 0.34444 0.0
H2768 H 0.59071 0.9821 0.15262 0.0
H2769 H 0.56555 0.02963 0.20562 0.0
H2770 H 0.57001 0.0433 0.12081 0.0
H2771 H 0.58131 0.04181 0.032 0.0
H2772 H 0.60801 0.99483 0.98032 0.0
H2773 H 0.60304 0.98104 0.06436 0.0
C2774 C 0.58605 0.99536 0.14512 0.0
C2775 C 0.57766 0.00482 0.18458 0.0
C2776 C 0.58918 0.00333 0.0969 0.0
C2777 C 0.57199 0.02213 0.17532 0.0
C2778 C 0.57459 0.02996 0.12706 0.0
C2779 C 0.58615 0.02861 0.03925 0.0
C2780 C 0.59494 0.01938 -8e-05 0.0
C2781 C 0.58329 0.02073 0.08768 0.0
C2782 C 0.60122 0.00229 0.00998 0.0
C2783 C 0.59829 0.99431 0.05794 0.0
H2784 H 0.742 0.67599 0.95436 0.0
H2785 H 0.79654 0.67394 0.90836 0.0
H2786 H 0.78776 0.67426 0.81679 0.0
H2787 H 0.76458 0.67517 0.75035 0.0
H2788 H 0.71016 0.67909 0.79657 0.0
H2789 H 0.71892 0.67799 0.88805 0.0
C2790 C 0.75197 0.67553 0.92428 0.0
C2791 C 0.76989 0.67478 0.93794 0.0
C2792 C 0.74684 0.67607 0.87203 0.0
C2793 C 0.78268 0.67451 0.89868 0.0
C2794 C 0.77766 0.67466 0.84644 0.0
C2795 C 0.75463 0.6757 0.78046 0.0
C2796 C 0.73674 0.67705 0.76688 0.0
C2797 C 0.75978 0.67543 0.83274 0.0
C2798 C 0.724 0.67804 0.80619 0.0
C2799 C 0.729 0.67738 0.85838 0.0
H2800 H 0.58567 0.49479 0.20251 0.0
H2801 H 0.58678 0.54957 0.15865 0.0
H2802 H 0.58518 0.54129 0.06682 0.0
H2803 H 0.5834 0.5185 -0.00036 0.0
H2804 H 0.58019 0.46382 0.04375 0.0
H2805 H 0.58262 0.47205 0.13545 0.0
C2806 C 0.58567 0.50491 0.17278 0.0
C2807 C 0.58653 0.52275 0.18701 0.0
C2808 C 0.58431 0.50007 0.12046 0.0
C2809 C 0.58616 0.53576 0.14839 0.0
C2810 C 0.58526 0.53103 0.09605 0.0
C2811 C 0.58329 0.50838 0.02936 0.0
C2812 C 0.58178 0.49057 0.01518 0.0
C2813 C 0.58433 0.51323 0.08172 0.0
C2814 C 0.58134 0.47761 0.05392 0.0
C2815 C 0.58277 0.4823 0.1062 0.0
H2816 H 0.76226 0.34293 0.44465 0.0
H2817 H 0.70779 0.33913 0.3985 0.0
H2818 H 0.71676 0.33711 0.30717 0.0
H2819 H 0.73999 0.33779 0.24153 0.0
H2820 H 0.7945 0.34062 0.28802 0.0
H2821 H 0.78556 0.34166 0.37947 0.0
C2822 C 0.75234 0.34169 0.41456 0.0
C2823 C 0.73439 0.34148 0.42771 0.0
C2824 C 0.7576 0.34043 0.36284 0.0
C2825 C 0.72166 0.33939 0.38886 0.0
C2826 C 0.72678 0.3383 0.33691 0.0
C2827 C 0.74992 0.33871 0.2717 0.0
C2828 C 0.76785 0.33947 0.2585 0.0
C2829 C 0.74469 0.33907 0.3236 0.0
C2830 C 0.78063 0.34014 0.29766 0.0
C2831 C 0.77552 0.34076 0.34965 0.0
H2832 H 0.91766 0.51843 0.6931 0.0
H2833 H 0.92618 0.46435 0.6487 0.0
H2834 H 0.92961 0.47339 0.55789 0.0
H2835 H 0.92967 0.49657 0.49189 0.0
H2836 H 0.92264 0.55081 0.53679 0.0
H2837 H 0.91922 0.54178 0.62765 0.0
C2838 C 0.92018 0.5086 0.66349 0.0
C2839 C 0.92142 0.49071 0.67716 0.0
C2840 C 0.92244 0.51393 0.61195 0.0
C2841 C 0.92511 0.47816 0.63882 0.0
C2842 C 0.92704 0.48333 0.58709 0.0
C2843 C 0.92734 0.50643 0.52155 0.0
C2844 C 0.92617 0.52431 0.50786 0.0
C2845 C 0.92564 0.50116 0.57332 0.0
C2846 C 0.92354 0.53698 0.54662 0.0
C2847 C 0.92154 0.53181 0.59835 0.0
H2848 H 0.2621 0.33257 0.24098 0.0
H2849 H 0.20726 0.33233 0.28425 0.0
H2850 H 0.21549 0.33016 0.37597 0.0
H2851 H 0.23826 0.32869 0.44345 0.0
H2852 H 0.29307 0.32753 0.39992 0.0
H2853 H 0.28484 0.32978 0.30824 0.0
C2854 C 0.25194 0.33211 0.27051 0.0
C2855 C 0.23409 0.33278 0.25602 0.0
C2856 C 0.25677 0.33055 0.32287 0.0
C2857 C 0.22108 0.33185 0.29453 0.0
C2858 C 0.22578 0.33064 0.34689 0.0
C2859 C 0.24841 0.32894 0.4139 0.0
C2860 C 0.26626 0.32807 0.42838 0.0
C2861 C 0.24358 0.33003 0.36145 0.0
C2862 C 0.27925 0.32815 0.38969 0.0
C2863 C 0.27455 0.3295 0.33735 0.0
H2864 H 0.40739 0.50654 0.00236 0.0
H2865 H 0.44287 0.46228 0.01124 0.0
H2866 H 0.4498 0.46967 0.10115 0.0
H2867 H 0.44608 0.48882 0.17701 0.0
H2868 H 0.40961 0.53222 0.17008 0.0
H2869 H 0.40291 0.52515 0.07942 0.0
C2870 C 0.41658 0.49845 0.02402 0.0
C2871 C 0.42462 0.48389 -6e-05 0.0
C2872 C 0.42046 0.50273 0.07588 0.0
C2873 C 0.43643 0.47352 0.02874 0.0
C2874 C 0.44048 0.47779 0.08013 0.0
C2875 C 0.4368 0.49685 0.15549 0.0
C2876 C 0.42853 0.51117 0.17993 0.0
C2877 C 0.43269 0.49243 0.10395 0.0
C2878 C 0.41623 0.5212 0.15195 0.0
C2879 C 0.41236 0.51713 0.10021 0.0
H2880 H 0.26337 0.67902 0.94875 0.0
H2881 H 0.20884 0.68251 0.90294 0.0
H2882 H 0.21723 0.67862 0.81195 0.0
H2883 H 0.24003 0.67449 0.74576 0.0
H2884 H 0.29469 0.67256 0.79104 0.0
H2885 H 0.28624 0.67551 0.88235 0.0
C2886 C 0.2533 0.67888 0.91889 0.0
C2887 C 0.23549 0.68098 0.93255 0.0
C2888 C 0.25824 0.67689 0.86676 0.0
C2889 C 0.22263 0.68098 0.89338 0.0
C2890 C 0.22742 0.6787 0.84142 0.0
C2891 C 0.25011 0.67457 0.77562 0.0
C2892 C 0.26797 0.67316 0.76177 0.0
C2893 C 0.24518 0.67665 0.82773 0.0
C2894 C 0.28086 0.6736 0.80079 0.0
C2895 C 0.27604 0.67529 0.85292 0.0
H2896 H 0.08936 0.49546 0.50475 0.0
H2897 H 0.08892 0.5503 0.54795 0.0
H2898 H 0.08513 0.54215 0.63925 0.0
H2899 H 0.08174 0.51947 0.70634 0.0
H2900 H 0.08025 0.46468 0.66261 0.0
H2901 H 0.08487 0.47279 0.5716 0.0
C2902 C 0.08857 0.50562 0.53424 0.0
C2903 C 0.08961 0.52346 0.51986 0.0
C2904 C 0.08592 0.50084 0.58631 0.0
C2905 C 0.0882 0.53649 0.55821 0.0
C2906 C 0.08603 0.53184 0.61032 0.0
C2907 C 0.08244 0.50929 0.67689 0.0
C2908 C 0.08075 0.49149 0.69115 0.0
C2909 C 0.08482 0.51406 0.62474 0.0
C2910 C 0.08146 0.47847 0.65254 0.0
C2911 C 0.08417 0.4831 0.60059 0.0
loop_
_geom_bond_atom_site_label_1
_geom_bond_atom_site_label_2
_geom_bond_distance
_geom_bond_site_symmetry_2
_ccdc_geom_bond_type
Co0 O2 2.143 . S
Co0 O8 2.074 . S
Co0 O11 2.093 . S
Co0 O24 2.097 . S
Co0 N41 2.151 . S
Co0 N49 2.214 . S
Co1 O2 2.160 . S
Co1 O7 2.058 1_554 S
Co1 O17 2.057 . S
Co1 O32 2.037 . S
Co1 N36 2.145 1_554 S
Co1 N57 2.257 . S
O2 Co0 2.143 . S
O2 Co1 2.160 . S
C3 O4 1.278 . S
C3 O11 1.224 . S
O4 C3 1.278 . S
C5 O6 1.245 . S
C5 O17 1.232 . S
O6 C5 1.245 . S
O7 Co1 2.058 1_556 S
O7 C33 1.269 . S
O8 Co0 2.074 . S
O8 C33 1.257 1_554 S
H9 C34 0.930 . S
H10 C40 0.930 . S
O11 Co0 2.093 . S
O11 C3 1.224 . S
H12 C44 0.929 . S
H13 C46 0.930 . S
H14 C47 0.930 . S
H15 C45 0.929 . S
H16 C48 0.928 . S
O17 Co1 2.057 . S
O17 C5 1.232 . S
H18 C37 0.929 . S
H19 C38 0.929 . S
H20 C50 0.931 . S
H21 C42 0.929 . S
H22 C51 0.930 . S
H23 C43 0.931 . S
O24 Co0 2.097 . S
O24 C52 1.214 . S
H25 C53 0.929 . S
H26 C54 0.929 . S
H27 C55 0.930 . S
H28 C56 0.929 . S
H29 C58 0.930 . S
H30 C35 0.930 . S
H31 C39 0.930 . S
O32 Co1 2.037 . S
O32 C52 1.234 . S
C33 O7 1.269 . S
C33 O8 1.257 1_556 S
C34 H9 0.930 . S
C34 C37 1.388 . S
C34 C39 1.418 . S
C35 H30 0.930 . S
C35 C38 1.404 . S
C35 C39 1.353 . S
N36 Co1 2.145 1_556 S
N36 C37 1.397 . S
N36 C38 1.334 . S
C37 H18 0.929 . S
C37 C34 1.388 . S
C37 N36 1.397 . S
C38 H19 0.929 . S
C38 C35 1.404 . S
C38 N36 1.334 . S
C39 H31 0.930 . S
C39 C34 1.418 . S
C39 C35 1.353 . S
C40 H10 0.930 . S
C40 N41 1.330 . S
C40 C42 1.446 . S
N41 Co0 2.151 . S
N41 C40 1.330 . S
N41 C45 1.418 . S
C42 H21 0.929 . S
C42 C40 1.446 . S
C42 C43 1.332 . S
C43 H23 0.931 . S
C43 C42 1.332 . S
C43 C44 1.267 . S
C44 H12 0.929 . S
C44 C43 1.267 . S
C44 C45 1.251 . S
C45 H15 0.929 . S
C45 N41 1.418 . S
C45 C44 1.251 . S
C46 H13 0.930 . S
C46 C48 1.406 . S
C46 C51 1.261 . S
C47 H14 0.930 . S
C47 N49 1.325 . S
C47 C50 1.357 . S
C48 H16 0.928 . S
C48 C46 1.406 . S
C48 N49 1.261 . S
N49 Co0 2.214 . S
N49 C47 1.325 . S
N49 C48 1.261 . S
C50 H20 0.931 . S
C50 C47 1.357 . S
C50 C51 1.312 . S
C51 H22 0.930 . S
C51 C46 1.261 . S
C51 C50 1.312 . S
C52 O24 1.214 . S
C52 O32 1.234 . S
C53 H25 0.929 . S
C53 C56 1.391 . S
C53 C58 1.391 . S
C54 H26 0.929 . S
C54 C55 1.390 . S
C54 N57 1.391 . S
C55 H27 0.930 . S
C55 C54 1.390 . S
C55 C56 1.392 . S
C56 H28 0.929 . S
C56 C53 1.391 . S
C56 C55 1.392 . S
N57 Co1 2.257 . S
N57 C54 1.391 . S
N57 C58 1.388 . S
C58 H29 0.930 . S
C58 C53 1.391 . S
C58 N57 1.388 . S
Co59 O61 2.143 1_545 S
Co59 O67 2.074 . S
Co59 O70 2.093 . S
Co59 O83 2.097 1_545 S
Co59 N100 2.151 . S
Co59 N108 2.214 . S
Co60 O61 2.160 . S
Co60 O66 2.058 . S
Co60 O76 2.057 . S
Co60 O91 2.037 . S
Co60 N95 2.145 . S
Co60 N116 2.257 . S
O61 Co59 2.143 1_565 S
O61 Co60 2.160 . S
C62 O63 1.278 . S
C62 O70 1.224 1_565 S
O63 C62 1.278 . S
C64 O65 1.245 . S
C64 O76 1.232 . S
O65 C64 1.245 . S
O66 Co60 2.058 . S
O66 C92 1.269 . S
O67 Co59 2.074 . S
O67 C92 1.257 1_545 S
H68 C93 0.930 . S
H69 C99 0.930 . S
O70 Co59 2.093 . S
O70 C62 1.224 1_545 S
H71 C103 0.929 . S
H72 C105 0.930 . S
H73 C106 0.930 . S
H74 C104 0.929 . S
H75 C107 0.928 . S
O76 Co60 2.057 . S
O76 C64 1.232 . S
H77 C96 0.929 . S
H78 C97 0.929 . S
H79 C109 0.931 . S
H80 C101 0.929 . S
H81 C110 0.930 . S
H82 C102 0.931 . S
O83 Co59 2.097 1_565 S
O83 C111 1.214 . S
H84 C112 0.929 . S
H85 C113 0.929 . S
H86 C114 0.930 . S
H87 C115 0.929 . S
H88 C117 0.930 . S
H89 C94 0.930 . S
H90 C98 0.930 . S
O91 Co60 2.037 . S
O91 C111 1.234 . S
C92 O66 1.269 . S
C92 O67 1.257 1_565 S
C93 H68 0.930 . S
C93 C96 1.388 . S
C93 C98 1.418 . S
C94 H89 0.930 . S
C94 C97 1.404 . S
C94 C98 1.353 . S
N95 Co60 2.145 . S
N95 C96 1.397 . S
N95 C97 1.334 . S
C96 H77 0.929 . S
C96 C93 1.388 . S
C96 N95 1.397 . S
C97 H78 0.929 . S
C97 C94 1.404 . S
C97 N95 1.334 . S
C98 H90 0.930 . S
C98 C93 1.418 . S
C98 C94 1.353 . S
C99 H69 0.930 . S
C99 N100 1.330 . S
C99 C101 1.446 . S
N100 Co59 2.151 . S
N100 C99 1.330 . S
N100 C104 1.418 . S
C101 H80 0.929 . S
C101 C99 1.446 . S
C101 C102 1.332 . S
C102 H82 0.931 . S
C102 C101 1.332 . S
C102 C103 1.267 . S
C103 H71 0.929 . S
C103 C102 1.267 . S
C103 C104 1.251 . S
C104 H74 0.929 . S
C104 N100 1.418 . S
C104 C103 1.251 . S
C105 H72 0.930 . S
C105 C107 1.406 . S
C105 C110 1.261 . S
C106 H73 0.930 . S
C106 N108 1.325 . S
C106 C109 1.357 . S
C107 H75 0.928 . S
C107 C105 1.406 . S
C107 N108 1.261 . S
N108 Co59 2.214 . S
N108 C106 1.325 . S
N108 C107 1.261 . S
C109 H79 0.931 . S
C109 C106 1.357 . S
C109 C110 1.312 . S
C110 H81 0.930 . S
C110 C105 1.261 . S
C110 C109 1.312 . S
C111 O83 1.214 . S
C111 O91 1.234 . S
C112 H84 0.929 . S
C112 C115 1.391 . S
C112 C117 1.391 . S
C113 H85 0.929 . S
C113 C114 1.390 . S
C113 N116 1.391 . S
C114 H86 0.930 . S
C114 C113 1.390 . S
C114 C115 1.392 . S
C115 H87 0.929 . S
C115 C112 1.391 . S
C115 C114 1.392 . S
N116 Co60 2.257 . S
N116 C113 1.391 . S
N116 C117 1.388 . S
C117 H88 0.930 . S
C117 C112 1.391 . S
C117 N116 1.388 . S
Co118 O120 2.143 . S
Co118 O126 2.074 . S
Co118 O129 2.093 . S
Co118 O142 2.097 . S
Co118 N159 2.151 . S
Co118 N167 2.214 . S
Co119 O120 2.160 . S
Co119 O125 2.058 . S
Co119 O135 2.057 . S
Co119 O150 2.037 . S
Co119 N154 2.145 . S
Co119 N175 2.257 . S
O120 Co118 2.143 . S
O120 Co119 2.160 . S
C121 O122 1.278 . S
C121 O129 1.224 . S
O122 C121 1.278 . S
C123 O124 1.245 . S
C123 O135 1.232 . S
O124 C123 1.245 . S
O125 Co119 2.058 . S
O125 C151 1.269 . S
O126 Co118 2.074 . S
O126 C151 1.257 . S
H127 C152 0.930 . S
H128 C158 0.930 . S
O129 Co118 2.093 . S
O129 C121 1.224 . S
H130 C162 0.929 . S
H131 C164 0.930 . S
H132 C165 0.930 . S
H133 C163 0.929 . S
H134 C166 0.928 . S
O135 Co119 2.057 . S
O135 C123 1.232 . S
H136 C155 0.929 . S
H137 C156 0.929 . S
H138 C168 0.931 . S
H139 C160 0.929 . S
H140 C169 0.930 . S
H141 C161 0.931 . S
O142 Co118 2.097 . S
O142 C170 1.214 . S
H143 C171 0.929 . S
H144 C172 0.929 . S
H145 C173 0.930 . S
H146 C174 0.929 . S
H147 C176 0.930 . S
H148 C153 0.930 . S
H149 C157 0.930 . S
O150 Co119 2.037 . S
O150 C170 1.234 . S
C151 O125 1.269 . S
C151 O126 1.257 . S
C152 H127 0.930 . S
C152 C155 1.388 . S
C152 C157 1.418 . S
C153 H148 0.930 . S
C153 C156 1.404 . S
C153 C157 1.353 . S
N154 Co119 2.145 . S
N154 C155 1.397 . S
N154 C156 1.334 . S
C155 H136 0.929 . S
C155 C152 1.388 . S
C155 N154 1.397 . S
C156 H137 0.929 . S
C156 C153 1.404 . S
C156 N154 1.334 . S
C157 H149 0.930 . S
C157 C152 1.418 . S
C157 C153 1.353 . S
C158 H128 0.930 . S
C158 N159 1.330 . S
C158 C160 1.446 . S
N159 Co118 2.151 . S
N159 C158 1.330 . S
N159 C163 1.418 . S
C160 H139 0.929 . S
C160 C158 1.446 . S
C160 C161 1.332 . S
C161 H141 0.931 . S
C161 C160 1.332 . S
C161 C162 1.267 . S
C162 H130 0.929 . S
C162 C161 1.267 . S
C162 C163 1.251 . S
C163 H133 0.929 . S
C163 N159 1.418 . S
C163 C162 1.251 . S
C164 H131 0.930 . S
C164 C166 1.406 . S
C164 C169 1.261 . S
C165 H132 0.930 . S
C165 N167 1.325 . S
C165 C168 1.357 . S
C166 H134 0.928 . S
C166 C164 1.406 . S
C166 N167 1.261 . S
N167 Co118 2.214 . S
N167 C165 1.325 . S
N167 C166 1.261 . S
C168 H138 0.931 . S
C168 C165 1.357 . S
C168 C169 1.312 . S
C169 H140 0.930 . S
C169 C164 1.261 . S
C169 C168 1.312 . S
C170 O142 1.214 . S
C170 O150 1.234 . S
C171 H143 0.929 . S
C171 C174 1.391 . S
C171 C176 1.391 . S
C172 H144 0.929 . S
C172 C173 1.390 . S
C172 N175 1.391 . S
C173 H145 0.930 . S
C173 C172 1.390 . S
C173 C174 1.392 . S
C174 H146 0.929 . S
C174 C171 1.391 . S
C174 C173 1.392 . S
N175 Co119 2.257 . S
N175 C172 1.391 . S
N175 C176 1.388 . S
C176 H147 0.930 . S
C176 C171 1.391 . S
C176 N175 1.388 . S
Co177 O179 2.143 . S
Co177 O185 2.074 . S
Co177 O188 2.093 . S
Co177 O201 2.097 . S
Co177 N218 2.151 1_545 S
Co177 N226 2.214 1_545 S
Co178 O179 2.160 . S
Co178 O184 2.058 . S
Co178 O194 2.057 . S
Co178 O209 2.037 . S
Co178 N213 2.145 . S
Co178 N234 2.257 . S
O179 Co177 2.143 . S
O179 Co178 2.160 . S
C180 O181 1.278 . S
C180 O188 1.224 . S
O181 C180 1.278 . S
C182 O183 1.245 . S
C182 O194 1.232 . S
O183 C182 1.245 . S
O184 Co178 2.058 . S
O184 C210 1.269 . S
O185 Co177 2.074 . S
O185 C210 1.257 . S
H186 C211 0.930 . S
H187 C217 0.930 1_545 S
O188 Co177 2.093 . S
O188 C180 1.224 . S
H189 C221 0.929 . S
H190 C223 0.930 . S
H191 C224 0.930 . S
H192 C222 0.929 . S
H193 C225 0.928 . S
O194 Co178 2.057 . S
O194 C182 1.232 . S
H195 C214 0.929 . S
H196 C215 0.929 . S
H197 C227 0.931 . S
H198 C219 0.929 . S
H199 C228 0.930 . S
H200 C220 0.931 . S
O201 Co177 2.097 . S
O201 C229 1.214 . S
H202 C230 0.929 . S
H203 C231 0.929 . S
H204 C232 0.930 . S
H205 C233 0.929 . S
H206 C235 0.930 . S
H207 C212 0.930 . S
H208 C216 0.930 . S
O209 Co178 2.037 . S
O209 C229 1.234 . S
C210 O184 1.269 . S
C210 O185 1.257 . S
C211 H186 0.930 . S
C211 C214 1.388 . S
C211 C216 1.418 . S
C212 H207 0.930 . S
C212 C215 1.404 . S
C212 C216 1.353 . S
N213 Co178 2.145 . S
N213 C214 1.397 . S
N213 C215 1.334 . S
C214 H195 0.929 . S
C214 C211 1.388 . S
C214 N213 1.397 . S
C215 H196 0.929 . S
C215 C212 1.404 . S
C215 N213 1.334 . S
C216 H208 0.930 . S
C216 C211 1.418 . S
C216 C212 1.353 . S
C217 H187 0.930 1_565 S
C217 N218 1.330 . S
C217 C219 1.446 . S
N218 Co177 2.151 1_565 S
N218 C217 1.330 . S
N218 C222 1.418 . S
C219 H198 0.929 . S
C219 C217 1.446 . S
C219 C220 1.332 . S
C220 H200 0.931 . S
C220 C219 1.332 . S
C220 C221 1.267 . S
C221 H189 0.929 . S
C221 C220 1.267 . S
C221 C222 1.251 . S
C222 H192 0.929 . S
C222 N218 1.418 . S
C222 C221 1.251 . S
C223 H190 0.930 . S
C223 C225 1.406 . S
C223 C228 1.261 . S
C224 H191 0.930 . S
C224 N226 1.325 . S
C224 C227 1.357 . S
C225 H193 0.928 . S
C225 C223 1.406 . S
C225 N226 1.261 . S
N226 Co177 2.214 1_565 S
N226 C224 1.325 . S
N226 C225 1.261 . S
C227 H197 0.931 . S
C227 C224 1.357 . S
C227 C228 1.312 . S
C228 H199 0.930 . S
C228 C223 1.261 . S
C228 C227 1.312 . S
C229 O201 1.214 . S
C229 O209 1.234 . S
C230 H202 0.929 . S
C230 C233 1.391 . S
C230 C235 1.391 . S
C231 H203 0.929 . S
C231 C232 1.390 . S
C231 N234 1.391 . S
C232 H204 0.930 . S
C232 C231 1.390 . S
C232 C233 1.392 . S
C233 H205 0.929 . S
C233 C230 1.391 . S
C233 C232 1.392 . S
N234 Co178 2.257 . S
N234 C231 1.391 . S
N234 C235 1.388 . S
C235 H206 0.930 . S
C235 C230 1.391 . S
C235 N234 1.388 . S
Co236 O238 2.143 . S
Co236 O244 2.074 . S
Co236 O247 2.093 . S
Co236 O260 2.097 . S
Co236 N277 2.151 . S
Co236 N285 2.214 . S
Co237 O238 2.160 . S
Co237 O243 2.058 . S
Co237 O253 2.057 . S
Co237 O268 2.037 . S
Co237 N272 2.145 . S
Co237 N293 2.257 . S
O238 Co236 2.143 . S
O238 Co237 2.160 . S
C239 O240 1.278 . S
C239 O247 1.224 . S
O240 C239 1.278 . S
C241 O242 1.245 . S
C241 O253 1.232 . S
O242 C241 1.245 . S
O243 Co237 2.058 . S
O243 C269 1.269 . S
O244 Co236 2.074 . S
O244 C269 1.257 . S
H245 C270 0.930 . S
H246 C276 0.930 . S
O247 Co236 2.093 . S
O247 C239 1.224 . S
H248 C280 0.929 . S
H249 C282 0.930 . S
H250 C283 0.930 . S
H251 C281 0.929 . S
H252 C284 0.928 . S
O253 Co237 2.057 . S
O253 C241 1.232 . S
H254 C273 0.929 . S
H255 C274 0.929 . S
H256 C286 0.931 . S
H257 C278 0.929 . S
H258 C287 0.930 . S
H259 C279 0.931 . S
O260 Co236 2.097 . S
O260 C288 1.214 . S
H261 C289 0.929 . S
H262 C290 0.929 . S
H263 C291 0.930 . S
H264 C292 0.929 1_556 S
H265 C294 0.930 . S
H266 C271 0.930 . S
H267 C275 0.930 . S
O268 Co237 2.037 . S
O268 C288 1.234 . S
C269 O243 1.269 . S
C269 O244 1.257 . S
C270 H245 0.930 . S
C270 C273 1.388 . S
C270 C275 1.418 . S
C271 H266 0.930 . S
C271 C274 1.404 . S
C271 C275 1.353 . S
N272 Co237 2.145 . S
N272 C273 1.397 . S
N272 C274 1.334 . S
C273 H254 0.929 . S
C273 C270 1.388 . S
C273 N272 1.397 . S
C274 H255 0.929 . S
C274 C271 1.404 . S
C274 N272 1.334 . S
C275 H267 0.930 . S
C275 C270 1.418 . S
C275 C271 1.353 . S
C276 H246 0.930 . S
C276 N277 1.330 . S
C276 C278 1.446 . S
N277 Co236 2.151 . S
N277 C276 1.330 . S
N277 C281 1.418 . S
C278 H257 0.929 . S
C278 C276 1.446 . S
C278 C279 1.332 . S
C279 H259 0.931 . S
C279 C278 1.332 . S
C279 C280 1.267 . S
C280 H248 0.929 . S
C280 C279 1.267 . S
C280 C281 1.251 . S
C281 H251 0.929 . S
C281 N277 1.418 . S
C281 C280 1.251 . S
C282 H249 0.930 . S
C282 C284 1.406 . S
C282 C287 1.261 . S
C283 H250 0.930 . S
C283 N285 1.325 . S
C283 C286 1.357 . S
C284 H252 0.928 . S
C284 C282 1.406 . S
C284 N285 1.261 . S
N285 Co236 2.214 . S
N285 C283 1.325 . S
N285 C284 1.261 . S
C286 H256 0.931 . S
C286 C283 1.357 . S
C286 C287 1.312 . S
C287 H258 0.930 . S
C287 C282 1.261 . S
C287 C286 1.312 . S
C288 O260 1.214 . S
C288 O268 1.234 . S
C289 H261 0.929 . S
C289 C292 1.391 . S
C289 C294 1.391 . S
C290 H262 0.929 . S
C290 C291 1.390 . S
C290 N293 1.391 . S
C291 H263 0.930 . S
C291 C290 1.390 . S
C291 C292 1.392 . S
C292 H264 0.929 1_554 S
C292 C289 1.391 . S
C292 C291 1.392 . S
N293 Co237 2.257 . S
N293 C290 1.391 . S
N293 C294 1.388 . S
C294 H265 0.930 . S
C294 C289 1.391 . S
C294 N293 1.388 . S
Co295 O297 2.143 1_545 S
Co295 O303 2.074 . S
Co295 O306 2.093 . S
Co295 O319 2.097 1_545 S
Co295 N336 2.151 . S
Co295 N344 2.214 . S
Co296 O297 2.160 . S
Co296 O302 2.058 . S
Co296 O312 2.057 . S
Co296 O327 2.037 . S
Co296 N331 2.145 . S
Co296 N352 2.257 . S
O297 Co295 2.143 1_565 S
O297 Co296 2.160 . S
C298 O299 1.278 . S
C298 O306 1.224 1_565 S
O299 C298 1.278 . S
C300 O301 1.245 . S
C300 O312 1.232 . S
O301 C300 1.245 . S
O302 Co296 2.058 . S
O302 C328 1.269 . S
O303 Co295 2.074 . S
O303 C328 1.257 1_545 S
H304 C329 0.930 . S
H305 C335 0.930 . S
O306 Co295 2.093 . S
O306 C298 1.224 1_545 S
H307 C339 0.929 . S
H308 C341 0.930 . S
H309 C342 0.930 . S
H310 C340 0.929 . S
H311 C343 0.928 . S
O312 Co296 2.057 . S
O312 C300 1.232 . S
H313 C332 0.929 . S
H314 C333 0.929 . S
H315 C345 0.931 . S
H316 C337 0.929 . S
H317 C346 0.930 . S
H318 C338 0.931 . S
O319 Co295 2.097 1_565 S
O319 C347 1.214 . S
H320 C348 0.929 . S
H321 C349 0.929 . S
H322 C350 0.930 . S
H323 C351 0.929 . S
H324 C353 0.930 . S
H325 C330 0.930 . S
H326 C334 0.930 . S
O327 Co296 2.037 . S
O327 C347 1.234 . S
C328 O302 1.269 . S
C328 O303 1.257 1_565 S
C329 H304 0.930 . S
C329 C332 1.388 . S
C329 C334 1.418 . S
C330 H325 0.930 . S
C330 C333 1.404 . S
C330 C334 1.353 . S
N331 Co296 2.145 . S
N331 C332 1.397 . S
N331 C333 1.334 . S
C332 H313 0.929 . S
C332 C329 1.388 . S
C332 N331 1.397 . S
C333 H314 0.929 . S
C333 C330 1.404 . S
C333 N331 1.334 . S
C334 H326 0.930 . S
C334 C329 1.418 . S
C334 C330 1.353 . S
C335 H305 0.930 . S
C335 N336 1.330 . S
C335 C337 1.446 . S
N336 Co295 2.151 . S
N336 C335 1.330 . S
N336 C340 1.418 . S
C337 H316 0.929 . S
C337 C335 1.446 . S
C337 C338 1.332 . S
C338 H318 0.931 . S
C338 C337 1.332 . S
C338 C339 1.267 . S
C339 H307 0.929 . S
C339 C338 1.267 . S
C339 C340 1.251 . S
C340 H310 0.929 . S
C340 N336 1.418 . S
C340 C339 1.251 . S
C341 H308 0.930 . S
C341 C343 1.406 . S
C341 C346 1.261 . S
C342 H309 0.930 . S
C342 N344 1.325 . S
C342 C345 1.357 . S
C343 H311 0.928 . S
C343 C341 1.406 . S
C343 N344 1.261 . S
N344 Co295 2.214 . S
N344 C342 1.325 . S
N344 C343 1.261 . S
C345 H315 0.931 . S
C345 C342 1.357 . S
C345 C346 1.312 . S
C346 H317 0.930 . S
C346 C341 1.261 . S
C346 C345 1.312 . S
C347 O319 1.214 . S
C347 O327 1.234 . S
C348 H320 0.929 . S
C348 C351 1.391 . S
C348 C353 1.391 . S
C349 H321 0.929 . S
C349 C350 1.390 . S
C349 N352 1.391 . S
C350 H322 0.930 . S
C350 C349 1.390 . S
C350 C351 1.392 . S
C351 H323 0.929 . S
C351 C348 1.391 . S
C351 C350 1.392 . S
N352 Co296 2.257 . S
N352 C349 1.391 . S
N352 C353 1.388 . S
C353 H324 0.930 . S
C353 C348 1.391 . S
C353 N352 1.388 . S
Co354 O356 2.143 . S
Co354 O362 2.074 . S
Co354 O365 2.093 . S
Co354 O378 2.097 . S
Co354 N395 2.151 . S
Co354 N403 2.214 . S
Co355 O356 2.160 . S
Co355 O361 2.058 . S
Co355 O371 2.057 . S
Co355 O386 2.037 . S
Co355 N390 2.145 . S
Co355 N411 2.257 . S
O356 Co354 2.143 . S
O356 Co355 2.160 . S
C357 O358 1.278 . S
C357 O365 1.224 . S
O358 C357 1.278 . S
C359 O360 1.245 . S
C359 O371 1.232 . S
O360 C359 1.245 . S
O361 Co355 2.058 . S
O361 C387 1.269 . S
O362 Co354 2.074 . S
O362 C387 1.257 . S
H363 C388 0.930 . S
H364 C394 0.930 . S
O365 Co354 2.093 . S
O365 C357 1.224 . S
H366 C398 0.929 . S
H367 C400 0.930 . S
H368 C401 0.930 . S
H369 C399 0.929 . S
H370 C402 0.928 . S
O371 Co355 2.057 . S
O371 C359 1.232 . S
H372 C391 0.929 . S
H373 C392 0.929 . S
H374 C404 0.931 . S
H375 C396 0.929 . S
H376 C405 0.930 . S
H377 C397 0.931 . S
O378 Co354 2.097 . S
O378 C406 1.214 . S
H379 C407 0.929 . S
H380 C408 0.929 . S
H381 C409 0.930 . S
H382 C410 0.929 . S
H383 C412 0.930 . S
H384 C389 0.930 . S
H385 C393 0.930 . S
O386 Co355 2.037 . S
O386 C406 1.234 . S
C387 O361 1.269 . S
C387 O362 1.257 . S
C388 H363 0.930 . S
C388 C391 1.388 . S
C388 C393 1.418 . S
C389 H384 0.930 . S
C389 C392 1.404 . S
C389 C393 1.353 . S
N390 Co355 2.145 . S
N390 C391 1.397 . S
N390 C392 1.334 . S
C391 H372 0.929 . S
C391 C388 1.388 . S
C391 N390 1.397 . S
C392 H373 0.929 . S
C392 C389 1.404 . S
C392 N390 1.334 . S
C393 H385 0.930 . S
C393 C388 1.418 . S
C393 C389 1.353 . S
C394 H364 0.930 . S
C394 N395 1.330 . S
C394 C396 1.446 . S
N395 Co354 2.151 . S
N395 C394 1.330 . S
N395 C399 1.418 . S
C396 H375 0.929 . S
C396 C394 1.446 . S
C396 C397 1.332 . S
C397 H377 0.931 . S
C397 C396 1.332 . S
C397 C398 1.267 . S
C398 H366 0.929 . S
C398 C397 1.267 . S
C398 C399 1.251 . S
C399 H369 0.929 . S
C399 N395 1.418 . S
C399 C398 1.251 . S
C400 H367 0.930 . S
C400 C402 1.406 . S
C400 C405 1.261 . S
C401 H368 0.930 . S
C401 N403 1.325 . S
C401 C404 1.357 . S
C402 H370 0.928 . S
C402 C400 1.406 . S
C402 N403 1.261 . S
N403 Co354 2.214 . S
N403 C401 1.325 . S
N403 C402 1.261 . S
C404 H374 0.931 . S
C404 C401 1.357 . S
C404 C405 1.312 . S
C405 H376 0.930 . S
C405 C400 1.261 . S
C405 C404 1.312 . S
C406 O378 1.214 . S
C406 O386 1.234 . S
C407 H379 0.929 . S
C407 C410 1.391 . S
C407 C412 1.391 . S
C408 H380 0.929 . S
C408 C409 1.390 . S
C408 N411 1.391 . S
C409 H381 0.930 . S
C409 C408 1.390 . S
C409 C410 1.392 . S
C410 H382 0.929 . S
C410 C407 1.391 . S
C410 C409 1.392 . S
N411 Co355 2.257 . S
N411 C408 1.391 . S
N411 C412 1.388 . S
C412 H383 0.930 . S
C412 C407 1.391 . S
C412 N411 1.388 . S
Co413 O415 2.143 . S
Co413 O421 2.074 . S
Co413 O424 2.093 . S
Co413 O437 2.097 . S
Co413 N454 2.151 1_545 S
Co413 N462 2.214 1_545 S
Co414 O415 2.160 . S
Co414 O420 2.058 . S
Co414 O430 2.057 . S
Co414 O445 2.037 . S
Co414 N449 2.145 . S
Co414 N470 2.257 . S
O415 Co413 2.143 . S
O415 Co414 2.160 . S
C416 O417 1.278 . S
C416 O424 1.224 . S
O417 C416 1.278 . S
C418 O419 1.245 . S
C418 O430 1.232 . S
O419 C418 1.245 . S
O420 Co414 2.058 . S
O420 C446 1.269 . S
O421 Co413 2.074 . S
O421 C446 1.257 . S
H422 C447 0.930 . S
H423 C453 0.930 1_545 S
O424 Co413 2.093 . S
O424 C416 1.224 . S
H425 C457 0.929 . S
H426 C459 0.930 . S
H427 C460 0.930 . S
H428 C458 0.929 . S
H429 C461 0.928 . S
O430 Co414 2.057 . S
O430 C418 1.232 . S
H431 C450 0.933 . S
H432 C451 0.929 . S
H433 C463 0.931 . S
H434 C455 0.929 . S
H435 C464 0.930 . S
H436 C456 0.931 . S
O437 Co413 2.097 . S
O437 C465 1.214 . S
H438 C466 0.929 . S
H439 C467 0.929 . S
H440 C468 0.930 . S
H441 C469 0.929 . S
H442 C471 0.930 . S
H443 C448 0.930 . S
H444 C452 0.930 . S
O445 Co414 2.037 . S
O445 C465 1.234 . S
C446 O420 1.269 . S
C446 O421 1.257 . S
C447 H422 0.930 . S
C447 C450 1.388 . S
C447 C452 1.418 . S
C448 H443 0.930 . S
C448 C451 1.404 1_554 S
C448 C452 1.353 . S
N449 Co414 2.145 . S
N449 C450 1.397 1_556 S
N449 C451 1.334 . S
C450 H431 0.933 . S
C450 C447 1.388 . S
C450 N449 1.397 1_554 S
C451 H432 0.929 . S
C451 C448 1.404 1_556 S
C451 N449 1.334 . S
C452 H444 0.930 . S
C452 C447 1.418 . S
C452 C448 1.353 . S
C453 H423 0.930 1_565 S
C453 N454 1.330 . S
C453 C455 1.446 . S
N454 Co413 2.151 1_565 S
N454 C453 1.330 . S
N454 C458 1.418 . S
C455 H434 0.929 . S
C455 C453 1.446 . S
C455 C456 1.332 . S
C456 H436 0.931 . S
C456 C455 1.332 . S
C456 C457 1.267 . S
C457 H425 0.929 . S
C457 C456 1.267 . S
C457 C458 1.251 . S
C458 H428 0.929 . S
C458 N454 1.418 . S
C458 C457 1.251 . S
C459 H426 0.930 . S
C459 C461 1.406 . S
C459 C464 1.261 . S
C460 H427 0.930 . S
C460 N462 1.325 . S
C460 C463 1.357 . S
C461 H429 0.928 . S
C461 C459 1.406 . S
C461 N462 1.261 . S
N462 Co413 2.214 1_565 S
N462 C460 1.325 . S
N462 C461 1.261 . S
C463 H433 0.931 . S
C463 C460 1.357 . S
C463 C464 1.312 . S
C464 H435 0.930 . S
C464 C459 1.261 . S
C464 C463 1.312 . S
C465 O437 1.214 . S
C465 O445 1.234 . S
C466 H438 0.929 . S
C466 C469 1.391 . S
C466 C471 1.391 . S
C467 H439 0.929 . S
C467 C468 1.390 . S
C467 N470 1.391 . S
C468 H440 0.930 . S
C468 C467 1.390 . S
C468 C469 1.392 . S
C469 H441 0.929 . S
C469 C466 1.391 . S
C469 C468 1.392 . S
N470 Co414 2.257 . S
N470 C467 1.391 . S
N470 C471 1.388 . S
C471 H442 0.930 . S
C471 C466 1.391 . S
C471 N470 1.388 . S
Co472 O474 2.143 . S
Co472 O480 2.074 . S
Co472 O483 2.093 . S
Co472 O496 2.097 . S
Co472 N513 2.151 . S
Co472 N521 2.214 . S
Co473 O474 2.160 . S
Co473 O479 2.058 . S
Co473 O489 2.057 . S
Co473 O504 2.037 . S
Co473 N508 2.145 . S
Co473 N529 2.257 . S
O474 Co472 2.143 . S
O474 Co473 2.160 . S
C475 O476 1.278 . S
C475 O483 1.224 . S
O476 C475 1.278 . S
C477 O478 1.245 . S
C477 O489 1.232 . S
O478 C477 1.245 . S
O479 Co473 2.058 . S
O479 C505 1.269 . S
O480 Co472 2.074 . S
O480 C505 1.257 . S
H481 C506 0.930 . S
H482 C512 0.930 . S
O483 Co472 2.093 . S
O483 C475 1.224 . S
H484 C516 0.929 . S
H485 C518 0.930 . S
H486 C519 0.930 . S
H487 C517 0.929 . S
H488 C520 0.928 . S
O489 Co473 2.057 . S
O489 C477 1.232 . S
H490 C509 0.929 . S
H491 C510 0.929 . S
H492 C522 0.931 . S
H493 C514 0.929 . S
H494 C523 0.930 . S
H495 C515 0.931 . S
O496 Co472 2.097 . S
O496 C524 1.214 . S
H497 C525 0.929 . S
H498 C526 0.929 . S
H499 C527 0.930 . S
H500 C528 0.929 1_556 S
H501 C530 0.930 . S
H502 C507 0.930 . S
H503 C511 0.930 . S
O504 Co473 2.037 . S
O504 C524 1.234 . S
C505 O479 1.269 . S
C505 O480 1.257 . S
C506 H481 0.930 . S
C506 C509 1.388 . S
C506 C511 1.418 . S
C507 H502 0.930 . S
C507 C510 1.404 . S
C507 C511 1.353 . S
N508 Co473 2.145 . S
N508 C509 1.397 . S
N508 C510 1.334 . S
C509 H490 0.929 . S
C509 C506 1.388 . S
C509 N508 1.397 . S
C510 H491 0.929 . S
C510 C507 1.404 . S
C510 N508 1.334 . S
C511 H503 0.930 . S
C511 C506 1.418 . S
C511 C507 1.353 . S
C512 H482 0.930 . S
C512 N513 1.330 . S
C512 C514 1.446 . S
N513 Co472 2.151 . S
N513 C512 1.330 . S
N513 C517 1.418 . S
C514 H493 0.929 . S
C514 C512 1.446 . S
C514 C515 1.332 . S
C515 H495 0.931 . S
C515 C514 1.332 . S
C515 C516 1.267 . S
C516 H484 0.929 . S
C516 C515 1.267 . S
C516 C517 1.251 . S
C517 H487 0.929 . S
C517 N513 1.418 . S
C517 C516 1.251 . S
C518 H485 0.930 . S
C518 C520 1.406 . S
C518 C523 1.261 . S
C519 H486 0.930 . S
C519 N521 1.325 . S
C519 C522 1.357 . S
C520 H488 0.928 . S
C520 C518 1.406 . S
C520 N521 1.261 . S
N521 Co472 2.214 . S
N521 C519 1.325 . S
N521 C520 1.261 . S
C522 H492 0.931 . S
C522 C519 1.357 . S
C522 C523 1.312 . S
C523 H494 0.930 . S
C523 C518 1.261 . S
C523 C522 1.312 . S
C524 O496 1.214 . S
C524 O504 1.234 . S
C525 H497 0.929 . S
C525 C528 1.391 . S
C525 C530 1.391 . S
C526 H498 0.929 . S
C526 C527 1.390 . S
C526 N529 1.391 . S
C527 H499 0.930 . S
C527 C526 1.390 . S
C527 C528 1.392 . S
C528 H500 0.929 1_554 S
C528 C525 1.391 . S
C528 C527 1.392 . S
N529 Co473 2.257 . S
N529 C526 1.391 . S
N529 C530 1.388 . S
C530 H501 0.930 . S
C530 C525 1.391 . S
C530 N529 1.388 . S
Co531 O533 2.143 . S
Co531 O539 2.074 . S
Co531 O542 2.093 . S
Co531 O555 2.097 . S
Co531 N572 2.151 1_545 S
Co531 N580 2.214 1_545 S
Co532 O533 2.160 . S
Co532 O538 2.058 . S
Co532 O548 2.057 . S
Co532 O563 2.037 . S
Co532 N567 2.145 . S
Co532 N588 2.257 . S
O533 Co531 2.143 . S
O533 Co532 2.160 . S
C534 O535 1.278 . S
C534 O542 1.224 . S
O535 C534 1.278 . S
C536 O537 1.245 . S
C536 O548 1.232 . S
O537 C536 1.245 . S
O538 Co532 2.058 . S
O538 C564 1.269 . S
O539 Co531 2.074 . S
O539 C564 1.257 . S
H540 C565 0.930 . S
H541 C571 0.930 1_545 S
O542 Co531 2.093 . S
O542 C534 1.224 . S
H543 C575 0.929 . S
H544 C577 0.930 . S
H545 C578 0.930 . S
H546 C576 0.929 . S
H547 C579 0.928 . S
O548 Co532 2.057 . S
O548 C536 1.232 . S
H549 C568 0.933 . S
H550 C569 0.929 . S
H551 C581 0.931 . S
H552 C573 0.929 . S
H553 C582 0.930 . S
H554 C574 0.931 . S
O555 Co531 2.097 . S
O555 C583 1.214 . S
H556 C584 0.929 . S
H557 C585 0.929 . S
H558 C586 0.930 . S
H559 C587 0.929 . S
H560 C589 0.930 . S
H561 C566 0.930 . S
H562 C570 0.930 . S
O563 Co532 2.037 . S
O563 C583 1.234 . S
C564 O538 1.269 . S
C564 O539 1.257 . S
C565 H540 0.930 . S
C565 C568 1.388 . S
C565 C570 1.418 . S
C566 H561 0.930 . S
C566 C569 1.404 1_554 S
C566 C570 1.353 . S
N567 Co532 2.145 . S
N567 C568 1.397 1_556 S
N567 C569 1.334 . S
C568 H549 0.933 . S
C568 C565 1.388 . S
C568 N567 1.397 1_554 S
C569 H550 0.929 . S
C569 C566 1.404 1_556 S
C569 N567 1.334 . S
C570 H562 0.930 . S
C570 C565 1.418 . S
C570 C566 1.353 . S
C571 H541 0.930 1_565 S
C571 N572 1.330 . S
C571 C573 1.446 . S
N572 Co531 2.151 1_565 S
N572 C571 1.330 . S
N572 C576 1.418 . S
C573 H552 0.929 . S
C573 C571 1.446 . S
C573 C574 1.332 . S
C574 H554 0.931 . S
C574 C573 1.332 . S
C574 C575 1.267 . S
C575 H543 0.929 . S
C575 C574 1.267 . S
C575 C576 1.251 . S
C576 H546 0.929 . S
C576 N572 1.418 . S
C576 C575 1.251 . S
C577 H544 0.930 . S
C577 C579 1.406 . S
C577 C582 1.261 . S
C578 H545 0.930 . S
C578 N580 1.325 . S
C578 C581 1.357 . S
C579 H547 0.928 . S
C579 C577 1.406 . S
C579 N580 1.261 . S
N580 Co531 2.214 1_565 S
N580 C578 1.325 . S
N580 C579 1.261 . S
C581 H551 0.931 . S
C581 C578 1.357 . S
C581 C582 1.312 . S
C582 H553 0.930 . S
C582 C577 1.261 . S
C582 C581 1.312 . S
C583 O555 1.214 . S
C583 O563 1.234 . S
C584 H556 0.929 . S
C584 C587 1.391 . S
C584 C589 1.391 . S
C585 H557 0.929 . S
C585 C586 1.390 . S
C585 N588 1.391 . S
C586 H558 0.930 . S
C586 C585 1.390 . S
C586 C587 1.392 . S
C587 H559 0.929 . S
C587 C584 1.391 . S
C587 C586 1.392 . S
N588 Co532 2.257 . S
N588 C585 1.391 . S
N588 C589 1.388 . S
C589 H560 0.930 . S
C589 C584 1.391 . S
C589 N588 1.388 . S
Co590 O592 2.143 . S
Co590 O598 2.074 . S
Co590 O601 2.093 . S
Co590 O614 2.097 . S
Co590 N631 2.151 . S
Co590 N639 2.214 . S
Co591 O592 2.160 . S
Co591 O597 2.058 . S
Co591 O607 2.057 . S
Co591 O622 2.037 . S
Co591 N626 2.145 . S
Co591 N647 2.257 . S
O592 Co590 2.143 . S
O592 Co591 2.160 . S
C593 O594 1.278 . S
C593 O601 1.224 . S
O594 C593 1.278 . S
C595 O596 1.245 . S
C595 O607 1.232 . S
O596 C595 1.245 . S
O597 Co591 2.058 . S
O597 C623 1.269 . S
O598 Co590 2.074 . S
O598 C623 1.257 . S
H599 C624 0.930 . S
H600 C630 0.930 . S
O601 Co590 2.093 . S
O601 C593 1.224 . S
H602 C634 0.929 . S
H603 C636 0.930 . S
H604 C637 0.930 . S
H605 C635 0.929 . S
H606 C638 0.928 . S
O607 Co591 2.057 . S
O607 C595 1.232 . S
H608 C627 0.929 . S
H609 C628 0.929 . S
H610 C640 0.931 . S
H611 C632 0.929 . S
H612 C641 0.930 . S
H613 C633 0.931 . S
O614 Co590 2.097 . S
O614 C642 1.214 . S
H615 C643 0.929 . S
H616 C644 0.929 . S
H617 C645 0.930 . S
H618 C646 0.929 . S
H619 C648 0.930 . S
H620 C625 0.930 . S
H621 C629 0.930 . S
O622 Co591 2.037 . S
O622 C642 1.234 . S
C623 O597 1.269 . S
C623 O598 1.257 . S
C624 H599 0.930 . S
C624 C627 1.388 . S
C624 C629 1.418 . S
C625 H620 0.930 . S
C625 C628 1.404 . S
C625 C629 1.353 . S
N626 Co591 2.145 . S
N626 C627 1.397 . S
N626 C628 1.334 . S
C627 H608 0.929 . S
C627 C624 1.388 . S
C627 N626 1.397 . S
C628 H609 0.929 . S
C628 C625 1.404 . S
C628 N626 1.334 . S
C629 H621 0.930 . S
C629 C624 1.418 . S
C629 C625 1.353 . S
C630 H600 0.930 . S
C630 N631 1.330 . S
C630 C632 1.446 . S
N631 Co590 2.151 . S
N631 C630 1.330 . S
N631 C635 1.418 . S
C632 H611 0.929 . S
C632 C630 1.446 . S
C632 C633 1.332 . S
C633 H613 0.931 . S
C633 C632 1.332 . S
C633 C634 1.267 . S
C634 H602 0.929 . S
C634 C633 1.267 . S
C634 C635 1.251 . S
C635 H605 0.929 . S
C635 N631 1.418 . S
C635 C634 1.251 . S
C636 H603 0.930 . S
C636 C638 1.406 . S
C636 C641 1.261 . S
C637 H604 0.930 . S
C637 N639 1.325 . S
C637 C640 1.357 . S
C638 H606 0.928 . S
C638 C636 1.406 . S
C638 N639 1.261 . S
N639 Co590 2.214 . S
N639 C637 1.325 . S
N639 C638 1.261 . S
C640 H610 0.931 . S
C640 C637 1.357 . S
C640 C641 1.312 . S
C641 H612 0.930 . S
C641 C636 1.261 . S
C641 C640 1.312 . S
C642 O614 1.214 . S
C642 O622 1.234 . S
C643 H615 0.929 . S
C643 C646 1.391 . S
C643 C648 1.391 . S
C644 H616 0.929 . S
C644 C645 1.390 . S
C644 N647 1.391 . S
C645 H617 0.930 . S
C645 C644 1.390 . S
C645 C646 1.392 . S
C646 H618 0.929 . S
C646 C643 1.391 . S
C646 C645 1.392 . S
N647 Co591 2.257 . S
N647 C644 1.391 . S
N647 C648 1.388 . S
C648 H619 0.930 . S
C648 C643 1.391 . S
C648 N647 1.388 . S
Co649 O651 2.143 1_545 S
Co649 O657 2.074 . S
Co649 O660 2.093 . S
Co649 O673 2.097 1_545 S
Co649 N690 2.151 . S
Co649 N698 2.214 . S
Co650 O651 2.160 . S
Co650 O656 2.058 . S
Co650 O666 2.057 . S
Co650 O681 2.037 . S
Co650 N685 2.145 . S
Co650 N706 2.257 . S
O651 Co649 2.143 1_565 S
O651 Co650 2.160 . S
C652 O653 1.278 . S
C652 O660 1.224 1_565 S
O653 C652 1.278 . S
C654 O655 1.245 . S
C654 O666 1.232 . S
O655 C654 1.245 . S
O656 Co650 2.058 . S
O656 C682 1.269 . S
O657 Co649 2.074 . S
O657 C682 1.257 1_545 S
H658 C683 0.930 . S
H659 C689 0.930 . S
O660 Co649 2.093 . S
O660 C652 1.224 1_545 S
H661 C693 0.929 . S
H662 C695 0.930 . S
H663 C696 0.930 . S
H664 C694 0.929 . S
H665 C697 0.928 . S
O666 Co650 2.057 . S
O666 C654 1.232 . S
H667 C686 0.929 . S
H668 C687 0.929 . S
H669 C699 0.931 . S
H670 C691 0.929 . S
H671 C700 0.930 . S
H672 C692 0.931 . S
O673 Co649 2.097 1_565 S
O673 C701 1.214 . S
H674 C702 0.929 . S
H675 C703 0.929 . S
H676 C704 0.930 . S
H677 C705 0.929 . S
H678 C707 0.930 . S
H679 C684 0.930 . S
H680 C688 0.930 . S
O681 Co650 2.037 . S
O681 C701 1.234 . S
C682 O656 1.269 . S
C682 O657 1.257 1_565 S
C683 H658 0.930 . S
C683 C686 1.388 . S
C683 C688 1.418 . S
C684 H679 0.930 . S
C684 C687 1.404 . S
C684 C688 1.353 . S
N685 Co650 2.145 . S
N685 C686 1.397 . S
N685 C687 1.334 . S
C686 H667 0.929 . S
C686 C683 1.388 . S
C686 N685 1.397 . S
C687 H668 0.929 . S
C687 C684 1.404 . S
C687 N685 1.334 . S
C688 H680 0.930 . S
C688 C683 1.418 . S
C688 C684 1.353 . S
C689 H659 0.930 . S
C689 N690 1.330 . S
C689 C691 1.446 . S
N690 Co649 2.151 . S
N690 C689 1.330 . S
N690 C694 1.418 . S
C691 H670 0.929 . S
C691 C689 1.446 . S
C691 C692 1.332 . S
C692 H672 0.931 . S
C692 C691 1.332 . S
C692 C693 1.267 . S
C693 H661 0.929 . S
C693 C692 1.267 . S
C693 C694 1.251 . S
C694 H664 0.929 . S
C694 N690 1.418 . S
C694 C693 1.251 . S
C695 H662 0.930 . S
C695 C697 1.406 . S
C695 C700 1.261 . S
C696 H663 0.930 . S
C696 N698 1.325 . S
C696 C699 1.357 . S
C697 H665 0.928 . S
C697 C695 1.406 . S
C697 N698 1.261 . S
N698 Co649 2.214 . S
N698 C696 1.325 . S
N698 C697 1.261 . S
C699 H669 0.931 . S
C699 C696 1.357 . S
C699 C700 1.312 . S
C700 H671 0.930 . S
C700 C695 1.261 . S
C700 C699 1.312 . S
C701 O673 1.214 . S
C701 O681 1.234 . S
C702 H674 0.929 . S
C702 C705 1.391 . S
C702 C707 1.391 . S
C703 H675 0.929 . S
C703 C704 1.390 . S
C703 N706 1.391 . S
C704 H676 0.930 . S
C704 C703 1.390 . S
C704 C705 1.392 . S
C705 H677 0.929 . S
C705 C702 1.391 . S
C705 C704 1.392 . S
N706 Co650 2.257 . S
N706 C703 1.391 . S
N706 C707 1.388 . S
C707 H678 0.930 . S
C707 C702 1.391 . S
C707 N706 1.388 . S
Co708 O710 2.143 . S
Co708 O716 2.074 . S
Co708 O719 2.093 . S
Co708 O732 2.097 . S
Co708 N749 2.151 . S
Co708 N757 2.214 . S
Co709 O710 2.160 . S
Co709 O715 2.058 1_554 S
Co709 O725 2.057 . S
Co709 O740 2.037 . S
Co709 N744 2.145 1_554 S
Co709 N765 2.257 . S
O710 Co708 2.143 . S
O710 Co709 2.160 . S
C711 O712 1.278 . S
C711 O719 1.224 . S
O712 C711 1.278 . S
C713 O714 1.245 . S
C713 O725 1.232 . S
O714 C713 1.245 . S
O715 Co709 2.058 1_556 S
O715 C741 1.269 . S
O716 Co708 2.074 . S
O716 C741 1.257 1_554 S
H717 C742 0.930 . S
H718 C748 0.930 . S
O719 Co708 2.093 . S
O719 C711 1.224 . S
H720 C752 0.929 . S
H721 C754 0.930 . S
H722 C755 0.930 . S
H723 C753 0.929 . S
H724 C756 0.928 . S
O725 Co709 2.057 . S
O725 C713 1.232 . S
H726 C745 0.929 . S
H727 C746 0.929 . S
H728 C758 0.931 . S
H729 C750 0.929 . S
H730 C759 0.930 . S
H731 C751 0.931 . S
O732 Co708 2.097 . S
O732 C760 1.214 . S
H733 C761 0.929 . S
H734 C762 0.929 . S
H735 C763 0.930 . S
H736 C764 0.929 . S
H737 C766 0.930 . S
H738 C743 0.930 . S
H739 C747 0.930 . S
O740 Co709 2.037 . S
O740 C760 1.234 . S
C741 O715 1.269 . S
C741 O716 1.257 1_556 S
C742 H717 0.930 . S
C742 C745 1.388 . S
C742 C747 1.418 . S
C743 H738 0.930 . S
C743 C746 1.404 . S
C743 C747 1.353 . S
N744 Co709 2.145 1_556 S
N744 C745 1.397 . S
N744 C746 1.334 . S
C745 H726 0.929 . S
C745 C742 1.388 . S
C745 N744 1.397 . S
C746 H727 0.929 . S
C746 C743 1.404 . S
C746 N744 1.334 . S
C747 H739 0.930 . S
C747 C742 1.418 . S
C747 C743 1.353 . S
C748 H718 0.930 . S
C748 N749 1.330 . S
C748 C750 1.446 . S
N749 Co708 2.151 . S
N749 C748 1.330 . S
N749 C753 1.418 . S
C750 H729 0.929 . S
C750 C748 1.446 . S
C750 C751 1.332 . S
C751 H731 0.931 . S
C751 C750 1.332 . S
C751 C752 1.267 . S
C752 H720 0.929 . S
C752 C751 1.267 . S
C752 C753 1.251 . S
C753 H723 0.929 . S
C753 N749 1.418 . S
C753 C752 1.251 . S
C754 H721 0.930 . S
C754 C756 1.406 . S
C754 C759 1.261 . S
C755 H722 0.930 . S
C755 N757 1.325 . S
C755 C758 1.357 . S
C756 H724 0.928 . S
C756 C754 1.406 . S
C756 N757 1.261 . S
N757 Co708 2.214 . S
N757 C755 1.325 . S
N757 C756 1.261 . S
C758 H728 0.931 . S
C758 C755 1.357 . S
C758 C759 1.312 . S
C759 H730 0.930 . S
C759 C754 1.261 . S
C759 C758 1.312 . S
C760 O732 1.214 . S
C760 O740 1.234 . S
C761 H733 0.929 . S
C761 C764 1.391 . S
C761 C766 1.391 . S
C762 H734 0.929 . S
C762 C763 1.390 . S
C762 N765 1.391 . S
C763 H735 0.930 . S
C763 C762 1.390 . S
C763 C764 1.392 . S
C764 H736 0.929 . S
C764 C761 1.391 . S
C764 C763 1.392 . S
N765 Co709 2.257 . S
N765 C762 1.391 . S
N765 C766 1.388 . S
C766 H737 0.930 . S
C766 C761 1.391 . S
C766 N765 1.388 . S
Co767 O769 2.143 . S
Co767 O775 2.074 . S
Co767 O778 2.093 . S
Co767 O791 2.097 . S
Co767 N808 2.151 1_545 S
Co767 N816 2.214 1_545 S
Co768 O769 2.160 . S
Co768 O774 2.058 . S
Co768 O784 2.057 . S
Co768 O799 2.037 . S
Co768 N803 2.145 . S
Co768 N824 2.257 . S
O769 Co767 2.143 . S
O769 Co768 2.160 . S
C770 O771 1.278 . S
C770 O778 1.224 . S
O771 C770 1.278 . S
C772 O773 1.245 . S
C772 O784 1.232 . S
O773 C772 1.245 . S
O774 Co768 2.058 . S
O774 C800 1.269 . S
O775 Co767 2.074 . S
O775 C800 1.257 . S
H776 C801 0.930 . S
H777 C807 0.930 1_545 S
O778 Co767 2.093 . S
O778 C770 1.224 . S
H779 C811 0.929 . S
H780 C813 0.930 . S
H781 C814 0.930 . S
H782 C812 0.929 . S
H783 C815 0.928 . S
O784 Co768 2.057 . S
O784 C772 1.232 . S
H785 C804 0.929 . S
H786 C805 0.929 . S
H787 C817 0.931 . S
H788 C809 0.929 . S
H789 C818 0.930 . S
H790 C810 0.931 . S
O791 Co767 2.097 . S
O791 C819 1.214 . S
H792 C820 0.929 . S
H793 C821 0.929 . S
H794 C822 0.930 . S
H795 C823 0.929 . S
H796 C825 0.930 . S
H797 C802 0.930 . S
H798 C806 0.930 . S
O799 Co768 2.037 . S
O799 C819 1.234 . S
C800 O774 1.269 . S
C800 O775 1.257 . S
C801 H776 0.930 . S
C801 C804 1.388 . S
C801 C806 1.418 . S
C802 H797 0.930 . S
C802 C805 1.404 . S
C802 C806 1.353 . S
N803 Co768 2.145 . S
N803 C804 1.397 . S
N803 C805 1.334 . S
C804 H785 0.929 . S
C804 C801 1.388 . S
C804 N803 1.397 . S
C805 H786 0.929 . S
C805 C802 1.404 . S
C805 N803 1.334 . S
C806 H798 0.930 . S
C806 C801 1.418 . S
C806 C802 1.353 . S
C807 H777 0.930 1_565 S
C807 N808 1.330 . S
C807 C809 1.446 . S
N808 Co767 2.151 1_565 S
N808 C807 1.330 . S
N808 C812 1.418 . S
C809 H788 0.929 . S
C809 C807 1.446 . S
C809 C810 1.332 . S
C810 H790 0.931 . S
C810 C809 1.332 . S
C810 C811 1.267 . S
C811 H779 0.929 . S
C811 C810 1.267 . S
C811 C812 1.251 . S
C812 H782 0.929 . S
C812 N808 1.418 . S
C812 C811 1.251 . S
C813 H780 0.930 . S
C813 C815 1.406 . S
C813 C818 1.261 . S
C814 H781 0.930 . S
C814 N816 1.325 . S
C814 C817 1.357 . S
C815 H783 0.928 . S
C815 C813 1.406 . S
C815 N816 1.261 . S
N816 Co767 2.214 1_565 S
N816 C814 1.325 . S
N816 C815 1.261 . S
C817 H787 0.931 . S
C817 C814 1.357 . S
C817 C818 1.312 . S
C818 H789 0.930 . S
C818 C813 1.261 . S
C818 C817 1.312 . S
C819 O791 1.214 . S
C819 O799 1.234 . S
C820 H792 0.929 . S
C820 C823 1.391 . S
C820 C825 1.391 . S
C821 H793 0.929 . S
C821 C822 1.390 . S
C821 N824 1.391 . S
C822 H794 0.930 . S
C822 C821 1.390 . S
C822 C823 1.392 . S
C823 H795 0.929 . S
C823 C820 1.391 . S
C823 C822 1.392 . S
N824 Co768 2.257 . S
N824 C821 1.391 . S
N824 C825 1.388 . S
C825 H796 0.930 . S
C825 C820 1.391 . S
C825 N824 1.388 . S
Co826 O828 2.143 . S
Co826 O834 2.074 . S
Co826 O837 2.093 . S
Co826 O850 2.097 . S
Co826 N867 2.151 . S
Co826 N875 2.214 . S
Co827 O828 2.160 . S
Co827 O833 2.058 . S
Co827 O843 2.057 . S
Co827 O858 2.037 . S
Co827 N862 2.145 . S
Co827 N883 2.257 . S
O828 Co826 2.143 . S
O828 Co827 2.160 . S
C829 O830 1.278 . S
C829 O837 1.224 . S
O830 C829 1.278 . S
C831 O832 1.245 . S
C831 O843 1.232 . S
O832 C831 1.245 . S
O833 Co827 2.058 . S
O833 C859 1.269 . S
O834 Co826 2.074 . S
O834 C859 1.257 . S
H835 C860 0.930 . S
H836 C866 0.930 . S
O837 Co826 2.093 . S
O837 C829 1.224 . S
H838 C870 0.929 . S
H839 C872 0.930 . S
H840 C873 0.930 . S
H841 C871 0.929 . S
H842 C874 0.928 . S
O843 Co827 2.057 . S
O843 C831 1.232 . S
H844 C863 0.929 . S
H845 C864 0.929 . S
H846 C876 0.931 . S
H847 C868 0.929 . S
H848 C877 0.930 . S
H849 C869 0.931 . S
O850 Co826 2.097 . S
O850 C878 1.214 . S
H851 C879 0.929 . S
H852 C880 0.929 . S
H853 C881 0.930 . S
H854 C882 0.929 . S
H855 C884 0.930 . S
H856 C861 0.930 . S
H857 C865 0.930 . S
O858 Co827 2.037 . S
O858 C878 1.234 . S
C859 O833 1.269 . S
C859 O834 1.257 . S
C860 H835 0.930 . S
C860 C863 1.388 . S
C860 C865 1.418 . S
C861 H856 0.930 . S
C861 C864 1.404 . S
C861 C865 1.353 . S
N862 Co827 2.145 . S
N862 C863 1.397 . S
N862 C864 1.334 . S
C863 H844 0.929 . S
C863 C860 1.388 . S
C863 N862 1.397 . S
C864 H845 0.929 . S
C864 C861 1.404 . S
C864 N862 1.334 . S
C865 H857 0.930 . S
C865 C860 1.418 . S
C865 C861 1.353 . S
C866 H836 0.930 . S
C866 N867 1.330 . S
C866 C868 1.446 . S
N867 Co826 2.151 . S
N867 C866 1.330 . S
N867 C871 1.418 . S
C868 H847 0.929 . S
C868 C866 1.446 . S
C868 C869 1.332 . S
C869 H849 0.931 . S
C869 C868 1.332 . S
C869 C870 1.267 . S
C870 H838 0.929 . S
C870 C869 1.267 . S
C870 C871 1.251 . S
C871 H841 0.929 . S
C871 N867 1.418 . S
C871 C870 1.251 . S
C872 H839 0.930 . S
C872 C874 1.406 . S
C872 C877 1.261 . S
C873 H840 0.930 . S
C873 N875 1.325 . S
C873 C876 1.357 . S
C874 H842 0.928 . S
C874 C872 1.406 . S
C874 N875 1.261 . S
N875 Co826 2.214 . S
N875 C873 1.325 . S
N875 C874 1.261 . S
C876 H846 0.931 . S
C876 C873 1.357 . S
C876 C877 1.312 . S
C877 H848 0.930 . S
C877 C872 1.261 . S
C877 C876 1.312 . S
C878 O850 1.214 . S
C878 O858 1.234 . S
C879 H851 0.929 . S
C879 C882 1.391 . S
C879 C884 1.391 . S
C880 H852 0.929 . S
C880 C881 1.390 . S
C880 N883 1.391 . S
C881 H853 0.930 . S
C881 C880 1.390 . S
C881 C882 1.392 . S
C882 H854 0.929 . S
C882 C879 1.391 . S
C882 C881 1.392 . S
N883 Co827 2.257 . S
N883 C880 1.391 . S
N883 C884 1.388 . S
C884 H855 0.930 . S
C884 C879 1.391 . S
C884 N883 1.388 . S
Co885 O887 2.143 1_545 S
Co885 O893 2.074 . S
Co885 O896 2.093 . S
Co885 O909 2.097 1_545 S
Co885 N926 2.151 . S
Co885 N934 2.214 . S
Co886 O887 2.160 . S
Co886 O892 2.058 . S
Co886 O902 2.057 . S
Co886 O917 2.037 . S
Co886 N921 2.145 . S
Co886 N942 2.257 . S
O887 Co885 2.143 1_565 S
O887 Co886 2.160 . S
C888 O889 1.278 . S
C888 O896 1.224 1_565 S
O889 C888 1.278 . S
C890 O891 1.245 . S
C890 O902 1.232 . S
O891 C890 1.245 . S
O892 Co886 2.058 . S
O892 C918 1.269 . S
O893 Co885 2.074 . S
O893 C918 1.257 1_545 S
H894 C919 0.930 . S
H895 C925 0.930 . S
O896 Co885 2.093 . S
O896 C888 1.224 1_545 S
H897 C929 0.929 . S
H898 C931 0.930 . S
H899 C932 0.930 . S
H900 C930 0.929 . S
H901 C933 0.928 . S
O902 Co886 2.057 . S
O902 C890 1.232 . S
H903 C922 0.929 . S
H904 C923 0.929 . S
H905 C935 0.931 . S
H906 C927 0.929 . S
H907 C936 0.930 . S
H908 C928 0.931 . S
O909 Co885 2.097 1_565 S
O909 C937 1.214 . S
H910 C938 0.929 . S
H911 C939 0.929 . S
H912 C940 0.930 . S
H913 C941 0.929 . S
H914 C943 0.930 . S
H915 C920 0.930 . S
H916 C924 0.930 . S
O917 Co886 2.037 . S
O917 C937 1.234 . S
C918 O892 1.269 . S
C918 O893 1.257 1_565 S
C919 H894 0.930 . S
C919 C922 1.388 . S
C919 C924 1.418 . S
C920 H915 0.930 . S
C920 C923 1.404 . S
C920 C924 1.353 . S
N921 Co886 2.145 . S
N921 C922 1.397 . S
N921 C923 1.334 . S
C922 H903 0.929 . S
C922 C919 1.388 . S
C922 N921 1.397 . S
C923 H904 0.929 . S
C923 C920 1.404 . S
C923 N921 1.334 . S
C924 H916 0.930 . S
C924 C919 1.418 . S
C924 C920 1.353 . S
C925 H895 0.930 . S
C925 N926 1.330 . S
C925 C927 1.446 . S
N926 Co885 2.151 . S
N926 C925 1.330 . S
N926 C930 1.418 . S
C927 H906 0.929 . S
C927 C925 1.446 . S
C927 C928 1.332 . S
C928 H908 0.931 . S
C928 C927 1.332 . S
C928 C929 1.267 . S
C929 H897 0.929 . S
C929 C928 1.267 . S
C929 C930 1.251 . S
C930 H900 0.929 . S
C930 N926 1.418 . S
C930 C929 1.251 . S
C931 H898 0.930 . S
C931 C933 1.406 . S
C931 C936 1.261 . S
C932 H899 0.930 . S
C932 N934 1.325 . S
C932 C935 1.357 . S
C933 H901 0.928 . S
C933 C931 1.406 . S
C933 N934 1.261 . S
N934 Co885 2.214 . S
N934 C932 1.325 . S
N934 C933 1.261 . S
C935 H905 0.931 . S
C935 C932 1.357 . S
C935 C936 1.312 . S
C936 H907 0.930 . S
C936 C931 1.261 . S
C936 C935 1.312 . S
C937 O909 1.214 . S
C937 O917 1.234 . S
C938 H910 0.929 . S
C938 C941 1.391 . S
C938 C943 1.391 . S
C939 H911 0.929 . S
C939 C940 1.390 . S
C939 N942 1.391 . S
C940 H912 0.930 . S
C940 C939 1.390 . S
C940 C941 1.392 . S
C941 H913 0.929 . S
C941 C938 1.391 . S
C941 C940 1.392 . S
N942 Co886 2.257 . S
N942 C939 1.391 . S
N942 C943 1.388 . S
C943 H914 0.930 . S
C943 C938 1.391 . S
C943 N942 1.388 . S
Co944 O946 2.143 . S
Co944 O952 2.074 . S
Co944 O955 2.093 . S
Co944 O968 2.097 . S
Co944 N985 2.151 . S
Co944 N993 2.214 . S
Co945 O946 2.160 . S
Co945 O951 2.058 . S
Co945 O961 2.057 . S
Co945 O976 2.037 . S
Co945 N980 2.145 . S
Co945 N1001 2.257 . S
O946 Co944 2.143 . S
O946 Co945 2.160 . S
C947 O948 1.278 . S
C947 O955 1.224 . S
O948 C947 1.278 . S
C949 O950 1.245 . S
C949 O961 1.232 . S
O950 C949 1.245 . S
O951 Co945 2.058 . S
O951 C977 1.269 . S
O952 Co944 2.074 . S
O952 C977 1.257 . S
H953 C978 0.930 . S
H954 C984 0.930 . S
O955 Co944 2.093 . S
O955 C947 1.224 . S
H956 C988 0.929 . S
H957 C990 0.930 . S
H958 C991 0.930 . S
H959 C989 0.929 . S
H960 C992 0.928 . S
O961 Co945 2.057 . S
O961 C949 1.232 . S
H962 C981 0.929 . S
H963 C982 0.929 . S
H964 C994 0.931 . S
H965 C986 0.929 . S
H966 C995 0.930 . S
H967 C987 0.931 . S
O968 Co944 2.097 . S
O968 C996 1.214 . S
H969 C997 0.929 . S
H970 C998 0.929 . S
H971 C999 0.930 . S
H972 C1000 0.929 . S
H973 C1002 0.930 . S
H974 C979 0.930 . S
H975 C983 0.930 . S
O976 Co945 2.037 . S
O976 C996 1.234 . S
C977 O951 1.269 . S
C977 O952 1.257 . S
C978 H953 0.930 . S
C978 C981 1.388 . S
C978 C983 1.418 . S
C979 H974 0.930 . S
C979 C982 1.404 . S
C979 C983 1.353 . S
N980 Co945 2.145 . S
N980 C981 1.397 . S
N980 C982 1.334 . S
C981 H962 0.929 . S
C981 C978 1.388 . S
C981 N980 1.397 . S
C982 H963 0.929 . S
C982 C979 1.404 . S
C982 N980 1.334 . S
C983 H975 0.930 . S
C983 C978 1.418 . S
C983 C979 1.353 . S
C984 H954 0.930 . S
C984 N985 1.330 . S
C984 C986 1.446 . S
N985 Co944 2.151 . S
N985 C984 1.330 . S
N985 C989 1.418 . S
C986 H965 0.929 . S
C986 C984 1.446 . S
C986 C987 1.332 . S
C987 H967 0.931 . S
C987 C986 1.332 . S
C987 C988 1.267 . S
C988 H956 0.929 . S
C988 C987 1.267 . S
C988 C989 1.251 . S
C989 H959 0.929 . S
C989 N985 1.418 . S
C989 C988 1.251 . S
C990 H957 0.930 . S
C990 C992 1.406 . S
C990 C995 1.261 . S
C991 H958 0.930 . S
C991 N993 1.325 . S
C991 C994 1.357 . S
C992 H960 0.928 . S
C992 C990 1.406 . S
C992 N993 1.261 . S
N993 Co944 2.214 . S
N993 C991 1.325 . S
N993 C992 1.261 . S
C994 H964 0.931 . S
C994 C991 1.357 . S
C994 C995 1.312 . S
C995 H966 0.930 . S
C995 C990 1.261 . S
C995 C994 1.312 . S
C996 O968 1.214 . S
C996 O976 1.234 . S
C997 H969 0.929 . S
C997 C1000 1.391 . S
C997 C1002 1.391 . S
C998 H970 0.929 . S
C998 C999 1.390 . S
C998 N1001 1.391 . S
C999 H971 0.930 . S
C999 C998 1.390 . S
C999 C1000 1.392 . S
C1000 H972 0.929 . S
C1000 C997 1.391 . S
C1000 C999 1.392 . S
N1001 Co945 2.257 . S
N1001 C998 1.391 . S
N1001 C1002 1.388 . S
C1002 H973 0.930 . S
C1002 C997 1.391 . S
C1002 N1001 1.388 . S
Co1003 O1005 2.143 . S
Co1003 O1011 2.074 . S
Co1003 O1014 2.093 . S
Co1003 O1027 2.097 . S
Co1003 N1044 2.151 . S
Co1003 N1052 2.214 . S
Co1004 O1005 2.160 . S
Co1004 O1010 2.058 . S
Co1004 O1020 2.057 . S
Co1004 O1035 2.037 . S
Co1004 N1039 2.145 . S
Co1004 N1060 2.257 . S
O1005 Co1003 2.143 . S
O1005 Co1004 2.160 . S
C1006 O1007 1.278 . S
C1006 O1014 1.224 . S
O1007 C1006 1.278 . S
C1008 O1009 1.245 . S
C1008 O1020 1.232 . S
O1009 C1008 1.245 . S
O1010 Co1004 2.058 . S
O1010 C1036 1.269 . S
O1011 Co1003 2.074 . S
O1011 C1036 1.257 . S
H1012 C1037 0.930 . S
H1013 C1043 0.930 . S
O1014 Co1003 2.093 . S
O1014 C1006 1.224 . S
H1015 C1047 0.929 . S
H1016 C1049 0.930 . S
H1017 C1050 0.930 . S
H1018 C1048 0.929 . S
H1019 C1051 0.928 . S
O1020 Co1004 2.057 . S
O1020 C1008 1.232 . S
H1021 C1040 0.929 . S
H1022 C1041 0.929 . S
H1023 C1053 0.931 . S
H1024 C1045 0.929 . S
H1025 C1054 0.930 . S
H1026 C1046 0.931 . S
O1027 Co1003 2.097 . S
O1027 C1055 1.214 . S
H1028 C1056 0.929 . S
H1029 C1057 0.929 . S
H1030 C1058 0.930 . S
H1031 C1059 0.929 . S
H1032 C1061 0.930 . S
H1033 C1038 0.930 . S
H1034 C1042 0.930 . S
O1035 Co1004 2.037 . S
O1035 C1055 1.234 . S
C1036 O1010 1.269 . S
C1036 O1011 1.257 . S
C1037 H1012 0.930 . S
C1037 C1040 1.388 . S
C1037 C1042 1.418 . S
C1038 H1033 0.930 . S
C1038 C1041 1.404 . S
C1038 C1042 1.353 . S
N1039 Co1004 2.145 . S
N1039 C1040 1.397 . S
N1039 C1041 1.334 . S
C1040 H1021 0.929 . S
C1040 C1037 1.388 . S
C1040 N1039 1.397 . S
C1041 H1022 0.929 . S
C1041 C1038 1.404 . S
C1041 N1039 1.334 . S
C1042 H1034 0.930 . S
C1042 C1037 1.418 . S
C1042 C1038 1.353 . S
C1043 H1013 0.930 . S
C1043 N1044 1.330 . S
C1043 C1045 1.446 . S
N1044 Co1003 2.151 . S
N1044 C1043 1.330 . S
N1044 C1048 1.418 . S
C1045 H1024 0.929 . S
C1045 C1043 1.446 . S
C1045 C1046 1.332 . S
C1046 H1026 0.931 . S
C1046 C1045 1.332 . S
C1046 C1047 1.267 . S
C1047 H1015 0.929 . S
C1047 C1046 1.267 . S
C1047 C1048 1.251 . S
C1048 H1018 0.929 . S
C1048 N1044 1.418 . S
C1048 C1047 1.251 . S
C1049 H1016 0.930 . S
C1049 C1051 1.406 . S
C1049 C1054 1.261 . S
C1050 H1017 0.930 . S
C1050 N1052 1.325 . S
C1050 C1053 1.357 . S
C1051 H1019 0.928 . S
C1051 C1049 1.406 . S
C1051 N1052 1.261 . S
N1052 Co1003 2.214 . S
N1052 C1050 1.325 . S
N1052 C1051 1.261 . S
C1053 H1023 0.931 . S
C1053 C1050 1.357 . S
C1053 C1054 1.312 . S
C1054 H1025 0.930 . S
C1054 C1049 1.261 . S
C1054 C1053 1.312 . S
C1055 O1027 1.214 . S
C1055 O1035 1.234 . S
C1056 H1028 0.929 . S
C1056 C1059 1.391 . S
C1056 C1061 1.391 . S
C1057 H1029 0.929 . S
C1057 C1058 1.390 . S
C1057 N1060 1.391 . S
C1058 H1030 0.930 . S
C1058 C1057 1.390 . S
C1058 C1059 1.392 . S
C1059 H1031 0.929 . S
C1059 C1056 1.391 . S
C1059 C1058 1.392 . S
N1060 Co1004 2.257 . S
N1060 C1057 1.391 . S
N1060 C1061 1.388 . S
C1061 H1032 0.930 . S
C1061 C1056 1.391 . S
C1061 N1060 1.388 . S
Co1062 O1064 2.143 . S
Co1062 O1070 2.074 . S
Co1062 O1073 2.093 . S
Co1062 O1086 2.097 . S
Co1062 N1103 2.151 . S
Co1062 N1111 2.214 . S
Co1063 O1064 2.160 . S
Co1063 O1069 2.058 1_554 S
Co1063 O1079 2.057 . S
Co1063 O1094 2.037 . S
Co1063 N1098 2.145 1_554 S
Co1063 N1119 2.257 . S
O1064 Co1062 2.143 . S
O1064 Co1063 2.160 . S
C1065 O1066 1.278 . S
C1065 O1073 1.224 . S
O1066 C1065 1.278 . S
C1067 O1068 1.245 . S
C1067 O1079 1.232 . S
O1068 C1067 1.245 . S
O1069 Co1063 2.058 1_556 S
O1069 C1095 1.269 . S
O1070 Co1062 2.074 . S
O1070 C1095 1.257 1_554 S
H1071 C1096 0.930 . S
H1072 C1102 0.930 . S
O1073 Co1062 2.093 . S
O1073 C1065 1.224 . S
H1074 C1106 0.929 . S
H1075 C1108 0.930 . S
H1076 C1109 0.930 . S
H1077 C1107 0.929 . S
H1078 C1110 0.928 . S
O1079 Co1063 2.057 . S
O1079 C1067 1.232 . S
H1080 C1099 0.929 . S
H1081 C1100 0.929 . S
H1082 C1112 0.931 . S
H1083 C1104 0.929 . S
H1084 C1113 0.930 . S
H1085 C1105 0.931 . S
O1086 Co1062 2.097 . S
O1086 C1114 1.214 . S
H1087 C1115 0.929 . S
H1088 C1116 0.929 . S
H1089 C1117 0.930 . S
H1090 C1118 0.929 . S
H1091 C1120 0.930 . S
H1092 C1097 0.930 . S
H1093 C1101 0.930 . S
O1094 Co1063 2.037 . S
O1094 C1114 1.234 . S
C1095 O1069 1.269 . S
C1095 O1070 1.257 1_556 S
C1096 H1071 0.930 . S
C1096 C1099 1.388 . S
C1096 C1101 1.418 . S
C1097 H1092 0.930 . S
C1097 C1100 1.404 . S
C1097 C1101 1.353 . S
N1098 Co1063 2.145 1_556 S
N1098 C1099 1.397 . S
N1098 C1100 1.334 . S
C1099 H1080 0.929 . S
C1099 C1096 1.388 . S
C1099 N1098 1.397 . S
C1100 H1081 0.929 . S
C1100 C1097 1.404 . S
C1100 N1098 1.334 . S
C1101 H1093 0.930 . S
C1101 C1096 1.418 . S
C1101 C1097 1.353 . S
C1102 H1072 0.930 . S
C1102 N1103 1.330 . S
C1102 C1104 1.446 . S
N1103 Co1062 2.151 . S
N1103 C1102 1.330 . S
N1103 C1107 1.418 . S
C1104 H1083 0.929 . S
C1104 C1102 1.446 . S
C1104 C1105 1.332 . S
C1105 H1085 0.931 . S
C1105 C1104 1.332 . S
C1105 C1106 1.267 . S
C1106 H1074 0.929 . S
C1106 C1105 1.267 . S
C1106 C1107 1.251 . S
C1107 H1077 0.929 . S
C1107 N1103 1.418 . S
C1107 C1106 1.251 . S
C1108 H1075 0.930 . S
C1108 C1110 1.406 . S
C1108 C1113 1.261 . S
C1109 H1076 0.930 . S
C1109 N1111 1.325 . S
C1109 C1112 1.357 . S
C1110 H1078 0.928 . S
C1110 C1108 1.406 . S
C1110 N1111 1.261 . S
N1111 Co1062 2.214 . S
N1111 C1109 1.325 . S
N1111 C1110 1.261 . S
C1112 H1082 0.931 . S
C1112 C1109 1.357 . S
C1112 C1113 1.312 . S
C1113 H1084 0.930 . S
C1113 C1108 1.261 . S
C1113 C1112 1.312 . S
C1114 O1086 1.214 . S
C1114 O1094 1.234 . S
C1115 H1087 0.929 . S
C1115 C1118 1.391 . S
C1115 C1120 1.391 . S
C1116 H1088 0.929 . S
C1116 C1117 1.390 . S
C1116 N1119 1.391 . S
C1117 H1089 0.930 . S
C1117 C1116 1.390 . S
C1117 C1118 1.392 . S
C1118 H1090 0.929 . S
C1118 C1115 1.391 . S
C1118 C1117 1.392 . S
N1119 Co1063 2.257 . S
N1119 C1116 1.391 . S
N1119 C1120 1.388 . S
C1120 H1091 0.930 . S
C1120 C1115 1.391 . S
C1120 N1119 1.388 . S
Co1121 O1123 2.143 . S
Co1121 O1129 2.074 . S
Co1121 O1132 2.093 . S
Co1121 O1145 2.097 . S
Co1121 N1162 2.151 . S
Co1121 N1170 2.214 . S
Co1122 O1123 2.160 . S
Co1122 O1128 2.058 . S
Co1122 O1138 2.057 . S
Co1122 O1153 2.037 . S
Co1122 N1157 2.145 . S
Co1122 N1178 2.257 . S
O1123 Co1121 2.143 . S
O1123 Co1122 2.160 . S
C1124 O1125 1.278 . S
C1124 O1132 1.224 . S
O1125 C1124 1.278 . S
C1126 O1127 1.245 . S
C1126 O1138 1.232 . S
O1127 C1126 1.245 . S
O1128 Co1122 2.058 . S
O1128 C1154 1.269 . S
O1129 Co1121 2.074 . S
O1129 C1154 1.257 . S
H1130 C1155 0.930 . S
H1131 C1161 0.930 . S
O1132 Co1121 2.093 . S
O1132 C1124 1.224 . S
H1133 C1165 0.929 . S
H1134 C1167 0.930 . S
H1135 C1168 0.930 . S
H1136 C1166 0.929 . S
H1137 C1169 0.928 . S
O1138 Co1122 2.057 . S
O1138 C1126 1.232 . S
H1139 C1158 0.929 . S
H1140 C1159 0.929 . S
H1141 C1171 0.931 . S
H1142 C1163 0.929 . S
H1143 C1172 0.930 . S
H1144 C1164 0.931 . S
O1145 Co1121 2.097 . S
O1145 C1173 1.214 . S
H1146 C1174 0.929 . S
H1147 C1175 0.929 . S
H1148 C1176 0.930 . S
H1149 C1177 0.929 . S
H1150 C1179 0.930 . S
H1151 C1156 0.930 . S
H1152 C1160 0.930 . S
O1153 Co1122 2.037 . S
O1153 C1173 1.234 . S
C1154 O1128 1.269 . S
C1154 O1129 1.257 . S
C1155 H1130 0.930 . S
C1155 C1158 1.388 . S
C1155 C1160 1.418 . S
C1156 H1151 0.930 . S
C1156 C1159 1.404 . S
C1156 C1160 1.353 . S
N1157 Co1122 2.145 . S
N1157 C1158 1.397 . S
N1157 C1159 1.334 . S
C1158 H1139 0.929 . S
C1158 C1155 1.388 . S
C1158 N1157 1.397 . S
C1159 H1140 0.929 . S
C1159 C1156 1.404 . S
C1159 N1157 1.334 . S
C1160 H1152 0.930 . S
C1160 C1155 1.418 . S
C1160 C1156 1.353 . S
C1161 H1131 0.930 . S
C1161 N1162 1.330 . S
C1161 C1163 1.446 . S
N1162 Co1121 2.151 . S
N1162 C1161 1.330 . S
N1162 C1166 1.418 . S
C1163 H1142 0.929 . S
C1163 C1161 1.446 . S
C1163 C1164 1.332 . S
C1164 H1144 0.931 . S
C1164 C1163 1.332 . S
C1164 C1165 1.267 . S
C1165 H1133 0.929 . S
C1165 C1164 1.267 . S
C1165 C1166 1.251 . S
C1166 H1136 0.929 . S
C1166 N1162 1.418 . S
C1166 C1165 1.251 . S
C1167 H1134 0.930 . S
C1167 C1169 1.406 . S
C1167 C1172 1.261 . S
C1168 H1135 0.930 . S
C1168 N1170 1.325 . S
C1168 C1171 1.357 . S
C1169 H1137 0.928 . S
C1169 C1167 1.406 . S
C1169 N1170 1.261 . S
N1170 Co1121 2.214 . S
N1170 C1168 1.325 . S
N1170 C1169 1.261 . S
C1171 H1141 0.931 . S
C1171 C1168 1.357 . S
C1171 C1172 1.312 . S
C1172 H1143 0.930 . S
C1172 C1167 1.261 . S
C1172 C1171 1.312 . S
C1173 O1145 1.214 . S
C1173 O1153 1.234 . S
C1174 H1146 0.929 . S
C1174 C1177 1.391 . S
C1174 C1179 1.391 . S
C1175 H1147 0.929 . S
C1175 C1176 1.390 . S
C1175 N1178 1.391 . S
C1176 H1148 0.930 . S
C1176 C1175 1.390 . S
C1176 C1177 1.392 . S
C1177 H1149 0.929 . S
C1177 C1174 1.391 . S
C1177 C1176 1.392 . S
N1178 Co1122 2.257 . S
N1178 C1175 1.391 . S
N1178 C1179 1.388 . S
C1179 H1150 0.930 . S
C1179 C1174 1.391 . S
C1179 N1178 1.388 . S
Co1180 O1182 2.143 . S
Co1180 O1188 2.074 . S
Co1180 O1191 2.093 . S
Co1180 O1204 2.097 . S
Co1180 N1221 2.151 . S
Co1180 N1229 2.214 . S
Co1181 O1182 2.160 . S
Co1181 O1187 2.058 . S
Co1181 O1197 2.057 . S
Co1181 O1212 2.037 . S
Co1181 N1216 2.145 . S
Co1181 N1237 2.257 . S
O1182 Co1180 2.143 . S
O1182 Co1181 2.160 . S
C1183 O1184 1.278 . S
C1183 O1191 1.224 . S
O1184 C1183 1.278 . S
C1185 O1186 1.245 . S
C1185 O1197 1.232 . S
O1186 C1185 1.245 . S
O1187 Co1181 2.058 . S
O1187 C1213 1.269 . S
O1188 Co1180 2.074 . S
O1188 C1213 1.257 . S
H1189 C1214 0.930 . S
H1190 C1220 0.930 . S
O1191 Co1180 2.093 . S
O1191 C1183 1.224 . S
H1192 C1224 0.929 . S
H1193 C1226 0.930 . S
H1194 C1227 0.930 . S
H1195 C1225 0.929 . S
H1196 C1228 0.928 . S
O1197 Co1181 2.057 . S
O1197 C1185 1.232 . S
H1198 C1217 0.929 . S
H1199 C1218 0.929 . S
H1200 C1230 0.931 . S
H1201 C1222 0.929 . S
H1202 C1231 0.930 . S
H1203 C1223 0.931 . S
O1204 Co1180 2.097 . S
O1204 C1232 1.214 . S
H1205 C1233 0.929 . S
H1206 C1234 0.929 . S
H1207 C1235 0.930 . S
H1208 C1236 0.929 . S
H1209 C1238 0.930 . S
H1210 C1215 0.930 . S
H1211 C1219 0.930 . S
O1212 Co1181 2.037 . S
O1212 C1232 1.234 . S
C1213 O1187 1.269 . S
C1213 O1188 1.257 . S
C1214 H1189 0.930 . S
C1214 C1217 1.388 . S
C1214 C1219 1.418 . S
C1215 H1210 0.930 . S
C1215 C1218 1.404 . S
C1215 C1219 1.353 . S
N1216 Co1181 2.145 . S
N1216 C1217 1.397 . S
N1216 C1218 1.334 . S
C1217 H1198 0.929 . S
C1217 C1214 1.388 . S
C1217 N1216 1.397 . S
C1218 H1199 0.929 . S
C1218 C1215 1.404 . S
C1218 N1216 1.334 . S
C1219 H1211 0.930 . S
C1219 C1214 1.418 . S
C1219 C1215 1.353 . S
C1220 H1190 0.930 . S
C1220 N1221 1.330 . S
C1220 C1222 1.446 . S
N1221 Co1180 2.151 . S
N1221 C1220 1.330 . S
N1221 C1225 1.418 . S
C1222 H1201 0.929 . S
C1222 C1220 1.446 . S
C1222 C1223 1.332 . S
C1223 H1203 0.931 . S
C1223 C1222 1.332 . S
C1223 C1224 1.267 . S
C1224 H1192 0.929 . S
C1224 C1223 1.267 . S
C1224 C1225 1.251 . S
C1225 H1195 0.929 . S
C1225 N1221 1.418 . S
C1225 C1224 1.251 . S
C1226 H1193 0.930 . S
C1226 C1228 1.406 . S
C1226 C1231 1.261 . S
C1227 H1194 0.930 . S
C1227 N1229 1.325 . S
C1227 C1230 1.357 . S
C1228 H1196 0.928 . S
C1228 C1226 1.406 . S
C1228 N1229 1.261 . S
N1229 Co1180 2.214 . S
N1229 C1227 1.325 . S
N1229 C1228 1.261 . S
C1230 H1200 0.931 . S
C1230 C1227 1.357 . S
C1230 C1231 1.312 . S
C1231 H1202 0.930 . S
C1231 C1226 1.261 . S
C1231 C1230 1.312 . S
C1232 O1204 1.214 . S
C1232 O1212 1.234 . S
C1233 H1205 0.929 . S
C1233 C1236 1.391 . S
C1233 C1238 1.391 . S
C1234 H1206 0.929 . S
C1234 C1235 1.390 . S
C1234 N1237 1.391 . S
C1235 H1207 0.930 . S
C1235 C1234 1.390 . S
C1235 C1236 1.392 . S
C1236 H1208 0.929 . S
C1236 C1233 1.391 . S
C1236 C1235 1.392 . S
N1237 Co1181 2.257 . S
N1237 C1234 1.391 . S
N1237 C1238 1.388 . S
C1238 H1209 0.930 . S
C1238 C1233 1.391 . S
C1238 N1237 1.388 . S
Co1239 O1241 2.143 . S
Co1239 O1247 2.074 . S
Co1239 O1250 2.093 . S
Co1239 O1263 2.097 . S
Co1239 N1280 2.151 . S
Co1239 N1288 2.214 . S
Co1240 O1241 2.160 . S
Co1240 O1246 2.058 . S
Co1240 O1256 2.057 . S
Co1240 O1271 2.037 . S
Co1240 N1275 2.145 . S
Co1240 N1296 2.257 . S
O1241 Co1239 2.143 . S
O1241 Co1240 2.160 . S
C1242 O1243 1.278 . S
C1242 O1250 1.224 . S
O1243 C1242 1.278 . S
C1244 O1245 1.245 . S
C1244 O1256 1.232 . S
O1245 C1244 1.245 . S
O1246 Co1240 2.058 . S
O1246 C1272 1.269 . S
O1247 Co1239 2.074 . S
O1247 C1272 1.257 . S
H1248 C1273 0.930 . S
H1249 C1279 0.930 . S
O1250 Co1239 2.093 . S
O1250 C1242 1.224 . S
H1251 C1283 0.929 . S
H1252 C1285 0.930 . S
H1253 C1286 0.930 . S
H1254 C1284 0.929 . S
H1255 C1287 0.928 . S
O1256 Co1240 2.057 . S
O1256 C1244 1.232 . S
H1257 C1276 0.932 . S
H1258 C1277 0.929 . S
H1259 C1289 0.931 . S
H1260 C1281 0.929 . S
H1261 C1290 0.930 . S
H1262 C1282 0.931 . S
O1263 Co1239 2.097 . S
O1263 C1291 1.214 . S
H1264 C1292 0.929 . S
H1265 C1293 0.929 . S
H1266 C1294 0.930 . S
H1267 C1295 0.929 . S
H1268 C1297 0.930 . S
H1269 C1274 0.930 . S
H1270 C1278 0.930 . S
O1271 Co1240 2.037 . S
O1271 C1291 1.234 . S
C1272 O1246 1.269 . S
C1272 O1247 1.257 . S
C1273 H1248 0.930 . S
C1273 C1276 1.388 . S
C1273 C1278 1.418 . S
C1274 H1269 0.930 . S
C1274 C1277 1.404 1_554 S
C1274 C1278 1.353 . S
N1275 Co1240 2.145 . S
N1275 C1276 1.397 1_556 S
N1275 C1277 1.334 . S
C1276 H1257 0.932 . S
C1276 C1273 1.388 . S
C1276 N1275 1.397 1_554 S
C1277 H1258 0.929 . S
C1277 C1274 1.404 1_556 S
C1277 N1275 1.334 . S
C1278 H1270 0.930 . S
C1278 C1273 1.418 . S
C1278 C1274 1.353 . S
C1279 H1249 0.930 . S
C1279 N1280 1.330 . S
C1279 C1281 1.446 . S
N1280 Co1239 2.151 . S
N1280 C1279 1.330 . S
N1280 C1284 1.418 . S
C1281 H1260 0.929 . S
C1281 C1279 1.446 . S
C1281 C1282 1.332 . S
C1282 H1262 0.931 . S
C1282 C1281 1.332 . S
C1282 C1283 1.267 . S
C1283 H1251 0.929 . S
C1283 C1282 1.267 . S
C1283 C1284 1.251 . S
C1284 H1254 0.929 . S
C1284 N1280 1.418 . S
C1284 C1283 1.251 . S
C1285 H1252 0.930 . S
C1285 C1287 1.406 . S
C1285 C1290 1.261 . S
C1286 H1253 0.930 . S
C1286 N1288 1.325 . S
C1286 C1289 1.357 . S
C1287 H1255 0.928 . S
C1287 C1285 1.406 . S
C1287 N1288 1.261 . S
N1288 Co1239 2.214 . S
N1288 C1286 1.325 . S
N1288 C1287 1.261 . S
C1289 H1259 0.931 . S
C1289 C1286 1.357 . S
C1289 C1290 1.312 . S
C1290 H1261 0.930 . S
C1290 C1285 1.261 . S
C1290 C1289 1.312 . S
C1291 O1263 1.214 . S
C1291 O1271 1.234 . S
C1292 H1264 0.929 . S
C1292 C1295 1.391 . S
C1292 C1297 1.391 . S
C1293 H1265 0.929 . S
C1293 C1294 1.390 . S
C1293 N1296 1.391 . S
C1294 H1266 0.930 . S
C1294 C1293 1.390 . S
C1294 C1295 1.392 . S
C1295 H1267 0.929 . S
C1295 C1292 1.391 . S
C1295 C1294 1.392 . S
N1296 Co1240 2.257 . S
N1296 C1293 1.391 . S
N1296 C1297 1.388 . S
C1297 H1268 0.930 . S
C1297 C1292 1.391 . S
C1297 N1296 1.388 . S
Co1298 O1300 2.143 . S
Co1298 O1306 2.074 . S
Co1298 O1309 2.093 . S
Co1298 O1322 2.097 . S
Co1298 N1339 2.151 . S
Co1298 N1347 2.214 . S
Co1299 O1300 2.160 . S
Co1299 O1305 2.058 . S
Co1299 O1315 2.057 . S
Co1299 O1330 2.037 . S
Co1299 N1334 2.145 . S
Co1299 N1355 2.257 . S
O1300 Co1298 2.143 . S
O1300 Co1299 2.160 . S
C1301 O1302 1.278 . S
C1301 O1309 1.224 . S
O1302 C1301 1.278 . S
C1303 O1304 1.245 . S
C1303 O1315 1.232 . S
O1304 C1303 1.245 . S
O1305 Co1299 2.058 . S
O1305 C1331 1.269 . S
O1306 Co1298 2.074 . S
O1306 C1331 1.257 . S
H1307 C1332 0.930 . S
H1308 C1338 0.930 . S
O1309 Co1298 2.093 . S
O1309 C1301 1.224 . S
H1310 C1342 0.929 . S
H1311 C1344 0.930 . S
H1312 C1345 0.930 . S
H1313 C1343 0.929 . S
H1314 C1346 0.928 . S
O1315 Co1299 2.057 . S
O1315 C1303 1.232 . S
H1316 C1335 0.929 . S
H1317 C1336 0.929 . S
H1318 C1348 0.931 . S
H1319 C1340 0.929 . S
H1320 C1349 0.930 . S
H1321 C1341 0.931 . S
O1322 Co1298 2.097 . S
O1322 C1350 1.214 . S
H1323 C1351 0.929 . S
H1324 C1352 0.929 . S
H1325 C1353 0.930 . S
H1326 C1354 0.929 1_556 S
H1327 C1356 0.930 . S
H1328 C1333 0.930 . S
H1329 C1337 0.930 . S
O1330 Co1299 2.037 . S
O1330 C1350 1.234 . S
C1331 O1305 1.269 . S
C1331 O1306 1.257 . S
C1332 H1307 0.930 . S
C1332 C1335 1.388 . S
C1332 C1337 1.418 . S
C1333 H1328 0.930 . S
C1333 C1336 1.404 . S
C1333 C1337 1.353 . S
N1334 Co1299 2.145 . S
N1334 C1335 1.397 . S
N1334 C1336 1.334 . S
C1335 H1316 0.929 . S
C1335 C1332 1.388 . S
C1335 N1334 1.397 . S
C1336 H1317 0.929 . S
C1336 C1333 1.404 . S
C1336 N1334 1.334 . S
C1337 H1329 0.930 . S
C1337 C1332 1.418 . S
C1337 C1333 1.353 . S
C1338 H1308 0.930 . S
C1338 N1339 1.330 . S
C1338 C1340 1.446 . S
N1339 Co1298 2.151 . S
N1339 C1338 1.330 . S
N1339 C1343 1.418 . S
C1340 H1319 0.929 . S
C1340 C1338 1.446 . S
C1340 C1341 1.332 . S
C1341 H1321 0.931 . S
C1341 C1340 1.332 . S
C1341 C1342 1.267 . S
C1342 H1310 0.929 . S
C1342 C1341 1.267 . S
C1342 C1343 1.251 . S
C1343 H1313 0.929 . S
C1343 N1339 1.418 . S
C1343 C1342 1.251 . S
C1344 H1311 0.930 . S
C1344 C1346 1.406 . S
C1344 C1349 1.261 . S
C1345 H1312 0.930 . S
C1345 N1347 1.325 . S
C1345 C1348 1.357 . S
C1346 H1314 0.928 . S
C1346 C1344 1.406 . S
C1346 N1347 1.261 . S
N1347 Co1298 2.214 . S
N1347 C1345 1.325 . S
N1347 C1346 1.261 . S
C1348 H1318 0.931 . S
C1348 C1345 1.357 . S
C1348 C1349 1.312 . S
C1349 H1320 0.930 . S
C1349 C1344 1.261 . S
C1349 C1348 1.312 . S
C1350 O1322 1.214 . S
C1350 O1330 1.234 . S
C1351 H1323 0.929 . S
C1351 C1354 1.391 . S
C1351 C1356 1.391 . S
C1352 H1324 0.929 . S
C1352 C1353 1.390 . S
C1352 N1355 1.391 . S
C1353 H1325 0.930 . S
C1353 C1352 1.390 . S
C1353 C1354 1.392 . S
C1354 H1326 0.929 1_554 S
C1354 C1351 1.391 . S
C1354 C1353 1.392 . S
N1355 Co1299 2.257 . S
N1355 C1352 1.391 . S
N1355 C1356 1.388 . S
C1356 H1327 0.930 . S
C1356 C1351 1.391 . S
C1356 N1355 1.388 . S
Co1357 O1359 2.143 . S
Co1357 O1365 2.074 . S
Co1357 O1368 2.093 . S
Co1357 O1381 2.097 . S
Co1357 N1398 2.151 . S
Co1357 N1406 2.214 . S
Co1358 O1359 2.160 . S
Co1358 O1364 2.058 . S
Co1358 O1374 2.057 . S
Co1358 O1389 2.037 . S
Co1358 N1393 2.145 . S
Co1358 N1414 2.257 . S
O1359 Co1357 2.143 . S
O1359 Co1358 2.160 . S
C1360 O1361 1.278 . S
C1360 O1368 1.224 . S
O1361 C1360 1.278 . S
C1362 O1363 1.245 . S
C1362 O1374 1.232 . S
O1363 C1362 1.245 . S
O1364 Co1358 2.058 . S
O1364 C1390 1.269 . S
O1365 Co1357 2.074 . S
O1365 C1390 1.257 . S
H1366 C1391 0.930 . S
H1367 C1397 0.930 . S
O1368 Co1357 2.093 . S
O1368 C1360 1.224 . S
H1369 C1401 0.929 . S
H1370 C1403 0.930 . S
H1371 C1404 0.930 . S
H1372 C1402 0.929 . S
H1373 C1405 0.928 . S
O1374 Co1358 2.057 . S
O1374 C1362 1.232 . S
H1375 C1394 0.929 . S
H1376 C1395 0.929 . S
H1377 C1407 0.931 . S
H1378 C1399 0.929 . S
H1379 C1408 0.930 . S
H1380 C1400 0.931 . S
O1381 Co1357 2.097 . S
O1381 C1409 1.214 . S
H1382 C1410 0.929 . S
H1383 C1411 0.929 . S
H1384 C1412 0.930 . S
H1385 C1413 0.929 . S
H1386 C1415 0.930 . S
H1387 C1392 0.930 . S
H1388 C1396 0.930 . S
O1389 Co1358 2.037 . S
O1389 C1409 1.234 . S
C1390 O1364 1.269 . S
C1390 O1365 1.257 . S
C1391 H1366 0.930 . S
C1391 C1394 1.388 . S
C1391 C1396 1.418 . S
C1392 H1387 0.930 . S
C1392 C1395 1.404 . S
C1392 C1396 1.353 . S
N1393 Co1358 2.145 . S
N1393 C1394 1.397 . S
N1393 C1395 1.334 . S
C1394 H1375 0.929 . S
C1394 C1391 1.388 . S
C1394 N1393 1.397 . S
C1395 H1376 0.929 . S
C1395 C1392 1.404 . S
C1395 N1393 1.334 . S
C1396 H1388 0.930 . S
C1396 C1391 1.418 . S
C1396 C1392 1.353 . S
C1397 H1367 0.930 . S
C1397 N1398 1.330 . S
C1397 C1399 1.446 . S
N1398 Co1357 2.151 . S
N1398 C1397 1.330 . S
N1398 C1402 1.418 . S
C1399 H1378 0.929 . S
C1399 C1397 1.446 . S
C1399 C1400 1.332 . S
C1400 H1380 0.931 . S
C1400 C1399 1.332 . S
C1400 C1401 1.267 . S
C1401 H1369 0.929 . S
C1401 C1400 1.267 . S
C1401 C1402 1.251 . S
C1402 H1372 0.929 . S
C1402 N1398 1.418 . S
C1402 C1401 1.251 . S
C1403 H1370 0.930 . S
C1403 C1405 1.406 . S
C1403 C1408 1.261 . S
C1404 H1371 0.930 . S
C1404 N1406 1.325 . S
C1404 C1407 1.357 . S
C1405 H1373 0.928 . S
C1405 C1403 1.406 . S
C1405 N1406 1.261 . S
N1406 Co1357 2.214 . S
N1406 C1404 1.325 . S
N1406 C1405 1.261 . S
C1407 H1377 0.931 . S
C1407 C1404 1.357 . S
C1407 C1408 1.312 . S
C1408 H1379 0.930 . S
C1408 C1403 1.261 . S
C1408 C1407 1.312 . S
C1409 O1381 1.214 . S
C1409 O1389 1.234 . S
C1410 H1382 0.929 . S
C1410 C1413 1.391 . S
C1410 C1415 1.391 . S
C1411 H1383 0.929 . S
C1411 C1412 1.390 . S
C1411 N1414 1.391 . S
C1412 H1384 0.930 . S
C1412 C1411 1.390 . S
C1412 C1413 1.392 . S
C1413 H1385 0.929 . S
C1413 C1410 1.391 . S
C1413 C1412 1.392 . S
N1414 Co1358 2.257 . S
N1414 C1411 1.391 . S
N1414 C1415 1.388 . S
C1415 H1386 0.930 . S
C1415 C1410 1.391 . S
C1415 N1414 1.388 . S
Co1416 O1418 2.143 . S
Co1416 O1424 2.074 . S
Co1416 O1427 2.093 . S
Co1416 O1440 2.097 . S
Co1416 N1457 2.151 . S
Co1416 N1465 2.214 . S
Co1417 O1418 2.160 . S
Co1417 O1423 2.058 . S
Co1417 O1433 2.057 . S
Co1417 O1448 2.037 . S
Co1417 N1452 2.145 . S
Co1417 N1473 2.257 . S
O1418 Co1416 2.143 . S
O1418 Co1417 2.160 . S
C1419 O1420 1.278 . S
C1419 O1427 1.224 . S
O1420 C1419 1.278 . S
C1421 O1422 1.245 . S
C1421 O1433 1.232 . S
O1422 C1421 1.245 . S
O1423 Co1417 2.058 . S
O1423 C1449 1.269 . S
O1424 Co1416 2.074 . S
O1424 C1449 1.257 . S
H1425 C1450 0.930 . S
H1426 C1456 0.930 . S
O1427 Co1416 2.093 . S
O1427 C1419 1.224 . S
H1428 C1460 0.929 . S
H1429 C1462 0.930 . S
H1430 C1463 0.930 . S
H1431 C1461 0.929 . S
H1432 C1464 0.928 . S
O1433 Co1417 2.057 . S
O1433 C1421 1.232 . S
H1434 C1453 0.929 . S
H1435 C1454 0.929 . S
H1436 C1466 0.931 . S
H1437 C1458 0.929 . S
H1438 C1467 0.930 . S
H1439 C1459 0.931 . S
O1440 Co1416 2.097 . S
O1440 C1468 1.214 . S
H1441 C1469 0.929 . S
H1442 C1470 0.929 . S
H1443 C1471 0.930 . S
H1444 C1472 0.929 . S
H1445 C1474 0.930 . S
H1446 C1451 0.930 . S
H1447 C1455 0.930 . S
O1448 Co1417 2.037 . S
O1448 C1468 1.234 . S
C1449 O1423 1.269 . S
C1449 O1424 1.257 . S
C1450 H1425 0.930 . S
C1450 C1453 1.388 . S
C1450 C1455 1.418 . S
C1451 H1446 0.930 . S
C1451 C1454 1.404 . S
C1451 C1455 1.353 . S
N1452 Co1417 2.145 . S
N1452 C1453 1.397 . S
N1452 C1454 1.334 . S
C1453 H1434 0.929 . S
C1453 C1450 1.388 . S
C1453 N1452 1.397 . S
C1454 H1435 0.929 . S
C1454 C1451 1.404 . S
C1454 N1452 1.334 . S
C1455 H1447 0.930 . S
C1455 C1450 1.418 . S
C1455 C1451 1.353 . S
C1456 H1426 0.930 . S
C1456 N1457 1.330 . S
C1456 C1458 1.446 . S
N1457 Co1416 2.151 . S
N1457 C1456 1.330 . S
N1457 C1461 1.418 . S
C1458 H1437 0.929 . S
C1458 C1456 1.446 . S
C1458 C1459 1.332 . S
C1459 H1439 0.931 . S
C1459 C1458 1.332 . S
C1459 C1460 1.267 . S
C1460 H1428 0.929 . S
C1460 C1459 1.267 . S
C1460 C1461 1.251 . S
C1461 H1431 0.929 . S
C1461 N1457 1.418 . S
C1461 C1460 1.251 . S
C1462 H1429 0.930 . S
C1462 C1464 1.406 . S
C1462 C1467 1.261 . S
C1463 H1430 0.930 . S
C1463 N1465 1.325 . S
C1463 C1466 1.357 . S
C1464 H1432 0.928 . S
C1464 C1462 1.406 . S
C1464 N1465 1.261 . S
N1465 Co1416 2.214 . S
N1465 C1463 1.325 . S
N1465 C1464 1.261 . S
C1466 H1436 0.931 . S
C1466 C1463 1.357 . S
C1466 C1467 1.312 . S
C1467 H1438 0.930 . S
C1467 C1462 1.261 . S
C1467 C1466 1.312 . S
C1468 O1440 1.214 . S
C1468 O1448 1.234 . S
C1469 H1441 0.929 . S
C1469 C1472 1.391 . S
C1469 C1474 1.391 . S
C1470 H1442 0.929 . S
C1470 C1471 1.390 . S
C1470 N1473 1.391 . S
C1471 H1443 0.930 . S
C1471 C1470 1.390 . S
C1471 C1472 1.392 . S
C1472 H1444 0.929 . S
C1472 C1469 1.391 . S
C1472 C1471 1.392 . S
N1473 Co1417 2.257 . S
N1473 C1470 1.391 . S
N1473 C1474 1.388 . S
C1474 H1445 0.930 . S
C1474 C1469 1.391 . S
C1474 N1473 1.388 . S
Co1475 O1477 2.143 . S
Co1475 O1483 2.074 . S
Co1475 O1486 2.093 . S
Co1475 O1499 2.097 . S
Co1475 N1516 2.151 . S
Co1475 N1524 2.214 . S
Co1476 O1477 2.160 . S
Co1476 O1482 2.058 . S
Co1476 O1492 2.057 . S
Co1476 O1507 2.037 . S
Co1476 N1511 2.145 . S
Co1476 N1532 2.257 . S
O1477 Co1475 2.143 . S
O1477 Co1476 2.160 . S
C1478 O1479 1.278 . S
C1478 O1486 1.224 . S
O1479 C1478 1.278 . S
C1480 O1481 1.245 . S
C1480 O1492 1.232 . S
O1481 C1480 1.245 . S
O1482 Co1476 2.058 . S
O1482 C1508 1.269 . S
O1483 Co1475 2.074 . S
O1483 C1508 1.257 . S
H1484 C1509 0.930 . S
H1485 C1515 0.930 . S
O1486 Co1475 2.093 . S
O1486 C1478 1.224 . S
H1487 C1519 0.929 . S
H1488 C1521 0.930 . S
H1489 C1522 0.930 . S
H1490 C1520 0.929 . S
H1491 C1523 0.928 . S
O1492 Co1476 2.057 . S
O1492 C1480 1.232 . S
H1493 C1512 0.929 . S
H1494 C1513 0.929 . S
H1495 C1525 0.931 . S
H1496 C1517 0.929 . S
H1497 C1526 0.930 . S
H1498 C1518 0.931 . S
O1499 Co1475 2.097 . S
O1499 C1527 1.214 . S
H1500 C1528 0.929 . S
H1501 C1529 0.929 . S
H1502 C1530 0.930 . S
H1503 C1531 0.929 . S
H1504 C1533 0.930 . S
H1505 C1510 0.930 . S
H1506 C1514 0.930 . S
O1507 Co1476 2.037 . S
O1507 C1527 1.234 . S
C1508 O1482 1.269 . S
C1508 O1483 1.257 . S
C1509 H1484 0.930 . S
C1509 C1512 1.388 . S
C1509 C1514 1.418 . S
C1510 H1505 0.930 . S
C1510 C1513 1.404 . S
C1510 C1514 1.353 . S
N1511 Co1476 2.145 . S
N1511 C1512 1.397 . S
N1511 C1513 1.334 . S
C1512 H1493 0.929 . S
C1512 C1509 1.388 . S
C1512 N1511 1.397 . S
C1513 H1494 0.929 . S
C1513 C1510 1.404 . S
C1513 N1511 1.334 . S
C1514 H1506 0.930 . S
C1514 C1509 1.418 . S
C1514 C1510 1.353 . S
C1515 H1485 0.930 . S
C1515 N1516 1.330 . S
C1515 C1517 1.446 . S
N1516 Co1475 2.151 . S
N1516 C1515 1.330 . S
N1516 C1520 1.418 . S
C1517 H1496 0.929 . S
C1517 C1515 1.446 . S
C1517 C1518 1.332 . S
C1518 H1498 0.931 . S
C1518 C1517 1.332 . S
C1518 C1519 1.267 . S
C1519 H1487 0.929 . S
C1519 C1518 1.267 . S
C1519 C1520 1.251 . S
C1520 H1490 0.929 . S
C1520 N1516 1.418 . S
C1520 C1519 1.251 . S
C1521 H1488 0.930 . S
C1521 C1523 1.406 . S
C1521 C1526 1.261 . S
C1522 H1489 0.930 . S
C1522 N1524 1.325 . S
C1522 C1525 1.357 . S
C1523 H1491 0.928 . S
C1523 C1521 1.406 . S
C1523 N1524 1.261 . S
N1524 Co1475 2.214 . S
N1524 C1522 1.325 . S
N1524 C1523 1.261 . S
C1525 H1495 0.931 . S
C1525 C1522 1.357 . S
C1525 C1526 1.312 . S
C1526 H1497 0.930 . S
C1526 C1521 1.261 . S
C1526 C1525 1.312 . S
C1527 O1499 1.214 . S
C1527 O1507 1.234 . S
C1528 H1500 0.929 . S
C1528 C1531 1.391 . S
C1528 C1533 1.391 . S
C1529 H1501 0.929 . S
C1529 C1530 1.390 . S
C1529 N1532 1.391 . S
C1530 H1502 0.930 . S
C1530 C1529 1.390 . S
C1530 C1531 1.392 . S
C1531 H1503 0.929 . S
C1531 C1528 1.391 . S
C1531 C1530 1.392 . S
N1532 Co1476 2.257 . S
N1532 C1529 1.391 . S
N1532 C1533 1.388 . S
C1533 H1504 0.930 . S
C1533 C1528 1.391 . S
C1533 N1532 1.388 . S
Co1534 O1536 2.143 . S
Co1534 O1542 2.074 . S
Co1534 O1545 2.093 . S
Co1534 O1558 2.097 . S
Co1534 N1575 2.151 . S
Co1534 N1583 2.214 . S
Co1535 O1536 2.160 . S
Co1535 O1541 2.058 . S
Co1535 O1551 2.057 . S
Co1535 O1566 2.037 . S
Co1535 N1570 2.145 . S
Co1535 N1591 2.257 . S
O1536 Co1534 2.143 . S
O1536 Co1535 2.160 . S
C1537 O1538 1.278 . S
C1537 O1545 1.224 . S
O1538 C1537 1.278 . S
C1539 O1540 1.245 . S
C1539 O1551 1.232 . S
O1540 C1539 1.245 . S
O1541 Co1535 2.058 . S
O1541 C1567 1.269 . S
O1542 Co1534 2.074 . S
O1542 C1567 1.257 . S
H1543 C1568 0.930 . S
H1544 C1574 0.930 . S
O1545 Co1534 2.093 . S
O1545 C1537 1.224 . S
H1546 C1578 0.929 . S
H1547 C1580 0.930 . S
H1548 C1581 0.930 . S
H1549 C1579 0.929 . S
H1550 C1582 0.928 . S
O1551 Co1535 2.057 . S
O1551 C1539 1.232 . S
H1552 C1571 0.929 . S
H1553 C1572 0.929 . S
H1554 C1584 0.931 . S
H1555 C1576 0.929 . S
H1556 C1585 0.930 . S
H1557 C1577 0.931 . S
O1558 Co1534 2.097 . S
O1558 C1586 1.214 . S
H1559 C1587 0.929 . S
H1560 C1588 0.929 . S
H1561 C1589 0.930 . S
H1562 C1590 0.929 1_556 S
H1563 C1592 0.930 . S
H1564 C1569 0.930 . S
H1565 C1573 0.930 . S
O1566 Co1535 2.037 . S
O1566 C1586 1.234 . S
C1567 O1541 1.269 . S
C1567 O1542 1.257 . S
C1568 H1543 0.930 . S
C1568 C1571 1.388 . S
C1568 C1573 1.418 . S
C1569 H1564 0.930 . S
C1569 C1572 1.404 . S
C1569 C1573 1.353 . S
N1570 Co1535 2.145 . S
N1570 C1571 1.397 . S
N1570 C1572 1.334 . S
C1571 H1552 0.929 . S
C1571 C1568 1.388 . S
C1571 N1570 1.397 . S
C1572 H1553 0.929 . S
C1572 C1569 1.404 . S
C1572 N1570 1.334 . S
C1573 H1565 0.930 . S
C1573 C1568 1.418 . S
C1573 C1569 1.353 . S
C1574 H1544 0.930 . S
C1574 N1575 1.330 . S
C1574 C1576 1.446 . S
N1575 Co1534 2.151 . S
N1575 C1574 1.330 . S
N1575 C1579 1.418 . S
C1576 H1555 0.929 . S
C1576 C1574 1.446 . S
C1576 C1577 1.332 . S
C1577 H1557 0.931 . S
C1577 C1576 1.332 . S
C1577 C1578 1.267 . S
C1578 H1546 0.929 . S
C1578 C1577 1.267 . S
C1578 C1579 1.251 . S
C1579 H1549 0.929 . S
C1579 N1575 1.418 . S
C1579 C1578 1.251 . S
C1580 H1547 0.930 . S
C1580 C1582 1.406 . S
C1580 C1585 1.261 . S
C1581 H1548 0.930 . S
C1581 N1583 1.325 . S
C1581 C1584 1.357 . S
C1582 H1550 0.928 . S
C1582 C1580 1.406 . S
C1582 N1583 1.261 . S
N1583 Co1534 2.214 . S
N1583 C1581 1.325 . S
N1583 C1582 1.261 . S
C1584 H1554 0.931 . S
C1584 C1581 1.357 . S
C1584 C1585 1.312 . S
C1585 H1556 0.930 . S
C1585 C1580 1.261 . S
C1585 C1584 1.312 . S
C1586 O1558 1.214 . S
C1586 O1566 1.234 . S
C1587 H1559 0.929 . S
C1587 C1590 1.391 . S
C1587 C1592 1.391 . S
C1588 H1560 0.929 . S
C1588 C1589 1.390 . S
C1588 N1591 1.391 . S
C1589 H1561 0.930 . S
C1589 C1588 1.390 . S
C1589 C1590 1.392 . S
C1590 H1562 0.929 1_554 S
C1590 C1587 1.391 . S
C1590 C1589 1.392 . S
N1591 Co1535 2.257 . S
N1591 C1588 1.391 . S
N1591 C1592 1.388 . S
C1592 H1563 0.930 . S
C1592 C1587 1.391 . S
C1592 N1591 1.388 . S
Co1593 O1595 2.143 . S
Co1593 O1601 2.074 . S
Co1593 O1604 2.093 . S
Co1593 O1617 2.097 . S
Co1593 N1634 2.151 . S
Co1593 N1642 2.214 . S
Co1594 O1595 2.160 . S
Co1594 O1600 2.058 . S
Co1594 O1610 2.057 . S
Co1594 O1625 2.037 . S
Co1594 N1629 2.145 . S
Co1594 N1650 2.257 . S
O1595 Co1593 2.143 . S
O1595 Co1594 2.160 . S
C1596 O1597 1.278 . S
C1596 O1604 1.224 . S
O1597 C1596 1.278 . S
C1598 O1599 1.245 . S
C1598 O1610 1.232 . S
O1599 C1598 1.245 . S
O1600 Co1594 2.058 . S
O1600 C1626 1.269 . S
O1601 Co1593 2.074 . S
O1601 C1626 1.257 . S
H1602 C1627 0.930 . S
H1603 C1633 0.930 . S
O1604 Co1593 2.093 . S
O1604 C1596 1.224 . S
H1605 C1637 0.929 . S
H1606 C1639 0.930 . S
H1607 C1640 0.930 . S
H1608 C1638 0.929 . S
H1609 C1641 0.928 . S
O1610 Co1594 2.057 . S
O1610 C1598 1.232 . S
H1611 C1630 0.932 . S
H1612 C1631 0.929 . S
H1613 C1643 0.931 . S
H1614 C1635 0.929 . S
H1615 C1644 0.930 . S
H1616 C1636 0.931 . S
O1617 Co1593 2.097 . S
O1617 C1645 1.214 . S
H1618 C1646 0.929 . S
H1619 C1647 0.929 . S
H1620 C1648 0.930 . S
H1621 C1649 0.929 . S
H1622 C1651 0.930 . S
H1623 C1628 0.930 . S
H1624 C1632 0.930 . S
O1625 Co1594 2.037 . S
O1625 C1645 1.234 . S
C1626 O1600 1.269 . S
C1626 O1601 1.257 . S
C1627 H1602 0.930 . S
C1627 C1630 1.388 . S
C1627 C1632 1.418 . S
C1628 H1623 0.930 . S
C1628 C1631 1.404 1_554 S
C1628 C1632 1.353 . S
N1629 Co1594 2.145 . S
N1629 C1630 1.397 1_556 S
N1629 C1631 1.334 . S
C1630 H1611 0.932 . S
C1630 C1627 1.388 . S
C1630 N1629 1.397 1_554 S
C1631 H1612 0.929 . S
C1631 C1628 1.404 1_556 S
C1631 N1629 1.334 . S
C1632 H1624 0.930 . S
C1632 C1627 1.418 . S
C1632 C1628 1.353 . S
C1633 H1603 0.930 . S
C1633 N1634 1.330 . S
C1633 C1635 1.446 . S
N1634 Co1593 2.151 . S
N1634 C1633 1.330 . S
N1634 C1638 1.418 . S
C1635 H1614 0.929 . S
C1635 C1633 1.446 . S
C1635 C1636 1.332 . S
C1636 H1616 0.931 . S
C1636 C1635 1.332 . S
C1636 C1637 1.267 . S
C1637 H1605 0.929 . S
C1637 C1636 1.267 . S
C1637 C1638 1.251 . S
C1638 H1608 0.929 . S
C1638 N1634 1.418 . S
C1638 C1637 1.251 . S
C1639 H1606 0.930 . S
C1639 C1641 1.406 . S
C1639 C1644 1.261 . S
C1640 H1607 0.930 . S
C1640 N1642 1.325 . S
C1640 C1643 1.357 . S
C1641 H1609 0.928 . S
C1641 C1639 1.406 . S
C1641 N1642 1.261 . S
N1642 Co1593 2.214 . S
N1642 C1640 1.325 . S
N1642 C1641 1.261 . S
C1643 H1613 0.931 . S
C1643 C1640 1.357 . S
C1643 C1644 1.312 . S
C1644 H1615 0.930 . S
C1644 C1639 1.261 . S
C1644 C1643 1.312 . S
C1645 O1617 1.214 . S
C1645 O1625 1.234 . S
C1646 H1618 0.929 . S
C1646 C1649 1.391 . S
C1646 C1651 1.391 . S
C1647 H1619 0.929 . S
C1647 C1648 1.390 . S
C1647 N1650 1.391 . S
C1648 H1620 0.930 . S
C1648 C1647 1.390 . S
C1648 C1649 1.392 . S
C1649 H1621 0.929 . S
C1649 C1646 1.391 . S
C1649 C1648 1.392 . S
N1650 Co1594 2.257 . S
N1650 C1647 1.391 . S
N1650 C1651 1.388 . S
C1651 H1622 0.930 . S
C1651 C1646 1.391 . S
C1651 N1650 1.388 . S
Co1652 O1654 2.143 . S
Co1652 O1660 2.074 . S
Co1652 O1663 2.093 . S
Co1652 O1676 2.097 . S
Co1652 N1693 2.151 . S
Co1652 N1701 2.214 . S
Co1653 O1654 2.160 . S
Co1653 O1659 2.058 . S
Co1653 O1669 2.057 . S
Co1653 O1684 2.037 . S
Co1653 N1688 2.145 . S
Co1653 N1709 2.257 . S
O1654 Co1652 2.143 . S
O1654 Co1653 2.160 . S
C1655 O1656 1.278 . S
C1655 O1663 1.224 . S
O1656 C1655 1.278 . S
C1657 O1658 1.245 . S
C1657 O1669 1.232 . S
O1658 C1657 1.245 . S
O1659 Co1653 2.058 . S
O1659 C1685 1.269 . S
O1660 Co1652 2.074 . S
O1660 C1685 1.257 . S
H1661 C1686 0.930 . S
H1662 C1692 0.930 . S
O1663 Co1652 2.093 . S
O1663 C1655 1.224 . S
H1664 C1696 0.929 . S
H1665 C1698 0.930 . S
H1666 C1699 0.930 . S
H1667 C1697 0.929 . S
H1668 C1700 0.928 . S
O1669 Co1653 2.057 . S
O1669 C1657 1.232 . S
H1670 C1689 0.929 . S
H1671 C1690 0.929 . S
H1672 C1702 0.931 . S
H1673 C1694 0.929 . S
H1674 C1703 0.930 . S
H1675 C1695 0.931 . S
O1676 Co1652 2.097 . S
O1676 C1704 1.214 . S
H1677 C1705 0.929 . S
H1678 C1706 0.929 . S
H1679 C1707 0.930 . S
H1680 C1708 0.929 . S
H1681 C1710 0.930 . S
H1682 C1687 0.930 . S
H1683 C1691 0.930 . S
O1684 Co1653 2.037 . S
O1684 C1704 1.234 . S
C1685 O1659 1.269 . S
C1685 O1660 1.257 . S
C1686 H1661 0.930 . S
C1686 C1689 1.388 . S
C1686 C1691 1.418 . S
C1687 H1682 0.930 . S
C1687 C1690 1.404 . S
C1687 C1691 1.353 . S
N1688 Co1653 2.145 . S
N1688 C1689 1.397 . S
N1688 C1690 1.334 . S
C1689 H1670 0.929 . S
C1689 C1686 1.388 . S
C1689 N1688 1.397 . S
C1690 H1671 0.929 . S
C1690 C1687 1.404 . S
C1690 N1688 1.334 . S
C1691 H1683 0.930 . S
C1691 C1686 1.418 . S
C1691 C1687 1.353 . S
C1692 H1662 0.930 . S
C1692 N1693 1.330 . S
C1692 C1694 1.446 . S
N1693 Co1652 2.151 . S
N1693 C1692 1.330 . S
N1693 C1697 1.418 . S
C1694 H1673 0.929 . S
C1694 C1692 1.446 . S
C1694 C1695 1.332 . S
C1695 H1675 0.931 . S
C1695 C1694 1.332 . S
C1695 C1696 1.267 . S
C1696 H1664 0.929 . S
C1696 C1695 1.267 . S
C1696 C1697 1.251 . S
C1697 H1667 0.929 . S
C1697 N1693 1.418 . S
C1697 C1696 1.251 . S
C1698 H1665 0.930 . S
C1698 C1700 1.406 . S
C1698 C1703 1.261 . S
C1699 H1666 0.930 . S
C1699 N1701 1.325 . S
C1699 C1702 1.357 . S
C1700 H1668 0.928 . S
C1700 C1698 1.406 . S
C1700 N1701 1.261 . S
N1701 Co1652 2.214 . S
N1701 C1699 1.325 . S
N1701 C1700 1.261 . S
C1702 H1672 0.931 . S
C1702 C1699 1.357 . S
C1702 C1703 1.312 . S
C1703 H1674 0.930 . S
C1703 C1698 1.261 . S
C1703 C1702 1.312 . S
C1704 O1676 1.214 . S
C1704 O1684 1.234 . S
C1705 H1677 0.929 . S
C1705 C1708 1.391 . S
C1705 C1710 1.391 . S
C1706 H1678 0.929 . S
C1706 C1707 1.390 . S
C1706 N1709 1.391 . S
C1707 H1679 0.930 . S
C1707 C1706 1.390 . S
C1707 C1708 1.392 . S
C1708 H1680 0.929 . S
C1708 C1705 1.391 . S
C1708 C1707 1.392 . S
N1709 Co1653 2.257 . S
N1709 C1706 1.391 . S
N1709 C1710 1.388 . S
C1710 H1681 0.930 . S
C1710 C1705 1.391 . S
C1710 N1709 1.388 . S
Co1711 O1713 2.143 . S
Co1711 O1719 2.074 . S
Co1711 O1722 2.093 . S
Co1711 O1735 2.097 . S
Co1711 N1752 2.151 . S
Co1711 N1760 2.214 . S
Co1712 O1713 2.160 . S
Co1712 O1718 2.058 . S
Co1712 O1728 2.057 . S
Co1712 O1743 2.037 . S
Co1712 N1747 2.145 . S
Co1712 N1768 2.257 . S
O1713 Co1711 2.143 . S
O1713 Co1712 2.160 . S
C1714 O1715 1.278 . S
C1714 O1722 1.224 . S
O1715 C1714 1.278 . S
C1716 O1717 1.245 . S
C1716 O1728 1.232 . S
O1717 C1716 1.245 . S
O1718 Co1712 2.058 . S
O1718 C1744 1.269 . S
O1719 Co1711 2.074 . S
O1719 C1744 1.257 . S
H1720 C1745 0.930 . S
H1721 C1751 0.930 . S
O1722 Co1711 2.093 . S
O1722 C1714 1.224 . S
H1723 C1755 0.929 . S
H1724 C1757 0.930 . S
H1725 C1758 0.930 . S
H1726 C1756 0.929 . S
H1727 C1759 0.928 . S
O1728 Co1712 2.057 . S
O1728 C1716 1.232 . S
H1729 C1748 0.929 . S
H1730 C1749 0.929 . S
H1731 C1761 0.931 . S
H1732 C1753 0.929 . S
H1733 C1762 0.930 . S
H1734 C1754 0.931 . S
O1735 Co1711 2.097 . S
O1735 C1763 1.214 . S
H1736 C1764 0.929 . S
H1737 C1765 0.929 . S
H1738 C1766 0.930 . S
H1739 C1767 0.929 . S
H1740 C1769 0.930 . S
H1741 C1746 0.930 . S
H1742 C1750 0.930 . S
O1743 Co1712 2.037 . S
O1743 C1763 1.234 . S
C1744 O1718 1.269 . S
C1744 O1719 1.257 . S
C1745 H1720 0.930 . S
C1745 C1748 1.388 . S
C1745 C1750 1.418 . S
C1746 H1741 0.930 . S
C1746 C1749 1.404 . S
C1746 C1750 1.353 . S
N1747 Co1712 2.145 . S
N1747 C1748 1.397 . S
N1747 C1749 1.334 . S
C1748 H1729 0.929 . S
C1748 C1745 1.388 . S
C1748 N1747 1.397 . S
C1749 H1730 0.929 . S
C1749 C1746 1.404 . S
C1749 N1747 1.334 . S
C1750 H1742 0.930 . S
C1750 C1745 1.418 . S
C1750 C1746 1.353 . S
C1751 H1721 0.930 . S
C1751 N1752 1.330 . S
C1751 C1753 1.446 . S
N1752 Co1711 2.151 . S
N1752 C1751 1.330 . S
N1752 C1756 1.418 . S
C1753 H1732 0.929 . S
C1753 C1751 1.446 . S
C1753 C1754 1.332 . S
C1754 H1734 0.931 . S
C1754 C1753 1.332 . S
C1754 C1755 1.267 . S
C1755 H1723 0.929 . S
C1755 C1754 1.267 . S
C1755 C1756 1.251 . S
C1756 H1726 0.929 . S
C1756 N1752 1.418 . S
C1756 C1755 1.251 . S
C1757 H1724 0.930 . S
C1757 C1759 1.406 . S
C1757 C1762 1.261 . S
C1758 H1725 0.930 . S
C1758 N1760 1.325 . S
C1758 C1761 1.357 . S
C1759 H1727 0.928 . S
C1759 C1757 1.406 . S
C1759 N1760 1.261 . S
N1760 Co1711 2.214 . S
N1760 C1758 1.325 . S
N1760 C1759 1.261 . S
C1761 H1731 0.931 . S
C1761 C1758 1.357 . S
C1761 C1762 1.312 . S
C1762 H1733 0.930 . S
C1762 C1757 1.261 . S
C1762 C1761 1.312 . S
C1763 O1735 1.214 . S
C1763 O1743 1.234 . S
C1764 H1736 0.929 . S
C1764 C1767 1.391 . S
C1764 C1769 1.391 . S
C1765 H1737 0.929 . S
C1765 C1766 1.390 . S
C1765 N1768 1.391 . S
C1766 H1738 0.930 . S
C1766 C1765 1.390 . S
C1766 C1767 1.392 . S
C1767 H1739 0.929 . S
C1767 C1764 1.391 . S
C1767 C1766 1.392 . S
N1768 Co1712 2.257 . S
N1768 C1765 1.391 . S
N1768 C1769 1.388 . S
C1769 H1740 0.930 . S
C1769 C1764 1.391 . S
C1769 N1768 1.388 . S
Co1770 O1772 2.143 . S
Co1770 O1778 2.074 . S
Co1770 O1781 2.093 . S
Co1770 O1794 2.097 . S
Co1770 N1811 2.151 . S
Co1770 N1819 2.214 . S
Co1771 O1772 2.160 . S
Co1771 O1777 2.058 1_554 S
Co1771 O1787 2.057 . S
Co1771 O1802 2.037 . S
Co1771 N1806 2.145 1_554 S
Co1771 N1827 2.257 . S
O1772 Co1770 2.143 . S
O1772 Co1771 2.160 . S
C1773 O1774 1.278 . S
C1773 O1781 1.224 . S
O1774 C1773 1.278 . S
C1775 O1776 1.245 . S
C1775 O1787 1.232 . S
O1776 C1775 1.245 . S
O1777 Co1771 2.058 1_556 S
O1777 C1803 1.269 . S
O1778 Co1770 2.074 . S
O1778 C1803 1.257 1_554 S
H1779 C1804 0.930 . S
H1780 C1810 0.930 . S
O1781 Co1770 2.093 . S
O1781 C1773 1.224 . S
H1782 C1814 0.929 . S
H1783 C1816 0.930 . S
H1784 C1817 0.930 . S
H1785 C1815 0.929 . S
H1786 C1818 0.928 . S
O1787 Co1771 2.057 . S
O1787 C1775 1.232 . S
H1788 C1807 0.929 . S
H1789 C1808 0.929 . S
H1790 C1820 0.931 . S
H1791 C1812 0.929 . S
H1792 C1821 0.930 . S
H1793 C1813 0.931 . S
O1794 Co1770 2.097 . S
O1794 C1822 1.214 . S
H1795 C1823 0.929 . S
H1796 C1824 0.929 . S
H1797 C1825 0.930 . S
H1798 C1826 0.929 . S
H1799 C1828 0.930 . S
H1800 C1805 0.930 . S
H1801 C1809 0.930 . S
O1802 Co1771 2.037 . S
O1802 C1822 1.234 . S
C1803 O1777 1.269 . S
C1803 O1778 1.257 1_556 S
C1804 H1779 0.930 . S
C1804 C1807 1.388 . S
C1804 C1809 1.418 . S
C1805 H1800 0.930 . S
C1805 C1808 1.404 . S
C1805 C1809 1.353 . S
N1806 Co1771 2.145 1_556 S
N1806 C1807 1.397 . S
N1806 C1808 1.334 . S
C1807 H1788 0.929 . S
C1807 C1804 1.388 . S
C1807 N1806 1.397 . S
C1808 H1789 0.929 . S
C1808 C1805 1.404 . S
C1808 N1806 1.334 . S
C1809 H1801 0.930 . S
C1809 C1804 1.418 . S
C1809 C1805 1.353 . S
C1810 H1780 0.930 . S
C1810 N1811 1.330 . S
C1810 C1812 1.446 . S
N1811 Co1770 2.151 . S
N1811 C1810 1.330 . S
N1811 C1815 1.418 . S
C1812 H1791 0.929 . S
C1812 C1810 1.446 . S
C1812 C1813 1.332 . S
C1813 H1793 0.931 . S
C1813 C1812 1.332 . S
C1813 C1814 1.267 . S
C1814 H1782 0.929 . S
C1814 C1813 1.267 . S
C1814 C1815 1.251 . S
C1815 H1785 0.929 . S
C1815 N1811 1.418 . S
C1815 C1814 1.251 . S
C1816 H1783 0.930 . S
C1816 C1818 1.406 . S
C1816 C1821 1.261 . S
C1817 H1784 0.930 . S
C1817 N1819 1.325 . S
C1817 C1820 1.357 . S
C1818 H1786 0.928 . S
C1818 C1816 1.406 . S
C1818 N1819 1.261 . S
N1819 Co1770 2.214 . S
N1819 C1817 1.325 . S
N1819 C1818 1.261 . S
C1820 H1790 0.931 . S
C1820 C1817 1.357 . S
C1820 C1821 1.312 . S
C1821 H1792 0.930 . S
C1821 C1816 1.261 . S
C1821 C1820 1.312 . S
C1822 O1794 1.214 . S
C1822 O1802 1.234 . S
C1823 H1795 0.929 . S
C1823 C1826 1.391 . S
C1823 C1828 1.391 . S
C1824 H1796 0.929 . S
C1824 C1825 1.390 . S
C1824 N1827 1.391 . S
C1825 H1797 0.930 . S
C1825 C1824 1.390 . S
C1825 C1826 1.392 . S
C1826 H1798 0.929 . S
C1826 C1823 1.391 . S
C1826 C1825 1.392 . S
N1827 Co1771 2.257 . S
N1827 C1824 1.391 . S
N1827 C1828 1.388 . S
C1828 H1799 0.930 . S
C1828 C1823 1.391 . S
C1828 N1827 1.388 . S
Co1829 O1831 2.143 . S
Co1829 O1837 2.074 . S
Co1829 O1840 2.093 . S
Co1829 O1853 2.097 . S
Co1829 N1870 2.151 . S
Co1829 N1878 2.214 . S
Co1830 O1831 2.160 . S
Co1830 O1836 2.058 . S
Co1830 O1846 2.057 . S
Co1830 O1861 2.037 . S
Co1830 N1865 2.145 . S
Co1830 N1886 2.257 . S
O1831 Co1829 2.143 . S
O1831 Co1830 2.160 . S
C1832 O1833 1.278 . S
C1832 O1840 1.224 . S
O1833 C1832 1.278 . S
C1834 O1835 1.245 . S
C1834 O1846 1.232 . S
O1835 C1834 1.245 . S
O1836 Co1830 2.058 . S
O1836 C1862 1.269 . S
O1837 Co1829 2.074 . S
O1837 C1862 1.257 . S
H1838 C1863 0.930 . S
H1839 C1869 0.930 . S
O1840 Co1829 2.093 . S
O1840 C1832 1.224 . S
H1841 C1873 0.929 . S
H1842 C1875 0.930 . S
H1843 C1876 0.930 . S
H1844 C1874 0.929 . S
H1845 C1877 0.928 . S
O1846 Co1830 2.057 . S
O1846 C1834 1.232 . S
H1847 C1866 0.929 . S
H1848 C1867 0.929 . S
H1849 C1879 0.931 . S
H1850 C1871 0.929 . S
H1851 C1880 0.930 . S
H1852 C1872 0.931 . S
O1853 Co1829 2.097 . S
O1853 C1881 1.214 . S
H1854 C1882 0.929 . S
H1855 C1883 0.929 . S
H1856 C1884 0.930 . S
H1857 C1885 0.929 . S
H1858 C1887 0.930 . S
H1859 C1864 0.930 . S
H1860 C1868 0.930 . S
O1861 Co1830 2.037 . S
O1861 C1881 1.234 . S
C1862 O1836 1.269 . S
C1862 O1837 1.257 . S
C1863 H1838 0.930 . S
C1863 C1866 1.388 . S
C1863 C1868 1.418 . S
C1864 H1859 0.930 . S
C1864 C1867 1.404 . S
C1864 C1868 1.353 . S
N1865 Co1830 2.145 . S
N1865 C1866 1.397 . S
N1865 C1867 1.334 . S
C1866 H1847 0.929 . S
C1866 C1863 1.388 . S
C1866 N1865 1.397 . S
C1867 H1848 0.929 . S
C1867 C1864 1.404 . S
C1867 N1865 1.334 . S
C1868 H1860 0.930 . S
C1868 C1863 1.418 . S
C1868 C1864 1.353 . S
C1869 H1839 0.930 . S
C1869 N1870 1.330 . S
C1869 C1871 1.446 . S
N1870 Co1829 2.151 . S
N1870 C1869 1.330 . S
N1870 C1874 1.418 . S
C1871 H1850 0.929 . S
C1871 C1869 1.446 . S
C1871 C1872 1.332 . S
C1872 H1852 0.931 . S
C1872 C1871 1.332 . S
C1872 C1873 1.267 . S
C1873 H1841 0.929 . S
C1873 C1872 1.267 . S
C1873 C1874 1.251 . S
C1874 H1844 0.929 . S
C1874 N1870 1.418 . S
C1874 C1873 1.251 . S
C1875 H1842 0.930 . S
C1875 C1877 1.406 . S
C1875 C1880 1.261 . S
C1876 H1843 0.930 . S
C1876 N1878 1.325 . S
C1876 C1879 1.357 . S
C1877 H1845 0.928 . S
C1877 C1875 1.406 . S
C1877 N1878 1.261 . S
N1878 Co1829 2.214 . S
N1878 C1876 1.325 . S
N1878 C1877 1.261 . S
C1879 H1849 0.931 . S
C1879 C1876 1.357 . S
C1879 C1880 1.312 . S
C1880 H1851 0.930 . S
C1880 C1875 1.261 . S
C1880 C1879 1.312 . S
C1881 O1853 1.214 . S
C1881 O1861 1.234 . S
C1882 H1854 0.929 . S
C1882 C1885 1.391 . S
C1882 C1887 1.391 . S
C1883 H1855 0.929 . S
C1883 C1884 1.390 . S
C1883 N1886 1.391 . S
C1884 H1856 0.930 . S
C1884 C1883 1.390 . S
C1884 C1885 1.392 . S
C1885 H1857 0.929 . S
C1885 C1882 1.391 . S
C1885 C1884 1.392 . S
N1886 Co1830 2.257 . S
N1886 C1883 1.391 . S
N1886 C1887 1.388 . S
C1887 H1858 0.930 . S
C1887 C1882 1.391 . S
C1887 N1886 1.388 . S
H1888 C1894 0.930 . S
H1889 C1897 0.930 . S
H1890 C1898 0.930 . S
H1891 C1899 0.930 . S
H1892 C1902 0.930 . S
H1893 C1903 0.930 . S
C1894 H1888 0.930 . S
C1894 C1895 1.355 . S
C1894 C1896 1.415 . S
C1895 C1894 1.355 . S
C1895 C1897 1.419 . S
C1896 C1894 1.415 . S
C1896 C1901 1.425 . S
C1896 C1903 1.409 1_556 S
C1897 H1889 0.930 . S
C1897 C1895 1.419 . S
C1897 C1898 1.362 . S
C1898 H1890 0.930 . S
C1898 C1897 1.362 . S
C1898 C1901 1.409 . S
C1899 H1891 0.930 . S
C1899 C1900 1.355 1_556 S
C1899 C1901 1.415 . S
C1900 C1899 1.355 1_554 S
C1900 C1902 1.419 . S
C1901 C1896 1.425 . S
C1901 C1898 1.409 . S
C1901 C1899 1.415 . S
C1902 H1892 0.930 . S
C1902 C1900 1.419 . S
C1902 C1903 1.362 . S
C1903 H1893 0.930 . S
C1903 C1896 1.409 1_554 S
C1903 C1902 1.362 . S
H1904 C1910 0.930 . S
H1905 C1913 0.930 . S
H1906 C1914 0.930 . S
H1907 C1915 0.930 . S
H1908 C1918 0.930 . S
H1909 C1919 0.930 . S
C1910 H1904 0.930 . S
C1910 C1911 1.355 . S
C1910 C1912 1.415 . S
C1911 C1910 1.355 . S
C1911 C1913 1.419 . S
C1912 C1910 1.415 . S
C1912 C1917 1.425 . S
C1912 C1919 1.409 . S
C1913 H1905 0.930 . S
C1913 C1911 1.419 . S
C1913 C1914 1.362 . S
C1914 H1906 0.930 . S
C1914 C1913 1.362 . S
C1914 C1917 1.409 . S
C1915 H1907 0.930 . S
C1915 C1916 1.355 . S
C1915 C1917 1.415 . S
C1916 C1915 1.355 . S
C1916 C1918 1.419 . S
C1917 C1912 1.425 . S
C1917 C1914 1.409 . S
C1917 C1915 1.415 . S
C1918 H1908 0.930 . S
C1918 C1916 1.419 . S
C1918 C1919 1.362 . S
C1919 H1909 0.930 . S
C1919 C1912 1.409 . S
C1919 C1918 1.362 . S
H1920 C1926 0.930 . S
H1921 C1929 0.930 . S
H1922 C1930 0.930 . S
H1923 C1931 0.930 . S
H1924 C1934 0.930 . S
H1925 C1935 0.930 . S
C1926 H1920 0.930 . S
C1926 C1927 1.355 . S
C1926 C1928 1.415 . S
C1927 C1926 1.355 . S
C1927 C1929 1.419 . S
C1928 C1926 1.415 . S
C1928 C1933 1.425 . S
C1928 C1935 1.409 . S
C1929 H1921 0.930 . S
C1929 C1927 1.419 . S
C1929 C1930 1.362 . S
C1930 H1922 0.930 . S
C1930 C1929 1.362 . S
C1930 C1933 1.409 . S
C1931 H1923 0.930 . S
C1931 C1932 1.355 . S
C1931 C1933 1.415 . S
C1932 C1931 1.355 . S
C1932 C1934 1.419 . S
C1933 C1928 1.425 . S
C1933 C1930 1.409 . S
C1933 C1931 1.415 . S
C1934 H1924 0.930 . S
C1934 C1932 1.419 . S
C1934 C1935 1.362 . S
C1935 H1925 0.930 . S
C1935 C1928 1.409 . S
C1935 C1934 1.362 . S
H1936 C1942 0.930 . S
H1937 C1945 0.930 . S
H1938 C1946 0.930 . S
H1939 C1947 0.930 . S
H1940 C1950 0.930 . S
H1941 C1951 0.930 . S
C1942 H1936 0.930 . S
C1942 C1943 1.355 . S
C1942 C1944 1.415 . S
C1943 C1942 1.355 . S
C1943 C1945 1.419 . S
C1944 C1942 1.415 . S
C1944 C1949 1.425 . S
C1944 C1951 1.409 . S
C1945 H1937 0.930 . S
C1945 C1943 1.419 . S
C1945 C1946 1.362 . S
C1946 H1938 0.930 . S
C1946 C1945 1.362 . S
C1946 C1949 1.409 . S
C1947 H1939 0.930 . S
C1947 C1948 1.355 . S
C1947 C1949 1.415 . S
C1948 C1947 1.355 . S
C1948 C1950 1.419 . S
C1949 C1944 1.425 . S
C1949 C1946 1.409 . S
C1949 C1947 1.415 . S
C1950 H1940 0.930 . S
C1950 C1948 1.419 . S
C1950 C1951 1.362 . S
C1951 H1941 0.930 . S
C1951 C1944 1.409 . S
C1951 C1950 1.362 . S
H1952 C1958 0.930 . S
H1953 C1961 0.930 . S
H1954 C1962 0.930 . S
H1955 C1963 0.930 . S
H1956 C1966 0.930 . S
H1957 C1967 0.930 . S
C1958 H1952 0.930 . S
C1958 C1959 1.355 . S
C1958 C1960 1.415 . S
C1959 C1958 1.355 . S
C1959 C1961 1.419 . S
C1960 C1958 1.415 . S
C1960 C1965 1.425 . S
C1960 C1967 1.409 . S
C1961 H1953 0.930 . S
C1961 C1959 1.419 . S
C1961 C1962 1.362 . S
C1962 H1954 0.930 . S
C1962 C1961 1.362 . S
C1962 C1965 1.409 . S
C1963 H1955 0.930 . S
C1963 C1964 1.355 . S
C1963 C1965 1.415 . S
C1964 C1963 1.355 . S
C1964 C1966 1.419 . S
C1965 C1960 1.425 . S
C1965 C1962 1.409 . S
C1965 C1963 1.415 . S
C1966 H1956 0.930 . S
C1966 C1964 1.419 . S
C1966 C1967 1.362 . S
C1967 H1957 0.930 . S
C1967 C1960 1.409 . S
C1967 C1966 1.362 . S
H1968 C1974 0.930 . S
H1969 C1977 0.930 . S
H1970 C1978 0.930 . S
H1971 C1979 0.930 . S
H1972 C1982 0.930 . S
H1973 C1983 0.930 . S
C1974 H1968 0.930 . S
C1974 C1975 1.355 . S
C1974 C1976 1.415 . S
C1975 C1974 1.355 . S
C1975 C1977 1.419 . S
C1976 C1974 1.415 . S
C1976 C1981 1.425 . S
C1976 C1983 1.409 1_556 S
C1977 H1969 0.930 . S
C1977 C1975 1.419 . S
C1977 C1978 1.362 . S
C1978 H1970 0.930 . S
C1978 C1977 1.362 . S
C1978 C1981 1.409 . S
C1979 H1971 0.930 . S
C1979 C1980 1.355 1_556 S
C1979 C1981 1.415 . S
C1980 C1979 1.355 1_554 S
C1980 C1982 1.419 . S
C1981 C1976 1.425 . S
C1981 C1978 1.409 . S
C1981 C1979 1.415 . S
C1982 H1972 0.930 . S
C1982 C1980 1.419 . S
C1982 C1983 1.362 . S
C1983 H1973 0.930 . S
C1983 C1976 1.409 1_554 S
C1983 C1982 1.362 . S
H1984 C1990 0.930 . S
H1985 C1993 0.930 . S
H1986 C1994 0.930 . S
H1987 C1995 0.930 . S
H1988 C1998 0.930 . S
H1989 C1999 0.930 . S
C1990 H1984 0.930 . S
C1990 C1991 1.355 . S
C1990 C1992 1.415 . S
C1991 C1990 1.355 . S
C1991 C1993 1.419 . S
C1992 C1990 1.415 . S
C1992 C1997 1.425 . S
C1992 C1999 1.409 . S
C1993 H1985 0.930 . S
C1993 C1991 1.419 . S
C1993 C1994 1.362 . S
C1994 H1986 0.930 . S
C1994 C1993 1.362 . S
C1994 C1997 1.409 . S
C1995 H1987 0.930 . S
C1995 C1996 1.355 . S
C1995 C1997 1.415 . S
C1996 C1995 1.355 . S
C1996 C1998 1.419 . S
C1997 C1992 1.425 . S
C1997 C1994 1.409 . S
C1997 C1995 1.415 . S
C1998 H1988 0.930 . S
C1998 C1996 1.419 . S
C1998 C1999 1.362 . S
C1999 H1989 0.930 . S
C1999 C1992 1.409 . S
C1999 C1998 1.362 . S
H2000 C2006 0.930 . S
H2001 C2009 0.930 . S
H2002 C2010 0.930 . S
H2003 C2011 0.930 . S
H2004 C2014 0.930 . S
H2005 C2015 0.930 . S
C2006 H2000 0.930 . S
C2006 C2007 1.355 . S
C2006 C2008 1.415 . S
C2007 C2006 1.355 . S
C2007 C2009 1.419 . S
C2008 C2006 1.415 . S
C2008 C2013 1.425 . S
C2008 C2015 1.409 . S
C2009 H2001 0.930 . S
C2009 C2007 1.419 . S
C2009 C2010 1.362 . S
C2010 H2002 0.930 . S
C2010 C2009 1.362 . S
C2010 C2013 1.409 . S
C2011 H2003 0.930 . S
C2011 C2012 1.355 . S
C2011 C2013 1.415 . S
C2012 C2011 1.355 . S
C2012 C2014 1.419 . S
C2013 C2008 1.425 . S
C2013 C2010 1.409 . S
C2013 C2011 1.415 . S
C2014 H2004 0.930 . S
C2014 C2012 1.419 . S
C2014 C2015 1.362 . S
C2015 H2005 0.930 . S
C2015 C2008 1.409 . S
C2015 C2014 1.362 . S
H2016 C2022 0.930 . S
H2017 C2025 0.930 . S
H2018 C2026 0.930 . S
H2019 C2027 0.930 . S
H2020 C2030 0.930 . S
H2021 C2031 0.930 . S
C2022 H2016 0.930 . S
C2022 C2023 1.355 . S
C2022 C2024 1.415 . S
C2023 C2022 1.355 . S
C2023 C2025 1.419 . S
C2024 C2022 1.415 . S
C2024 C2029 1.425 . S
C2024 C2031 1.409 . S
C2025 H2017 0.930 . S
C2025 C2023 1.419 . S
C2025 C2026 1.362 . S
C2026 H2018 0.930 . S
C2026 C2025 1.362 . S
C2026 C2029 1.409 . S
C2027 H2019 0.930 . S
C2027 C2028 1.355 . S
C2027 C2029 1.415 . S
C2028 C2027 1.355 . S
C2028 C2030 1.419 . S
C2029 C2024 1.425 . S
C2029 C2026 1.409 . S
C2029 C2027 1.415 . S
C2030 H2020 0.930 . S
C2030 C2028 1.419 . S
C2030 C2031 1.362 . S
C2031 H2021 0.930 . S
C2031 C2024 1.409 . S
C2031 C2030 1.362 . S
H2032 C2038 0.930 . S
H2033 C2041 0.930 . S
H2034 C2042 0.930 . S
H2035 C2043 0.930 . S
H2036 C2046 0.930 . S
H2037 C2047 0.930 . S
C2038 H2032 0.930 . S
C2038 C2039 1.355 . S
C2038 C2040 1.415 . S
C2039 C2038 1.355 . S
C2039 C2041 1.419 . S
C2040 C2038 1.415 . S
C2040 C2045 1.425 . S
C2040 C2047 1.409 . S
C2041 H2033 0.930 . S
C2041 C2039 1.419 . S
C2041 C2042 1.362 . S
C2042 H2034 0.930 . S
C2042 C2041 1.362 . S
C2042 C2045 1.409 . S
C2043 H2035 0.930 . S
C2043 C2044 1.355 . S
C2043 C2045 1.415 . S
C2044 C2043 1.355 . S
C2044 C2046 1.419 . S
C2045 C2040 1.425 . S
C2045 C2042 1.409 . S
C2045 C2043 1.415 . S
C2046 H2036 0.930 . S
C2046 C2044 1.419 . S
C2046 C2047 1.362 . S
C2047 H2037 0.930 . S
C2047 C2040 1.409 . S
C2047 C2046 1.362 . S
H2048 C2054 0.930 . S
H2049 C2057 0.930 . S
H2050 C2058 0.930 . S
H2051 C2059 0.930 . S
H2052 C2062 0.930 . S
H2053 C2063 0.930 . S
C2054 H2048 0.930 . S
C2054 C2055 1.355 . S
C2054 C2056 1.415 . S
C2055 C2054 1.355 . S
C2055 C2057 1.419 . S
C2056 C2054 1.415 . S
C2056 C2061 1.425 . S
C2056 C2063 1.409 . S
C2057 H2049 0.930 . S
C2057 C2055 1.419 . S
C2057 C2058 1.362 . S
C2058 H2050 0.930 . S
C2058 C2057 1.362 . S
C2058 C2061 1.409 . S
C2059 H2051 0.930 . S
C2059 C2060 1.355 . S
C2059 C2061 1.415 1_554 S
C2060 C2059 1.355 . S
C2060 C2062 1.419 . S
C2061 C2056 1.425 . S
C2061 C2058 1.409 . S
C2061 C2059 1.415 1_556 S
C2062 H2052 0.930 . S
C2062 C2060 1.419 . S
C2062 C2063 1.362 1_554 S
C2063 H2053 0.930 . S
C2063 C2056 1.409 . S
C2063 C2062 1.362 1_556 S
H2064 C2070 0.930 . S
H2065 C2073 0.930 . S
H2066 C2074 0.930 . S
H2067 C2075 0.930 . S
H2068 C2078 0.930 . S
H2069 C2079 0.930 . S
C2070 H2064 0.930 . S
C2070 C2071 1.355 . S
C2070 C2072 1.415 . S
C2071 C2070 1.355 . S
C2071 C2073 1.419 . S
C2072 C2070 1.415 . S
C2072 C2077 1.425 . S
C2072 C2079 1.409 . S
C2073 H2065 0.930 . S
C2073 C2071 1.419 . S
C2073 C2074 1.362 . S
C2074 H2066 0.930 . S
C2074 C2073 1.362 . S
C2074 C2077 1.409 . S
C2075 H2067 0.930 . S
C2075 C2076 1.355 . S
C2075 C2077 1.415 . S
C2076 C2075 1.355 . S
C2076 C2078 1.419 . S
C2077 C2072 1.425 . S
C2077 C2074 1.409 . S
C2077 C2075 1.415 . S
C2078 H2068 0.930 . S
C2078 C2076 1.419 . S
C2078 C2079 1.362 . S
C2079 H2069 0.930 . S
C2079 C2072 1.409 . S
C2079 C2078 1.362 . S
H2080 C2086 0.930 . S
H2081 C2089 0.930 . S
H2082 C2090 0.930 . S
H2083 C2091 0.930 . S
H2084 C2094 0.930 . S
H2085 C2095 0.930 . S
C2086 H2080 0.930 . S
C2086 C2087 1.355 . S
C2086 C2088 1.415 . S
C2087 C2086 1.355 . S
C2087 C2089 1.419 . S
C2088 C2086 1.415 . S
C2088 C2093 1.425 . S
C2088 C2095 1.409 . S
C2089 H2081 0.930 . S
C2089 C2087 1.419 . S
C2089 C2090 1.362 . S
C2090 H2082 0.930 . S
C2090 C2089 1.362 . S
C2090 C2093 1.409 . S
C2091 H2083 0.930 . S
C2091 C2092 1.355 . S
C2091 C2093 1.415 . S
C2092 C2091 1.355 . S
C2092 C2094 1.419 . S
C2093 C2088 1.425 . S
C2093 C2090 1.409 . S
C2093 C2091 1.415 . S
C2094 H2084 0.930 . S
C2094 C2092 1.419 . S
C2094 C2095 1.362 . S
C2095 H2085 0.930 . S
C2095 C2088 1.409 . S
C2095 C2094 1.362 . S
H2096 C2102 0.930 . S
H2097 C2105 0.930 . S
H2098 C2106 0.930 . S
H2099 C2107 0.930 . S
H2100 C2110 0.930 . S
H2101 C2111 0.930 . S
C2102 H2096 0.930 . S
C2102 C2103 1.355 . S
C2102 C2104 1.415 . S
C2103 C2102 1.355 . S
C2103 C2105 1.419 . S
C2104 C2102 1.415 . S
C2104 C2109 1.425 . S
C2104 C2111 1.409 . S
C2105 H2097 0.930 . S
C2105 C2103 1.419 . S
C2105 C2106 1.362 . S
C2106 H2098 0.930 . S
C2106 C2105 1.362 . S
C2106 C2109 1.409 . S
C2107 H2099 0.930 . S
C2107 C2108 1.355 . S
C2107 C2109 1.415 . S
C2108 C2107 1.355 . S
C2108 C2110 1.419 . S
C2109 C2104 1.425 . S
C2109 C2106 1.409 . S
C2109 C2107 1.415 . S
C2110 H2100 0.930 . S
C2110 C2108 1.419 . S
C2110 C2111 1.362 . S
C2111 H2101 0.930 . S
C2111 C2104 1.409 . S
C2111 C2110 1.362 . S
H2112 C2118 0.930 . S
H2113 C2121 0.930 . S
H2114 C2122 0.930 . S
H2115 C2123 0.930 . S
H2116 C2126 0.930 . S
H2117 C2127 0.930 . S
C2118 H2112 0.930 . S
C2118 C2119 1.355 . S
C2118 C2120 1.415 . S
C2119 C2118 1.355 . S
C2119 C2121 1.419 . S
C2120 C2118 1.415 . S
C2120 C2125 1.425 . S
C2120 C2127 1.409 . S
C2121 H2113 0.930 . S
C2121 C2119 1.419 . S
C2121 C2122 1.362 . S
C2122 H2114 0.930 . S
C2122 C2121 1.362 . S
C2122 C2125 1.409 . S
C2123 H2115 0.930 . S
C2123 C2124 1.355 . S
C2123 C2125 1.415 . S
C2124 C2123 1.355 . S
C2124 C2126 1.419 . S
C2125 C2120 1.425 . S
C2125 C2122 1.409 . S
C2125 C2123 1.415 . S
C2126 H2116 0.930 . S
C2126 C2124 1.419 . S
C2126 C2127 1.362 . S
C2127 H2117 0.930 . S
C2127 C2120 1.409 . S
C2127 C2126 1.362 . S
H2128 C2134 0.930 . S
H2129 C2137 0.930 . S
H2130 C2138 0.930 . S
H2131 C2139 0.930 . S
H2132 C2142 0.930 . S
H2133 C2143 0.930 . S
C2134 H2128 0.930 . S
C2134 C2135 1.355 . S
C2134 C2136 1.415 . S
C2135 C2134 1.355 . S
C2135 C2137 1.419 . S
C2136 C2134 1.415 . S
C2136 C2141 1.425 . S
C2136 C2143 1.409 . S
C2137 H2129 0.930 . S
C2137 C2135 1.419 . S
C2137 C2138 1.362 . S
C2138 H2130 0.930 . S
C2138 C2137 1.362 . S
C2138 C2141 1.409 . S
C2139 H2131 0.930 . S
C2139 C2140 1.355 . S
C2139 C2141 1.415 1_554 S
C2140 C2139 1.355 . S
C2140 C2142 1.419 . S
C2141 C2136 1.425 . S
C2141 C2138 1.409 . S
C2141 C2139 1.415 1_556 S
C2142 H2132 0.930 . S
C2142 C2140 1.419 . S
C2142 C2143 1.362 1_554 S
C2143 H2133 0.930 . S
C2143 C2136 1.409 . S
C2143 C2142 1.362 1_556 S
H2144 C2150 0.930 . S
H2145 C2153 0.930 . S
H2146 C2154 0.930 . S
H2147 C2155 0.930 . S
H2148 C2158 0.930 . S
H2149 C2159 0.930 . S
C2150 H2144 0.930 . S
C2150 C2151 1.355 . S
C2150 C2152 1.415 . S
C2151 C2150 1.355 . S
C2151 C2153 1.419 . S
C2152 C2150 1.415 . S
C2152 C2157 1.425 . S
C2152 C2159 1.409 . S
C2153 H2145 0.930 . S
C2153 C2151 1.419 . S
C2153 C2154 1.362 . S
C2154 H2146 0.930 . S
C2154 C2153 1.362 . S
C2154 C2157 1.409 . S
C2155 H2147 0.930 . S
C2155 C2156 1.355 . S
C2155 C2157 1.415 . S
C2156 C2155 1.355 . S
C2156 C2158 1.419 . S
C2157 C2152 1.425 . S
C2157 C2154 1.409 . S
C2157 C2155 1.415 . S
C2158 H2148 0.930 . S
C2158 C2156 1.419 . S
C2158 C2159 1.362 . S
C2159 H2149 0.930 . S
C2159 C2152 1.409 . S
C2159 C2158 1.362 . S
H2160 C2166 0.930 . S
H2161 C2169 0.930 . S
H2162 C2170 0.930 . S
H2163 C2171 0.957 . S
H2164 C2174 0.930 . S
H2165 C2175 0.930 . S
C2166 H2160 0.930 . S
C2166 C2167 1.355 1_545 S
C2166 C2168 1.415 . S
C2167 C2166 1.355 1_565 S
C2167 C2169 1.419 . S
C2168 C2166 1.415 . S
C2168 C2173 1.425 1_545 S
C2168 C2175 1.409 . S
C2169 H2161 0.930 . S
C2169 C2167 1.419 . S
C2169 C2170 1.362 . S
C2170 H2162 0.930 . S
C2170 C2169 1.362 . S
C2170 C2173 1.409 . S
C2171 H2163 0.957 . S
C2171 C2172 1.324 1_565 S
C2171 C2173 1.419 . S
C2172 C2171 1.324 1_545 S
C2172 C2174 1.419 . S
C2173 C2168 1.425 1_565 S
C2173 C2170 1.409 . S
C2173 C2171 1.419 . S
C2174 H2164 0.930 . S
C2174 C2172 1.419 . S
C2174 C2175 1.362 . S
C2175 H2165 0.930 . S
C2175 C2168 1.409 . S
C2175 C2174 1.362 . S
H2176 C2182 0.930 . S
H2177 C2185 0.930 . S
H2178 C2186 0.930 . S
H2179 C2187 0.930 . S
H2180 C2190 0.930 . S
H2181 C2191 0.930 . S
C2182 H2176 0.930 . S
C2182 C2183 1.355 . S
C2182 C2184 1.415 . S
C2183 C2182 1.355 . S
C2183 C2185 1.419 . S
C2184 C2182 1.415 . S
C2184 C2189 1.425 . S
C2184 C2191 1.409 . S
C2185 H2177 0.930 . S
C2185 C2183 1.419 . S
C2185 C2186 1.362 . S
C2186 H2178 0.930 . S
C2186 C2185 1.362 . S
C2186 C2189 1.409 . S
C2187 H2179 0.930 . S
C2187 C2188 1.355 . S
C2187 C2189 1.415 . S
C2188 C2187 1.355 . S
C2188 C2190 1.419 . S
C2189 C2184 1.425 . S
C2189 C2186 1.409 . S
C2189 C2187 1.415 . S
C2190 H2180 0.930 . S
C2190 C2188 1.419 . S
C2190 C2191 1.362 . S
C2191 H2181 0.930 . S
C2191 C2184 1.409 . S
C2191 C2190 1.362 . S
H2192 C2198 0.930 . S
H2193 C2201 0.930 . S
H2194 C2202 0.921 1_565 S
H2195 C2203 0.930 . S
H2196 C2206 0.930 . S
H2197 C2207 0.930 . S
C2198 H2192 0.930 . S
C2198 C2199 1.355 . S
C2198 C2200 1.415 . S
C2199 C2198 1.355 . S
C2199 C2201 1.419 . S
C2200 C2198 1.415 . S
C2200 C2205 1.425 . S
C2200 C2207 1.409 . S
C2201 H2193 0.930 . S
C2201 C2199 1.419 . S
C2201 C2202 1.371 . S
C2202 H2194 0.921 1_545 S
C2202 C2201 1.371 . S
C2202 C2205 1.410 . S
C2203 H2195 0.930 . S
C2203 C2204 1.355 . S
C2203 C2205 1.415 1_565 S
C2204 C2203 1.355 . S
C2204 C2206 1.419 1_565 S
C2205 C2200 1.425 . S
C2205 C2202 1.410 . S
C2205 C2203 1.415 1_545 S
C2206 H2196 0.930 . S
C2206 C2204 1.419 1_545 S
C2206 C2207 1.362 . S
C2207 H2197 0.930 . S
C2207 C2200 1.409 . S
C2207 C2206 1.362 . S
H2208 C2214 0.930 . S
H2209 C2217 0.930 . S
H2210 C2218 0.930 . S
H2211 C2219 0.930 . S
H2212 C2222 0.930 . S
H2213 C2223 0.930 . S
C2214 H2208 0.930 . S
C2214 C2215 1.355 . S
C2214 C2216 1.415 . S
C2215 C2214 1.355 . S
C2215 C2217 1.419 . S
C2216 C2214 1.415 . S
C2216 C2221 1.425 . S
C2216 C2223 1.409 . S
C2217 H2209 0.930 . S
C2217 C2215 1.419 . S
C2217 C2218 1.362 . S
C2218 H2210 0.930 . S
C2218 C2217 1.362 . S
C2218 C2221 1.409 . S
C2219 H2211 0.930 . S
C2219 C2220 1.355 . S
C2219 C2221 1.415 . S
C2220 C2219 1.355 . S
C2220 C2222 1.419 . S
C2221 C2216 1.425 . S
C2221 C2218 1.409 . S
C2221 C2219 1.415 . S
C2222 H2212 0.930 . S
C2222 C2220 1.419 . S
C2222 C2223 1.362 . S
C2223 H2213 0.930 . S
C2223 C2216 1.409 . S
C2223 C2222 1.362 . S
H2224 C2230 0.953 . S
H2225 C2233 0.930 . S
H2226 C2234 0.930 . S
H2227 C2235 0.930 . S
H2228 C2238 0.930 . S
H2229 C2239 0.930 . S
C2230 H2224 0.953 . S
C2230 C2231 1.329 1_565 S
C2230 C2232 1.418 . S
C2231 C2230 1.329 1_545 S
C2231 C2233 1.419 . S
C2232 C2230 1.418 . S
C2232 C2237 1.425 1_565 S
C2232 C2239 1.409 . S
C2233 H2225 0.930 . S
C2233 C2231 1.419 . S
C2233 C2234 1.362 . S
C2234 H2226 0.930 . S
C2234 C2233 1.362 . S
C2234 C2237 1.409 . S
C2235 H2227 0.930 . S
C2235 C2236 1.355 1_545 S
C2235 C2237 1.415 . S
C2236 C2235 1.355 1_565 S
C2236 C2238 1.419 . S
C2237 C2232 1.425 1_545 S
C2237 C2234 1.409 . S
C2237 C2235 1.415 . S
C2238 H2228 0.930 . S
C2238 C2236 1.419 . S
C2238 C2239 1.362 . S
C2239 H2229 0.930 . S
C2239 C2232 1.409 . S
C2239 C2238 1.362 . S
H2240 C2246 0.930 . S
H2241 C2249 0.930 . S
H2242 C2250 0.930 . S
H2243 C2251 0.930 . S
H2244 C2254 0.930 . S
H2245 C2255 0.930 . S
C2246 H2240 0.930 . S
C2246 C2247 1.355 . S
C2246 C2248 1.415 . S
C2247 C2246 1.355 . S
C2247 C2249 1.419 . S
C2248 C2246 1.415 . S
C2248 C2253 1.425 . S
C2248 C2255 1.409 . S
C2249 H2241 0.930 . S
C2249 C2247 1.419 . S
C2249 C2250 1.362 . S
C2250 H2242 0.930 . S
C2250 C2249 1.362 . S
C2250 C2253 1.409 . S
C2251 H2243 0.930 . S
C2251 C2252 1.355 . S
C2251 C2253 1.415 . S
C2252 C2251 1.355 . S
C2252 C2254 1.419 . S
C2253 C2248 1.425 . S
C2253 C2250 1.409 . S
C2253 C2251 1.415 . S
C2254 H2244 0.930 . S
C2254 C2252 1.419 . S
C2254 C2255 1.362 . S
C2255 H2245 0.930 . S
C2255 C2248 1.409 . S
C2255 C2254 1.362 . S
H2256 C2262 0.930 1_565 S
H2257 C2265 0.930 . S
H2258 C2266 0.930 . S
H2259 C2267 0.930 . S
H2260 C2270 0.930 . S
H2261 C2271 0.930 . S
C2262 H2256 0.930 1_545 S
C2262 C2263 1.355 . S
C2262 C2264 1.415 1_545 S
C2263 C2262 1.355 . S
C2263 C2265 1.419 . S
C2264 C2262 1.415 1_565 S
C2264 C2269 1.425 1_565 S
C2264 C2271 1.409 . S
C2265 H2257 0.930 . S
C2265 C2263 1.419 . S
C2265 C2266 1.362 . S
C2266 H2258 0.930 . S
C2266 C2265 1.362 . S
C2266 C2269 1.409 . S
C2267 H2259 0.930 . S
C2267 C2268 1.355 1_545 S
C2267 C2269 1.415 . S
C2268 C2267 1.355 1_565 S
C2268 C2270 1.419 . S
C2269 C2264 1.425 1_545 S
C2269 C2266 1.409 . S
C2269 C2267 1.415 . S
C2270 H2260 0.930 . S
C2270 C2268 1.419 . S
C2270 C2271 1.362 . S
C2271 H2261 0.930 . S
C2271 C2264 1.409 . S
C2271 C2270 1.362 . S
H2272 C2278 0.930 . S
H2273 C2281 0.930 . S
H2274 C2282 0.930 . S
H2275 C2283 0.930 . S
H2276 C2286 0.930 . S
H2277 C2287 0.930 . S
C2278 H2272 0.930 . S
C2278 C2279 1.355 . S
C2278 C2280 1.415 . S
C2279 C2278 1.355 . S
C2279 C2281 1.419 . S
C2280 C2278 1.415 . S
C2280 C2285 1.425 . S
C2280 C2287 1.409 . S
C2281 H2273 0.930 . S
C2281 C2279 1.419 . S
C2281 C2282 1.362 . S
C2282 H2274 0.930 . S
C2282 C2281 1.362 . S
C2282 C2285 1.409 . S
C2283 H2275 0.930 . S
C2283 C2284 1.355 . S
C2283 C2285 1.415 . S
C2284 C2283 1.355 . S
C2284 C2286 1.419 . S
C2285 C2280 1.425 . S
C2285 C2282 1.409 . S
C2285 C2283 1.415 . S
C2286 H2276 0.930 . S
C2286 C2284 1.419 . S
C2286 C2287 1.362 . S
C2287 H2277 0.930 . S
C2287 C2280 1.409 . S
C2287 C2286 1.362 . S
H2288 C2294 0.930 . S
H2289 C2297 0.930 . S
H2290 C2298 0.930 . S
H2291 C2299 0.930 . S
H2292 C2302 0.930 . S
H2293 C2303 0.930 . S
C2294 H2288 0.930 . S
C2294 C2295 1.355 . S
C2294 C2296 1.415 . S
C2295 C2294 1.355 . S
C2295 C2297 1.419 . S
C2296 C2294 1.415 . S
C2296 C2301 1.425 . S
C2296 C2303 1.409 . S
C2297 H2289 0.930 . S
C2297 C2295 1.419 . S
C2297 C2298 1.362 . S
C2298 H2290 0.930 . S
C2298 C2297 1.362 . S
C2298 C2301 1.409 . S
C2299 H2291 0.930 . S
C2299 C2300 1.355 . S
C2299 C2301 1.415 . S
C2300 C2299 1.355 . S
C2300 C2302 1.419 . S
C2301 C2296 1.425 . S
C2301 C2298 1.409 . S
C2301 C2299 1.415 . S
C2302 H2292 0.930 . S
C2302 C2300 1.419 . S
C2302 C2303 1.362 . S
C2303 H2293 0.930 . S
C2303 C2296 1.409 . S
C2303 C2302 1.362 . S
H2304 C2310 0.930 . S
H2305 C2313 0.930 . S
H2306 C2314 0.930 . S
H2307 C2315 0.930 . S
H2308 C2318 0.930 . S
H2309 C2319 0.930 . S
C2310 H2304 0.930 . S
C2310 C2311 1.355 . S
C2310 C2312 1.415 . S
C2311 C2310 1.355 . S
C2311 C2313 1.419 . S
C2312 C2310 1.415 . S
C2312 C2317 1.425 . S
C2312 C2319 1.409 . S
C2313 H2305 0.930 . S
C2313 C2311 1.419 . S
C2313 C2314 1.362 . S
C2314 H2306 0.930 . S
C2314 C2313 1.362 . S
C2314 C2317 1.409 . S
C2315 H2307 0.930 . S
C2315 C2316 1.355 . S
C2315 C2317 1.415 . S
C2316 C2315 1.355 . S
C2316 C2318 1.419 . S
C2317 C2312 1.425 . S
C2317 C2314 1.409 . S
C2317 C2315 1.415 . S
C2318 H2308 0.930 . S
C2318 C2316 1.419 . S
C2318 C2319 1.362 . S
C2319 H2309 0.930 . S
C2319 C2312 1.409 . S
C2319 C2318 1.362 . S
H2320 C2326 0.930 . S
H2321 C2329 0.930 . S
H2322 C2330 0.930 . S
H2323 C2331 0.930 . S
H2324 C2334 0.930 1_556 S
H2325 C2335 0.930 . S
C2326 H2320 0.930 . S
C2326 C2327 1.355 . S
C2326 C2328 1.415 . S
C2327 C2326 1.355 . S
C2327 C2329 1.419 . S
C2328 C2326 1.415 . S
C2328 C2333 1.425 . S
C2328 C2335 1.409 . S
C2329 H2321 0.930 . S
C2329 C2327 1.419 . S
C2329 C2330 1.362 . S
C2330 H2322 0.930 . S
C2330 C2329 1.362 . S
C2330 C2333 1.409 . S
C2331 H2323 0.930 . S
C2331 C2332 1.355 . S
C2331 C2333 1.415 . S
C2332 C2331 1.355 . S
C2332 C2334 1.419 . S
C2333 C2328 1.425 . S
C2333 C2330 1.409 . S
C2333 C2331 1.415 . S
C2334 H2324 0.930 1_554 S
C2334 C2332 1.419 . S
C2334 C2335 1.362 . S
C2335 H2325 0.930 . S
C2335 C2328 1.409 . S
C2335 C2334 1.362 . S
H2336 C2342 0.930 . S
H2337 C2345 0.930 . S
H2338 C2346 0.930 . S
H2339 C2347 0.930 . S
H2340 C2350 0.930 . S
H2341 C2351 0.930 . S
C2342 H2336 0.930 . S
C2342 C2343 1.355 . S
C2342 C2344 1.415 . S
C2343 C2342 1.355 . S
C2343 C2345 1.419 . S
C2344 C2342 1.415 . S
C2344 C2349 1.425 . S
C2344 C2351 1.409 . S
C2345 H2337 0.930 . S
C2345 C2343 1.419 . S
C2345 C2346 1.362 . S
C2346 H2338 0.930 . S
C2346 C2345 1.362 . S
C2346 C2349 1.409 . S
C2347 H2339 0.930 . S
C2347 C2348 1.355 . S
C2347 C2349 1.415 . S
C2348 C2347 1.355 . S
C2348 C2350 1.419 . S
C2349 C2344 1.425 . S
C2349 C2346 1.409 . S
C2349 C2347 1.415 . S
C2350 H2340 0.930 . S
C2350 C2348 1.419 . S
C2350 C2351 1.362 . S
C2351 H2341 0.930 . S
C2351 C2344 1.409 . S
C2351 C2350 1.362 . S
H2352 C2358 0.930 . S
H2353 C2361 0.930 . S
H2354 C2362 0.930 . S
H2355 C2363 0.930 . S
H2356 C2366 0.930 . S
H2357 C2367 0.930 . S
C2358 H2352 0.930 . S
C2358 C2359 1.355 . S
C2358 C2360 1.415 . S
C2359 C2358 1.355 . S
C2359 C2361 1.419 . S
C2360 C2358 1.415 . S
C2360 C2365 1.425 . S
C2360 C2367 1.409 . S
C2361 H2353 0.930 . S
C2361 C2359 1.419 . S
C2361 C2362 1.362 . S
C2362 H2354 0.930 . S
C2362 C2361 1.362 . S
C2362 C2365 1.409 . S
C2363 H2355 0.930 . S
C2363 C2364 1.355 . S
C2363 C2365 1.415 . S
C2364 C2363 1.355 . S
C2364 C2366 1.419 . S
C2365 C2360 1.425 . S
C2365 C2362 1.409 . S
C2365 C2363 1.415 . S
C2366 H2356 0.930 . S
C2366 C2364 1.419 . S
C2366 C2367 1.362 . S
C2367 H2357 0.930 . S
C2367 C2360 1.409 . S
C2367 C2366 1.362 . S
H2368 C2374 0.930 . S
H2369 C2377 0.930 . S
H2370 C2378 0.930 . S
H2371 C2379 0.930 . S
H2372 C2382 0.930 . S
H2373 C2383 0.930 . S
C2374 H2368 0.930 . S
C2374 C2375 1.355 . S
C2374 C2376 1.415 . S
C2375 C2374 1.355 . S
C2375 C2377 1.419 . S
C2376 C2374 1.415 . S
C2376 C2381 1.425 . S
C2376 C2383 1.409 . S
C2377 H2369 0.930 . S
C2377 C2375 1.419 . S
C2377 C2378 1.362 . S
C2378 H2370 0.930 . S
C2378 C2377 1.362 . S
C2378 C2381 1.409 . S
C2379 H2371 0.930 . S
C2379 C2380 1.355 . S
C2379 C2381 1.415 . S
C2380 C2379 1.355 . S
C2380 C2382 1.419 . S
C2381 C2376 1.425 . S
C2381 C2378 1.409 . S
C2381 C2379 1.415 . S
C2382 H2372 0.930 . S
C2382 C2380 1.419 . S
C2382 C2383 1.362 . S
C2383 H2373 0.930 . S
C2383 C2376 1.409 . S
C2383 C2382 1.362 . S
H2384 C2390 0.930 . S
H2385 C2393 0.930 . S
H2386 C2394 0.930 . S
H2387 C2395 0.930 . S
H2388 C2398 0.930 1_556 S
H2389 C2399 0.930 . S
C2390 H2384 0.930 . S
C2390 C2391 1.355 . S
C2390 C2392 1.415 . S
C2391 C2390 1.355 . S
C2391 C2393 1.419 . S
C2392 C2390 1.415 . S
C2392 C2397 1.425 . S
C2392 C2399 1.409 . S
C2393 H2385 0.930 . S
C2393 C2391 1.419 . S
C2393 C2394 1.362 . S
C2394 H2386 0.930 . S
C2394 C2393 1.362 . S
C2394 C2397 1.409 . S
C2395 H2387 0.930 . S
C2395 C2396 1.355 . S
C2395 C2397 1.415 . S
C2396 C2395 1.355 . S
C2396 C2398 1.419 . S
C2397 C2392 1.425 . S
C2397 C2394 1.409 . S
C2397 C2395 1.415 . S
C2398 H2388 0.930 1_554 S
C2398 C2396 1.419 . S
C2398 C2399 1.362 . S
C2399 H2389 0.930 . S
C2399 C2392 1.409 . S
C2399 C2398 1.362 . S
H2400 C2406 0.930 . S
H2401 C2409 0.930 . S
H2402 C2410 0.930 . S
H2403 C2411 0.930 . S
H2404 C2414 0.930 1_556 S
H2405 C2415 0.930 1_556 S
C2406 H2400 0.930 . S
C2406 C2407 1.355 . S
C2406 C2408 1.415 . S
C2407 C2406 1.355 . S
C2407 C2409 1.419 . S
C2408 C2406 1.415 . S
C2408 C2413 1.425 . S
C2408 C2415 1.409 . S
C2409 H2401 0.930 . S
C2409 C2407 1.419 . S
C2409 C2410 1.362 . S
C2410 H2402 0.930 . S
C2410 C2409 1.362 . S
C2410 C2413 1.409 . S
C2411 H2403 0.930 . S
C2411 C2412 1.355 . S
C2411 C2413 1.415 . S
C2412 C2411 1.355 . S
C2412 C2414 1.419 . S
C2413 C2408 1.425 . S
C2413 C2410 1.409 . S
C2413 C2411 1.415 . S
C2414 H2404 0.930 1_554 S
C2414 C2412 1.419 . S
C2414 C2415 1.362 . S
C2415 H2405 0.930 1_554 S
C2415 C2408 1.409 . S
C2415 C2414 1.362 . S
H2416 C2422 0.930 . S
H2417 C2425 0.930 . S
H2418 C2426 0.930 . S
H2419 C2427 0.930 . S
H2420 C2430 0.930 . S
H2421 C2431 0.930 1_545 S
C2422 H2416 0.930 . S
C2422 C2423 1.355 . S
C2422 C2424 1.415 . S
C2423 C2422 1.355 . S
C2423 C2425 1.419 . S
C2424 C2422 1.415 . S
C2424 C2429 1.425 1_455 S
C2424 C2431 1.409 1_455 S
C2425 H2417 0.930 . S
C2425 C2423 1.419 . S
C2425 C2426 1.362 . S
C2426 H2418 0.930 . S
C2426 C2425 1.362 . S
C2426 C2429 1.409 1_455 S
C2427 H2419 0.930 . S
C2427 C2428 1.355 . S
C2427 C2429 1.415 . S
C2428 C2427 1.355 . S
C2428 C2430 1.419 . S
C2429 C2424 1.425 1_655 S
C2429 C2426 1.409 1_655 S
C2429 C2427 1.415 . S
C2430 H2420 0.930 . S
C2430 C2428 1.419 . S
C2430 C2431 1.362 . S
C2431 H2421 0.930 1_565 S
C2431 C2424 1.409 1_655 S
C2431 C2430 1.362 . S
H2432 C2438 0.930 . S
H2433 C2441 0.930 . S
H2434 C2442 0.930 . S
H2435 C2443 0.930 . S
H2436 C2446 0.930 . S
H2437 C2447 0.930 . S
C2438 H2432 0.930 . S
C2438 C2439 1.355 . S
C2438 C2440 1.415 . S
C2439 C2438 1.355 . S
C2439 C2441 1.419 . S
C2440 C2438 1.415 . S
C2440 C2445 1.425 . S
C2440 C2447 1.409 . S
C2441 H2433 0.930 . S
C2441 C2439 1.419 . S
C2441 C2442 1.362 . S
C2442 H2434 0.930 . S
C2442 C2441 1.362 . S
C2442 C2445 1.409 . S
C2443 H2435 0.930 . S
C2443 C2444 1.355 . S
C2443 C2445 1.415 . S
C2444 C2443 1.355 . S
C2444 C2446 1.419 . S
C2445 C2440 1.425 . S
C2445 C2442 1.409 . S
C2445 C2443 1.415 . S
C2446 H2436 0.930 . S
C2446 C2444 1.419 . S
C2446 C2447 1.362 . S
C2447 H2437 0.930 . S
C2447 C2440 1.409 . S
C2447 C2446 1.362 . S
H2448 C2454 0.930 . S
H2449 C2457 0.930 . S
H2450 C2458 0.930 . S
H2451 C2459 0.930 . S
H2452 C2462 0.930 . S
H2453 C2463 0.930 1_565 S
C2454 H2448 0.930 . S
C2454 C2455 1.355 . S
C2454 C2456 1.415 . S
C2455 C2454 1.355 . S
C2455 C2457 1.419 . S
C2456 C2454 1.415 . S
C2456 C2461 1.425 . S
C2456 C2463 1.409 . S
C2457 H2449 0.930 . S
C2457 C2455 1.419 . S
C2457 C2458 1.362 . S
C2458 H2450 0.930 . S
C2458 C2457 1.362 . S
C2458 C2461 1.409 . S
C2459 H2451 0.930 . S
C2459 C2460 1.355 . S
C2459 C2461 1.415 . S
C2460 C2459 1.355 . S
C2460 C2462 1.419 . S
C2461 C2456 1.425 . S
C2461 C2458 1.409 . S
C2461 C2459 1.415 . S
C2462 H2452 0.930 . S
C2462 C2460 1.419 . S
C2462 C2463 1.362 . S
C2463 H2453 0.930 1_545 S
C2463 C2456 1.409 . S
C2463 C2462 1.362 . S
H2464 C2470 0.930 . S
H2465 C2473 0.930 . S
H2466 C2474 0.930 . S
H2467 C2475 0.930 . S
H2468 C2478 0.930 . S
H2469 C2479 0.930 . S
C2470 H2464 0.930 . S
C2470 C2471 1.355 . S
C2470 C2472 1.415 . S
C2471 C2470 1.355 . S
C2471 C2473 1.419 . S
C2472 C2470 1.415 . S
C2472 C2477 1.425 . S
C2472 C2479 1.409 . S
C2473 H2465 0.930 . S
C2473 C2471 1.419 . S
C2473 C2474 1.362 . S
C2474 H2466 0.930 . S
C2474 C2473 1.362 . S
C2474 C2477 1.409 . S
C2475 H2467 0.930 . S
C2475 C2476 1.355 . S
C2475 C2477 1.415 . S
C2476 C2475 1.355 . S
C2476 C2478 1.419 . S
C2477 C2472 1.425 . S
C2477 C2474 1.409 . S
C2477 C2475 1.415 . S
C2478 H2468 0.930 . S
C2478 C2476 1.419 . S
C2478 C2479 1.362 . S
C2479 H2469 0.930 . S
C2479 C2472 1.409 . S
C2479 C2478 1.362 . S
H2480 C2486 0.930 . S
H2481 C2489 0.930 1_545 S
H2482 C2490 0.930 . S
H2483 C2491 0.930 1_545 S
H2484 C2494 0.930 . S
H2485 C2495 0.930 . S
C2486 H2480 0.930 . S
C2486 C2487 1.355 . S
C2486 C2488 1.415 . S
C2487 C2486 1.355 . S
C2487 C2489 1.419 . S
C2488 C2486 1.415 . S
C2488 C2493 1.425 . S
C2488 C2495 1.409 . S
C2489 H2481 0.930 1_565 S
C2489 C2487 1.419 . S
C2489 C2490 1.362 1_565 S
C2490 H2482 0.930 . S
C2490 C2489 1.362 1_545 S
C2490 C2493 1.409 1_545 S
C2491 H2483 0.930 1_565 S
C2491 C2492 1.355 . S
C2491 C2493 1.415 . S
C2492 C2491 1.355 . S
C2492 C2494 1.419 . S
C2493 C2488 1.425 . S
C2493 C2490 1.409 1_565 S
C2493 C2491 1.415 . S
C2494 H2484 0.930 . S
C2494 C2492 1.419 . S
C2494 C2495 1.362 . S
C2495 H2485 0.930 . S
C2495 C2488 1.409 . S
C2495 C2494 1.362 . S
H2496 C2502 0.930 . S
H2497 C2505 0.930 . S
H2498 C2506 0.930 . S
H2499 C2507 0.930 . S
H2500 C2510 0.930 . S
H2501 C2511 0.930 . S
C2502 H2496 0.930 . S
C2502 C2503 1.355 . S
C2502 C2504 1.415 . S
C2503 C2502 1.355 . S
C2503 C2505 1.419 . S
C2504 C2502 1.415 . S
C2504 C2509 1.425 . S
C2504 C2511 1.409 . S
C2505 H2497 0.930 . S
C2505 C2503 1.419 . S
C2505 C2506 1.362 . S
C2506 H2498 0.930 . S
C2506 C2505 1.362 . S
C2506 C2509 1.409 . S
C2507 H2499 0.930 . S
C2507 C2508 1.355 . S
C2507 C2509 1.415 . S
C2508 C2507 1.355 . S
C2508 C2510 1.419 . S
C2509 C2504 1.425 . S
C2509 C2506 1.409 . S
C2509 C2507 1.415 . S
C2510 H2500 0.930 . S
C2510 C2508 1.419 . S
C2510 C2511 1.362 . S
C2511 H2501 0.930 . S
C2511 C2504 1.409 . S
C2511 C2510 1.362 . S
H2512 C2518 0.930 . S
H2513 C2521 0.930 . S
H2514 C2522 0.930 . S
H2515 C2523 0.930 . S
H2516 C2526 0.930 . S
H2517 C2527 0.930 . S
C2518 H2512 0.930 . S
C2518 C2519 1.355 . S
C2518 C2520 1.415 . S
C2519 C2518 1.355 . S
C2519 C2521 1.419 . S
C2520 C2518 1.415 . S
C2520 C2525 1.425 1_655 S
C2520 C2527 1.409 1_655 S
C2521 H2513 0.930 . S
C2521 C2519 1.419 . S
C2521 C2522 1.362 . S
C2522 H2514 0.930 . S
C2522 C2521 1.362 . S
C2522 C2525 1.409 1_655 S
C2523 H2515 0.930 . S
C2523 C2524 1.355 . S
C2523 C2525 1.415 . S
C2524 C2523 1.355 . S
C2524 C2526 1.419 . S
C2525 C2520 1.425 1_455 S
C2525 C2522 1.409 1_455 S
C2525 C2523 1.415 . S
C2526 H2516 0.930 . S
C2526 C2524 1.419 . S
C2526 C2527 1.362 . S
C2527 H2517 0.930 . S
C2527 C2520 1.409 1_455 S
C2527 C2526 1.362 . S
H2528 C2534 0.930 . S
H2529 C2537 0.930 . S
H2530 C2538 0.930 . S
H2531 C2539 0.930 . S
H2532 C2542 0.930 . S
H2533 C2543 0.930 . S
C2534 H2528 0.930 . S
C2534 C2535 1.355 . S
C2534 C2536 1.415 . S
C2535 C2534 1.355 . S
C2535 C2537 1.419 . S
C2536 C2534 1.415 . S
C2536 C2541 1.425 . S
C2536 C2543 1.409 . S
C2537 H2529 0.930 . S
C2537 C2535 1.419 . S
C2537 C2538 1.362 . S
C2538 H2530 0.930 . S
C2538 C2537 1.362 . S
C2538 C2541 1.409 . S
C2539 H2531 0.930 . S
C2539 C2540 1.355 . S
C2539 C2541 1.415 . S
C2540 C2539 1.355 . S
C2540 C2542 1.419 . S
C2541 C2536 1.425 . S
C2541 C2538 1.409 . S
C2541 C2539 1.415 . S
C2542 H2532 0.930 . S
C2542 C2540 1.419 . S
C2542 C2543 1.362 . S
C2543 H2533 0.930 . S
C2543 C2536 1.409 . S
C2543 C2542 1.362 . S
H2544 C2550 0.930 . S
H2545 C2553 0.930 . S
H2546 C2554 0.930 . S
H2547 C2555 0.930 . S
H2548 C2558 0.930 . S
H2549 C2559 0.930 . S
C2550 H2544 0.930 . S
C2550 C2551 1.355 . S
C2550 C2552 1.415 . S
C2551 C2550 1.355 . S
C2551 C2553 1.419 . S
C2552 C2550 1.415 . S
C2552 C2557 1.425 . S
C2552 C2559 1.409 . S
C2553 H2545 0.930 . S
C2553 C2551 1.419 . S
C2553 C2554 1.362 . S
C2554 H2546 0.930 . S
C2554 C2553 1.362 . S
C2554 C2557 1.409 . S
C2555 H2547 0.930 . S
C2555 C2556 1.355 . S
C2555 C2557 1.415 . S
C2556 C2555 1.355 . S
C2556 C2558 1.419 . S
C2557 C2552 1.425 . S
C2557 C2554 1.409 . S
C2557 C2555 1.415 . S
C2558 H2548 0.930 . S
C2558 C2556 1.419 . S
C2558 C2559 1.362 . S
C2559 H2549 0.930 . S
C2559 C2552 1.409 . S
C2559 C2558 1.362 . S
H2560 C2566 0.920 1_556 S
H2561 C2569 0.930 . S
H2562 C2570 0.930 . S
H2563 C2571 0.930 . S
H2564 C2574 0.930 1_556 S
H2565 C2575 0.935 . S
C2566 H2560 0.920 1_554 S
C2566 C2567 1.355 . S
C2566 C2568 1.415 . S
C2567 C2566 1.355 . S
C2567 C2569 1.419 . S
C2568 C2566 1.415 . S
C2568 C2573 1.425 . S
C2568 C2575 1.405 1_554 S
C2569 H2561 0.930 . S
C2569 C2567 1.419 . S
C2569 C2570 1.362 . S
C2570 H2562 0.930 . S
C2570 C2569 1.362 . S
C2570 C2573 1.409 . S
C2571 H2563 0.930 . S
C2571 C2572 1.355 . S
C2571 C2573 1.415 . S
C2572 C2571 1.355 . S
C2572 C2574 1.419 . S
C2573 C2568 1.425 . S
C2573 C2570 1.409 . S
C2573 C2571 1.415 . S
C2574 H2564 0.930 1_554 S
C2574 C2572 1.419 . S
C2574 C2575 1.361 1_554 S
C2575 H2565 0.935 . S
C2575 C2568 1.405 1_556 S
C2575 C2574 1.361 1_556 S
H2576 C2582 0.930 . S
H2577 C2585 0.930 . S
H2578 C2586 0.930 . S
H2579 C2587 0.930 . S
H2580 C2590 0.930 . S
H2581 C2591 0.930 . S
C2582 H2576 0.930 . S
C2582 C2583 1.355 . S
C2582 C2584 1.415 . S
C2583 C2582 1.355 . S
C2583 C2585 1.419 . S
C2584 C2582 1.415 . S
C2584 C2589 1.425 . S
C2584 C2591 1.409 . S
C2585 H2577 0.930 . S
C2585 C2583 1.419 . S
C2585 C2586 1.362 . S
C2586 H2578 0.930 . S
C2586 C2585 1.362 . S
C2586 C2589 1.409 . S
C2587 H2579 0.930 . S
C2587 C2588 1.355 . S
C2587 C2589 1.415 . S
C2588 C2587 1.355 . S
C2588 C2590 1.419 . S
C2589 C2584 1.425 . S
C2589 C2586 1.409 . S
C2589 C2587 1.415 . S
C2590 H2580 0.930 . S
C2590 C2588 1.419 . S
C2590 C2591 1.362 . S
C2591 H2581 0.930 . S
C2591 C2584 1.409 . S
C2591 C2590 1.362 . S
H2592 C2598 0.930 . S
H2593 C2601 0.930 . S
H2594 C2602 0.930 . S
H2595 C2603 0.930 . S
H2596 C2606 0.930 . S
H2597 C2607 0.930 . S
C2598 H2592 0.930 . S
C2598 C2599 1.355 . S
C2598 C2600 1.415 . S
C2599 C2598 1.355 . S
C2599 C2601 1.419 . S
C2600 C2598 1.415 . S
C2600 C2605 1.425 . S
C2600 C2607 1.409 . S
C2601 H2593 0.930 . S
C2601 C2599 1.419 . S
C2601 C2602 1.362 . S
C2602 H2594 0.930 . S
C2602 C2601 1.362 . S
C2602 C2605 1.409 . S
C2603 H2595 0.930 . S
C2603 C2604 1.355 . S
C2603 C2605 1.415 . S
C2604 C2603 1.355 . S
C2604 C2606 1.419 . S
C2605 C2600 1.425 . S
C2605 C2602 1.409 . S
C2605 C2603 1.415 . S
C2606 H2596 0.930 . S
C2606 C2604 1.419 . S
C2606 C2607 1.362 . S
C2607 H2597 0.930 . S
C2607 C2600 1.409 . S
C2607 C2606 1.362 . S
H2608 C2614 0.930 . S
H2609 C2617 0.930 . S
H2610 C2618 0.930 . S
H2611 C2619 0.930 . S
H2612 C2622 0.930 . S
H2613 C2623 0.930 . S
C2614 H2608 0.930 . S
C2614 C2615 1.355 . S
C2614 C2616 1.415 . S
C2615 C2614 1.355 . S
C2615 C2617 1.419 . S
C2616 C2614 1.415 . S
C2616 C2621 1.425 1_655 S
C2616 C2623 1.409 1_655 S
C2617 H2609 0.930 . S
C2617 C2615 1.419 . S
C2617 C2618 1.362 . S
C2618 H2610 0.930 . S
C2618 C2617 1.362 . S
C2618 C2621 1.409 1_655 S
C2619 H2611 0.930 . S
C2619 C2620 1.355 . S
C2619 C2621 1.415 . S
C2620 C2619 1.355 . S
C2620 C2622 1.419 . S
C2621 C2616 1.425 1_455 S
C2621 C2618 1.409 1_455 S
C2621 C2619 1.415 . S
C2622 H2612 0.930 . S
C2622 C2620 1.419 . S
C2622 C2623 1.362 . S
C2623 H2613 0.930 . S
C2623 C2616 1.409 1_455 S
C2623 C2622 1.362 . S
H2624 C2630 0.930 . S
H2625 C2633 0.930 . S
H2626 C2634 0.930 . S
H2627 C2635 0.930 . S
H2628 C2638 0.930 . S
H2629 C2639 0.930 . S
C2630 H2624 0.930 . S
C2630 C2631 1.355 . S
C2630 C2632 1.415 . S
C2631 C2630 1.355 . S
C2631 C2633 1.419 . S
C2632 C2630 1.415 . S
C2632 C2637 1.425 1_655 S
C2632 C2639 1.409 1_655 S
C2633 H2625 0.930 . S
C2633 C2631 1.419 . S
C2633 C2634 1.362 . S
C2634 H2626 0.930 . S
C2634 C2633 1.362 . S
C2634 C2637 1.409 1_655 S
C2635 H2627 0.930 . S
C2635 C2636 1.355 . S
C2635 C2637 1.415 . S
C2636 C2635 1.355 . S
C2636 C2638 1.419 . S
C2637 C2632 1.425 1_455 S
C2637 C2634 1.409 1_455 S
C2637 C2635 1.415 . S
C2638 H2628 0.930 . S
C2638 C2636 1.419 . S
C2638 C2639 1.362 . S
C2639 H2629 0.930 . S
C2639 C2632 1.409 1_455 S
C2639 C2638 1.362 . S
H2640 C2646 0.930 . S
H2641 C2649 0.930 . S
H2642 C2650 0.930 . S
H2643 C2651 0.930 . S
H2644 C2654 0.930 . S
H2645 C2655 0.930 . S
C2646 H2640 0.930 . S
C2646 C2647 1.355 . S
C2646 C2648 1.415 . S
C2647 C2646 1.355 . S
C2647 C2649 1.419 . S
C2648 C2646 1.415 . S
C2648 C2653 1.425 . S
C2648 C2655 1.409 . S
C2649 H2641 0.930 . S
C2649 C2647 1.419 . S
C2649 C2650 1.362 . S
C2650 H2642 0.930 . S
C2650 C2649 1.362 . S
C2650 C2653 1.409 . S
C2651 H2643 0.930 . S
C2651 C2652 1.355 . S
C2651 C2653 1.415 . S
C2652 C2651 1.355 . S
C2652 C2654 1.419 . S
C2653 C2648 1.425 . S
C2653 C2650 1.409 . S
C2653 C2651 1.415 . S
C2654 H2644 0.930 . S
C2654 C2652 1.419 . S
C2654 C2655 1.362 . S
C2655 H2645 0.930 . S
C2655 C2648 1.409 . S
C2655 C2654 1.362 . S
H2656 C2662 0.930 . S
H2657 C2665 0.930 . S
H2658 C2666 0.930 . S
H2659 C2667 0.930 . S
H2660 C2670 0.930 . S
H2661 C2671 0.930 . S
C2662 H2656 0.930 . S
C2662 C2663 1.355 . S
C2662 C2664 1.415 . S
C2663 C2662 1.355 . S
C2663 C2665 1.419 . S
C2664 C2662 1.415 . S
C2664 C2669 1.425 . S
C2664 C2671 1.409 . S
C2665 H2657 0.930 . S
C2665 C2663 1.419 . S
C2665 C2666 1.362 . S
C2666 H2658 0.930 . S
C2666 C2665 1.362 . S
C2666 C2669 1.409 . S
C2667 H2659 0.930 . S
C2667 C2668 1.355 . S
C2667 C2669 1.415 . S
C2668 C2667 1.355 . S
C2668 C2670 1.419 . S
C2669 C2664 1.425 . S
C2669 C2666 1.409 . S
C2669 C2667 1.415 . S
C2670 H2660 0.930 . S
C2670 C2668 1.419 . S
C2670 C2671 1.362 . S
C2671 H2661 0.930 . S
C2671 C2664 1.409 . S
C2671 C2670 1.362 . S
H2672 C2678 0.930 . S
H2673 C2681 0.929 1_565 S
H2674 C2682 0.930 . S
H2675 C2683 0.930 . S
H2676 C2686 0.930 . S
H2677 C2687 0.928 . S
C2678 H2672 0.930 . S
C2678 C2679 1.355 . S
C2678 C2680 1.415 1_565 S
C2679 C2678 1.355 . S
C2679 C2681 1.421 1_565 S
C2680 C2678 1.415 1_545 S
C2680 C2685 1.425 . S
C2680 C2687 1.409 . S
C2681 H2673 0.929 1_545 S
C2681 C2679 1.421 1_545 S
C2681 C2682 1.361 . S
C2682 H2674 0.930 . S
C2682 C2681 1.361 . S
C2682 C2685 1.409 . S
C2683 H2675 0.930 . S
C2683 C2684 1.355 . S
C2683 C2685 1.415 . S
C2684 C2683 1.355 . S
C2684 C2686 1.419 . S
C2685 C2680 1.425 . S
C2685 C2682 1.409 . S
C2685 C2683 1.415 . S
C2686 H2676 0.930 . S
C2686 C2684 1.419 . S
C2686 C2687 1.362 . S
C2687 H2677 0.928 . S
C2687 C2680 1.409 . S
C2687 C2686 1.362 . S
H2688 C2694 0.930 . S
H2689 C2697 0.930 . S
H2690 C2698 0.930 . S
H2691 C2699 0.930 . S
H2692 C2702 0.930 . S
H2693 C2703 0.930 . S
C2694 H2688 0.930 . S
C2694 C2695 1.355 . S
C2694 C2696 1.415 . S
C2695 C2694 1.355 . S
C2695 C2697 1.419 . S
C2696 C2694 1.415 . S
C2696 C2701 1.425 . S
C2696 C2703 1.409 . S
C2697 H2689 0.930 . S
C2697 C2695 1.419 . S
C2697 C2698 1.362 . S
C2698 H2690 0.930 . S
C2698 C2697 1.362 . S
C2698 C2701 1.409 . S
C2699 H2691 0.930 . S
C2699 C2700 1.355 . S
C2699 C2701 1.415 . S
C2700 C2699 1.355 . S
C2700 C2702 1.419 . S
C2701 C2696 1.425 . S
C2701 C2698 1.409 . S
C2701 C2699 1.415 . S
C2702 H2692 0.930 . S
C2702 C2700 1.419 . S
C2702 C2703 1.362 . S
C2703 H2693 0.930 . S
C2703 C2696 1.409 . S
C2703 C2702 1.362 . S
H2704 C2710 0.930 . S
H2705 C2713 0.930 1_556 S
H2706 C2714 0.930 . S
H2707 C2715 0.930 . S
H2708 C2718 0.930 . S
H2709 C2719 0.930 . S
C2710 H2704 0.930 . S
C2710 C2711 1.355 . S
C2710 C2712 1.415 . S
C2711 C2710 1.355 . S
C2711 C2713 1.419 1_545 S
C2712 C2710 1.415 . S
C2712 C2717 1.425 1_545 S
C2712 C2719 1.409 . S
C2713 H2705 0.930 1_554 S
C2713 C2711 1.419 1_565 S
C2713 C2714 1.362 . S
C2714 H2706 0.930 . S
C2714 C2713 1.362 . S
C2714 C2717 1.409 . S
C2715 H2707 0.930 . S
C2715 C2716 1.355 . S
C2715 C2717 1.415 . S
C2716 C2715 1.355 . S
C2716 C2718 1.419 1_565 S
C2717 C2712 1.425 1_565 S
C2717 C2714 1.409 . S
C2717 C2715 1.415 . S
C2718 H2708 0.930 . S
C2718 C2716 1.419 1_545 S
C2718 C2719 1.362 . S
C2719 H2709 0.930 . S
C2719 C2712 1.409 . S
C2719 C2718 1.362 . S
H2720 C2726 0.930 . S
H2721 C2729 0.930 . S
H2722 C2730 0.930 . S
H2723 C2731 0.930 . S
H2724 C2734 0.930 . S
H2725 C2735 0.930 . S
C2726 H2720 0.930 . S
C2726 C2727 1.355 . S
C2726 C2728 1.415 . S
C2727 C2726 1.355 . S
C2727 C2729 1.419 . S
C2728 C2726 1.415 . S
C2728 C2733 1.425 . S
C2728 C2735 1.409 . S
C2729 H2721 0.930 . S
C2729 C2727 1.419 . S
C2729 C2730 1.362 . S
C2730 H2722 0.930 . S
C2730 C2729 1.362 . S
C2730 C2733 1.409 . S
C2731 H2723 0.930 . S
C2731 C2732 1.355 . S
C2731 C2733 1.415 . S
C2732 C2731 1.355 . S
C2732 C2734 1.419 . S
C2733 C2728 1.425 . S
C2733 C2730 1.409 . S
C2733 C2731 1.415 . S
C2734 H2724 0.930 . S
C2734 C2732 1.419 . S
C2734 C2735 1.362 . S
C2735 H2725 0.930 . S
C2735 C2728 1.409 . S
C2735 C2734 1.362 . S
H2736 C2742 0.885 1_565 S
H2737 C2745 0.930 . S
H2738 C2746 0.930 . S
H2739 C2747 0.930 . S
H2740 C2750 0.930 . S
H2741 C2751 0.930 . S
C2742 H2736 0.885 1_545 S
C2742 C2743 1.409 . S
C2742 C2744 1.406 1_545 S
C2743 C2742 1.409 . S
C2743 C2745 1.419 . S
C2744 C2742 1.406 1_565 S
C2744 C2749 1.425 1_565 S
C2744 C2751 1.409 . S
C2745 H2737 0.930 . S
C2745 C2743 1.419 . S
C2745 C2746 1.362 . S
C2746 H2738 0.930 . S
C2746 C2745 1.362 . S
C2746 C2749 1.409 . S
C2747 H2739 0.930 . S
C2747 C2748 1.355 1_545 S
C2747 C2749 1.415 . S
C2748 C2747 1.355 1_565 S
C2748 C2750 1.419 . S
C2749 C2744 1.425 1_545 S
C2749 C2746 1.409 . S
C2749 C2747 1.415 . S
C2750 H2740 0.930 . S
C2750 C2748 1.419 . S
C2750 C2751 1.362 . S
C2751 H2741 0.930 . S
C2751 C2744 1.409 . S
C2751 C2750 1.362 . S
H2752 C2758 0.930 . S
H2753 C2761 0.930 . S
H2754 C2762 0.930 . S
H2755 C2763 0.930 . S
H2756 C2766 0.930 . S
H2757 C2767 0.930 . S
C2758 H2752 0.930 . S
C2758 C2759 1.355 . S
C2758 C2760 1.415 . S
C2759 C2758 1.355 . S
C2759 C2761 1.419 . S
C2760 C2758 1.415 . S
C2760 C2765 1.425 . S
C2760 C2767 1.409 . S
C2761 H2753 0.930 . S
C2761 C2759 1.419 . S
C2761 C2762 1.362 . S
C2762 H2754 0.930 . S
C2762 C2761 1.362 . S
C2762 C2765 1.409 . S
C2763 H2755 0.930 . S
C2763 C2764 1.355 . S
C2763 C2765 1.415 . S
C2764 C2763 1.355 . S
C2764 C2766 1.419 . S
C2765 C2760 1.425 . S
C2765 C2762 1.409 . S
C2765 C2763 1.415 . S
C2766 H2756 0.930 . S
C2766 C2764 1.419 . S
C2766 C2767 1.362 . S
C2767 H2757 0.930 . S
C2767 C2760 1.409 . S
C2767 C2766 1.362 . S
H2768 C2774 0.930 . S
H2769 C2777 0.930 . S
H2770 C2778 0.930 . S
H2771 C2779 0.930 . S
H2772 C2782 0.930 1_556 S
H2773 C2783 0.930 . S
C2774 H2768 0.930 . S
C2774 C2775 1.355 . S
C2774 C2776 1.415 . S
C2775 C2774 1.355 . S
C2775 C2777 1.419 1_565 S
C2776 C2774 1.415 . S
C2776 C2781 1.425 1_565 S
C2776 C2783 1.409 . S
C2777 H2769 0.930 . S
C2777 C2775 1.419 1_545 S
C2777 C2778 1.362 . S
C2778 H2770 0.930 . S
C2778 C2777 1.362 . S
C2778 C2781 1.409 . S
C2779 H2771 0.930 . S
C2779 C2780 1.355 . S
C2779 C2781 1.415 . S
C2780 C2779 1.355 . S
C2780 C2782 1.419 1_545 S
C2781 C2776 1.425 1_545 S
C2781 C2778 1.409 . S
C2781 C2779 1.415 . S
C2782 H2772 0.930 1_554 S
C2782 C2780 1.419 1_565 S
C2782 C2783 1.362 . S
C2783 H2773 0.930 . S
C2783 C2776 1.409 . S
C2783 C2782 1.362 . S
H2784 C2790 0.930 . S
H2785 C2793 0.930 . S
H2786 C2794 0.930 . S
H2787 C2795 0.930 . S
H2788 C2798 0.930 . S
H2789 C2799 0.930 . S
C2790 H2784 0.930 . S
C2790 C2791 1.355 . S
C2790 C2792 1.415 . S
C2791 C2790 1.355 . S
C2791 C2793 1.419 . S
C2792 C2790 1.415 . S
C2792 C2797 1.425 . S
C2792 C2799 1.409 . S
C2793 H2785 0.930 . S
C2793 C2791 1.419 . S
C2793 C2794 1.362 . S
C2794 H2786 0.930 . S
C2794 C2793 1.362 . S
C2794 C2797 1.409 . S
C2795 H2787 0.930 . S
C2795 C2796 1.355 . S
C2795 C2797 1.415 . S
C2796 C2795 1.355 . S
C2796 C2798 1.419 . S
C2797 C2792 1.425 . S
C2797 C2794 1.409 . S
C2797 C2795 1.415 . S
C2798 H2788 0.930 . S
C2798 C2796 1.419 . S
C2798 C2799 1.362 . S
C2799 H2789 0.930 . S
C2799 C2792 1.409 . S
C2799 C2798 1.362 . S
H2800 C2806 0.930 . S
H2801 C2809 0.930 . S
H2802 C2810 0.930 . S
H2803 C2811 0.930 . S
H2804 C2814 0.930 1_556 S
H2805 C2815 0.930 . S
C2806 H2800 0.930 . S
C2806 C2807 1.355 . S
C2806 C2808 1.415 . S
C2807 C2806 1.355 . S
C2807 C2809 1.419 . S
C2808 C2806 1.415 . S
C2808 C2813 1.425 . S
C2808 C2815 1.409 . S
C2809 H2801 0.930 . S
C2809 C2807 1.419 . S
C2809 C2810 1.362 . S
C2810 H2802 0.930 . S
C2810 C2809 1.362 . S
C2810 C2813 1.409 . S
C2811 H2803 0.930 . S
C2811 C2812 1.355 . S
C2811 C2813 1.415 . S
C2812 C2811 1.355 . S
C2812 C2814 1.419 . S
C2813 C2808 1.425 . S
C2813 C2810 1.409 . S
C2813 C2811 1.415 . S
C2814 H2804 0.930 1_554 S
C2814 C2812 1.419 . S
C2814 C2815 1.362 . S
C2815 H2805 0.930 . S
C2815 C2808 1.409 . S
C2815 C2814 1.362 . S
H2816 C2822 0.930 . S
H2817 C2825 0.930 . S
H2818 C2826 0.930 . S
H2819 C2827 0.930 . S
H2820 C2830 0.930 . S
H2821 C2831 0.930 . S
C2822 H2816 0.930 . S
C2822 C2823 1.355 . S
C2822 C2824 1.415 . S
C2823 C2822 1.355 . S
C2823 C2825 1.419 . S
C2824 C2822 1.415 . S
C2824 C2829 1.425 . S
C2824 C2831 1.409 . S
C2825 H2817 0.930 . S
C2825 C2823 1.419 . S
C2825 C2826 1.362 . S
C2826 H2818 0.930 . S
C2826 C2825 1.362 . S
C2826 C2829 1.409 . S
C2827 H2819 0.930 . S
C2827 C2828 1.355 . S
C2827 C2829 1.415 . S
C2828 C2827 1.355 . S
C2828 C2830 1.419 . S
C2829 C2824 1.425 . S
C2829 C2826 1.409 . S
C2829 C2827 1.415 . S
C2830 H2820 0.930 . S
C2830 C2828 1.419 . S
C2830 C2831 1.362 . S
C2831 H2821 0.930 . S
C2831 C2824 1.409 . S
C2831 C2830 1.362 . S
H2832 C2838 0.930 . S
H2833 C2841 0.930 . S
H2834 C2842 0.930 . S
H2835 C2843 0.930 . S
H2836 C2846 0.930 . S
H2837 C2847 0.930 . S
C2838 H2832 0.930 . S
C2838 C2839 1.355 . S
C2838 C2840 1.415 . S
C2839 C2838 1.355 . S
C2839 C2841 1.419 . S
C2840 C2838 1.415 . S
C2840 C2845 1.425 . S
C2840 C2847 1.409 . S
C2841 H2833 0.930 . S
C2841 C2839 1.419 . S
C2841 C2842 1.362 . S
C2842 H2834 0.930 . S
C2842 C2841 1.362 . S
C2842 C2845 1.409 . S
C2843 H2835 0.930 . S
C2843 C2844 1.355 . S
C2843 C2845 1.415 . S
C2844 C2843 1.355 . S
C2844 C2846 1.419 . S
C2845 C2840 1.425 . S
C2845 C2842 1.409 . S
C2845 C2843 1.415 . S
C2846 H2836 0.930 . S
C2846 C2844 1.419 . S
C2846 C2847 1.362 . S
C2847 H2837 0.930 . S
C2847 C2840 1.409 . S
C2847 C2846 1.362 . S
H2848 C2854 0.930 . S
H2849 C2857 0.930 . S
H2850 C2858 0.930 . S
H2851 C2859 0.930 . S
H2852 C2862 0.930 . S
H2853 C2863 0.930 . S
C2854 H2848 0.930 . S
C2854 C2855 1.355 . S
C2854 C2856 1.415 . S
C2855 C2854 1.355 . S
C2855 C2857 1.419 . S
C2856 C2854 1.415 . S
C2856 C2861 1.425 . S
C2856 C2863 1.409 . S
C2857 H2849 0.930 . S
C2857 C2855 1.419 . S
C2857 C2858 1.362 . S
C2858 H2850 0.930 . S
C2858 C2857 1.362 . S
C2858 C2861 1.409 . S
C2859 H2851 0.930 . S
C2859 C2860 1.355 . S
C2859 C2861 1.415 . S
C2860 C2859 1.355 . S
C2860 C2862 1.419 . S
C2861 C2856 1.425 . S
C2861 C2858 1.409 . S
C2861 C2859 1.415 . S
C2862 H2852 0.930 . S
C2862 C2860 1.419 . S
C2862 C2863 1.362 . S
C2863 H2853 0.930 . S
C2863 C2856 1.409 . S
C2863 C2862 1.362 . S
H2864 C2870 0.930 . S
H2865 C2873 0.930 1_556 S
H2866 C2874 0.930 . S
H2867 C2875 0.930 . S
H2868 C2878 0.930 . S
H2869 C2879 0.930 . S
C2870 H2864 0.930 . S
C2870 C2871 1.355 . S
C2870 C2872 1.415 . S
C2871 C2870 1.355 . S
C2871 C2873 1.419 . S
C2872 C2870 1.415 . S
C2872 C2877 1.425 . S
C2872 C2879 1.409 . S
C2873 H2865 0.930 1_554 S
C2873 C2871 1.419 . S
C2873 C2874 1.362 . S
C2874 H2866 0.930 . S
C2874 C2873 1.362 . S
C2874 C2877 1.409 . S
C2875 H2867 0.930 . S
C2875 C2876 1.355 . S
C2875 C2877 1.415 . S
C2876 C2875 1.355 . S
C2876 C2878 1.419 . S
C2877 C2872 1.425 . S
C2877 C2874 1.409 . S
C2877 C2875 1.415 . S
C2878 H2868 0.930 . S
C2878 C2876 1.419 . S
C2878 C2879 1.362 . S
C2879 H2869 0.930 . S
C2879 C2872 1.409 . S
C2879 C2878 1.362 . S
H2880 C2886 0.930 . S
H2881 C2889 0.930 . S
H2882 C2890 0.930 . S
H2883 C2891 0.930 . S
H2884 C2894 0.930 . S
H2885 C2895 0.930 . S
C2886 H2880 0.930 . S
C2886 C2887 1.355 . S
C2886 C2888 1.415 . S
C2887 C2886 1.355 . S
C2887 C2889 1.419 . S
C2888 C2886 1.415 . S
C2888 C2893 1.425 . S
C2888 C2895 1.409 . S
C2889 H2881 0.930 . S
C2889 C2887 1.419 . S
C2889 C2890 1.362 . S
C2890 H2882 0.930 . S
C2890 C2889 1.362 . S
C2890 C2893 1.409 . S
C2891 H2883 0.930 . S
C2891 C2892 1.355 . S
C2891 C2893 1.415 . S
C2892 C2891 1.355 . S
C2892 C2894 1.419 . S
C2893 C2888 1.425 . S
C2893 C2890 1.409 . S
C2893 C2891 1.415 . S
C2894 H2884 0.930 . S
C2894 C2892 1.419 . S
C2894 C2895 1.362 . S
C2895 H2885 0.930 . S
C2895 C2888 1.409 . S
C2895 C2894 1.362 . S
H2896 C2902 0.930 . S
H2897 C2905 0.930 . S
H2898 C2906 0.930 . S
H2899 C2907 0.930 . S
H2900 C2910 0.930 . S
H2901 C2911 0.930 . S
C2902 H2896 0.930 . S
C2902 C2903 1.355 . S
C2902 C2904 1.415 . S
C2903 C2902 1.355 . S
C2903 C2905 1.419 . S
C2904 C2902 1.415 . S
C2904 C2909 1.425 . S
C2904 C2911 1.409 . S
C2905 H2897 0.930 . S
C2905 C2903 1.419 . S
C2905 C2906 1.362 . S
C2906 H2898 0.930 . S
C2906 C2905 1.362 . S
C2906 C2909 1.409 . S
C2907 H2899 0.930 . S
C2907 C2908 1.355 . S
C2907 C2909 1.415 . S
C2908 C2907 1.355 . S
C2908 C2910 1.419 . S
C2909 C2904 1.425 . S
C2909 C2906 1.409 . S
C2909 C2907 1.415 . S
C2910 H2900 0.930 . S
C2910 C2908 1.419 . S
C2910 C2911 1.362 . S
C2911 H2901 0.930 . S
C2911 C2904 1.409 . S
C2911 C2910 1.362 . S
C1895 C418 1.641 . S
C1900 C5 1.639 . S
C1911 C64 1.640 . S
C1916 C241 1.642 . S
C1927 C300 1.606 . S
C1932 C123 1.608 . S
C1943 C182 1.637 . S
C1948 C359 1.635 . S
C1959 C477 1.609 . S
C1964 C890 1.607 . S
C1975 C536 1.638 . S
C1980 C713 1.635 . S
C1991 C595 1.602 . S
C1996 C772 1.601 . S
C2007 C654 1.600 . S
C2012 C831 1.599 . S
C2023 C949 1.625 . S
C2028 C1362 1.628 . S
C2039 C1008 1.626 . S
C2044 C1185 1.629 . S
C2055 C1244 1.612 . S
C2060 C1067 1.614 . S
C2071 C1303 1.625 . S
C2076 C1126 1.623 . S
C2087 C1421 1.649 . S
C2092 C1834 1.649 . S
C2103 C1657 1.617 . S
C2108 C1480 1.614 . S
C2119 C1716 1.599 . S
C2124 C1539 1.600 . S
C2135 C1598 1.627 . S
C2140 C1775 1.630 . S
C2151 C33 0.667 . S
C2156 C387 0.677 . S
C2167 C92 0.637 . S
C2172 C446 0.639 1_554 S
C2183 C269 0.653 . S
C2188 C151 0.662 . S
C2199 C210 0.677 . S
C2204 C328 0.667 . S
C2215 C505 0.642 . S
C2220 C859 0.638 . S
C2231 C564 0.649 1_554 S
C2236 C918 0.642 . S
C2247 C741 0.637 . S
C2252 C623 0.639 . S
C2263 C800 0.638 . S
C2268 C682 0.640 . S
C2279 C977 0.699 . S
C2284 C1331 0.703 . S
C2295 C1390 0.650 . S
C2300 C1036 0.643 . S
C2311 C1213 0.670 . S
C2316 C1095 0.660 . S
C2327 C1154 0.703 . S
C2332 C1272 0.704 1_554 S
C2343 C1449 0.650 . S
C2348 C1803 0.659 . S
C2359 C1508 0.645 . S
C2364 C1862 0.640 . S
C2375 C1685 0.638 . S
C2380 C1567 0.638 . S
C2391 C1744 0.684 . S
C2396 C1626 0.692 1_554 S
C2407 C52 1.608 . S
C2412 C1822 1.610 . S
C2423 C111 1.603 . S
C2428 C937 1.616 . S
C2439 C170 1.611 . S
C2444 C1704 1.607 . S
C2455 C229 1.606 . S
C2460 C819 1.613 . S
C2471 C288 1.607 . S
C2476 C1586 1.611 . S
C2487 C347 1.614 . S
C2492 C701 1.604 . S
C2503 C406 1.606 . S
C2508 C1468 1.612 . S
C2519 C583 1.603 . S
C2524 C465 1.615 . S
C2535 C1350 1.605 . S
C2540 C524 1.613 . S
C2551 C642 1.615 . S
C2556 C1232 1.603 . S
C2567 C1114 1.603 . S
C2572 C760 1.615 . S
C2583 C996 1.615 . S
C2588 C878 1.603 . S
C2599 C1055 1.606 . S
C2604 C1881 1.612 . S
C2615 C1173 1.604 . S
C2620 C1763 1.615 . S
C2631 C1291 1.612 . S
C2636 C1645 1.606 . S
C2647 C1527 1.608 . S
C2652 C1409 1.611 . S
C2663 C3 1.588 . S
C2668 C357 1.620 . S
C2679 C62 1.588 . S
C2684 C416 1.632 . S
C2695 C239 1.601 1_556 S
C2700 C121 1.602 . S
C2711 C180 1.597 1_554 S
C2716 C298 1.607 . S
C2727 C475 1.586 1_556 S
C2732 C829 1.623 . S
C2743 C534 1.614 . S
C2748 C888 1.619 . S
C2759 C711 1.628 . S
C2764 C593 1.602 . S
C2775 C652 1.604 . S
C2780 C770 1.600 1_554 S
C2791 C1301 1.628 1_556 S
C2796 C947 1.603 . S
C2807 C1360 1.593 . S
C2812 C1006 1.611 1_554 S
C2823 C1183 1.596 . S
C2828 C1065 1.631 . S
C2839 C1242 1.628 . S
C2844 C1124 1.602 . S
C2855 C1773 1.631 . S
C2860 C1419 1.597 . S
C2871 C1832 1.607 1_554 S
C2876 C1478 1.597 . S
C2887 C1537 1.586 1_556 S
C2892 C1655 1.630 . S
C2903 C1714 1.611 . S
C2908 C1596 1.622 . S
