# Generated by pormake.
# Topology rob, (6)-cn, num edge types: 1
# Building blocks:
#     Node 0, Type 0, BuildingBlock: HISSIN_clean_sbu_0, # of connection points: 6
#     Node 1, Type 0, BuildingBlock: HISSIN_clean_sbu_0, # of connection points: 6
#     Node 2, Type 0, BuildingBlock: HISSIN_clean_sbu_0, # of connection points: 6
#     Node 3, Type 0, BuildingBlock: HISSIN_clean_sbu_0, # of connection points: 6
#     Edge 4, Type (0, 0), BuildingBlock: TEMPAE_clean_linker_10, # of connection points: 2
#     Edge 5, Type (0, 0), BuildingBlock: TEMPAE_clean_linker_10, # of connection points: 2
#     Edge 6, Type (0, 0), BuildingBlock: TEMPAE_clean_linker_10, # of connection points: 2
#     Edge 7, Type (0, 0), BuildingBlock: TEMPAE_clean_linker_10, # of connection points: 2
#     Edge 8, Type (0, 0), BuildingBlock: TEMPAE_clean_linker_10, # of connection points: 2
#     Edge 9, Type (0, 0), BuildingBlock: TEMPAE_clean_linker_10, # of connection points: 2
#     Edge 10, Type (0, 0), BuildingBlock: TEMPAE_clean_linker_10, # of connection points: 2
#     Edge 11, Type (0, 0), BuildingBlock: TEMPAE_clean_linker_10, # of connection points: 2
#     Edge 12, Type (0, 0), BuildingBlock: TEMPAE_clean_linker_10, # of connection points: 2
#     Edge 13, Type (0, 0), BuildingBlock: TEMPAE_clean_linker_10, # of connection points: 2
#     Edge 14, Type (0, 0), BuildingBlock: TEMPAE_clean_linker_10, # of connection points: 2
#     Edge 15, Type (0, 0), BuildingBlock: TEMPAE_clean_linker_10, # of connection points: 2
# Relax obj value: 0.033
# Max RMSD: 0.134
# Mean RMSD: 0.134
data_MOF--net-rob--node1-HISSIN_clean_sbu_0--edge1-TEMPAE_clean_linker_10
_symmetry_space_group_name_H-M    P1
_symmetry_Int_Tables_number       1
_symmetry_cell_setting            triclinic
loop_
_symmetry_equiv_pos_as_xyz
'x, y, z'
_cell_length_a     16.325577
_cell_length_b     25.721771
_cell_length_c     37.900508
_cell_angle_alpha  95.463108
_cell_angle_beta   89.943917
_cell_angle_gamma 90.19501
loop_
_atom_site_label
_atom_site_type_symbol
_atom_site_fract_x
_atom_site_fract_y
_atom_site_fract_z
_atom_type_partial_charge
Eu0 Eu 0.15325 0.27431 0.02447 0.0
Eu1 Eu 0.30956 0.22175 0.97393 0.0
C2 C 0.15575 0.15668 0.99282 0.0
C3 C 0.02751 0.30799 0.10997 0.0
C4 C 0.94923 0.29978 0.12377 0.0
C5 C 0.08066 0.31688 0.17067 0.0
C6 C 0.93655 0.30001 0.16044 0.0
C7 C 0.09335 0.31631 0.13381 0.0
C8 C 0.00184 0.30879 0.1847 0.0
C9 C 0.03888 0.30514 0.07074 0.0
O10 O 0.2048 0.23628 0.9374 0.0
O11 O 0.12566 0.29885 0.96903 0.0
C12 C 0.14802 0.27268 0.93868 0.0
O13 O 0.25901 0.33017 0.02974 0.0
O14 O 0.35182 0.16041 0.93397 0.0
O15 O 0.43069 0.22627 0.94914 0.0
O16 O 0.31277 0.30851 0.97452 0.0
C17 C 0.30629 0.34044 1.00336 0.0
O18 O 0.23253 0.22857 0.05917 0.0
O19 O 0.35798 0.22609 0.03119 0.0
O20 O 0.23597 0.15708 0.99451 0.0
O21 O 0.09164 0.3368 0.05797 0.0
O22 O 0.04256 0.25838 0.05427 0.0
O23 O 0.1138 0.20001 0.99364 0.0
C24 C 0.43558 0.19019 0.88833 0.0
C25 C 0.40238 0.23094 0.8706 0.0
C26 C 0.49975 0.15596 0.8325 0.0
C27 C 0.4182 0.23432 0.83426 0.0
C28 C 0.48423 0.15278 0.86878 0.0
C29 C 0.46714 0.19678 0.8145 0.0
C30 C 0.4187 0.18515 0.92669 0.0
C31 C 0.31276 0.22395 0.06016 0.0
H32 H 0.89757 0.29247 0.10605 0.0
H33 H 0.13274 0.3241 0.18812 0.0
H34 H 0.87535 0.2922 0.16963 0.0
H35 H 0.1547 0.32212 0.12397 0.0
H36 H 0.36386 0.26009 0.88482 0.0
H37 H 0.53854 0.12664 0.81866 0.0
H38 H 0.39101 0.26601 0.82152 0.0
H39 H 0.51047 0.12086 0.88162 0.0
Eu40 Eu 0.67921 0.76988 0.04008 0.0
Eu41 Eu 0.82658 0.71084 0.98701 0.0
C42 C 0.67551 0.65114 0.0145 0.0
C43 C 0.55547 0.80291 0.12683 0.0
C44 C 0.58185 0.76006 0.14431 0.0
C45 C 0.49438 0.83999 0.18262 0.0
C46 C 0.56415 0.75711 0.18054 0.0
C47 C 0.51178 0.84278 0.14648 0.0
C48 C 0.52008 0.7971 0.20038 0.0
C49 C 0.57338 0.80739 0.08851 0.0
O50 O 0.74569 0.75349 0.95146 0.0
O51 O 0.62538 0.76559 0.98346 0.0
C52 C 0.66641 0.76257 0.95298 0.0
O53 O 0.74543 0.83414 0.01568 0.0
O54 O 0.87183 0.64449 0.95144 0.0
O55 O 0.94202 0.71581 0.95822 0.0
O56 O 0.86832 0.79113 0.0067 0.0
C57 C 0.8243 0.83384 0.00884 0.0
O58 O 0.79316 0.76172 0.0727 0.0
O59 O 0.85678 0.69051 0.04327 0.0
O60 O 0.71342 0.66129 0.98556 0.0
O61 O 0.64139 0.83089 0.08119 0.0
O62 O 0.55931 0.76658 0.06603 0.0
O63 O 0.67961 0.68341 0.04318 0.0
C64 C 0.94417 0.6698 0.9008 0.0
C65 C 0.90303 0.70547 0.88123 0.0
C66 C 0.01275 0.63504 0.84624 0.0
C67 C 0.91647 0.70588 0.84457 0.0
C68 C -0.00128 0.63443 0.88284 0.0
C69 C 0.97224 0.67098 0.8264 0.0
C70 C 0.93343 0.6706 0.93994 0.0
C71 C 0.84333 0.72176 0.07259 0.0
H72 H 0.61633 0.7289 0.12999 0.0
H73 H 0.45942 0.87127 0.19651 0.0
H74 H 0.58602 0.72372 0.19312 0.0
H75 H 0.49071 0.87629 0.13379 0.0
H76 H 0.86117 0.73354 0.8944 0.0
H77 H 0.05718 0.60807 0.83375 0.0
H78 H 0.88288 0.7337 0.83052 0.0
H79 H 0.03179 0.60678 0.89727 0.0
Eu80 Eu 0.16144 0.71879 0.4885 0.0
Eu81 Eu 0.31465 0.77414 0.54046 0.0
C82 C 0.1542 0.83419 0.52306 0.0
C83 C 0.04252 0.68238 0.40153 0.0
C84 C 0.07999 0.71907 0.38138 0.0
C85 C 0.97965 0.64191 0.34706 0.0
C86 C 0.06674 0.71759 0.34462 0.0
C87 C 0.99296 0.64347 0.38384 0.0
C88 C 0.01547 0.67935 0.32682 0.0
C89 C 0.05048 0.68624 0.44098 0.0
O90 O 0.21712 0.74843 0.57717 0.0
O91 O 0.13237 0.69133 0.54298 0.0
C92 C 0.15934 0.71245 0.57416 0.0
O93 O 0.26945 0.66494 0.48297 0.0
O94 O 0.34899 0.83637 0.58144 0.0
O95 O 0.43624 0.77573 0.56525 0.0
O96 O 0.32973 0.68765 0.53706 0.0
C97 C 0.32033 0.65567 0.50835 0.0
O98 O 0.23928 0.76842 0.45527 0.0
O99 O 0.36425 0.77249 0.48361 0.0
O100 O 0.23431 0.83645 0.52108 0.0
O101 O 0.10198 0.65504 0.45473 0.0
O102 O 0.05328 0.73327 0.45718 0.0
O103 O 0.11589 0.78934 0.52172 0.0
C104 C 0.43573 0.80928 0.62691 0.0
C105 C 0.43646 0.76038 0.64076 0.0
C106 C 0.46623 0.85022 0.68651 0.0
C107 C 0.45273 0.75646 0.67697 0.0
C108 C 0.45038 0.85404 0.65035 0.0
C109 C 0.46836 0.80133 0.70058 0.0
C110 C 0.41854 0.81486 0.58858 0.0
C111 C 0.31936 0.77473 0.45465 0.0
H112 H 0.1181 0.74974 0.39421 0.0
H113 H 0.94096 0.61127 0.33452 0.0
H114 H 0.09479 0.74757 0.33039 0.0
H115 H 0.96328 0.61465 0.39861 0.0
H116 H 0.42474 0.72504 0.62358 0.0
H117 H 0.47598 0.88595 0.7035 0.0
H118 H 0.45443 0.71796 0.68624 0.0
H119 H 0.44937 0.89233 0.64067 0.0
Eu120 Eu 0.67485 0.21979 0.47355 0.0
Eu121 Eu 0.82276 0.27839 0.5259 0.0
C122 C 0.67335 0.33844 0.49828 0.0
C123 C 0.54901 0.18926 0.38734 0.0
C124 C 0.58296 0.2298 0.36948 0.0
C125 C 0.48052 0.15658 0.33217 0.0
C126 C 0.56544 0.23379 0.33336 0.0
C127 C 0.49781 0.15276 0.36819 0.0
C128 C 0.51391 0.19714 0.314 0.0
C129 C 0.56706 0.18361 0.42548 0.0
O130 O 0.74551 0.23258 0.56116 0.0
O131 O 0.62316 0.22392 0.53069 0.0
C132 C 0.66609 0.22376 0.56053 0.0
O133 O 0.74079 0.15438 0.4966 0.0
O134 O 0.86198 0.34497 0.56276 0.0
O135 O 0.94075 0.27806 0.55326 0.0
O136 O 0.86383 0.19703 0.50871 0.0
C137 C 0.81906 0.15438 0.50474 0.0
O138 O 0.78873 0.22655 0.44062 0.0
O139 O 0.85381 0.29776 0.46942 0.0
O140 O 0.70941 0.32748 0.52739 0.0
O141 O 0.63467 0.15961 0.43227 0.0
O142 O 0.55427 0.22403 0.44841 0.0
O143 O 0.67739 0.30608 0.46969 0.0
C144 C 0.93993 0.32097 0.61189 0.0
C145 C 0.91388 0.27858 0.63 0.0
C146 C -0.00627 0.36254 0.66784 0.0
C147 C 0.92812 0.27802 0.66657 0.0
C148 C 0.97943 0.36303 0.63129 0.0
C149 C 0.96887 0.31985 0.68613 0.0
C150 C 0.92734 0.32156 0.57294 0.0
C151 C 0.83957 0.26627 0.44028 0.0
H152 H 0.62328 0.2583 0.38343 0.0
H153 H 0.43973 0.12796 0.31868 0.0
H154 H 0.59331 0.26525 0.32048 0.0
H155 H 0.47086 0.12107 0.38118 0.0
H156 H 0.88333 0.24553 0.61576 0.0
H157 H 0.02401 0.3959 0.68181 0.0
H158 H 0.90884 0.24411 0.67933 0.0
H159 H -0.00024 0.39634 0.61809 0.0
C160 C 0.61399 0.5788 0.04422 0.0
C161 C 0.62161 0.60576 0.01404 0.0
C162 C 0.56148 0.53573 0.04419 0.0
C163 C 0.51396 0.52096 0.01366 0.0
C164 C 0.52007 0.54904 0.98344 0.0
C165 C 0.57518 0.59075 0.98378 0.0
C166 C 0.55822 0.50541 0.07639 0.0
C167 C 0.46853 0.53505 0.9508 0.0
C168 C 0.43935 0.38255 0.9946 0.0
C169 C 0.35866 0.38665 0.00692 0.0
C170 C 0.49149 0.42582 0.99778 0.0
C171 C 0.46083 0.47445 0.01252 0.0
C172 C 0.37911 0.47882 0.02496 0.0
C173 C 0.32908 0.43429 0.02258 0.0
C174 C 0.57913 0.41952 0.98526 0.0
C175 C 0.34413 0.5306 0.03985 0.0
H176 H 0.65037 0.59078 0.06753 0.0
H177 H 0.58052 0.61245 0.96071 0.0
H178 H 0.49469 0.50447 0.08669 0.0
H179 H 0.57682 0.46436 0.06894 0.0
H180 H 0.59894 0.52237 0.09801 0.0
H181 H 0.47647 0.5633 0.93063 0.0
H182 H 0.48527 0.49561 0.93859 0.0
H183 H 0.40279 0.53375 0.95816 0.0
H184 H 0.46208 0.34519 0.98298 0.0
H185 H 0.26633 0.43698 0.03197 0.0
H186 H 0.62174 0.4343 0.00674 0.0
H187 H 0.58985 0.44295 0.96259 0.0
H188 H 0.59459 0.37817 0.97679 0.0
H189 H 0.38114 0.54721 0.06275 0.0
H190 H 0.27951 0.52712 0.04856 0.0
H191 H 0.34694 0.55879 0.01945 0.0
C192 C 0.33962 0.56146 0.48931 0.0
C193 C 0.37161 0.60909 0.50413 0.0
C194 C 0.38784 0.51633 0.48696 0.0
C195 C 0.4702 0.51989 0.49862 0.0
C196 C 0.50345 0.56849 0.51232 0.0
C197 C 0.45312 0.61247 0.51547 0.0
C198 C 0.35007 0.46471 0.47313 0.0
C199 C 0.59178 0.57392 0.524 0.0
C200 C 0.57798 0.40238 0.52874 0.0
C201 C 0.62239 0.38502 0.49834 0.0
C202 C 0.52603 0.44547 0.52878 0.0
C203 C 0.52097 0.47251 0.49805 0.0
C204 C 0.56661 0.45543 0.46739 0.0
C205 C 0.61597 0.41112 0.46773 0.0
C206 C 0.47647 0.46194 0.56162 0.0
C207 C 0.56447 0.48448 0.4346 0.0
H208 H 0.27627 0.55924 0.48071 0.0
H209 H 0.47775 0.64975 0.52649 0.0
H210 H 0.38602 0.44653 0.4504 0.0
H211 H 0.35155 0.43745 0.49413 0.0
H212 H 0.28559 0.46891 0.46453 0.0
H213 H 0.60951 0.61526 0.5314 0.0
H214 H 0.60212 0.55155 0.54721 0.0
H215 H 0.63291 0.55739 0.50248 0.0
H216 H 0.58238 0.38149 0.5522 0.0
H217 H 0.65081 0.39744 0.4443 0.0
H218 H 0.41058 0.46409 0.55475 0.0
H219 H 0.49571 0.50148 0.57283 0.0
H220 H 0.48361 0.43461 0.5824 0.0
H221 H 0.50084 0.48618 0.42458 0.0
H222 H 0.60386 0.46599 0.41304 0.0
H223 H 0.58539 0.52534 0.44123 0.0
C224 C 0.13666 0.06732 0.01081 0.0
C225 C 0.11043 0.10749 0.99122 0.0
C226 C 0.08802 0.02279 0.01284 0.0
C227 C 0.01311 0.01825 0.99397 0.0
C228 C 0.98829 0.05786 0.97292 0.0
C229 C 0.03692 0.10252 0.97221 0.0
C230 C 0.11541 0.98146 0.03599 0.0
C231 C 0.91003 0.05337 0.95159 0.0
C232 C 0.92769 0.88192 0.97743 0.0
C233 C 0.86669 0.88246 1.00343 0.0
C234 C 0.97417 0.92657 0.97328 0.0
C235 C 0.96046 0.97208 0.99641 0.0
C236 C 0.89783 0.97309 0.02237 0.0
C237 C 0.85054 0.92815 0.02524 0.0
C238 C 0.03877 0.92473 0.94461 0.0
C239 C 0.88283 0.02092 0.04784 0.0
H240 H 0.19327 0.07177 0.02576 0.0
H241 H 0.01733 0.13377 0.95688 0.0
H242 H 0.06873 0.97673 0.05676 0.0
H243 H 0.12116 0.94326 0.01997 0.0
H244 H 0.1751 0.99122 0.04908 0.0
H245 H 0.90217 0.08639 0.93502 0.0
H246 H 0.90944 0.01629 0.93405 0.0
H247 H 0.85661 0.05244 0.96963 0.0
H248 H 0.93916 0.84638 0.96037 0.0
H249 H 0.8035 0.92801 0.04545 0.0
H250 H 0.10042 0.92957 0.95677 0.0
H251 H 0.02993 0.9574 0.92788 0.0
H252 H 0.03748 0.88736 0.9273 0.0
H253 H 0.93887 0.0305 0.06373 0.0
H254 H 0.83117 0.01535 0.06622 0.0
H255 H 0.86928 0.05502 0.03301 0.0
C256 C 0.91575 0.10436 0.53812 0.0
C257 C 0.85965 0.10527 0.51029 0.0
C258 C 0.96087 0.0594 0.54255 0.0
C259 C 0.95109 0.01507 0.51785 0.0
C260 C 0.89306 0.01543 0.49009 0.0
C261 C 0.84684 0.06059 0.48695 0.0
C262 C 0.02035 0.05981 0.57309 0.0
C263 C 0.88237 0.96903 0.46293 0.0
C264 C 0.13242 0.92395 0.50611 0.0
C265 C 0.10519 0.88188 0.52384 0.0
C266 C 0.08226 0.9675 0.50365 0.0
C267 C 0.00438 0.96923 0.5202 0.0
C268 C 0.97784 0.92751 0.53915 0.0
C269 C 0.0283 0.88386 0.54032 0.0
C270 C 0.11176 0.01106 0.48271 0.0
C271 C 0.89621 0.92889 0.558 0.0
H272 H 0.9246 0.13906 0.55635 0.0
H273 H 0.80357 0.06181 0.46535 0.0
H274 H 0.00962 0.02544 0.58812 0.0
H275 H 0.08398 0.05707 0.56282 0.0
H276 H 0.01517 0.09582 0.59162 0.0
H277 H 0.83291 0.97512 0.44365 0.0
H278 H 0.94052 0.96152 0.44815 0.0
H279 H 0.86796 0.9335 0.47621 0.0
H280 H 0.19159 0.92196 0.49304 0.0
H281 H 0.00769 0.85122 0.5542 0.0
H282 H 0.11502 0.04821 0.5001 0.0
H283 H 0.06763 0.01689 0.4612 0.0
H284 H 0.17311 0.003 0.47075 0.0
H285 H 0.89211 0.96446 0.57693 0.0
H286 H 0.88632 0.89408 0.57275 0.0
H287 H 0.84583 0.93085 0.53857 0.0
C288 C 0.48673 0.156 0.25136 0.0
C289 C 0.49414 0.20111 0.27531 0.0
C290 C 0.46408 0.15873 0.21557 0.0
C291 C 0.44795 0.2078 0.20282 0.0
C292 C 0.45729 0.2536 0.22656 0.0
C293 C 0.48025 0.24975 0.26224 0.0
C294 C 0.45538 0.10874 0.19156 0.0
C295 C 0.44049 0.30681 0.21456 0.0
C296 C 0.43514 0.21861 0.10187 0.0
C297 C 0.35014 0.21707 0.09585 0.0
C298 C 0.46803 0.21556 0.13631 0.0
C299 C 0.41504 0.21082 0.16569 0.0
C300 C 0.32941 0.20887 0.15961 0.0
C301 C 0.29843 0.21192 0.12517 0.0
C302 C 0.5596 0.21815 0.14137 0.0
C303 C 0.26984 0.20401 0.18968 0.0
H304 H 0.49861 0.11816 0.2606 0.0
H305 H 0.4848 0.28499 0.28022 0.0
H306 H 0.39049 0.10324 0.18331 0.0
H307 H 0.49226 0.11096 0.16714 0.0
H308 H 0.47507 0.074 0.20463 0.0
H309 H 0.45642 0.33886 0.23518 0.0
H310 H 0.47578 0.31227 0.19015 0.0
H311 H 0.37459 0.30999 0.20798 0.0
H312 H 0.47602 0.22302 0.07981 0.0
H313 H 0.23264 0.21076 0.12141 0.0
H314 H 0.58114 0.18294 0.15336 0.0
H315 H 0.57581 0.25252 0.16002 0.0
H316 H 0.59285 0.22102 0.11604 0.0
H317 H 0.28258 0.16787 0.20251 0.0
H318 H 0.20504 0.20296 0.1807 0.0
H319 H 0.27759 0.23743 0.21017 0.0
C320 C 0.50198 0.83923 0.26339 0.0
C321 C 0.49998 0.7942 0.23915 0.0
C322 C 0.47949 0.83773 0.29933 0.0
C323 C 0.45372 0.79006 0.31189 0.0
C324 C 0.45322 0.74424 0.2878 0.0
C325 C 0.47642 0.74681 0.25201 0.0
C326 C 0.48149 0.88763 0.32372 0.0
C327 C 0.42569 0.69256 0.29958 0.0
C328 C 0.44129 0.77589 0.41239 0.0
C329 C 0.35731 0.78329 0.41935 0.0
C330 C 0.47387 0.77861 0.37785 0.0
C331 C 0.42155 0.78888 0.34933 0.0
C332 C 0.33724 0.79758 0.35651 0.0
C333 C 0.30664 0.79493 0.39109 0.0
C334 C 0.56413 0.76933 0.37168 0.0
C335 C 0.27841 0.80853 0.3274 0.0
H336 H 0.52125 0.87601 0.25425 0.0
H337 H 0.47359 0.71174 0.23378 0.0
H338 H 0.41842 0.89807 0.33268 0.0
H339 H 0.51811 0.88209 0.34772 0.0
H340 H 0.50779 0.92081 0.31069 0.0
H341 H 0.43396 0.65987 0.27854 0.0
H342 H 0.4604 0.6837 0.32343 0.0
H343 H 0.35995 0.69474 0.30703 0.0
H344 H 0.4813 0.76659 0.43368 0.0
H345 H 0.24192 0.80144 0.39584 0.0
H346 H 0.59179 0.80262 0.3593 0.0
H347 H 0.57299 0.73391 0.35298 0.0
H348 H 0.59748 0.76411 0.39663 0.0
H349 H 0.30054 0.84202 0.31357 0.0
H350 H 0.21567 0.8174 0.33758 0.0
H351 H 0.27499 0.77411 0.30744 0.0
C352 C 0.66085 0.74236 0.88698 0.0
C353 C 0.62508 0.7673 0.91791 0.0
C354 C 0.62967 0.74801 0.85295 0.0
C355 C 0.56003 0.77959 0.84895 0.0
C356 C 0.52177 0.80387 0.88005 0.0
C357 C 0.55436 0.79724 0.91411 0.0
C358 C 0.67281 0.72077 0.82111 0.0
C359 C 0.4476 0.83797 0.87725 0.0
C360 C 0.54373 0.83215 0.75765 0.0
C361 C 0.48807 0.79733 0.73936 0.0
C362 C 0.56461 0.82822 0.7935 0.0
C363 C 0.53009 0.78809 0.81209 0.0
C364 C 0.47286 0.75332 0.79411 0.0
C365 C 0.45245 0.75843 0.75829 0.0
C366 C 0.62584 0.86631 0.81119 0.0
C367 C 0.43467 0.70965 0.81244 0.0
H368 H 0.71421 0.71803 0.88932 0.0
H369 H 0.52594 0.8167 0.9376 0.0
H370 H 0.62852 0.69709 0.80414 0.0
H371 H 0.69957 0.75023 0.80485 0.0
H372 H 0.72274 0.69481 0.82871 0.0
H373 H 0.42221 0.85197 0.90365 0.0
H374 H 0.46423 0.87234 0.8631 0.0
H375 H 0.39911 0.81622 0.86149 0.0
H376 H 0.57314 0.86196 0.74369 0.0
H377 H 0.40828 0.7317 0.74513 0.0
H378 H 0.68291 0.84537 0.8169 0.0
H379 H 0.60137 0.88397 0.83689 0.0
H380 H 0.64154 0.89812 0.79447 0.0
H381 H 0.4828 0.68162 0.81875 0.0
H382 H 0.3871 0.68813 0.7959 0.0
H383 H 0.40654 0.72531 0.8379 0.0
C384 C 0.54226 0.21824 0.60172 0.0
C385 C 0.62716 0.21499 0.59566 0.0
C386 C 0.50885 0.21473 0.63608 0.0
C387 C 0.56123 0.20788 0.6653 0.0
C388 C 0.64658 0.20354 0.65904 0.0
C389 C 0.67799 0.20691 0.6247 0.0
C390 C 0.41751 0.21935 0.64129 0.0
C391 C 0.70559 0.19638 0.68888 0.0
C392 C 0.50131 0.24843 0.76227 0.0
C393 C 0.48509 0.20017 0.77556 0.0
C394 C 0.52295 0.25169 0.72635 0.0
C395 C 0.5283 0.20569 0.70256 0.0
C396 C 0.50943 0.15706 0.71553 0.0
C397 C 0.48845 0.15489 0.75159 0.0
C398 C 0.54307 0.30443 0.71418 0.0
C399 C 0.5137 0.1069 0.69148 0.0
H400 H 0.50205 0.22475 0.57985 0.0
H401 H 0.74359 0.20382 0.62081 0.0
H402 H 0.39374 0.18505 0.65381 0.0
H403 H 0.40353 0.25452 0.65954 0.0
H404 H 0.38451 0.22223 0.61594 0.0
H405 H 0.76984 0.19152 0.6795 0.0
H406 H 0.70289 0.23079 0.70886 0.0
H407 H 0.68808 0.16164 0.70245 0.0
H408 H 0.49983 0.28377 0.78026 0.0
H409 H 0.47477 0.11737 0.76106 0.0
H410 H 0.50774 0.31067 0.68996 0.0
H411 H 0.60902 0.30601 0.70723 0.0
H412 H 0.52968 0.33687 0.73484 0.0
H413 H 0.47725 0.11031 0.66712 0.0
H414 H 0.49085 0.07283 0.70459 0.0
H415 H 0.57805 0.09929 0.68313 0.0
C416 C 0.87941 0.75266 0.13553 0.0
C417 C 0.882 0.7127 0.10744 0.0
C418 C 0.90615 0.7447 0.16988 0.0
C419 C 0.93669 0.69531 0.17702 0.0
C420 C 0.94195 0.65505 0.14865 0.0
C421 C 0.91477 0.6642 0.11425 0.0
C422 C 0.89944 0.78905 0.19887 0.0
C423 C 0.97393 0.60178 0.15492 0.0
C424 C 0.05743 0.69417 0.26386 0.0
C425 C -0.00275 0.67972 0.28775 0.0
C426 C 0.03964 0.69744 0.22764 0.0
C427 C 0.95958 0.68596 0.2145 0.0
C428 C 0.89919 0.67001 0.2382 0.0
C429 C 0.91857 0.66718 0.27428 0.0
C430 C 0.10615 0.71468 0.2036 0.0
C431 C 0.81288 0.65764 0.22572 0.0
H432 H 0.85486 0.79051 0.13088 0.0
H433 H 0.91671 0.63287 0.09302 0.0
H434 H 0.85582 0.77831 0.21946 0.0
H435 H 0.95969 0.79651 0.21192 0.0
H436 H 0.87805 0.8258 0.18875 0.0
H437 H 0.97945 0.57573 0.12992 0.0
H438 H 0.03481 0.60534 0.16792 0.0
H439 H 0.93204 0.58319 0.1731 0.0
H440 H 0.11881 0.70318 0.27348 0.0
H441 H 0.87086 0.65669 0.29221 0.0
H442 H 0.0898 0.75298 0.19438 0.0
H443 H 0.11183 0.68641 0.17974 0.0
H444 H 0.16659 0.71855 0.21706 0.0
H445 H 0.78327 0.6936 0.21795 0.0
H446 H 0.7748 0.64169 0.24651 0.0
H447 H 0.81369 0.62891 0.20196 0.0
C448 C 0.91713 0.32181 0.39882 0.0
C449 C 0.87743 0.275 0.4051 0.0
C450 C 0.94449 0.33086 0.36437 0.0
C451 C 0.93189 0.29233 0.33537 0.0
C452 C 0.894 0.24458 0.3419 0.0
C453 C 0.8677 0.23657 0.37633 0.0
C454 C 0.98491 0.38224 0.35881 0.0
C455 C 0.87868 0.20223 0.31218 0.0
C456 C 0.91283 0.32673 0.23954 0.0
C457 C 0.98723 0.30858 0.22414 0.0
C458 C 0.89544 0.3234 0.27575 0.0
C459 C 0.95411 0.30212 0.29786 0.0
C460 C 0.03066 0.28571 0.28296 0.0
C461 C 0.04606 0.28883 0.24648 0.0
C462 C 0.81272 0.34106 0.29008 0.0
C463 C 0.09545 0.26303 0.30531 0.0
H464 H 0.92484 0.35196 0.42056 0.0
H465 H 0.83766 0.20001 0.38047 0.0
H466 H 0.04409 0.37543 0.34473 0.0
H467 H 0.94539 0.40454 0.34187 0.0
H468 H -0.00382 0.40649 0.3842 0.0
H469 H 0.85168 0.16645 0.32177 0.0
H470 H 0.83622 0.21681 0.29253 0.0
H471 H 0.93676 0.19154 0.29815 0.0
H472 H 0.86729 0.34337 0.2232 0.0
H473 H 0.10351 0.27412 0.2353 0.0
H474 H 0.82023 0.36922 0.31391 0.0
H475 H 0.77809 0.30703 0.29833 0.0
H476 H 0.77565 0.35969 0.27022 0.0
H477 H 0.10574 0.28891 0.33005 0.0
H478 H 0.15466 0.25735 0.291 0.0
H479 H 0.0744 0.22469 0.3131 0.0
C480 C 0.93137 0.29637 0.7478 0.0
C481 C 0.98723 0.31834 0.72506 0.0
C482 C 0.94979 0.2925 0.78388 0.0
C483 C 0.02613 0.31096 0.79801 0.0
C484 C 0.08179 0.33447 0.77549 0.0
C485 C 0.06185 0.33781 0.73954 0.0
C486 C 0.88838 0.26712 0.80665 0.0
C487 C 0.16412 0.3544 0.78904 0.0
C488 C 0.06588 0.32793 0.89881 0.0
C489 C 0.10959 0.28226 0.90386 0.0
C490 C 0.03697 0.33763 0.86476 0.0
C491 C 0.05158 0.30077 0.83501 0.0
C492 C 0.09362 0.25411 0.84031 0.0
C493 C 0.12181 0.24556 0.87431 0.0
C494 C 0.99263 0.38795 0.86041 0.0
C495 C 0.11073 0.21339 0.80978 0.0
H496 H 0.87294 0.28194 0.73736 0.0
H497 H 0.10629 0.35426 0.72246 0.0
H498 H 0.91364 0.2299 0.81445 0.0
H499 H 0.87651 0.29265 0.83139 0.0
H500 H 0.82928 0.25869 0.79272 0.0
H501 H 0.19745 0.37581 0.76931 0.0
H502 H 0.15652 0.38075 0.81374 0.0
H503 H 0.20245 0.32109 0.79558 0.0
H504 H 0.05621 0.35671 0.9212 0.0
H505 H 0.15472 0.20981 0.87754 0.0
H506 H 0.93285 0.37966 0.84712 0.0
H507 H 0.02911 0.41186 0.84321 0.0
H508 H 0.98178 0.41124 0.8862 0.0
H509 H 0.05275 0.201 0.79619 0.0
H510 H 0.14136 0.17827 0.81846 0.0
H511 H 0.15059 0.23025 0.79003 0.0
C512 C 0.17847 0.69847 0.63795 0.0
C513 C 0.12599 0.69679 0.60844 0.0
C514 C 0.14939 0.69071 0.67201 0.0
C515 C 0.06486 0.68154 0.67735 0.0
C516 C 0.0116 0.6782 0.6475 0.0
C517 C 0.04284 0.68546 0.61336 0.0
C518 C 0.20927 0.69391 0.70253 0.0
C519 C 0.92104 0.66903 0.65187 0.0
C520 C 0.00851 0.62744 0.76523 0.0
C521 C 0.9901 0.67304 0.78737 0.0
C522 C 0.03008 0.62931 0.72924 0.0
C523 C 0.03291 0.67791 0.71445 0.0
C524 C 0.01185 0.72385 0.73625 0.0
C525 C 0.99125 0.72093 0.77221 0.0
C526 C 0.0523 0.57928 0.7073 0.0
C527 C 0.01365 0.77659 0.72187 0.0
H528 H 0.24301 0.70677 0.63451 0.0
H529 H 0.00165 0.68457 0.5909 0.0
H530 H 0.19409 0.72778 0.72173 0.0
H531 H 0.20467 0.65832 0.71683 0.0
H532 H 0.27366 0.69824 0.6937 0.0
H533 H 0.88857 0.66388 0.62602 0.0
H534 H 0.9104 0.63393 0.66616 0.0
H535 H 0.89379 0.70276 0.66816 0.0
H536 H 0.00646 0.58996 0.77604 0.0
H537 H 0.9785 0.7567 0.78872 0.0
H538 H 0.11782 0.58049 0.6996 0.0
H539 H 0.0159 0.57508 0.68249 0.0
H540 H 0.04192 0.54429 0.72181 0.0
H541 H 0.07766 0.78689 0.71545 0.0
H542 H 0.98867 0.80793 0.74104 0.0
H543 H 0.97778 0.77542 0.69696 0.0
loop_
_geom_bond_atom_site_label_1
_geom_bond_atom_site_label_2
_geom_bond_distance
_geom_bond_site_symmetry_2
_ccdc_geom_bond_type
Eu0 C9 2.828 . S
Eu0 O11 2.392 1_554 S
Eu0 O13 2.418 . S
Eu0 O18 2.373 . S
Eu0 O21 2.488 . S
Eu0 O22 2.471 . S
Eu0 O23 2.349 . S
Eu1 O10 2.373 . S
Eu1 O14 2.488 . S
Eu1 O15 2.471 . S
Eu1 O16 2.349 . S
Eu1 O19 2.392 1_556 S
Eu1 O20 2.418 . S
Eu1 C30 2.828 . S
C2 O20 1.244 . S
C2 O23 1.265 1_556 S
C3 C4 1.379 . S
C3 C7 1.373 . S
C3 C9 1.505 . S
C4 C3 1.379 . S
C4 C6 1.369 . S
C4 H32 0.930 . S
C5 C7 1.383 . S
C5 C8 1.382 . S
C5 H33 0.930 . S
C6 C4 1.369 . S
C6 C8 1.392 . S
C6 H34 0.930 . S
C7 C3 1.373 . S
C7 C5 1.383 . S
C7 H35 0.931 . S
C8 C5 1.382 . S
C8 C6 1.392 . S
C9 Eu0 2.828 . S
C9 C3 1.505 . S
C9 O21 1.249 . S
C9 O22 1.244 . S
O10 Eu1 2.373 . S
O10 C12 1.258 . S
O11 Eu0 2.392 1_556 S
O11 C12 1.242 . S
C12 O10 1.258 . S
C12 O11 1.242 . S
O13 Eu0 2.418 . S
O13 C17 1.244 . S
O14 Eu1 2.488 . S
O14 C30 1.249 . S
O15 Eu1 2.471 . S
O15 C30 1.244 . S
O16 Eu1 2.349 . S
O16 C17 1.265 1_556 S
C17 O13 1.244 . S
C17 O16 1.265 1_554 S
O18 Eu0 2.373 . S
O18 C31 1.258 . S
O19 Eu1 2.392 1_554 S
O19 C31 1.242 . S
O20 Eu1 2.418 . S
O20 C2 1.244 . S
O21 Eu0 2.488 . S
O21 C9 1.249 . S
O22 Eu0 2.471 . S
O22 C9 1.244 . S
O23 Eu0 2.349 . S
O23 C2 1.265 1_554 S
C24 C25 1.379 . S
C24 C28 1.373 . S
C24 C30 1.505 . S
C25 C24 1.379 . S
C25 C27 1.369 . S
C25 H36 0.930 . S
C26 C28 1.383 . S
C26 C29 1.382 . S
C26 H37 0.930 . S
C27 C25 1.369 . S
C27 C29 1.392 . S
C27 H38 0.930 . S
C28 C24 1.373 . S
C28 C26 1.383 . S
C28 H39 0.931 . S
C29 C26 1.382 . S
C29 C27 1.392 . S
C30 Eu1 2.828 . S
C30 O14 1.249 . S
C30 O15 1.244 . S
C30 C24 1.505 . S
C31 O18 1.258 . S
C31 O19 1.242 . S
H32 C4 0.930 . S
H33 C5 0.930 . S
H34 C6 0.930 . S
H35 C7 0.931 . S
H36 C25 0.930 . S
H37 C26 0.930 . S
H38 C27 0.930 . S
H39 C28 0.931 . S
Eu40 C49 2.828 . S
Eu40 O51 2.392 1_554 S
Eu40 O53 2.418 . S
Eu40 O58 2.373 . S
Eu40 O61 2.488 . S
Eu40 O62 2.471 . S
Eu40 O63 2.349 . S
Eu41 O50 2.373 . S
Eu41 O54 2.488 . S
Eu41 O55 2.471 . S
Eu41 O56 2.349 . S
Eu41 O59 2.392 1_556 S
Eu41 O60 2.418 . S
Eu41 C70 2.828 . S
C42 O60 1.244 . S
C42 O63 1.265 1_556 S
C43 C44 1.379 . S
C43 C47 1.373 . S
C43 C49 1.505 . S
C44 C43 1.379 . S
C44 C46 1.369 . S
C44 H72 0.930 . S
C45 C47 1.383 . S
C45 C48 1.382 . S
C45 H73 0.930 . S
C46 C44 1.369 . S
C46 C48 1.392 . S
C46 H74 0.930 . S
C47 C43 1.373 . S
C47 C45 1.383 . S
C47 H75 0.931 . S
C48 C45 1.382 . S
C48 C46 1.392 . S
C49 Eu40 2.828 . S
C49 C43 1.505 . S
C49 O61 1.249 . S
C49 O62 1.244 . S
O50 Eu41 2.373 . S
O50 C52 1.258 . S
O51 Eu40 2.392 1_556 S
O51 C52 1.242 . S
C52 O50 1.258 . S
C52 O51 1.242 . S
O53 Eu40 2.418 . S
O53 C57 1.244 . S
O54 Eu41 2.488 . S
O54 C70 1.249 . S
O55 Eu41 2.471 . S
O55 C70 1.244 . S
O56 Eu41 2.349 . S
O56 C57 1.265 1_556 S
C57 O53 1.244 . S
C57 O56 1.265 1_554 S
O58 Eu40 2.373 . S
O58 C71 1.258 . S
O59 Eu41 2.392 1_554 S
O59 C71 1.242 . S
O60 Eu41 2.418 . S
O60 C42 1.244 . S
O61 Eu40 2.488 . S
O61 C49 1.249 . S
O62 Eu40 2.471 . S
O62 C49 1.244 . S
O63 Eu40 2.349 . S
O63 C42 1.265 1_554 S
C64 C65 1.379 . S
C64 C68 1.373 . S
C64 C70 1.505 . S
C65 C64 1.379 . S
C65 C67 1.369 . S
C65 H76 0.930 . S
C66 C68 1.383 . S
C66 C69 1.382 . S
C66 H77 0.930 . S
C67 C65 1.369 . S
C67 C69 1.392 . S
C67 H78 0.930 . S
C68 C64 1.373 . S
C68 C66 1.383 . S
C68 H79 0.931 . S
C69 C66 1.382 . S
C69 C67 1.392 . S
C70 Eu41 2.828 . S
C70 O54 1.249 . S
C70 O55 1.244 . S
C70 C64 1.505 . S
C71 O58 1.258 . S
C71 O59 1.242 . S
H72 C44 0.930 . S
H73 C45 0.930 . S
H74 C46 0.930 . S
H75 C47 0.931 . S
H76 C65 0.930 . S
H77 C66 0.930 . S
H78 C67 0.930 . S
H79 C68 0.931 . S
Eu80 C89 2.828 . S
Eu80 O91 2.392 . S
Eu80 O93 2.418 . S
Eu80 O98 2.373 . S
Eu80 O101 2.488 . S
Eu80 O102 2.471 . S
Eu80 O103 2.349 . S
Eu81 O90 2.373 . S
Eu81 O94 2.488 . S
Eu81 O95 2.471 . S
Eu81 O96 2.349 . S
Eu81 O99 2.392 . S
Eu81 O100 2.418 . S
Eu81 C110 2.828 . S
C82 O100 1.244 . S
C82 O103 1.265 . S
C83 C84 1.379 . S
C83 C87 1.373 . S
C83 C89 1.505 . S
C84 C83 1.379 . S
C84 C86 1.369 . S
C84 H112 0.930 . S
C85 C87 1.383 . S
C85 C88 1.382 . S
C85 H113 0.930 . S
C86 C84 1.369 . S
C86 C88 1.392 . S
C86 H114 0.930 . S
C87 C83 1.373 . S
C87 C85 1.383 . S
C87 H115 0.931 . S
C88 C85 1.382 . S
C88 C86 1.392 . S
C89 Eu80 2.828 . S
C89 C83 1.505 . S
C89 O101 1.249 . S
C89 O102 1.244 . S
O90 Eu81 2.373 . S
O90 C92 1.258 . S
O91 Eu80 2.392 . S
O91 C92 1.242 . S
C92 O90 1.258 . S
C92 O91 1.242 . S
O93 Eu80 2.418 . S
O93 C97 1.244 . S
O94 Eu81 2.488 . S
O94 C110 1.249 . S
O95 Eu81 2.471 . S
O95 C110 1.244 . S
O96 Eu81 2.349 . S
O96 C97 1.265 . S
C97 O93 1.244 . S
C97 O96 1.265 . S
O98 Eu80 2.373 . S
O98 C111 1.258 . S
O99 Eu81 2.392 . S
O99 C111 1.242 . S
O100 Eu81 2.418 . S
O100 C82 1.244 . S
O101 Eu80 2.488 . S
O101 C89 1.249 . S
O102 Eu80 2.471 . S
O102 C89 1.244 . S
O103 Eu80 2.349 . S
O103 C82 1.265 . S
C104 C105 1.379 . S
C104 C108 1.373 . S
C104 C110 1.505 . S
C105 C104 1.379 . S
C105 C107 1.369 . S
C105 H116 0.930 . S
C106 C108 1.383 . S
C106 C109 1.382 . S
C106 H117 0.930 . S
C107 C105 1.369 . S
C107 C109 1.392 . S
C107 H118 0.930 . S
C108 C104 1.373 . S
C108 C106 1.383 . S
C108 H119 0.931 . S
C109 C106 1.382 . S
C109 C107 1.392 . S
C110 Eu81 2.828 . S
C110 O94 1.249 . S
C110 O95 1.244 . S
C110 C104 1.505 . S
C111 O98 1.258 . S
C111 O99 1.242 . S
H112 C84 0.930 . S
H113 C85 0.930 . S
H114 C86 0.930 . S
H115 C87 0.931 . S
H116 C105 0.930 . S
H117 C106 0.930 . S
H118 C107 0.930 . S
H119 C108 0.931 . S
Eu120 C129 2.828 . S
Eu120 O131 2.392 . S
Eu120 O133 2.418 . S
Eu120 O138 2.373 . S
Eu120 O141 2.488 . S
Eu120 O142 2.471 . S
Eu120 O143 2.349 . S
Eu121 O130 2.373 . S
Eu121 O134 2.488 . S
Eu121 O135 2.471 . S
Eu121 O136 2.349 . S
Eu121 O139 2.392 . S
Eu121 O140 2.418 . S
Eu121 C150 2.828 . S
C122 O140 1.244 . S
C122 O143 1.265 . S
C123 C124 1.379 . S
C123 C127 1.373 . S
C123 C129 1.505 . S
C124 C123 1.379 . S
C124 C126 1.369 . S
C124 H152 0.930 . S
C125 C127 1.383 . S
C125 C128 1.382 . S
C125 H153 0.930 . S
C126 C124 1.369 . S
C126 C128 1.392 . S
C126 H154 0.930 . S
C127 C123 1.373 . S
C127 C125 1.383 . S
C127 H155 0.931 . S
C128 C125 1.382 . S
C128 C126 1.392 . S
C129 Eu120 2.828 . S
C129 C123 1.505 . S
C129 O141 1.249 . S
C129 O142 1.244 . S
O130 Eu121 2.373 . S
O130 C132 1.258 . S
O131 Eu120 2.392 . S
O131 C132 1.242 . S
C132 O130 1.258 . S
C132 O131 1.242 . S
O133 Eu120 2.418 . S
O133 C137 1.244 . S
O134 Eu121 2.488 . S
O134 C150 1.249 . S
O135 Eu121 2.471 . S
O135 C150 1.244 . S
O136 Eu121 2.349 . S
O136 C137 1.265 . S
C137 O133 1.244 . S
C137 O136 1.265 . S
O138 Eu120 2.373 . S
O138 C151 1.258 . S
O139 Eu121 2.392 . S
O139 C151 1.242 . S
O140 Eu121 2.418 . S
O140 C122 1.244 . S
O141 Eu120 2.488 . S
O141 C129 1.249 . S
O142 Eu120 2.471 . S
O142 C129 1.244 . S
O143 Eu120 2.349 . S
O143 C122 1.265 . S
C144 C145 1.379 . S
C144 C148 1.373 . S
C144 C150 1.505 . S
C145 C144 1.379 . S
C145 C147 1.369 . S
C145 H156 0.930 . S
C146 C148 1.383 . S
C146 C149 1.382 . S
C146 H157 0.930 . S
C147 C145 1.369 . S
C147 C149 1.392 . S
C147 H158 0.930 . S
C148 C144 1.373 . S
C148 C146 1.383 . S
C148 H159 0.931 . S
C149 C146 1.382 . S
C149 C147 1.392 . S
C150 Eu121 2.828 . S
C150 O134 1.249 . S
C150 O135 1.244 . S
C150 C144 1.505 . S
C151 O138 1.258 . S
C151 O139 1.242 . S
H152 C124 0.930 . S
H153 C125 0.930 . S
H154 C126 0.930 . S
H155 C127 0.931 . S
H156 C145 0.930 . S
H157 C146 0.930 . S
H158 C147 0.930 . S
H159 C148 0.931 . S
C160 C161 1.391 . S
C160 C162 1.394 . S
C160 H176 0.931 . S
C161 C160 1.391 . S
C161 C165 1.376 1_554 S
C162 C160 1.394 . S
C162 C163 1.369 . S
C162 C166 1.531 . S
C163 C162 1.369 . S
C163 C164 1.410 1_554 S
C163 C171 1.503 . S
C164 C163 1.410 1_556 S
C164 C165 1.392 . S
C164 C167 1.511 . S
C165 C161 1.376 1_556 S
C165 C164 1.392 . S
C165 H177 0.929 . S
C166 C162 1.531 . S
C166 H178 0.960 . S
C166 H179 0.962 . S
C166 H180 0.960 . S
C167 C164 1.511 . S
C167 H181 0.961 . S
C167 H182 0.961 . S
C167 H183 0.961 . S
C168 C169 1.370 1_556 S
C168 C170 1.363 . S
C168 H184 0.931 . S
C169 C168 1.370 1_554 S
C169 C173 1.408 . S
C170 C168 1.363 . S
C170 C171 1.370 1_556 S
C170 C174 1.524 . S
C171 C163 1.503 . S
C171 C170 1.370 1_554 S
C171 C172 1.403 . S
C172 C171 1.403 . S
C172 C173 1.404 . S
C172 C175 1.539 . S
C173 C169 1.408 . S
C173 C172 1.404 . S
C173 H185 0.930 . S
C174 C170 1.524 . S
C174 H186 0.956 1_556 S
C174 H187 0.961 . S
C174 H188 0.961 . S
C175 C172 1.539 . S
C175 H189 0.958 . S
C175 H190 0.961 . S
C175 H191 0.960 . S
H176 C160 0.931 . S
H177 C165 0.929 . S
H178 C166 0.960 . S
H179 C166 0.962 . S
H180 C166 0.960 . S
H181 C167 0.961 . S
H182 C167 0.961 . S
H183 C167 0.961 . S
H184 C168 0.931 . S
H185 C173 0.930 . S
H186 C174 0.956 1_554 S
H187 C174 0.961 . S
H188 C174 0.961 . S
H189 C175 0.958 . S
H190 C175 0.961 . S
H191 C175 0.960 . S
C192 C193 1.391 . S
C192 C194 1.394 . S
C192 H208 0.931 . S
C193 C192 1.391 . S
C193 C197 1.376 . S
C194 C192 1.394 . S
C194 C195 1.369 . S
C194 C198 1.531 . S
C195 C194 1.369 . S
C195 C196 1.410 . S
C195 C203 1.503 . S
C196 C195 1.410 . S
C196 C197 1.392 . S
C196 C199 1.511 . S
C197 C193 1.376 . S
C197 C196 1.392 . S
C197 H209 0.929 . S
C198 C194 1.531 . S
C198 H210 0.960 . S
C198 H211 0.962 . S
C198 H212 0.960 . S
C199 C196 1.511 . S
C199 H213 0.961 . S
C199 H214 0.961 . S
C199 H215 0.961 . S
C200 C201 1.370 . S
C200 C202 1.363 . S
C200 H216 0.931 . S
C201 C200 1.370 . S
C201 C205 1.408 . S
C202 C200 1.363 . S
C202 C203 1.370 . S
C202 C206 1.524 . S
C203 C195 1.503 . S
C203 C202 1.370 . S
C203 C204 1.403 . S
C204 C203 1.403 . S
C204 C205 1.404 . S
C204 C207 1.539 . S
C205 C201 1.408 . S
C205 C204 1.404 . S
C205 H217 0.930 . S
C206 C202 1.524 . S
C206 H218 0.956 . S
C206 H219 0.961 . S
C206 H220 0.961 . S
C207 C204 1.539 . S
C207 H221 0.958 . S
C207 H222 0.961 . S
C207 H223 0.960 . S
H208 C192 0.931 . S
H209 C197 0.929 . S
H210 C198 0.960 . S
H211 C198 0.962 . S
H212 C198 0.960 . S
H213 C199 0.961 . S
H214 C199 0.961 . S
H215 C199 0.961 . S
H216 C200 0.931 . S
H217 C205 0.930 . S
H218 C206 0.956 . S
H219 C206 0.961 . S
H220 C206 0.961 . S
H221 C207 0.958 . S
H222 C207 0.961 . S
H223 C207 0.960 . S
C224 C225 1.391 . S
C224 C226 1.394 . S
C224 H240 0.931 . S
C225 C224 1.391 . S
C225 C229 1.376 1_554 S
C226 C224 1.394 . S
C226 C227 1.369 . S
C226 C230 1.531 . S
C227 C226 1.369 . S
C227 C228 1.410 1_554 S
C227 C235 1.503 1_445 S
C228 C227 1.410 1_556 S
C228 C229 1.392 . S
C228 C231 1.511 1_455 S
C229 C225 1.376 1_556 S
C229 C228 1.392 . S
C229 H241 0.929 . S
C230 C226 1.531 . S
C230 H242 0.960 1_545 S
C230 H243 0.962 1_545 S
C230 H244 0.960 . S
C231 C228 1.511 1_655 S
C231 H245 0.961 . S
C231 H246 0.961 . S
C231 H247 0.961 . S
C232 C233 1.370 1_556 S
C232 C234 1.363 . S
C232 H248 0.931 . S
C233 C232 1.370 1_554 S
C233 C237 1.408 . S
C234 C232 1.363 . S
C234 C235 1.370 1_556 S
C234 C238 1.524 1_655 S
C235 C227 1.503 1_665 S
C235 C234 1.370 1_554 S
C235 C236 1.403 . S
C236 C235 1.403 . S
C236 C237 1.404 . S
C236 C239 1.539 1_565 S
C237 C233 1.408 . S
C237 C236 1.404 . S
C237 H249 0.930 . S
C238 C234 1.524 1_455 S
C238 H250 0.956 . S
C238 H251 0.961 . S
C238 H252 0.961 . S
C239 C236 1.539 1_545 S
C239 H253 0.958 . S
C239 H254 0.961 . S
C239 H255 0.960 . S
H240 C224 0.931 . S
H241 C229 0.929 . S
H242 C230 0.960 1_565 S
H243 C230 0.962 1_565 S
H244 C230 0.960 . S
H245 C231 0.961 . S
H246 C231 0.961 . S
H247 C231 0.961 . S
H248 C232 0.931 . S
H249 C237 0.930 . S
H250 C238 0.956 . S
H251 C238 0.961 . S
H252 C238 0.961 . S
H253 C239 0.958 . S
H254 C239 0.961 . S
H255 C239 0.960 . S
C256 C257 1.391 . S
C256 C258 1.394 . S
C256 H272 0.931 . S
C257 C256 1.391 . S
C257 C261 1.376 . S
C258 C256 1.394 . S
C258 C259 1.369 . S
C258 C262 1.531 1_655 S
C259 C258 1.369 . S
C259 C260 1.410 . S
C259 C267 1.503 1_645 S
C260 C259 1.410 . S
C260 C261 1.392 . S
C260 C263 1.511 1_545 S
C261 C257 1.376 . S
C261 C260 1.392 . S
C261 H273 0.929 . S
C262 C258 1.531 1_455 S
C262 H274 0.960 . S
C262 H275 0.962 . S
C262 H276 0.960 1_455 S
C263 C260 1.511 1_565 S
C263 H277 0.961 . S
C263 H278 0.961 . S
C263 H279 0.961 . S
C264 C265 1.370 . S
C264 C266 1.363 . S
C264 H280 0.931 . S
C265 C264 1.370 . S
C265 C269 1.408 . S
C266 C264 1.363 . S
C266 C267 1.370 . S
C266 C270 1.524 1_565 S
C267 C259 1.503 1_465 S
C267 C266 1.370 . S
C267 C268 1.403 1_455 S
C268 C267 1.403 1_655 S
C268 C269 1.404 1_655 S
C268 C271 1.539 . S
C269 C265 1.408 . S
C269 C268 1.404 1_455 S
C269 H281 0.930 . S
C270 C266 1.524 1_545 S
C270 H282 0.956 . S
C270 H283 0.961 . S
C270 H284 0.961 . S
C271 C268 1.539 . S
C271 H285 0.958 . S
C271 H286 0.961 . S
C271 H287 0.960 . S
H272 C256 0.931 . S
H273 C261 0.929 . S
H274 C262 0.960 . S
H275 C262 0.962 . S
H276 C262 0.960 1_655 S
H277 C263 0.961 . S
H278 C263 0.961 . S
H279 C263 0.961 . S
H280 C264 0.931 . S
H281 C269 0.930 . S
H282 C270 0.956 . S
H283 C270 0.961 . S
H284 C270 0.961 . S
H285 C271 0.958 . S
H286 C271 0.961 . S
H287 C271 0.960 . S
C288 C289 1.391 . S
C288 C290 1.394 . S
C288 H304 0.931 . S
C289 C288 1.391 . S
C289 C293 1.376 . S
C290 C288 1.394 . S
C290 C291 1.369 . S
C290 C294 1.531 . S
C291 C290 1.369 . S
C291 C292 1.410 . S
C291 C299 1.503 . S
C292 C291 1.410 . S
C292 C293 1.392 . S
C292 C295 1.511 . S
C293 C289 1.376 . S
C293 C292 1.392 . S
C293 H305 0.929 . S
C294 C290 1.531 . S
C294 H306 0.960 . S
C294 H307 0.962 . S
C294 H308 0.960 . S
C295 C292 1.511 . S
C295 H309 0.961 . S
C295 H310 0.961 . S
C295 H311 0.961 . S
C296 C297 1.370 . S
C296 C298 1.363 . S
C296 H312 0.931 . S
C297 C296 1.370 . S
C297 C301 1.408 . S
C298 C296 1.363 . S
C298 C299 1.370 . S
C298 C302 1.524 . S
C299 C291 1.503 . S
C299 C298 1.370 . S
C299 C300 1.403 . S
C300 C299 1.403 . S
C300 C301 1.404 . S
C300 C303 1.539 . S
C301 C297 1.408 . S
C301 C300 1.404 . S
C301 H313 0.930 . S
C302 C298 1.524 . S
C302 H314 0.956 . S
C302 H315 0.961 . S
C302 H316 0.961 . S
C303 C300 1.539 . S
C303 H317 0.958 . S
C303 H318 0.961 . S
C303 H319 0.960 . S
H304 C288 0.931 . S
H305 C293 0.929 . S
H306 C294 0.960 . S
H307 C294 0.962 . S
H308 C294 0.960 . S
H309 C295 0.961 . S
H310 C295 0.961 . S
H311 C295 0.961 . S
H312 C296 0.931 . S
H313 C301 0.930 . S
H314 C302 0.956 . S
H315 C302 0.961 . S
H316 C302 0.961 . S
H317 C303 0.958 . S
H318 C303 0.961 . S
H319 C303 0.960 . S
C320 C321 1.391 . S
C320 C322 1.394 . S
C320 H336 0.931 . S
C321 C320 1.391 . S
C321 C325 1.376 . S
C322 C320 1.394 . S
C322 C323 1.369 . S
C322 C326 1.531 . S
C323 C322 1.369 . S
C323 C324 1.410 . S
C323 C331 1.503 . S
C324 C323 1.410 . S
C324 C325 1.392 . S
C324 C327 1.511 . S
C325 C321 1.376 . S
C325 C324 1.392 . S
C325 H337 0.929 . S
C326 C322 1.531 . S
C326 H338 0.960 . S
C326 H339 0.962 . S
C326 H340 0.960 . S
C327 C324 1.511 . S
C327 H341 0.961 . S
C327 H342 0.961 . S
C327 H343 0.961 . S
C328 C329 1.370 . S
C328 C330 1.363 . S
C328 H344 0.931 . S
C329 C328 1.370 . S
C329 C333 1.408 . S
C330 C328 1.363 . S
C330 C331 1.370 . S
C330 C334 1.524 . S
C331 C323 1.503 . S
C331 C330 1.370 . S
C331 C332 1.403 . S
C332 C331 1.403 . S
C332 C333 1.404 . S
C332 C335 1.539 . S
C333 C329 1.408 . S
C333 C332 1.404 . S
C333 H345 0.930 . S
C334 C330 1.524 . S
C334 H346 0.956 . S
C334 H347 0.961 . S
C334 H348 0.961 . S
C335 C332 1.539 . S
C335 H349 0.958 . S
C335 H350 0.961 . S
C335 H351 0.960 . S
H336 C320 0.931 . S
H337 C325 0.929 . S
H338 C326 0.960 . S
H339 C326 0.962 . S
H340 C326 0.960 . S
H341 C327 0.961 . S
H342 C327 0.961 . S
H343 C327 0.961 . S
H344 C328 0.931 . S
H345 C333 0.930 . S
H346 C334 0.956 . S
H347 C334 0.961 . S
H348 C334 0.961 . S
H349 C335 0.958 . S
H350 C335 0.961 . S
H351 C335 0.960 . S
C352 C353 1.391 . S
C352 C354 1.394 . S
C352 H368 0.931 . S
C353 C352 1.391 . S
C353 C357 1.376 . S
C354 C352 1.394 . S
C354 C355 1.369 . S
C354 C358 1.531 . S
C355 C354 1.369 . S
C355 C356 1.410 . S
C355 C363 1.503 . S
C356 C355 1.410 . S
C356 C357 1.392 . S
C356 C359 1.511 . S
C357 C353 1.376 . S
C357 C356 1.392 . S
C357 H369 0.929 . S
C358 C354 1.531 . S
C358 H370 0.960 . S
C358 H371 0.962 . S
C358 H372 0.960 . S
C359 C356 1.511 . S
C359 H373 0.961 . S
C359 H374 0.961 . S
C359 H375 0.961 . S
C360 C361 1.370 . S
C360 C362 1.363 . S
C360 H376 0.931 . S
C361 C360 1.370 . S
C361 C365 1.408 . S
C362 C360 1.363 . S
C362 C363 1.370 . S
C362 C366 1.524 . S
C363 C355 1.503 . S
C363 C362 1.370 . S
C363 C364 1.403 . S
C364 C363 1.403 . S
C364 C365 1.404 . S
C364 C367 1.539 . S
C365 C361 1.408 . S
C365 C364 1.404 . S
C365 H377 0.930 . S
C366 C362 1.524 . S
C366 H378 0.956 . S
C366 H379 0.961 . S
C366 H380 0.961 . S
C367 C364 1.539 . S
C367 H381 0.958 . S
C367 H382 0.961 . S
C367 H383 0.960 . S
H368 C352 0.931 . S
H369 C357 0.929 . S
H370 C358 0.960 . S
H371 C358 0.962 . S
H372 C358 0.960 . S
H373 C359 0.961 . S
H374 C359 0.961 . S
H375 C359 0.961 . S
H376 C360 0.931 . S
H377 C365 0.930 . S
H378 C366 0.956 . S
H379 C366 0.961 . S
H380 C366 0.961 . S
H381 C367 0.958 . S
H382 C367 0.961 . S
H383 C367 0.960 . S
C384 C385 1.391 . S
C384 C386 1.394 . S
C384 H400 0.931 . S
C385 C384 1.391 . S
C385 C389 1.376 . S
C386 C384 1.394 . S
C386 C387 1.369 . S
C386 C390 1.531 . S
C387 C386 1.369 . S
C387 C388 1.410 . S
C387 C395 1.503 . S
C388 C387 1.410 . S
C388 C389 1.392 . S
C388 C391 1.511 . S
C389 C385 1.376 . S
C389 C388 1.392 . S
C389 H401 0.929 . S
C390 C386 1.531 . S
C390 H402 0.960 . S
C390 H403 0.962 . S
C390 H404 0.960 . S
C391 C388 1.511 . S
C391 H405 0.961 . S
C391 H406 0.961 . S
C391 H407 0.961 . S
C392 C393 1.370 . S
C392 C394 1.363 . S
C392 H408 0.931 . S
C393 C392 1.370 . S
C393 C397 1.408 . S
C394 C392 1.363 . S
C394 C395 1.370 . S
C394 C398 1.524 . S
C395 C387 1.503 . S
C395 C394 1.370 . S
C395 C396 1.403 . S
C396 C395 1.403 . S
C396 C397 1.404 . S
C396 C399 1.539 . S
C397 C393 1.408 . S
C397 C396 1.404 . S
C397 H409 0.930 . S
C398 C394 1.524 . S
C398 H410 0.956 . S
C398 H411 0.961 . S
C398 H412 0.961 . S
C399 C396 1.539 . S
C399 H413 0.958 . S
C399 H414 0.961 . S
C399 H415 0.960 . S
H400 C384 0.931 . S
H401 C389 0.929 . S
H402 C390 0.960 . S
H403 C390 0.962 . S
H404 C390 0.960 . S
H405 C391 0.961 . S
H406 C391 0.961 . S
H407 C391 0.961 . S
H408 C392 0.931 . S
H409 C397 0.930 . S
H410 C398 0.956 . S
H411 C398 0.961 . S
H412 C398 0.961 . S
H413 C399 0.958 . S
H414 C399 0.961 . S
H415 C399 0.960 . S
C416 C417 1.391 . S
C416 C418 1.394 . S
C416 H432 0.931 . S
C417 C416 1.391 . S
C417 C421 1.376 . S
C418 C416 1.394 . S
C418 C419 1.369 . S
C418 C422 1.531 . S
C419 C418 1.369 . S
C419 C420 1.410 . S
C419 C427 1.503 . S
C420 C419 1.410 . S
C420 C421 1.392 . S
C420 C423 1.511 . S
C421 C417 1.376 . S
C421 C420 1.392 . S
C421 H433 0.929 . S
C422 C418 1.531 . S
C422 H434 0.960 . S
C422 H435 0.962 . S
C422 H436 0.960 . S
C423 C420 1.511 . S
C423 H437 0.961 1_655 S
C423 H438 0.961 1_655 S
C423 H439 0.961 . S
C424 C425 1.370 1_455 S
C424 C426 1.363 1_455 S
C424 H440 0.931 . S
C425 C424 1.370 1_655 S
C425 C429 1.408 . S
C426 C424 1.363 1_655 S
C426 C427 1.370 . S
C426 C430 1.524 1_655 S
C427 C419 1.503 . S
C427 C426 1.370 . S
C427 C428 1.403 . S
C428 C427 1.403 . S
C428 C429 1.404 . S
C428 C431 1.539 . S
C429 C425 1.408 . S
C429 C428 1.404 . S
C429 H441 0.930 . S
C430 C426 1.524 1_455 S
C430 H442 0.956 1_455 S
C430 H443 0.961 . S
C430 H444 0.961 . S
C431 C428 1.539 . S
C431 H445 0.958 . S
C431 H446 0.961 . S
C431 H447 0.960 . S
H432 C416 0.931 . S
H433 C421 0.929 . S
H434 C422 0.960 . S
H435 C422 0.962 . S
H436 C422 0.960 . S
H437 C423 0.961 1_455 S
H438 C423 0.961 1_455 S
H439 C423 0.961 . S
H440 C424 0.931 . S
H441 C429 0.930 . S
H442 C430 0.956 1_655 S
H443 C430 0.961 . S
H444 C430 0.961 . S
H445 C431 0.958 . S
H446 C431 0.961 . S
H447 C431 0.960 . S
C448 C449 1.391 . S
C448 C450 1.394 . S
C448 H464 0.931 . S
C449 C448 1.391 . S
C449 C453 1.376 . S
C450 C448 1.394 . S
C450 C451 1.369 . S
C450 C454 1.531 . S
C451 C450 1.369 . S
C451 C452 1.410 . S
C451 C459 1.503 . S
C452 C451 1.410 . S
C452 C453 1.392 . S
C452 C455 1.511 . S
C453 C449 1.376 . S
C453 C452 1.392 . S
C453 H465 0.929 . S
C454 C450 1.531 . S
C454 H466 0.960 . S
C454 H467 0.962 . S
C454 H468 0.960 . S
C455 C452 1.511 . S
C455 H469 0.961 . S
C455 H470 0.961 . S
C455 H471 0.961 1_655 S
C456 C457 1.370 . S
C456 C458 1.363 . S
C456 H472 0.931 . S
C457 C456 1.370 . S
C457 C461 1.408 1_655 S
C458 C456 1.363 . S
C458 C459 1.370 . S
C458 C462 1.524 . S
C459 C451 1.503 . S
C459 C458 1.370 . S
C459 C460 1.403 1_655 S
C460 C459 1.403 1_455 S
C460 C461 1.404 . S
C460 C463 1.539 . S
C461 C457 1.408 1_455 S
C461 C460 1.404 . S
C461 H473 0.930 . S
C462 C458 1.524 . S
C462 H474 0.956 . S
C462 H475 0.961 . S
C462 H476 0.961 . S
C463 C460 1.539 . S
C463 H477 0.958 . S
C463 H478 0.961 . S
C463 H479 0.960 . S
H464 C448 0.931 . S
H465 C453 0.929 . S
H466 C454 0.960 . S
H467 C454 0.962 . S
H468 C454 0.960 . S
H469 C455 0.961 . S
H470 C455 0.961 . S
H471 C455 0.961 1_455 S
H472 C456 0.931 . S
H473 C461 0.930 . S
H474 C462 0.956 . S
H475 C462 0.961 . S
H476 C462 0.961 . S
H477 C463 0.958 . S
H478 C463 0.961 . S
H479 C463 0.960 . S
C480 C481 1.391 1_655 S
C480 C482 1.394 1_655 S
C480 H496 0.931 . S
C481 C480 1.391 1_455 S
C481 C485 1.376 . S
C482 C480 1.394 1_455 S
C482 C483 1.369 . S
C482 C486 1.531 1_455 S
C483 C482 1.369 . S
C483 C484 1.410 . S
C483 C491 1.503 . S
C484 C483 1.410 . S
C484 C485 1.392 . S
C484 C487 1.511 . S
C485 C481 1.376 . S
C485 C484 1.392 . S
C485 H497 0.929 . S
C486 C482 1.531 1_655 S
C486 H498 0.960 . S
C486 H499 0.962 . S
C486 H500 0.960 . S
C487 C484 1.511 . S
C487 H501 0.961 . S
C487 H502 0.961 . S
C487 H503 0.961 . S
C488 C489 1.370 . S
C488 C490 1.363 . S
C488 H504 0.931 . S
C489 C488 1.370 . S
C489 C493 1.408 . S
C490 C488 1.363 . S
C490 C491 1.370 . S
C490 C494 1.524 . S
C491 C483 1.503 . S
C491 C490 1.370 . S
C491 C492 1.403 . S
C492 C491 1.403 . S
C492 C493 1.404 . S
C492 C495 1.539 . S
C493 C489 1.408 . S
C493 C492 1.404 . S
C493 H505 0.930 . S
C494 C490 1.524 . S
C494 H506 0.956 1_455 S
C494 H507 0.961 . S
C494 H508 0.961 . S
C495 C492 1.539 . S
C495 H509 0.958 . S
C495 H510 0.961 . S
C495 H511 0.960 . S
H496 C480 0.931 . S
H497 C485 0.929 . S
H498 C486 0.960 . S
H499 C486 0.962 . S
H500 C486 0.960 . S
H501 C487 0.961 . S
H502 C487 0.961 . S
H503 C487 0.961 . S
H504 C488 0.931 . S
H505 C493 0.930 . S
H506 C494 0.956 1_655 S
H507 C494 0.961 . S
H508 C494 0.961 . S
H509 C495 0.958 . S
H510 C495 0.961 . S
H511 C495 0.960 . S
C512 C513 1.391 . S
C512 C514 1.394 . S
C512 H528 0.931 . S
C513 C512 1.391 . S
C513 C517 1.376 . S
C514 C512 1.394 . S
C514 C515 1.369 . S
C514 C518 1.531 . S
C515 C514 1.369 . S
C515 C516 1.410 . S
C515 C523 1.503 . S
C516 C515 1.410 . S
C516 C517 1.392 . S
C516 C519 1.510 1_455 S
C517 C513 1.376 . S
C517 C516 1.392 . S
C517 H529 0.929 . S
C518 C514 1.531 . S
C518 H530 0.960 . S
C518 H531 0.962 . S
C518 H532 0.960 . S
C519 C516 1.510 1_655 S
C519 H533 0.962 . S
C519 H534 0.962 . S
C519 H535 0.960 1_655 S
C520 C521 1.370 1_655 S
C520 C522 1.363 1_655 S
C520 H536 0.931 . S
C521 C520 1.370 1_455 S
C521 C525 1.408 . S
C522 C520 1.363 1_455 S
C522 C523 1.370 . S
C522 C526 1.524 1_455 S
C523 C515 1.503 . S
C523 C522 1.370 . S
C523 C524 1.403 . S
C524 C523 1.403 . S
C524 C525 1.404 . S
C524 C527 1.539 . S
C525 C521 1.408 . S
C525 C524 1.404 . S
C525 H537 0.930 . S
C526 C522 1.524 1_655 S
C526 H538 0.956 1_655 S
C526 H539 0.961 . S
C526 H540 0.961 . S
C527 C524 1.539 . S
C527 H541 0.958 . S
C527 H542 0.961 . S
C527 H543 0.960 . S
H528 C512 0.931 . S
H529 C517 0.929 . S
H530 C518 0.960 . S
H531 C518 0.962 . S
H532 C518 0.960 . S
H533 C519 0.962 . S
H534 C519 0.962 . S
H535 C519 0.960 1_455 S
H536 C520 0.931 . S
H537 C525 0.930 . S
H538 C526 0.956 1_455 S
H539 C526 0.961 . S
H540 C526 0.961 . S
H541 C527 0.958 . S
H542 C527 0.961 . S
H543 C527 0.960 . S
C161 C42 1.524 1_554 S
C169 C17 1.509 . S
C193 C97 1.501 . S
C201 C122 1.517 . S
C225 C2 1.526 1_554 S
C233 C57 1.508 . S
C257 C137 1.506 . S
C265 C82 1.517 . S
C289 C128 1.302 . S
C297 C31 1.296 . S
C321 C48 1.301 . S
C329 C111 1.295 . S
C353 C52 1.298 . S
C361 C109 1.295 . S
C385 C132 1.299 . S
C393 C29 1.301 . S
C417 C71 1.289 . S
C425 C88 1.301 1_655 S
C449 C151 1.303 . S
C457 C8 1.298 1_655 S
C481 C149 1.289 1_455 S
C489 C12 1.294 . S
C513 C92 1.287 . S
C521 C69 1.296 1_455 S
