# Generated by pormake.
# Topology acs-a, (4)-cn, num edge types: 1
# Building blocks:
#     Node 0, Type 0, BuildingBlock: AZAVOO_clean_sbu_0, # of connection points: 4
#     Node 1, Type 0, BuildingBlock: AZAVOO_clean_sbu_0, # of connection points: 4
#     Node 2, Type 0, BuildingBlock: AZAVOO_clean_sbu_0, # of connection points: 4
#     Node 3, Type 0, BuildingBlock: AZAVOO_clean_sbu_0, # of connection points: 4
#     Node 4, Type 0, BuildingBlock: AZAVOO_clean_sbu_0, # of connection points: 4
#     Node 5, Type 0, BuildingBlock: AZAVOO_clean_sbu_0, # of connection points: 4
#     Node 6, Type 0, BuildingBlock: AZAVOO_clean_sbu_0, # of connection points: 4
#     Node 7, Type 0, BuildingBlock: AZAVOO_clean_sbu_0, # of connection points: 4
#     Node 8, Type 0, BuildingBlock: AZAVOO_clean_sbu_0, # of connection points: 4
#     Node 9, Type 0, BuildingBlock: AZAVOO_clean_sbu_0, # of connection points: 4
#     Node 10, Type 0, BuildingBlock: AZAVOO_clean_sbu_0, # of connection points: 4
#     Node 11, Type 0, BuildingBlock: AZAVOO_clean_sbu_0, # of connection points: 4
#     Edge 12, Type (0, 0), BuildingBlock: MIFKUJ_clean_linker_0, # of connection points: 2
#     Edge 13, Type (0, 0), BuildingBlock: MIFKUJ_clean_linker_0, # of connection points: 2
#     Edge 14, Type (0, 0), BuildingBlock: MIFKUJ_clean_linker_0, # of connection points: 2
#     Edge 15, Type (0, 0), BuildingBlock: MIFKUJ_clean_linker_0, # of connection points: 2
#     Edge 16, Type (0, 0), BuildingBlock: MIFKUJ_clean_linker_0, # of connection points: 2
#     Edge 17, Type (0, 0), BuildingBlock: MIFKUJ_clean_linker_0, # of connection points: 2
#     Edge 18, Type (0, 0), BuildingBlock: MIFKUJ_clean_linker_0, # of connection points: 2
#     Edge 19, Type (0, 0), BuildingBlock: MIFKUJ_clean_linker_0, # of connection points: 2
#     Edge 20, Type (0, 0), BuildingBlock: MIFKUJ_clean_linker_0, # of connection points: 2
#     Edge 21, Type (0, 0), BuildingBlock: MIFKUJ_clean_linker_0, # of connection points: 2
#     Edge 22, Type (0, 0), BuildingBlock: MIFKUJ_clean_linker_0, # of connection points: 2
#     Edge 23, Type (0, 0), BuildingBlock: MIFKUJ_clean_linker_0, # of connection points: 2
#     Edge 24, Type (0, 0), BuildingBlock: MIFKUJ_clean_linker_0, # of connection points: 2
#     Edge 25, Type (0, 0), BuildingBlock: MIFKUJ_clean_linker_0, # of connection points: 2
#     Edge 26, Type (0, 0), BuildingBlock: MIFKUJ_clean_linker_0, # of connection points: 2
#     Edge 27, Type (0, 0), BuildingBlock: MIFKUJ_clean_linker_0, # of connection points: 2
#     Edge 28, Type (0, 0), BuildingBlock: MIFKUJ_clean_linker_0, # of connection points: 2
#     Edge 29, Type (0, 0), BuildingBlock: MIFKUJ_clean_linker_0, # of connection points: 2
#     Edge 30, Type (0, 0), BuildingBlock: MIFKUJ_clean_linker_0, # of connection points: 2
#     Edge 31, Type (0, 0), BuildingBlock: MIFKUJ_clean_linker_0, # of connection points: 2
#     Edge 32, Type (0, 0), BuildingBlock: MIFKUJ_clean_linker_0, # of connection points: 2
#     Edge 33, Type (0, 0), BuildingBlock: MIFKUJ_clean_linker_0, # of connection points: 2
#     Edge 34, Type (0, 0), BuildingBlock: MIFKUJ_clean_linker_0, # of connection points: 2
#     Edge 35, Type (0, 0), BuildingBlock: MIFKUJ_clean_linker_0, # of connection points: 2
# Relax obj value: 0.393
# Max RMSD: 0.181
# Mean RMSD: 0.181
data_MOF--net-acs-a--node1-AZAVOO_clean_sbu_0--edge1-MIFKUJ_clean_linker_0
_symmetry_space_group_name_H-M    P1
_symmetry_Int_Tables_number       1
_symmetry_cell_setting            triclinic
loop_
_symmetry_equiv_pos_as_xyz
'x, y, z'
_cell_length_a     56.580815
_cell_length_b     56.970749
_cell_length_c     68.312086
_cell_angle_alpha  90.283502
_cell_angle_beta   89.874874
_cell_angle_gamma 119.88842
loop_
_atom_site_label
_atom_site_type_symbol
_atom_site_fract_x
_atom_site_fract_y
_atom_site_fract_z
_atom_type_partial_charge
Mg0 Mg 0.51663 0.11407 0.09118 0.0
O1 O 0.56191 0.14524 0.08797 0.0
O2 O 0.57113 0.1815 0.10628 0.0
Mg3 Mg 0.53111 0.17379 0.12045 0.0
C4 C 0.57846 0.16879 0.09458 0.0
C5 C 0.50972 0.07498 0.06024 0.0
O6 O 0.49158 0.08256 0.05733 0.0
O7 O 0.52353 0.10247 0.12204 0.0
O8 O 0.52923 0.13914 0.13827 0.0
O9 O 0.5088 0.1347 0.06628 0.0
O10 O 0.50745 0.14464 0.09741 0.0
C11 C 0.52693 0.11568 0.13798 0.0
C12 C 0.50626 0.14981 0.07928 0.0
O13 O 0.52436 0.08308 0.07555 0.0
Mg14 Mg 0.40952 0.50702 0.58554 0.0
O15 O 0.4165 0.54983 0.58681 0.0
O16 O 0.37739 0.54791 0.59506 0.0
Mg17 Mg 0.34743 0.50421 0.60424 0.0
C18 C 0.40221 0.56112 0.58951 0.0
C19 C 0.47426 0.53146 0.57164 0.0
O20 O 0.49987 0.54671 0.57686 0.0
O21 O 0.41369 0.50685 0.61871 0.0
O22 O 0.37588 0.5063 0.62891 0.0
O23 O 0.39126 0.50544 0.55572 0.0
O24 O 0.36724 0.49073 0.58286 0.0
C25 C 0.39836 0.50694 0.6324 0.0
C26 C 0.36826 0.49686 0.56475 0.0
O27 O 0.45588 0.52734 0.58406 0.0
Mg28 Mg 0.88894 0.39383 0.08622 0.0
O29 O 0.85678 0.40694 0.08191 0.0
O30 O 0.8184 0.3765 0.09666 0.0
Mg31 Mg 0.82702 0.34661 0.11283 0.0
C32 C 0.83173 0.39773 0.08629 0.0
C33 C 0.9174 0.44283 0.05755 0.0
O34 O 0.89259 0.43069 0.05032 0.0
O35 O 0.89715 0.41173 0.11731 0.0
O36 O 0.85819 0.38172 0.13171 0.0
O37 O 0.87073 0.36566 0.06048 0.0
O38 O 0.85844 0.35417 0.09122 0.0
C39 C 0.88158 0.40313 0.13231 0.0
C40 C 0.85436 0.34797 0.07297 0.0
O41 O 0.92214 0.43335 0.07291 0.0
Mg42 Mg 0.48712 0.88194 0.58979 0.0
O43 O 0.44087 0.85421 0.5881 0.0
O44 O 0.42825 0.82093 0.60991 0.0
Mg45 Mg 0.4671 0.82576 0.62407 0.0
C46 C 0.42258 0.8331 0.59667 0.0
C47 C 0.46996 0.90527 0.55607 0.0
O48 O 0.46066 0.88003 0.55061 0.0
O49 O 0.48247 0.89901 0.61912 0.0
O50 O 0.47282 0.86425 0.63911 0.0
O51 O 0.49219 0.8567 0.5668 0.0
O52 O 0.49095 0.84906 0.59861 0.0
C53 C 0.47772 0.88836 0.63612 0.0
C54 C 0.49129 0.84129 0.58094 0.0
O55 O 0.48244 0.91328 0.57233 0.0
Mg56 Mg 0.60267 0.48688 0.09204 0.0
O57 O 0.58862 0.44171 0.08805 0.0
O58 O 0.61358 0.4316 0.10806 0.0
Mg59 Mg 0.64052 0.46888 0.12665 0.0
C60 C 0.59548 0.42511 0.0948 0.0
C61 C 0.56301 0.46911 0.05703 0.0
O62 O 0.58002 0.46101 0.0514 0.0
O63 O 0.57699 0.47655 0.12015 0.0
O64 O 0.60151 0.46489 0.13921 0.0
O65 O 0.63629 0.49727 0.07016 0.0
O66 O 0.64051 0.49327 0.1019 0.0
C67 C 0.5809 0.46783 0.13629 0.0
C68 C 0.65041 0.4959 0.08451 0.0
O69 O 0.56668 0.4809 0.07352 0.0
Mg70 Mg 0.12029 0.58744 0.58675 0.0
O71 O 0.1525 0.5748 0.5811 0.0
O72 O 0.19136 0.60513 0.59558 0.0
Mg73 Mg 0.1822 0.63309 0.61423 0.0
C74 C 0.1777 0.58425 0.58484 0.0
C75 C 0.09528 0.54527 0.55412 0.0
O76 O 0.1197 0.56233 0.54742 0.0
O77 O 0.11144 0.56739 0.61698 0.0
O78 O 0.15041 0.59694 0.63172 0.0
O79 O 0.13876 0.61811 0.56251 0.0
O80 O 0.15022 0.6269 0.59365 0.0
C81 C 0.127 0.57552 0.63201 0.0
C82 C 0.15434 0.63491 0.57582 0.0
O83 O 0.0888 0.54905 0.5712 0.0
Mg84 Mg 0.88537 0.48713 0.37292 0.0
O85 O 0.85298 0.44213 0.37431 0.0
O86 O 0.81746 0.43405 0.35537 0.0
Mg87 Mg 0.82791 0.47399 0.34084 0.0
C88 C 0.82947 0.42614 0.3672 0.0
C89 C 0.90491 0.46429 0.40553 0.0
O90 O 0.87932 0.45575 0.41005 0.0
O91 O 0.89922 0.47975 0.34286 0.0
O92 O 0.8623 0.47135 0.32548 0.0
O93 O 0.86309 0.49495 0.39678 0.0
O94 O 0.85505 0.49625 0.3653 0.0
C95 C 0.88575 0.4734 0.32683 0.0
C96 C 0.84802 0.49646 0.3832 0.0
O97 O 0.91456 0.47799 0.38995 0.0
Mg98 Mg 0.38691 0.87459 0.87387 0.0
O99 O 0.40397 0.84578 0.87334 0.0
O100 O 0.38 0.81239 0.85193 0.0
Mg101 Mg 0.34567 0.81872 0.84003 0.0
C102 C 0.39924 0.82415 0.86442 0.0
C103 C 0.43274 0.8982 0.90481 0.0
O104 O 0.4192 0.87254 0.90977 0.0
O105 O 0.40618 0.89138 0.84372 0.0
O106 O 0.37701 0.85711 0.82467 0.0
O107 O 0.35842 0.85013 0.89809 0.0
O108 O 0.34889 0.84194 0.86659 0.0
C109 C 0.39733 0.8809 0.82684 0.0
C110 C 0.34238 0.83445 0.88449 0.0
O111 O 0.42486 0.90594 0.89001 0.0
Mg112 Mg 0.51072 0.40429 0.3777 0.0
O113 O 0.55349 0.40994 0.37616 0.0
O114 O 0.55194 0.37139 0.36726 0.0
Mg115 Mg 0.50747 0.34292 0.35831 0.0
C116 C 0.56504 0.39605 0.37285 0.0
C117 C 0.53632 0.47037 0.39029 0.0
O118 O 0.55286 0.49481 0.38362 0.0
O119 O 0.51048 0.40889 0.34467 0.0
O120 O 0.51136 0.37229 0.33383 0.0
O121 O 0.50794 0.38589 0.40741 0.0
O122 O 0.49357 0.3623 0.38 0.0
C123 C 0.51172 0.39457 0.33073 0.0
C124 C 0.49869 0.36295 0.39833 0.0
O125 O 0.53234 0.45039 0.37964 0.0
Mg126 Mg 0.10011 0.50196 0.87589 0.0
O127 O 0.11575 0.54526 0.88918 0.0
O128 O 0.1519 0.55125 0.87385 0.0
Mg129 Mg 0.17247 0.53461 0.85578 0.0
C130 C 0.14032 0.56093 0.88416 0.0
C131 C 0.03564 0.49032 0.8871 0.0
O132 O 0.0118 0.47839 0.87831 0.0
O133 O 0.10002 0.51733 0.84484 0.0
O134 O 0.14238 0.53338 0.83294 0.0
O135 O 0.11726 0.4902 0.90246 0.0
O136 O 0.13907 0.50607 0.8748 0.0
C137 C 0.11759 0.52774 0.83106 0.0
C138 C 0.13902 0.49775 0.89209 0.0
O139 O 0.05551 0.49052 0.8783 0.0
Mg140 Mg 0.59085 0.11772 0.3777 0.0
O141 O 0.5787 0.15095 0.37894 0.0
O142 O 0.60847 0.18594 0.36093 0.0
Mg143 Mg 0.63572 0.17295 0.34515 0.0
C144 C 0.58813 0.17504 0.37256 0.0
C145 C 0.54645 0.09712 0.40971 0.0
O146 O 0.5616 0.12269 0.41472 0.0
O147 O 0.57062 0.1031 0.34788 0.0
O148 O 0.59873 0.13843 0.32928 0.0
O149 O 0.62098 0.13958 0.40145 0.0
O150 O 0.63042 0.14626 0.36983 0.0
C151 C 0.57761 0.1151 0.33139 0.0
C152 C 0.63798 0.1533 0.38768 0.0
O153 O 0.55229 0.08872 0.39417 0.0
Mg154 Mg 0.47539 0.58937 0.87598 0.0
O155 O 0.43022 0.57724 0.87783 0.0
O156 O 0.42189 0.60194 0.85662 0.0
Mg157 Mg 0.46223 0.63039 0.84125 0.0
C158 C 0.41399 0.5838 0.86984 0.0
C159 C 0.45303 0.54849 0.90974 0.0
O160 O 0.44414 0.56518 0.91425 0.0
O161 O 0.46777 0.56622 0.84705 0.0
O162 O 0.46229 0.59407 0.82686 0.0
O163 O 0.4849 0.62177 0.89833 0.0
O164 O 0.48494 0.62774 0.86641 0.0
C165 C 0.46406 0.57294 0.83002 0.0
C166 C 0.48677 0.63716 0.88384 0.0
O167 O 0.4666 0.55242 0.89404 0.0
H168 H 0.55481 0.13349 0.30539 0.0
H169 H 0.53718 0.11487 0.27283 0.0
H170 H 0.55115 0.04832 0.28398 0.0
H171 H 0.56775 0.06639 0.31708 0.0
H172 H 0.57932 0.08679 0.24891 0.0
H173 H 0.49315 0.02553 0.27586 0.0
H174 H 0.45272 0.0103 0.29692 0.0
H175 H 0.43325 0.06543 0.26824 0.0
H176 H 0.4738 0.08132 0.24721 0.0
H177 H 0.53959 0.07571 0.14636 0.0
H178 H 0.54126 0.05843 0.1791 0.0
H179 H 0.51542 0.11115 0.20502 0.0
H180 H 0.5139 0.12836 0.17297 0.0
H181 H 0.48852 0.05985 0.22081 0.0
H182 H 0.58118 0.13055 0.20355 0.0
H183 H 0.62317 0.15001 0.18372 0.0
H184 H 0.63119 0.08022 0.19509 0.0
H185 H 0.58901 0.06023 0.21482 0.0
C186 C 0.55323 0.11442 0.30111 0.0
C187 C 0.56232 0.10118 0.31365 0.0
C188 C 0.54322 0.10382 0.28257 0.0
C189 C 0.54284 0.08021 0.2761 0.0
C190 C 0.55109 0.06641 0.28884 0.0
C191 C 0.5604 0.07665 0.30768 0.0
C192 C 0.53702 0.0725 0.25524 0.0
C193 C 0.55927 0.07991 0.24269 0.0
C194 C 0.51096 0.06392 0.24727 0.0
C195 C 0.48663 0.05469 0.25999 0.0
C196 C 0.4804 0.03459 0.27416 0.0
C197 C 0.45741 0.0258 0.28607 0.0
C198 C 0.44043 0.0369 0.28393 0.0
C199 C 0.44641 0.05683 0.26987 0.0
C200 C 0.46938 0.0657 0.25792 0.0
C201 C 0.53406 0.08334 0.15908 0.0
C202 C 0.52687 0.10356 0.15711 0.0
C203 C 0.53502 0.07349 0.17771 0.0
C204 C 0.52835 0.08347 0.19445 0.0
C205 C 0.52042 0.103 0.19232 0.0
C206 C 0.51982 0.11301 0.17394 0.0
C207 C 0.53107 0.07546 0.21455 0.0
C208 C 0.50828 0.06533 0.22695 0.0
C209 C 0.55672 0.08192 0.22243 0.0
C210 C 0.58175 0.09371 0.21035 0.0
C211 C 0.59174 0.11924 0.20163 0.0
C212 C 0.61561 0.13039 0.19046 0.0
C213 C 0.62978 0.1163 0.18807 0.0
C214 C 0.62014 0.09106 0.19689 0.0
C215 C 0.59625 0.0798 0.20805 0.0
H216 H 0.64827 0.12498 0.17945 0.0
H217 H 0.42264 0.03005 0.29315 0.0
H218 H 0.45002 0.52567 0.64664 0.0
H219 H 0.46422 0.53203 0.68101 0.0
H220 H 0.3803 0.49796 0.69899 0.0
H221 H 0.36618 0.49251 0.66482 0.0
H222 H 0.41027 0.54251 0.71806 0.0
H223 H 0.41805 0.46348 0.70283 0.0
H224 H 0.43506 0.43797 0.68388 0.0
H225 H 0.51748 0.49745 0.69832 0.0
H226 H 0.50096 0.52349 0.71717 0.0
H227 H 0.4183 0.52867 0.8174 0.0
H228 H 0.41021 0.51057 0.78392 0.0
H229 H 0.49514 0.56312 0.77022 0.0
H230 H 0.50315 0.58136 0.80368 0.0
H231 H 0.46781 0.5099 0.74912 0.0
H232 H 0.46119 0.58969 0.7624 0.0
H233 H 0.44563 0.61628 0.78152 0.0
H234 H 0.36228 0.55655 0.76996 0.0
H235 H 0.37739 0.52932 0.75108 0.0
C236 C 0.43461 0.51927 0.65795 0.0
C237 C 0.407 0.50866 0.65303 0.0
C238 C 0.44273 0.52282 0.67759 0.0
C239 C 0.4233 0.51527 0.69263 0.0
C240 C 0.39568 0.50403 0.68767 0.0
C241 C 0.38763 0.50089 0.66811 0.0
C242 C 0.43158 0.52035 0.71354 0.0
C243 C 0.4225 0.53496 0.72484 0.0
C244 C 0.44839 0.51142 0.72232 0.0
C245 C 0.45828 0.49553 0.71128 0.0
C246 C 0.43981 0.47118 0.70188 0.0
C247 C 0.44936 0.45662 0.69116 0.0
C248 C 0.47733 0.46611 0.68986 0.0
C249 C 0.49581 0.49013 0.69933 0.0
C250 C 0.48637 0.50478 0.71005 0.0
C251 C 0.43541 0.53532 0.80748 0.0
C252 C 0.46134 0.55609 0.81298 0.0
C253 C 0.43081 0.5251 0.78839 0.0
C254 C 0.45208 0.53569 0.77462 0.0
C255 C 0.47856 0.55457 0.78068 0.0
C256 C 0.48312 0.56495 0.79975 0.0
C257 C 0.44565 0.53113 0.7535 0.0
C258 C 0.45537 0.5171 0.74222 0.0
C259 C 0.42956 0.54071 0.74459 0.0
C260 C 0.4204 0.55734 0.75552 0.0
C261 C 0.43954 0.58213 0.76407 0.0
C262 C 0.43081 0.59732 0.77485 0.0
C263 C 0.40298 0.58807 0.777 0.0
C264 C 0.38383 0.56366 0.76831 0.0
C265 C 0.39246 0.54834 0.75757 0.0
H266 H 0.39625 0.59985 0.78536 0.0
H267 H 0.48469 0.45483 0.68154 0.0
H268 H 0.84923 0.39863 0.16307 0.0
H269 H 0.8627 0.41977 0.19508 0.0
H270 H 0.94693 0.46223 0.17701 0.0
H271 H 0.93349 0.44075 0.14447 0.0
H272 H 0.93821 0.43613 0.21359 0.0
H273 H 0.9166 0.49854 0.18372 0.0
H274 H 0.88983 0.51338 0.16421 0.0
H275 H 0.8227 0.47349 0.2041 0.0
H276 H 0.84885 0.45802 0.22368 0.0
H277 H 0.93772 0.50095 0.31152 0.0
H278 H 0.95065 0.49631 0.27774 0.0
H279 H 0.8701 0.42836 0.26823 0.0
H280 H 0.85722 0.43285 0.30148 0.0
H281 H 0.89194 0.48164 0.24407 0.0
H282 H 0.90795 0.40924 0.26717 0.0
H283 H 0.93227 0.39138 0.28645 0.0
H284 H 0.00781 0.44842 0.25934 0.0
H285 H 0.98393 0.46686 0.24008 0.0
C286 C 0.87066 0.41256 0.16574 0.0
C287 C 0.89031 0.41789 0.1512 0.0
C288 C 0.8783 0.42479 0.18407 0.0
C289 C 0.90578 0.44279 0.18837 0.0
C290 C 0.92559 0.44849 0.17391 0.0
C291 C 0.91788 0.4363 0.15535 0.0
C292 C 0.91319 0.45421 0.20842 0.0
C293 C 0.9288 0.44684 0.22016 0.0
C294 C 0.90069 0.46796 0.21701 0.0
C295 C 0.88477 0.47715 0.20521 0.0
C296 C 0.89608 0.4928 0.18829 0.0
C297 C 0.88102 0.50135 0.17722 0.0
C298 C 0.85464 0.49449 0.18297 0.0
C299 C 0.8432 0.47891 0.19972 0.0
C300 C 0.85815 0.47028 0.21083 0.0
C301 C 0.92321 0.48451 0.30237 0.0
C302 C 0.89642 0.46742 0.30893 0.0
C303 C 0.93056 0.48192 0.28314 0.0
C304 C 0.91122 0.46207 0.27057 0.0
C305 C 0.88525 0.44379 0.27773 0.0
C306 C 0.87793 0.44641 0.2967 0.0
C307 C 0.91578 0.4624 0.24925 0.0
C308 C 0.90231 0.47198 0.23732 0.0
C309 C 0.9299 0.45042 0.24058 0.0
C310 C 0.94427 0.43977 0.25249 0.0
C311 C 0.92981 0.41826 0.26556 0.0
C312 C 0.94349 0.40794 0.27641 0.0
C313 C 0.9716 0.41885 0.2742 0.0
C314 C 0.98606 0.44006 0.2611 0.0
C315 C 0.97247 0.45046 0.25021 0.0
H316 H 0.98215 0.4108 0.28258 0.0
H317 H 0.84306 0.5012 0.17441 0.0
H318 H 0.45219 0.91317 0.81938 0.0
H319 H 0.47301 0.92759 0.7867 0.0
H320 H 0.39304 0.89557 0.76125 0.0
H321 H 0.37239 0.8811 0.79344 0.0
H322 H 0.42327 0.87125 0.74813 0.0
H323 H 0.43373 0.95995 0.75966 0.0
H324 H 0.45113 0.00349 0.77706 0.0
H325 H 0.53341 0.02214 0.76599 0.0
H326 H 0.51649 0.97848 0.74877 0.0
H327 H 0.43311 0.8891 0.64898 0.0
H328 H 0.42608 0.90075 0.68223 0.0
H329 H 0.5108 0.93024 0.69552 0.0
H330 H 0.51777 0.91836 0.66219 0.0
H331 H 0.48492 0.95885 0.71594 0.0
H332 H 0.4757 0.87127 0.70508 0.0
H333 H 0.45957 0.82782 0.6878 0.0
H334 H 0.37656 0.8065 0.69908 0.0
H335 H 0.39221 0.85015 0.71604 0.0
C336 C 0.43924 0.9101 0.80685 0.0
C337 C 0.41072 0.89573 0.8088 0.0
C338 C 0.45111 0.91829 0.78824 0.0
C339 C 0.43448 0.91238 0.77159 0.0
C340 C 0.40619 0.90017 0.7739 0.0
C341 C 0.39443 0.89189 0.79229 0.0
C342 C 0.44549 0.91463 0.75159 0.0
C343 C 0.4366 0.89045 0.74108 0.0
C344 C 0.4637 0.93962 0.74269 0.0
C345 C 0.47383 0.96576 0.75316 0.0
C346 C 0.45553 0.97316 0.76114 0.0
C347 C 0.46531 -0.00209 0.77092 0.0
C348 C 0.49336 0.01553 0.77269 0.0
C349 C 0.51169 0.00845 0.76464 0.0
C350 C 0.50201 0.98371 0.75487 0.0
C351 C 0.45045 0.89924 0.65873 0.0
C352 C 0.47601 0.90319 0.65313 0.0
C353 C 0.44644 0.90579 0.6777 0.0
C354 C 0.46791 0.91619 0.69131 0.0
C355 C 0.49407 0.92245 0.68516 0.0
C356 C 0.49804 0.91569 0.66618 0.0
C357 C 0.46171 0.91552 0.71242 0.0
C358 C 0.4717 0.93975 0.72312 0.0
C359 C 0.44467 0.89053 0.72173 0.0
C360 C 0.43514 0.86416 0.71161 0.0
C361 C 0.45401 0.85747 0.70368 0.0
C362 C 0.44495 0.83278 0.69397 0.0
C363 C 0.41705 0.81444 0.69229 0.0
C364 C 0.39816 0.82075 0.70035 0.0
C365 C 0.40712 0.84548 0.71001 0.0
H366 H 0.41008 0.79532 0.6848 0.0
H367 H 0.50088 0.03469 0.78025 0.0
H368 H 0.52908 0.37815 0.29897 0.0
H369 H 0.53556 0.39531 0.26559 0.0
H370 H 0.5076 0.45032 0.28271 0.0
H371 H 0.50128 0.43343 0.31641 0.0
H372 H 0.48443 0.42124 0.24667 0.0
H373 H 0.57133 0.4769 0.27639 0.0
H374 H 0.61249 0.48763 0.29543 0.0
H375 H 0.63227 0.44252 0.25455 0.0
H376 H 0.59096 0.43111 0.23544 0.0
H377 H 0.56307 0.49854 0.15534 0.0
H378 H 0.54248 0.48898 0.18828 0.0
H379 H 0.53592 0.4103 0.18677 0.0
H380 H 0.55635 0.41971 0.1542 0.0
H381 H 0.57588 0.46032 0.21608 0.0
H382 H 0.48395 0.39714 0.19111 0.0
H383 H 0.44263 0.3859 0.17206 0.0
H384 H 0.43344 0.44613 0.2038 0.0
H385 H 0.47497 0.45795 0.22286 0.0
C386 C 0.52416 0.39381 0.29568 0.0
C387 C 0.51467 0.40443 0.31036 0.0
C388 C 0.52799 0.40366 0.2766 0.0
C389 C 0.52222 0.42419 0.27177 0.0
C390 C 0.5122 0.4345 0.28622 0.0
C391 C 0.50869 0.42489 0.30544 0.0
C392 C 0.52697 0.43474 0.25154 0.0
C393 C 0.50451 0.43028 0.24006 0.0
C394 C 0.55316 0.44644 0.24294 0.0
C395 C 0.57788 0.45297 0.25456 0.0
C396 C 0.58428 0.46902 0.27156 0.0
C397 C 0.60769 0.47528 0.28235 0.0
C398 C 0.62496 0.46572 0.27623 0.0
C399 C 0.61886 0.4499 0.25929 0.0
C400 C 0.59546 0.44354 0.24847 0.0
C401 C 0.55597 0.47877 0.16173 0.0
C402 C 0.56118 0.4598 0.15239 0.0
C403 C 0.54432 0.47336 0.18049 0.0
C404 C 0.53762 0.4489 0.18981 0.0
C405 C 0.54067 0.42914 0.17969 0.0
C406 C 0.55234 0.43454 0.16113 0.0
C407 C 0.53326 0.44589 0.21115 0.0
C408 C 0.55592 0.45185 0.22284 0.0
C409 C 0.50734 0.43546 0.21985 0.0
C410 C 0.4828 0.42876 0.20813 0.0
C411 C 0.47336 0.40827 0.1938 0.0
C412 C 0.44983 0.40171 0.18308 0.0
C413 C 0.43549 0.41539 0.18665 0.0
C414 C 0.44462 0.43562 0.20099 0.0
C415 C 0.46814 0.44225 0.21176 0.0
H416 H 0.41725 0.41024 0.17835 0.0
H417 H 0.64308 0.47062 0.28458 0.0
H418 H 0.07462 0.53882 0.64395 0.0
H419 H 0.0603 0.52052 0.67717 0.0
H420 H 0.14439 0.56287 0.69579 0.0
H421 H 0.15866 0.58031 0.66309 0.0
H422 H 0.11955 0.51477 0.71123 0.0
H423 H 0.099 0.58849 0.70168 0.0
H424 H 0.07419 0.6089 0.68616 0.0
H425 H -0.00211 0.54077 0.7036 0.0
H426 H 0.0223 0.51985 0.71903 0.0
H427 H 0.14898 0.56423 0.80345 0.0
H428 H 0.13735 0.56458 0.76915 0.0
H429 H 0.05521 0.50053 0.78014 0.0
H430 H 0.06661 0.50029 0.8148 0.0
H431 H 0.0643 0.54442 0.74951 0.0
H432 H 0.0896 0.47718 0.76588 0.0
H433 H 0.11831 0.46293 0.78353 0.0
H434 H 0.18928 0.52374 0.75374 0.0
H435 H 0.16105 0.53864 0.73616 0.0
C436 C 0.08999 0.54372 0.6551 0.0
C437 C 0.11775 0.56121 0.65093 0.0
C438 C 0.08178 0.53343 0.67407 0.0
C439 C 0.10126 0.54056 0.68903 0.0
C440 C 0.12896 0.557 0.68454 0.0
C441 C 0.1371 0.56712 0.66578 0.0
C442 C 0.09368 0.5325 0.70972 0.0
C443 C 0.10712 0.5209 0.71951 0.0
C444 C 0.07697 0.53989 0.72056 0.0
C445 C 0.06242 0.55245 0.71124 0.0
C446 C 0.07693 0.57779 0.70205 0.0
C447 C 0.06295 0.58945 0.69331 0.0
C448 C 0.03448 0.57608 0.69382 0.0
C449 C 0.01994 0.55106 0.70315 0.0
C450 C 0.03382 0.53929 0.71189 0.0
C451 C 0.12826 0.55064 0.7987 0.0
C452 C 0.10884 0.5318 0.81166 0.0
C453 C 0.12161 0.55098 0.77914 0.0
C454 C 0.09558 0.53227 0.77216 0.0
C455 C 0.0754 0.51508 0.78534 0.0
C456 C 0.08198 0.51493 0.80507 0.0
C457 C 0.09142 0.5282 0.75081 0.0
C458 C 0.07575 0.53729 0.74105 0.0
C459 C 0.1064 0.51887 0.73992 0.0
C460 C 0.12319 0.509 0.74971 0.0
C461 C 0.11133 0.48751 0.76311 0.0
C462 C 0.12753 0.47935 0.77313 0.0
C463 C 0.1556 0.49242 0.76976 0.0
C464 C 0.16753 0.5136 0.75631 0.0
C465 C 0.15142 0.52187 0.74628 0.0
H466 H 0.16812 0.48613 0.77757 0.0
H467 H 0.02369 0.58515 0.68705 0.0
H468 H 0.51481 0.02956 0.06202 0.0
H469 H 0.51495 0.00258 0.03377 0.0
H470 H 0.51827 0.06343 -0.00537 0.0
H471 H 0.51698 0.08952 0.02256 0.0
H472 H 0.47533 0.01652 -0.01235 0.0
H473 H 0.57039 0.04894 -0.00246 0.0
H474 H 0.61146 0.05814 0.01611 0.0
H475 H 0.57819 0.973 0.02581 0.0
H476 H 0.5367 0.96329 0.00754 0.0
H477 H 0.46366 0.95298 0.89978 0.0
H478 H 0.49092 0.98645 0.92471 0.0
H479 H 0.4767 0.92242 0.96473 0.0
H480 H 0.44976 0.88876 0.93981 0.0
H481 H 0.52842 0.97142 0.97064 0.0
H482 H 0.43173 0.94056 0.96482 0.0
H483 H 0.39033 0.93104 0.94652 0.0
H484 H 0.42759 0.01462 0.92992 0.0
H485 H 0.4694 0.02453 0.94789 0.0
C486 C 0.51625 0.03732 0.04735 0.0
C487 C 0.51544 0.06123 0.04428 0.0
C488 C 0.51647 0.02204 0.03126 0.0
C489 C 0.51646 0.03095 0.01208 0.0
C490 C 0.51806 0.05607 0.00927 0.0
C491 C 0.51725 0.07091 0.0252 0.0
C492 C 0.51026 0.01261 -0.00496 0.0
C493 C 0.48739 0.00718 -0.01623 0.0
C494 C 0.52536 -0.00036 -0.00966 0.0
C495 C 0.55029 0.0054 0.00132 0.0
C496 C 0.5717 0.03218 0.00379 0.0
C497 C 0.59509 0.03749 0.01423 0.0
C498 C 0.5974 0.01618 0.02218 0.0
C499 C 0.57635 0.9895 0.01966 0.0
C500 C 0.5529 0.98408 0.00924 0.0
C501 C 0.46695 0.94599 0.91368 0.0
C502 C 0.45393 0.91823 0.91802 0.0
C503 C 0.48269 0.96515 0.92786 0.0
C504 C 0.48538 0.95683 0.94664 0.0
C505 C 0.47482 0.92921 0.95033 0.0
C506 C 0.45918 0.91001 0.93611 0.0
C507 C 0.49408 0.97618 0.96319 0.0
C508 C 0.5169 0.98133 0.97447 0.0
C509 C 0.479 0.98906 0.96807 0.0
C510 C 0.45375 0.98321 0.9575 0.0
C511 C 0.43115 0.95686 0.95715 0.0
C512 C 0.40761 0.9514 0.94685 0.0
C513 C 0.40636 0.9722 0.93701 0.0
C514 C 0.42861 -0.00148 0.93751 0.0
C515 C 0.45222 0.00407 0.94775 0.0
H516 H 0.38812 0.96793 0.92905 0.0
H517 H 0.61553 0.02033 0.03025 0.0
H518 H 0.43382 0.48117 0.55999 0.0
H519 H 0.43057 0.45978 0.52787 0.0
H520 H 0.49791 0.53468 0.50687 0.0
H521 H 0.50156 0.55566 0.53872 0.0
H522 H 0.45683 0.50833 0.47896 0.0
H523 H 0.51157 0.49053 0.52513 0.0
H524 H 0.51861 0.47224 0.55584 0.0
H525 H 0.45467 0.39267 0.53993 0.0
H526 H 0.44702 0.41063 0.50921 0.0
H527 H 0.5523 0.50837 0.41863 0.0
H528 H 0.52848 0.50701 0.44857 0.0
H529 H 0.46657 0.42475 0.43594 0.0
H530 H 0.4906 0.42594 0.40541 0.0
H531 H 0.48858 0.44129 0.47891 0.0
H532 H 0.44546 0.46265 0.42662 0.0
H533 H 0.44618 0.48573 0.39598 0.0
H534 H 0.49456 0.56303 0.42385 0.0
H535 H 0.49445 0.54042 0.45457 0.0
C536 C 0.44738 0.49313 0.54829 0.0
C537 C 0.46803 0.51995 0.55174 0.0
C538 C 0.44561 0.48091 0.53005 0.0
C539 C 0.46412 0.49565 0.51507 0.0
C540 C 0.4834 0.52298 0.5182 0.0
C541 C 0.48551 0.53492 0.53641 0.0
C542 C 0.46573 0.48259 0.49671 0.0
C543 C 0.4632 0.49325 0.4789 0.0
C544 C 0.47388 0.46277 0.49666 0.0
C545 C 0.47843 0.45197 0.51506 0.0
C546 C 0.49883 0.46918 0.52829 0.0
C547 C 0.50297 0.45888 0.54566 0.0
C548 C 0.48701 0.43132 0.54987 0.0
C549 C 0.46695 0.41402 0.53668 0.0
C550 C 0.46269 0.42425 0.51929 0.0
C551 C 0.53377 0.48981 0.42221 0.0
C552 C 0.52314 0.46735 0.40954 0.0
C553 C 0.52023 0.48908 0.43938 0.0
C554 C 0.49564 0.46594 0.44428 0.0
C555 C 0.48554 0.44281 0.43231 0.0
C556 C 0.49925 0.44351 0.41494 0.0
C557 C 0.48023 0.46752 0.46127 0.0
C558 C 0.48059 0.45509 0.47884 0.0
C559 C 0.47051 0.48609 0.46118 0.0
C560 C 0.46991 0.49981 0.4429 0.0
C561 C 0.4563 0.48457 0.4262 0.0
C562 C 0.45662 0.49757 0.40881 0.0
C563 C 0.4704 0.52582 0.40797 0.0
C564 C 0.48384 0.54114 0.42453 0.0
C565 C 0.4836 0.52824 0.44195 0.0
H566 H 0.47067 0.53585 0.39449 0.0
H567 H 0.49026 0.42337 0.56333 0.0
H568 H 0.07585 0.50373 0.91483 0.0
H569 H 0.07396 0.51546 0.94927 0.0
H570 H -0.00167 0.51422 0.93777 0.0
H571 H 0.00063 0.5036 0.90373 0.0
H572 H 0.02432 0.54968 0.96521 0.0
H573 H 0.00151 0.45519 0.95164 0.0
H574 H 0.01355 0.42117 0.94051 0.0
H575 H 0.07924 0.4516 0.98205 0.0
H576 H 0.06767 0.48595 -0.00672 0.0
H577 H 0.91419 0.46761 0.02442 0.0
H578 H 0.95095 0.49458 0.00171 0.0
H579 H 0.00917 0.49277 0.04145 0.0
H580 H 0.97227 0.46536 0.06427 0.0
H581 H 0.01093 0.47292 0.00679 0.0
H582 H 0.01528 0.55417 0.02797 0.0
H583 H -0.00206 0.58438 0.03815 0.0
H584 H 0.96195 0.5762 0.98146 0.0
H585 H 0.97869 0.54563 0.97101 0.0
C586 C 0.05932 0.50677 0.91962 0.0
C587 C 0.03806 0.50216 0.90675 0.0
C588 C 0.0582 0.51339 0.93928 0.0
C589 C 0.03568 0.51517 0.94623 0.0
C590 C 0.01587 0.51292 0.93287 0.0
C591 C 0.01705 0.5065 0.91338 0.0
C592 C 0.0298 0.51501 0.96744 0.0
C593 C 0.02166 0.53312 0.97447 0.0
C594 C 0.02713 0.49392 0.97977 0.0
C595 C 0.03397 0.47327 0.97311 0.0
C596 C 0.01859 0.45465 0.95832 0.0
C597 C 0.02532 0.43534 0.952 0.0
C598 C 0.0472 0.43429 0.96052 0.0
C599 C 0.06234 0.4525 0.97542 0.0
C600 C 0.05572 0.47188 0.98177 0.0
C601 C 0.93488 0.47351 0.02861 0.0
C602 C 0.94023 0.46394 0.04601 0.0
C603 C 0.95599 0.48922 0.01566 0.0
C604 C 0.98291 0.49584 0.01989 0.0
C605 C 0.98858 0.48797 0.03792 0.0
C606 C 0.96744 0.47228 0.05093 0.0
C607 C 0.00365 0.50648 0.00408 0.0
C608 C 0.01466 0.49032 -0.00192 0.0
C609 C 0.00831 0.52898 -0.00744 0.0
C610 C -0.0017 0.54756 -0.00129 0.0
C611 C 0.00356 0.5587 0.0177 0.0
C612 C 0.99384 0.57591 0.02351 0.0
C613 C 0.97886 0.58221 0.01046 0.0
C614 C 0.9736 0.57134 -0.00845 0.0
C615 C 0.98327 0.55412 -0.01435 0.0
H616 H 0.97133 0.59552 0.015 0.0
H617 H 0.05239 0.41932 0.95561 0.0
H618 H 0.532 0.10811 0.44528 0.0
H619 H 0.50748 0.07574 0.47132 0.0
H620 H 0.49191 0.00974 0.4324 0.0
H621 H 0.51626 0.04193 0.40618 0.0
H622 H 0.44923 -0.00348 0.45964 0.0
H623 H 0.54736 0.03545 0.4581 0.0
H624 H 0.5949 0.07305 0.45763 0.0
H625 H 0.58222 0.10267 0.5123 0.0
H626 H 0.53443 0.06542 0.51293 0.0
H627 H 0.45469 0.89709 0.51773 0.0
H628 H 0.4567 0.93031 0.49451 0.0
H629 H 0.48168 0.98979 0.54083 0.0
H630 H 0.48068 0.95679 0.56408 0.0
H631 H 0.5152 0.00923 0.51207 0.0
H632 H 0.41823 0.96341 0.5162 0.0
H633 H 0.37149 0.92439 0.51614 0.0
H634 H 0.38166 0.90596 0.45677 0.0
H635 H 0.42861 0.94464 0.45654 0.0
C636 C 0.52277 0.08668 0.44207 0.0
C637 C 0.5266 0.0776 0.4238 0.0
C638 C 0.50871 0.06822 0.45697 0.0
C639 C 0.49834 0.04043 0.45384 0.0
C640 C 0.49984 0.03113 0.43509 0.0
C641 C 0.51391 0.04959 0.42016 0.0
C642 C 0.48992 0.02168 0.47064 0.0
C643 C 0.46353 -0.00083 0.47116 0.0
C644 C 0.50855 0.02551 0.48577 0.0
C645 C 0.53726 0.04789 0.48543 0.0
C646 C 0.55465 0.05013 0.46993 0.0
C647 C 0.58164 0.07134 0.46965 0.0
C648 C 0.59155 0.09029 0.48489 0.0
C649 C 0.57449 0.08801 0.50047 0.0
C650 C 0.54746 0.06686 0.5008 0.0
C651 C 0.4602 0.91711 0.52307 0.0
C652 C 0.46787 0.92444 0.54269 0.0
C653 C 0.46107 0.93605 0.50978 0.0
C654 C 0.46908 0.96253 0.51592 0.0
C655 C 0.47542 0.96947 0.53575 0.0
C656 C 0.47491 0.95063 0.54901 0.0
C657 C 0.47433 0.98372 0.50126 0.0
C658 C 0.50041 0.00673 0.50098 0.0
C659 C 0.45538 0.98013 0.48637 0.0
C660 C 0.42705 0.95689 0.4864 0.0
C661 C 0.41059 0.95094 0.50317 0.0
C662 C 0.38403 0.92889 0.50318 0.0
C663 C 0.37362 0.91269 0.48648 0.0
C664 C 0.38974 0.91854 0.4697 0.0
C665 C 0.41632 0.94055 0.46961 0.0
H666 H 0.35306 0.89562 0.48652 0.0
H667 H 0.61246 0.10669 0.48466 0.0
H668 H 0.47368 0.51411 0.907 0.0
H669 H 0.47823 0.4881 0.93361 0.0
H670 H 0.43259 0.51146 0.97178 0.0
H671 H 0.4279 0.53747 0.94532 0.0
H672 H 0.4844 0.52833 -0.01548 0.0
H673 H 0.40808 0.44625 0.96233 0.0
H674 H 0.37933 0.41083 0.93851 0.0
H675 H 0.44369 0.39302 0.92841 0.0
H676 H 0.47303 0.42864 0.95194 0.0
H677 H 0.52152 0.47925 0.065 0.0
H678 H 0.48966 0.48076 0.04162 0.0
H679 H 0.52421 0.4555 -0.00465 0.0
H680 H 0.55556 0.45319 0.01871 0.0
H681 H 0.47029 0.43533 -0.01076 0.0
H682 H 0.54875 0.52199 0.00424 0.0
H683 H 0.5806 0.55918 0.02581 0.0
H684 H 0.51499 0.57005 0.0466 0.0
H685 H 0.48267 0.53264 0.02531 0.0
C686 C 0.46397 0.51312 0.9209 0.0
C687 C 0.45095 0.52833 0.92419 0.0
C688 C 0.46642 0.49807 0.93605 0.0
C689 C 0.45581 0.49796 0.95466 0.0
C690 C 0.44092 0.51133 0.95751 0.0
C691 C 0.43838 0.52628 0.94238 0.0
C692 C 0.46456 0.48835 0.97176 0.0
C693 C 0.48063 0.50776 -0.01416 0.0
C694 C 0.46044 0.4618 0.97303 0.0
C695 C 0.44286 0.44031 0.95883 0.0
C696 C 0.41622 0.43497 0.95491 0.0
C697 C 0.39979 0.41481 0.94148 0.0
C698 C 0.4097 0.39972 0.93192 0.0
C699 C 0.43605 0.40473 0.93581 0.0
C700 C 0.45258 0.42489 0.94923 0.0
C701 C 0.52202 0.47358 0.04992 0.0
C702 C 0.54143 0.46666 0.04361 0.0
C703 C 0.50375 0.47437 0.03659 0.0
C704 C 0.50494 0.46874 0.01668 0.0
C705 C 0.52297 0.45997 0.01063 0.0
C706 C 0.54104 0.45888 0.02399 0.0
C707 C 0.49014 0.4754 0.00184 0.0
C708 C 0.47331 0.45563 -0.01186 0.0
C709 C 0.49389 0.50183 0.00059 0.0
C710 C 0.51325 0.52431 0.0134 0.0
C711 C 0.54109 0.53218 0.01353 0.0
C712 C 0.55922 0.55331 0.02568 0.0
C713 C 0.5498 0.5669 0.03762 0.0
C714 C 0.52224 0.55944 0.03739 0.0
C715 C 0.504 0.53828 0.02528 0.0
H716 H 0.56388 0.58327 0.04701 0.0
H717 H 0.39694 0.38412 0.92153 0.0
H718 H 0.88967 0.4359 0.43962 0.0
H719 H 0.91936 0.43683 0.46582 0.0
H720 H 0.98993 0.48616 0.43024 0.0
H721 H 0.96032 0.48534 0.40381 0.0
H722 H 0.99499 0.44747 0.45458 0.0
H723 H 0.96953 0.51743 0.45902 0.0
H724 H 0.93637 0.53353 0.46041 0.0
H725 H 0.89998 0.48561 0.51173 0.0
H726 H 0.93272 0.46893 0.51046 0.0
H727 H 0.10161 0.53705 0.51563 0.0
H728 H 0.06604 0.51009 0.49214 0.0
H729 H 0.00641 0.48005 0.53859 0.0
H730 H 0.04201 0.50792 0.56225 0.0
H731 H 0.9905 0.49989 0.51129 0.0
H732 H 0.02221 0.43725 0.51098 0.0
H733 H 0.05587 0.4218 0.51009 0.0
H734 H 0.08042 0.45446 0.45233 0.0
H735 H 0.04719 0.47048 0.45297 0.0
C736 C 0.91148 0.44654 0.43717 0.0
C737 C 0.92269 0.461 0.41977 0.0
C738 C 0.92839 0.44694 0.45215 0.0
C739 C 0.95679 0.46184 0.45002 0.0
C740 C 0.96802 0.47453 0.43212 0.0
C741 C 0.95109 0.47417 0.41709 0.0
C742 C 0.97466 0.4673 0.46723 0.0
C743 C 0.99416 0.45895 0.46701 0.0
C744 C 0.97287 0.48153 0.48366 0.0
C745 C 0.95332 0.49168 0.4845 0.0
C746 C 0.9543 0.51016 0.4705 0.0
C747 C 0.93562 0.51942 0.47128 0.0
C748 C 0.91602 0.51053 0.48611 0.0
C749 C 0.91513 0.49243 0.50022 0.0
C750 C 0.93374 0.48307 0.49948 0.0
C751 C 0.08105 0.5243 0.52098 0.0
C752 C 0.07457 0.52494 0.54078 0.0
C753 C 0.06069 0.50863 0.50749 0.0
C754 C 0.0335 0.49285 0.51356 0.0
C755 C 0.02725 0.49208 0.53356 0.0
C756 C 0.04762 0.508 0.54706 0.0
C757 C 0.01145 0.48052 0.4987 0.0
C758 C 0.99109 0.48773 0.49923 0.0
C759 C 0.01245 0.46512 0.48268 0.0
C760 C 0.03225 0.45519 0.48207 0.0
C761 C 0.03488 0.44128 0.49813 0.0
C762 C 0.05388 0.43241 0.49767 0.0
C763 C 0.0703 0.43718 0.48118 0.0
C764 C 0.06768 0.45077 0.46509 0.0
C765 C 0.04872 0.4597 0.46548 0.0
H766 H 0.08503 0.43033 0.48086 0.0
H767 H 0.90157 0.51772 0.48669 0.0
H768 H 0.54305 0.18916 0.05572 0.0
H769 H 0.55064 0.23534 0.05282 0.0
H770 H 0.47919 0.21327 0.08791 0.0
H771 H 0.47232 0.16742 0.09165 0.0
H772 H 0.50177 0.25724 0.04719 0.0
H773 H 0.51088 0.23792 0.11685 0.0
H774 H 0.52512 0.21684 0.14222 0.0
H775 H 0.6062 0.25614 0.11868 0.0
H776 H 0.5923 0.27723 0.09295 0.0
H777 H 0.54174 0.3917 0.08573 0.0
H778 H 0.51993 0.34336 0.07726 0.0
H779 H 0.59886 0.34884 0.07675 0.0
H780 H 0.62029 0.39643 0.08616 0.0
H781 H 0.56642 0.31093 0.10016 0.0
H782 H 0.55746 0.33829 0.03442 0.0
H783 H 0.54169 0.35897 0.00981 0.0
H784 H 0.45857 0.30492 0.02623 0.0
H785 H 0.47385 0.28417 0.05112 0.0
C786 C 0.52851 0.194 0.06225 0.0
C787 C 0.50712 0.17503 0.07388 0.0
C788 C 0.5328 0.22025 0.06055 0.0
C789 C 0.51536 0.22748 0.0701 0.0
C790 C 0.49267 0.20787 0.08036 0.0
C791 C 0.48885 0.18186 0.08254 0.0
C792 C 0.52392 0.25631 0.07245 0.0
C793 C 0.51567 0.26913 0.05884 0.0
C794 C 0.54202 0.27151 0.08763 0.0
C795 C 0.55045 0.25873 0.10283 0.0
C796 C 0.53166 0.24179 0.11695 0.0
C797 C 0.5397 0.22997 0.13143 0.0
C798 C 0.56656 0.23513 0.13201 0.0
C799 C 0.58543 0.25217 0.11814 0.0
C800 C 0.57748 0.26404 0.10361 0.0
C801 C 0.55432 0.38252 0.08349 0.0
C802 C 0.58254 0.39744 0.0869 0.0
C803 C 0.54191 0.35502 0.07853 0.0
C804 C 0.55776 0.34245 0.07642 0.0
C805 C 0.58619 0.35803 0.07849 0.0
C806 C 0.59842 0.38516 0.0839 0.0
C807 C 0.54503 0.31266 0.07454 0.0
C808 C 0.55246 0.29941 0.08842 0.0
C809 C 0.52592 0.29727 0.05973 0.0
C810 C 0.51684 0.30988 0.04479 0.0
C811 C 0.53584 0.33098 0.03291 0.0
C812 C 0.52697 0.34268 0.01888 0.0
C813 C 0.49915 0.33332 0.0165 0.0
C814 C 0.48012 0.31219 0.02811 0.0
C815 C 0.48887 0.30045 0.04217 0.0
H816 H 0.49234 0.3424 0.00562 0.0
H817 H 0.57275 0.22593 0.14322 0.0
H818 H 0.37385 0.54222 0.54698 0.0
H819 H 0.3386 0.55534 0.54524 0.0
H820 H 0.27875 0.47634 0.5661 0.0
H821 H 0.31395 0.46348 0.56817 0.0
H822 H 0.25622 0.49269 0.53939 0.0
H823 H 0.30659 0.52694 0.59733 0.0
H824 H 0.34077 0.55163 0.62297 0.0
H825 H 0.3585 0.6274 0.59746 0.0
H826 H 0.32478 0.60317 0.57141 0.0
H827 H 0.16697 0.53229 0.58944 0.0
H828 H 0.1957 0.51355 0.57837 0.0
H829 H 0.24843 0.58823 0.54846 0.0
H830 H 0.22021 0.60716 0.55998 0.0
H831 H 0.27337 0.57358 0.57796 0.0
H832 H 0.21341 0.53265 0.52255 0.0
H833 H 0.16843 0.5036 0.50743 0.0
H834 H 0.16105 0.43468 0.53814 0.0
H835 H 0.20582 0.4634 0.55368 0.0
C836 C 0.35295 0.52733 0.55039 0.0
C837 C 0.3465 0.50166 0.5574 0.0
C838 C 0.33291 0.53499 0.54975 0.0
C839 C 0.30606 0.51695 0.55581 0.0
C840 C 0.29926 0.49063 0.56136 0.0
C841 C 0.31933 0.48318 0.56235 0.0
C842 C 0.28535 0.52575 0.55733 0.0
C843 C 0.26004 0.51042 0.54783 0.0
C844 C 0.29002 0.54867 0.56857 0.0
C845 C 0.31352 0.56315 0.5821 0.0
C846 C 0.31831 0.54883 0.59681 0.0
C847 C 0.33738 0.56278 0.61158 0.0
C848 C 0.35185 0.59106 0.61182 0.0
C849 C 0.34731 0.60549 0.59725 0.0
C850 C 0.32836 0.59165 0.5824 0.0
C851 C 0.18447 0.54442 0.58023 0.0
C852 C 0.19201 0.57133 0.5759 0.0
C853 C 0.20072 0.5337 0.57382 0.0
C854 C 0.22434 0.54967 0.56275 0.0
C855 C 0.23053 0.57581 0.55724 0.0
C856 C 0.2146 0.58662 0.56387 0.0
C857 C 0.24491 0.54114 0.55963 0.0
C858 C 0.27004 0.55637 0.56904 0.0
C859 C 0.23959 0.51762 0.54906 0.0
C860 C 0.21292 0.50025 0.53939 0.0
C861 C 0.20213 0.51134 0.52619 0.0
C862 C 0.17668 0.49492 0.51752 0.0
C863 C 0.16187 0.46732 0.52185 0.0
C864 C 0.17254 0.45606 0.5348 0.0
C865 C 0.19798 0.4724 0.54352 0.0
H866 H 0.14215 0.45465 0.51514 0.0
H867 H 0.36659 0.6018 0.62327 0.0
H868 H 0.82717 0.30113 0.09293 0.0
H869 H 0.7806 0.26485 0.08747 0.0
H870 H 0.77655 0.30387 0.0346 0.0
H871 H 0.82359 0.34055 0.04011 0.0
H872 H 0.73582 0.29448 0.05916 0.0
H873 H 0.76951 0.24131 0.03171 0.0
H874 H 0.79895 0.22111 0.02798 0.0
H875 H 0.76813 0.17797 0.08188 0.0
H876 H 0.73879 0.19824 0.08613 0.0
H877 H 0.59607 0.18252 0.05728 0.0
H878 H 0.6436 0.20811 0.04587 0.0
H879 H 0.67173 0.2103 0.10483 0.0
H880 H 0.62425 0.18575 0.11639 0.0
H881 H 0.69836 0.19577 0.06814 0.0
H882 H 0.67765 0.26277 0.09836 0.0
H883 H 0.64912 0.28408 0.10183 0.0
H884 H 0.65549 0.29985 0.04009 0.0
H885 H 0.68421 0.27869 0.0363 0.0
C886 C 0.81664 0.30159 0.07983 0.0
C887 C 0.8289 0.32363 0.06697 0.0
C888 C 0.79005 0.28075 0.07665 0.0
C889 C 0.77508 0.28152 0.06057 0.0
C890 C 0.78779 0.3028 0.04705 0.0
C891 C 0.81467 0.32363 0.05014 0.0
C892 C 0.74531 0.2622 0.05975 0.0
C893 C 0.72764 0.27282 0.0605 0.0
C894 C 0.73453 0.23393 0.06174 0.0
C895 C 0.75199 0.22143 0.05928 0.0
C896 C 0.76912 0.22766 0.04285 0.0
C897 C 0.78578 0.21617 0.04063 0.0
C898 C 0.78543 0.19829 0.0547 0.0
C899 C 0.76837 0.19182 0.07099 0.0
C900 C 0.75166 0.20327 0.07329 0.0
C901 C 0.61249 0.1883 0.0677 0.0
C902 C 0.60679 0.18236 0.08766 0.0
C903 C 0.63949 0.20278 0.06119 0.0
C904 C 0.66102 0.21083 0.07451 0.0
C905 C 0.65529 0.20402 0.09435 0.0
C906 C 0.62832 0.19022 0.10094 0.0
C907 C 0.68952 0.22838 0.06816 0.0
C908 C 0.70671 0.21736 0.06615 0.0
C909 C 0.69993 0.25624 0.0648 0.0
C910 C 0.68269 0.26886 0.06701 0.0
C911 C 0.67273 0.27056 0.08551 0.0
C912 C 0.65657 0.28264 0.08754 0.0
C913 C 0.65027 0.29309 0.07117 0.0
C914 C 0.66029 0.29165 0.05275 0.0
C915 C 0.67656 0.27968 0.05065 0.0
H916 H 0.63777 0.30244 0.07277 0.0
H917 H 0.79836 0.18942 0.05296 0.0
H918 H 0.44207 0.79654 0.58381 0.0
H919 H 0.43131 0.74948 0.58119 0.0
H920 H 0.51516 0.77606 0.56663 0.0
H921 H 0.52593 0.82361 0.56924 0.0
H922 H 0.47684 0.72938 0.54512 0.0
H923 H 0.49785 0.75957 0.61128 0.0
H924 H 0.49543 0.78198 0.64157 0.0
H925 H 0.41002 0.72445 0.64665 0.0
H926 H 0.4118 0.70198 0.61616 0.0
H927 H 0.45566 0.60051 0.5928 0.0
H928 H 0.47535 0.64907 0.58614 0.0
H929 H 0.39623 0.63532 0.56881 0.0
H930 H 0.37676 0.58665 0.57456 0.0
H931 H 0.43846 0.67669 0.60608 0.0
H932 H 0.41852 0.65207 0.53577 0.0
H933 H 0.42315 0.63091 0.50551 0.0
H934 H 0.51034 0.67866 0.50963 0.0
H935 H 0.50617 0.69975 0.54014 0.0
C936 C 0.45812 0.79231 0.57996 0.0
C937 C 0.48484 0.81341 0.57706 0.0
C938 C 0.45198 0.76549 0.57837 0.0
C939 C 0.47254 0.75934 0.57403 0.0
C940 C 0.49905 0.78045 0.57005 0.0
C941 C 0.5052 0.80746 0.5716 0.0
C942 C 0.4664 0.73092 0.57528 0.0
C943 C 0.46877 0.71793 0.5585 0.0
C944 C 0.45602 0.71606 0.59279 0.0
C945 C 0.45492 0.72921 0.61134 0.0
C946 C 0.4785 0.7518 0.61878 0.0
C947 C 0.47725 0.76451 0.63599 0.0
C948 C 0.45257 0.75468 0.64601 0.0
C949 C 0.42911 0.73206 0.63886 0.0
C950 C 0.43024 0.71931 0.62162 0.0
C951 C 0.44257 0.60786 0.58736 0.0
C952 C 0.41446 0.59012 0.5849 0.0
C953 C 0.45385 0.63548 0.58347 0.0
C954 C 0.43721 0.64559 0.57691 0.0
C955 C 0.40937 0.62777 0.57377 0.0
C956 C 0.39818 0.60017 0.57746 0.0
C957 C 0.44801 0.67502 0.57579 0.0
C958 C 0.4467 0.68823 0.59275 0.0
C959 C 0.45956 0.69001 0.55854 0.0
C960 C 0.46203 0.67707 0.54041 0.0
C961 C 0.43867 0.65771 0.53041 0.0
C962 C 0.44121 0.64583 0.51316 0.0
C963 C 0.46703 0.65333 0.5057 0.0
C964 C 0.49036 0.67279 0.51546 0.0
C965 C 0.48791 0.6847 0.53272 0.0
H966 H 0.46896 0.64415 0.49233 0.0
H967 H 0.45164 0.76456 0.65932 0.0
H968 H 0.69128 0.5219 0.05732 0.0
H969 H 0.73099 0.51566 0.05194 0.0
H970 H 0.70129 0.45468 0.097 0.0
H971 H 0.6631 0.46122 0.10245 0.0
H972 H 0.7526 0.48688 0.10247 0.0
H973 H 0.6938 0.44033 0.04619 0.0
H974 H 0.66988 0.43891 0.01565 0.0
H975 H 0.74585 0.49702 -0.01039 0.0
H976 H 0.77016 0.49896 0.02009 0.0
H977 H 0.7777 0.38157 0.0896 0.0
H978 H 0.75542 0.40774 0.08248 0.0
H979 H 0.83118 0.47344 0.06105 0.0
H980 H 0.85401 0.44738 0.06821 0.0
H981 H 0.76999 0.4534 0.03995 0.0
H982 H 0.82787 0.49146 0.09888 0.0
H983 H 0.84604 0.48374 0.12952 0.0
H984 H 0.76457 0.43329 0.15083 0.0
H985 H 0.74596 0.44053 0.12026 0.0
C986 C 0.69355 0.50737 0.06612 0.0
C987 C 0.67439 0.49264 0.08079 0.0
C988 C 0.71612 0.50376 0.06301 0.0
C989 C 0.71935 0.48491 0.07426 0.0
C990 C 0.69975 0.46984 0.08845 0.0
C991 C 0.67776 0.47376 0.0917 0.0
C992 C 0.74259 0.47996 0.07173 0.0
C993 C 0.75669 0.48006 0.08867 0.0
C994 C 0.74832 0.47133 0.05374 0.0
C995 C 0.73372 0.47005 0.03546 0.0
C996 C 0.70535 0.45294 0.03398 0.0
C997 C 0.69174 0.45201 0.01669 0.0
C998 C 0.70632 0.46794 0.00073 0.0
C999 C 0.73457 0.48475 0.002 0.0
C1000 C 0.74827 0.48576 0.01927 0.0
C1001 C 0.78968 0.40142 0.08312 0.0
C1002 C 0.81778 0.41252 0.07978 0.0
C1003 C 0.77681 0.41623 0.0789 0.0
C1004 C 0.7917 0.44242 0.07123 0.0
C1005 C 0.81938 0.45312 0.06681 0.0
C1006 C 0.83237 0.43826 0.07105 0.0
C1007 C 0.77882 0.45946 0.07079 0.0
C1008 C 0.76675 0.46151 0.05344 0.0
C1009 C 0.77433 0.46953 0.08848 0.0
C1010 C 0.78557 0.4665 0.10729 0.0
C1011 C 0.81387 0.47874 0.11012 0.0
C1012 C 0.82424 0.47443 0.12745 0.0
C1013 C 0.80646 0.45796 0.14207 0.0
C1014 C 0.77831 0.44603 0.13949 0.0
C1015 C 0.76785 0.4503 0.12219 0.0
H1016 H 0.81448 0.45439 0.15539 0.0
H1017 H 0.69575 0.46721 -0.01265 0.0
H1018 H 0.18554 0.64882 0.54245 0.0
H1019 H 0.2304 0.68952 0.53786 0.0
H1020 H 0.22289 0.71952 0.59432 0.0
H1021 H 0.17852 0.67925 0.5989 0.0
H1022 H 0.2469 0.7604 0.56942 0.0
H1023 H 0.25654 0.6855 0.59048 0.0
H1024 H 0.25623 0.64209 0.59136 0.0
H1025 H 0.29821 0.66029 0.53625 0.0
H1026 H 0.2986 0.70379 0.53498 0.0
H1027 H 0.37663 0.80538 0.61856 0.0
H1028 H 0.3295 0.78062 0.60674 0.0
H1029 H 0.35722 0.80745 0.54793 0.0
H1030 H 0.40441 0.83323 0.55977 0.0
H1031 H 0.32435 0.7431 0.56451 0.0
H1032 H 0.32314 0.82577 0.55161 0.0
H1033 H 0.33066 0.8711 0.56011 0.0
H1034 H 0.27522 0.83758 0.60845 0.0
H1035 H 0.26773 0.79209 0.60043 0.0
C1036 C 0.19326 0.66448 0.55359 0.0
C1037 C 0.17872 0.66093 0.57106 0.0
C1038 C 0.21889 0.68759 0.55103 0.0
C1039 C 0.23006 0.70745 0.56582 0.0
C1040 C 0.21468 0.70456 0.58268 0.0
C1041 C 0.18937 0.68147 0.58532 0.0
C1042 C 0.2586 0.73006 0.56488 0.0
C1043 C 0.26386 0.75665 0.5681 0.0
C1044 C 0.28076 0.72526 0.56311 0.0
C1045 C 0.2772 0.69768 0.56247 0.0
C1046 C 0.26513 0.67997 0.57832 0.0
C1047 C 0.26519 0.65548 0.57899 0.0
C1048 C 0.27737 0.64856 0.56393 0.0
C1049 C 0.28886 0.66575 0.54792 0.0
C1050 C 0.28891 0.69029 0.5472 0.0
C1051 C 0.3726 0.80654 0.6032 0.0
C1052 C 0.39408 0.8211 0.59006 0.0
C1053 C 0.34573 0.79258 0.5965 0.0
C1054 C 0.34001 0.79257 0.57654 0.0
C1055 C 0.36129 0.80772 0.56344 0.0
C1056 C 0.38816 0.8223 0.57022 0.0
C1057 C 0.3125 0.77308 0.56934 0.0
C1058 C 0.30742 0.747 0.56482 0.0
C1059 C 0.2906 0.77823 0.57062 0.0
C1060 C 0.2951 0.80555 0.57553 0.0
C1061 C 0.31281 0.8281 0.56419 0.0
C1062 C 0.317 0.85382 0.56889 0.0
C1063 C 0.30349 0.85723 0.58484 0.0
C1064 C 0.2857 0.83491 0.59611 0.0
C1065 C 0.28145 0.80915 0.59148 0.0
H1066 H 0.30674 0.87715 0.58844 0.0
H1067 H 0.27809 0.62999 0.56476 0.0
H1068 H 0.81706 0.50889 0.35981 0.0
H1069 H 0.76957 0.49665 0.3647 0.0
H1070 H 0.76991 0.46356 0.42131 0.0
H1071 H 0.81761 0.47568 0.41642 0.0
H1072 H 0.72785 0.42788 0.39898 0.0
H1073 H 0.76327 0.51861 0.41895 0.0
H1074 H 0.79256 0.56821 0.41778 0.0
H1075 H 0.75535 0.5704 0.36363 0.0
H1076 H 0.72608 0.52073 0.36429 0.0
H1077 H 0.58831 0.38743 0.40448 0.0
H1078 H 0.63663 0.41039 0.41298 0.0
H1079 H 0.65591 0.45554 0.35905 0.0
H1080 H 0.60705 0.43385 0.35134 0.0
H1081 H 0.6881 0.48698 0.38719 0.0
H1082 H 0.66094 0.39541 0.36452 0.0
H1083 H 0.63213 0.34567 0.36557 0.0
H1084 H 0.65414 0.34579 0.4257 0.0
H1085 H 0.683 0.3956 0.42502 0.0
C1086 C 0.80718 0.49944 0.37345 0.0
C1087 C 0.82098 0.49312 0.38769 0.0
C1088 C 0.78008 0.49259 0.37629 0.0
C1089 C 0.76623 0.47931 0.39342 0.0
C1090 C 0.78026 0.47389 0.40802 0.0
C1091 C 0.80753 0.48095 0.40525 0.0
C1092 C 0.7365 0.46891 0.395 0.0
C1093 C 0.71915 0.44088 0.39685 0.0
C1094 C 0.72518 0.48587 0.39205 0.0
C1095 C 0.74255 0.51585 0.39162 0.0
C1096 C 0.76144 0.52962 0.40671 0.0
C1097 C 0.77803 0.55777 0.40615 0.0
C1098 C 0.77585 0.57244 0.39062 0.0
C1099 C 0.75701 0.559 0.37565 0.0
C1100 C 0.74038 0.53083 0.37613 0.0
C1101 C 0.60287 0.40227 0.3945 0.0
C1102 C 0.59423 0.40861 0.37712 0.0
C1103 C 0.63049 0.41538 0.39933 0.0
C1104 C 0.65003 0.43428 0.38646 0.0
C1105 C 0.64126 0.44098 0.3692 0.0
C1106 C 0.61348 0.4284 0.36466 0.0
C1107 C 0.67961 0.44588 0.39037 0.0
C1108 C 0.69686 0.47409 0.38962 0.0
C1109 C 0.6909 0.42913 0.39438 0.0
C1110 C 0.67395 0.39919 0.39475 0.0
C1111 C 0.65955 0.38481 0.37798 0.0
C1112 C 0.64323 0.35663 0.37851 0.0
C1113 C 0.64127 0.34259 0.39571 0.0
C1114 C 0.65565 0.3567 0.41241 0.0
C1115 C 0.67202 0.3849 0.41195 0.0
H1116 H 0.62867 0.32076 0.39606 0.0
H1117 H 0.78872 0.59423 0.39021 0.0
H1118 H 0.30568 0.82024 0.91455 0.0
H1119 H 0.26533 0.77539 0.92021 0.0
H1120 H 0.28802 0.74336 0.87081 0.0
H1121 H 0.32782 0.7874 0.86536 0.0
H1122 H 0.23557 0.73162 0.86852 0.0
H1123 H 0.29715 0.72926 0.91709 0.0
H1124 H 0.32633 0.74572 0.94647 0.0
H1125 H 0.25785 0.73419 0.98097 0.0
H1126 H 0.22834 0.71805 0.95172 0.0
H1127 H 0.18652 0.59707 0.86664 0.0
H1128 H 0.21461 0.64465 0.87324 0.0
H1129 H 0.15784 0.64035 0.91728 0.0
H1130 H 0.12942 0.591 0.91132 0.0
H1131 H 0.21743 0.67353 0.92689 0.0
H1132 H 0.15444 0.66582 0.87663 0.0
H1133 H 0.12811 0.64649 0.8463 0.0
H1134 H 0.20239 0.67514 0.81375 0.0
H1135 H 0.22918 0.69429 0.84391 0.0
C1136 C 0.30197 0.80349 0.90502 0.0
C1137 C 0.31929 0.80746 0.88907 0.0
C1138 C 0.27903 0.77797 0.90826 0.0
C1139 C 0.2735 0.75619 0.89573 0.0
C1140 C 0.29157 0.76003 0.8804 0.0
C1141 C 0.31421 0.78534 0.87714 0.0
C1142 C 0.2486 0.72941 0.89773 0.0
C1143 C 0.23144 0.71902 0.88137 0.0
C1144 C 0.24289 0.71324 0.91466 0.0
C1145 C 0.26064 0.72285 0.93218 0.0
C1146 C 0.28838 0.73049 0.9309 0.0
C1147 C 0.30496 0.73969 0.94753 0.0
C1148 C 0.29398 0.74109 0.96555 0.0
C1149 C 0.26635 0.73317 0.96699 0.0
C1150 C 0.24969 0.724 0.9504 0.0
C1151 C 0.17997 0.60584 0.87804 0.0
C1152 C 0.1558 0.59013 0.88861 0.0
C1153 C 0.19607 0.63323 0.88166 0.0
C1154 C 0.18814 0.64602 0.89555 0.0
C1155 C 0.16416 0.63066 0.90645 0.0
C1156 C 0.14791 0.60268 0.90293 0.0
C1157 C 0.20502 0.67569 0.89749 0.0
C1158 C 0.22083 0.68657 0.91442 0.0
C1159 C 0.20987 0.69233 0.88094 0.0
C1160 C 0.19383 0.6816 0.86258 0.0
C1161 C 0.16517 0.66798 0.86301 0.0
C1162 C 0.15016 0.65702 0.84584 0.0
C1163 C 0.16357 0.65961 0.8281 0.0
C1164 C 0.19203 0.67321 0.82749 0.0
C1165 C 0.20714 0.6842 0.84462 0.0
H1166 H 0.15191 0.65107 0.81484 0.0
H1167 H 0.30684 0.74822 0.97841 0.0
H1168 H 0.61271 0.23005 0.37478 0.0
H1169 H 0.59299 0.25738 0.38611 0.0
H1170 H 0.51648 0.18478 0.39709 0.0
H1171 H 0.53631 0.15711 0.38624 0.0
H1172 H 0.51631 0.22802 0.37221 0.0
H1173 H 0.54659 0.21418 0.43451 0.0
H1174 H 0.5804 0.21423 0.45723 0.0
H1175 H 0.63167 0.29995 0.4495 0.0
H1176 H 0.59829 0.30036 0.42656 0.0
H1177 H 0.46146 0.30924 0.39794 0.0
H1178 H 0.47144 0.2723 0.40083 0.0
H1179 H 0.55499 0.33031 0.4154 0.0
H1180 H 0.54368 0.36653 0.41504 0.0
H1181 H 0.54709 0.28853 0.43035 0.0
H1182 H 0.52746 0.3023 0.36319 0.0
H1183 H 0.50048 0.3043 0.3355 0.0
H1184 H 0.43619 0.22383 0.34835 0.0
H1185 H 0.46304 0.22111 0.3758 0.0
C1186 C 0.59169 0.21984 0.37964 0.0
C1187 C 0.57599 0.1914 0.37948 0.0
C1188 C 0.58054 0.2355 0.38625 0.0
C1189 C 0.55337 0.22307 0.39255 0.0
C1190 C 0.53756 0.19471 0.39239 0.0
C1191 C 0.54889 0.17896 0.38617 0.0
C1192 C 0.5412 0.23997 0.39806 0.0
C1193 C 0.52255 0.24089 0.38513 0.0
C1194 C 0.55017 0.25736 0.41454 0.0
C1195 C 0.57005 0.25724 0.42863 0.0
C1196 C 0.56517 0.233 0.43752 0.0
C1197 C 0.58423 0.23296 0.45048 0.0
C1198 C 0.60821 0.25706 0.45476 0.0
C1199 C 0.61311 0.28128 0.44615 0.0
C1200 C 0.5941 0.28144 0.43319 0.0
C1201 C 0.48158 0.3138 0.40267 0.0
C1202 C 0.50192 0.34068 0.40621 0.0
C1203 C 0.48754 0.29278 0.40381 0.0
C1204 C 0.51441 0.29845 0.40725 0.0
C1205 C 0.53414 0.32513 0.41243 0.0
C1206 C 0.52775 0.34594 0.41226 0.0
C1207 C 0.52244 0.27729 0.40417 0.0
C1208 C 0.54042 0.27551 0.41753 0.0
C1209 C 0.51359 0.25966 0.38765 0.0
C1210 C 0.49704 0.26167 0.37168 0.0
C1211 C 0.50748 0.28513 0.36018 0.0
C1212 C 0.49227 0.28635 0.3445 0.0
C1213 C 0.46654 0.26433 0.34032 0.0
C1214 C 0.45606 0.24092 0.35167 0.0
C1215 C 0.47131 0.23947 0.36721 0.0
H1216 H 0.45479 0.26536 0.3282 0.0
H1217 H 0.62295 0.25698 0.46479 0.0
H1218 H 0.16902 0.52052 0.92567 0.0
H1219 H 0.21627 0.53054 0.93111 0.0
H1220 H 0.21209 0.4871 0.87809 0.0
H1221 H 0.16551 0.47711 0.87285 0.0
H1222 H 0.24264 0.48 0.90394 0.0
H1223 H 0.23639 0.55586 0.87682 0.0
H1224 H 0.22349 0.59123 0.87667 0.0
H1225 H 0.26549 0.62272 0.93116 0.0
H1226 H 0.27887 0.58752 0.9315 0.0
H1227 H 0.36988 0.57975 0.85052 0.0
H1228 H 0.32313 0.56028 0.86264 0.0
H1229 H 0.34691 0.54028 0.91717 0.0
H1230 H 0.39352 0.55888 0.90495 0.0
H1231 H 0.3087 0.57836 0.89932 0.0
H1232 H 0.31123 0.49401 0.92466 0.0
H1233 H 0.32508 0.45986 0.9182 0.0
H1234 H 0.28942 0.44563 0.86085 0.0
H1235 H 0.27586 0.48011 0.86691 0.0
C1236 C 0.17795 0.51224 0.91572 0.0
C1237 C 0.1637 0.49784 0.89895 0.0
C1238 C 0.20498 0.51818 0.91868 0.0
C1239 C 0.21784 0.50977 0.90489 0.0
C1240 C 0.20268 0.49368 0.889 0.0
C1241 C 0.17602 0.48796 0.88601 0.0
C1242 C 0.24771 0.52011 0.90519 0.0
C1243 C 0.25713 0.50154 0.90342 0.0
C1244 C 0.26675 0.54818 0.90422 0.0
C1245 C 0.25822 0.56887 0.90435 0.0
C1246 C 0.24264 0.57018 0.88885 0.0
C1247 C 0.23529 0.59023 0.88872 0.0
C1248 C 0.24341 0.6091 0.904 0.0
C1249 C 0.25909 0.60802 0.91939 0.0
C1250 C 0.26661 0.58807 0.91954 0.0
C1251 C 0.36511 0.57095 0.86501 0.0
C1252 C 0.3854 0.57079 0.87674 0.0
C1253 C 0.33841 0.55983 0.87191 0.0
C1254 C 0.33151 0.54853 0.8907 0.0
C1255 C 0.35164 0.54826 0.90245 0.0
C1256 C 0.3783 0.55903 0.89546 0.0
C1257 C 0.30343 0.53828 0.89806 0.0
C1258 C 0.29437 0.55689 0.90093 0.0
C1259 C 0.28472 0.51032 0.8998 0.0
C1260 C 0.29295 0.48982 0.89612 0.0
C1261 C 0.30664 0.48378 0.91061 0.0
C1262 C 0.31439 0.46436 0.90703 0.0
C1263 C 0.30823 0.45066 0.88909 0.0
C1264 C 0.29428 0.45634 0.8747 0.0
C1265 C 0.28662 0.47585 0.87818 0.0
H1266 H 0.31418 0.43559 0.88636 0.0
H1267 H 0.23771 0.62463 0.90386 0.0
H1268 H 0.68249 0.17859 0.36436 0.0
H1269 H 0.72139 0.22409 0.36848 0.0
H1270 H 0.68934 0.23162 0.42405 0.0
H1271 H 0.65024 0.18578 0.42005 0.0
H1272 H 0.69903 0.27256 0.39777 0.0
H1273 H 0.7479 0.23193 0.42414 0.0
H1274 H 0.76456 0.1994 0.42569 0.0
H1275 H 0.80711 0.22963 0.37135 0.0
H1276 H 0.79039 0.26208 0.36931 0.0
H1277 H 0.82807 0.40534 0.40331 0.0
H1278 H 0.80144 0.35759 0.41318 0.0
H1279 H 0.77401 0.33495 0.35366 0.0
H1280 H 0.79962 0.38258 0.34388 0.0
H1281 H 0.79749 0.30312 0.38998 0.0
H1282 H 0.72197 0.31881 0.35956 0.0
H1283 H 0.70962 0.35437 0.35516 0.0
H1284 H 0.72123 0.37267 0.41664 0.0
H1285 H 0.73406 0.33742 0.42129 0.0
C1286 C 0.68402 0.18971 0.37765 0.0
C1287 C 0.66333 0.17879 0.39183 0.0
C1288 C 0.70634 0.21562 0.38005 0.0
C1289 C 0.70828 0.23112 0.39662 0.0
C1290 C 0.68823 0.21985 0.41122 0.0
C1291 C 0.666 0.1937 0.40895 0.0
C1292 C 0.72936 0.26009 0.39722 0.0
C1293 C 0.72059 0.27918 0.39662 0.0
C1294 C 0.75748 0.26877 0.39534 0.0
C1295 C 0.76778 0.2494 0.39655 0.0
C1296 C 0.76066 0.23154 0.41245 0.0
C1297 C 0.77014 0.21312 0.41343 0.0
C1298 C 0.78686 0.21243 0.39862 0.0
C1299 C 0.79417 0.2302 0.38282 0.0
C1300 C 0.78474 0.24865 0.38177 0.0
C1301 C 0.8166 0.39006 0.39234 0.0
C1302 C 0.81557 0.39748 0.3729 0.0
C1303 C 0.80159 0.36291 0.39796 0.0
C1304 C 0.78595 0.34295 0.38409 0.0
C1305 C 0.78603 0.3502 0.36451 0.0
C1306 C 0.80045 0.37733 0.35899 0.0
C1307 C 0.76687 0.31498 0.39024 0.0
C1308 C 0.77599 0.2963 0.39189 0.0
C1309 C 0.73906 0.30644 0.39299 0.0
C1310 C 0.72886 0.3256 0.39075 0.0
C1311 C 0.72157 0.33026 0.37214 0.0
C1312 C 0.71469 0.35043 0.36958 0.0
C1313 C 0.71481 0.36582 0.38558 0.0
C1314 C 0.72129 0.36077 0.40425 0.0
C1315 C 0.72839 0.34074 0.40686 0.0
H1316 H 0.71008 0.38178 0.38343 0.0
H1317 H 0.79417 0.19816 0.3994 0.0
H1318 H 0.4956 0.67513 0.85651 0.0
H1319 H 0.48964 0.7142 0.86006 0.0
H1320 H 0.47414 0.69809 0.92184 0.0
H1321 H 0.47876 0.6577 0.9181 0.0
H1322 H 0.43721 0.70646 0.90759 0.0
H1323 H 0.53233 0.7565 0.90466 0.0
H1324 H 0.57906 0.77043 0.89384 0.0
H1325 H 0.56203 0.79128 0.83736 0.0
H1326 H 0.51505 0.77709 0.8477 0.0
H1327 H 0.42261 0.82602 0.89966 0.0
H1328 H 0.4462 0.80154 0.90918 0.0
H1329 H 0.43655 0.76956 0.85058 0.0
H1330 H 0.41221 0.79327 0.84108 0.0
H1331 H 0.49306 0.79302 0.8724 0.0
H1332 H 0.39319 0.73007 0.87675 0.0
H1333 H 0.34799 0.71807 0.89006 0.0
H1334 H 0.37858 0.72569 0.9486 0.0
H1335 H 0.4241 0.73817 0.93559 0.0
C1336 C 0.49105 0.67988 0.8709 0.0
C1337 C 0.48717 0.66304 0.88694 0.0
C1338 C 0.48807 0.70258 0.87299 0.0
C1339 C 0.48178 0.70941 0.89129 0.0
C1340 C 0.47907 0.69328 0.90758 0.0
C1341 C 0.4818 0.67028 0.90544 0.0
C1342 C 0.47524 0.73159 0.89257 0.0
C1343 C 0.44988 0.72569 0.90039 0.0
C1344 C 0.49173 0.75687 0.88334 0.0
C1345 C 0.52006 0.76563 0.87697 0.0
C1346 C 0.53847 0.7639 0.88989 0.0
C1347 C 0.56503 0.77186 0.88384 0.0
C1348 C 0.5735 0.78171 0.86492 0.0
C1349 C 0.55544 0.78367 0.85202 0.0
C1350 C 0.52885 0.77572 0.85798 0.0
C1351 C 0.42585 0.81405 0.88874 0.0
C1352 C 0.41554 0.81144 0.86963 0.0
C1353 C 0.43928 0.80013 0.89422 0.0
C1354 C 0.44308 0.78392 0.88054 0.0
C1355 C 0.43385 0.78216 0.86127 0.0
C1356 C 0.41985 0.79554 0.8559 0.0
C1357 C 0.4548 0.76703 0.8865 0.0
C1358 C 0.48103 0.77408 0.8801 0.0
C1359 C 0.4395 0.74317 0.89747 0.0
C1360 C 0.41209 0.7354 0.90522 0.0
C1361 C 0.39033 0.72945 0.89246 0.0
C1362 C 0.36465 0.72251 0.89994 0.0
C1363 C 0.36044 0.7212 0.92017 0.0
C1364 C 0.38189 0.72677 0.93294 0.0
C1365 C 0.40762 0.73378 0.92552 0.0
H1366 H 0.34052 0.71575 0.92592 0.0
H1367 H 0.59407 0.78785 0.86027 0.0
loop_
_geom_bond_atom_site_label_1
_geom_bond_atom_site_label_2
_geom_bond_distance
_geom_bond_site_symmetry_2
_ccdc_geom_bond_type
Mg0 O1 2.028 . S
Mg0 O7 1.986 . S
Mg0 O9 2.114 . S
Mg0 O10 2.251 . S
Mg0 O13 2.010 . S
O1 Mg0 2.028 . S
O1 C4 1.250 . S
O2 Mg3 2.028 . S
O2 C4 1.248 . S
Mg3 O2 2.028 . S
Mg3 O8 2.032 . S
Mg3 O10 2.079 . S
C4 O1 1.250 . S
C4 O2 1.248 . S
C5 O6 1.264 . S
C5 O13 1.249 . S
O6 C5 1.264 . S
O7 Mg0 1.986 . S
O7 C11 1.246 . S
O8 Mg3 2.032 . S
O8 C11 1.259 . S
O9 Mg0 2.114 . S
O9 C12 1.252 . S
O10 Mg0 2.251 . S
O10 Mg3 2.079 . S
O10 C12 1.273 . S
C11 O7 1.246 . S
C11 O8 1.259 . S
C12 O9 1.252 . S
C12 O10 1.273 . S
O13 Mg0 2.010 . S
O13 C5 1.249 . S
Mg14 O15 2.028 . S
Mg14 O21 1.986 . S
Mg14 O23 2.114 . S
Mg14 O24 2.251 . S
Mg14 O27 2.010 . S
O15 Mg14 2.028 . S
O15 C18 1.250 . S
O16 Mg17 2.028 . S
O16 C18 1.248 . S
Mg17 O16 2.028 . S
Mg17 O22 2.032 . S
Mg17 O24 2.079 . S
C18 O15 1.250 . S
C18 O16 1.248 . S
C19 O20 1.264 . S
C19 O27 1.249 . S
O20 C19 1.264 . S
O21 Mg14 1.986 . S
O21 C25 1.246 . S
O22 Mg17 2.032 . S
O22 C25 1.259 . S
O23 Mg14 2.114 . S
O23 C26 1.252 . S
O24 Mg14 2.251 . S
O24 Mg17 2.079 . S
O24 C26 1.273 . S
C25 O21 1.246 . S
C25 O22 1.259 . S
C26 O23 1.252 . S
C26 O24 1.273 . S
O27 Mg14 2.010 . S
O27 C19 1.249 . S
Mg28 O29 2.028 . S
Mg28 O35 1.986 . S
Mg28 O37 2.114 . S
Mg28 O38 2.251 . S
Mg28 O41 2.010 . S
O29 Mg28 2.028 . S
O29 C32 1.250 . S
O30 Mg31 2.028 . S
O30 C32 1.248 . S
Mg31 O30 2.028 . S
Mg31 O36 2.032 . S
Mg31 O38 2.079 . S
C32 O29 1.250 . S
C32 O30 1.248 . S
C33 O34 1.264 . S
C33 O41 1.249 . S
O34 C33 1.264 . S
O35 Mg28 1.986 . S
O35 C39 1.246 . S
O36 Mg31 2.032 . S
O36 C39 1.259 . S
O37 Mg28 2.114 . S
O37 C40 1.252 . S
O38 Mg28 2.251 . S
O38 Mg31 2.079 . S
O38 C40 1.273 . S
C39 O35 1.246 . S
C39 O36 1.259 . S
C40 O37 1.252 . S
C40 O38 1.273 . S
O41 Mg28 2.010 . S
O41 C33 1.249 . S
Mg42 O43 2.028 . S
Mg42 O49 1.986 . S
Mg42 O51 2.114 . S
Mg42 O52 2.251 . S
Mg42 O55 2.010 . S
O43 Mg42 2.028 . S
O43 C46 1.250 . S
O44 Mg45 2.028 . S
O44 C46 1.248 . S
Mg45 O44 2.028 . S
Mg45 O50 2.032 . S
Mg45 O52 2.079 . S
C46 O43 1.250 . S
C46 O44 1.248 . S
C47 O48 1.264 . S
C47 O55 1.249 . S
O48 C47 1.264 . S
O49 Mg42 1.986 . S
O49 C53 1.246 . S
O50 Mg45 2.032 . S
O50 C53 1.259 . S
O51 Mg42 2.114 . S
O51 C54 1.252 . S
O52 Mg42 2.251 . S
O52 Mg45 2.079 . S
O52 C54 1.273 . S
C53 O49 1.246 . S
C53 O50 1.259 . S
C54 O51 1.252 . S
C54 O52 1.273 . S
O55 Mg42 2.010 . S
O55 C47 1.249 . S
Mg56 O57 2.028 . S
Mg56 O63 1.986 . S
Mg56 O65 2.114 . S
Mg56 O66 2.251 . S
Mg56 O69 2.010 . S
O57 Mg56 2.028 . S
O57 C60 1.250 . S
O58 Mg59 2.028 . S
O58 C60 1.248 . S
Mg59 O58 2.028 . S
Mg59 O64 2.032 . S
Mg59 O66 2.079 . S
C60 O57 1.250 . S
C60 O58 1.248 . S
C61 O62 1.264 . S
C61 O69 1.249 . S
O62 C61 1.264 . S
O63 Mg56 1.986 . S
O63 C67 1.246 . S
O64 Mg59 2.032 . S
O64 C67 1.259 . S
O65 Mg56 2.114 . S
O65 C68 1.252 . S
O66 Mg56 2.251 . S
O66 Mg59 2.079 . S
O66 C68 1.273 . S
C67 O63 1.246 . S
C67 O64 1.259 . S
C68 O65 1.252 . S
C68 O66 1.273 . S
O69 Mg56 2.010 . S
O69 C61 1.249 . S
Mg70 O71 2.028 . S
Mg70 O77 1.986 . S
Mg70 O79 2.114 . S
Mg70 O80 2.251 . S
Mg70 O83 2.010 . S
O71 Mg70 2.028 . S
O71 C74 1.250 . S
O72 Mg73 2.028 . S
O72 C74 1.248 . S
Mg73 O72 2.028 . S
Mg73 O78 2.032 . S
Mg73 O80 2.079 . S
C74 O71 1.250 . S
C74 O72 1.248 . S
C75 O76 1.264 . S
C75 O83 1.249 . S
O76 C75 1.264 . S
O77 Mg70 1.986 . S
O77 C81 1.246 . S
O78 Mg73 2.032 . S
O78 C81 1.259 . S
O79 Mg70 2.114 . S
O79 C82 1.252 . S
O80 Mg70 2.251 . S
O80 Mg73 2.079 . S
O80 C82 1.273 . S
C81 O77 1.246 . S
C81 O78 1.259 . S
C82 O79 1.252 . S
C82 O80 1.273 . S
O83 Mg70 2.010 . S
O83 C75 1.249 . S
Mg84 O85 2.028 . S
Mg84 O91 1.986 . S
Mg84 O93 2.114 . S
Mg84 O94 2.251 . S
Mg84 O97 2.010 . S
O85 Mg84 2.028 . S
O85 C88 1.250 . S
O86 Mg87 2.028 . S
O86 C88 1.248 . S
Mg87 O86 2.028 . S
Mg87 O92 2.032 . S
Mg87 O94 2.079 . S
C88 O85 1.250 . S
C88 O86 1.248 . S
C89 O90 1.264 . S
C89 O97 1.249 . S
O90 C89 1.264 . S
O91 Mg84 1.986 . S
O91 C95 1.246 . S
O92 Mg87 2.032 . S
O92 C95 1.259 . S
O93 Mg84 2.114 . S
O93 C96 1.252 . S
O94 Mg84 2.251 . S
O94 Mg87 2.079 . S
O94 C96 1.273 . S
C95 O91 1.246 . S
C95 O92 1.259 . S
C96 O93 1.252 . S
C96 O94 1.273 . S
O97 Mg84 2.010 . S
O97 C89 1.249 . S
Mg98 O99 2.028 . S
Mg98 O105 1.986 . S
Mg98 O107 2.114 . S
Mg98 O108 2.251 . S
Mg98 O111 2.010 . S
O99 Mg98 2.028 . S
O99 C102 1.250 . S
O100 Mg101 2.028 . S
O100 C102 1.248 . S
Mg101 O100 2.028 . S
Mg101 O106 2.032 . S
Mg101 O108 2.079 . S
C102 O99 1.250 . S
C102 O100 1.248 . S
C103 O104 1.264 . S
C103 O111 1.249 . S
O104 C103 1.264 . S
O105 Mg98 1.986 . S
O105 C109 1.246 . S
O106 Mg101 2.032 . S
O106 C109 1.259 . S
O107 Mg98 2.114 . S
O107 C110 1.252 . S
O108 Mg98 2.251 . S
O108 Mg101 2.079 . S
O108 C110 1.273 . S
C109 O105 1.246 . S
C109 O106 1.259 . S
C110 O107 1.252 . S
C110 O108 1.273 . S
O111 Mg98 2.010 . S
O111 C103 1.249 . S
Mg112 O113 2.028 . S
Mg112 O119 1.986 . S
Mg112 O121 2.114 . S
Mg112 O122 2.251 . S
Mg112 O125 2.010 . S
O113 Mg112 2.028 . S
O113 C116 1.250 . S
O114 Mg115 2.028 . S
O114 C116 1.248 . S
Mg115 O114 2.028 . S
Mg115 O120 2.032 . S
Mg115 O122 2.079 . S
C116 O113 1.250 . S
C116 O114 1.248 . S
C117 O118 1.264 . S
C117 O125 1.249 . S
O118 C117 1.264 . S
O119 Mg112 1.986 . S
O119 C123 1.246 . S
O120 Mg115 2.032 . S
O120 C123 1.259 . S
O121 Mg112 2.114 . S
O121 C124 1.252 . S
O122 Mg112 2.251 . S
O122 Mg115 2.079 . S
O122 C124 1.273 . S
C123 O119 1.246 . S
C123 O120 1.259 . S
C124 O121 1.252 . S
C124 O122 1.273 . S
O125 Mg112 2.010 . S
O125 C117 1.249 . S
Mg126 O127 2.028 . S
Mg126 O133 1.986 . S
Mg126 O135 2.114 . S
Mg126 O136 2.251 . S
Mg126 O139 2.010 . S
O127 Mg126 2.028 . S
O127 C130 1.250 . S
O128 Mg129 2.028 . S
O128 C130 1.248 . S
Mg129 O128 2.028 . S
Mg129 O134 2.032 . S
Mg129 O136 2.079 . S
C130 O127 1.250 . S
C130 O128 1.248 . S
C131 O132 1.264 . S
C131 O139 1.249 . S
O132 C131 1.264 . S
O133 Mg126 1.986 . S
O133 C137 1.246 . S
O134 Mg129 2.032 . S
O134 C137 1.259 . S
O135 Mg126 2.114 . S
O135 C138 1.252 . S
O136 Mg126 2.251 . S
O136 Mg129 2.079 . S
O136 C138 1.273 . S
C137 O133 1.246 . S
C137 O134 1.259 . S
C138 O135 1.252 . S
C138 O136 1.273 . S
O139 Mg126 2.010 . S
O139 C131 1.249 . S
Mg140 O141 2.028 . S
Mg140 O147 1.986 . S
Mg140 O149 2.114 . S
Mg140 O150 2.251 . S
Mg140 O153 2.010 . S
O141 Mg140 2.028 . S
O141 C144 1.250 . S
O142 Mg143 2.028 . S
O142 C144 1.248 . S
Mg143 O142 2.028 . S
Mg143 O148 2.032 . S
Mg143 O150 2.079 . S
C144 O141 1.250 . S
C144 O142 1.248 . S
C145 O146 1.264 . S
C145 O153 1.249 . S
O146 C145 1.264 . S
O147 Mg140 1.986 . S
O147 C151 1.246 . S
O148 Mg143 2.032 . S
O148 C151 1.259 . S
O149 Mg140 2.114 . S
O149 C152 1.252 . S
O150 Mg140 2.251 . S
O150 Mg143 2.079 . S
O150 C152 1.273 . S
C151 O147 1.246 . S
C151 O148 1.259 . S
C152 O149 1.252 . S
C152 O150 1.273 . S
O153 Mg140 2.010 . S
O153 C145 1.249 . S
Mg154 O155 2.028 . S
Mg154 O161 1.986 . S
Mg154 O163 2.114 . S
Mg154 O164 2.251 . S
Mg154 O167 2.010 . S
O155 Mg154 2.028 . S
O155 C158 1.250 . S
O156 Mg157 2.028 . S
O156 C158 1.248 . S
Mg157 O156 2.028 . S
Mg157 O162 2.032 . S
Mg157 O164 2.079 . S
C158 O155 1.250 . S
C158 O156 1.248 . S
C159 O160 1.264 . S
C159 O167 1.249 . S
O160 C159 1.264 . S
O161 Mg154 1.986 . S
O161 C165 1.246 . S
O162 Mg157 2.032 . S
O162 C165 1.259 . S
O163 Mg154 2.114 . S
O163 C166 1.252 . S
O164 Mg154 2.251 . S
O164 Mg157 2.079 . S
O164 C166 1.273 . S
C165 O161 1.246 . S
C165 O162 1.259 . S
C166 O163 1.252 . S
C166 O164 1.273 . S
O167 Mg154 2.010 . S
O167 C159 1.249 . S
H168 C186 0.951 . S
H169 C188 0.951 . S
H170 C190 0.950 . S
H171 C191 0.950 . S
H172 C193 0.950 . S
H173 C196 0.950 . S
H174 C197 0.950 . S
H175 C199 0.950 . S
H176 C200 0.950 . S
H177 C201 0.951 . S
H178 C203 0.951 . S
H179 C205 0.950 . S
H180 C206 0.950 . S
H181 C208 0.950 . S
H182 C211 0.950 . S
H183 C212 0.950 . S
H184 C214 0.950 . S
H185 C215 0.950 . S
C186 H168 0.951 . S
C186 C187 1.366 . S
C186 C188 1.388 . S
C187 C186 1.366 . S
C187 C191 1.385 . S
C188 H169 0.951 . S
C188 C186 1.388 . S
C188 C189 1.366 . S
C189 C188 1.366 . S
C189 C190 1.414 . S
C189 C192 1.499 . S
C190 H170 0.950 . S
C190 C189 1.414 . S
C190 C191 1.374 . S
C191 H171 0.950 . S
C191 C187 1.385 . S
C191 C190 1.374 . S
C192 C189 1.499 . S
C192 C193 1.373 . S
C192 C194 1.389 . S
C193 H172 0.950 . S
C193 C192 1.373 . S
C193 C209 1.377 . S
C194 C192 1.389 . S
C194 C195 1.524 . S
C194 C208 1.377 . S
C195 C194 1.524 . S
C195 C196 1.397 . S
C195 C200 1.363 . S
C196 H173 0.950 . S
C196 C195 1.397 . S
C196 C197 1.334 . S
C197 H174 0.950 . S
C197 C196 1.334 . S
C197 C198 1.287 . S
C198 C197 1.287 . S
C198 C199 1.524 . S
C198 H217 0.913 . S
C199 H175 0.950 . S
C199 C198 1.524 . S
C199 C200 1.415 . S
C200 H176 0.950 . S
C200 C195 1.363 . S
C200 C199 1.415 . S
C201 H177 0.951 . S
C201 C202 1.366 . S
C201 C203 1.388 . S
C202 C201 1.366 . S
C202 C206 1.385 . S
C203 H178 0.951 . S
C203 C201 1.388 . S
C203 C204 1.366 . S
C204 C203 1.366 . S
C204 C205 1.414 . S
C204 C207 1.499 . S
C205 H179 0.950 . S
C205 C204 1.414 . S
C205 C206 1.374 . S
C206 H180 0.950 . S
C206 C202 1.385 . S
C206 C205 1.374 . S
C207 C204 1.499 . S
C207 C208 1.373 . S
C207 C209 1.389 . S
C208 H181 0.950 . S
C208 C194 1.377 . S
C208 C207 1.373 . S
C209 C193 1.377 . S
C209 C207 1.389 . S
C209 C210 1.524 . S
C210 C209 1.524 . S
C210 C211 1.397 . S
C210 C215 1.363 . S
C211 H182 0.950 . S
C211 C210 1.397 . S
C211 C212 1.334 . S
C212 H183 0.950 . S
C212 C211 1.334 . S
C212 C213 1.287 . S
C213 C212 1.287 . S
C213 C214 1.524 . S
C213 H216 0.999 . S
C214 H184 0.950 . S
C214 C213 1.524 . S
C214 C215 1.415 . S
C215 H185 0.950 . S
C215 C210 1.363 . S
C215 C214 1.415 . S
H216 C213 0.999 . S
H217 C198 0.913 . S
H218 C236 0.951 . S
H219 C238 0.951 . S
H220 C240 0.950 . S
H221 C241 0.950 . S
H222 C243 0.950 . S
H223 C246 0.950 . S
H224 C247 0.950 . S
H225 C249 0.950 . S
H226 C250 0.950 . S
H227 C251 0.951 . S
H228 C253 0.951 . S
H229 C255 0.950 . S
H230 C256 0.950 . S
H231 C258 0.950 . S
H232 C261 0.950 . S
H233 C262 0.950 . S
H234 C264 0.950 . S
H235 C265 0.950 . S
C236 H218 0.951 . S
C236 C237 1.366 . S
C236 C238 1.388 . S
C237 C236 1.366 . S
C237 C241 1.385 . S
C238 H219 0.951 . S
C238 C236 1.388 . S
C238 C239 1.366 . S
C239 C238 1.366 . S
C239 C240 1.414 . S
C239 C242 1.499 . S
C240 H220 0.950 . S
C240 C239 1.414 . S
C240 C241 1.374 . S
C241 H221 0.950 . S
C241 C237 1.385 . S
C241 C240 1.374 . S
C242 C239 1.499 . S
C242 C243 1.373 . S
C242 C244 1.389 . S
C243 H222 0.950 . S
C243 C242 1.373 . S
C243 C259 1.377 . S
C244 C242 1.389 . S
C244 C245 1.524 . S
C244 C258 1.377 . S
C245 C244 1.524 . S
C245 C246 1.397 . S
C245 C250 1.363 . S
C246 H223 0.950 . S
C246 C245 1.397 . S
C246 C247 1.334 . S
C247 H224 0.950 . S
C247 C246 1.334 . S
C247 C248 1.287 . S
C248 C247 1.287 . S
C248 C249 1.524 . S
C248 H267 0.913 . S
C249 H225 0.950 . S
C249 C248 1.524 . S
C249 C250 1.415 . S
C250 H226 0.950 . S
C250 C245 1.363 . S
C250 C249 1.415 . S
C251 H227 0.951 . S
C251 C252 1.366 . S
C251 C253 1.388 . S
C252 C251 1.366 . S
C252 C256 1.385 . S
C253 H228 0.951 . S
C253 C251 1.388 . S
C253 C254 1.366 . S
C254 C253 1.366 . S
C254 C255 1.414 . S
C254 C257 1.499 . S
C255 H229 0.950 . S
C255 C254 1.414 . S
C255 C256 1.374 . S
C256 H230 0.950 . S
C256 C252 1.385 . S
C256 C255 1.374 . S
C257 C254 1.499 . S
C257 C258 1.373 . S
C257 C259 1.389 . S
C258 H231 0.950 . S
C258 C244 1.377 . S
C258 C257 1.373 . S
C259 C243 1.377 . S
C259 C257 1.389 . S
C259 C260 1.524 . S
C260 C259 1.524 . S
C260 C261 1.397 . S
C260 C265 1.363 . S
C261 H232 0.950 . S
C261 C260 1.397 . S
C261 C262 1.334 . S
C262 H233 0.950 . S
C262 C261 1.334 . S
C262 C263 1.287 . S
C263 C262 1.287 . S
C263 C264 1.524 . S
C263 H266 0.999 . S
C264 H234 0.950 . S
C264 C263 1.524 . S
C264 C265 1.415 . S
C265 H235 0.950 . S
C265 C260 1.363 . S
C265 C264 1.415 . S
H266 C263 0.999 . S
H267 C248 0.913 . S
H268 C286 0.951 . S
H269 C288 0.951 . S
H270 C290 0.950 . S
H271 C291 0.950 . S
H272 C293 0.950 . S
H273 C296 0.950 . S
H274 C297 0.950 . S
H275 C299 0.950 . S
H276 C300 0.950 . S
H277 C301 0.951 . S
H278 C303 0.951 . S
H279 C305 0.950 . S
H280 C306 0.950 . S
H281 C308 0.950 . S
H282 C311 0.950 . S
H283 C312 0.950 . S
H284 C314 0.950 . S
H285 C315 0.950 . S
C286 H268 0.951 . S
C286 C287 1.366 . S
C286 C288 1.388 . S
C287 C286 1.366 . S
C287 C291 1.385 . S
C288 H269 0.951 . S
C288 C286 1.388 . S
C288 C289 1.366 . S
C289 C288 1.366 . S
C289 C290 1.414 . S
C289 C292 1.499 . S
C290 H270 0.950 . S
C290 C289 1.414 . S
C290 C291 1.374 . S
C291 H271 0.950 . S
C291 C287 1.385 . S
C291 C290 1.374 . S
C292 C289 1.499 . S
C292 C293 1.373 . S
C292 C294 1.389 . S
C293 H272 0.950 . S
C293 C292 1.373 . S
C293 C309 1.377 . S
C294 C292 1.389 . S
C294 C295 1.524 . S
C294 C308 1.377 . S
C295 C294 1.524 . S
C295 C296 1.397 . S
C295 C300 1.363 . S
C296 H273 0.950 . S
C296 C295 1.397 . S
C296 C297 1.334 . S
C297 H274 0.950 . S
C297 C296 1.334 . S
C297 C298 1.287 . S
C298 C297 1.287 . S
C298 C299 1.524 . S
C298 H317 0.913 . S
C299 H275 0.950 . S
C299 C298 1.524 . S
C299 C300 1.415 . S
C300 H276 0.950 . S
C300 C295 1.363 . S
C300 C299 1.415 . S
C301 H277 0.951 . S
C301 C302 1.366 . S
C301 C303 1.388 . S
C302 C301 1.366 . S
C302 C306 1.385 . S
C303 H278 0.951 . S
C303 C301 1.388 . S
C303 C304 1.366 . S
C304 C303 1.366 . S
C304 C305 1.414 . S
C304 C307 1.499 . S
C305 H279 0.950 . S
C305 C304 1.414 . S
C305 C306 1.374 . S
C306 H280 0.950 . S
C306 C302 1.385 . S
C306 C305 1.374 . S
C307 C304 1.499 . S
C307 C308 1.373 . S
C307 C309 1.389 . S
C308 H281 0.950 . S
C308 C294 1.377 . S
C308 C307 1.373 . S
C309 C293 1.377 . S
C309 C307 1.389 . S
C309 C310 1.524 . S
C310 C309 1.524 . S
C310 C311 1.397 . S
C310 C315 1.363 . S
C311 H282 0.950 . S
C311 C310 1.397 . S
C311 C312 1.334 . S
C312 H283 0.950 . S
C312 C311 1.334 . S
C312 C313 1.287 . S
C313 C312 1.287 . S
C313 C314 1.524 . S
C313 H316 0.999 . S
C314 H284 0.950 . S
C314 C313 1.524 . S
C314 C315 1.415 . S
C315 H285 0.950 . S
C315 C310 1.363 . S
C315 C314 1.415 . S
H316 C313 0.999 . S
H317 C298 0.913 . S
H318 C336 0.951 . S
H319 C338 0.951 . S
H320 C340 0.950 . S
H321 C341 0.950 . S
H322 C343 0.950 . S
H323 C346 0.950 . S
H324 C347 0.950 . S
H325 C349 0.950 1_545 S
H326 C350 0.950 . S
H327 C351 0.951 . S
H328 C353 0.951 . S
H329 C355 0.950 . S
H330 C356 0.950 . S
H331 C358 0.950 . S
H332 C361 0.950 . S
H333 C362 0.950 . S
H334 C364 0.950 . S
H335 C365 0.950 . S
C336 H318 0.951 . S
C336 C337 1.366 . S
C336 C338 1.388 . S
C337 C336 1.366 . S
C337 C341 1.385 . S
C338 H319 0.951 . S
C338 C336 1.388 . S
C338 C339 1.366 . S
C339 C338 1.366 . S
C339 C340 1.414 . S
C339 C342 1.499 . S
C340 H320 0.950 . S
C340 C339 1.414 . S
C340 C341 1.374 . S
C341 H321 0.950 . S
C341 C337 1.385 . S
C341 C340 1.374 . S
C342 C339 1.499 . S
C342 C343 1.373 . S
C342 C344 1.389 . S
C343 H322 0.950 . S
C343 C342 1.373 . S
C343 C359 1.377 . S
C344 C342 1.389 . S
C344 C345 1.524 . S
C344 C358 1.377 . S
C345 C344 1.524 . S
C345 C346 1.397 . S
C345 C350 1.363 . S
C346 H323 0.950 . S
C346 C345 1.397 . S
C346 C347 1.334 . S
C347 H324 0.950 . S
C347 C346 1.334 . S
C347 C348 1.287 . S
C348 C347 1.287 . S
C348 C349 1.524 . S
C348 H367 0.913 1_565 S
C349 H325 0.950 1_565 S
C349 C348 1.524 . S
C349 C350 1.415 . S
C350 H326 0.950 . S
C350 C345 1.363 . S
C350 C349 1.415 . S
C351 H327 0.951 . S
C351 C352 1.366 . S
C351 C353 1.388 . S
C352 C351 1.366 . S
C352 C356 1.385 . S
C353 H328 0.951 . S
C353 C351 1.388 . S
C353 C354 1.366 . S
C354 C353 1.366 . S
C354 C355 1.414 . S
C354 C357 1.499 . S
C355 H329 0.950 . S
C355 C354 1.414 . S
C355 C356 1.374 . S
C356 H330 0.950 . S
C356 C352 1.385 . S
C356 C355 1.374 . S
C357 C354 1.499 . S
C357 C358 1.373 . S
C357 C359 1.389 . S
C358 H331 0.950 . S
C358 C344 1.377 . S
C358 C357 1.373 . S
C359 C343 1.377 . S
C359 C357 1.389 . S
C359 C360 1.524 . S
C360 C359 1.524 . S
C360 C361 1.397 . S
C360 C365 1.363 . S
C361 H332 0.950 . S
C361 C360 1.397 . S
C361 C362 1.334 . S
C362 H333 0.950 . S
C362 C361 1.334 . S
C362 C363 1.287 . S
C363 C362 1.287 . S
C363 C364 1.524 . S
C363 H366 0.999 . S
C364 H334 0.950 . S
C364 C363 1.524 . S
C364 C365 1.415 . S
C365 H335 0.950 . S
C365 C360 1.363 . S
C365 C364 1.415 . S
H366 C363 0.999 . S
H367 C348 0.913 1_545 S
H368 C386 0.951 . S
H369 C388 0.951 . S
H370 C390 0.950 . S
H371 C391 0.950 . S
H372 C393 0.950 . S
H373 C396 0.950 . S
H374 C397 0.950 . S
H375 C399 0.950 . S
H376 C400 0.950 . S
H377 C401 0.951 . S
H378 C403 0.951 . S
H379 C405 0.950 . S
H380 C406 0.950 . S
H381 C408 0.950 . S
H382 C411 0.950 . S
H383 C412 0.950 . S
H384 C414 0.950 . S
H385 C415 0.950 . S
C386 H368 0.951 . S
C386 C387 1.366 . S
C386 C388 1.388 . S
C387 C386 1.366 . S
C387 C391 1.385 . S
C388 H369 0.951 . S
C388 C386 1.388 . S
C388 C389 1.366 . S
C389 C388 1.366 . S
C389 C390 1.414 . S
C389 C392 1.499 . S
C390 H370 0.950 . S
C390 C389 1.414 . S
C390 C391 1.374 . S
C391 H371 0.950 . S
C391 C387 1.385 . S
C391 C390 1.374 . S
C392 C389 1.499 . S
C392 C393 1.373 . S
C392 C394 1.389 . S
C393 H372 0.950 . S
C393 C392 1.373 . S
C393 C409 1.377 . S
C394 C392 1.389 . S
C394 C395 1.524 . S
C394 C408 1.377 . S
C395 C394 1.524 . S
C395 C396 1.397 . S
C395 C400 1.363 . S
C396 H373 0.950 . S
C396 C395 1.397 . S
C396 C397 1.334 . S
C397 H374 0.950 . S
C397 C396 1.334 . S
C397 C398 1.287 . S
C398 C397 1.287 . S
C398 C399 1.524 . S
C398 H417 0.913 . S
C399 H375 0.950 . S
C399 C398 1.524 . S
C399 C400 1.415 . S
C400 H376 0.950 . S
C400 C395 1.363 . S
C400 C399 1.415 . S
C401 H377 0.951 . S
C401 C402 1.366 . S
C401 C403 1.388 . S
C402 C401 1.366 . S
C402 C406 1.385 . S
C403 H378 0.951 . S
C403 C401 1.388 . S
C403 C404 1.366 . S
C404 C403 1.366 . S
C404 C405 1.414 . S
C404 C407 1.499 . S
C405 H379 0.950 . S
C405 C404 1.414 . S
C405 C406 1.374 . S
C406 H380 0.950 . S
C406 C402 1.385 . S
C406 C405 1.374 . S
C407 C404 1.499 . S
C407 C408 1.373 . S
C407 C409 1.389 . S
C408 H381 0.950 . S
C408 C394 1.377 . S
C408 C407 1.373 . S
C409 C393 1.377 . S
C409 C407 1.389 . S
C409 C410 1.524 . S
C410 C409 1.524 . S
C410 C411 1.397 . S
C410 C415 1.363 . S
C411 H382 0.950 . S
C411 C410 1.397 . S
C411 C412 1.334 . S
C412 H383 0.950 . S
C412 C411 1.334 . S
C412 C413 1.287 . S
C413 C412 1.287 . S
C413 C414 1.524 . S
C413 H416 0.999 . S
C414 H384 0.950 . S
C414 C413 1.524 . S
C414 C415 1.415 . S
C415 H385 0.950 . S
C415 C410 1.363 . S
C415 C414 1.415 . S
H416 C413 0.999 . S
H417 C398 0.913 . S
H418 C436 0.951 . S
H419 C438 0.951 . S
H420 C440 0.950 . S
H421 C441 0.950 . S
H422 C443 0.950 . S
H423 C446 0.950 . S
H424 C447 0.950 . S
H425 C449 0.951 . S
H426 C450 0.950 . S
H427 C451 0.951 . S
H428 C453 0.951 . S
H429 C455 0.950 . S
H430 C456 0.950 . S
H431 C458 0.950 . S
H432 C461 0.950 . S
H433 C462 0.950 . S
H434 C464 0.950 . S
H435 C465 0.950 . S
C436 H418 0.951 . S
C436 C437 1.366 . S
C436 C438 1.388 . S
C437 C436 1.366 . S
C437 C441 1.385 . S
C438 H419 0.951 . S
C438 C436 1.388 . S
C438 C439 1.366 . S
C439 C438 1.366 . S
C439 C440 1.414 . S
C439 C442 1.499 . S
C440 H420 0.950 . S
C440 C439 1.414 . S
C440 C441 1.374 . S
C441 H421 0.950 . S
C441 C437 1.385 . S
C441 C440 1.374 . S
C442 C439 1.499 . S
C442 C443 1.373 . S
C442 C444 1.389 . S
C443 H422 0.950 . S
C443 C442 1.373 . S
C443 C459 1.377 . S
C444 C442 1.389 . S
C444 C445 1.524 . S
C444 C458 1.377 . S
C445 C444 1.524 . S
C445 C446 1.397 . S
C445 C450 1.363 . S
C446 H423 0.950 . S
C446 C445 1.397 . S
C446 C447 1.334 . S
C447 H424 0.950 . S
C447 C446 1.334 . S
C447 C448 1.287 . S
C448 C447 1.287 . S
C448 C449 1.524 . S
C448 H467 0.913 . S
C449 H425 0.951 . S
C449 C448 1.524 . S
C449 C450 1.415 . S
C450 H426 0.950 . S
C450 C445 1.363 . S
C450 C449 1.415 . S
C451 H427 0.951 . S
C451 C452 1.366 . S
C451 C453 1.388 . S
C452 C451 1.366 . S
C452 C456 1.385 . S
C453 H428 0.951 . S
C453 C451 1.388 . S
C453 C454 1.366 . S
C454 C453 1.366 . S
C454 C455 1.414 . S
C454 C457 1.499 . S
C455 H429 0.950 . S
C455 C454 1.414 . S
C455 C456 1.374 . S
C456 H430 0.950 . S
C456 C452 1.385 . S
C456 C455 1.374 . S
C457 C454 1.499 . S
C457 C458 1.373 . S
C457 C459 1.389 . S
C458 H431 0.950 . S
C458 C444 1.377 . S
C458 C457 1.373 . S
C459 C443 1.377 . S
C459 C457 1.389 . S
C459 C460 1.524 . S
C460 C459 1.524 . S
C460 C461 1.397 . S
C460 C465 1.363 . S
C461 H432 0.950 . S
C461 C460 1.397 . S
C461 C462 1.334 . S
C462 H433 0.950 . S
C462 C461 1.334 . S
C462 C463 1.287 . S
C463 C462 1.287 . S
C463 C464 1.524 . S
C463 H466 0.999 . S
C464 H434 0.950 . S
C464 C463 1.524 . S
C464 C465 1.415 . S
C465 H435 0.950 . S
C465 C460 1.363 . S
C465 C464 1.415 . S
H466 C463 0.999 . S
H467 C448 0.913 . S
H468 C486 0.951 . S
H469 C488 0.951 . S
H470 C490 0.950 . S
H471 C491 0.950 . S
H472 C493 0.950 . S
H473 C496 0.950 . S
H474 C497 0.950 . S
H475 C499 0.950 . S
H476 C500 0.950 . S
H477 C501 0.951 . S
H478 C503 0.951 . S
H479 C505 0.950 . S
H480 C506 0.950 . S
H481 C508 0.950 . S
H482 C511 0.950 . S
H483 C512 0.950 . S
H484 C514 0.950 . S
H485 C515 0.950 . S
C486 H468 0.951 . S
C486 C487 1.366 . S
C486 C488 1.388 . S
C487 C486 1.366 . S
C487 C491 1.385 . S
C488 H469 0.951 . S
C488 C486 1.388 . S
C488 C489 1.366 . S
C489 C488 1.366 . S
C489 C490 1.414 . S
C489 C492 1.499 . S
C490 H470 0.950 . S
C490 C489 1.414 . S
C490 C491 1.374 . S
C491 H471 0.950 . S
C491 C487 1.385 . S
C491 C490 1.374 . S
C492 C489 1.499 . S
C492 C493 1.373 . S
C492 C494 1.389 . S
C493 H472 0.950 . S
C493 C492 1.373 . S
C493 C509 1.377 1_544 S
C494 C492 1.389 . S
C494 C495 1.524 . S
C494 C508 1.377 1_544 S
C495 C494 1.524 . S
C495 C496 1.397 . S
C495 C500 1.363 1_545 S
C496 H473 0.950 . S
C496 C495 1.397 . S
C496 C497 1.334 . S
C497 H474 0.950 . S
C497 C496 1.334 . S
C497 C498 1.287 . S
C498 C497 1.287 . S
C498 C499 1.524 1_545 S
C498 H517 0.913 . S
C499 H475 0.950 . S
C499 C498 1.524 1_565 S
C499 C500 1.415 . S
C500 H476 0.950 . S
C500 C495 1.363 1_565 S
C500 C499 1.415 . S
C501 H477 0.951 . S
C501 C502 1.366 . S
C501 C503 1.388 . S
C502 C501 1.366 . S
C502 C506 1.385 . S
C503 H478 0.951 . S
C503 C501 1.388 . S
C503 C504 1.366 . S
C504 C503 1.366 . S
C504 C505 1.414 . S
C504 C507 1.499 . S
C505 H479 0.950 . S
C505 C504 1.414 . S
C505 C506 1.374 . S
C506 H480 0.950 . S
C506 C502 1.385 . S
C506 C505 1.374 . S
C507 C504 1.499 . S
C507 C508 1.373 . S
C507 C509 1.389 . S
C508 H481 0.950 . S
C508 C494 1.377 1_566 S
C508 C507 1.373 . S
C509 C493 1.377 1_566 S
C509 C507 1.389 . S
C509 C510 1.524 . S
C510 C509 1.524 . S
C510 C511 1.397 . S
C510 C515 1.363 1_565 S
C511 H482 0.950 . S
C511 C510 1.397 . S
C511 C512 1.334 . S
C512 H483 0.950 . S
C512 C511 1.334 . S
C512 C513 1.287 . S
C513 C512 1.287 . S
C513 C514 1.524 1_565 S
C513 H516 0.999 . S
C514 H484 0.950 . S
C514 C513 1.524 1_545 S
C514 C515 1.415 . S
C515 H485 0.950 . S
C515 C510 1.363 1_545 S
C515 C514 1.415 . S
H516 C513 0.999 . S
H517 C498 0.913 . S
H518 C536 0.951 . S
H519 C538 0.951 . S
H520 C540 0.950 . S
H521 C541 0.950 . S
H522 C543 0.950 . S
H523 C546 0.950 . S
H524 C547 0.950 . S
H525 C549 0.950 . S
H526 C550 0.950 . S
H527 C551 0.951 . S
H528 C553 0.951 . S
H529 C555 0.950 . S
H530 C556 0.950 . S
H531 C558 0.950 . S
H532 C561 0.950 . S
H533 C562 0.950 . S
H534 C564 0.950 . S
H535 C565 0.950 . S
C536 H518 0.951 . S
C536 C537 1.366 . S
C536 C538 1.388 . S
C537 C536 1.366 . S
C537 C541 1.385 . S
C538 H519 0.951 . S
C538 C536 1.388 . S
C538 C539 1.366 . S
C539 C538 1.366 . S
C539 C540 1.414 . S
C539 C542 1.499 . S
C540 H520 0.950 . S
C540 C539 1.414 . S
C540 C541 1.374 . S
C541 H521 0.950 . S
C541 C537 1.385 . S
C541 C540 1.374 . S
C542 C539 1.499 . S
C542 C543 1.373 . S
C542 C544 1.389 . S
C543 H522 0.950 . S
C543 C542 1.373 . S
C543 C559 1.377 . S
C544 C542 1.389 . S
C544 C545 1.524 . S
C544 C558 1.377 . S
C545 C544 1.524 . S
C545 C546 1.397 . S
C545 C550 1.363 . S
C546 H523 0.950 . S
C546 C545 1.397 . S
C546 C547 1.334 . S
C547 H524 0.950 . S
C547 C546 1.334 . S
C547 C548 1.287 . S
C548 C547 1.287 . S
C548 C549 1.524 . S
C548 H567 0.913 . S
C549 H525 0.950 . S
C549 C548 1.524 . S
C549 C550 1.415 . S
C550 H526 0.950 . S
C550 C545 1.363 . S
C550 C549 1.415 . S
C551 H527 0.951 . S
C551 C552 1.366 . S
C551 C553 1.388 . S
C552 C551 1.366 . S
C552 C556 1.385 . S
C553 H528 0.951 . S
C553 C551 1.388 . S
C553 C554 1.366 . S
C554 C553 1.366 . S
C554 C555 1.414 . S
C554 C557 1.499 . S
C555 H529 0.950 . S
C555 C554 1.414 . S
C555 C556 1.374 . S
C556 H530 0.950 . S
C556 C552 1.385 . S
C556 C555 1.374 . S
C557 C554 1.499 . S
C557 C558 1.373 . S
C557 C559 1.389 . S
C558 H531 0.950 . S
C558 C544 1.377 . S
C558 C557 1.373 . S
C559 C543 1.377 . S
C559 C557 1.389 . S
C559 C560 1.524 . S
C560 C559 1.524 . S
C560 C561 1.397 . S
C560 C565 1.363 . S
C561 H532 0.950 . S
C561 C560 1.397 . S
C561 C562 1.334 . S
C562 H533 0.950 . S
C562 C561 1.334 . S
C562 C563 1.287 . S
C563 C562 1.287 . S
C563 C564 1.524 . S
C563 H566 0.999 . S
C564 H534 0.950 . S
C564 C563 1.524 . S
C564 C565 1.415 . S
C565 H535 0.950 . S
C565 C560 1.363 . S
C565 C564 1.415 . S
H566 C563 0.999 . S
H567 C548 0.913 . S
H568 C586 0.951 . S
H569 C588 0.951 . S
H570 C590 0.950 . S
H571 C591 0.950 . S
H572 C593 0.950 . S
H573 C596 0.950 . S
H574 C597 0.950 . S
H575 C599 0.914 1_554 S
H576 C600 0.950 . S
H577 C601 0.951 . S
H578 C603 0.951 . S
H579 C605 0.950 . S
H580 C606 0.950 . S
H581 C608 0.950 . S
H582 C611 0.950 . S
H583 C612 0.950 . S
H584 C614 0.915 1_556 S
H585 C615 0.950 . S
C586 H568 0.951 . S
C586 C587 1.366 . S
C586 C588 1.388 . S
C587 C586 1.366 . S
C587 C591 1.385 . S
C588 H569 0.951 . S
C588 C586 1.388 . S
C588 C589 1.366 . S
C589 C588 1.366 . S
C589 C590 1.414 . S
C589 C592 1.499 . S
C590 H570 0.950 . S
C590 C589 1.414 . S
C590 C591 1.374 . S
C591 H571 0.950 . S
C591 C587 1.385 . S
C591 C590 1.374 . S
C592 C589 1.499 . S
C592 C593 1.373 . S
C592 C594 1.389 . S
C593 H572 0.950 . S
C593 C592 1.373 . S
C593 C609 1.377 1_456 S
C594 C592 1.389 . S
C594 C595 1.524 . S
C594 C608 1.377 1_456 S
C595 C594 1.524 . S
C595 C596 1.397 . S
C595 C600 1.363 1_556 S
C596 H573 0.950 . S
C596 C595 1.397 . S
C596 C597 1.334 . S
C597 H574 0.950 . S
C597 C596 1.334 . S
C597 C598 1.287 . S
C598 C597 1.287 . S
C598 C599 1.579 . S
C598 H617 0.913 . S
C599 H575 0.914 1_556 S
C599 C598 1.579 . S
C599 C600 1.403 1_556 S
C600 H576 0.950 . S
C600 C595 1.363 1_554 S
C600 C599 1.403 1_554 S
C601 H577 0.951 . S
C601 C602 1.366 . S
C601 C603 1.388 . S
C602 C601 1.366 . S
C602 C606 1.385 . S
C603 H578 0.951 . S
C603 C601 1.388 . S
C603 C604 1.366 . S
C604 C603 1.366 . S
C604 C605 1.414 . S
C604 C607 1.499 . S
C605 H579 0.950 . S
C605 C604 1.414 . S
C605 C606 1.374 . S
C606 H580 0.950 . S
C606 C602 1.385 . S
C606 C605 1.374 . S
C607 C604 1.499 . S
C607 C608 1.373 . S
C607 C609 1.389 . S
C608 H581 0.950 . S
C608 C594 1.377 1_654 S
C608 C607 1.373 . S
C609 C593 1.377 1_654 S
C609 C607 1.389 . S
C609 C610 1.524 . S
C610 C609 1.524 . S
C610 C611 1.397 . S
C610 C615 1.363 1_554 S
C611 H582 0.950 . S
C611 C610 1.397 . S
C611 C612 1.334 . S
C612 H583 0.950 . S
C612 C611 1.334 . S
C612 C613 1.287 . S
C613 C612 1.287 . S
C613 C614 1.577 . S
C613 H616 0.999 . S
C614 H584 0.915 1_554 S
C614 C613 1.577 . S
C614 C615 1.403 1_554 S
C615 H585 0.950 . S
C615 C610 1.363 1_556 S
C615 C614 1.403 1_556 S
H616 C613 0.999 . S
H617 C598 0.913 . S
H618 C636 0.951 . S
H619 C638 0.951 . S
H620 C640 0.950 . S
H621 C641 0.950 . S
H622 C643 0.950 . S
H623 C646 0.950 . S
H624 C647 0.950 . S
H625 C649 0.950 . S
H626 C650 0.950 . S
H627 C651 0.951 . S
H628 C653 0.951 . S
H629 C655 0.950 . S
H630 C656 0.950 . S
H631 C658 0.950 . S
H632 C661 0.950 . S
H633 C662 0.950 . S
H634 C664 0.950 . S
H635 C665 0.950 . S
C636 H618 0.951 . S
C636 C637 1.366 . S
C636 C638 1.388 . S
C637 C636 1.366 . S
C637 C641 1.385 . S
C638 H619 0.951 . S
C638 C636 1.388 . S
C638 C639 1.366 . S
C639 C638 1.366 . S
C639 C640 1.414 . S
C639 C642 1.499 . S
C640 H620 0.950 . S
C640 C639 1.414 . S
C640 C641 1.374 . S
C641 H621 0.950 . S
C641 C637 1.385 . S
C641 C640 1.374 . S
C642 C639 1.499 . S
C642 C643 1.373 1_545 S
C642 C644 1.389 . S
C643 H622 0.950 . S
C643 C642 1.373 1_565 S
C643 C659 1.377 . S
C644 C642 1.389 . S
C644 C645 1.524 . S
C644 C658 1.377 . S
C645 C644 1.524 . S
C645 C646 1.397 . S
C645 C650 1.363 . S
C646 H623 0.950 . S
C646 C645 1.397 . S
C646 C647 1.334 . S
C647 H624 0.950 . S
C647 C646 1.334 . S
C647 C648 1.287 . S
C648 C647 1.287 . S
C648 C649 1.524 . S
C648 H667 0.913 . S
C649 H625 0.950 . S
C649 C648 1.524 . S
C649 C650 1.415 . S
C650 H626 0.950 . S
C650 C645 1.363 . S
C650 C649 1.415 . S
C651 H627 0.951 . S
C651 C652 1.366 . S
C651 C653 1.388 . S
C652 C651 1.366 . S
C652 C656 1.385 . S
C653 H628 0.951 . S
C653 C651 1.388 . S
C653 C654 1.366 . S
C654 C653 1.366 . S
C654 C655 1.414 . S
C654 C657 1.499 . S
C655 H629 0.950 . S
C655 C654 1.414 . S
C655 C656 1.374 . S
C656 H630 0.950 . S
C656 C652 1.385 . S
C656 C655 1.374 . S
C657 C654 1.499 . S
C657 C658 1.373 1_565 S
C657 C659 1.389 . S
C658 H631 0.950 . S
C658 C644 1.377 . S
C658 C657 1.373 1_545 S
C659 C643 1.377 . S
C659 C657 1.389 . S
C659 C660 1.524 . S
C660 C659 1.524 . S
C660 C661 1.397 . S
C660 C665 1.363 . S
C661 H632 0.950 . S
C661 C660 1.397 . S
C661 C662 1.334 . S
C662 H633 0.950 . S
C662 C661 1.334 . S
C662 C663 1.287 . S
C663 C662 1.287 . S
C663 C664 1.524 . S
C663 H666 0.999 . S
C664 H634 0.950 . S
C664 C663 1.524 . S
C664 C665 1.415 . S
C665 H635 0.950 . S
C665 C660 1.363 . S
C665 C664 1.415 . S
H666 C663 0.999 . S
H667 C648 0.913 . S
H668 C686 0.951 . S
H669 C688 0.951 . S
H670 C690 0.950 . S
H671 C691 0.950 . S
H672 C693 0.950 . S
H673 C696 0.950 . S
H674 C697 0.950 . S
H675 C699 0.950 . S
H676 C700 0.950 . S
H677 C701 0.951 . S
H678 C703 0.951 . S
H679 C705 0.950 . S
H680 C706 0.950 . S
H681 C708 0.950 . S
H682 C711 0.950 . S
H683 C712 0.950 . S
H684 C714 0.950 . S
H685 C715 0.950 . S
C686 H668 0.951 . S
C686 C687 1.366 . S
C686 C688 1.388 . S
C687 C686 1.366 . S
C687 C691 1.385 . S
C688 H669 0.951 . S
C688 C686 1.388 . S
C688 C689 1.366 . S
C689 C688 1.366 . S
C689 C690 1.414 . S
C689 C692 1.499 . S
C690 H670 0.950 . S
C690 C689 1.414 . S
C690 C691 1.374 . S
C691 H671 0.950 . S
C691 C687 1.385 . S
C691 C690 1.374 . S
C692 C689 1.499 . S
C692 C693 1.373 . S
C692 C694 1.389 . S
C693 H672 0.950 . S
C693 C692 1.373 . S
C693 C709 1.377 1_556 S
C694 C692 1.389 . S
C694 C695 1.524 . S
C694 C708 1.377 1_556 S
C695 C694 1.524 . S
C695 C696 1.397 . S
C695 C700 1.363 . S
C696 H673 0.950 . S
C696 C695 1.397 . S
C696 C697 1.334 . S
C697 H674 0.950 . S
C697 C696 1.334 . S
C697 C698 1.287 . S
C698 C697 1.287 . S
C698 C699 1.524 . S
C698 H717 0.913 . S
C699 H675 0.950 . S
C699 C698 1.524 . S
C699 C700 1.415 . S
C700 H676 0.950 . S
C700 C695 1.363 . S
C700 C699 1.415 . S
C701 H677 0.951 . S
C701 C702 1.366 . S
C701 C703 1.388 . S
C702 C701 1.366 . S
C702 C706 1.385 . S
C703 H678 0.951 . S
C703 C701 1.388 . S
C703 C704 1.366 . S
C704 C703 1.366 . S
C704 C705 1.414 . S
C704 C707 1.499 . S
C705 H679 0.950 . S
C705 C704 1.414 . S
C705 C706 1.374 . S
C706 H680 0.950 . S
C706 C702 1.385 . S
C706 C705 1.374 . S
C707 C704 1.499 . S
C707 C708 1.373 . S
C707 C709 1.389 . S
C708 H681 0.950 . S
C708 C694 1.377 1_554 S
C708 C707 1.373 . S
C709 C693 1.377 1_554 S
C709 C707 1.389 . S
C709 C710 1.524 . S
C710 C709 1.524 . S
C710 C711 1.397 . S
C710 C715 1.363 . S
C711 H682 0.950 . S
C711 C710 1.397 . S
C711 C712 1.334 . S
C712 H683 0.950 . S
C712 C711 1.334 . S
C712 C713 1.287 . S
C713 C712 1.287 . S
C713 C714 1.524 . S
C713 H716 0.999 . S
C714 H684 0.950 . S
C714 C713 1.524 . S
C714 C715 1.415 . S
C715 H685 0.950 . S
C715 C710 1.363 . S
C715 C714 1.415 . S
H716 C713 0.999 . S
H717 C698 0.913 . S
H718 C736 0.951 . S
H719 C738 0.951 . S
H720 C740 0.950 . S
H721 C741 0.950 . S
H722 C743 0.950 . S
H723 C746 0.950 . S
H724 C747 0.950 . S
H725 C749 0.950 . S
H726 C750 0.950 . S
H727 C751 0.951 . S
H728 C753 0.951 . S
H729 C755 0.950 . S
H730 C756 0.950 . S
H731 C758 0.950 . S
H732 C761 0.950 . S
H733 C762 0.950 . S
H734 C764 0.950 . S
H735 C765 0.950 . S
C736 H718 0.951 . S
C736 C737 1.366 . S
C736 C738 1.388 . S
C737 C736 1.366 . S
C737 C741 1.385 . S
C738 H719 0.951 . S
C738 C736 1.388 . S
C738 C739 1.366 . S
C739 C738 1.366 . S
C739 C740 1.414 . S
C739 C742 1.499 . S
C740 H720 0.950 . S
C740 C739 1.414 . S
C740 C741 1.374 . S
C741 H721 0.950 . S
C741 C737 1.385 . S
C741 C740 1.374 . S
C742 C739 1.499 . S
C742 C743 1.373 1_655 S
C742 C744 1.389 . S
C743 H722 0.950 . S
C743 C742 1.373 1_455 S
C743 C759 1.377 . S
C744 C742 1.389 . S
C744 C745 1.524 . S
C744 C758 1.377 . S
C745 C744 1.524 . S
C745 C746 1.397 . S
C745 C750 1.363 . S
C746 H723 0.950 . S
C746 C745 1.397 . S
C746 C747 1.334 . S
C747 H724 0.950 . S
C747 C746 1.334 . S
C747 C748 1.287 . S
C748 C747 1.287 . S
C748 C749 1.524 . S
C748 H767 0.913 . S
C749 H725 0.950 . S
C749 C748 1.524 . S
C749 C750 1.415 . S
C750 H726 0.950 . S
C750 C745 1.363 . S
C750 C749 1.415 . S
C751 H727 0.951 . S
C751 C752 1.366 . S
C751 C753 1.388 . S
C752 C751 1.366 . S
C752 C756 1.385 . S
C753 H728 0.951 . S
C753 C751 1.388 . S
C753 C754 1.366 . S
C754 C753 1.366 . S
C754 C755 1.414 . S
C754 C757 1.499 . S
C755 H729 0.950 . S
C755 C754 1.414 . S
C755 C756 1.374 . S
C756 H730 0.950 . S
C756 C752 1.385 . S
C756 C755 1.374 . S
C757 C754 1.499 . S
C757 C758 1.373 1_455 S
C757 C759 1.389 . S
C758 H731 0.950 . S
C758 C744 1.377 . S
C758 C757 1.373 1_655 S
C759 C743 1.377 . S
C759 C757 1.389 . S
C759 C760 1.524 . S
C760 C759 1.524 . S
C760 C761 1.397 . S
C760 C765 1.363 . S
C761 H732 0.950 . S
C761 C760 1.397 . S
C761 C762 1.334 . S
C762 H733 0.950 . S
C762 C761 1.334 . S
C762 C763 1.287 . S
C763 C762 1.287 . S
C763 C764 1.524 . S
C763 H766 0.999 . S
C764 H734 0.950 . S
C764 C763 1.524 . S
C764 C765 1.415 . S
C765 H735 0.950 . S
C765 C760 1.363 . S
C765 C764 1.415 . S
H766 C763 0.999 . S
H767 C748 0.913 . S
H768 C786 0.951 . S
H769 C788 0.951 . S
H770 C790 0.950 . S
H771 C791 0.950 . S
H772 C793 0.950 . S
H773 C796 0.950 . S
H774 C797 0.950 . S
H775 C799 0.950 . S
H776 C800 0.950 . S
H777 C801 0.951 . S
H778 C803 0.951 . S
H779 C805 0.950 . S
H780 C806 0.950 . S
H781 C808 0.950 . S
H782 C811 0.950 . S
H783 C812 0.950 . S
H784 C814 0.950 . S
H785 C815 0.950 . S
C786 H768 0.951 . S
C786 C787 1.366 . S
C786 C788 1.388 . S
C787 C786 1.366 . S
C787 C791 1.385 . S
C788 H769 0.951 . S
C788 C786 1.388 . S
C788 C789 1.366 . S
C789 C788 1.366 . S
C789 C790 1.414 . S
C789 C792 1.499 . S
C790 H770 0.950 . S
C790 C789 1.414 . S
C790 C791 1.374 . S
C791 H771 0.950 . S
C791 C787 1.385 . S
C791 C790 1.374 . S
C792 C789 1.499 . S
C792 C793 1.373 . S
C792 C794 1.389 . S
C793 H772 0.950 . S
C793 C792 1.373 . S
C793 C809 1.377 . S
C794 C792 1.389 . S
C794 C795 1.524 . S
C794 C808 1.377 . S
C795 C794 1.524 . S
C795 C796 1.397 . S
C795 C800 1.363 . S
C796 H773 0.950 . S
C796 C795 1.397 . S
C796 C797 1.334 . S
C797 H774 0.950 . S
C797 C796 1.334 . S
C797 C798 1.287 . S
C798 C797 1.287 . S
C798 C799 1.524 . S
C798 H817 0.913 . S
C799 H775 0.950 . S
C799 C798 1.524 . S
C799 C800 1.415 . S
C800 H776 0.950 . S
C800 C795 1.363 . S
C800 C799 1.415 . S
C801 H777 0.951 . S
C801 C802 1.366 . S
C801 C803 1.388 . S
C802 C801 1.366 . S
C802 C806 1.385 . S
C803 H778 0.951 . S
C803 C801 1.388 . S
C803 C804 1.366 . S
C804 C803 1.366 . S
C804 C805 1.414 . S
C804 C807 1.499 . S
C805 H779 0.950 . S
C805 C804 1.414 . S
C805 C806 1.374 . S
C806 H780 0.950 . S
C806 C802 1.385 . S
C806 C805 1.374 . S
C807 C804 1.499 . S
C807 C808 1.373 . S
C807 C809 1.389 . S
C808 H781 0.950 . S
C808 C794 1.377 . S
C808 C807 1.373 . S
C809 C793 1.377 . S
C809 C807 1.389 . S
C809 C810 1.524 . S
C810 C809 1.524 . S
C810 C811 1.397 . S
C810 C815 1.363 . S
C811 H782 0.950 . S
C811 C810 1.397 . S
C811 C812 1.334 . S
C812 H783 0.950 . S
C812 C811 1.334 . S
C812 C813 1.287 . S
C813 C812 1.287 . S
C813 C814 1.524 . S
C813 H816 0.999 . S
C814 H784 0.950 . S
C814 C813 1.524 . S
C814 C815 1.415 . S
C815 H785 0.950 . S
C815 C810 1.363 . S
C815 C814 1.415 . S
H816 C813 0.999 . S
H817 C798 0.913 . S
H818 C836 0.951 . S
H819 C838 0.951 . S
H820 C840 0.950 . S
H821 C841 0.950 . S
H822 C843 0.950 . S
H823 C846 0.950 . S
H824 C847 0.950 . S
H825 C849 0.950 . S
H826 C850 0.950 . S
H827 C851 0.951 . S
H828 C853 0.951 . S
H829 C855 0.950 . S
H830 C856 0.950 . S
H831 C858 0.950 . S
H832 C861 0.950 . S
H833 C862 0.950 . S
H834 C864 0.950 . S
H835 C865 0.950 . S
C836 H818 0.951 . S
C836 C837 1.366 . S
C836 C838 1.388 . S
C837 C836 1.366 . S
C837 C841 1.385 . S
C838 H819 0.951 . S
C838 C836 1.388 . S
C838 C839 1.366 . S
C839 C838 1.366 . S
C839 C840 1.414 . S
C839 C842 1.499 . S
C840 H820 0.950 . S
C840 C839 1.414 . S
C840 C841 1.374 . S
C841 H821 0.950 . S
C841 C837 1.385 . S
C841 C840 1.374 . S
C842 C839 1.499 . S
C842 C843 1.373 . S
C842 C844 1.389 . S
C843 H822 0.950 . S
C843 C842 1.373 . S
C843 C859 1.377 . S
C844 C842 1.389 . S
C844 C845 1.524 . S
C844 C858 1.377 . S
C845 C844 1.524 . S
C845 C846 1.397 . S
C845 C850 1.363 . S
C846 H823 0.950 . S
C846 C845 1.397 . S
C846 C847 1.334 . S
C847 H824 0.950 . S
C847 C846 1.334 . S
C847 C848 1.287 . S
C848 C847 1.287 . S
C848 C849 1.524 . S
C848 H867 0.913 . S
C849 H825 0.950 . S
C849 C848 1.524 . S
C849 C850 1.415 . S
C850 H826 0.950 . S
C850 C845 1.363 . S
C850 C849 1.415 . S
C851 H827 0.951 . S
C851 C852 1.366 . S
C851 C853 1.388 . S
C852 C851 1.366 . S
C852 C856 1.385 . S
C853 H828 0.951 . S
C853 C851 1.388 . S
C853 C854 1.366 . S
C854 C853 1.366 . S
C854 C855 1.414 . S
C854 C857 1.499 . S
C855 H829 0.950 . S
C855 C854 1.414 . S
C855 C856 1.374 . S
C856 H830 0.950 . S
C856 C852 1.385 . S
C856 C855 1.374 . S
C857 C854 1.499 . S
C857 C858 1.373 . S
C857 C859 1.389 . S
C858 H831 0.950 . S
C858 C844 1.377 . S
C858 C857 1.373 . S
C859 C843 1.377 . S
C859 C857 1.389 . S
C859 C860 1.524 . S
C860 C859 1.524 . S
C860 C861 1.397 . S
C860 C865 1.363 . S
C861 H832 0.950 . S
C861 C860 1.397 . S
C861 C862 1.334 . S
C862 H833 0.950 . S
C862 C861 1.334 . S
C862 C863 1.287 . S
C863 C862 1.287 . S
C863 C864 1.524 . S
C863 H866 0.999 . S
C864 H834 0.950 . S
C864 C863 1.524 . S
C864 C865 1.415 . S
C865 H835 0.950 . S
C865 C860 1.363 . S
C865 C864 1.415 . S
H866 C863 0.999 . S
H867 C848 0.913 . S
H868 C886 0.951 . S
H869 C888 0.951 . S
H870 C890 0.950 . S
H871 C891 0.950 . S
H872 C893 0.950 . S
H873 C896 0.950 . S
H874 C897 0.950 . S
H875 C899 0.950 . S
H876 C900 0.950 . S
H877 C901 0.951 . S
H878 C903 0.951 . S
H879 C905 0.950 . S
H880 C906 0.950 . S
H881 C908 0.950 . S
H882 C911 0.950 . S
H883 C912 0.950 . S
H884 C914 0.950 . S
H885 C915 0.950 . S
C886 H868 0.951 . S
C886 C887 1.366 . S
C886 C888 1.388 . S
C887 C886 1.366 . S
C887 C891 1.385 . S
C888 H869 0.951 . S
C888 C886 1.388 . S
C888 C889 1.366 . S
C889 C888 1.366 . S
C889 C890 1.414 . S
C889 C892 1.499 . S
C890 H870 0.950 . S
C890 C889 1.414 . S
C890 C891 1.374 . S
C891 H871 0.950 . S
C891 C887 1.385 . S
C891 C890 1.374 . S
C892 C889 1.499 . S
C892 C893 1.373 . S
C892 C894 1.389 . S
C893 H872 0.950 . S
C893 C892 1.373 . S
C893 C909 1.377 . S
C894 C892 1.389 . S
C894 C895 1.524 . S
C894 C908 1.377 . S
C895 C894 1.524 . S
C895 C896 1.397 . S
C895 C900 1.363 . S
C896 H873 0.950 . S
C896 C895 1.397 . S
C896 C897 1.334 . S
C897 H874 0.950 . S
C897 C896 1.334 . S
C897 C898 1.287 . S
C898 C897 1.287 . S
C898 C899 1.524 . S
C898 H917 0.913 . S
C899 H875 0.950 . S
C899 C898 1.524 . S
C899 C900 1.415 . S
C900 H876 0.950 . S
C900 C895 1.363 . S
C900 C899 1.415 . S
C901 H877 0.951 . S
C901 C902 1.366 . S
C901 C903 1.388 . S
C902 C901 1.366 . S
C902 C906 1.385 . S
C903 H878 0.951 . S
C903 C901 1.388 . S
C903 C904 1.366 . S
C904 C903 1.366 . S
C904 C905 1.414 . S
C904 C907 1.499 . S
C905 H879 0.950 . S
C905 C904 1.414 . S
C905 C906 1.374 . S
C906 H880 0.950 . S
C906 C902 1.385 . S
C906 C905 1.374 . S
C907 C904 1.499 . S
C907 C908 1.373 . S
C907 C909 1.389 . S
C908 H881 0.950 . S
C908 C894 1.377 . S
C908 C907 1.373 . S
C909 C893 1.377 . S
C909 C907 1.389 . S
C909 C910 1.524 . S
C910 C909 1.524 . S
C910 C911 1.397 . S
C910 C915 1.363 . S
C911 H882 0.950 . S
C911 C910 1.397 . S
C911 C912 1.334 . S
C912 H883 0.950 . S
C912 C911 1.334 . S
C912 C913 1.287 . S
C913 C912 1.287 . S
C913 C914 1.524 . S
C913 H916 0.999 . S
C914 H884 0.950 . S
C914 C913 1.524 . S
C914 C915 1.415 . S
C915 H885 0.950 . S
C915 C910 1.363 . S
C915 C914 1.415 . S
H916 C913 0.999 . S
H917 C898 0.913 . S
H918 C936 0.951 . S
H919 C938 0.951 . S
H920 C940 0.950 . S
H921 C941 0.950 . S
H922 C943 0.950 . S
H923 C946 0.950 . S
H924 C947 0.950 . S
H925 C949 0.950 . S
H926 C950 0.950 . S
H927 C951 0.951 . S
H928 C953 0.951 . S
H929 C955 0.950 . S
H930 C956 0.950 . S
H931 C958 0.950 . S
H932 C961 0.950 . S
H933 C962 0.950 . S
H934 C964 0.950 . S
H935 C965 0.950 . S
C936 H918 0.951 . S
C936 C937 1.366 . S
C936 C938 1.388 . S
C937 C936 1.366 . S
C937 C941 1.385 . S
C938 H919 0.951 . S
C938 C936 1.388 . S
C938 C939 1.366 . S
C939 C938 1.366 . S
C939 C940 1.414 . S
C939 C942 1.499 . S
C940 H920 0.950 . S
C940 C939 1.414 . S
C940 C941 1.374 . S
C941 H921 0.950 . S
C941 C937 1.385 . S
C941 C940 1.374 . S
C942 C939 1.499 . S
C942 C943 1.373 . S
C942 C944 1.389 . S
C943 H922 0.950 . S
C943 C942 1.373 . S
C943 C959 1.377 . S
C944 C942 1.389 . S
C944 C945 1.524 . S
C944 C958 1.377 . S
C945 C944 1.524 . S
C945 C946 1.397 . S
C945 C950 1.363 . S
C946 H923 0.950 . S
C946 C945 1.397 . S
C946 C947 1.334 . S
C947 H924 0.950 . S
C947 C946 1.334 . S
C947 C948 1.287 . S
C948 C947 1.287 . S
C948 C949 1.524 . S
C948 H967 0.913 . S
C949 H925 0.950 . S
C949 C948 1.524 . S
C949 C950 1.415 . S
C950 H926 0.950 . S
C950 C945 1.363 . S
C950 C949 1.415 . S
C951 H927 0.951 . S
C951 C952 1.366 . S
C951 C953 1.388 . S
C952 C951 1.366 . S
C952 C956 1.385 . S
C953 H928 0.951 . S
C953 C951 1.388 . S
C953 C954 1.366 . S
C954 C953 1.366 . S
C954 C955 1.414 . S
C954 C957 1.499 . S
C955 H929 0.950 . S
C955 C954 1.414 . S
C955 C956 1.374 . S
C956 H930 0.950 . S
C956 C952 1.385 . S
C956 C955 1.374 . S
C957 C954 1.499 . S
C957 C958 1.373 . S
C957 C959 1.389 . S
C958 H931 0.950 . S
C958 C944 1.377 . S
C958 C957 1.373 . S
C959 C943 1.377 . S
C959 C957 1.389 . S
C959 C960 1.524 . S
C960 C959 1.524 . S
C960 C961 1.397 . S
C960 C965 1.363 . S
C961 H932 0.950 . S
C961 C960 1.397 . S
C961 C962 1.334 . S
C962 H933 0.950 . S
C962 C961 1.334 . S
C962 C963 1.287 . S
C963 C962 1.287 . S
C963 C964 1.524 . S
C963 H966 0.999 . S
C964 H934 0.950 . S
C964 C963 1.524 . S
C964 C965 1.415 . S
C965 H935 0.950 . S
C965 C960 1.363 . S
C965 C964 1.415 . S
H966 C963 0.999 . S
H967 C948 0.913 . S
H968 C986 0.951 . S
H969 C988 0.951 . S
H970 C990 0.950 . S
H971 C991 0.950 . S
H972 C993 0.950 . S
H973 C996 0.950 . S
H974 C997 0.950 . S
H975 C999 0.950 . S
H976 C1000 0.950 . S
H977 C1001 0.951 . S
H978 C1003 0.951 . S
H979 C1005 0.950 . S
H980 C1006 0.950 . S
H981 C1008 0.950 . S
H982 C1011 0.950 . S
H983 C1012 0.950 . S
H984 C1014 0.950 . S
H985 C1015 0.950 . S
C986 H968 0.951 . S
C986 C987 1.366 . S
C986 C988 1.388 . S
C987 C986 1.366 . S
C987 C991 1.385 . S
C988 H969 0.951 . S
C988 C986 1.388 . S
C988 C989 1.366 . S
C989 C988 1.366 . S
C989 C990 1.414 . S
C989 C992 1.499 . S
C990 H970 0.950 . S
C990 C989 1.414 . S
C990 C991 1.374 . S
C991 H971 0.950 . S
C991 C987 1.385 . S
C991 C990 1.374 . S
C992 C989 1.499 . S
C992 C993 1.373 . S
C992 C994 1.389 . S
C993 H972 0.950 . S
C993 C992 1.373 . S
C993 C1009 1.377 . S
C994 C992 1.389 . S
C994 C995 1.524 . S
C994 C1008 1.377 . S
C995 C994 1.524 . S
C995 C996 1.397 . S
C995 C1000 1.363 . S
C996 H973 0.950 . S
C996 C995 1.397 . S
C996 C997 1.334 . S
C997 H974 0.950 . S
C997 C996 1.334 . S
C997 C998 1.287 . S
C998 C997 1.287 . S
C998 C999 1.524 . S
C998 H1017 0.913 . S
C999 H975 0.950 . S
C999 C998 1.524 . S
C999 C1000 1.415 . S
C1000 H976 0.950 . S
C1000 C995 1.363 . S
C1000 C999 1.415 . S
C1001 H977 0.951 . S
C1001 C1002 1.366 . S
C1001 C1003 1.388 . S
C1002 C1001 1.366 . S
C1002 C1006 1.385 . S
C1003 H978 0.951 . S
C1003 C1001 1.388 . S
C1003 C1004 1.366 . S
C1004 C1003 1.366 . S
C1004 C1005 1.414 . S
C1004 C1007 1.499 . S
C1005 H979 0.950 . S
C1005 C1004 1.414 . S
C1005 C1006 1.374 . S
C1006 H980 0.950 . S
C1006 C1002 1.385 . S
C1006 C1005 1.374 . S
C1007 C1004 1.499 . S
C1007 C1008 1.373 . S
C1007 C1009 1.389 . S
C1008 H981 0.950 . S
C1008 C994 1.377 . S
C1008 C1007 1.373 . S
C1009 C993 1.377 . S
C1009 C1007 1.389 . S
C1009 C1010 1.524 . S
C1010 C1009 1.524 . S
C1010 C1011 1.397 . S
C1010 C1015 1.363 . S
C1011 H982 0.950 . S
C1011 C1010 1.397 . S
C1011 C1012 1.334 . S
C1012 H983 0.950 . S
C1012 C1011 1.334 . S
C1012 C1013 1.287 . S
C1013 C1012 1.287 . S
C1013 C1014 1.524 . S
C1013 H1016 0.999 . S
C1014 H984 0.950 . S
C1014 C1013 1.524 . S
C1014 C1015 1.415 . S
C1015 H985 0.950 . S
C1015 C1010 1.363 . S
C1015 C1014 1.415 . S
H1016 C1013 0.999 . S
H1017 C998 0.913 . S
H1018 C1036 0.951 . S
H1019 C1038 0.951 . S
H1020 C1040 0.950 . S
H1021 C1041 0.950 . S
H1022 C1043 0.950 . S
H1023 C1046 0.950 . S
H1024 C1047 0.950 . S
H1025 C1049 0.950 . S
H1026 C1050 0.950 . S
H1027 C1051 0.951 . S
H1028 C1053 0.951 . S
H1029 C1055 0.950 . S
H1030 C1056 0.950 . S
H1031 C1058 0.950 . S
H1032 C1061 0.950 . S
H1033 C1062 0.950 . S
H1034 C1064 0.950 . S
H1035 C1065 0.950 . S
C1036 H1018 0.951 . S
C1036 C1037 1.366 . S
C1036 C1038 1.388 . S
C1037 C1036 1.366 . S
C1037 C1041 1.385 . S
C1038 H1019 0.951 . S
C1038 C1036 1.388 . S
C1038 C1039 1.366 . S
C1039 C1038 1.366 . S
C1039 C1040 1.414 . S
C1039 C1042 1.499 . S
C1040 H1020 0.950 . S
C1040 C1039 1.414 . S
C1040 C1041 1.374 . S
C1041 H1021 0.950 . S
C1041 C1037 1.385 . S
C1041 C1040 1.374 . S
C1042 C1039 1.499 . S
C1042 C1043 1.373 . S
C1042 C1044 1.389 . S
C1043 H1022 0.950 . S
C1043 C1042 1.373 . S
C1043 C1059 1.377 . S
C1044 C1042 1.389 . S
C1044 C1045 1.524 . S
C1044 C1058 1.377 . S
C1045 C1044 1.524 . S
C1045 C1046 1.397 . S
C1045 C1050 1.363 . S
C1046 H1023 0.950 . S
C1046 C1045 1.397 . S
C1046 C1047 1.334 . S
C1047 H1024 0.950 . S
C1047 C1046 1.334 . S
C1047 C1048 1.287 . S
C1048 C1047 1.287 . S
C1048 C1049 1.524 . S
C1048 H1067 0.913 . S
C1049 H1025 0.950 . S
C1049 C1048 1.524 . S
C1049 C1050 1.415 . S
C1050 H1026 0.950 . S
C1050 C1045 1.363 . S
C1050 C1049 1.415 . S
C1051 H1027 0.951 . S
C1051 C1052 1.366 . S
C1051 C1053 1.388 . S
C1052 C1051 1.366 . S
C1052 C1056 1.385 . S
C1053 H1028 0.951 . S
C1053 C1051 1.388 . S
C1053 C1054 1.366 . S
C1054 C1053 1.366 . S
C1054 C1055 1.414 . S
C1054 C1057 1.499 . S
C1055 H1029 0.950 . S
C1055 C1054 1.414 . S
C1055 C1056 1.374 . S
C1056 H1030 0.950 . S
C1056 C1052 1.385 . S
C1056 C1055 1.374 . S
C1057 C1054 1.499 . S
C1057 C1058 1.373 . S
C1057 C1059 1.389 . S
C1058 H1031 0.950 . S
C1058 C1044 1.377 . S
C1058 C1057 1.373 . S
C1059 C1043 1.377 . S
C1059 C1057 1.389 . S
C1059 C1060 1.524 . S
C1060 C1059 1.524 . S
C1060 C1061 1.397 . S
C1060 C1065 1.363 . S
C1061 H1032 0.950 . S
C1061 C1060 1.397 . S
C1061 C1062 1.334 . S
C1062 H1033 0.950 . S
C1062 C1061 1.334 . S
C1062 C1063 1.287 . S
C1063 C1062 1.287 . S
C1063 C1064 1.524 . S
C1063 H1066 0.999 . S
C1064 H1034 0.950 . S
C1064 C1063 1.524 . S
C1064 C1065 1.415 . S
C1065 H1035 0.950 . S
C1065 C1060 1.363 . S
C1065 C1064 1.415 . S
H1066 C1063 0.999 . S
H1067 C1048 0.913 . S
H1068 C1086 0.951 . S
H1069 C1088 0.951 . S
H1070 C1090 0.950 . S
H1071 C1091 0.950 . S
H1072 C1093 0.950 . S
H1073 C1096 0.950 . S
H1074 C1097 0.950 . S
H1075 C1099 0.950 . S
H1076 C1100 0.950 . S
H1077 C1101 0.951 . S
H1078 C1103 0.951 . S
H1079 C1105 0.950 . S
H1080 C1106 0.950 . S
H1081 C1108 0.950 . S
H1082 C1111 0.950 . S
H1083 C1112 0.950 . S
H1084 C1114 0.950 . S
H1085 C1115 0.950 . S
C1086 H1068 0.951 . S
C1086 C1087 1.366 . S
C1086 C1088 1.388 . S
C1087 C1086 1.366 . S
C1087 C1091 1.385 . S
C1088 H1069 0.951 . S
C1088 C1086 1.388 . S
C1088 C1089 1.366 . S
C1089 C1088 1.366 . S
C1089 C1090 1.414 . S
C1089 C1092 1.499 . S
C1090 H1070 0.950 . S
C1090 C1089 1.414 . S
C1090 C1091 1.374 . S
C1091 H1071 0.950 . S
C1091 C1087 1.385 . S
C1091 C1090 1.374 . S
C1092 C1089 1.499 . S
C1092 C1093 1.373 . S
C1092 C1094 1.389 . S
C1093 H1072 0.950 . S
C1093 C1092 1.373 . S
C1093 C1109 1.377 . S
C1094 C1092 1.389 . S
C1094 C1095 1.524 . S
C1094 C1108 1.377 . S
C1095 C1094 1.524 . S
C1095 C1096 1.397 . S
C1095 C1100 1.363 . S
C1096 H1073 0.950 . S
C1096 C1095 1.397 . S
C1096 C1097 1.334 . S
C1097 H1074 0.950 . S
C1097 C1096 1.334 . S
C1097 C1098 1.287 . S
C1098 C1097 1.287 . S
C1098 C1099 1.524 . S
C1098 H1117 0.913 . S
C1099 H1075 0.950 . S
C1099 C1098 1.524 . S
C1099 C1100 1.415 . S
C1100 H1076 0.950 . S
C1100 C1095 1.363 . S
C1100 C1099 1.415 . S
C1101 H1077 0.951 . S
C1101 C1102 1.366 . S
C1101 C1103 1.388 . S
C1102 C1101 1.366 . S
C1102 C1106 1.385 . S
C1103 H1078 0.951 . S
C1103 C1101 1.388 . S
C1103 C1104 1.366 . S
C1104 C1103 1.366 . S
C1104 C1105 1.414 . S
C1104 C1107 1.499 . S
C1105 H1079 0.950 . S
C1105 C1104 1.414 . S
C1105 C1106 1.374 . S
C1106 H1080 0.950 . S
C1106 C1102 1.385 . S
C1106 C1105 1.374 . S
C1107 C1104 1.499 . S
C1107 C1108 1.373 . S
C1107 C1109 1.389 . S
C1108 H1081 0.950 . S
C1108 C1094 1.377 . S
C1108 C1107 1.373 . S
C1109 C1093 1.377 . S
C1109 C1107 1.389 . S
C1109 C1110 1.524 . S
C1110 C1109 1.524 . S
C1110 C1111 1.397 . S
C1110 C1115 1.363 . S
C1111 H1082 0.950 . S
C1111 C1110 1.397 . S
C1111 C1112 1.334 . S
C1112 H1083 0.950 . S
C1112 C1111 1.334 . S
C1112 C1113 1.287 . S
C1113 C1112 1.287 . S
C1113 C1114 1.524 . S
C1113 H1116 0.999 . S
C1114 H1084 0.950 . S
C1114 C1113 1.524 . S
C1114 C1115 1.415 . S
C1115 H1085 0.950 . S
C1115 C1110 1.363 . S
C1115 C1114 1.415 . S
H1116 C1113 0.999 . S
H1117 C1098 0.913 . S
H1118 C1136 0.951 . S
H1119 C1138 0.951 . S
H1120 C1140 0.950 . S
H1121 C1141 0.950 . S
H1122 C1143 0.950 . S
H1123 C1146 0.950 . S
H1124 C1147 0.950 . S
H1125 C1149 0.950 . S
H1126 C1150 0.950 . S
H1127 C1151 0.951 . S
H1128 C1153 0.951 . S
H1129 C1155 0.950 . S
H1130 C1156 0.950 . S
H1131 C1158 0.950 . S
H1132 C1161 0.950 . S
H1133 C1162 0.950 . S
H1134 C1164 0.950 . S
H1135 C1165 0.950 . S
C1136 H1118 0.951 . S
C1136 C1137 1.366 . S
C1136 C1138 1.388 . S
C1137 C1136 1.366 . S
C1137 C1141 1.385 . S
C1138 H1119 0.951 . S
C1138 C1136 1.388 . S
C1138 C1139 1.366 . S
C1139 C1138 1.366 . S
C1139 C1140 1.414 . S
C1139 C1142 1.499 . S
C1140 H1120 0.950 . S
C1140 C1139 1.414 . S
C1140 C1141 1.374 . S
C1141 H1121 0.950 . S
C1141 C1137 1.385 . S
C1141 C1140 1.374 . S
C1142 C1139 1.499 . S
C1142 C1143 1.373 . S
C1142 C1144 1.389 . S
C1143 H1122 0.950 . S
C1143 C1142 1.373 . S
C1143 C1159 1.377 . S
C1144 C1142 1.389 . S
C1144 C1145 1.524 . S
C1144 C1158 1.377 . S
C1145 C1144 1.524 . S
C1145 C1146 1.397 . S
C1145 C1150 1.363 . S
C1146 H1123 0.950 . S
C1146 C1145 1.397 . S
C1146 C1147 1.334 . S
C1147 H1124 0.950 . S
C1147 C1146 1.334 . S
C1147 C1148 1.287 . S
C1148 C1147 1.287 . S
C1148 C1149 1.524 . S
C1148 H1167 0.913 . S
C1149 H1125 0.950 . S
C1149 C1148 1.524 . S
C1149 C1150 1.415 . S
C1150 H1126 0.950 . S
C1150 C1145 1.363 . S
C1150 C1149 1.415 . S
C1151 H1127 0.951 . S
C1151 C1152 1.366 . S
C1151 C1153 1.388 . S
C1152 C1151 1.366 . S
C1152 C1156 1.385 . S
C1153 H1128 0.951 . S
C1153 C1151 1.388 . S
C1153 C1154 1.366 . S
C1154 C1153 1.366 . S
C1154 C1155 1.414 . S
C1154 C1157 1.499 . S
C1155 H1129 0.950 . S
C1155 C1154 1.414 . S
C1155 C1156 1.374 . S
C1156 H1130 0.950 . S
C1156 C1152 1.385 . S
C1156 C1155 1.374 . S
C1157 C1154 1.499 . S
C1157 C1158 1.373 . S
C1157 C1159 1.389 . S
C1158 H1131 0.950 . S
C1158 C1144 1.377 . S
C1158 C1157 1.373 . S
C1159 C1143 1.377 . S
C1159 C1157 1.389 . S
C1159 C1160 1.524 . S
C1160 C1159 1.524 . S
C1160 C1161 1.397 . S
C1160 C1165 1.363 . S
C1161 H1132 0.950 . S
C1161 C1160 1.397 . S
C1161 C1162 1.334 . S
C1162 H1133 0.950 . S
C1162 C1161 1.334 . S
C1162 C1163 1.287 . S
C1163 C1162 1.287 . S
C1163 C1164 1.524 . S
C1163 H1166 0.999 . S
C1164 H1134 0.950 . S
C1164 C1163 1.524 . S
C1164 C1165 1.415 . S
C1165 H1135 0.950 . S
C1165 C1160 1.363 . S
C1165 C1164 1.415 . S
H1166 C1163 0.999 . S
H1167 C1148 0.913 . S
H1168 C1186 0.951 . S
H1169 C1188 0.951 . S
H1170 C1190 0.950 . S
H1171 C1191 0.950 . S
H1172 C1193 0.950 . S
H1173 C1196 0.950 . S
H1174 C1197 0.950 . S
H1175 C1199 0.950 . S
H1176 C1200 0.950 . S
H1177 C1201 0.951 . S
H1178 C1203 0.951 . S
H1179 C1205 0.950 . S
H1180 C1206 0.950 . S
H1181 C1208 0.950 . S
H1182 C1211 0.950 . S
H1183 C1212 0.950 . S
H1184 C1214 0.950 . S
H1185 C1215 0.950 . S
C1186 H1168 0.951 . S
C1186 C1187 1.366 . S
C1186 C1188 1.388 . S
C1187 C1186 1.366 . S
C1187 C1191 1.385 . S
C1188 H1169 0.951 . S
C1188 C1186 1.388 . S
C1188 C1189 1.366 . S
C1189 C1188 1.366 . S
C1189 C1190 1.414 . S
C1189 C1192 1.499 . S
C1190 H1170 0.950 . S
C1190 C1189 1.414 . S
C1190 C1191 1.374 . S
C1191 H1171 0.950 . S
C1191 C1187 1.385 . S
C1191 C1190 1.374 . S
C1192 C1189 1.499 . S
C1192 C1193 1.373 . S
C1192 C1194 1.389 . S
C1193 H1172 0.950 . S
C1193 C1192 1.373 . S
C1193 C1209 1.377 . S
C1194 C1192 1.389 . S
C1194 C1195 1.524 . S
C1194 C1208 1.377 . S
C1195 C1194 1.524 . S
C1195 C1196 1.397 . S
C1195 C1200 1.363 . S
C1196 H1173 0.950 . S
C1196 C1195 1.397 . S
C1196 C1197 1.334 . S
C1197 H1174 0.950 . S
C1197 C1196 1.334 . S
C1197 C1198 1.287 . S
C1198 C1197 1.287 . S
C1198 C1199 1.524 . S
C1198 H1217 0.913 . S
C1199 H1175 0.950 . S
C1199 C1198 1.524 . S
C1199 C1200 1.415 . S
C1200 H1176 0.950 . S
C1200 C1195 1.363 . S
C1200 C1199 1.415 . S
C1201 H1177 0.951 . S
C1201 C1202 1.366 . S
C1201 C1203 1.388 . S
C1202 C1201 1.366 . S
C1202 C1206 1.385 . S
C1203 H1178 0.951 . S
C1203 C1201 1.388 . S
C1203 C1204 1.366 . S
C1204 C1203 1.366 . S
C1204 C1205 1.414 . S
C1204 C1207 1.499 . S
C1205 H1179 0.950 . S
C1205 C1204 1.414 . S
C1205 C1206 1.374 . S
C1206 H1180 0.950 . S
C1206 C1202 1.385 . S
C1206 C1205 1.374 . S
C1207 C1204 1.499 . S
C1207 C1208 1.373 . S
C1207 C1209 1.389 . S
C1208 H1181 0.950 . S
C1208 C1194 1.377 . S
C1208 C1207 1.373 . S
C1209 C1193 1.377 . S
C1209 C1207 1.389 . S
C1209 C1210 1.524 . S
C1210 C1209 1.524 . S
C1210 C1211 1.397 . S
C1210 C1215 1.363 . S
C1211 H1182 0.950 . S
C1211 C1210 1.397 . S
C1211 C1212 1.334 . S
C1212 H1183 0.950 . S
C1212 C1211 1.334 . S
C1212 C1213 1.287 . S
C1213 C1212 1.287 . S
C1213 C1214 1.524 . S
C1213 H1216 0.999 . S
C1214 H1184 0.950 . S
C1214 C1213 1.524 . S
C1214 C1215 1.415 . S
C1215 H1185 0.950 . S
C1215 C1210 1.363 . S
C1215 C1214 1.415 . S
H1216 C1213 0.999 . S
H1217 C1198 0.913 . S
H1218 C1236 0.951 . S
H1219 C1238 0.951 . S
H1220 C1240 0.950 . S
H1221 C1241 0.950 . S
H1222 C1243 0.950 . S
H1223 C1246 0.950 . S
H1224 C1247 0.950 . S
H1225 C1249 0.950 . S
H1226 C1250 0.950 . S
H1227 C1251 0.951 . S
H1228 C1253 0.951 . S
H1229 C1255 0.950 . S
H1230 C1256 0.950 . S
H1231 C1258 0.950 . S
H1232 C1261 0.950 . S
H1233 C1262 0.950 . S
H1234 C1264 0.950 . S
H1235 C1265 0.950 . S
C1236 H1218 0.951 . S
C1236 C1237 1.366 . S
C1236 C1238 1.388 . S
C1237 C1236 1.366 . S
C1237 C1241 1.385 . S
C1238 H1219 0.951 . S
C1238 C1236 1.388 . S
C1238 C1239 1.366 . S
C1239 C1238 1.366 . S
C1239 C1240 1.414 . S
C1239 C1242 1.499 . S
C1240 H1220 0.950 . S
C1240 C1239 1.414 . S
C1240 C1241 1.374 . S
C1241 H1221 0.950 . S
C1241 C1237 1.385 . S
C1241 C1240 1.374 . S
C1242 C1239 1.499 . S
C1242 C1243 1.373 . S
C1242 C1244 1.389 . S
C1243 H1222 0.950 . S
C1243 C1242 1.373 . S
C1243 C1259 1.377 . S
C1244 C1242 1.389 . S
C1244 C1245 1.524 . S
C1244 C1258 1.377 . S
C1245 C1244 1.524 . S
C1245 C1246 1.397 . S
C1245 C1250 1.363 . S
C1246 H1223 0.950 . S
C1246 C1245 1.397 . S
C1246 C1247 1.334 . S
C1247 H1224 0.950 . S
C1247 C1246 1.334 . S
C1247 C1248 1.287 . S
C1248 C1247 1.287 . S
C1248 C1249 1.524 . S
C1248 H1267 0.913 . S
C1249 H1225 0.950 . S
C1249 C1248 1.524 . S
C1249 C1250 1.415 . S
C1250 H1226 0.950 . S
C1250 C1245 1.363 . S
C1250 C1249 1.415 . S
C1251 H1227 0.951 . S
C1251 C1252 1.366 . S
C1251 C1253 1.388 . S
C1252 C1251 1.366 . S
C1252 C1256 1.385 . S
C1253 H1228 0.951 . S
C1253 C1251 1.388 . S
C1253 C1254 1.366 . S
C1254 C1253 1.366 . S
C1254 C1255 1.414 . S
C1254 C1257 1.499 . S
C1255 H1229 0.950 . S
C1255 C1254 1.414 . S
C1255 C1256 1.374 . S
C1256 H1230 0.950 . S
C1256 C1252 1.385 . S
C1256 C1255 1.374 . S
C1257 C1254 1.499 . S
C1257 C1258 1.373 . S
C1257 C1259 1.389 . S
C1258 H1231 0.950 . S
C1258 C1244 1.377 . S
C1258 C1257 1.373 . S
C1259 C1243 1.377 . S
C1259 C1257 1.389 . S
C1259 C1260 1.524 . S
C1260 C1259 1.524 . S
C1260 C1261 1.397 . S
C1260 C1265 1.363 . S
C1261 H1232 0.950 . S
C1261 C1260 1.397 . S
C1261 C1262 1.334 . S
C1262 H1233 0.950 . S
C1262 C1261 1.334 . S
C1262 C1263 1.287 . S
C1263 C1262 1.287 . S
C1263 C1264 1.524 . S
C1263 H1266 0.999 . S
C1264 H1234 0.950 . S
C1264 C1263 1.524 . S
C1264 C1265 1.415 . S
C1265 H1235 0.950 . S
C1265 C1260 1.363 . S
C1265 C1264 1.415 . S
H1266 C1263 0.999 . S
H1267 C1248 0.913 . S
H1268 C1286 0.951 . S
H1269 C1288 0.951 . S
H1270 C1290 0.950 . S
H1271 C1291 0.950 . S
H1272 C1293 0.950 . S
H1273 C1296 0.950 . S
H1274 C1297 0.950 . S
H1275 C1299 0.950 . S
H1276 C1300 0.950 . S
H1277 C1301 0.951 . S
H1278 C1303 0.951 . S
H1279 C1305 0.950 . S
H1280 C1306 0.950 . S
H1281 C1308 0.950 . S
H1282 C1311 0.950 . S
H1283 C1312 0.950 . S
H1284 C1314 0.950 . S
H1285 C1315 0.950 . S
C1286 H1268 0.951 . S
C1286 C1287 1.366 . S
C1286 C1288 1.388 . S
C1287 C1286 1.366 . S
C1287 C1291 1.385 . S
C1288 H1269 0.951 . S
C1288 C1286 1.388 . S
C1288 C1289 1.366 . S
C1289 C1288 1.366 . S
C1289 C1290 1.414 . S
C1289 C1292 1.499 . S
C1290 H1270 0.950 . S
C1290 C1289 1.414 . S
C1290 C1291 1.374 . S
C1291 H1271 0.950 . S
C1291 C1287 1.385 . S
C1291 C1290 1.374 . S
C1292 C1289 1.499 . S
C1292 C1293 1.373 . S
C1292 C1294 1.389 . S
C1293 H1272 0.950 . S
C1293 C1292 1.373 . S
C1293 C1309 1.377 . S
C1294 C1292 1.389 . S
C1294 C1295 1.524 . S
C1294 C1308 1.377 . S
C1295 C1294 1.524 . S
C1295 C1296 1.397 . S
C1295 C1300 1.363 . S
C1296 H1273 0.950 . S
C1296 C1295 1.397 . S
C1296 C1297 1.334 . S
C1297 H1274 0.950 . S
C1297 C1296 1.334 . S
C1297 C1298 1.287 . S
C1298 C1297 1.287 . S
C1298 C1299 1.524 . S
C1298 H1317 0.913 . S
C1299 H1275 0.950 . S
C1299 C1298 1.524 . S
C1299 C1300 1.415 . S
C1300 H1276 0.950 . S
C1300 C1295 1.363 . S
C1300 C1299 1.415 . S
C1301 H1277 0.951 . S
C1301 C1302 1.366 . S
C1301 C1303 1.388 . S
C1302 C1301 1.366 . S
C1302 C1306 1.385 . S
C1303 H1278 0.951 . S
C1303 C1301 1.388 . S
C1303 C1304 1.366 . S
C1304 C1303 1.366 . S
C1304 C1305 1.414 . S
C1304 C1307 1.499 . S
C1305 H1279 0.950 . S
C1305 C1304 1.414 . S
C1305 C1306 1.374 . S
C1306 H1280 0.950 . S
C1306 C1302 1.385 . S
C1306 C1305 1.374 . S
C1307 C1304 1.499 . S
C1307 C1308 1.373 . S
C1307 C1309 1.389 . S
C1308 H1281 0.950 . S
C1308 C1294 1.377 . S
C1308 C1307 1.373 . S
C1309 C1293 1.377 . S
C1309 C1307 1.389 . S
C1309 C1310 1.524 . S
C1310 C1309 1.524 . S
C1310 C1311 1.397 . S
C1310 C1315 1.363 . S
C1311 H1282 0.950 . S
C1311 C1310 1.397 . S
C1311 C1312 1.334 . S
C1312 H1283 0.950 . S
C1312 C1311 1.334 . S
C1312 C1313 1.287 . S
C1313 C1312 1.287 . S
C1313 C1314 1.524 . S
C1313 H1316 0.999 . S
C1314 H1284 0.950 . S
C1314 C1313 1.524 . S
C1314 C1315 1.415 . S
C1315 H1285 0.950 . S
C1315 C1310 1.363 . S
C1315 C1314 1.415 . S
H1316 C1313 0.999 . S
H1317 C1298 0.913 . S
H1318 C1336 0.951 . S
H1319 C1338 0.951 . S
H1320 C1340 0.950 . S
H1321 C1341 0.950 . S
H1322 C1343 0.950 . S
H1323 C1346 0.950 . S
H1324 C1347 0.950 . S
H1325 C1349 0.950 . S
H1326 C1350 0.950 . S
H1327 C1351 0.951 . S
H1328 C1353 0.951 . S
H1329 C1355 0.950 . S
H1330 C1356 0.950 . S
H1331 C1358 0.950 . S
H1332 C1361 0.950 . S
H1333 C1362 0.950 . S
H1334 C1364 0.950 . S
H1335 C1365 0.950 . S
C1336 H1318 0.951 . S
C1336 C1337 1.366 . S
C1336 C1338 1.388 . S
C1337 C1336 1.366 . S
C1337 C1341 1.385 . S
C1338 H1319 0.951 . S
C1338 C1336 1.388 . S
C1338 C1339 1.366 . S
C1339 C1338 1.366 . S
C1339 C1340 1.414 . S
C1339 C1342 1.499 . S
C1340 H1320 0.950 . S
C1340 C1339 1.414 . S
C1340 C1341 1.374 . S
C1341 H1321 0.950 . S
C1341 C1337 1.385 . S
C1341 C1340 1.374 . S
C1342 C1339 1.499 . S
C1342 C1343 1.373 . S
C1342 C1344 1.389 . S
C1343 H1322 0.950 . S
C1343 C1342 1.373 . S
C1343 C1359 1.377 . S
C1344 C1342 1.389 . S
C1344 C1345 1.524 . S
C1344 C1358 1.377 . S
C1345 C1344 1.524 . S
C1345 C1346 1.397 . S
C1345 C1350 1.363 . S
C1346 H1323 0.950 . S
C1346 C1345 1.397 . S
C1346 C1347 1.334 . S
C1347 H1324 0.950 . S
C1347 C1346 1.334 . S
C1347 C1348 1.287 . S
C1348 C1347 1.287 . S
C1348 C1349 1.524 . S
C1348 H1367 0.913 . S
C1349 H1325 0.950 . S
C1349 C1348 1.524 . S
C1349 C1350 1.415 . S
C1350 H1326 0.950 . S
C1350 C1345 1.363 . S
C1350 C1349 1.415 . S
C1351 H1327 0.951 . S
C1351 C1352 1.366 . S
C1351 C1353 1.388 . S
C1352 C1351 1.366 . S
C1352 C1356 1.385 . S
C1353 H1328 0.951 . S
C1353 C1351 1.388 . S
C1353 C1354 1.366 . S
C1354 C1353 1.366 . S
C1354 C1355 1.414 . S
C1354 C1357 1.499 . S
C1355 H1329 0.950 . S
C1355 C1354 1.414 . S
C1355 C1356 1.374 . S
C1356 H1330 0.950 . S
C1356 C1352 1.385 . S
C1356 C1355 1.374 . S
C1357 C1354 1.499 . S
C1357 C1358 1.373 . S
C1357 C1359 1.389 . S
C1358 H1331 0.950 . S
C1358 C1344 1.377 . S
C1358 C1357 1.373 . S
C1359 C1343 1.377 . S
C1359 C1357 1.389 . S
C1359 C1360 1.524 . S
C1360 C1359 1.524 . S
C1360 C1361 1.397 . S
C1360 C1365 1.363 . S
C1361 H1332 0.950 . S
C1361 C1360 1.397 . S
C1361 C1362 1.334 . S
C1362 H1333 0.950 . S
C1362 C1361 1.334 . S
C1362 C1363 1.287 . S
C1363 C1362 1.287 . S
C1363 C1364 1.524 . S
C1363 H1366 0.999 . S
C1364 H1334 0.950 . S
C1364 C1363 1.524 . S
C1364 C1365 1.415 . S
C1365 H1335 0.950 . S
C1365 C1360 1.363 . S
C1365 C1364 1.415 . S
H1366 C1363 0.999 . S
H1367 C1348 0.913 . S
C187 C151 1.189 . S
C202 C11 1.190 . S
C237 C25 1.190 . S
C252 C165 1.192 . S
C287 C39 1.190 . S
C302 C95 1.189 . S
C337 C109 1.189 . S
C352 C53 1.190 . S
C387 C123 1.191 . S
C402 C67 1.190 . S
C437 C81 1.189 . S
C452 C137 1.190 . S
C487 C5 0.732 . S
C502 C103 0.736 . S
C537 C19 0.735 . S
C552 C117 0.736 . S
C587 C131 0.736 . S
C602 C33 0.733 . S
C637 C145 0.736 . S
C652 C47 0.732 . S
C687 C159 0.732 . S
C702 C61 0.736 . S
C737 C89 0.736 . S
C752 C75 0.732 . S
C787 C12 0.720 . S
C802 C60 0.727 . S
C837 C26 0.720 . S
C852 C74 0.727 . S
C887 C40 0.719 . S
C902 C4 0.731 . S
C937 C54 0.719 . S
C952 C18 0.728 . S
C987 C68 0.719 . S
C1002 C32 0.729 . S
C1037 C82 0.721 . S
C1052 C46 0.727 . S
C1087 C96 0.718 . S
C1102 C116 0.730 . S
C1137 C110 0.720 . S
C1152 C130 0.729 . S
C1187 C144 0.728 . S
C1202 C124 0.719 . S
C1237 C138 0.720 . S
C1252 C158 0.727 . S
C1287 C152 0.719 . S
C1302 C88 0.731 . S
C1337 C166 0.718 . S
C1352 C102 0.730 . S
