# Generated by pormake.
# Topology sxc, (6)-cn, num edge types: 1
# Building blocks:
#     Node 0, Type 0, BuildingBlock: CUWYAW_clean_sbu_0, # of connection points: 6
#     Node 1, Type 0, BuildingBlock: CUWYAW_clean_sbu_0, # of connection points: 6
#     Node 2, Type 0, BuildingBlock: CUWYAW_clean_sbu_0, # of connection points: 6
#     Edge 3, Type (0, 0), BuildingBlock: MIFKUJ_clean_linker_0, # of connection points: 2
#     Edge 4, Type (0, 0), BuildingBlock: MIFKUJ_clean_linker_0, # of connection points: 2
#     Edge 5, Type (0, 0), BuildingBlock: MIFKUJ_clean_linker_0, # of connection points: 2
#     Edge 6, Type (0, 0), BuildingBlock: MIFKUJ_clean_linker_0, # of connection points: 2
#     Edge 7, Type (0, 0), BuildingBlock: MIFKUJ_clean_linker_0, # of connection points: 2
#     Edge 8, Type (0, 0), BuildingBlock: MIFKUJ_clean_linker_0, # of connection points: 2
#     Edge 9, Type (0, 0), BuildingBlock: MIFKUJ_clean_linker_0, # of connection points: 2
#     Edge 10, Type (0, 0), BuildingBlock: MIFKUJ_clean_linker_0, # of connection points: 2
#     Edge 11, Type (0, 0), BuildingBlock: MIFKUJ_clean_linker_0, # of connection points: 2
# Relax obj value: 0.370
# Max RMSD: 0.068
# Mean RMSD: 0.051
data_MOF--net-sxc--node1-CUWYAW_clean_sbu_0--edge1-MIFKUJ_clean_linker_0
_symmetry_space_group_name_H-M    P1
_symmetry_Int_Tables_number       1
_symmetry_cell_setting            triclinic
loop_
_symmetry_equiv_pos_as_xyz
'x, y, z'
_cell_length_a     23.041806
_cell_length_b     22.789498
_cell_length_c     60.095562
_cell_angle_alpha  92.695805
_cell_angle_beta   91.367587
_cell_angle_gamma 120.39985
loop_
_atom_site_label
_atom_site_type_symbol
_atom_site_fract_x
_atom_site_fract_y
_atom_site_fract_z
_atom_type_partial_charge
C0 C 1.07518 0.20488 0.00079 0.0
Eu1 Eu 0.12513 0.12932 0.01179 0.0
C2 C 1.09182 0.25176 -0.01717 0.0
C3 C 0.15907 0.30061 -0.02051 0.0
C4 C 0.17538 0.33788 0.9606 0.0
C5 C 0.12485 0.32735 0.94464 0.0
C6 C 1.0573 0.27975 0.94829 0.0
C7 C 1.04101 0.24202 0.96717 0.0
C8 C 0.13382 0.10298 0.05591 0.0
C9 C 0.29868 0.24017 0.01369 0.0
C10 C 0.24437 0.99437 0.0138 0.0
Eu11 Eu 0.19146 1.07188 0.01233 0.0
C12 C 0.24996 0.95493 -0.00512 0.0
C13 C 0.20923 0.94116 0.97535 0.0
C14 C 0.21634 0.90742 0.95662 0.0
C15 C 0.26474 0.88739 0.95703 0.0
C16 C 0.30651 0.90245 0.97646 0.0
C17 C 0.29915 0.93612 -0.0047 0.0
C18 C 0.18009 0.0992 0.96833 0.0
C19 C 1.01723 0.96019 0.01236 0.0
O20 O 1.04887 0.14117 -0.00618 0.0
O21 O 0.12049 0.22244 0.01711 0.0
O22 O 1.0803 0.09369 0.04514 0.0
O23 O 0.18229 0.12548 0.04297 0.0
O24 O 0.23737 0.23023 0.00735 0.0
O25 O 0.29299 0.18171 0.01988 0.0
O26 O 0.18338 0.97488 0.0195 0.0
O27 O 0.27969 1.05991 0.01255 0.0
O28 O 0.23494 0.11335 -0.02095 0.0
O29 O 0.13286 1.07299 -0.01846 0.0
O30 O 1.07956 0.96816 0.01492 0.0
O31 O 1.02129 1.02028 0.00973 0.0
H32 H 0.19942 0.30956 -0.00874 0.0
H33 H 0.22768 0.3757 0.95867 0.0
H34 H 1.0172 0.27084 0.93637 0.0
H35 H 0.98887 0.20402 0.96929 0.0
H36 H 0.17197 0.95678 0.97456 0.0
H37 H 0.18378 0.8967 0.94184 0.0
H38 H 0.34357 0.88659 0.97727 0.0
H39 H 0.33174 0.94749 0.01012 0.0
C40 C 0.34521 0.19717 0.33997 0.0
Eu41 Eu 0.21791 0.1453 0.34732 0.0
C42 C 0.37633 0.17744 0.32223 0.0
C43 C 0.36083 0.10953 0.3188 0.0
C44 C 0.38014 0.08838 0.29969 0.0
C45 C 0.41558 0.13463 0.28361 0.0
C46 C 0.4333 0.20316 0.2874 0.0
C47 C 0.41361 0.2243 0.30653 0.0
C48 C 0.17326 0.13537 0.39016 0.0
C49 C 0.15551 0.97035 0.3462 0.0
C50 C 0.96241 1.01777 0.34314 0.0
Eu51 Eu 1.09321 1.07446 0.34383 0.0
C52 C 0.91671 1.01412 0.3251 0.0
C53 C 0.94312 1.05648 0.30737 0.0
C54 C 0.90158 1.04876 0.28888 0.0
C55 C 0.8331 0.9981 0.28773 0.0
C56 C 0.80688 0.95545 0.30547 0.0
C57 C 0.84854 0.96339 0.32404 0.0
C58 C 0.1383 0.08429 0.30097 0.0
C59 C 0.15583 0.25092 0.34629 0.0
O60 O 0.30902 0.22208 0.3328 0.0
O61 O 0.31535 0.15401 0.35514 0.0
O62 O 0.21669 0.19141 0.38183 0.0
O63 O 0.15301 0.08674 0.37535 0.0
O64 O 0.20755 1.03192 0.3414 0.0
O65 O 1.10157 0.97542 0.35096 0.0
O66 O 1.00348 0.07815 0.3527 0.0
O67 O 0.99315 0.98477 0.33823 0.0
O68 O 1.09578 1.02878 0.30947 0.0
O69 O 0.1576 0.13262 0.3158 0.0
O70 O 1.10087 0.18734 0.34651 0.0
O71 O 0.2127 0.24835 0.3461 0.0
H72 H 0.33236 1.0721 0.33057 0.0
H73 H 0.3676 1.0357 0.29757 0.0
H74 H 0.46109 0.24003 0.27538 0.0
H75 H 0.4255 0.27678 0.30871 0.0
H76 H 0.99619 0.09483 0.30769 0.0
H77 H 0.92306 0.08208 0.27541 0.0
H78 H 0.75395 0.91678 0.30516 0.0
H79 H 0.8278 0.92953 0.33742 0.0
C80 C 0.28399 0.30225 0.67538 0.0
Eu81 Eu 0.20716 0.17176 0.68067 0.0
C82 C 0.31923 0.34409 0.65681 0.0
C83 C 0.30261 0.39195 0.6499 0.0
C84 C 0.33431 0.43171 0.63219 0.0
C85 C 0.3839 0.42495 0.62113 0.0
C86 C 0.40012 0.37649 0.62792 0.0
C87 C 0.3679 0.3362 0.64555 0.0
C88 C 0.17881 0.12975 0.72358 0.0
C89 C 0.31717 0.10739 0.67889 0.0
C90 C 1.064 0.91711 0.67644 0.0
Eu91 Eu 0.14946 1.04707 0.67675 0.0
C92 C 1.00061 0.88003 0.66244 0.0
C93 C 0.99714 0.83991 0.64342 0.0
C94 C 0.94703 0.82116 0.62654 0.0
C95 C 0.89958 0.84243 0.62832 0.0
C96 C 0.9002 0.87827 0.64809 0.0
C97 C 0.94963 0.8961 0.66507 0.0
C98 C 0.17587 0.0909 0.63403 0.0
C99 C 1.03835 0.11065 0.6782 0.0
O100 O 0.21865 0.26983 0.67332 0.0
O101 O 0.30621 0.26484 0.68345 0.0
O102 O 0.17022 0.17579 0.71504 0.0
O103 O 0.20192 0.10593 0.70903 0.0
O104 O 0.30872 0.16131 0.67548 0.0
O105 O 0.25721 1.05211 0.68237 0.0
O106 O 1.06743 0.96071 0.69207 0.0
O107 O 0.11839 0.94255 0.66532 0.0
O108 O 0.19086 1.04908 0.64257 0.0
O109 O 0.15151 0.11199 0.64894 0.0
O110 O 1.04578 1.05517 0.67785 0.0
O111 O 1.09923 0.16786 0.67867 0.0
H112 H 0.26485 0.39851 0.65822 0.0
H113 H 0.31998 0.46786 0.62716 0.0
H114 H 0.43863 0.37057 0.61991 0.0
H115 H 0.38142 0.2993 0.6504 0.0
H116 H 1.03553 0.82644 0.64102 0.0
H117 H 0.94637 0.79121 0.6119 0.0
H118 H 0.86421 0.89511 0.65012 0.0
H119 H 0.95005 0.92607 0.67965 0.0
H120 H 1.05959 0.38829 0.92746 0.0
H121 H 1.1061 0.48267 0.90357 0.0
H122 H 0.27876 0.45943 0.89427 0.0
H123 H 0.23146 0.36343 0.91812 0.0
H124 H 0.31224 0.57359 0.91724 0.0
H125 H 0.20243 0.48225 0.8477 0.0
H126 H 0.11114 0.40784 0.81978 0.0
H127 H 0.99721 0.50049 0.84057 0.0
H128 H 1.08707 0.57466 0.86888 0.0
H129 H 0.3756 0.9027 0.93603 0.0
H130 H 0.37912 0.81948 0.90948 0.0
H131 H 0.16265 0.69289 0.90987 0.0
H132 H 0.15894 0.77633 0.93546 0.0
H133 H 0.20221 0.66894 0.87138 0.0
H134 H 0.27458 0.68886 0.95166 0.0
H135 H 0.35191 0.75244 -0.01561 0.0
H136 H 0.52044 0.78179 0.9472 0.0
H137 H 0.44391 0.71901 0.91415 0.0
C138 C 1.10585 0.40098 0.91952 0.0
C139 C 0.14308 0.37015 0.92529 0.0
C140 C 0.13232 0.45483 0.9056 0.0
C141 C 0.19641 0.47873 0.89724 0.0
C142 C 0.22939 0.44204 0.9006 0.0
C143 C 0.20279 0.38794 0.9145 0.0
C144 C 0.23514 0.55089 0.89166 0.0
C145 C 0.29011 0.59471 0.9064 0.0
C146 C 0.20662 0.57864 0.87753 0.0
C147 C 0.15206 0.53456 0.86038 0.0
C148 C 0.15786 0.48671 0.84639 0.0
C149 C 1.10628 0.44449 0.83048 0.0
C150 C 1.0485 0.44955 0.82836 0.0
C151 C 1.04215 0.49683 0.84216 0.0
C152 C 1.09357 0.53919 0.85811 0.0
C153 C 0.32881 0.85787 0.92988 0.0
C154 C 0.26712 0.84511 0.93806 0.0
C155 C 0.33079 0.81068 0.91463 0.0
C156 C 0.27132 0.74922 0.90803 0.0
C157 C 0.20928 0.73989 0.91461 0.0
C158 C 0.20719 0.78745 0.92944 0.0
C159 C 0.273 0.68868 0.89877 0.0
C160 C 0.22685 0.64797 0.88108 0.0
C161 C 0.30787 0.66266 0.9107 0.0
C162 C 0.35389 0.70032 0.93043 0.0
C163 C 0.32819 0.70921 0.95048 0.0
C164 C 0.37181 0.74507 0.96906 0.0
C165 C 0.44107 0.77137 0.96784 0.0
C166 C 0.46681 0.76164 0.94807 0.0
C167 C 0.42339 0.72605 0.9294 0.0
H168 H 0.47471 0.79914 -0.01775 0.0
H169 H 1.00859 0.41677 0.81605 0.0
H170 H 0.53876 0.19901 0.26591 0.0
H171 H 0.58355 0.14756 0.24064 0.0
H172 H 0.38717 0.96585 0.23118 0.0
H173 H 0.34186 1.01775 0.25664 0.0
H174 H 0.47114 0.94032 0.25161 0.0
H175 H 0.47896 1.03523 0.18444 0.0
H176 H 0.49122 0.12024 0.15823 0.0
H177 H 0.70112 0.24456 0.17848 0.0
H178 H 0.69012 0.16111 0.2051 0.0
H179 H 0.73668 0.88318 0.26345 0.0
H180 H 0.64778 0.87495 0.23793 0.0
H181 H 0.73836 0.09382 0.24505 0.0
H182 H 0.82733 0.10222 0.26986 0.0
H183 H 0.6699 1.04617 0.20541 0.0
H184 H 0.62953 0.9865 0.28463 0.0
H185 H 0.61913 0.914 0.31532 0.0
H186 H 0.47187 0.73645 0.27539 0.0
H187 H 0.48225 0.80805 0.24435 0.0
C188 C 0.50439 0.14934 0.25771 0.0
C189 C 0.43746 0.11142 0.2638 0.0
C190 C 0.5299 0.12001 0.24299 0.0
C191 C 0.48884 1.05241 0.23408 0.0
C192 C 0.41981 1.01791 0.23791 0.0
C193 C 0.39427 1.04723 0.25269 0.0
C194 C 0.52185 1.01361 0.22714 0.0
C195 C 0.51279 0.96135 0.24065 0.0
C196 C 0.57602 1.04057 0.21284 0.0
C197 C 0.58368 0.09135 0.19674 0.0
C198 C 0.52775 0.08077 0.18338 0.0
C199 C 0.53447 0.12877 0.16844 0.0
C200 C 0.59694 0.18768 0.16666 0.0
C201 C 0.65281 0.19875 0.17982 0.0
C202 C 0.64639 0.15094 0.1948 0.0
C203 C 0.73836 0.92951 0.25901 0.0
C204 C 0.78786 0.99322 0.26897 0.0
C205 C 0.68799 0.92481 0.24431 0.0
C206 C 0.68566 0.98361 0.23994 0.0
C207 C 0.73906 1.04768 0.24809 0.0
C208 C 0.78977 1.05246 0.26246 0.0
C209 C 0.62247 0.97931 0.23167 0.0
C210 C 0.62566 1.02238 0.21516 0.0
C211 C 0.56334 0.94535 0.24363 0.0
C212 C 0.55738 0.90227 0.26213 0.0
C213 C 0.59526 0.93192 0.28239 0.0
C214 C 0.58939 0.89105 0.29982 0.0
C215 C 0.54504 0.82062 0.29727 0.0
C216 C 0.50641 0.79096 0.27729 0.0
C217 C 0.51235 0.83161 0.25976 0.0
H218 H 0.54047 0.78906 0.3108 0.0
H219 H 0.60203 0.2248 0.15509 0.0
H220 H 0.76765 0.80555 0.63164 0.0
H221 H 0.68034 0.7607 0.60197 0.0
H222 H 0.82717 0.79566 0.55327 0.0
H223 H 0.91629 0.84256 0.58315 0.0
H224 H 0.64479 0.78454 0.55683 0.0
H225 H 0.76927 0.66781 0.52718 0.0
H226 H 0.86648 0.651 0.53245 0.0
H227 H 0.81691 0.60321 0.60021 0.0
H228 H 0.71942 0.61965 0.59523 0.0
H229 H 0.42407 0.39377 0.5816 0.0
H230 H 0.49149 0.47178 0.55411 0.0
H231 H 0.50379 0.63937 0.59495 0.0
H232 H 0.43096 0.56096 0.62099 0.0
H233 H 0.60836 0.55143 0.55958 0.0
H234 H 0.55545 0.77933 0.57671 0.0
H235 H 0.45791 0.79539 0.57328 0.0
H236 H 0.35417 0.61602 0.52854 0.0
H237 H 0.45163 0.59931 0.53129 0.0
C238 C 0.78223 0.80631 0.61461 0.0
C239 C 0.84872 0.82587 0.60985 0.0
C240 C 0.73213 0.78116 0.59755 0.0
C241 C 0.7472 0.7743 0.57542 0.0
C242 C 0.8145 0.80013 0.57026 0.0
C243 C 0.86503 0.82573 0.5874 0.0
C244 C 0.69093 0.72366 0.56022 0.0
C245 C 0.63594 0.73305 0.55653 0.0
C246 C 0.68059 0.65706 0.55798 0.0
C247 C 0.73723 0.64452 0.56079 0.0
C248 C 0.77901 0.65324 0.54312 0.0
C249 C 0.83415 0.64396 0.54608 0.0
C250 C 0.84779 0.62594 0.56664 0.0
C251 C 0.80618 0.61695 0.58428 0.0
C252 C 0.7509 0.62601 0.58138 0.0
C253 C 0.43845 0.44677 0.58418 0.0
C254 C 0.42085 0.47078 0.60336 0.0
C255 C 0.47734 0.49157 0.5684 0.0
C256 C 0.50234 0.5619 0.57199 0.0
C257 C 0.48315 0.58543 0.59091 0.0
C258 C 0.44214 0.54037 0.60618 0.0
C259 C 0.56008 0.61188 0.5596 0.0
C260 C 0.61499 0.60155 0.55778 0.0
C261 C 0.5697 0.67724 0.55605 0.0
C262 C 0.51151 0.68838 0.55403 0.0
C263 C 0.51248 0.74383 0.56581 0.0
C264 C 0.45692 0.75287 0.56409 0.0
C265 C 0.39996 0.70688 0.55066 0.0
C266 C 0.39838 0.65167 0.53892 0.0
C267 C 0.45377 0.64234 0.54057 0.0
H268 H 0.35697 0.71393 0.54938 0.0
H269 H 0.89064 0.61902 0.56892 0.0
H270 H 0.89408 1.00061 0.67949 0.0
H271 H 0.78686 0.99877 0.68005 0.0
H272 H 0.89173 0.21555 0.67693 0.0
H273 H 0.99965 0.21725 0.67709 0.0
H274 H 0.78592 0.21091 0.68972 0.0
H275 H 0.73393 1.03014 0.63384 0.0
H276 H 0.72215 0.9221 0.61831 0.0
H277 H 0.59601 0.8159 0.67115 0.0
H278 H 0.60756 0.9234 0.6871 0.0
H279 H 0.46067 0.21503 0.67375 0.0
H280 H 0.56765 0.21585 0.67314 0.0
H281 H 0.46353 1.0023 0.68283 0.0
H282 H 0.35606 1.00159 0.68316 0.0
H283 H 0.56846 1.00493 0.66644 0.0
H284 H 0.62017 0.18858 0.72153 0.0
H285 H 0.63206 0.29761 0.7359 0.0
H286 H 0.75912 0.39957 0.68272 0.0
H287 H 0.74754 0.29099 0.66796 0.0
C288 C 0.89666 1.0492 0.67875 0.0
C289 C 0.96349 0.10911 0.6781 0.0
C290 C 0.83121 1.04818 0.67879 0.0
C291 C 0.82172 0.10682 0.67788 0.0
C292 C 0.88888 0.16679 0.67748 0.0
C293 C 0.95442 0.16785 0.67754 0.0
C294 C 0.74688 0.10638 0.67771 0.0
C295 C 0.73963 0.16455 0.68424 0.0
C296 C 0.67896 1.04922 0.67115 0.0
C297 C 0.67223 0.98483 0.66178 0.0
C298 C 0.70393 0.98375 0.64218 0.0
C299 C 0.69729 0.92265 0.63331 0.0
C300 C 0.65851 0.86224 0.64377 0.0
C301 C 0.62617 0.86277 0.6631 0.0
C302 C 0.63275 0.92374 0.67207 0.0
C303 C 0.45823 0.16699 0.67595 0.0
C304 C 0.39178 0.10831 0.67865 0.0
C305 C 0.52345 0.16748 0.67583 0.0
C306 C 0.53299 0.10939 0.67844 0.0
C307 C 0.4662 1.05052 0.68081 0.0
C308 C 0.40098 1.05009 0.68105 0.0
C309 C 0.60762 0.10946 0.67849 0.0
C310 C 0.6148 1.05124 0.67194 0.0
C311 C 0.67557 0.16671 0.68483 0.0
C312 C 0.68242 0.23169 0.69353 0.0
C313 C 0.65039 0.23425 0.71287 0.0
C314 C 0.6571 0.29593 0.72108 0.0
C315 C 0.69616 0.35544 0.7102 0.0
C316 C 0.72876 0.35342 0.69111 0.0
C317 C 0.72217 0.29185 0.68282 0.0
H318 H 0.70128 0.40314 0.71658 0.0
H319 H 0.65334 0.81499 0.63689 0.0
H320 H 0.8764 0.92082 0.00181 0.0
H321 H 0.76879 0.81383 0.00092 0.0
H322 H 0.86991 0.71105 0.02304 0.0
H323 H 0.97889 0.81872 0.02274 0.0
H324 H 0.76589 0.60306 0.01081 0.0
H325 H 0.70593 0.75777 0.04907 0.0
H326 H 0.69444 0.85975 0.05309 0.0
H327 H 0.58711 0.80598 -0.01091 0.0
H328 H 0.59774 0.70362 -0.01523 0.0
H329 H 0.43879 0.2822 0.02728 0.0
H330 H 0.54654 0.38971 0.0277 0.0
H331 H 0.44641 0.48668 -0.0002 0.0
H332 H 0.33766 0.37866 4e-05 0.0
H333 H 0.54919 0.59697 0.01478 0.0
H334 H 0.60148 0.43899 0.97752 0.0
H335 H 0.61179 0.33649 0.9729 0.0
H336 H 0.73381 0.39613 0.03409 0.0
H337 H 0.72377 0.49873 0.03914 0.0
C338 C 0.87782 0.87647 0.00673 0.0
C339 C 0.94352 0.88577 0.01247 0.0
C340 C 0.81229 0.81151 0.00658 0.0
C341 C 0.80209 0.74598 0.01268 0.0
C342 C 0.86822 0.75532 0.01823 0.0
C343 C 0.93408 0.82034 0.0181 0.0
C344 C 0.72721 0.67154 0.01295 0.0
C345 C 0.71973 0.60434 0.012 0.0
C346 C 0.65976 0.66268 0.014 0.0
C347 C 0.65327 0.72371 0.01651 0.0
C348 C 0.67996 0.76787 0.03587 0.0
C349 C 0.6735 0.82562 0.03821 0.0
C350 C 0.6401 0.83936 0.02134 0.0
C351 C 0.61285 0.79524 0.00214 0.0
C352 C 0.619 0.73734 -0.00025 0.0
C353 C 0.43765 0.32534 0.02098 0.0
C354 C 0.37242 0.31449 0.01357 0.0
C355 C 0.50308 0.39038 0.02092 0.0
C356 C 0.51338 0.45434 0.01317 0.0
C357 C 0.44775 0.44356 0.006 0.0
C358 C 0.38211 0.37838 0.00611 0.0
C359 C 0.58806 0.5287 0.01282 0.0
C360 C 0.59544 0.59578 0.0137 0.0
C361 C 0.65536 0.53739 0.01169 0.0
C362 C 0.66126 0.47597 0.00882 0.0
C363 C 0.63025 0.43001 -0.00998 0.0
C364 C 0.63607 0.37195 -0.01267 0.0
C365 C 0.67326 0.3597 0.00323 0.0
C366 C 0.70489 0.4056 0.02182 0.0
C367 C 0.69918 0.46371 0.0246 0.0
H368 H 0.67769 0.31473 0.00111 0.0
H369 H 0.63527 0.88416 0.02315 0.0
H370 H 0.25922 0.39172 0.33882 0.0
H371 H 0.26039 0.49916 0.33762 0.0
H372 H 1.0527 0.39858 0.35324 0.0
H373 H 1.05095 0.28932 0.35311 0.0
H374 H 1.05091 0.49969 0.34155 0.0
H375 H 0.26287 0.57576 0.38473 0.0
H376 H 0.37667 0.59268 0.39158 0.0
H377 H 0.43612 0.68507 0.32916 0.0
H378 H 0.32263 0.66842 0.32195 0.0
H379 H 1.0561 0.83146 0.35734 0.0
H380 H 1.05567 0.72388 0.35795 0.0
H381 H 0.25602 0.82157 0.3351 0.0
H382 H 0.2569 0.93045 0.33519 0.0
H383 H 0.26174 0.72285 0.35025 0.0
H384 H 1.05445 0.65455 0.30803 0.0
H385 H 0.94191 0.64011 0.30069 0.0
H386 H 0.87401 0.53414 0.36047 0.0
H387 H 0.98633 0.54842 0.36821 0.0
C388 C 0.21268 0.3904 0.34221 0.0
C389 C 0.15514 0.32465 0.34622 0.0
C390 C 0.21353 0.45599 0.3419 0.0
C391 C 0.15735 0.46647 0.34614 0.0
C392 C 1.09942 0.40021 0.34995 0.0
C393 C 1.0983 0.33416 0.34993 0.0
C394 C 0.15806 0.54159 0.34625 0.0
C395 C 1.0984 0.54737 0.3438 0.0
C396 C 0.21675 0.61089 0.34859 0.0
C397 C 0.28426 0.62006 0.3527 0.0
C398 C 0.30023 0.59941 0.37246 0.0
C399 C 0.36463 0.609 0.3764 0.0
C400 C 0.41351 0.63971 0.36077 0.0
C401 C 0.39818 0.66112 0.34121 0.0
C402 C 0.33387 0.65163 0.33719 0.0
C403 C 1.10108 0.83206 0.35219 0.0
C404 C 0.15635 0.89673 0.34611 0.0
C405 C 1.10061 0.76663 0.35225 0.0
C406 C 0.1551 0.75558 0.34594 0.0
C407 C 0.21085 0.82074 0.34011 0.0
C408 C 0.21141 0.88645 0.34012 0.0
C409 C 0.15464 0.68074 0.34574 0.0
C410 C 0.21428 0.67508 0.3481 0.0
C411 C 1.09597 0.61162 0.3433 0.0
C412 C 1.02883 0.60319 0.33881 0.0
C413 C 1.01553 0.62843 0.31964 0.0
C414 C 0.95183 0.62026 0.31541 0.0
C415 C 0.90091 0.58642 0.33014 0.0
C416 C 0.91354 0.56048 0.3491 0.0
C417 C 0.97718 0.56857 0.35341 0.0
H418 H 0.85164 0.58015 0.32684 0.0
H419 H 0.46332 0.64708 0.36385 0.0
H420 H 1.09501 0.98125 0.26825 0.0
H421 H 1.10087 0.98725 0.22784 0.0
H422 H 0.20045 0.20655 0.23602 0.0
H423 H 0.19652 0.20042 0.27677 0.0
H424 H 1.04847 1.01894 0.19787 0.0
H425 H 0.28789 0.28264 0.19154 0.0
H426 H 0.39858 0.35656 0.2115 0.0
H427 H 0.3917 0.18114 0.23754 0.0
H428 H 0.2811 0.10629 0.21788 0.0
H429 H 1.04455 0.09985 0.08581 0.0
H430 H 1.05097 0.10164 0.1264 0.0
H431 H 0.24113 0.10826 0.12457 0.0
H432 H 0.23633 0.11035 0.08363 0.0
H433 H 0.25101 0.17988 0.15942 0.0
H434 H 1.07591 0.95573 0.13446 0.0
H435 H 0.97107 0.86815 0.11395 0.0
H436 H 0.85842 0.94114 0.14976 0.0
H437 H 0.96274 1.02973 0.17029 0.0
C438 C 0.11876 1.03099 0.26153 0.0
C439 C 0.14536 0.0903 0.27606 0.0
C440 C 0.12183 1.03443 0.23818 0.0
C441 C 0.15149 0.09737 0.22822 0.0
C442 C 0.17839 0.15699 0.24279 0.0
C443 C 0.17581 0.15354 0.26628 0.0
C444 C 0.15203 0.09957 0.20282 0.0
C445 C 1.09302 1.05449 0.18963 0.0
C446 C 0.20987 0.14438 0.19135 0.0
C447 C 0.27595 0.18906 0.20344 0.0
C448 C 0.31004 0.25993 0.20157 0.0
C449 C 0.37269 0.30197 0.21288 0.0
C450 C 0.40198 0.27358 0.22592 0.0
C451 C 0.36873 0.20311 0.22764 0.0
C452 C 0.30597 0.16088 0.21648 0.0
C453 C 1.08799 0.1018 0.09394 0.0
C454 C 0.13972 0.10455 0.08112 0.0
C455 C 1.09139 0.10219 0.11742 0.0
C456 C 0.14569 0.10317 0.12917 0.0
C457 C 0.19819 0.10712 0.11637 0.0
C458 C 0.19538 0.10806 0.09278 0.0
C459 C 0.14715 0.09981 0.15453 0.0
C460 C 0.20642 0.14458 0.16769 0.0
C461 C 1.0901 1.05312 0.16598 0.0
C462 C 1.02723 0.99975 0.15375 0.0
C463 C 1.02883 0.95334 0.13786 0.0
C464 C 0.9695 0.9035 0.12624 0.0
C465 C 0.90816 0.8992 0.13051 0.0
C466 C 0.90599 0.9446 0.14645 0.0
C467 C 0.96518 0.99459 0.1581 0.0
H468 H 0.86229 0.8606 0.12149 0.0
H469 H 0.45055 0.30613 0.23463 0.0
H470 H 0.17479 1.03718 0.41492 0.0
H471 H 0.17276 1.02988 0.45538 0.0
H472 H 0.15 0.20653 0.46223 0.0
H473 H 0.15951 0.21757 0.42194 0.0
H474 H 0.21281 0.21987 0.49549 0.0
H475 H 1.01596 1.01601 0.46889 0.0
H476 H 0.94414 0.9071 0.44685 0.0
H477 H 1.05514 0.82255 0.47611 0.0
H478 H 0.1282 0.93129 0.49813 0.0
H479 H 0.12042 0.15476 0.61032 0.0
H480 H 0.10979 0.15827 0.56956 0.0
H481 H 0.20596 1.03937 0.56025 0.0
H482 H 0.21562 1.03493 0.60071 0.0
H483 H 1.09911 0.99682 0.52918 0.0
H484 H 0.28222 0.21456 0.56089 0.0
H485 H 0.31494 0.31243 0.58743 0.0
H486 H 0.20013 0.37433 0.5479 0.0
H487 H 0.15924 0.27125 0.52256 0.0
C488 C 0.16904 1.07429 0.42507 0.0
C489 C 0.16669 0.12763 0.41496 0.0
C490 C 0.16702 1.06972 0.44846 0.0
C491 C 0.15902 0.11626 0.46267 0.0
C492 C 0.15627 0.16941 0.45233 0.0
C493 C 0.16112 0.17555 0.42903 0.0
C494 C 0.15531 0.11085 0.48804 0.0
C495 C 0.18675 0.17067 0.50256 0.0
C496 C 0.12146 1.04744 0.49824 0.0
C497 C 1.07802 0.98206 0.48497 0.0
C498 C 1.02535 0.97434 0.4705 0.0
C499 C 0.98439 0.91263 0.45803 0.0
C500 C 0.99521 0.85802 0.46003 0.0
C501 C 1.04691 0.86495 0.47455 0.0
C502 C 1.08809 0.9266 0.48704 0.0
C503 C 0.13932 0.12936 0.59961 0.0
C504 C 0.16948 0.09505 0.60908 0.0
C505 C 0.13306 0.1312 0.57615 0.0
C506 C 0.15758 0.09958 0.56137 0.0
C507 C 0.18646 1.06432 0.57091 0.0
C508 C 0.19245 1.06225 0.59425 0.0
C509 C 0.15644 0.10537 0.53619 0.0
C510 C 0.12458 1.04568 0.52183 0.0
C511 C 0.1866 0.1689 0.52617 0.0
C512 C 0.21681 0.23438 0.53997 0.0
C513 C 0.2634 0.24861 0.55789 0.0
C514 C 0.28314 0.30498 0.57284 0.0
C515 C 0.26081 0.35059 0.56919 0.0
C516 C 0.21755 0.33907 0.55072 0.0
C517 C 0.19508 0.28092 0.53625 0.0
H518 H 0.27666 0.39458 0.58073 0.0
H519 H 0.96342 0.81027 0.45037 0.0
H520 H 0.16331 0.20633 0.7567 0.0
H521 H 0.16147 0.19589 0.79688 0.0
H522 H 0.18574 1.02082 0.78778 0.0
H523 H 0.19082 1.03351 0.7473 0.0
H524 H 1.08696 0.11665 0.82375 0.0
H525 H 0.24827 0.9917 0.83562 0.0
H526 H 0.34188 0.98667 0.81833 0.0
H527 H 0.41075 0.18274 0.79272 0.0
H528 H 0.31802 0.18925 0.81007 0.0
H529 H 1.066 1.03437 0.93894 0.0
H530 H 1.06133 1.03196 0.89794 0.0
H531 H 0.27713 0.16429 0.89968 0.0
H532 H 0.28182 0.16393 0.94028 0.0
H533 H 0.25255 0.08377 0.86715 0.0
H534 H 0.14683 0.21544 0.8857 0.0
H535 H 1.06379 0.23946 0.90242 0.0
H536 H 0.90214 1.05868 0.8681 0.0
H537 H 0.98433 1.0339 0.85088 0.0
C538 C 0.1688 0.16571 0.76316 0.0
C539 C 0.17782 0.12118 0.74845 0.0
C540 C 0.16731 0.15945 0.78639 0.0
C541 C 0.17411 0.10792 0.79607 0.0
C542 C 0.18201 1.06238 0.78131 0.0
C543 C 0.1845 1.06932 0.75795 0.0
C544 C 0.17238 0.10263 0.82137 0.0
C545 C 0.12336 0.10924 0.83308 0.0
C546 C 0.21959 0.09364 0.83426 0.0
C547 C 0.27576 0.09053 0.82391 0.0
C548 C 0.28351 1.03378 0.82634 0.0
C549 C 0.33638 1.03067 0.81652 0.0
C550 C 0.38208 0.08423 0.80436 0.0
C551 C 0.37516 0.14117 0.80207 0.0
C552 C 0.32243 0.14457 0.81187 0.0
C553 C 0.11238 1.06317 0.93057 0.0
C554 C 0.17429 0.09939 0.94318 0.0
C555 C 0.10978 1.06224 0.90692 0.0
C556 C 0.16886 0.09868 0.89505 0.0
C557 C 0.23043 0.13513 0.90785 0.0
C558 C 0.23308 0.13525 0.93133 0.0
C559 C 0.16768 0.09874 0.86956 0.0
C560 C 0.21599 0.09087 0.8578 0.0
C561 C 0.12101 0.10844 0.85665 0.0
C562 C 1.07157 0.1224 0.86725 0.0
C563 C 1.09354 0.18056 0.88186 0.0
C564 C 1.04666 0.19439 0.89139 0.0
C565 C 0.97774 0.15039 0.88653 0.0
C566 C 0.95553 0.09262 0.87193 0.0
C567 C 1.00222 0.07877 0.8622 0.0
H568 H 0.94161 0.16126 0.89398 0.0
H569 H 0.42293 0.08169 0.79676 0.0
loop_
_geom_bond_atom_site_label_1
_geom_bond_atom_site_label_2
_geom_bond_distance
_geom_bond_site_symmetry_2
_ccdc_geom_bond_type
C0 Eu1 2.835 . S
C0 C2 1.506 . S
C0 O20 1.257 1_554 S
C0 O21 1.260 . S
Eu1 C0 2.835 . S
Eu1 O20 2.473 1_554 S
Eu1 O21 2.480 . S
Eu1 O22 2.430 . S
Eu1 O23 2.670 1_545 S
Eu1 O24 2.394 . S
Eu1 O29 2.355 1_554 S
Eu1 O31 2.374 1_444 S
C2 C0 1.506 . S
C2 C3 1.399 . S
C2 C7 1.350 1_554 S
C3 C2 1.399 . S
C3 C4 1.395 . S
C3 H32 0.931 . S
C4 C3 1.395 . S
C4 C5 1.383 1_554 S
C4 H33 0.931 . S
C5 C4 1.383 1_556 S
C5 C6 1.394 . S
C6 C5 1.394 . S
C6 C7 1.378 . S
C6 H34 0.931 . S
C7 C2 1.350 1_556 S
C7 C6 1.378 . S
C7 H35 0.931 . S
C8 O22 1.259 . S
C8 O23 1.270 1_545 S
C9 O24 1.251 . S
C9 O25 1.251 . S
C10 Eu11 2.832 1_554 S
C10 C12 1.503 . S
C10 O26 1.271 . S
C10 O27 1.244 1_554 S
Eu11 C10 2.832 1_556 S
Eu11 O23 2.355 1_556 S
Eu11 O25 2.374 1_566 S
Eu11 O26 2.473 1_556 S
Eu11 O27 2.480 . S
Eu11 O28 2.430 . S
Eu11 O29 2.670 1_565 S
Eu11 O30 2.394 . S
C12 C10 1.503 . S
C12 C13 1.377 1_554 S
C12 C17 1.377 . S
C13 C12 1.377 1_556 S
C13 C14 1.395 . S
C13 H36 0.931 . S
C14 C13 1.395 . S
C14 C15 1.383 1_556 S
C14 H37 0.931 . S
C15 C14 1.383 1_554 S
C15 C16 1.394 . S
C16 C15 1.394 . S
C16 C17 1.378 . S
C16 H38 0.931 . S
C17 C12 1.377 . S
C17 C16 1.378 . S
C17 H39 0.931 . S
C18 O28 1.259 1_545 S
C18 O29 1.270 . S
C19 O30 1.251 1_655 S
C19 O31 1.251 . S
O20 C0 1.257 1_556 S
O20 Eu1 2.473 1_556 S
O21 C0 1.260 . S
O21 Eu1 2.480 . S
O22 Eu1 2.430 . S
O22 C8 1.259 . S
O23 Eu1 2.670 1_565 S
O23 C8 1.270 1_565 S
O23 Eu11 2.355 1_554 S
O24 Eu1 2.394 . S
O24 C9 1.251 . S
O25 C9 1.251 . S
O25 Eu11 2.374 1_544 S
O26 C10 1.271 . S
O26 Eu11 2.473 1_554 S
O27 C10 1.244 1_556 S
O27 Eu11 2.480 . S
O28 Eu11 2.430 . S
O28 C18 1.259 1_565 S
O29 Eu1 2.355 1_556 S
O29 Eu11 2.670 1_545 S
O29 C18 1.270 . S
O30 Eu11 2.394 . S
O30 C19 1.251 1_455 S
O31 Eu1 2.374 1_666 S
O31 C19 1.251 . S
H32 C3 0.931 . S
H33 C4 0.931 . S
H34 C6 0.931 . S
H35 C7 0.931 . S
H36 C13 0.931 . S
H37 C14 0.931 . S
H38 C16 0.931 . S
H39 C17 0.931 . S
C40 Eu41 2.835 . S
C40 C42 1.500 . S
C40 O60 1.257 . S
C40 O61 1.260 . S
Eu41 C40 2.835 . S
Eu41 O60 2.473 . S
Eu41 O61 2.480 . S
Eu41 O62 2.430 . S
Eu41 O63 2.670 . S
Eu41 O64 2.394 1_545 S
Eu41 O69 2.355 . S
Eu41 O71 2.374 . S
C42 C40 1.500 . S
C42 C43 1.377 . S
C42 C47 1.377 . S
C43 C42 1.377 . S
C43 C44 1.395 . S
C43 H72 0.931 . S
C44 C43 1.395 . S
C44 C45 1.383 . S
C44 H73 0.931 . S
C45 C44 1.383 . S
C45 C46 1.394 . S
C46 C45 1.394 . S
C46 C47 1.378 . S
C46 H74 0.931 1_545 S
C47 C42 1.377 . S
C47 C46 1.378 . S
C47 H75 0.931 . S
C48 O62 1.259 . S
C48 O63 1.270 . S
C49 O64 1.251 . S
C49 O65 1.251 . S
C50 Eu51 2.835 1_545 S
C50 C52 1.500 . S
C50 O66 1.257 . S
C50 O67 1.260 1_545 S
Eu51 C50 2.835 1_565 S
Eu51 O63 2.355 1_665 S
Eu51 O65 2.374 1_655 S
Eu51 O66 2.473 1_565 S
Eu51 O67 2.480 . S
Eu51 O68 2.430 . S
Eu51 O69 2.670 1_665 S
Eu51 O70 2.394 1_665 S
C52 C50 1.500 . S
C52 C53 1.377 . S
C52 C57 1.377 . S
C53 C52 1.377 . S
C53 C54 1.395 . S
C53 H76 0.931 . S
C54 C53 1.395 . S
C54 C55 1.383 . S
C54 H77 0.931 . S
C55 C54 1.383 . S
C55 C56 1.394 . S
C56 C55 1.394 . S
C56 C57 1.378 . S
C56 H78 0.931 . S
C57 C52 1.377 . S
C57 C56 1.378 . S
C57 H79 0.931 . S
C58 O68 1.259 1_445 S
C58 O69 1.270 . S
C59 O70 1.251 . S
C59 O71 1.251 . S
O60 C40 1.257 . S
O60 Eu41 2.473 . S
O61 C40 1.260 . S
O61 Eu41 2.480 . S
O62 Eu41 2.430 . S
O62 C48 1.259 . S
O63 Eu41 2.670 . S
O63 C48 1.270 . S
O63 Eu51 2.355 1_445 S
O64 Eu41 2.394 1_565 S
O64 C49 1.251 . S
O65 C49 1.251 . S
O65 Eu51 2.374 1_455 S
O66 C50 1.257 . S
O66 Eu51 2.473 1_545 S
O67 C50 1.260 1_565 S
O67 Eu51 2.480 . S
O68 Eu51 2.430 . S
O68 C58 1.259 1_665 S
O69 Eu41 2.355 . S
O69 Eu51 2.670 1_445 S
O69 C58 1.270 . S
O70 Eu51 2.394 1_445 S
O70 C59 1.251 . S
O71 Eu41 2.374 . S
O71 C59 1.251 . S
H72 C43 0.931 . S
H73 C44 0.931 . S
H74 C46 0.931 1_565 S
H75 C47 0.931 . S
H76 C53 0.931 . S
H77 C54 0.931 . S
H78 C56 0.931 . S
H79 C57 0.931 . S
C80 Eu81 2.835 . S
C80 C82 1.500 . S
C80 O100 1.257 . S
C80 O101 1.260 . S
Eu81 C80 2.835 . S
Eu81 O100 2.473 . S
Eu81 O101 2.480 . S
Eu81 O102 2.430 . S
Eu81 O103 2.670 . S
Eu81 O104 2.394 . S
Eu81 O109 2.355 . S
Eu81 O111 2.374 1_455 S
C82 C80 1.500 . S
C82 C83 1.377 . S
C82 C87 1.377 . S
C83 C82 1.377 . S
C83 C84 1.395 . S
C83 H112 0.931 . S
C84 C83 1.395 . S
C84 C85 1.383 . S
C84 H113 0.931 . S
C85 C84 1.383 . S
C85 C86 1.394 . S
C86 C85 1.394 . S
C86 C87 1.378 . S
C86 H114 0.931 . S
C87 C82 1.377 . S
C87 C86 1.378 . S
C87 H115 0.931 . S
C88 O102 1.259 . S
C88 O103 1.270 . S
C89 O104 1.251 . S
C89 O105 1.251 1_545 S
C90 Eu91 2.835 . S
C90 C92 1.500 . S
C90 O106 1.257 . S
C90 O107 1.260 . S
Eu91 C90 2.835 . S
Eu91 O103 2.355 1_665 S
Eu91 O105 2.374 1_655 S
Eu91 O106 2.473 . S
Eu91 O107 2.480 . S
Eu91 O108 2.430 . S
Eu91 O109 2.670 1_665 S
Eu91 O110 2.394 . S
C92 C90 1.500 . S
C92 C93 1.377 . S
C92 C97 1.377 . S
C93 C92 1.377 . S
C93 C94 1.395 . S
C93 H116 0.931 . S
C94 C93 1.395 . S
C94 C95 1.383 . S
C94 H117 0.931 . S
C95 C94 1.383 . S
C95 C96 1.394 . S
C96 C95 1.394 . S
C96 C97 1.378 . S
C96 H118 0.931 . S
C97 C92 1.377 . S
C97 C96 1.378 . S
C97 H119 0.931 . S
C98 O108 1.259 1_445 S
C98 O109 1.270 . S
C99 O110 1.251 1_545 S
C99 O111 1.251 . S
O100 C80 1.257 . S
O100 Eu81 2.473 . S
O101 C80 1.260 . S
O101 Eu81 2.480 . S
O102 Eu81 2.430 . S
O102 C88 1.259 . S
O103 Eu81 2.670 . S
O103 C88 1.270 . S
O103 Eu91 2.355 1_445 S
O104 Eu81 2.394 . S
O104 C89 1.251 . S
O105 C89 1.251 1_565 S
O105 Eu91 2.374 1_455 S
O106 C90 1.257 . S
O106 Eu91 2.473 . S
O107 C90 1.260 . S
O107 Eu91 2.480 . S
O108 Eu91 2.430 . S
O108 C98 1.259 1_665 S
O109 Eu81 2.355 . S
O109 Eu91 2.670 1_445 S
O109 C98 1.270 . S
O110 Eu91 2.394 . S
O110 C99 1.251 1_565 S
O111 Eu81 2.374 1_655 S
O111 C99 1.251 . S
H112 C83 0.931 . S
H113 C84 0.931 . S
H114 C86 0.931 . S
H115 C87 0.931 . S
H116 C93 0.931 . S
H117 C94 0.931 . S
H118 C96 0.931 . S
H119 C97 0.931 . S
H120 C138 0.951 . S
H121 C140 0.951 . S
H122 C142 0.950 . S
H123 C143 0.950 . S
H124 C145 0.949 . S
H125 C148 0.950 . S
H126 C149 0.950 . S
H127 C151 0.950 . S
H128 C152 0.950 . S
H129 C153 0.951 . S
H130 C155 0.951 . S
H131 C157 0.950 1_655 S
H132 C158 0.950 1_655 S
H133 C160 0.950 1_655 S
H134 C163 0.950 . S
H135 C164 0.950 . S
H136 C166 0.950 1_556 S
H137 C167 0.950 . S
C138 H120 0.951 . S
C138 C139 1.366 1_554 S
C138 C140 1.388 . S
C139 C138 1.366 1_556 S
C139 C143 1.385 . S
C140 H121 0.951 . S
C140 C138 1.388 . S
C140 C141 1.366 1_554 S
C141 C140 1.366 1_556 S
C141 C142 1.414 . S
C141 C144 1.499 . S
C142 H122 0.950 . S
C142 C141 1.414 . S
C142 C143 1.374 . S
C143 H123 0.950 . S
C143 C139 1.385 . S
C143 C142 1.374 . S
C144 C141 1.499 . S
C144 C145 1.373 1_556 S
C144 C146 1.389 . S
C145 H124 0.949 . S
C145 C144 1.373 1_554 S
C145 C161 1.382 . S
C146 C144 1.389 . S
C146 C147 1.524 1_455 S
C146 C160 1.377 1_556 S
C147 C146 1.524 1_655 S
C147 C148 1.397 . S
C147 C152 1.363 1_556 S
C148 H125 0.950 . S
C148 C147 1.397 . S
C148 C149 1.334 . S
C149 H126 0.950 . S
C149 C148 1.334 . S
C149 C150 1.287 . S
C150 C149 1.287 . S
C150 C151 1.524 1_556 S
C150 H169 0.913 . S
C151 H127 0.950 . S
C151 C150 1.524 1_554 S
C151 C152 1.415 . S
C152 H128 0.950 . S
C152 C147 1.363 1_554 S
C152 C151 1.415 . S
C153 H129 0.951 . S
C153 C154 1.366 1_556 S
C153 C155 1.388 . S
C154 C153 1.366 1_554 S
C154 C158 1.385 . S
C155 H130 0.951 . S
C155 C153 1.388 . S
C155 C156 1.366 1_556 S
C156 C155 1.366 1_554 S
C156 C157 1.414 . S
C156 C159 1.499 . S
C157 H131 0.950 1_455 S
C157 C156 1.414 . S
C157 C158 1.374 . S
C158 H132 0.950 1_455 S
C158 C154 1.385 . S
C158 C157 1.374 . S
C159 C156 1.499 . S
C159 C160 1.373 . S
C159 C161 1.389 . S
C160 H133 0.950 1_455 S
C160 C146 1.377 1_554 S
C160 C159 1.373 . S
C161 C145 1.382 . S
C161 C159 1.389 . S
C161 C162 1.524 . S
C162 C161 1.524 . S
C162 C163 1.397 . S
C162 C167 1.363 1_554 S
C163 H134 0.950 . S
C163 C162 1.397 . S
C163 C164 1.334 . S
C164 H135 0.950 . S
C164 C163 1.334 . S
C164 C165 1.287 . S
C165 C164 1.287 . S
C165 C166 1.524 . S
C165 H168 0.999 . S
C166 H136 0.950 1_554 S
C166 C165 1.524 . S
C166 C167 1.415 1_554 S
C167 H137 0.950 . S
C167 C162 1.363 1_556 S
C167 C166 1.415 1_556 S
H168 C165 0.999 . S
H169 C150 0.913 . S
H170 C188 0.951 . S
H171 C190 0.951 . S
H172 C192 0.950 . S
H173 C193 0.950 . S
H174 C195 0.950 1_565 S
H175 C198 0.950 1_565 S
H176 C199 0.950 1_565 S
H177 C201 0.950 . S
H178 C202 0.950 . S
H179 C203 0.951 1_565 S
H180 C205 0.944 1_565 S
H181 C207 0.950 . S
H182 C208 0.950 . S
H183 C210 0.950 . S
H184 C213 0.950 . S
H185 C214 0.950 . S
H186 C216 0.950 . S
H187 C217 0.950 . S
C188 H170 0.951 . S
C188 C189 1.366 . S
C188 C190 1.388 . S
C189 C188 1.366 . S
C189 C193 1.385 1_545 S
C190 H171 0.951 . S
C190 C188 1.388 . S
C190 C191 1.366 . S
C191 C190 1.366 . S
C191 C192 1.414 1_545 S
C191 C194 1.499 . S
C192 H172 0.950 . S
C192 C191 1.414 1_565 S
C192 C193 1.374 . S
C193 H173 0.950 . S
C193 C189 1.385 1_565 S
C193 C192 1.374 . S
C194 C191 1.499 . S
C194 C195 1.373 . S
C194 C196 1.389 . S
C195 H174 0.950 1_545 S
C195 C194 1.373 . S
C195 C211 1.377 . S
C196 C194 1.389 . S
C196 C197 1.524 . S
C196 C210 1.377 . S
C197 C196 1.524 . S
C197 C198 1.397 . S
C197 C202 1.363 . S
C198 H175 0.950 1_545 S
C198 C197 1.397 . S
C198 C199 1.334 . S
C199 H176 0.950 1_545 S
C199 C198 1.334 . S
C199 C200 1.287 . S
C200 C199 1.287 . S
C200 C201 1.524 . S
C200 H219 0.913 . S
C201 H177 0.950 . S
C201 C200 1.524 . S
C201 C202 1.415 . S
C202 H178 0.950 . S
C202 C197 1.363 . S
C202 C201 1.415 . S
C203 H179 0.951 1_545 S
C203 C204 1.366 . S
C203 C205 1.382 . S
C204 C203 1.366 . S
C204 C208 1.385 . S
C205 H180 0.944 1_545 S
C205 C203 1.382 . S
C205 C206 1.378 . S
C206 C205 1.378 . S
C206 C207 1.414 . S
C206 C209 1.499 . S
C207 H181 0.950 . S
C207 C206 1.414 . S
C207 C208 1.374 . S
C208 H182 0.950 . S
C208 C204 1.385 . S
C208 C207 1.374 . S
C209 C206 1.499 . S
C209 C210 1.373 . S
C209 C211 1.389 . S
C210 H183 0.950 . S
C210 C196 1.377 . S
C210 C209 1.373 . S
C211 C195 1.377 . S
C211 C209 1.389 . S
C211 C212 1.524 . S
C212 C211 1.524 . S
C212 C213 1.397 . S
C212 C217 1.363 1_545 S
C213 H184 0.950 . S
C213 C212 1.397 . S
C213 C214 1.334 . S
C214 H185 0.950 . S
C214 C213 1.334 . S
C214 C215 1.287 1_545 S
C215 C214 1.287 1_565 S
C215 C216 1.524 . S
C215 H218 0.999 . S
C216 H186 0.950 . S
C216 C215 1.524 . S
C216 C217 1.415 . S
C217 H187 0.950 . S
C217 C212 1.363 1_565 S
C217 C216 1.415 . S
H218 C215 0.999 . S
H219 C200 0.913 . S
H220 C238 0.951 . S
H221 C240 0.951 . S
H222 C242 0.950 . S
H223 C243 0.950 . S
H224 C245 0.950 . S
H225 C248 0.950 . S
H226 C249 0.950 . S
H227 C251 0.950 . S
H228 C252 0.950 . S
H229 C253 0.951 . S
H230 C255 0.951 . S
H231 C257 0.950 . S
H232 C258 0.950 . S
H233 C260 0.950 . S
H234 C263 0.950 . S
H235 C264 0.950 . S
H236 C266 0.950 . S
H237 C267 0.950 . S
C238 H220 0.951 . S
C238 C239 1.366 . S
C238 C240 1.388 . S
C239 C238 1.366 . S
C239 C243 1.385 . S
C240 H221 0.951 . S
C240 C238 1.388 . S
C240 C241 1.366 . S
C241 C240 1.366 . S
C241 C242 1.414 . S
C241 C244 1.499 . S
C242 H222 0.950 . S
C242 C241 1.414 . S
C242 C243 1.374 . S
C243 H223 0.950 . S
C243 C239 1.385 . S
C243 C242 1.374 . S
C244 C241 1.499 . S
C244 C245 1.373 . S
C244 C246 1.389 . S
C245 H224 0.950 . S
C245 C244 1.373 . S
C245 C261 1.377 . S
C246 C244 1.389 . S
C246 C247 1.524 . S
C246 C260 1.377 . S
C247 C246 1.524 . S
C247 C248 1.397 . S
C247 C252 1.363 . S
C248 H225 0.950 . S
C248 C247 1.397 . S
C248 C249 1.334 . S
C249 H226 0.950 . S
C249 C248 1.334 . S
C249 C250 1.287 . S
C250 C249 1.287 . S
C250 C251 1.524 . S
C250 H269 0.913 . S
C251 H227 0.950 . S
C251 C250 1.524 . S
C251 C252 1.415 . S
C252 H228 0.950 . S
C252 C247 1.363 . S
C252 C251 1.415 . S
C253 H229 0.951 . S
C253 C254 1.366 . S
C253 C255 1.388 . S
C254 C253 1.366 . S
C254 C258 1.385 . S
C255 H230 0.951 . S
C255 C253 1.388 . S
C255 C256 1.366 . S
C256 C255 1.366 . S
C256 C257 1.414 . S
C256 C259 1.499 . S
C257 H231 0.950 . S
C257 C256 1.414 . S
C257 C258 1.374 . S
C258 H232 0.950 . S
C258 C254 1.385 . S
C258 C257 1.374 . S
C259 C256 1.499 . S
C259 C260 1.373 . S
C259 C261 1.389 . S
C260 H233 0.950 . S
C260 C246 1.377 . S
C260 C259 1.373 . S
C261 C245 1.377 . S
C261 C259 1.389 . S
C261 C262 1.524 . S
C262 C261 1.524 . S
C262 C263 1.397 . S
C262 C267 1.363 . S
C263 H234 0.950 . S
C263 C262 1.397 . S
C263 C264 1.334 . S
C264 H235 0.950 . S
C264 C263 1.334 . S
C264 C265 1.287 . S
C265 C264 1.287 . S
C265 C266 1.524 . S
C265 H268 0.999 . S
C266 H236 0.950 . S
C266 C265 1.524 . S
C266 C267 1.415 . S
C267 H237 0.950 . S
C267 C262 1.363 . S
C267 C266 1.415 . S
H268 C265 0.999 . S
H269 C250 0.913 . S
H270 C288 0.951 . S
H271 C290 0.951 . S
H272 C292 0.950 . S
H273 C293 0.950 . S
H274 C295 0.950 . S
H275 C298 0.950 . S
H276 C299 0.950 . S
H277 C301 0.950 . S
H278 C302 0.950 1_565 S
H279 C303 0.951 . S
H280 C305 0.951 . S
H281 C307 0.950 . S
H282 C308 0.948 1_565 S
H283 C310 0.950 . S
H284 C313 0.950 . S
H285 C314 0.950 . S
H286 C316 0.950 . S
H287 C317 0.950 . S
C288 H270 0.951 . S
C288 C289 1.366 1_565 S
C288 C290 1.388 . S
C289 C288 1.366 1_545 S
C289 C293 1.385 . S
C290 H271 0.951 . S
C290 C288 1.388 . S
C290 C291 1.366 1_565 S
C291 C290 1.366 1_545 S
C291 C292 1.414 . S
C291 C294 1.499 . S
C292 H272 0.950 . S
C292 C291 1.414 . S
C292 C293 1.374 . S
C293 H273 0.950 . S
C293 C289 1.385 . S
C293 C292 1.374 . S
C294 C291 1.499 . S
C294 C295 1.373 . S
C294 C296 1.389 . S
C295 H274 0.950 . S
C295 C294 1.373 . S
C295 C311 1.377 . S
C296 C294 1.389 . S
C296 C297 1.524 . S
C296 C310 1.377 . S
C297 C296 1.524 . S
C297 C298 1.397 . S
C297 C302 1.363 . S
C298 H275 0.950 . S
C298 C297 1.397 . S
C298 C299 1.334 . S
C299 H276 0.950 . S
C299 C298 1.334 . S
C299 C300 1.287 . S
C300 C299 1.287 . S
C300 C301 1.524 . S
C300 H319 0.913 . S
C301 H277 0.950 . S
C301 C300 1.524 . S
C301 C302 1.415 . S
C302 H278 0.950 1_545 S
C302 C297 1.363 . S
C302 C301 1.415 . S
C303 H279 0.951 . S
C303 C304 1.366 . S
C303 C305 1.388 . S
C304 C303 1.366 . S
C304 C308 1.393 . S
C305 H280 0.951 . S
C305 C303 1.388 . S
C305 C306 1.366 . S
C306 C305 1.366 . S
C306 C307 1.414 1_545 S
C306 C309 1.499 . S
C307 H281 0.950 . S
C307 C306 1.414 1_565 S
C307 C308 1.368 1_565 S
C308 H282 0.948 1_545 S
C308 C304 1.393 . S
C308 C307 1.368 1_545 S
C309 C306 1.499 . S
C309 C310 1.373 . S
C309 C311 1.389 . S
C310 H283 0.950 . S
C310 C296 1.377 . S
C310 C309 1.373 . S
C311 C295 1.377 . S
C311 C309 1.389 . S
C311 C312 1.524 . S
C312 C311 1.524 . S
C312 C313 1.397 1_545 S
C312 C317 1.363 . S
C313 H284 0.950 . S
C313 C312 1.397 1_565 S
C313 C314 1.334 . S
C314 H285 0.950 . S
C314 C313 1.334 . S
C314 C315 1.287 . S
C315 C314 1.287 . S
C315 C316 1.524 1_565 S
C315 H318 0.999 . S
C316 H286 0.950 . S
C316 C315 1.524 1_545 S
C316 C317 1.415 . S
C317 H287 0.950 . S
C317 C312 1.363 . S
C317 C316 1.415 . S
H318 C315 0.999 . S
H319 C300 0.913 . S
H320 C338 0.951 . S
H321 C340 0.951 . S
H322 C342 0.950 . S
H323 C343 0.950 . S
H324 C345 0.950 . S
H325 C348 0.950 . S
H326 C349 0.950 . S
H327 C351 0.950 . S
H328 C352 0.950 . S
H329 C353 0.951 . S
H330 C355 0.951 . S
H331 C357 0.950 . S
H332 C358 0.950 . S
H333 C360 0.950 . S
H334 C363 0.950 . S
H335 C364 0.950 . S
H336 C366 0.950 . S
H337 C367 0.950 . S
C338 H320 0.951 . S
C338 C339 1.355 1_554 S
C338 C340 1.388 . S
C339 C338 1.355 1_556 S
C339 C343 1.390 . S
C340 H321 0.951 . S
C340 C338 1.388 . S
C340 C341 1.366 . S
C341 C340 1.366 . S
C341 C342 1.414 1_554 S
C341 C344 1.499 . S
C342 H322 0.950 . S
C342 C341 1.414 1_556 S
C342 C343 1.374 . S
C343 H323 0.950 . S
C343 C339 1.390 . S
C343 C342 1.374 . S
C344 C341 1.499 . S
C344 C345 1.373 1_554 S
C344 C346 1.389 . S
C345 H324 0.950 . S
C345 C344 1.373 1_556 S
C345 C361 1.377 . S
C346 C344 1.389 . S
C346 C347 1.524 . S
C346 C360 1.377 . S
C347 C346 1.524 . S
C347 C348 1.397 . S
C347 C352 1.363 . S
C348 H325 0.950 . S
C348 C347 1.397 . S
C348 C349 1.334 . S
C349 H326 0.950 . S
C349 C348 1.334 . S
C349 C350 1.287 . S
C350 C349 1.287 . S
C350 C351 1.524 . S
C350 H369 0.913 . S
C351 H327 0.950 . S
C351 C350 1.524 . S
C351 C352 1.415 . S
C352 H328 0.950 . S
C352 C347 1.363 . S
C352 C351 1.415 . S
C353 H329 0.951 . S
C353 C354 1.366 1_556 S
C353 C355 1.388 . S
C354 C353 1.366 1_554 S
C354 C358 1.385 . S
C355 H330 0.951 . S
C355 C353 1.388 . S
C355 C356 1.366 1_556 S
C356 C355 1.366 1_554 S
C356 C357 1.414 . S
C356 C359 1.499 . S
C357 H331 0.950 . S
C357 C356 1.414 . S
C357 C358 1.374 . S
C358 H332 0.950 . S
C358 C354 1.385 . S
C358 C357 1.374 . S
C359 C356 1.499 . S
C359 C360 1.373 . S
C359 C361 1.389 1_554 S
C360 H333 0.950 . S
C360 C346 1.377 . S
C360 C359 1.373 . S
C361 C345 1.377 . S
C361 C359 1.389 1_556 S
C361 C362 1.524 . S
C362 C361 1.524 . S
C362 C363 1.397 . S
C362 C367 1.363 . S
C363 H334 0.950 . S
C363 C362 1.397 . S
C363 C364 1.334 . S
C364 H335 0.950 . S
C364 C363 1.334 . S
C364 C365 1.287 . S
C365 C364 1.287 . S
C365 C366 1.524 . S
C365 H368 0.999 . S
C366 H336 0.950 . S
C366 C365 1.524 . S
C366 C367 1.415 . S
C367 H337 0.950 . S
C367 C362 1.363 . S
C367 C366 1.415 . S
H368 C365 0.999 . S
H369 C350 0.913 . S
H370 C388 0.951 . S
H371 C390 0.951 . S
H372 C392 0.950 1_655 S
H373 C393 0.950 1_655 S
H374 C395 0.950 1_655 S
H375 C398 0.950 . S
H376 C399 0.950 . S
H377 C401 0.950 . S
H378 C402 0.950 . S
H379 C403 0.951 1_655 S
H380 C405 0.951 1_655 S
H381 C407 0.950 . S
H382 C408 0.950 . S
H383 C410 0.950 . S
H384 C413 0.950 . S
H385 C414 0.950 . S
H386 C416 0.950 . S
H387 C417 0.950 . S
C388 H370 0.951 . S
C388 C389 1.366 . S
C388 C390 1.388 . S
C389 C388 1.366 . S
C389 C393 1.385 . S
C390 H371 0.951 . S
C390 C388 1.388 . S
C390 C391 1.366 . S
C391 C390 1.366 . S
C391 C392 1.414 . S
C391 C394 1.499 . S
C392 H372 0.950 1_455 S
C392 C391 1.414 . S
C392 C393 1.374 . S
C393 H373 0.950 1_455 S
C393 C389 1.385 . S
C393 C392 1.374 . S
C394 C391 1.499 . S
C394 C395 1.373 . S
C394 C396 1.389 . S
C395 H374 0.950 1_455 S
C395 C394 1.373 . S
C395 C411 1.377 . S
C396 C394 1.389 . S
C396 C397 1.524 . S
C396 C410 1.377 . S
C397 C396 1.524 . S
C397 C398 1.397 . S
C397 C402 1.363 . S
C398 H375 0.950 . S
C398 C397 1.397 . S
C398 C399 1.334 . S
C399 H376 0.950 . S
C399 C398 1.334 . S
C399 C400 1.287 . S
C400 C399 1.287 . S
C400 C401 1.524 . S
C400 H419 0.913 . S
C401 H377 0.950 . S
C401 C400 1.524 . S
C401 C402 1.415 . S
C402 H378 0.950 . S
C402 C397 1.363 . S
C402 C401 1.415 . S
C403 H379 0.951 1_455 S
C403 C404 1.366 . S
C403 C405 1.388 . S
C404 C403 1.366 . S
C404 C408 1.385 . S
C405 H380 0.951 1_455 S
C405 C403 1.388 . S
C405 C406 1.366 . S
C406 C405 1.366 . S
C406 C407 1.414 . S
C406 C409 1.499 . S
C407 H381 0.950 . S
C407 C406 1.414 . S
C407 C408 1.374 . S
C408 H382 0.950 . S
C408 C404 1.385 . S
C408 C407 1.374 . S
C409 C406 1.499 . S
C409 C410 1.373 . S
C409 C411 1.389 . S
C410 H383 0.950 . S
C410 C396 1.377 . S
C410 C409 1.373 . S
C411 C395 1.377 . S
C411 C409 1.389 . S
C411 C412 1.524 1_455 S
C412 C411 1.524 1_655 S
C412 C413 1.397 . S
C412 C417 1.363 . S
C413 H384 0.950 . S
C413 C412 1.397 . S
C413 C414 1.334 . S
C414 H385 0.950 . S
C414 C413 1.334 . S
C414 C415 1.287 . S
C415 C414 1.287 . S
C415 C416 1.524 . S
C415 H418 0.999 . S
C416 H386 0.950 . S
C416 C415 1.524 . S
C416 C417 1.415 . S
C417 H387 0.950 . S
C417 C412 1.363 . S
C417 C416 1.415 . S
H418 C415 0.999 . S
H419 C400 0.913 . S
H420 C438 0.951 . S
H421 C440 0.951 . S
H422 C442 0.950 . S
H423 C443 0.950 . S
H424 C445 0.950 . S
H425 C448 0.950 . S
H426 C449 0.950 . S
H427 C451 0.950 . S
H428 C452 0.950 . S
H429 C453 0.951 . S
H430 C455 0.951 . S
H431 C457 0.950 . S
H432 C458 0.950 . S
H433 C460 0.950 . S
H434 C463 0.950 . S
H435 C464 0.950 . S
H436 C466 0.950 . S
H437 C467 0.950 . S
C438 H420 0.951 . S
C438 C439 1.366 1_565 S
C438 C440 1.388 . S
C439 C438 1.366 1_545 S
C439 C443 1.385 . S
C440 H421 0.951 . S
C440 C438 1.388 . S
C440 C441 1.366 1_565 S
C441 C440 1.366 1_545 S
C441 C442 1.414 . S
C441 C444 1.499 . S
C442 H422 0.950 . S
C442 C441 1.414 . S
C442 C443 1.374 . S
C443 H423 0.950 . S
C443 C439 1.385 . S
C443 C442 1.374 . S
C444 C441 1.499 . S
C444 C445 1.373 . S
C444 C446 1.389 . S
C445 H424 0.950 . S
C445 C444 1.373 . S
C445 C461 1.377 . S
C446 C444 1.389 . S
C446 C447 1.524 . S
C446 C460 1.377 . S
C447 C446 1.524 . S
C447 C448 1.397 . S
C447 C452 1.363 1_545 S
C448 H425 0.950 . S
C448 C447 1.397 . S
C448 C449 1.334 . S
C449 H426 0.950 . S
C449 C448 1.334 . S
C449 C450 1.287 . S
C450 C449 1.287 . S
C450 C451 1.524 1_545 S
C450 H469 0.913 . S
C451 H427 0.950 . S
C451 C450 1.524 1_565 S
C451 C452 1.415 . S
C452 H428 0.950 . S
C452 C447 1.363 1_565 S
C452 C451 1.415 . S
C453 H429 0.951 . S
C453 C454 1.366 . S
C453 C455 1.388 . S
C454 C453 1.366 . S
C454 C458 1.385 1_545 S
C455 H430 0.951 . S
C455 C453 1.388 . S
C455 C456 1.366 . S
C456 C455 1.366 . S
C456 C457 1.414 1_545 S
C456 C459 1.499 . S
C457 H431 0.950 . S
C457 C456 1.414 1_565 S
C457 C458 1.374 . S
C458 H432 0.950 . S
C458 C454 1.385 1_565 S
C458 C457 1.374 . S
C459 C456 1.499 . S
C459 C460 1.373 . S
C459 C461 1.389 . S
C460 H433 0.950 . S
C460 C446 1.377 . S
C460 C459 1.373 . S
C461 C445 1.377 . S
C461 C459 1.389 . S
C461 C462 1.524 1_455 S
C462 C461 1.524 1_655 S
C462 C463 1.397 1_545 S
C462 C467 1.363 . S
C463 H434 0.950 . S
C463 C462 1.397 1_565 S
C463 C464 1.334 . S
C464 H435 0.950 . S
C464 C463 1.334 . S
C464 C465 1.287 1_565 S
C465 C464 1.287 1_545 S
C465 C466 1.524 . S
C465 H468 0.999 . S
C466 H436 0.950 . S
C466 C465 1.524 . S
C466 C467 1.415 . S
C467 H437 0.950 . S
C467 C462 1.363 . S
C467 C466 1.415 . S
H468 C465 0.999 . S
H469 C450 0.913 . S
H470 C488 0.951 . S
H471 C490 0.951 . S
H472 C492 0.950 1_655 S
H473 C493 0.950 1_655 S
H474 C495 0.950 . S
H475 C498 0.950 . S
H476 C499 0.950 . S
H477 C501 0.950 . S
H478 C502 0.950 . S
H479 C503 0.951 . S
H480 C505 0.951 . S
H481 C507 0.950 . S
H482 C508 0.950 . S
H483 C510 0.950 . S
H484 C513 0.950 . S
H485 C514 0.950 . S
H486 C516 0.950 1_655 S
H487 C517 0.950 . S
C488 H470 0.951 . S
C488 C489 1.366 . S
C488 C490 1.388 . S
C489 C488 1.366 . S
C489 C493 1.385 . S
C490 H471 0.951 . S
C490 C488 1.388 . S
C490 C491 1.366 . S
C491 C490 1.366 . S
C491 C492 1.414 . S
C491 C494 1.499 . S
C492 H472 0.950 1_455 S
C492 C491 1.414 . S
C492 C493 1.374 . S
C493 H473 0.950 1_455 S
C493 C489 1.385 . S
C493 C492 1.374 . S
C494 C491 1.499 . S
C494 C495 1.373 . S
C494 C496 1.389 1_545 S
C495 H474 0.950 . S
C495 C494 1.373 . S
C495 C511 1.377 . S
C496 C494 1.389 1_565 S
C496 C497 1.524 . S
C496 C510 1.377 . S
C497 C496 1.524 . S
C497 C498 1.397 1_455 S
C497 C502 1.363 . S
C498 H475 0.950 . S
C498 C497 1.397 1_655 S
C498 C499 1.334 . S
C499 H476 0.950 . S
C499 C498 1.334 . S
C499 C500 1.287 1_655 S
C500 C499 1.287 1_455 S
C500 C501 1.524 . S
C500 H519 0.913 . S
C501 H477 0.950 . S
C501 C500 1.524 . S
C501 C502 1.415 . S
C502 H478 0.950 . S
C502 C497 1.363 . S
C502 C501 1.415 . S
C503 H479 0.951 . S
C503 C504 1.366 1_655 S
C503 C505 1.388 . S
C504 C503 1.366 1_455 S
C504 C508 1.385 . S
C505 H480 0.951 . S
C505 C503 1.388 . S
C505 C506 1.366 1_655 S
C506 C505 1.366 1_455 S
C506 C507 1.414 . S
C506 C509 1.499 . S
C507 H481 0.950 . S
C507 C506 1.414 . S
C507 C508 1.374 . S
C508 H482 0.950 . S
C508 C504 1.385 . S
C508 C507 1.374 . S
C509 C506 1.499 . S
C509 C510 1.373 1_545 S
C509 C511 1.389 . S
C510 H483 0.950 . S
C510 C496 1.377 . S
C510 C509 1.373 1_565 S
C511 C495 1.377 . S
C511 C509 1.389 . S
C511 C512 1.524 . S
C512 C511 1.524 . S
C512 C513 1.397 . S
C512 C517 1.363 1_455 S
C513 H484 0.950 . S
C513 C512 1.397 . S
C513 C514 1.334 . S
C514 H485 0.950 . S
C514 C513 1.334 . S
C514 C515 1.287 . S
C515 C514 1.287 . S
C515 C516 1.524 . S
C515 H518 0.999 . S
C516 H486 0.950 1_455 S
C516 C515 1.524 . S
C516 C517 1.415 1_455 S
C517 H487 0.950 . S
C517 C512 1.363 1_655 S
C517 C516 1.415 1_655 S
H518 C515 0.999 . S
H519 C500 0.913 . S
H520 C538 0.951 . S
H521 C540 0.951 . S
H522 C542 0.950 . S
H523 C543 0.950 . S
H524 C545 0.950 . S
H525 C548 0.950 . S
H526 C549 0.950 . S
H527 C551 0.950 . S
H528 C552 0.950 . S
H529 C553 0.951 . S
H530 C555 0.951 1_655 S
H531 C557 0.950 . S
H532 C558 0.950 . S
H533 C560 0.950 . S
H534 C563 0.950 1_545 S
H535 C564 0.950 . S
H536 C566 0.950 . S
H537 C567 0.950 . S
C538 H520 0.951 . S
C538 C539 1.366 . S
C538 C540 1.388 . S
C539 C538 1.366 . S
C539 C543 1.385 1_445 S
C540 H521 0.951 . S
C540 C538 1.388 . S
C540 C541 1.366 . S
C541 C540 1.366 . S
C541 C542 1.414 1_445 S
C541 C544 1.499 . S
C542 H522 0.950 . S
C542 C541 1.414 1_665 S
C542 C543 1.374 . S
C543 H523 0.950 . S
C543 C539 1.385 1_665 S
C543 C542 1.374 . S
C544 C541 1.499 . S
C544 C545 1.373 1_445 S
C544 C546 1.389 . S
C545 H524 0.950 . S
C545 C544 1.373 1_665 S
C545 C561 1.377 . S
C546 C544 1.389 . S
C546 C547 1.524 . S
C546 C560 1.377 . S
C547 C546 1.524 . S
C547 C548 1.397 . S
C547 C552 1.363 . S
C548 H525 0.950 . S
C548 C547 1.397 . S
C548 C549 1.334 . S
C549 H526 0.950 . S
C549 C548 1.334 . S
C549 C550 1.287 . S
C550 C549 1.287 . S
C550 C551 1.524 . S
C550 H569 0.913 . S
C551 H527 0.950 . S
C551 C550 1.524 . S
C551 C552 1.415 . S
C552 H528 0.950 . S
C552 C547 1.363 . S
C552 C551 1.415 . S
C553 H529 0.951 . S
C553 C554 1.366 1_565 S
C553 C555 1.388 . S
C554 C553 1.366 1_545 S
C554 C558 1.385 . S
C555 H530 0.951 1_455 S
C555 C553 1.388 . S
C555 C556 1.366 1_565 S
C556 C555 1.366 1_545 S
C556 C557 1.414 . S
C556 C559 1.499 . S
C557 H531 0.950 . S
C557 C556 1.414 . S
C557 C558 1.374 . S
C558 H532 0.950 . S
C558 C554 1.385 . S
C558 C557 1.374 . S
C559 C556 1.499 . S
C559 C560 1.373 . S
C559 C561 1.389 1_445 S
C560 H533 0.950 . S
C560 C546 1.377 . S
C560 C559 1.373 . S
C561 C545 1.377 . S
C561 C559 1.389 1_665 S
C561 C562 1.524 . S
C562 C561 1.524 . S
C562 C563 1.397 . S
C562 C567 1.363 . S
C563 H534 0.950 1_565 S
C563 C562 1.397 . S
C563 C564 1.334 . S
C564 H535 0.950 . S
C564 C563 1.334 . S
C564 C565 1.287 . S
C565 C564 1.287 . S
C565 C566 1.524 . S
C565 H568 0.999 . S
C566 H536 0.950 . S
C566 C565 1.524 . S
C566 C567 1.415 . S
C567 H537 0.950 . S
C567 C562 1.363 . S
C567 C566 1.415 . S
H568 C565 0.999 . S
H569 C550 0.913 . S
C139 C5 1.117 . S
C154 C15 1.117 . S
C189 C45 1.124 . S
C204 C55 1.124 . S
C239 C95 1.126 . S
C254 C85 1.126 . S
C289 C99 4.792 . S
C304 C89 4.792 . S
C339 C19 4.813 . S
C354 C9 4.806 . S
C389 C59 4.785 . S
C404 C49 4.785 . S
C439 C58 1.460 . S
C454 C8 1.445 . S
C489 C48 1.469 . S
C504 C98 1.455 . S
C539 C88 1.473 . S
C554 C18 1.474 . S
