# Generated by pormake.
# Topology sxa, (6)-cn, num edge types: 1
# Building blocks:
#     Node 0, Type 0, BuildingBlock: PAMTUU_clean_sbu_0, # of connection points: 6
#     Node 1, Type 0, BuildingBlock: PAMTUU_clean_sbu_0, # of connection points: 6
#     Node 2, Type 0, BuildingBlock: PAMTUU_clean_sbu_0, # of connection points: 6
#     Node 3, Type 0, BuildingBlock: PAMTUU_clean_sbu_0, # of connection points: 6
#     Edge 4, Type (0, 0), BuildingBlock: EZIPEK_clean_linker_0, # of connection points: 2
#     Edge 5, Type (0, 0), BuildingBlock: EZIPEK_clean_linker_0, # of connection points: 2
#     Edge 6, Type (0, 0), BuildingBlock: EZIPEK_clean_linker_0, # of connection points: 2
#     Edge 7, Type (0, 0), BuildingBlock: EZIPEK_clean_linker_0, # of connection points: 2
#     Edge 8, Type (0, 0), BuildingBlock: EZIPEK_clean_linker_0, # of connection points: 2
#     Edge 9, Type (0, 0), BuildingBlock: EZIPEK_clean_linker_0, # of connection points: 2
#     Edge 10, Type (0, 0), BuildingBlock: EZIPEK_clean_linker_0, # of connection points: 2
#     Edge 11, Type (0, 0), BuildingBlock: EZIPEK_clean_linker_0, # of connection points: 2
#     Edge 12, Type (0, 0), BuildingBlock: EZIPEK_clean_linker_0, # of connection points: 2
#     Edge 13, Type (0, 0), BuildingBlock: EZIPEK_clean_linker_0, # of connection points: 2
#     Edge 14, Type (0, 0), BuildingBlock: EZIPEK_clean_linker_0, # of connection points: 2
#     Edge 15, Type (0, 0), BuildingBlock: EZIPEK_clean_linker_0, # of connection points: 2
# Relax obj value: 0.322
# Max RMSD: 0.315
# Mean RMSD: 0.315
data_MOF--net-sxa--node1-PAMTUU_clean_sbu_0--edge1-EZIPEK_clean_linker_0
_symmetry_space_group_name_H-M    P1
_symmetry_Int_Tables_number       1
_symmetry_cell_setting            triclinic
loop_
_symmetry_equiv_pos_as_xyz
'x, y, z'
_cell_length_a     28.023061
_cell_length_b     19.818299
_cell_length_c     13.916452
_cell_angle_alpha  93.990404
_cell_angle_beta   48.720245
_cell_angle_gamma 97.836848
loop_
_atom_site_label
_atom_site_type_symbol
_atom_site_fract_x
_atom_site_fract_y
_atom_site_fract_z
_atom_type_partial_charge
Tb0 Tb 0.11401 0.76481 0.02467 0.0
Tb1 Tb 0.10127 0.78572 0.2602 0.0
C2 C 0.07882 0.64194 0.16526 0.0
C3 C 0.07476 0.71536 0.82647 0.0
C4 C 0.95561 0.6866 0.894 0.0
C5 C 0.97767 0.63839 0.92141 0.0
C6 C 1.03718 0.65284 0.88802 0.0
C7 C 0.05582 0.75894 0.78469 0.0
C8 C 0.99644 0.74459 0.81825 0.0
C9 C 0.1237 0.74323 0.83319 0.0
O10 O 1.00894 0.77776 0.19321 0.0
O11 O 1.00078 0.76966 0.36822 0.0
O12 O 0.07746 0.88086 0.22146 0.0
O13 O 0.1476 0.86997 1.00849 0.0
O14 O 0.08702 0.73791 0.40927 0.0
O15 O 0.12237 0.8444 0.36316 0.0
O16 O 0.19692 0.82542 0.10295 0.0
O17 O 0.20483 0.7438 0.9774 0.0
O18 O 0.05214 0.67857 0.14388 0.0
O19 O 0.11473 0.67691 0.1874 0.0
C20 C 0.97371 0.77348 0.32089 0.0
O21 O 0.11306 0.80176 0.88937 0.0
O22 O 0.14103 0.70179 0.87173 0.0
C23 C 0.10901 0.90716 0.10444 0.0
C24 C 0.16264 0.78097 0.4328 0.0
C25 C 0.24949 0.76482 0.46864 0.0
C26 C 0.25722 0.82333 0.40576 0.0
C27 C 0.21405 0.83163 0.389 0.0
C28 C 0.15698 0.72105 0.49007 0.0
C29 C 0.19966 0.7132 0.50816 0.0
C30 C 0.11252 0.79152 0.42746 0.0
C31 C 0.23228 0.78414 1.01309 0.0
H32 H 0.94633 0.59339 0.97994 0.0
H33 H 0.0507 0.61829 0.9212 0.0
H34 H 0.08427 0.80723 0.73672 0.0
H35 H 0.97987 0.78195 0.79605 0.0
H36 H 0.29548 0.8637 0.3736 0.0
H37 H 0.22033 0.87835 0.34392 0.0
H38 H 0.11799 0.68104 0.52534 0.0
H39 H 0.19282 0.66737 0.55601 0.0
Tb40 Tb 0.62574 0.27178 1.01448 0.0
Tb41 Tb 0.60393 0.28558 0.25891 0.0
C42 C 0.61099 0.14327 0.11294 0.0
C43 C 0.58335 0.29144 0.82471 0.0
C44 C 0.4734 0.3289 0.88656 0.0
C45 C 0.49279 0.26487 0.83576 0.0
C46 C 0.54711 0.24596 0.80649 0.0
C47 C 0.56718 0.35807 0.86364 0.0
C48 C 0.51217 0.37655 0.89505 0.0
C49 C 0.62683 0.26424 0.83275 0.0
O50 O 0.51789 0.26583 0.18954 0.0
O51 O 0.50627 0.28877 0.36847 0.0
O52 O 0.58311 0.38504 0.22692 0.0
O53 O 0.65024 0.37832 1.012 0.0
O54 O 0.61498 0.22363 0.35823 0.0
O55 O 0.60276 0.32966 0.40327 0.0
O56 O 0.69956 0.33006 0.10964 0.0
O57 O 0.71625 0.25408 0.96811 0.0
O58 O 0.65554 0.17895 1.0106 0.0
O59 O 0.5771 0.17771 0.22146 0.0
C60 C 0.48117 0.27498 0.31661 0.0
O61 O 0.66494 0.30881 0.83514 0.0
O62 O 0.59887 0.21609 0.92019 0.0
C63 C 0.61263 0.41352 0.1127 0.0
C64 C 0.66643 0.27809 0.43132 0.0
C65 C 0.75705 0.28395 0.46438 0.0
C66 C 0.76337 0.33287 0.38645 0.0
C67 C 0.71812 0.3304 0.37112 0.0
C68 C 0.66251 0.22746 0.50276 0.0
C69 C 0.7066 0.23069 0.52036 0.0
C70 C 0.61561 0.27389 0.42305 0.0
C71 C 0.73796 0.29193 1.01678 0.0
H72 H 0.46266 0.22742 0.83036 0.0
H73 H 0.55766 0.1939 0.78023 0.0
H74 H 0.59367 0.39398 0.88044 0.0
H75 H 0.49723 0.42595 0.93521 0.0
H76 H 0.80269 0.37358 0.33936 0.0
H77 H 0.72349 0.36932 0.31271 0.0
H78 H 0.62434 0.18554 0.54708 0.0
H79 H 0.7012 0.19144 0.57836 0.0
Tb80 Tb 0.08135 0.25944 0.76605 0.0
Tb81 Tb 0.05732 0.26922 1.01224 0.0
C82 C 0.06886 0.12997 0.91209 0.0
C83 C 1.02073 0.27317 0.59524 0.0
C84 C 0.92921 0.28349 0.56899 0.0
C85 C 0.91894 0.23232 0.64826 0.0
C86 C 0.96431 0.2269 0.66053 0.0
C87 C 1.02849 0.32706 0.52372 0.0
C88 C 0.98322 0.33232 0.51132 0.0
C89 C 0.07283 0.26478 0.59603 0.0
O90 O 0.98456 0.21783 0.91213 0.0
O91 O 0.97371 0.29909 0.04039 0.0
O92 O 0.12724 0.35377 0.91096 0.0
O93 O 0.07765 0.36789 0.84145 0.0
O94 O 0.04838 0.22217 0.15362 0.0
O95 O 1.02425 0.32502 0.1761 0.0
O96 O 0.16477 0.26433 0.84996 0.0
O97 O 0.17971 0.26234 0.66568 0.0
O98 O 0.10286 0.16051 0.7977 0.0
O99 O 1.0285 0.16452 1.01112 0.0
C100 C 0.94875 0.25988 0.9987 0.0
O101 O 0.0927 0.31713 0.6285 0.0
O102 O 0.06869 0.20831 0.64512 0.0
C103 C 0.10836 0.39609 0.88032 0.0
C104 C 0.0891 0.30274 0.22055 0.0
C105 C 0.20901 0.33575 0.14949 0.0
C106 C 0.17734 0.38742 0.15668 0.0
C107 C 0.11792 0.37084 0.19011 0.0
C108 C 0.11685 0.25353 0.23184 0.0
C109 C 0.17693 0.26969 0.1945 0.0
C110 C 1.03967 0.27958 0.21265 0.0
C111 C 0.20323 0.26475 0.72132 0.0
H112 H 0.87694 0.19494 0.6967 0.0
H113 H 0.95575 0.18557 0.71902 0.0
H114 H 0.07079 0.3641 0.47376 0.0
H115 H 0.99144 0.37345 0.45288 0.0
H116 H 0.20099 0.43903 0.12603 0.0
H117 H 0.09697 0.41023 0.18324 0.0
H118 H 0.0949 0.20107 0.25788 0.0
H119 H 0.20019 0.22955 0.19264 0.0
Tb120 Tb 0.5707 0.75648 0.77837 0.0
Tb121 Tb 0.54555 0.7722 0.02446 0.0
C122 C 0.56004 0.63101 0.93557 0.0
C123 C 0.5151 0.75585 0.59111 0.0
C124 C 0.42401 0.74649 0.55936 0.0
C125 C 0.42365 0.69397 0.62332 0.0
C126 C 0.46875 0.69856 0.63926 0.0
C127 C 0.51519 0.80799 0.5276 0.0
C128 C 0.47023 0.80357 0.51246 0.0
C129 C 0.56192 0.76626 0.61019 0.0
O130 O 0.47394 0.71226 0.92491 0.0
O131 O 0.45405 0.78555 0.07184 0.0
O132 O 0.51509 0.86278 0.02017 0.0
O133 O 0.59652 0.86454 0.81272 0.0
O134 O 0.5066 0.74108 0.2064 0.0
O135 O 0.57144 0.83433 0.11479 0.0
O136 O 0.65328 0.76646 0.85409 0.0
O137 O 0.66968 0.77118 0.66997 0.0
O138 O 0.59015 0.65808 0.81942 0.0
O139 O 0.51955 0.66583 0.03415 0.0
C140 C 0.43371 0.74886 0.01972 0.0
O141 O 0.55143 0.814 0.6896 0.0
O142 O 0.58188 0.7137 0.62154 0.0
C143 C 0.56027 0.89901 0.91951 0.0
C144 C 0.5881 0.76498 0.21643 0.0
C145 C 0.69628 0.72198 0.15371 0.0
C146 C 0.68967 0.79157 0.16486 0.0
C147 C 0.63544 0.81294 0.19782 0.0
C148 C 0.59191 0.69496 0.21792 0.0
C149 C 0.64561 0.67357 0.18812 0.0
C150 C 0.54423 0.78835 0.20569 0.0
C151 C 0.69274 0.76842 0.72502 0.0
H152 H 0.38843 0.6495 0.66079 0.0
H153 H 0.46684 0.65798 0.69036 0.0
H154 H 0.5499 0.85304 0.49067 0.0
H155 H 0.47117 0.8453 0.46473 0.0
H156 H 0.72821 0.8294 0.14047 0.0
H157 H 0.63317 0.86709 0.19753 0.0
H158 H 0.55619 0.65666 0.23194 0.0
H159 H 0.65006 0.61962 0.18122 0.0
C160 C 1.04096 0.48916 0.03627 0.0
C161 C 0.1018 0.4655 0.94098 0.0
C162 C 0.1433 0.54354 0.02658 0.0
C163 C 0.08414 0.57009 0.11458 0.0
N164 N 0.97122 0.54841 0.236 0.0
N165 N 0.21405 0.48065 0.83338 0.0
C166 C 1.03144 0.53675 0.12865 0.0
C167 C 0.15366 0.49587 0.93344 0.0
N168 N 0.99275 0.46933 0.03539 0.0
N169 N 0.18752 0.55829 0.03987 0.0
H170 H 0.22385 0.44786 0.76191 0.0
H171 H 0.25486 0.5058 0.814 0.0
H172 H 0.17883 0.58756 0.11404 0.0
H173 H 0.22819 0.5335 0.98983 0.0
H174 H 0.94917 0.48922 0.09475 0.0
H175 H 0.99928 0.44016 0.96375 0.0
H176 H 0.92963 0.52131 0.26135 0.0
H177 H 0.96328 0.5799 0.30762 0.0
C178 C 0.53724 0.49276 0.14733 0.0
C179 C 0.60015 0.47975 0.08569 0.0
C180 C 0.64057 0.56386 0.91331 0.0
C181 C 0.57677 0.56995 0.96723 0.0
N182 N 0.46503 0.52742 0.12508 0.0
N183 N 0.71299 0.51063 0.91747 0.0
C184 C 0.52557 0.53053 0.08129 0.0
C185 C 0.65202 0.51797 0.97073 0.0
N186 N 0.4885 0.47213 0.27177 0.0
N187 N 0.69047 0.60327 0.80896 0.0
H188 H 0.72243 0.48539 0.96581 0.0
H189 H 0.75413 0.52856 0.82671 0.0
H190 H 0.6846 0.63333 0.76065 0.0
H191 H 0.73771 0.60722 0.76945 0.0
H192 H 0.44276 0.48652 0.32668 0.0
H193 H 0.49566 0.44766 0.32448 0.0
H194 H 0.42624 0.49593 0.20146 0.0
H195 H 0.45506 0.55078 0.076 0.0
C196 C 0.53078 1.0126 0.02571 0.0
C197 C 0.57923 0.96858 0.94656 0.0
C198 C 0.63655 0.02809 1.01362 0.0
C199 C 0.58986 0.07417 0.08839 0.0
N200 N 0.49106 0.10914 0.16663 0.0
N201 N 0.68603 0.94681 0.8427 0.0
C202 C 0.53633 0.06562 0.09513 0.0
C203 C 0.63437 0.98003 0.93403 0.0
N204 N 0.47868 1.00277 0.03482 0.0
N205 N 0.68246 0.0291 0.02215 0.0
H206 H 0.68763 0.91419 0.77905 0.0
H207 H 0.73006 0.95809 0.81931 0.0
H208 H 0.68344 0.06176 0.08304 0.0
H209 H 0.71442 0.99297 0.98136 0.0
H210 H 0.4372 0.02575 0.1012 0.0
H211 H 0.47718 0.9702 0.97438 0.0
H212 H 0.45586 0.11393 0.16273 0.0
H213 H 0.48845 0.14042 0.2325 0.0
C214 C 1.03378 0.97527 0.1124 0.0
C215 C 0.09546 0.96967 0.06976 0.0
C216 C 0.14179 0.05214 0.89128 0.0
C217 C 0.07996 0.06396 0.94277 0.0
N218 N 0.96619 0.0319 0.09952 0.0
N219 N 0.20715 1.01345 0.92882 0.0
C220 C 1.02595 0.02365 0.05229 0.0
C221 C 0.14892 1.01136 0.962 0.0
N222 N 0.98244 0.93239 0.20751 0.0
N223 N 0.19413 0.07707 0.7718 0.0
H224 H 0.2138 0.9864 0.9802 0.0
H225 H 0.24682 0.04724 0.85978 0.0
H226 H 0.19095 0.1041 0.71512 0.0
H227 H 0.23971 0.06367 0.72286 0.0
H228 H 0.93852 0.92489 0.23005 0.0
H229 H 0.98436 0.90277 0.26288 0.0
H230 H 0.92401 1.01391 0.18927 0.0
H231 H 0.95894 0.05863 0.04882 0.0
C232 C 0.37411 0.69925 0.46412 0.0
C233 C 0.37442 0.74545 0.54674 0.0
C234 C 0.28975 0.80163 0.5852 0.0
C235 C 0.29231 0.75798 0.49641 0.0
N236 N 0.34419 0.67305 0.33558 0.0
N237 N 0.32409 0.83125 0.70585 0.0
C238 C 0.33587 0.70828 0.43292 0.0
C239 C 0.32998 0.79432 0.61232 0.0
N240 N 0.41005 0.6462 0.41578 0.0
N241 N 0.24955 0.8511 0.64184 0.0
H242 H 0.35119 0.82568 0.73085 0.0
H243 H 0.28937 0.86358 0.76628 0.0
H244 H 0.21566 0.85462 0.63348 0.0
H245 H 0.25046 0.8904 0.69432 0.0
H246 H 0.40573 0.60582 0.36905 0.0
H247 H 0.44185 0.64003 0.42857 0.0
H248 H 0.38048 0.64237 0.27442 0.0
H249 H 0.31844 0.67915 0.30763 0.0
C250 C 0.30972 0.31887 0.52086 0.0
C251 C 0.27574 0.27319 0.62894 0.0
C252 C 0.37558 0.22313 0.52182 0.0
C253 C 0.40888 0.26691 0.41173 0.0
N254 N 0.40552 0.35123 0.30143 0.0
N255 N 0.2822 0.19629 0.74531 0.0
C256 C 0.37519 0.31322 0.41004 0.0
C257 C 0.31034 0.22946 0.63327 0.0
N258 N 0.28004 0.3709 0.52817 0.0
N259 N 0.4058 0.17273 0.51727 0.0
H260 H 0.23522 0.19976 0.82852 0.0
H261 H 0.30698 0.17043 0.75987 0.0
H262 H 0.45277 0.16554 0.43769 0.0
H263 H 0.3828 0.13396 0.58654 0.0
H264 H 0.30282 0.41051 0.46064 0.0
H265 H 0.23349 0.37872 0.60904 0.0
H266 H 0.38274 0.38149 0.28799 0.0
H267 H 0.453 0.34844 0.21923 0.0
C268 C 0.84572 0.33759 0.58833 0.0
C269 C 0.88546 0.2846 0.54107 0.0
C270 C 0.84482 0.23505 0.43555 0.0
C271 C 0.8034 0.28647 0.48641 0.0
N272 N 0.76819 0.3907 0.60112 0.0
N273 N 0.9186 0.17902 0.42935 0.0
C274 C 0.80517 0.33903 0.55963 0.0
C275 C 0.88363 0.23226 0.46761 0.0
N276 N 0.8442 0.38441 0.66702 0.0
N277 N 0.84993 0.19111 0.3497 0.0
H278 H 0.95248 0.17786 0.43857 0.0
H279 H 0.91255 0.13438 0.39264 0.0
H280 H 0.82271 0.19176 0.32354 0.0
H281 H 0.88461 0.15796 0.29583 0.0
H282 H 0.812 0.42019 0.71706 0.0
H283 H 0.87343 0.38535 0.68871 0.0
H284 H 0.7719 0.43498 0.64151 0.0
H285 H 0.73403 0.39055 0.59231 0.0
C286 C 0.8599 0.72299 0.42145 0.0
C287 C 0.90137 0.77368 0.41997 0.0
C288 C 0.80687 0.80494 0.63966 0.0
C289 C 0.76441 0.76196 0.6327 0.0
N290 N 0.75288 0.67718 0.51193 0.0
N291 N 0.91157 0.86923 0.52591 0.0
C292 C 0.79182 0.72031 0.52203 0.0
C293 C 0.87391 0.81606 0.52901 0.0
N294 N 0.88539 0.67423 0.33069 0.0
N295 N 0.78407 0.83426 0.75258 0.0
H296 H 0.96041 0.8799 0.44918 0.0
H297 H 0.89336 0.90688 0.59415 0.0
H298 H 0.73626 0.8272 0.83578 0.0
H299 H 0.81358 0.85955 0.76788 0.0
H300 H 0.859 0.62967 0.33673 0.0
H301 H 0.93402 0.67583 0.25223 0.0
H302 H 0.7688 0.65419 0.42717 0.0
H303 H 0.70398 0.66522 0.58652 0.0
C304 C 0.34746 0.70057 1.01375 0.0
C305 C 0.37488 0.75741 0.03857 0.0
C306 C 0.3222 0.83232 1.00743 0.0
C307 C 0.29288 0.77528 0.98762 0.0
N308 N 0.30041 0.65952 0.92099 0.0
N309 N 0.37122 0.87572 0.09503 0.0
C310 C 0.3116 0.71045 0.97699 0.0
C311 C 0.35763 0.8229 0.0452 0.0
N312 N 0.35287 0.6362 0.03228 0.0
N313 N 0.31901 0.89632 0.98266 0.0
H314 H 0.39136 0.87025 0.13494 0.0
H315 H 0.35403 0.9226 0.11418 0.0
H316 H 0.29703 0.90456 0.94715 0.0
H317 H 0.34462 0.94003 0.98167 0.0
H318 H 0.32883 0.59252 0.02865 0.0
H319 H 0.37532 0.62709 0.06638 0.0
H320 H 0.32014 0.61383 0.89578 0.0
H321 H 0.28017 0.66679 0.88173 0.0
C322 C 0.3247 0.36013 0.94971 0.0
C323 C 0.27762 0.34766 0.08453 0.0
C324 C 0.35923 0.32202 0.08714 0.0
C325 C 0.40687 0.34001 0.95508 0.0
N326 N 0.43724 0.38821 0.76497 0.0
N327 N 0.25233 0.33423 0.28512 0.0
C328 C 0.39035 0.36362 0.88791 0.0
C329 C 0.29581 0.33469 0.15443 0.0
N330 N 0.307 0.36349 0.87925 0.0
N331 N 0.37352 0.28889 0.14677 0.0
H332 H 0.20542 0.3445 0.33723 0.0
H333 H 0.26467 0.33046 0.34051 0.0
H334 H 0.41958 0.27851 0.10167 0.0
H335 H 0.33853 0.26689 0.23832 0.0
H336 H 0.3394 0.36475 0.7796 0.0
H337 H 0.25958 0.35882 0.91894 0.0
H338 H 0.42793 0.4122 0.71546 0.0
H339 H 0.48584 0.3897 0.71643 0.0
C340 C 0.84385 0.33517 0.9551 0.0
C341 C 0.79491 0.28032 1.00014 0.0
C342 C 0.84181 0.21718 0.06278 0.0
C343 C 0.8918 0.27174 1.01446 0.0
N344 N 0.95131 0.3691 0.86845 0.0
N345 N 0.73948 0.17525 0.12402 0.0
C346 C 0.89543 0.32749 0.94938 0.0
C347 C 0.79223 0.22262 0.06011 0.0
N348 N 0.84059 0.39608 0.92032 0.0
N349 N 0.8437 0.15796 0.10466 0.0
H350 H 0.7026 0.17705 0.12427 0.0
H351 H 0.72935 0.13762 0.1857 0.0
H352 H 0.87753 0.15219 0.11229 0.0
H353 H 0.81475 0.11277 0.12347 0.0
H354 H 0.87028 0.44039 0.903 0.0
H355 H 0.80524 0.4038 0.91812 0.0
H356 H 0.95929 0.40562 0.8074 0.0
H357 H 0.99239 0.36024 0.84876 0.0
C358 C 0.84678 0.70926 0.09342 0.0
C359 C 0.88671 0.68505 0.96642 0.0
C360 C 0.79944 0.679 0.96597 0.0
C361 C 0.75899 0.70139 0.09435 0.0
N362 N 0.74258 0.73299 0.28424 0.0
N363 N 0.90027 0.64243 0.78394 0.0
C364 C 0.78201 0.71386 0.15953 0.0
C365 C 0.86242 0.66758 0.90446 0.0
N366 N 0.86965 0.73148 0.15275 0.0
N367 N 0.78077 0.67166 0.89651 0.0
H368 H 0.94707 0.6329 0.73493 0.0
H369 H 0.88398 0.62956 0.73505 0.0
H370 H 0.7366 0.68208 0.92994 0.0
H371 H 0.7366 0.68208 0.92994 0.0
H372 H 0.9173 0.73337 0.11105 0.0
H373 H 0.9173 0.73337 0.11105 0.0
H374 H 0.7587 0.74566 0.33342 0.0
H375 H 0.69372 0.73466 0.33888 0.0
loop_
_geom_bond_atom_site_label_1
_geom_bond_atom_site_label_2
_geom_bond_distance
_geom_bond_site_symmetry_2
_ccdc_geom_bond_type
Tb0 C9 2.764 1_454 S
Tb0 O10 2.325 1_455 S
Tb0 O13 2.303 . S
Tb0 O17 2.322 1_554 S
Tb0 O18 2.349 . S
Tb0 O21 2.415 1_554 S
Tb0 O22 2.399 1_554 S
Tb1 O11 2.322 1_455 S
Tb1 O12 2.349 . S
Tb1 O14 2.415 . S
Tb1 O15 2.399 . S
Tb1 O16 2.325 . S
Tb1 O19 2.303 . S
Tb1 C30 2.764 . S
C2 O18 1.261 . S
C2 O19 1.257 . S
C3 C6 1.358 . S
C3 C7 1.332 . S
C3 C9 1.504 . S
C4 C5 1.373 . S
C4 C8 1.308 . S
C5 C4 1.373 . S
C5 C6 1.429 . S
C5 H32 0.932 . S
C6 C3 1.358 . S
C6 C5 1.429 . S
C6 H33 0.930 . S
C7 C3 1.332 . S
C7 C8 1.394 . S
C7 H34 0.932 1_556 S
C8 C4 1.308 . S
C8 C7 1.394 . S
C8 H35 0.929 . S
C9 Tb0 2.764 1_656 S
C9 C3 1.504 . S
C9 O21 1.239 1_655 S
C9 O22 1.263 1_655 S
O10 Tb0 2.325 1_655 S
O10 C20 1.236 . S
O11 Tb1 2.322 1_655 S
O11 C20 1.257 . S
O12 Tb1 2.349 . S
O12 C23 1.261 . S
O13 Tb0 2.303 . S
O13 C23 1.257 . S
O14 Tb1 2.415 . S
O14 C30 1.239 . S
O15 Tb1 2.399 . S
O15 C30 1.263 . S
O16 Tb1 2.325 . S
O16 C31 1.236 . S
O17 Tb0 2.322 1_556 S
O17 C31 1.257 1_556 S
O18 Tb0 2.349 . S
O18 C2 1.261 . S
O19 Tb1 2.303 . S
O19 C2 1.257 . S
C20 O10 1.236 . S
C20 O11 1.257 . S
O21 Tb0 2.415 1_556 S
O21 C9 1.239 1_455 S
O22 Tb0 2.399 1_556 S
O22 C9 1.263 1_455 S
C23 O12 1.261 . S
C23 O13 1.257 . S
C24 C27 1.358 . S
C24 C28 1.332 . S
C24 C30 1.504 . S
C25 C26 1.373 . S
C25 C29 1.308 . S
C26 C25 1.373 . S
C26 C27 1.429 . S
C26 H36 0.932 . S
C27 C24 1.358 . S
C27 C26 1.429 . S
C27 H37 0.930 . S
C28 C24 1.332 . S
C28 C29 1.394 . S
C28 H38 0.932 . S
C29 C25 1.308 . S
C29 C28 1.394 . S
C29 H39 0.929 . S
C30 Tb1 2.764 . S
C30 O14 1.239 . S
C30 O15 1.263 . S
C30 C24 1.504 . S
C31 O16 1.236 . S
C31 O17 1.257 1_554 S
H32 C5 0.932 . S
H33 C6 0.930 . S
H34 C7 0.932 1_554 S
H35 C8 0.929 . S
H36 C26 0.932 . S
H37 C27 0.930 . S
H38 C28 0.932 . S
H39 C29 0.929 . S
Tb40 C49 2.764 1_554 S
Tb40 O50 2.325 . S
Tb40 O53 2.303 . S
Tb40 O57 2.322 1_554 S
Tb40 O58 2.349 . S
Tb40 O61 2.415 1_554 S
Tb40 O62 2.399 1_554 S
Tb41 O51 2.322 . S
Tb41 O52 2.349 . S
Tb41 O54 2.415 . S
Tb41 O55 2.399 . S
Tb41 O56 2.325 . S
Tb41 O59 2.303 . S
Tb41 C70 2.764 . S
C42 O58 1.261 . S
C42 O59 1.257 . S
C43 C46 1.358 . S
C43 C47 1.332 . S
C43 C49 1.504 . S
C44 C45 1.373 . S
C44 C48 1.308 . S
C45 C44 1.373 . S
C45 C46 1.429 . S
C45 H72 0.932 . S
C46 C43 1.358 . S
C46 C45 1.429 . S
C46 H73 0.930 . S
C47 C43 1.332 . S
C47 C48 1.394 . S
C47 H74 0.932 1_556 S
C48 C44 1.308 . S
C48 C47 1.394 . S
C48 H75 0.929 . S
C49 Tb40 2.764 1_556 S
C49 C43 1.504 . S
C49 O61 1.239 . S
C49 O62 1.263 . S
O50 Tb40 2.325 . S
O50 C60 1.236 . S
O51 Tb41 2.322 . S
O51 C60 1.257 . S
O52 Tb41 2.349 . S
O52 C63 1.261 . S
O53 Tb40 2.303 . S
O53 C63 1.257 . S
O54 Tb41 2.415 . S
O54 C70 1.239 . S
O55 Tb41 2.399 . S
O55 C70 1.263 . S
O56 Tb41 2.325 . S
O56 C71 1.236 . S
O57 Tb40 2.322 1_556 S
O57 C71 1.257 1_556 S
O58 Tb40 2.349 . S
O58 C42 1.261 . S
O59 Tb41 2.303 . S
O59 C42 1.257 . S
C60 O50 1.236 . S
C60 O51 1.257 . S
O61 Tb40 2.415 1_556 S
O61 C49 1.239 . S
O62 Tb40 2.399 1_556 S
O62 C49 1.263 . S
C63 O52 1.261 . S
C63 O53 1.257 . S
C64 C67 1.358 . S
C64 C68 1.332 . S
C64 C70 1.504 . S
C65 C66 1.373 . S
C65 C69 1.308 . S
C66 C65 1.373 . S
C66 C67 1.429 . S
C66 H76 0.932 . S
C67 C64 1.358 . S
C67 C66 1.429 . S
C67 H77 0.930 . S
C68 C64 1.332 . S
C68 C69 1.394 . S
C68 H78 0.932 . S
C69 C65 1.308 . S
C69 C68 1.394 . S
C69 H79 0.929 . S
C70 Tb41 2.764 . S
C70 O54 1.239 . S
C70 O55 1.263 . S
C70 C64 1.504 . S
C71 O56 1.236 . S
C71 O57 1.257 1_554 S
H72 C45 0.932 . S
H73 C46 0.930 . S
H74 C47 0.932 1_554 S
H75 C48 0.929 . S
H76 C66 0.932 . S
H77 C67 0.930 . S
H78 C68 0.932 . S
H79 C69 0.929 . S
Tb80 C89 2.764 1_455 S
Tb80 O90 2.325 1_455 S
Tb80 O93 2.303 . S
Tb80 O97 2.322 . S
Tb80 O98 2.349 . S
Tb80 O101 2.415 1_455 S
Tb80 O102 2.399 1_455 S
Tb81 O91 2.322 1_456 S
Tb81 O92 2.349 . S
Tb81 O94 2.415 1_556 S
Tb81 O95 2.399 1_556 S
Tb81 O96 2.325 . S
Tb81 O99 2.303 . S
Tb81 C110 2.764 1_556 S
C82 O98 1.261 . S
C82 O99 1.257 . S
C83 C86 1.358 . S
C83 C87 1.332 . S
C83 C89 1.504 . S
C84 C85 1.373 . S
C84 C88 1.308 . S
C85 C84 1.373 . S
C85 C86 1.429 . S
C85 H112 0.932 . S
C86 C83 1.358 . S
C86 C85 1.429 . S
C86 H113 0.930 . S
C87 C83 1.332 . S
C87 C88 1.394 . S
C87 H114 0.932 . S
C88 C84 1.308 . S
C88 C87 1.394 . S
C88 H115 0.929 . S
C89 Tb80 2.764 1_655 S
C89 C83 1.504 . S
C89 O101 1.239 . S
C89 O102 1.263 . S
O90 Tb80 2.325 1_655 S
O90 C100 1.236 . S
O91 Tb81 2.322 1_654 S
O91 C100 1.257 1_554 S
O92 Tb81 2.349 . S
O92 C103 1.261 . S
O93 Tb80 2.303 . S
O93 C103 1.257 . S
O94 Tb81 2.415 1_554 S
O94 C110 1.239 . S
O95 Tb81 2.399 1_554 S
O95 C110 1.263 . S
O96 Tb81 2.325 . S
O96 C111 1.236 . S
O97 Tb80 2.322 . S
O97 C111 1.257 . S
O98 Tb80 2.349 . S
O98 C82 1.261 . S
O99 Tb81 2.303 . S
O99 C82 1.257 . S
C100 O90 1.236 . S
C100 O91 1.257 1_556 S
O101 Tb80 2.415 1_655 S
O101 C89 1.239 . S
O102 Tb80 2.399 1_655 S
O102 C89 1.263 . S
C103 O92 1.261 . S
C103 O93 1.257 . S
C104 C107 1.358 . S
C104 C108 1.332 . S
C104 C110 1.504 . S
C105 C106 1.373 . S
C105 C109 1.308 . S
C106 C105 1.373 . S
C106 C107 1.429 . S
C106 H116 0.932 . S
C107 C104 1.358 . S
C107 C106 1.429 . S
C107 H117 0.930 . S
C108 C104 1.332 . S
C108 C109 1.394 . S
C108 H118 0.932 1_554 S
C109 C105 1.308 . S
C109 C108 1.394 . S
C109 H119 0.929 . S
C110 Tb81 2.764 1_554 S
C110 O94 1.239 . S
C110 O95 1.263 . S
C110 C104 1.504 . S
C111 O96 1.236 . S
C111 O97 1.257 . S
H112 C85 0.932 . S
H113 C86 0.930 . S
H114 C87 0.932 . S
H115 C88 0.929 . S
H116 C106 0.932 . S
H117 C107 0.930 . S
H118 C108 0.932 1_556 S
H119 C109 0.929 . S
Tb120 C129 2.764 . S
Tb120 O130 2.325 . S
Tb120 O133 2.303 . S
Tb120 O137 2.322 . S
Tb120 O138 2.349 . S
Tb120 O141 2.415 . S
Tb120 O142 2.399 . S
Tb121 O131 2.322 1_556 S
Tb121 O132 2.349 . S
Tb121 O134 2.415 1_556 S
Tb121 O135 2.399 1_556 S
Tb121 O136 2.325 . S
Tb121 O139 2.303 . S
Tb121 C150 2.764 1_556 S
C122 O138 1.261 . S
C122 O139 1.257 . S
C123 C126 1.358 . S
C123 C127 1.332 . S
C123 C129 1.504 . S
C124 C125 1.373 . S
C124 C128 1.308 . S
C125 C124 1.373 . S
C125 C126 1.429 . S
C125 H152 0.932 . S
C126 C123 1.358 . S
C126 C125 1.429 . S
C126 H153 0.930 . S
C127 C123 1.332 . S
C127 C128 1.394 . S
C127 H154 0.932 . S
C128 C124 1.308 . S
C128 C127 1.394 . S
C128 H155 0.929 . S
C129 Tb120 2.764 . S
C129 C123 1.504 . S
C129 O141 1.239 . S
C129 O142 1.263 . S
O130 Tb120 2.325 . S
O130 C140 1.236 . S
O131 Tb121 2.322 1_554 S
O131 C140 1.257 1_554 S
O132 Tb121 2.349 . S
O132 C143 1.261 . S
O133 Tb120 2.303 . S
O133 C143 1.257 . S
O134 Tb121 2.415 1_554 S
O134 C150 1.239 . S
O135 Tb121 2.399 1_554 S
O135 C150 1.263 . S
O136 Tb121 2.325 . S
O136 C151 1.236 . S
O137 Tb120 2.322 . S
O137 C151 1.257 . S
O138 Tb120 2.349 . S
O138 C122 1.261 . S
O139 Tb121 2.303 . S
O139 C122 1.257 . S
C140 O130 1.236 . S
C140 O131 1.257 1_556 S
O141 Tb120 2.415 . S
O141 C129 1.239 . S
O142 Tb120 2.399 . S
O142 C129 1.263 . S
C143 O132 1.261 . S
C143 O133 1.257 . S
C144 C147 1.358 . S
C144 C148 1.332 . S
C144 C150 1.504 . S
C145 C146 1.373 . S
C145 C149 1.308 . S
C146 C145 1.373 . S
C146 C147 1.429 . S
C146 H156 0.932 . S
C147 C144 1.358 . S
C147 C146 1.429 . S
C147 H157 0.930 . S
C148 C144 1.332 . S
C148 C149 1.394 . S
C148 H158 0.932 1_554 S
C149 C145 1.308 . S
C149 C148 1.394 . S
C149 H159 0.929 . S
C150 Tb121 2.764 1_554 S
C150 O134 1.239 . S
C150 O135 1.263 . S
C150 C144 1.504 . S
C151 O136 1.236 . S
C151 O137 1.257 . S
H152 C125 0.932 . S
H153 C126 0.930 . S
H154 C127 0.932 . S
H155 C128 0.929 . S
H156 C146 0.932 . S
H157 C147 0.930 . S
H158 C148 0.932 1_556 S
H159 C149 0.929 . S
C160 C161 1.363 1_654 S
C160 C166 1.379 . S
C160 N168 1.356 . S
C161 C160 1.363 1_456 S
C161 C167 1.363 . S
C162 C163 1.363 1_556 S
C162 C167 1.379 . S
C162 N169 1.356 . S
C163 C162 1.363 1_554 S
C163 C166 1.363 1_455 S
N164 C166 1.356 . S
N164 H176 0.984 . S
N164 H177 0.985 . S
N165 C167 1.356 . S
N165 H170 0.984 . S
N165 H171 0.985 . S
C166 C160 1.379 . S
C166 C163 1.363 1_655 S
C166 N164 1.356 . S
C167 C161 1.363 . S
C167 C162 1.379 . S
C167 N165 1.356 . S
N168 C160 1.356 . S
N168 H174 0.984 . S
N168 H175 0.984 1_554 S
N169 C162 1.356 . S
N169 H172 0.984 1_556 S
N169 H173 0.985 . S
H170 N165 0.984 . S
H171 N165 0.985 . S
H172 N169 0.984 1_554 S
H173 N169 0.985 . S
H174 N168 0.984 . S
H175 N168 0.984 1_556 S
H176 N164 0.984 . S
H177 N164 0.985 . S
C178 C179 1.363 . S
C178 C184 1.379 . S
C178 N186 1.356 . S
C179 C178 1.363 . S
C179 C185 1.363 1_554 S
C180 C181 1.363 . S
C180 C185 1.379 . S
C180 N187 1.356 . S
C181 C180 1.363 . S
C181 C184 1.363 1_556 S
N182 C184 1.356 . S
N182 H194 0.984 . S
N182 H195 0.985 1_554 S
N183 C185 1.356 . S
N183 H188 0.984 1_556 S
N183 H189 0.985 . S
C184 C178 1.379 . S
C184 C181 1.363 1_554 S
C184 N182 1.356 . S
C185 C179 1.363 1_556 S
C185 C180 1.379 . S
C185 N183 1.356 . S
N186 C178 1.356 . S
N186 H192 0.984 . S
N186 H193 0.984 . S
N187 C180 1.356 . S
N187 H190 0.984 . S
N187 H191 0.985 . S
H188 N183 0.984 1_554 S
H189 N183 0.985 . S
H190 N187 0.984 . S
H191 N187 0.985 . S
H192 N186 0.984 . S
H193 N186 0.984 . S
H194 N182 0.984 . S
H195 N182 0.985 1_556 S
C196 C197 1.363 1_545 S
C196 C202 1.379 1_556 S
C196 N204 1.356 . S
C197 C196 1.363 1_565 S
C197 C203 1.363 . S
C198 C199 1.363 1_565 S
C198 C203 1.379 1_554 S
C198 N205 1.356 . S
C199 C198 1.363 1_545 S
C199 C202 1.363 . S
N200 C202 1.356 . S
N200 H212 0.984 . S
N200 H213 0.985 . S
N201 C203 1.356 . S
N201 H206 0.984 . S
N201 H207 0.985 . S
C202 C196 1.379 1_554 S
C202 C199 1.363 . S
C202 N200 1.356 . S
C203 C197 1.363 . S
C203 C198 1.379 1_556 S
C203 N201 1.356 . S
N204 C196 1.356 . S
N204 H210 0.984 . S
N204 H211 0.984 1_545 S
N205 C198 1.356 . S
N205 H208 0.984 1_565 S
N205 H209 0.985 . S
H206 N201 0.984 . S
H207 N201 0.985 . S
H208 N205 0.984 1_545 S
H209 N205 0.985 . S
H210 N204 0.984 . S
H211 N204 0.984 1_565 S
H212 N200 0.984 . S
H213 N200 0.985 . S
C214 C215 1.363 1_545 S
C214 C220 1.379 . S
C214 N222 1.356 . S
C215 C214 1.363 1_565 S
C215 C221 1.363 1_554 S
C216 C217 1.363 1_565 S
C216 C221 1.379 . S
C216 N223 1.356 . S
C217 C216 1.363 1_545 S
C217 C220 1.363 1_556 S
N218 C220 1.356 1_655 S
N218 H230 0.984 . S
N218 H231 0.972 1_554 S
N219 C221 1.356 . S
N219 H224 0.984 1_556 S
N219 H225 0.985 . S
C220 C214 1.379 . S
C220 C217 1.363 1_554 S
C220 N218 1.356 1_455 S
C221 C215 1.363 1_556 S
C221 C216 1.379 . S
C221 N219 1.356 . S
N222 C214 1.356 . S
N222 H228 0.984 1_455 S
N222 H229 0.984 1_545 S
N223 C216 1.356 . S
N223 H226 0.984 1_565 S
N223 H227 0.985 . S
H224 N219 0.984 1_554 S
H225 N219 0.985 . S
H226 N223 0.984 1_545 S
H227 N223 0.985 . S
H228 N222 0.984 1_655 S
H229 N222 0.984 1_565 S
H230 N218 0.984 . S
H231 N218 0.972 1_556 S
C232 C233 1.363 . S
C232 C238 1.379 . S
C232 N240 1.356 . S
C233 C232 1.363 . S
C233 C239 1.363 . S
C234 C235 1.363 . S
C234 C239 1.379 . S
C234 N241 1.356 . S
C235 C234 1.363 . S
C235 C238 1.363 . S
N236 C238 1.356 . S
N236 H248 0.984 . S
N236 H249 0.985 . S
N237 C239 1.356 . S
N237 H242 0.984 . S
N237 H243 0.985 . S
C238 C232 1.379 . S
C238 C235 1.363 . S
C238 N236 1.356 . S
C239 C233 1.363 . S
C239 C234 1.379 . S
C239 N237 1.356 . S
N240 C232 1.356 . S
N240 H246 0.984 . S
N240 H247 0.984 . S
N241 C234 1.356 . S
N241 H244 0.984 . S
N241 H245 0.985 . S
H242 N237 0.984 . S
H243 N237 0.985 . S
H244 N241 0.984 . S
H245 N241 0.985 . S
H246 N240 0.984 . S
H247 N240 0.984 . S
H248 N236 0.984 . S
H249 N236 0.985 . S
C250 C251 1.363 . S
C250 C256 1.379 . S
C250 N258 1.356 . S
C251 C250 1.363 . S
C251 C257 1.363 . S
C252 C253 1.363 . S
C252 C257 1.379 . S
C252 N259 1.356 . S
C253 C252 1.363 . S
C253 C256 1.363 . S
N254 C256 1.356 . S
N254 H266 0.984 . S
N254 H267 0.985 . S
N255 C257 1.356 . S
N255 H260 0.984 . S
N255 H261 0.985 . S
C256 C250 1.379 . S
C256 C253 1.363 . S
C256 N254 1.356 . S
C257 C251 1.363 . S
C257 C252 1.379 . S
C257 N255 1.356 . S
N258 C250 1.356 . S
N258 H264 0.984 . S
N258 H265 0.984 . S
N259 C252 1.356 . S
N259 H262 0.984 . S
N259 H263 0.985 . S
H260 N255 0.984 . S
H261 N255 0.985 . S
H262 N259 0.984 . S
H263 N259 0.985 . S
H264 N258 0.984 . S
H265 N258 0.984 . S
H266 N254 0.984 . S
H267 N254 0.985 . S
C268 C269 1.363 . S
C268 C274 1.379 . S
C268 N276 1.356 . S
C269 C268 1.363 . S
C269 C275 1.363 . S
C270 C271 1.363 . S
C270 C275 1.379 . S
C270 N277 1.356 . S
C271 C270 1.363 . S
C271 C274 1.363 . S
N272 C274 1.356 . S
N272 H284 0.984 . S
N272 H285 0.985 . S
N273 C275 1.356 . S
N273 H278 0.984 . S
N273 H279 0.985 . S
C274 C268 1.379 . S
C274 C271 1.363 . S
C274 N272 1.356 . S
C275 C269 1.363 . S
C275 C270 1.379 . S
C275 N273 1.356 . S
N276 C268 1.356 . S
N276 H282 0.984 . S
N276 H283 0.984 . S
N277 C270 1.356 . S
N277 H280 0.984 . S
N277 H281 0.985 . S
H278 N273 0.984 . S
H279 N273 0.985 . S
H280 N277 0.984 . S
H281 N277 0.985 . S
H282 N276 0.984 . S
H283 N276 0.984 . S
H284 N272 0.984 . S
H285 N272 0.985 . S
C286 C287 1.363 . S
C286 C292 1.379 . S
C286 N294 1.356 . S
C287 C286 1.363 . S
C287 C293 1.363 . S
C288 C289 1.363 . S
C288 C293 1.379 . S
C288 N295 1.356 . S
C289 C288 1.363 . S
C289 C292 1.363 . S
N290 C292 1.356 . S
N290 H302 0.984 . S
N290 H303 0.985 . S
N291 C293 1.356 . S
N291 H296 0.984 . S
N291 H297 0.985 . S
C292 C286 1.379 . S
C292 C289 1.363 . S
C292 N290 1.356 . S
C293 C287 1.363 . S
C293 C288 1.379 . S
C293 N291 1.356 . S
N294 C286 1.356 . S
N294 H300 0.984 . S
N294 H301 0.984 . S
N295 C288 1.356 . S
N295 H298 0.984 . S
N295 H299 0.985 . S
H296 N291 0.984 . S
H297 N291 0.985 . S
H298 N295 0.984 . S
H299 N295 0.985 . S
H300 N294 0.984 . S
H301 N294 0.984 . S
H302 N290 0.984 . S
H303 N290 0.985 . S
C304 C305 1.363 1_556 S
C304 C310 1.379 . S
C304 N312 1.356 . S
C305 C304 1.363 1_554 S
C305 C311 1.363 . S
C306 C307 1.363 1_554 S
C306 C311 1.379 . S
C306 N313 1.356 . S
C307 C306 1.363 1_556 S
C307 C310 1.363 . S
N308 C310 1.356 . S
N308 H320 0.984 . S
N308 H321 0.985 . S
N309 C311 1.356 . S
N309 H314 0.984 . S
N309 H315 0.985 . S
C310 C304 1.379 . S
C310 C307 1.363 . S
C310 N308 1.356 . S
C311 C305 1.363 . S
C311 C306 1.379 . S
C311 N309 1.356 . S
N312 C304 1.356 . S
N312 H318 0.984 . S
N312 H319 0.984 . S
N313 C306 1.356 . S
N313 H316 0.984 . S
N313 H317 0.985 . S
H314 N309 0.984 . S
H315 N309 0.985 . S
H316 N313 0.984 . S
H317 N313 0.985 . S
H318 N312 0.984 . S
H319 N312 0.984 . S
H320 N308 0.984 . S
H321 N308 0.985 . S
C322 C323 1.363 . S
C322 C328 1.379 1_554 S
C322 N330 1.356 . S
C323 C322 1.363 . S
C323 C329 1.363 . S
C324 C325 1.363 . S
C324 C329 1.379 1_556 S
C324 N331 1.356 . S
C325 C324 1.363 . S
C325 C328 1.363 . S
N326 C328 1.356 . S
N326 H338 0.984 . S
N326 H339 0.985 . S
N327 C329 1.356 . S
N327 H332 0.984 . S
N327 H333 0.985 . S
C328 C322 1.379 1_556 S
C328 C325 1.363 . S
C328 N326 1.356 . S
C329 C323 1.363 . S
C329 C324 1.379 1_554 S
C329 N327 1.356 . S
N330 C322 1.356 . S
N330 H336 0.984 . S
N330 H337 0.984 . S
N331 C324 1.356 . S
N331 H334 0.984 . S
N331 H335 0.985 . S
H332 N327 0.984 . S
H333 N327 0.985 . S
H334 N331 0.984 . S
H335 N331 0.985 . S
H336 N330 0.984 . S
H337 N330 0.984 . S
H338 N326 0.984 . S
H339 N326 0.985 . S
C340 C341 1.363 . S
C340 C346 1.379 . S
C340 N348 1.356 . S
C341 C340 1.363 . S
C341 C347 1.363 1_556 S
C342 C343 1.363 . S
C342 C347 1.379 . S
C342 N349 1.356 . S
C343 C342 1.363 . S
C343 C346 1.363 1_554 S
N344 C346 1.356 . S
N344 H356 0.984 . S
N344 H357 0.985 . S
N345 C347 1.356 . S
N345 H350 0.984 . S
N345 H351 0.985 . S
C346 C340 1.379 . S
C346 C343 1.363 1_556 S
C346 N344 1.356 . S
C347 C341 1.363 1_554 S
C347 C342 1.379 . S
C347 N345 1.356 . S
N348 C340 1.356 . S
N348 H354 0.984 . S
N348 H355 0.984 . S
N349 C342 1.356 . S
N349 H352 0.984 . S
N349 H353 0.985 . S
H350 N345 0.984 . S
H351 N345 0.985 . S
H352 N349 0.984 . S
H353 N349 0.985 . S
H354 N348 0.984 . S
H355 N348 0.984 . S
H356 N344 0.984 . S
H357 N344 0.985 . S
C358 C359 1.363 . S
C358 C364 1.379 1_556 S
C358 N366 1.356 . S
C359 C358 1.363 . S
C359 C365 1.363 . S
C360 C361 1.363 . S
C360 C365 1.379 1_554 S
C360 N367 1.356 . S
C361 C360 1.363 . S
C361 C364 1.363 . S
N362 C364 1.356 . S
N362 H374 0.984 . S
N362 H375 0.985 . S
N363 C365 1.356 . S
N363 H368 0.984 . S
N363 H369 0.985 . S
C364 C358 1.379 1_554 S
C364 C361 1.363 . S
C364 N362 1.356 . S
C365 C359 1.363 . S
C365 C360 1.379 1_556 S
C365 N363 1.356 . S
N366 C358 1.356 . S
N366 H372 0.984 . S
N366 H373 0.984 . S
N367 C360 1.356 . S
N367 H370 0.984 . S
N367 H371 0.985 . S
H368 N363 0.984 . S
H369 N363 0.985 . S
H370 N367 0.984 . S
H371 N367 0.985 . S
H372 N366 0.984 . S
H373 N366 0.984 . S
H374 N362 0.984 . S
H375 N362 0.985 . S
C161 C103 2.033 . S
C163 C2 2.033 . S
C179 C63 2.726 . S
C181 C122 2.726 . S
C197 C143 2.033 . S
C199 C42 2.033 . S
C215 C23 2.726 . S
C217 C82 2.726 . S
C233 C124 1.647 . S
C235 C25 1.647 . S
C251 C111 1.588 . S
C253 C60 1.588 . S
C269 C84 1.647 . S
C271 C65 1.647 . S
C287 C20 1.588 . S
C289 C151 1.588 . S
C305 C140 2.208 1_554 S
C307 C31 2.208 1_556 S
C323 C105 1.069 . S
C325 C44 1.069 . S
C341 C71 2.208 1_556 S
C343 C100 2.208 1_554 S
C359 C4 1.069 . S
C361 C145 1.069 . S
