# Generated by pormake.
# Topology fnl, (5)-cn, num edge types: 1
# Building blocks:
#     Node 0, Type 0, BuildingBlock: XOMCOT_clean_sbu_0, # of connection points: 5
#     Node 1, Type 0, BuildingBlock: XOMCOT_clean_sbu_0, # of connection points: 5
#     Node 2, Type 0, BuildingBlock: XOMCOT_clean_sbu_0, # of connection points: 5
#     Node 3, Type 0, BuildingBlock: XOMCOT_clean_sbu_0, # of connection points: 5
#     Node 4, Type 0, BuildingBlock: XOMCOT_clean_sbu_0, # of connection points: 5
#     Node 5, Type 0, BuildingBlock: XOMCOT_clean_sbu_0, # of connection points: 5
#     Node 6, Type 0, BuildingBlock: XOMCOT_clean_sbu_0, # of connection points: 5
#     Node 7, Type 0, BuildingBlock: XOMCOT_clean_sbu_0, # of connection points: 5
#     Node 8, Type 0, BuildingBlock: XOMCOT_clean_sbu_0, # of connection points: 5
#     Node 9, Type 0, BuildingBlock: XOMCOT_clean_sbu_0, # of connection points: 5
#     Node 10, Type 0, BuildingBlock: XOMCOT_clean_sbu_0, # of connection points: 5
#     Node 11, Type 0, BuildingBlock: XOMCOT_clean_sbu_0, # of connection points: 5
#     Node 12, Type 0, BuildingBlock: XOMCOT_clean_sbu_0, # of connection points: 5
#     Node 13, Type 0, BuildingBlock: XOMCOT_clean_sbu_0, # of connection points: 5
#     Node 14, Type 0, BuildingBlock: XOMCOT_clean_sbu_0, # of connection points: 5
#     Node 15, Type 0, BuildingBlock: XOMCOT_clean_sbu_0, # of connection points: 5
#     Edge 16, Type (0, 0), None
#     Edge 17, Type (0, 0), None
#     Edge 18, Type (0, 0), None
#     Edge 19, Type (0, 0), None
#     Edge 20, Type (0, 0), None
#     Edge 21, Type (0, 0), None
#     Edge 22, Type (0, 0), None
#     Edge 23, Type (0, 0), None
#     Edge 24, Type (0, 0), None
#     Edge 25, Type (0, 0), None
#     Edge 26, Type (0, 0), None
#     Edge 27, Type (0, 0), None
#     Edge 28, Type (0, 0), None
#     Edge 29, Type (0, 0), None
#     Edge 30, Type (0, 0), None
#     Edge 31, Type (0, 0), None
#     Edge 32, Type (0, 0), None
#     Edge 33, Type (0, 0), None
#     Edge 34, Type (0, 0), None
#     Edge 35, Type (0, 0), None
#     Edge 36, Type (0, 0), None
#     Edge 37, Type (0, 0), None
#     Edge 38, Type (0, 0), None
#     Edge 39, Type (0, 0), None
#     Edge 40, Type (0, 0), None
#     Edge 41, Type (0, 0), None
#     Edge 42, Type (0, 0), None
#     Edge 43, Type (0, 0), None
#     Edge 44, Type (0, 0), None
#     Edge 45, Type (0, 0), None
#     Edge 46, Type (0, 0), None
#     Edge 47, Type (0, 0), None
#     Edge 48, Type (0, 0), None
#     Edge 49, Type (0, 0), None
#     Edge 50, Type (0, 0), None
#     Edge 51, Type (0, 0), None
#     Edge 52, Type (0, 0), None
#     Edge 53, Type (0, 0), None
#     Edge 54, Type (0, 0), None
#     Edge 55, Type (0, 0), None
# Relax obj value: 0.594
# Max RMSD: 0.278
# Mean RMSD: 0.278
data_MOF--net-fnl--node1-XOMCOT_clean_sbu_0--edge1-none
_symmetry_space_group_name_H-M    P1
_symmetry_Int_Tables_number       1
_symmetry_cell_setting            triclinic
loop_
_symmetry_equiv_pos_as_xyz
'x, y, z'
_cell_length_a     18.320987
_cell_length_b     18.320924
_cell_length_c     44.531763
_cell_angle_alpha  90.000847
_cell_angle_beta   90.000438
_cell_angle_gamma 89.992815
loop_
_atom_site_label
_atom_site_type_symbol
_atom_site_fract_x
_atom_site_fract_y
_atom_site_fract_z
_atom_type_partial_charge
Co0 Co 0.07859 0.06296 0.08068 0.0
C1 C 0.06064 0.22037 0.07533 0.0
C2 C 0.13656 0.19574 0.1104 0.0
C3 C 0.11129 0.26634 0.11436 0.0
N4 N 0.10381 0.1658 0.08616 0.0
N5 N 0.06376 0.28131 0.09219 0.0
H6 H 0.02041 0.21329 0.05786 0.0
H7 H 0.17051 0.16672 0.12605 0.0
C8 C 0.18867 0.01824 0.13565 0.0
O9 O 0.1638 0.05715 0.15821 0.0
N10 N 0.04365 0.96563 0.07489 0.0
C11 C 0.97476 0.95024 0.06587 0.0
C12 C 0.96592 0.87641 0.06465 0.0
C13 C 0.0765 0.90111 0.07886 0.0
N14 N 0.02941 0.84671 0.07305 0.0
C15 C 0.93674 0.10374 0.10055 0.0
C16 C 0.93828 0.01611 0.1506 0.0
C17 C 0.87141 0.032 0.13698 0.0
C18 C 0.87034 0.08077 0.11292 0.0
C19 C 1.00258 0.03395 0.13591 0.0
N20 N 1.00133 0.07425 0.11024 0.0
H21 H 0.93471 0.13513 0.0801 0.0
H22 H 0.05031 0.00472 0.14261 0.0
H23 H 0.93339 0.99007 0.06037 0.0
H24 H 0.13264 0.89388 0.08579 0.0
O25 O 0.02498 0.08605 0.04407 0.0
O26 O 0.141 0.05322 0.04583 0.0
O27 O 0.15834 0.02227 0.10952 0.0
C28 C 0.08365 0.06635 0.02976 0.0
H29 H 0.12228 0.30158 0.13333 0.0
H30 H 0.91765 0.84678 0.05774 0.0
H31 H 0.94085 0.97755 0.16886 0.0
H32 H 0.81966 0.0937 0.10159 0.0
Co33 Co 0.28397 0.85082 0.33067 0.0
C34 C 0.12657 0.83288 0.32533 0.0
C35 C 0.15119 0.90877 0.3604 0.0
C36 C 0.0806 0.8835 0.36436 0.0
N37 N 0.18113 0.87604 0.33616 0.0
N38 N 0.06563 0.83599 0.34219 0.0
H39 H 0.13365 0.79265 0.30785 0.0
H40 H 0.18021 0.94271 0.37606 0.0
C41 C 0.3287 0.9609 0.38566 0.0
O42 O 0.2898 0.93607 0.40823 0.0
N43 N 0.38131 0.81588 0.32488 0.0
C44 C 0.39671 0.747 0.31585 0.0
C45 C 0.47055 0.73815 0.31463 0.0
C46 C 0.44582 0.84871 0.32887 0.0
N47 N 0.50024 0.80162 0.32305 0.0
C48 C 0.24323 0.70895 0.35052 0.0
C49 C 0.33078 0.71047 0.4006 0.0
C50 C 0.31495 0.64361 0.38696 0.0
C51 C 0.26622 0.64254 0.36289 0.0
C52 C 0.31294 0.77478 0.38591 0.0
N53 N 0.27268 0.77353 0.36023 0.0
H54 H 0.21187 0.70694 0.33007 0.0
H55 H 0.34212 0.82252 0.39263 0.0
H56 H 0.3569 0.70564 0.31034 0.0
H57 H 0.45305 0.90484 0.33582 0.0
O58 O 0.26089 0.79724 0.29406 0.0
O59 O 0.29371 0.91326 0.29583 0.0
O60 O 0.32466 0.93055 0.35953 0.0
C61 C 0.28059 0.85592 0.27976 0.0
H62 H 0.04537 0.89446 0.38335 0.0
H63 H 0.50019 0.68989 0.30771 0.0
H64 H 0.3693 0.71303 0.41887 0.0
H65 H 0.25333 0.59187 0.35154 0.0
Co66 Co 0.49604 0.05621 0.58068 0.0
C67 C 0.51398 0.8988 0.57534 0.0
C68 C 0.43807 0.92343 0.6104 0.0
C69 C 0.46334 0.85283 0.61436 0.0
N70 N 0.47082 0.95337 0.58616 0.0
N71 N 0.51086 0.83786 0.59219 0.0
H72 H 0.55421 0.90587 0.55786 0.0
H73 H 0.40412 0.95245 0.62606 0.0
C74 C 0.38596 0.10093 0.63565 0.0
O75 O 0.41083 0.06203 0.65822 0.0
N76 N 0.53097 0.15353 0.57489 0.0
C77 C 0.59986 0.16892 0.56587 0.0
C78 C 0.6087 0.24275 0.56465 0.0
C79 C 0.49813 0.21805 0.57886 0.0
N80 N 0.54522 0.27246 0.57305 0.0
C81 C 0.63788 0.01543 0.60055 0.0
C82 C 0.63635 0.10306 0.6506 0.0
C83 C 0.70322 0.08717 0.63697 0.0
C84 C 0.70429 0.0384 0.61292 0.0
C85 C 0.57205 0.08522 0.63591 0.0
N86 N 0.5733 0.04492 0.61024 0.0
H87 H 0.63991 0.98404 0.5801 0.0
H88 H 0.52432 0.11446 0.64261 0.0
H89 H 0.64123 0.1291 0.56037 0.0
H90 H 0.44199 0.22529 0.58579 0.0
O91 O 0.54964 0.03311 0.54407 0.0
O92 O 0.43362 0.06595 0.54583 0.0
O93 O 0.41629 0.0969 0.60952 0.0
C94 C 0.49097 0.05281 0.52976 0.0
H95 H 0.45236 0.8176 0.63334 0.0
H96 H 0.65698 0.27238 0.55774 0.0
H97 H 0.63378 0.14162 0.66885 0.0
H98 H 0.75497 0.02548 0.60158 0.0
Co99 Co 0.29065 0.26834 0.83068 0.0
C100 C 0.44806 0.28628 0.82533 0.0
C101 C 0.42344 0.2104 0.86041 0.0
C102 C 0.49403 0.23567 0.86437 0.0
N103 N 0.3935 0.24312 0.83617 0.0
N104 N 0.509 0.28317 0.84219 0.0
H105 H 0.44098 0.3265 0.80785 0.0
H106 H 0.39442 0.17647 0.87607 0.0
C107 C 0.24593 0.15826 0.88565 0.0
O108 O 0.28482 0.1831 0.90823 0.0
N109 N 0.19332 0.30328 0.82489 0.0
C110 C 0.17791 0.37216 0.81586 0.0
C111 C 0.10408 0.38101 0.81464 0.0
C112 C 0.12881 0.27045 0.82887 0.0
N113 N 0.07439 0.31753 0.82305 0.0
C114 C 0.3314 0.4102 0.85053 0.0
C115 C 0.24383 0.40869 0.9006 0.0
C116 C 0.25967 0.47555 0.88696 0.0
C117 C 0.30841 0.47661 0.8629 0.0
C118 C 0.26167 0.34438 0.88591 0.0
N119 N 0.30194 0.34562 0.86023 0.0
H120 H 0.36277 0.41222 0.83008 0.0
H121 H 0.23248 0.29664 0.89262 0.0
H122 H 0.21773 0.41352 0.81035 0.0
H123 H 0.12158 0.21431 0.83581 0.0
O124 O 0.31373 0.32193 0.79407 0.0
O125 O 0.28092 0.20591 0.79583 0.0
O126 O 0.24997 0.18861 0.85953 0.0
C127 C 0.29404 0.26325 0.77976 0.0
H128 H 0.52926 0.22471 0.88335 0.0
H129 H 0.07444 0.42928 0.80772 0.0
H130 H 0.2053 0.40612 0.91886 0.0
H131 H 0.32131 0.52728 0.85155 0.0
Co132 Co 0.07855 0.05624 0.94641 0.0
C133 C 0.06061 0.89884 0.95176 0.0
C134 C 0.13651 0.92345 0.91669 0.0
C135 C 0.11124 0.85286 0.91273 0.0
N136 N 0.10377 0.9534 0.94093 0.0
N137 N 0.06372 0.8379 0.93491 0.0
H138 H 0.02038 0.90593 0.96923 0.0
H139 H 0.17045 0.95247 0.90103 0.0
C140 C 0.18864 0.10095 0.89144 0.0
O141 O 0.16383 0.06204 0.86886 0.0
N142 N 0.0436 0.15358 0.9522 0.0
C143 C 0.97473 0.16899 0.96123 0.0
C144 C 0.96588 0.24282 0.96245 0.0
C145 C 0.07644 0.21809 0.94822 0.0
N146 N 0.02935 0.27251 0.95404 0.0
C147 C 0.93668 0.0155 0.92657 0.0
C148 C 0.9382 0.10301 0.87648 0.0
C149 C 0.87134 0.0872 0.89012 0.0
C150 C 0.87028 0.03848 0.91419 0.0
C151 C 1.00251 0.08518 0.89117 0.0
N152 N 1.00127 0.04494 0.91686 0.0
H153 H 0.93466 0.98416 0.94702 0.0
H154 H 0.05026 0.11434 0.88445 0.0
H155 H 0.93337 0.12917 0.96674 0.0
H156 H 0.13257 0.22532 0.94127 0.0
O157 O 0.02497 0.03317 0.98303 0.0
O158 O 0.14099 0.06599 0.98126 0.0
O159 O 0.15827 0.09692 0.91756 0.0
C160 C 0.08364 0.05288 0.99733 0.0
H161 H 0.12221 0.81763 0.89375 0.0
H162 H 0.91762 0.27246 0.96937 0.0
H163 H 0.94077 0.14152 0.85821 0.0
H164 H 0.8196 0.02561 0.92554 0.0
Co165 Co 0.29069 0.85086 0.19641 0.0
C166 C 0.44809 0.83292 0.20176 0.0
C167 C 0.42346 0.90884 0.1667 0.0
C168 C 0.49406 0.88357 0.16274 0.0
N169 N 0.39352 0.87609 0.19093 0.0
N170 N 0.50903 0.83604 0.18491 0.0
H171 H 0.44101 0.79268 0.21923 0.0
H172 H 0.39445 0.94279 0.15104 0.0
C173 C 0.24598 0.96095 0.14144 0.0
O174 O 0.28488 0.93609 0.11887 0.0
N175 N 0.19336 0.81593 0.2022 0.0
C176 C 0.17797 0.74704 0.21122 0.0
C177 C 0.10414 0.7382 0.21244 0.0
C178 C 0.12884 0.84878 0.19823 0.0
N179 N 0.07443 0.80169 0.20404 0.0
C180 C 0.33147 0.70902 0.17654 0.0
C181 C 0.24384 0.71055 0.12649 0.0
C182 C 0.25972 0.64368 0.14011 0.0
C183 C 0.30849 0.64261 0.16416 0.0
C184 C 0.26168 0.77486 0.14118 0.0
N185 N 0.30198 0.7736 0.16685 0.0
H186 H 0.36285 0.70699 0.19699 0.0
H187 H 0.23245 0.82259 0.13448 0.0
H188 H 0.21779 0.70567 0.21671 0.0
H189 H 0.1216 0.90492 0.1913 0.0
O190 O 0.31377 0.79726 0.23302 0.0
O191 O 0.28094 0.91328 0.23126 0.0
O192 O 0.24999 0.93062 0.16757 0.0
C193 C 0.29406 0.85593 0.24733 0.0
H194 H 0.5293 0.89456 0.14376 0.0
H195 H 0.07451 0.68993 0.21935 0.0
H196 H 0.20528 0.71313 0.10823 0.0
H197 H 0.32141 0.59194 0.1755 0.0
Co198 Co 0.49608 0.06292 0.44642 0.0
C199 C 0.51402 0.22032 0.45176 0.0
C200 C 0.43811 0.19571 0.4167 0.0
C201 C 0.46338 0.2663 0.41274 0.0
N202 N 0.47085 0.16576 0.44093 0.0
N203 N 0.5109 0.28126 0.43491 0.0
H204 H 0.55426 0.21324 0.46923 0.0
H205 H 0.40417 0.1667 0.40104 0.0
C206 C 0.38599 0.01821 0.39144 0.0
O207 O 0.41079 0.05712 0.36886 0.0
N208 N 0.53103 0.96559 0.4522 0.0
C209 C 0.5999 0.95018 0.46124 0.0
C210 C 0.60875 0.87635 0.46246 0.0
C211 C 0.49819 0.90107 0.44822 0.0
N212 N 0.54527 0.84666 0.45404 0.0
C213 C 0.63795 0.10366 0.42658 0.0
C214 C 0.63643 0.01617 0.37648 0.0
C215 C 0.70329 0.03197 0.39013 0.0
C216 C 0.70436 0.08067 0.4142 0.0
C217 C 0.57212 0.034 0.39117 0.0
N218 N 0.57337 0.07423 0.41686 0.0
H219 H 0.63998 0.135 0.44703 0.0
H220 H 0.52437 0.00484 0.38445 0.0
H221 H 0.64126 0.98999 0.46675 0.0
H222 H 0.44206 0.89385 0.44127 0.0
O223 O 0.54965 0.086 0.48303 0.0
O224 O 0.43364 0.05317 0.48126 0.0
O225 O 0.41636 0.02224 0.41756 0.0
C226 C 0.49098 0.06629 0.49733 0.0
H227 H 0.45241 0.30154 0.39376 0.0
H228 H 0.65701 0.8467 0.46938 0.0
H229 H 0.63386 0.97767 0.35821 0.0
H230 H 0.75503 0.09353 0.42556 0.0
Co231 Co 0.28394 0.26832 0.69642 0.0
C232 C 0.12654 0.28627 0.70176 0.0
C233 C 0.15116 0.21034 0.6667 0.0
C234 C 0.08056 0.2356 0.66274 0.0
N235 N 0.18111 0.2431 0.69093 0.0
N236 N 0.0656 0.28314 0.68491 0.0
H237 H 0.13362 0.32651 0.71923 0.0
H238 H 0.18017 0.17637 0.65105 0.0
C239 C 0.32865 0.15822 0.64144 0.0
O240 O 0.28973 0.18307 0.61888 0.0
N241 N 0.38127 0.30325 0.7022 0.0
C242 C 0.39666 0.37214 0.71122 0.0
C243 C 0.47049 0.38098 0.71244 0.0
C244 C 0.44579 0.27041 0.69823 0.0
N245 N 0.5002 0.31749 0.70404 0.0
C246 C 0.24317 0.41017 0.67655 0.0
C247 C 0.33075 0.40862 0.62648 0.0
C248 C 0.31489 0.4755 0.64011 0.0
C249 C 0.26615 0.47657 0.66417 0.0
C250 C 0.31292 0.34432 0.64117 0.0
N251 N 0.27264 0.34558 0.66685 0.0
H252 H 0.2118 0.4122 0.697 0.0
H253 H 0.34213 0.29658 0.63447 0.0
H254 H 0.35684 0.41351 0.71672 0.0
H255 H 0.45302 0.21427 0.69129 0.0
O256 O 0.26086 0.32192 0.73302 0.0
O257 O 0.29369 0.20589 0.73126 0.0
O258 O 0.32463 0.18857 0.66757 0.0
C259 C 0.28057 0.26325 0.74733 0.0
H260 H 0.04532 0.22461 0.64377 0.0
H261 H 0.50012 0.42925 0.71936 0.0
H262 H 0.36929 0.40605 0.60822 0.0
H263 H 0.25324 0.52725 0.67551 0.0
Co264 Co 0.79069 0.35086 0.69642 0.0
C265 C 0.94805 0.33279 0.70178 0.0
C266 C 0.92351 0.40859 0.66666 0.0
C267 C 0.99405 0.38313 0.66268 0.0
N268 N 0.89355 0.37602 0.69094 0.0
N269 N 0.00889 0.33561 0.68486 0.0
H270 H 0.94095 0.29269 0.7193 0.0
H271 H 0.89454 0.44254 0.65099 0.0
C272 C 0.74601 0.46097 0.64143 0.0
O273 O 0.78491 0.43613 0.61886 0.0
N274 N 0.69334 0.31598 0.7022 0.0
C275 C 0.67792 0.2471 0.71121 0.0
C276 C 0.60408 0.2383 0.71244 0.0
C277 C 0.62884 0.34888 0.69824 0.0
N278 N 0.57441 0.30183 0.70408 0.0
C279 C 0.83142 0.20898 0.67657 0.0
C280 C 0.74395 0.21055 0.62647 0.0
C281 C 0.7598 0.14369 0.6401 0.0
C282 C 0.80847 0.14258 0.66419 0.0
C283 C 0.76175 0.27484 0.64117 0.0
N284 N 0.80198 0.27357 0.66686 0.0
H285 H 0.86275 0.20694 0.69703 0.0
H286 H 0.73257 0.32259 0.63446 0.0
H287 H 0.71772 0.2057 0.71669 0.0
H288 H 0.62163 0.40502 0.69131 0.0
O289 O 0.81372 0.29728 0.73303 0.0
O290 O 0.78095 0.41331 0.73126 0.0
O291 O 0.75004 0.43061 0.66756 0.0
C292 C 0.79404 0.35597 0.74734 0.0
H293 H 0.02928 0.39397 0.64369 0.0
H294 H 0.57443 0.19003 0.71933 0.0
H295 H 0.70545 0.21313 0.60819 0.0
H296 H 0.82133 0.09189 0.67553 0.0
Co297 Co 0.78394 0.76831 0.19642 0.0
C298 C 0.62658 0.78639 0.20178 0.0
C299 C 0.65111 0.71059 0.16667 0.0
C300 C 0.58058 0.73604 0.16268 0.0
N301 N 0.68108 0.74316 0.19094 0.0
N302 N 0.56574 0.78357 0.18486 0.0
H303 H 0.63368 0.8265 0.2193 0.0
H304 H 0.68009 0.67663 0.151 0.0
C305 C 0.82862 0.6582 0.14144 0.0
O306 O 0.78972 0.68304 0.11886 0.0
N307 N 0.88128 0.8032 0.2022 0.0
C308 C 0.89671 0.87208 0.21122 0.0
C309 C 0.97054 0.88088 0.21245 0.0
C310 C 0.94578 0.7703 0.19825 0.0
N311 N 1.00021 0.81735 0.20408 0.0
C312 C 0.74321 0.9102 0.17658 0.0
C313 C 0.83067 0.90863 0.12647 0.0
C314 C 0.81483 0.97549 0.14011 0.0
C315 C 0.76617 0.9766 0.16419 0.0
C316 C 0.81287 0.84433 0.14117 0.0
N317 N 0.77265 0.84561 0.16687 0.0
H318 H 0.71189 0.91224 0.19704 0.0
H319 H 0.84205 0.79658 0.13446 0.0
H320 H 0.85691 0.91348 0.2167 0.0
H321 H 0.95299 0.71416 0.19131 0.0
O322 O 0.76091 0.8219 0.23304 0.0
O323 O 0.79367 0.70586 0.23126 0.0
O324 O 0.82458 0.68857 0.16756 0.0
C325 C 0.78059 0.76321 0.24734 0.0
H326 H 0.54534 0.7252 0.14369 0.0
H327 H 1.0002 0.92915 0.21934 0.0
H328 H 0.86916 0.90605 0.10819 0.0
H329 H 0.75331 0.02729 0.17554 0.0
Co330 Co 0.78388 0.35092 0.83068 0.0
C331 C 0.62651 0.33287 0.82531 0.0
C332 C 0.65105 0.40862 0.86044 0.0
C333 C 0.58052 0.38316 0.86442 0.0
N334 N 0.68101 0.37609 0.83616 0.0
N335 N 0.56568 0.33566 0.84223 0.0
H336 H 0.63362 0.29278 0.80778 0.0
H337 H 0.68003 0.44255 0.87612 0.0
C338 C 0.82856 0.46104 0.88566 0.0
O339 O 0.7897 0.43617 0.90823 0.0
N340 N 0.88124 0.31604 0.8249 0.0
C341 C 0.89668 0.24714 0.8159 0.0
C342 C 0.97051 0.23834 0.81467 0.0
C343 C 0.94573 0.34894 0.82884 0.0
N344 N 1.00017 0.30188 0.82302 0.0
C345 C 0.74313 0.20907 0.85054 0.0
C346 C 0.8307 0.21063 0.90062 0.0
C347 C 0.8148 0.14377 0.887 0.0
C348 C 0.76609 0.14267 0.86293 0.0
C349 C 0.81289 0.27492 0.88592 0.0
N350 N 0.77261 0.27366 0.86024 0.0
H351 H 0.71177 0.20705 0.83009 0.0
H352 H 0.84211 0.32266 0.89262 0.0
H353 H 0.85688 0.20573 0.81044 0.0
H354 H 0.95293 0.40509 0.83577 0.0
O355 O 0.76086 0.2973 0.79407 0.0
O356 O 0.7936 0.41335 0.79583 0.0
O357 O 0.82451 0.43069 0.85953 0.0
C358 C 0.78054 0.35598 0.77976 0.0
H359 H 0.5453 0.39397 0.88342 0.0
H360 H 1.00017 0.19005 0.80779 0.0
H361 H 0.86924 0.21319 0.91888 0.0
H362 H 0.75319 0.09198 0.85159 0.0
Co363 Co 0.79075 0.76824 0.33068 0.0
C364 C 0.94812 0.78629 0.32531 0.0
C365 C 0.92358 0.71055 0.36044 0.0
C366 C 0.9941 0.73601 0.36442 0.0
N367 N 0.89362 0.74307 0.33616 0.0
N368 N 0.00895 0.7835 0.34223 0.0
H369 H 0.94101 0.82637 0.30778 0.0
H370 H 0.8946 0.67663 0.37612 0.0
C371 C 0.74607 0.65812 0.38566 0.0
O372 O 0.78492 0.683 0.40823 0.0
N373 N 0.69339 0.80312 0.3249 0.0
C374 C 0.67795 0.87202 0.31591 0.0
C375 C 0.60412 0.88083 0.31468 0.0
C376 C 0.6289 0.77022 0.32884 0.0
N377 N 0.57446 0.81728 0.32302 0.0
C378 C 0.8315 0.91008 0.35055 0.0
C379 C 0.7439 0.90853 0.40062 0.0
C380 C 0.75982 0.97539 0.387 0.0
C381 C 0.80855 0.97648 0.36294 0.0
C382 C 0.76172 0.84423 0.38592 0.0
N383 N 0.80201 0.8455 0.36025 0.0
H384 H 0.86287 0.9121 0.33011 0.0
H385 H 0.73249 0.7965 0.39261 0.0
H386 H 0.71774 0.91344 0.31045 0.0
H387 H 0.6217 0.71407 0.33576 0.0
O388 O 0.81376 0.82187 0.29408 0.0
O389 O 0.78103 0.70582 0.29583 0.0
O390 O 0.75012 0.68846 0.35953 0.0
C391 C 0.79409 0.76319 0.27976 0.0
H392 H 0.02933 0.72521 0.38342 0.0
H393 H 0.57445 0.92911 0.3078 0.0
H394 H 0.70535 0.90597 0.41888 0.0
H395 H 0.82146 0.02717 0.35161 0.0
Co396 Co 0.5786 0.56296 0.58067 0.0
C397 C 0.56052 0.72032 0.57531 0.0
C398 C 0.63632 0.69578 0.61043 0.0
C399 C 0.61086 0.76631 0.61441 0.0
N400 N 0.60375 0.66582 0.58615 0.0
N401 N 0.56333 0.78116 0.59223 0.0
H402 H 0.52042 0.71322 0.55779 0.0
H403 H 0.67027 0.6668 0.6261 0.0
C404 C 0.6887 0.51828 0.63565 0.0
O405 O 0.66385 0.55716 0.65823 0.0
N406 N 0.54372 0.46561 0.57489 0.0
C407 C 0.47483 0.45018 0.56587 0.0
C408 C 0.46603 0.37635 0.56465 0.0
C409 C 0.57661 0.40111 0.57884 0.0
N410 N 0.52956 0.34668 0.57301 0.0
C411 C 0.43672 0.60369 0.60052 0.0
C412 C 0.43829 0.51619 0.65062 0.0
C413 C 0.37143 0.53205 0.63698 0.0
C414 C 0.37032 0.58074 0.61291 0.0
C415 C 0.50258 0.53399 0.63591 0.0
N416 N 0.50131 0.57424 0.61023 0.0
H417 H 0.43468 0.63503 0.58006 0.0
H418 H 0.55033 0.5048 0.64262 0.0
H419 H 0.43343 0.48999 0.5604 0.0
H420 H 0.63275 0.3939 0.58578 0.0
O421 O 0.52501 0.58599 0.54406 0.0
O422 O 0.64105 0.55323 0.54583 0.0
O423 O 0.65835 0.52231 0.60953 0.0
C424 C 0.5837 0.56632 0.52975 0.0
H425 H 0.62169 0.80154 0.63341 0.0
H426 H 0.41775 0.3467 0.55776 0.0
H427 H 0.44086 0.47767 0.66889 0.0
H428 H 0.31963 0.59361 0.60156 0.0
Co429 Co 0.99603 0.55621 0.08067 0.0
C430 C 0.0141 0.39885 0.07531 0.0
C431 C 0.93831 0.42339 0.11043 0.0
C432 C 0.96377 0.35286 0.11441 0.0
N433 N 0.97087 0.45335 0.08615 0.0
N434 N 0.01129 0.33801 0.09223 0.0
H435 H 0.05421 0.40595 0.05779 0.0
H436 H 0.90436 0.45237 0.1261 0.0
C437 C 0.88592 0.6009 0.13566 0.0
O438 O 0.91077 0.56201 0.15823 0.0
N439 N 0.03091 0.65356 0.07489 0.0
C440 C 0.09979 0.66898 0.06587 0.0
C441 C 0.10859 0.74282 0.06464 0.0
C442 C 0.99802 0.71806 0.07884 0.0
N443 N 0.04507 0.77249 0.07301 0.0
C444 C 0.13792 0.51548 0.10051 0.0
C445 C 0.13634 0.60296 0.15062 0.0
C446 C 0.20321 0.58711 0.13698 0.0
C447 C 0.20432 0.53844 0.1129 0.0
C448 C 0.07205 0.58516 0.13592 0.0
N449 N 0.07332 0.54493 0.11023 0.0
H450 H 0.13995 0.48416 0.08006 0.0
H451 H 0.0243 0.61434 0.14263 0.0
H452 H 0.14119 0.62918 0.06039 0.0
H453 H 0.94188 0.72527 0.08578 0.0
O454 O 0.04962 0.53318 0.04406 0.0
O455 O 0.93358 0.56594 0.04583 0.0
O456 O 0.91628 0.59686 0.10953 0.0
C457 C 0.99092 0.55285 0.02975 0.0
H458 H 0.95293 0.31763 0.1334 0.0
H459 H 0.15687 0.77247 0.05775 0.0
H460 H 0.13377 0.64146 0.1689 0.0
H461 H 0.255 0.52558 0.10156 0.0
Co462 Co 0.57866 0.55615 0.44641 0.0
C463 C 0.5606 0.39878 0.45178 0.0
C464 C 0.63635 0.42331 0.41665 0.0
C465 C 0.61089 0.35278 0.41267 0.0
N466 N 0.60382 0.45328 0.44093 0.0
N467 N 0.56339 0.33795 0.43486 0.0
H468 H 0.52052 0.40589 0.46931 0.0
H469 H 0.67028 0.45228 0.40097 0.0
C470 C 0.68878 0.60081 0.39143 0.0
O471 O 0.66393 0.56195 0.36886 0.0
N472 N 0.54377 0.65351 0.45218 0.0
C473 C 0.47487 0.66895 0.46118 0.0
C474 C 0.46607 0.74278 0.46241 0.0
C475 C 0.57667 0.718 0.44824 0.0
N476 N 0.52961 0.77244 0.45407 0.0
C477 C 0.43681 0.5154 0.42654 0.0
C478 C 0.43837 0.60294 0.37646 0.0
C479 C 0.3715 0.58705 0.39008 0.0
C480 C 0.3704 0.53835 0.41415 0.0
C481 C 0.50266 0.58513 0.39116 0.0
N482 N 0.50139 0.54487 0.41684 0.0
H483 H 0.43478 0.48405 0.44699 0.0
H484 H 0.5504 0.61434 0.38446 0.0
H485 H 0.43346 0.62915 0.46665 0.0
H486 H 0.63282 0.7252 0.44132 0.0
O487 O 0.52503 0.53314 0.48302 0.0
O488 O 0.64108 0.56587 0.48126 0.0
O489 O 0.65842 0.59678 0.41756 0.0
C490 C 0.58371 0.55281 0.49733 0.0
H491 H 0.6217 0.31756 0.39367 0.0
H492 H 0.41779 0.77245 0.46929 0.0
H493 H 0.44093 0.64147 0.35819 0.0
H494 H 0.31972 0.52546 0.42549 0.0
Co495 Co 0.99597 0.56302 0.94641 0.0
C496 C 0.01403 0.72038 0.95178 0.0
C497 C 0.93827 0.69585 0.91665 0.0
C498 C 0.96373 0.76638 0.91267 0.0
N499 N 0.97081 0.66589 0.94093 0.0
N500 N 0.01124 0.78122 0.93486 0.0
H501 H 0.05411 0.71327 0.96931 0.0
H502 H 0.90434 0.66688 0.90097 0.0
C503 C 0.88584 0.51835 0.89143 0.0
O504 O 0.9107 0.55722 0.86886 0.0
N505 N 0.03086 0.46566 0.95219 0.0
C506 C 0.09975 0.45022 0.96119 0.0
C507 C 0.10855 0.37639 0.96242 0.0
C508 C 0.99796 0.40117 0.94824 0.0
N509 N 0.04501 0.34673 0.95407 0.0
C510 C 0.13783 0.60376 0.92655 0.0
C511 C 0.13626 0.51623 0.87646 0.0
C512 C 0.20313 0.53211 0.89009 0.0
C513 C 0.20423 0.58081 0.91416 0.0
C514 C 0.07197 0.53404 0.89116 0.0
N515 N 0.07324 0.57429 0.91685 0.0
H516 H 0.13986 0.6351 0.947 0.0
H517 H 0.02423 0.50484 0.88446 0.0
H518 H 0.14116 0.49001 0.96666 0.0
H519 H 0.94181 0.39397 0.94132 0.0
O520 O 0.04959 0.58603 0.98302 0.0
O521 O 0.93355 0.5533 0.98126 0.0
O522 O 0.91621 0.52239 0.91756 0.0
C523 C 0.99091 0.56636 0.99733 0.0
H524 H 0.95292 0.80161 0.89367 0.0
H525 H 0.15684 0.34672 0.9693 0.0
H526 H 0.1337 0.47771 0.85819 0.0
H527 H 0.25491 0.59369 0.9255 0.0
loop_
_geom_bond_atom_site_label_1
_geom_bond_atom_site_label_2
_geom_bond_distance
_geom_bond_site_symmetry_2
_ccdc_geom_bond_type
Co0 N4 2.148 . S
Co0 N10 2.128 1_545 S
Co0 N20 2.194 1_455 S
Co0 O25 2.351 . S
Co0 O26 2.155 . S
Co0 O27 2.096 . S
C1 N4 1.301 . S
C1 N5 1.328 . S
C1 H6 0.930 . S
C2 C3 1.333 . S
C2 N4 1.317 . S
C2 H7 0.930 . S
C3 C2 1.333 . S
C3 N5 1.350 . S
C3 H29 0.931 . S
N4 Co0 2.148 . S
N4 C1 1.301 . S
N4 C2 1.317 . S
N5 C1 1.328 . S
N5 C3 1.350 . S
H6 C1 0.930 . S
H7 C2 0.930 . S
C8 O9 1.223 1_545 S
C8 O27 1.247 . S
O9 C8 1.223 1_565 S
N10 Co0 2.128 1_565 S
N10 C11 1.355 1_455 S
N10 C13 1.311 . S
C11 N10 1.355 1_655 S
C11 C12 1.363 1_655 S
C11 H23 0.929 . S
C12 C11 1.363 1_455 S
C12 N14 1.375 . S
C12 H30 0.931 1_455 S
C13 N10 1.311 . S
C13 N14 1.347 . S
C13 H24 0.929 . S
N14 C12 1.375 . S
N14 C13 1.347 . S
C15 C18 1.365 . S
C15 N20 1.328 . S
C15 H21 0.929 . S
C16 C17 1.362 . S
C16 C19 1.378 . S
C16 H31 0.929 1_545 S
C17 C16 1.362 . S
C17 C18 1.366 . S
C18 C15 1.365 . S
C18 C17 1.366 . S
C18 H32 0.930 . S
C19 C16 1.378 . S
C19 N20 1.315 . S
C19 H22 0.930 1_655 S
N20 Co0 2.194 1_655 S
N20 C15 1.328 . S
N20 C19 1.315 . S
H21 C15 0.929 . S
H22 C19 0.930 1_455 S
H23 C11 0.929 . S
H24 C13 0.929 . S
O25 Co0 2.351 . S
O25 C28 1.244 . S
O26 Co0 2.155 . S
O26 C28 1.240 . S
O27 Co0 2.096 . S
O27 C8 1.247 . S
C28 O25 1.244 . S
C28 O26 1.240 . S
H29 C3 0.931 . S
H30 C12 0.931 1_655 S
H31 C16 0.929 1_565 S
H32 C18 0.930 . S
Co33 N37 2.148 . S
Co33 N43 2.128 . S
Co33 N53 2.194 . S
Co33 O58 2.351 . S
Co33 O59 2.155 . S
Co33 O60 2.096 . S
C34 N37 1.301 . S
C34 N38 1.328 . S
C34 H39 0.930 . S
C35 C36 1.333 . S
C35 N37 1.317 . S
C35 H40 0.930 . S
C36 C35 1.333 . S
C36 N38 1.350 . S
C36 H62 0.931 . S
N37 Co33 2.148 . S
N37 C34 1.301 . S
N37 C35 1.317 . S
N38 C34 1.328 . S
N38 C36 1.350 . S
H39 C34 0.930 . S
H40 C35 0.930 . S
C41 O42 1.224 . S
C41 O60 1.247 . S
O42 C41 1.224 . S
N43 Co33 2.128 . S
N43 C44 1.355 . S
N43 C46 1.311 . S
C44 N43 1.355 . S
C44 C45 1.363 . S
C44 H56 0.929 . S
C45 C44 1.363 . S
C45 N47 1.375 . S
C45 H63 0.931 . S
C46 N43 1.311 . S
C46 N47 1.347 . S
C46 H57 0.929 . S
N47 C45 1.375 . S
N47 C46 1.347 . S
C48 C51 1.365 . S
C48 N53 1.328 . S
C48 H54 0.929 . S
C49 C50 1.362 . S
C49 C52 1.378 . S
C49 H64 0.929 . S
C50 C49 1.362 . S
C50 C51 1.366 . S
C51 C48 1.365 . S
C51 C50 1.366 . S
C51 H65 0.930 . S
C52 C49 1.378 . S
C52 N53 1.315 . S
C52 H55 0.930 . S
N53 Co33 2.194 . S
N53 C48 1.328 . S
N53 C52 1.315 . S
H54 C48 0.929 . S
H55 C52 0.930 . S
H56 C44 0.929 . S
H57 C46 0.929 . S
O58 Co33 2.351 . S
O58 C61 1.244 . S
O59 Co33 2.155 . S
O59 C61 1.240 . S
O60 Co33 2.096 . S
O60 C41 1.247 . S
C61 O58 1.244 . S
C61 O59 1.240 . S
H62 C36 0.931 . S
H63 C45 0.931 . S
H64 C49 0.929 . S
H65 C51 0.930 . S
Co66 N70 2.148 1_545 S
Co66 N76 2.128 . S
Co66 N86 2.194 . S
Co66 O91 2.351 . S
Co66 O92 2.155 . S
Co66 O93 2.096 . S
C67 N70 1.301 . S
C67 N71 1.328 . S
C67 H72 0.930 . S
C68 C69 1.333 . S
C68 N70 1.317 . S
C68 H73 0.930 . S
C69 C68 1.333 . S
C69 N71 1.350 . S
C69 H95 0.931 . S
N70 Co66 2.148 1_565 S
N70 C67 1.301 . S
N70 C68 1.317 . S
N71 C67 1.328 . S
N71 C69 1.350 . S
H72 C67 0.930 . S
H73 C68 0.930 . S
C74 O75 1.224 . S
C74 O93 1.247 . S
O75 C74 1.224 . S
N76 Co66 2.128 . S
N76 C77 1.355 . S
N76 C79 1.311 . S
C77 N76 1.355 . S
C77 C78 1.363 . S
C77 H89 0.929 . S
C78 C77 1.363 . S
C78 N80 1.375 . S
C78 H96 0.931 . S
C79 N76 1.311 . S
C79 N80 1.347 . S
C79 H90 0.929 . S
N80 C78 1.375 . S
N80 C79 1.347 . S
C81 C84 1.365 . S
C81 N86 1.328 . S
C81 H87 0.929 . S
C82 C83 1.362 . S
C82 C85 1.378 . S
C82 H97 0.929 . S
C83 C82 1.362 . S
C83 C84 1.366 . S
C84 C81 1.365 . S
C84 C83 1.366 . S
C84 H98 0.930 . S
C85 C82 1.378 . S
C85 N86 1.315 . S
C85 H88 0.930 . S
N86 Co66 2.194 . S
N86 C81 1.328 . S
N86 C85 1.315 . S
H87 C81 0.929 . S
H88 C85 0.930 . S
H89 C77 0.929 . S
H90 C79 0.929 . S
O91 Co66 2.351 . S
O91 C94 1.244 . S
O92 Co66 2.155 . S
O92 C94 1.240 . S
O93 Co66 2.096 . S
O93 C74 1.247 . S
C94 O91 1.244 . S
C94 O92 1.240 . S
H95 C69 0.931 . S
H96 C78 0.931 . S
H97 C82 0.929 . S
H98 C84 0.930 . S
Co99 N103 2.148 . S
Co99 N109 2.128 . S
Co99 N119 2.194 . S
Co99 O124 2.351 . S
Co99 O125 2.155 . S
Co99 O126 2.096 . S
C100 N103 1.301 . S
C100 N104 1.328 . S
C100 H105 0.930 . S
C101 C102 1.333 . S
C101 N103 1.317 . S
C101 H106 0.930 . S
C102 C101 1.333 . S
C102 N104 1.350 . S
C102 H128 0.931 . S
N103 Co99 2.148 . S
N103 C100 1.301 . S
N103 C101 1.317 . S
N104 C100 1.328 . S
N104 C102 1.350 . S
H105 C100 0.930 . S
H106 C101 0.930 . S
C107 O108 1.224 . S
C107 O126 1.247 . S
O108 C107 1.224 . S
N109 Co99 2.128 . S
N109 C110 1.355 . S
N109 C112 1.311 . S
C110 N109 1.355 . S
C110 C111 1.363 . S
C110 H122 0.929 . S
C111 C110 1.363 . S
C111 N113 1.375 . S
C111 H129 0.931 . S
C112 N109 1.311 . S
C112 N113 1.347 . S
C112 H123 0.929 . S
N113 C111 1.375 . S
N113 C112 1.347 . S
C114 C117 1.365 . S
C114 N119 1.328 . S
C114 H120 0.929 . S
C115 C116 1.362 . S
C115 C118 1.378 . S
C115 H130 0.929 . S
C116 C115 1.362 . S
C116 C117 1.366 . S
C117 C114 1.365 . S
C117 C116 1.366 . S
C117 H131 0.930 . S
C118 C115 1.378 . S
C118 N119 1.315 . S
C118 H121 0.930 . S
N119 Co99 2.194 . S
N119 C114 1.328 . S
N119 C118 1.315 . S
H120 C114 0.929 . S
H121 C118 0.930 . S
H122 C110 0.929 . S
H123 C112 0.929 . S
O124 Co99 2.351 . S
O124 C127 1.244 . S
O125 Co99 2.155 . S
O125 C127 1.240 . S
O126 Co99 2.096 . S
O126 C107 1.247 . S
C127 O124 1.244 . S
C127 O125 1.240 . S
H128 C102 0.931 . S
H129 C111 0.931 . S
H130 C115 0.929 . S
H131 C117 0.930 . S
Co132 N136 2.148 1_545 S
Co132 N142 2.128 . S
Co132 N152 2.194 1_455 S
Co132 O157 2.351 . S
Co132 O158 2.155 . S
Co132 O159 2.096 . S
C133 N136 1.301 . S
C133 N137 1.328 . S
C133 H138 0.930 . S
C134 C135 1.333 . S
C134 N136 1.317 . S
C134 H139 0.930 . S
C135 C134 1.333 . S
C135 N137 1.350 . S
C135 H161 0.931 . S
N136 Co132 2.148 1_565 S
N136 C133 1.301 . S
N136 C134 1.317 . S
N137 C133 1.328 . S
N137 C135 1.350 . S
H138 C133 0.930 . S
H139 C134 0.930 . S
C140 O141 1.224 . S
C140 O159 1.247 . S
O141 C140 1.224 . S
N142 Co132 2.128 . S
N142 C143 1.355 1_455 S
N142 C145 1.311 . S
C143 N142 1.355 1_655 S
C143 C144 1.363 1_655 S
C143 H155 0.929 . S
C144 C143 1.363 1_455 S
C144 N146 1.375 . S
C144 H162 0.931 1_455 S
C145 N142 1.311 . S
C145 N146 1.347 . S
C145 H156 0.929 . S
N146 C144 1.375 . S
N146 C145 1.347 . S
C147 C150 1.365 . S
C147 N152 1.328 . S
C147 H153 0.929 . S
C148 C149 1.362 . S
C148 C151 1.378 . S
C148 H163 0.929 . S
C149 C148 1.362 . S
C149 C150 1.366 . S
C150 C147 1.365 . S
C150 C149 1.366 . S
C150 H164 0.930 . S
C151 C148 1.378 . S
C151 N152 1.315 . S
C151 H154 0.930 1_655 S
N152 Co132 2.194 1_655 S
N152 C147 1.328 . S
N152 C151 1.315 . S
H153 C147 0.929 . S
H154 C151 0.930 1_455 S
H155 C143 0.929 . S
H156 C145 0.929 . S
O157 Co132 2.351 . S
O157 C160 1.244 . S
O158 Co132 2.155 . S
O158 C160 1.240 . S
O159 Co132 2.096 . S
O159 C140 1.247 . S
C160 O157 1.244 . S
C160 O158 1.240 . S
H161 C135 0.931 . S
H162 C144 0.931 1_655 S
H163 C148 0.929 . S
H164 C150 0.930 . S
Co165 N169 2.148 . S
Co165 N175 2.128 . S
Co165 N185 2.194 . S
Co165 O190 2.351 . S
Co165 O191 2.155 . S
Co165 O192 2.096 . S
C166 N169 1.301 . S
C166 N170 1.328 . S
C166 H171 0.930 . S
C167 C168 1.333 . S
C167 N169 1.317 . S
C167 H172 0.930 . S
C168 C167 1.333 . S
C168 N170 1.350 . S
C168 H194 0.931 . S
N169 Co165 2.148 . S
N169 C166 1.301 . S
N169 C167 1.317 . S
N170 C166 1.328 . S
N170 C168 1.350 . S
H171 C166 0.930 . S
H172 C167 0.930 . S
C173 O174 1.224 . S
C173 O192 1.247 . S
O174 C173 1.224 . S
N175 Co165 2.128 . S
N175 C176 1.355 . S
N175 C178 1.311 . S
C176 N175 1.355 . S
C176 C177 1.363 . S
C176 H188 0.929 . S
C177 C176 1.363 . S
C177 N179 1.375 . S
C177 H195 0.931 . S
C178 N175 1.311 . S
C178 N179 1.347 . S
C178 H189 0.929 . S
N179 C177 1.375 . S
N179 C178 1.347 . S
C180 C183 1.365 . S
C180 N185 1.328 . S
C180 H186 0.929 . S
C181 C182 1.362 . S
C181 C184 1.378 . S
C181 H196 0.929 . S
C182 C181 1.362 . S
C182 C183 1.366 . S
C183 C180 1.365 . S
C183 C182 1.366 . S
C183 H197 0.930 . S
C184 C181 1.378 . S
C184 N185 1.315 . S
C184 H187 0.930 . S
N185 Co165 2.194 . S
N185 C180 1.328 . S
N185 C184 1.315 . S
H186 C180 0.929 . S
H187 C184 0.930 . S
H188 C176 0.929 . S
H189 C178 0.929 . S
O190 Co165 2.351 . S
O190 C193 1.244 . S
O191 Co165 2.155 . S
O191 C193 1.240 . S
O192 Co165 2.096 . S
O192 C173 1.247 . S
C193 O190 1.244 . S
C193 O191 1.240 . S
H194 C168 0.931 . S
H195 C177 0.931 . S
H196 C181 0.929 . S
H197 C183 0.930 . S
Co198 N202 2.148 . S
Co198 N208 2.128 1_545 S
Co198 N218 2.194 . S
Co198 O223 2.351 . S
Co198 O224 2.155 . S
Co198 O225 2.096 . S
C199 N202 1.301 . S
C199 N203 1.328 . S
C199 H204 0.930 . S
C200 C201 1.333 . S
C200 N202 1.317 . S
C200 H205 0.930 . S
C201 C200 1.333 . S
C201 N203 1.350 . S
C201 H227 0.931 . S
N202 Co198 2.148 . S
N202 C199 1.301 . S
N202 C200 1.317 . S
N203 C199 1.328 . S
N203 C201 1.350 . S
H204 C199 0.930 . S
H205 C200 0.930 . S
C206 O207 1.223 1_545 S
C206 O225 1.247 . S
O207 C206 1.223 1_565 S
N208 Co198 2.128 1_565 S
N208 C209 1.355 . S
N208 C211 1.311 . S
C209 N208 1.355 . S
C209 C210 1.363 . S
C209 H221 0.929 . S
C210 C209 1.363 . S
C210 N212 1.375 . S
C210 H228 0.931 . S
C211 N208 1.311 . S
C211 N212 1.347 . S
C211 H222 0.929 . S
N212 C210 1.375 . S
N212 C211 1.347 . S
C213 C216 1.365 . S
C213 N218 1.328 . S
C213 H219 0.929 . S
C214 C215 1.362 . S
C214 C217 1.378 . S
C214 H229 0.929 1_545 S
C215 C214 1.362 . S
C215 C216 1.366 . S
C216 C213 1.365 . S
C216 C215 1.366 . S
C216 H230 0.930 . S
C217 C214 1.378 . S
C217 N218 1.315 . S
C217 H220 0.930 . S
N218 Co198 2.194 . S
N218 C213 1.328 . S
N218 C217 1.315 . S
H219 C213 0.929 . S
H220 C217 0.930 . S
H221 C209 0.929 . S
H222 C211 0.929 . S
O223 Co198 2.351 . S
O223 C226 1.244 . S
O224 Co198 2.155 . S
O224 C226 1.240 . S
O225 Co198 2.096 . S
O225 C206 1.247 . S
C226 O223 1.244 . S
C226 O224 1.240 . S
H227 C201 0.931 . S
H228 C210 0.931 . S
H229 C214 0.929 1_565 S
H230 C216 0.930 . S
Co231 N235 2.148 . S
Co231 N241 2.128 . S
Co231 N251 2.194 . S
Co231 O256 2.351 . S
Co231 O257 2.155 . S
Co231 O258 2.096 . S
C232 N235 1.301 . S
C232 N236 1.328 . S
C232 H237 0.930 . S
C233 C234 1.333 . S
C233 N235 1.317 . S
C233 H238 0.930 . S
C234 C233 1.333 . S
C234 N236 1.350 . S
C234 H260 0.931 . S
N235 Co231 2.148 . S
N235 C232 1.301 . S
N235 C233 1.317 . S
N236 C232 1.328 . S
N236 C234 1.350 . S
H237 C232 0.930 . S
H238 C233 0.930 . S
C239 O240 1.224 . S
C239 O258 1.247 . S
O240 C239 1.224 . S
N241 Co231 2.128 . S
N241 C242 1.355 . S
N241 C244 1.311 . S
C242 N241 1.355 . S
C242 C243 1.363 . S
C242 H254 0.929 . S
C243 C242 1.363 . S
C243 N245 1.375 . S
C243 H261 0.931 . S
C244 N241 1.311 . S
C244 N245 1.347 . S
C244 H255 0.929 . S
N245 C243 1.375 . S
N245 C244 1.347 . S
C246 C249 1.365 . S
C246 N251 1.328 . S
C246 H252 0.929 . S
C247 C248 1.362 . S
C247 C250 1.378 . S
C247 H262 0.929 . S
C248 C247 1.362 . S
C248 C249 1.366 . S
C249 C246 1.365 . S
C249 C248 1.366 . S
C249 H263 0.930 . S
C250 C247 1.378 . S
C250 N251 1.315 . S
C250 H253 0.930 . S
N251 Co231 2.194 . S
N251 C246 1.328 . S
N251 C250 1.315 . S
H252 C246 0.929 . S
H253 C250 0.930 . S
H254 C242 0.929 . S
H255 C244 0.929 . S
O256 Co231 2.351 . S
O256 C259 1.244 . S
O257 Co231 2.155 . S
O257 C259 1.240 . S
O258 Co231 2.096 . S
O258 C239 1.247 . S
C259 O256 1.244 . S
C259 O257 1.240 . S
H260 C234 0.931 . S
H261 C243 0.931 . S
H262 C247 0.929 . S
H263 C249 0.930 . S
Co264 N268 2.148 . S
Co264 N274 2.128 . S
Co264 N284 2.194 . S
Co264 O289 2.351 . S
Co264 O290 2.155 . S
Co264 O291 2.096 . S
C265 N268 1.301 . S
C265 N269 1.328 1_655 S
C265 H270 0.930 . S
C266 C267 1.333 . S
C266 N268 1.317 . S
C266 H271 0.930 . S
C267 C266 1.333 . S
C267 N269 1.350 1_655 S
C267 H293 0.931 1_655 S
N268 Co264 2.148 . S
N268 C265 1.301 . S
N268 C266 1.317 . S
N269 C265 1.328 1_455 S
N269 C267 1.350 1_455 S
H270 C265 0.930 . S
H271 C266 0.930 . S
C272 O273 1.224 . S
C272 O291 1.247 . S
O273 C272 1.224 . S
N274 Co264 2.128 . S
N274 C275 1.355 . S
N274 C277 1.311 . S
C275 N274 1.355 . S
C275 C276 1.363 . S
C275 H287 0.929 . S
C276 C275 1.363 . S
C276 N278 1.375 . S
C276 H294 0.931 . S
C277 N274 1.311 . S
C277 N278 1.347 . S
C277 H288 0.929 . S
N278 C276 1.375 . S
N278 C277 1.347 . S
C279 C282 1.365 . S
C279 N284 1.328 . S
C279 H285 0.929 . S
C280 C281 1.362 . S
C280 C283 1.378 . S
C280 H295 0.929 . S
C281 C280 1.362 . S
C281 C282 1.366 . S
C282 C279 1.365 . S
C282 C281 1.366 . S
C282 H296 0.930 . S
C283 C280 1.378 . S
C283 N284 1.315 . S
C283 H286 0.930 . S
N284 Co264 2.194 . S
N284 C279 1.328 . S
N284 C283 1.315 . S
H285 C279 0.929 . S
H286 C283 0.930 . S
H287 C275 0.929 . S
H288 C277 0.929 . S
O289 Co264 2.351 . S
O289 C292 1.244 . S
O290 Co264 2.155 . S
O290 C292 1.240 . S
O291 Co264 2.096 . S
O291 C272 1.247 . S
C292 O289 1.244 . S
C292 O290 1.240 . S
H293 C267 0.931 1_455 S
H294 C276 0.931 . S
H295 C280 0.929 . S
H296 C282 0.930 . S
Co297 N301 2.148 . S
Co297 N307 2.128 . S
Co297 N317 2.194 . S
Co297 O322 2.351 . S
Co297 O323 2.155 . S
Co297 O324 2.096 . S
C298 N301 1.301 . S
C298 N302 1.328 . S
C298 H303 0.930 . S
C299 C300 1.333 . S
C299 N301 1.317 . S
C299 H304 0.930 . S
C300 C299 1.333 . S
C300 N302 1.350 . S
C300 H326 0.931 . S
N301 Co297 2.148 . S
N301 C298 1.301 . S
N301 C299 1.317 . S
N302 C298 1.328 . S
N302 C300 1.350 . S
H303 C298 0.930 . S
H304 C299 0.930 . S
C305 O306 1.224 . S
C305 O324 1.247 . S
O306 C305 1.224 . S
N307 Co297 2.128 . S
N307 C308 1.355 . S
N307 C310 1.311 . S
C308 N307 1.355 . S
C308 C309 1.363 1_655 S
C308 H320 0.929 . S
C309 C308 1.363 1_455 S
C309 N311 1.375 . S
C309 H327 0.931 . S
C310 N307 1.311 . S
C310 N311 1.347 1_655 S
C310 H321 0.929 . S
N311 C309 1.375 . S
N311 C310 1.347 1_455 S
C312 C315 1.365 . S
C312 N317 1.328 . S
C312 H318 0.929 . S
C313 C314 1.362 . S
C313 C316 1.378 . S
C313 H328 0.929 . S
C314 C313 1.362 . S
C314 C315 1.366 . S
C315 C312 1.365 . S
C315 C314 1.366 . S
C315 H329 0.930 1_565 S
C316 C313 1.378 . S
C316 N317 1.315 . S
C316 H319 0.930 . S
N317 Co297 2.194 . S
N317 C312 1.328 . S
N317 C316 1.315 . S
H318 C312 0.929 . S
H319 C316 0.930 . S
H320 C308 0.929 . S
H321 C310 0.929 . S
O322 Co297 2.351 . S
O322 C325 1.244 . S
O323 Co297 2.155 . S
O323 C325 1.240 . S
O324 Co297 2.096 . S
O324 C305 1.247 . S
C325 O322 1.244 . S
C325 O323 1.240 . S
H326 C300 0.931 . S
H327 C309 0.931 . S
H328 C313 0.929 . S
H329 C315 0.930 1_545 S
Co330 N334 2.148 . S
Co330 N340 2.128 . S
Co330 N350 2.194 . S
Co330 O355 2.351 . S
Co330 O356 2.155 . S
Co330 O357 2.096 . S
C331 N334 1.301 . S
C331 N335 1.328 . S
C331 H336 0.930 . S
C332 C333 1.333 . S
C332 N334 1.317 . S
C332 H337 0.930 . S
C333 C332 1.333 . S
C333 N335 1.350 . S
C333 H359 0.931 . S
N334 Co330 2.148 . S
N334 C331 1.301 . S
N334 C332 1.317 . S
N335 C331 1.328 . S
N335 C333 1.350 . S
H336 C331 0.930 . S
H337 C332 0.930 . S
C338 O339 1.224 . S
C338 O357 1.247 . S
O339 C338 1.224 . S
N340 Co330 2.128 . S
N340 C341 1.355 . S
N340 C343 1.311 . S
C341 N340 1.355 . S
C341 C342 1.363 1_655 S
C341 H353 0.929 . S
C342 C341 1.363 1_455 S
C342 N344 1.375 . S
C342 H360 0.931 . S
C343 N340 1.311 . S
C343 N344 1.347 1_655 S
C343 H354 0.929 . S
N344 C342 1.375 . S
N344 C343 1.347 1_455 S
C345 C348 1.365 . S
C345 N350 1.328 . S
C345 H351 0.929 . S
C346 C347 1.362 . S
C346 C349 1.378 . S
C346 H361 0.929 . S
C347 C346 1.362 . S
C347 C348 1.366 . S
C348 C345 1.365 . S
C348 C347 1.366 . S
C348 H362 0.930 . S
C349 C346 1.378 . S
C349 N350 1.315 . S
C349 H352 0.930 . S
N350 Co330 2.194 . S
N350 C345 1.328 . S
N350 C349 1.315 . S
H351 C345 0.929 . S
H352 C349 0.930 . S
H353 C341 0.929 . S
H354 C343 0.929 . S
O355 Co330 2.351 . S
O355 C358 1.244 . S
O356 Co330 2.155 . S
O356 C358 1.240 . S
O357 Co330 2.096 . S
O357 C338 1.247 . S
C358 O355 1.244 . S
C358 O356 1.240 . S
H359 C333 0.931 . S
H360 C342 0.931 . S
H361 C346 0.929 . S
H362 C348 0.930 . S
Co363 N367 2.148 . S
Co363 N373 2.128 . S
Co363 N383 2.194 . S
Co363 O388 2.351 . S
Co363 O389 2.155 . S
Co363 O390 2.096 . S
C364 N367 1.301 . S
C364 N368 1.328 1_655 S
C364 H369 0.930 . S
C365 C366 1.333 . S
C365 N367 1.317 . S
C365 H370 0.930 . S
C366 C365 1.333 . S
C366 N368 1.350 1_655 S
C366 H392 0.931 1_655 S
N367 Co363 2.148 . S
N367 C364 1.301 . S
N367 C365 1.317 . S
N368 C364 1.328 1_455 S
N368 C366 1.350 1_455 S
H369 C364 0.930 . S
H370 C365 0.930 . S
C371 O372 1.224 . S
C371 O390 1.247 . S
O372 C371 1.224 . S
N373 Co363 2.128 . S
N373 C374 1.355 . S
N373 C376 1.311 . S
C374 N373 1.355 . S
C374 C375 1.363 . S
C374 H386 0.929 . S
C375 C374 1.363 . S
C375 N377 1.375 . S
C375 H393 0.931 . S
C376 N373 1.311 . S
C376 N377 1.347 . S
C376 H387 0.929 . S
N377 C375 1.375 . S
N377 C376 1.347 . S
C378 C381 1.365 . S
C378 N383 1.328 . S
C378 H384 0.929 . S
C379 C380 1.362 . S
C379 C382 1.378 . S
C379 H394 0.929 . S
C380 C379 1.362 . S
C380 C381 1.366 . S
C381 C378 1.365 . S
C381 C380 1.366 . S
C381 H395 0.930 1_565 S
C382 C379 1.378 . S
C382 N383 1.315 . S
C382 H385 0.930 . S
N383 Co363 2.194 . S
N383 C378 1.328 . S
N383 C382 1.315 . S
H384 C378 0.929 . S
H385 C382 0.930 . S
H386 C374 0.929 . S
H387 C376 0.929 . S
O388 Co363 2.351 . S
O388 C391 1.244 . S
O389 Co363 2.155 . S
O389 C391 1.240 . S
O390 Co363 2.096 . S
O390 C371 1.247 . S
C391 O388 1.244 . S
C391 O389 1.240 . S
H392 C366 0.931 1_455 S
H393 C375 0.931 . S
H394 C379 0.929 . S
H395 C381 0.930 1_545 S
Co396 N400 2.148 . S
Co396 N406 2.128 . S
Co396 N416 2.194 . S
Co396 O421 2.351 . S
Co396 O422 2.155 . S
Co396 O423 2.096 . S
C397 N400 1.301 . S
C397 N401 1.328 . S
C397 H402 0.930 . S
C398 C399 1.333 . S
C398 N400 1.317 . S
C398 H403 0.930 . S
C399 C398 1.333 . S
C399 N401 1.350 . S
C399 H425 0.931 . S
N400 Co396 2.148 . S
N400 C397 1.301 . S
N400 C398 1.317 . S
N401 C397 1.328 . S
N401 C399 1.350 . S
H402 C397 0.930 . S
H403 C398 0.930 . S
C404 O405 1.224 . S
C404 O423 1.247 . S
O405 C404 1.224 . S
N406 Co396 2.128 . S
N406 C407 1.355 . S
N406 C409 1.311 . S
C407 N406 1.355 . S
C407 C408 1.363 . S
C407 H419 0.929 . S
C408 C407 1.363 . S
C408 N410 1.375 . S
C408 H426 0.931 . S
C409 N406 1.311 . S
C409 N410 1.347 . S
C409 H420 0.929 . S
N410 C408 1.375 . S
N410 C409 1.347 . S
C411 C414 1.365 . S
C411 N416 1.328 . S
C411 H417 0.929 . S
C412 C413 1.362 . S
C412 C415 1.378 . S
C412 H427 0.929 . S
C413 C412 1.362 . S
C413 C414 1.366 . S
C414 C411 1.365 . S
C414 C413 1.366 . S
C414 H428 0.930 . S
C415 C412 1.378 . S
C415 N416 1.315 . S
C415 H418 0.930 . S
N416 Co396 2.194 . S
N416 C411 1.328 . S
N416 C415 1.315 . S
H417 C411 0.929 . S
H418 C415 0.930 . S
H419 C407 0.929 . S
H420 C409 0.929 . S
O421 Co396 2.351 . S
O421 C424 1.244 . S
O422 Co396 2.155 . S
O422 C424 1.240 . S
O423 Co396 2.096 . S
O423 C404 1.247 . S
C424 O421 1.244 . S
C424 O422 1.240 . S
H425 C399 0.931 . S
H426 C408 0.931 . S
H427 C412 0.929 . S
H428 C414 0.930 . S
Co429 N433 2.148 . S
Co429 N439 2.128 1_655 S
Co429 N449 2.194 1_655 S
Co429 O454 2.351 1_655 S
Co429 O455 2.155 . S
Co429 O456 2.096 . S
C430 N433 1.301 1_455 S
C430 N434 1.328 1_455 S
C430 H435 0.930 . S
C431 C432 1.333 . S
C431 N433 1.317 . S
C431 H436 0.930 . S
C432 C431 1.333 . S
C432 N434 1.350 . S
C432 H458 0.931 . S
N433 Co429 2.148 . S
N433 C430 1.301 1_655 S
N433 C431 1.317 . S
N434 C430 1.328 1_655 S
N434 C432 1.350 . S
H435 C430 0.930 . S
H436 C431 0.930 . S
C437 O438 1.224 . S
C437 O456 1.247 . S
O438 C437 1.224 . S
N439 Co429 2.128 1_455 S
N439 C440 1.355 . S
N439 C442 1.311 1_455 S
C440 N439 1.355 . S
C440 C441 1.363 . S
C440 H452 0.929 . S
C441 C440 1.363 . S
C441 N443 1.375 1_455 S
C441 H459 0.931 . S
C442 N439 1.311 1_655 S
C442 N443 1.347 . S
C442 H453 0.929 . S
N443 C441 1.375 1_655 S
N443 C442 1.347 . S
C444 C447 1.365 . S
C444 N449 1.328 . S
C444 H450 0.929 . S
C445 C446 1.362 . S
C445 C448 1.378 . S
C445 H460 0.929 . S
C446 C445 1.362 . S
C446 C447 1.366 . S
C447 C444 1.365 . S
C447 C446 1.366 . S
C447 H461 0.930 . S
C448 C445 1.378 . S
C448 N449 1.315 . S
C448 H451 0.930 . S
N449 Co429 2.194 1_455 S
N449 C444 1.328 . S
N449 C448 1.315 . S
H450 C444 0.929 . S
H451 C448 0.930 . S
H452 C440 0.929 . S
H453 C442 0.929 . S
O454 Co429 2.351 1_455 S
O454 C457 1.244 . S
O455 Co429 2.155 . S
O455 C457 1.240 1_655 S
O456 Co429 2.096 . S
O456 C437 1.247 . S
C457 O454 1.244 . S
C457 O455 1.240 1_455 S
H458 C432 0.931 . S
H459 C441 0.931 . S
H460 C445 0.929 . S
H461 C447 0.930 . S
Co462 N466 2.148 . S
Co462 N472 2.128 . S
Co462 N482 2.194 . S
Co462 O487 2.351 . S
Co462 O488 2.155 . S
Co462 O489 2.096 . S
C463 N466 1.301 . S
C463 N467 1.328 . S
C463 H468 0.930 . S
C464 C465 1.333 . S
C464 N466 1.317 . S
C464 H469 0.930 . S
C465 C464 1.333 . S
C465 N467 1.350 . S
C465 H491 0.931 . S
N466 Co462 2.148 . S
N466 C463 1.301 . S
N466 C464 1.317 . S
N467 C463 1.328 . S
N467 C465 1.350 . S
H468 C463 0.930 . S
H469 C464 0.930 . S
C470 O471 1.224 . S
C470 O489 1.247 . S
O471 C470 1.224 . S
N472 Co462 2.128 . S
N472 C473 1.355 . S
N472 C475 1.311 . S
C473 N472 1.355 . S
C473 C474 1.363 . S
C473 H485 0.929 . S
C474 C473 1.363 . S
C474 N476 1.375 . S
C474 H492 0.931 . S
C475 N472 1.311 . S
C475 N476 1.347 . S
C475 H486 0.929 . S
N476 C474 1.375 . S
N476 C475 1.347 . S
C477 C480 1.365 . S
C477 N482 1.328 . S
C477 H483 0.929 . S
C478 C479 1.362 . S
C478 C481 1.378 . S
C478 H493 0.929 . S
C479 C478 1.362 . S
C479 C480 1.366 . S
C480 C477 1.365 . S
C480 C479 1.366 . S
C480 H494 0.930 . S
C481 C478 1.378 . S
C481 N482 1.315 . S
C481 H484 0.930 . S
N482 Co462 2.194 . S
N482 C477 1.328 . S
N482 C481 1.315 . S
H483 C477 0.929 . S
H484 C481 0.930 . S
H485 C473 0.929 . S
H486 C475 0.929 . S
O487 Co462 2.351 . S
O487 C490 1.244 . S
O488 Co462 2.155 . S
O488 C490 1.240 . S
O489 Co462 2.096 . S
O489 C470 1.247 . S
C490 O487 1.244 . S
C490 O488 1.240 . S
H491 C465 0.931 . S
H492 C474 0.931 . S
H493 C478 0.929 . S
H494 C480 0.930 . S
Co495 N499 2.148 . S
Co495 N505 2.128 1_655 S
Co495 N515 2.194 1_655 S
Co495 O520 2.351 1_655 S
Co495 O521 2.155 . S
Co495 O522 2.096 . S
C496 N499 1.301 1_455 S
C496 N500 1.328 1_455 S
C496 H501 0.930 . S
C497 C498 1.333 . S
C497 N499 1.317 . S
C497 H502 0.930 . S
C498 C497 1.333 . S
C498 N500 1.350 . S
C498 H524 0.931 . S
N499 Co495 2.148 . S
N499 C496 1.301 1_655 S
N499 C497 1.317 . S
N500 C496 1.328 1_655 S
N500 C498 1.350 . S
H501 C496 0.930 . S
H502 C497 0.930 . S
C503 O504 1.224 . S
C503 O522 1.247 . S
O504 C503 1.224 . S
N505 Co495 2.128 1_455 S
N505 C506 1.355 . S
N505 C508 1.311 1_455 S
C506 N505 1.355 . S
C506 C507 1.363 . S
C506 H518 0.929 . S
C507 C506 1.363 . S
C507 N509 1.375 1_455 S
C507 H525 0.931 . S
C508 N505 1.311 1_655 S
C508 N509 1.347 . S
C508 H519 0.929 . S
N509 C507 1.375 1_655 S
N509 C508 1.347 . S
C510 C513 1.365 . S
C510 N515 1.328 . S
C510 H516 0.929 . S
C511 C512 1.362 . S
C511 C514 1.378 . S
C511 H526 0.929 . S
C512 C511 1.362 . S
C512 C513 1.366 . S
C513 C510 1.365 . S
C513 C512 1.366 . S
C513 H527 0.930 . S
C514 C511 1.378 . S
C514 N515 1.315 . S
C514 H517 0.930 . S
N515 Co495 2.194 1_455 S
N515 C510 1.328 . S
N515 C514 1.315 . S
H516 C510 0.929 . S
H517 C514 0.930 . S
H518 C506 0.929 . S
H519 C508 0.929 . S
O520 Co495 2.351 1_455 S
O520 C523 1.244 . S
O521 Co495 2.155 . S
O521 C523 1.240 1_655 S
O522 Co495 2.096 . S
O522 C503 1.247 . S
C523 O520 1.244 . S
C523 O521 1.240 1_455 S
H524 C498 0.931 . S
H525 C507 0.931 . S
H526 C511 0.929 . S
H527 C513 0.930 . S
N434 N5 1.793 1_655 S
N38 N368 1.795 . S
N71 N401 1.792 . S
N104 N335 1.795 . S
N500 N137 1.795 1_655 S
N170 N302 1.793 . S
N203 N467 1.794 . S
N269 N236 1.793 . S
C28 C160 2.018 1_554 S
C61 C193 2.018 . S
C94 C226 2.018 . S
C259 C127 2.018 . S
C358 C292 2.018 . S
C325 C391 2.018 . S
C490 C424 2.018 . S
C523 C457 2.018 1_556 S
C173 C8 1.727 1_565 S
C41 C206 1.727 1_565 S
C74 C239 1.727 . S
C140 C107 1.727 . S
C149 C347 0.823 . S
C83 C281 0.823 . S
C380 C215 0.823 1_565 S
C314 C17 0.823 1_565 S
C272 C404 1.727 . S
C503 C338 1.727 . S
C437 C305 1.727 . S
C371 C470 1.727 . S
C479 C50 0.823 . S
C182 C446 0.823 . S
C512 C116 0.823 . S
C248 C413 0.823 . S
N14 N443 1.589 1_455 S
N47 N377 1.591 . S
N80 N410 1.589 . S
N113 N344 1.591 . S
N146 N509 1.591 1_455 S
N179 N311 1.589 . S
N476 N212 1.590 . S
N278 N245 1.589 . S
