# Generated by pormake.
# Topology tzs, (4)-cn, num edge types: 1
# Building blocks:
#     Node 0, Type 0, BuildingBlock: AZAVOO_clean_sbu_0, # of connection points: 4
#     Node 1, Type 0, BuildingBlock: AZAVOO_clean_sbu_0, # of connection points: 4
#     Node 2, Type 0, BuildingBlock: AZAVOO_clean_sbu_0, # of connection points: 4
#     Node 3, Type 0, BuildingBlock: AZAVOO_clean_sbu_0, # of connection points: 4
#     Node 4, Type 0, BuildingBlock: AZAVOO_clean_sbu_0, # of connection points: 4
#     Node 5, Type 0, BuildingBlock: AZAVOO_clean_sbu_0, # of connection points: 4
#     Node 6, Type 0, BuildingBlock: AZAVOO_clean_sbu_0, # of connection points: 4
#     Node 7, Type 0, BuildingBlock: AZAVOO_clean_sbu_0, # of connection points: 4
#     Node 8, Type 0, BuildingBlock: AZAVOO_clean_sbu_0, # of connection points: 4
#     Node 9, Type 0, BuildingBlock: AZAVOO_clean_sbu_0, # of connection points: 4
#     Node 10, Type 0, BuildingBlock: AZAVOO_clean_sbu_0, # of connection points: 4
#     Node 11, Type 0, BuildingBlock: AZAVOO_clean_sbu_0, # of connection points: 4
#     Node 12, Type 0, BuildingBlock: AZAVOO_clean_sbu_0, # of connection points: 4
#     Node 13, Type 0, BuildingBlock: AZAVOO_clean_sbu_0, # of connection points: 4
#     Node 14, Type 0, BuildingBlock: AZAVOO_clean_sbu_0, # of connection points: 4
#     Node 15, Type 0, BuildingBlock: AZAVOO_clean_sbu_0, # of connection points: 4
#     Edge 16, Type (0, 0), BuildingBlock: XIVTED_clean_linker_0, # of connection points: 2
#     Edge 17, Type (0, 0), BuildingBlock: XIVTED_clean_linker_0, # of connection points: 2
#     Edge 18, Type (0, 0), BuildingBlock: XIVTED_clean_linker_0, # of connection points: 2
#     Edge 19, Type (0, 0), BuildingBlock: XIVTED_clean_linker_0, # of connection points: 2
#     Edge 20, Type (0, 0), BuildingBlock: XIVTED_clean_linker_0, # of connection points: 2
#     Edge 21, Type (0, 0), BuildingBlock: XIVTED_clean_linker_0, # of connection points: 2
#     Edge 22, Type (0, 0), BuildingBlock: XIVTED_clean_linker_0, # of connection points: 2
#     Edge 23, Type (0, 0), BuildingBlock: XIVTED_clean_linker_0, # of connection points: 2
#     Edge 24, Type (0, 0), BuildingBlock: XIVTED_clean_linker_0, # of connection points: 2
#     Edge 25, Type (0, 0), BuildingBlock: XIVTED_clean_linker_0, # of connection points: 2
#     Edge 26, Type (0, 0), BuildingBlock: XIVTED_clean_linker_0, # of connection points: 2
#     Edge 27, Type (0, 0), BuildingBlock: XIVTED_clean_linker_0, # of connection points: 2
#     Edge 28, Type (0, 0), BuildingBlock: XIVTED_clean_linker_0, # of connection points: 2
#     Edge 29, Type (0, 0), BuildingBlock: XIVTED_clean_linker_0, # of connection points: 2
#     Edge 30, Type (0, 0), BuildingBlock: XIVTED_clean_linker_0, # of connection points: 2
#     Edge 31, Type (0, 0), BuildingBlock: XIVTED_clean_linker_0, # of connection points: 2
#     Edge 32, Type (0, 0), BuildingBlock: XIVTED_clean_linker_0, # of connection points: 2
#     Edge 33, Type (0, 0), BuildingBlock: XIVTED_clean_linker_0, # of connection points: 2
#     Edge 34, Type (0, 0), BuildingBlock: XIVTED_clean_linker_0, # of connection points: 2
#     Edge 35, Type (0, 0), BuildingBlock: XIVTED_clean_linker_0, # of connection points: 2
#     Edge 36, Type (0, 0), BuildingBlock: XIVTED_clean_linker_0, # of connection points: 2
#     Edge 37, Type (0, 0), BuildingBlock: XIVTED_clean_linker_0, # of connection points: 2
#     Edge 38, Type (0, 0), BuildingBlock: XIVTED_clean_linker_0, # of connection points: 2
#     Edge 39, Type (0, 0), BuildingBlock: XIVTED_clean_linker_0, # of connection points: 2
#     Edge 40, Type (0, 0), BuildingBlock: XIVTED_clean_linker_0, # of connection points: 2
#     Edge 41, Type (0, 0), BuildingBlock: XIVTED_clean_linker_0, # of connection points: 2
#     Edge 42, Type (0, 0), BuildingBlock: XIVTED_clean_linker_0, # of connection points: 2
#     Edge 43, Type (0, 0), BuildingBlock: XIVTED_clean_linker_0, # of connection points: 2
#     Edge 44, Type (0, 0), BuildingBlock: XIVTED_clean_linker_0, # of connection points: 2
#     Edge 45, Type (0, 0), BuildingBlock: XIVTED_clean_linker_0, # of connection points: 2
#     Edge 46, Type (0, 0), BuildingBlock: XIVTED_clean_linker_0, # of connection points: 2
#     Edge 47, Type (0, 0), BuildingBlock: XIVTED_clean_linker_0, # of connection points: 2
# Relax obj value: 0.109
# Max RMSD: 0.118
# Mean RMSD: 0.118
data_MOF--net-tzs--node1-AZAVOO_clean_sbu_0--edge1-XIVTED_clean_linker_0
_symmetry_space_group_name_H-M    P1
_symmetry_Int_Tables_number       1
_symmetry_cell_setting            triclinic
loop_
_symmetry_equiv_pos_as_xyz
'x, y, z'
_cell_length_a     47.464595
_cell_length_b     47.510604
_cell_length_c     42.262735
_cell_angle_alpha  89.99248
_cell_angle_beta   90.178625
_cell_angle_gamma 90.012498
loop_
_atom_site_label
_atom_site_type_symbol
_atom_site_fract_x
_atom_site_fract_y
_atom_site_fract_z
_atom_type_partial_charge
Mg0 Mg 0.14579 0.35972 0.15274 0.0
O1 O 0.10137 0.35126 0.172 0.0
O2 O 0.08707 0.31029 0.1516 0.0
Mg3 Mg 0.12107 0.29409 0.11789 0.0
C4 C 0.08308 0.33168 0.16931 0.0
C5 C 0.1767 0.40607 0.18793 0.0
O6 O 0.19699 0.39395 0.17183 0.0
O7 O 0.16449 0.32613 0.18494 0.0
O8 O 0.15036 0.28664 0.16067 0.0
O9 O 0.12819 0.38246 0.11151 0.0
O10 O 0.13793 0.33692 0.11193 0.0
C11 C 0.16401 0.29932 0.18258 0.0
C12 C 0.12873 0.3586 0.09674 0.0
O13 O 0.15236 0.39495 0.18781 0.0
Mg14 Mg 0.64334 0.15585 0.14442 0.0
O15 O 0.65108 0.11233 0.16647 0.0
O16 O 0.69048 0.09606 0.14399 0.0
Mg17 Mg 0.70442 0.12628 0.10458 0.0
C18 C 0.67033 0.09367 0.16381 0.0
C19 C 0.59228 0.18236 0.17016 0.0
O20 O 0.59369 0.18889 0.13999 0.0
O21 O 0.68072 0.1734 0.17156 0.0
O22 O 0.71731 0.15911 0.14234 0.0
O23 O 0.61528 0.13782 0.1079 0.0
O24 O 0.66128 0.14287 0.10223 0.0
C25 C 0.707 0.17329 0.16527 0.0
C26 C 0.63752 0.13449 0.0907 0.0
O27 O 0.61219 0.16807 0.18237 0.0
Mg28 Mg 0.84935 0.64632 0.15577 0.0
O29 O 0.89419 0.65145 0.17581 0.0
O30 O 0.91448 0.68587 0.14775 0.0
Mg31 Mg 0.88344 0.70181 0.11001 0.0
C32 C 0.91518 0.66742 0.16975 0.0
C33 C 0.81974 0.59899 0.18454 0.0
O34 O 0.81114 0.60164 0.1551 0.0
O35 O 0.83619 0.68641 0.18078 0.0
O36 O 0.85369 0.71947 0.14851 0.0
O37 O 0.86327 0.61505 0.12012 0.0
O38 O 0.8622 0.66098 0.1119 0.0
C39 C 0.83903 0.71209 0.17248 0.0
C40 C 0.86787 0.63613 0.10151 0.0
O41 O 0.83628 0.61755 0.19579 0.0
Mg42 Mg 0.35813 0.85702 0.15962 0.0
O43 O 0.35114 0.9036 0.17103 0.0
O44 O 0.31387 0.91781 0.1429 0.0
Mg45 Mg 0.3002 0.88171 0.11007 0.0
C46 C 0.3333 0.92246 0.16321 0.0
C47 C 0.40085 0.82912 0.20193 0.0
O48 O 0.39143 0.80844 0.18417 0.0
O49 O 0.31888 0.84475 0.18779 0.0
O50 O 0.28508 0.85628 0.15301 0.0
O51 O 0.38744 0.86772 0.12041 0.0
O52 O 0.34157 0.86155 0.11465 0.0
C53 C 0.29305 0.84505 0.17904 0.0
C54 C 0.36559 0.86711 0.10205 0.0
O55 O 0.38835 0.85274 0.2007 0.0
Mg56 Mg 0.1601 0.64454 0.30531 0.0
O57 O 0.11423 0.65029 0.2896 0.0
O58 O 0.09443 0.68227 0.32134 0.0
Mg59 Mg 0.12755 0.6957 0.35829 0.0
C60 C 0.09318 0.66523 0.29798 0.0
C61 C 0.19082 0.60403 0.26284 0.0
O62 O 0.2085 0.60791 0.28643 0.0
O63 O 0.17102 0.68666 0.28341 0.0
O64 O 0.15502 0.71693 0.31987 0.0
O65 O 0.149 0.61043 0.3389 0.0
O66 O 0.14976 0.65572 0.35115 0.0
C67 C 0.16841 0.71159 0.29433 0.0
C68 C 0.14492 0.6301 0.35953 0.0
O69 O 0.16915 0.61963 0.26106 0.0
Mg70 Mg 0.36383 0.15911 0.31776 0.0
O71 O 0.35512 0.11703 0.29234 0.0
O72 O 0.31747 0.09822 0.31608 0.0
Mg73 Mg 0.30456 0.12598 0.35781 0.0
C74 C 0.33655 0.09766 0.29485 0.0
C75 C 0.4138 0.18722 0.29132 0.0
O76 O 0.41325 0.19275 0.32178 0.0
O77 O 0.32541 0.17906 0.2949 0.0
O78 O 0.28998 0.16009 0.32246 0.0
O79 O 0.39326 0.13849 0.35096 0.0
O80 O 0.34754 0.1433 0.35954 0.0
C81 C 0.29923 0.17698 0.30133 0.0
C82 C 0.37172 0.13408 0.36898 0.0
O83 O 0.39343 0.17352 0.27923 0.0
Mg84 Mg 0.84578 0.36233 0.31903 0.0
O85 O 0.88996 0.35406 0.29875 0.0
O86 O 0.90503 0.31478 0.32267 0.0
Mg87 Mg 0.87352 0.30113 0.36075 0.0
C88 C 0.90831 0.33465 0.30261 0.0
C89 C 0.82074 0.41383 0.29403 0.0
O90 O 0.81329 0.41092 0.32377 0.0
O91 O 0.8286 0.32509 0.29116 0.0
O92 O 0.84193 0.28876 0.32152 0.0
O93 O 0.86299 0.39012 0.35638 0.0
O94 O 0.85728 0.34424 0.36181 0.0
C95 C 0.82845 0.29888 0.29786 0.0
C96 C 0.8655 0.36784 0.37371 0.0
O97 O 0.83497 0.39428 0.28112 0.0
Mg98 Mg 0.64668 0.85498 0.3075 0.0
O99 O 0.65358 0.90087 0.29251 0.0
O100 O 0.6909 0.91644 0.31978 0.0
Mg101 Mg 0.70387 0.88284 0.35611 0.0
C102 C 0.67167 0.91996 0.29892 0.0
C103 C 0.60239 0.82573 0.26911 0.0
O104 O 0.60906 0.80752 0.29131 0.0
O105 O 0.68641 0.84178 0.28119 0.0
O106 O 0.71993 0.85445 0.31583 0.0
O107 O 0.61607 0.86715 0.34451 0.0
O108 O 0.662 0.86358 0.35243 0.0
C109 C 0.71209 0.84214 0.29036 0.0
C110 C 0.6374 0.86938 0.36346 0.0
O111 O 0.61742 0.84769 0.2661 0.0
Mg112 Mg 0.86277 0.65546 0.81525 0.0
O113 O 0.85531 0.6107 0.7965 0.0
O114 O 0.81732 0.59467 0.82207 0.0
Mg115 Mg 0.80432 0.62645 0.86028 0.0
C116 C 0.83667 0.59178 0.80136 0.0
C117 C 0.91182 0.68182 0.7855 0.0
O118 O 0.91046 0.69071 0.81491 0.0
O119 O 0.8238 0.67061 0.78906 0.0
O120 O 0.78897 0.65688 0.8212 0.0
O121 O 0.89279 0.64012 0.85137 0.0
O122 O 0.84696 0.64436 0.85915 0.0
C123 C 0.79783 0.67012 0.79683 0.0
C124 C 0.87139 0.63721 0.86994 0.0
O125 O 0.89219 0.66613 0.77506 0.0
Mg126 Mg 0.35497 0.85472 0.81464 0.0
O127 O 0.39796 0.8469 0.79163 0.0
O128 O 0.41352 0.80608 0.81137 0.0
Mg129 Mg 0.38294 0.79047 0.84961 0.0
C130 C 0.41625 0.82722 0.79294 0.0
C131 C 0.33165 0.90905 0.79478 0.0
O132 O 0.32689 0.9059 0.82519 0.0
O133 O 0.33524 0.81982 0.78482 0.0
O134 O 0.34939 0.78153 0.81147 0.0
O135 O 0.37507 0.87896 0.85361 0.0
O136 O 0.36666 0.83329 0.85523 0.0
C137 C 0.33485 0.79327 0.78963 0.0
C138 C 0.37633 0.85546 0.86899 0.0
O139 O 0.34372 0.88921 0.77985 0.0
Mg140 Mg 0.14905 0.35074 0.80543 0.0
O141 O 0.15686 0.39677 0.79204 0.0
O142 O 0.19506 0.41094 0.81859 0.0
Mg143 Mg 0.20857 0.37551 0.85243 0.0
C144 C 0.17533 0.41542 0.7986 0.0
C145 C 0.10436 0.32283 0.76603 0.0
O146 O 0.1131 0.30286 0.7852 0.0
O147 O 0.18732 0.33697 0.77662 0.0
O148 O 0.22224 0.34863 0.80995 0.0
O149 O 0.12079 0.36326 0.8448 0.0
O150 O 0.1666 0.35624 0.84986 0.0
C151 C 0.21336 0.33697 0.78453 0.0
C152 C 0.14293 0.36277 0.86271 0.0
O153 O 0.11791 0.34589 0.7653 0.0
Mg154 Mg 0.65504 0.14239 0.80415 0.0
O155 O 0.6093 0.14683 0.78742 0.0
O156 O 0.58896 0.18016 0.8169 0.0
Mg157 Mg 0.62144 0.19565 0.8535 0.0
C158 C 0.58807 0.16203 0.79459 0.0
C159 C 0.68764 0.10114 0.76456 0.0
O160 O 0.70521 0.1074 0.7876 0.0
O161 O 0.66574 0.18346 0.77976 0.0
O162 O 0.64912 0.21523 0.81419 0.0
O163 O 0.64408 0.10987 0.8397 0.0
O164 O 0.64421 0.15567 0.84916 0.0
C165 C 0.66279 0.20884 0.78914 0.0
C166 C 0.63979 0.13044 0.85914 0.0
O167 O 0.66513 0.11539 0.76182 0.0
Mg168 Mg 0.85946 0.3501 0.66187 0.0
O169 O 0.85394 0.39623 0.67666 0.0
O170 O 0.8173 0.4129 0.64904 0.0
Mg171 Mg 0.80353 0.37972 0.61265 0.0
C172 C 0.83649 0.41585 0.67005 0.0
C173 C 0.90218 0.31936 0.70154 0.0
O174 O 0.89463 0.30068 0.68019 0.0
O175 O 0.8191 0.3383 0.68785 0.0
O176 O 0.78626 0.35206 0.6529 0.0
O177 O 0.89073 0.36118 0.62505 0.0
O178 O 0.84473 0.35923 0.61691 0.0
C179 C 0.79349 0.33955 0.67847 0.0
C180 C 0.86955 0.36427 0.60606 0.0
O181 O 0.88817 0.34206 0.70358 0.0
Mg182 Mg 0.65553 0.85951 0.65235 0.0
O183 O 0.60983 0.85103 0.66716 0.0
O184 O 0.59587 0.81305 0.64004 0.0
Mg185 Mg 0.63026 0.80095 0.60441 0.0
C186 C 0.59146 0.83221 0.66067 0.0
C187 C 0.68588 0.90143 0.69368 0.0
O188 O 0.70575 0.8924 0.67462 0.0
O189 O 0.66984 0.82071 0.67935 0.0
O190 O 0.65874 0.78608 0.64557 0.0
O191 O 0.64225 0.8895 0.61527 0.0
O192 O 0.64747 0.84375 0.60753 0.0
C193 C 0.6704 0.79487 0.67105 0.0
C194 C 0.64066 0.86811 0.59643 0.0
O195 O 0.66222 0.88893 0.69354 0.0
Mg196 Mg 0.14372 0.65028 0.64252 0.0
O197 O 0.15275 0.60779 0.66634 0.0
O198 O 0.19225 0.59157 0.64407 0.0
Mg199 Mg 0.20517 0.62087 0.60331 0.0
C200 C 0.17233 0.58944 0.66422 0.0
C201 C 0.09201 0.67591 0.66691 0.0
O202 O 0.09354 0.68136 0.63647 0.0
O203 O 0.1808 0.6699 0.66844 0.0
O204 O 0.21741 0.65534 0.6394 0.0
O205 O 0.11601 0.63008 0.60711 0.0
O206 O 0.16171 0.63658 0.60061 0.0
C207 C 0.207 0.67019 0.66173 0.0
C208 C 0.13815 0.62709 0.58968 0.0
O209 O 0.11229 0.66284 0.68004 0.0
Mg210 Mg 0.34558 0.13784 0.6514 0.0
O211 O 0.39046 0.14369 0.67081 0.0
O212 O 0.41089 0.17687 0.64105 0.0
Mg213 Mg 0.3797 0.19113 0.60254 0.0
C214 C 0.41151 0.15932 0.66397 0.0
C215 C 0.3156 0.09257 0.6841 0.0
O216 O 0.30568 0.09414 0.65509 0.0
O217 O 0.33289 0.17901 0.67415 0.0
O218 O 0.35021 0.21078 0.64015 0.0
O219 O 0.35916 0.10487 0.61759 0.0
O220 O 0.35838 0.15043 0.60684 0.0
C221 C 0.33573 0.20433 0.66459 0.0
C222 C 0.36397 0.12512 0.59789 0.0
O223 O 0.33293 0.11127 0.69333 0.0
H224 H 0.30987 0.22674 0.27101 0.0
H225 H 0.15665 0.24423 0.1991 0.0
H226 H 0.24239 0.16942 0.29413 0.0
H227 H 0.21177 0.31525 0.21432 0.0
H228 H 0.18899 0.21474 0.2298 0.0
H229 H 0.27566 0.25768 0.24502 0.0
C230 C 0.28789 0.22058 0.27047 0.0
C231 C 0.27896 0.19543 0.28468 0.0
C232 C 0.19382 0.23684 0.22667 0.0
C233 C 0.23985 0.23067 0.25499 0.0
C234 C 0.17543 0.25366 0.20915 0.0
C235 C 0.18158 0.28221 0.20413 0.0
C236 C 0.21883 0.2485 0.23864 0.0
C237 C 0.20617 0.29337 0.21775 0.0
C238 C 0.26839 0.23836 0.25589 0.0
C239 C 0.25018 0.18864 0.28352 0.0
N240 N 0.22412 0.27639 0.23405 0.0
N241 N 0.23166 0.20606 0.2687 0.0
H242 H 0.80189 0.25091 0.31671 0.0
H243 H 0.75517 0.19983 0.14655 0.0
H244 H 0.81629 0.30295 0.23464 0.0
H245 H 0.70196 0.18673 0.22784 0.0
H246 H 0.78553 0.23048 0.17871 0.0
H247 H 0.77259 0.21959 0.28431 0.0
C248 C 0.79904 0.25561 0.29182 0.0
C249 C 0.81144 0.27954 0.27827 0.0
C250 C 0.76722 0.22079 0.18939 0.0
C251 C 0.77847 0.24369 0.24124 0.0
C252 C 0.75004 0.20322 0.17122 0.0
C253 C 0.72605 0.19081 0.18463 0.0
C254 C 0.76074 0.2253 0.22134 0.0
C255 C 0.7202 0.19604 0.21661 0.0
C256 C 0.78225 0.23785 0.27348 0.0
C257 C 0.80694 0.28478 0.24597 0.0
N258 N 0.73759 0.21272 0.23401 0.0
N259 N 0.79098 0.26682 0.22841 0.0
H260 H 0.81683 0.76084 0.14913 0.0
H261 H 0.75996 0.81782 0.31317 0.0
H262 H 0.82491 0.71253 0.23515 0.0
H263 H 0.71218 0.8292 0.22704 0.0
H264 H 0.79303 0.78778 0.2844 0.0
H265 H 0.78718 0.79483 0.17742 0.0
C266 C 0.81269 0.75762 0.17406 0.0
C267 C 0.82325 0.73386 0.18989 0.0
C268 C 0.7754 0.79707 0.27184 0.0
C269 C 0.78985 0.77264 0.22217 0.0
C270 C 0.75664 0.81432 0.28811 0.0
C271 C 0.73325 0.82594 0.27243 0.0
C272 C 0.77113 0.79196 0.23954 0.0
C273 C 0.72986 0.8205 0.24 0.0
C274 C 0.79567 0.77686 0.19003 0.0
C275 C 0.81704 0.73051 0.22209 0.0
N276 N 0.74871 0.80396 0.22452 0.0
N277 N 0.80085 0.74981 0.23727 0.0
H278 H 0.24254 0.82484 0.15847 0.0
H279 H 0.1927 0.75802 0.32096 0.0
H280 H 0.29527 0.82932 0.24179 0.0
H281 H 0.17846 0.71725 0.23109 0.0
H282 H 0.22155 0.79369 0.2941 0.0
H283 H 0.20967 0.79491 0.18733 0.0
C284 C 0.24703 0.81991 0.183 0.0
C285 C 0.27183 0.82949 0.19771 0.0
C286 C 0.21184 0.77703 0.28036 0.0
C287 C 0.23407 0.79543 0.23077 0.0
C288 C 0.19527 0.75686 0.29553 0.0
C289 C 0.18326 0.7347 0.27813 0.0
C290 C 0.21573 0.77535 0.24756 0.0
C291 C 0.18747 0.73395 0.24533 0.0
C292 C 0.22832 0.8027 0.19931 0.0
C293 C 0.27653 0.82223 0.22951 0.0
N294 N 0.20326 0.75409 0.23104 0.0
N295 N 0.25775 0.80561 0.24507 0.0
H296 H 0.68101 0.79715 0.73473 0.0
H297 H 0.80046 0.68235 0.7337 0.0
H298 H 0.69692 0.74706 0.65149 0.0
H299 H 0.74913 0.69499 0.81659 0.0
H300 H 0.76728 0.71113 0.70302 0.0
H301 H 0.7105 0.76476 0.76568 0.0
C302 C 0.6906 0.77929 0.72304 0.0
C303 C 0.68652 0.77471 0.69055 0.0
C304 C 0.76326 0.70739 0.72788 0.0
C305 C 0.72054 0.73816 0.72552 0.0
C306 C 0.78219 0.69113 0.74539 0.0
C307 C 0.77746 0.68629 0.77767 0.0
C308 C 0.73993 0.71947 0.743 0.0
C309 C 0.75341 0.69809 0.79169 0.0
C310 C 0.70728 0.76083 0.74069 0.0
C311 C 0.69939 0.75123 0.67653 0.0
N312 N 0.7357 0.71447 0.77435 0.0
N313 N 0.71616 0.73402 0.69402 0.0
H314 H 0.25413 0.69733 0.64095 0.0
H315 H 0.30723 0.74615 0.8086 0.0
H316 H 0.20279 0.68522 0.72392 0.0
H317 H 0.31951 0.79977 0.72739 0.0
H318 H 0.27542 0.71665 0.77716 0.0
H319 H 0.28511 0.72852 0.6717 0.0
C320 C 0.24949 0.70114 0.66566 0.0
C321 C 0.22594 0.68871 0.68001 0.0
C322 C 0.2851 0.73489 0.7663 0.0
C323 C 0.26133 0.72379 0.71511 0.0
C324 C 0.30335 0.7516 0.78408 0.0
C325 C 0.31599 0.77538 0.77048 0.0
C326 C 0.28008 0.74158 0.7345 0.0
C327 C 0.31006 0.78165 0.73871 0.0
C328 C 0.26701 0.71902 0.68303 0.0
C329 C 0.22069 0.69448 0.712 0.0
N330 N 0.29272 0.76462 0.72159 0.0
N331 N 0.23847 0.71137 0.72863 0.0
H332 H 0.26324 0.31474 0.80421 0.0
H333 H 0.31171 0.25166 0.63963 0.0
H334 H 0.20991 0.32211 0.72165 0.0
H335 H 0.32462 0.20755 0.72773 0.0
H336 H 0.28297 0.28666 0.66777 0.0
H337 H 0.29508 0.28452 0.77424 0.0
C338 C 0.2584 0.31034 0.77963 0.0
C339 C 0.23379 0.32086 0.76541 0.0
C340 C 0.29232 0.26938 0.68082 0.0
C341 C 0.27034 0.28654 0.7311 0.0
C342 C 0.30881 0.24959 0.66494 0.0
C343 C 0.32046 0.22674 0.68147 0.0
C344 C 0.2882 0.26661 0.7135 0.0
C345 C 0.31588 0.22481 0.71415 0.0
C346 C 0.27652 0.29298 0.76269 0.0
C347 C 0.22856 0.31427 0.73354 0.0
N348 N 0.30023 0.24462 0.72917 0.0
N349 N 0.24678 0.29754 0.71733 0.0
H350 H 0.67482 0.2114 0.72602 0.0
H351 H 0.79315 0.32552 0.7415 0.0
H352 H 0.68585 0.2567 0.81367 0.0
H353 H 0.7444 0.31788 0.65552 0.0
H354 H 0.75801 0.29643 0.76886 0.0
H355 H 0.70432 0.24648 0.69933 0.0
C356 C 0.68324 0.22887 0.73953 0.0
C357 C 0.67789 0.23126 0.77202 0.0
C358 C 0.75497 0.30146 0.74409 0.0
C359 C 0.71204 0.27081 0.74196 0.0
C360 C 0.77499 0.3179 0.72848 0.0
C361 C 0.77165 0.3241 0.69623 0.0
C362 C 0.73198 0.29056 0.72706 0.0
C363 C 0.74771 0.31373 0.68044 0.0
C364 C 0.69996 0.24885 0.72433 0.0
C365 C 0.68932 0.25426 0.78852 0.0
N366 N 0.729 0.2971 0.69589 0.0
N367 N 0.70628 0.27295 0.7734 0.0
H368 H 0.18063 0.34554 0.90715 0.0
H369 H 0.10169 0.39715 0.05918 0.0
H370 H 0.09937 0.38541 0.89681 0.0
H371 H 0.14632 0.31804 0.05597 0.0
H372 H 0.10351 0.39939 0.00112 0.0
H373 H 0.17332 0.34327 0.96424 0.0
C374 C 0.16146 0.35428 0.91694 0.0
C375 C 0.14052 0.36563 0.89728 0.0
C376 C 0.11246 0.38139 0.01326 0.0
C377 C 0.13206 0.36292 0.96239 0.0
C378 C 0.11136 0.38002 0.04625 0.0
C379 C 0.12401 0.35744 0.06233 0.0
C380 C 0.12696 0.36043 -0.0034 0.0
C381 C 0.13631 0.33582 0.04452 0.0
C382 C 0.15718 0.35264 0.94942 0.0
C383 C 0.11598 0.37644 0.91123 0.0
N384 N 0.13797 0.33812 0.0126 0.0
N385 N 0.11241 0.37492 0.94311 0.0
H386 H 0.60691 0.16175 0.89866 0.0
H387 H 0.67859 0.11306 0.05193 0.0
H388 H 0.65878 0.08728 0.89533 0.0
H389 H 0.59051 0.1356 0.05405 0.0
H390 H 0.67472 0.10578 -0.00544 0.0
H391 H 0.60263 0.15587 0.95614 0.0
C392 C 0.61704 0.14399 0.91002 0.0
C393 C 0.63325 0.125 0.89249 0.0
C394 C 0.65618 0.11176 0.00784 0.0
C395 C 0.6291 0.11863 0.95773 0.0
C396 C 0.65839 0.11599 0.04044 0.0
C397 C 0.6349 0.12512 0.05763 0.0
C398 C 0.63058 0.11757 -0.00754 0.0
C399 C 0.60915 0.12858 0.04164 0.0
C400 C 0.61451 0.14057 0.94265 0.0
C401 C 0.64597 0.10226 0.90817 0.0
N402 N 0.60782 0.12545 0.00977 0.0
N403 N 0.64418 0.10003 0.94014 0.0
H404 H 0.92003 0.64032 0.90385 0.0
H405 H 0.89861 0.67073 0.06304 0.0
H406 H 0.83235 0.61735 0.91218 0.0
H407 H 0.85416 0.59152 0.06463 0.0
H408 H 0.90481 0.66552 0.00572 0.0
H409 H 0.92511 0.63594 0.96131 0.0
C410 C 0.90199 0.63377 0.91767 0.0
C411 C 0.87558 0.62954 0.90336 0.0
C412 C 0.8943 0.64901 0.01885 0.0
C413 C 0.88142 0.62448 0.96866 0.0
C414 C 0.89062 0.65206 0.05139 0.0
C415 C 0.87589 0.63152 0.06839 0.0
C416 C 0.88245 0.62569 0.00334 0.0
C417 C 0.86584 0.6077 0.05227 0.0
C418 C 0.90493 0.63151 0.95036 0.0
C419 C 0.85294 0.62114 0.92236 0.0
N420 N 0.86868 0.60575 0.0204 0.0
N421 N 0.85636 0.61892 0.9542 0.0
H422 H 0.32831 0.84857 0.05801 0.0
H423 H 0.40303 0.89637 0.9037 0.0
H424 H 0.40989 0.88799 0.06753 0.0
H425 H 0.36405 0.81456 0.91176 0.0
H426 H 0.40323 0.90012 0.96172 0.0
H427 H 0.33612 0.84416 0.00122 0.0
C428 C 0.34767 0.85675 0.04808 0.0
C429 C 0.36854 0.86862 0.06745 0.0
C430 C 0.3952 0.88119 0.95061 0.0
C431 C 0.37753 0.8635 0.00266 0.0
C432 C 0.39514 0.87896 0.91765 0.0
C433 C 0.38325 0.85522 0.90297 0.0
C434 C 0.38261 0.85988 0.96861 0.0
C435 C 0.37331 0.83327 0.92208 0.0
C436 C 0.35223 0.85389 0.01579 0.0
C437 C 0.39333 0.87866 0.05332 0.0
N438 N 0.37261 0.83641 0.95395 0.0
N439 N 0.39715 0.87601 0.02155 0.0
H440 H 0.08987 0.62167 0.55535 0.0
H441 H 0.10997 0.65904 0.39895 0.0
H442 H 0.18005 0.61139 0.54866 0.0
H443 H 0.16389 0.58612 0.39442 0.0
H444 H 0.10358 0.65068 0.45575 0.0
H445 H 0.08628 0.61648 0.4979 0.0
C446 C 0.10885 0.61762 0.54194 0.0
C447 C 0.13541 0.61746 0.55669 0.0
C448 C 0.11626 0.63616 0.44209 0.0
C449 C 0.13127 0.6115 0.49134 0.0
C450 C 0.12006 0.64105 0.40988 0.0
C451 C 0.13744 0.62322 0.39226 0.0
C452 C 0.13063 0.61382 0.45671 0.0
C453 C 0.15014 0.60017 0.40736 0.0
C454 C 0.10673 0.61486 0.50922 0.0
C455 C 0.15925 0.61205 0.53814 0.0
N456 N 0.14708 0.5965 0.43904 0.0
N457 N 0.15665 0.60946 0.50624 0.0
H458 H 0.34907 0.07987 0.56255 0.0
H459 H 0.41952 0.13544 0.40433 0.0
H460 H 0.39702 0.15694 0.55893 0.0
H461 H 0.33275 0.10833 0.40703 0.0
H462 H 0.42328 0.12664 0.46127 0.0
H463 H 0.35544 0.07432 0.50525 0.0
C464 C 0.36158 0.09519 0.54981 0.0
C465 C 0.37232 0.11908 0.56519 0.0
C466 C 0.4037 0.122 0.4491 0.0
C467 C 0.38001 0.11251 0.50043 0.0
C468 C 0.40151 0.12685 0.4167 0.0
C469 C 0.37563 0.12294 0.40114 0.0
C470 C 0.38008 0.11253 0.46572 0.0
C471 C 0.35293 0.11194 0.41829 0.0
C472 C 0.36505 0.09204 0.51727 0.0
C473 C 0.38815 0.13845 0.54774 0.0
N474 N 0.35562 0.10724 0.44987 0.0
N475 N 0.3915 0.13479 0.51612 0.0
H476 H 0.88765 0.327 0.4124 0.0
H477 H 0.83585 0.39502 0.56656 0.0
H478 H 0.86156 0.41402 0.41107 0.0
H479 H 0.9129 0.34694 0.56934 0.0
H480 H 0.84087 0.39948 0.50898 0.0
H481 H 0.89403 0.3303 0.46998 0.0
C482 C 0.88369 0.34685 0.42414 0.0
C483 C 0.87396 0.37022 0.4071 0.0
C484 C 0.85686 0.38835 0.52237 0.0
C485 C 0.88047 0.37386 0.47244 0.0
C486 C 0.85394 0.38571 0.55505 0.0
C487 C 0.87397 0.37057 0.57246 0.0
C488 C 0.87941 0.37494 0.50716 0.0
C489 C 0.89712 0.35892 0.5566 0.0
C490 C 0.88742 0.34874 0.45684 0.0
C491 C 0.86916 0.39552 0.42338 0.0
N492 N 0.89893 0.3608 0.52461 0.0
N493 N 0.87185 0.39652 0.45532 0.0
H494 H 0.65057 0.91477 0.56129 0.0
H495 H 0.59224 0.85497 0.39906 0.0
H496 H 0.6167 0.83065 0.55496 0.0
H497 H 0.67326 0.89591 0.40462 0.0
H498 H 0.58846 0.85771 0.45688 0.0
H499 H 0.64606 0.9194 0.50373 0.0
C500 C 0.64163 0.89751 0.54785 0.0
C501 C 0.63416 0.87218 0.56272 0.0
C502 C 0.60679 0.86646 0.44524 0.0
C503 C 0.6286 0.87762 0.49746 0.0
C504 C 0.60892 0.86511 0.41241 0.0
C505 C 0.63321 0.87509 0.39726 0.0
C506 C 0.62873 0.87859 0.46274 0.0
C507 C 0.65434 0.88778 0.41554 0.0
C508 C 0.63924 0.90016 0.51514 0.0
C509 C 0.62292 0.85038 0.54427 0.0
N510 N 0.65161 0.88923 0.44749 0.0
N511 N 0.62042 0.8536 0.51243 0.0
H512 H 0.14943 0.5813 0.22562 0.0
H513 H 0.22624 0.43407 0.19886 0.0
H514 H 0.2337 0.56555 0.26015 0.0
H515 H 0.13593 0.44406 0.20358 0.0
H516 H 0.23175 0.48388 0.21296 0.0
H517 H 0.14718 0.53295 0.20632 0.0
C518 C 0.1677 0.56788 0.22858 0.0
C519 C 0.19168 0.57737 0.24491 0.0
C520 C 0.21078 0.47503 0.21102 0.0
C521 C 0.18904 0.52198 0.22317 0.0
C522 C 0.20761 0.44665 0.20314 0.0
C523 C 0.18059 0.4349 0.20017 0.0
C524 C 0.18676 0.49177 0.21533 0.0
C525 C 0.15716 0.45216 0.20583 0.0
C526 C 0.16626 0.5402 0.21785 0.0
C527 C 0.21471 0.55899 0.24797 0.0
N528 N 0.16079 0.47979 0.21287 0.0
N529 N 0.21276 0.53204 0.2374 0.0
H530 H 0.54156 0.19938 0.14668 0.0
H531 H 0.46518 0.20308 0.31415 0.0
H532 H 0.5842 0.17973 0.23434 0.0
H533 H 0.4213 0.18403 0.22707 0.0
H534 H 0.50919 0.20666 0.28466 0.0
H535 H 0.49769 0.20568 0.1759 0.0
C536 C 0.54179 0.19672 0.17213 0.0
C537 C 0.56651 0.18877 0.18813 0.0
C538 C 0.48986 0.20196 0.27204 0.0
C539 C 0.51647 0.19615 0.22153 0.0
C540 C 0.4647 0.20004 0.28875 0.0
C541 C 0.43958 0.19295 0.27303 0.0
C542 C 0.48983 0.19716 0.23934 0.0
C543 C 0.44025 0.18929 0.24012 0.0
C544 C 0.51672 0.20022 0.1887 0.0
C545 C 0.56556 0.18562 0.2211 0.0
N546 N 0.46505 0.19135 0.22432 0.0
N547 N 0.54087 0.18929 0.23676 0.0
H548 H 0.79977 0.54986 0.16007 0.0
H549 H 0.80694 0.46388 0.3211 0.0
H550 H 0.82782 0.58756 0.24765 0.0
H551 H 0.82358 0.4255 0.23046 0.0
H552 H 0.80267 0.5096 0.29509 0.0
H553 H 0.79631 0.50443 0.18679 0.0
C554 C 0.8048 0.5487 0.18505 0.0
C555 C 0.8143 0.5725 0.20167 0.0
C556 C 0.80705 0.49111 0.28094 0.0
C557 C 0.81021 0.52063 0.2322 0.0
C558 C 0.80936 0.46499 0.29566 0.0
C559 C 0.81579 0.44088 0.27786 0.0
C560 C 0.81066 0.49304 0.24815 0.0
C561 C 0.81879 0.44361 0.24502 0.0
C562 C 0.80298 0.52273 0.20015 0.0
C563 C 0.82059 0.56969 0.23395 0.0
N564 N 0.81615 0.4693 0.23115 0.0
N565 N 0.81844 0.54414 0.24823 0.0
H566 H 0.57408 0.86787 0.23841 0.0
H567 H 0.43186 0.78164 0.21342 0.0
H568 H 0.56598 0.7811 0.26747 0.0
H569 H 0.43511 0.87222 0.22095 0.0
H570 H 0.4819 0.77955 0.22768 0.0
H571 H 0.52432 0.86801 0.22356 0.0
C572 C 0.56199 0.84868 0.24113 0.0
C573 C 0.57416 0.82447 0.2544 0.0
C574 C 0.47152 0.79982 0.22648 0.0
C575 C 0.51716 0.82466 0.23783 0.0
C576 C 0.44298 0.80104 0.21852 0.0
C577 C 0.42931 0.82714 0.21595 0.0
C578 C 0.48654 0.82491 0.23134 0.0
C579 C 0.44474 0.85163 0.22275 0.0
C580 C 0.53351 0.8489 0.233 0.0
C581 C 0.55739 0.80027 0.25748 0.0
N582 N 0.47262 0.84993 0.22975 0.0
N583 N 0.52967 0.80099 0.24936 0.0
H584 H 0.79245 0.55706 0.78766 0.0
H585 H 0.88159 0.43838 0.70204 0.0
H586 H 0.88144 0.56762 0.77058 0.0
H587 H 0.79411 0.45374 0.67982 0.0
H588 H 0.8823 0.48178 0.73359 0.0
H589 H 0.79292 0.51471 0.75477 0.0
C590 C 0.81212 0.55039 0.77712 0.0
C591 C 0.83695 0.5659 0.78186 0.0
C592 C 0.86304 0.47564 0.72163 0.0
C593 C 0.83762 0.51733 0.74445 0.0
C594 C 0.86257 0.45088 0.70375 0.0
C595 C 0.83775 0.44246 0.68823 0.0
C596 C 0.83836 0.49167 0.7246 0.0
C597 C 0.81374 0.4595 0.6912 0.0
C598 C 0.81232 0.52633 0.75822 0.0
C599 C 0.8618 0.55635 0.76742 0.0
N600 N 0.81456 0.48313 0.70929 0.0
N601 N 0.86157 0.53251 0.74954 0.0
H602 H 0.5548 0.78827 0.668 0.0
H603 H 0.43964 0.87397 0.7653 0.0
H604 H 0.56692 0.87533 0.69397 0.0
H605 H 0.45019 0.78404 0.77368 0.0
H606 H 0.48181 0.87583 0.73191 0.0
H607 H 0.51156 0.78743 0.69928 0.0
C608 C 0.54829 0.80728 0.68008 0.0
C609 C 0.56459 0.8319 0.67843 0.0
C610 C 0.47483 0.85573 0.74111 0.0
C611 C 0.515 0.83106 0.71411 0.0
C612 C 0.45074 0.85462 0.76003 0.0
C613 C 0.44144 0.82881 0.7724 0.0
C614 C 0.48935 0.8308 0.73401 0.0
C615 C 0.4567 0.80441 0.76486 0.0
C616 C 0.52369 0.80672 0.69806 0.0
C617 C 0.55511 0.85585 0.69474 0.0
N618 N 0.47979 0.80598 0.74602 0.0
N619 N 0.53086 0.85488 0.71181 0.0
H620 H 0.21841 0.45296 0.78996 0.0
H621 H 0.12728 0.56648 0.69555 0.0
H622 H 0.13054 0.43973 0.76784 0.0
H623 H 0.21682 0.55644 0.68209 0.0
H624 H 0.12748 0.52501 0.73018 0.0
H625 H 0.21742 0.49634 0.75871 0.0
C626 C 0.19884 0.45929 0.77879 0.0
C627 C 0.17454 0.44261 0.78142 0.0
C628 C 0.14704 0.53198 0.71964 0.0
C629 C 0.17329 0.49229 0.74582 0.0
C630 C 0.14698 0.55566 0.7 0.0
C631 C 0.17206 0.56485 0.68577 0.0
C632 C 0.17243 0.51776 0.7256 0.0
C633 C 0.19697 0.54997 0.69232 0.0
C634 C 0.19836 0.48395 0.76083 0.0
C635 C 0.14981 0.45184 0.76627 0.0
N636 N 0.19655 0.52726 0.71188 0.0
N637 N 0.14979 0.47612 0.7492 0.0
H638 H 0.41583 0.14555 0.72671 0.0
H639 H 0.58307 0.1456 0.73287 0.0
H640 H 0.46586 0.16914 0.64586 0.0
H641 H 0.53373 0.17244 0.81297 0.0
H642 H 0.53988 0.14343 0.70096 0.0
H643 H 0.45885 0.14476 0.7592 0.0
C644 C 0.43588 0.15032 0.71575 0.0
C645 C 0.43731 0.15752 0.68358 0.0
C646 C 0.53858 0.14968 0.72556 0.0
C647 C 0.48638 0.15621 0.72038 0.0
C648 C 0.56313 0.15078 0.74382 0.0
C649 C 0.56197 0.15932 0.77559 0.0
C650 C 0.51262 0.15648 0.73937 0.0
C651 C 0.53556 0.16595 0.78851 0.0
C652 C 0.46031 0.15 0.73431 0.0
C653 C 0.46381 0.16367 0.67062 0.0
N654 N 0.51187 0.16422 0.7704 0.0
N655 N 0.48735 0.16268 0.68901 0.0
H656 H 0.64707 0.07356 0.73059 0.0
H657 H 0.7337 0.93265 0.70323 0.0
H658 H 0.73302 0.06553 0.76323 0.0
H659 H 0.64339 0.93507 0.71503 0.0
H660 H 0.73595 0.98259 0.71792 0.0
H661 H 0.64789 0.02431 0.71432 0.0
C662 C 0.66631 0.06163 0.73378 0.0
C663 C 0.68994 0.07359 0.74861 0.0
C664 C 0.71574 0.972 0.71754 0.0
C665 C 0.69082 0.01718 0.73034 0.0
C666 C 0.71443 0.94355 0.70935 0.0
C667 C 0.68832 0.9297 0.70788 0.0
C668 C 0.69071 0.98671 0.7236 0.0
C669 C 0.66399 0.94483 0.71594 0.0
C670 C 0.66663 0.03343 0.72483 0.0
C671 C 0.71427 0.05704 0.75212 0.0
N672 N 0.66575 0.97261 0.72305 0.0
N673 N 0.71407 0.02955 0.74318 0.0
H674 H 0.96235 0.70108 0.80722 0.0
H675 H 0.04083 0.68909 0.64172 0.0
H676 H 0.92037 0.67302 0.72207 0.0
H677 H 0.08328 0.67615 0.73106 0.0
H678 H 0.99636 0.69488 0.66992 0.0
H679 H 0.0066 0.7038 0.77805 0.0
C680 C 0.96234 0.69585 0.78227 0.0
C681 C 0.93769 0.68657 0.76705 0.0
C682 C 0.01547 0.69098 0.68329 0.0
C683 C 0.98818 0.68981 0.73372 0.0
C684 C 0.04087 0.68779 0.66731 0.0
C685 C 0.06575 0.68192 0.68413 0.0
C686 C 0.01503 0.68874 0.71632 0.0
C687 C 0.06454 0.68044 0.71722 0.0
C688 C 0.98763 0.69728 0.76576 0.0
C689 C 0.93894 0.68006 0.73473 0.0
N690 N 0.03952 0.68383 0.7323 0.0
N691 N 0.96386 0.68177 0.71908 0.0
H692 H 0.29292 0.0431 0.66366 0.0
H693 H 0.32143 0.95927 0.82347 0.0
H694 H 0.32927 0.08261 0.74628 0.0
H695 H 0.32669 0.92039 0.73134 0.0
H696 H 0.31275 0.00466 0.79804 0.0
H697 H 0.29305 0.99807 0.6915 0.0
C698 C 0.30049 0.04244 0.68785 0.0
C699 C 0.3114 0.0666 0.70261 0.0
C700 C 0.31564 0.98614 0.78347 0.0
C701 C 0.31148 0.01518 0.73441 0.0
C702 C 0.3205 0.96023 0.79788 0.0
C703 C 0.32495 0.93608 0.77941 0.0
C704 C 0.31472 0.9878 0.75041 0.0
C705 C 0.32358 0.93855 0.7464 0.0
C706 C 0.3007 0.01669 0.70357 0.0
C707 C 0.32089 0.06444 0.73397 0.0
N708 N 0.31852 0.96403 0.73289 0.0
N709 N 0.32081 0.03908 0.74886 0.0
H710 H 0.07218 0.3659 0.74275 0.0
H711 H 0.93646 0.27321 0.70607 0.0
H712 H 0.07101 0.27622 0.75931 0.0
H713 H 0.93299 0.36187 0.72816 0.0
H714 H 0.98656 0.27304 0.72029 0.0
H715 H 0.02217 0.36403 0.72924 0.0
C716 C 0.06155 0.34572 0.74302 0.0
C717 C 0.07576 0.32118 0.75233 0.0
C718 C 0.97469 0.29242 0.72233 0.0
C719 C 0.01847 0.31901 0.73728 0.0
C720 C 0.94611 0.29251 0.7144 0.0
C721 C 0.93055 0.31761 0.71584 0.0
C722 C 0.98782 0.31769 0.73118 0.0
C723 C 0.94411 0.34203 0.72673 0.0
C724 C 0.03292 0.34475 0.73568 0.0
C725 C 0.06081 0.29566 0.75239 0.0
N726 N 0.97207 0.34154 0.73356 0.0
N727 N 0.03292 0.29522 0.74504 0.0
H728 H 0.38171 0.07557 0.26281 0.0
H729 H 0.29087 0.96101 0.16948 0.0
H730 H 0.29226 0.06492 0.27638 0.0
H731 H 0.37814 0.94693 0.19376 0.0
H732 H 0.29216 0.00521 0.1992 0.0
H733 H 0.3817 0.03401 0.22814 0.0
C734 C 0.36207 0.06465 0.25829 0.0
C735 C 0.33698 0.07358 0.27264 0.0
C736 C 0.31104 0.99247 0.19785 0.0
C737 C 0.3368 0.02651 0.23284 0.0
C738 C 0.31038 0.96734 0.18078 0.0
C739 C 0.3344 0.95015 0.17928 0.0
C740 C 0.33601 1.00078 0.21308 0.0
C741 C 0.35908 0.95941 0.19452 0.0
C742 C 0.36212 0.04093 0.23867 0.0
C743 C 0.31213 0.05861 0.26606 0.0
N744 N 0.35928 0.98415 0.21074 0.0
N745 N 0.31264 0.0359 0.24654 0.0
H746 H 0.94302 0.29028 0.28991 0.0
H747 H 0.05914 0.37813 0.1972 0.0
H748 H 0.93217 0.37877 0.2701 0.0
H749 H 0.04721 0.28875 0.18441 0.0
H750 H 0.01613 0.37954 0.22927 0.0
H751 H 0.98512 0.29009 0.2569 0.0
C752 C 0.94954 0.30973 0.27872 0.0
C753 C 0.93401 0.3346 0.28279 0.0
C754 C 0.02294 0.35969 0.21929 0.0
C755 C 0.98238 0.33449 0.24506 0.0
C756 C 0.0475 0.35883 0.2011 0.0
C757 C 0.05679 0.33327 0.18806 0.0
C758 C 0.00792 0.33475 0.22497 0.0
C759 C 0.0408 0.30894 0.19383 0.0
C760 C 0.97351 0.30954 0.25974 0.0
C761 C 0.94344 0.3591 0.2675 0.0
N762 N 0.01731 0.31025 0.21204 0.0
N763 N 0.96715 0.35849 0.24945 0.0
H764 H 0.71465 0.95747 0.2901 0.0
H765 H 0.62473 0.07031 0.19381 0.0
H766 H 0.62734 0.94312 0.26613 0.0
H767 H 0.71435 0.06001 0.18132 0.0
H768 H 0.62441 0.02843 0.22787 0.0
H769 H 0.71393 1.0003 0.25798 0.0
C770 C 0.69526 0.96342 0.2783 0.0
C771 C 0.67103 0.94662 0.28074 0.0
C772 C 0.64409 0.03541 0.21761 0.0
C773 C 0.67008 0.99572 0.24415 0.0
C774 C 0.64433 0.05932 0.19831 0.0
C775 C 0.6696 0.06859 0.1846 0.0
C776 C 0.66939 0.02109 0.22378 0.0
C777 C 0.69436 0.05349 0.19118 0.0
C778 C 0.69493 0.98778 0.25984 0.0
C779 C 0.64654 0.95535 0.26475 0.0
N780 N 0.69367 0.03061 0.21046 0.0
N781 N 0.64664 0.97939 0.24723 0.0
H782 H 0.08734 0.65127 0.23561 0.0
H783 H 0.92002 0.65139 0.23183 0.0
H784 H 0.03908 0.67514 0.31771 0.0
H785 H 0.96933 0.67779 0.15153 0.0
H786 H 0.96336 0.64949 0.26379 0.0
H787 H 0.04375 0.65026 0.20436 0.0
C788 C 0.06755 0.65607 0.24712 0.0
C789 C 0.06682 0.66342 0.27928 0.0
C790 C 0.96458 0.6556 0.23914 0.0
C791 C 0.01699 0.66189 0.24378 0.0
C792 C 0.93997 0.65654 0.22088 0.0
C793 C 0.94112 0.66486 0.18904 0.0
C794 C 0.99053 0.6623 0.22518 0.0
C795 C 0.9675 0.67146 0.17605 0.0
C796 C 0.04277 0.65561 0.22925 0.0
C797 C 0.04059 0.66958 0.29293 0.0
N798 N 0.9912 0.66984 0.19411 0.0
N799 N 0.01665 0.66849 0.27515 0.0
loop_
_geom_bond_atom_site_label_1
_geom_bond_atom_site_label_2
_geom_bond_distance
_geom_bond_site_symmetry_2
_ccdc_geom_bond_type
Mg0 O1 2.028 . S
Mg0 O7 1.986 . S
Mg0 O9 2.114 . S
Mg0 O10 2.251 . S
Mg0 O13 2.010 . S
O1 Mg0 2.028 . S
O1 C4 1.250 . S
O2 Mg3 2.028 . S
O2 C4 1.248 . S
Mg3 O2 2.028 . S
Mg3 O8 2.032 . S
Mg3 O10 2.079 . S
C4 O1 1.250 . S
C4 O2 1.248 . S
C5 O6 1.264 . S
C5 O13 1.249 . S
O6 C5 1.264 . S
O7 Mg0 1.986 . S
O7 C11 1.246 . S
O8 Mg3 2.032 . S
O8 C11 1.259 . S
O9 Mg0 2.114 . S
O9 C12 1.252 . S
O10 Mg0 2.251 . S
O10 Mg3 2.079 . S
O10 C12 1.273 . S
C11 O7 1.246 . S
C11 O8 1.259 . S
C12 O9 1.252 . S
C12 O10 1.273 . S
O13 Mg0 2.010 . S
O13 C5 1.249 . S
Mg14 O15 2.028 . S
Mg14 O21 1.986 . S
Mg14 O23 2.114 . S
Mg14 O24 2.251 . S
Mg14 O27 2.010 . S
O15 Mg14 2.028 . S
O15 C18 1.250 . S
O16 Mg17 2.028 . S
O16 C18 1.248 . S
Mg17 O16 2.028 . S
Mg17 O22 2.032 . S
Mg17 O24 2.079 . S
C18 O15 1.250 . S
C18 O16 1.248 . S
C19 O20 1.264 . S
C19 O27 1.249 . S
O20 C19 1.264 . S
O21 Mg14 1.986 . S
O21 C25 1.246 . S
O22 Mg17 2.032 . S
O22 C25 1.259 . S
O23 Mg14 2.114 . S
O23 C26 1.252 . S
O24 Mg14 2.251 . S
O24 Mg17 2.079 . S
O24 C26 1.273 . S
C25 O21 1.246 . S
C25 O22 1.259 . S
C26 O23 1.252 . S
C26 O24 1.273 . S
O27 Mg14 2.010 . S
O27 C19 1.249 . S
Mg28 O29 2.028 . S
Mg28 O35 1.986 . S
Mg28 O37 2.114 . S
Mg28 O38 2.251 . S
Mg28 O41 2.010 . S
O29 Mg28 2.028 . S
O29 C32 1.250 . S
O30 Mg31 2.028 . S
O30 C32 1.248 . S
Mg31 O30 2.028 . S
Mg31 O36 2.032 . S
Mg31 O38 2.079 . S
C32 O29 1.250 . S
C32 O30 1.248 . S
C33 O34 1.264 . S
C33 O41 1.249 . S
O34 C33 1.264 . S
O35 Mg28 1.986 . S
O35 C39 1.246 . S
O36 Mg31 2.032 . S
O36 C39 1.259 . S
O37 Mg28 2.114 . S
O37 C40 1.252 . S
O38 Mg28 2.251 . S
O38 Mg31 2.079 . S
O38 C40 1.273 . S
C39 O35 1.246 . S
C39 O36 1.259 . S
C40 O37 1.252 . S
C40 O38 1.273 . S
O41 Mg28 2.010 . S
O41 C33 1.249 . S
Mg42 O43 2.028 . S
Mg42 O49 1.986 . S
Mg42 O51 2.114 . S
Mg42 O52 2.251 . S
Mg42 O55 2.010 . S
O43 Mg42 2.028 . S
O43 C46 1.250 . S
O44 Mg45 2.028 . S
O44 C46 1.248 . S
Mg45 O44 2.028 . S
Mg45 O50 2.032 . S
Mg45 O52 2.079 . S
C46 O43 1.250 . S
C46 O44 1.248 . S
C47 O48 1.264 . S
C47 O55 1.249 . S
O48 C47 1.264 . S
O49 Mg42 1.986 . S
O49 C53 1.246 . S
O50 Mg45 2.032 . S
O50 C53 1.259 . S
O51 Mg42 2.114 . S
O51 C54 1.252 . S
O52 Mg42 2.251 . S
O52 Mg45 2.079 . S
O52 C54 1.273 . S
C53 O49 1.246 . S
C53 O50 1.259 . S
C54 O51 1.252 . S
C54 O52 1.273 . S
O55 Mg42 2.010 . S
O55 C47 1.249 . S
Mg56 O57 2.028 . S
Mg56 O63 1.986 . S
Mg56 O65 2.114 . S
Mg56 O66 2.251 . S
Mg56 O69 2.010 . S
O57 Mg56 2.028 . S
O57 C60 1.250 . S
O58 Mg59 2.028 . S
O58 C60 1.248 . S
Mg59 O58 2.028 . S
Mg59 O64 2.032 . S
Mg59 O66 2.079 . S
C60 O57 1.250 . S
C60 O58 1.248 . S
C61 O62 1.264 . S
C61 O69 1.249 . S
O62 C61 1.264 . S
O63 Mg56 1.986 . S
O63 C67 1.246 . S
O64 Mg59 2.032 . S
O64 C67 1.259 . S
O65 Mg56 2.114 . S
O65 C68 1.252 . S
O66 Mg56 2.251 . S
O66 Mg59 2.079 . S
O66 C68 1.273 . S
C67 O63 1.246 . S
C67 O64 1.259 . S
C68 O65 1.252 . S
C68 O66 1.273 . S
O69 Mg56 2.010 . S
O69 C61 1.249 . S
Mg70 O71 2.028 . S
Mg70 O77 1.986 . S
Mg70 O79 2.114 . S
Mg70 O80 2.251 . S
Mg70 O83 2.010 . S
O71 Mg70 2.028 . S
O71 C74 1.250 . S
O72 Mg73 2.028 . S
O72 C74 1.248 . S
Mg73 O72 2.028 . S
Mg73 O78 2.032 . S
Mg73 O80 2.079 . S
C74 O71 1.250 . S
C74 O72 1.248 . S
C75 O76 1.264 . S
C75 O83 1.249 . S
O76 C75 1.264 . S
O77 Mg70 1.986 . S
O77 C81 1.246 . S
O78 Mg73 2.032 . S
O78 C81 1.259 . S
O79 Mg70 2.114 . S
O79 C82 1.252 . S
O80 Mg70 2.251 . S
O80 Mg73 2.079 . S
O80 C82 1.273 . S
C81 O77 1.246 . S
C81 O78 1.259 . S
C82 O79 1.252 . S
C82 O80 1.273 . S
O83 Mg70 2.010 . S
O83 C75 1.249 . S
Mg84 O85 2.028 . S
Mg84 O91 1.986 . S
Mg84 O93 2.114 . S
Mg84 O94 2.251 . S
Mg84 O97 2.010 . S
O85 Mg84 2.028 . S
O85 C88 1.250 . S
O86 Mg87 2.028 . S
O86 C88 1.248 . S
Mg87 O86 2.028 . S
Mg87 O92 2.032 . S
Mg87 O94 2.079 . S
C88 O85 1.250 . S
C88 O86 1.248 . S
C89 O90 1.264 . S
C89 O97 1.249 . S
O90 C89 1.264 . S
O91 Mg84 1.986 . S
O91 C95 1.246 . S
O92 Mg87 2.032 . S
O92 C95 1.259 . S
O93 Mg84 2.114 . S
O93 C96 1.252 . S
O94 Mg84 2.251 . S
O94 Mg87 2.079 . S
O94 C96 1.273 . S
C95 O91 1.246 . S
C95 O92 1.259 . S
C96 O93 1.252 . S
C96 O94 1.273 . S
O97 Mg84 2.010 . S
O97 C89 1.249 . S
Mg98 O99 2.028 . S
Mg98 O105 1.986 . S
Mg98 O107 2.114 . S
Mg98 O108 2.251 . S
Mg98 O111 2.010 . S
O99 Mg98 2.028 . S
O99 C102 1.250 . S
O100 Mg101 2.028 . S
O100 C102 1.248 . S
Mg101 O100 2.028 . S
Mg101 O106 2.032 . S
Mg101 O108 2.079 . S
C102 O99 1.250 . S
C102 O100 1.248 . S
C103 O104 1.264 . S
C103 O111 1.249 . S
O104 C103 1.264 . S
O105 Mg98 1.986 . S
O105 C109 1.246 . S
O106 Mg101 2.032 . S
O106 C109 1.259 . S
O107 Mg98 2.114 . S
O107 C110 1.252 . S
O108 Mg98 2.251 . S
O108 Mg101 2.079 . S
O108 C110 1.273 . S
C109 O105 1.246 . S
C109 O106 1.259 . S
C110 O107 1.252 . S
C110 O108 1.273 . S
O111 Mg98 2.010 . S
O111 C103 1.249 . S
Mg112 O113 2.028 . S
Mg112 O119 1.986 . S
Mg112 O121 2.114 . S
Mg112 O122 2.251 . S
Mg112 O125 2.010 . S
O113 Mg112 2.028 . S
O113 C116 1.250 . S
O114 Mg115 2.028 . S
O114 C116 1.248 . S
Mg115 O114 2.028 . S
Mg115 O120 2.032 . S
Mg115 O122 2.079 . S
C116 O113 1.250 . S
C116 O114 1.248 . S
C117 O118 1.264 . S
C117 O125 1.249 . S
O118 C117 1.264 . S
O119 Mg112 1.986 . S
O119 C123 1.246 . S
O120 Mg115 2.032 . S
O120 C123 1.259 . S
O121 Mg112 2.114 . S
O121 C124 1.252 . S
O122 Mg112 2.251 . S
O122 Mg115 2.079 . S
O122 C124 1.273 . S
C123 O119 1.246 . S
C123 O120 1.259 . S
C124 O121 1.252 . S
C124 O122 1.273 . S
O125 Mg112 2.010 . S
O125 C117 1.249 . S
Mg126 O127 2.028 . S
Mg126 O133 1.986 . S
Mg126 O135 2.114 . S
Mg126 O136 2.251 . S
Mg126 O139 2.010 . S
O127 Mg126 2.028 . S
O127 C130 1.250 . S
O128 Mg129 2.028 . S
O128 C130 1.248 . S
Mg129 O128 2.028 . S
Mg129 O134 2.032 . S
Mg129 O136 2.079 . S
C130 O127 1.250 . S
C130 O128 1.248 . S
C131 O132 1.264 . S
C131 O139 1.249 . S
O132 C131 1.264 . S
O133 Mg126 1.986 . S
O133 C137 1.246 . S
O134 Mg129 2.032 . S
O134 C137 1.259 . S
O135 Mg126 2.114 . S
O135 C138 1.252 . S
O136 Mg126 2.251 . S
O136 Mg129 2.079 . S
O136 C138 1.273 . S
C137 O133 1.246 . S
C137 O134 1.259 . S
C138 O135 1.252 . S
C138 O136 1.273 . S
O139 Mg126 2.010 . S
O139 C131 1.249 . S
Mg140 O141 2.028 . S
Mg140 O147 1.986 . S
Mg140 O149 2.114 . S
Mg140 O150 2.251 . S
Mg140 O153 2.010 . S
O141 Mg140 2.028 . S
O141 C144 1.250 . S
O142 Mg143 2.028 . S
O142 C144 1.248 . S
Mg143 O142 2.028 . S
Mg143 O148 2.032 . S
Mg143 O150 2.079 . S
C144 O141 1.250 . S
C144 O142 1.248 . S
C145 O146 1.264 . S
C145 O153 1.249 . S
O146 C145 1.264 . S
O147 Mg140 1.986 . S
O147 C151 1.246 . S
O148 Mg143 2.032 . S
O148 C151 1.259 . S
O149 Mg140 2.114 . S
O149 C152 1.252 . S
O150 Mg140 2.251 . S
O150 Mg143 2.079 . S
O150 C152 1.273 . S
C151 O147 1.246 . S
C151 O148 1.259 . S
C152 O149 1.252 . S
C152 O150 1.273 . S
O153 Mg140 2.010 . S
O153 C145 1.249 . S
Mg154 O155 2.028 . S
Mg154 O161 1.986 . S
Mg154 O163 2.114 . S
Mg154 O164 2.251 . S
Mg154 O167 2.010 . S
O155 Mg154 2.028 . S
O155 C158 1.250 . S
O156 Mg157 2.028 . S
O156 C158 1.248 . S
Mg157 O156 2.028 . S
Mg157 O162 2.032 . S
Mg157 O164 2.079 . S
C158 O155 1.250 . S
C158 O156 1.248 . S
C159 O160 1.264 . S
C159 O167 1.249 . S
O160 C159 1.264 . S
O161 Mg154 1.986 . S
O161 C165 1.246 . S
O162 Mg157 2.032 . S
O162 C165 1.259 . S
O163 Mg154 2.114 . S
O163 C166 1.252 . S
O164 Mg154 2.251 . S
O164 Mg157 2.079 . S
O164 C166 1.273 . S
C165 O161 1.246 . S
C165 O162 1.259 . S
C166 O163 1.252 . S
C166 O164 1.273 . S
O167 Mg154 2.010 . S
O167 C159 1.249 . S
Mg168 O169 2.028 . S
Mg168 O175 1.986 . S
Mg168 O177 2.114 . S
Mg168 O178 2.251 . S
Mg168 O181 2.010 . S
O169 Mg168 2.028 . S
O169 C172 1.250 . S
O170 Mg171 2.028 . S
O170 C172 1.248 . S
Mg171 O170 2.028 . S
Mg171 O176 2.032 . S
Mg171 O178 2.079 . S
C172 O169 1.250 . S
C172 O170 1.248 . S
C173 O174 1.264 . S
C173 O181 1.249 . S
O174 C173 1.264 . S
O175 Mg168 1.986 . S
O175 C179 1.246 . S
O176 Mg171 2.032 . S
O176 C179 1.259 . S
O177 Mg168 2.114 . S
O177 C180 1.252 . S
O178 Mg168 2.251 . S
O178 Mg171 2.079 . S
O178 C180 1.273 . S
C179 O175 1.246 . S
C179 O176 1.259 . S
C180 O177 1.252 . S
C180 O178 1.273 . S
O181 Mg168 2.010 . S
O181 C173 1.249 . S
Mg182 O183 2.028 . S
Mg182 O189 1.986 . S
Mg182 O191 2.114 . S
Mg182 O192 2.251 . S
Mg182 O195 2.010 . S
O183 Mg182 2.028 . S
O183 C186 1.250 . S
O184 Mg185 2.028 . S
O184 C186 1.248 . S
Mg185 O184 2.028 . S
Mg185 O190 2.032 . S
Mg185 O192 2.079 . S
C186 O183 1.250 . S
C186 O184 1.248 . S
C187 O188 1.264 . S
C187 O195 1.249 . S
O188 C187 1.264 . S
O189 Mg182 1.986 . S
O189 C193 1.246 . S
O190 Mg185 2.032 . S
O190 C193 1.259 . S
O191 Mg182 2.114 . S
O191 C194 1.252 . S
O192 Mg182 2.251 . S
O192 Mg185 2.079 . S
O192 C194 1.273 . S
C193 O189 1.246 . S
C193 O190 1.259 . S
C194 O191 1.252 . S
C194 O192 1.273 . S
O195 Mg182 2.010 . S
O195 C187 1.249 . S
Mg196 O197 2.028 . S
Mg196 O203 1.986 . S
Mg196 O205 2.114 . S
Mg196 O206 2.251 . S
Mg196 O209 2.010 . S
O197 Mg196 2.028 . S
O197 C200 1.250 . S
O198 Mg199 2.028 . S
O198 C200 1.248 . S
Mg199 O198 2.028 . S
Mg199 O204 2.032 . S
Mg199 O206 2.079 . S
C200 O197 1.250 . S
C200 O198 1.248 . S
C201 O202 1.264 . S
C201 O209 1.249 . S
O202 C201 1.264 . S
O203 Mg196 1.986 . S
O203 C207 1.246 . S
O204 Mg199 2.032 . S
O204 C207 1.259 . S
O205 Mg196 2.114 . S
O205 C208 1.252 . S
O206 Mg196 2.251 . S
O206 Mg199 2.079 . S
O206 C208 1.273 . S
C207 O203 1.246 . S
C207 O204 1.259 . S
C208 O205 1.252 . S
C208 O206 1.273 . S
O209 Mg196 2.010 . S
O209 C201 1.249 . S
Mg210 O211 2.028 . S
Mg210 O217 1.986 . S
Mg210 O219 2.114 . S
Mg210 O220 2.251 . S
Mg210 O223 2.010 . S
O211 Mg210 2.028 . S
O211 C214 1.250 . S
O212 Mg213 2.028 . S
O212 C214 1.248 . S
Mg213 O212 2.028 . S
Mg213 O218 2.032 . S
Mg213 O220 2.079 . S
C214 O211 1.250 . S
C214 O212 1.248 . S
C215 O216 1.264 . S
C215 O223 1.249 . S
O216 C215 1.264 . S
O217 Mg210 1.986 . S
O217 C221 1.246 . S
O218 Mg213 2.032 . S
O218 C221 1.259 . S
O219 Mg210 2.114 . S
O219 C222 1.252 . S
O220 Mg210 2.251 . S
O220 Mg213 2.079 . S
O220 C222 1.273 . S
C221 O217 1.246 . S
C221 O218 1.259 . S
C222 O219 1.252 . S
C222 O220 1.273 . S
O223 Mg210 2.010 . S
O223 C215 1.249 . S
H224 C230 0.930 . S
H225 C234 0.930 . S
H226 C239 0.929 . S
H227 C237 0.929 . S
H228 C232 0.929 . S
H229 C238 0.929 . S
C230 H224 0.930 . S
C230 C231 1.367 . S
C230 C238 1.378 . S
C231 C230 1.367 . S
C231 C239 1.433 . S
C232 H228 0.929 . S
C232 C234 1.378 . S
C232 C236 1.350 . S
C233 C236 1.463 . S
C233 C238 1.350 . S
C233 N241 1.427 . S
C234 H225 0.930 . S
C234 C232 1.378 . S
C234 C235 1.367 . S
C235 C234 1.367 . S
C235 C237 1.433 . S
C236 C232 1.350 . S
C236 C233 1.463 . S
C236 N240 1.427 . S
C237 H227 0.929 . S
C237 C235 1.433 . S
C237 N240 1.384 . S
C238 H229 0.929 . S
C238 C230 1.378 . S
C238 C233 1.350 . S
C239 H226 0.929 . S
C239 C231 1.433 . S
C239 N241 1.384 . S
N240 C236 1.427 . S
N240 C237 1.384 . S
N241 C233 1.427 . S
N241 C239 1.384 . S
H242 C248 0.930 . S
H243 C252 0.930 . S
H244 C257 0.929 . S
H245 C255 0.929 . S
H246 C250 0.929 . S
H247 C256 0.929 . S
C248 H242 0.930 . S
C248 C249 1.367 . S
C248 C256 1.378 . S
C249 C248 1.367 . S
C249 C257 1.433 . S
C250 H246 0.929 . S
C250 C252 1.378 . S
C250 C254 1.350 . S
C251 C254 1.463 . S
C251 C256 1.350 . S
C251 N259 1.427 . S
C252 H243 0.930 . S
C252 C250 1.378 . S
C252 C253 1.367 . S
C253 C252 1.367 . S
C253 C255 1.433 . S
C254 C250 1.350 . S
C254 C251 1.463 . S
C254 N258 1.427 . S
C255 H245 0.929 . S
C255 C253 1.433 . S
C255 N258 1.384 . S
C256 H247 0.929 . S
C256 C248 1.378 . S
C256 C251 1.350 . S
C257 H244 0.929 . S
C257 C249 1.433 . S
C257 N259 1.384 . S
N258 C254 1.427 . S
N258 C255 1.384 . S
N259 C251 1.427 . S
N259 C257 1.384 . S
H260 C266 0.930 . S
H261 C270 0.930 . S
H262 C275 0.929 . S
H263 C273 0.929 . S
H264 C268 0.929 . S
H265 C274 0.929 . S
C266 H260 0.930 . S
C266 C267 1.367 . S
C266 C274 1.378 . S
C267 C266 1.367 . S
C267 C275 1.433 . S
C268 H264 0.929 . S
C268 C270 1.378 . S
C268 C272 1.350 . S
C269 C272 1.463 . S
C269 C274 1.350 . S
C269 N277 1.427 . S
C270 H261 0.930 . S
C270 C268 1.378 . S
C270 C271 1.367 . S
C271 C270 1.367 . S
C271 C273 1.433 . S
C272 C268 1.350 . S
C272 C269 1.463 . S
C272 N276 1.427 . S
C273 H263 0.929 . S
C273 C271 1.433 . S
C273 N276 1.384 . S
C274 H265 0.929 . S
C274 C266 1.378 . S
C274 C269 1.350 . S
C275 H262 0.929 . S
C275 C267 1.433 . S
C275 N277 1.384 . S
N276 C272 1.427 . S
N276 C273 1.384 . S
N277 C269 1.427 . S
N277 C275 1.384 . S
H278 C284 0.930 . S
H279 C288 0.930 . S
H280 C293 0.929 . S
H281 C291 0.929 . S
H282 C286 0.929 . S
H283 C292 0.929 . S
C284 H278 0.930 . S
C284 C285 1.367 . S
C284 C292 1.378 . S
C285 C284 1.367 . S
C285 C293 1.433 . S
C286 H282 0.929 . S
C286 C288 1.378 . S
C286 C290 1.350 . S
C287 C290 1.463 . S
C287 C292 1.350 . S
C287 N295 1.427 . S
C288 H279 0.930 . S
C288 C286 1.378 . S
C288 C289 1.367 . S
C289 C288 1.367 . S
C289 C291 1.433 . S
C290 C286 1.350 . S
C290 C287 1.463 . S
C290 N294 1.427 . S
C291 H281 0.929 . S
C291 C289 1.433 . S
C291 N294 1.384 . S
C292 H283 0.929 . S
C292 C284 1.378 . S
C292 C287 1.350 . S
C293 H280 0.929 . S
C293 C285 1.433 . S
C293 N295 1.384 . S
N294 C290 1.427 . S
N294 C291 1.384 . S
N295 C287 1.427 . S
N295 C293 1.384 . S
H296 C302 0.930 . S
H297 C306 0.930 . S
H298 C311 0.929 . S
H299 C309 0.929 . S
H300 C304 0.929 . S
H301 C310 0.929 . S
C302 H296 0.930 . S
C302 C303 1.367 . S
C302 C310 1.378 . S
C303 C302 1.367 . S
C303 C311 1.433 . S
C304 H300 0.929 . S
C304 C306 1.378 . S
C304 C308 1.350 . S
C305 C308 1.463 . S
C305 C310 1.350 . S
C305 N313 1.427 . S
C306 H297 0.930 . S
C306 C304 1.378 . S
C306 C307 1.367 . S
C307 C306 1.367 . S
C307 C309 1.433 . S
C308 C304 1.350 . S
C308 C305 1.463 . S
C308 N312 1.427 . S
C309 H299 0.929 . S
C309 C307 1.433 . S
C309 N312 1.384 . S
C310 H301 0.929 . S
C310 C302 1.378 . S
C310 C305 1.350 . S
C311 H298 0.929 . S
C311 C303 1.433 . S
C311 N313 1.384 . S
N312 C308 1.427 . S
N312 C309 1.384 . S
N313 C305 1.427 . S
N313 C311 1.384 . S
H314 C320 0.930 . S
H315 C324 0.930 . S
H316 C329 0.929 . S
H317 C327 0.929 . S
H318 C322 0.929 . S
H319 C328 0.929 . S
C320 H314 0.930 . S
C320 C321 1.367 . S
C320 C328 1.378 . S
C321 C320 1.367 . S
C321 C329 1.433 . S
C322 H318 0.929 . S
C322 C324 1.378 . S
C322 C326 1.350 . S
C323 C326 1.463 . S
C323 C328 1.350 . S
C323 N331 1.427 . S
C324 H315 0.930 . S
C324 C322 1.378 . S
C324 C325 1.367 . S
C325 C324 1.367 . S
C325 C327 1.433 . S
C326 C322 1.350 . S
C326 C323 1.463 . S
C326 N330 1.427 . S
C327 H317 0.929 . S
C327 C325 1.433 . S
C327 N330 1.384 . S
C328 H319 0.929 . S
C328 C320 1.378 . S
C328 C323 1.350 . S
C329 H316 0.929 . S
C329 C321 1.433 . S
C329 N331 1.384 . S
N330 C326 1.427 . S
N330 C327 1.384 . S
N331 C323 1.427 . S
N331 C329 1.384 . S
H332 C338 0.930 . S
H333 C342 0.930 . S
H334 C347 0.929 . S
H335 C345 0.929 . S
H336 C340 0.929 . S
H337 C346 0.929 . S
C338 H332 0.930 . S
C338 C339 1.367 . S
C338 C346 1.378 . S
C339 C338 1.367 . S
C339 C347 1.433 . S
C340 H336 0.929 . S
C340 C342 1.378 . S
C340 C344 1.350 . S
C341 C344 1.463 . S
C341 C346 1.350 . S
C341 N349 1.427 . S
C342 H333 0.930 . S
C342 C340 1.378 . S
C342 C343 1.367 . S
C343 C342 1.367 . S
C343 C345 1.433 . S
C344 C340 1.350 . S
C344 C341 1.463 . S
C344 N348 1.427 . S
C345 H335 0.929 . S
C345 C343 1.433 . S
C345 N348 1.384 . S
C346 H337 0.929 . S
C346 C338 1.378 . S
C346 C341 1.350 . S
C347 H334 0.929 . S
C347 C339 1.433 . S
C347 N349 1.384 . S
N348 C344 1.427 . S
N348 C345 1.384 . S
N349 C341 1.427 . S
N349 C347 1.384 . S
H350 C356 0.930 . S
H351 C360 0.930 . S
H352 C365 0.929 . S
H353 C363 0.929 . S
H354 C358 0.929 . S
H355 C364 0.929 . S
C356 H350 0.930 . S
C356 C357 1.367 . S
C356 C364 1.378 . S
C357 C356 1.367 . S
C357 C365 1.433 . S
C358 H354 0.929 . S
C358 C360 1.378 . S
C358 C362 1.350 . S
C359 C362 1.463 . S
C359 C364 1.350 . S
C359 N367 1.427 . S
C360 H351 0.930 . S
C360 C358 1.378 . S
C360 C361 1.367 . S
C361 C360 1.367 . S
C361 C363 1.433 . S
C362 C358 1.350 . S
C362 C359 1.463 . S
C362 N366 1.427 . S
C363 H353 0.929 . S
C363 C361 1.433 . S
C363 N366 1.384 . S
C364 H355 0.929 . S
C364 C356 1.378 . S
C364 C359 1.350 . S
C365 H352 0.929 . S
C365 C357 1.433 . S
C365 N367 1.384 . S
N366 C362 1.427 . S
N366 C363 1.384 . S
N367 C359 1.427 . S
N367 C365 1.384 . S
H368 C374 0.930 . S
H369 C378 0.930 . S
H370 C383 0.929 . S
H371 C381 0.929 . S
H372 C376 0.929 . S
H373 C382 0.929 . S
C374 H368 0.930 . S
C374 C375 1.367 . S
C374 C382 1.378 . S
C375 C374 1.367 . S
C375 C383 1.433 . S
C376 H372 0.929 . S
C376 C378 1.378 . S
C376 C380 1.350 . S
C377 C380 1.463 1_556 S
C377 C382 1.350 . S
C377 N385 1.427 . S
C378 H369 0.930 . S
C378 C376 1.378 . S
C378 C379 1.367 . S
C379 C378 1.367 . S
C379 C381 1.433 . S
C380 C376 1.350 . S
C380 C377 1.463 1_554 S
C380 N384 1.427 . S
C381 H371 0.929 . S
C381 C379 1.433 . S
C381 N384 1.384 . S
C382 H373 0.929 . S
C382 C374 1.378 . S
C382 C377 1.350 . S
C383 H370 0.929 . S
C383 C375 1.433 . S
C383 N385 1.384 . S
N384 C380 1.427 . S
N384 C381 1.384 . S
N385 C377 1.427 . S
N385 C383 1.384 . S
H386 C392 0.930 . S
H387 C396 0.930 . S
H388 C401 0.929 . S
H389 C399 0.929 . S
H390 C394 0.929 . S
H391 C400 0.929 . S
C392 H386 0.930 . S
C392 C393 1.367 . S
C392 C400 1.378 . S
C393 C392 1.367 . S
C393 C401 1.433 . S
C394 H390 0.929 . S
C394 C396 1.378 . S
C394 C398 1.350 . S
C395 C398 1.463 1_556 S
C395 C400 1.350 . S
C395 N403 1.427 . S
C396 H387 0.930 . S
C396 C394 1.378 . S
C396 C397 1.367 . S
C397 C396 1.367 . S
C397 C399 1.433 . S
C398 C394 1.350 . S
C398 C395 1.463 1_554 S
C398 N402 1.427 . S
C399 H389 0.929 . S
C399 C397 1.433 . S
C399 N402 1.384 . S
C400 H391 0.929 . S
C400 C392 1.378 . S
C400 C395 1.350 . S
C401 H388 0.929 . S
C401 C393 1.433 . S
C401 N403 1.384 . S
N402 C398 1.427 . S
N402 C399 1.384 . S
N403 C395 1.427 . S
N403 C401 1.384 . S
H404 C410 0.930 . S
H405 C414 0.930 . S
H406 C419 0.929 . S
H407 C417 0.929 . S
H408 C412 0.929 . S
H409 C418 0.929 . S
C410 H404 0.930 . S
C410 C411 1.367 . S
C410 C418 1.378 . S
C411 C410 1.367 . S
C411 C419 1.433 . S
C412 H408 0.929 . S
C412 C414 1.378 . S
C412 C416 1.350 . S
C413 C416 1.463 1_556 S
C413 C418 1.350 . S
C413 N421 1.427 . S
C414 H405 0.930 . S
C414 C412 1.378 . S
C414 C415 1.367 . S
C415 C414 1.367 . S
C415 C417 1.433 . S
C416 C412 1.350 . S
C416 C413 1.463 1_554 S
C416 N420 1.427 . S
C417 H407 0.929 . S
C417 C415 1.433 . S
C417 N420 1.384 . S
C418 H409 0.929 . S
C418 C410 1.378 . S
C418 C413 1.350 . S
C419 H406 0.929 . S
C419 C411 1.433 . S
C419 N421 1.384 . S
N420 C416 1.427 . S
N420 C417 1.384 . S
N421 C413 1.427 . S
N421 C419 1.384 . S
H422 C428 0.930 . S
H423 C432 0.930 . S
H424 C437 0.929 . S
H425 C435 0.929 . S
H426 C430 0.929 . S
H427 C436 0.929 . S
C428 H422 0.930 . S
C428 C429 1.367 . S
C428 C436 1.378 . S
C429 C428 1.367 . S
C429 C437 1.433 . S
C430 H426 0.929 . S
C430 C432 1.378 . S
C430 C434 1.350 . S
C431 C434 1.463 1_554 S
C431 C436 1.350 . S
C431 N439 1.427 . S
C432 H423 0.930 . S
C432 C430 1.378 . S
C432 C433 1.367 . S
C433 C432 1.367 . S
C433 C435 1.433 . S
C434 C430 1.350 . S
C434 C431 1.463 1_556 S
C434 N438 1.427 . S
C435 H425 0.929 . S
C435 C433 1.433 . S
C435 N438 1.384 . S
C436 H427 0.929 . S
C436 C428 1.378 . S
C436 C431 1.350 . S
C437 H424 0.929 . S
C437 C429 1.433 . S
C437 N439 1.384 . S
N438 C434 1.427 . S
N438 C435 1.384 . S
N439 C431 1.427 . S
N439 C437 1.384 . S
H440 C446 0.930 . S
H441 C450 0.930 . S
H442 C455 0.929 . S
H443 C453 0.929 . S
H444 C448 0.929 . S
H445 C454 0.929 . S
C446 H440 0.930 . S
C446 C447 1.367 . S
C446 C454 1.378 . S
C447 C446 1.367 . S
C447 C455 1.433 . S
C448 H444 0.929 . S
C448 C450 1.378 . S
C448 C452 1.350 . S
C449 C452 1.463 . S
C449 C454 1.350 . S
C449 N457 1.427 . S
C450 H441 0.930 . S
C450 C448 1.378 . S
C450 C451 1.367 . S
C451 C450 1.367 . S
C451 C453 1.433 . S
C452 C448 1.350 . S
C452 C449 1.463 . S
C452 N456 1.427 . S
C453 H443 0.929 . S
C453 C451 1.433 . S
C453 N456 1.384 . S
C454 H445 0.929 . S
C454 C446 1.378 . S
C454 C449 1.350 . S
C455 H442 0.929 . S
C455 C447 1.433 . S
C455 N457 1.384 . S
N456 C452 1.427 . S
N456 C453 1.384 . S
N457 C449 1.427 . S
N457 C455 1.384 . S
H458 C464 0.930 . S
H459 C468 0.930 . S
H460 C473 0.929 . S
H461 C471 0.929 . S
H462 C466 0.929 . S
H463 C472 0.929 . S
C464 H458 0.930 . S
C464 C465 1.367 . S
C464 C472 1.378 . S
C465 C464 1.367 . S
C465 C473 1.433 . S
C466 H462 0.929 . S
C466 C468 1.378 . S
C466 C470 1.350 . S
C467 C470 1.463 . S
C467 C472 1.350 . S
C467 N475 1.427 . S
C468 H459 0.930 . S
C468 C466 1.378 . S
C468 C469 1.367 . S
C469 C468 1.367 . S
C469 C471 1.433 . S
C470 C466 1.350 . S
C470 C467 1.463 . S
C470 N474 1.427 . S
C471 H461 0.929 . S
C471 C469 1.433 . S
C471 N474 1.384 . S
C472 H463 0.929 . S
C472 C464 1.378 . S
C472 C467 1.350 . S
C473 H460 0.929 . S
C473 C465 1.433 . S
C473 N475 1.384 . S
N474 C470 1.427 . S
N474 C471 1.384 . S
N475 C467 1.427 . S
N475 C473 1.384 . S
H476 C482 0.930 . S
H477 C486 0.930 . S
H478 C491 0.929 . S
H479 C489 0.929 . S
H480 C484 0.929 . S
H481 C490 0.929 . S
C482 H476 0.930 . S
C482 C483 1.367 . S
C482 C490 1.378 . S
C483 C482 1.367 . S
C483 C491 1.433 . S
C484 H480 0.929 . S
C484 C486 1.378 . S
C484 C488 1.350 . S
C485 C488 1.463 . S
C485 C490 1.350 . S
C485 N493 1.427 . S
C486 H477 0.930 . S
C486 C484 1.378 . S
C486 C487 1.367 . S
C487 C486 1.367 . S
C487 C489 1.433 . S
C488 C484 1.350 . S
C488 C485 1.463 . S
C488 N492 1.427 . S
C489 H479 0.929 . S
C489 C487 1.433 . S
C489 N492 1.384 . S
C490 H481 0.929 . S
C490 C482 1.378 . S
C490 C485 1.350 . S
C491 H478 0.929 . S
C491 C483 1.433 . S
C491 N493 1.384 . S
N492 C488 1.427 . S
N492 C489 1.384 . S
N493 C485 1.427 . S
N493 C491 1.384 . S
H494 C500 0.930 . S
H495 C504 0.930 . S
H496 C509 0.929 . S
H497 C507 0.929 . S
H498 C502 0.929 . S
H499 C508 0.929 . S
C500 H494 0.930 . S
C500 C501 1.367 . S
C500 C508 1.378 . S
C501 C500 1.367 . S
C501 C509 1.433 . S
C502 H498 0.929 . S
C502 C504 1.378 . S
C502 C506 1.350 . S
C503 C506 1.463 . S
C503 C508 1.350 . S
C503 N511 1.427 . S
C504 H495 0.930 . S
C504 C502 1.378 . S
C504 C505 1.367 . S
C505 C504 1.367 . S
C505 C507 1.433 . S
C506 C502 1.350 . S
C506 C503 1.463 . S
C506 N510 1.427 . S
C507 H497 0.929 . S
C507 C505 1.433 . S
C507 N510 1.384 . S
C508 H499 0.929 . S
C508 C500 1.378 . S
C508 C503 1.350 . S
C509 H496 0.929 . S
C509 C501 1.433 . S
C509 N511 1.384 . S
N510 C506 1.427 . S
N510 C507 1.384 . S
N511 C503 1.427 . S
N511 C509 1.384 . S
H512 C518 0.930 . S
H513 C522 0.930 . S
H514 C527 0.929 . S
H515 C525 0.929 . S
H516 C520 0.929 . S
H517 C526 0.929 . S
C518 H512 0.930 . S
C518 C519 1.367 . S
C518 C526 1.378 . S
C519 C518 1.367 . S
C519 C527 1.433 . S
C520 H516 0.929 . S
C520 C522 1.378 . S
C520 C524 1.350 . S
C521 C524 1.463 . S
C521 C526 1.350 . S
C521 N529 1.427 . S
C522 H513 0.930 . S
C522 C520 1.378 . S
C522 C523 1.367 . S
C523 C522 1.367 . S
C523 C525 1.433 . S
C524 C520 1.350 . S
C524 C521 1.463 . S
C524 N528 1.427 . S
C525 H515 0.929 . S
C525 C523 1.433 . S
C525 N528 1.384 . S
C526 H517 0.929 . S
C526 C518 1.378 . S
C526 C521 1.350 . S
C527 H514 0.929 . S
C527 C519 1.433 . S
C527 N529 1.384 . S
N528 C524 1.427 . S
N528 C525 1.384 . S
N529 C521 1.427 . S
N529 C527 1.384 . S
H530 C536 0.930 . S
H531 C540 0.930 . S
H532 C545 0.929 . S
H533 C543 0.929 . S
H534 C538 0.929 . S
H535 C544 0.929 . S
C536 H530 0.930 . S
C536 C537 1.367 . S
C536 C544 1.378 . S
C537 C536 1.367 . S
C537 C545 1.433 . S
C538 H534 0.929 . S
C538 C540 1.378 . S
C538 C542 1.350 . S
C539 C542 1.463 . S
C539 C544 1.350 . S
C539 N547 1.427 . S
C540 H531 0.930 . S
C540 C538 1.378 . S
C540 C541 1.367 . S
C541 C540 1.367 . S
C541 C543 1.433 . S
C542 C538 1.350 . S
C542 C539 1.463 . S
C542 N546 1.427 . S
C543 H533 0.929 . S
C543 C541 1.433 . S
C543 N546 1.384 . S
C544 H535 0.929 . S
C544 C536 1.378 . S
C544 C539 1.350 . S
C545 H532 0.929 . S
C545 C537 1.433 . S
C545 N547 1.384 . S
N546 C542 1.427 . S
N546 C543 1.384 . S
N547 C539 1.427 . S
N547 C545 1.384 . S
H548 C554 0.930 . S
H549 C558 0.930 . S
H550 C563 0.929 . S
H551 C561 0.929 . S
H552 C556 0.929 . S
H553 C562 0.929 . S
C554 H548 0.930 . S
C554 C555 1.367 . S
C554 C562 1.378 . S
C555 C554 1.367 . S
C555 C563 1.433 . S
C556 H552 0.929 . S
C556 C558 1.378 . S
C556 C560 1.350 . S
C557 C560 1.463 . S
C557 C562 1.350 . S
C557 N565 1.427 . S
C558 H549 0.930 . S
C558 C556 1.378 . S
C558 C559 1.367 . S
C559 C558 1.367 . S
C559 C561 1.433 . S
C560 C556 1.350 . S
C560 C557 1.463 . S
C560 N564 1.427 . S
C561 H551 0.929 . S
C561 C559 1.433 . S
C561 N564 1.384 . S
C562 H553 0.929 . S
C562 C554 1.378 . S
C562 C557 1.350 . S
C563 H550 0.929 . S
C563 C555 1.433 . S
C563 N565 1.384 . S
N564 C560 1.427 . S
N564 C561 1.384 . S
N565 C557 1.427 . S
N565 C563 1.384 . S
H566 C572 0.930 . S
H567 C576 0.930 . S
H568 C581 0.929 . S
H569 C579 0.929 . S
H570 C574 0.929 . S
H571 C580 0.929 . S
C572 H566 0.930 . S
C572 C573 1.367 . S
C572 C580 1.378 . S
C573 C572 1.367 . S
C573 C581 1.433 . S
C574 H570 0.929 . S
C574 C576 1.378 . S
C574 C578 1.350 . S
C575 C578 1.463 . S
C575 C580 1.350 . S
C575 N583 1.427 . S
C576 H567 0.930 . S
C576 C574 1.378 . S
C576 C577 1.367 . S
C577 C576 1.367 . S
C577 C579 1.433 . S
C578 C574 1.350 . S
C578 C575 1.463 . S
C578 N582 1.427 . S
C579 H569 0.929 . S
C579 C577 1.433 . S
C579 N582 1.384 . S
C580 H571 0.929 . S
C580 C572 1.378 . S
C580 C575 1.350 . S
C581 H568 0.929 . S
C581 C573 1.433 . S
C581 N583 1.384 . S
N582 C578 1.427 . S
N582 C579 1.384 . S
N583 C575 1.427 . S
N583 C581 1.384 . S
H584 C590 0.930 . S
H585 C594 0.930 . S
H586 C599 0.929 . S
H587 C597 0.929 . S
H588 C592 0.929 . S
H589 C598 0.929 . S
C590 H584 0.930 . S
C590 C591 1.367 . S
C590 C598 1.378 . S
C591 C590 1.367 . S
C591 C599 1.433 . S
C592 H588 0.929 . S
C592 C594 1.378 . S
C592 C596 1.350 . S
C593 C596 1.463 . S
C593 C598 1.350 . S
C593 N601 1.427 . S
C594 H585 0.930 . S
C594 C592 1.378 . S
C594 C595 1.367 . S
C595 C594 1.367 . S
C595 C597 1.433 . S
C596 C592 1.350 . S
C596 C593 1.463 . S
C596 N600 1.427 . S
C597 H587 0.929 . S
C597 C595 1.433 . S
C597 N600 1.384 . S
C598 H589 0.929 . S
C598 C590 1.378 . S
C598 C593 1.350 . S
C599 H586 0.929 . S
C599 C591 1.433 . S
C599 N601 1.384 . S
N600 C596 1.427 . S
N600 C597 1.384 . S
N601 C593 1.427 . S
N601 C599 1.384 . S
H602 C608 0.930 . S
H603 C612 0.930 . S
H604 C617 0.929 . S
H605 C615 0.929 . S
H606 C610 0.929 . S
H607 C616 0.929 . S
C608 H602 0.930 . S
C608 C609 1.367 . S
C608 C616 1.378 . S
C609 C608 1.367 . S
C609 C617 1.433 . S
C610 H606 0.929 . S
C610 C612 1.378 . S
C610 C614 1.350 . S
C611 C614 1.463 . S
C611 C616 1.350 . S
C611 N619 1.427 . S
C612 H603 0.930 . S
C612 C610 1.378 . S
C612 C613 1.367 . S
C613 C612 1.367 . S
C613 C615 1.433 . S
C614 C610 1.350 . S
C614 C611 1.463 . S
C614 N618 1.427 . S
C615 H605 0.929 . S
C615 C613 1.433 . S
C615 N618 1.384 . S
C616 H607 0.929 . S
C616 C608 1.378 . S
C616 C611 1.350 . S
C617 H604 0.929 . S
C617 C609 1.433 . S
C617 N619 1.384 . S
N618 C614 1.427 . S
N618 C615 1.384 . S
N619 C611 1.427 . S
N619 C617 1.384 . S
H620 C626 0.930 . S
H621 C630 0.930 . S
H622 C635 0.929 . S
H623 C633 0.929 . S
H624 C628 0.929 . S
H625 C634 0.929 . S
C626 H620 0.930 . S
C626 C627 1.367 . S
C626 C634 1.378 . S
C627 C626 1.367 . S
C627 C635 1.433 . S
C628 H624 0.929 . S
C628 C630 1.378 . S
C628 C632 1.350 . S
C629 C632 1.463 . S
C629 C634 1.350 . S
C629 N637 1.427 . S
C630 H621 0.930 . S
C630 C628 1.378 . S
C630 C631 1.367 . S
C631 C630 1.367 . S
C631 C633 1.433 . S
C632 C628 1.350 . S
C632 C629 1.463 . S
C632 N636 1.427 . S
C633 H623 0.929 . S
C633 C631 1.433 . S
C633 N636 1.384 . S
C634 H625 0.929 . S
C634 C626 1.378 . S
C634 C629 1.350 . S
C635 H622 0.929 . S
C635 C627 1.433 . S
C635 N637 1.384 . S
N636 C632 1.427 . S
N636 C633 1.384 . S
N637 C629 1.427 . S
N637 C635 1.384 . S
H638 C644 0.930 . S
H639 C648 0.930 . S
H640 C653 0.929 . S
H641 C651 0.929 . S
H642 C646 0.929 . S
H643 C652 0.929 . S
C644 H638 0.930 . S
C644 C645 1.367 . S
C644 C652 1.378 . S
C645 C644 1.367 . S
C645 C653 1.433 . S
C646 H642 0.929 . S
C646 C648 1.378 . S
C646 C650 1.350 . S
C647 C650 1.463 . S
C647 C652 1.350 . S
C647 N655 1.427 . S
C648 H639 0.930 . S
C648 C646 1.378 . S
C648 C649 1.367 . S
C649 C648 1.367 . S
C649 C651 1.433 . S
C650 C646 1.350 . S
C650 C647 1.463 . S
C650 N654 1.427 . S
C651 H641 0.929 . S
C651 C649 1.433 . S
C651 N654 1.384 . S
C652 H643 0.929 . S
C652 C644 1.378 . S
C652 C647 1.350 . S
C653 H640 0.929 . S
C653 C645 1.433 . S
C653 N655 1.384 . S
N654 C650 1.427 . S
N654 C651 1.384 . S
N655 C647 1.427 . S
N655 C653 1.384 . S
H656 C662 0.930 . S
H657 C666 0.930 . S
H658 C671 0.929 . S
H659 C669 0.929 . S
H660 C664 0.929 . S
H661 C670 0.929 . S
C662 H656 0.930 . S
C662 C663 1.367 . S
C662 C670 1.378 . S
C663 C662 1.367 . S
C663 C671 1.433 . S
C664 H660 0.929 . S
C664 C666 1.378 . S
C664 C668 1.350 . S
C665 C668 1.463 1_545 S
C665 C670 1.350 . S
C665 N673 1.427 . S
C666 H657 0.930 . S
C666 C664 1.378 . S
C666 C667 1.367 . S
C667 C666 1.367 . S
C667 C669 1.433 . S
C668 C664 1.350 . S
C668 C665 1.463 1_565 S
C668 N672 1.427 . S
C669 H659 0.929 . S
C669 C667 1.433 . S
C669 N672 1.384 . S
C670 H661 0.929 . S
C670 C662 1.378 . S
C670 C665 1.350 . S
C671 H658 0.929 . S
C671 C663 1.433 . S
C671 N673 1.384 . S
N672 C668 1.427 . S
N672 C669 1.384 . S
N673 C665 1.427 . S
N673 C671 1.384 . S
H674 C680 0.930 . S
H675 C684 0.930 . S
H676 C689 0.929 . S
H677 C687 0.929 . S
H678 C682 0.929 . S
H679 C688 0.929 . S
C680 H674 0.930 . S
C680 C681 1.367 . S
C680 C688 1.378 . S
C681 C680 1.367 . S
C681 C689 1.433 . S
C682 H678 0.929 . S
C682 C684 1.378 . S
C682 C686 1.350 . S
C683 C686 1.463 1_655 S
C683 C688 1.350 . S
C683 N691 1.427 . S
C684 H675 0.930 . S
C684 C682 1.378 . S
C684 C685 1.367 . S
C685 C684 1.367 . S
C685 C687 1.433 . S
C686 C682 1.350 . S
C686 C683 1.463 1_455 S
C686 N690 1.427 . S
C687 H677 0.929 . S
C687 C685 1.433 . S
C687 N690 1.384 . S
C688 H679 0.929 . S
C688 C680 1.378 . S
C688 C683 1.350 . S
C689 H676 0.929 . S
C689 C681 1.433 . S
C689 N691 1.384 . S
N690 C686 1.427 . S
N690 C687 1.384 . S
N691 C683 1.427 . S
N691 C689 1.384 . S
H692 C698 0.930 . S
H693 C702 0.930 . S
H694 C707 0.929 . S
H695 C705 0.929 . S
H696 C700 0.929 . S
H697 C706 0.929 . S
C698 H692 0.930 . S
C698 C699 1.367 . S
C698 C706 1.378 . S
C699 C698 1.367 . S
C699 C707 1.433 . S
C700 H696 0.929 . S
C700 C702 1.378 . S
C700 C704 1.350 . S
C701 C704 1.463 1_545 S
C701 C706 1.350 . S
C701 N709 1.427 . S
C702 H693 0.930 . S
C702 C700 1.378 . S
C702 C703 1.367 . S
C703 C702 1.367 . S
C703 C705 1.433 . S
C704 C700 1.350 . S
C704 C701 1.463 1_565 S
C704 N708 1.427 . S
C705 H695 0.929 . S
C705 C703 1.433 . S
C705 N708 1.384 . S
C706 H697 0.929 . S
C706 C698 1.378 . S
C706 C701 1.350 . S
C707 H694 0.929 . S
C707 C699 1.433 . S
C707 N709 1.384 . S
N708 C704 1.427 . S
N708 C705 1.384 . S
N709 C701 1.427 . S
N709 C707 1.384 . S
H710 C716 0.930 . S
H711 C720 0.930 . S
H712 C725 0.929 . S
H713 C723 0.929 . S
H714 C718 0.929 . S
H715 C724 0.929 . S
C716 H710 0.930 . S
C716 C717 1.367 . S
C716 C724 1.378 . S
C717 C716 1.367 . S
C717 C725 1.433 . S
C718 H714 0.929 . S
C718 C720 1.378 . S
C718 C722 1.350 . S
C719 C722 1.463 1_455 S
C719 C724 1.350 . S
C719 N727 1.427 . S
C720 H711 0.930 . S
C720 C718 1.378 . S
C720 C721 1.367 . S
C721 C720 1.367 . S
C721 C723 1.433 . S
C722 C718 1.350 . S
C722 C719 1.463 1_655 S
C722 N726 1.427 . S
C723 H713 0.929 . S
C723 C721 1.433 . S
C723 N726 1.384 . S
C724 H715 0.929 . S
C724 C716 1.378 . S
C724 C719 1.350 . S
C725 H712 0.929 . S
C725 C717 1.433 . S
C725 N727 1.384 . S
N726 C722 1.427 . S
N726 C723 1.384 . S
N727 C719 1.427 . S
N727 C725 1.384 . S
H728 C734 0.930 . S
H729 C738 0.930 . S
H730 C743 0.929 . S
H731 C741 0.929 . S
H732 C736 0.929 . S
H733 C742 0.929 . S
C734 H728 0.930 . S
C734 C735 1.367 . S
C734 C742 1.378 . S
C735 C734 1.367 . S
C735 C743 1.433 . S
C736 H732 0.929 . S
C736 C738 1.378 . S
C736 C740 1.350 . S
C737 C740 1.463 1_545 S
C737 C742 1.350 . S
C737 N745 1.427 . S
C738 H729 0.930 . S
C738 C736 1.378 . S
C738 C739 1.367 . S
C739 C738 1.367 . S
C739 C741 1.433 . S
C740 C736 1.350 . S
C740 C737 1.463 1_565 S
C740 N744 1.427 . S
C741 H731 0.929 . S
C741 C739 1.433 . S
C741 N744 1.384 . S
C742 H733 0.929 . S
C742 C734 1.378 . S
C742 C737 1.350 . S
C743 H730 0.929 . S
C743 C735 1.433 . S
C743 N745 1.384 . S
N744 C740 1.427 . S
N744 C741 1.384 . S
N745 C737 1.427 . S
N745 C743 1.384 . S
H746 C752 0.930 . S
H747 C756 0.930 . S
H748 C761 0.929 . S
H749 C759 0.929 . S
H750 C754 0.929 . S
H751 C760 0.929 . S
C752 H746 0.930 . S
C752 C753 1.367 . S
C752 C760 1.378 . S
C753 C752 1.367 . S
C753 C761 1.433 . S
C754 H750 0.929 . S
C754 C756 1.378 . S
C754 C758 1.350 . S
C755 C758 1.463 1_655 S
C755 C760 1.350 . S
C755 N763 1.427 . S
C756 H747 0.930 . S
C756 C754 1.378 . S
C756 C757 1.367 . S
C757 C756 1.367 . S
C757 C759 1.433 . S
C758 C754 1.350 . S
C758 C755 1.463 1_455 S
C758 N762 1.427 . S
C759 H749 0.929 . S
C759 C757 1.433 . S
C759 N762 1.384 . S
C760 H751 0.929 . S
C760 C752 1.378 . S
C760 C755 1.350 . S
C761 H748 0.929 . S
C761 C753 1.433 . S
C761 N763 1.384 . S
N762 C758 1.427 . S
N762 C759 1.384 . S
N763 C755 1.427 . S
N763 C761 1.384 . S
H764 C770 0.930 . S
H765 C774 0.930 . S
H766 C779 0.929 . S
H767 C777 0.929 . S
H768 C772 0.929 . S
H769 C778 0.929 . S
C770 H764 0.930 . S
C770 C771 1.367 . S
C770 C778 1.378 . S
C771 C770 1.367 . S
C771 C779 1.433 . S
C772 H768 0.929 . S
C772 C774 1.378 . S
C772 C776 1.350 . S
C773 C776 1.463 1_565 S
C773 C778 1.350 . S
C773 N781 1.427 . S
C774 H765 0.930 . S
C774 C772 1.378 . S
C774 C775 1.367 . S
C775 C774 1.367 . S
C775 C777 1.433 . S
C776 C772 1.350 . S
C776 C773 1.463 1_545 S
C776 N780 1.427 . S
C777 H767 0.929 . S
C777 C775 1.433 . S
C777 N780 1.384 . S
C778 H769 0.929 . S
C778 C770 1.378 . S
C778 C773 1.350 . S
C779 H766 0.929 . S
C779 C771 1.433 . S
C779 N781 1.384 . S
N780 C776 1.427 . S
N780 C777 1.384 . S
N781 C773 1.427 . S
N781 C779 1.384 . S
H782 C788 0.930 . S
H783 C792 0.930 . S
H784 C797 0.929 . S
H785 C795 0.929 . S
H786 C790 0.929 . S
H787 C796 0.929 . S
C788 H782 0.930 . S
C788 C789 1.367 . S
C788 C796 1.378 . S
C789 C788 1.367 . S
C789 C797 1.433 . S
C790 H786 0.929 . S
C790 C792 1.378 . S
C790 C794 1.350 . S
C791 C794 1.463 1_455 S
C791 C796 1.350 . S
C791 N799 1.427 . S
C792 H783 0.930 . S
C792 C790 1.378 . S
C792 C793 1.367 . S
C793 C792 1.367 . S
C793 C795 1.433 . S
C794 C790 1.350 . S
C794 C791 1.463 1_655 S
C794 N798 1.427 . S
C795 H785 0.929 . S
C795 C793 1.433 . S
C795 N798 1.384 . S
C796 H787 0.929 . S
C796 C788 1.378 . S
C796 C791 1.350 . S
C797 H784 0.929 . S
C797 C789 1.433 . S
C797 N799 1.384 . S
N798 C794 1.427 . S
N798 C795 1.384 . S
N799 C791 1.427 . S
N799 C797 1.384 . S
C231 C81 1.206 . S
C235 C11 1.197 . S
C249 C95 1.200 . S
C253 C25 1.196 . S
C267 C39 1.196 . S
C271 C109 1.200 . S
C285 C53 1.200 . S
C289 C67 1.196 . S
C303 C193 1.206 . S
C307 C123 1.205 . S
C321 C207 1.200 . S
C325 C137 1.196 . S
C339 C151 1.196 . S
C343 C221 1.199 . S
C357 C165 1.203 . S
C361 C179 1.207 . S
C375 C152 1.527 . S
C379 C12 1.525 . S
C393 C166 1.529 . S
C397 C26 1.530 . S
C411 C124 1.526 . S
C415 C40 1.527 . S
C429 C54 1.527 . S
C433 C138 1.526 . S
C447 C208 1.526 . S
C451 C68 1.527 . S
C465 C222 1.524 . S
C469 C82 1.524 . S
C483 C96 1.530 . S
C487 C180 1.530 . S
C501 C194 1.524 . S
C505 C110 1.524 . S
C519 C61 1.089 . S
C523 C5 1.064 . S
C537 C19 1.067 . S
C541 C75 1.079 . S
C555 C33 1.064 . S
C559 C89 1.085 . S
C573 C103 1.097 . S
C577 C47 1.070 . S
C591 C116 1.603 . S
C595 C172 1.606 . S
C609 C186 1.604 . S
C613 C130 1.608 . S
C627 C144 1.603 . S
C631 C200 1.608 . S
C645 C214 1.606 . S
C649 C158 1.606 . S
C663 C159 1.094 . S
C667 C187 1.065 . S
C681 C117 1.065 . S
C685 C201 1.083 . S
C699 C215 1.085 . S
C703 C131 1.065 . S
C717 C145 1.089 . S
C721 C173 1.064 . S
C735 C74 1.607 . S
C739 C46 1.604 . S
C753 C88 1.603 . S
C757 C4 1.608 . S
C771 C102 1.604 . S
C775 C18 1.608 . S
C789 C60 1.606 . S
C793 C32 1.606 . S
