# Generated by pormake.
# Topology wlh, (5)-cn, num edge types: 1
# Building blocks:
#     Node 0, Type 0, BuildingBlock: XOMCOT_clean_sbu_0, # of connection points: 5
#     Node 1, Type 0, BuildingBlock: XOMCOT_clean_sbu_0, # of connection points: 5
#     Node 2, Type 0, BuildingBlock: XOMCOT_clean_sbu_0, # of connection points: 5
#     Node 3, Type 0, BuildingBlock: XOMCOT_clean_sbu_0, # of connection points: 5
#     Node 4, Type 0, BuildingBlock: XOMCOT_clean_sbu_0, # of connection points: 5
#     Node 5, Type 0, BuildingBlock: XOMCOT_clean_sbu_0, # of connection points: 5
#     Node 6, Type 0, BuildingBlock: XOMCOT_clean_sbu_0, # of connection points: 5
#     Node 7, Type 0, BuildingBlock: XOMCOT_clean_sbu_0, # of connection points: 5
#     Node 8, Type 0, BuildingBlock: XOMCOT_clean_sbu_0, # of connection points: 5
#     Node 9, Type 0, BuildingBlock: XOMCOT_clean_sbu_0, # of connection points: 5
#     Node 10, Type 0, BuildingBlock: XOMCOT_clean_sbu_0, # of connection points: 5
#     Node 11, Type 0, BuildingBlock: XOMCOT_clean_sbu_0, # of connection points: 5
#     Node 12, Type 0, BuildingBlock: XOMCOT_clean_sbu_0, # of connection points: 5
#     Node 13, Type 0, BuildingBlock: XOMCOT_clean_sbu_0, # of connection points: 5
#     Node 14, Type 0, BuildingBlock: XOMCOT_clean_sbu_0, # of connection points: 5
#     Node 15, Type 0, BuildingBlock: XOMCOT_clean_sbu_0, # of connection points: 5
#     Node 16, Type 0, BuildingBlock: XOMCOT_clean_sbu_0, # of connection points: 5
#     Node 17, Type 0, BuildingBlock: XOMCOT_clean_sbu_0, # of connection points: 5
#     Node 18, Type 0, BuildingBlock: XOMCOT_clean_sbu_0, # of connection points: 5
#     Node 19, Type 0, BuildingBlock: XOMCOT_clean_sbu_0, # of connection points: 5
#     Node 20, Type 0, BuildingBlock: XOMCOT_clean_sbu_0, # of connection points: 5
#     Node 21, Type 0, BuildingBlock: XOMCOT_clean_sbu_0, # of connection points: 5
#     Node 22, Type 0, BuildingBlock: XOMCOT_clean_sbu_0, # of connection points: 5
#     Node 23, Type 0, BuildingBlock: XOMCOT_clean_sbu_0, # of connection points: 5
#     Node 24, Type 0, BuildingBlock: XOMCOT_clean_sbu_0, # of connection points: 5
#     Node 25, Type 0, BuildingBlock: XOMCOT_clean_sbu_0, # of connection points: 5
#     Node 26, Type 0, BuildingBlock: XOMCOT_clean_sbu_0, # of connection points: 5
#     Node 27, Type 0, BuildingBlock: XOMCOT_clean_sbu_0, # of connection points: 5
#     Node 28, Type 0, BuildingBlock: XOMCOT_clean_sbu_0, # of connection points: 5
#     Node 29, Type 0, BuildingBlock: XOMCOT_clean_sbu_0, # of connection points: 5
#     Node 30, Type 0, BuildingBlock: XOMCOT_clean_sbu_0, # of connection points: 5
#     Node 31, Type 0, BuildingBlock: XOMCOT_clean_sbu_0, # of connection points: 5
#     Node 32, Type 0, BuildingBlock: XOMCOT_clean_sbu_0, # of connection points: 5
#     Node 33, Type 0, BuildingBlock: XOMCOT_clean_sbu_0, # of connection points: 5
#     Node 34, Type 0, BuildingBlock: XOMCOT_clean_sbu_0, # of connection points: 5
#     Node 35, Type 0, BuildingBlock: XOMCOT_clean_sbu_0, # of connection points: 5
#     Edge 36, Type (0, 0), BuildingBlock: CIFDUS_clean_linker_0, # of connection points: 2
#     Edge 37, Type (0, 0), BuildingBlock: CIFDUS_clean_linker_0, # of connection points: 2
#     Edge 38, Type (0, 0), BuildingBlock: CIFDUS_clean_linker_0, # of connection points: 2
#     Edge 39, Type (0, 0), BuildingBlock: CIFDUS_clean_linker_0, # of connection points: 2
#     Edge 40, Type (0, 0), BuildingBlock: CIFDUS_clean_linker_0, # of connection points: 2
#     Edge 41, Type (0, 0), BuildingBlock: CIFDUS_clean_linker_0, # of connection points: 2
#     Edge 42, Type (0, 0), BuildingBlock: CIFDUS_clean_linker_0, # of connection points: 2
#     Edge 43, Type (0, 0), BuildingBlock: CIFDUS_clean_linker_0, # of connection points: 2
#     Edge 44, Type (0, 0), BuildingBlock: CIFDUS_clean_linker_0, # of connection points: 2
#     Edge 45, Type (0, 0), BuildingBlock: CIFDUS_clean_linker_0, # of connection points: 2
#     Edge 46, Type (0, 0), BuildingBlock: CIFDUS_clean_linker_0, # of connection points: 2
#     Edge 47, Type (0, 0), BuildingBlock: CIFDUS_clean_linker_0, # of connection points: 2
#     Edge 48, Type (0, 0), BuildingBlock: CIFDUS_clean_linker_0, # of connection points: 2
#     Edge 49, Type (0, 0), BuildingBlock: CIFDUS_clean_linker_0, # of connection points: 2
#     Edge 50, Type (0, 0), BuildingBlock: CIFDUS_clean_linker_0, # of connection points: 2
#     Edge 51, Type (0, 0), BuildingBlock: CIFDUS_clean_linker_0, # of connection points: 2
#     Edge 52, Type (0, 0), BuildingBlock: CIFDUS_clean_linker_0, # of connection points: 2
#     Edge 53, Type (0, 0), BuildingBlock: CIFDUS_clean_linker_0, # of connection points: 2
#     Edge 54, Type (0, 0), BuildingBlock: CIFDUS_clean_linker_0, # of connection points: 2
#     Edge 55, Type (0, 0), BuildingBlock: CIFDUS_clean_linker_0, # of connection points: 2
#     Edge 56, Type (0, 0), BuildingBlock: CIFDUS_clean_linker_0, # of connection points: 2
#     Edge 57, Type (0, 0), BuildingBlock: CIFDUS_clean_linker_0, # of connection points: 2
#     Edge 58, Type (0, 0), BuildingBlock: CIFDUS_clean_linker_0, # of connection points: 2
#     Edge 59, Type (0, 0), BuildingBlock: CIFDUS_clean_linker_0, # of connection points: 2
#     Edge 60, Type (0, 0), BuildingBlock: CIFDUS_clean_linker_0, # of connection points: 2
#     Edge 61, Type (0, 0), BuildingBlock: CIFDUS_clean_linker_0, # of connection points: 2
#     Edge 62, Type (0, 0), BuildingBlock: CIFDUS_clean_linker_0, # of connection points: 2
#     Edge 63, Type (0, 0), BuildingBlock: CIFDUS_clean_linker_0, # of connection points: 2
#     Edge 64, Type (0, 0), BuildingBlock: CIFDUS_clean_linker_0, # of connection points: 2
#     Edge 65, Type (0, 0), BuildingBlock: CIFDUS_clean_linker_0, # of connection points: 2
#     Edge 66, Type (0, 0), BuildingBlock: CIFDUS_clean_linker_0, # of connection points: 2
#     Edge 67, Type (0, 0), BuildingBlock: CIFDUS_clean_linker_0, # of connection points: 2
#     Edge 68, Type (0, 0), BuildingBlock: CIFDUS_clean_linker_0, # of connection points: 2
#     Edge 69, Type (0, 0), BuildingBlock: CIFDUS_clean_linker_0, # of connection points: 2
#     Edge 70, Type (0, 0), BuildingBlock: CIFDUS_clean_linker_0, # of connection points: 2
#     Edge 71, Type (0, 0), BuildingBlock: CIFDUS_clean_linker_0, # of connection points: 2
#     Edge 72, Type (0, 0), BuildingBlock: CIFDUS_clean_linker_0, # of connection points: 2
#     Edge 73, Type (0, 0), BuildingBlock: CIFDUS_clean_linker_0, # of connection points: 2
#     Edge 74, Type (0, 0), BuildingBlock: CIFDUS_clean_linker_0, # of connection points: 2
#     Edge 75, Type (0, 0), BuildingBlock: CIFDUS_clean_linker_0, # of connection points: 2
#     Edge 76, Type (0, 0), BuildingBlock: CIFDUS_clean_linker_0, # of connection points: 2
#     Edge 77, Type (0, 0), BuildingBlock: CIFDUS_clean_linker_0, # of connection points: 2
#     Edge 78, Type (0, 0), BuildingBlock: CIFDUS_clean_linker_0, # of connection points: 2
#     Edge 79, Type (0, 0), BuildingBlock: CIFDUS_clean_linker_0, # of connection points: 2
#     Edge 80, Type (0, 0), BuildingBlock: CIFDUS_clean_linker_0, # of connection points: 2
#     Edge 81, Type (0, 0), BuildingBlock: CIFDUS_clean_linker_0, # of connection points: 2
#     Edge 82, Type (0, 0), BuildingBlock: CIFDUS_clean_linker_0, # of connection points: 2
#     Edge 83, Type (0, 0), BuildingBlock: CIFDUS_clean_linker_0, # of connection points: 2
#     Edge 84, Type (0, 0), BuildingBlock: CIFDUS_clean_linker_0, # of connection points: 2
#     Edge 85, Type (0, 0), BuildingBlock: CIFDUS_clean_linker_0, # of connection points: 2
#     Edge 86, Type (0, 0), BuildingBlock: CIFDUS_clean_linker_0, # of connection points: 2
#     Edge 87, Type (0, 0), BuildingBlock: CIFDUS_clean_linker_0, # of connection points: 2
#     Edge 88, Type (0, 0), BuildingBlock: CIFDUS_clean_linker_0, # of connection points: 2
#     Edge 89, Type (0, 0), BuildingBlock: CIFDUS_clean_linker_0, # of connection points: 2
#     Edge 90, Type (0, 0), BuildingBlock: CIFDUS_clean_linker_0, # of connection points: 2
#     Edge 91, Type (0, 0), BuildingBlock: CIFDUS_clean_linker_0, # of connection points: 2
#     Edge 92, Type (0, 0), BuildingBlock: CIFDUS_clean_linker_0, # of connection points: 2
#     Edge 93, Type (0, 0), BuildingBlock: CIFDUS_clean_linker_0, # of connection points: 2
#     Edge 94, Type (0, 0), BuildingBlock: CIFDUS_clean_linker_0, # of connection points: 2
#     Edge 95, Type (0, 0), BuildingBlock: CIFDUS_clean_linker_0, # of connection points: 2
#     Edge 96, Type (0, 0), BuildingBlock: CIFDUS_clean_linker_0, # of connection points: 2
#     Edge 97, Type (0, 0), BuildingBlock: CIFDUS_clean_linker_0, # of connection points: 2
#     Edge 98, Type (0, 0), BuildingBlock: CIFDUS_clean_linker_0, # of connection points: 2
#     Edge 99, Type (0, 0), BuildingBlock: CIFDUS_clean_linker_0, # of connection points: 2
#     Edge 100, Type (0, 0), BuildingBlock: CIFDUS_clean_linker_0, # of connection points: 2
#     Edge 101, Type (0, 0), BuildingBlock: CIFDUS_clean_linker_0, # of connection points: 2
#     Edge 102, Type (0, 0), BuildingBlock: CIFDUS_clean_linker_0, # of connection points: 2
#     Edge 103, Type (0, 0), BuildingBlock: CIFDUS_clean_linker_0, # of connection points: 2
#     Edge 104, Type (0, 0), BuildingBlock: CIFDUS_clean_linker_0, # of connection points: 2
#     Edge 105, Type (0, 0), BuildingBlock: CIFDUS_clean_linker_0, # of connection points: 2
#     Edge 106, Type (0, 0), BuildingBlock: CIFDUS_clean_linker_0, # of connection points: 2
#     Edge 107, Type (0, 0), BuildingBlock: CIFDUS_clean_linker_0, # of connection points: 2
#     Edge 108, Type (0, 0), BuildingBlock: CIFDUS_clean_linker_0, # of connection points: 2
#     Edge 109, Type (0, 0), BuildingBlock: CIFDUS_clean_linker_0, # of connection points: 2
#     Edge 110, Type (0, 0), BuildingBlock: CIFDUS_clean_linker_0, # of connection points: 2
#     Edge 111, Type (0, 0), BuildingBlock: CIFDUS_clean_linker_0, # of connection points: 2
#     Edge 112, Type (0, 0), BuildingBlock: CIFDUS_clean_linker_0, # of connection points: 2
#     Edge 113, Type (0, 0), BuildingBlock: CIFDUS_clean_linker_0, # of connection points: 2
#     Edge 114, Type (0, 0), BuildingBlock: CIFDUS_clean_linker_0, # of connection points: 2
#     Edge 115, Type (0, 0), BuildingBlock: CIFDUS_clean_linker_0, # of connection points: 2
#     Edge 116, Type (0, 0), BuildingBlock: CIFDUS_clean_linker_0, # of connection points: 2
#     Edge 117, Type (0, 0), BuildingBlock: CIFDUS_clean_linker_0, # of connection points: 2
#     Edge 118, Type (0, 0), BuildingBlock: CIFDUS_clean_linker_0, # of connection points: 2
#     Edge 119, Type (0, 0), BuildingBlock: CIFDUS_clean_linker_0, # of connection points: 2
#     Edge 120, Type (0, 0), BuildingBlock: CIFDUS_clean_linker_0, # of connection points: 2
#     Edge 121, Type (0, 0), BuildingBlock: CIFDUS_clean_linker_0, # of connection points: 2
#     Edge 122, Type (0, 0), BuildingBlock: CIFDUS_clean_linker_0, # of connection points: 2
#     Edge 123, Type (0, 0), BuildingBlock: CIFDUS_clean_linker_0, # of connection points: 2
#     Edge 124, Type (0, 0), BuildingBlock: CIFDUS_clean_linker_0, # of connection points: 2
#     Edge 125, Type (0, 0), BuildingBlock: CIFDUS_clean_linker_0, # of connection points: 2
# Relax obj value: 0.366
# Max RMSD: 0.248
# Mean RMSD: 0.248
data_MOF--net-wlh--node1-XOMCOT_clean_sbu_0--edge1-CIFDUS_clean_linker_0
_symmetry_space_group_name_H-M    P1
_symmetry_Int_Tables_number       1
_symmetry_cell_setting            triclinic
loop_
_symmetry_equiv_pos_as_xyz
'x, y, z'
_cell_length_a     35.292692
_cell_length_b     35.322685
_cell_length_c     135.13174
_cell_angle_alpha  89.931985
_cell_angle_beta   90.034395
_cell_angle_gamma 119.99966
loop_
_atom_site_label
_atom_site_type_symbol
_atom_site_fract_x
_atom_site_fract_y
_atom_site_fract_z
_atom_type_partial_charge
Co0 Co 0.08792 0.27879 0.19159 0.0
C1 C 0.05812 0.33864 0.18349 0.0
C2 C 0.02507 0.27489 0.17694 0.0
C3 C 0.01361 0.30129 0.17182 0.0
N4 N 0.05234 0.29779 0.18442 0.0
N5 N 0.03426 0.34123 0.17596 0.0
H6 H 0.0823 0.36689 0.18749 0.0
H7 H 0.01669 0.24212 0.17481 0.0
C8 C 0.99891 0.19949 0.19289 0.0
O9 O 0.98396 0.22541 0.19553 0.0
N10 N 0.12443 0.26055 0.19829 0.0
C11 C 0.15275 0.28227 0.20565 0.0
C12 C 0.17519 0.26091 0.20793 0.0
C13 C 0.13018 0.22654 0.19609 0.0
N14 N 0.16113 0.22595 0.2019 0.0
C15 C 0.0703 0.32347 0.20777 0.0
C16 C 0.03686 0.25217 0.22037 0.0
C17 C 0.03773 0.29017 0.22361 0.0
C18 C 0.05558 0.32659 0.21726 0.0
C19 C 0.05208 0.2506 0.21098 0.0
N20 N 0.0669 0.28517 0.20458 0.0
H21 H 0.08532 0.35211 0.20315 0.0
H22 H 0.05235 0.22122 0.20891 0.0
H23 H 0.15711 0.31193 0.20904 0.0
H24 H 0.11309 0.2037 0.19017 0.0
O25 O 0.13969 0.33606 0.18986 0.0
O26 O 0.11631 0.28067 0.17933 0.0
O27 O 0.03945 0.21562 0.19081 0.0
C28 C 0.14587 0.32024 0.18168 0.0
H29 H 0.99356 0.29257 0.16523 0.0
H30 H 0.19996 0.27047 0.21361 0.0
H31 H 0.02537 0.22388 0.22515 0.0
H32 H 0.05809 0.3571 0.21958 0.0
Co33 Co 0.75351 0.82596 0.19248 0.0
C34 C 0.68972 0.73283 0.1862 0.0
C35 C 0.72813 0.7751 0.17435 0.0
C36 C 0.69946 0.73498 0.17043 0.0
N37 N 0.72205 0.77417 0.18423 0.0
N38 N 0.67553 0.70858 0.17788 0.0
H39 H 0.67609 0.72031 0.19339 0.0
H40 H 0.75187 0.80333 0.17024 0.0
C41 C 0.81792 0.79785 0.18781 0.0
O42 O 0.78559 0.7575 0.18879 0.0
N43 N 0.78477 0.87872 0.20022 0.0
C44 C 0.77317 0.88589 0.20921 0.0
C45 C 0.79782 0.92975 0.21133 0.0
C46 C 0.81621 0.91823 0.19697 0.0
N47 N 0.82462 0.95009 0.2036 0.0
C48 C 0.70944 0.76735 0.20898 0.0
C49 C 0.78487 0.77762 0.21769 0.0
C50 C 0.74466 0.74953 0.22217 0.0
C51 C 0.70652 0.74512 0.21782 0.0
C52 C 0.78628 0.79932 0.20899 0.0
N53 N 0.7488 0.7922 0.20437 0.0
H54 H 0.6801 0.76505 0.2059 0.0
H55 H 0.81801 0.82336 0.20624 0.0
H56 H 0.74686 0.86143 0.21367 0.0
H57 H 0.83015 0.92397 0.18961 0.0
O58 O 0.70099 0.82998 0.19379 0.0
O59 O 0.74997 0.86021 0.18177 0.0
O60 O 0.81075 0.82978 0.18878 0.0
C61 C 0.71379 0.85381 0.18579 0.0
H62 H 0.6966 0.72567 0.16272 0.0
H63 H 0.79496 0.94571 0.21789 0.0
H64 H 0.81539 0.78425 0.22109 0.0
H65 H 0.67486 0.72497 0.22124 0.0
Co66 Co 0.2005 0.94281 0.1937 0.0
C67 C 0.29432 0.97295 0.18879 0.0
C68 C 0.27448 0.01862 0.18429 0.0
C69 C 0.31703 0.03466 0.18143 0.0
N70 N 0.26053 0.98087 0.18934 0.0
N71 N 0.32936 0.00599 0.18426 0.0
H72 H 0.29298 0.94315 0.19123 0.0
H73 H 0.25456 0.0327 0.18228 0.0
C74 C 0.21197 0.03085 0.19848 0.0
O75 O 0.24828 0.04041 0.20319 0.0
N76 N 0.14026 0.90512 0.19739 0.0
C77 C 0.12274 0.8672 0.20246 0.0
C78 C 0.07782 0.84864 0.20236 0.0
C79 C 0.10625 0.90916 0.19427 0.0
N80 N 0.06776 0.87525 0.19723 0.0
C81 C 0.24981 0.94528 0.21138 0.0
C82 C 0.20074 0.96447 0.22421 0.0
C83 C 0.23554 0.96069 0.22804 0.0
C84 C 0.26041 0.95107 0.2215 0.0
C85 C 0.19169 0.95905 0.21412 0.0
N86 N 0.21661 0.9506 0.20774 0.0
H87 H 0.26772 0.9356 0.20658 0.0
H88 H 0.16435 0.96183 0.21144 0.0
H89 H 0.14126 0.85361 0.20576 0.0
H90 H 0.1095 0.93544 0.18957 0.0
O91 O 0.20438 0.8911 0.19066 0.0
O92 O 0.18422 0.92609 0.18017 0.0
O93 O 0.18997 0.99401 0.19413 0.0
C94 C 0.18946 0.89277 0.18193 0.0
H95 H 0.33681 0.064 0.17714 0.0
H96 H 0.05439 0.81794 0.20575 0.0
H97 H 0.18057 0.97174 0.229 0.0
H98 H 0.2869 0.94679 0.22422 0.0
Co99 Co 0.26517 0.07936 0.31356 0.0
C100 C 0.32314 0.0527 0.32334 0.0
C101 C 0.25841 0.02066 0.32959 0.0
C102 C 0.28438 0.00996 0.33516 0.0
N103 N 0.28278 0.04753 0.32222 0.0
N104 N 0.32485 0.02999 0.3312 0.0
H105 H 0.35114 0.07451 0.31888 0.0
H106 H 0.22475 0.01134 0.33108 0.0
C107 C 0.1834 0.01303 0.30379 0.0
O108 O 0.19959 0.0365 0.29573 0.0
N109 N 0.24664 0.11254 0.30522 0.0
C110 C 0.26755 0.1408 0.29774 0.0
C111 C 0.24467 0.16131 0.29517 0.0
C112 C 0.21159 0.1173 0.30717 0.0
N113 N 0.20965 0.14701 0.30117 0.0
C114 C 0.32156 0.09152 0.29657 0.0
C115 C 0.27764 0.00453 0.29123 0.0
C116 C 0.30378 0.0356 0.28411 0.0
C117 C 0.32865 0.07946 0.28715 0.0
C118 C 0.27098 0.01836 0.30039 0.0
N119 N 0.28834 0.06185 0.30238 0.0
H120 H 0.341 0.12506 0.29896 0.0
H121 H 0.24938 0.99395 0.30562 0.0
H122 H 0.29836 0.14868 0.29452 0.0
H123 H 0.18928 0.10084 0.31322 0.0
O124 O 0.31648 0.13416 0.31754 0.0
O125 O 0.25178 0.10305 0.32492 0.0
O126 O 0.20539 0.02517 0.31186 0.0
C127 C 0.29163 0.13561 0.32452 0.0
H128 H 0.27476 0.99017 0.34181 0.0
H129 H 0.25414 0.1859 0.28946 0.0
H130 H 0.26046 0.96991 0.28957 0.0
H131 H 0.35133 0.1046 0.28217 0.0
Co132 Co 0.93086 0.19224 0.31278 0.0
C133 C 0.95437 0.28278 0.31889 0.0
C134 C 0.00736 0.27049 0.32107 0.0
C135 C 0.01987 0.31147 0.32458 0.0
N136 N 0.96686 0.25277 0.31711 0.0
N137 N 0.98657 0.31909 0.32323 0.0
H138 H 0.92207 0.27775 0.31737 0.0
H139 H 0.0258 0.25401 0.32213 0.0
C140 C 0.01947 0.20479 0.30734 0.0
O141 O 0.02792 0.2398 0.30221 0.0
N142 N 0.89513 0.13153 0.30911 0.0
C143 C 0.85747 0.11187 0.30391 0.0
C144 C 0.84461 0.06807 0.3029 0.0
C145 C 0.90414 0.09978 0.31134 0.0
N146 N 0.87441 0.06099 0.30751 0.0
C147 C 0.9345 0.24353 0.29542 0.0
C148 C 0.95056 0.19384 0.28208 0.0
C149 C 0.94858 0.23005 0.27858 0.0
C150 C 0.94057 0.25526 0.28535 0.0
C151 C 0.94526 0.18385 0.29214 0.0
N152 N 0.93795 0.2088 0.29876 0.0
H153 H 0.92665 0.26219 0.30045 0.0
H154 H 0.94778 0.15611 0.29461 0.0
H155 H 0.84126 0.12838 0.30087 0.0
H156 H 0.93222 0.10491 0.3156 0.0
O157 O 0.87775 0.19344 0.31585 0.0
O158 O 0.91463 0.17549 0.32632 0.0
O159 O 0.98383 0.18425 0.31224 0.0
C160 C 0.88043 0.17937 0.32461 0.0
H161 H 0.04999 0.33294 0.32845 0.0
H162 H 0.81672 0.04385 0.29876 0.0
H163 H 0.9567 0.17355 0.27708 0.0
H164 H 0.93805 0.28308 0.28287 0.0
Co165 Co 0.82285 0.73095 0.31123 0.0
C166 C 0.73262 0.67169 0.31953 0.0
C167 C 0.73888 0.72777 0.31185 0.0
C168 C 0.69596 0.70165 0.31444 0.0
N169 N 0.76223 0.7094 0.31502 0.0
N170 N 0.69175 0.66619 0.31919 0.0
H171 H 0.74014 0.64771 0.32247 0.0
H172 H 0.75146 0.75686 0.30735 0.0
C173 C 0.8612 0.83002 0.3082 0.0
O174 O 0.89729 0.83502 0.30424 0.0
N175 N 0.88332 0.75181 0.30746 0.0
C176 C 0.89746 0.73882 0.29961 0.0
C177 C 0.94244 0.76269 0.29937 0.0
C178 C 0.92 0.78083 0.31231 0.0
N179 N 0.95657 0.78975 0.30725 0.0
C180 C 0.76938 0.68117 0.29477 0.0
C181 C 0.80617 0.74781 0.28098 0.0
C182 C 0.76914 0.70848 0.27838 0.0
C183 C 0.75091 0.67447 0.28529 0.0
C184 C 0.8231 0.7533 0.29051 0.0
N185 N 0.80408 0.72081 0.2974 0.0
H186 H 0.75488 0.655 0.30014 0.0
H187 H 0.85166 0.78372 0.29223 0.0
H188 H 0.87658 0.71465 0.29425 0.0
H189 H 0.91968 0.79829 0.31886 0.0
O190 O 0.81906 0.67559 0.31428 0.0
O191 O 0.83905 0.73043 0.32484 0.0
O192 O 0.83051 0.79225 0.31094 0.0
C193 C 0.83425 0.69208 0.323 0.0
H194 H 0.66955 0.70779 0.31272 0.0
H195 H 0.96308 0.76154 0.29359 0.0
H196 H 0.82144 0.77448 0.27572 0.0
H197 H 0.72244 0.64342 0.28344 0.0
Co198 Co 0.93361 0.73957 0.81725 0.0
C199 C 0.95726 0.67474 0.82529 0.0
C200 C 0.99139 0.73756 0.83227 0.0
C201 C 1.00001 0.70932 0.83746 0.0
N202 N 0.96514 0.71638 0.82452 0.0
N203 N 0.97862 0.66996 0.83308 0.0
H204 H 0.93363 0.64765 0.82091 0.0
H205 H 1.00102 0.77057 0.83448 0.0
C206 C 0.02628 0.8153 0.81628 0.0
O207 O 0.04085 0.78832 0.81442 0.0
N208 N 0.9021 0.76371 0.81062 0.0
C209 C 0.87018 0.74492 0.80379 0.0
C210 C 0.85206 0.77134 0.80241 0.0
C211 C 0.90305 0.80086 0.8133 0.0
N212 N 0.87297 0.80645 0.8084 0.0
C213 C 0.9386 0.6879 0.80113 0.0
C214 C 0.98402 0.75763 0.78837 0.0
C215 C 0.97148 0.71556 0.78503 0.0
C216 C 0.94798 0.68023 0.79148 0.0
C217 C 0.9729 0.76366 0.7979 0.0
N218 N 0.95207 0.72939 0.80435 0.0
H219 H 0.91867 0.66028 0.80581 0.0
H220 H 0.97952 0.79596 0.79989 0.0
H221 H 0.85968 0.71352 0.80039 0.0
H222 H 0.92347 0.82197 0.81918 0.0
O223 O 0.8791 0.68493 0.81896 0.0
O224 O 0.90586 0.74075 0.82941 0.0
O225 O 0.98563 0.80054 0.81792 0.0
C226 C 0.87395 0.70226 0.827 0.0
H227 H 0.01882 0.71649 0.84423 0.0
H228 H 0.82507 0.76483 0.79755 0.0
H229 H 1.00038 0.78553 0.78346 0.0
H230 H 0.93635 0.64703 0.78902 0.0
Co231 Co 0.27083 0.18728 0.81326 0.0
C232 C 0.34026 0.272 0.82107 0.0
C233 C 0.2774 0.25222 0.82757 0.0
C234 C 0.30782 0.29091 0.83186 0.0
N235 N 0.29773 0.24062 0.8208 0.0
N236 N 0.347 0.30299 0.82776 0.0
H237 H 0.36567 0.27176 0.81664 0.0
H238 H 0.24304 0.23338 0.82942 0.0
C239 C 0.17846 0.15675 0.81622 0.0
O240 O 0.17806 0.12373 0.82079 0.0
N241 N 0.24223 0.13279 0.80579 0.0
C242 C 0.21649 0.12567 0.7978 0.0
C243 C 0.19178 0.08144 0.79613 0.0
C244 C 0.23283 0.09243 0.8088 0.0
N245 N 0.20214 0.06073 0.80306 0.0
C246 C 0.30581 0.20954 0.79336 0.0
C247 C 0.27779 0.26925 0.79045 0.0
C248 C 0.28989 0.25371 0.7822 0.0
C249 C 0.30644 0.22534 0.78378 0.0
C250 C 0.2772 0.25238 0.79979 0.0
N251 N 0.28833 0.22083 0.80104 0.0
H252 H 0.31547 0.18519 0.79445 0.0
H253 H 0.2646 0.26242 0.80592 0.0
H254 H 0.21265 0.15056 0.79402 0.0
H255 H 0.24423 0.08562 0.81563 0.0
O256 O 0.32107 0.17994 0.81582 0.0
O257 O 0.26252 0.1559 0.8254 0.0
O258 O 0.21438 0.18785 0.81291 0.0
C259 C 0.30069 0.15989 0.82391 0.0
H260 H 0.30197 0.30847 0.83766 0.0
H261 H 0.16564 0.06555 0.79078 0.0
H262 H 0.2659 0.29202 0.78959 0.0
H263 H 0.31638 0.21279 0.7776 0.0
Co264 Co 0.81089 0.06423 0.81389 0.0
C265 C 0.72443 0.05219 0.82097 0.0
C266 C 0.74993 0.0194 0.82975 0.0
C267 C 0.71412 0.01592 0.83449 0.0
N268 N 0.75619 0.04123 0.82114 0.0
N269 N 0.6982 0.03648 0.82899 0.0
H270 H 0.72243 0.07397 0.81565 0.0
H271 H 0.77177 0.00914 0.83275 0.0
C272 C 0.78171 0.9696 0.81568 0.0
O273 O 0.74253 0.96207 0.81318 0.0
N274 N 0.86684 0.08767 0.80748 0.0
C275 C 0.88342 0.11601 0.79986 0.0
C276 C 0.92656 0.12688 0.79855 0.0
C277 C 0.89954 0.08181 0.8107 0.0
N278 N 0.93629 0.10506 0.80537 0.0
C279 C 0.75235 0.04788 0.79699 0.0
C280 C 0.77992 0.99808 0.78681 0.0
C281 C 0.74719 0.0042 0.78259 0.0
C282 C 0.73394 0.03028 0.78769 0.0
C283 C 0.79749 0.01635 0.79594 0.0
N284 N 0.78255 0.03936 0.80119 0.0
H285 H 0.74311 0.06912 0.80062 0.0
H286 H 0.82375 0.0121 0.79877 0.0
H287 H 0.86578 0.12857 0.79574 0.0
H288 H 0.897 0.06237 0.81713 0.0
O289 O 0.81581 0.12113 0.81308 0.0
O290 O 0.84066 0.09837 0.82547 0.0
O291 O 0.81282 0.00898 0.81688 0.0
C292 C 0.83701 0.1299 0.82144 0.0
H293 H 0.7016 1.00092 0.84163 0.0
H294 H 0.94903 0.14926 0.79309 0.0
H295 H 0.79274 0.97997 0.78297 0.0
H296 H 0.70965 0.03696 0.78454 0.0
Co297 Co 0.74041 0.92287 0.69227 0.0
C298 C 0.67364 0.94559 0.6852 0.0
C299 C 0.73905 0.99637 0.68207 0.0
C300 C 0.71064 0.00883 0.6784 0.0
N301 N 0.71619 0.95754 0.68677 0.0
N302 N 0.66967 0.97691 0.68037 0.0
H303 H 0.64609 0.91433 0.68729 0.0
H304 H 0.77393 0.01382 0.68086 0.0
C305 C 0.81408 0.01302 0.69709 0.0
O306 O 0.78577 0.02193 0.70125 0.0
N307 N 0.76474 0.88812 0.69715 0.0
C308 C 0.74477 0.85193 0.70281 0.0
C309 C 0.77248 0.83522 0.70385 0.0
C310 C 0.80398 0.89289 0.69477 0.0
N311 N 0.80965 0.86108 0.6988 0.0
C312 C 0.68915 0.92827 0.70864 0.0
C313 C 0.75437 0.95206 0.72265 0.0
C314 C 0.71553 0.95067 0.72537 0.0
C315 C 0.68239 0.93822 0.71831 0.0
C316 C 0.76014 0.94285 0.71292 0.0
N317 N 0.72839 0.93248 0.70592 0.0
H318 H 0.6627 0.91708 0.70344 0.0
H319 H 0.79092 0.94519 0.71097 0.0
H320 H 0.71216 0.83838 0.70584 0.0
H321 H 0.82724 0.91823 0.68991 0.0
O322 O 0.68684 0.86906 0.68915 0.0
O323 O 0.74366 0.90448 0.67909 0.0
O324 O 0.80096 0.97603 0.69293 0.0
C325 C 0.70532 0.87054 0.68069 0.0
H326 H 0.71923 0.03816 0.67419 0.0
H327 H 0.76579 0.80631 0.70801 0.0
H328 H 0.78052 0.96116 0.72797 0.0
H329 H 0.65149 0.93582 0.72026 0.0
Co330 Co 0.08591 0.82251 0.69758 0.0
C331 C 0.05901 0.73101 0.69054 0.0
C332 C 0.05299 0.7718 0.67959 0.0
C333 C 0.04219 0.7326 0.67527 0.0
N334 N 0.06389 0.77123 0.68914 0.0
N335 N 0.04594 0.70707 0.68213 0.0
H336 H 0.06532 0.71936 0.69737 0.0
H337 H 0.05317 0.79921 0.67597 0.0
C338 C 0.99047 0.78989 0.69543 0.0
O339 O 0.98446 0.75022 0.69633 0.0
N340 N 0.10855 0.87471 0.70551 0.0
C341 C 0.1315 0.88329 0.71398 0.0
C342 C 0.1492 0.92698 0.71615 0.0
C343 C 0.11262 0.91309 0.70261 0.0
N344 N 0.13761 0.94574 0.70894 0.0
C345 C 0.08687 0.76814 0.7135 0.0
C346 C 0.02496 0.77331 0.72505 0.0
C347 C 0.0471 0.75323 0.72901 0.0
C348 C 0.07841 0.75061 0.72311 0.0
C349 C 0.03527 0.79146 0.7156 0.0
N350 N 0.06506 0.7879 0.70977 0.0
H351 H 0.11265 0.76786 0.70925 0.0
H352 H 0.02139 0.81122 0.71336 0.0
H353 H 0.13715 0.86011 0.71801 0.0
H354 H 0.1004 0.91761 0.69562 0.0
O355 O 0.14458 0.83057 0.69676 0.0
O356 O 0.11669 0.85842 0.68631 0.0
O357 O 0.0292 0.82292 0.69583 0.0
C358 C 0.15001 0.85463 0.68899 0.0
H359 H 0.03189 0.72327 0.66768 0.0
H360 H 0.17045 0.94392 0.72234 0.0
H361 H 0.00206 0.77785 0.72953 0.0
H362 H 0.09712 0.73639 0.72602 0.0
Co363 Co 0.18524 0.26576 0.69333 0.0
C364 C 0.27321 0.32632 0.68483 0.0
C365 C 0.24645 0.26085 0.67945 0.0
C366 C 0.28372 0.28741 0.67416 0.0
N367 N 0.2402 0.28485 0.68636 0.0
N368 N 0.30051 0.32835 0.6776 0.0
H369 H 0.27498 0.35501 0.68813 0.0
H370 H 0.22356 0.22704 0.67775 0.0
C371 C 0.19776 0.18916 0.69601 0.0
O372 O 0.23819 0.21704 0.69865 0.0
N373 N 0.12974 0.24712 0.69973 0.0
C374 C 0.12153 0.26899 0.70676 0.0
C375 C 0.07738 0.24683 0.70874 0.0
C376 C 0.09065 0.21233 0.69741 0.0
N377 N 0.0579 0.21127 0.70283 0.0
C378 C 0.2497 0.31229 0.70902 0.0
C379 C 0.20922 0.24532 0.72267 0.0
C380 C 0.24818 0.28276 0.72534 0.0
C381 C 0.26863 0.31666 0.7184 0.0
C382 C 0.19192 0.24205 0.71326 0.0
N383 N 0.2125 0.27467 0.70641 0.0
H384 H 0.26469 0.33944 0.70399 0.0
H385 H 0.16169 0.21268 0.71146 0.0
H386 H 0.14592 0.29927 0.71012 0.0
H387 H 0.08624 0.18929 0.69164 0.0
O388 O 0.18999 0.32222 0.69109 0.0
O389 O 0.15903 0.26555 0.68085 0.0
O390 O 0.17225 0.20316 0.69328 0.0
C391 C 0.16874 0.30538 0.68287 0.0
H392 H 0.296 0.27801 0.66784 0.0
H393 H 0.06099 0.25637 0.71411 0.0
H394 H 0.19227 0.2184 0.7278 0.0
H395 H 0.29829 0.3466 0.7203 0.0
Co396 Co 0.73182 0.59005 0.52406 0.0
C397 C 0.71411 0.66046 0.51715 0.0
C398 C 0.6696 0.59767 0.51103 0.0
C399 C 0.66014 0.62771 0.50704 0.0
N400 N 0.70219 0.61762 0.51773 0.0
N401 N 0.68807 0.66691 0.51091 0.0
H402 H 0.74247 0.68674 0.52072 0.0
H403 H 0.65478 0.56381 0.50883 0.0
C404 C 0.638 0.52298 0.52671 0.0
O405 O 0.63191 0.55499 0.52967 0.0
N406 N 0.76196 0.56222 0.52974 0.0
C407 C 0.79913 0.58117 0.53512 0.0
C408 C 0.8113 0.55036 0.53704 0.0
C409 C 0.7519 0.52038 0.52848 0.0
N410 N 0.78132 0.51236 0.53291 0.0
C411 C 0.72137 0.6383 0.54064 0.0
C412 C 0.6824 0.56586 0.55286 0.0
C413 C 0.68221 0.6037 0.55575 0.0
C414 C 0.70374 0.64103 0.54977 0.0
C415 C 0.70036 0.56465 0.54382 0.0
N416 N 0.71686 0.59949 0.53747 0.0
H417 H 0.73799 0.66719 0.53616 0.0
H418 H 0.69829 0.53424 0.54168 0.0
H419 H 0.81642 0.61507 0.53738 0.0
H420 H 0.72426 0.49649 0.52424 0.0
O421 O 0.7878 0.64264 0.5222 0.0
O422 O 0.75573 0.58859 0.51134 0.0
O423 O 0.67581 0.53134 0.52369 0.0
C424 C 0.78963 0.62584 0.51374 0.0
H425 H 0.63581 0.62168 0.50143 0.0
H426 H 0.83965 0.55527 0.54119 0.0
H427 H 0.66753 0.53678 0.55745 0.0
H428 H 0.70561 0.67141 0.55195 0.0
Co429 Co 0.40502 0.14201 0.52592 0.0
C430 C 0.34182 0.04809 0.51993 0.0
C431 C 0.39126 0.08584 0.50918 0.0
C432 C 0.36327 0.04582 0.50513 0.0
N433 N 0.37816 0.0876 0.51847 0.0
N434 N 0.33238 0.0222 0.51187 0.0
H435 H 0.32137 0.03868 0.52641 0.0
H436 H 0.41876 0.11266 0.50548 0.0
C437 C 0.47726 0.12189 0.52358 0.0
O438 O 0.4488 0.08087 0.5256 0.0
N439 N 0.43277 0.19733 0.53268 0.0
C440 C 0.4176 0.21008 0.54038 0.0
C441 C 0.44536 0.25426 0.54186 0.0
C442 C 0.46917 0.23339 0.5296 0.0
N443 N 0.4777 0.26865 0.53506 0.0
C444 C 0.36161 0.08686 0.54291 0.0
C445 C 0.43717 0.11162 0.55363 0.0
C446 C 0.39687 0.08315 0.55802 0.0
C447 C 0.35866 0.07039 0.55252 0.0
C448 C 0.43866 0.12673 0.54401 0.0
N449 N 0.40131 0.11338 0.53859 0.0
H450 H 0.33188 0.08023 0.53919 0.0
H451 H 0.47004 0.15125 0.54119 0.0
H452 H 0.38773 0.18914 0.54437 0.0
H453 H 0.4876 0.23429 0.52312 0.0
O454 O 0.35018 0.14202 0.52624 0.0
O455 O 0.39972 0.17128 0.51433 0.0
O456 O 0.46478 0.15012 0.52315 0.0
C457 C 0.36276 0.16432 0.51803 0.0
H458 H 0.36503 0.03497 0.49774 0.0
H459 H 0.44159 0.27438 0.54736 0.0
H460 H 0.46743 0.12319 0.5577 0.0
H461 H 0.32678 0.04984 0.5558 0.0
Co462 Co 0.8503 0.24847 0.52743 0.0
C463 C 0.94243 0.28149 0.52138 0.0
C464 C 0.91619 0.3199 0.5153 0.0
C465 C 0.95861 0.3372 0.51209 0.0
N466 N 0.90623 0.28534 0.5212 0.0
N467 N 0.97477 0.31295 0.51589 0.0
H468 H 0.94505 0.25637 0.5254 0.0
H469 H 0.89408 0.3315 0.51332 0.0
C470 C 0.81693 0.30829 0.53294 0.0
O471 O 0.80157 0.28574 0.54115 0.0
N472 N 0.79279 0.2103 0.53318 0.0
C473 C 0.78025 0.17496 0.53903 0.0
C474 C 0.73536 0.151 0.53932 0.0
C475 C 0.75487 0.20597 0.52968 0.0
N476 N 0.71937 0.17042 0.5334 0.0
C477 C 0.87726 0.24235 0.54764 0.0
C478 C 0.91181 0.33018 0.55165 0.0
C479 C 0.90462 0.30168 0.55955 0.0
C480 C 0.8895 0.25752 0.55739 0.0
C481 C 0.89911 0.31363 0.54213 0.0
N482 N 0.87796 0.26963 0.54038 0.0
H483 H 0.86695 0.20879 0.54601 0.0
H484 H 0.90452 0.33637 0.53621 0.0
H485 H 0.80131 0.16419 0.54214 0.0
H486 H 0.75343 0.22684 0.524 0.0
O487 O 0.85688 0.19753 0.52564 0.0
O488 O 0.8268 0.22215 0.51483 0.0
O489 O 0.83697 0.29776 0.52661 0.0
C490 C 0.83692 0.19265 0.51721 0.0
H491 H 0.97609 0.36493 0.5072 0.0
H492 H 0.7161 0.12052 0.54325 0.0
H493 H 0.92568 0.36494 0.55288 0.0
H494 H 0.88536 0.23461 0.5632 0.0
Co495 Co 0.93048 0.41714 0.64928 0.0
C496 C 0.99809 0.39605 0.65663 0.0
C497 C 0.93664 0.36109 0.66418 0.0
C498 C 0.96631 0.3535 0.66903 0.0
N499 N 0.95593 0.3869 0.65623 0.0
N500 N 0.00472 0.37537 0.66427 0.0
H501 H 0.0243 0.42026 0.65212 0.0
H502 H 0.90404 0.35114 0.66679 0.0
C503 C 0.85642 0.32514 0.64948 0.0
O504 O 0.8846 0.31327 0.64666 0.0
N505 N 0.90445 0.44788 0.64308 0.0
C506 C 0.92111 0.47953 0.63612 0.0
C507 C 0.89041 0.49194 0.63407 0.0
C508 C 0.86465 0.44186 0.64523 0.0
N509 N 0.85505 0.46782 0.63979 0.0
C510 C 0.97205 0.39928 0.63263 0.0
C511 C 0.89802 0.36226 0.62086 0.0
C512 C 0.93667 0.36619 0.61704 0.0
C513 C 0.97406 0.38476 0.62307 0.0
C514 C 0.89738 0.37684 0.63039 0.0
N515 N 0.93372 0.39423 0.6363 0.0
H516 H 1.00168 0.41591 0.63688 0.0
H517 H 0.86736 0.37462 0.63296 0.0
H518 H 0.95289 0.49217 0.63271 0.0
H519 H 0.84285 0.41878 0.65067 0.0
O520 O 0.98613 0.47063 0.64937 0.0
O521 O 0.93646 0.44936 0.6613 0.0
O522 O 0.86969 0.36533 0.65138 0.0
C523 C 0.97412 0.47913 0.65781 0.0
H524 H 0.96083 0.3352 0.67582 0.0
H525 H 0.89313 0.51553 0.62858 0.0
H526 H 0.86835 0.34825 0.61648 0.0
H527 H 0.00493 0.38949 0.6203 0.0
Co528 Co 0.57648 0.51952 0.64349 0.0
C529 C 0.60279 0.60413 0.65386 0.0
C530 C 0.65389 0.60671 0.64477 0.0
C531 C 0.66823 0.64747 0.64871 0.0
N532 N 0.61283 0.57943 0.64796 0.0
N533 N 0.63611 0.6459 0.6544 0.0
H534 H 0.57146 0.59247 0.65742 0.0
H535 H 0.67175 0.59798 0.63963 0.0
C536 C 0.63952 0.48478 0.64007 0.0
O537 O 0.60871 0.44891 0.636 0.0
N538 N 0.53907 0.45941 0.6392 0.0
C539 C 0.51359 0.44508 0.63107 0.0
C540 C 0.49361 0.40017 0.63075 0.0
C541 C 0.53127 0.42285 0.64412 0.0
N542 N 0.50529 0.38635 0.6389 0.0
C543 C 0.57972 0.57541 0.62756 0.0
C544 C 0.61058 0.54157 0.61331 0.0
C545 C 0.60696 0.57816 0.611 0.0
C546 C 0.59104 0.59514 0.61819 0.0
C547 C 0.59999 0.52366 0.62276 0.0
N548 N 0.58552 0.5409 0.62985 0.0
H549 H 0.56757 0.5887 0.63311 0.0
H550 H 0.60298 0.49553 0.62423 0.0
H551 H 0.51057 0.46575 0.62559 0.0
H552 H 0.54793 0.42327 0.65088 0.0
O553 O 0.52327 0.52011 0.64656 0.0
O554 O 0.55917 0.50041 0.65694 0.0
O555 O 0.63194 0.51487 0.64303 0.0
C556 C 0.52482 0.50396 0.65514 0.0
H557 H 0.6999 0.67615 0.64746 0.0
H558 H 0.47347 0.37939 0.62479 0.0
H559 H 0.62233 0.52734 0.60787 0.0
H560 H 0.58749 0.62326 0.61659 0.0
Co561 Co 0.48584 0.08 0.64788 0.0
C562 C 0.39678 0.02562 0.65641 0.0
C563 C 0.42541 0.09362 0.66019 0.0
C564 C 0.38427 0.07128 0.66427 0.0
N565 N 0.43303 0.06516 0.65516 0.0
N566 N 0.36656 0.02871 0.66194 0.0
H567 H 0.39231 0.99555 0.65322 0.0
H568 H 0.44809 0.1283 0.66083 0.0
C569 C 0.51026 0.16383 0.63779 0.0
O570 O 0.51984 0.14735 0.63011 0.0
N571 N 0.54066 0.09578 0.64113 0.0
C572 C 0.55229 0.0692 0.63653 0.0
C573 C 0.59693 0.09061 0.63544 0.0
C574 C 0.57911 0.13242 0.64313 0.0
N575 N 0.61403 0.13029 0.63971 0.0
C576 C 0.45324 0.0333 0.62897 0.0
C577 C 0.41309 0.08022 0.6236 0.0
C578 C 0.42243 0.0583 0.61623 0.0
C579 C 0.43987 0.03195 0.61912 0.0
C580 C 0.42678 0.08041 0.63329 0.0
N581 N 0.45136 0.06152 0.63559 0.0
H582 H 0.46609 0.01268 0.63114 0.0
H583 H 0.42134 0.09963 0.63871 0.0
H584 H 0.53136 0.0349 0.63512 0.0
H585 H 0.5815 0.15835 0.64781 0.0
O586 O 0.48297 0.02595 0.65219 0.0
O587 O 0.51656 0.08923 0.66015 0.0
O588 O 0.49684 0.14166 0.64581 0.0
C589 C 0.50744 0.04881 0.65961 0.0
H590 H 0.36852 0.0851 0.66867 0.0
H591 H 0.6153 0.07653 0.63232 0.0
H592 H 0.39795 0.0995 0.62177 0.0
H593 H 0.44568 0.01278 0.61372 0.0
Co594 Co 0.59534 0.07645 0.14518 0.0
C595 C 0.62872 0.01945 0.15264 0.0
C596 C 0.64747 0.07568 0.16184 0.0
C597 C 0.66055 0.04938 0.16638 0.0
N598 N 0.62747 0.057 0.15325 0.0
N599 N 0.64873 0.01416 0.16062 0.0
H600 H 0.61354 0.99563 0.14678 0.0
H601 H 0.6505 0.1053 0.16487 0.0
C602 C 0.65931 0.16904 0.15037 0.0
O603 O 0.63645 0.16488 0.15837 0.0
N604 N 0.56293 0.09732 0.13746 0.0
C605 C 0.53356 0.07768 0.13012 0.0
C606 C 0.51228 0.10084 0.1284 0.0
C607 C 0.55847 0.13171 0.14014 0.0
N608 N 0.52781 0.13469 0.13478 0.0
C609 C 0.58694 0.02595 0.12759 0.0
C610 C 0.67209 0.07806 0.12119 0.0
C611 C 0.64184 0.04629 0.11472 0.0
C612 C 0.59911 0.01878 0.11821 0.0
C613 C 0.65847 0.08419 0.13044 0.0
N614 N 0.61553 0.0606 0.13323 0.0
H615 H 0.55398 0.00455 0.13017 0.0
H616 H 0.68282 0.10865 0.13522 0.0
H617 H 0.52548 0.04721 0.12662 0.0
H618 H 0.57465 0.15197 0.14647 0.0
O619 O 0.54147 0.02212 0.14782 0.0
O620 O 0.56755 0.08202 0.15692 0.0
O621 O 0.64752 0.13683 0.14451 0.0
C622 C 0.53664 0.04204 0.15539 0.0
H623 H 0.67681 0.05518 0.17348 0.0
H624 H 0.4861 0.0922 0.12314 0.0
H625 H 0.7057 0.09957 0.11897 0.0
H626 H 0.57503 0.99258 0.11365 0.0
Co627 Co 0.93939 0.5421 0.14885 0.0
C628 C 0.01245 0.62598 0.15687 0.0
C629 C 0.95289 0.62784 0.15531 0.0
C630 C 0.98493 0.66788 0.15863 0.0
N631 N 0.96999 0.60144 0.15408 0.0
N632 N 0.02219 0.66665 0.15961 0.0
H633 H 0.03596 0.61485 0.15678 0.0
H634 H 0.91944 0.61919 0.1539 0.0
C635 C 0.85718 0.53209 0.15771 0.0
O636 O 0.87085 0.52816 0.16649 0.0
N637 N 0.90827 0.48274 0.14383 0.0
C638 C 0.9233 0.46226 0.13795 0.0
C639 C 0.89291 0.41826 0.13776 0.0
C640 C 0.86945 0.45074 0.14725 0.0
N641 N 0.85914 0.41109 0.14367 0.0
C642 C 0.97134 0.56136 0.12855 0.0
C643 C 0.92021 0.59674 0.123 0.0
C644 C 0.94247 0.58785 0.11564 0.0
C645 C 0.96994 0.5717 0.11854 0.0
C646 C 0.92219 0.58569 0.13278 0.0
N647 N 0.94542 0.56577 0.13544 0.0
H648 H 0.9922 0.54853 0.13069 0.0
H649 H 0.90365 0.59243 0.13808 0.0
H650 H 0.95527 0.47724 0.13459 0.0
H651 H 0.84994 0.456 0.1526 0.0
O652 O 0.99192 0.53752 0.14984 0.0
O653 O 0.9422 0.5189 0.16163 0.0
O654 O 0.88127 0.53909 0.15014 0.0
C655 C 0.97772 0.52025 0.15854 0.0
H656 H 0.98107 0.69571 0.16034 0.0
H657 H 0.89673 0.39324 0.13405 0.0
H658 H 0.89987 0.6107 0.12115 0.0
H659 H 0.98844 0.56515 0.1131 0.0
Co660 Co 0.49122 0.41368 0.1482 0.0
C661 C 0.40338 0.39298 0.15614 0.0
C662 C 0.43074 0.35817 0.16341 0.0
C663 C 0.3945 0.35135 0.1686 0.0
N664 N 0.43622 0.38362 0.15546 0.0
N665 N 0.37739 0.37322 0.16405 0.0
H666 H 0.40076 0.41685 0.15165 0.0
H667 H 0.45361 0.34809 0.16578 0.0
C668 C 0.47265 0.32148 0.14802 0.0
O669 O 0.43219 0.30976 0.14558 0.0
N670 N 0.54724 0.44418 0.14166 0.0
C671 C 0.55885 0.47089 0.13375 0.0
C672 C 0.60353 0.49012 0.13249 0.0
C673 C 0.58465 0.44779 0.14516 0.0
N674 N 0.61969 0.47575 0.13972 0.0
C675 C 0.43427 0.40455 0.13188 0.0
C676 C 0.46206 0.36114 0.11944 0.0
C677 C 0.43246 0.37317 0.11584 0.0
C678 C 0.41859 0.39528 0.12214 0.0
C679 C 0.47783 0.3721 0.12909 0.0
N680 N 0.46303 0.39239 0.13533 0.0
H681 H 0.4252 0.42377 0.13641 0.0
H682 H 0.50366 0.36603 0.13136 0.0
H683 H 0.53669 0.47707 0.12943 0.0
H684 H 0.58614 0.43093 0.15171 0.0
O685 O 0.48979 0.46732 0.14867 0.0
O686 O 0.51937 0.44541 0.16019 0.0
O687 O 0.5001 0.36168 0.1498 0.0
C688 C 0.51146 0.47552 0.15692 0.0
H689 H 0.38289 0.33362 0.17551 0.0
H690 H 0.6228 0.51415 0.12692 0.0
H691 H 0.47481 0.34556 0.11464 0.0
H692 H 0.39679 0.40633 0.11947 0.0
Co693 Co 0.4055 0.25844 0.02717 0.0
C694 C 0.34694 0.29306 0.02061 0.0
C695 C 0.40007 0.30788 0.01069 0.0
C696 C 0.37336 0.32091 0.00633 0.0
N697 N 0.38384 0.29058 0.01967 0.0
N698 N 0.34013 0.3116 0.01256 0.0
H699 H 0.32405 0.27945 0.02665 0.0
H700 H 0.42846 0.30904 0.00735 0.0
C701 C 0.48176 0.34893 0.02591 0.0
O702 O 0.45457 0.3633 0.02775 0.0
N703 N 0.42748 0.22575 0.03412 0.0
C704 C 0.41028 0.2003 0.04217 0.0
C705 C 0.43188 0.17734 0.04372 0.0
C706 C 0.45893 0.21793 0.03085 0.0
N707 N 0.4623 0.18832 0.03655 0.0
C708 C 0.35868 0.2662 0.04383 0.0
C709 C 0.43157 0.31587 0.05544 0.0
C710 C 0.39012 0.30087 0.05953 0.0
C711 C 0.35327 0.27564 0.05363 0.0
C712 C 0.43548 0.30463 0.04576 0.0
N713 N 0.39945 0.28128 0.0399 0.0
H714 H 0.32993 0.24432 0.03965 0.0
H715 H 0.46759 0.31237 0.0433 0.0
H716 H 0.38284 0.19726 0.04638 0.0
H717 H 0.47706 0.23173 0.02408 0.0
O718 O 0.34878 0.2061 0.02642 0.0
O719 O 0.4016 0.22638 0.0153 0.0
O720 O 0.46747 0.30786 0.02542 0.0
C721 C 0.36261 0.19748 0.01827 0.0
H722 H 0.3773 0.33508 0.99903 0.0
H723 H 0.425 0.15372 0.04954 0.0
H724 H 0.46074 0.33371 0.05992 0.0
H725 H 0.32064 0.2622 0.05667 0.0
Co726 Co 0.73573 0.14336 0.02459 0.0
C727 C 0.70676 0.04971 0.01962 0.0
C728 C 0.68283 0.08013 0.00961 0.0
C729 C 0.67102 0.03935 0.00602 0.0
N730 N 0.70486 0.08667 0.01819 0.0
N731 N 0.68597 0.02043 0.01234 0.0
H732 H 0.72492 0.04482 0.02539 0.0
H733 H 0.67734 0.10427 0.00598 0.0
C734 C 0.64278 0.12348 0.02436 0.0
O735 O 0.6307 0.08329 0.0271 0.0
N736 N 0.7666 0.20047 0.03047 0.0
C737 C 0.797 0.21422 0.03766 0.0
C738 C 0.81343 0.25838 0.03904 0.0
C739 C 0.76479 0.23595 0.02754 0.0
N740 N 0.79306 0.27182 0.03266 0.0
C741 C 0.72943 0.0921 0.04214 0.0
C742 C 0.67858 0.11678 0.05283 0.0
C743 C 0.6879 0.08606 0.05699 0.0
C744 C 0.7149 0.07469 0.05166 0.0
C745 C 0.69404 0.13351 0.04344 0.0
N746 N 0.71646 0.11887 0.03787 0.0
H747 H 0.75208 0.08506 0.03837 0.0
H748 H 0.6884 0.15902 0.04073 0.0
H749 H 0.80708 0.19378 0.04148 0.0
H750 H 0.74452 0.23585 0.02152 0.0
O751 O 0.7907 0.14339 0.02359 0.0
O752 O 0.76358 0.16828 0.01215 0.0
O753 O 0.68316 0.15091 0.02284 0.0
C754 C 0.79538 0.16238 0.01503 0.0
H755 H 0.65371 0.02499 0.99919 0.0
H756 H 0.83864 0.27905 0.04425 0.0
H757 H 0.66018 0.12865 0.05691 0.0
H758 H 0.72461 0.05257 0.05478 0.0
Co759 Co 0.85573 0.59452 0.02529 0.0
C760 C 0.94288 0.65984 0.01676 0.0
C761 C 0.91439 0.59647 0.01006 0.0
C762 C 0.9502 0.62466 0.0046 0.0
N763 N 0.90999 0.61798 0.01784 0.0
N764 N 0.96797 0.66435 0.0088 0.0
H765 H 0.9462 0.68718 0.02101 0.0
H766 H 0.89115 0.56314 0.00804 0.0
C767 C 0.87997 0.5259 0.02681 0.0
O768 O 0.91941 0.55797 0.02896 0.0
N769 N 0.80038 0.57118 0.03207 0.0
C770 C 0.7912 0.59085 0.03947 0.0
C771 C 0.74672 0.56884 0.04098 0.0
C772 C 0.76151 0.53772 0.02911 0.0
N773 N 0.72809 0.53565 0.03442 0.0
C774 C 0.9167 0.64506 0.04137 0.0
C775 C 0.88359 0.57485 0.05428 0.0
C776 C 0.91688 0.61534 0.05763 0.0
C777 C 0.93394 0.65085 0.05102 0.0
C778 C 0.8675 0.57056 0.04474 0.0
N779 N 0.88446 0.60493 0.03825 0.0
H780 H 0.92812 0.67314 0.03662 0.0
H781 H 0.84019 0.53925 0.04266 0.0
H782 H 0.815 0.62041 0.04317 0.0
H783 H 0.7576 0.5173 0.02279 0.0
O784 O 0.85477 0.64849 0.02341 0.0
O785 O 0.82684 0.59221 0.01305 0.0
O786 O 0.8494 0.53433 0.02488 0.0
C787 C 0.8333 0.63079 0.01527 0.0
H788 H 0.96132 0.61712 0.99781 0.0
H789 H 0.72934 0.57743 0.04629 0.0
H790 H 0.86929 0.54649 0.0591 0.0
H791 H 0.95903 0.68301 0.0534 0.0
Co792 Co 0.40888 0.91875 0.85804 0.0
C793 C 0.38574 0.98659 0.85282 0.0
C794 C 0.34346 0.92478 0.84598 0.0
C795 C 0.33392 0.95497 0.84214 0.0
N796 N 0.37506 0.94404 0.85291 0.0
N797 N 0.36047 0.9936 0.84644 0.0
H798 H 0.41365 0.01251 0.8566 0.0
H799 H 0.33076 0.89195 0.84321 0.0
C800 C 0.31747 0.84412 0.85978 0.0
O801 O 0.30683 0.87148 0.86376 0.0
N802 N 0.44329 0.8938 0.86267 0.0
C803 C 0.47409 0.90992 0.8698 0.0
C804 C 0.48925 0.8812 0.87124 0.0
C805 C 0.44065 0.85618 0.85971 0.0
N806 N 0.4682 0.8476 0.86488 0.0
C807 C 0.40243 0.96021 0.87637 0.0
C808 C 0.3692 0.88415 0.88737 0.0
C809 C 0.37881 0.92282 0.89227 0.0
C810 C 0.39501 0.9613 0.88661 0.0
C811 C 0.37806 0.88473 0.87738 0.0
N812 N 0.39356 0.92199 0.87185 0.0
H813 H 0.41697 0.99031 0.87222 0.0
H814 H 0.37357 0.85482 0.87415 0.0
H815 H 0.48405 0.93995 0.87381 0.0
H816 H 0.41818 0.83493 0.8541 0.0
O817 O 0.46251 0.97444 0.85664 0.0
O818 O 0.4326 0.92352 0.84501 0.0
O819 O 0.35658 0.85797 0.85677 0.0
C820 C 0.46471 0.96131 0.84774 0.0
H821 H 0.31167 0.94986 0.8361 0.0
H822 H 0.51372 0.88463 0.87656 0.0
H823 H 0.35603 0.85336 0.89129 0.0
H824 H 0.40354 0.99213 0.8901 0.0
Co825 Co 0.07682 0.47274 0.86022 0.0
C826 C 0.01697 0.38045 0.85328 0.0
C827 C 0.07056 0.41857 0.84346 0.0
C828 C 0.04343 0.37915 0.83901 0.0
N829 N 0.05426 0.41958 0.85242 0.0
N830 N 0.00989 0.35531 0.84518 0.0
H831 H 0.99412 0.37109 0.85932 0.0
H832 H 0.09949 0.44555 0.84021 0.0
C833 C 0.15173 0.45529 0.85931 0.0
O834 O 0.12347 0.41342 0.86036 0.0
N835 N 0.09937 0.52642 0.86754 0.0
C836 C 0.08177 0.53382 0.87563 0.0
C837 C 0.104 0.57801 0.87754 0.0
C838 C 0.1317 0.56588 0.8646 0.0
N839 N 0.13521 0.59814 0.87056 0.0
C840 C 0.02569 0.41602 0.87644 0.0
C841 C 0.09664 0.43153 0.88802 0.0
C842 C 0.05461 0.40377 0.89166 0.0
C843 C 0.01867 0.39662 0.88586 0.0
C844 C 0.10213 0.45105 0.87877 0.0
N845 N 0.0671 0.44154 0.87281 0.0
H846 H 0.99784 0.41193 0.87225 0.0
H847 H 0.13482 0.47553 0.8767 0.0
H848 H 0.05362 0.50914 0.8796 0.0
H849 H 0.15037 0.57097 0.85789 0.0
O850 O 0.02166 0.47228 0.85877 0.0
O851 O 0.07757 0.5034 0.84836 0.0
O852 O 0.13834 0.48288 0.85907 0.0
C853 C 0.03864 0.49536 0.85077 0.0
H854 H 0.04752 0.36899 0.83172 0.0
H855 H 0.09697 0.59408 0.88349 0.0
H856 H 0.12521 0.4397 0.8925 0.0
H857 H 0.98562 0.37668 0.88861 0.0
Co858 Co 0.52452 0.58286 0.86035 0.0
C859 C 0.61618 0.62206 0.8534 0.0
C860 C 0.58668 0.66001 0.84901 0.0
C861 C 0.62948 0.68119 0.84586 0.0
N862 N 0.57858 0.62332 0.85384 0.0
N863 N 0.64778 0.65724 0.8486 0.0
H864 H 0.62066 0.59671 0.85675 0.0
H865 H 0.56331 0.67095 0.84794 0.0
C866 C 0.49575 0.639 0.87027 0.0
O867 O 0.48787 0.61414 0.87812 0.0
N868 N 0.46858 0.54132 0.86639 0.0
C869 C 0.45679 0.50177 0.87032 0.0
C870 C 0.41204 0.47787 0.87111 0.0
C871 C 0.43011 0.53972 0.86446 0.0
N872 N 0.39508 0.50153 0.86734 0.0
C873 C 0.55476 0.56614 0.87919 0.0
C874 C 0.59814 0.65261 0.88502 0.0
C875 C 0.59092 0.62051 0.89206 0.0
C876 C 0.57089 0.57685 0.88888 0.0
C877 C 0.58078 0.64035 0.87554 0.0
N878 N 0.55609 0.59726 0.87297 0.0
H879 H 0.54099 0.5329 0.87679 0.0
H880 H 0.5853 0.66574 0.8704 0.0
H881 H 0.47797 0.4884 0.87147 0.0
H882 H 0.42776 0.56448 0.86022 0.0
O883 O 0.53118 0.53426 0.85601 0.0
O884 O 0.49732 0.563 0.84768 0.0
O885 O 0.51055 0.63119 0.86236 0.0
C886 C 0.5085 0.53315 0.84827 0.0
H887 H 0.64597 0.7118 0.84184 0.0
H888 H 0.39349 0.44449 0.87372 0.0
H889 H 0.61564 0.68701 0.8869 0.0
H890 H 0.56603 0.55089 0.8939 0.0
Co891 Co 0.59211 0.73678 0.98102 0.0
C892 C 0.65355 0.70888 0.98883 0.0
C893 C 0.59049 0.67584 0.99575 0.0
C894 C 0.61798 0.66614 1.00093 0.0
N895 N 0.61227 0.70198 0.98801 0.0
N896 N 0.65745 0.68686 0.99657 0.0
H897 H 0.68121 0.73285 0.98462 0.0
H898 H 0.55792 0.66752 0.99806 0.0
C899 C 0.51352 0.64798 0.98033 0.0
O900 O 0.54002 0.63395 0.97753 0.0
N901 N 0.57221 0.77258 0.97468 0.0
C902 C 0.59126 0.80057 0.96709 0.0
C903 C 0.57123 0.82527 0.96604 0.0
C904 C 0.54136 0.78074 0.97819 0.0
N905 N 0.54003 0.81289 0.97307 0.0
C906 C 0.63402 0.71912 0.96443 0.0
C907 C 0.56271 0.69071 0.95197 0.0
C908 C 0.60164 0.69551 0.94816 0.0
C909 C 0.63748 0.70902 0.95453 0.0
C910 C 0.56058 0.70084 0.9618 0.0
N911 N 0.59576 0.7147 0.96799 0.0
H912 H 0.66278 0.73271 0.96901 0.0
H913 H 0.53095 0.69968 0.96429 0.0
H914 H 0.61886 0.80391 0.96289 0.0
H915 H 0.52223 0.76522 0.98475 0.0
O916 O 0.64977 0.78773 0.98179 0.0
O917 O 0.59799 0.76772 0.99319 0.0
O918 O 0.52909 0.68839 0.98246 0.0
C919 C 0.63683 0.79647 0.99007 0.0
H920 H 0.61042 0.64755 0.00774 0.0
H921 H 0.57966 0.85093 0.96064 0.0
H922 H 0.53442 0.68077 0.94725 0.0
H923 H 0.66846 0.71404 0.95176 0.0
Co924 Co 0.26553 0.85356 0.98261 0.0
C925 C 0.29284 0.947 0.98719 0.0
C926 C 0.31005 0.91505 0.99839 0.0
C927 C 0.32008 0.95543 1.00185 0.0
N928 N 0.29318 0.90964 0.9892 0.0
N929 N 0.30928 0.97532 0.99482 0.0
H930 H 0.2789 0.95269 0.98063 0.0
H931 H 0.31312 0.89036 1.00247 0.0
C932 C 0.35892 0.87607 0.98512 0.0
O933 O 0.37141 0.91685 0.98286 0.0
N934 N 0.23758 0.79679 0.97652 0.0
C935 C 0.20797 0.78255 0.96914 0.0
C936 C 0.19113 0.73818 0.96807 0.0
C937 C 0.23862 0.76133 0.97982 0.0
N938 N 0.21051 0.72508 0.97479 0.0
C939 C 0.26996 0.90038 0.96451 0.0
C940 C 0.33124 0.88586 0.95528 0.0
C941 C 0.31327 0.90695 0.9498 0.0
C942 C 0.28202 0.91417 0.95465 0.0
C943 C 0.31617 0.8702 0.96474 0.0
N944 N 0.2877 0.87937 0.96954 0.0
H945 H 0.24471 0.90471 0.96791 0.0
H946 H 0.3265 0.84894 0.96794 0.0
H947 H 0.19806 0.80266 0.96512 0.0
H948 H 0.25764 0.7616 0.98613 0.0
O949 O 0.2097 0.852 0.98272 0.0
O950 O 0.23478 0.82741 0.99469 0.0
O951 O 0.31827 0.84745 0.98538 0.0
C952 C 0.20348 0.83302 0.99132 0.0
H953 H 0.33334 0.96891 0.00906 0.0
H954 H 0.16593 0.717 0.96291 0.0
H955 H 0.35618 0.87988 0.95233 0.0
H956 H 0.26566 0.9289 0.95084 0.0
Co957 Co 0.14219 0.40263 0.98022 0.0
C958 C 0.05552 0.33489 0.98896 0.0
C959 C 0.09093 0.3931 0.99764 0.0
C960 C 0.05558 0.36352 1.00303 0.0
N961 N 0.09097 0.37572 0.98876 0.0
N962 N 0.03342 0.327 0.9976 0.0
H963 H 0.04752 0.31039 0.98333 0.0
H964 H 0.11645 0.42453 1.00026 0.0
C965 C 0.11679 0.47067 0.9823 0.0
O966 O 0.07621 0.43909 0.98102 0.0
N967 N 0.19477 0.43005 0.97233 0.0
C968 C 0.20235 0.41501 0.96385 0.0
C969 C 0.24633 0.43926 0.96171 0.0
C970 C 0.234 0.46301 0.97527 0.0
N971 N 0.26622 0.46921 0.96894 0.0
C972 C 0.08136 0.35291 0.96444 0.0
C973 C 0.09729 0.42503 0.95325 0.0
C974 C 0.06905 0.38342 0.94947 0.0
C975 C 0.06144 0.3469 0.95511 0.0
C976 C 0.11738 0.42951 0.96238 0.0
N977 N 0.10808 0.39392 0.96812 0.0
H978 H 0.07718 0.32461 0.96842 0.0
H979 H 0.14226 0.46191 0.96455 0.0
H980 H 0.17808 0.38693 0.95979 0.0
H981 H 0.23925 0.47982 0.98226 0.0
O982 O 0.14487 0.34929 0.98021 0.0
O983 O 0.17642 0.40223 0.99134 0.0
O984 O 0.14779 0.46181 0.98243 0.0
C985 C 0.1695 0.36471 0.98804 0.0
H986 H 0.04738 0.36793 0.0105 0.0
H987 H 0.26262 0.43412 0.95551 0.0
H988 H 0.10566 0.45401 0.94891 0.0
H989 H 0.04104 0.31416 0.95225 0.0
Co990 Co 0.24914 0.39508 0.47943 0.0
C991 C 0.28264 0.33713 0.48618 0.0
C992 C 0.30437 0.39413 0.49532 0.0
C993 C 0.31798 0.36754 0.49957 0.0
N994 N 0.28214 0.37503 0.48697 0.0
N995 N 0.30436 0.33192 0.49382 0.0
H996 H 0.2659 0.31312 0.48044 0.0
H997 H 0.30878 0.42446 0.49831 0.0
C998 C 0.31241 0.48605 0.47316 0.0
O999 O 0.29102 0.47723 0.46474 0.0
N1000 N 0.2147 0.41584 0.47237 0.0
C1001 C 0.18429 0.39619 0.46521 0.0
C1002 C 0.16155 0.41815 0.46406 0.0
C1003 C 0.20898 0.44892 0.4756 0.0
N1004 N 0.17693 0.45119 0.47063 0.0
C1005 C 0.24364 0.35245 0.46062 0.0
C1006 C 0.33138 0.40286 0.45612 0.0
C1007 C 0.30249 0.37723 0.4486 0.0
C1008 C 0.25829 0.34987 0.45113 0.0
C1009 C 0.31512 0.40489 0.46539 0.0
N1010 N 0.27114 0.38321 0.46721 0.0
H1011 H 0.21002 0.33031 0.46259 0.0
H1012 H 0.33808 0.42501 0.47102 0.0
H1013 H 0.17623 0.3663 0.46147 0.0
H1014 H 0.22622 0.46924 0.48188 0.0
O1015 O 0.19608 0.33937 0.48149 0.0
O1016 O 0.22065 0.39694 0.49138 0.0
O1017 O 0.30071 0.45677 0.47988 0.0
C1018 C 0.19027 0.3572 0.48937 0.0
H1019 H 0.33588 0.37347 0.50644 0.0
H1020 H 0.13462 0.40936 0.459 0.0
H1021 H 0.36625 0.42221 0.4548 0.0
H1022 H 0.23479 0.32792 0.44577 0.0
Co1023 Co 0.58566 0.85538 0.48108 0.0
C1024 C 0.65411 0.94055 0.48962 0.0
C1025 C 0.58952 0.92031 0.49491 0.0
C1026 C 0.61869 0.95567 0.50037 0.0
N1027 N 0.61134 0.91111 0.48798 0.0
N1028 N 0.65912 0.96828 0.49703 0.0
H1029 H 0.68119 0.93924 0.48627 0.0
H1030 H 0.55499 0.90044 0.49649 0.0
C1031 C 0.5195 0.88304 0.47774 0.0
O1032 O 0.55203 0.92192 0.47538 0.0
N1033 N 0.55935 0.79866 0.47485 0.0
C1034 C 0.57983 0.78124 0.46976 0.0
C1035 C 0.55007 0.73796 0.46781 0.0
C1036 C 0.51763 0.76614 0.47588 0.0
N1037 N 0.51119 0.72893 0.47163 0.0
C1038 C 0.64191 0.91373 0.46541 0.0
C1039 C 0.57515 0.88585 0.45166 0.0
C1040 C 0.61667 0.91994 0.44909 0.0
C1041 C 0.65075 0.93319 0.45598 0.0
C1042 C 0.56796 0.86715 0.46101 0.0
N1043 N 0.60041 0.88249 0.46798 0.0
H1044 H 0.66853 0.92342 0.47052 0.0
H1045 H 0.53566 0.84041 0.46269 0.0
H1046 H 0.61423 0.7984 0.46788 0.0
H1047 H 0.4929 0.76897 0.48 0.0
O1048 O 0.63719 0.85105 0.48388 0.0
O1049 O 0.5792 0.82733 0.49367 0.0
O1050 O 0.52728 0.85299 0.48055 0.0
C1051 C 0.61723 0.83104 0.492 0.0
H1052 H 0.61112 0.96963 0.50667 0.0
H1053 H 0.55644 0.71484 0.46397 0.0
H1054 H 0.54832 0.87327 0.44642 0.0
H1055 H 0.68367 0.95854 0.45415 0.0
Co1056 Co 0.13943 0.73209 0.48005 0.0
C1057 C 0.05073 0.70877 0.48805 0.0
C1058 C 0.08357 0.68193 0.49637 0.0
C1059 C 0.04645 0.67355 0.50141 0.0
N1060 N 0.08624 0.70349 0.48791 0.0
N1061 N 0.02589 0.6903 0.49617 0.0
H1062 H 0.04472 0.72841 0.48287 0.0
H1063 H 0.10849 0.67517 0.49903 0.0
C1064 C 0.12065 0.63939 0.481 0.0
O1065 O 0.07937 0.62632 0.4791 0.0
N1066 N 0.19353 0.76077 0.47279 0.0
C1067 C 0.20508 0.78987 0.46535 0.0
C1068 C 0.24917 0.80698 0.46349 0.0
C1069 C 0.23017 0.76042 0.47535 0.0
N1070 N 0.26466 0.78826 0.4698 0.0
C1071 C 0.08168 0.72414 0.46403 0.0
C1072 C 0.1015 0.6733 0.45195 0.0
C1073 C 0.07389 0.68787 0.44831 0.0
C1074 C 0.06405 0.71369 0.45447 0.0
C1075 C 0.11925 0.68538 0.46144 0.0
N1076 N 0.10822 0.70929 0.46754 0.0
H1077 H 0.07615 0.74653 0.46835 0.0
H1078 H 0.14389 0.67746 0.4636 0.0
H1079 H 0.18347 0.79922 0.46181 0.0
H1080 H 0.23208 0.7421 0.48157 0.0
O1081 O 0.1393 0.78669 0.48059 0.0
O1082 O 0.17068 0.76499 0.49168 0.0
O1083 O 0.14823 0.68017 0.48182 0.0
C1084 C 0.16289 0.79534 0.48857 0.0
H1085 H 0.03622 0.658 0.50858 0.0
H1086 H 0.26849 0.8319 0.45809 0.0
H1087 H 0.11158 0.65504 0.44727 0.0
H1088 H 0.04404 0.72686 0.4518 0.0
Co1089 Co 0.08304 0.59964 0.3598 0.0
C1090 C 0.01523 0.61905 0.3517 0.0
C1091 C 0.0778 0.65553 0.34464 0.0
C1092 C 0.04839 0.66303 0.33961 0.0
N1093 N 0.05742 0.6285 0.35234 0.0
N1094 N 0.00927 0.64028 0.34407 0.0
H1095 H 0.98872 0.59476 0.3561 0.0
H1096 H 0.11129 0.66693 0.34247 0.0
C1097 C 0.14637 0.69471 0.36213 0.0
O1098 O 0.11235 0.6995 0.36385 0.0
N1099 N 0.10805 0.56976 0.36684 0.0
C1100 C 0.08663 0.5383 0.37364 0.0
C1101 C 0.11199 0.52045 0.37615 0.0
C1102 C 0.14615 0.57044 0.36521 0.0
N1103 N 0.14954 0.54053 0.37088 0.0
C1104 C 0.02156 0.59054 0.37536 0.0
C1105 C 0.08568 0.63992 0.38908 0.0
C1106 C 0.04196 0.62042 0.39195 0.0
C1107 C 0.00946 0.59486 0.38504 0.0
C1108 C 0.09625 0.63367 0.37955 0.0
N1109 N 0.06461 0.61099 0.37261 0.0
H1110 H 0.99649 0.56876 0.3703 0.0
H1111 H 0.13028 0.6454 0.37798 0.0
H1112 H 0.05391 0.52777 0.37628 0.0
H1113 H 0.17011 0.59155 0.35983 0.0
O1114 O 0.03313 0.54282 0.3564 0.0
O1115 O 0.09364 0.57945 0.34753 0.0
O1116 O 0.1408 0.65655 0.3605 0.0
C1117 C 0.05569 0.54448 0.34859 0.0
H1118 H 0.05463 0.68198 0.33289 0.0
H1119 H 0.10228 0.49319 0.38115 0.0
H1120 H 0.11175 0.65799 0.39436 0.0
H1121 H 0.97528 0.57773 0.38715 0.0
Co1122 Co 0.42481 0.49171 0.35963 0.0
C1123 C 0.40028 0.40012 0.35366 0.0
C1124 C 0.35436 0.41874 0.34862 0.0
C1125 C 0.34142 0.37769 0.34512 0.0
N1126 N 0.39026 0.43249 0.35436 0.0
N1127 N 0.37023 0.36604 0.34827 0.0
H1128 H 0.42953 0.40192 0.35668 0.0
H1129 H 0.33975 0.43803 0.34649 0.0
C1130 C 0.33467 0.47798 0.3624 0.0
O1131 O 0.32458 0.44161 0.36714 0.0
N1132 N 0.45938 0.55142 0.36423 0.0
C1133 C 0.49727 0.56956 0.36936 0.0
C1134 C 0.51094 0.61318 0.37092 0.0
C1135 C 0.45059 0.58399 0.36274 0.0
N1136 N 0.48127 0.62172 0.3668 0.0
C1137 C 0.41303 0.4384 0.3772 0.0
C1138 C 0.38974 0.48599 0.38949 0.0
C1139 C 0.39235 0.45086 0.39351 0.0
C1140 C 0.40379 0.42655 0.38723 0.0
C1141 C 0.39878 0.4964 0.37953 0.0
N1142 N 0.40964 0.47247 0.3734 0.0
H1143 H 0.4239 0.42079 0.37262 0.0
H1144 H 0.39666 0.52391 0.37673 0.0
H1145 H 0.51356 0.55226 0.37187 0.0
H1146 H 0.42226 0.58041 0.35881 0.0
O1147 O 0.47792 0.48883 0.35844 0.0
O1148 O 0.45002 0.51138 0.34666 0.0
O1149 O 0.37247 0.50068 0.35845 0.0
C1150 C 0.4819 0.50559 0.34965 0.0
H1151 H 0.31432 0.35874 0.34016 0.0
H1152 H 0.53958 0.63643 0.37501 0.0
H1153 H 0.38078 0.50552 0.39405 0.0
H1154 H 0.40695 0.39961 0.3901 0.0
Co1155 Co 0.5301 0.94842 0.36088 0.0
C1156 C 0.61467 0.01698 0.35201 0.0
C1157 C 0.61435 0.95709 0.35493 0.0
C1158 C 0.65472 0.98696 0.35132 0.0
N1159 N 0.58909 0.97576 0.35548 0.0
N1160 N 0.65492 0.02447 0.34948 0.0
H1161 H 0.60459 0.04122 0.35147 0.0
H1162 H 0.60472 0.92412 0.35708 0.0
C1163 C 0.507 0.85776 0.36683 0.0
O1164 O 0.48798 0.8624 0.37472 0.0
N1165 N 0.47055 0.92088 0.366 0.0
C1166 C 0.45326 0.93588 0.3728 0.0
C1167 C 0.40882 0.90774 0.3733 0.0
C1168 C 0.43595 0.88454 0.36225 0.0
N1169 N 0.39803 0.87538 0.36669 0.0
C1170 C 0.55442 0.99342 0.37966 0.0
C1171 C 0.58974 0.9463 0.38788 0.0
C1172 C 0.58369 0.97496 0.39395 0.0
C1173 C 0.56745 1.00009 0.38959 0.0
C1174 C 0.57628 0.94071 0.37801 0.0
N1175 N 0.55542 0.96138 0.37422 0.0
H1176 H 0.5424 0.01337 0.37645 0.0
H1177 H 0.58198 0.91877 0.37359 0.0
H1178 H 0.47071 0.96578 0.37693 0.0
H1179 H 0.43849 0.86561 0.35626 0.0
O1180 O 0.52652 1.00056 0.35847 0.0
O1181 O 0.50646 0.94609 0.34783 0.0
O1182 O 0.52653 0.88926 0.36066 0.0
C1183 C 0.50852 0.98293 0.35003 0.0
H1184 H 0.68183 0.98141 0.35001 0.0
H1185 H 0.38621 0.91095 0.37815 0.0
H1186 H 0.60298 0.92674 0.39079 0.0
H1187 H 0.56403 0.02414 0.39387 0.0
H1188 H 0.1176 0.1424 0.19543 0.0
H1189 H 0.24094 0.24073 0.20766 0.0
H1190 H 0.26734 0.18892 0.20775 0.0
H1191 H 0.25552 0.11561 0.20448 0.0
H1192 H 0.13301 0.01749 0.19185 0.0
H1193 H 0.10653 0.06945 0.19167 0.0
C1194 C 0.1504 0.15266 0.19801 0.0
C1195 C 0.17701 0.19542 0.20161 0.0
C1196 C 0.16563 0.12272 0.19797 0.0
C1197 C 0.21933 0.20789 0.20503 0.0
C1198 C 0.23464 0.17832 0.20503 0.0
C1199 C 0.22303 0.10555 0.20168 0.0
C1200 C 0.19634 0.06269 0.1982 0.0
C1201 C 0.20801 0.1356 0.20157 0.0
C1202 C 0.15437 0.05032 0.19456 0.0
C1203 C 0.13912 0.08 0.19446 0.0
H1204 H 0.91916 0.15473 0.20162 0.0
H1205 H 0.01422 0.1361 0.18556 0.0
H1206 H 0.96804 0.05681 0.18724 0.0
H1207 H 0.90114 0.99252 0.1937 0.0
H1208 H 0.8081 0.01245 0.21023 0.0
H1209 H 0.85302 0.09127 0.208 0.0
C1210 C 0.92967 0.13338 0.1984 0.0
C1211 C 0.96998 0.1514 0.19342 0.0
C1212 C 0.90341 0.08793 0.19956 0.0
C1213 C 0.98327 0.12314 0.18942 0.0
C1214 C 0.95691 0.07776 0.19038 0.0
C1215 C 0.89073 0.01422 0.19675 0.0
C1216 C 0.85149 0.99664 0.20218 0.0
C1217 C 0.91701 0.05976 0.1955 0.0
C1218 C 0.83849 0.02512 0.20617 0.0
C1219 C 0.86402 0.07023 0.20484 0.0
H1220 H 0.8933 0.8763 0.18942 0.0
H1221 H 0.84463 0.7377 0.18661 0.0
H1222 H 0.91809 0.74954 0.18924 0.0
H1223 H 0.99552 0.79869 0.1933 0.0
H1224 H 0.04443 0.93703 0.196 0.0
H1225 H 0.97157 0.92593 0.19245 0.0
C1226 C 0.89881 0.84873 0.18924 0.0
C1227 C 0.86337 0.80615 0.1879 0.0
C1228 C 0.94113 0.85566 0.19086 0.0
C1229 C 0.87122 0.77083 0.18768 0.0
C1230 C 0.91322 0.77751 0.18923 0.0
C1231 C 0.99004 0.82627 0.19315 0.0
C1232 C 0.02499 0.8685 0.19501 0.0
C1233 C 0.94823 0.81964 0.19103 0.0
C1234 C 0.01789 0.90422 0.19458 0.0
C1235 C 0.97629 0.89788 0.19256 0.0
H1236 H 0.10095 0.24366 0.29923 0.0
H1237 H 0.00879 0.12902 0.3155 0.0
H1238 H 0.05905 0.1006 0.31491 0.0
H1239 H 0.12893 0.1077 0.30954 0.0
H1240 H 0.22208 0.22434 0.29393 0.0
H1241 H 0.17156 0.25194 0.29442 0.0
C1242 C 0.09184 0.21251 0.30267 0.0
C1243 C 0.05095 0.18853 0.30735 0.0
C1244 C 0.12107 0.19642 0.30238 0.0
C1245 C 0.03991 0.14826 0.31181 0.0
C1246 C 0.06869 0.13189 0.31148 0.0
C1247 C 0.13845 0.13931 0.30632 0.0
C1248 C 0.17941 0.16342 0.30162 0.0
C1249 C 0.10936 0.15564 0.30676 0.0
C1250 C 0.19066 0.20427 0.29742 0.0
C1251 C 0.16182 0.22045 0.29776 0.0
H1252 H 0.92398 0.91442 0.30618 0.0
H1253 H 0.78565 0.83275 0.31166 0.0
H1254 H 0.77697 0.8973 0.31161 0.0
H1255 H 0.80922 0.97768 0.30979 0.0
H1256 H 0.948 0.05778 0.30488 0.0
H1257 H 0.95602 0.99315 0.30489 0.0
C1258 C 0.89182 0.91055 0.30736 0.0
C1259 C 0.85545 0.86869 0.3088 0.0
C1260 C 0.8872 0.94765 0.3074 0.0
C1261 C 0.8142 0.86453 0.31047 0.0
C1262 C 0.8092 0.90145 0.31043 0.0
C1263 C 0.84101 0.98065 0.30868 0.0
C1264 C 0.87797 0.02224 0.30736 0.0
C1265 C 0.84547 0.94321 0.30883 0.0
C1266 C 0.91922 0.02606 0.30603 0.0
C1267 C 0.9238 0.98916 0.306 0.0
H1268 H 0.13195 0.95989 0.31888 0.0
H1269 H 0.14212 0.97017 0.28702 0.0
H1270 H 0.07455 0.90084 0.28537 0.0
H1271 H 0.01121 0.8386 0.29278 0.0
H1272 H 0.99744 0.82751 0.32449 0.0
H1273 H 0.0676 0.89568 0.3264 0.0
C1274 C 0.11937 0.94684 0.31159 0.0
C1275 C 0.14212 0.97047 0.3031 0.0
C1276 C 0.07984 0.90675 0.31066 0.0
C1277 C 0.12527 0.95308 0.2937 0.0
C1278 C 0.0866 0.91323 0.29273 0.0
C1279 C 0.02389 0.85054 0.30013 0.0
C1280 C 0.9994 0.8277 0.30849 0.0
C1281 C 0.06353 0.88994 0.30113 0.0
C1282 C 0.01578 0.84447 0.31794 0.0
C1283 C 0.05582 0.88344 0.31903 0.0
H1284 H 0.86149 0.97505 0.81683 0.0
H1285 H 0.7238 0.88273 0.81315 0.0
H1286 H 0.73999 0.8241 0.81035 0.0
H1287 H 0.79342 0.79922 0.80842 0.0
H1288 H 0.93076 0.89101 0.81223 0.0
H1289 H 0.91465 0.94968 0.81546 0.0
C1290 C 0.83495 0.94203 0.81553 0.0
C1291 C 0.79148 0.93342 0.81519 0.0
C1292 C 0.84448 0.90841 0.81384 0.0
C1293 C 0.75757 0.89039 0.81346 0.0
C1294 C 0.76679 0.8568 0.81181 0.0
C1295 C 0.81974 0.83216 0.80987 0.0
C1296 C 0.86319 0.84094 0.81001 0.0
C1297 C 0.81014 0.86553 0.81184 0.0
C1298 C 0.89704 0.88355 0.81212 0.0
C1299 C 0.88783 0.91705 0.81396 0.0
H1300 H 0.11587 0.01573 0.80572 0.0
H1301 H 0.23201 0.00515 0.80662 0.0
H1302 H 0.18802 0.92735 0.81112 0.0
H1303 H 0.11557 0.86205 0.81438 0.0
H1304 H 1.00064 0.87586 0.81431 0.0
H1305 H 0.04493 0.95257 0.81 0.0
C1306 C 0.13129 0.99609 0.80683 0.0
C1307 C 0.17668 0.01534 0.80565 0.0
C1308 C 0.10603 0.95214 0.80963 0.0
C1309 C 0.19689 0.99041 0.80739 0.0
C1310 C 0.17179 0.94616 0.80997 0.0
C1311 C 0.10034 0.88196 0.81349 0.0
C1312 C 0.05474 0.86295 0.81464 0.0
C1313 C 0.1262 0.92657 0.81107 0.0
C1314 C 0.03558 0.88938 0.81352 0.0
C1315 C 0.06087 0.93337 0.81099 0.0
H1316 H 0.09693 0.08718 0.81811 0.0
H1317 H 0.16655 0.22195 0.80863 0.0
H1318 H 0.09738 0.21742 0.80398 0.0
H1319 H 0.01676 0.17507 0.80283 0.0
H1320 H 0.94837 0.04012 0.8121 0.0
H1321 H 0.01749 0.04474 0.81657 0.0
C1322 C 0.09704 0.11572 0.8151 0.0
C1323 C 0.13677 0.15495 0.81381 0.0
C1324 C 0.05737 0.11274 0.81235 0.0
C1325 C 0.13634 0.19141 0.80975 0.0
C1326 C 0.09683 0.18881 0.80706 0.0
C1327 C 0.01717 0.14663 0.80571 0.0
C1328 C 0.97756 0.10741 0.80719 0.0
C1329 C 0.05713 0.14959 0.80832 0.0
C1330 C 0.97842 0.07084 0.81103 0.0
C1331 C 0.01791 0.07343 0.81357 0.0
H1332 H 0.98986 0.86694 0.69474 0.0
H1333 H 0.90431 0.727 0.69612 0.0
H1334 H 0.84085 0.73678 0.69724 0.0
H1335 H 0.80946 0.78488 0.69826 0.0
H1336 H 0.8942 0.92458 0.69677 0.0
H1337 H 0.95802 0.91509 0.69518 0.0
C1338 C 0.95733 0.83856 0.69522 0.0
C1339 C 0.95202 0.7963 0.69539 0.0
C1340 C 0.92077 0.84436 0.69588 0.0
C1341 C 0.90953 0.75993 0.696 0.0
C1342 C 0.87311 0.76545 0.69666 0.0
C1343 C 0.84192 0.81322 0.69765 0.0
C1344 C 0.8471 0.85535 0.6977 0.0
C1345 C 0.87836 0.80748 0.69671 0.0
C1346 C 0.88932 0.89179 0.69669 0.0
C1347 C 0.92583 0.88637 0.69583 0.0
H1348 H 0.09734 0.983 0.69941 0.0
H1349 H 0.21566 0.01241 0.71501 0.0
H1350 H 0.24496 0.0902 0.71212 0.0
H1351 H 0.23741 0.14992 0.70516 0.0
H1352 H 0.11903 0.12166 0.68972 0.0
H1353 H 0.08966 0.04339 0.69241 0.0
C1354 C 0.12958 0.00647 0.70213 0.0
C1355 C 0.1541 0.9918 0.70746 0.0
C1356 C 0.14639 0.05134 0.70042 0.0
C1357 C 0.19569 0.02269 0.71104 0.0
C1358 C 0.21269 0.06724 0.70932 0.0
C1359 C 0.2053 0.1267 0.70231 0.0
C1360 C 0.18061 0.14166 0.69719 0.0
C1361 C 0.18838 0.08191 0.70401 0.0
C1362 C 0.13883 0.11104 0.69365 0.0
C1363 C 0.12195 0.06627 0.69521 0.0
H1364 H 0.85278 0.09742 0.70338 0.0
H1365 H 0.88202 0.00187 0.69125 0.0
H1366 H 0.96013 0.05485 0.69193 0.0
H1367 H 0.02031 0.12793 0.69625 0.0
H1368 H 0.9907 0.22387 0.70796 0.0
H1369 H 0.91281 0.17097 0.70727 0.0
C1370 C 0.87619 0.08816 0.70087 0.0
C1371 C 0.86143 0.04569 0.69727 0.0
C1372 C 0.92114 0.11882 0.70125 0.0
C1373 C 0.89234 0.03435 0.69403 0.0
C1374 C 0.9371 0.06463 0.69442 0.0
C1375 C 0.99689 0.13749 0.69855 0.0
C1376 C 0.01168 0.17993 0.70221 0.0
C1377 C 0.9519 0.10694 0.69804 0.0
C1378 C 0.98059 0.19134 0.70528 0.0
C1379 C 0.93587 0.16114 0.70483 0.0
H1380 H 0.8461 0.49831 0.52756 0.0
H1381 H 0.71431 0.43516 0.5387 0.0
H1382 H 0.71325 0.36525 0.53974 0.0
H1383 H 0.75107 0.32287 0.53783 0.0
H1384 H 0.88054 0.38478 0.52519 0.0
H1385 H 0.88153 0.45445 0.52428 0.0
C1386 C 0.81734 0.46907 0.53021 0.0
C1387 C 0.78057 0.47146 0.53319 0.0
C1388 C 0.81665 0.42901 0.53047 0.0
C1389 C 0.74293 0.43361 0.53643 0.0
C1390 C 0.7424 0.39387 0.53702 0.0
C1391 C 0.77931 0.35166 0.53483 0.0
C1392 C 0.81576 0.34903 0.53164 0.0
C1393 C 0.7792 0.39125 0.53412 0.0
C1394 C 0.85205 0.38617 0.52765 0.0
C1395 C 0.85272 0.426 0.52717 0.0
H1396 H 0.47253 0.34149 0.53739 0.0
H1397 H 0.55934 0.29502 0.52849 0.0
H1398 H 0.61665 0.36984 0.52472 0.0
H1399 H 0.64195 0.44847 0.52401 0.0
H1400 H 0.5545 0.49461 0.53286 0.0
H1401 H 0.49753 0.41996 0.53652 0.0
C1402 C 0.50415 0.34788 0.53472 0.0
C1403 C 0.51182 0.31291 0.53326 0.0
C1404 C 0.53667 0.39085 0.53247 0.0
C1405 C 0.55267 0.32147 0.52962 0.0
C1406 C 0.5854 0.36419 0.52747 0.0
C1407 C 0.61035 0.44221 0.52667 0.0
C1408 C 0.60261 0.4772 0.52814 0.0
C1409 C 0.57769 0.39914 0.52883 0.0
C1410 C 0.56144 0.46838 0.53163 0.0
C1411 C 0.52881 0.42567 0.53377 0.0
H1412 H 0.68283 0.21824 0.52772 0.0
H1413 H 0.65352 0.08614 0.53349 0.0
H1414 H 0.57625 0.05914 0.53031 0.0
H1415 H 0.51636 0.07318 0.52668 0.0
H1416 H 0.54523 0.20526 0.52093 0.0
H1417 H 0.62318 0.23182 0.52308 0.0
C1418 C 0.65962 0.18351 0.52815 0.0
C1419 C 0.67404 0.15442 0.53096 0.0
C1420 C 0.61504 0.16808 0.52629 0.0
C1421 C 0.64336 0.10947 0.53157 0.0
C1422 C 0.5991 0.09389 0.52967 0.0
C1423 C 0.53967 0.10772 0.52578 0.0
C1424 C 0.52478 0.1371 0.52369 0.0
C1425 C 0.58447 0.12294 0.52716 0.0
C1426 C 0.55563 0.18179 0.52255 0.0
C1427 C 0.60029 0.19711 0.52382 0.0
H1428 H 0.65984 0.42109 0.63945 0.0
H1429 H 0.71871 0.5611 0.64186 0.0
H1430 H 0.79179 0.56876 0.64153 0.0
H1431 H 0.83887 0.53475 0.64035 0.0
H1432 H 0.77765 0.39453 0.63858 0.0
H1433 H 0.70536 0.38769 0.63873 0.0
C1434 C 0.68861 0.45339 0.6399 0.0
C1435 C 0.68391 0.49049 0.6406 0.0
C1436 C 0.73005 0.4574 0.63974 0.0
C1437 C 0.7215 0.53201 0.64133 0.0
C1438 C 0.76324 0.53638 0.64109 0.0
C1439 C 0.80952 0.50293 0.63992 0.0
C1440 C 0.81319 0.46515 0.63942 0.0
C1441 C 0.76792 0.49926 0.64022 0.0
C1442 C 0.77526 0.42388 0.63901 0.0
C1443 C 0.73407 0.42001 0.6391 0.0
H1444 H 0.50012 0.21304 0.65211 0.0
H1445 H 0.51837 0.20742 0.62064 0.0
H1446 H 0.51537 0.27404 0.6182 0.0
H1447 H 0.50936 0.33496 0.6249 0.0
H1448 H 0.49446 0.34406 0.65628 0.0
H1449 H 0.49415 0.27506 0.65887 0.0
C1450 C 0.50348 0.22647 0.64473 0.0
C1451 C 0.50965 0.20523 0.63659 0.0
C1452 C 0.5021 0.26531 0.64335 0.0
C1453 C 0.51397 0.22312 0.62707 0.0
C1454 C 0.51206 0.26121 0.62564 0.0
C1455 C 0.50521 0.3214 0.63229 0.0
C1456 C 0.50127 0.34411 0.64038 0.0
C1457 C 0.50618 0.28257 0.63371 0.0
C1458 C 0.49729 0.32689 0.64995 0.0
C1459 C 0.49724 0.28759 0.65142 0.0
H1460 H 0.65102 0.21613 0.64447 0.0
H1461 H 0.68131 0.11338 0.63937 0.0
H1462 H 0.75819 0.1642 0.64229 0.0
H1463 H 0.81756 0.23793 0.646 0.0
H1464 H 0.78813 0.34074 0.65164 0.0
H1465 H 0.71039 0.28955 0.64906 0.0
C1466 C 0.67425 0.20464 0.64409 0.0
C1467 C 0.65985 0.16077 0.64158 0.0
C1468 C 0.71882 0.23405 0.64595 0.0
C1469 C 0.69094 0.14691 0.64105 0.0
C1470 C 0.73518 0.17597 0.64282 0.0
C1471 C 0.79418 0.24916 0.64675 0.0
C1472 C 0.80886 0.29323 0.64898 0.0
C1473 C 0.74952 0.21961 0.64522 0.0
C1474 C 0.77791 0.30704 0.64994 0.0
C1475 C 0.73336 0.27778 0.64843 0.0
H1476 H 0.57131 0.21488 0.14309 0.0
H1477 H 0.44668 0.12109 0.13053 0.0
H1478 H 0.41813 0.16987 0.13394 0.0
H1479 H 0.4284 0.23921 0.14043 0.0
H1480 H 0.55293 0.33314 0.15301 0.0
H1481 H 0.58115 0.28366 0.1499 0.0
C1482 C 0.53778 0.20487 0.14117 0.0
C1483 C 0.51134 0.16423 0.13653 0.0
C1484 C 0.52134 0.23295 0.14325 0.0
C1485 C 0.46814 0.15231 0.13396 0.0
C1486 C 0.45158 0.18007 0.13599 0.0
C1487 C 0.46158 0.24875 0.14259 0.0
C1488 C 0.48839 0.28983 0.14699 0.0
C1489 C 0.47786 0.22044 0.14064 0.0
C1490 C 0.53147 0.30169 0.14965 0.0
C1491 C 0.54773 0.27348 0.14783 0.0
H1492 H 0.82309 0.33691 0.13292 0.0
H1493 H 0.811 0.39108 0.16056 0.0
H1494 H 0.74791 0.32121 0.16502 0.0
H1495 H 0.69617 0.24425 0.16118 0.0
H1496 H 0.70932 0.18977 0.13367 0.0
H1497 H 0.77224 0.25982 0.12919 0.0
C1498 C 0.80695 0.33339 0.13996 0.0
C1499 C 0.82187 0.3695 0.14633 0.0
C1500 C 0.77084 0.29285 0.14255 0.0
C1501 C 0.8 0.36431 0.15538 0.0
C1502 C 0.76399 0.32414 0.158 0.0
C1503 C 0.71282 0.24765 0.15421 0.0
C1504 C 0.698 0.21165 0.14781 0.0
C1505 C 0.74909 0.28817 0.15164 0.0
C1506 C 0.72004 0.21676 0.13879 0.0
C1507 C 0.75604 0.25691 0.13619 0.0
H1508 H 0.65729 0.47879 0.15739 0.0
H1509 H 0.68453 0.50316 0.12618 0.0
H1510 H 0.76103 0.52503 0.12913 0.0
H1511 H 0.81941 0.53488 0.14041 0.0
H1512 H 0.79264 0.50945 0.17163 0.0
H1513 H 0.71657 0.49021 0.16881 0.0
C1514 C 0.67983 0.48852 0.15122 0.0
C1515 C 0.66498 0.48906 0.14156 0.0
C1516 C 0.72384 0.50092 0.15297 0.0
C1517 C 0.69503 0.50273 0.13369 0.0
C1518 C 0.73877 0.51507 0.13536 0.0
C1519 C 0.79714 0.52542 0.14664 0.0
C1520 C 0.81187 0.52359 0.15623 0.0
C1521 C 0.75346 0.51407 0.14496 0.0
C1522 C 0.78232 0.51123 0.16417 0.0
C1523 C 0.73875 0.50007 0.16256 0.0
H1524 H 0.56132 0.08276 0.03252 0.0
H1525 H 0.65455 0.20148 0.01764 0.0
H1526 H 0.60657 0.23193 0.02004 0.0
H1527 H 0.53983 0.22628 0.02705 0.0
H1528 H 0.44687 0.10792 0.04203 0.0
H1529 H 0.49342 0.07628 0.03906 0.0
C1530 C 0.5709 0.11505 0.02968 0.0
C1531 C 0.61144 0.1397 0.02488 0.0
C1532 C 0.5435 0.13274 0.03124 0.0
C1533 C 0.62351 0.18173 0.02135 0.0
C1534 C 0.59616 0.19927 0.02275 0.0
C1535 C 0.5295 0.1934 0.02957 0.0
C1536 C 0.48993 0.16968 0.03479 0.0
C1537 C 0.55635 0.17529 0.02779 0.0
C1538 C 0.47744 0.12729 0.03814 0.0
C1539 C 0.5039 0.10898 0.03637 0.0
H1540 H 0.80153 0.4508 0.02436 0.0
H1541 H 0.93743 0.4985 0.0314 0.0
H1542 H 0.92225 0.42403 0.03395 0.0
H1543 H 0.87055 0.34541 0.03443 0.0
H1544 H 0.73494 0.29667 0.02727 0.0
H1545 H 0.74982 0.37139 0.02447 0.0
C1546 C 0.82785 0.44487 0.02639 0.0
C1547 C 0.87051 0.48026 0.0277 0.0
C1548 C 0.81895 0.40179 0.02786 0.0
C1549 C 0.90425 0.47196 0.03034 0.0
C1550 C 0.89563 0.42934 0.03183 0.0
C1551 C 0.84423 0.35122 0.03235 0.0
C1552 C 0.80172 0.31573 0.03112 0.0
C1553 C 0.8531 0.39407 0.03069 0.0
C1554 C 0.76801 0.32358 0.02821 0.0
C1555 C 0.77648 0.36624 0.02663 0.0
H1556 H 0.68835 0.45262 0.0278 0.0
H1557 H 0.66391 0.55507 0.03722 0.0
H1558 H 0.58554 0.50689 0.03488 0.0
H1559 H 0.52375 0.43513 0.03068 0.0
H1560 H 0.54728 0.33155 0.02158 0.0
H1561 H 0.62611 0.38084 0.0231 0.0
C1562 C 0.66583 0.4644 0.02925 0.0
C1563 C 0.68194 0.50722 0.03277 0.0
C1564 C 0.62064 0.43638 0.02792 0.0
C1565 C 0.65235 0.52201 0.0347 0.0
C1566 C 0.60752 0.49457 0.03329 0.0
C1567 C 0.54606 0.42337 0.02894 0.0
C1568 C 0.52955 0.3797 0.02602 0.0
C1569 C 0.59126 0.4516 0.02999 0.0
C1570 C 0.55906 0.36503 0.02385 0.0
C1571 C 0.60417 0.39316 0.02474 0.0
H1572 H 0.48522 0.68321 0.85503 0.0
H1573 H 0.49428 0.68161 0.88686 0.0
H1574 H 0.48736 0.74684 0.88798 0.0
H1575 H 0.47896 0.80451 0.87992 0.0
H1576 H 0.4663 0.80464 0.84823 0.0
H1577 H 0.47416 0.73966 0.847 0.0
C1578 C 0.48568 0.69721 0.8622 0.0
C1579 C 0.49036 0.67774 0.87084 0.0
C1580 C 0.48103 0.73437 0.8628 0.0
C1581 C 0.49048 0.69588 0.8801 0.0
C1582 C 0.48668 0.73326 0.88075 0.0
C1583 C 0.47825 0.79039 0.87276 0.0
C1584 C 0.47249 0.80934 0.86417 0.0
C1585 C 0.48205 0.75281 0.87215 0.0
C1586 C 0.47061 0.79036 0.85493 0.0
C1587 C 0.47522 0.75339 0.85423 0.0
H1588 H 0.23656 0.8029 0.8681 0.0
H1589 H 0.32886 0.7783 0.85251 0.0
H1590 H 0.28031 0.6997 0.85447 0.0
H1591 H 0.21312 0.63815 0.86121 0.0
H1592 H 0.12086 0.66297 0.87672 0.0
H1593 H 0.16841 0.74133 0.87435 0.0
C1594 C 0.24593 0.7804 0.86504 0.0
C1595 C 0.2863 0.79654 0.86017 0.0
C1596 C 0.21815 0.73526 0.8663 0.0
C1597 C 0.29795 0.76682 0.85629 0.0
C1598 C 0.27028 0.72183 0.85744 0.0
C1599 C 0.20316 0.66062 0.86398 0.0
C1600 C 0.1635 0.64452 0.86918 0.0
C1601 C 0.23052 0.70572 0.86252 0.0
C1602 C 0.1515 0.67431 0.87285 0.0
C1603 C 0.17852 0.7192 0.87142 0.0
H1604 H 0.35724 0.55133 0.86486 0.0
H1605 H 0.32911 0.41749 0.86546 0.0
H1606 H 0.25197 0.39177 0.86278 0.0
H1607 H 0.19177 0.4066 0.86056 0.0
H1608 H 0.21911 0.54012 0.85962 0.0
H1609 H 0.297 0.56635 0.86191 0.0
C1610 C 0.33435 0.51657 0.86431 0.0
C1611 C 0.34933 0.48658 0.8655 0.0
C1612 C 0.28967 0.50176 0.86266 0.0
C1613 C 0.31884 0.44155 0.86483 0.0
C1614 C 0.27452 0.42667 0.8632 0.0
C1615 C 0.21472 0.44147 0.86079 0.0
C1616 C 0.1994 0.47122 0.85994 0.0
C1617 C 0.2595 0.45641 0.86217 0.0
C1618 C 0.22983 0.51633 0.86024 0.0
C1619 C 0.27447 0.53144 0.86159 0.0
H1620 H 0.44254 0.91929 0.9782 0.0
H1621 H 0.34633 0.7974 0.99146 0.0
H1622 H 0.39461 0.76734 0.98906 0.0
H1623 H 0.46167 0.77381 0.98216 0.0
H1624 H 0.55781 0.89528 0.96879 0.0
H1625 H 0.51162 0.92704 0.97211 0.0
C1626 C 0.43244 0.88643 0.98073 0.0
C1627 C 0.39088 0.86065 0.985 0.0
C1628 C 0.45997 0.86896 0.97914 0.0
C1629 C 0.37814 0.81795 0.98814 0.0
C1630 C 0.40563 0.80063 0.98673 0.0
C1631 C 0.47285 0.80741 0.98009 0.0
C1632 C 0.51308 0.83193 0.97517 0.0
C1633 C 0.44624 0.82555 0.98207 0.0
C1634 C 0.52667 0.87529 0.97241 0.0
C1635 C 0.50042 0.89365 0.97439 0.0
H1636 H 0.13106 0.65336 0.9745 0.0
H1637 H 0.26735 0.69842 0.97989 0.0
H1638 H 0.25036 0.62327 0.98321 0.0
H1639 H 0.1967 0.5445 0.98402 0.0
H1640 H 0.05991 0.50037 0.97904 0.0
H1641 H 0.07706 0.57539 0.97621 0.0
C1642 C 0.15697 0.64656 0.97634 0.0
C1643 C 0.20039 0.68105 0.97683 0.0
C1644 C 0.14683 0.60354 0.97837 0.0
C1645 C 0.23368 0.67218 0.97947 0.0
C1646 C 0.22397 0.62932 0.98135 0.0
C1647 C 0.17059 0.55132 0.98241 0.0
C1648 C 0.12711 0.51672 0.98169 0.0
C1649 C 0.18064 0.59468 0.98078 0.0
C1650 C 0.09368 0.52625 0.97963 0.0
C1651 C 0.10344 0.56918 0.97797 0.0
H1652 H 0.47084 0.56746 0.972 0.0
H1653 H 0.44833 0.66247 0.9869 0.0
H1654 H 0.36932 0.61516 0.98475 0.0
H1655 H 0.30664 0.54736 0.97821 0.0
H1656 H 0.33055 0.45398 0.96302 0.0
H1657 H 0.40897 0.50038 0.9656 0.0
C1658 C 0.44873 0.57777 0.97487 0.0
C1659 C 0.46555 0.61837 0.97966 0.0
C1660 C 0.40353 0.55086 0.97345 0.0
C1661 C 0.43629 0.6313 0.98321 0.0
C1662 C 0.3911 0.60431 0.98197 0.0
C1663 C 0.32905 0.53715 0.97552 0.0
C1664 C 0.31266 0.49733 0.97037 0.0
C1665 C 0.37435 0.56413 0.97703 0.0
C1666 C 0.34219 0.48474 0.96684 0.0
C1667 C 0.38709 0.51111 0.96838 0.0
H1668 H 0.07526 0.55367 0.47561 0.0
H1669 H 0.20287 0.65455 0.48526 0.0
H1670 H 0.2314 0.60476 0.48316 0.0
H1671 H 0.22101 0.53345 0.47781 0.0
H1672 H 0.09356 0.43336 0.46796 0.0
H1673 H 0.06436 0.482 0.47081 0.0
C1674 C 0.1092 0.56469 0.47736 0.0
C1675 C 0.13678 0.60784 0.4806 0.0
C1676 C 0.12564 0.53611 0.47599 0.0
C1677 C 0.1808 0.62153 0.48276 0.0
C1678 C 0.19724 0.59309 0.48154 0.0
C1679 C 0.18677 0.52218 0.47639 0.0
C1680 C 0.15969 0.47988 0.4726 0.0
C1681 C 0.1701 0.55045 0.47804 0.0
C1682 C 0.11543 0.46596 0.47069 0.0
C1683 C 0.09856 0.49369 0.47239 0.0
H1684 H 0.49933 0.65258 0.47843 0.0
H1685 H 0.43376 0.71409 0.46476 0.0
H1686 H 0.36534 0.6436 0.46405 0.0
H1687 H 0.3251 0.56413 0.46696 0.0
H1688 H 0.38869 0.50351 0.48206 0.0
H1689 H 0.45707 0.57388 0.4827 0.0
C1690 C 0.4699 0.65017 0.4753 0.0
C1691 C 0.47121 0.68779 0.4715 0.0
C1692 C 0.4306 0.6099 0.47523 0.0
C1693 C 0.43307 0.68513 0.46764 0.0
C1694 C 0.39418 0.64499 0.46725 0.0
C1695 C 0.35395 0.56652 0.47043 0.0
C1696 C 0.35224 0.52891 0.47438 0.0
C1697 C 0.39266 0.60713 0.47096 0.0
C1698 C 0.38942 0.53224 0.479 0.0
C1699 C 0.42848 0.57234 0.47932 0.0
H1700 H 0.33722 0.8669 0.46753 0.0
H1701 H 0.29211 0.73268 0.47538 0.0
H1702 H 0.36721 0.75036 0.47879 0.0
H1703 H 0.44539 0.80404 0.47971 0.0
H1704 H 0.4909 0.93861 0.4719 0.0
H1705 H 0.41594 0.92077 0.46834 0.0
C1706 C 0.34398 0.8415 0.46986 0.0
C1707 C 0.30925 0.79856 0.47119 0.0
C1708 C 0.3872 0.85204 0.47191 0.0
C1709 C 0.31833 0.76604 0.47439 0.0
C1710 C 0.36122 0.77613 0.47633 0.0
C1711 C 0.43899 0.82958 0.47728 0.0
C1712 C 0.4738 0.87264 0.4761 0.0
C1713 C 0.39586 0.81908 0.47519 0.0
C1714 C 0.46477 0.9052 0.47289 0.0
C1715 C 0.4219 0.89502 0.47083 0.0
H1716 H 0.27474 0.46394 0.37637 0.0
H1717 H 0.32584 0.52994 0.34858 0.0
H1718 H 0.27339 0.55638 0.34877 0.0
H1719 H 0.21138 0.55859 0.35672 0.0
H1720 H 0.16578 0.49696 0.38526 0.0
H1721 H 0.21754 0.47094 0.38484 0.0
C1722 C 0.27421 0.4839 0.37032 0.0
C1723 C 0.30347 0.49434 0.36239 0.0
C1724 C 0.24489 0.49975 0.37061 0.0
C1725 C 0.30329 0.5212 0.35473 0.0
C1726 C 0.27337 0.53632 0.35485 0.0
C1727 C 0.21301 0.53996 0.36291 0.0
C1728 C 0.1836 0.52905 0.3709 0.0
C1729 C 0.24381 0.52563 0.36275 0.0
C1730 C 0.18671 0.50487 0.37884 0.0
C1731 C 0.21664 0.4901 0.37866 0.0
H1732 H 0.44552 0.77685 0.37253 0.0
H1733 H 0.57149 0.84734 0.35832 0.0
H1734 H 0.5756 0.78034 0.35739 0.0
H1735 H 0.54353 0.7013 0.36095 0.0
H1736 H 0.41508 0.63019 0.37384 0.0
H1737 H 0.41152 0.6976 0.37503 0.0
C1738 C 0.47382 0.77745 0.36922 0.0
C1739 C 0.50835 0.81696 0.36559 0.0
C1740 C 0.47549 0.73869 0.36854 0.0
C1741 C 0.54451 0.8173 0.36116 0.0
C1742 C 0.54695 0.77903 0.36067 0.0
C1743 C 0.51501 0.70098 0.36403 0.0
C1744 C 0.4798 0.66144 0.36741 0.0
C1745 C 0.51277 0.73959 0.3644 0.0
C1746 C 0.44246 0.66062 0.37124 0.0
C1747 C 0.44049 0.69901 0.37192 0.0
H1748 H 0.32138 0.87381 0.36842 0.0
H1749 H 0.37792 0.79411 0.36086 0.0
H1750 H 0.30478 0.73088 0.35848 0.0
H1751 H 0.22449 0.69773 0.35912 0.0
H1752 H 0.16878 0.77836 0.36678 0.0
H1753 H 0.24175 0.8415 0.36863 0.0
C1754 C 0.31769 0.84256 0.3663 0.0
C1755 C 0.35503 0.83865 0.36486 0.0
C1756 C 0.27562 0.80642 0.36499 0.0
C1757 C 0.34971 0.7981 0.36192 0.0
C1758 C 0.30789 0.76188 0.36062 0.0
C1759 C 0.22831 0.72914 0.36116 0.0
C1760 C 0.19107 0.73312 0.36285 0.0
C1761 C 0.27056 0.76557 0.36221 0.0
C1762 C 0.19672 0.77417 0.36546 0.0
C1763 C 0.23851 0.81041 0.36652 0.0
H1764 H 0.30385 0.35592 0.15447 0.0
H1765 H 0.37139 0.39985 0.18226 0.0
H1766 H 0.3064 0.3955 0.18988 0.0
H1767 H 0.22733 0.36857 0.18924 0.0
H1768 H 0.15748 0.31696 0.16191 0.0
H1769 H 0.2259 0.33562 0.15343 0.0
C1770 C 0.30439 0.3656 0.1621 0.0
C1771 C 0.34204 0.37818 0.16783 0.0
C1772 C 0.26625 0.3613 0.16652 0.0
C1773 C 0.34252 0.39 0.17776 0.0
C1774 C 0.30539 0.3874 0.18211 0.0
C1775 C 0.22742 0.36289 0.18135 0.0
C1776 C 0.18761 0.34181 0.17617 0.0
C1777 C 0.26659 0.37166 0.17666 0.0
C1778 C 0.18789 0.33344 0.16602 0.0
C1779 C 0.22694 0.34378 0.16119 0.0
H1780 H 0.71674 0.88339 0.16711 0.0
H1781 H 0.66014 0.87462 0.1959 0.0
H1782 H 0.6315 0.92131 0.1903 0.0
H1783 H 0.62927 0.97068 0.17773 0.0
H1784 H 0.68329 0.97788 0.1488 0.0
H1785 H 0.70587 0.92519 0.15383 0.0
C1786 C 0.6976 0.89125 0.1721 0.0
C1787 C 0.69094 0.8761 0.18193 0.0
C1788 C 0.68104 0.9179 0.16881 0.0
C1789 C 0.66565 0.88594 0.1883 0.0
C1790 C 0.64949 0.91281 0.18512 0.0
C1791 C 0.64541 0.96004 0.17252 0.0
C1792 C 0.65518 0.97816 0.16297 0.0
C1793 C 0.65798 0.92984 0.17548 0.0
C1794 C 0.67551 0.96406 0.15618 0.0
C1795 C 0.68861 0.93429 0.15909 0.0
H1796 H 0.17052 0.80886 0.18565 0.0
H1797 H 0.16367 0.89133 0.16295 0.0
H1798 H 0.11451 0.82716 0.15328 0.0
H1799 H 0.06416 0.74791 0.15258 0.0
H1800 H 0.06977 0.66447 0.17501 0.0
H1801 H 0.12898 0.72837 0.18345 0.0
C1802 C 0.15936 0.8128 0.17845 0.0
C1803 C 0.17031 0.85488 0.1751 0.0
C1804 C 0.13029 0.7755 0.17296 0.0
C1805 C 0.15546 0.85937 0.16576 0.0
C1806 C 0.12711 0.82265 0.16023 0.0
C1807 C 0.07931 0.74388 0.15918 0.0
C1808 C 0.06278 0.70198 0.16325 0.0
C1809 C 0.11285 0.78063 0.16396 0.0
C1810 C 0.08237 0.69661 0.17176 0.0
C1811 C 0.11588 0.73313 0.17661 0.0
H1812 H 0.30585 0.28571 0.35189 0.0
H1813 H 0.43114 0.35835 0.33774 0.0
H1814 H 0.42012 0.29145 0.32949 0.0
H1815 H 0.36979 0.21372 0.3248 0.0
H1816 H 0.24436 0.14281 0.33938 0.0
H1817 H 0.26046 0.20708 0.34901 0.0
C1818 C 0.33115 0.28637 0.34722 0.0
C1819 C 0.3692 0.32639 0.34542 0.0
C1820 C 0.32417 0.24816 0.34246 0.0
C1821 C 0.40186 0.32752 0.3393 0.0
C1822 C 0.39525 0.28942 0.33451 0.0
C1823 C 0.34638 0.21222 0.3302 0.0
C1824 C 0.30563 0.17356 0.33123 0.0
C1825 C 0.35582 0.24972 0.33579 0.0
C1826 C 0.27576 0.17213 0.33832 0.0
C1827 C 0.28489 0.20894 0.34386 0.0
H1828 H 0.73772 0.06288 0.35556 0.0
H1829 H 0.65307 0.0714 0.33387 0.0
H1830 H 0.71701 0.1265 0.32463 0.0
H1831 H 0.797 0.16356 0.32159 0.0
H1832 H 0.88057 0.15343 0.34351 0.0
H1833 H 0.81732 0.10837 0.35388 0.0
C1834 C 0.73348 0.07766 0.34892 0.0
C1835 C 0.6911 0.06308 0.34531 0.0
C1836 C 0.77022 0.10871 0.34366 0.0
C1837 C 0.68556 0.08243 0.33677 0.0
C1838 C 0.72209 0.11358 0.33146 0.0
C1839 C 0.80145 0.15244 0.32875 0.0
C1840 C 0.84344 0.16134 0.33169 0.0
C1841 C 0.76463 0.1258 0.33466 0.0
C1842 C 0.84863 0.14672 0.341 0.0
C1843 C 0.81243 0.12077 0.34694 0.0
H1844 H 0.86164 0.63538 0.31798 0.0
H1845 H 0.85554 0.71002 0.34253 0.0
H1846 H 0.90552 0.6948 0.352 0.0
H1847 H 0.95976 0.66967 0.35228 0.0
H1848 H 0.9704 0.60128 0.32711 0.0
H1849 H 0.90985 0.60409 0.31892 0.0
C1850 C 0.87016 0.64718 0.32552 0.0
C1851 C 0.85485 0.67377 0.32954 0.0
C1852 C 0.90039 0.63988 0.33075 0.0
C1853 C 0.86683 0.68942 0.33926 0.0
C1854 C 0.89568 0.68099 0.34466 0.0
C1855 C 0.94776 0.65443 0.34513 0.0
C1856 C 0.96892 0.63504 0.34027 0.0
C1857 C 0.91399 0.65768 0.34034 0.0
C1858 C 0.95411 0.61608 0.33093 0.0
C1859 C 0.91973 0.6179 0.32626 0.0
H1860 H 0.84717 0.7437 0.83948 0.0
H1861 H 0.80428 0.61874 0.82566 0.0
H1862 H 0.73029 0.59164 0.83219 0.0
H1863 H 0.67608 0.60638 0.84047 0.0
H1864 H 0.71896 0.73393 0.8527 0.0
H1865 H 0.79471 0.75727 0.84824 0.0
C1866 C 0.82191 0.71022 0.83806 0.0
C1867 C 0.83125 0.68319 0.83213 0.0
C1868 C 0.77928 0.69558 0.84148 0.0
C1869 C 0.79792 0.64014 0.83023 0.0
C1870 C 0.75558 0.62472 0.83392 0.0
C1871 C 0.70233 0.63892 0.84228 0.0
C1872 C 0.69238 0.66852 0.84691 0.0
C1873 C 0.74561 0.65252 0.83936 0.0
C1874 C 0.72621 0.71087 0.84911 0.0
C1875 C 0.76936 0.72414 0.84656 0.0
H1876 H 0.36666 0.14202 0.82071 0.0
H1877 H 0.26961 0.12746 0.84214 0.0
H1878 H 0.28485 0.07897 0.85202 0.0
H1879 H 0.31766 0.03198 0.85328 0.0
H1880 H 0.41238 0.0436 0.83176 0.0
H1881 H 0.40702 0.1023 0.82327 0.0
C1882 C 0.34966 0.12902 0.82766 0.0
C1883 C 0.31663 0.13779 0.83061 0.0
C1884 C 0.35805 0.10038 0.83326 0.0
C1885 C 0.29481 0.12075 0.83963 0.0
C1886 C 0.30344 0.09294 0.8453 0.0
C1887 C 0.33808 0.04866 0.84693 0.0
C1888 C 0.36565 0.03438 0.84315 0.0
C1889 C 0.33381 0.0813 0.84201 0.0
C1890 C 0.39149 0.05499 0.83481 0.0
C1891 C 0.38803 0.08809 0.82993 0.0
H1892 H 0.87338 0.15656 0.83977 0.0
H1893 H 0.8564 0.20489 0.81174 0.0
H1894 H 0.90688 0.27977 0.8169 0.0
H1895 H 0.96142 0.33105 0.82873 0.0
H1896 H 0.97683 0.28433 0.857 0.0
H1897 H 0.92121 0.20933 0.85249 0.0
C1898 C 0.88021 0.18356 0.83486 0.0
C1899 C 0.86145 0.17509 0.82534 0.0
C1900 C 0.90927 0.22676 0.8379 0.0
C1901 C 0.87032 0.21043 0.8191 0.0
C1902 C 0.89943 0.25331 0.82202 0.0
C1903 C 0.95206 0.30437 0.83391 0.0
C1904 C 0.97327 0.31273 0.84312 0.0
C1905 C 0.91994 0.26175 0.83129 0.0
C1906 C 0.96072 0.27835 0.84989 0.0
C1907 C 0.92918 0.23559 0.84728 0.0
H1908 H 0.67774 0.73013 0.64885 0.0
H1909 H 0.59782 0.64276 0.672 0.0
H1910 H 0.6074 0.70517 0.68187 0.0
H1911 H 0.64524 0.78523 0.68457 0.0
H1912 H 0.72702 0.87164 0.66141 0.0
H1913 H 0.70976 0.8091 0.65087 0.0
C1914 C 0.66235 0.72476 0.65605 0.0
C1915 C 0.63771 0.68197 0.65976 0.0
C1916 C 0.66839 0.7607 0.66168 0.0
C1917 C 0.61697 0.67539 0.66899 0.0
C1918 C 0.62263 0.71109 0.67465 0.0
C1919 C 0.65839 0.79032 0.67713 0.0
C1920 C 0.68752 0.83303 0.67379 0.0
C1921 C 0.64911 0.75401 0.67116 0.0
C1922 C 0.70467 0.83912 0.66417 0.0
C1923 C 0.69498 0.80336 0.65815 0.0
H1924 H 0.1711 0.91459 0.67444 0.0
H1925 H 0.22493 0.85073 0.69202 0.0
H1926 H 0.29667 0.89627 0.68431 0.0
H1927 H 0.34554 0.95864 0.67339 0.0
H1928 H 0.29161 0.02487 0.6569 0.0
H1929 H 0.21835 0.97385 0.66322 0.0
C1930 C 0.19836 0.91021 0.67652 0.0
C1931 C 0.19264 0.87931 0.68381 0.0
C1932 C 0.23955 0.93707 0.67222 0.0
C1933 C 0.22844 0.87432 0.68644 0.0
C1934 C 0.26949 0.90039 0.68204 0.0
C1935 C 0.31739 0.96102 0.67107 0.0
C1936 C 0.32341 0.99489 0.66464 0.0
C1937 C 0.27563 0.9324 0.67503 0.0
C1938 C 0.28724 0.99868 0.6618 0.0
C1939 C 0.24558 0.96972 0.66544 0.0
H1940 H 0.14786 0.36573 0.68894 0.0
H1941 H 0.14603 0.29165 0.66344 0.0
H1942 H 0.1 0.31391 0.65454 0.0
H1943 H 0.05046 0.3444 0.65508 0.0
H1944 H 0.04654 0.41173 0.68118 0.0
H1945 H 0.10487 0.40303 0.68877 0.0
C1946 C 0.13846 0.35561 0.68134 0.0
C1947 C 0.15014 0.32704 0.67685 0.0
C1948 C 0.11043 0.367 0.67643 0.0
C1949 C 0.13723 0.31356 0.66705 0.0
C1950 C 0.11076 0.3261 0.66197 0.0
C1951 C 0.06362 0.35827 0.66229 0.0
C1952 C 0.04491 0.37889 0.66759 0.0
C1953 C 0.09571 0.35134 0.66673 0.0
C1954 C 0.06105 0.39603 0.67701 0.0
C1955 C 0.09407 0.39078 0.68134 0.0
H1956 H 0.87165 0.68344 0.51998 0.0
H1957 H 0.79964 0.60743 0.49463 0.0
H1958 H 0.86817 0.62628 0.48619 0.0
H1959 H 0.94841 0.65648 0.48696 0.0
H1960 H 0.01885 0.72639 0.51296 0.0
H1961 H 0.95164 0.71853 0.52018 0.0
C1962 C 0.87098 0.6719 0.51252 0.0
C1963 C 0.83064 0.64404 0.50795 0.0
C1964 C 0.91043 0.68151 0.50787 0.0
C1965 C 0.83031 0.62887 0.49832 0.0
C1966 C 0.86949 0.63949 0.4935 0.0
C1967 C 0.94887 0.67082 0.49408 0.0
C1968 C 0.98815 0.6921 0.49945 0.0
C1969 C 0.90971 0.66461 0.49833 0.0
C1970 C 0.98873 0.70999 0.50875 0.0
C1971 C 0.95037 0.70533 0.51287 0.0
H1972 H 0.28084 0.28398 0.51033 0.0
H1973 H 0.34245 0.2992 0.48203 0.0
H1974 H 0.36351 0.2449 0.48668 0.0
H1975 H 0.37046 0.19882 0.49957 0.0
H1976 H 0.30544 0.18159 0.52762 0.0
H1977 H 0.27892 0.23027 0.5223 0.0
C1978 C 0.29823 0.27467 0.50516 0.0
C1979 C 0.31051 0.29547 0.49591 0.0
C1980 C 0.30967 0.24327 0.50787 0.0
C1981 C 0.33269 0.28328 0.48917 0.0
C1982 C 0.34487 0.25252 0.49186 0.0
C1983 C 0.3498 0.20511 0.50443 0.0
C1984 C 0.34024 0.18689 0.51401 0.0
C1985 C 0.33444 0.23308 0.5013 0.0
C1986 C 0.31319 0.19507 0.52021 0.0
C1987 C 0.29825 0.22318 0.5172 0.0
H1988 H 0.72131 0.04063 0.48827 0.0
H1989 H 0.6843 0.97015 0.5158 0.0
H1990 H 0.74436 0.03245 0.52435 0.0
H1991 H 0.79931 0.11061 0.5244 0.0
H1992 H 0.83001 0.18405 0.49724 0.0
H1993 H 0.78174 0.11733 0.48804 0.0
C1994 C 0.72749 0.03882 0.49607 0.0
C1995 C 0.69896 0.00127 0.50145 0.0
C1996 C 0.76083 0.0755 0.50098 0.0
C1997 C 0.70623 0.99902 0.51159 0.0
C1998 C 0.74036 0.0346 0.51645 0.0
C1999 C 0.7966 0.11158 0.51642 0.0
C2000 C 0.81834 0.15187 0.51146 0.0
C2001 C 0.76687 0.07357 0.5113 0.0
C2002 C 0.81372 0.15316 0.50116 0.0
C2003 C 0.78585 0.11512 0.49593 0.0
H2004 H 0.96002 0.50579 0.67574 0.0
H2005 H 0.04414 0.55115 0.65008 0.0
H2006 H 0.0773 0.62617 0.65598 0.0
H2007 H 0.0761 0.67976 0.66734 0.0
H2008 H 0.99379 0.63595 0.69314 0.0
H2009 H 0.96653 0.5594 0.68841 0.0
C2010 C 0.98615 0.53202 0.67154 0.0
C2011 C 0.99913 0.52289 0.66241 0.0
C2012 C 0.00515 0.57536 0.67497 0.0
C2013 C 0.03332 0.55719 0.6571 0.0
C2014 C 0.05223 0.60021 0.66045 0.0
C2015 C 0.05283 0.65327 0.672 0.0
C2016 C 0.03656 0.66304 0.6805 0.0
C2017 C 0.03745 0.60977 0.6692 0.0
C2018 C 0.00675 0.62887 0.68658 0.0
C2019 C 0.99099 0.58526 0.68382 0.0
H2020 H 0.44018 0.47068 0.64986 0.0
H2021 H 0.52276 0.48635 0.67485 0.0
H2022 H 0.45851 0.43651 0.68463 0.0
H2023 H 0.37968 0.38086 0.68529 0.0
H2024 H 0.29909 0.36019 0.65973 0.0
H2025 H 0.36123 0.41955 0.65092 0.0
C2026 C 0.44397 0.46418 0.65754 0.0
C2027 C 0.48607 0.48231 0.66166 0.0
C2028 C 0.40713 0.43397 0.66295 0.0
C2029 C 0.49061 0.47286 0.67154 0.0
C2030 C 0.45392 0.44415 0.67711 0.0
C2031 C 0.37591 0.39027 0.67787 0.0
C2032 C 0.33532 0.36679 0.67311 0.0
C2033 C 0.41218 0.42335 0.67278 0.0
C2034 C 0.33032 0.37826 0.66346 0.0
C2035 C 0.36576 0.41199 0.65845 0.0
H2036 H 0.51415 0.9749 0.65774 0.0
H2037 H 0.55396 0.08865 0.67609 0.0
H2038 H 0.60542 0.07384 0.68482 0.0
H2039 H 0.64615 0.03441 0.68581 0.0
H2040 H 0.60704 0.92013 0.66798 0.0
H2041 H 0.54813 0.92876 0.66052 0.0
C2042 C 0.53326 0.99572 0.66382 0.0
C2043 C 0.53051 0.03315 0.66616 0.0
C2044 C 0.56336 0.9872 0.66881 0.0
C2045 C 0.55562 0.05986 0.67405 0.0
C2046 C 0.58527 0.05155 0.67905 0.0
C2047 C 0.62394 0.01097 0.68045 0.0
C2048 C 0.63059 0.97685 0.67739 0.0
C2049 C 0.59049 0.01627 0.67626 0.0
C2050 C 0.60201 0.94644 0.67045 0.0
C2051 C 0.56866 0.95162 0.66616 0.0
H2052 H 0.3446 0.9549 0.17217 0.0
H2053 H 0.4066 0.0681 0.19095 0.0
H2054 H 0.47856 0.08628 0.18449 0.0
H2055 H 0.52197 0.07552 0.17195 0.0
H2056 H 0.46025 0.96506 0.1522 0.0
H2057 H 0.39014 0.9397 0.16061 0.0
C2058 C 0.37418 0.98264 0.17501 0.0
C2059 C 0.37091 0.01007 0.18205 0.0
C2060 C 0.41521 0.99367 0.17097 0.0
C2061 C 0.40894 0.04658 0.18559 0.0
C2062 C 0.44984 0.05706 0.18184 0.0
C2063 C 0.49335 0.04549 0.16957 0.0
C2064 C 0.49618 0.02249 0.1614 0.0
C2065 C 0.45316 0.03174 0.17428 0.0
C2066 C 0.45888 0.98347 0.15846 0.0
C2067 C 0.41874 0.96905 0.16324 0.0
H2068 H 0.0226 0.4836 0.15075 0.0
H2069 H 0.97135 0.50097 0.17824 0.0
H2070 H 0.98949 0.45033 0.1865 0.0
H2071 H 0.0125 0.39453 0.18543 0.0
H2072 H 0.05668 0.37247 0.15751 0.0
H2073 H 0.04926 0.43141 0.1499 0.0
C2074 C 0.01645 0.47716 0.1586 0.0
C2075 C 0.99598 0.49629 0.16389 0.0
C2076 C 0.02529 0.4466 0.1632 0.0
C2077 C 0.98728 0.48681 0.17402 0.0
C2078 C 0.99744 0.45766 0.17874 0.0
C2079 C 0.02127 0.40347 0.17774 0.0
C2080 C 0.03525 0.37957 0.17201 0.0
C2081 C 0.01535 0.4364 0.17334 0.0
C2082 C 0.04587 0.39062 0.16202 0.0
C2083 C 0.04154 0.42419 0.15768 0.0
H2084 H 0.56393 0.50577 0.17331 0.0
H2085 H 0.50461 0.54457 0.15045 0.0
H2086 H 0.54804 0.62051 0.15556 0.0
H2087 H 0.60911 0.67696 0.16517 0.0
H2088 H 0.66807 0.6399 0.18826 0.0
H2089 H 0.6184 0.5622 0.18453 0.0
C2090 C 0.5599 0.53075 0.16959 0.0
C2091 C 0.53152 0.51954 0.16141 0.0
C2092 C 0.58524 0.5747 0.17255 0.0
C2093 C 0.52645 0.55225 0.15671 0.0
C2094 C 0.55141 0.59581 0.1596 0.0
C2095 C 0.61039 0.65166 0.16946 0.0
C2096 C 0.64215 0.66362 0.17688 0.0
C2097 C 0.58186 0.60752 0.16728 0.0
C2098 C 0.64362 0.63103 0.18252 0.0
C2099 C 0.61547 0.5868 0.18035 0.0
H2100 H 0.27127 0.99805 0.00873 0.0
H2101 H 0.3567 0.04629 0.98351 0.0
H2102 H 0.37724 0.12174 0.98785 0.0
H2103 H 0.37887 0.17346 1.00036 0.0
H2104 H 0.29272 0.12407 0.02562 0.0
H2105 H 0.26359 0.04944 0.01966 0.0
C2106 C 0.29339 0.02521 0.00407 0.0
C2107 C 0.31278 0.01727 0.99587 0.0
C2108 C 0.30514 0.06806 0.00669 0.0
C2109 C 0.34139 0.05213 0.98981 0.0
C2110 C 0.35333 0.09507 0.99236 0.0
C2111 C 0.35303 0.14641 0.00443 0.0
C2112 C 0.33848 0.15418 0.0135 0.0
C2113 C 0.33667 0.10347 1.00101 0.0
C2114 C 0.30464 0.11894 0.01865 0.0
C2115 C 0.28813 0.07621 0.01528 0.0
H2116 H 0.87651 0.18558 0.02191 0.0
H2117 H 0.80738 0.18549 0.99559 0.0
H2118 H 0.8767 0.23194 0.98713 0.0
H2119 H 0.9568 0.28148 0.98807 0.0
H2120 H 0.02487 0.28586 0.01485 0.0
H2121 H 0.95682 0.2287 0.02222 0.0
C2122 C 0.87669 0.19477 0.01424 0.0
C2123 C 0.83691 0.18229 0.0094 0.0
C2124 C 0.9167 0.2228 0.00953 0.0
C2125 C 0.83762 0.19488 0.99949 0.0
C2126 C 0.87727 0.2216 0.99466 0.0
C2127 C 0.95665 0.26884 0.9954 0.0
C2128 C 0.99547 0.28765 1.00094 0.0
C2129 C 0.91701 0.23708 0.99971 0.0
C2130 C 0.99512 0.27175 0.0105 0.0
C2131 C 0.95625 0.23925 0.01471 0.0
H2132 H 0.80114 0.68086 0.02221 0.0
H2133 H 0.81403 0.62087 0.99565 0.0
H2134 H 0.76453 0.6391 0.98689 0.0
H2135 H 0.70971 0.66318 0.9875 0.0
H2136 H 0.69126 0.71565 0.01459 0.0
H2137 H 0.75081 0.70993 0.02244 0.0
C2138 C 0.79405 0.67295 0.01443 0.0
C2139 C 0.81125 0.64979 0.00955 0.0
C2140 C 0.764 0.68173 0.00959 0.0
C2141 C 0.80112 0.6388 0.99953 0.0
C2142 C 0.77267 0.64901 0.99454 0.0
C2143 C 0.7197 0.67423 0.99503 0.0
C2144 C 0.69662 0.68987 1.0005 0.0
C2145 C 0.75274 0.66913 0.99959 0.0
C2146 C 0.70889 0.70351 0.01031 0.0
C2147 C 0.74274 0.70012 0.01478 0.0
H2148 H 0.62161 0.00405 0.81962 0.0
H2149 H 0.69319 0.07744 0.84515 0.0
H2150 H 0.62572 0.06737 0.85272 0.0
H2151 H 0.54544 0.02584 0.85333 0.0
H2152 H 0.47322 0.94721 0.82828 0.0
H2153 H 0.54128 0.9715 0.81918 0.0
C2154 C 0.62231 0.01918 0.82664 0.0
C2155 C 0.66189 0.04158 0.83184 0.0
C2156 C 0.58308 0.01146 0.83111 0.0
C2157 C 0.66282 0.06035 0.84105 0.0
C2158 C 0.62426 0.05421 0.84539 0.0
C2159 C 0.54455 0.01504 0.84578 0.0
C2160 C 0.50443 0.9843 0.84154 0.0
C2161 C 0.58395 0.02803 0.8407 0.0
C2162 C 0.50378 0.97051 0.83175 0.0
C2163 C 0.54272 0.98428 0.82655 0.0
H2164 H 1.00103 0.61736 0.82363 0.0
H2165 H 0.95192 0.63615 0.8512 0.0
H2166 H 0.9592 0.57718 0.85885 0.0
H2167 H 0.98893 0.52726 0.85828 0.0
H2168 H 0.04537 0.51404 0.83115 0.0
H2169 H 0.02542 0.56286 0.82269 0.0
C2170 C 0.99095 0.60753 0.83123 0.0
C2171 C 0.97582 0.63062 0.83687 0.0
C2172 C 0.99696 0.57479 0.83566 0.0
C2173 C 0.96357 0.61853 0.84676 0.0
C2174 C 0.96789 0.585 0.85113 0.0
C2175 C 0.99564 0.53411 0.85044 0.0
C2176 C 0.0183 0.51695 0.84532 0.0
C2177 C 0.98584 0.5638 0.84575 0.0
C2178 C 0.0278 0.52685 0.83523 0.0
C2179 C 0.01662 0.55494 0.8304 0.0
H2180 H 0.49913 0.45271 0.85109 0.0
H2181 H 0.47265 0.52928 0.83026 0.0
H2182 H 0.42394 0.46343 0.82097 0.0
H2183 H 0.37941 0.38308 0.82046 0.0
H2184 H 0.40253 0.30617 0.84166 0.0
H2185 H 0.4623 0.37278 0.8491 0.0
C2186 C 0.48378 0.4551 0.84434 0.0
C2187 C 0.48908 0.49566 0.84141 0.0
C2188 C 0.45471 0.41686 0.8392 0.0
C2189 C 0.46877 0.4983 0.8327 0.0
C2190 C 0.44072 0.46065 0.82741 0.0
C2191 C 0.3987 0.38129 0.82651 0.0
C2192 C 0.38739 0.34047 0.83054 0.0
C2193 C 0.43201 0.41963 0.83084 0.0
C2194 C 0.4115 0.33768 0.83846 0.0
C2195 C 0.44528 0.37564 0.84272 0.0
H2196 H 0.6223 0.82221 0.00797 0.0
H2197 H 0.70349 0.87013 0.98191 0.0
H2198 H 0.72953 0.94528 0.98709 0.0
H2199 H 0.72078 0.997 0.99777 0.0
H2200 H 0.64146 0.95014 0.02396 0.0
H2201 H 0.6231 0.87487 0.02008 0.0
C2202 C 0.64653 0.84912 1.00356 0.0
C2203 C 0.6605 0.84059 0.99451 0.0
C2204 C 0.66114 0.89238 0.00655 0.0
C2205 C 0.69214 0.87575 0.9889 0.0
C2206 C 0.7068 0.91881 0.99181 0.0
C2207 C 0.70033 0.97021 1.0027 0.0
C2208 C 0.68212 0.97841 0.01107 0.0
C2209 C 0.69024 0.92742 1.00041 0.0
C2210 C 0.65575 0.94405 0.0175 0.0
C2211 C 0.64515 0.90121 0.01524 0.0
H2212 H 0.04146 0.71935 0.0184 0.0
H2213 H 0.97611 0.69499 0.9903 0.0
H2214 H 0.04315 0.75221 0.98254 0.0
H2215 H 0.12283 0.80096 0.9833 0.0
H2216 H 0.18989 0.81968 0.01109 0.0
H2217 H 0.12019 0.77382 0.01949 0.0
C2218 C 0.0419 0.72769 0.01066 0.0
C2219 C 0.00433 0.70339 0.00489 0.0
C2220 C 0.08108 0.7593 0.00619 0.0
C2221 C 0.00498 0.71353 0.99482 0.0
C2222 C 0.04325 0.74603 0.9904 0.0
C2223 C 0.12195 0.79596 0.99123 0.0
C2224 C 0.16125 0.81352 0.99658 0.0
C2225 C 0.08194 0.76801 0.99593 0.0
C2226 C 0.1599 0.80629 0.00683 0.0
C2227 C 0.12011 0.77995 0.01163 0.0
H2228 H 0.20738 0.3776 0.00621 0.0
H2229 H 0.18543 0.30531 0.97906 0.0
H2230 H 0.23452 0.27966 0.98465 0.0
H2231 H 0.2895 0.28395 0.99651 0.0
H2232 H 0.30986 0.35333 0.02391 0.0
H2233 H 0.25526 0.37376 0.01908 0.0
C2234 C 0.21285 0.35568 1.0016 0.0
C2235 C 0.19318 0.34371 0.9922 0.0
C2236 C 0.24101 0.34085 0.00489 0.0
C2237 C 0.20015 0.31495 0.98633 0.0
C2238 C 0.22842 0.30047 0.98949 0.0
C2239 C 0.2813 0.30297 1.00145 0.0
C2240 C 0.30362 0.31762 0.01048 0.0
C2241 C 0.24987 0.31413 0.99863 0.0
C2242 C 0.29279 0.34179 0.01693 0.0
C2243 C 0.26187 0.35361 0.01414 0.0
H2244 H 0.99508 0.2642 0.50433 0.0
H2245 H 0.04971 0.37859 0.52277 0.0
H2246 H 0.12361 0.39944 0.5171 0.0
H2247 H 0.1708 0.38984 0.50541 0.0
H2248 H 0.11622 0.27839 0.48587 0.0
H2249 H 0.04424 0.25101 0.49352 0.0
C2250 C 0.02352 0.29291 0.50726 0.0
C2251 C 0.01764 0.31976 0.51401 0.0
C2252 C 0.0656 0.30535 0.50368 0.0
C2253 C 0.0541 0.3575 0.51765 0.0
C2254 C 0.09608 0.36944 0.51436 0.0
C2255 C 0.14338 0.35914 0.50292 0.0
C2256 C 0.1488 0.33637 0.49502 0.0
C2257 C 0.10204 0.34435 0.50715 0.0
C2258 C 0.1129 0.29659 0.49193 0.0
C2259 C 0.07169 0.28105 0.49626 0.0
H2260 H 0.68797 0.821 0.48878 0.0
H2261 H 0.58221 0.78831 0.50929 0.0
H2262 H 0.59916 0.73797 0.51793 0.0
H2263 H 0.63705 0.69538 0.51815 0.0
H2264 H 0.74105 0.72579 0.49754 0.0
H2265 H 0.73242 0.78523 0.49046 0.0
C2266 C 0.6693 0.80361 0.49528 0.0
C2267 C 0.63351 0.80795 0.4983 0.0
C2268 C 0.67875 0.77404 0.50013 0.0
C2269 C 0.60967 0.78527 0.50674 0.0
C2270 C 0.61923 0.75634 0.51168 0.0
C2271 C 0.65852 0.7161 0.51231 0.0
C2272 C 0.68977 0.70701 0.50836 0.0
C2273 C 0.65263 0.74932 0.50822 0.0
C2274 C 0.71721 0.73305 0.5007 0.0
C2275 C 0.71197 0.7666 0.49664 0.0
H2276 H 0.20648 0.82161 0.50622 0.0
H2277 H 0.17024 0.86923 0.48054 0.0
H2278 H 0.21717 0.94432 0.48601 0.0
H2279 H 0.27484 0.99679 0.49709 0.0
H2280 H 0.31002 0.95078 0.52304 0.0
H2281 H 0.25696 0.87475 0.51859 0.0
C2282 C 0.20829 0.84842 0.50192 0.0
C2283 C 0.18522 0.83978 0.49292 0.0
C2284 C 0.2354 0.89179 0.50514 0.0
C2285 C 0.18763 0.87486 0.48748 0.0
C2286 C 0.21468 0.91791 0.49058 0.0
C2287 C 0.27008 0.96998 0.50183 0.0
C2288 C 0.29616 0.97889 0.51032 0.0
C2289 C 0.2396 0.92677 0.49923 0.0
C2290 C 0.28993 0.94433 0.5165 0.0
C2291 C 0.25991 0.90102 0.51391 0.0
H2292 H 0.0441 0.40178 0.31919 0.0
H2293 H 0.9278 0.31981 0.33593 0.0
H2294 H 0.93612 0.38396 0.34498 0.0
H2295 H 0.98245 0.46258 0.3494 0.0
H2296 H 0.09846 0.54316 0.33211 0.0
H2297 H 0.08416 0.4808 0.32195 0.0
C2298 C 0.02011 0.39839 0.32466 0.0
C2299 C 0.98554 0.3566 0.32694 0.0
C2300 C 0.02542 0.43513 0.32981 0.0
C2301 C 0.95443 0.35199 0.33403 0.0
C2302 C 0.9595 0.38855 0.33925 0.0
C2303 C 0.00409 0.46656 0.3433 0.0
C2304 C 0.04187 0.50741 0.34165 0.0
C2305 C 0.99572 0.43021 0.33741 0.0
C2306 C 0.06943 0.51208 0.33366 0.0
C2307 C 0.06136 0.47638 0.32782 0.0
H2308 H 0.49777 0.53709 0.33088 0.0
H2309 H 0.56068 0.51829 0.35626 0.0
H2310 H 0.63231 0.56331 0.34857 0.0
H2311 H 0.67765 0.61605 0.33548 0.0
H2312 H 0.61342 0.63398 0.31025 0.0
H2313 H 0.5422 0.58143 0.31697 0.0
C2314 C 0.52708 0.54211 0.33465 0.0
C2315 C 0.52383 0.52468 0.34416 0.0
C2316 C 0.56819 0.56855 0.33025 0.0
C2317 C 0.56217 0.5313 0.34891 0.0
C2318 C 0.60326 0.55735 0.34455 0.0
C2319 C 0.64806 0.60767 0.33139 0.0
C2320 C 0.65084 0.62972 0.3225 0.0
C2321 C 0.60681 0.57735 0.33535 0.0
C2322 C 0.61217 0.61843 0.31725 0.0
C2323 C 0.57135 0.5882 0.32106 0.0
H2324 H 0.37864 0.00744 0.32225 0.0
H2325 H 0.35495 0.05409 0.34964 0.0
H2326 H 0.41531 0.05005 0.35754 0.0
H2327 H 0.46984 0.02657 0.35708 0.0
H2328 H 0.48845 0.97169 0.33031 0.0
H2329 H 0.43584 0.98607 0.32165 0.0
C2330 C 0.38741 0.01728 0.32989 0.0
C2331 C 0.3628 0.03113 0.3354 0.0
C2332 C 0.42115 0.01328 0.33447 0.0
C2333 C 0.37363 0.04326 0.34533 0.0
C2334 C 0.40805 0.04095 0.34982 0.0
C2335 C 0.46322 0.0188 0.34928 0.0
C2336 C 0.48336 0.99862 0.3443 0.0
C2337 C 0.43145 0.02518 0.34452 0.0
C2338 C 0.47357 0.98759 0.33427 0.0
C2339 C 0.4433 0.99556 0.32934 0.0
H2340 H 0.00974 0.30487 0.26938 0.0
H2341 H 0.90023 0.17641 0.26373 0.0
H2342 H 0.91511 0.18622 0.24598 0.0
H2343 H 0.96353 0.22771 0.23233 0.0
H2344 H 0.0761 0.35444 0.23775 0.0
H2345 H 0.05532 0.3496 0.25522 0.0
C2346 C 0.9887 0.27956 0.26421 0.0
C2347 C 0.954 0.23991 0.26782 0.0
C2348 C 0.99821 0.28503 0.25398 0.0
C2349 C 0.92717 0.20708 0.26109 0.0
C2350 C 0.93574 0.21265 0.25096 0.0
C2351 C 0.98337 0.25447 0.23732 0.0
C2352 C 0.02164 0.29112 0.23376 0.0
C2353 C 0.97188 0.25089 0.24736 0.0
C2354 C 0.04644 0.3259 0.24028 0.0
C2355 C 0.03475 0.32295 0.25029 0.0
H2356 H 0.69892 0.74358 0.23897 0.0
H2357 H 0.78999 0.70825 0.22681 0.0
H2358 H 0.80148 0.68667 0.24319 0.0
H2359 H 0.79351 0.68767 0.26127 0.0
H2360 H 0.70353 0.72372 0.27355 0.0
H2361 H 0.683 0.73442 0.25687 0.0
C2362 C 0.72031 0.73001 0.23987 0.0
C2363 C 0.74412 0.72822 0.23171 0.0
C2364 C 0.72719 0.7181 0.24936 0.0
C2365 C 0.77192 0.71074 0.23301 0.0
C2366 C 0.77851 0.69837 0.24237 0.0
C2367 C 0.76847 0.69657 0.26022 0.0
C2368 C 0.74971 0.70465 0.26851 0.0
C2369 C 0.75755 0.70338 0.25065 0.0
C2370 C 0.71786 0.71688 0.26719 0.0
C2371 C 0.70645 0.72332 0.25768 0.0
H2372 H 0.31315 0.01195 0.23769 0.0
H2373 H 0.17639 0.92022 0.24268 0.0
H2374 H 0.18638 0.93358 0.26044 0.0
H2375 H 0.2318 0.97535 0.27428 0.0
H2376 H 0.36894 0.0676 0.26984 0.0
H2377 H 0.36084 0.0504 0.25213 0.0
C2378 C 0.28583 0.99442 0.24271 0.0
C2379 C 0.24399 0.96539 0.23887 0.0
C2380 C 0.29169 0.00275 0.25298 0.0
C2381 C 0.20876 0.94309 0.24544 0.0
C2382 C 0.21444 0.9507 0.2556 0.0
C2383 C 0.2604 0.99101 0.26954 0.0
C2384 C 0.30103 0.02264 0.27348 0.0
C2385 C 0.2555 0.98105 0.25942 0.0
C2386 C 0.33716 0.0434 0.26706 0.0
C2387 C 0.33258 0.03344 0.25692 0.0
H2388 H 0.04951 0.75044 0.77551 0.0
H2389 H 0.91082 0.66779 0.77105 0.0
H2390 H 0.92218 0.66849 0.75315 0.0
H2391 H 0.97102 0.69984 0.73867 0.0
H2392 H 0.10996 0.78066 0.74319 0.0
H2393 H 0.09936 0.77297 0.76114 0.0
C2394 C 0.02198 0.73186 0.77061 0.0
C2395 C 0.9794 0.70922 0.77455 0.0
C2396 C 0.02884 0.73234 0.76034 0.0
C2397 C 0.94388 0.68518 0.76817 0.0
C2398 C 0.95037 0.68586 0.75793 0.0
C2399 C 0.99897 0.71492 0.74361 0.0
C2400 C 0.04119 0.74089 0.73964 0.0
C2401 C 0.99258 0.71032 0.75392 0.0
C2402 C 0.07722 0.76023 0.74608 0.0
C2403 C 0.07112 0.75615 0.75634 0.0
H2404 H 0.34034 0.27907 0.76529 0.0
H2405 H 0.21268 0.2451 0.77651 0.0
H2406 H 0.19005 0.25451 0.76014 0.0
H2407 H 0.20461 0.26873 0.74252 0.0
H2408 H 0.33116 0.30288 0.73076 0.0
H2409 H 0.35645 0.2979 0.74741 0.0
C2410 C 0.30772 0.27397 0.76411 0.0
C2411 C 0.27839 0.2617 0.77213 0.0
C2412 C 0.29473 0.27959 0.75459 0.0
C2413 C 0.23618 0.25526 0.77052 0.0
C2414 C 0.22305 0.2604 0.76114 0.0
C2415 C 0.23785 0.27539 0.74362 0.0
C2416 C 0.26589 0.28581 0.73545 0.0
C2417 C 0.25184 0.27215 0.75313 0.0
C2418 C 0.30906 0.29497 0.73697 0.0
C2419 C 0.32336 0.29177 0.74647 0.0
H2420 H 0.73328 0.0424 0.76635 0.0
H2421 H 0.72137 0.92131 0.77669 0.0
H2422 H 0.70648 0.89233 0.7599 0.0
H2423 H 0.70585 0.90463 0.74202 0.0
H2424 H 0.71632 0.02444 0.73144 0.0
H2425 H 0.72215 0.05056 0.74851 0.0
C2426 C 0.72629 0.0093 0.76495 0.0
C2427 C 0.72926 0.98439 0.77274 0.0
C2428 C 0.71792 0.99277 0.75521 0.0
C2429 C 0.72017 0.94151 0.7708 0.0
C2430 C 0.71164 0.92486 0.7612 0.0
C2431 C 0.70841 0.93601 0.74351 0.0
C2432 C 0.71069 0.96269 0.73558 0.0
C2433 C 0.7119 0.9507 0.75331 0.0
C2434 C 0.71421 0.00337 0.7375 0.0
C2435 C 0.71782 0.01834 0.74724 0.0
H2436 H 0.56617 0.54394 0.5938 0.0
H2437 H 0.67982 0.65476 0.60616 0.0
H2438 H 0.71194 0.67707 0.58958 0.0
H2439 H 0.712 0.65773 0.5719 0.0
H2440 H 0.59803 0.54533 0.55994 0.0
H2441 H 0.56134 0.53125 0.57591 0.0
C2442 C 0.59734 0.57372 0.59278 0.0
C2443 C 0.62068 0.59784 0.60108 0.0
C2444 C 0.61575 0.58564 0.5833 0.0
C2445 C 0.66122 0.63609 0.59979 0.0
C2446 C 0.6797 0.64853 0.59034 0.0
C2447 C 0.67873 0.63097 0.57277 0.0
C2448 C 0.65794 0.60217 0.56483 0.0
C2449 C 0.65797 0.62258 0.58207 0.0
C2450 C 0.61483 0.5675 0.56601 0.0
C2451 C 0.59386 0.55938 0.57514 0.0
H2452 H 0.38041 0.00139 0.60082 0.0
H2453 H 0.45932 0.13827 0.60796 0.0
H2454 H 0.45812 0.15788 0.59072 0.0
H2455 H 0.43559 0.13667 0.57357 0.0
H2456 H 0.35399 1.00076 0.56608 0.0
H2457 H 0.35477 0.98014 0.58343 0.0
C2458 C 0.3972 0.03541 0.59856 0.0
C2459 C 0.41979 0.06835 0.60566 0.0
C2460 C 0.39581 0.04663 0.58857 0.0
C2461 C 0.44132 0.11237 0.60265 0.0
C2462 C 0.44079 0.12363 0.59279 0.0
C2463 C 0.41804 0.10251 0.57574 0.0
C2464 C 0.39515 0.07024 0.56856 0.0
C2465 C 0.41827 0.09111 0.58569 0.0
C2466 C 0.37185 0.02617 0.57149 0.0
C2467 C 0.37246 0.01441 0.5814 0.0
H2468 H 0.90345 0.3842 0.60084 0.0
H2469 H 0.97237 0.31798 0.60992 0.0
H2470 H 0.96901 0.29189 0.59293 0.0
H2471 H 0.94396 0.28615 0.57547 0.0
H2472 H 0.875 0.35324 0.5669 0.0
H2473 H 0.88057 0.38031 0.58369 0.0
C2474 C 0.91761 0.3639 0.59912 0.0
C2475 C 0.9377 0.35266 0.60665 0.0
C2476 C 0.91541 0.34903 0.5894 0.0
C2477 C 0.9568 0.32719 0.60424 0.0
C2478 C 0.95464 0.31206 0.59454 0.0
C2479 C 0.93017 0.30664 0.57731 0.0
C2480 C 0.90934 0.31785 0.5699 0.0
C2481 C 0.93359 0.32241 0.58706 0.0
C2482 C 0.89182 0.34466 0.5724 0.0
C2483 C 0.89477 0.36002 0.58202 0.0
H2484 H 0.73152 0.07697 0.07277 0.0
H2485 H 0.60499 0.05523 0.06368 0.0
H2486 H 0.57812 0.03643 0.08062 0.0
H2487 H 0.59286 0.03425 0.09824 0.0
H2488 H 0.71915 0.05598 0.10755 0.0
H2489 H 0.7436 0.06634 0.09034 0.0
C2490 C 0.69783 0.06718 0.07447 0.0
C2491 C 0.6705 0.06808 0.06699 0.0
C2492 C 0.68262 0.05687 0.0843 0.0
C2493 C 0.62693 0.05553 0.06933 0.0
C2494 C 0.61149 0.04471 0.07902 0.0
C2495 C 0.62536 0.04009 0.09651 0.0
C2496 C 0.65419 0.04479 0.10423 0.0
C2497 C 0.63938 0.04645 0.08661 0.0
C2498 C 0.69644 0.05297 0.1018 0.0
C2499 C 0.71046 0.05882 0.09194 0.0
H2500 H 0.86444 0.58569 0.07359 0.0
H2501 H 1.0005 0.65411 0.06528 0.0
H2502 H 0.02138 0.65181 0.08256 0.0
H2503 H 0.99983 0.6266 0.10003 0.0
H2504 H 0.86252 0.55644 0.10753 0.0
H2505 H 0.8433 0.56239 0.09057 0.0
C2506 C 0.89874 0.60014 0.07555 0.0
C2507 C 0.93085 0.61959 0.06816 0.0
C2508 C 0.91023 0.59791 0.08536 0.0
C2509 C 0.97516 0.63905 0.07085 0.0
C2510 C 0.98703 0.63735 0.08071 0.0
C2511 C 0.9658 0.61256 0.0979 0.0
C2512 C 0.93268 0.59136 0.10507 0.0
C2513 C 0.95474 0.61616 0.08802 0.0
C2514 C 0.88868 0.57346 0.10222 0.0
C2515 C 0.87758 0.57674 0.0925 0.0
H2516 H 0.42266 0.37773 0.0694 0.0
H2517 H 0.35006 0.23814 0.07356 0.0
H2518 H 0.3542 0.24791 0.09155 0.0
H2519 H 0.38493 0.29641 0.10609 0.0
H2520 H 0.45452 0.43601 0.10193 0.0
H2521 H 0.44495 0.42632 0.08397 0.0
C2522 C 0.40707 0.3496 0.07428 0.0
C2523 C 0.38617 0.30732 0.07022 0.0
C2524 C 0.40938 0.35554 0.08459 0.0
C2525 C 0.36601 0.27097 0.07655 0.0
C2526 C 0.36866 0.27656 0.08682 0.0
C2527 C 0.39719 0.32456 0.10122 0.0
C2528 C 0.42043 0.36682 0.10524 0.0
C2529 C 0.39116 0.31866 0.09093 0.0
C2530 C 0.4363 0.40322 0.09894 0.0
C2531 C 0.43104 0.39767 0.0887 0.0
H2532 H 0.34693 0.87098 0.93689 0.0
H2533 H 0.30592 0.9677 0.93781 0.0
H2534 H 0.32274 0.98208 0.92022 0.0
H2535 H 0.34814 0.96559 0.90429 0.0
H2536 H 0.40097 0.87852 0.90522 0.0
H2537 H 0.38288 0.86442 0.92259 0.0
C2538 C 0.34311 0.89676 0.93359 0.0
C2539 C 0.32524 0.91822 0.93904 0.0
C2540 C 0.35528 0.9069 0.92367 0.0
C2541 C 0.31877 0.94963 0.934 0.0
C2542 C 0.32893 0.9584 0.92388 0.0
C2543 C 0.35635 0.94417 0.90835 0.0
C2544 C 0.37427 0.92176 0.90328 0.0
C2545 C 0.34709 0.93702 0.9186 0.0
C2546 C 0.38537 0.89473 0.90875 0.0
C2547 C 0.37528 0.88675 0.91873 0.0
H2548 H 0.01531 0.41732 0.90746 0.0
H2549 H 0.0851 0.35188 0.89859 0.0
H2550 H 0.08981 0.33352 0.91586 0.0
H2551 H 0.0827 0.34472 0.93362 0.0
H2552 H 0.01878 0.41591 0.94252 0.0
H2553 H 0.00251 0.42291 0.92522 0.0
C2554 C 0.03044 0.39802 0.90932 0.0
C2555 C 0.04962 0.38571 0.9018 0.0
C2556 C 0.03443 0.38902 0.91931 0.0
C2557 C 0.06998 0.3615 0.90429 0.0
C2558 C 0.07285 0.3512 0.91415 0.0
C2559 C 0.06413 0.36063 0.93175 0.0
C2560 C 0.05165 0.37952 0.9393 0.0
C2561 C 0.05642 0.36597 0.92175 0.0
C2562 C 0.02846 0.40095 0.93681 0.0
C2563 C 0.01939 0.40515 0.92692 0.0
H2564 H 0.62492 0.64198 0.93846 0.0
H2565 H 0.58498 0.73772 0.93371 0.0
H2566 H 0.58037 0.72438 0.91594 0.0
H2567 H 0.58143 0.68165 0.90205 0.0
H2568 H 0.62157 0.58562 0.9062 0.0
H2569 H 0.63161 0.60234 0.92393 0.0
C2570 C 0.61596 0.6603 0.93348 0.0
C2571 C 0.60498 0.69054 0.93736 0.0
C2572 C 0.61273 0.65197 0.92321 0.0
C2573 C 0.59315 0.714 0.93087 0.0
C2574 C 0.59046 0.70636 0.92073 0.0
C2575 C 0.59349 0.66502 0.90673 0.0
C2576 C 0.60087 0.6325 0.90272 0.0
C2577 C 0.59929 0.67484 0.91685 0.0
C2578 C 0.61516 0.6105 0.90906 0.0
C2579 C 0.62114 0.62021 0.9192 0.0
H2580 H 0.3395 0.37232 0.40269 0.0
H2581 H 0.42764 0.5091 0.4085 0.0
H2582 H 0.409 0.49775 0.42602 0.0
H2583 H 0.36377 0.45093 0.43938 0.0
H2584 H 0.27586 0.31353 0.43411 0.0
H2585 H 0.29784 0.32332 0.4167 0.0
C2586 C 0.35509 0.39937 0.40784 0.0
C2587 C 0.38458 0.44159 0.40428 0.0
C2588 C 0.34382 0.3927 0.41797 0.0
C2589 C 0.40439 0.47643 0.41103 0.0
C2590 C 0.39377 0.46998 0.42105 0.0
C2591 C 0.35004 0.42271 0.43453 0.0
C2592 C 0.31812 0.38151 0.43814 0.0
C2593 C 0.36292 0.4285 0.42457 0.0
C2594 C 0.30004 0.34579 0.43157 0.0
C2595 C 0.31279 0.35132 0.4216 0.0
H2596 H 0.64918 0.97056 0.40393 0.0
H2597 H 0.53278 0.97945 0.40853 0.0
H2598 H 0.53632 0.96876 0.42622 0.0
H2599 H 0.56699 0.94821 0.44009 0.0
H2600 H 0.68112 0.93563 0.43566 0.0
H2601 H 0.68416 0.95668 0.41825 0.0
C2602 C 0.62476 0.97044 0.40882 0.0
C2603 C 0.59052 0.97543 0.40484 0.0
C2604 C 0.62638 0.96328 0.41902 0.0
C2605 C 0.55972 0.97612 0.41133 0.0
C2606 C 0.56145 0.96958 0.42147 0.0
C2607 C 0.59282 0.95056 0.43532 0.0
C2608 C 0.62344 0.93985 0.4391 0.0
C2609 C 0.59382 0.96185 0.42534 0.0
C2610 C 0.65722 0.94377 0.43292 0.0
C2611 C 0.65873 0.95546 0.42295 0.0
H2612 H 0.03259 0.61068 0.43826 0.0
H2613 H 0.08648 0.74954 0.43465 0.0
H2614 H 0.076 0.74028 0.41675 0.0
H2615 H 0.06009 0.69373 0.402 0.0
H2616 H 0.00471 0.55477 0.40548 0.0
H2617 H 0.0063 0.56265 0.42353 0.0
C2618 C 0.04124 0.63871 0.43354 0.0
C2619 C 0.06052 0.68076 0.43774 0.0
C2620 C 0.03492 0.63307 0.42324 0.0
C2621 C 0.07138 0.71685 0.43159 0.0
C2622 C 0.06563 0.7116 0.42135 0.0
C2623 C 0.04718 0.66512 0.40673 0.0
C2624 C 0.03218 0.62374 0.40247 0.0
C2625 C 0.04855 0.67004 0.41707 0.0
C2626 C 0.01586 0.58683 0.40863 0.0
C2627 C 0.01725 0.59144 0.41893 0.0
loop_
_geom_bond_atom_site_label_1
_geom_bond_atom_site_label_2
_geom_bond_distance
_geom_bond_site_symmetry_2
_ccdc_geom_bond_type
Co0 N4 2.148 . S
Co0 N10 2.128 . S
Co0 N20 2.194 . S
Co0 O25 2.351 . S
Co0 O26 2.155 . S
Co0 O27 2.096 . S
C1 N4 1.301 . S
C1 N5 1.328 . S
C1 H6 0.930 . S
C2 C3 1.333 1_455 S
C2 N4 1.317 . S
C2 H7 0.930 1_455 S
C3 C2 1.333 1_655 S
C3 N5 1.350 1_655 S
C3 H29 0.931 . S
N4 Co0 2.148 . S
N4 C1 1.301 . S
N4 C2 1.317 . S
N5 C1 1.328 . S
N5 C3 1.350 1_455 S
H6 C1 0.930 . S
H7 C2 0.930 1_655 S
C8 O9 1.224 1_455 S
C8 O27 1.247 . S
O9 C8 1.224 1_655 S
N10 Co0 2.128 . S
N10 C11 1.355 . S
N10 C13 1.311 . S
C11 N10 1.355 . S
C11 C12 1.363 . S
C11 H23 0.929 . S
C12 C11 1.363 . S
C12 N14 1.375 . S
C12 H30 0.931 . S
C13 N10 1.311 . S
C13 N14 1.347 . S
C13 H24 0.929 . S
N14 C12 1.375 . S
N14 C13 1.347 . S
C15 C18 1.365 . S
C15 N20 1.328 . S
C15 H21 0.929 . S
C16 C17 1.362 . S
C16 C19 1.378 . S
C16 H31 0.929 . S
C17 C16 1.362 . S
C17 C18 1.366 . S
C18 C15 1.365 . S
C18 C17 1.366 . S
C18 H32 0.930 . S
C19 C16 1.378 . S
C19 N20 1.315 . S
C19 H22 0.930 . S
N20 Co0 2.194 . S
N20 C15 1.328 . S
N20 C19 1.315 . S
H21 C15 0.929 . S
H22 C19 0.930 . S
H23 C11 0.929 . S
H24 C13 0.929 . S
O25 Co0 2.351 . S
O25 C28 1.244 . S
O26 Co0 2.155 . S
O26 C28 1.240 . S
O27 Co0 2.096 . S
O27 C8 1.247 . S
C28 O25 1.244 . S
C28 O26 1.240 . S
H29 C3 0.931 . S
H30 C12 0.931 . S
H31 C16 0.929 . S
H32 C18 0.930 . S
Co33 N37 2.148 . S
Co33 N43 2.128 . S
Co33 N53 2.194 . S
Co33 O58 2.351 . S
Co33 O59 2.155 . S
Co33 O60 2.096 . S
C34 N37 1.301 . S
C34 N38 1.328 . S
C34 H39 0.930 . S
C35 C36 1.333 . S
C35 N37 1.317 . S
C35 H40 0.930 . S
C36 C35 1.333 . S
C36 N38 1.350 . S
C36 H62 0.931 . S
N37 Co33 2.148 . S
N37 C34 1.301 . S
N37 C35 1.317 . S
N38 C34 1.328 . S
N38 C36 1.350 . S
H39 C34 0.930 . S
H40 C35 0.930 . S
C41 O42 1.224 . S
C41 O60 1.247 . S
O42 C41 1.224 . S
N43 Co33 2.128 . S
N43 C44 1.355 . S
N43 C46 1.311 . S
C44 N43 1.355 . S
C44 C45 1.363 . S
C44 H56 0.929 . S
C45 C44 1.363 . S
C45 N47 1.375 . S
C45 H63 0.931 . S
C46 N43 1.311 . S
C46 N47 1.347 . S
C46 H57 0.929 . S
N47 C45 1.375 . S
N47 C46 1.347 . S
C48 C51 1.365 . S
C48 N53 1.328 . S
C48 H54 0.929 . S
C49 C50 1.362 . S
C49 C52 1.378 . S
C49 H64 0.929 . S
C50 C49 1.362 . S
C50 C51 1.366 . S
C51 C48 1.365 . S
C51 C50 1.366 . S
C51 H65 0.930 . S
C52 C49 1.378 . S
C52 N53 1.315 . S
C52 H55 0.930 . S
N53 Co33 2.194 . S
N53 C48 1.328 . S
N53 C52 1.315 . S
H54 C48 0.929 . S
H55 C52 0.930 . S
H56 C44 0.929 . S
H57 C46 0.929 . S
O58 Co33 2.351 . S
O58 C61 1.244 . S
O59 Co33 2.155 . S
O59 C61 1.240 . S
O60 Co33 2.096 . S
O60 C41 1.247 . S
C61 O58 1.244 . S
C61 O59 1.240 . S
H62 C36 0.931 . S
H63 C45 0.931 . S
H64 C49 0.929 . S
H65 C51 0.930 . S
Co66 N70 2.148 . S
Co66 N76 2.128 . S
Co66 N86 2.194 . S
Co66 O91 2.351 . S
Co66 O92 2.155 . S
Co66 O93 2.096 . S
C67 N70 1.301 . S
C67 N71 1.328 . S
C67 H72 0.930 . S
C68 C69 1.333 1_565 S
C68 N70 1.317 . S
C68 H73 0.930 1_565 S
C69 C68 1.333 1_545 S
C69 N71 1.350 1_545 S
C69 H95 0.931 . S
N70 Co66 2.148 . S
N70 C67 1.301 . S
N70 C68 1.317 . S
N71 C67 1.328 . S
N71 C69 1.350 1_565 S
H72 C67 0.930 . S
H73 C68 0.930 1_545 S
C74 O75 1.226 1_565 S
C74 O93 1.247 . S
O75 C74 1.226 1_545 S
N76 Co66 2.128 . S
N76 C77 1.355 . S
N76 C79 1.311 . S
C77 N76 1.355 . S
C77 C78 1.363 . S
C77 H89 0.929 . S
C78 C77 1.363 . S
C78 N80 1.375 . S
C78 H96 0.931 . S
C79 N76 1.311 . S
C79 N80 1.347 . S
C79 H90 0.929 . S
N80 C78 1.375 . S
N80 C79 1.347 . S
C81 C84 1.365 . S
C81 N86 1.328 . S
C81 H87 0.929 . S
C82 C83 1.362 . S
C82 C85 1.378 . S
C82 H97 0.929 . S
C83 C82 1.362 . S
C83 C84 1.366 . S
C84 C81 1.365 . S
C84 C83 1.366 . S
C84 H98 0.930 . S
C85 C82 1.378 . S
C85 N86 1.315 . S
C85 H88 0.930 . S
N86 Co66 2.194 . S
N86 C81 1.328 . S
N86 C85 1.315 . S
H87 C81 0.929 . S
H88 C85 0.930 . S
H89 C77 0.929 . S
H90 C79 0.929 . S
O91 Co66 2.351 . S
O91 C94 1.244 . S
O92 Co66 2.155 . S
O92 C94 1.240 . S
O93 Co66 2.096 . S
O93 C74 1.247 . S
C94 O91 1.244 . S
C94 O92 1.240 . S
H95 C69 0.931 . S
H96 C78 0.931 . S
H97 C82 0.929 . S
H98 C84 0.930 . S
Co99 N103 2.148 . S
Co99 N109 2.128 . S
Co99 N119 2.194 . S
Co99 O124 2.351 . S
Co99 O125 2.155 . S
Co99 O126 2.096 . S
C100 N103 1.301 . S
C100 N104 1.328 . S
C100 H105 0.930 . S
C101 C102 1.333 1_545 S
C101 N103 1.317 . S
C101 H106 0.930 1_545 S
C102 C101 1.333 1_565 S
C102 N104 1.350 1_565 S
C102 H128 0.931 . S
N103 Co99 2.148 . S
N103 C100 1.301 . S
N103 C101 1.317 . S
N104 C100 1.328 . S
N104 C102 1.350 1_545 S
H105 C100 0.930 . S
H106 C101 0.930 1_565 S
C107 O108 1.224 1_545 S
C107 O126 1.247 . S
O108 C107 1.224 1_565 S
N109 Co99 2.128 . S
N109 C110 1.355 . S
N109 C112 1.311 . S
C110 N109 1.355 . S
C110 C111 1.363 . S
C110 H122 0.929 . S
C111 C110 1.363 . S
C111 N113 1.375 . S
C111 H129 0.931 . S
C112 N109 1.311 . S
C112 N113 1.347 . S
C112 H123 0.929 . S
N113 C111 1.375 . S
N113 C112 1.347 . S
C114 C117 1.365 . S
C114 N119 1.328 . S
C114 H120 0.929 . S
C115 C116 1.362 . S
C115 C118 1.378 . S
C115 H130 0.929 . S
C116 C115 1.362 . S
C116 C117 1.366 . S
C117 C114 1.365 . S
C117 C116 1.366 . S
C117 H131 0.930 . S
C118 C115 1.378 . S
C118 N119 1.315 . S
C118 H121 0.930 . S
N119 Co99 2.194 . S
N119 C114 1.328 . S
N119 C118 1.315 . S
H120 C114 0.929 . S
H121 C118 0.930 . S
H122 C110 0.929 . S
H123 C112 0.929 . S
O124 Co99 2.351 . S
O124 C127 1.244 . S
O125 Co99 2.155 . S
O125 C127 1.240 . S
O126 Co99 2.096 . S
O126 C107 1.247 . S
C127 O124 1.244 . S
C127 O125 1.240 . S
H128 C102 0.931 . S
H129 C111 0.931 . S
H130 C115 0.929 . S
H131 C117 0.930 . S
Co132 N136 2.148 . S
Co132 N142 2.128 . S
Co132 N152 2.194 . S
Co132 O157 2.351 . S
Co132 O158 2.155 . S
Co132 O159 2.096 . S
C133 N136 1.301 . S
C133 N137 1.328 . S
C133 H138 0.930 . S
C134 C135 1.333 1_655 S
C134 N136 1.317 . S
C134 H139 0.930 1_655 S
C135 C134 1.333 1_455 S
C135 N137 1.350 1_455 S
C135 H161 0.931 . S
N136 Co132 2.148 . S
N136 C133 1.301 . S
N136 C134 1.317 . S
N137 C133 1.328 . S
N137 C135 1.350 1_655 S
H138 C133 0.930 . S
H139 C134 0.930 1_455 S
C140 O141 1.226 1_655 S
C140 O159 1.247 . S
O141 C140 1.226 1_455 S
N142 Co132 2.128 . S
N142 C143 1.355 . S
N142 C145 1.311 . S
C143 N142 1.355 . S
C143 C144 1.363 . S
C143 H155 0.929 . S
C144 C143 1.363 . S
C144 N146 1.375 . S
C144 H162 0.931 . S
C145 N142 1.311 . S
C145 N146 1.347 . S
C145 H156 0.929 . S
N146 C144 1.375 . S
N146 C145 1.347 . S
C147 C150 1.365 . S
C147 N152 1.328 . S
C147 H153 0.929 . S
C148 C149 1.362 . S
C148 C151 1.378 . S
C148 H163 0.929 . S
C149 C148 1.362 . S
C149 C150 1.366 . S
C150 C147 1.365 . S
C150 C149 1.366 . S
C150 H164 0.930 . S
C151 C148 1.378 . S
C151 N152 1.315 . S
C151 H154 0.930 . S
N152 Co132 2.194 . S
N152 C147 1.328 . S
N152 C151 1.315 . S
H153 C147 0.929 . S
H154 C151 0.930 . S
H155 C143 0.929 . S
H156 C145 0.929 . S
O157 Co132 2.351 . S
O157 C160 1.244 . S
O158 Co132 2.155 . S
O158 C160 1.240 . S
O159 Co132 2.096 . S
O159 C140 1.247 . S
C160 O157 1.244 . S
C160 O158 1.240 . S
H161 C135 0.931 . S
H162 C144 0.931 . S
H163 C148 0.929 . S
H164 C150 0.930 . S
Co165 N169 2.148 . S
Co165 N175 2.128 . S
Co165 N185 2.194 . S
Co165 O190 2.351 . S
Co165 O191 2.155 . S
Co165 O192 2.096 . S
C166 N169 1.301 . S
C166 N170 1.328 . S
C166 H171 0.930 . S
C167 C168 1.333 . S
C167 N169 1.317 . S
C167 H172 0.930 . S
C168 C167 1.333 . S
C168 N170 1.350 . S
C168 H194 0.931 . S
N169 Co165 2.148 . S
N169 C166 1.301 . S
N169 C167 1.317 . S
N170 C166 1.328 . S
N170 C168 1.350 . S
H171 C166 0.930 . S
H172 C167 0.930 . S
C173 O174 1.224 . S
C173 O192 1.247 . S
O174 C173 1.224 . S
N175 Co165 2.128 . S
N175 C176 1.355 . S
N175 C178 1.311 . S
C176 N175 1.355 . S
C176 C177 1.363 . S
C176 H188 0.929 . S
C177 C176 1.363 . S
C177 N179 1.375 . S
C177 H195 0.931 . S
C178 N175 1.311 . S
C178 N179 1.347 . S
C178 H189 0.929 . S
N179 C177 1.375 . S
N179 C178 1.347 . S
C180 C183 1.365 . S
C180 N185 1.328 . S
C180 H186 0.929 . S
C181 C182 1.362 . S
C181 C184 1.378 . S
C181 H196 0.929 . S
C182 C181 1.362 . S
C182 C183 1.366 . S
C183 C180 1.365 . S
C183 C182 1.366 . S
C183 H197 0.930 . S
C184 C181 1.378 . S
C184 N185 1.315 . S
C184 H187 0.930 . S
N185 Co165 2.194 . S
N185 C180 1.328 . S
N185 C184 1.315 . S
H186 C180 0.929 . S
H187 C184 0.930 . S
H188 C176 0.929 . S
H189 C178 0.929 . S
O190 Co165 2.351 . S
O190 C193 1.244 . S
O191 Co165 2.155 . S
O191 C193 1.240 . S
O192 Co165 2.096 . S
O192 C173 1.247 . S
C193 O190 1.244 . S
C193 O191 1.240 . S
H194 C168 0.931 . S
H195 C177 0.931 . S
H196 C181 0.929 . S
H197 C183 0.930 . S
Co198 N202 2.148 . S
Co198 N208 2.128 . S
Co198 N218 2.194 . S
Co198 O223 2.351 . S
Co198 O224 2.155 . S
Co198 O225 2.096 . S
C199 N202 1.301 . S
C199 N203 1.328 . S
C199 H204 0.930 . S
C200 C201 1.333 1_655 S
C200 N202 1.317 . S
C200 H205 0.930 1_655 S
C201 C200 1.333 1_455 S
C201 N203 1.350 1_455 S
C201 H227 0.931 . S
N202 Co198 2.148 . S
N202 C199 1.301 . S
N202 C200 1.317 . S
N203 C199 1.328 . S
N203 C201 1.350 1_655 S
H204 C199 0.930 . S
H205 C200 0.930 1_455 S
C206 O207 1.224 1_655 S
C206 O225 1.247 . S
O207 C206 1.224 1_455 S
N208 Co198 2.128 . S
N208 C209 1.355 . S
N208 C211 1.311 . S
C209 N208 1.355 . S
C209 C210 1.363 . S
C209 H221 0.929 . S
C210 C209 1.363 . S
C210 N212 1.375 . S
C210 H228 0.931 . S
C211 N208 1.311 . S
C211 N212 1.347 . S
C211 H222 0.929 . S
N212 C210 1.375 . S
N212 C211 1.347 . S
C213 C216 1.365 . S
C213 N218 1.328 . S
C213 H219 0.929 . S
C214 C215 1.362 . S
C214 C217 1.378 . S
C214 H229 0.929 . S
C215 C214 1.362 . S
C215 C216 1.366 . S
C216 C213 1.365 . S
C216 C215 1.366 . S
C216 H230 0.930 . S
C217 C214 1.378 . S
C217 N218 1.315 . S
C217 H220 0.930 . S
N218 Co198 2.194 . S
N218 C213 1.328 . S
N218 C217 1.315 . S
H219 C213 0.929 . S
H220 C217 0.930 . S
H221 C209 0.929 . S
H222 C211 0.929 . S
O223 Co198 2.351 . S
O223 C226 1.244 . S
O224 Co198 2.155 . S
O224 C226 1.240 . S
O225 Co198 2.096 . S
O225 C206 1.247 . S
C226 O223 1.244 . S
C226 O224 1.240 . S
H227 C201 0.931 . S
H228 C210 0.931 . S
H229 C214 0.929 . S
H230 C216 0.930 . S
Co231 N235 2.148 . S
Co231 N241 2.128 . S
Co231 N251 2.194 . S
Co231 O256 2.351 . S
Co231 O257 2.155 . S
Co231 O258 2.096 . S
C232 N235 1.301 . S
C232 N236 1.328 . S
C232 H237 0.930 . S
C233 C234 1.333 . S
C233 N235 1.317 . S
C233 H238 0.930 . S
C234 C233 1.333 . S
C234 N236 1.350 . S
C234 H260 0.931 . S
N235 Co231 2.148 . S
N235 C232 1.301 . S
N235 C233 1.317 . S
N236 C232 1.328 . S
N236 C234 1.350 . S
H237 C232 0.930 . S
H238 C233 0.930 . S
C239 O240 1.224 . S
C239 O258 1.247 . S
O240 C239 1.224 . S
N241 Co231 2.128 . S
N241 C242 1.355 . S
N241 C244 1.311 . S
C242 N241 1.355 . S
C242 C243 1.363 . S
C242 H254 0.929 . S
C243 C242 1.363 . S
C243 N245 1.375 . S
C243 H261 0.931 . S
C244 N241 1.311 . S
C244 N245 1.347 . S
C244 H255 0.929 . S
N245 C243 1.375 . S
N245 C244 1.347 . S
C246 C249 1.365 . S
C246 N251 1.328 . S
C246 H252 0.929 . S
C247 C248 1.362 . S
C247 C250 1.378 . S
C247 H262 0.929 . S
C248 C247 1.362 . S
C248 C249 1.366 . S
C249 C246 1.365 . S
C249 C248 1.366 . S
C249 H263 0.930 . S
C250 C247 1.378 . S
C250 N251 1.315 . S
C250 H253 0.930 . S
N251 Co231 2.194 . S
N251 C246 1.328 . S
N251 C250 1.315 . S
H252 C246 0.929 . S
H253 C250 0.930 . S
H254 C242 0.929 . S
H255 C244 0.929 . S
O256 Co231 2.351 . S
O256 C259 1.244 . S
O257 Co231 2.155 . S
O257 C259 1.240 . S
O258 Co231 2.096 . S
O258 C239 1.247 . S
C259 O256 1.244 . S
C259 O257 1.240 . S
H260 C234 0.931 . S
H261 C243 0.931 . S
H262 C247 0.929 . S
H263 C249 0.930 . S
Co264 N268 2.148 . S
Co264 N274 2.128 . S
Co264 N284 2.194 . S
Co264 O289 2.351 . S
Co264 O290 2.155 . S
Co264 O291 2.096 . S
C265 N268 1.301 . S
C265 N269 1.328 . S
C265 H270 0.930 . S
C266 C267 1.333 1_545 S
C266 N268 1.317 . S
C266 H271 0.930 1_545 S
C267 C266 1.333 1_565 S
C267 N269 1.350 1_565 S
C267 H293 0.931 . S
N268 Co264 2.148 . S
N268 C265 1.301 . S
N268 C266 1.317 . S
N269 C265 1.328 . S
N269 C267 1.350 1_545 S
H270 C265 0.930 . S
H271 C266 0.930 1_565 S
C272 O273 1.226 1_545 S
C272 O291 1.247 . S
O273 C272 1.226 1_565 S
N274 Co264 2.128 . S
N274 C275 1.355 . S
N274 C277 1.311 . S
C275 N274 1.355 . S
C275 C276 1.363 . S
C275 H287 0.929 . S
C276 C275 1.363 . S
C276 N278 1.375 . S
C276 H294 0.931 . S
C277 N274 1.311 . S
C277 N278 1.347 . S
C277 H288 0.929 . S
N278 C276 1.375 . S
N278 C277 1.347 . S
C279 C282 1.365 . S
C279 N284 1.328 . S
C279 H285 0.929 . S
C280 C281 1.362 . S
C280 C283 1.378 . S
C280 H295 0.929 . S
C281 C280 1.362 . S
C281 C282 1.366 . S
C282 C279 1.365 . S
C282 C281 1.366 . S
C282 H296 0.930 . S
C283 C280 1.378 . S
C283 N284 1.315 . S
C283 H286 0.930 . S
N284 Co264 2.194 . S
N284 C279 1.328 . S
N284 C283 1.315 . S
H285 C279 0.929 . S
H286 C283 0.930 . S
H287 C275 0.929 . S
H288 C277 0.929 . S
O289 Co264 2.351 . S
O289 C292 1.244 . S
O290 Co264 2.155 . S
O290 C292 1.240 . S
O291 Co264 2.096 . S
O291 C272 1.247 . S
C292 O289 1.244 . S
C292 O290 1.240 . S
H293 C267 0.931 . S
H294 C276 0.931 . S
H295 C280 0.929 . S
H296 C282 0.930 . S
Co297 N301 2.148 . S
Co297 N307 2.128 . S
Co297 N317 2.194 . S
Co297 O322 2.351 . S
Co297 O323 2.155 . S
Co297 O324 2.096 . S
C298 N301 1.301 . S
C298 N302 1.328 . S
C298 H303 0.930 . S
C299 C300 1.333 1_565 S
C299 N301 1.317 . S
C299 H304 0.930 1_565 S
C300 C299 1.333 1_545 S
C300 N302 1.350 1_545 S
C300 H326 0.931 . S
N301 Co297 2.148 . S
N301 C298 1.301 . S
N301 C299 1.317 . S
N302 C298 1.328 . S
N302 C300 1.350 1_565 S
H303 C298 0.930 . S
H304 C299 0.930 1_545 S
C305 O306 1.224 1_565 S
C305 O324 1.247 . S
O306 C305 1.224 1_545 S
N307 Co297 2.128 . S
N307 C308 1.355 . S
N307 C310 1.311 . S
C308 N307 1.355 . S
C308 C309 1.363 . S
C308 H320 0.929 . S
C309 C308 1.363 . S
C309 N311 1.375 . S
C309 H327 0.931 . S
C310 N307 1.311 . S
C310 N311 1.347 . S
C310 H321 0.929 . S
N311 C309 1.375 . S
N311 C310 1.347 . S
C312 C315 1.365 . S
C312 N317 1.328 . S
C312 H318 0.929 . S
C313 C314 1.362 . S
C313 C316 1.378 . S
C313 H328 0.929 . S
C314 C313 1.362 . S
C314 C315 1.366 . S
C315 C312 1.365 . S
C315 C314 1.366 . S
C315 H329 0.930 . S
C316 C313 1.378 . S
C316 N317 1.315 . S
C316 H319 0.930 . S
N317 Co297 2.194 . S
N317 C312 1.328 . S
N317 C316 1.315 . S
H318 C312 0.929 . S
H319 C316 0.930 . S
H320 C308 0.929 . S
H321 C310 0.929 . S
O322 Co297 2.351 . S
O322 C325 1.244 . S
O323 Co297 2.155 . S
O323 C325 1.240 . S
O324 Co297 2.096 . S
O324 C305 1.247 . S
C325 O322 1.244 . S
C325 O323 1.240 . S
H326 C300 0.931 . S
H327 C309 0.931 . S
H328 C313 0.929 . S
H329 C315 0.930 . S
Co330 N334 2.148 . S
Co330 N340 2.128 . S
Co330 N350 2.194 . S
Co330 O355 2.351 . S
Co330 O356 2.155 . S
Co330 O357 2.096 . S
C331 N334 1.301 . S
C331 N335 1.328 . S
C331 H336 0.930 . S
C332 C333 1.333 1_455 S
C332 N334 1.317 . S
C332 H337 0.930 1_455 S
C333 C332 1.333 1_655 S
C333 N335 1.350 1_655 S
C333 H359 0.931 . S
N334 Co330 2.148 . S
N334 C331 1.301 . S
N334 C332 1.317 . S
N335 C331 1.328 . S
N335 C333 1.350 1_455 S
H336 C331 0.930 . S
H337 C332 0.930 1_655 S
C338 O339 1.226 1_455 S
C338 O357 1.247 . S
O339 C338 1.226 1_655 S
N340 Co330 2.128 . S
N340 C341 1.355 . S
N340 C343 1.311 . S
C341 N340 1.355 . S
C341 C342 1.363 . S
C341 H353 0.929 . S
C342 C341 1.363 . S
C342 N344 1.375 . S
C342 H360 0.931 . S
C343 N340 1.311 . S
C343 N344 1.347 . S
C343 H354 0.929 . S
N344 C342 1.375 . S
N344 C343 1.347 . S
C345 C348 1.365 . S
C345 N350 1.328 . S
C345 H351 0.929 . S
C346 C347 1.362 . S
C346 C349 1.378 . S
C346 H361 0.929 . S
C347 C346 1.362 . S
C347 C348 1.366 . S
C348 C345 1.365 . S
C348 C347 1.366 . S
C348 H362 0.930 . S
C349 C346 1.378 . S
C349 N350 1.315 . S
C349 H352 0.930 . S
N350 Co330 2.194 . S
N350 C345 1.328 . S
N350 C349 1.315 . S
H351 C345 0.929 . S
H352 C349 0.930 . S
H353 C341 0.929 . S
H354 C343 0.929 . S
O355 Co330 2.351 . S
O355 C358 1.244 . S
O356 Co330 2.155 . S
O356 C358 1.240 . S
O357 Co330 2.096 . S
O357 C338 1.247 . S
C358 O355 1.244 . S
C358 O356 1.240 . S
H359 C333 0.931 . S
H360 C342 0.931 . S
H361 C346 0.929 . S
H362 C348 0.930 . S
Co363 N367 2.148 . S
Co363 N373 2.128 . S
Co363 N383 2.194 . S
Co363 O388 2.351 . S
Co363 O389 2.155 . S
Co363 O390 2.096 . S
C364 N367 1.301 . S
C364 N368 1.328 . S
C364 H369 0.930 . S
C365 C366 1.333 . S
C365 N367 1.317 . S
C365 H370 0.930 . S
C366 C365 1.333 . S
C366 N368 1.350 . S
C366 H392 0.931 . S
N367 Co363 2.148 . S
N367 C364 1.301 . S
N367 C365 1.317 . S
N368 C364 1.328 . S
N368 C366 1.350 . S
H369 C364 0.930 . S
H370 C365 0.930 . S
C371 O372 1.224 . S
C371 O390 1.247 . S
O372 C371 1.224 . S
N373 Co363 2.128 . S
N373 C374 1.355 . S
N373 C376 1.311 . S
C374 N373 1.355 . S
C374 C375 1.363 . S
C374 H386 0.929 . S
C375 C374 1.363 . S
C375 N377 1.375 . S
C375 H393 0.931 . S
C376 N373 1.311 . S
C376 N377 1.347 . S
C376 H387 0.929 . S
N377 C375 1.375 . S
N377 C376 1.347 . S
C378 C381 1.365 . S
C378 N383 1.328 . S
C378 H384 0.929 . S
C379 C380 1.362 . S
C379 C382 1.378 . S
C379 H394 0.929 . S
C380 C379 1.362 . S
C380 C381 1.366 . S
C381 C378 1.365 . S
C381 C380 1.366 . S
C381 H395 0.930 . S
C382 C379 1.378 . S
C382 N383 1.315 . S
C382 H385 0.930 . S
N383 Co363 2.194 . S
N383 C378 1.328 . S
N383 C382 1.315 . S
H384 C378 0.929 . S
H385 C382 0.930 . S
H386 C374 0.929 . S
H387 C376 0.929 . S
O388 Co363 2.351 . S
O388 C391 1.244 . S
O389 Co363 2.155 . S
O389 C391 1.240 . S
O390 Co363 2.096 . S
O390 C371 1.247 . S
C391 O388 1.244 . S
C391 O389 1.240 . S
H392 C366 0.931 . S
H393 C375 0.931 . S
H394 C379 0.929 . S
H395 C381 0.930 . S
Co396 N400 2.148 . S
Co396 N406 2.128 . S
Co396 N416 2.194 . S
Co396 O421 2.351 . S
Co396 O422 2.155 . S
Co396 O423 2.096 . S
C397 N400 1.301 . S
C397 N401 1.328 . S
C397 H402 0.930 . S
C398 C399 1.333 . S
C398 N400 1.317 . S
C398 H403 0.930 . S
C399 C398 1.333 . S
C399 N401 1.350 . S
C399 H425 0.931 . S
N400 Co396 2.148 . S
N400 C397 1.301 . S
N400 C398 1.317 . S
N401 C397 1.328 . S
N401 C399 1.350 . S
H402 C397 0.930 . S
H403 C398 0.930 . S
C404 O405 1.224 . S
C404 O423 1.247 . S
O405 C404 1.224 . S
N406 Co396 2.128 . S
N406 C407 1.355 . S
N406 C409 1.311 . S
C407 N406 1.355 . S
C407 C408 1.363 . S
C407 H419 0.929 . S
C408 C407 1.363 . S
C408 N410 1.375 . S
C408 H426 0.931 . S
C409 N406 1.311 . S
C409 N410 1.347 . S
C409 H420 0.929 . S
N410 C408 1.375 . S
N410 C409 1.347 . S
C411 C414 1.365 . S
C411 N416 1.328 . S
C411 H417 0.929 . S
C412 C413 1.362 . S
C412 C415 1.378 . S
C412 H427 0.929 . S
C413 C412 1.362 . S
C413 C414 1.366 . S
C414 C411 1.365 . S
C414 C413 1.366 . S
C414 H428 0.930 . S
C415 C412 1.378 . S
C415 N416 1.315 . S
C415 H418 0.930 . S
N416 Co396 2.194 . S
N416 C411 1.328 . S
N416 C415 1.315 . S
H417 C411 0.929 . S
H418 C415 0.930 . S
H419 C407 0.929 . S
H420 C409 0.929 . S
O421 Co396 2.351 . S
O421 C424 1.244 . S
O422 Co396 2.155 . S
O422 C424 1.240 . S
O423 Co396 2.096 . S
O423 C404 1.247 . S
C424 O421 1.244 . S
C424 O422 1.240 . S
H425 C399 0.931 . S
H426 C408 0.931 . S
H427 C412 0.929 . S
H428 C414 0.930 . S
Co429 N433 2.148 . S
Co429 N439 2.128 . S
Co429 N449 2.194 . S
Co429 O454 2.351 . S
Co429 O455 2.155 . S
Co429 O456 2.096 . S
C430 N433 1.301 . S
C430 N434 1.328 . S
C430 H435 0.930 . S
C431 C432 1.333 . S
C431 N433 1.317 . S
C431 H436 0.930 . S
C432 C431 1.333 . S
C432 N434 1.350 . S
C432 H458 0.931 . S
N433 Co429 2.148 . S
N433 C430 1.301 . S
N433 C431 1.317 . S
N434 C430 1.328 . S
N434 C432 1.350 . S
H435 C430 0.930 . S
H436 C431 0.930 . S
C437 O438 1.224 . S
C437 O456 1.247 . S
O438 C437 1.224 . S
N439 Co429 2.128 . S
N439 C440 1.355 . S
N439 C442 1.311 . S
C440 N439 1.355 . S
C440 C441 1.363 . S
C440 H452 0.929 . S
C441 C440 1.363 . S
C441 N443 1.375 . S
C441 H459 0.931 . S
C442 N439 1.311 . S
C442 N443 1.347 . S
C442 H453 0.929 . S
N443 C441 1.375 . S
N443 C442 1.347 . S
C444 C447 1.365 . S
C444 N449 1.328 . S
C444 H450 0.929 . S
C445 C446 1.362 . S
C445 C448 1.378 . S
C445 H460 0.929 . S
C446 C445 1.362 . S
C446 C447 1.366 . S
C447 C444 1.365 . S
C447 C446 1.366 . S
C447 H461 0.930 . S
C448 C445 1.378 . S
C448 N449 1.315 . S
C448 H451 0.930 . S
N449 Co429 2.194 . S
N449 C444 1.328 . S
N449 C448 1.315 . S
H450 C444 0.929 . S
H451 C448 0.930 . S
H452 C440 0.929 . S
H453 C442 0.929 . S
O454 Co429 2.351 . S
O454 C457 1.244 . S
O455 Co429 2.155 . S
O455 C457 1.240 . S
O456 Co429 2.096 . S
O456 C437 1.247 . S
C457 O454 1.244 . S
C457 O455 1.240 . S
H458 C432 0.931 . S
H459 C441 0.931 . S
H460 C445 0.929 . S
H461 C447 0.930 . S
Co462 N466 2.148 . S
Co462 N472 2.128 . S
Co462 N482 2.194 . S
Co462 O487 2.351 . S
Co462 O488 2.155 . S
Co462 O489 2.096 . S
C463 N466 1.301 . S
C463 N467 1.328 . S
C463 H468 0.930 . S
C464 C465 1.333 . S
C464 N466 1.317 . S
C464 H469 0.930 . S
C465 C464 1.333 . S
C465 N467 1.350 . S
C465 H491 0.931 . S
N466 Co462 2.148 . S
N466 C463 1.301 . S
N466 C464 1.317 . S
N467 C463 1.328 . S
N467 C465 1.350 . S
H468 C463 0.930 . S
H469 C464 0.930 . S
C470 O471 1.224 . S
C470 O489 1.247 . S
O471 C470 1.224 . S
N472 Co462 2.128 . S
N472 C473 1.355 . S
N472 C475 1.311 . S
C473 N472 1.355 . S
C473 C474 1.363 . S
C473 H485 0.929 . S
C474 C473 1.363 . S
C474 N476 1.375 . S
C474 H492 0.931 . S
C475 N472 1.311 . S
C475 N476 1.347 . S
C475 H486 0.929 . S
N476 C474 1.375 . S
N476 C475 1.347 . S
C477 C480 1.365 . S
C477 N482 1.328 . S
C477 H483 0.929 . S
C478 C479 1.362 . S
C478 C481 1.378 . S
C478 H493 0.929 . S
C479 C478 1.362 . S
C479 C480 1.366 . S
C480 C477 1.365 . S
C480 C479 1.366 . S
C480 H494 0.930 . S
C481 C478 1.378 . S
C481 N482 1.315 . S
C481 H484 0.930 . S
N482 Co462 2.194 . S
N482 C477 1.328 . S
N482 C481 1.315 . S
H483 C477 0.929 . S
H484 C481 0.930 . S
H485 C473 0.929 . S
H486 C475 0.929 . S
O487 Co462 2.351 . S
O487 C490 1.244 . S
O488 Co462 2.155 . S
O488 C490 1.240 . S
O489 Co462 2.096 . S
O489 C470 1.247 . S
C490 O487 1.244 . S
C490 O488 1.240 . S
H491 C465 0.931 . S
H492 C474 0.931 . S
H493 C478 0.929 . S
H494 C480 0.930 . S
Co495 N499 2.148 . S
Co495 N505 2.128 . S
Co495 N515 2.194 . S
Co495 O520 2.351 . S
Co495 O521 2.155 . S
Co495 O522 2.096 . S
C496 N499 1.301 . S
C496 N500 1.328 1_655 S
C496 H501 0.930 1_655 S
C497 C498 1.333 . S
C497 N499 1.317 . S
C497 H502 0.930 . S
C498 C497 1.333 . S
C498 N500 1.350 1_655 S
C498 H524 0.931 . S
N499 Co495 2.148 . S
N499 C496 1.301 . S
N499 C497 1.317 . S
N500 C496 1.328 1_455 S
N500 C498 1.350 1_455 S
H501 C496 0.930 1_455 S
H502 C497 0.930 . S
C503 O504 1.224 . S
C503 O522 1.247 . S
O504 C503 1.224 . S
N505 Co495 2.128 . S
N505 C506 1.355 . S
N505 C508 1.311 . S
C506 N505 1.355 . S
C506 C507 1.363 . S
C506 H518 0.929 . S
C507 C506 1.363 . S
C507 N509 1.375 . S
C507 H525 0.931 . S
C508 N505 1.311 . S
C508 N509 1.347 . S
C508 H519 0.929 . S
N509 C507 1.375 . S
N509 C508 1.347 . S
C510 C513 1.365 . S
C510 N515 1.328 . S
C510 H516 0.924 1_655 S
C511 C512 1.362 . S
C511 C514 1.378 . S
C511 H526 0.929 . S
C512 C511 1.362 . S
C512 C513 1.366 . S
C513 C510 1.365 . S
C513 C512 1.366 . S
C513 H527 0.930 1_655 S
C514 C511 1.378 . S
C514 N515 1.315 . S
C514 H517 0.930 . S
N515 Co495 2.194 . S
N515 C510 1.328 . S
N515 C514 1.315 . S
H516 C510 0.924 1_455 S
H517 C514 0.930 . S
H518 C506 0.929 . S
H519 C508 0.929 . S
O520 Co495 2.351 . S
O520 C523 1.244 . S
O521 Co495 2.155 . S
O521 C523 1.240 . S
O522 Co495 2.096 . S
O522 C503 1.247 . S
C523 O520 1.244 . S
C523 O521 1.240 . S
H524 C498 0.931 . S
H525 C507 0.931 . S
H526 C511 0.929 . S
H527 C513 0.930 1_455 S
Co528 N532 2.148 . S
Co528 N538 2.128 . S
Co528 N548 2.194 . S
Co528 O553 2.351 . S
Co528 O554 2.155 . S
Co528 O555 2.096 . S
C529 N532 1.301 . S
C529 N533 1.328 . S
C529 H534 0.930 . S
C530 C531 1.333 . S
C530 N532 1.317 . S
C530 H535 0.930 . S
C531 C530 1.333 . S
C531 N533 1.350 . S
C531 H557 0.931 . S
N532 Co528 2.148 . S
N532 C529 1.301 . S
N532 C530 1.317 . S
N533 C529 1.328 . S
N533 C531 1.350 . S
H534 C529 0.930 . S
H535 C530 0.930 . S
C536 O537 1.224 . S
C536 O555 1.247 . S
O537 C536 1.224 . S
N538 Co528 2.128 . S
N538 C539 1.355 . S
N538 C541 1.311 . S
C539 N538 1.355 . S
C539 C540 1.363 . S
C539 H551 0.929 . S
C540 C539 1.363 . S
C540 N542 1.375 . S
C540 H558 0.931 . S
C541 N538 1.311 . S
C541 N542 1.347 . S
C541 H552 0.929 . S
N542 C540 1.375 . S
N542 C541 1.347 . S
C543 C546 1.365 . S
C543 N548 1.328 . S
C543 H549 0.929 . S
C544 C545 1.362 . S
C544 C547 1.378 . S
C544 H559 0.929 . S
C545 C544 1.362 . S
C545 C546 1.366 . S
C546 C543 1.365 . S
C546 C545 1.366 . S
C546 H560 0.930 . S
C547 C544 1.378 . S
C547 N548 1.315 . S
C547 H550 0.930 . S
N548 Co528 2.194 . S
N548 C543 1.328 . S
N548 C547 1.315 . S
H549 C543 0.929 . S
H550 C547 0.930 . S
H551 C539 0.929 . S
H552 C541 0.929 . S
O553 Co528 2.351 . S
O553 C556 1.244 . S
O554 Co528 2.155 . S
O554 C556 1.240 . S
O555 Co528 2.096 . S
O555 C536 1.247 . S
C556 O553 1.244 . S
C556 O554 1.240 . S
H557 C531 0.931 . S
H558 C540 0.931 . S
H559 C544 0.929 . S
H560 C546 0.930 . S
Co561 N565 2.148 . S
Co561 N571 2.128 . S
Co561 N581 2.194 . S
Co561 O586 2.351 . S
Co561 O587 2.155 . S
Co561 O588 2.096 . S
C562 N565 1.301 . S
C562 N566 1.328 1_545 S
C562 H567 0.930 1_545 S
C563 C564 1.333 . S
C563 N565 1.317 . S
C563 H568 0.930 . S
C564 C563 1.333 . S
C564 N566 1.350 1_545 S
C564 H590 0.931 . S
N565 Co561 2.148 . S
N565 C562 1.301 . S
N565 C563 1.317 . S
N566 C562 1.328 1_565 S
N566 C564 1.350 1_565 S
H567 C562 0.930 1_565 S
H568 C563 0.930 . S
C569 O570 1.224 . S
C569 O588 1.247 . S
O570 C569 1.224 . S
N571 Co561 2.128 . S
N571 C572 1.355 . S
N571 C574 1.311 . S
C572 N571 1.355 . S
C572 C573 1.363 . S
C572 H584 0.929 . S
C573 C572 1.363 . S
C573 N575 1.375 . S
C573 H591 0.931 . S
C574 N571 1.311 . S
C574 N575 1.347 . S
C574 H585 0.929 . S
N575 C573 1.375 . S
N575 C574 1.347 . S
C576 C579 1.365 . S
C576 N581 1.328 . S
C576 H582 0.926 1_545 S
C577 C578 1.362 . S
C577 C580 1.378 . S
C577 H592 0.929 . S
C578 C577 1.362 . S
C578 C579 1.366 . S
C579 C576 1.365 . S
C579 C578 1.366 . S
C579 H593 0.930 1_545 S
C580 C577 1.378 . S
C580 N581 1.315 . S
C580 H583 0.930 . S
N581 Co561 2.194 . S
N581 C576 1.328 . S
N581 C580 1.315 . S
H582 C576 0.926 1_565 S
H583 C580 0.930 . S
H584 C572 0.929 . S
H585 C574 0.929 . S
O586 Co561 2.351 . S
O586 C589 1.244 . S
O587 Co561 2.155 . S
O587 C589 1.240 . S
O588 Co561 2.096 . S
O588 C569 1.247 . S
C589 O586 1.244 . S
C589 O587 1.240 . S
H590 C564 0.931 . S
H591 C573 0.931 . S
H592 C577 0.929 . S
H593 C579 0.930 1_565 S
Co594 N598 2.148 . S
Co594 N604 2.128 . S
Co594 N614 2.194 . S
Co594 O619 2.351 . S
Co594 O620 2.155 . S
Co594 O621 2.096 . S
C595 N598 1.301 . S
C595 N599 1.328 1_545 S
C595 H600 0.930 1_545 S
C596 C597 1.333 . S
C596 N598 1.317 . S
C596 H601 0.930 . S
C597 C596 1.333 . S
C597 N599 1.350 1_545 S
C597 H623 0.931 . S
N598 Co594 2.148 . S
N598 C595 1.301 . S
N598 C596 1.317 . S
N599 C595 1.328 1_565 S
N599 C597 1.350 1_565 S
H600 C595 0.930 1_565 S
H601 C596 0.930 . S
C602 O603 1.224 . S
C602 O621 1.247 . S
O603 C602 1.224 . S
N604 Co594 2.128 . S
N604 C605 1.355 . S
N604 C607 1.311 . S
C605 N604 1.355 . S
C605 C606 1.363 . S
C605 H617 0.929 . S
C606 C605 1.363 . S
C606 N608 1.375 . S
C606 H624 0.931 . S
C607 N604 1.311 . S
C607 N608 1.347 . S
C607 H618 0.929 . S
N608 C606 1.375 . S
N608 C607 1.347 . S
C609 C612 1.365 . S
C609 N614 1.328 . S
C609 H615 0.924 1_545 S
C610 C611 1.362 . S
C610 C613 1.378 . S
C610 H625 0.929 . S
C611 C610 1.362 . S
C611 C612 1.366 . S
C612 C609 1.365 . S
C612 C611 1.366 . S
C612 H626 0.930 1_545 S
C613 C610 1.378 . S
C613 N614 1.315 . S
C613 H616 0.930 . S
N614 Co594 2.194 . S
N614 C609 1.328 . S
N614 C613 1.315 . S
H615 C609 0.924 1_565 S
H616 C613 0.930 . S
H617 C605 0.929 . S
H618 C607 0.929 . S
O619 Co594 2.351 . S
O619 C622 1.244 . S
O620 Co594 2.155 . S
O620 C622 1.240 . S
O621 Co594 2.096 . S
O621 C602 1.247 . S
C622 O619 1.244 . S
C622 O620 1.240 . S
H623 C597 0.931 . S
H624 C606 0.931 . S
H625 C610 0.929 . S
H626 C612 0.930 1_565 S
Co627 N631 2.148 . S
Co627 N637 2.128 . S
Co627 N647 2.194 . S
Co627 O652 2.351 . S
Co627 O653 2.155 . S
Co627 O654 2.096 . S
C628 N631 1.301 . S
C628 N632 1.328 1_655 S
C628 H633 0.930 1_655 S
C629 C630 1.333 . S
C629 N631 1.317 . S
C629 H634 0.930 . S
C630 C629 1.333 . S
C630 N632 1.350 1_655 S
C630 H656 0.931 . S
N631 Co627 2.148 . S
N631 C628 1.301 . S
N631 C629 1.317 . S
N632 C628 1.328 1_455 S
N632 C630 1.350 1_455 S
H633 C628 0.930 1_455 S
H634 C629 0.930 . S
C635 O636 1.224 . S
C635 O654 1.247 . S
O636 C635 1.224 . S
N637 Co627 2.128 . S
N637 C638 1.355 . S
N637 C640 1.311 . S
C638 N637 1.355 . S
C638 C639 1.363 . S
C638 H650 0.929 . S
C639 C638 1.363 . S
C639 N641 1.375 . S
C639 H657 0.931 . S
C640 N637 1.311 . S
C640 N641 1.347 . S
C640 H651 0.929 . S
N641 C639 1.375 . S
N641 C640 1.347 . S
C642 C645 1.365 . S
C642 N647 1.328 . S
C642 H648 0.926 1_655 S
C643 C644 1.362 . S
C643 C646 1.378 . S
C643 H658 0.929 . S
C644 C643 1.362 . S
C644 C645 1.366 . S
C645 C642 1.365 . S
C645 C644 1.366 . S
C645 H659 0.930 1_655 S
C646 C643 1.378 . S
C646 N647 1.315 . S
C646 H649 0.930 . S
N647 Co627 2.194 . S
N647 C642 1.328 . S
N647 C646 1.315 . S
H648 C642 0.926 1_455 S
H649 C646 0.930 . S
H650 C638 0.929 . S
H651 C640 0.929 . S
O652 Co627 2.351 . S
O652 C655 1.244 . S
O653 Co627 2.155 . S
O653 C655 1.240 . S
O654 Co627 2.096 . S
O654 C635 1.247 . S
C655 O652 1.244 . S
C655 O653 1.240 . S
H656 C630 0.931 . S
H657 C639 0.931 . S
H658 C643 0.929 . S
H659 C645 0.930 1_455 S
Co660 N664 2.148 . S
Co660 N670 2.128 . S
Co660 N680 2.194 . S
Co660 O685 2.351 . S
Co660 O686 2.155 . S
Co660 O687 2.096 . S
C661 N664 1.301 . S
C661 N665 1.328 . S
C661 H666 0.930 . S
C662 C663 1.333 . S
C662 N664 1.317 . S
C662 H667 0.930 . S
C663 C662 1.333 . S
C663 N665 1.350 . S
C663 H689 0.931 . S
N664 Co660 2.148 . S
N664 C661 1.301 . S
N664 C662 1.317 . S
N665 C661 1.328 . S
N665 C663 1.350 . S
H666 C661 0.930 . S
H667 C662 0.930 . S
C668 O669 1.224 . S
C668 O687 1.247 . S
O669 C668 1.224 . S
N670 Co660 2.128 . S
N670 C671 1.355 . S
N670 C673 1.311 . S
C671 N670 1.355 . S
C671 C672 1.363 . S
C671 H683 0.929 . S
C672 C671 1.363 . S
C672 N674 1.375 . S
C672 H690 0.931 . S
C673 N670 1.311 . S
C673 N674 1.347 . S
C673 H684 0.929 . S
N674 C672 1.375 . S
N674 C673 1.347 . S
C675 C678 1.365 . S
C675 N680 1.328 . S
C675 H681 0.929 . S
C676 C677 1.362 . S
C676 C679 1.378 . S
C676 H691 0.929 . S
C677 C676 1.362 . S
C677 C678 1.366 . S
C678 C675 1.365 . S
C678 C677 1.366 . S
C678 H692 0.930 . S
C679 C676 1.378 . S
C679 N680 1.315 . S
C679 H682 0.930 . S
N680 Co660 2.194 . S
N680 C675 1.328 . S
N680 C679 1.315 . S
H681 C675 0.929 . S
H682 C679 0.930 . S
H683 C671 0.929 . S
H684 C673 0.929 . S
O685 Co660 2.351 . S
O685 C688 1.244 . S
O686 Co660 2.155 . S
O686 C688 1.240 . S
O687 Co660 2.096 . S
O687 C668 1.247 . S
C688 O685 1.244 . S
C688 O686 1.240 . S
H689 C663 0.931 . S
H690 C672 0.931 . S
H691 C676 0.929 . S
H692 C678 0.930 . S
Co693 N697 2.148 . S
Co693 N703 2.128 . S
Co693 N713 2.194 . S
Co693 O718 2.351 . S
Co693 O719 2.155 . S
Co693 O720 2.096 . S
C694 N697 1.301 . S
C694 N698 1.328 . S
C694 H699 0.930 . S
C695 C696 1.333 . S
C695 N697 1.317 . S
C695 H700 0.930 . S
C696 C695 1.333 . S
C696 N698 1.350 . S
C696 H722 0.931 . S
N697 Co693 2.148 . S
N697 C694 1.301 . S
N697 C695 1.317 . S
N698 C694 1.328 . S
N698 C696 1.350 . S
H699 C694 0.930 . S
H700 C695 0.930 . S
C701 O702 1.224 . S
C701 O720 1.247 . S
O702 C701 1.224 . S
N703 Co693 2.128 . S
N703 C704 1.355 . S
N703 C706 1.311 . S
C704 N703 1.355 . S
C704 C705 1.363 . S
C704 H716 0.929 . S
C705 C704 1.363 . S
C705 N707 1.375 . S
C705 H723 0.931 . S
C706 N703 1.311 . S
C706 N707 1.347 . S
C706 H717 0.929 . S
N707 C705 1.375 . S
N707 C706 1.347 . S
C708 C711 1.365 . S
C708 N713 1.328 . S
C708 H714 0.929 . S
C709 C710 1.362 . S
C709 C712 1.378 . S
C709 H724 0.929 . S
C710 C709 1.362 . S
C710 C711 1.366 . S
C711 C708 1.365 . S
C711 C710 1.366 . S
C711 H725 0.930 . S
C712 C709 1.378 . S
C712 N713 1.315 . S
C712 H715 0.930 . S
N713 Co693 2.194 . S
N713 C708 1.328 . S
N713 C712 1.315 . S
H714 C708 0.929 . S
H715 C712 0.930 . S
H716 C704 0.929 . S
H717 C706 0.929 . S
O718 Co693 2.351 . S
O718 C721 1.244 . S
O719 Co693 2.155 . S
O719 C721 1.240 . S
O720 Co693 2.096 . S
O720 C701 1.247 . S
C721 O718 1.244 . S
C721 O719 1.240 . S
H722 C696 0.931 . S
H723 C705 0.931 . S
H724 C709 0.929 . S
H725 C711 0.930 . S
Co726 N730 2.148 . S
Co726 N736 2.128 . S
Co726 N746 2.194 . S
Co726 O751 2.351 . S
Co726 O752 2.155 . S
Co726 O753 2.096 . S
C727 N730 1.301 . S
C727 N731 1.328 . S
C727 H732 0.930 . S
C728 C729 1.333 . S
C728 N730 1.317 . S
C728 H733 0.930 . S
C729 C728 1.333 . S
C729 N731 1.350 . S
C729 H755 0.931 . S
N730 Co726 2.148 . S
N730 C727 1.301 . S
N730 C728 1.317 . S
N731 C727 1.328 . S
N731 C729 1.350 . S
H732 C727 0.930 . S
H733 C728 0.930 . S
C734 O735 1.224 . S
C734 O753 1.247 . S
O735 C734 1.224 . S
N736 Co726 2.128 . S
N736 C737 1.355 . S
N736 C739 1.311 . S
C737 N736 1.355 . S
C737 C738 1.363 . S
C737 H749 0.929 . S
C738 C737 1.363 . S
C738 N740 1.375 . S
C738 H756 0.931 . S
C739 N736 1.311 . S
C739 N740 1.347 . S
C739 H750 0.929 . S
N740 C738 1.375 . S
N740 C739 1.347 . S
C741 C744 1.365 . S
C741 N746 1.328 . S
C741 H747 0.929 . S
C742 C743 1.362 . S
C742 C745 1.378 . S
C742 H757 0.929 . S
C743 C742 1.362 . S
C743 C744 1.366 . S
C744 C741 1.365 . S
C744 C743 1.366 . S
C744 H758 0.930 . S
C745 C742 1.378 . S
C745 N746 1.315 . S
C745 H748 0.930 . S
N746 Co726 2.194 . S
N746 C741 1.328 . S
N746 C745 1.315 . S
H747 C741 0.929 . S
H748 C745 0.930 . S
H749 C737 0.929 . S
H750 C739 0.929 . S
O751 Co726 2.351 . S
O751 C754 1.244 . S
O752 Co726 2.155 . S
O752 C754 1.240 . S
O753 Co726 2.096 . S
O753 C734 1.247 . S
C754 O751 1.244 . S
C754 O752 1.240 . S
H755 C729 0.931 . S
H756 C738 0.931 . S
H757 C742 0.929 . S
H758 C744 0.930 . S
Co759 N763 2.148 . S
Co759 N769 2.128 . S
Co759 N779 2.194 . S
Co759 O784 2.351 . S
Co759 O785 2.155 . S
Co759 O786 2.096 . S
C760 N763 1.301 . S
C760 N764 1.328 . S
C760 H765 0.930 . S
C761 C762 1.333 . S
C761 N763 1.317 . S
C761 H766 0.930 . S
C762 C761 1.333 . S
C762 N764 1.350 . S
C762 H788 0.931 . S
N763 Co759 2.148 . S
N763 C760 1.301 . S
N763 C761 1.317 . S
N764 C760 1.328 . S
N764 C762 1.350 . S
H765 C760 0.930 . S
H766 C761 0.930 . S
C767 O768 1.224 . S
C767 O786 1.247 . S
O768 C767 1.224 . S
N769 Co759 2.128 . S
N769 C770 1.355 . S
N769 C772 1.311 . S
C770 N769 1.355 . S
C770 C771 1.363 . S
C770 H782 0.929 . S
C771 C770 1.363 . S
C771 N773 1.375 . S
C771 H789 0.931 . S
C772 N769 1.311 . S
C772 N773 1.347 . S
C772 H783 0.929 . S
N773 C771 1.375 . S
N773 C772 1.347 . S
C774 C777 1.365 . S
C774 N779 1.328 . S
C774 H780 0.929 . S
C775 C776 1.362 . S
C775 C778 1.378 . S
C775 H790 0.929 . S
C776 C775 1.362 . S
C776 C777 1.366 . S
C777 C774 1.365 . S
C777 C776 1.366 . S
C777 H791 0.930 . S
C778 C775 1.378 . S
C778 N779 1.315 . S
C778 H781 0.930 . S
N779 Co759 2.194 . S
N779 C774 1.328 . S
N779 C778 1.315 . S
H780 C774 0.929 . S
H781 C778 0.930 . S
H782 C770 0.929 . S
H783 C772 0.929 . S
O784 Co759 2.351 . S
O784 C787 1.244 . S
O785 Co759 2.155 . S
O785 C787 1.240 . S
O786 Co759 2.096 . S
O786 C767 1.247 . S
C787 O784 1.244 . S
C787 O785 1.240 . S
H788 C762 0.931 . S
H789 C771 0.931 . S
H790 C775 0.929 . S
H791 C777 0.930 . S
Co792 N796 2.148 . S
Co792 N802 2.128 . S
Co792 N812 2.194 . S
Co792 O817 2.351 . S
Co792 O818 2.155 . S
Co792 O819 2.096 . S
C793 N796 1.301 . S
C793 N797 1.328 1_565 S
C793 H798 0.930 1_565 S
C794 C795 1.333 . S
C794 N796 1.317 . S
C794 H799 0.930 . S
C795 C794 1.333 . S
C795 N797 1.350 1_565 S
C795 H821 0.931 . S
N796 Co792 2.148 . S
N796 C793 1.301 . S
N796 C794 1.317 . S
N797 C793 1.328 1_545 S
N797 C795 1.350 1_545 S
H798 C793 0.930 1_545 S
H799 C794 0.930 . S
C800 O801 1.224 . S
C800 O819 1.247 . S
O801 C800 1.224 . S
N802 Co792 2.128 . S
N802 C803 1.355 . S
N802 C805 1.311 . S
C803 N802 1.355 . S
C803 C804 1.363 . S
C803 H815 0.929 . S
C804 C803 1.363 . S
C804 N806 1.375 . S
C804 H822 0.931 . S
C805 N802 1.311 . S
C805 N806 1.347 . S
C805 H816 0.929 . S
N806 C804 1.375 . S
N806 C805 1.347 . S
C807 C810 1.365 . S
C807 N812 1.328 . S
C807 H813 0.924 1_565 S
C808 C809 1.362 . S
C808 C811 1.378 . S
C808 H823 0.929 . S
C809 C808 1.362 . S
C809 C810 1.366 . S
C810 C807 1.365 . S
C810 C809 1.366 . S
C810 H824 0.930 1_565 S
C811 C808 1.378 . S
C811 N812 1.315 . S
C811 H814 0.930 . S
N812 Co792 2.194 . S
N812 C807 1.328 . S
N812 C811 1.315 . S
H813 C807 0.924 1_545 S
H814 C811 0.930 . S
H815 C803 0.929 . S
H816 C805 0.929 . S
O817 Co792 2.351 . S
O817 C820 1.244 . S
O818 Co792 2.155 . S
O818 C820 1.240 . S
O819 Co792 2.096 . S
O819 C800 1.247 . S
C820 O817 1.244 . S
C820 O818 1.240 . S
H821 C795 0.931 . S
H822 C804 0.931 . S
H823 C808 0.929 . S
H824 C810 0.930 1_545 S
Co825 N829 2.148 . S
Co825 N835 2.128 . S
Co825 N845 2.194 . S
Co825 O850 2.351 . S
Co825 O851 2.155 . S
Co825 O852 2.096 . S
C826 N829 1.301 . S
C826 N830 1.328 1_455 S
C826 H831 0.930 1_455 S
C827 C828 1.333 . S
C827 N829 1.317 . S
C827 H832 0.930 . S
C828 C827 1.333 . S
C828 N830 1.350 1_455 S
C828 H854 0.931 . S
N829 Co825 2.148 . S
N829 C826 1.301 . S
N829 C827 1.317 . S
N830 C826 1.328 1_655 S
N830 C828 1.350 1_655 S
H831 C826 0.930 1_655 S
H832 C827 0.930 . S
C833 O834 1.224 . S
C833 O852 1.247 . S
O834 C833 1.224 . S
N835 Co825 2.128 . S
N835 C836 1.355 . S
N835 C838 1.311 . S
C836 N835 1.355 . S
C836 C837 1.363 . S
C836 H848 0.929 . S
C837 C836 1.363 . S
C837 N839 1.375 . S
C837 H855 0.931 . S
C838 N835 1.311 . S
C838 N839 1.347 . S
C838 H849 0.929 . S
N839 C837 1.375 . S
N839 C838 1.347 . S
C840 C843 1.365 . S
C840 N845 1.328 . S
C840 H846 0.926 1_455 S
C841 C842 1.362 . S
C841 C844 1.378 . S
C841 H856 0.929 . S
C842 C841 1.362 . S
C842 C843 1.366 . S
C843 C840 1.365 . S
C843 C842 1.366 . S
C843 H857 0.930 1_455 S
C844 C841 1.378 . S
C844 N845 1.315 . S
C844 H847 0.930 . S
N845 Co825 2.194 . S
N845 C840 1.328 . S
N845 C844 1.315 . S
H846 C840 0.926 1_655 S
H847 C844 0.930 . S
H848 C836 0.929 . S
H849 C838 0.929 . S
O850 Co825 2.351 . S
O850 C853 1.244 . S
O851 Co825 2.155 . S
O851 C853 1.240 . S
O852 Co825 2.096 . S
O852 C833 1.247 . S
C853 O850 1.244 . S
C853 O851 1.240 . S
H854 C828 0.931 . S
H855 C837 0.931 . S
H856 C841 0.929 . S
H857 C843 0.930 1_655 S
Co858 N862 2.148 . S
Co858 N868 2.128 . S
Co858 N878 2.194 . S
Co858 O883 2.351 . S
Co858 O884 2.155 . S
Co858 O885 2.096 . S
C859 N862 1.301 . S
C859 N863 1.328 . S
C859 H864 0.930 . S
C860 C861 1.333 . S
C860 N862 1.317 . S
C860 H865 0.930 . S
C861 C860 1.333 . S
C861 N863 1.350 . S
C861 H887 0.931 . S
N862 Co858 2.148 . S
N862 C859 1.301 . S
N862 C860 1.317 . S
N863 C859 1.328 . S
N863 C861 1.350 . S
H864 C859 0.930 . S
H865 C860 0.930 . S
C866 O867 1.224 . S
C866 O885 1.247 . S
O867 C866 1.224 . S
N868 Co858 2.128 . S
N868 C869 1.355 . S
N868 C871 1.311 . S
C869 N868 1.355 . S
C869 C870 1.363 . S
C869 H881 0.929 . S
C870 C869 1.363 . S
C870 N872 1.375 . S
C870 H888 0.931 . S
C871 N868 1.311 . S
C871 N872 1.347 . S
C871 H882 0.929 . S
N872 C870 1.375 . S
N872 C871 1.347 . S
C873 C876 1.365 . S
C873 N878 1.328 . S
C873 H879 0.929 . S
C874 C875 1.362 . S
C874 C877 1.378 . S
C874 H889 0.929 . S
C875 C874 1.362 . S
C875 C876 1.366 . S
C876 C873 1.365 . S
C876 C875 1.366 . S
C876 H890 0.930 . S
C877 C874 1.378 . S
C877 N878 1.315 . S
C877 H880 0.930 . S
N878 Co858 2.194 . S
N878 C873 1.328 . S
N878 C877 1.315 . S
H879 C873 0.929 . S
H880 C877 0.930 . S
H881 C869 0.929 . S
H882 C871 0.929 . S
O883 Co858 2.351 . S
O883 C886 1.244 . S
O884 Co858 2.155 . S
O884 C886 1.240 . S
O885 Co858 2.096 . S
O885 C866 1.247 . S
C886 O883 1.244 . S
C886 O884 1.240 . S
H887 C861 0.931 . S
H888 C870 0.931 . S
H889 C874 0.929 . S
H890 C876 0.930 . S
Co891 N895 2.148 . S
Co891 N901 2.128 . S
Co891 N911 2.194 . S
Co891 O916 2.351 . S
Co891 O917 2.155 . S
Co891 O918 2.096 . S
C892 N895 1.301 . S
C892 N896 1.328 . S
C892 H897 0.930 . S
C893 C894 1.333 . S
C893 N895 1.317 . S
C893 H898 0.930 . S
C894 C893 1.333 . S
C894 N896 1.350 . S
C894 H920 0.931 . S
N895 Co891 2.148 . S
N895 C892 1.301 . S
N895 C893 1.317 . S
N896 C892 1.328 . S
N896 C894 1.350 . S
H897 C892 0.930 . S
H898 C893 0.930 . S
C899 O900 1.224 . S
C899 O918 1.247 . S
O900 C899 1.224 . S
N901 Co891 2.128 . S
N901 C902 1.355 . S
N901 C904 1.311 . S
C902 N901 1.355 . S
C902 C903 1.363 . S
C902 H914 0.929 . S
C903 C902 1.363 . S
C903 N905 1.375 . S
C903 H921 0.931 . S
C904 N901 1.311 . S
C904 N905 1.347 . S
C904 H915 0.929 . S
N905 C903 1.375 . S
N905 C904 1.347 . S
C906 C909 1.365 . S
C906 N911 1.328 . S
C906 H912 0.929 . S
C907 C908 1.362 . S
C907 C910 1.378 . S
C907 H922 0.929 . S
C908 C907 1.362 . S
C908 C909 1.366 . S
C909 C906 1.365 . S
C909 C908 1.366 . S
C909 H923 0.930 . S
C910 C907 1.378 . S
C910 N911 1.315 . S
C910 H913 0.930 . S
N911 Co891 2.194 . S
N911 C906 1.328 . S
N911 C910 1.315 . S
H912 C906 0.929 . S
H913 C910 0.930 . S
H914 C902 0.929 . S
H915 C904 0.929 . S
O916 Co891 2.351 . S
O916 C919 1.244 . S
O917 Co891 2.155 . S
O917 C919 1.240 . S
O918 Co891 2.096 . S
O918 C899 1.247 . S
C919 O916 1.244 . S
C919 O917 1.240 . S
H920 C894 0.931 . S
H921 C903 0.931 . S
H922 C907 0.929 . S
H923 C909 0.930 . S
Co924 N928 2.148 . S
Co924 N934 2.128 . S
Co924 N944 2.194 . S
Co924 O949 2.351 . S
Co924 O950 2.155 . S
Co924 O951 2.096 . S
C925 N928 1.301 . S
C925 N929 1.328 . S
C925 H930 0.930 . S
C926 C927 1.333 . S
C926 N928 1.317 . S
C926 H931 0.930 . S
C927 C926 1.333 . S
C927 N929 1.350 . S
C927 H953 0.931 . S
N928 Co924 2.148 . S
N928 C925 1.301 . S
N928 C926 1.317 . S
N929 C925 1.328 . S
N929 C927 1.350 . S
H930 C925 0.930 . S
H931 C926 0.930 . S
C932 O933 1.224 . S
C932 O951 1.247 . S
O933 C932 1.224 . S
N934 Co924 2.128 . S
N934 C935 1.355 . S
N934 C937 1.311 . S
C935 N934 1.355 . S
C935 C936 1.363 . S
C935 H947 0.929 . S
C936 C935 1.363 . S
C936 N938 1.375 . S
C936 H954 0.931 . S
C937 N934 1.311 . S
C937 N938 1.347 . S
C937 H948 0.929 . S
N938 C936 1.375 . S
N938 C937 1.347 . S
C939 C942 1.365 . S
C939 N944 1.328 . S
C939 H945 0.929 . S
C940 C941 1.362 . S
C940 C943 1.378 . S
C940 H955 0.929 . S
C941 C940 1.362 . S
C941 C942 1.366 . S
C942 C939 1.365 . S
C942 C941 1.366 . S
C942 H956 0.930 . S
C943 C940 1.378 . S
C943 N944 1.315 . S
C943 H946 0.930 . S
N944 Co924 2.194 . S
N944 C939 1.328 . S
N944 C943 1.315 . S
H945 C939 0.929 . S
H946 C943 0.930 . S
H947 C935 0.929 . S
H948 C937 0.929 . S
O949 Co924 2.351 . S
O949 C952 1.244 . S
O950 Co924 2.155 . S
O950 C952 1.240 . S
O951 Co924 2.096 . S
O951 C932 1.247 . S
C952 O949 1.244 . S
C952 O950 1.240 . S
H953 C927 0.931 . S
H954 C936 0.931 . S
H955 C940 0.929 . S
H956 C942 0.930 . S
Co957 N961 2.148 . S
Co957 N967 2.128 . S
Co957 N977 2.194 . S
Co957 O982 2.351 . S
Co957 O983 2.155 . S
Co957 O984 2.096 . S
C958 N961 1.301 . S
C958 N962 1.328 . S
C958 H963 0.930 . S
C959 C960 1.333 . S
C959 N961 1.317 . S
C959 H964 0.930 . S
C960 C959 1.333 . S
C960 N962 1.350 . S
C960 H986 0.931 . S
N961 Co957 2.148 . S
N961 C958 1.301 . S
N961 C959 1.317 . S
N962 C958 1.328 . S
N962 C960 1.350 . S
H963 C958 0.930 . S
H964 C959 0.930 . S
C965 O966 1.224 . S
C965 O984 1.247 . S
O966 C965 1.224 . S
N967 Co957 2.128 . S
N967 C968 1.355 . S
N967 C970 1.311 . S
C968 N967 1.355 . S
C968 C969 1.363 . S
C968 H980 0.929 . S
C969 C968 1.363 . S
C969 N971 1.375 . S
C969 H987 0.931 . S
C970 N967 1.311 . S
C970 N971 1.347 . S
C970 H981 0.929 . S
N971 C969 1.375 . S
N971 C970 1.347 . S
C972 C975 1.365 . S
C972 N977 1.328 . S
C972 H978 0.929 . S
C973 C974 1.362 . S
C973 C976 1.378 . S
C973 H988 0.929 . S
C974 C973 1.362 . S
C974 C975 1.366 . S
C975 C972 1.365 . S
C975 C974 1.366 . S
C975 H989 0.930 . S
C976 C973 1.378 . S
C976 N977 1.315 . S
C976 H979 0.930 . S
N977 Co957 2.194 . S
N977 C972 1.328 . S
N977 C976 1.315 . S
H978 C972 0.929 . S
H979 C976 0.930 . S
H980 C968 0.929 . S
H981 C970 0.929 . S
O982 Co957 2.351 . S
O982 C985 1.244 . S
O983 Co957 2.155 . S
O983 C985 1.240 . S
O984 Co957 2.096 . S
O984 C965 1.247 . S
C985 O982 1.244 . S
C985 O983 1.240 . S
H986 C960 0.931 . S
H987 C969 0.931 . S
H988 C973 0.929 . S
H989 C975 0.930 . S
Co990 N994 2.148 . S
Co990 N1000 2.128 . S
Co990 N1010 2.194 . S
Co990 O1015 2.351 . S
Co990 O1016 2.155 . S
Co990 O1017 2.096 . S
C991 N994 1.301 . S
C991 N995 1.328 . S
C991 H996 0.930 . S
C992 C993 1.333 . S
C992 N994 1.317 . S
C992 H997 0.930 . S
C993 C992 1.333 . S
C993 N995 1.350 . S
C993 H1019 0.931 . S
N994 Co990 2.148 . S
N994 C991 1.301 . S
N994 C992 1.317 . S
N995 C991 1.328 . S
N995 C993 1.350 . S
H996 C991 0.930 . S
H997 C992 0.930 . S
C998 O999 1.224 . S
C998 O1017 1.247 . S
O999 C998 1.224 . S
N1000 Co990 2.128 . S
N1000 C1001 1.355 . S
N1000 C1003 1.311 . S
C1001 N1000 1.355 . S
C1001 C1002 1.363 . S
C1001 H1013 0.929 . S
C1002 C1001 1.363 . S
C1002 N1004 1.375 . S
C1002 H1020 0.931 . S
C1003 N1000 1.311 . S
C1003 N1004 1.347 . S
C1003 H1014 0.929 . S
N1004 C1002 1.375 . S
N1004 C1003 1.347 . S
C1005 C1008 1.365 . S
C1005 N1010 1.328 . S
C1005 H1011 0.929 . S
C1006 C1007 1.362 . S
C1006 C1009 1.378 . S
C1006 H1021 0.929 . S
C1007 C1006 1.362 . S
C1007 C1008 1.366 . S
C1008 C1005 1.365 . S
C1008 C1007 1.366 . S
C1008 H1022 0.930 . S
C1009 C1006 1.378 . S
C1009 N1010 1.315 . S
C1009 H1012 0.930 . S
N1010 Co990 2.194 . S
N1010 C1005 1.328 . S
N1010 C1009 1.315 . S
H1011 C1005 0.929 . S
H1012 C1009 0.930 . S
H1013 C1001 0.929 . S
H1014 C1003 0.929 . S
O1015 Co990 2.351 . S
O1015 C1018 1.244 . S
O1016 Co990 2.155 . S
O1016 C1018 1.240 . S
O1017 Co990 2.096 . S
O1017 C998 1.247 . S
C1018 O1015 1.244 . S
C1018 O1016 1.240 . S
H1019 C993 0.931 . S
H1020 C1002 0.931 . S
H1021 C1006 0.929 . S
H1022 C1008 0.930 . S
Co1023 N1027 2.148 . S
Co1023 N1033 2.128 . S
Co1023 N1043 2.194 . S
Co1023 O1048 2.351 . S
Co1023 O1049 2.155 . S
Co1023 O1050 2.096 . S
C1024 N1027 1.301 . S
C1024 N1028 1.328 . S
C1024 H1029 0.930 . S
C1025 C1026 1.333 . S
C1025 N1027 1.317 . S
C1025 H1030 0.930 . S
C1026 C1025 1.333 . S
C1026 N1028 1.350 . S
C1026 H1052 0.931 . S
N1027 Co1023 2.148 . S
N1027 C1024 1.301 . S
N1027 C1025 1.317 . S
N1028 C1024 1.328 . S
N1028 C1026 1.350 . S
H1029 C1024 0.930 . S
H1030 C1025 0.930 . S
C1031 O1032 1.224 . S
C1031 O1050 1.247 . S
O1032 C1031 1.224 . S
N1033 Co1023 2.128 . S
N1033 C1034 1.355 . S
N1033 C1036 1.311 . S
C1034 N1033 1.355 . S
C1034 C1035 1.363 . S
C1034 H1046 0.929 . S
C1035 C1034 1.363 . S
C1035 N1037 1.375 . S
C1035 H1053 0.931 . S
C1036 N1033 1.311 . S
C1036 N1037 1.347 . S
C1036 H1047 0.929 . S
N1037 C1035 1.375 . S
N1037 C1036 1.347 . S
C1038 C1041 1.365 . S
C1038 N1043 1.328 . S
C1038 H1044 0.929 . S
C1039 C1040 1.362 . S
C1039 C1042 1.378 . S
C1039 H1054 0.929 . S
C1040 C1039 1.362 . S
C1040 C1041 1.366 . S
C1041 C1038 1.365 . S
C1041 C1040 1.366 . S
C1041 H1055 0.930 . S
C1042 C1039 1.378 . S
C1042 N1043 1.315 . S
C1042 H1045 0.930 . S
N1043 Co1023 2.194 . S
N1043 C1038 1.328 . S
N1043 C1042 1.315 . S
H1044 C1038 0.929 . S
H1045 C1042 0.930 . S
H1046 C1034 0.929 . S
H1047 C1036 0.929 . S
O1048 Co1023 2.351 . S
O1048 C1051 1.244 . S
O1049 Co1023 2.155 . S
O1049 C1051 1.240 . S
O1050 Co1023 2.096 . S
O1050 C1031 1.247 . S
C1051 O1048 1.244 . S
C1051 O1049 1.240 . S
H1052 C1026 0.931 . S
H1053 C1035 0.931 . S
H1054 C1039 0.929 . S
H1055 C1041 0.930 . S
Co1056 N1060 2.148 . S
Co1056 N1066 2.128 . S
Co1056 N1076 2.194 . S
Co1056 O1081 2.351 . S
Co1056 O1082 2.155 . S
Co1056 O1083 2.096 . S
C1057 N1060 1.301 . S
C1057 N1061 1.328 . S
C1057 H1062 0.930 . S
C1058 C1059 1.333 . S
C1058 N1060 1.317 . S
C1058 H1063 0.930 . S
C1059 C1058 1.333 . S
C1059 N1061 1.350 . S
C1059 H1085 0.931 . S
N1060 Co1056 2.148 . S
N1060 C1057 1.301 . S
N1060 C1058 1.317 . S
N1061 C1057 1.328 . S
N1061 C1059 1.350 . S
H1062 C1057 0.930 . S
H1063 C1058 0.930 . S
C1064 O1065 1.224 . S
C1064 O1083 1.247 . S
O1065 C1064 1.224 . S
N1066 Co1056 2.128 . S
N1066 C1067 1.355 . S
N1066 C1069 1.311 . S
C1067 N1066 1.355 . S
C1067 C1068 1.363 . S
C1067 H1079 0.929 . S
C1068 C1067 1.363 . S
C1068 N1070 1.375 . S
C1068 H1086 0.931 . S
C1069 N1066 1.311 . S
C1069 N1070 1.347 . S
C1069 H1080 0.929 . S
N1070 C1068 1.375 . S
N1070 C1069 1.347 . S
C1071 C1074 1.365 . S
C1071 N1076 1.328 . S
C1071 H1077 0.929 . S
C1072 C1073 1.362 . S
C1072 C1075 1.378 . S
C1072 H1087 0.929 . S
C1073 C1072 1.362 . S
C1073 C1074 1.366 . S
C1074 C1071 1.365 . S
C1074 C1073 1.366 . S
C1074 H1088 0.930 . S
C1075 C1072 1.378 . S
C1075 N1076 1.315 . S
C1075 H1078 0.930 . S
N1076 Co1056 2.194 . S
N1076 C1071 1.328 . S
N1076 C1075 1.315 . S
H1077 C1071 0.929 . S
H1078 C1075 0.930 . S
H1079 C1067 0.929 . S
H1080 C1069 0.929 . S
O1081 Co1056 2.351 . S
O1081 C1084 1.244 . S
O1082 Co1056 2.155 . S
O1082 C1084 1.240 . S
O1083 Co1056 2.096 . S
O1083 C1064 1.247 . S
C1084 O1081 1.244 . S
C1084 O1082 1.240 . S
H1085 C1059 0.931 . S
H1086 C1068 0.931 . S
H1087 C1072 0.929 . S
H1088 C1074 0.930 . S
Co1089 N1093 2.148 . S
Co1089 N1099 2.128 . S
Co1089 N1109 2.194 . S
Co1089 O1114 2.351 . S
Co1089 O1115 2.155 . S
Co1089 O1116 2.096 . S
C1090 N1093 1.301 . S
C1090 N1094 1.328 1_455 S
C1090 H1095 0.930 1_455 S
C1091 C1092 1.333 . S
C1091 N1093 1.317 . S
C1091 H1096 0.930 . S
C1092 C1091 1.333 . S
C1092 N1094 1.350 1_455 S
C1092 H1118 0.931 . S
N1093 Co1089 2.148 . S
N1093 C1090 1.301 . S
N1093 C1091 1.317 . S
N1094 C1090 1.328 1_655 S
N1094 C1092 1.350 1_655 S
H1095 C1090 0.930 1_655 S
H1096 C1091 0.930 . S
C1097 O1098 1.224 . S
C1097 O1116 1.247 . S
O1098 C1097 1.224 . S
N1099 Co1089 2.128 . S
N1099 C1100 1.355 . S
N1099 C1102 1.311 . S
C1100 N1099 1.355 . S
C1100 C1101 1.363 . S
C1100 H1112 0.929 . S
C1101 C1100 1.363 . S
C1101 N1103 1.375 . S
C1101 H1119 0.931 . S
C1102 N1099 1.311 . S
C1102 N1103 1.347 . S
C1102 H1113 0.929 . S
N1103 C1101 1.375 . S
N1103 C1102 1.347 . S
C1104 C1107 1.365 . S
C1104 N1109 1.328 . S
C1104 H1110 0.924 1_455 S
C1105 C1106 1.362 . S
C1105 C1108 1.378 . S
C1105 H1120 0.929 . S
C1106 C1105 1.362 . S
C1106 C1107 1.366 . S
C1107 C1104 1.365 . S
C1107 C1106 1.366 . S
C1107 H1121 0.930 1_455 S
C1108 C1105 1.378 . S
C1108 N1109 1.315 . S
C1108 H1111 0.930 . S
N1109 Co1089 2.194 . S
N1109 C1104 1.328 . S
N1109 C1108 1.315 . S
H1110 C1104 0.924 1_655 S
H1111 C1108 0.930 . S
H1112 C1100 0.929 . S
H1113 C1102 0.929 . S
O1114 Co1089 2.351 . S
O1114 C1117 1.244 . S
O1115 Co1089 2.155 . S
O1115 C1117 1.240 . S
O1116 Co1089 2.096 . S
O1116 C1097 1.247 . S
C1117 O1114 1.244 . S
C1117 O1115 1.240 . S
H1118 C1092 0.931 . S
H1119 C1101 0.931 . S
H1120 C1105 0.929 . S
H1121 C1107 0.930 1_655 S
Co1122 N1126 2.148 . S
Co1122 N1132 2.128 . S
Co1122 N1142 2.194 . S
Co1122 O1147 2.351 . S
Co1122 O1148 2.155 . S
Co1122 O1149 2.096 . S
C1123 N1126 1.301 . S
C1123 N1127 1.328 . S
C1123 H1128 0.930 . S
C1124 C1125 1.333 . S
C1124 N1126 1.317 . S
C1124 H1129 0.930 . S
C1125 C1124 1.333 . S
C1125 N1127 1.350 . S
C1125 H1151 0.931 . S
N1126 Co1122 2.148 . S
N1126 C1123 1.301 . S
N1126 C1124 1.317 . S
N1127 C1123 1.328 . S
N1127 C1125 1.350 . S
H1128 C1123 0.930 . S
H1129 C1124 0.930 . S
C1130 O1131 1.224 . S
C1130 O1149 1.247 . S
O1131 C1130 1.224 . S
N1132 Co1122 2.128 . S
N1132 C1133 1.355 . S
N1132 C1135 1.311 . S
C1133 N1132 1.355 . S
C1133 C1134 1.363 . S
C1133 H1145 0.929 . S
C1134 C1133 1.363 . S
C1134 N1136 1.375 . S
C1134 H1152 0.931 . S
C1135 N1132 1.311 . S
C1135 N1136 1.347 . S
C1135 H1146 0.929 . S
N1136 C1134 1.375 . S
N1136 C1135 1.347 . S
C1137 C1140 1.365 . S
C1137 N1142 1.328 . S
C1137 H1143 0.929 . S
C1138 C1139 1.362 . S
C1138 C1141 1.378 . S
C1138 H1153 0.929 . S
C1139 C1138 1.362 . S
C1139 C1140 1.366 . S
C1140 C1137 1.365 . S
C1140 C1139 1.366 . S
C1140 H1154 0.930 . S
C1141 C1138 1.378 . S
C1141 N1142 1.315 . S
C1141 H1144 0.930 . S
N1142 Co1122 2.194 . S
N1142 C1137 1.328 . S
N1142 C1141 1.315 . S
H1143 C1137 0.929 . S
H1144 C1141 0.930 . S
H1145 C1133 0.929 . S
H1146 C1135 0.929 . S
O1147 Co1122 2.351 . S
O1147 C1150 1.244 . S
O1148 Co1122 2.155 . S
O1148 C1150 1.240 . S
O1149 Co1122 2.096 . S
O1149 C1130 1.247 . S
C1150 O1147 1.244 . S
C1150 O1148 1.240 . S
H1151 C1125 0.931 . S
H1152 C1134 0.931 . S
H1153 C1138 0.929 . S
H1154 C1140 0.930 . S
Co1155 N1159 2.148 . S
Co1155 N1165 2.128 . S
Co1155 N1175 2.194 . S
Co1155 O1180 2.351 . S
Co1155 O1181 2.155 . S
Co1155 O1182 2.096 . S
C1156 N1159 1.301 . S
C1156 N1160 1.328 1_565 S
C1156 H1161 0.930 1_565 S
C1157 C1158 1.333 . S
C1157 N1159 1.317 . S
C1157 H1162 0.930 . S
C1158 C1157 1.333 . S
C1158 N1160 1.350 1_565 S
C1158 H1184 0.931 . S
N1159 Co1155 2.148 . S
N1159 C1156 1.301 . S
N1159 C1157 1.317 . S
N1160 C1156 1.328 1_545 S
N1160 C1158 1.350 1_545 S
H1161 C1156 0.930 1_545 S
H1162 C1157 0.930 . S
C1163 O1164 1.224 . S
C1163 O1182 1.247 . S
O1164 C1163 1.224 . S
N1165 Co1155 2.128 . S
N1165 C1166 1.355 . S
N1165 C1168 1.311 . S
C1166 N1165 1.355 . S
C1166 C1167 1.363 . S
C1166 H1178 0.929 . S
C1167 C1166 1.363 . S
C1167 N1169 1.375 . S
C1167 H1185 0.931 . S
C1168 N1165 1.311 . S
C1168 N1169 1.347 . S
C1168 H1179 0.929 . S
N1169 C1167 1.375 . S
N1169 C1168 1.347 . S
C1170 C1173 1.365 . S
C1170 N1175 1.328 . S
C1170 H1176 0.926 1_565 S
C1171 C1172 1.362 . S
C1171 C1174 1.378 . S
C1171 H1186 0.929 . S
C1172 C1171 1.362 . S
C1172 C1173 1.366 . S
C1173 C1170 1.365 . S
C1173 C1172 1.366 . S
C1173 H1187 0.930 1_565 S
C1174 C1171 1.378 . S
C1174 N1175 1.315 . S
C1174 H1177 0.930 . S
N1175 Co1155 2.194 . S
N1175 C1170 1.328 . S
N1175 C1174 1.315 . S
H1176 C1170 0.926 1_545 S
H1177 C1174 0.930 . S
H1178 C1166 0.929 . S
H1179 C1168 0.929 . S
O1180 Co1155 2.351 . S
O1180 C1183 1.244 . S
O1181 Co1155 2.155 . S
O1181 C1183 1.240 . S
O1182 Co1155 2.096 . S
O1182 C1163 1.247 . S
C1183 O1180 1.244 . S
C1183 O1181 1.240 . S
H1184 C1158 0.931 . S
H1185 C1167 0.931 . S
H1186 C1171 0.929 . S
H1187 C1173 0.930 1_545 S
H1188 C1194 0.930 . S
H1189 C1197 0.930 . S
H1190 C1198 0.930 . S
H1191 C1199 0.930 . S
H1192 C1202 0.911 1_565 S
H1193 C1203 0.930 . S
C1194 H1188 0.930 . S
C1194 C1195 1.355 . S
C1194 C1196 1.415 . S
C1195 C1194 1.355 . S
C1195 C1197 1.419 . S
C1196 C1194 1.415 . S
C1196 C1201 1.425 . S
C1196 C1203 1.409 . S
C1197 H1189 0.930 . S
C1197 C1195 1.419 . S
C1197 C1198 1.362 . S
C1198 H1190 0.930 . S
C1198 C1197 1.362 . S
C1198 C1201 1.409 . S
C1199 H1191 0.930 . S
C1199 C1200 1.355 . S
C1199 C1201 1.415 . S
C1200 C1199 1.355 . S
C1200 C1202 1.421 . S
C1201 C1196 1.425 . S
C1201 C1198 1.409 . S
C1201 C1199 1.415 . S
C1202 H1192 0.911 1_545 S
C1202 C1200 1.421 . S
C1202 C1203 1.380 . S
C1203 H1193 0.930 . S
C1203 C1196 1.409 . S
C1203 C1202 1.380 . S
H1204 C1210 0.930 . S
H1205 C1213 0.930 1_455 S
H1206 C1214 0.930 . S
H1207 C1215 0.930 . S
H1208 C1218 0.930 . S
H1209 C1219 0.930 . S
C1210 H1204 0.930 . S
C1210 C1211 1.355 . S
C1210 C1212 1.415 . S
C1211 C1210 1.355 . S
C1211 C1213 1.419 . S
C1212 C1210 1.415 . S
C1212 C1217 1.425 . S
C1212 C1219 1.409 . S
C1213 H1205 0.930 1_655 S
C1213 C1211 1.419 . S
C1213 C1214 1.362 . S
C1214 H1206 0.930 . S
C1214 C1213 1.362 . S
C1214 C1217 1.409 . S
C1215 H1207 0.930 . S
C1215 C1216 1.355 1_545 S
C1215 C1217 1.415 . S
C1216 C1215 1.355 1_565 S
C1216 C1218 1.419 . S
C1217 C1212 1.425 . S
C1217 C1214 1.409 . S
C1217 C1215 1.415 . S
C1218 H1208 0.930 . S
C1218 C1216 1.419 . S
C1218 C1219 1.362 1_565 S
C1219 H1209 0.930 . S
C1219 C1212 1.409 . S
C1219 C1218 1.362 1_545 S
H1220 C1226 0.930 . S
H1221 C1229 0.930 . S
H1222 C1230 0.930 . S
H1223 C1231 0.930 . S
H1224 C1234 0.930 . S
H1225 C1235 0.930 . S
C1226 H1220 0.930 . S
C1226 C1227 1.355 . S
C1226 C1228 1.415 . S
C1227 C1226 1.355 . S
C1227 C1229 1.419 . S
C1228 C1226 1.415 . S
C1228 C1233 1.425 . S
C1228 C1235 1.409 . S
C1229 H1221 0.930 . S
C1229 C1227 1.419 . S
C1229 C1230 1.362 . S
C1230 H1222 0.930 . S
C1230 C1229 1.362 . S
C1230 C1233 1.409 . S
C1231 H1223 0.930 . S
C1231 C1232 1.355 1_655 S
C1231 C1233 1.415 . S
C1232 C1231 1.355 1_455 S
C1232 C1234 1.419 . S
C1233 C1228 1.425 . S
C1233 C1230 1.409 . S
C1233 C1231 1.415 . S
C1234 H1224 0.930 . S
C1234 C1232 1.419 . S
C1234 C1235 1.362 1_455 S
C1235 H1225 0.930 . S
C1235 C1228 1.409 . S
C1235 C1234 1.362 1_655 S
H1236 C1242 0.930 . S
H1237 C1245 0.911 1_655 S
H1238 C1246 0.930 . S
H1239 C1247 0.930 . S
H1240 C1250 0.930 . S
H1241 C1251 0.930 . S
C1242 H1236 0.930 . S
C1242 C1243 1.355 . S
C1242 C1244 1.415 . S
C1243 C1242 1.355 . S
C1243 C1245 1.421 . S
C1244 C1242 1.415 . S
C1244 C1249 1.425 . S
C1244 C1251 1.409 . S
C1245 H1237 0.911 1_455 S
C1245 C1243 1.421 . S
C1245 C1246 1.380 . S
C1246 H1238 0.930 . S
C1246 C1245 1.380 . S
C1246 C1249 1.409 . S
C1247 H1239 0.930 . S
C1247 C1248 1.355 . S
C1247 C1249 1.415 . S
C1248 C1247 1.355 . S
C1248 C1250 1.419 . S
C1249 C1244 1.425 . S
C1249 C1246 1.409 . S
C1249 C1247 1.415 . S
C1250 H1240 0.930 . S
C1250 C1248 1.419 . S
C1250 C1251 1.362 . S
C1251 H1241 0.930 . S
C1251 C1244 1.409 . S
C1251 C1250 1.362 . S
H1252 C1258 0.930 . S
H1253 C1261 0.930 . S
H1254 C1262 0.930 . S
H1255 C1263 0.930 . S
H1256 C1266 0.930 . S
H1257 C1267 0.930 . S
C1258 H1252 0.930 . S
C1258 C1259 1.355 . S
C1258 C1260 1.415 . S
C1259 C1258 1.355 . S
C1259 C1261 1.419 . S
C1260 C1258 1.415 . S
C1260 C1265 1.425 . S
C1260 C1267 1.409 . S
C1261 H1253 0.930 . S
C1261 C1259 1.419 . S
C1261 C1262 1.362 . S
C1262 H1254 0.930 . S
C1262 C1261 1.362 . S
C1262 C1265 1.409 . S
C1263 H1255 0.930 . S
C1263 C1264 1.355 1_565 S
C1263 C1265 1.415 . S
C1264 C1263 1.355 1_545 S
C1264 C1266 1.419 . S
C1265 C1260 1.425 . S
C1265 C1262 1.409 . S
C1265 C1263 1.415 . S
C1266 H1256 0.930 . S
C1266 C1264 1.419 . S
C1266 C1267 1.362 1_545 S
C1267 H1257 0.930 . S
C1267 C1260 1.409 . S
C1267 C1266 1.362 1_565 S
H1268 C1274 0.930 . S
H1269 C1277 0.930 . S
H1270 C1278 0.930 . S
H1271 C1279 0.930 . S
H1272 C1282 0.930 . S
H1273 C1283 0.930 . S
C1274 H1268 0.930 . S
C1274 C1275 1.355 . S
C1274 C1276 1.415 . S
C1275 C1274 1.355 . S
C1275 C1277 1.419 . S
C1276 C1274 1.415 . S
C1276 C1281 1.425 . S
C1276 C1283 1.409 . S
C1277 H1269 0.930 . S
C1277 C1275 1.419 . S
C1277 C1278 1.362 . S
C1278 H1270 0.930 . S
C1278 C1277 1.362 . S
C1278 C1281 1.409 . S
C1279 H1271 0.930 . S
C1279 C1280 1.355 1_455 S
C1279 C1281 1.415 . S
C1280 C1279 1.355 1_655 S
C1280 C1282 1.419 . S
C1281 C1276 1.425 . S
C1281 C1278 1.409 . S
C1281 C1279 1.415 . S
C1282 H1272 0.930 . S
C1282 C1280 1.419 . S
C1282 C1283 1.362 1_655 S
C1283 H1273 0.930 . S
C1283 C1276 1.409 . S
C1283 C1282 1.362 1_455 S
H1284 C1290 0.930 1_545 S
H1285 C1293 0.930 . S
H1286 C1294 0.930 . S
H1287 C1295 0.930 . S
H1288 C1298 0.930 . S
H1289 C1299 0.930 . S
C1290 H1284 0.930 1_565 S
C1290 C1291 1.355 . S
C1290 C1292 1.415 . S
C1291 C1290 1.355 . S
C1291 C1293 1.419 . S
C1292 C1290 1.415 . S
C1292 C1297 1.425 . S
C1292 C1299 1.409 . S
C1293 H1285 0.930 . S
C1293 C1291 1.419 . S
C1293 C1294 1.362 . S
C1294 H1286 0.930 . S
C1294 C1293 1.362 . S
C1294 C1297 1.409 . S
C1295 H1287 0.930 . S
C1295 C1296 1.355 . S
C1295 C1297 1.415 . S
C1296 C1295 1.355 . S
C1296 C1298 1.419 . S
C1297 C1292 1.425 . S
C1297 C1294 1.409 . S
C1297 C1295 1.415 . S
C1298 H1288 0.930 . S
C1298 C1296 1.419 . S
C1298 C1299 1.362 . S
C1299 H1289 0.930 . S
C1299 C1292 1.409 . S
C1299 C1298 1.362 . S
H1300 C1306 0.930 . S
H1301 C1309 0.930 . S
H1302 C1310 0.930 . S
H1303 C1311 0.930 . S
H1304 C1314 0.930 . S
H1305 C1315 0.930 . S
C1306 H1300 0.930 . S
C1306 C1307 1.355 1_565 S
C1306 C1308 1.415 . S
C1307 C1306 1.355 1_545 S
C1307 C1309 1.419 . S
C1308 C1306 1.415 . S
C1308 C1313 1.425 . S
C1308 C1315 1.409 . S
C1309 H1301 0.930 . S
C1309 C1307 1.419 . S
C1309 C1310 1.362 1_545 S
C1310 H1302 0.930 . S
C1310 C1309 1.362 1_565 S
C1310 C1313 1.409 . S
C1311 H1303 0.930 . S
C1311 C1312 1.355 . S
C1311 C1313 1.415 . S
C1312 C1311 1.355 . S
C1312 C1314 1.419 . S
C1313 C1308 1.425 . S
C1313 C1310 1.409 . S
C1313 C1311 1.415 . S
C1314 H1304 0.930 . S
C1314 C1312 1.419 . S
C1314 C1315 1.362 . S
C1315 H1305 0.930 . S
C1315 C1308 1.409 . S
C1315 C1314 1.362 . S
H1316 C1322 0.930 . S
H1317 C1325 0.930 . S
H1318 C1326 0.930 . S
H1319 C1327 0.930 . S
H1320 C1330 0.930 . S
H1321 C1331 0.930 . S
C1322 H1316 0.930 . S
C1322 C1323 1.355 . S
C1322 C1324 1.415 . S
C1323 C1322 1.355 . S
C1323 C1325 1.419 . S
C1324 C1322 1.415 . S
C1324 C1329 1.425 . S
C1324 C1331 1.409 . S
C1325 H1317 0.930 . S
C1325 C1323 1.419 . S
C1325 C1326 1.362 . S
C1326 H1318 0.930 . S
C1326 C1325 1.362 . S
C1326 C1329 1.409 . S
C1327 H1319 0.930 . S
C1327 C1328 1.355 1_455 S
C1327 C1329 1.415 . S
C1328 C1327 1.355 1_655 S
C1328 C1330 1.419 . S
C1329 C1324 1.425 . S
C1329 C1326 1.409 . S
C1329 C1327 1.415 . S
C1330 H1320 0.930 . S
C1330 C1328 1.419 . S
C1330 C1331 1.362 1_655 S
C1331 H1321 0.930 . S
C1331 C1324 1.409 . S
C1331 C1330 1.362 1_455 S
H1332 C1338 0.930 1_455 S
H1333 C1341 0.930 . S
H1334 C1342 0.930 . S
H1335 C1343 0.930 . S
H1336 C1346 0.930 . S
H1337 C1347 0.930 . S
C1338 H1332 0.930 1_655 S
C1338 C1339 1.355 . S
C1338 C1340 1.415 . S
C1339 C1338 1.355 . S
C1339 C1341 1.419 . S
C1340 C1338 1.415 . S
C1340 C1345 1.425 . S
C1340 C1347 1.409 . S
C1341 H1333 0.930 . S
C1341 C1339 1.419 . S
C1341 C1342 1.362 . S
C1342 H1334 0.930 . S
C1342 C1341 1.362 . S
C1342 C1345 1.409 . S
C1343 H1335 0.930 . S
C1343 C1344 1.355 . S
C1343 C1345 1.415 . S
C1344 C1343 1.355 . S
C1344 C1346 1.419 . S
C1345 C1340 1.425 . S
C1345 C1342 1.409 . S
C1345 C1343 1.415 . S
C1346 H1336 0.930 . S
C1346 C1344 1.419 . S
C1346 C1347 1.362 . S
C1347 H1337 0.930 . S
C1347 C1340 1.409 . S
C1347 C1346 1.362 . S
H1348 C1354 0.930 1_565 S
H1349 C1357 0.930 . S
H1350 C1358 0.930 . S
H1351 C1359 0.930 . S
H1352 C1362 0.930 . S
H1353 C1363 0.930 . S
C1354 H1348 0.930 1_545 S
C1354 C1355 1.355 1_545 S
C1354 C1356 1.415 . S
C1355 C1354 1.355 1_565 S
C1355 C1357 1.419 1_565 S
C1356 C1354 1.415 . S
C1356 C1361 1.425 . S
C1356 C1363 1.409 . S
C1357 H1349 0.930 . S
C1357 C1355 1.419 1_545 S
C1357 C1358 1.362 . S
C1358 H1350 0.930 . S
C1358 C1357 1.362 . S
C1358 C1361 1.409 . S
C1359 H1351 0.930 . S
C1359 C1360 1.355 . S
C1359 C1361 1.415 . S
C1360 C1359 1.355 . S
C1360 C1362 1.419 . S
C1361 C1356 1.425 . S
C1361 C1358 1.409 . S
C1361 C1359 1.415 . S
C1362 H1352 0.930 . S
C1362 C1360 1.419 . S
C1362 C1363 1.362 . S
C1363 H1353 0.930 . S
C1363 C1356 1.409 . S
C1363 C1362 1.362 . S
H1364 C1370 0.930 . S
H1365 C1373 0.930 1_565 S
H1366 C1374 0.930 . S
H1367 C1375 0.930 . S
H1368 C1378 0.930 1_455 S
H1369 C1379 0.930 . S
C1370 H1364 0.930 . S
C1370 C1371 1.355 . S
C1370 C1372 1.415 . S
C1371 C1370 1.355 . S
C1371 C1373 1.419 . S
C1372 C1370 1.415 . S
C1372 C1377 1.425 . S
C1372 C1379 1.409 . S
C1373 H1365 0.930 1_545 S
C1373 C1371 1.419 . S
C1373 C1374 1.362 . S
C1374 H1366 0.930 . S
C1374 C1373 1.362 . S
C1374 C1377 1.409 . S
C1375 H1367 0.930 . S
C1375 C1376 1.355 1_655 S
C1375 C1377 1.415 . S
C1376 C1375 1.355 1_455 S
C1376 C1378 1.419 1_455 S
C1377 C1372 1.425 . S
C1377 C1374 1.409 . S
C1377 C1375 1.415 . S
C1378 H1368 0.930 1_655 S
C1378 C1376 1.419 1_655 S
C1378 C1379 1.362 . S
C1379 H1369 0.930 . S
C1379 C1372 1.409 . S
C1379 C1378 1.362 . S
H1380 C1386 0.930 . S
H1381 C1389 0.930 . S
H1382 C1390 0.930 . S
H1383 C1391 0.930 . S
H1384 C1394 0.930 . S
H1385 C1395 0.930 . S
C1386 H1380 0.930 . S
C1386 C1387 1.355 . S
C1386 C1388 1.415 . S
C1387 C1386 1.355 . S
C1387 C1389 1.419 . S
C1388 C1386 1.415 . S
C1388 C1393 1.425 . S
C1388 C1395 1.409 . S
C1389 H1381 0.930 . S
C1389 C1387 1.419 . S
C1389 C1390 1.362 . S
C1390 H1382 0.930 . S
C1390 C1389 1.362 . S
C1390 C1393 1.409 . S
C1391 H1383 0.930 . S
C1391 C1392 1.355 . S
C1391 C1393 1.415 . S
C1392 C1391 1.355 . S
C1392 C1394 1.419 . S
C1393 C1388 1.425 . S
C1393 C1390 1.409 . S
C1393 C1391 1.415 . S
C1394 H1384 0.930 . S
C1394 C1392 1.419 . S
C1394 C1395 1.362 . S
C1395 H1385 0.930 . S
C1395 C1388 1.409 . S
C1395 C1394 1.362 . S
H1396 C1402 0.930 . S
H1397 C1405 0.930 . S
H1398 C1406 0.930 . S
H1399 C1407 0.930 . S
H1400 C1410 0.930 . S
H1401 C1411 0.930 . S
C1402 H1396 0.930 . S
C1402 C1403 1.355 . S
C1402 C1404 1.415 . S
C1403 C1402 1.355 . S
C1403 C1405 1.419 . S
C1404 C1402 1.415 . S
C1404 C1409 1.425 . S
C1404 C1411 1.409 . S
C1405 H1397 0.930 . S
C1405 C1403 1.419 . S
C1405 C1406 1.362 . S
C1406 H1398 0.930 . S
C1406 C1405 1.362 . S
C1406 C1409 1.409 . S
C1407 H1399 0.930 . S
C1407 C1408 1.355 . S
C1407 C1409 1.415 . S
C1408 C1407 1.355 . S
C1408 C1410 1.419 . S
C1409 C1404 1.425 . S
C1409 C1406 1.409 . S
C1409 C1407 1.415 . S
C1410 H1400 0.930 . S
C1410 C1408 1.419 . S
C1410 C1411 1.362 . S
C1411 H1401 0.930 . S
C1411 C1404 1.409 . S
C1411 C1410 1.362 . S
H1412 C1418 0.930 . S
H1413 C1421 0.930 . S
H1414 C1422 0.930 . S
H1415 C1423 0.930 . S
H1416 C1426 0.930 . S
H1417 C1427 0.930 . S
C1418 H1412 0.930 . S
C1418 C1419 1.355 . S
C1418 C1420 1.415 . S
C1419 C1418 1.355 . S
C1419 C1421 1.419 . S
C1420 C1418 1.415 . S
C1420 C1425 1.425 . S
C1420 C1427 1.409 . S
C1421 H1413 0.930 . S
C1421 C1419 1.419 . S
C1421 C1422 1.362 . S
C1422 H1414 0.930 . S
C1422 C1421 1.362 . S
C1422 C1425 1.409 . S
C1423 H1415 0.930 . S
C1423 C1424 1.355 . S
C1423 C1425 1.415 . S
C1424 C1423 1.355 . S
C1424 C1426 1.419 . S
C1425 C1420 1.425 . S
C1425 C1422 1.409 . S
C1425 C1423 1.415 . S
C1426 H1416 0.930 . S
C1426 C1424 1.419 . S
C1426 C1427 1.362 . S
C1427 H1417 0.930 . S
C1427 C1420 1.409 . S
C1427 C1426 1.362 . S
H1428 C1434 0.930 . S
H1429 C1437 0.930 . S
H1430 C1438 0.930 . S
H1431 C1439 0.930 . S
H1432 C1442 0.930 . S
H1433 C1443 0.930 . S
C1434 H1428 0.930 . S
C1434 C1435 1.355 . S
C1434 C1436 1.415 . S
C1435 C1434 1.355 . S
C1435 C1437 1.419 . S
C1436 C1434 1.415 . S
C1436 C1441 1.425 . S
C1436 C1443 1.409 . S
C1437 H1429 0.930 . S
C1437 C1435 1.419 . S
C1437 C1438 1.362 . S
C1438 H1430 0.930 . S
C1438 C1437 1.362 . S
C1438 C1441 1.409 . S
C1439 H1431 0.930 . S
C1439 C1440 1.355 . S
C1439 C1441 1.415 . S
C1440 C1439 1.355 . S
C1440 C1442 1.419 . S
C1441 C1436 1.425 . S
C1441 C1438 1.409 . S
C1441 C1439 1.415 . S
C1442 H1432 0.930 . S
C1442 C1440 1.419 . S
C1442 C1443 1.362 . S
C1443 H1433 0.930 . S
C1443 C1436 1.409 . S
C1443 C1442 1.362 . S
H1444 C1450 0.930 . S
H1445 C1453 0.930 . S
H1446 C1454 0.930 . S
H1447 C1455 0.930 . S
H1448 C1458 0.930 . S
H1449 C1459 0.930 . S
C1450 H1444 0.930 . S
C1450 C1451 1.355 . S
C1450 C1452 1.415 . S
C1451 C1450 1.355 . S
C1451 C1453 1.419 . S
C1452 C1450 1.415 . S
C1452 C1457 1.425 . S
C1452 C1459 1.409 . S
C1453 H1445 0.930 . S
C1453 C1451 1.419 . S
C1453 C1454 1.362 . S
C1454 H1446 0.930 . S
C1454 C1453 1.362 . S
C1454 C1457 1.409 . S
C1455 H1447 0.930 . S
C1455 C1456 1.355 . S
C1455 C1457 1.415 . S
C1456 C1455 1.355 . S
C1456 C1458 1.419 . S
C1457 C1452 1.425 . S
C1457 C1454 1.409 . S
C1457 C1455 1.415 . S
C1458 H1448 0.930 . S
C1458 C1456 1.419 . S
C1458 C1459 1.362 . S
C1459 H1449 0.930 . S
C1459 C1452 1.409 . S
C1459 C1458 1.362 . S
H1460 C1466 0.930 . S
H1461 C1469 0.930 . S
H1462 C1470 0.930 . S
H1463 C1471 0.930 . S
H1464 C1474 0.930 . S
H1465 C1475 0.930 . S
C1466 H1460 0.930 . S
C1466 C1467 1.355 . S
C1466 C1468 1.415 . S
C1467 C1466 1.355 . S
C1467 C1469 1.419 . S
C1468 C1466 1.415 . S
C1468 C1473 1.425 . S
C1468 C1475 1.409 . S
C1469 H1461 0.930 . S
C1469 C1467 1.419 . S
C1469 C1470 1.362 . S
C1470 H1462 0.930 . S
C1470 C1469 1.362 . S
C1470 C1473 1.409 . S
C1471 H1463 0.930 . S
C1471 C1472 1.355 . S
C1471 C1473 1.415 . S
C1472 C1471 1.355 . S
C1472 C1474 1.419 . S
C1473 C1468 1.425 . S
C1473 C1470 1.409 . S
C1473 C1471 1.415 . S
C1474 H1464 0.930 . S
C1474 C1472 1.419 . S
C1474 C1475 1.362 . S
C1475 H1465 0.930 . S
C1475 C1468 1.409 . S
C1475 C1474 1.362 . S
H1476 C1482 0.930 . S
H1477 C1485 0.930 . S
H1478 C1486 0.930 . S
H1479 C1487 0.930 . S
H1480 C1490 0.930 . S
H1481 C1491 0.930 . S
C1482 H1476 0.930 . S
C1482 C1483 1.355 . S
C1482 C1484 1.415 . S
C1483 C1482 1.355 . S
C1483 C1485 1.419 . S
C1484 C1482 1.415 . S
C1484 C1489 1.425 . S
C1484 C1491 1.409 . S
C1485 H1477 0.930 . S
C1485 C1483 1.419 . S
C1485 C1486 1.362 . S
C1486 H1478 0.930 . S
C1486 C1485 1.362 . S
C1486 C1489 1.409 . S
C1487 H1479 0.930 . S
C1487 C1488 1.355 . S
C1487 C1489 1.415 . S
C1488 C1487 1.355 . S
C1488 C1490 1.419 . S
C1489 C1484 1.425 . S
C1489 C1486 1.409 . S
C1489 C1487 1.415 . S
C1490 H1480 0.930 . S
C1490 C1488 1.419 . S
C1490 C1491 1.362 . S
C1491 H1481 0.930 . S
C1491 C1484 1.409 . S
C1491 C1490 1.362 . S
H1492 C1498 0.930 . S
H1493 C1501 0.930 . S
H1494 C1502 0.930 . S
H1495 C1503 0.930 . S
H1496 C1506 0.930 . S
H1497 C1507 0.930 . S
C1498 H1492 0.930 . S
C1498 C1499 1.355 . S
C1498 C1500 1.415 . S
C1499 C1498 1.355 . S
C1499 C1501 1.419 . S
C1500 C1498 1.415 . S
C1500 C1505 1.425 . S
C1500 C1507 1.409 . S
C1501 H1493 0.930 . S
C1501 C1499 1.419 . S
C1501 C1502 1.362 . S
C1502 H1494 0.930 . S
C1502 C1501 1.362 . S
C1502 C1505 1.409 . S
C1503 H1495 0.930 . S
C1503 C1504 1.355 . S
C1503 C1505 1.415 . S
C1504 C1503 1.355 . S
C1504 C1506 1.419 . S
C1505 C1500 1.425 . S
C1505 C1502 1.409 . S
C1505 C1503 1.415 . S
C1506 H1496 0.930 . S
C1506 C1504 1.419 . S
C1506 C1507 1.362 . S
C1507 H1497 0.930 . S
C1507 C1500 1.409 . S
C1507 C1506 1.362 . S
H1508 C1514 0.930 . S
H1509 C1517 0.930 . S
H1510 C1518 0.930 . S
H1511 C1519 0.930 . S
H1512 C1522 0.930 . S
H1513 C1523 0.930 . S
C1514 H1508 0.930 . S
C1514 C1515 1.355 . S
C1514 C1516 1.415 . S
C1515 C1514 1.355 . S
C1515 C1517 1.419 . S
C1516 C1514 1.415 . S
C1516 C1521 1.425 . S
C1516 C1523 1.409 . S
C1517 H1509 0.930 . S
C1517 C1515 1.419 . S
C1517 C1518 1.362 . S
C1518 H1510 0.930 . S
C1518 C1517 1.362 . S
C1518 C1521 1.409 . S
C1519 H1511 0.930 . S
C1519 C1520 1.355 . S
C1519 C1521 1.415 . S
C1520 C1519 1.355 . S
C1520 C1522 1.419 . S
C1521 C1516 1.425 . S
C1521 C1518 1.409 . S
C1521 C1519 1.415 . S
C1522 H1512 0.930 . S
C1522 C1520 1.419 . S
C1522 C1523 1.362 . S
C1523 H1513 0.930 . S
C1523 C1516 1.409 . S
C1523 C1522 1.362 . S
H1524 C1530 0.930 . S
H1525 C1533 0.930 . S
H1526 C1534 0.930 . S
H1527 C1535 0.930 . S
H1528 C1538 0.930 . S
H1529 C1539 0.930 . S
C1530 H1524 0.930 . S
C1530 C1531 1.355 . S
C1530 C1532 1.415 . S
C1531 C1530 1.355 . S
C1531 C1533 1.419 . S
C1532 C1530 1.415 . S
C1532 C1537 1.425 . S
C1532 C1539 1.409 . S
C1533 H1525 0.930 . S
C1533 C1531 1.419 . S
C1533 C1534 1.362 . S
C1534 H1526 0.930 . S
C1534 C1533 1.362 . S
C1534 C1537 1.409 . S
C1535 H1527 0.930 . S
C1535 C1536 1.355 . S
C1535 C1537 1.415 . S
C1536 C1535 1.355 . S
C1536 C1538 1.419 . S
C1537 C1532 1.425 . S
C1537 C1534 1.409 . S
C1537 C1535 1.415 . S
C1538 H1528 0.930 . S
C1538 C1536 1.419 . S
C1538 C1539 1.362 . S
C1539 H1529 0.930 . S
C1539 C1532 1.409 . S
C1539 C1538 1.362 . S
H1540 C1546 0.930 . S
H1541 C1549 0.930 . S
H1542 C1550 0.930 . S
H1543 C1551 0.930 . S
H1544 C1554 0.930 . S
H1545 C1555 0.930 . S
C1546 H1540 0.930 . S
C1546 C1547 1.355 . S
C1546 C1548 1.415 . S
C1547 C1546 1.355 . S
C1547 C1549 1.419 . S
C1548 C1546 1.415 . S
C1548 C1553 1.425 . S
C1548 C1555 1.409 . S
C1549 H1541 0.930 . S
C1549 C1547 1.419 . S
C1549 C1550 1.362 . S
C1550 H1542 0.930 . S
C1550 C1549 1.362 . S
C1550 C1553 1.409 . S
C1551 H1543 0.930 . S
C1551 C1552 1.355 . S
C1551 C1553 1.415 . S
C1552 C1551 1.355 . S
C1552 C1554 1.419 . S
C1553 C1548 1.425 . S
C1553 C1550 1.409 . S
C1553 C1551 1.415 . S
C1554 H1544 0.930 . S
C1554 C1552 1.419 . S
C1554 C1555 1.362 . S
C1555 H1545 0.930 . S
C1555 C1548 1.409 . S
C1555 C1554 1.362 . S
H1556 C1562 0.930 . S
H1557 C1565 0.930 . S
H1558 C1566 0.930 . S
H1559 C1567 0.930 . S
H1560 C1570 0.930 . S
H1561 C1571 0.930 . S
C1562 H1556 0.930 . S
C1562 C1563 1.355 . S
C1562 C1564 1.415 . S
C1563 C1562 1.355 . S
C1563 C1565 1.419 . S
C1564 C1562 1.415 . S
C1564 C1569 1.425 . S
C1564 C1571 1.409 . S
C1565 H1557 0.930 . S
C1565 C1563 1.419 . S
C1565 C1566 1.362 . S
C1566 H1558 0.930 . S
C1566 C1565 1.362 . S
C1566 C1569 1.409 . S
C1567 H1559 0.930 . S
C1567 C1568 1.355 . S
C1567 C1569 1.415 . S
C1568 C1567 1.355 . S
C1568 C1570 1.419 . S
C1569 C1564 1.425 . S
C1569 C1566 1.409 . S
C1569 C1567 1.415 . S
C1570 H1560 0.930 . S
C1570 C1568 1.419 . S
C1570 C1571 1.362 . S
C1571 H1561 0.930 . S
C1571 C1564 1.409 . S
C1571 C1570 1.362 . S
H1572 C1578 0.930 . S
H1573 C1581 0.930 . S
H1574 C1582 0.930 . S
H1575 C1583 0.930 . S
H1576 C1586 0.930 . S
H1577 C1587 0.930 . S
C1578 H1572 0.930 . S
C1578 C1579 1.355 . S
C1578 C1580 1.415 . S
C1579 C1578 1.355 . S
C1579 C1581 1.419 . S
C1580 C1578 1.415 . S
C1580 C1585 1.425 . S
C1580 C1587 1.409 . S
C1581 H1573 0.930 . S
C1581 C1579 1.419 . S
C1581 C1582 1.362 . S
C1582 H1574 0.930 . S
C1582 C1581 1.362 . S
C1582 C1585 1.409 . S
C1583 H1575 0.930 . S
C1583 C1584 1.355 . S
C1583 C1585 1.415 . S
C1584 C1583 1.355 . S
C1584 C1586 1.419 . S
C1585 C1580 1.425 . S
C1585 C1582 1.409 . S
C1585 C1583 1.415 . S
C1586 H1576 0.930 . S
C1586 C1584 1.419 . S
C1586 C1587 1.362 . S
C1587 H1577 0.930 . S
C1587 C1580 1.409 . S
C1587 C1586 1.362 . S
H1588 C1594 0.930 . S
H1589 C1597 0.930 . S
H1590 C1598 0.930 . S
H1591 C1599 0.930 . S
H1592 C1602 0.930 . S
H1593 C1603 0.930 . S
C1594 H1588 0.930 . S
C1594 C1595 1.355 . S
C1594 C1596 1.415 . S
C1595 C1594 1.355 . S
C1595 C1597 1.419 . S
C1596 C1594 1.415 . S
C1596 C1601 1.425 . S
C1596 C1603 1.409 . S
C1597 H1589 0.930 . S
C1597 C1595 1.419 . S
C1597 C1598 1.362 . S
C1598 H1590 0.930 . S
C1598 C1597 1.362 . S
C1598 C1601 1.409 . S
C1599 H1591 0.930 . S
C1599 C1600 1.355 . S
C1599 C1601 1.415 . S
C1600 C1599 1.355 . S
C1600 C1602 1.419 . S
C1601 C1596 1.425 . S
C1601 C1598 1.409 . S
C1601 C1599 1.415 . S
C1602 H1592 0.930 . S
C1602 C1600 1.419 . S
C1602 C1603 1.362 . S
C1603 H1593 0.930 . S
C1603 C1596 1.409 . S
C1603 C1602 1.362 . S
H1604 C1610 0.930 . S
H1605 C1613 0.930 . S
H1606 C1614 0.930 . S
H1607 C1615 0.930 . S
H1608 C1618 0.930 . S
H1609 C1619 0.930 . S
C1610 H1604 0.930 . S
C1610 C1611 1.355 . S
C1610 C1612 1.415 . S
C1611 C1610 1.355 . S
C1611 C1613 1.419 . S
C1612 C1610 1.415 . S
C1612 C1617 1.425 . S
C1612 C1619 1.409 . S
C1613 H1605 0.930 . S
C1613 C1611 1.419 . S
C1613 C1614 1.362 . S
C1614 H1606 0.930 . S
C1614 C1613 1.362 . S
C1614 C1617 1.409 . S
C1615 H1607 0.930 . S
C1615 C1616 1.355 . S
C1615 C1617 1.415 . S
C1616 C1615 1.355 . S
C1616 C1618 1.419 . S
C1617 C1612 1.425 . S
C1617 C1614 1.409 . S
C1617 C1615 1.415 . S
C1618 H1608 0.930 . S
C1618 C1616 1.419 . S
C1618 C1619 1.362 . S
C1619 H1609 0.930 . S
C1619 C1612 1.409 . S
C1619 C1618 1.362 . S
H1620 C1626 0.930 . S
H1621 C1629 0.930 . S
H1622 C1630 0.930 . S
H1623 C1631 0.930 . S
H1624 C1634 0.930 . S
H1625 C1635 0.930 . S
C1626 H1620 0.930 . S
C1626 C1627 1.355 . S
C1626 C1628 1.415 . S
C1627 C1626 1.355 . S
C1627 C1629 1.419 . S
C1628 C1626 1.415 . S
C1628 C1633 1.425 . S
C1628 C1635 1.409 . S
C1629 H1621 0.930 . S
C1629 C1627 1.419 . S
C1629 C1630 1.362 . S
C1630 H1622 0.930 . S
C1630 C1629 1.362 . S
C1630 C1633 1.409 . S
C1631 H1623 0.930 . S
C1631 C1632 1.355 . S
C1631 C1633 1.415 . S
C1632 C1631 1.355 . S
C1632 C1634 1.419 . S
C1633 C1628 1.425 . S
C1633 C1630 1.409 . S
C1633 C1631 1.415 . S
C1634 H1624 0.930 . S
C1634 C1632 1.419 . S
C1634 C1635 1.362 . S
C1635 H1625 0.930 . S
C1635 C1628 1.409 . S
C1635 C1634 1.362 . S
H1636 C1642 0.930 . S
H1637 C1645 0.930 . S
H1638 C1646 0.930 . S
H1639 C1647 0.930 . S
H1640 C1650 0.930 . S
H1641 C1651 0.930 . S
C1642 H1636 0.930 . S
C1642 C1643 1.355 . S
C1642 C1644 1.415 . S
C1643 C1642 1.355 . S
C1643 C1645 1.419 . S
C1644 C1642 1.415 . S
C1644 C1649 1.425 . S
C1644 C1651 1.409 . S
C1645 H1637 0.930 . S
C1645 C1643 1.419 . S
C1645 C1646 1.362 . S
C1646 H1638 0.930 . S
C1646 C1645 1.362 . S
C1646 C1649 1.409 . S
C1647 H1639 0.930 . S
C1647 C1648 1.355 . S
C1647 C1649 1.415 . S
C1648 C1647 1.355 . S
C1648 C1650 1.419 . S
C1649 C1644 1.425 . S
C1649 C1646 1.409 . S
C1649 C1647 1.415 . S
C1650 H1640 0.930 . S
C1650 C1648 1.419 . S
C1650 C1651 1.362 . S
C1651 H1641 0.930 . S
C1651 C1644 1.409 . S
C1651 C1650 1.362 . S
H1652 C1658 0.930 . S
H1653 C1661 0.930 . S
H1654 C1662 0.930 . S
H1655 C1663 0.930 . S
H1656 C1666 0.930 . S
H1657 C1667 0.930 . S
C1658 H1652 0.930 . S
C1658 C1659 1.355 . S
C1658 C1660 1.415 . S
C1659 C1658 1.355 . S
C1659 C1661 1.419 . S
C1660 C1658 1.415 . S
C1660 C1665 1.425 . S
C1660 C1667 1.409 . S
C1661 H1653 0.930 . S
C1661 C1659 1.419 . S
C1661 C1662 1.362 . S
C1662 H1654 0.930 . S
C1662 C1661 1.362 . S
C1662 C1665 1.409 . S
C1663 H1655 0.930 . S
C1663 C1664 1.355 . S
C1663 C1665 1.415 . S
C1664 C1663 1.355 . S
C1664 C1666 1.419 . S
C1665 C1660 1.425 . S
C1665 C1662 1.409 . S
C1665 C1663 1.415 . S
C1666 H1656 0.930 . S
C1666 C1664 1.419 . S
C1666 C1667 1.362 . S
C1667 H1657 0.930 . S
C1667 C1660 1.409 . S
C1667 C1666 1.362 . S
H1668 C1674 0.930 . S
H1669 C1677 0.930 . S
H1670 C1678 0.930 . S
H1671 C1679 0.930 . S
H1672 C1682 0.930 . S
H1673 C1683 0.930 . S
C1674 H1668 0.930 . S
C1674 C1675 1.355 . S
C1674 C1676 1.415 . S
C1675 C1674 1.355 . S
C1675 C1677 1.419 . S
C1676 C1674 1.415 . S
C1676 C1681 1.425 . S
C1676 C1683 1.409 . S
C1677 H1669 0.930 . S
C1677 C1675 1.419 . S
C1677 C1678 1.362 . S
C1678 H1670 0.930 . S
C1678 C1677 1.362 . S
C1678 C1681 1.409 . S
C1679 H1671 0.930 . S
C1679 C1680 1.355 . S
C1679 C1681 1.415 . S
C1680 C1679 1.355 . S
C1680 C1682 1.419 . S
C1681 C1676 1.425 . S
C1681 C1678 1.409 . S
C1681 C1679 1.415 . S
C1682 H1672 0.930 . S
C1682 C1680 1.419 . S
C1682 C1683 1.362 . S
C1683 H1673 0.930 . S
C1683 C1676 1.409 . S
C1683 C1682 1.362 . S
H1684 C1690 0.930 . S
H1685 C1693 0.930 . S
H1686 C1694 0.930 . S
H1687 C1695 0.930 . S
H1688 C1698 0.930 . S
H1689 C1699 0.930 . S
C1690 H1684 0.930 . S
C1690 C1691 1.355 . S
C1690 C1692 1.415 . S
C1691 C1690 1.355 . S
C1691 C1693 1.419 . S
C1692 C1690 1.415 . S
C1692 C1697 1.425 . S
C1692 C1699 1.409 . S
C1693 H1685 0.930 . S
C1693 C1691 1.419 . S
C1693 C1694 1.362 . S
C1694 H1686 0.930 . S
C1694 C1693 1.362 . S
C1694 C1697 1.409 . S
C1695 H1687 0.930 . S
C1695 C1696 1.355 . S
C1695 C1697 1.415 . S
C1696 C1695 1.355 . S
C1696 C1698 1.419 . S
C1697 C1692 1.425 . S
C1697 C1694 1.409 . S
C1697 C1695 1.415 . S
C1698 H1688 0.930 . S
C1698 C1696 1.419 . S
C1698 C1699 1.362 . S
C1699 H1689 0.930 . S
C1699 C1692 1.409 . S
C1699 C1698 1.362 . S
H1700 C1706 0.930 . S
H1701 C1709 0.930 . S
H1702 C1710 0.930 . S
H1703 C1711 0.930 . S
H1704 C1714 0.930 . S
H1705 C1715 0.930 . S
C1706 H1700 0.930 . S
C1706 C1707 1.355 . S
C1706 C1708 1.415 . S
C1707 C1706 1.355 . S
C1707 C1709 1.419 . S
C1708 C1706 1.415 . S
C1708 C1713 1.425 . S
C1708 C1715 1.409 . S
C1709 H1701 0.930 . S
C1709 C1707 1.419 . S
C1709 C1710 1.362 . S
C1710 H1702 0.930 . S
C1710 C1709 1.362 . S
C1710 C1713 1.409 . S
C1711 H1703 0.930 . S
C1711 C1712 1.355 . S
C1711 C1713 1.415 . S
C1712 C1711 1.355 . S
C1712 C1714 1.419 . S
C1713 C1708 1.425 . S
C1713 C1710 1.409 . S
C1713 C1711 1.415 . S
C1714 H1704 0.930 . S
C1714 C1712 1.419 . S
C1714 C1715 1.362 . S
C1715 H1705 0.930 . S
C1715 C1708 1.409 . S
C1715 C1714 1.362 . S
H1716 C1722 0.930 . S
H1717 C1725 0.930 . S
H1718 C1726 0.930 . S
H1719 C1727 0.930 . S
H1720 C1730 0.930 . S
H1721 C1731 0.930 . S
C1722 H1716 0.930 . S
C1722 C1723 1.355 . S
C1722 C1724 1.415 . S
C1723 C1722 1.355 . S
C1723 C1725 1.419 . S
C1724 C1722 1.415 . S
C1724 C1729 1.425 . S
C1724 C1731 1.409 . S
C1725 H1717 0.930 . S
C1725 C1723 1.419 . S
C1725 C1726 1.362 . S
C1726 H1718 0.930 . S
C1726 C1725 1.362 . S
C1726 C1729 1.409 . S
C1727 H1719 0.930 . S
C1727 C1728 1.355 . S
C1727 C1729 1.415 . S
C1728 C1727 1.355 . S
C1728 C1730 1.419 . S
C1729 C1724 1.425 . S
C1729 C1726 1.409 . S
C1729 C1727 1.415 . S
C1730 H1720 0.930 . S
C1730 C1728 1.419 . S
C1730 C1731 1.362 . S
C1731 H1721 0.930 . S
C1731 C1724 1.409 . S
C1731 C1730 1.362 . S
H1732 C1738 0.930 . S
H1733 C1741 0.930 . S
H1734 C1742 0.930 . S
H1735 C1743 0.930 . S
H1736 C1746 0.930 . S
H1737 C1747 0.930 . S
C1738 H1732 0.930 . S
C1738 C1739 1.355 . S
C1738 C1740 1.415 . S
C1739 C1738 1.355 . S
C1739 C1741 1.419 . S
C1740 C1738 1.415 . S
C1740 C1745 1.425 . S
C1740 C1747 1.409 . S
C1741 H1733 0.930 . S
C1741 C1739 1.419 . S
C1741 C1742 1.362 . S
C1742 H1734 0.930 . S
C1742 C1741 1.362 . S
C1742 C1745 1.409 . S
C1743 H1735 0.930 . S
C1743 C1744 1.355 . S
C1743 C1745 1.415 . S
C1744 C1743 1.355 . S
C1744 C1746 1.419 . S
C1745 C1740 1.425 . S
C1745 C1742 1.409 . S
C1745 C1743 1.415 . S
C1746 H1736 0.930 . S
C1746 C1744 1.419 . S
C1746 C1747 1.362 . S
C1747 H1737 0.930 . S
C1747 C1740 1.409 . S
C1747 C1746 1.362 . S
H1748 C1754 0.930 . S
H1749 C1757 0.930 . S
H1750 C1758 0.930 . S
H1751 C1759 0.930 . S
H1752 C1762 0.930 . S
H1753 C1763 0.930 . S
C1754 H1748 0.930 . S
C1754 C1755 1.355 . S
C1754 C1756 1.415 . S
C1755 C1754 1.355 . S
C1755 C1757 1.419 . S
C1756 C1754 1.415 . S
C1756 C1761 1.425 . S
C1756 C1763 1.409 . S
C1757 H1749 0.930 . S
C1757 C1755 1.419 . S
C1757 C1758 1.362 . S
C1758 H1750 0.930 . S
C1758 C1757 1.362 . S
C1758 C1761 1.409 . S
C1759 H1751 0.930 . S
C1759 C1760 1.355 . S
C1759 C1761 1.415 . S
C1760 C1759 1.355 . S
C1760 C1762 1.419 . S
C1761 C1756 1.425 . S
C1761 C1758 1.409 . S
C1761 C1759 1.415 . S
C1762 H1752 0.930 . S
C1762 C1760 1.419 . S
C1762 C1763 1.362 . S
C1763 H1753 0.930 . S
C1763 C1756 1.409 . S
C1763 C1762 1.362 . S
H1764 C1770 0.930 . S
H1765 C1773 0.930 . S
H1766 C1774 0.930 . S
H1767 C1775 0.930 . S
H1768 C1778 0.930 . S
H1769 C1779 0.930 . S
C1770 H1764 0.930 . S
C1770 C1771 1.355 . S
C1770 C1772 1.415 . S
C1771 C1770 1.355 . S
C1771 C1773 1.419 . S
C1772 C1770 1.415 . S
C1772 C1777 1.425 . S
C1772 C1779 1.409 . S
C1773 H1765 0.930 . S
C1773 C1771 1.419 . S
C1773 C1774 1.362 . S
C1774 H1766 0.930 . S
C1774 C1773 1.362 . S
C1774 C1777 1.409 . S
C1775 H1767 0.930 . S
C1775 C1776 1.355 . S
C1775 C1777 1.415 . S
C1776 C1775 1.355 . S
C1776 C1778 1.419 . S
C1777 C1772 1.425 . S
C1777 C1774 1.409 . S
C1777 C1775 1.415 . S
C1778 H1768 0.930 . S
C1778 C1776 1.419 . S
C1778 C1779 1.362 . S
C1779 H1769 0.930 . S
C1779 C1772 1.409 . S
C1779 C1778 1.362 . S
H1780 C1786 0.930 . S
H1781 C1789 0.930 . S
H1782 C1790 0.930 . S
H1783 C1791 0.930 . S
H1784 C1794 0.930 1_545 S
H1785 C1795 0.930 . S
C1786 H1780 0.930 . S
C1786 C1787 1.355 . S
C1786 C1788 1.415 . S
C1787 C1786 1.355 . S
C1787 C1789 1.419 . S
C1788 C1786 1.415 . S
C1788 C1793 1.425 . S
C1788 C1795 1.409 . S
C1789 H1781 0.930 . S
C1789 C1787 1.419 . S
C1789 C1790 1.362 . S
C1790 H1782 0.930 . S
C1790 C1789 1.362 . S
C1790 C1793 1.409 . S
C1791 H1783 0.930 . S
C1791 C1792 1.355 . S
C1791 C1793 1.415 . S
C1792 C1791 1.355 . S
C1792 C1794 1.419 . S
C1793 C1788 1.425 . S
C1793 C1790 1.409 . S
C1793 C1791 1.415 . S
C1794 H1784 0.930 1_565 S
C1794 C1792 1.419 . S
C1794 C1795 1.362 . S
C1795 H1785 0.930 . S
C1795 C1788 1.409 . S
C1795 C1794 1.362 . S
H1796 C1802 0.930 . S
H1797 C1805 0.930 . S
H1798 C1806 0.930 . S
H1799 C1807 0.930 . S
H1800 C1810 0.930 . S
H1801 C1811 0.930 . S
C1802 H1796 0.930 . S
C1802 C1803 1.355 . S
C1802 C1804 1.415 . S
C1803 C1802 1.355 . S
C1803 C1805 1.419 . S
C1804 C1802 1.415 . S
C1804 C1809 1.425 . S
C1804 C1811 1.409 . S
C1805 H1797 0.930 . S
C1805 C1803 1.419 . S
C1805 C1806 1.362 . S
C1806 H1798 0.930 . S
C1806 C1805 1.362 . S
C1806 C1809 1.409 . S
C1807 H1799 0.930 . S
C1807 C1808 1.355 . S
C1807 C1809 1.415 . S
C1808 C1807 1.355 . S
C1808 C1810 1.419 . S
C1809 C1804 1.425 . S
C1809 C1806 1.409 . S
C1809 C1807 1.415 . S
C1810 H1800 0.930 . S
C1810 C1808 1.419 . S
C1810 C1811 1.362 . S
C1811 H1801 0.930 . S
C1811 C1804 1.409 . S
C1811 C1810 1.362 . S
H1812 C1818 0.930 . S
H1813 C1821 0.930 . S
H1814 C1822 0.930 . S
H1815 C1823 0.930 . S
H1816 C1826 0.930 . S
H1817 C1827 0.930 . S
C1818 H1812 0.930 . S
C1818 C1819 1.355 . S
C1818 C1820 1.415 . S
C1819 C1818 1.355 . S
C1819 C1821 1.419 . S
C1820 C1818 1.415 . S
C1820 C1825 1.425 . S
C1820 C1827 1.409 . S
C1821 H1813 0.930 . S
C1821 C1819 1.419 . S
C1821 C1822 1.362 . S
C1822 H1814 0.930 . S
C1822 C1821 1.362 . S
C1822 C1825 1.409 . S
C1823 H1815 0.930 . S
C1823 C1824 1.355 . S
C1823 C1825 1.415 . S
C1824 C1823 1.355 . S
C1824 C1826 1.419 . S
C1825 C1820 1.425 . S
C1825 C1822 1.409 . S
C1825 C1823 1.415 . S
C1826 H1816 0.930 . S
C1826 C1824 1.419 . S
C1826 C1827 1.362 . S
C1827 H1817 0.930 . S
C1827 C1820 1.409 . S
C1827 C1826 1.362 . S
H1828 C1834 0.930 . S
H1829 C1837 0.930 1_565 S
H1830 C1838 0.930 . S
H1831 C1839 0.930 . S
H1832 C1842 0.930 . S
H1833 C1843 0.930 . S
C1834 H1828 0.930 . S
C1834 C1835 1.355 . S
C1834 C1836 1.415 . S
C1835 C1834 1.355 . S
C1835 C1837 1.419 . S
C1836 C1834 1.415 . S
C1836 C1841 1.425 . S
C1836 C1843 1.409 . S
C1837 H1829 0.930 1_545 S
C1837 C1835 1.419 . S
C1837 C1838 1.362 . S
C1838 H1830 0.930 . S
C1838 C1837 1.362 . S
C1838 C1841 1.409 . S
C1839 H1831 0.930 . S
C1839 C1840 1.355 . S
C1839 C1841 1.415 . S
C1840 C1839 1.355 . S
C1840 C1842 1.419 . S
C1841 C1836 1.425 . S
C1841 C1838 1.409 . S
C1841 C1839 1.415 . S
C1842 H1832 0.930 . S
C1842 C1840 1.419 . S
C1842 C1843 1.362 . S
C1843 H1833 0.930 . S
C1843 C1836 1.409 . S
C1843 C1842 1.362 . S
H1844 C1850 0.930 . S
H1845 C1853 0.930 . S
H1846 C1854 0.930 . S
H1847 C1855 0.930 . S
H1848 C1858 0.930 . S
H1849 C1859 0.930 . S
C1850 H1844 0.930 . S
C1850 C1851 1.355 . S
C1850 C1852 1.415 . S
C1851 C1850 1.355 . S
C1851 C1853 1.419 . S
C1852 C1850 1.415 . S
C1852 C1857 1.425 . S
C1852 C1859 1.409 . S
C1853 H1845 0.930 . S
C1853 C1851 1.419 . S
C1853 C1854 1.362 . S
C1854 H1846 0.930 . S
C1854 C1853 1.362 . S
C1854 C1857 1.409 . S
C1855 H1847 0.930 . S
C1855 C1856 1.355 . S
C1855 C1857 1.415 . S
C1856 C1855 1.355 . S
C1856 C1858 1.419 . S
C1857 C1852 1.425 . S
C1857 C1854 1.409 . S
C1857 C1855 1.415 . S
C1858 H1848 0.930 . S
C1858 C1856 1.419 . S
C1858 C1859 1.362 . S
C1859 H1849 0.930 . S
C1859 C1852 1.409 . S
C1859 C1858 1.362 . S
H1860 C1866 0.930 . S
H1861 C1869 0.930 . S
H1862 C1870 0.930 . S
H1863 C1871 0.930 . S
H1864 C1874 0.930 . S
H1865 C1875 0.930 . S
C1866 H1860 0.930 . S
C1866 C1867 1.355 . S
C1866 C1868 1.415 . S
C1867 C1866 1.355 . S
C1867 C1869 1.419 . S
C1868 C1866 1.415 . S
C1868 C1873 1.425 . S
C1868 C1875 1.409 . S
C1869 H1861 0.930 . S
C1869 C1867 1.419 . S
C1869 C1870 1.362 . S
C1870 H1862 0.930 . S
C1870 C1869 1.362 . S
C1870 C1873 1.409 . S
C1871 H1863 0.930 . S
C1871 C1872 1.355 . S
C1871 C1873 1.415 . S
C1872 C1871 1.355 . S
C1872 C1874 1.419 . S
C1873 C1868 1.425 . S
C1873 C1870 1.409 . S
C1873 C1871 1.415 . S
C1874 H1864 0.930 . S
C1874 C1872 1.419 . S
C1874 C1875 1.362 . S
C1875 H1865 0.930 . S
C1875 C1868 1.409 . S
C1875 C1874 1.362 . S
H1876 C1882 0.930 . S
H1877 C1885 0.930 . S
H1878 C1886 0.930 . S
H1879 C1887 0.930 . S
H1880 C1890 0.930 1_565 S
H1881 C1891 0.930 . S
C1882 H1876 0.930 . S
C1882 C1883 1.355 . S
C1882 C1884 1.415 . S
C1883 C1882 1.355 . S
C1883 C1885 1.419 . S
C1884 C1882 1.415 . S
C1884 C1889 1.425 . S
C1884 C1891 1.409 . S
C1885 H1877 0.930 . S
C1885 C1883 1.419 . S
C1885 C1886 1.362 . S
C1886 H1878 0.930 . S
C1886 C1885 1.362 . S
C1886 C1889 1.409 . S
C1887 H1879 0.930 . S
C1887 C1888 1.355 . S
C1887 C1889 1.415 . S
C1888 C1887 1.355 . S
C1888 C1890 1.419 . S
C1889 C1884 1.425 . S
C1889 C1886 1.409 . S
C1889 C1887 1.415 . S
C1890 H1880 0.930 1_545 S
C1890 C1888 1.419 . S
C1890 C1891 1.362 . S
C1891 H1881 0.930 . S
C1891 C1884 1.409 . S
C1891 C1890 1.362 . S
H1892 C1898 0.930 . S
H1893 C1901 0.930 . S
H1894 C1902 0.930 . S
H1895 C1903 0.930 . S
H1896 C1906 0.930 . S
H1897 C1907 0.930 . S
C1898 H1892 0.930 . S
C1898 C1899 1.355 . S
C1898 C1900 1.415 . S
C1899 C1898 1.355 . S
C1899 C1901 1.419 . S
C1900 C1898 1.415 . S
C1900 C1905 1.425 . S
C1900 C1907 1.409 . S
C1901 H1893 0.930 . S
C1901 C1899 1.419 . S
C1901 C1902 1.362 . S
C1902 H1894 0.930 . S
C1902 C1901 1.362 . S
C1902 C1905 1.409 . S
C1903 H1895 0.930 . S
C1903 C1904 1.355 . S
C1903 C1905 1.415 . S
C1904 C1903 1.355 . S
C1904 C1906 1.419 . S
C1905 C1900 1.425 . S
C1905 C1902 1.409 . S
C1905 C1903 1.415 . S
C1906 H1896 0.930 . S
C1906 C1904 1.419 . S
C1906 C1907 1.362 . S
C1907 H1897 0.930 . S
C1907 C1900 1.409 . S
C1907 C1906 1.362 . S
H1908 C1914 0.930 . S
H1909 C1917 0.930 . S
H1910 C1918 0.930 . S
H1911 C1919 0.930 . S
H1912 C1922 0.930 . S
H1913 C1923 0.930 . S
C1914 H1908 0.930 . S
C1914 C1915 1.355 . S
C1914 C1916 1.415 . S
C1915 C1914 1.355 . S
C1915 C1917 1.419 . S
C1916 C1914 1.415 . S
C1916 C1921 1.425 . S
C1916 C1923 1.409 . S
C1917 H1909 0.930 . S
C1917 C1915 1.419 . S
C1917 C1918 1.362 . S
C1918 H1910 0.930 . S
C1918 C1917 1.362 . S
C1918 C1921 1.409 . S
C1919 H1911 0.930 . S
C1919 C1920 1.355 . S
C1919 C1921 1.415 . S
C1920 C1919 1.355 . S
C1920 C1922 1.419 . S
C1921 C1916 1.425 . S
C1921 C1918 1.409 . S
C1921 C1919 1.415 . S
C1922 H1912 0.930 . S
C1922 C1920 1.419 . S
C1922 C1923 1.362 . S
C1923 H1913 0.930 . S
C1923 C1916 1.409 . S
C1923 C1922 1.362 . S
H1924 C1930 0.930 . S
H1925 C1933 0.930 . S
H1926 C1934 0.930 . S
H1927 C1935 0.930 . S
H1928 C1938 0.930 1_545 S
H1929 C1939 0.930 . S
C1930 H1924 0.930 . S
C1930 C1931 1.355 . S
C1930 C1932 1.415 . S
C1931 C1930 1.355 . S
C1931 C1933 1.419 . S
C1932 C1930 1.415 . S
C1932 C1937 1.425 . S
C1932 C1939 1.409 . S
C1933 H1925 0.930 . S
C1933 C1931 1.419 . S
C1933 C1934 1.362 . S
C1934 H1926 0.930 . S
C1934 C1933 1.362 . S
C1934 C1937 1.409 . S
C1935 H1927 0.930 . S
C1935 C1936 1.355 . S
C1935 C1937 1.415 . S
C1936 C1935 1.355 . S
C1936 C1938 1.419 . S
C1937 C1932 1.425 . S
C1937 C1934 1.409 . S
C1937 C1935 1.415 . S
C1938 H1928 0.930 1_565 S
C1938 C1936 1.419 . S
C1938 C1939 1.362 . S
C1939 H1929 0.930 . S
C1939 C1932 1.409 . S
C1939 C1938 1.362 . S
H1940 C1946 0.930 . S
H1941 C1949 0.930 . S
H1942 C1950 0.930 . S
H1943 C1951 0.930 . S
H1944 C1954 0.930 . S
H1945 C1955 0.930 . S
C1946 H1940 0.930 . S
C1946 C1947 1.355 . S
C1946 C1948 1.415 . S
C1947 C1946 1.355 . S
C1947 C1949 1.419 . S
C1948 C1946 1.415 . S
C1948 C1953 1.425 . S
C1948 C1955 1.409 . S
C1949 H1941 0.930 . S
C1949 C1947 1.419 . S
C1949 C1950 1.362 . S
C1950 H1942 0.930 . S
C1950 C1949 1.362 . S
C1950 C1953 1.409 . S
C1951 H1943 0.930 . S
C1951 C1952 1.355 . S
C1951 C1953 1.415 . S
C1952 C1951 1.355 . S
C1952 C1954 1.419 . S
C1953 C1948 1.425 . S
C1953 C1950 1.409 . S
C1953 C1951 1.415 . S
C1954 H1944 0.930 . S
C1954 C1952 1.419 . S
C1954 C1955 1.362 . S
C1955 H1945 0.930 . S
C1955 C1948 1.409 . S
C1955 C1954 1.362 . S
H1956 C1962 0.930 . S
H1957 C1965 0.930 . S
H1958 C1966 0.930 . S
H1959 C1967 0.930 . S
H1960 C1970 0.930 1_455 S
H1961 C1971 0.930 . S
C1962 H1956 0.930 . S
C1962 C1963 1.355 . S
C1962 C1964 1.415 . S
C1963 C1962 1.355 . S
C1963 C1965 1.419 . S
C1964 C1962 1.415 . S
C1964 C1969 1.425 . S
C1964 C1971 1.409 . S
C1965 H1957 0.930 . S
C1965 C1963 1.419 . S
C1965 C1966 1.362 . S
C1966 H1958 0.930 . S
C1966 C1965 1.362 . S
C1966 C1969 1.409 . S
C1967 H1959 0.930 . S
C1967 C1968 1.355 . S
C1967 C1969 1.415 . S
C1968 C1967 1.355 . S
C1968 C1970 1.419 . S
C1969 C1964 1.425 . S
C1969 C1966 1.409 . S
C1969 C1967 1.415 . S
C1970 H1960 0.930 1_655 S
C1970 C1968 1.419 . S
C1970 C1971 1.362 . S
C1971 H1961 0.930 . S
C1971 C1964 1.409 . S
C1971 C1970 1.362 . S
H1972 C1978 0.930 . S
H1973 C1981 0.930 . S
H1974 C1982 0.930 . S
H1975 C1983 0.930 . S
H1976 C1986 0.930 . S
H1977 C1987 0.930 . S
C1978 H1972 0.930 . S
C1978 C1979 1.355 . S
C1978 C1980 1.415 . S
C1979 C1978 1.355 . S
C1979 C1981 1.419 . S
C1980 C1978 1.415 . S
C1980 C1985 1.425 . S
C1980 C1987 1.409 . S
C1981 H1973 0.930 . S
C1981 C1979 1.419 . S
C1981 C1982 1.362 . S
C1982 H1974 0.930 . S
C1982 C1981 1.362 . S
C1982 C1985 1.409 . S
C1983 H1975 0.930 . S
C1983 C1984 1.355 . S
C1983 C1985 1.415 . S
C1984 C1983 1.355 . S
C1984 C1986 1.419 . S
C1985 C1980 1.425 . S
C1985 C1982 1.409 . S
C1985 C1983 1.415 . S
C1986 H1976 0.930 . S
C1986 C1984 1.419 . S
C1986 C1987 1.362 . S
C1987 H1977 0.930 . S
C1987 C1980 1.409 . S
C1987 C1986 1.362 . S
H1988 C1994 0.930 . S
H1989 C1997 0.930 1_565 S
H1990 C1998 0.930 . S
H1991 C1999 0.930 . S
H1992 C2002 0.930 . S
H1993 C2003 0.930 . S
C1994 H1988 0.930 . S
C1994 C1995 1.355 . S
C1994 C1996 1.415 . S
C1995 C1994 1.355 . S
C1995 C1997 1.419 . S
C1996 C1994 1.415 . S
C1996 C2001 1.425 . S
C1996 C2003 1.409 . S
C1997 H1989 0.930 1_545 S
C1997 C1995 1.419 . S
C1997 C1998 1.362 . S
C1998 H1990 0.930 . S
C1998 C1997 1.362 . S
C1998 C2001 1.409 . S
C1999 H1991 0.930 . S
C1999 C2000 1.355 . S
C1999 C2001 1.415 . S
C2000 C1999 1.355 . S
C2000 C2002 1.419 . S
C2001 C1996 1.425 . S
C2001 C1998 1.409 . S
C2001 C1999 1.415 . S
C2002 H1992 0.930 . S
C2002 C2000 1.419 . S
C2002 C2003 1.362 . S
C2003 H1993 0.930 . S
C2003 C1996 1.409 . S
C2003 C2002 1.362 . S
H2004 C2010 0.930 . S
H2005 C2013 0.930 . S
H2006 C2014 0.930 . S
H2007 C2015 0.930 . S
H2008 C2018 0.930 . S
H2009 C2019 0.930 . S
C2010 H2004 0.930 . S
C2010 C2011 1.355 . S
C2010 C2012 1.415 . S
C2011 C2010 1.355 . S
C2011 C2013 1.419 1_655 S
C2012 C2010 1.415 . S
C2012 C2017 1.425 1_655 S
C2012 C2019 1.409 . S
C2013 H2005 0.930 . S
C2013 C2011 1.419 1_455 S
C2013 C2014 1.362 . S
C2014 H2006 0.930 . S
C2014 C2013 1.362 . S
C2014 C2017 1.409 . S
C2015 H2007 0.930 . S
C2015 C2016 1.355 . S
C2015 C2017 1.415 . S
C2016 C2015 1.355 . S
C2016 C2018 1.419 1_455 S
C2017 C2012 1.425 1_455 S
C2017 C2014 1.409 . S
C2017 C2015 1.415 . S
C2018 H2008 0.930 . S
C2018 C2016 1.419 1_655 S
C2018 C2019 1.362 . S
C2019 H2009 0.930 . S
C2019 C2012 1.409 . S
C2019 C2018 1.362 . S
H2020 C2026 0.930 . S
H2021 C2029 0.930 . S
H2022 C2030 0.930 . S
H2023 C2031 0.930 . S
H2024 C2034 0.930 . S
H2025 C2035 0.930 . S
C2026 H2020 0.930 . S
C2026 C2027 1.355 . S
C2026 C2028 1.415 . S
C2027 C2026 1.355 . S
C2027 C2029 1.419 . S
C2028 C2026 1.415 . S
C2028 C2033 1.425 . S
C2028 C2035 1.409 . S
C2029 H2021 0.930 . S
C2029 C2027 1.419 . S
C2029 C2030 1.362 . S
C2030 H2022 0.930 . S
C2030 C2029 1.362 . S
C2030 C2033 1.409 . S
C2031 H2023 0.930 . S
C2031 C2032 1.355 . S
C2031 C2033 1.415 . S
C2032 C2031 1.355 . S
C2032 C2034 1.419 . S
C2033 C2028 1.425 . S
C2033 C2030 1.409 . S
C2033 C2031 1.415 . S
C2034 H2024 0.930 . S
C2034 C2032 1.419 . S
C2034 C2035 1.362 . S
C2035 H2025 0.930 . S
C2035 C2028 1.409 . S
C2035 C2034 1.362 . S
H2036 C2042 0.930 . S
H2037 C2045 0.930 . S
H2038 C2046 0.930 . S
H2039 C2047 0.930 . S
H2040 C2050 0.928 . S
H2041 C2051 0.930 . S
C2042 H2036 0.930 . S
C2042 C2043 1.355 . S
C2042 C2044 1.429 . S
C2043 C2042 1.355 . S
C2043 C2045 1.419 1_545 S
C2044 C2042 1.429 . S
C2044 C2049 1.417 1_545 S
C2044 C2051 1.403 . S
C2045 H2037 0.930 . S
C2045 C2043 1.419 1_565 S
C2045 C2046 1.362 . S
C2046 H2038 0.930 . S
C2046 C2045 1.362 . S
C2046 C2049 1.409 . S
C2047 H2039 0.930 . S
C2047 C2048 1.355 . S
C2047 C2049 1.415 . S
C2048 C2047 1.355 . S
C2048 C2050 1.417 1_565 S
C2049 C2044 1.417 1_565 S
C2049 C2046 1.409 . S
C2049 C2047 1.415 . S
C2050 H2040 0.928 . S
C2050 C2048 1.417 1_545 S
C2050 C2051 1.367 . S
C2051 H2041 0.930 . S
C2051 C2044 1.403 . S
C2051 C2050 1.367 . S
H2052 C2058 0.930 . S
H2053 C2061 0.930 . S
H2054 C2062 0.930 . S
H2055 C2063 0.930 . S
H2056 C2066 0.930 . S
H2057 C2067 0.930 . S
C2058 H2052 0.930 . S
C2058 C2059 1.355 . S
C2058 C2060 1.415 . S
C2059 C2058 1.355 . S
C2059 C2061 1.419 1_565 S
C2060 C2058 1.415 . S
C2060 C2065 1.425 1_565 S
C2060 C2067 1.409 . S
C2061 H2053 0.930 . S
C2061 C2059 1.419 1_545 S
C2061 C2062 1.362 . S
C2062 H2054 0.930 . S
C2062 C2061 1.362 . S
C2062 C2065 1.409 . S
C2063 H2055 0.930 . S
C2063 C2064 1.359 . S
C2063 C2065 1.415 . S
C2064 C2063 1.359 . S
C2064 C2066 1.415 1_545 S
C2065 C2060 1.425 1_545 S
C2065 C2062 1.409 . S
C2065 C2063 1.415 . S
C2066 H2056 0.930 . S
C2066 C2064 1.415 1_565 S
C2066 C2067 1.362 . S
C2067 H2057 0.930 . S
C2067 C2060 1.409 . S
C2067 C2066 1.362 . S
H2068 C2074 0.930 . S
H2069 C2077 0.930 . S
H2070 C2078 0.930 . S
H2071 C2079 0.930 . S
H2072 C2082 0.930 . S
H2073 C2083 0.930 . S
C2074 H2068 0.930 . S
C2074 C2075 1.355 1_455 S
C2074 C2076 1.415 . S
C2075 C2074 1.355 1_655 S
C2075 C2077 1.419 . S
C2076 C2074 1.415 . S
C2076 C2081 1.425 1_455 S
C2076 C2083 1.409 . S
C2077 H2069 0.930 . S
C2077 C2075 1.419 . S
C2077 C2078 1.362 . S
C2078 H2070 0.930 . S
C2078 C2077 1.362 . S
C2078 C2081 1.409 . S
C2079 H2071 0.930 . S
C2079 C2080 1.355 1_655 S
C2079 C2081 1.415 . S
C2080 C2079 1.355 1_455 S
C2080 C2082 1.419 . S
C2081 C2076 1.425 1_655 S
C2081 C2078 1.409 . S
C2081 C2079 1.415 . S
C2082 H2072 0.930 . S
C2082 C2080 1.419 . S
C2082 C2083 1.362 . S
C2083 H2073 0.930 . S
C2083 C2076 1.409 . S
C2083 C2082 1.362 . S
H2084 C2090 0.930 . S
H2085 C2093 0.930 . S
H2086 C2094 0.930 . S
H2087 C2095 0.930 . S
H2088 C2098 0.930 . S
H2089 C2099 0.930 . S
C2090 H2084 0.930 . S
C2090 C2091 1.355 . S
C2090 C2092 1.415 . S
C2091 C2090 1.355 . S
C2091 C2093 1.419 . S
C2092 C2090 1.415 . S
C2092 C2097 1.425 . S
C2092 C2099 1.409 . S
C2093 H2085 0.930 . S
C2093 C2091 1.419 . S
C2093 C2094 1.362 . S
C2094 H2086 0.930 . S
C2094 C2093 1.362 . S
C2094 C2097 1.409 . S
C2095 H2087 0.930 . S
C2095 C2096 1.355 . S
C2095 C2097 1.415 . S
C2096 C2095 1.355 . S
C2096 C2098 1.419 . S
C2097 C2092 1.425 . S
C2097 C2094 1.409 . S
C2097 C2095 1.415 . S
C2098 H2088 0.930 . S
C2098 C2096 1.419 . S
C2098 C2099 1.362 . S
C2099 H2089 0.930 . S
C2099 C2092 1.409 . S
C2099 C2098 1.362 . S
H2100 C2106 0.930 . S
H2101 C2109 0.930 . S
H2102 C2110 0.930 . S
H2103 C2111 0.930 . S
H2104 C2114 0.930 . S
H2105 C2115 0.930 . S
C2106 H2100 0.930 . S
C2106 C2107 1.355 . S
C2106 C2108 1.415 . S
C2107 C2106 1.355 . S
C2107 C2109 1.419 . S
C2108 C2106 1.415 . S
C2108 C2113 1.432 . S
C2108 C2115 1.409 1_556 S
C2109 H2101 0.930 . S
C2109 C2107 1.419 . S
C2109 C2110 1.362 . S
C2110 H2102 0.930 . S
C2110 C2109 1.362 . S
C2110 C2113 1.460 . S
C2111 H2103 0.930 . S
C2111 C2112 1.355 . S
C2111 C2113 1.367 1_554 S
C2112 C2111 1.355 . S
C2112 C2114 1.419 . S
C2113 C2108 1.432 . S
C2113 C2110 1.460 . S
C2113 C2111 1.367 1_556 S
C2114 H2104 0.930 . S
C2114 C2112 1.419 . S
C2114 C2115 1.362 . S
C2115 H2105 0.930 . S
C2115 C2108 1.409 1_554 S
C2115 C2114 1.362 . S
H2116 C2122 0.930 . S
H2117 C2125 0.930 . S
H2118 C2126 0.930 . S
H2119 C2127 0.930 . S
H2120 C2130 0.918 1_554 S
H2121 C2131 0.930 . S
C2122 H2116 0.930 . S
C2122 C2123 1.355 . S
C2122 C2124 1.415 . S
C2123 C2122 1.355 . S
C2123 C2125 1.419 1_554 S
C2124 C2122 1.415 . S
C2124 C2129 1.425 1_554 S
C2124 C2131 1.409 . S
C2125 H2117 0.930 . S
C2125 C2123 1.419 1_556 S
C2125 C2126 1.362 . S
C2126 H2118 0.930 . S
C2126 C2125 1.362 . S
C2126 C2129 1.409 . S
C2127 H2119 0.930 . S
C2127 C2128 1.355 . S
C2127 C2129 1.415 . S
C2128 C2127 1.355 . S
C2128 C2130 1.468 1_655 S
C2129 C2124 1.425 1_556 S
C2129 C2126 1.409 . S
C2129 C2127 1.415 . S
C2130 H2120 0.918 1_556 S
C2130 C2128 1.468 1_455 S
C2130 C2131 1.328 1_456 S
C2131 H2121 0.930 . S
C2131 C2124 1.409 . S
C2131 C2130 1.328 1_654 S
H2132 C2138 0.930 . S
H2133 C2141 0.930 . S
H2134 C2142 0.930 . S
H2135 C2143 0.930 . S
H2136 C2146 0.930 . S
H2137 C2147 0.930 . S
C2138 H2132 0.930 . S
C2138 C2139 1.355 . S
C2138 C2140 1.415 1_554 S
C2139 C2138 1.355 . S
C2139 C2141 1.419 . S
C2140 C2138 1.415 1_556 S
C2140 C2145 1.432 . S
C2140 C2147 1.409 . S
C2141 H2133 0.930 . S
C2141 C2139 1.419 . S
C2141 C2142 1.362 . S
C2142 H2134 0.930 . S
C2142 C2141 1.362 . S
C2142 C2145 1.369 1_554 S
C2143 H2135 0.930 . S
C2143 C2144 1.355 . S
C2143 C2145 1.453 . S
C2144 C2143 1.355 . S
C2144 C2146 1.419 . S
C2145 C2140 1.432 . S
C2145 C2142 1.369 1_556 S
C2145 C2143 1.453 . S
C2146 H2136 0.930 . S
C2146 C2144 1.419 . S
C2146 C2147 1.362 . S
C2147 H2137 0.930 . S
C2147 C2140 1.409 . S
C2147 C2146 1.362 . S
H2148 C2154 0.930 . S
H2149 C2157 0.919 1_565 S
H2150 C2158 0.930 . S
H2151 C2159 0.930 . S
H2152 C2162 0.930 . S
H2153 C2163 0.930 . S
C2154 H2148 0.930 . S
C2154 C2155 1.355 . S
C2154 C2156 1.415 . S
C2155 C2154 1.355 . S
C2155 C2157 1.428 . S
C2156 C2154 1.415 . S
C2156 C2161 1.425 1_545 S
C2156 C2163 1.409 . S
C2157 H2149 0.919 1_545 S
C2157 C2155 1.428 . S
C2157 C2158 1.364 1_545 S
C2158 H2150 0.930 . S
C2158 C2157 1.364 1_565 S
C2158 C2161 1.409 . S
C2159 H2151 0.930 . S
C2159 C2160 1.355 . S
C2159 C2161 1.415 . S
C2160 C2159 1.355 . S
C2160 C2162 1.419 1_565 S
C2161 C2156 1.425 1_565 S
C2161 C2158 1.409 . S
C2161 C2159 1.415 . S
C2162 H2152 0.930 . S
C2162 C2160 1.419 1_545 S
C2162 C2163 1.362 . S
C2163 H2153 0.930 . S
C2163 C2156 1.409 . S
C2163 C2162 1.362 . S
H2164 C2170 0.930 1_455 S
H2165 C2173 0.930 . S
H2166 C2174 0.930 . S
H2167 C2175 0.930 . S
H2168 C2178 0.930 . S
H2169 C2179 0.930 . S
C2170 H2164 0.930 1_655 S
C2170 C2171 1.355 . S
C2170 C2172 1.415 1_655 S
C2171 C2170 1.355 . S
C2171 C2173 1.419 . S
C2172 C2170 1.415 1_455 S
C2172 C2177 1.425 1_455 S
C2172 C2179 1.409 . S
C2173 H2165 0.930 . S
C2173 C2171 1.419 . S
C2173 C2174 1.362 . S
C2174 H2166 0.930 . S
C2174 C2173 1.362 . S
C2174 C2177 1.409 . S
C2175 H2167 0.930 . S
C2175 C2176 1.355 1_655 S
C2175 C2177 1.415 . S
C2176 C2175 1.355 1_455 S
C2176 C2178 1.419 . S
C2177 C2172 1.425 1_655 S
C2177 C2174 1.409 . S
C2177 C2175 1.415 . S
C2178 H2168 0.930 . S
C2178 C2176 1.419 . S
C2178 C2179 1.362 . S
C2179 H2169 0.930 . S
C2179 C2172 1.409 . S
C2179 C2178 1.362 . S
H2180 C2186 0.930 . S
H2181 C2189 0.930 . S
H2182 C2190 0.930 . S
H2183 C2191 0.930 . S
H2184 C2194 0.930 . S
H2185 C2195 0.930 . S
C2186 H2180 0.930 . S
C2186 C2187 1.355 . S
C2186 C2188 1.415 . S
C2187 C2186 1.355 . S
C2187 C2189 1.419 . S
C2188 C2186 1.415 . S
C2188 C2193 1.425 . S
C2188 C2195 1.409 . S
C2189 H2181 0.930 . S
C2189 C2187 1.419 . S
C2189 C2190 1.362 . S
C2190 H2182 0.930 . S
C2190 C2189 1.362 . S
C2190 C2193 1.409 . S
C2191 H2183 0.930 . S
C2191 C2192 1.355 . S
C2191 C2193 1.415 . S
C2192 C2191 1.355 . S
C2192 C2194 1.419 . S
C2193 C2188 1.425 . S
C2193 C2190 1.409 . S
C2193 C2191 1.415 . S
C2194 H2184 0.930 . S
C2194 C2192 1.419 . S
C2194 C2195 1.362 . S
C2195 H2185 0.930 . S
C2195 C2188 1.409 . S
C2195 C2194 1.362 . S
H2196 C2202 0.930 1_554 S
H2197 C2205 0.930 . S
H2198 C2206 0.930 . S
H2199 C2207 0.952 . S
H2200 C2210 0.930 . S
H2201 C2211 0.930 . S
C2202 H2196 0.930 1_556 S
C2202 C2203 1.355 . S
C2202 C2204 1.415 1_556 S
C2203 C2202 1.355 . S
C2203 C2205 1.419 . S
C2204 C2202 1.415 1_554 S
C2204 C2209 1.388 1_554 S
C2204 C2211 1.409 . S
C2205 H2197 0.930 . S
C2205 C2203 1.419 . S
C2205 C2206 1.362 . S
C2206 H2198 0.930 . S
C2206 C2205 1.362 . S
C2206 C2209 1.495 . S
C2207 H2199 0.952 . S
C2207 C2208 1.355 . S
C2207 C2209 1.375 1_554 S
C2208 C2207 1.355 . S
C2208 C2210 1.419 . S
C2209 C2204 1.388 1_556 S
C2209 C2206 1.495 . S
C2209 C2207 1.375 1_556 S
C2210 H2200 0.930 . S
C2210 C2208 1.419 . S
C2210 C2211 1.362 . S
C2211 H2201 0.930 . S
C2211 C2204 1.409 . S
C2211 C2210 1.362 . S
H2212 C2218 0.930 . S
H2213 C2221 0.955 1_655 S
H2214 C2222 0.930 . S
H2215 C2223 0.930 . S
H2216 C2226 0.930 . S
H2217 C2227 0.930 . S
C2218 H2212 0.930 . S
C2218 C2219 1.355 . S
C2218 C2220 1.415 . S
C2219 C2218 1.355 . S
C2219 C2221 1.350 1_554 S
C2220 C2218 1.415 . S
C2220 C2225 1.425 1_554 S
C2220 C2227 1.409 . S
C2221 H2213 0.955 1_455 S
C2221 C2219 1.350 1_556 S
C2221 C2222 1.410 . S
C2222 H2214 0.930 . S
C2222 C2221 1.410 . S
C2222 C2225 1.409 . S
C2223 H2215 0.930 . S
C2223 C2224 1.355 . S
C2223 C2225 1.415 . S
C2224 C2223 1.355 . S
C2224 C2226 1.419 1_556 S
C2225 C2220 1.425 1_556 S
C2225 C2222 1.409 . S
C2225 C2223 1.415 . S
C2226 H2216 0.930 . S
C2226 C2224 1.419 1_554 S
C2226 C2227 1.362 . S
C2227 H2217 0.930 . S
C2227 C2220 1.409 . S
C2227 C2226 1.362 . S
H2228 C2234 0.892 1_554 S
H2229 C2237 0.930 . S
H2230 C2238 0.930 . S
H2231 C2239 0.929 1_556 S
H2232 C2242 0.930 . S
H2233 C2243 0.930 . S
C2234 H2228 0.892 1_556 S
C2234 C2235 1.433 . S
C2234 C2236 1.380 1_556 S
C2235 C2234 1.433 . S
C2235 C2237 1.419 . S
C2236 C2234 1.380 1_554 S
C2236 C2241 1.425 1_554 S
C2236 C2243 1.409 . S
C2237 H2229 0.930 . S
C2237 C2235 1.419 . S
C2237 C2238 1.362 . S
C2238 H2230 0.930 . S
C2238 C2237 1.362 . S
C2238 C2241 1.409 . S
C2239 H2231 0.929 1_554 S
C2239 C2240 1.355 . S
C2239 C2241 1.415 1_554 S
C2240 C2239 1.355 . S
C2240 C2242 1.419 . S
C2241 C2236 1.425 1_556 S
C2241 C2238 1.409 . S
C2241 C2239 1.415 1_556 S
C2242 H2232 0.930 . S
C2242 C2240 1.419 . S
C2242 C2243 1.362 . S
C2243 H2233 0.930 . S
C2243 C2236 1.409 . S
C2243 C2242 1.362 . S
H2244 C2250 0.930 . S
H2245 C2253 0.930 . S
H2246 C2254 0.930 . S
H2247 C2255 0.930 . S
H2248 C2258 0.930 . S
H2249 C2259 0.930 . S
C2250 H2244 0.930 . S
C2250 C2251 1.355 . S
C2250 C2252 1.415 . S
C2251 C2250 1.355 . S
C2251 C2253 1.419 . S
C2252 C2250 1.415 . S
C2252 C2257 1.425 . S
C2252 C2259 1.409 . S
C2253 H2245 0.930 . S
C2253 C2251 1.419 . S
C2253 C2254 1.362 . S
C2254 H2246 0.930 . S
C2254 C2253 1.362 . S
C2254 C2257 1.409 . S
C2255 H2247 0.930 . S
C2255 C2256 1.355 . S
C2255 C2257 1.415 . S
C2256 C2255 1.355 . S
C2256 C2258 1.419 . S
C2257 C2252 1.425 . S
C2257 C2254 1.409 . S
C2257 C2255 1.415 . S
C2258 H2248 0.930 . S
C2258 C2256 1.419 . S
C2258 C2259 1.362 . S
C2259 H2249 0.930 . S
C2259 C2252 1.409 . S
C2259 C2258 1.362 . S
H2260 C2266 0.930 . S
H2261 C2269 0.930 . S
H2262 C2270 0.930 . S
H2263 C2271 0.930 . S
H2264 C2274 0.930 . S
H2265 C2275 0.930 . S
C2266 H2260 0.930 . S
C2266 C2267 1.355 . S
C2266 C2268 1.415 . S
C2267 C2266 1.355 . S
C2267 C2269 1.419 . S
C2268 C2266 1.415 . S
C2268 C2273 1.425 . S
C2268 C2275 1.409 . S
C2269 H2261 0.930 . S
C2269 C2267 1.419 . S
C2269 C2270 1.362 . S
C2270 H2262 0.930 . S
C2270 C2269 1.362 . S
C2270 C2273 1.409 . S
C2271 H2263 0.930 . S
C2271 C2272 1.355 . S
C2271 C2273 1.415 . S
C2272 C2271 1.355 . S
C2272 C2274 1.419 . S
C2273 C2268 1.425 . S
C2273 C2270 1.409 . S
C2273 C2271 1.415 . S
C2274 H2264 0.930 . S
C2274 C2272 1.419 . S
C2274 C2275 1.362 . S
C2275 H2265 0.930 . S
C2275 C2268 1.409 . S
C2275 C2274 1.362 . S
H2276 C2282 0.930 . S
H2277 C2285 0.930 . S
H2278 C2286 0.930 . S
H2279 C2287 0.930 . S
H2280 C2290 0.930 . S
H2281 C2291 0.930 . S
C2282 H2276 0.930 . S
C2282 C2283 1.355 . S
C2282 C2284 1.415 . S
C2283 C2282 1.355 . S
C2283 C2285 1.419 . S
C2284 C2282 1.415 . S
C2284 C2289 1.425 . S
C2284 C2291 1.409 . S
C2285 H2277 0.930 . S
C2285 C2283 1.419 . S
C2285 C2286 1.362 . S
C2286 H2278 0.930 . S
C2286 C2285 1.362 . S
C2286 C2289 1.409 . S
C2287 H2279 0.930 . S
C2287 C2288 1.355 . S
C2287 C2289 1.415 . S
C2288 C2287 1.355 . S
C2288 C2290 1.419 . S
C2289 C2284 1.425 . S
C2289 C2286 1.409 . S
C2289 C2287 1.415 . S
C2290 H2280 0.930 . S
C2290 C2288 1.419 . S
C2290 C2291 1.362 . S
C2291 H2281 0.930 . S
C2291 C2284 1.409 . S
C2291 C2290 1.362 . S
H2292 C2298 0.930 . S
H2293 C2301 0.930 . S
H2294 C2302 0.930 . S
H2295 C2303 0.930 . S
H2296 C2306 0.930 . S
H2297 C2307 0.930 . S
C2298 H2292 0.930 . S
C2298 C2299 1.355 1_455 S
C2298 C2300 1.415 . S
C2299 C2298 1.355 1_655 S
C2299 C2301 1.419 . S
C2300 C2298 1.415 . S
C2300 C2305 1.425 1_455 S
C2300 C2307 1.409 . S
C2301 H2293 0.930 . S
C2301 C2299 1.419 . S
C2301 C2302 1.362 . S
C2302 H2294 0.930 . S
C2302 C2301 1.362 . S
C2302 C2305 1.409 . S
C2303 H2295 0.930 . S
C2303 C2304 1.355 1_655 S
C2303 C2305 1.415 . S
C2304 C2303 1.355 1_455 S
C2304 C2306 1.419 . S
C2305 C2300 1.425 1_655 S
C2305 C2302 1.409 . S
C2305 C2303 1.415 . S
C2306 H2296 0.930 . S
C2306 C2304 1.419 . S
C2306 C2307 1.362 . S
C2307 H2297 0.930 . S
C2307 C2300 1.409 . S
C2307 C2306 1.362 . S
H2308 C2314 0.930 . S
H2309 C2317 0.930 . S
H2310 C2318 0.930 . S
H2311 C2319 0.930 . S
H2312 C2322 0.930 . S
H2313 C2323 0.930 . S
C2314 H2308 0.930 . S
C2314 C2315 1.355 . S
C2314 C2316 1.415 . S
C2315 C2314 1.355 . S
C2315 C2317 1.419 . S
C2316 C2314 1.415 . S
C2316 C2321 1.425 . S
C2316 C2323 1.409 . S
C2317 H2309 0.930 . S
C2317 C2315 1.419 . S
C2317 C2318 1.362 . S
C2318 H2310 0.930 . S
C2318 C2317 1.362 . S
C2318 C2321 1.409 . S
C2319 H2311 0.930 . S
C2319 C2320 1.355 . S
C2319 C2321 1.415 . S
C2320 C2319 1.355 . S
C2320 C2322 1.419 . S
C2321 C2316 1.425 . S
C2321 C2318 1.409 . S
C2321 C2319 1.415 . S
C2322 H2312 0.930 . S
C2322 C2320 1.419 . S
C2322 C2323 1.362 . S
C2323 H2313 0.930 . S
C2323 C2316 1.409 . S
C2323 C2322 1.362 . S
H2324 C2330 0.930 . S
H2325 C2333 0.930 1_565 S
H2326 C2334 0.930 . S
H2327 C2335 0.930 . S
H2328 C2338 0.930 . S
H2329 C2339 0.930 . S
C2330 H2324 0.930 . S
C2330 C2331 1.355 . S
C2330 C2332 1.415 . S
C2331 C2330 1.355 . S
C2331 C2333 1.419 . S
C2332 C2330 1.415 . S
C2332 C2337 1.425 1_545 S
C2332 C2339 1.409 . S
C2333 H2325 0.930 1_545 S
C2333 C2331 1.419 . S
C2333 C2334 1.362 1_545 S
C2334 H2326 0.930 . S
C2334 C2333 1.362 1_565 S
C2334 C2337 1.409 . S
C2335 H2327 0.930 . S
C2335 C2336 1.355 . S
C2335 C2337 1.415 . S
C2336 C2335 1.355 . S
C2336 C2338 1.419 1_565 S
C2337 C2332 1.425 1_565 S
C2337 C2334 1.409 . S
C2337 C2335 1.415 . S
C2338 H2328 0.930 . S
C2338 C2336 1.419 1_545 S
C2338 C2339 1.362 . S
C2339 H2329 0.930 . S
C2339 C2332 1.409 . S
C2339 C2338 1.362 . S
H2340 C2346 0.930 1_455 S
H2341 C2349 0.930 . S
H2342 C2350 0.930 . S
H2343 C2351 0.930 1_655 S
H2344 C2354 0.930 . S
H2345 C2355 0.930 . S
C2346 H2340 0.930 1_655 S
C2346 C2347 1.355 . S
C2346 C2348 1.415 1_655 S
C2347 C2346 1.355 . S
C2347 C2349 1.419 . S
C2348 C2346 1.415 1_455 S
C2348 C2353 1.425 1_455 S
C2348 C2355 1.409 . S
C2349 H2341 0.930 . S
C2349 C2347 1.419 . S
C2349 C2350 1.362 . S
C2350 H2342 0.930 . S
C2350 C2349 1.362 . S
C2350 C2353 1.409 . S
C2351 H2343 0.930 1_455 S
C2351 C2352 1.355 . S
C2351 C2353 1.415 1_455 S
C2352 C2351 1.355 . S
C2352 C2354 1.419 . S
C2353 C2348 1.425 1_655 S
C2353 C2350 1.409 . S
C2353 C2351 1.415 1_655 S
C2354 H2344 0.930 . S
C2354 C2352 1.419 . S
C2354 C2355 1.362 . S
C2355 H2345 0.930 . S
C2355 C2348 1.409 . S
C2355 C2354 1.362 . S
H2356 C2362 0.930 . S
H2357 C2365 0.930 . S
H2358 C2366 0.930 . S
H2359 C2367 0.930 . S
H2360 C2370 0.930 . S
H2361 C2371 0.930 . S
C2362 H2356 0.930 . S
C2362 C2363 1.355 . S
C2362 C2364 1.415 . S
C2363 C2362 1.355 . S
C2363 C2365 1.419 . S
C2364 C2362 1.415 . S
C2364 C2369 1.425 . S
C2364 C2371 1.409 . S
C2365 H2357 0.930 . S
C2365 C2363 1.419 . S
C2365 C2366 1.362 . S
C2366 H2358 0.930 . S
C2366 C2365 1.362 . S
C2366 C2369 1.409 . S
C2367 H2359 0.930 . S
C2367 C2368 1.355 . S
C2367 C2369 1.415 . S
C2368 C2367 1.355 . S
C2368 C2370 1.419 . S
C2369 C2364 1.425 . S
C2369 C2366 1.409 . S
C2369 C2367 1.415 . S
C2370 H2360 0.930 . S
C2370 C2368 1.419 . S
C2370 C2371 1.362 . S
C2371 H2361 0.930 . S
C2371 C2364 1.409 . S
C2371 C2370 1.362 . S
H2372 C2378 0.930 . S
H2373 C2381 0.930 . S
H2374 C2382 0.930 . S
H2375 C2383 0.930 . S
H2376 C2386 0.930 . S
H2377 C2387 0.930 . S
C2378 H2372 0.930 . S
C2378 C2379 1.355 . S
C2378 C2380 1.415 1_565 S
C2379 C2378 1.355 . S
C2379 C2381 1.419 . S
C2380 C2378 1.415 1_545 S
C2380 C2385 1.425 1_545 S
C2380 C2387 1.409 . S
C2381 H2373 0.930 . S
C2381 C2379 1.419 . S
C2381 C2382 1.362 . S
C2382 H2374 0.930 . S
C2382 C2381 1.362 . S
C2382 C2385 1.409 . S
C2383 H2375 0.930 . S
C2383 C2384 1.355 . S
C2383 C2385 1.415 1_545 S
C2384 C2383 1.355 . S
C2384 C2386 1.419 . S
C2385 C2380 1.425 1_565 S
C2385 C2382 1.409 . S
C2385 C2383 1.415 1_565 S
C2386 H2376 0.930 . S
C2386 C2384 1.419 . S
C2386 C2387 1.362 . S
C2387 H2377 0.930 . S
C2387 C2380 1.409 . S
C2387 C2386 1.362 . S
H2388 C2394 0.930 1_455 S
H2389 C2397 0.930 . S
H2390 C2398 0.930 . S
H2391 C2399 0.914 1_655 S
H2392 C2402 0.930 . S
H2393 C2403 0.930 . S
C2394 H2388 0.930 1_655 S
C2394 C2395 1.355 . S
C2394 C2396 1.415 1_655 S
C2395 C2394 1.355 . S
C2395 C2397 1.419 . S
C2396 C2394 1.415 1_455 S
C2396 C2401 1.425 1_455 S
C2396 C2403 1.409 . S
C2397 H2389 0.930 . S
C2397 C2395 1.419 . S
C2397 C2398 1.362 . S
C2398 H2390 0.930 . S
C2398 C2397 1.362 . S
C2398 C2401 1.409 . S
C2399 H2391 0.914 1_455 S
C2399 C2400 1.355 . S
C2399 C2401 1.415 1_455 S
C2400 C2399 1.355 . S
C2400 C2402 1.419 . S
C2401 C2396 1.425 1_655 S
C2401 C2398 1.409 . S
C2401 C2399 1.415 1_655 S
C2402 H2392 0.930 . S
C2402 C2400 1.419 . S
C2402 C2403 1.362 . S
C2403 H2393 0.930 . S
C2403 C2396 1.409 . S
C2403 C2402 1.362 . S
H2404 C2410 0.930 . S
H2405 C2413 0.930 . S
H2406 C2414 0.930 . S
H2407 C2415 0.930 . S
H2408 C2418 0.930 . S
H2409 C2419 0.930 . S
C2410 H2404 0.930 . S
C2410 C2411 1.355 . S
C2410 C2412 1.415 . S
C2411 C2410 1.355 . S
C2411 C2413 1.419 . S
C2412 C2410 1.415 . S
C2412 C2417 1.425 . S
C2412 C2419 1.409 . S
C2413 H2405 0.930 . S
C2413 C2411 1.419 . S
C2413 C2414 1.362 . S
C2414 H2406 0.930 . S
C2414 C2413 1.362 . S
C2414 C2417 1.409 . S
C2415 H2407 0.930 . S
C2415 C2416 1.355 . S
C2415 C2417 1.415 . S
C2416 C2415 1.355 . S
C2416 C2418 1.419 . S
C2417 C2412 1.425 . S
C2417 C2414 1.409 . S
C2417 C2415 1.415 . S
C2418 H2408 0.930 . S
C2418 C2416 1.419 . S
C2418 C2419 1.362 . S
C2419 H2409 0.930 . S
C2419 C2412 1.409 . S
C2419 C2418 1.362 . S
H2420 C2426 0.930 . S
H2421 C2429 0.930 1_565 S
H2422 C2430 0.930 . S
H2423 C2431 0.930 . S
H2424 C2434 0.930 1_545 S
H2425 C2435 0.930 . S
C2426 H2420 0.930 . S
C2426 C2427 1.355 . S
C2426 C2428 1.415 . S
C2427 C2426 1.355 . S
C2427 C2429 1.419 . S
C2428 C2426 1.415 . S
C2428 C2433 1.425 1_545 S
C2428 C2435 1.409 . S
C2429 H2421 0.930 1_545 S
C2429 C2427 1.419 . S
C2429 C2430 1.362 1_545 S
C2430 H2422 0.930 . S
C2430 C2429 1.362 1_565 S
C2430 C2433 1.409 . S
C2431 H2423 0.930 . S
C2431 C2432 1.355 . S
C2431 C2433 1.415 . S
C2432 C2431 1.355 . S
C2432 C2434 1.419 . S
C2433 C2428 1.425 1_565 S
C2433 C2430 1.409 . S
C2433 C2431 1.415 . S
C2434 H2424 0.930 1_565 S
C2434 C2432 1.419 . S
C2434 C2435 1.362 1_565 S
C2435 H2425 0.930 . S
C2435 C2428 1.409 . S
C2435 C2434 1.362 1_545 S
H2436 C2442 0.930 . S
H2437 C2445 0.930 . S
H2438 C2446 0.930 . S
H2439 C2447 0.930 . S
H2440 C2450 0.930 . S
H2441 C2451 0.930 . S
C2442 H2436 0.930 . S
C2442 C2443 1.355 . S
C2442 C2444 1.415 . S
C2443 C2442 1.355 . S
C2443 C2445 1.419 . S
C2444 C2442 1.415 . S
C2444 C2449 1.425 . S
C2444 C2451 1.409 . S
C2445 H2437 0.930 . S
C2445 C2443 1.419 . S
C2445 C2446 1.362 . S
C2446 H2438 0.930 . S
C2446 C2445 1.362 . S
C2446 C2449 1.409 . S
C2447 H2439 0.930 . S
C2447 C2448 1.355 . S
C2447 C2449 1.415 . S
C2448 C2447 1.355 . S
C2448 C2450 1.419 . S
C2449 C2444 1.425 . S
C2449 C2446 1.409 . S
C2449 C2447 1.415 . S
C2450 H2440 0.930 . S
C2450 C2448 1.419 . S
C2450 C2451 1.362 . S
C2451 H2441 0.930 . S
C2451 C2444 1.409 . S
C2451 C2450 1.362 . S
H2452 C2458 0.930 . S
H2453 C2461 0.930 . S
H2454 C2462 0.930 . S
H2455 C2463 0.930 . S
H2456 C2466 0.930 . S
H2457 C2467 0.930 . S
C2458 H2452 0.930 . S
C2458 C2459 1.355 . S
C2458 C2460 1.415 . S
C2459 C2458 1.355 . S
C2459 C2461 1.419 . S
C2460 C2458 1.415 . S
C2460 C2465 1.425 . S
C2460 C2467 1.409 . S
C2461 H2453 0.930 . S
C2461 C2459 1.419 . S
C2461 C2462 1.362 . S
C2462 H2454 0.930 . S
C2462 C2461 1.362 . S
C2462 C2465 1.409 . S
C2463 H2455 0.930 . S
C2463 C2464 1.355 . S
C2463 C2465 1.415 . S
C2464 C2463 1.355 . S
C2464 C2466 1.419 . S
C2465 C2460 1.425 . S
C2465 C2462 1.409 . S
C2465 C2463 1.415 . S
C2466 H2456 0.930 . S
C2466 C2464 1.419 . S
C2466 C2467 1.362 . S
C2467 H2457 0.930 . S
C2467 C2460 1.409 . S
C2467 C2466 1.362 . S
H2468 C2474 0.930 . S
H2469 C2477 0.921 1_455 S
H2470 C2478 0.930 . S
H2471 C2479 0.930 . S
H2472 C2482 0.930 . S
H2473 C2483 0.930 . S
C2474 H2468 0.930 . S
C2474 C2475 1.355 . S
C2474 C2476 1.415 . S
C2475 C2474 1.355 . S
C2475 C2477 1.419 . S
C2476 C2474 1.415 . S
C2476 C2481 1.425 . S
C2476 C2483 1.409 . S
C2477 H2469 0.921 1_655 S
C2477 C2475 1.419 . S
C2477 C2478 1.362 . S
C2478 H2470 0.930 . S
C2478 C2477 1.362 . S
C2478 C2481 1.409 . S
C2479 H2471 0.930 . S
C2479 C2480 1.355 . S
C2479 C2481 1.415 . S
C2480 C2479 1.355 . S
C2480 C2482 1.419 . S
C2481 C2476 1.425 . S
C2481 C2478 1.409 . S
C2481 C2479 1.415 . S
C2482 H2472 0.930 . S
C2482 C2480 1.419 . S
C2482 C2483 1.362 . S
C2483 H2473 0.930 . S
C2483 C2476 1.409 . S
C2483 C2482 1.362 . S
H2484 C2490 0.930 . S
H2485 C2493 0.930 . S
H2486 C2494 0.930 . S
H2487 C2495 0.930 . S
H2488 C2498 0.930 . S
H2489 C2499 0.930 . S
C2490 H2484 0.930 . S
C2490 C2491 1.355 . S
C2490 C2492 1.415 . S
C2491 C2490 1.355 . S
C2491 C2493 1.419 . S
C2492 C2490 1.415 . S
C2492 C2497 1.425 . S
C2492 C2499 1.409 . S
C2493 H2485 0.930 . S
C2493 C2491 1.419 . S
C2493 C2494 1.362 . S
C2494 H2486 0.930 . S
C2494 C2493 1.362 . S
C2494 C2497 1.409 . S
C2495 H2487 0.930 . S
C2495 C2496 1.355 . S
C2495 C2497 1.415 . S
C2496 C2495 1.355 . S
C2496 C2498 1.419 . S
C2497 C2492 1.425 . S
C2497 C2494 1.409 . S
C2497 C2495 1.415 . S
C2498 H2488 0.930 . S
C2498 C2496 1.419 . S
C2498 C2499 1.362 . S
C2499 H2489 0.930 . S
C2499 C2492 1.409 . S
C2499 C2498 1.362 . S
H2500 C2506 0.930 . S
H2501 C2509 0.930 . S
H2502 C2510 0.930 1_455 S
H2503 C2511 0.930 1_455 S
H2504 C2514 0.930 . S
H2505 C2515 0.930 . S
C2506 H2500 0.930 . S
C2506 C2507 1.355 . S
C2506 C2508 1.415 . S
C2507 C2506 1.355 . S
C2507 C2509 1.419 . S
C2508 C2506 1.415 . S
C2508 C2513 1.425 . S
C2508 C2515 1.409 . S
C2509 H2501 0.930 . S
C2509 C2507 1.419 . S
C2509 C2510 1.362 . S
C2510 H2502 0.930 1_655 S
C2510 C2509 1.362 . S
C2510 C2513 1.409 . S
C2511 H2503 0.930 1_655 S
C2511 C2512 1.355 . S
C2511 C2513 1.415 . S
C2512 C2511 1.355 . S
C2512 C2514 1.419 . S
C2513 C2508 1.425 . S
C2513 C2510 1.409 . S
C2513 C2511 1.415 . S
C2514 H2504 0.930 . S
C2514 C2512 1.419 . S
C2514 C2515 1.362 . S
C2515 H2505 0.930 . S
C2515 C2508 1.409 . S
C2515 C2514 1.362 . S
H2516 C2522 0.930 . S
H2517 C2525 0.930 . S
H2518 C2526 0.930 . S
H2519 C2527 0.930 . S
H2520 C2530 0.930 . S
H2521 C2531 0.930 . S
C2522 H2516 0.930 . S
C2522 C2523 1.355 . S
C2522 C2524 1.415 . S
C2523 C2522 1.355 . S
C2523 C2525 1.419 . S
C2524 C2522 1.415 . S
C2524 C2529 1.425 . S
C2524 C2531 1.409 . S
C2525 H2517 0.930 . S
C2525 C2523 1.419 . S
C2525 C2526 1.362 . S
C2526 H2518 0.930 . S
C2526 C2525 1.362 . S
C2526 C2529 1.409 . S
C2527 H2519 0.930 . S
C2527 C2528 1.355 . S
C2527 C2529 1.415 . S
C2528 C2527 1.355 . S
C2528 C2530 1.419 . S
C2529 C2524 1.425 . S
C2529 C2526 1.409 . S
C2529 C2527 1.415 . S
C2530 H2520 0.930 . S
C2530 C2528 1.419 . S
C2530 C2531 1.362 . S
C2531 H2521 0.930 . S
C2531 C2524 1.409 . S
C2531 C2530 1.362 . S
H2532 C2538 0.930 . S
H2533 C2541 0.930 . S
H2534 C2542 0.930 1_545 S
H2535 C2543 0.930 1_545 S
H2536 C2546 0.930 . S
H2537 C2547 0.930 . S
C2538 H2532 0.930 . S
C2538 C2539 1.355 . S
C2538 C2540 1.415 . S
C2539 C2538 1.355 . S
C2539 C2541 1.419 . S
C2540 C2538 1.415 . S
C2540 C2545 1.425 . S
C2540 C2547 1.409 . S
C2541 H2533 0.930 . S
C2541 C2539 1.419 . S
C2541 C2542 1.362 . S
C2542 H2534 0.930 1_565 S
C2542 C2541 1.362 . S
C2542 C2545 1.409 . S
C2543 H2535 0.930 1_565 S
C2543 C2544 1.355 . S
C2543 C2545 1.415 . S
C2544 C2543 1.355 . S
C2544 C2546 1.419 . S
C2545 C2540 1.425 . S
C2545 C2542 1.409 . S
C2545 C2543 1.415 . S
C2546 H2536 0.930 . S
C2546 C2544 1.419 . S
C2546 C2547 1.362 . S
C2547 H2537 0.930 . S
C2547 C2540 1.409 . S
C2547 C2546 1.362 . S
H2548 C2554 0.930 . S
H2549 C2557 0.930 . S
H2550 C2558 0.930 . S
H2551 C2559 0.930 . S
H2552 C2562 0.930 . S
H2553 C2563 0.930 . S
C2554 H2548 0.930 . S
C2554 C2555 1.355 . S
C2554 C2556 1.415 . S
C2555 C2554 1.355 . S
C2555 C2557 1.419 . S
C2556 C2554 1.415 . S
C2556 C2561 1.425 . S
C2556 C2563 1.409 . S
C2557 H2549 0.930 . S
C2557 C2555 1.419 . S
C2557 C2558 1.362 . S
C2558 H2550 0.930 . S
C2558 C2557 1.362 . S
C2558 C2561 1.409 . S
C2559 H2551 0.930 . S
C2559 C2560 1.355 . S
C2559 C2561 1.415 . S
C2560 C2559 1.355 . S
C2560 C2562 1.419 . S
C2561 C2556 1.425 . S
C2561 C2558 1.409 . S
C2561 C2559 1.415 . S
C2562 H2552 0.930 . S
C2562 C2560 1.419 . S
C2562 C2563 1.362 . S
C2563 H2553 0.930 . S
C2563 C2556 1.409 . S
C2563 C2562 1.362 . S
H2564 C2570 0.930 . S
H2565 C2573 0.930 . S
H2566 C2574 0.930 . S
H2567 C2575 0.930 . S
H2568 C2578 0.930 . S
H2569 C2579 0.930 . S
C2570 H2564 0.930 . S
C2570 C2571 1.355 . S
C2570 C2572 1.415 . S
C2571 C2570 1.355 . S
C2571 C2573 1.419 . S
C2572 C2570 1.415 . S
C2572 C2577 1.425 . S
C2572 C2579 1.409 . S
C2573 H2565 0.930 . S
C2573 C2571 1.419 . S
C2573 C2574 1.362 . S
C2574 H2566 0.930 . S
C2574 C2573 1.362 . S
C2574 C2577 1.409 . S
C2575 H2567 0.930 . S
C2575 C2576 1.355 . S
C2575 C2577 1.415 . S
C2576 C2575 1.355 . S
C2576 C2578 1.419 . S
C2577 C2572 1.425 . S
C2577 C2574 1.409 . S
C2577 C2575 1.415 . S
C2578 H2568 0.930 . S
C2578 C2576 1.419 . S
C2578 C2579 1.362 . S
C2579 H2569 0.930 . S
C2579 C2572 1.409 . S
C2579 C2578 1.362 . S
H2580 C2586 0.930 . S
H2581 C2589 0.930 . S
H2582 C2590 0.930 . S
H2583 C2591 0.930 . S
H2584 C2594 0.930 . S
H2585 C2595 0.930 . S
C2586 H2580 0.930 . S
C2586 C2587 1.355 . S
C2586 C2588 1.415 . S
C2587 C2586 1.355 . S
C2587 C2589 1.419 . S
C2588 C2586 1.415 . S
C2588 C2593 1.425 . S
C2588 C2595 1.409 . S
C2589 H2581 0.930 . S
C2589 C2587 1.419 . S
C2589 C2590 1.362 . S
C2590 H2582 0.930 . S
C2590 C2589 1.362 . S
C2590 C2593 1.409 . S
C2591 H2583 0.930 . S
C2591 C2592 1.355 . S
C2591 C2593 1.415 . S
C2592 C2591 1.355 . S
C2592 C2594 1.419 . S
C2593 C2588 1.425 . S
C2593 C2590 1.409 . S
C2593 C2591 1.415 . S
C2594 H2584 0.930 . S
C2594 C2592 1.419 . S
C2594 C2595 1.362 . S
C2595 H2585 0.930 . S
C2595 C2588 1.409 . S
C2595 C2594 1.362 . S
H2596 C2602 0.930 . S
H2597 C2605 0.930 . S
H2598 C2606 0.930 . S
H2599 C2607 0.930 . S
H2600 C2610 0.930 . S
H2601 C2611 0.930 . S
C2602 H2596 0.930 . S
C2602 C2603 1.355 . S
C2602 C2604 1.415 . S
C2603 C2602 1.355 . S
C2603 C2605 1.419 . S
C2604 C2602 1.415 . S
C2604 C2609 1.425 . S
C2604 C2611 1.409 . S
C2605 H2597 0.930 . S
C2605 C2603 1.419 . S
C2605 C2606 1.362 . S
C2606 H2598 0.930 . S
C2606 C2605 1.362 . S
C2606 C2609 1.409 . S
C2607 H2599 0.930 . S
C2607 C2608 1.355 . S
C2607 C2609 1.415 . S
C2608 C2607 1.355 . S
C2608 C2610 1.419 . S
C2609 C2604 1.425 . S
C2609 C2606 1.409 . S
C2609 C2607 1.415 . S
C2610 H2600 0.930 . S
C2610 C2608 1.419 . S
C2610 C2611 1.362 . S
C2611 H2601 0.930 . S
C2611 C2604 1.409 . S
C2611 C2610 1.362 . S
H2612 C2618 0.930 . S
H2613 C2621 0.930 . S
H2614 C2622 0.930 . S
H2615 C2623 0.930 . S
H2616 C2626 0.915 1_655 S
H2617 C2627 0.930 1_655 S
C2618 H2612 0.930 . S
C2618 C2619 1.355 . S
C2618 C2620 1.415 . S
C2619 C2618 1.355 . S
C2619 C2621 1.419 . S
C2620 C2618 1.415 . S
C2620 C2625 1.425 . S
C2620 C2627 1.409 . S
C2621 H2613 0.930 . S
C2621 C2619 1.419 . S
C2621 C2622 1.362 . S
C2622 H2614 0.930 . S
C2622 C2621 1.362 . S
C2622 C2625 1.409 . S
C2623 H2615 0.930 . S
C2623 C2624 1.355 . S
C2623 C2625 1.415 . S
C2624 C2623 1.355 . S
C2624 C2626 1.438 . S
C2625 C2620 1.425 . S
C2625 C2622 1.409 . S
C2625 C2623 1.415 . S
C2626 H2616 0.915 1_455 S
C2626 C2624 1.438 . S
C2626 C2627 1.359 . S
C2627 H2617 0.930 1_455 S
C2627 C2620 1.409 . S
C2627 C2626 1.359 . S
C1195 N14 1.271 . S
C1200 C74 1.240 1_545 S
C1211 C8 1.191 1_655 S
C1216 N47 1.254 . S
C1227 C41 1.214 . S
C1232 N80 1.290 . S
C1243 C140 1.201 1_455 S
C1248 N113 1.253 . S
C1259 C173 1.221 . S
C1264 N146 1.296 . S
C1275 C107 1.240 1_565 S
C1280 N179 1.311 . S
C1291 C272 1.279 1_565 S
C1296 N212 1.335 . S
C1307 N245 1.275 . S
C1312 C206 1.199 1_455 S
C1323 C239 1.191 . S
C1328 N278 1.256 . S
C1339 C338 1.281 1_655 S
C1344 N311 1.336 . S
C1355 N344 1.263 . S
C1360 C371 1.226 . S
C1371 C305 1.230 1_545 S
C1376 N377 1.265 . S
C1387 N410 1.294 . S
C1392 C470 1.219 . S
C1403 N443 1.255 . S
C1408 C404 1.191 . S
C1419 N476 1.267 . S
C1424 C437 1.234 . S
C1435 C536 1.216 . S
C1440 N509 1.292 . S
C1451 C569 1.218 . S
C1456 N542 1.294 . S
C1467 N575 1.278 . S
C1472 C503 1.252 . S
C1483 N608 1.255 . S
C1488 C668 1.209 . S
C1499 N641 1.275 . S
C1504 C602 1.200 . S
C1515 N674 1.339 . S
C1520 C635 1.309 . S
C1531 C734 1.218 . S
C1536 N707 1.258 . S
C1547 C767 1.192 . S
C1552 N740 1.265 . S
C1563 N773 1.253 . S
C1568 C701 1.194 . S
C1579 C866 1.232 . S
C1584 N806 1.305 . S
C1595 C800 1.229 . S
C1600 N839 1.264 . S
C1611 N872 1.296 . S
C1616 C833 1.276 . S
C1627 C932 1.197 . S
C1632 N905 1.253 . S
C1643 N938 1.339 . S
C1648 C965 1.287 . S
C1659 C899 1.269 . S
C1664 N971 1.291 . S
C1675 C1064 1.297 . S
C1680 N1004 1.342 . S
C1691 N1037 1.335 . S
C1696 C998 1.279 . S
C1707 N1070 1.281 . S
C1712 C1031 1.205 . S
C1723 C1130 1.309 . S
C1728 N1103 1.337 . S
C1739 C1163 1.224 . S
C1744 N1136 1.299 . S
C1755 N1169 1.340 . S
C1760 C1097 1.291 . S
C1771 N665 1.335 . S
C1776 C28 1.382 . S
C1787 C61 1.393 . S
C1792 N599 1.348 . S
C1803 C94 1.378 . S
C1808 N632 1.335 . S
C1819 N1127 1.357 . S
C1824 C127 1.346 . S
C1835 N1160 1.333 . S
C1840 C160 1.383 . S
C1851 C193 1.373 . S
C1856 N1094 1.338 . S
C1867 C226 1.352 . S
C1872 N863 1.391 . S
C1883 C259 1.373 . S
C1888 N797 1.339 . S
C1899 C292 1.359 . S
C1904 N830 1.384 . S
C1915 N533 1.363 . S
C1920 C325 1.339 . S
C1931 C358 1.394 . S
C1936 N566 1.341 . S
C1947 C391 1.362 . S
C1952 N500 1.345 . S
C1963 C424 1.392 . S
C1968 N1061 1.333 1_655 S
C1979 N995 1.339 . S
C1984 C457 1.395 . S
C1995 N1028 1.353 1_545 S
C2000 C490 1.351 . S
C2011 C523 1.362 . S
C2016 N335 1.384 . S
C2027 C556 1.328 . S
C2032 N368 1.374 . S
C2043 C589 1.393 . S
C2048 N302 1.334 . S
C2059 N71 1.365 . S
C2064 C622 1.382 . S
C2075 C655 1.317 . S
C2080 N5 1.394 . S
C2091 C688 1.394 . S
C2096 N38 1.343 . S
C2107 N929 1.361 1_545 S
C2112 C721 1.384 . S
C2123 C754 1.336 . S
C2128 N962 1.367 1_655 S
C2139 C787 1.319 . S
C2144 N896 1.401 . S
C2155 N269 1.336 . S
C2160 C820 1.379 . S
C2171 N203 1.373 . S
C2176 C853 1.330 . S
C2187 C886 1.331 . S
C2192 N236 1.371 . S
C2203 C919 1.317 . S
C2208 N731 1.399 1_565 S
C2219 N764 1.353 1_455 S
C2224 C952 1.352 . S
C2235 C985 1.317 . S
C2240 N698 1.400 . S
C2251 N467 1.402 1_455 S
C2256 C1018 1.322 . S
C2267 C1051 1.318 . S
C2272 N401 1.401 . S
C2283 C1084 1.395 . S
C2288 N434 1.344 1_565 S
C2299 N137 1.375 . S
C2304 C1117 1.329 . S
C2315 C1150 1.371 . S
C2320 N170 1.374 . S
C2331 N104 1.334 . S
C2336 C1183 1.392 . S
C2347 C149 1.673 . S
C2352 C17 1.663 . S
C2363 C50 1.600 . S
C2368 C182 1.598 . S
C2379 C83 1.665 . S
C2384 C116 1.673 . S
C2395 C215 1.644 . S
C2400 C347 1.666 . S
C2411 C248 1.597 . S
C2416 C380 1.614 . S
C2427 C281 1.610 . S
C2432 C314 1.597 . S
C2443 C545 1.596 . S
C2448 C413 1.610 . S
C2459 C578 1.653 . S
C2464 C446 1.671 . S
C2475 C512 1.620 . S
C2480 C479 1.600 . S
C2491 C743 1.598 . S
C2496 C611 1.603 . S
C2507 C776 1.631 . S
C2512 C644 1.606 . S
C2523 C710 1.662 . S
C2528 C677 1.637 . S
C2539 C941 1.615 . S
C2544 C809 1.598 . S
C2555 C842 1.597 . S
C2560 C974 1.610 . S
C2571 C908 1.648 . S
C2576 C875 1.669 . S
C2587 C1139 1.598 . S
C2592 C1007 1.616 . S
C2603 C1172 1.657 . S
C2608 C1040 1.672 . S
C2619 C1073 1.631 . S
C2624 C1106 1.658 . S
