# Generated by pormake.
# Topology snl, (6)-cn, num edge types: 1
# Building blocks:
#     Node 0, Type 0, BuildingBlock: MIDCAF_clean_sbu_0, # of connection points: 6
#     Node 1, Type 0, BuildingBlock: MIDCAF_clean_sbu_0, # of connection points: 6
#     Node 2, Type 0, BuildingBlock: MIDCAF_clean_sbu_0, # of connection points: 6
#     Node 3, Type 0, BuildingBlock: MIDCAF_clean_sbu_0, # of connection points: 6
#     Node 4, Type 0, BuildingBlock: MIDCAF_clean_sbu_0, # of connection points: 6
#     Node 5, Type 0, BuildingBlock: MIDCAF_clean_sbu_0, # of connection points: 6
#     Node 6, Type 0, BuildingBlock: MIDCAF_clean_sbu_0, # of connection points: 6
#     Node 7, Type 0, BuildingBlock: MIDCAF_clean_sbu_0, # of connection points: 6
#     Node 8, Type 0, BuildingBlock: MIDCAF_clean_sbu_0, # of connection points: 6
#     Node 9, Type 0, BuildingBlock: MIDCAF_clean_sbu_0, # of connection points: 6
#     Node 10, Type 0, BuildingBlock: MIDCAF_clean_sbu_0, # of connection points: 6
#     Node 11, Type 0, BuildingBlock: MIDCAF_clean_sbu_0, # of connection points: 6
#     Node 12, Type 0, BuildingBlock: MIDCAF_clean_sbu_0, # of connection points: 6
#     Node 13, Type 0, BuildingBlock: MIDCAF_clean_sbu_0, # of connection points: 6
#     Node 14, Type 0, BuildingBlock: MIDCAF_clean_sbu_0, # of connection points: 6
#     Node 15, Type 0, BuildingBlock: MIDCAF_clean_sbu_0, # of connection points: 6
#     Edge 16, Type (0, 0), BuildingBlock: ZUJKAS_clean_linker_0, # of connection points: 2
#     Edge 17, Type (0, 0), BuildingBlock: ZUJKAS_clean_linker_0, # of connection points: 2
#     Edge 18, Type (0, 0), BuildingBlock: ZUJKAS_clean_linker_0, # of connection points: 2
#     Edge 19, Type (0, 0), BuildingBlock: ZUJKAS_clean_linker_0, # of connection points: 2
#     Edge 20, Type (0, 0), BuildingBlock: ZUJKAS_clean_linker_0, # of connection points: 2
#     Edge 21, Type (0, 0), BuildingBlock: ZUJKAS_clean_linker_0, # of connection points: 2
#     Edge 22, Type (0, 0), BuildingBlock: ZUJKAS_clean_linker_0, # of connection points: 2
#     Edge 23, Type (0, 0), BuildingBlock: ZUJKAS_clean_linker_0, # of connection points: 2
#     Edge 24, Type (0, 0), BuildingBlock: ZUJKAS_clean_linker_0, # of connection points: 2
#     Edge 25, Type (0, 0), BuildingBlock: ZUJKAS_clean_linker_0, # of connection points: 2
#     Edge 26, Type (0, 0), BuildingBlock: ZUJKAS_clean_linker_0, # of connection points: 2
#     Edge 27, Type (0, 0), BuildingBlock: ZUJKAS_clean_linker_0, # of connection points: 2
#     Edge 28, Type (0, 0), BuildingBlock: ZUJKAS_clean_linker_0, # of connection points: 2
#     Edge 29, Type (0, 0), BuildingBlock: ZUJKAS_clean_linker_0, # of connection points: 2
#     Edge 30, Type (0, 0), BuildingBlock: ZUJKAS_clean_linker_0, # of connection points: 2
#     Edge 31, Type (0, 0), BuildingBlock: ZUJKAS_clean_linker_0, # of connection points: 2
#     Edge 32, Type (0, 0), BuildingBlock: ZUJKAS_clean_linker_0, # of connection points: 2
#     Edge 33, Type (0, 0), BuildingBlock: ZUJKAS_clean_linker_0, # of connection points: 2
#     Edge 34, Type (0, 0), BuildingBlock: ZUJKAS_clean_linker_0, # of connection points: 2
#     Edge 35, Type (0, 0), BuildingBlock: ZUJKAS_clean_linker_0, # of connection points: 2
#     Edge 36, Type (0, 0), BuildingBlock: ZUJKAS_clean_linker_0, # of connection points: 2
#     Edge 37, Type (0, 0), BuildingBlock: ZUJKAS_clean_linker_0, # of connection points: 2
#     Edge 38, Type (0, 0), BuildingBlock: ZUJKAS_clean_linker_0, # of connection points: 2
#     Edge 39, Type (0, 0), BuildingBlock: ZUJKAS_clean_linker_0, # of connection points: 2
#     Edge 40, Type (0, 0), BuildingBlock: ZUJKAS_clean_linker_0, # of connection points: 2
#     Edge 41, Type (0, 0), BuildingBlock: ZUJKAS_clean_linker_0, # of connection points: 2
#     Edge 42, Type (0, 0), BuildingBlock: ZUJKAS_clean_linker_0, # of connection points: 2
#     Edge 43, Type (0, 0), BuildingBlock: ZUJKAS_clean_linker_0, # of connection points: 2
#     Edge 44, Type (0, 0), BuildingBlock: ZUJKAS_clean_linker_0, # of connection points: 2
#     Edge 45, Type (0, 0), BuildingBlock: ZUJKAS_clean_linker_0, # of connection points: 2
#     Edge 46, Type (0, 0), BuildingBlock: ZUJKAS_clean_linker_0, # of connection points: 2
#     Edge 47, Type (0, 0), BuildingBlock: ZUJKAS_clean_linker_0, # of connection points: 2
#     Edge 48, Type (0, 0), BuildingBlock: ZUJKAS_clean_linker_0, # of connection points: 2
#     Edge 49, Type (0, 0), BuildingBlock: ZUJKAS_clean_linker_0, # of connection points: 2
#     Edge 50, Type (0, 0), BuildingBlock: ZUJKAS_clean_linker_0, # of connection points: 2
#     Edge 51, Type (0, 0), BuildingBlock: ZUJKAS_clean_linker_0, # of connection points: 2
#     Edge 52, Type (0, 0), BuildingBlock: ZUJKAS_clean_linker_0, # of connection points: 2
#     Edge 53, Type (0, 0), BuildingBlock: ZUJKAS_clean_linker_0, # of connection points: 2
#     Edge 54, Type (0, 0), BuildingBlock: ZUJKAS_clean_linker_0, # of connection points: 2
#     Edge 55, Type (0, 0), BuildingBlock: ZUJKAS_clean_linker_0, # of connection points: 2
#     Edge 56, Type (0, 0), BuildingBlock: ZUJKAS_clean_linker_0, # of connection points: 2
#     Edge 57, Type (0, 0), BuildingBlock: ZUJKAS_clean_linker_0, # of connection points: 2
#     Edge 58, Type (0, 0), BuildingBlock: ZUJKAS_clean_linker_0, # of connection points: 2
#     Edge 59, Type (0, 0), BuildingBlock: ZUJKAS_clean_linker_0, # of connection points: 2
#     Edge 60, Type (0, 0), BuildingBlock: ZUJKAS_clean_linker_0, # of connection points: 2
#     Edge 61, Type (0, 0), BuildingBlock: ZUJKAS_clean_linker_0, # of connection points: 2
#     Edge 62, Type (0, 0), BuildingBlock: ZUJKAS_clean_linker_0, # of connection points: 2
#     Edge 63, Type (0, 0), BuildingBlock: ZUJKAS_clean_linker_0, # of connection points: 2
# Relax obj value: 0.110
# Max RMSD: 0.169
# Mean RMSD: 0.168
data_MOF--net-snl--node1-MIDCAF_clean_sbu_0--edge1-ZUJKAS_clean_linker_0
_symmetry_space_group_name_H-M    P1
_symmetry_Int_Tables_number       1
_symmetry_cell_setting            triclinic
loop_
_symmetry_equiv_pos_as_xyz
'x, y, z'
_cell_length_a     77.652883
_cell_length_b     77.672605
_cell_length_c     19.628788
_cell_angle_alpha  90.057117
_cell_angle_beta   90.146571
_cell_angle_gamma 90.033125
loop_
_atom_site_label
_atom_site_type_symbol
_atom_site_fract_x
_atom_site_fract_y
_atom_site_fract_z
_atom_type_partial_charge
Zn0 Zn 0.10755 0.60814 0.18005 0.0
Zn1 Zn 0.15119 0.6494 0.0725 0.0
Zn2 Zn 0.12977 0.6284 0.12597 0.0
C3 C 0.12167 0.66857 0.0866 0.0
C4 C 0.1669 0.63935 0.19099 0.0
O5 O 0.12804 0.60462 0.06187 0.0
O6 O 0.10715 0.58985 0.11086 0.0
C7 C 0.08947 0.63791 0.15944 0.0
O8 O 0.11664 0.65411 0.11239 0.0
O9 O 0.13666 0.66985 0.06254 0.0
O10 O 0.16901 0.65001 0.14336 0.0
O11 O 0.15302 0.63022 0.1936 0.0
O12 O 0.08746 0.62332 0.18633 0.0
O13 O 0.10426 0.64213 0.13429 0.0
O14 O 0.13999 0.62102 0.22807 0.0
O15 O 0.12015 0.6029 0.26488 0.0
C16 C 0.13422 0.61069 0.27412 0.0
O17 O 0.13747 0.6173 0.0258 0.0
O18 O 0.15663 0.6362 0.98951 0.0
C19 C 0.11846 0.59106 0.06514 0.0
C20 C 0.14832 0.62243 0.98043 0.0
Zn21 Zn 0.64743 0.8572 0.42778 0.0
Zn22 Zn 0.60625 0.8971 0.29008 0.0
Zn23 Zn 0.62785 0.87825 0.35927 0.0
C24 C 0.58877 0.86709 0.31023 0.0
C25 C 0.61416 0.91582 0.40679 0.0
O26 O 0.65254 0.87535 0.30249 0.0
O27 O 0.66651 0.85561 0.36198 0.0
C28 C 0.6179 0.83876 0.40618 0.0
O29 O 0.60285 0.86425 0.34354 0.0
O30 O 0.58689 0.88088 0.27721 0.0
O31 O 0.60383 0.91593 0.35703 0.0
O32 O 0.62416 0.90278 0.41642 0.0
O33 O 0.6319 0.83725 0.43835 0.0
O34 O 0.61447 0.85288 0.37422 0.0
O35 O 0.63328 0.89097 0.4584 0.0
O36 O 0.65112 0.87246 0.50717 0.0
C37 C 0.64302 0.88653 0.50862 0.0
O38 O 0.64046 0.8841 0.2605 0.0
O39 O 0.62158 0.90157 0.21184 0.0
C40 C 0.66598 0.8659 0.31229 0.0
C41 C 0.63585 0.89383 0.21055 0.0
Zn42 Zn 0.40256 0.39913 0.67793 0.0
Zn43 Zn 0.35955 0.35691 0.56646 0.0
Zn44 Zn 0.38025 0.37898 0.62259 0.0
C45 C 0.36233 0.38442 0.47552 0.0
C46 C 0.38936 0.33877 0.58403 0.0
O47 O 0.3696 0.38643 0.72363 0.0
O48 O 0.38937 0.40464 0.76099 0.0
C49 C 0.39199 0.41601 0.56164 0.0
O50 O 0.37278 0.38988 0.52194 0.0
O51 O 0.35444 0.37036 0.48351 0.0
O52 O 0.3747 0.33674 0.55745 0.0
O53 O 0.39353 0.35344 0.61047 0.0
O54 O 0.40333 0.41713 0.60758 0.0
O55 O 0.3822 0.40261 0.5584 0.0
O56 O 0.4057 0.36533 0.63392 0.0
O57 O 0.42258 0.38387 0.68745 0.0
C58 C 0.42042 0.36928 0.66052 0.0
O59 O 0.35679 0.3771 0.68748 0.0
O60 O 0.34161 0.3566 0.63724 0.0
C61 C 0.37526 0.39689 0.76961 0.0
C62 C 0.34314 0.36765 0.68399 0.0
Zn63 Zn 0.85733 0.14781 0.93646 0.0
Zn64 Zn 0.89934 0.10662 0.80902 0.0
Zn65 Zn 0.8779 0.12679 0.87274 0.0
C66 C 0.87089 0.11038 0.72387 0.0
C67 C 0.91756 0.13659 0.83109 0.0
O68 O 0.87154 0.11481 0.97217 0.0
O69 O 0.85285 0.13313 0.01671 0.0
C70 C 0.84024 0.13894 0.8179 0.0
O71 O 0.86617 0.12045 0.7726 0.0
O72 O 0.88491 0.10224 0.72765 0.0
O73 O 0.91918 0.12235 0.80085 0.0
O74 O 0.9032 0.14042 0.86051 0.0
O75 O 0.83892 0.14919 0.86752 0.0
O76 O 0.85385 0.12959 0.81118 0.0
O77 O 0.89118 0.15223 0.88673 0.0
O78 O 0.87282 0.16778 0.94678 0.0
C79 C 0.88712 0.16645 0.91685 0.0
O80 O 0.88074 0.10258 0.9331 0.0
O81 O 0.90059 0.08798 0.87686 0.0
C82 C 0.86125 0.11927 0.02049 0.0
C83 C 0.89018 0.08903 0.92591 0.0
Zn84 Zn 0.10854 0.39953 0.81783 0.0
Zn85 Zn 0.15084 0.35637 0.93103 0.0
Zn86 Zn 0.13099 0.37904 0.87419 0.0
C87 C 0.14856 0.38414 0.02178 0.0
C88 C 0.12077 0.33894 0.91309 0.0
O89 O 0.14201 0.3864 0.77394 0.0
O90 O 0.1224 0.40468 0.73599 0.0
C91 C 0.1193 0.41607 0.93556 0.0
O92 O 0.1383 0.38982 0.97522 0.0
O93 O 0.15613 0.3699 0.01384 0.0
O94 O 0.13526 0.33648 0.94054 0.0
O95 O 0.11724 0.35369 0.88607 0.0
O96 O 0.10804 0.41738 0.88939 0.0
O97 O 0.12897 0.40259 0.93861 0.0
O98 O 0.10559 0.36565 0.86033 0.0
O99 O 0.08854 0.38407 0.80693 0.0
C100 C 0.09092 0.36946 0.83315 0.0
O101 O 0.15467 0.37694 0.81092 0.0
O102 O 0.16887 0.3557 0.86051 0.0
C103 C 0.13651 0.39688 0.72788 0.0
C104 C 0.16798 0.36705 0.81469 0.0
Zn105 Zn 0.90204 0.89678 0.19211 0.0
Zn106 Zn 0.85962 0.85481 0.07769 0.0
Zn107 Zn 0.87976 0.87673 0.13493 0.0
C108 C 0.86214 0.88249 0.98772 0.0
C109 C 0.88936 0.83673 0.09361 0.0
O110 O 0.86865 0.88405 0.23535 0.0
O111 O 0.88821 0.90238 0.27343 0.0
C112 C 0.8921 0.91371 0.07487 0.0
O113 O 0.87266 0.88783 0.03409 0.0
O114 O 0.85417 0.86848 0.99566 0.0
O115 O 0.8748 0.83479 0.0661 0.0
O116 O 0.89328 0.85124 0.12196 0.0
O117 O 0.90333 0.91467 0.12126 0.0
O118 O 0.88214 0.90042 0.07125 0.0
O119 O 0.90504 0.863 0.14889 0.0
O120 O 0.92184 0.88126 0.2046 0.0
C121 C 0.91958 0.86673 0.17745 0.0
O122 O 0.85593 0.87473 0.19807 0.0
O123 O 0.84158 0.85367 0.14775 0.0
C124 C 0.8741 0.89458 0.28143 0.0
C125 C 0.84256 0.8649 0.19405 0.0
Zn126 Zn 0.36073 0.65173 0.45483 0.0
Zn127 Zn 0.40057 0.60927 0.32317 0.0
Zn128 Zn 0.37978 0.62961 0.38855 0.0
C129 C 0.3717 0.61357 0.24 0.0
C130 C 0.41944 0.63874 0.3422 0.0
O131 O 0.37369 0.61779 0.48888 0.0
O132 O 0.35658 0.63723 0.53592 0.0
C133 C 0.34202 0.64247 0.33922 0.0
O134 O 0.36727 0.62364 0.28916 0.0
O135 O 0.38561 0.60522 0.24307 0.0
O136 O 0.42075 0.62443 0.31223 0.0
O137 O 0.4053 0.64271 0.37297 0.0
O138 O 0.34172 0.65308 0.38796 0.0
O139 O 0.35529 0.63273 0.33044 0.0
O140 O 0.39385 0.65463 0.40137 0.0
O141 O 0.37685 0.67129 0.46331 0.0
C142 C 0.3908 0.66906 0.43183 0.0
O143 O 0.38237 0.60539 0.4486 0.0
O144 O 0.40181 0.59061 0.39089 0.0
C145 C 0.36416 0.62289 0.53866 0.0
C146 C 0.39158 0.59172 0.44053 0.0
Zn147 Zn 0.647 0.1508 0.55145 0.0
Zn148 Zn 0.6059 0.109 0.68037 0.0
Zn149 Zn 0.62724 0.12922 0.61595 0.0
C150 C 0.58774 0.13896 0.66097 0.0
C151 C 0.61469 0.09172 0.56165 0.0
O152 O 0.65152 0.1319 0.67585 0.0
O153 O 0.66568 0.15205 0.61953 0.0
C154 C 0.61728 0.16894 0.57356 0.0
O155 O 0.60199 0.1427 0.63061 0.0
O156 O 0.5861 0.1247 0.69095 0.0
O157 O 0.60445 0.0906 0.61125 0.0
O158 O 0.62419 0.10523 0.55455 0.0
O159 O 0.63136 0.17067 0.54238 0.0
O160 O 0.61372 0.15459 0.60359 0.0
O161 O 0.63338 0.11746 0.5154 0.0
O162 O 0.65135 0.13638 0.4702 0.0
C163 C 0.6433 0.1223 0.46643 0.0
O164 O 0.63933 0.12277 0.71567 0.0
O165 O 0.62067 0.10449 0.76065 0.0
C166 C 0.66493 0.14151 0.66832 0.0
C167 C 0.6347 0.11265 0.76434 0.0
Zn168 Zn 0.9041 0.39667 0.83071 0.0
Zn169 Zn 0.85796 0.35632 0.92549 0.0
Zn170 Zn 0.87938 0.37782 0.87192 0.0
C171 C 0.86033 0.38376 0.01627 0.0
C172 C 0.88677 0.33706 0.91188 0.0
O173 O 0.87103 0.38522 0.76792 0.0
O174 O 0.89512 0.39798 0.7363 0.0
C175 C 0.88925 0.41582 0.93147 0.0
O176 O 0.87107 0.38905 0.97081 0.0
O177 O 0.85247 0.36969 0.00805 0.0
O178 O 0.8719 0.33538 0.93658 0.0
O179 O 0.89149 0.35166 0.88639 0.0
O180 O 0.90111 0.41706 0.88803 0.0
O181 O 0.88035 0.40182 0.93564 0.0
O182 O 0.90447 0.36304 0.86782 0.0
O183 O 0.92455 0.38256 0.84718 0.0
C184 C 0.92047 0.36725 0.86047 0.0
O185 O 0.85671 0.37699 0.80227 0.0
O186 O 0.84074 0.35703 0.85196 0.0
C187 C 0.88015 0.39272 0.72184 0.0
C188 C 0.84277 0.36796 0.80519 0.0
Zn189 Zn 0.3989 0.10887 0.68752 0.0
Zn190 Zn 0.35731 0.15153 0.56264 0.0
Zn191 Zn 0.37766 0.12989 0.62536 0.0
C192 C 0.36057 0.12308 0.47741 0.0
C193 C 0.38764 0.16941 0.58287 0.0
O194 O 0.36614 0.12366 0.72551 0.0
O195 O 0.3846 0.10499 0.76949 0.0
C196 C 0.38849 0.09179 0.57072 0.0
O197 O 0.37078 0.1183 0.52565 0.0
O198 O 0.35249 0.13713 0.48158 0.0
O199 O 0.37326 0.17118 0.55365 0.0
O200 O 0.39149 0.15501 0.61201 0.0
O201 O 0.39912 0.09027 0.61908 0.0
O202 O 0.37956 0.1057 0.56446 0.0
O203 O 0.40329 0.14286 0.63739 0.0
O204 O 0.41917 0.12414 0.69458 0.0
C205 C 0.4177 0.13856 0.66558 0.0
O206 O 0.35386 0.13303 0.68738 0.0
O207 O 0.33906 0.15292 0.63196 0.0
C208 C 0.37079 0.11346 0.77388 0.0
C209 C 0.34035 0.14255 0.68115 0.0
Zn210 Zn 0.60727 0.60913 0.31433 0.0
Zn211 Zn 0.64956 0.65129 0.42864 0.0
Zn212 Zn 0.62944 0.62916 0.37198 0.0
C213 C 0.64718 0.62366 0.51908 0.0
C214 C 0.61989 0.66936 0.41084 0.0
O215 O 0.64047 0.62185 0.27134 0.0
O216 O 0.62079 0.60381 0.23197 0.0
C217 C 0.61743 0.59214 0.43164 0.0
O218 O 0.63674 0.61813 0.47273 0.0
O219 O 0.65492 0.6378 0.51112 0.0
O220 O 0.63441 0.6714 0.4386 0.0
O221 O 0.61595 0.6547 0.38371 0.0
O222 O 0.60639 0.59109 0.38458 0.0
O223 O 0.62725 0.6055 0.436 0.0
O224 O 0.60394 0.64265 0.3601 0.0
O225 O 0.58721 0.62438 0.30433 0.0
C226 C 0.58929 0.63881 0.33259 0.0
O227 O 0.65313 0.63128 0.30807 0.0
O228 O 0.66763 0.6522 0.35868 0.0
C229 C 0.63497 0.61152 0.22461 0.0
C230 C 0.66653 0.64106 0.31205 0.0
Zn231 Zn 0.15386 0.86144 0.09058 0.0
Zn232 Zn 0.10607 0.90141 0.17383 0.0
Zn233 Zn 0.13063 0.88191 0.13297 0.0
C234 C 0.09019 0.87074 0.15021 0.0
C235 C 0.11974 0.91867 0.06513 0.0
O236 O 0.15357 0.88419 0.20235 0.0
O237 O 0.17236 0.86647 0.15512 0.0
C238 C 0.12654 0.84011 0.1153 0.0
O239 O 0.1061 0.86643 0.14096 0.0
O240 O 0.08624 0.88615 0.1625 0.0
O241 O 0.10827 0.92053 0.1098 0.0
O242 O 0.1288 0.90474 0.06334 0.0
O243 O 0.14229 0.83927 0.10032 0.0
O244 O 0.11946 0.85495 0.12583 0.0
O245 O 0.1383 0.89159 0.03159 0.0
O246 O 0.15653 0.87141 0.99877 0.0
C247 C 0.14849 0.88519 0.98648 0.0
O248 O 0.13878 0.89106 0.23462 0.0
O249 O 0.11539 0.90503 0.2667 0.0
C250 C 0.16878 0.8775 0.19996 0.0
C251 C 0.13035 0.8996 0.27994 0.0
Zn252 Zn 0.85933 0.6505 0.05274 0.0
Zn253 Zn 0.90073 0.60729 0.17855 0.0
Zn254 Zn 0.87932 0.62836 0.11614 0.0
C255 C 0.91942 0.63704 0.15735 0.0
C256 C 0.8902 0.59032 0.06118 0.0
O257 O 0.85535 0.63145 0.17713 0.0
O258 O 0.84083 0.65151 0.12145 0.0
C259 C 0.88975 0.66798 0.07536 0.0
O260 O 0.90497 0.64123 0.12918 0.0
O261 O 0.92102 0.62261 0.18614 0.0
O262 O 0.90083 0.58877 0.10954 0.0
O263 O 0.88127 0.60424 0.055 0.0
O264 O 0.87548 0.67011 0.04561 0.0
O265 O 0.89328 0.65342 0.10388 0.0
O266 O 0.8726 0.61691 0.0162 0.0
O267 O 0.8549 0.63615 0.97108 0.0
C268 C 0.8627 0.62194 0.96736 0.0
O269 O 0.86761 0.6221 0.21569 0.0
O270 O 0.88616 0.60354 0.25998 0.0
C271 C 0.84187 0.641 0.1703 0.0
C272 C 0.87228 0.61192 0.2641 0.0
Zn273 Zn 0.1066 0.11022 0.81266 0.0
Zn274 Zn 0.14747 0.15285 0.93968 0.0
Zn275 Zn 0.12772 0.1311 0.87594 0.0
C276 C 0.11736 0.17065 0.91854 0.0
C277 C 0.16507 0.14391 0.82222 0.0
O278 O 0.12571 0.10696 0.93678 0.0
O279 O 0.10625 0.09162 0.88101 0.0
C280 C 0.08779 0.13981 0.83371 0.0
O281 O 0.11374 0.15623 0.88886 0.0
O282 O 0.1316 0.1725 0.9487 0.0
O283 O 0.16595 0.15435 0.87137 0.0
O284 O 0.1517 0.13421 0.81498 0.0
O285 O 0.08632 0.12541 0.80445 0.0
O286 O 0.10213 0.14403 0.86271 0.0
O287 O 0.13952 0.12489 0.77574 0.0
O288 O 0.12102 0.10632 0.73108 0.0
C289 C 0.13487 0.11475 0.72701 0.0
O290 O 0.13439 0.11954 0.97632 0.0
O291 O 0.15227 0.13867 0.02116 0.0
C292 C 0.11676 0.09307 0.92983 0.0
C293 C 0.14437 0.12451 0.02512 0.0
Zn294 Zn 0.60768 0.39841 0.68561 0.0
Zn295 Zn 0.64887 0.35722 0.55412 0.0
Zn296 Zn 0.62915 0.37849 0.62 0.0
C297 C 0.64486 0.38601 0.47104 0.0
C298 C 0.61935 0.33874 0.57631 0.0
O299 O 0.64136 0.38455 0.71939 0.0
O300 O 0.62248 0.4023 0.76632 0.0
C301 C 0.61673 0.41639 0.56921 0.0
O302 O 0.63508 0.39069 0.52064 0.0
O303 O 0.65284 0.37189 0.4734 0.0
O304 O 0.63345 0.33718 0.5451 0.0
O305 O 0.61568 0.35306 0.60656 0.0
O306 O 0.60644 0.4173 0.61872 0.0
O307 O 0.62612 0.40285 0.56087 0.0
O308 O 0.60387 0.36492 0.63338 0.0
O309 O 0.58777 0.38273 0.69387 0.0
C310 C 0.58951 0.36857 0.66312 0.0
O311 O 0.65362 0.37569 0.67905 0.0
O312 O 0.66782 0.35594 0.62073 0.0
C313 C 0.63663 0.39435 0.76892 0.0
C314 C 0.66712 0.36627 0.67027 0.0
Zn315 Zn 0.35575 0.85819 0.41413 0.0
Zn316 Zn 0.40263 0.90129 0.33713 0.0
Zn317 Zn 0.37825 0.8809 0.37581 0.0
C318 C 0.37835 0.89878 0.2302 0.0
C319 C 0.4193 0.87119 0.36232 0.0
O320 O 0.37018 0.88949 0.4772 0.0
O321 O 0.35419 0.86736 0.50898 0.0
C322 C 0.34038 0.8756 0.30774 0.0
O323 O 0.37007 0.88997 0.27498 0.0
O324 O 0.39321 0.90451 0.24365 0.0
O325 O 0.423 0.88674 0.35148 0.0
O326 O 0.40342 0.86651 0.36865 0.0
O327 O 0.33702 0.86419 0.35137 0.0
O328 O 0.35546 0.88259 0.30601 0.0
O329 O 0.39052 0.85469 0.38172 0.0
O330 O 0.36861 0.83683 0.3958 0.0
C331 C 0.38446 0.83923 0.38592 0.0
O332 O 0.37873 0.90356 0.44632 0.0
O333 O 0.3989 0.92013 0.40148 0.0
C334 C 0.36111 0.8817 0.52257 0.0
C335 C 0.38724 0.91784 0.44509 0.0
H336 H 0.17683 0.62147 0.90145 0.0
H337 H 0.17803 0.61462 0.78021 0.0
H338 H 0.12526 0.59742 0.78634 0.0
H339 H 0.12395 0.60431 0.90847 0.0
H340 H 0.16989 0.58514 0.69188 0.0
H341 H 0.12645 0.64165 0.66232 0.0
H342 H 0.13773 0.63712 0.74078 0.0
H343 H 0.11901 0.62482 0.71785 0.0
C344 C 0.16562 0.61574 0.87748 0.0
C345 C 0.15021 0.61364 0.9141 0.0
C346 C 0.16635 0.61181 0.80821 0.0
C347 C 0.15165 0.60584 0.77417 0.0
C348 C 0.13669 0.6022 0.81178 0.0
H349 H 0.13376 0.58236 0.35423 0.0
H350 H 0.14146 0.5807 0.47445 0.0
C351 C 0.13599 0.60601 0.88157 0.0
C352 C 0.15144 0.60574 0.69868 0.0
H353 H 0.13485 0.62733 0.56213 0.0
C354 C 0.16219 0.59429 0.66335 0.0
C355 C 0.14176 0.61804 0.66182 0.0
C356 C 0.13067 0.63123 0.69735 0.0
C357 C 0.16314 0.59454 0.59178 0.0
C358 C 0.15308 0.60655 0.55494 0.0
C359 C 0.14263 0.6182 0.59049 0.0
C360 C 0.15198 0.60646 0.47949 0.0
C361 C 0.175 0.5821 0.55617 0.0
C362 C 0.15574 0.62137 0.44171 0.0
C363 C 0.15136 0.62235 0.37246 0.0
C364 C 0.1429 0.60852 0.34063 0.0
C365 C 0.14023 0.59324 0.37754 0.0
C366 C 0.14473 0.59222 0.44624 0.0
H367 H 0.18529 0.57738 0.59083 0.0
H368 H 0.16744 0.5708 0.53857 0.0
H369 H 0.18106 0.58815 0.51095 0.0
H370 H 0.16125 0.63255 0.46663 0.0
H371 H 0.15342 0.63433 0.34546 0.0
H372 H 0.6494 0.92245 0.15309 0.0
H373 H 0.65638 0.92588 0.0322 0.0
H374 H 0.64891 0.87135 0.00167 0.0
H375 H 0.64307 0.86782 0.12342 0.0
H376 H 0.67199 0.88261 0.91611 0.0
H377 H 0.61615 0.92707 0.9067 0.0
H378 H 0.63336 0.93477 0.9596 0.0
H379 H 0.62195 0.91544 0.98263 0.0
C380 C 0.65005 0.91112 0.12092 0.0
C381 C 0.64579 0.89487 0.14715 0.0
C382 C 0.6537 0.91312 0.05167 0.0
C383 C 0.65241 0.89901 0.00716 0.0
C384 C 0.64978 0.88249 0.03472 0.0
H385 H 0.61686 0.8926 0.59612 0.0
H386 H 0.62028 0.89856 0.71795 0.0
C387 C 0.64659 0.88043 0.1044 0.0
C388 C 0.65218 0.90151 0.93191 0.0
H389 H 0.63065 0.92214 0.80347 0.0
C390 C 0.66303 0.89133 0.89148 0.0
C391 C 0.64021 0.91266 0.89957 0.0
C392 C 0.62714 0.92297 0.93924 0.0
C393 C 0.66204 0.89167 0.82 0.0
C394 C 0.65036 0.90313 0.78766 0.0
C395 C 0.63977 0.91358 0.82809 0.0
C396 C 0.64778 0.9032 0.71241 0.0
C397 C 0.67286 0.87902 0.78032 0.0
C398 C 0.66179 0.90505 0.66787 0.0
C399 C 0.65985 0.90134 0.59855 0.0
C400 C 0.64375 0.89644 0.57231 0.0
C401 C 0.62934 0.89662 0.61516 0.0
C402 C 0.63135 0.89988 0.68488 0.0
H403 H 0.67745 0.86825 0.81285 0.0
H404 H 0.66552 0.87349 0.73691 0.0
H405 H 0.68438 0.88572 0.76 0.0
H406 H 0.67445 0.90825 0.68732 0.0
H407 H 0.67116 0.90116 0.56631 0.0
H408 H 0.38631 0.40332 0.40541 0.0
H409 H 0.38485 0.41094 0.28405 0.0
H410 H 0.33261 0.3922 0.27469 0.0
H411 H 0.33398 0.38466 0.39506 0.0
H412 H 0.3792 0.38426 0.18928 0.0
H413 H 0.33047 0.43575 0.15648 0.0
H414 H 0.34104 0.43158 0.23692 0.0
H415 H 0.32345 0.41823 0.20925 0.0
C416 C 0.37433 0.40147 0.37803 0.0
C417 C 0.3603 0.39331 0.40945 0.0
C418 C 0.37353 0.40572 0.30867 0.0
C419 C 0.3586 0.40217 0.27037 0.0
C420 C 0.34416 0.3953 0.30327 0.0
H421 H 0.35648 0.37313 0.84154 0.0
H422 H 0.34948 0.37483 0.96349 0.0
C423 C 0.345 0.39091 0.37208 0.0
C424 C 0.35886 0.40302 0.19487 0.0
H425 H 0.33817 0.41993 0.05632 0.0
C426 C 0.37032 0.39217 0.16023 0.0
C427 C 0.34717 0.41324 0.15712 0.0
C428 C 0.33493 0.42548 0.19174 0.0
C429 C 0.3703 0.39109 0.0889 0.0
C430 C 0.35833 0.40098 0.05111 0.0
C431 C 0.34706 0.41209 0.08556 0.0
C432 C 0.35864 0.401 0.97562 0.0
C433 C 0.38328 0.37957 0.05437 0.0
C434 C 0.36511 0.41544 0.94161 0.0
C435 C 0.3691 0.41448 0.87248 0.0
C436 C 0.36656 0.39909 0.83592 0.0
C437 C 0.35851 0.38515 0.8684 0.0
C438 C 0.35464 0.38608 0.93807 0.0
H439 H 0.39346 0.37512 0.0901 0.0
H440 H 0.3766 0.36806 0.03361 0.0
H441 H 0.3895 0.38637 0.01121 0.0
H442 H 0.36821 0.42708 0.96954 0.0
H443 H 0.37518 0.42547 0.84855 0.0
H444 H 0.85779 0.08176 0.66422 0.0
H445 H 0.85026 0.07866 0.54353 0.0
H446 H 0.85746 0.13331 0.51554 0.0
H447 H 0.86372 0.13651 0.63724 0.0
H448 H 0.8342 0.12269 0.43144 0.0
H449 H 0.88921 0.07739 0.41421 0.0
H450 H 0.87225 0.06961 0.46768 0.0
H451 H 0.88404 0.08868 0.49159 0.0
C452 C 0.85704 0.09316 0.63258 0.0
C453 C 0.86129 0.10936 0.65947 0.0
C454 C 0.85306 0.09135 0.56346 0.0
C455 C 0.85407 0.10561 0.51968 0.0
C456 C 0.85681 0.12205 0.54797 0.0
H457 H 0.88752 0.1121 0.10677 0.0
H458 H 0.88448 0.10594 0.22846 0.0
C459 C 0.86027 0.12393 0.61758 0.0
C460 C 0.85377 0.10337 0.44431 0.0
H461 H 0.87398 0.08279 0.31277 0.0
C462 C 0.84284 0.1139 0.4055 0.0
C463 C 0.8653 0.09212 0.41023 0.0
C464 C 0.87848 0.08144 0.44796 0.0
C465 C 0.84341 0.11389 0.33398 0.0
C466 C 0.85463 0.10232 0.2999 0.0
C467 C 0.86522 0.09146 0.33871 0.0
C468 C 0.85678 0.10253 0.22451 0.0
C469 C 0.83268 0.12701 0.29623 0.0
C470 C 0.84246 0.10146 0.18082 0.0
C471 C 0.84417 0.10538 0.1117 0.0
C472 C 0.86034 0.10965 0.08471 0.0
C473 C 0.87496 0.10865 0.12649 0.0
C474 C 0.87318 0.10525 0.1961 0.0
H475 H 0.82866 0.13778 0.32995 0.0
H476 H 0.83986 0.13252 0.25254 0.0
H477 H 0.82082 0.12075 0.27661 0.0
H478 H 0.82979 0.09867 0.20084 0.0
H479 H 0.83272 0.10611 0.08016 0.0
H480 H 0.12489 0.40332 0.09243 0.0
H481 H 0.12657 0.41093 0.21384 0.0
H482 H 0.17857 0.39157 0.22224 0.0
H483 H 0.17698 0.38403 0.10184 0.0
H484 H 0.13203 0.38418 0.3086 0.0
H485 H 0.18139 0.43518 0.34043 0.0
H486 H 0.17061 0.43112 0.26026 0.0
H487 H 0.1881 0.41759 0.28732 0.0
C488 C 0.13688 0.40133 0.11962 0.0
C489 C 0.15076 0.393 0.08791 0.0
C490 C 0.1378 0.40557 0.18901 0.0
C491 C 0.15272 0.40185 0.22705 0.0
C492 C 0.16703 0.3948 0.19387 0.0
H493 H 0.15502 0.37291 0.65585 0.0
H494 H 0.1619 0.3745 0.53377 0.0
C495 C 0.16606 0.39041 0.12504 0.0
C496 C 0.15257 0.40273 0.30258 0.0
H497 H 0.17365 0.41949 0.44071 0.0
C498 C 0.14104 0.39201 0.33747 0.0
C499 C 0.16442 0.41285 0.3401 0.0
C500 C 0.17675 0.42496 0.30522 0.0
C501 C 0.14116 0.39095 0.4088 0.0
C502 C 0.15329 0.40072 0.44636 0.0
C503 C 0.16463 0.41172 0.41166 0.0
C504 C 0.1531 0.40077 0.52189 0.0
C505 C 0.1281 0.37957 0.44359 0.0
C506 C 0.1469 0.41531 0.5561 0.0
C507 C 0.14297 0.41442 0.62531 0.0
C508 C 0.14531 0.399 0.66175 0.0
C509 C 0.15314 0.38495 0.62908 0.0
C510 C 0.15694 0.38581 0.55933 0.0
H511 H 0.1178 0.37523 0.4081 0.0
H512 H 0.13467 0.36799 0.46408 0.0
H513 H 0.12204 0.38644 0.48697 0.0
H514 H 0.14392 0.42699 0.52827 0.0
H515 H 0.13706 0.42549 0.64937 0.0
H516 H 0.88624 0.90105 0.91672 0.0
H517 H 0.88466 0.90854 0.79522 0.0
H518 H 0.83216 0.8905 0.78773 0.0
H519 H 0.83364 0.88311 0.9082 0.0
H520 H 0.87867 0.88209 0.70079 0.0
H521 H 0.83014 0.93376 0.66888 0.0
H522 H 0.8407 0.92948 0.74926 0.0
H523 H 0.82297 0.91629 0.72157 0.0
C524 C 0.87418 0.89934 0.88971 0.0
C525 C 0.8601 0.89141 0.9217 0.0
C526 C 0.87331 0.90351 0.82025 0.0
C527 C 0.85827 0.90011 0.78241 0.0
C528 C 0.8438 0.89349 0.8159 0.0
H529 H 0.85567 0.87062 0.35376 0.0
H530 H 0.84888 0.87231 0.47592 0.0
C531 C 0.8447 0.88919 0.88479 0.0
C532 C 0.85838 0.90089 0.70684 0.0
H533 H 0.8374 0.91769 0.56874 0.0
C534 C 0.86974 0.88998 0.67193 0.0
C535 C 0.84664 0.9111 0.66929 0.0
C536 C 0.83452 0.92344 0.70408 0.0
C537 C 0.86955 0.88883 0.6006 0.0
C538 C 0.85751 0.89868 0.56305 0.0
C539 C 0.84634 0.90986 0.59776 0.0
C540 C 0.85762 0.89863 0.48748 0.0
C541 C 0.88247 0.87727 0.56584 0.0
C542 C 0.86372 0.91317 0.45301 0.0
C543 C 0.86758 0.91222 0.38374 0.0
C544 C 0.86527 0.89675 0.34749 0.0
C545 C 0.85752 0.8827 0.38039 0.0
C546 C 0.85379 0.88362 0.45021 0.0
H547 H 0.8928 0.87298 0.60121 0.0
H548 H 0.87578 0.86567 0.54599 0.0
H549 H 0.88851 0.88399 0.52206 0.0
H550 H 0.86668 0.92489 0.48067 0.0
H551 H 0.87343 0.9233 0.3595 0.0
H552 H 0.38999 0.61442 0.62544 0.0
H553 H 0.38655 0.60778 0.7464 0.0
H554 H 0.33157 0.60345 0.71772 0.0
H555 H 0.33502 0.61123 0.59778 0.0
H556 H 0.33681 0.62409 0.81471 0.0
H557 H 0.37843 0.56826 0.86674 0.0
H558 H 0.39082 0.58474 0.82617 0.0
H559 H 0.37317 0.57475 0.781 0.0
C560 C 0.37729 0.61132 0.64458 0.0
C561 C 0.36279 0.61313 0.60255 0.0
C562 C 0.37529 0.60752 0.71386 0.0
C563 C 0.35877 0.60497 0.7417 0.0
C564 C 0.34443 0.6054 0.69791 0.0
H565 H 0.35938 0.58487 0.17892 0.0
H566 H 0.3517 0.58194 0.05852 0.0
C567 C 0.34641 0.60964 0.6292 0.0
C568 C 0.35626 0.60425 0.817 0.0
H569 H 0.37269 0.58699 0.96303 0.0
C570 C 0.34443 0.61569 0.84697 0.0
C571 C 0.36591 0.59317 0.85969 0.0
C572 C 0.37763 0.57942 0.83153 0.0
C573 C 0.34254 0.61688 0.918 0.0
C574 C 0.35328 0.60688 0.96076 0.0
C575 C 0.36455 0.59489 0.93075 0.0
C576 C 0.35385 0.60916 0.03625 0.0
C577 C 0.32897 0.62882 0.94605 0.0
C578 C 0.35668 0.62553 0.06519 0.0
C579 C 0.36041 0.62725 0.13473 0.0
C580 C 0.36189 0.61259 0.17593 0.0
C581 C 0.35806 0.59638 0.14817 0.0
C582 C 0.35388 0.59469 0.07919 0.0
H583 H 0.31791 0.62995 0.91026 0.0
H584 H 0.32406 0.62433 0.99606 0.0
H585 H 0.33455 0.64188 0.95241 0.0
H586 H 0.35724 0.63688 0.03335 0.0
H587 H 0.36376 0.63983 0.15472 0.0
H588 H 0.64339 0.13877 0.84946 0.0
H589 H 0.64998 0.1358 0.97071 0.0
H590 H 0.65396 0.08069 0.94607 0.0
H591 H 0.64614 0.08368 0.82586 0.0
H592 H 0.63353 0.08624 0.0423 0.0
H593 H 0.68927 0.12818 0.09265 0.0
H594 H 0.67283 0.14044 0.05107 0.0
H595 H 0.6828 0.12263 0.00711 0.0
C596 C 0.64638 0.12613 0.86955 0.0
C597 C 0.64442 0.11146 0.82857 0.0
C598 C 0.65017 0.1244 0.93902 0.0
C599 C 0.65261 0.108 0.9681 0.0
C600 C 0.65208 0.09348 0.92533 0.0
H601 H 0.67227 0.11058 0.40611 0.0
H602 H 0.67545 0.10265 0.28614 0.0
C603 C 0.64781 0.09518 0.85646 0.0
C604 C 0.65331 0.1058 0.04362 0.0
H605 H 0.67039 0.12294 0.18887 0.0
C606 C 0.64188 0.09405 0.07418 0.0
C607 C 0.66433 0.11566 0.08589 0.0
C608 C 0.67812 0.12727 0.05727 0.0
C609 C 0.64066 0.09244 0.14531 0.0
C610 C 0.65057 0.10343 0.18754 0.0
C611 C 0.66254 0.11463 0.157 0.0
C612 C 0.64821 0.10432 0.26293 0.0
C613 C 0.6288 0.07888 0.174 0.0
C614 C 0.63177 0.107 0.29124 0.0
C615 C 0.62992 0.11086 0.36057 0.0
C616 C 0.64451 0.11263 0.40216 0.0
C617 C 0.66082 0.10904 0.37502 0.0
C618 C 0.66264 0.10471 0.30629 0.0
H619 H 0.62781 0.06766 0.13904 0.0
H620 H 0.63326 0.07425 0.22454 0.0
H621 H 0.61568 0.08436 0.17944 0.0
H622 H 0.62044 0.10731 0.25906 0.0
H623 H 0.61727 0.11402 0.38009 0.0
H624 H 0.83158 0.38436 0.09385 0.0
H625 H 0.82982 0.39196 0.21421 0.0
H626 H 0.88228 0.4102 0.20891 0.0
H627 H 0.88401 0.40286 0.0876 0.0
H628 H 0.85102 0.37463 0.3011 0.0
H629 H 0.85934 0.44491 0.33659 0.0
H630 H 0.85296 0.43551 0.25611 0.0
H631 H 0.8752 0.43542 0.28179 0.0
C632 C 0.84256 0.39055 0.11775 0.0
C633 C 0.858 0.39286 0.08167 0.0
C634 C 0.84152 0.39488 0.18654 0.0
C635 C 0.85591 0.40158 0.22069 0.0
C636 C 0.87092 0.40528 0.1834 0.0
H637 H 0.89818 0.40619 0.6161 0.0
H638 H 0.88944 0.40918 0.49818 0.0
C639 C 0.87191 0.40107 0.11405 0.0
C640 C 0.85614 0.40185 0.29626 0.0
H641 H 0.86443 0.42716 0.43464 0.0
C642 C 0.85367 0.38617 0.33049 0.0
C643 C 0.85963 0.41689 0.3343 0.0
C644 C 0.86178 0.43417 0.30042 0.0
C645 C 0.85547 0.38491 0.40142 0.0
C646 C 0.85947 0.39987 0.43951 0.0
C647 C 0.8613 0.4157 0.40547 0.0
C648 C 0.86381 0.39898 0.51315 0.0
C649 C 0.85406 0.36739 0.43422 0.0
C650 C 0.85223 0.3924 0.56158 0.0
C651 C 0.85733 0.39036 0.62974 0.0
C652 C 0.87396 0.39516 0.65078 0.0
C653 C 0.88524 0.40228 0.60224 0.0
C654 C 0.88025 0.40412 0.53447 0.0
H655 H 0.8546 0.35682 0.39611 0.0
H656 H 0.86456 0.3654 0.47192 0.0
H657 H 0.84157 0.36642 0.46129 0.0
H658 H 0.83934 0.38864 0.54658 0.0
H659 H 0.84833 0.38492 0.66544 0.0
H660 H 0.38668 0.11506 0.39209 0.0
H661 H 0.38363 0.10881 0.27039 0.0
H662 H 0.32869 0.10332 0.29573 0.0
H663 H 0.33168 0.1109 0.41639 0.0
H664 H 0.37265 0.08593 0.18617 0.0
H665 H 0.32883 0.14207 0.16561 0.0
H666 H 0.33972 0.13665 0.24371 0.0
H667 H 0.32043 0.12535 0.21881 0.0
C668 C 0.37404 0.11201 0.37185 0.0
C669 C 0.3594 0.11355 0.41295 0.0
C670 C 0.37226 0.10855 0.30224 0.0
C671 C 0.35582 0.10629 0.27316 0.0
C672 C 0.34141 0.10576 0.31624 0.0
H673 H 0.35733 0.08505 0.83346 0.0
H674 H 0.34958 0.08214 0.95383 0.0
C675 C 0.34314 0.10977 0.38534 0.0
C676 C 0.35379 0.10599 0.19769 0.0
H677 H 0.33419 0.12667 0.06475 0.0
C678 C 0.36418 0.09479 0.15962 0.0
C679 C 0.34295 0.11779 0.16282 0.0
C680 C 0.33249 0.13126 0.19974 0.0
C681 C 0.36445 0.09535 0.08811 0.0
C682 C 0.3533 0.10686 0.05324 0.0
C683 C 0.34254 0.11771 0.09129 0.0
C684 C 0.35386 0.10903 0.97789 0.0
C685 C 0.37746 0.08431 0.05131 0.0
C686 C 0.35696 0.1254 0.94973 0.0
C687 C 0.36054 0.12718 0.88027 0.0
C688 C 0.36133 0.11259 0.83841 0.0
C689 C 0.35678 0.09647 0.86512 0.0
C690 C 0.35267 0.09477 0.93406 0.0
H691 H 0.388 0.08004 0.08576 0.0
H692 H 0.37099 0.0726 0.0314 0.0
H693 H 0.3833 0.09134 0.00792 0.0
H694 H 0.35776 0.13667 0.98218 0.0
H695 H 0.3642 0.1397 0.86074 0.0
H696 H 0.6354 0.58303 0.14526 0.0
H697 H 0.64294 0.5815 0.02499 0.0
H698 H 0.66151 0.6338 0.03279 0.0
H699 H 0.65389 0.63543 0.15411 0.0
H700 H 0.63486 0.628 0.93826 0.0
H701 H 0.68631 0.57924 0.90648 0.0
H702 H 0.66885 0.57224 0.95948 0.0
H703 H 0.68218 0.58989 0.9867 0.0
C704 C 0.64163 0.59403 0.12197 0.0
C705 C 0.64397 0.60939 0.15888 0.0
C706 C 0.64601 0.5931 0.05321 0.0
C707 C 0.65282 0.6075 0.01987 0.0
C708 C 0.65634 0.6225 0.05775 0.0
H709 H 0.67589 0.62303 0.59731 0.0
H710 H 0.67753 0.61615 0.71841 0.0
C711 C 0.65209 0.62339 0.12708 0.0
C712 C 0.6536 0.60765 0.94433 0.0
H713 H 0.6703 0.58667 0.80628 0.0
C714 C 0.64272 0.61906 0.90941 0.0
C715 C 0.66377 0.59589 0.90683 0.0
C716 C 0.67606 0.58371 0.94169 0.0
C717 C 0.64155 0.6189 0.83809 0.0
C718 C 0.65135 0.60684 0.80057 0.0
C719 C 0.66251 0.59563 0.83529 0.0
C720 C 0.6513 0.60701 0.72503 0.0
C721 C 0.63001 0.63186 0.8033 0.0
C722 C 0.63628 0.60318 0.68769 0.0
C723 C 0.63533 0.607 0.61792 0.0
C724 C 0.64936 0.61482 0.58516 0.0
C725 C 0.66483 0.61713 0.62147 0.0
C726 C 0.66581 0.6132 0.69068 0.0
H727 H 0.62572 0.64216 0.83869 0.0
H728 H 0.63675 0.63792 0.75964 0.0
H729 H 0.61841 0.6252 0.78325 0.0
H730 H 0.62499 0.59822 0.71333 0.0
H731 H 0.62325 0.60514 0.59124 0.0
H732 H 0.15822 0.88412 0.34187 0.0
H733 H 0.16685 0.88663 0.46135 0.0
H734 H 0.12595 0.92316 0.49554 0.0
H735 H 0.11796 0.92154 0.37588 0.0
H736 H 0.15385 0.9312 0.57112 0.0
H737 H 0.13767 0.86183 0.59915 0.0
H738 H 0.15466 0.866 0.53966 0.0
H739 H 0.13322 0.87363 0.52215 0.0
C740 C 0.15144 0.89309 0.37415 0.0
C741 C 0.13734 0.90252 0.34923 0.0
C742 C 0.15623 0.89435 0.44276 0.0
C743 C 0.14674 0.90475 0.4877 0.0
C744 C 0.13339 0.91497 0.46194 0.0
H745 H 0.12606 0.90645 0.91794 0.0
H746 H 0.12766 0.91449 0.79717 0.0
C747 C 0.12877 0.91391 0.39345 0.0
C748 C 0.14946 0.90387 0.56234 0.0
H749 H 0.1473 0.8763 0.69728 0.0
C750 C 0.15253 0.91919 0.59874 0.0
C751 C 0.14741 0.88821 0.59836 0.0
C752 C 0.14289 0.87151 0.56304 0.0
C753 C 0.15364 0.91921 0.67022 0.0
C754 C 0.15171 0.90356 0.70566 0.0
C755 C 0.14886 0.88826 0.66944 0.0
C756 C 0.15243 0.90246 0.78062 0.0
C757 C 0.15688 0.93586 0.70764 0.0
C758 C 0.16603 0.8935 0.81117 0.0
C759 C 0.16515 0.88893 0.87961 0.0
C760 C 0.15058 0.89313 0.91871 0.0
C761 C 0.13748 0.90317 0.88928 0.0
C762 C 0.13838 0.90776 0.82038 0.0
H763 H 0.16021 0.94654 0.67245 0.0
H764 H 0.14514 0.9395 0.7364 0.0
H765 H 0.16749 0.9342 0.74511 0.0
H766 H 0.17691 0.88926 0.7811 0.0
H767 H 0.17554 0.88136 0.90107 0.0
H768 H 0.88873 0.61427 0.88131 0.0
H769 H 0.88554 0.60792 0.75974 0.0
H770 H 0.83072 0.60177 0.78666 0.0
H771 H 0.83383 0.60944 0.9072 0.0
H772 H 0.87471 0.5848 0.6763 0.0
H773 H 0.83017 0.64037 0.65584 0.0
H774 H 0.84125 0.63518 0.73377 0.0
H775 H 0.82206 0.6236 0.70951 0.0
C776 C 0.8761 0.61105 0.86144 0.0
C777 C 0.86151 0.61241 0.90295 0.0
C778 C 0.87423 0.60753 0.79191 0.0
C779 C 0.85777 0.60504 0.76332 0.0
C780 C 0.84344 0.60438 0.80679 0.0
H781 H 0.85907 0.58343 0.32397 0.0
H782 H 0.85139 0.58054 0.44442 0.0
C783 C 0.84525 0.60844 0.87582 0.0
C784 C 0.85563 0.60464 0.68791 0.0
H785 H 0.83561 0.62496 0.55508 0.0
C786 C 0.8661 0.59353 0.64979 0.0
C787 C 0.8446 0.61627 0.65311 0.0
C788 C 0.83402 0.62965 0.69006 0.0
C789 C 0.86628 0.59403 0.57828 0.0
C790 C 0.85494 0.60537 0.54347 0.0
C791 C 0.8441 0.61612 0.58158 0.0
C792 C 0.8554 0.6075 0.46809 0.0
C793 C 0.87938 0.58312 0.54137 0.0
C794 C 0.85831 0.62388 0.43971 0.0
C795 C 0.86184 0.62564 0.37021 0.0
C796 C 0.86279 0.61102 0.32854 0.0
C797 C 0.8584 0.59488 0.35547 0.0
C798 C 0.85433 0.59319 0.42446 0.0
H799 H 0.89001 0.579 0.57569 0.0
H800 H 0.87303 0.57132 0.52168 0.0
H801 H 0.88509 0.5902 0.49783 0.0
H802 H 0.85901 0.63517 0.47201 0.0
H803 H 0.86538 0.63818 0.3505 0.0
H804 H 0.14672 0.08594 0.66556 0.0
H805 H 0.15481 0.08304 0.54573 0.0
H806 H 0.14982 0.13805 0.52081 0.0
H807 H 0.14298 0.14096 0.64178 0.0
H808 H 0.13465 0.08807 0.44813 0.0
H809 H 0.18959 0.1312 0.40156 0.0
H810 H 0.18298 0.12557 0.48666 0.0
H811 H 0.17278 0.14316 0.44201 0.0
C812 C 0.1482 0.09746 0.63498 0.0
C813 C 0.14449 0.11369 0.6627 0.0
C814 C 0.15263 0.0958 0.56634 0.0
C815 C 0.15299 0.1103 0.52361 0.0
C816 C 0.15016 0.12667 0.55252 0.0
H817 H 0.11845 0.11547 0.11013 0.0
H818 H 0.12158 0.10876 0.23116 0.0
C819 C 0.14622 0.12837 0.6218 0.0
C820 C 0.15397 0.10809 0.44816 0.0
H821 H 0.17103 0.12563 0.30414 0.0
C822 C 0.14291 0.09607 0.41683 0.0
C823 C 0.16489 0.11819 0.40665 0.0
C824 C 0.17835 0.13009 0.43619 0.0
C825 C 0.14192 0.09443 0.34563 0.0
C826 C 0.15166 0.10567 0.3041 0.0
C827 C 0.1633 0.11713 0.33545 0.0
C828 C 0.14943 0.10656 0.22862 0.0
C829 C 0.13048 0.08058 0.31613 0.0
C830 C 0.16393 0.10741 0.186 0.0
C831 C 0.16212 0.11177 0.11731 0.0
C832 C 0.14577 0.11492 0.08944 0.0
C833 C 0.13115 0.11268 0.13023 0.0
C834 C 0.13298 0.10881 0.19955 0.0
H835 H 0.12975 0.06931 0.35085 0.0
H836 H 0.11722 0.08569 0.3102 0.0
H837 H 0.13515 0.0761 0.26572 0.0
H838 H 0.17675 0.10568 0.20674 0.0
H839 H 0.17358 0.11365 0.08682 0.0
H840 H 0.61873 0.39285 0.38381 0.0
H841 H 0.62205 0.39906 0.26226 0.0
H842 H 0.67653 0.40719 0.29259 0.0
H843 H 0.67332 0.39978 0.41321 0.0
H844 H 0.63275 0.4225 0.17798 0.0
H845 H 0.67831 0.36761 0.1649 0.0
H846 H 0.66672 0.37291 0.24137 0.0
H847 H 0.68579 0.38477 0.21843 0.0
C848 C 0.63128 0.39654 0.36474 0.0
C849 C 0.64578 0.39581 0.40728 0.0
C850 C 0.63323 0.39996 0.29521 0.0
C851 C 0.64968 0.40293 0.26765 0.0
C852 C 0.66383 0.40425 0.31204 0.0
H853 H 0.65028 0.42286 0.82741 0.0
H854 H 0.65756 0.42612 0.94828 0.0
C855 C 0.66196 0.40034 0.38111 0.0
C856 C 0.65208 0.40302 0.19241 0.0
H857 H 0.67292 0.38237 0.06257 0.0
C858 C 0.64161 0.4138 0.15274 0.0
C859 C 0.66343 0.3914 0.15929 0.0
C860 C 0.67407 0.3784 0.19807 0.0
C861 C 0.6418 0.41302 0.08124 0.0
C862 C 0.65342 0.40169 0.04813 0.0
C863 C 0.66421 0.39122 0.0878 0.0
C864 C 0.65334 0.39928 0.97285 0.0
C865 C 0.62879 0.42366 0.04242 0.0
C866 C 0.65043 0.38282 0.94504 0.0
C867 C 0.64708 0.38084 0.87539 0.0
C868 C 0.64638 0.39532 0.83296 0.0
C869 C 0.65083 0.41151 0.85942 0.0
C870 C 0.65466 0.41342 0.92863 0.0
H871 H 0.61799 0.4279 0.07548 0.0
H872 H 0.63516 0.43539 0.02235 0.0
H873 H 0.62332 0.41632 0.9989 0.0
H874 H 0.64952 0.37165 0.97786 0.0
H875 H 0.64343 0.36827 0.85611 0.0
H876 H 0.35399 0.87974 0.16168 0.0
H877 H 0.34681 0.88184 0.04011 0.0
H878 H 0.37982 0.92622 0.0217 0.0
H879 H 0.38706 0.92426 0.14246 0.0
H880 H 0.33557 0.91254 0.94563 0.0
H881 H 0.4009 0.88493 0.90398 0.0
H882 H 0.38982 0.88318 0.98442 0.0
H883 H 0.39951 0.90321 0.96 0.0
C884 C 0.3593 0.89023 0.1322 0.0
C885 C 0.37126 0.90169 0.16131 0.0
C886 C 0.3552 0.8914 0.06284 0.0
C887 C 0.36296 0.90407 0.02221 0.0
C888 C 0.37382 0.9163 0.05235 0.0
H889 H 0.38084 0.90636 0.586 0.0
H890 H 0.37945 0.9152 0.70541 0.0
C891 C 0.37798 0.9151 0.12124 0.0
C892 C 0.36165 0.90323 0.9473 0.0
H893 H 0.38493 0.89234 0.80673 0.0
C894 C 0.34632 0.90816 0.915 0.0
C895 C 0.37578 0.89759 0.9079 0.0
C896 C 0.39243 0.8918 0.94054 0.0
C897 C 0.34477 0.90763 0.84365 0.0
C898 C 0.35884 0.90173 0.80429 0.0
C899 C 0.37422 0.89701 0.83691 0.0
C900 C 0.35766 0.89895 0.72979 0.0
C901 C 0.32818 0.91353 0.81111 0.0
C902 C 0.3457 0.88713 0.70363 0.0
C903 C 0.34638 0.8822 0.63537 0.0
C904 C 0.35914 0.88886 0.59197 0.0
C905 C 0.37069 0.90121 0.61757 0.0
C906 C 0.36996 0.9062 0.68598 0.0
H907 H 0.32119 0.92272 0.84446 0.0
H908 H 0.33056 0.91977 0.76113 0.0
H909 H 0.3197 0.90222 0.80271 0.0
H910 H 0.33638 0.88104 0.73673 0.0
H911 H 0.33727 0.87266 0.61726 0.0
H912 H 0.12371 0.69552 0.00035 0.0
H913 H 0.11212 0.72415 0.01623 0.0
H914 H 0.08298 0.70639 0.18954 0.0
H915 H 0.0961 0.67781 0.17756 0.0
H916 H 0.08386 0.74073 0.0181 0.0
H917 H 0.10967 0.74214 0.28335 0.0
H918 H 0.11356 0.72418 0.22765 0.0
H919 H 0.09277 0.72697 0.26663 0.0
C920 C 0.11469 0.6976 0.04158 0.0
C921 C 0.11096 0.68437 0.08803 0.0
C922 C 0.10792 0.71404 0.05039 0.0
C923 C 0.09699 0.71774 0.10537 0.0
C924 C 0.09185 0.70412 0.14811 0.0
H925 H 0.09243 0.83202 0.08716 0.0
H926 H 0.07863 0.80363 0.09781 0.0
C927 C 0.09905 0.68762 0.14032 0.0
C928 C 0.09293 0.73618 0.12018 0.0
H929 H 0.10241 0.76816 0.23398 0.0
C930 C 0.08766 0.74673 0.06572 0.0
C931 C 0.0976 0.74409 0.18276 0.0
C932 C 0.10381 0.73384 0.24338 0.0
C933 C 0.08905 0.76479 0.06896 0.0
C934 C 0.09503 0.7726 0.12983 0.0
C935 C 0.09807 0.76215 0.18705 0.0
C936 C 0.10183 0.79059 0.13148 0.0
C937 C 0.08565 0.77509 0.00518 0.0
C938 C 0.11911 0.79304 0.15024 0.0
C939 C 0.12664 0.80926 0.14716 0.0
C940 C 0.11722 0.8236 0.12455 0.0
C941 C 0.0998 0.82138 0.10712 0.0
C942 C 0.09206 0.80503 0.11152 0.0
H943 H 0.0837 0.76674 0.95979 0.0
H944 H 0.07383 0.7829 0.01216 0.0
H945 H 0.09652 0.78397 0.99464 0.0
H946 H 0.12705 0.78223 0.16549 0.0
H947 H 0.14009 0.81049 0.1612 0.0
H948 H 0.57302 0.85581 0.42517 0.0
H949 H 0.5436 0.84477 0.43226 0.0
H950 H 0.54158 0.84085 0.21291 0.0
H951 H 0.57051 0.85316 0.2061 0.0
H952 H 0.51729 0.85948 0.25027 0.0
H953 H 0.51451 0.80348 0.42132 0.0
H954 H 0.52559 0.82069 0.46342 0.0
H955 H 0.53464 0.81128 0.3874 0.0
C956 C 0.56647 0.85197 0.37877 0.0
C957 C 0.5739 0.85538 0.31511 0.0
C958 C 0.54965 0.84552 0.38275 0.0
C959 C 0.5402 0.84187 0.3231 0.0
C960 C 0.54845 0.84362 0.25974 0.0
H961 H 0.42727 0.84427 0.2784 0.0
H962 H 0.45601 0.83113 0.26813 0.0
C963 C 0.56502 0.85058 0.25576 0.0
C964 C 0.52109 0.83967 0.32578 0.0
H965 H 0.48828 0.82123 0.41634 0.0
C966 C 0.51102 0.85067 0.28511 0.0
C967 C 0.51269 0.8283 0.37143 0.0
C968 C 0.52247 0.81516 0.41271 0.0
C969 C 0.49307 0.85137 0.29152 0.0
C970 C 0.48481 0.84085 0.34022 0.0
C971 C 0.49466 0.82928 0.37898 0.0
C972 C 0.46646 0.84386 0.35723 0.0
C973 C 0.48311 0.86418 0.24903 0.0
C974 C 0.46263 0.85461 0.41254 0.0
C975 C 0.4464 0.86221 0.41789 0.0
C976 C 0.43366 0.85894 0.36872 0.0
C977 C 0.43687 0.84679 0.31733 0.0
C978 C 0.45325 0.83931 0.31144 0.0
H979 H 0.49162 0.87217 0.21644 0.0
H980 H 0.4739 0.85722 0.21556 0.0
H981 H 0.47554 0.87285 0.28251 0.0
H982 H 0.47266 0.85839 0.44802 0.0
H983 H 0.44423 0.87168 0.45753 0.0
H984 H 0.40944 0.32827 0.69129 0.0
H985 H 0.42236 0.29958 0.70561 0.0
H986 H 0.40692 0.28628 0.50094 0.0
H987 H 0.39418 0.31469 0.48669 0.0
H988 H 0.40164 0.27118 0.69987 0.0
H989 H 0.45345 0.263 0.51191 0.0
H990 H 0.44613 0.28398 0.53936 0.0
H991 H 0.43495 0.27257 0.4725 0.0
C992 C 0.40946 0.31942 0.64861 0.0
C993 C 0.40085 0.32365 0.58784 0.0
C994 C 0.41678 0.30303 0.65688 0.0
C995 C 0.4158 0.29079 0.6041 0.0
C996 C 0.40824 0.29555 0.54187 0.0
H997 H 0.39134 0.19443 0.48832 0.0
H998 H 0.40413 0.22279 0.50444 0.0
C999 C 0.40082 0.31178 0.5339 0.0
C1000 C 0.41957 0.27229 0.6166 0.0
H1001 H 0.43642 0.23705 0.53694 0.0
C1002 C 0.40973 0.26371 0.66593 0.0
C1003 C 0.43015 0.26255 0.5725 0.0
C1004 C 0.4419 0.27107 0.52161 0.0
C1005 C 0.40871 0.24565 0.66737 0.0
C1006 C 0.41806 0.23591 0.61888 0.0
C1007 C 0.42917 0.24448 0.57384 0.0
C1008 C 0.41386 0.21752 0.6057 0.0
C1009 C 0.39637 0.23725 0.71656 0.0
C1010 C 0.41578 0.20476 0.65599 0.0
C1011 C 0.40835 0.18844 0.64688 0.0
C1012 C 0.39903 0.18466 0.58718 0.0
C1013 C 0.39838 0.197 0.53497 0.0
C1014 C 0.40576 0.21321 0.54404 0.0
H1015 H 0.38857 0.24682 0.74506 0.0
H1016 H 0.38747 0.22846 0.68899 0.0
H1017 H 0.40373 0.2295 0.75407 0.0
H1018 H 0.42222 0.20771 0.70358 0.0
H1019 H 0.40892 0.17923 0.6882 0.0
H1020 H 0.94258 0.14045 0.73676 0.0
H1021 H 0.97099 0.15314 0.75327 0.0
H1022 H 0.95609 0.17061 0.95327 0.0
H1023 H 0.92756 0.15741 0.9375 0.0
H1024 H 0.98519 0.18536 0.78684 0.0
H1025 H 0.99535 0.13695 0.99295 0.0
H1026 H 0.97693 0.13597 0.93702 0.0
H1027 H 0.97797 0.15201 0.00284 0.0
C1028 C 0.9452 0.14733 0.78372 0.0
C1029 C 0.93289 0.14785 0.836 0.0
C1030 C 0.96144 0.15464 0.79302 0.0
C1031 C 0.9658 0.16256 0.85496 0.0
C1032 C 0.95309 0.16433 0.90543 0.0
H1033 H 0.07667 0.15924 0.94172 0.0
H1034 H 0.04771 0.17153 0.95589 0.0
C1035 C 0.93674 0.15695 0.89611 0.0
C1036 C 0.9842 0.16677 0.86811 0.0
H1037 H 0.01961 0.1504 0.94865 0.0
C1038 C 0.99269 0.17805 0.82348 0.0
C1039 C 0.99402 0.15734 0.91623 0.0
C1040 C 0.98571 0.14481 0.96491 0.0
C1041 C 0.01076 0.17918 0.82227 0.0
C1042 C 0.02058 0.16856 0.86609 0.0
C1043 C 0.01207 0.15851 0.91494 0.0
C1044 C 0.03916 0.1651 0.85393 0.0
C1045 C 0.01917 0.19114 0.77188 0.0
C1046 C 0.04412 0.15781 0.79154 0.0
C1047 C 0.06051 0.15075 0.78362 0.0
C1048 C 0.07234 0.15087 0.8378 0.0
C1049 C 0.06786 0.15919 0.89885 0.0
C1050 C 0.05132 0.16615 0.90704 0.0
H1051 H 0.01098 0.20262 0.76235 0.0
H1052 H 0.03203 0.19548 0.79 0.0
H1053 H 0.0208 0.18432 0.72261 0.0
H1054 H 0.03492 0.15644 0.75034 0.0
H1055 H 0.0636 0.14434 0.73616 0.0
H1056 H 0.10061 0.32904 0.80516 0.0
H1057 H 0.08639 0.30096 0.79096 0.0
H1058 H 0.10072 0.28736 0.99645 0.0
H1059 H 0.11471 0.31521 0.01066 0.0
H1060 H 0.10609 0.27179 0.79851 0.0
H1061 H 0.05316 0.26588 0.98299 0.0
H1062 H 0.06125 0.2865 0.95478 0.0
H1063 H 0.07181 0.27507 0.02297 0.0
C1064 C 0.10002 0.32032 0.84812 0.0
C1065 C 0.10868 0.32428 0.90912 0.0
C1066 C 0.09199 0.30426 0.83987 0.0
C1067 C 0.09229 0.29208 0.89289 0.0
C1068 C 0.09991 0.29662 0.95532 0.0
H1069 H 0.11324 0.19569 0.01288 0.0
H1070 H 0.10091 0.22416 0.9953 0.0
C1071 C 0.10805 0.31251 0.96326 0.0
C1072 C 0.08784 0.27372 0.8804 0.0
H1073 H 0.06932 0.23929 0.95968 0.0
C1074 C 0.09757 0.26468 0.832 0.0
C1075 C 0.07668 0.26448 0.92387 0.0
C1076 C 0.065 0.27354 0.97355 0.0
C1077 C 0.09794 0.2466 0.83109 0.0
C1078 C 0.08803 0.2373 0.87916 0.0
C1079 C 0.07701 0.24637 0.9231 0.0
C1080 C 0.09161 0.21884 0.89341 0.0
C1081 C 0.11022 0.23768 0.78308 0.0
C1082 C 0.08968 0.20599 0.84336 0.0
C1083 C 0.09687 0.18959 0.8533 0.0
C1084 C 0.10592 0.18584 0.91361 0.0
C1085 C 0.10642 0.19824 0.96573 0.0
C1086 C 0.09931 0.21452 0.95581 0.0
H1087 H 0.11845 0.24692 0.7548 0.0
H1088 H 0.1187 0.2287 0.81157 0.0
H1089 H 0.10277 0.23006 0.7453 0.0
H1090 H 0.08353 0.20894 0.79521 0.0
H1091 H 0.0964 0.18034 0.81204 0.0
H1092 H 0.06769 0.86783 0.04645 0.0
H1093 H 0.03882 0.85528 0.05313 0.0
H1094 H 0.05085 0.83467 0.25146 0.0
H1095 H 0.07988 0.84726 0.24462 0.0
H1096 H 0.02157 0.82111 0.09228 0.0
H1097 H 0.01519 0.87557 0.27585 0.0
H1098 H 0.03309 0.87403 0.21782 0.0
H1099 H 0.03208 0.86019 0.29085 0.0
C1100 C 0.06442 0.85991 0.08996 0.0
C1101 C 0.07594 0.85836 0.14482 0.0
C1102 C 0.04794 0.85275 0.09378 0.0
C1103 C 0.04266 0.84417 0.15298 0.0
C1104 C 0.05471 0.84123 0.20527 0.0
H1105 H 0.93686 0.85318 0.2844 0.0
H1106 H 0.96608 0.84147 0.2822 0.0
C1107 C 0.07128 0.84834 0.20129 0.0
C1108 C 0.02395 0.84173 0.16503 0.0
H1109 H 0.99018 0.86119 0.24443 0.0
C1110 C 0.01467 0.82962 0.12644 0.0
C1111 C 0.01498 0.85292 0.20933 0.0
C1112 C 0.02423 0.86651 0.2507 0.0
C1113 C 0.99656 0.82861 0.13038 0.0
C1114 C 0.98753 0.84037 0.17244 0.0
C1115 C 0.99698 0.85206 0.21251 0.0
C1116 C 0.96838 0.84211 0.17226 0.0
C1117 C 0.98736 0.81499 0.08934 0.0
C1118 C 0.95942 0.84535 0.11114 0.0
C1119 C 0.94245 0.85151 0.11249 0.0
C1120 C 0.9344 0.85494 0.17491 0.0
C1121 C 0.94281 0.85049 0.23567 0.0
C1122 C 0.95954 0.8439 0.23433 0.0
H1123 H 0.9956 0.80343 0.0826 0.0
H1124 H 0.9751 0.81102 0.11377 0.0
H1125 H 0.98444 0.82015 0.03789 0.0
H1126 H 0.96594 0.84454 0.06259 0.0
H1127 H 0.93628 0.85516 0.06507 0.0
H1128 H 0.39962 0.68571 0.31597 0.0
H1129 H 0.41031 0.71522 0.309 0.0
H1130 H 0.41894 0.71545 0.52646 0.0
H1131 H 0.4069 0.68639 0.53358 0.0
H1132 H 0.39986 0.74003 0.49939 0.0
H1133 H 0.45133 0.7445 0.30866 0.0
H1134 H 0.43339 0.73356 0.27101 0.0
H1135 H 0.44448 0.72403 0.34266 0.0
C1136 C 0.40445 0.69187 0.36173 0.0
C1137 C 0.40247 0.68389 0.42526 0.0
C1138 C 0.4107 0.70876 0.35779 0.0
C1139 C 0.41559 0.71773 0.41718 0.0
C1140 C 0.41522 0.70894 0.47985 0.0
H1141 H 0.41432 0.83154 0.45449 0.0
H1142 H 0.42765 0.80279 0.46244 0.0
C1143 C 0.40844 0.6923 0.48398 0.0
C1144 C 0.41764 0.73686 0.41592 0.0
H1145 H 0.43288 0.77031 0.31985 0.0
C1146 C 0.40761 0.74658 0.46154 0.0
C1147 C 0.42766 0.74566 0.36664 0.0
C1148 C 0.43995 0.73633 0.32011 0.0
C1149 C 0.40639 0.76453 0.45625 0.0
C1150 C 0.41523 0.7731 0.40347 0.0
C1151 C 0.42605 0.76366 0.36015 0.0
C1152 C 0.41091 0.79119 0.38696 0.0
C1153 C 0.39466 0.77416 0.50425 0.0
C1154 C 0.39758 0.79425 0.34031 0.0
C1155 C 0.38987 0.81042 0.33656 0.0
C1156 C 0.39553 0.82393 0.37857 0.0
C1157 C 0.40988 0.82135 0.42108 0.0
C1158 C 0.41748 0.80498 0.42563 0.0
H1159 H 0.38898 0.76564 0.54368 0.0
H1160 H 0.40195 0.78459 0.53013 0.0
H1161 H 0.38403 0.78025 0.47501 0.0
H1162 H 0.39224 0.78375 0.31054 0.0
H1163 H 0.37879 0.81212 0.30354 0.0
H1164 H 0.57673 0.15852 0.55314 0.0
H1165 H 0.54804 0.17148 0.53969 0.0
H1166 H 0.53552 0.15687 0.74569 0.0
H1167 H 0.56398 0.14418 0.75926 0.0
H1168 H 0.51968 0.15104 0.54709 0.0
H1169 H 0.51224 0.20329 0.73414 0.0
H1170 H 0.53312 0.19578 0.70645 0.0
H1171 H 0.5218 0.18485 0.77385 0.0
C1172 C 0.56807 0.15875 0.59631 0.0
C1173 C 0.57255 0.15039 0.65731 0.0
C1174 C 0.55167 0.16608 0.58851 0.0
C1175 C 0.53964 0.16534 0.64191 0.0
C1176 C 0.54464 0.15802 0.70426 0.0
H1177 H 0.4431 0.14164 0.75933 0.0
H1178 H 0.47164 0.15398 0.74286 0.0
C1179 C 0.56089 0.15061 0.71182 0.0
C1180 C 0.5211 0.16911 0.63004 0.0
H1181 H 0.48613 0.18633 0.71021 0.0
C1182 C 0.51234 0.15923 0.58109 0.0
C1183 C 0.51153 0.17984 0.67419 0.0
C1184 C 0.52022 0.19167 0.72458 0.0
C1185 C 0.49427 0.15832 0.58003 0.0
C1186 C 0.4847 0.16783 0.62855 0.0
C1187 C 0.49344 0.17896 0.67329 0.0
C1188 C 0.46629 0.16383 0.64192 0.0
C1189 C 0.48567 0.14597 0.53116 0.0
C1190 C 0.45347 0.16595 0.59187 0.0
C1191 C 0.43704 0.15878 0.60118 0.0
C1192 C 0.43323 0.14954 0.66084 0.0
C1193 C 0.44569 0.14864 0.71273 0.0
C1194 C 0.462 0.15576 0.70347 0.0
H1195 H 0.49512 0.13807 0.5025 0.0
H1196 H 0.47688 0.13718 0.55902 0.0
H1197 H 0.47787 0.15333 0.49377 0.0
H1198 H 0.45642 0.17235 0.54433 0.0
H1199 H 0.42774 0.15952 0.56008 0.0
H1200 H 0.89037 0.19146 0.01197 0.0
H1201 H 0.90235 0.22018 0.99633 0.0
H1202 H 0.92042 0.20577 0.79664 0.0
H1203 H 0.9079 0.17694 0.81147 0.0
H1204 H 0.93398 0.23533 0.96463 0.0
H1205 H 0.88594 0.24404 0.7556 0.0
H1206 H 0.88539 0.22557 0.81107 0.0
H1207 H 0.90155 0.22715 0.74606 0.0
C1208 C 0.89724 0.19427 0.96528 0.0
C1209 C 0.8981 0.182 0.91278 0.0
C1210 C 0.90414 0.21069 0.95647 0.0
C1211 C 0.91199 0.21527 0.89481 0.0
C1212 C 0.91416 0.20261 0.84422 0.0
H1213 H 0.90689 0.32596 0.80646 0.0
H1214 H 0.91972 0.29717 0.79416 0.0
C1215 C 0.90717 0.18608 0.85303 0.0
C1216 C 0.91572 0.23377 0.88203 0.0
H1217 H 0.89876 0.26867 0.80015 0.0
C1218 C 0.92661 0.2426 0.92746 0.0
C1219 C 0.90619 0.2433 0.83327 0.0
C1220 C 0.89402 0.23464 0.78382 0.0
C1221 C 0.92727 0.26069 0.92868 0.0
C1222 C 0.91659 0.27019 0.88397 0.0
C1223 C 0.90692 0.26137 0.83451 0.0
C1224 C 0.91272 0.28871 0.89543 0.0
C1225 C 0.93879 0.26947 0.97996 0.0
C1226 C 0.9049 0.29366 0.95681 0.0
C1227 C 0.89758 0.30996 0.96365 0.0
C1228 C 0.89799 0.32173 0.90946 0.0
C1229 C 0.90676 0.31725 0.84951 0.0
C1230 C 0.91398 0.30079 0.84232 0.0
H1231 H 0.95033 0.2615 0.99118 0.0
H1232 H 0.94304 0.28231 0.96166 0.0
H1233 H 0.93163 0.27121 0.02834 0.0
H1234 H 0.90337 0.28449 0.9979 0.0
H1235 H 0.89076 0.31305 0.01019 0.0
H1236 H 0.59912 0.82747 0.2964 0.0
H1237 H 0.58619 0.79881 0.28248 0.0
H1238 H 0.59938 0.78669 0.49059 0.0
H1239 H 0.61196 0.81519 0.50474 0.0
H1240 H 0.60651 0.77067 0.29262 0.0
H1241 H 0.55328 0.76299 0.47447 0.0
H1242 H 0.56082 0.7839 0.44723 0.0
H1243 H 0.57143 0.7727 0.51596 0.0
C1244 C 0.59852 0.81895 0.33996 0.0
C1245 C 0.60646 0.82356 0.40177 0.0
C1246 C 0.59124 0.80254 0.33185 0.0
C1247 C 0.59162 0.7906 0.3857 0.0
C1248 C 0.5985 0.79572 0.44875 0.0
H1249 H 0.61595 0.69446 0.50497 0.0
H1250 H 0.60308 0.72275 0.48807 0.0
C1251 C 0.60585 0.812 0.45666 0.0
C1252 C 0.588 0.77202 0.37383 0.0
H1253 H 0.57054 0.73698 0.45277 0.0
C1254 C 0.59818 0.7633 0.32592 0.0
C1255 C 0.57708 0.7624 0.41704 0.0
C1256 C 0.56491 0.77104 0.46602 0.0
C1257 C 0.59915 0.74524 0.32509 0.0
C1258 C 0.58945 0.73563 0.37282 0.0
C1259 C 0.57806 0.74432 0.41646 0.0
C1260 C 0.5935 0.71726 0.38674 0.0
C1261 C 0.61177 0.7367 0.27741 0.0
C1262 C 0.59167 0.70441 0.33667 0.0
C1263 C 0.59912 0.68812 0.34626 0.0
C1264 C 0.60839 0.68449 0.40619 0.0
C1265 C 0.60893 0.69692 0.45819 0.0
C1266 C 0.60152 0.71309 0.44867 0.0
H1267 H 0.61972 0.74618 0.24915 0.0
H1268 H 0.62052 0.72803 0.3062 0.0
H1269 H 0.60463 0.72879 0.23965 0.0
H1270 H 0.58533 0.70727 0.28881 0.0
H1271 H 0.59866 0.67884 0.30507 0.0
H1272 H 0.89521 0.69264 0.98067 0.0
H1273 H 0.90833 0.72077 0.99845 0.0
H1274 H 0.92298 0.70602 0.20232 0.0
H1275 H 0.90962 0.67765 0.1846 0.0
H1276 H 0.90286 0.73468 0.19916 0.0
H1277 H 0.9551 0.7434 0.01356 0.0
H1278 H 0.93654 0.73438 0.97247 0.0
H1279 H 0.94739 0.72235 0.03831 0.0
C1280 C 0.90174 0.69517 0.0285 0.0
C1281 C 0.90142 0.68297 0.08121 0.0
C1282 C 0.90939 0.71124 0.03847 0.0
C1283 C 0.91685 0.71551 0.10148 0.0
C1284 C 0.91748 0.70295 0.15302 0.0
H1285 H 0.91083 0.82649 0.19759 0.0
H1286 H 0.92426 0.79799 0.2099 0.0
C1287 C 0.90991 0.68673 0.14277 0.0
C1288 C 0.92087 0.73388 0.11613 0.0
H1289 H 0.93838 0.76942 0.04092 0.0
C1290 C 0.9111 0.74227 0.16626 0.0
C1291 C 0.93168 0.74377 0.07345 0.0
C1292 C 0.9434 0.73544 0.02195 0.0
C1293 C 0.91036 0.76032 0.16978 0.0
C1294 C 0.91991 0.77026 0.12259 0.0
C1295 C 0.93097 0.76184 0.07684 0.0
C1296 C 0.91589 0.78875 0.11108 0.0
C1297 C 0.89809 0.76855 0.21968 0.0
C1298 C 0.90778 0.79341 0.0499 0.0
C1299 C 0.90036 0.80964 0.04256 0.0
C1300 C 0.90097 0.82165 0.09604 0.0
C1301 C 0.91037 0.81758 0.15519 0.0
C1302 C 0.91784 0.80122 0.16259 0.0
H1303 H 0.89019 0.75889 0.24728 0.0
H1304 H 0.90551 0.77605 0.25791 0.0
H1305 H 0.88928 0.77755 0.19287 0.0
H1306 H 0.90613 0.78406 0.00938 0.0
H1307 H 0.89325 0.81245 0.99631 0.0
H1308 H 0.59851 0.17971 0.68382 0.0
H1309 H 0.58589 0.20845 0.6999 0.0
H1310 H 0.59905 0.22148 0.49287 0.0
H1311 H 0.61142 0.19298 0.47675 0.0
H1312 H 0.60655 0.23665 0.69134 0.0
H1313 H 0.55295 0.24516 0.51067 0.0
H1314 H 0.56047 0.22413 0.53662 0.0
H1315 H 0.571 0.23556 0.46848 0.0
C1316 C 0.59803 0.1885 0.64106 0.0
C1317 C 0.60591 0.18415 0.579 0.0
C1318 C 0.5909 0.20493 0.65035 0.0
C1319 C 0.59134 0.21712 0.59739 0.0
C1320 C 0.59814 0.21225 0.53404 0.0
H1321 H 0.615 0.31384 0.48139 0.0
H1322 H 0.60242 0.2854 0.49787 0.0
C1323 C 0.60536 0.19597 0.525 0.0
C1324 C 0.58783 0.23566 0.61045 0.0
H1325 H 0.57033 0.27103 0.53378 0.0
C1326 C 0.59818 0.24418 0.65861 0.0
C1327 C 0.57686 0.24547 0.56795 0.0
C1328 C 0.56457 0.23704 0.51856 0.0
C1329 C 0.59926 0.26223 0.66032 0.0
C1330 C 0.58947 0.27204 0.61333 0.0
C1331 C 0.57792 0.26354 0.56952 0.0
C1332 C 0.59353 0.29046 0.60034 0.0
C1333 C 0.61207 0.27055 0.70811 0.0
C1334 C 0.592 0.30312 0.65129 0.0
C1335 C 0.59932 0.31948 0.64199 0.0
C1336 C 0.60811 0.3234 0.58141 0.0
C1337 C 0.60837 0.31116 0.52871 0.0
C1338 C 0.60111 0.2949 0.53799 0.0
H1339 H 0.62013 0.26094 0.73529 0.0
H1340 H 0.6207 0.27938 0.67967 0.0
H1341 H 0.60508 0.27826 0.7468 0.0
H1342 H 0.58597 0.30006 0.69946 0.0
H1343 H 0.59908 0.3286 0.68373 0.0
H1344 H 0.94144 0.36337 0.96901 0.0
H1345 H 0.97083 0.35199 0.96468 0.0
H1346 H 0.96149 0.33318 0.76125 0.0
H1347 H 0.93213 0.34479 0.76532 0.0
H1348 H 0.9907 0.31935 0.91952 0.0
H1349 H 0.99426 0.37685 0.75033 0.0
H1350 H 0.97624 0.37314 0.80618 0.0
H1351 H 0.97844 0.36078 0.72939 0.0
C1352 C 0.94539 0.35597 0.9249 0.0
C1353 C 0.93454 0.35473 0.86781 0.0
C1354 C 0.96218 0.3495 0.9224 0.0
C1355 C 0.96837 0.34186 0.86247 0.0
C1356 C 0.95693 0.33898 0.80806 0.0
H1357 H 0.07291 0.3567 0.72646 0.0
H1358 H 0.0441 0.34404 0.73052 0.0
C1359 C 0.94013 0.3455 0.81053 0.0
C1360 C 0.98725 0.34082 0.85157 0.0
H1361 H 0.01991 0.36289 0.77572 0.0
C1362 C 0.99715 0.32867 0.88733 0.0
C1363 C 0.99561 0.35308 0.80996 0.0
C1364 C 0.98569 0.3668 0.77199 0.0
C1365 C 0.01528 0.32854 0.88257 0.0
C1366 C 0.02366 0.34119 0.8425 0.0
C1367 C 0.0136 0.35305 0.80589 0.0
C1368 C 0.04272 0.34354 0.84073 0.0
C1369 C 0.02522 0.31485 0.92031 0.0
C1370 C 0.05208 0.34647 0.90116 0.0
C1371 C 0.06882 0.35322 0.89864 0.0
C1372 C 0.07622 0.35752 0.83579 0.0
C1373 C 0.06744 0.3534 0.77546 0.0
C1374 C 0.05096 0.34622 0.77788 0.0
H1375 H 0.01742 0.30295 0.92622 0.0
H1376 H 0.0374 0.31155 0.89381 0.0
H1377 H 0.02841 0.31963 0.97213 0.0
H1378 H 0.046 0.34493 0.95034 0.0
H1379 H 0.07531 0.35654 0.94579 0.0
H1380 H 0.44395 0.64221 0.24548 0.0
H1381 H 0.47259 0.65457 0.25931 0.0
H1382 H 0.45895 0.67261 0.45993 0.0
H1383 H 0.43024 0.65966 0.44701 0.0
H1384 H 0.48759 0.68662 0.29134 0.0
H1385 H 0.49769 0.63817 0.49733 0.0
H1386 H 0.47902 0.63751 0.44265 0.0
H1387 H 0.48065 0.65357 0.50823 0.0
C1388 C 0.44689 0.64916 0.29197 0.0
C1389 C 0.43487 0.64992 0.34525 0.0
C1390 C 0.46327 0.65629 0.29973 0.0
C1391 C 0.46805 0.66425 0.3611 0.0
C1392 C 0.45562 0.6663 0.41247 0.0
H1393 H 0.57908 0.65854 0.44115 0.0
H1394 H 0.55049 0.67155 0.45686 0.0
C1395 C 0.43913 0.65911 0.40469 0.0
C1396 C 0.48658 0.66812 0.3729 0.0
H1397 H 0.52201 0.65114 0.45135 0.0
C1398 C 0.4951 0.67921 0.32757 0.0
C1399 C 0.49642 0.65854 0.42049 0.0
C1400 C 0.48809 0.6462 0.46985 0.0
C1401 C 0.51318 0.68 0.32522 0.0
C1402 C 0.52299 0.66923 0.36853 0.0
C1403 C 0.51449 0.65937 0.41803 0.0
C1404 C 0.54145 0.6654 0.35528 0.0
C1405 C 0.52161 0.69178 0.27423 0.0
C1406 C 0.54604 0.65805 0.29255 0.0
C1407 C 0.56222 0.65059 0.28376 0.0
C1408 C 0.57422 0.65036 0.33738 0.0
C1409 C 0.57014 0.65876 0.3987 0.0
C1410 C 0.55381 0.66613 0.40777 0.0
H1411 H 0.51362 0.70343 0.26531 0.0
H1412 H 0.53463 0.69585 0.2914 0.0
H1413 H 0.52286 0.68494 0.22483 0.0
H1414 H 0.53667 0.65691 0.25182 0.0
H1415 H 0.565 0.64411 0.23612 0.0
H1416 H 0.44539 0.36538 0.75519 0.0
H1417 H 0.4737 0.35254 0.73904 0.0
H1418 H 0.45833 0.33448 0.54006 0.0
H1419 H 0.42987 0.34781 0.5556 0.0
H1420 H 0.4881 0.32024 0.70549 0.0
H1421 H 0.49712 0.36875 0.499 0.0
H1422 H 0.47887 0.3696 0.55548 0.0
H1423 H 0.47989 0.35345 0.49011 0.0
C1424 C 0.44788 0.3583 0.70865 0.0
C1425 C 0.43549 0.35769 0.65647 0.0
C1426 C 0.46406 0.3509 0.69954 0.0
C1427 C 0.46827 0.34283 0.63786 0.0
C1428 C 0.45544 0.34089 0.5877 0.0
H1429 H 0.57887 0.34936 0.55351 0.0
H1430 H 0.55031 0.33622 0.53796 0.0
C1431 C 0.43913 0.34833 0.59688 0.0
C1432 C 0.48668 0.33885 0.62436 0.0
H1433 H 0.52169 0.35613 0.54471 0.0
C1434 C 0.49543 0.32773 0.66901 0.0
C1435 C 0.49627 0.34851 0.57641 0.0
C1436 C 0.48767 0.36083 0.52757 0.0
C1437 C 0.51352 0.32705 0.67058 0.0
C1438 C 0.52309 0.33797 0.62723 0.0
C1439 C 0.51435 0.34781 0.57816 0.0
C1440 C 0.54155 0.34198 0.64009 0.0
C1441 C 0.5222 0.31524 0.72093 0.0
C1442 C 0.54629 0.34919 0.70301 0.0
C1443 C 0.56247 0.35671 0.71177 0.0
C1444 C 0.57431 0.35716 0.65789 0.0
C1445 C 0.57007 0.34897 0.5962 0.0
C1446 C 0.55374 0.34152 0.58721 0.0
H1447 H 0.51435 0.30348 0.72957 0.0
H1448 H 0.53522 0.31135 0.70332 0.0
H1449 H 0.52352 0.32197 0.77056 0.0
H1450 H 0.53705 0.35014 0.74406 0.0
H1451 H 0.56537 0.36302 0.75971 0.0
H1452 H 0.06452 0.64177 0.25349 0.0
H1453 H 0.03593 0.65388 0.23634 0.0
H1454 H 0.05068 0.67121 0.03606 0.0
H1455 H 0.0795 0.65864 0.05277 0.0
H1456 H 0.02093 0.68543 0.20228 0.0
H1457 H 0.01225 0.63667 0.99596 0.0
H1458 H 0.03067 0.63624 0.05196 0.0
H1459 H 0.02918 0.65226 0.98633 0.0
C1460 C 0.06183 0.64853 0.20639 0.0
C1461 C 0.07416 0.64915 0.15425 0.0
C1462 C 0.04547 0.65551 0.19668 0.0
C1463 C 0.04101 0.66316 0.13442 0.0
C1464 C 0.05375 0.6651 0.08411 0.0
H1465 H 0.93001 0.65684 0.04963 0.0
H1466 H 0.95867 0.66979 0.0349 0.0
C1467 C 0.07024 0.65807 0.0939 0.0
C1468 C 0.0225 0.66685 0.12095 0.0
H1469 H 0.98758 0.64921 0.04093 0.0
C1470 C 0.01366 0.67786 0.16569 0.0
C1471 C 0.01296 0.65707 0.07294 0.0
C1472 C 0.02164 0.64481 0.02414 0.0
C1473 C 0.99557 0.67832 0.16724 0.0
C1474 C 0.98607 0.66734 0.1236 0.0
C1475 C 0.99487 0.65759 0.07454 0.0
C1476 C 0.96764 0.66323 0.1361 0.0
C1477 C 0.98678 0.68995 0.2179 0.0
C1478 C 0.96302 0.65559 0.19822 0.0
C1479 C 0.9468 0.64815 0.20645 0.0
C1480 C 0.93478 0.64824 0.15289 0.0
C1481 C 0.93894 0.65682 0.09209 0.0
C1482 C 0.95532 0.66415 0.08355 0.0
H1483 H 0.99464 0.70163 0.22807 0.0
H1484 H 0.97384 0.69395 0.19961 0.0
H1485 H 0.98524 0.68298 0.26684 0.0
H1486 H 0.97237 0.65433 0.23896 0.0
H1487 H 0.94396 0.64154 0.2537 0.0
H1488 H 0.15006 0.57809 0.03177 0.0
H1489 H 0.15604 0.54746 0.01088 0.0
H1490 H 0.10156 0.53751 0.99477 0.0
H1491 H 0.09556 0.56787 0.01627 0.0
H1492 H 0.12098 0.52045 0.10751 0.0
H1493 H 0.14985 0.51076 0.85052 0.0
H1494 H 0.1568 0.52867 0.90236 0.0
H1495 H 0.13545 0.52851 0.86764 0.0
C1496 C 0.13943 0.56951 0.02035 0.0
C1497 C 0.12234 0.5753 0.02595 0.0
C1498 C 0.14286 0.55199 0.00901 0.0
C1499 C 0.12921 0.54021 0.00214 0.0
C1500 C 0.11226 0.54638 0.00034 0.0
H1501 H 0.09612 0.4388 0.98532 0.0
H1502 H 0.10192 0.46867 0.01604 0.0
C1503 C 0.10885 0.56375 0.01205 0.0
C1504 C 0.13211 0.52138 0.00717 0.0
H1505 H 0.14409 0.48598 0.91572 0.0
C1506 C 0.12626 0.51291 0.06595 0.0
C1507 C 0.13925 0.51164 0.95348 0.0
C1508 C 0.1457 0.52023 0.88963 0.0
C1509 C 0.12655 0.4949 0.07105 0.0
C1510 C 0.13262 0.48506 0.01552 0.0
C1511 C 0.13945 0.49355 0.95835 0.0
C1512 C 0.12965 0.46619 0.01145 0.0
C1513 C 0.11991 0.48653 0.13512 0.0
C1514 C 0.14333 0.45464 0.00121 0.0
C1515 C 0.14 0.43737 0.98468 0.0
C1516 C 0.12295 0.4316 0.97654 0.0
C1517 C 0.10937 0.44288 0.99184 0.0
C1518 C 0.11269 0.45998 0.00923 0.0
H1519 H 0.12122 0.49526 0.17971 0.0
H1520 H 0.10603 0.48353 0.12859 0.0
H1521 H 0.12686 0.47434 0.14611 0.0
H1522 H 0.15652 0.45919 0.00251 0.0
H1523 H 0.15071 0.42901 0.97216 0.0
H1524 H 0.68961 0.84184 0.27793 0.0
H1525 H 0.71986 0.84714 0.25186 0.0
H1526 H 0.70986 0.90166 0.24065 0.0
H1527 H 0.67932 0.89637 0.26637 0.0
H1528 H 0.7384 0.86589 0.14527 0.0
H1529 H 0.74459 0.89478 0.40439 0.0
H1530 H 0.72618 0.88192 0.38022 0.0
H1531 H 0.72851 0.90333 0.34748 0.0
C1532 C 0.69371 0.85491 0.26741 0.0
C1533 C 0.68214 0.86869 0.27438 0.0
C1534 C 0.71103 0.85793 0.25296 0.0
C1535 C 0.71717 0.87481 0.24594 0.0
C1536 C 0.7054 0.88855 0.24692 0.0
H1537 H 0.82876 0.89622 0.22621 0.0
H1538 H 0.7979 0.90147 0.2449 0.0
C1539 C 0.68792 0.88549 0.26064 0.0
C1540 C 0.73605 0.87773 0.24389 0.0
H1541 H 0.77021 0.88901 0.34521 0.0
C1542 C 0.74534 0.87124 0.1884 0.0
C1543 C 0.74509 0.88467 0.30043 0.0
C1544 C 0.73569 0.89153 0.36187 0.0
C1545 C 0.76341 0.87096 0.18885 0.0
C1546 C 0.77244 0.87699 0.24695 0.0
C1547 C 0.76323 0.88429 0.30106 0.0
C1548 C 0.79132 0.8745 0.2533 0.0
C1549 C 0.77273 0.86376 0.12777 0.0
C1550 C 0.79792 0.85773 0.25699 0.0
C1551 C 0.81543 0.85473 0.24653 0.0
C1552 C 0.82667 0.86846 0.2327 0.0
C1553 C 0.82042 0.88542 0.23739 0.0
C1554 C 0.80277 0.88842 0.24732 0.0
H1555 H 0.76445 0.8638 0.08152 0.0
H1556 H 0.78461 0.87124 0.11703 0.0
H1557 H 0.77651 0.85025 0.13837 0.0
H1558 H 0.78932 0.84683 0.26266 0.0
H1559 H 0.81991 0.84154 0.24314 0.0
H1560 H 0.4151 0.43877 0.51152 0.0
H1561 H 0.40952 0.4693 0.49175 0.0
H1562 H 0.35497 0.46027 0.51062 0.0
H1563 H 0.3605 0.42948 0.52965 0.0
H1564 H 0.36794 0.4883 0.40864 0.0
H1565 H 0.39166 0.49356 0.67488 0.0
H1566 H 0.40529 0.48137 0.61882 0.0
H1567 H 0.38411 0.47354 0.63859 0.0
C1568 C 0.40187 0.44314 0.50828 0.0
C1569 C 0.38825 0.43181 0.52262 0.0
C1570 C 0.39871 0.4606 0.49761 0.0
C1571 C 0.38188 0.46706 0.50153 0.0
C1572 C 0.36806 0.45551 0.50795 0.0
H1573 H 0.36079 0.57907 0.48556 0.0
H1574 H 0.35501 0.54868 0.51252 0.0
C1575 C 0.37123 0.4379 0.5181 0.0
C1576 C 0.37927 0.48589 0.50816 0.0
H1577 H 0.38985 0.51971 0.61163 0.0
C1578 C 0.37236 0.4952 0.45344 0.0
C1579 C 0.38494 0.49479 0.56707 0.0
C1580 C 0.39179 0.48533 0.62855 0.0
C1581 C 0.37206 0.51333 0.45436 0.0
C1582 C 0.37867 0.52225 0.5118 0.0
C1583 C 0.38473 0.51286 0.56786 0.0
C1584 C 0.38181 0.54108 0.51011 0.0
C1585 C 0.36567 0.52285 0.3923 0.0
C1586 C 0.3988 0.54702 0.50451 0.0
C1587 C 0.4021 0.56424 0.48936 0.0
C1588 C 0.38847 0.57591 0.48024 0.0
C1589 C 0.37154 0.57038 0.49295 0.0
C1590 C 0.36821 0.55299 0.50737 0.0
H1591 H 0.36261 0.51402 0.34937 0.0
H1592 H 0.35385 0.53012 0.4055 0.0
H1593 H 0.37549 0.53228 0.37505 0.0
H1594 H 0.40948 0.53807 0.50697 0.0
H1595 H 0.41526 0.56816 0.47964 0.0
H1596 H 0.82669 0.1084 0.77435 0.0
H1597 H 0.7965 0.10375 0.74061 0.0
H1598 H 0.78837 0.15866 0.73784 0.0
H1599 H 0.81822 0.16329 0.77227 0.0
H1600 H 0.7693 0.11662 0.82904 0.0
H1601 H 0.76276 0.14138 0.56588 0.0
H1602 H 0.78312 0.13438 0.601 0.0
H1603 H 0.77488 0.15544 0.62057 0.0
C1604 C 0.81862 0.11945 0.76357 0.0
C1605 C 0.82475 0.13621 0.77564 0.0
C1606 C 0.80135 0.11678 0.74509 0.0
C1607 C 0.79019 0.13087 0.73683 0.0
C1608 C 0.79677 0.14761 0.74319 0.0
H1609 H 0.68819 0.16552 0.70744 0.0
H1610 H 0.71853 0.16025 0.73237 0.0
C1611 C 0.81386 0.15026 0.76263 0.0
C1612 C 0.77131 0.12844 0.73015 0.0
H1613 H 0.73702 0.1411 0.63367 0.0
C1614 C 0.76219 0.1216 0.78572 0.0
C1615 C 0.76211 0.13499 0.67376 0.0
C1616 C 0.77121 0.14182 0.6116 0.0
C1617 C 0.74408 0.12218 0.78814 0.0
C1618 C 0.73494 0.12964 0.73328 0.0
C1619 C 0.74406 0.13558 0.67617 0.0
C1620 C 0.71604 0.13252 0.7349 0.0
C1621 C 0.73489 0.11573 0.8507 0.0
C1622 C 0.70435 0.1187 0.73236 0.0
C1623 C 0.68683 0.12174 0.71926 0.0
C1624 C 0.68093 0.13859 0.70744 0.0
C1625 C 0.69239 0.15241 0.71641 0.0
C1626 C 0.70976 0.1494 0.73007 0.0
H1627 H 0.74395 0.11286 0.89307 0.0
H1628 H 0.72535 0.12538 0.86849 0.0
H1629 H 0.72778 0.10376 0.83788 0.0
H1630 H 0.70893 0.10556 0.73542 0.0
H1631 H 0.67831 0.11084 0.7117 0.0
H1632 H 0.91292 0.56633 0.01767 0.0
H1633 H 0.90617 0.53677 0.98518 0.0
H1634 H 0.85196 0.54878 0.98688 0.0
H1635 H 0.85874 0.57868 0.0187 0.0
H1636 H 0.86259 0.52099 0.07637 0.0
H1637 H 0.88733 0.51181 0.81479 0.0
H1638 H 0.90224 0.52312 0.86873 0.0
H1639 H 0.88179 0.53276 0.84849 0.0
C1640 C 0.8996 0.56287 0.00829 0.0
C1641 C 0.88637 0.57479 0.02043 0.0
C1642 C 0.89574 0.54595 0.98991 0.0
C1643 C 0.87856 0.54055 0.98372 0.0
C1644 C 0.86531 0.55271 0.99122 0.0
H1645 H 0.85698 0.42877 0.95304 0.0
H1646 H 0.85045 0.45941 0.97211 0.0
C1647 C 0.8692 0.56981 0.00863 0.0
C1648 C 0.87482 0.52186 0.97798 0.0
H1649 H 0.88608 0.48642 0.88558 0.0
C1650 C 0.86727 0.51342 0.03385 0.0
C1651 C 0.88094 0.51202 0.92258 0.0
C1652 C 0.88838 0.5204 0.85993 0.0
C1653 C 0.8669 0.49532 0.03778 0.0
C1654 C 0.87418 0.48554 0.98453 0.0
C1655 C 0.88065 0.49399 0.92676 0.0
C1656 C 0.87698 0.46671 0.98996 0.0
C1657 C 0.85976 0.48671 0.10043 0.0
C1658 C 0.89386 0.46061 0.9973 0.0
C1659 C 0.89757 0.44326 0.98657 0.0
C1660 C 0.88446 0.43166 0.96834 0.0
C1661 C 0.86728 0.4374 0.968 0.0
C1662 C 0.86357 0.45491 0.97826 0.0
H1663 H 0.85474 0.49615 0.138 0.0
H1664 H 0.84918 0.47783 0.08566 0.0
H1665 H 0.86997 0.47886 0.12514 0.0
H1666 H 0.90437 0.46951 0.00654 0.0
H1667 H 0.91091 0.43918 0.98683 0.0
H1668 H 0.18797 0.16806 0.78195 0.0
H1669 H 0.21836 0.163 0.75795 0.0
H1670 H 0.20926 0.10823 0.75654 0.0
H1671 H 0.1786 0.11329 0.77932 0.0
H1672 H 0.23667 0.14411 0.859 0.0
H1673 H 0.2447 0.11553 0.60058 0.0
H1674 H 0.22599 0.12807 0.62335 0.0
H1675 H 0.22833 0.10653 0.6547 0.0
C1676 C 0.19229 0.15497 0.7734 0.0
C1677 C 0.18096 0.14107 0.7827 0.0
C1678 C 0.20969 0.15209 0.76029 0.0
C1679 C 0.21612 0.13525 0.75634 0.0
C1680 C 0.20455 0.12134 0.75894 0.0
H1681 H 0.32696 0.11194 0.72416 0.0
H1682 H 0.29675 0.1071 0.75629 0.0
C1683 C 0.18701 0.12425 0.77148 0.0
C1684 C 0.23503 0.13254 0.75934 0.0
H1685 H 0.26981 0.11967 0.66628 0.0
C1686 C 0.2439 0.1386 0.81708 0.0
C1687 C 0.24441 0.12509 0.70526 0.0
C1688 C 0.23547 0.11848 0.64213 0.0
C1689 C 0.26193 0.13815 0.82086 0.0
C1690 C 0.27138 0.13161 0.76521 0.0
C1691 C 0.26251 0.12464 0.70903 0.0
C1692 C 0.29026 0.13417 0.75992 0.0
C1693 C 0.27077 0.14509 0.88367 0.0
C1694 C 0.29674 0.15097 0.7541 0.0
C1695 C 0.31385 0.15373 0.7356 0.0
C1696 C 0.32485 0.13975 0.72295 0.0
C1697 C 0.31881 0.12294 0.73465 0.0
C1698 C 0.30153 0.12016 0.7522 0.0
H1699 H 0.26216 0.14458 0.92877 0.0
H1700 H 0.28272 0.13778 0.89513 0.0
H1701 H 0.27433 0.15875 0.87498 0.0
H1702 H 0.28825 0.16196 0.75905 0.0
H1703 H 0.31814 0.16679 0.72626 0.0
H1704 H 0.59361 0.57001 0.48055 0.0
H1705 H 0.59841 0.53955 0.5042 0.0
H1706 H 0.65325 0.54735 0.48935 0.0
H1707 H 0.64846 0.57808 0.46674 0.0
H1708 H 0.61533 0.52084 0.39726 0.0
H1709 H 0.64768 0.512 0.64851 0.0
H1710 H 0.6349 0.53084 0.62942 0.0
H1711 H 0.65585 0.52843 0.5925 0.0
C1712 C 0.60672 0.56541 0.48555 0.0
C1713 C 0.62066 0.57638 0.47168 0.0
C1714 C 0.60945 0.54796 0.49845 0.0
C1715 C 0.62616 0.54113 0.49769 0.0
C1716 C 0.64025 0.55236 0.49062 0.0
H1717 H 0.64726 0.4296 0.52377 0.0
H1718 H 0.6524 0.45987 0.49301 0.0
C1719 C 0.63751 0.56996 0.47823 0.0
C1720 C 0.62836 0.52215 0.49419 0.0
H1721 H 0.64169 0.48702 0.58446 0.0
C1722 C 0.62126 0.51346 0.43793 0.0
C1723 C 0.63635 0.51257 0.54658 0.0
C1724 C 0.6441 0.52133 0.60801 0.0
C1725 C 0.62124 0.49542 0.43407 0.0
C1726 C 0.62833 0.48578 0.48827 0.0
C1727 C 0.63629 0.49446 0.54284 0.0
C1728 C 0.62545 0.46693 0.49393 0.0
C1729 C 0.61325 0.48681 0.37273 0.0
C1730 C 0.6086 0.46075 0.50207 0.0
C1731 C 0.60567 0.44361 0.5197 0.0
C1732 C 0.61953 0.43224 0.52926 0.0
C1733 C 0.63634 0.43803 0.51568 0.0
C1734 C 0.63929 0.45534 0.49892 0.0
H1735 H 0.61346 0.49541 0.32753 0.0
H1736 H 0.62004 0.47465 0.35997 0.0
H1737 H 0.59961 0.48369 0.38401 0.0
H1738 H 0.59774 0.46947 0.49929 0.0
H1739 H 0.59262 0.43953 0.53048 0.0
H1740 H 0.33038 0.90905 0.29717 0.0
H1741 H 0.30056 0.91843 0.27678 0.0
H1742 H 0.28695 0.86682 0.21622 0.0
H1743 H 0.3165 0.85741 0.23769 0.0
H1744 H 0.26942 0.89688 0.14228 0.0
H1745 H 0.26616 0.89691 0.42613 0.0
H1746 H 0.28303 0.90884 0.38451 0.0
H1747 H 0.28309 0.88578 0.38124 0.0
C1748 C 0.32122 0.89995 0.27612 0.0
C1749 C 0.3257 0.88252 0.26879 0.0
C1750 C 0.30415 0.90527 0.26535 0.0
C1751 C 0.29152 0.89323 0.24608 0.0
C1752 C 0.29649 0.87629 0.23123 0.0
H1753 H 0.1918 0.85921 0.27359 0.0
H1754 H 0.22153 0.868 0.2955 0.0
C1755 C 0.31341 0.87094 0.24296 0.0
C1756 C 0.27288 0.89725 0.25091 0.0
H1757 H 0.23998 0.89787 0.36645 0.0
C1758 C 0.26297 0.89762 0.19115 0.0
C1759 C 0.26454 0.89796 0.31493 0.0
C1760 C 0.27464 0.89731 0.38066 0.0
C1761 C 0.24488 0.89792 0.19374 0.0
C1762 C 0.23651 0.89778 0.2578 0.0
C1763 C 0.24644 0.89818 0.31754 0.0
C1764 C 0.21776 0.89431 0.26286 0.0
C1765 C 0.23477 0.8972 0.12804 0.0
C1766 C 0.20551 0.90654 0.24196 0.0
C1767 C 0.18834 0.90159 0.23095 0.0
C1768 C 0.18338 0.88433 0.23975 0.0
C1769 C 0.19527 0.87263 0.26731 0.0
C1770 C 0.21229 0.87762 0.27925 0.0
H1771 H 0.24324 0.89621 0.08266 0.0
H1772 H 0.2259 0.88597 0.12844 0.0
H1773 H 0.22681 0.90899 0.12306 0.0
H1774 H 0.20948 0.91951 0.22932 0.0
H1775 H 0.17949 0.91076 0.20849 0.0
H1776 H 0.58938 0.93889 0.43949 0.0
H1777 H 0.59388 0.9694 0.46349 0.0
H1778 H 0.64863 0.96086 0.47739 0.0
H1779 H 0.64414 0.93004 0.45452 0.0
H1780 H 0.63497 0.9869 0.57014 0.0
H1781 H 0.61452 0.99717 0.30269 0.0
H1782 H 0.59917 0.98509 0.35142 0.0
H1783 H 0.62019 0.97622 0.3356 0.0
C1784 C 0.60232 0.94338 0.45016 0.0
C1785 C 0.61642 0.93213 0.44454 0.0
C1786 C 0.6049 0.96085 0.46311 0.0
C1787 C 0.62162 0.96747 0.46982 0.0
C1788 C 0.63563 0.95602 0.47139 0.0
H1789 H 0.645 0.07867 0.51313 0.0
H1790 H 0.64984 0.0485 0.47977 0.0
C1791 C 0.63303 0.9384 0.45903 0.0
C1792 C 0.6243 0.9864 0.46896 0.0
H1793 H 0.61506 0.02218 0.37436 0.0
C1794 C 0.63095 0.99463 0.52695 0.0
C1795 C 0.61925 0.99644 0.41207 0.0
C1796 C 0.61305 0.98828 0.34662 0.0
C1797 C 0.63156 0.01271 0.53124 0.0
C1798 C 0.62551 0.02272 0.47587 0.0
C1799 C 0.6197 0.01447 0.41664 0.0
C1800 C 0.62287 0.04156 0.48248 0.0
C1801 C 0.63774 0.02104 0.59632 0.0
C1802 C 0.60607 0.04779 0.49088 0.0
C1803 C 0.6033 0.06488 0.50985 0.0
C1804 C 0.61727 0.07611 0.51997 0.0
C1805 C 0.63399 0.07032 0.505 0.0
C1806 C 0.63679 0.05307 0.48682 0.0
H1807 H 0.64069 0.01143 0.63659 0.0
H1808 H 0.64958 0.0286 0.58597 0.0
H1809 H 0.62784 0.03008 0.61584 0.0
H1810 H 0.59515 0.03914 0.4873 0.0
H1811 H 0.59029 0.069 0.52123 0.0
H1812 H 0.19133 0.34385 0.76952 0.0
H1813 H 0.22175 0.34976 0.74865 0.0
H1814 H 0.21179 0.40429 0.75823 0.0
H1815 H 0.1811 0.39843 0.77854 0.0
H1816 H 0.23968 0.39022 0.65651 0.0
H1817 H 0.2464 0.37065 0.92722 0.0
H1818 H 0.23404 0.35614 0.875 0.0
H1819 H 0.22615 0.37751 0.89073 0.0
C1820 C 0.19547 0.35711 0.76423 0.0
C1821 C 0.1839 0.37068 0.77621 0.0
C1822 C 0.21287 0.36047 0.75288 0.0
C1823 C 0.21904 0.37743 0.75365 0.0
C1824 C 0.20726 0.3911 0.75801 0.0
H1825 H 0.33072 0.39909 0.72263 0.0
H1826 H 0.30052 0.40518 0.75154 0.0
C1827 C 0.18971 0.38773 0.76891 0.0
C1828 C 0.23785 0.38045 0.75861 0.0
H1829 H 0.27224 0.37181 0.86194 0.0
C1830 C 0.24684 0.38658 0.70178 0.0
C1831 C 0.24707 0.37579 0.81808 0.0
C1832 C 0.23795 0.36979 0.88157 0.0
C1833 C 0.26496 0.38706 0.70134 0.0
C1834 C 0.27422 0.38142 0.75954 0.0
C1835 C 0.26514 0.37618 0.81757 0.0
C1836 C 0.29307 0.37837 0.75712 0.0
C1837 C 0.27412 0.39252 0.63718 0.0
C1838 C 0.29907 0.36135 0.75552 0.0
C1839 C 0.3162 0.35788 0.73929 0.0
C1840 C 0.32769 0.37137 0.72506 0.0
C1841 C 0.32216 0.38846 0.73394 0.0
C1842 C 0.30488 0.39194 0.74948 0.0
H1843 H 0.26505 0.39475 0.59421 0.0
H1844 H 0.28129 0.40463 0.64694 0.0
H1845 H 0.2836 0.38256 0.62171 0.0
H1846 H 0.29021 0.35069 0.7618 0.0
H1847 H 0.32013 0.3446 0.73263 0.0
H1848 H 0.91568 0.93654 0.02866 0.0
H1849 H 0.91024 0.96687 0.00436 0.0
H1850 H 0.85555 0.95769 0.01305 0.0
H1851 H 0.86095 0.92706 0.03658 0.0
H1852 H 0.86835 0.98435 0.91154 0.0
H1853 H 0.89143 0.99358 0.17671 0.0
H1854 H 0.90575 0.98122 0.12416 0.0
H1855 H 0.88475 0.97288 0.14396 0.0
C1856 C 0.90249 0.94081 0.02256 0.0
C1857 C 0.88874 0.92949 0.03509 0.0
C1858 C 0.8994 0.95818 0.00932 0.0
C1859 C 0.88252 0.96458 0.00893 0.0
C1860 C 0.86868 0.95299 0.01386 0.0
H1861 H 0.8596 0.07603 0.97213 0.0
H1862 H 0.85441 0.0458 0.00353 0.0
C1863 C 0.87178 0.93548 0.02661 0.0
C1864 C 0.87972 0.98347 0.01143 0.0
H1865 H 0.88973 0.01882 0.10749 0.0
C1866 C 0.87267 0.99192 0.95479 0.0
C1867 C 0.88522 0.99326 0.06838 0.0
C1868 C 0.89206 0.98479 0.13209 0.0
C1869 C 0.87209 0.01002 0.95181 0.0
C1870 C 0.87856 0.01981 0.00722 0.0
C1871 C 0.88475 0.0113 0.06521 0.0
C1872 C 0.88134 0.03866 0.00161 0.0
C1873 C 0.86554 0.01859 0.88787 0.0
C1874 C 0.89821 0.04483 0.9945 0.0
C1875 C 0.90117 0.06196 0.97678 0.0
C1876 C 0.88733 0.07331 0.96659 0.0
C1877 C 0.87051 0.06759 0.98031 0.0
C1878 C 0.86752 0.05029 0.99731 0.0
H1879 H 0.86255 0.00915 0.84697 0.0
H1880 H 0.85365 0.02591 0.89965 0.0
H1881 H 0.87524 0.02787 0.86846 0.0
H1882 H 0.90906 0.0361 0.99812 0.0
H1883 H 0.91425 0.06603 0.96636 0.0
H1884 H 0.18856 0.66274 0.24643 0.0
H1885 H 0.21839 0.6574 0.27981 0.0
H1886 H 0.20993 0.60271 0.26177 0.0
H1887 H 0.17982 0.60806 0.22872 0.0
H1888 H 0.23631 0.63605 0.38007 0.0
H1889 H 0.24618 0.61549 0.11067 0.0
H1890 H 0.22706 0.62687 0.13713 0.0
H1891 H 0.22989 0.60469 0.15985 0.0
C1892 C 0.19285 0.64956 0.25244 0.0
C1893 C 0.18193 0.63582 0.23487 0.0
C1894 C 0.20993 0.64651 0.27102 0.0
C1895 C 0.21647 0.62969 0.2716 0.0
C1896 C 0.20517 0.61581 0.26061 0.0
H1897 H 0.32895 0.61192 0.29177 0.0
H1898 H 0.29827 0.6061 0.27026 0.0
C1899 C 0.18792 0.61886 0.24273 0.0
C1900 C 0.23539 0.62722 0.27625 0.0
H1901 H 0.27092 0.62025 0.17703 0.0
C1902 C 0.24387 0.63226 0.33614 0.0
C1903 C 0.24524 0.62233 0.21869 0.0
C1904 C 0.23674 0.6171 0.15264 0.0
C1905 C 0.26191 0.63316 0.33928 0.0
C1906 C 0.27172 0.62928 0.28051 0.0
C1907 C 0.26333 0.62333 0.22173 0.0
C1908 C 0.29051 0.63277 0.2785 0.0
C1909 C 0.27033 0.63873 0.40509 0.0
C1910 C 0.2964 0.64975 0.28528 0.0
C1911 C 0.31379 0.65309 0.29727 0.0
C1912 C 0.32568 0.63951 0.30219 0.0
C1913 C 0.3201 0.62265 0.28779 0.0
C1914 C 0.30256 0.61929 0.2762 0.0
H1915 H 0.26171 0.63665 0.44942 0.0
H1916 H 0.28255 0.63163 0.41386 0.0
H1917 H 0.27336 0.65268 0.40234 0.0
H1918 H 0.28734 0.66036 0.28574 0.0
H1919 H 0.31773 0.66621 0.30789 0.0
H1920 H 0.40813 0.94017 0.51083 0.0
H1921 H 0.40153 0.97046 0.53161 0.0
H1922 H 0.34825 0.96112 0.4819 0.0
H1923 H 0.3548 0.93056 0.46174 0.0
H1924 H 0.3841 0.98714 0.40227 0.0
H1925 H 0.35196 0.99832 0.65205 0.0
H1926 H 0.36765 0.98131 0.64282 0.0
H1927 H 0.34714 0.97944 0.60159 0.0
C1928 C 0.39484 0.94438 0.50784 0.0
C1929 C 0.38197 0.93306 0.48476 0.0
C1930 C 0.39111 0.96171 0.51913 0.0
C1931 C 0.37446 0.96803 0.50751 0.0
C1932 C 0.36117 0.95644 0.4914 0.0
H1933 H 0.357 0.08009 0.52901 0.0
H1934 H 0.35018 0.05009 0.49898 0.0
C1935 C 0.36489 0.93896 0.48061 0.0
C1936 C 0.37201 0.98687 0.50087 0.0
H1937 H 0.36063 0.02285 0.58979 0.0
C1938 C 0.37868 0.99496 0.4427 0.0
C1939 C 0.36476 0.99696 0.55322 0.0
C1940 C 0.35741 0.98869 0.6162 0.0
C1941 C 0.37915 0.01296 0.43715 0.0
C1942 C 0.373 0.02313 0.4916 0.0
C1943 C 0.36532 0.01503 0.54796 0.0
C1944 C 0.37677 0.04184 0.49579 0.0
C1945 C 0.38676 0.02095 0.37403 0.0
C1946 C 0.39396 0.04726 0.50126 0.0
C1947 C 0.39785 0.06425 0.51854 0.0
C1948 C 0.38462 0.07621 0.53037 0.0
C1949 C 0.36744 0.0712 0.51914 0.0
C1950 C 0.36353 0.05404 0.50278 0.0
H1951 H 0.38564 0.01217 0.32951 0.0
H1952 H 0.38035 0.03334 0.36156 0.0
H1953 H 0.40065 0.02352 0.38285 0.0
H1954 H 0.40438 0.03806 0.49695 0.0
H1955 H 0.41118 0.06774 0.5275 0.0
H1956 H 0.81897 0.66506 0.21152 0.0
H1957 H 0.78912 0.65991 0.24391 0.0
H1958 H 0.79859 0.60521 0.24706 0.0
H1959 H 0.82877 0.61038 0.21509 0.0
H1960 H 0.77127 0.61629 0.15709 0.0
H1961 H 0.76351 0.64363 0.41557 0.0
H1962 H 0.77516 0.65766 0.35952 0.0
H1963 H 0.78419 0.63712 0.38224 0.0
C1964 C 0.81489 0.65198 0.22188 0.0
C1965 C 0.82618 0.63813 0.21103 0.0
C1966 C 0.7978 0.64903 0.24022 0.0
C1967 C 0.7916 0.63218 0.24778 0.0
C1968 C 0.80313 0.61832 0.2416 0.0
H1969 H 0.68027 0.60993 0.27663 0.0
H1970 H 0.71094 0.60486 0.25362 0.0
C1971 C 0.8204 0.6213 0.22414 0.0
C1972 C 0.77276 0.62932 0.25387 0.0
H1973 H 0.73792 0.64218 0.34626 0.0
C1974 C 0.76394 0.62158 0.19914 0.0
C1975 C 0.76325 0.63626 0.30864 0.0
C1976 C 0.77202 0.64398 0.37016 0.0
C1977 C 0.74582 0.62162 0.19581 0.0
C1978 C 0.73638 0.62949 0.24875 0.0
C1979 C 0.74521 0.63635 0.30518 0.0
C1980 C 0.71742 0.63189 0.24558 0.0
C1981 C 0.7369 0.61414 0.13422 0.0
C1982 C 0.71076 0.64867 0.2451 0.0
C1983 C 0.69336 0.65156 0.2582 0.0
C1984 C 0.68225 0.63772 0.27204 0.0
C1985 C 0.6885 0.62082 0.26523 0.0
C1986 C 0.70605 0.61791 0.2526 0.0
H1987 H 0.74614 0.61049 0.09359 0.0
H1988 H 0.72962 0.60248 0.14947 0.0
H1989 H 0.72753 0.62353 0.1131 0.0
H1990 H 0.71928 0.65962 0.23936 0.0
H1991 H 0.68889 0.66471 0.26335 0.0
H1992 H 0.14803 0.08175 0.97611 0.0
H1993 H 0.155 0.05176 0.00546 0.0
H1994 H 0.10101 0.03884 0.99856 0.0
H1995 H 0.09405 0.06855 0.96884 0.0
H1996 H 0.1214 0.022 0.1062 0.0
H1997 H 0.14882 0.01578 0.84496 0.0
H1998 H 0.15678 0.03266 0.89961 0.0
H1999 H 0.13509 0.03357 0.86834 0.0
C2000 C 0.13763 0.07265 0.98359 0.0
C2001 C 0.1205 0.07742 0.9699 0.0
C2002 C 0.14164 0.05549 -0.00057 0.0
C2003 C 0.12853 0.04303 0.00263 0.0
C2004 C 0.11133 0.04822 0.99579 0.0
H2005 H 0.09768 0.94062 0.0036 0.0
H2006 H 0.1035 0.971 0.98122 0.0
C2007 C 0.10735 0.06522 0.97922 0.0
C2008 C 0.13243 0.02436 0.00626 0.0
H2009 H 0.14421 0.99022 0.90621 0.0
C2010 C 0.12676 0.01509 0.06317 0.0
C2011 C 0.13932 0.01535 0.94971 0.0
C2012 C 0.14532 0.02474 0.88685 0.0
C2013 C 0.12716 0.99702 0.06399 0.0
C2014 C 0.13312 0.988 0.00598 0.0
C2015 C 0.13964 0.99722 0.95042 0.0
C2016 C 0.13084 0.9691 0.00066 0.0
C2017 C 0.12052 0.98764 0.12585 0.0
C2018 C 0.14453 0.95777 0.01392 0.0
C2019 C 0.14125 0.94024 0.02557 0.0
C2020 C 0.12424 0.93403 0.02485 0.0
C2021 C 0.11091 0.94508 0.00414 0.0
C2022 C 0.1142 0.96246 0.99193 0.0
H2023 H 0.1198 0.9962 0.17112 0.0
H2024 H 0.10738 0.98268 0.11498 0.0
H2025 H 0.12887 0.97646 0.13821 0.0
H2026 H 0.15747 0.9627 0.02068 0.0
H2027 H 0.15171 0.93204 0.04234 0.0
H2028 H 0.6801 0.39689 0.71705 0.0
H2029 H 0.71078 0.40262 0.73927 0.0
H2030 H 0.72142 0.34824 0.72747 0.0
H2031 H 0.69104 0.34249 0.70477 0.0
H2032 H 0.7386 0.38677 0.83563 0.0
H2033 H 0.74623 0.3732 0.55964 0.0
H2034 H 0.72578 0.37884 0.5972 0.0
H2035 H 0.73409 0.35737 0.60594 0.0
C2036 C 0.68887 0.38613 0.72224 0.0
C2037 C 0.68324 0.36925 0.70864 0.0
C2038 C 0.70641 0.38943 0.73424 0.0
C2039 C 0.71837 0.37587 0.73327 0.0
C2040 C 0.71241 0.3589 0.72734 0.0
H2041 H 0.82096 0.34541 0.745 0.0
H2042 H 0.79081 0.35103 0.71703 0.0
C2043 C 0.69503 0.35561 0.71496 0.0
C2044 C 0.73715 0.37922 0.73044 0.0
H2045 H 0.77192 0.37347 0.62651 0.0
C2046 C 0.74592 0.38424 0.7897 0.0
C2047 C 0.74659 0.37597 0.67018 0.0
C2048 C 0.73772 0.37118 0.60434 0.0
C2049 C 0.76403 0.38502 0.79139 0.0
C2050 C 0.77351 0.38089 0.73193 0.0
C2051 C 0.76465 0.3767 0.67186 0.0
C2052 C 0.79248 0.3785 0.73397 0.0
C2053 C 0.77292 0.38922 0.8578 0.0
C2054 C 0.8037 0.39225 0.74819 0.0
C2055 C 0.82109 0.38907 0.7631 0.0
C2056 C 0.82738 0.3721 0.76426 0.0
C2057 C 0.81647 0.35862 0.74376 0.0
C2058 C 0.79921 0.36181 0.72834 0.0
H2059 H 0.76376 0.38986 0.90112 0.0
H2060 H 0.7829 0.37941 0.86948 0.0
H2061 H 0.77945 0.40188 0.85341 0.0
H2062 H 0.79881 0.40527 0.75179 0.0
H2063 H 0.82917 0.39965 0.77977 0.0
loop_
_geom_bond_atom_site_label_1
_geom_bond_atom_site_label_2
_geom_bond_distance
_geom_bond_site_symmetry_2
_ccdc_geom_bond_type
Zn0 O6 1.920 . S
Zn0 O12 1.898 . S
Zn0 O15 1.905 . S
Zn1 O9 1.905 . S
Zn1 O10 1.898 . S
Zn1 O18 1.920 1_554 S
Zn2 O5 2.080 . S
Zn2 O8 2.114 . S
Zn2 O11 2.120 . S
Zn2 O13 2.120 . S
Zn2 O14 2.114 . S
Zn2 O17 2.080 . S
C3 O8 1.166 . S
C3 O9 1.182 . S
C4 O10 1.167 . S
C4 O11 1.299 . S
O5 Zn2 2.080 . S
O5 C19 1.305 . S
O6 Zn0 1.920 . S
O6 C19 1.234 . S
C7 O12 1.167 . S
C7 O13 1.299 . S
O8 Zn2 2.114 . S
O8 C3 1.166 . S
O9 Zn1 1.905 . S
O9 C3 1.182 . S
O10 Zn1 1.898 . S
O10 C4 1.167 . S
O11 Zn2 2.120 . S
O11 C4 1.299 . S
O12 Zn0 1.898 . S
O12 C7 1.167 . S
O13 Zn2 2.120 . S
O13 C7 1.299 . S
O14 Zn2 2.114 . S
O14 C16 1.166 . S
O15 Zn0 1.905 . S
O15 C16 1.182 . S
C16 O14 1.166 . S
C16 O15 1.182 . S
O17 Zn2 2.080 . S
O17 C20 1.305 1_554 S
O18 Zn1 1.920 1_556 S
O18 C20 1.234 . S
C19 O5 1.305 . S
C19 O6 1.234 . S
C20 O17 1.305 1_556 S
C20 O18 1.234 . S
Zn21 O27 1.920 . S
Zn21 O33 1.898 . S
Zn21 O36 1.905 . S
Zn22 O30 1.905 . S
Zn22 O31 1.898 . S
Zn22 O39 1.920 . S
Zn23 O26 2.080 . S
Zn23 O29 2.114 . S
Zn23 O32 2.120 . S
Zn23 O34 2.120 . S
Zn23 O35 2.114 . S
Zn23 O38 2.080 . S
C24 O29 1.166 . S
C24 O30 1.182 . S
C25 O31 1.167 . S
C25 O32 1.299 . S
O26 Zn23 2.080 . S
O26 C40 1.305 . S
O27 Zn21 1.920 . S
O27 C40 1.234 . S
C28 O33 1.167 . S
C28 O34 1.299 . S
O29 Zn23 2.114 . S
O29 C24 1.166 . S
O30 Zn22 1.905 . S
O30 C24 1.182 . S
O31 Zn22 1.898 . S
O31 C25 1.167 . S
O32 Zn23 2.120 . S
O32 C25 1.299 . S
O33 Zn21 1.898 . S
O33 C28 1.167 . S
O34 Zn23 2.120 . S
O34 C28 1.299 . S
O35 Zn23 2.114 . S
O35 C37 1.166 . S
O36 Zn21 1.905 . S
O36 C37 1.182 . S
C37 O35 1.166 . S
C37 O36 1.182 . S
O38 Zn23 2.080 . S
O38 C41 1.305 . S
O39 Zn22 1.920 . S
O39 C41 1.234 . S
C40 O26 1.305 . S
C40 O27 1.234 . S
C41 O38 1.305 . S
C41 O39 1.234 . S
Zn42 O48 1.920 . S
Zn42 O54 1.898 . S
Zn42 O57 1.905 . S
Zn43 O51 1.905 . S
Zn43 O52 1.898 . S
Zn43 O60 1.920 . S
Zn44 O47 2.080 . S
Zn44 O50 2.114 . S
Zn44 O53 2.120 . S
Zn44 O55 2.120 . S
Zn44 O56 2.114 . S
Zn44 O59 2.080 . S
C45 O50 1.166 . S
C45 O51 1.182 . S
C46 O52 1.167 . S
C46 O53 1.299 . S
O47 Zn44 2.080 . S
O47 C61 1.305 . S
O48 Zn42 1.920 . S
O48 C61 1.234 . S
C49 O54 1.167 . S
C49 O55 1.299 . S
O50 Zn44 2.114 . S
O50 C45 1.166 . S
O51 Zn43 1.905 . S
O51 C45 1.182 . S
O52 Zn43 1.898 . S
O52 C46 1.167 . S
O53 Zn44 2.120 . S
O53 C46 1.299 . S
O54 Zn42 1.898 . S
O54 C49 1.167 . S
O55 Zn44 2.120 . S
O55 C49 1.299 . S
O56 Zn44 2.114 . S
O56 C58 1.166 . S
O57 Zn42 1.905 . S
O57 C58 1.182 . S
C58 O56 1.166 . S
C58 O57 1.182 . S
O59 Zn44 2.080 . S
O59 C62 1.305 . S
O60 Zn43 1.920 . S
O60 C62 1.234 . S
C61 O47 1.305 . S
C61 O48 1.234 . S
C62 O59 1.305 . S
C62 O60 1.234 . S
Zn63 O69 1.920 1_556 S
Zn63 O75 1.898 . S
Zn63 O78 1.905 . S
Zn64 O72 1.905 . S
Zn64 O73 1.898 . S
Zn64 O81 1.920 . S
Zn65 O68 2.080 . S
Zn65 O71 2.114 . S
Zn65 O74 2.120 . S
Zn65 O76 2.120 . S
Zn65 O77 2.114 . S
Zn65 O80 2.080 . S
C66 O71 1.166 . S
C66 O72 1.182 . S
C67 O73 1.167 . S
C67 O74 1.299 . S
O68 Zn65 2.080 . S
O68 C82 1.305 1_556 S
O69 Zn63 1.920 1_554 S
O69 C82 1.234 . S
C70 O75 1.167 . S
C70 O76 1.299 . S
O71 Zn65 2.114 . S
O71 C66 1.166 . S
O72 Zn64 1.905 . S
O72 C66 1.182 . S
O73 Zn64 1.898 . S
O73 C67 1.167 . S
O74 Zn65 2.120 . S
O74 C67 1.299 . S
O75 Zn63 1.898 . S
O75 C70 1.167 . S
O76 Zn65 2.120 . S
O76 C70 1.299 . S
O77 Zn65 2.114 . S
O77 C79 1.166 . S
O78 Zn63 1.905 . S
O78 C79 1.182 . S
C79 O77 1.166 . S
C79 O78 1.182 . S
O80 Zn65 2.080 . S
O80 C83 1.305 . S
O81 Zn64 1.920 . S
O81 C83 1.234 . S
C82 O68 1.305 1_554 S
C82 O69 1.234 . S
C83 O80 1.305 . S
C83 O81 1.234 . S
Zn84 O90 1.920 . S
Zn84 O96 1.898 . S
Zn84 O99 1.905 . S
Zn85 O93 1.905 1_556 S
Zn85 O94 1.898 . S
Zn85 O102 1.920 . S
Zn86 O89 2.080 . S
Zn86 O92 2.114 . S
Zn86 O95 2.120 . S
Zn86 O97 2.120 . S
Zn86 O98 2.114 . S
Zn86 O101 2.080 . S
C87 O92 1.166 1_554 S
C87 O93 1.182 . S
C88 O94 1.167 . S
C88 O95 1.299 . S
O89 Zn86 2.080 . S
O89 C103 1.305 . S
O90 Zn84 1.920 . S
O90 C103 1.234 . S
C91 O96 1.167 . S
C91 O97 1.299 . S
O92 Zn86 2.114 . S
O92 C87 1.166 1_556 S
O93 Zn85 1.905 1_554 S
O93 C87 1.182 . S
O94 Zn85 1.898 . S
O94 C88 1.167 . S
O95 Zn86 2.120 . S
O95 C88 1.299 . S
O96 Zn84 1.898 . S
O96 C91 1.167 . S
O97 Zn86 2.120 . S
O97 C91 1.299 . S
O98 Zn86 2.114 . S
O98 C100 1.166 . S
O99 Zn84 1.905 . S
O99 C100 1.182 . S
C100 O98 1.166 . S
C100 O99 1.182 . S
O101 Zn86 2.080 . S
O101 C104 1.305 . S
O102 Zn85 1.920 . S
O102 C104 1.234 . S
C103 O89 1.305 . S
C103 O90 1.234 . S
C104 O101 1.305 . S
C104 O102 1.234 . S
Zn105 O111 1.920 . S
Zn105 O117 1.898 . S
Zn105 O120 1.905 . S
Zn106 O114 1.905 1_554 S
Zn106 O115 1.898 . S
Zn106 O123 1.920 . S
Zn107 O110 2.080 . S
Zn107 O113 2.114 . S
Zn107 O116 2.120 . S
Zn107 O118 2.120 . S
Zn107 O119 2.114 . S
Zn107 O122 2.080 . S
C108 O113 1.166 1_556 S
C108 O114 1.182 . S
C109 O115 1.167 . S
C109 O116 1.299 . S
O110 Zn107 2.080 . S
O110 C124 1.305 . S
O111 Zn105 1.920 . S
O111 C124 1.234 . S
C112 O117 1.167 . S
C112 O118 1.299 . S
O113 Zn107 2.114 . S
O113 C108 1.166 1_554 S
O114 Zn106 1.905 1_556 S
O114 C108 1.182 . S
O115 Zn106 1.898 . S
O115 C109 1.167 . S
O116 Zn107 2.120 . S
O116 C109 1.299 . S
O117 Zn105 1.898 . S
O117 C112 1.167 . S
O118 Zn107 2.120 . S
O118 C112 1.299 . S
O119 Zn107 2.114 . S
O119 C121 1.166 . S
O120 Zn105 1.905 . S
O120 C121 1.182 . S
C121 O119 1.166 . S
C121 O120 1.182 . S
O122 Zn107 2.080 . S
O122 C125 1.305 . S
O123 Zn106 1.920 . S
O123 C125 1.234 . S
C124 O110 1.305 . S
C124 O111 1.234 . S
C125 O122 1.305 . S
C125 O123 1.234 . S
Zn126 O132 1.920 . S
Zn126 O138 1.898 . S
Zn126 O141 1.905 . S
Zn127 O135 1.905 . S
Zn127 O136 1.898 . S
Zn127 O144 1.920 . S
Zn128 O131 2.080 . S
Zn128 O134 2.114 . S
Zn128 O137 2.120 . S
Zn128 O139 2.120 . S
Zn128 O140 2.114 . S
Zn128 O143 2.080 . S
C129 O134 1.166 . S
C129 O135 1.182 . S
C130 O136 1.167 . S
C130 O137 1.299 . S
O131 Zn128 2.080 . S
O131 C145 1.305 . S
O132 Zn126 1.920 . S
O132 C145 1.234 . S
C133 O138 1.167 . S
C133 O139 1.299 . S
O134 Zn128 2.114 . S
O134 C129 1.166 . S
O135 Zn127 1.905 . S
O135 C129 1.182 . S
O136 Zn127 1.898 . S
O136 C130 1.167 . S
O137 Zn128 2.120 . S
O137 C130 1.299 . S
O138 Zn126 1.898 . S
O138 C133 1.167 . S
O139 Zn128 2.120 . S
O139 C133 1.299 . S
O140 Zn128 2.114 . S
O140 C142 1.166 . S
O141 Zn126 1.905 . S
O141 C142 1.182 . S
C142 O140 1.166 . S
C142 O141 1.182 . S
O143 Zn128 2.080 . S
O143 C146 1.305 . S
O144 Zn127 1.920 . S
O144 C146 1.234 . S
C145 O131 1.305 . S
C145 O132 1.234 . S
C146 O143 1.305 . S
C146 O144 1.234 . S
Zn147 O153 1.920 . S
Zn147 O159 1.898 . S
Zn147 O162 1.905 . S
Zn148 O156 1.905 . S
Zn148 O157 1.898 . S
Zn148 O165 1.920 . S
Zn149 O152 2.080 . S
Zn149 O155 2.114 . S
Zn149 O158 2.120 . S
Zn149 O160 2.120 . S
Zn149 O161 2.114 . S
Zn149 O164 2.080 . S
C150 O155 1.166 . S
C150 O156 1.182 . S
C151 O157 1.167 . S
C151 O158 1.299 . S
O152 Zn149 2.080 . S
O152 C166 1.305 . S
O153 Zn147 1.920 . S
O153 C166 1.234 . S
C154 O159 1.167 . S
C154 O160 1.299 . S
O155 Zn149 2.114 . S
O155 C150 1.166 . S
O156 Zn148 1.905 . S
O156 C150 1.182 . S
O157 Zn148 1.898 . S
O157 C151 1.167 . S
O158 Zn149 2.120 . S
O158 C151 1.299 . S
O159 Zn147 1.898 . S
O159 C154 1.167 . S
O160 Zn149 2.120 . S
O160 C154 1.299 . S
O161 Zn149 2.114 . S
O161 C163 1.166 . S
O162 Zn147 1.905 . S
O162 C163 1.182 . S
C163 O161 1.166 . S
C163 O162 1.182 . S
O164 Zn149 2.080 . S
O164 C167 1.305 . S
O165 Zn148 1.920 . S
O165 C167 1.234 . S
C166 O152 1.305 . S
C166 O153 1.234 . S
C167 O164 1.305 . S
C167 O165 1.234 . S
Zn168 O174 1.920 . S
Zn168 O180 1.898 . S
Zn168 O183 1.905 . S
Zn169 O177 1.905 1_556 S
Zn169 O178 1.898 . S
Zn169 O186 1.920 . S
Zn170 O173 2.080 . S
Zn170 O176 2.114 . S
Zn170 O179 2.120 . S
Zn170 O181 2.120 . S
Zn170 O182 2.114 . S
Zn170 O185 2.080 . S
C171 O176 1.166 1_554 S
C171 O177 1.182 . S
C172 O178 1.167 . S
C172 O179 1.299 . S
O173 Zn170 2.080 . S
O173 C187 1.305 . S
O174 Zn168 1.920 . S
O174 C187 1.234 . S
C175 O180 1.167 . S
C175 O181 1.299 . S
O176 Zn170 2.114 . S
O176 C171 1.166 1_556 S
O177 Zn169 1.905 1_554 S
O177 C171 1.182 . S
O178 Zn169 1.898 . S
O178 C172 1.167 . S
O179 Zn170 2.120 . S
O179 C172 1.299 . S
O180 Zn168 1.898 . S
O180 C175 1.167 . S
O181 Zn170 2.120 . S
O181 C175 1.299 . S
O182 Zn170 2.114 . S
O182 C184 1.166 . S
O183 Zn168 1.905 . S
O183 C184 1.182 . S
C184 O182 1.166 . S
C184 O183 1.182 . S
O185 Zn170 2.080 . S
O185 C188 1.305 . S
O186 Zn169 1.920 . S
O186 C188 1.234 . S
C187 O173 1.305 . S
C187 O174 1.234 . S
C188 O185 1.305 . S
C188 O186 1.234 . S
Zn189 O195 1.920 . S
Zn189 O201 1.898 . S
Zn189 O204 1.905 . S
Zn190 O198 1.905 . S
Zn190 O199 1.898 . S
Zn190 O207 1.920 . S
Zn191 O194 2.080 . S
Zn191 O197 2.114 . S
Zn191 O200 2.120 . S
Zn191 O202 2.120 . S
Zn191 O203 2.114 . S
Zn191 O206 2.080 . S
C192 O197 1.166 . S
C192 O198 1.182 . S
C193 O199 1.167 . S
C193 O200 1.299 . S
O194 Zn191 2.080 . S
O194 C208 1.305 . S
O195 Zn189 1.920 . S
O195 C208 1.234 . S
C196 O201 1.167 . S
C196 O202 1.299 . S
O197 Zn191 2.114 . S
O197 C192 1.166 . S
O198 Zn190 1.905 . S
O198 C192 1.182 . S
O199 Zn190 1.898 . S
O199 C193 1.167 . S
O200 Zn191 2.120 . S
O200 C193 1.299 . S
O201 Zn189 1.898 . S
O201 C196 1.167 . S
O202 Zn191 2.120 . S
O202 C196 1.299 . S
O203 Zn191 2.114 . S
O203 C205 1.166 . S
O204 Zn189 1.905 . S
O204 C205 1.182 . S
C205 O203 1.166 . S
C205 O204 1.182 . S
O206 Zn191 2.080 . S
O206 C209 1.305 . S
O207 Zn190 1.920 . S
O207 C209 1.234 . S
C208 O194 1.305 . S
C208 O195 1.234 . S
C209 O206 1.305 . S
C209 O207 1.234 . S
Zn210 O216 1.920 . S
Zn210 O222 1.898 . S
Zn210 O225 1.905 . S
Zn211 O219 1.905 . S
Zn211 O220 1.898 . S
Zn211 O228 1.920 . S
Zn212 O215 2.080 . S
Zn212 O218 2.114 . S
Zn212 O221 2.120 . S
Zn212 O223 2.120 . S
Zn212 O224 2.114 . S
Zn212 O227 2.080 . S
C213 O218 1.166 . S
C213 O219 1.182 . S
C214 O220 1.167 . S
C214 O221 1.299 . S
O215 Zn212 2.080 . S
O215 C229 1.305 . S
O216 Zn210 1.920 . S
O216 C229 1.234 . S
C217 O222 1.167 . S
C217 O223 1.299 . S
O218 Zn212 2.114 . S
O218 C213 1.166 . S
O219 Zn211 1.905 . S
O219 C213 1.182 . S
O220 Zn211 1.898 . S
O220 C214 1.167 . S
O221 Zn212 2.120 . S
O221 C214 1.299 . S
O222 Zn210 1.898 . S
O222 C217 1.167 . S
O223 Zn212 2.120 . S
O223 C217 1.299 . S
O224 Zn212 2.114 . S
O224 C226 1.166 . S
O225 Zn210 1.905 . S
O225 C226 1.182 . S
C226 O224 1.166 . S
C226 O225 1.182 . S
O227 Zn212 2.080 . S
O227 C230 1.305 . S
O228 Zn211 1.920 . S
O228 C230 1.234 . S
C229 O215 1.305 . S
C229 O216 1.234 . S
C230 O227 1.305 . S
C230 O228 1.234 . S
Zn231 O237 1.920 . S
Zn231 O243 1.898 . S
Zn231 O246 1.905 1_554 S
Zn232 O240 1.905 . S
Zn232 O241 1.898 . S
Zn232 O249 1.920 . S
Zn233 O236 2.080 . S
Zn233 O239 2.114 . S
Zn233 O242 2.120 . S
Zn233 O244 2.120 . S
Zn233 O245 2.114 . S
Zn233 O248 2.080 . S
C234 O239 1.166 . S
C234 O240 1.182 . S
C235 O241 1.167 . S
C235 O242 1.299 . S
O236 Zn233 2.080 . S
O236 C250 1.305 . S
O237 Zn231 1.920 . S
O237 C250 1.234 . S
C238 O243 1.167 . S
C238 O244 1.299 . S
O239 Zn233 2.114 . S
O239 C234 1.166 . S
O240 Zn232 1.905 . S
O240 C234 1.182 . S
O241 Zn232 1.898 . S
O241 C235 1.167 . S
O242 Zn233 2.120 . S
O242 C235 1.299 . S
O243 Zn231 1.898 . S
O243 C238 1.167 . S
O244 Zn233 2.120 . S
O244 C238 1.299 . S
O245 Zn233 2.114 . S
O245 C247 1.166 1_554 S
O246 Zn231 1.905 1_556 S
O246 C247 1.182 . S
C247 O245 1.166 1_556 S
C247 O246 1.182 . S
O248 Zn233 2.080 . S
O248 C251 1.305 . S
O249 Zn232 1.920 . S
O249 C251 1.234 . S
C250 O236 1.305 . S
C250 O237 1.234 . S
C251 O248 1.305 . S
C251 O249 1.234 . S
Zn252 O258 1.920 . S
Zn252 O264 1.898 . S
Zn252 O267 1.905 1_554 S
Zn253 O261 1.905 . S
Zn253 O262 1.898 . S
Zn253 O270 1.920 . S
Zn254 O257 2.080 . S
Zn254 O260 2.114 . S
Zn254 O263 2.120 . S
Zn254 O265 2.120 . S
Zn254 O266 2.114 . S
Zn254 O269 2.080 . S
C255 O260 1.166 . S
C255 O261 1.182 . S
C256 O262 1.167 . S
C256 O263 1.299 . S
O257 Zn254 2.080 . S
O257 C271 1.305 . S
O258 Zn252 1.920 . S
O258 C271 1.234 . S
C259 O264 1.167 . S
C259 O265 1.299 . S
O260 Zn254 2.114 . S
O260 C255 1.166 . S
O261 Zn253 1.905 . S
O261 C255 1.182 . S
O262 Zn253 1.898 . S
O262 C256 1.167 . S
O263 Zn254 2.120 . S
O263 C256 1.299 . S
O264 Zn252 1.898 . S
O264 C259 1.167 . S
O265 Zn254 2.120 . S
O265 C259 1.299 . S
O266 Zn254 2.114 . S
O266 C268 1.166 1_554 S
O267 Zn252 1.905 1_556 S
O267 C268 1.182 . S
C268 O266 1.166 1_556 S
C268 O267 1.182 . S
O269 Zn254 2.080 . S
O269 C272 1.305 . S
O270 Zn253 1.920 . S
O270 C272 1.234 . S
C271 O257 1.305 . S
C271 O258 1.234 . S
C272 O269 1.305 . S
C272 O270 1.234 . S
Zn273 O279 1.920 . S
Zn273 O285 1.898 . S
Zn273 O288 1.905 . S
Zn274 O282 1.905 . S
Zn274 O283 1.898 . S
Zn274 O291 1.920 1_556 S
Zn275 O278 2.080 . S
Zn275 O281 2.114 . S
Zn275 O284 2.120 . S
Zn275 O286 2.120 . S
Zn275 O287 2.114 . S
Zn275 O290 2.080 . S
C276 O281 1.166 . S
C276 O282 1.182 . S
C277 O283 1.167 . S
C277 O284 1.299 . S
O278 Zn275 2.080 . S
O278 C292 1.305 . S
O279 Zn273 1.920 . S
O279 C292 1.234 . S
C280 O285 1.167 . S
C280 O286 1.299 . S
O281 Zn275 2.114 . S
O281 C276 1.166 . S
O282 Zn274 1.905 . S
O282 C276 1.182 . S
O283 Zn274 1.898 . S
O283 C277 1.167 . S
O284 Zn275 2.120 . S
O284 C277 1.299 . S
O285 Zn273 1.898 . S
O285 C280 1.167 . S
O286 Zn275 2.120 . S
O286 C280 1.299 . S
O287 Zn275 2.114 . S
O287 C289 1.166 . S
O288 Zn273 1.905 . S
O288 C289 1.182 . S
C289 O287 1.166 . S
C289 O288 1.182 . S
O290 Zn275 2.080 . S
O290 C293 1.305 1_556 S
O291 Zn274 1.920 1_554 S
O291 C293 1.234 . S
C292 O278 1.305 . S
C292 O279 1.234 . S
C293 O290 1.305 1_554 S
C293 O291 1.234 . S
Zn294 O300 1.920 . S
Zn294 O306 1.898 . S
Zn294 O309 1.905 . S
Zn295 O303 1.905 . S
Zn295 O304 1.898 . S
Zn295 O312 1.920 . S
Zn296 O299 2.080 . S
Zn296 O302 2.114 . S
Zn296 O305 2.120 . S
Zn296 O307 2.120 . S
Zn296 O308 2.114 . S
Zn296 O311 2.080 . S
C297 O302 1.166 . S
C297 O303 1.182 . S
C298 O304 1.167 . S
C298 O305 1.299 . S
O299 Zn296 2.080 . S
O299 C313 1.305 . S
O300 Zn294 1.920 . S
O300 C313 1.234 . S
C301 O306 1.167 . S
C301 O307 1.299 . S
O302 Zn296 2.114 . S
O302 C297 1.166 . S
O303 Zn295 1.905 . S
O303 C297 1.182 . S
O304 Zn295 1.898 . S
O304 C298 1.167 . S
O305 Zn296 2.120 . S
O305 C298 1.299 . S
O306 Zn294 1.898 . S
O306 C301 1.167 . S
O307 Zn296 2.120 . S
O307 C301 1.299 . S
O308 Zn296 2.114 . S
O308 C310 1.166 . S
O309 Zn294 1.905 . S
O309 C310 1.182 . S
C310 O308 1.166 . S
C310 O309 1.182 . S
O311 Zn296 2.080 . S
O311 C314 1.305 . S
O312 Zn295 1.920 . S
O312 C314 1.234 . S
C313 O299 1.305 . S
C313 O300 1.234 . S
C314 O311 1.305 . S
C314 O312 1.234 . S
Zn315 O321 1.920 . S
Zn315 O327 1.898 . S
Zn315 O330 1.905 . S
Zn316 O324 1.905 . S
Zn316 O325 1.898 . S
Zn316 O333 1.920 . S
Zn317 O320 2.080 . S
Zn317 O323 2.114 . S
Zn317 O326 2.120 . S
Zn317 O328 2.120 . S
Zn317 O329 2.114 . S
Zn317 O332 2.080 . S
C318 O323 1.166 . S
C318 O324 1.182 . S
C319 O325 1.167 . S
C319 O326 1.299 . S
O320 Zn317 2.080 . S
O320 C334 1.305 . S
O321 Zn315 1.920 . S
O321 C334 1.234 . S
C322 O327 1.167 . S
C322 O328 1.299 . S
O323 Zn317 2.114 . S
O323 C318 1.166 . S
O324 Zn316 1.905 . S
O324 C318 1.182 . S
O325 Zn316 1.898 . S
O325 C319 1.167 . S
O326 Zn317 2.120 . S
O326 C319 1.299 . S
O327 Zn315 1.898 . S
O327 C322 1.167 . S
O328 Zn317 2.120 . S
O328 C322 1.299 . S
O329 Zn317 2.114 . S
O329 C331 1.166 . S
O330 Zn315 1.905 . S
O330 C331 1.182 . S
C331 O329 1.166 . S
C331 O330 1.182 . S
O332 Zn317 2.080 . S
O332 C335 1.305 . S
O333 Zn316 1.920 . S
O333 C335 1.234 . S
C334 O320 1.305 . S
C334 O321 1.234 . S
C335 O332 1.305 . S
C335 O333 1.234 . S
H336 C344 0.929 . S
H337 C346 0.930 . S
H338 C348 0.930 . S
H339 C351 0.929 . S
H340 C354 0.930 . S
H341 C356 0.960 . S
H342 C356 0.960 . S
H343 C356 0.960 . S
C344 H336 0.929 . S
C344 C345 1.377 . S
C344 C346 1.384 . S
C345 C344 1.377 . S
C345 C351 1.390 . S
C346 H337 0.930 . S
C346 C344 1.384 . S
C346 C347 1.372 . S
C347 C346 1.372 . S
C347 C348 1.400 . S
C347 C352 1.490 . S
C348 H338 0.930 . S
C348 C347 1.400 . S
C348 C351 1.386 . S
H349 C365 0.930 . S
H350 C366 0.931 . S
C351 H339 0.929 . S
C351 C345 1.390 . S
C351 C348 1.386 . S
C352 C347 1.490 . S
C352 C354 1.395 . S
C352 C355 1.403 . S
H353 C359 0.930 . S
C354 H340 0.930 . S
C354 C352 1.395 . S
C354 C357 1.403 . S
C355 C352 1.403 . S
C355 C356 1.524 . S
C355 C359 1.400 . S
C356 H341 0.960 . S
C356 H342 0.960 . S
C356 H343 0.960 . S
C356 C355 1.524 . S
C357 C354 1.403 . S
C357 C358 1.392 . S
C357 C361 1.495 . S
C358 C357 1.392 . S
C358 C359 1.385 . S
C358 C360 1.478 . S
C359 H353 0.930 . S
C359 C355 1.400 . S
C359 C358 1.385 . S
C360 C358 1.478 . S
C360 C362 1.381 . S
C360 C366 1.383 . S
C361 C357 1.495 . S
C361 H367 0.959 . S
C361 H368 0.961 . S
C361 H369 0.960 . S
C362 C360 1.381 . S
C362 C363 1.394 . S
C362 H370 0.930 . S
C363 C362 1.394 . S
C363 C364 1.383 . S
C363 H371 0.929 . S
C364 C363 1.383 . S
C364 C365 1.377 . S
C365 H349 0.930 . S
C365 C364 1.377 . S
C365 C366 1.379 . S
C366 H350 0.931 . S
C366 C360 1.383 . S
C366 C365 1.379 . S
H367 C361 0.959 . S
H368 C361 0.961 . S
H369 C361 0.960 . S
H370 C362 0.930 . S
H371 C363 0.929 . S
H372 C380 0.929 . S
H373 C382 0.930 . S
H374 C384 0.930 . S
H375 C387 0.929 . S
H376 C390 0.930 . S
H377 C392 0.960 . S
H378 C392 0.960 . S
H379 C392 0.960 . S
C380 H372 0.929 . S
C380 C381 1.377 . S
C380 C382 1.384 . S
C381 C380 1.377 . S
C381 C387 1.390 . S
C382 H373 0.930 . S
C382 C380 1.384 . S
C382 C383 1.372 . S
C383 C382 1.372 . S
C383 C384 1.400 . S
C383 C388 1.490 1_554 S
C384 H374 0.930 . S
C384 C383 1.400 . S
C384 C387 1.386 . S
H385 C401 0.930 . S
H386 C402 0.931 . S
C387 H375 0.929 . S
C387 C381 1.390 . S
C387 C384 1.386 . S
C388 C383 1.490 1_556 S
C388 C390 1.395 . S
C388 C391 1.403 . S
H389 C395 0.930 . S
C390 H376 0.930 . S
C390 C388 1.395 . S
C390 C393 1.403 . S
C391 C388 1.403 . S
C391 C392 1.524 . S
C391 C395 1.400 . S
C392 H377 0.960 . S
C392 H378 0.960 . S
C392 H379 0.960 . S
C392 C391 1.524 . S
C393 C390 1.403 . S
C393 C394 1.392 . S
C393 C397 1.495 . S
C394 C393 1.392 . S
C394 C395 1.385 . S
C394 C396 1.478 . S
C395 H389 0.930 . S
C395 C391 1.400 . S
C395 C394 1.385 . S
C396 C394 1.478 . S
C396 C398 1.381 . S
C396 C402 1.383 . S
C397 C393 1.495 . S
C397 H403 0.959 . S
C397 H404 0.961 . S
C397 H405 0.960 . S
C398 C396 1.381 . S
C398 C399 1.394 . S
C398 H406 0.930 . S
C399 C398 1.394 . S
C399 C400 1.383 . S
C399 H407 0.929 . S
C400 C399 1.383 . S
C400 C401 1.377 . S
C401 H385 0.930 . S
C401 C400 1.377 . S
C401 C402 1.379 . S
C402 H386 0.931 . S
C402 C396 1.383 . S
C402 C401 1.379 . S
H403 C397 0.959 . S
H404 C397 0.961 . S
H405 C397 0.960 . S
H406 C398 0.930 . S
H407 C399 0.929 . S
H408 C416 0.929 . S
H409 C418 0.930 . S
H410 C420 0.930 . S
H411 C423 0.929 . S
H412 C426 0.930 . S
H413 C428 0.960 . S
H414 C428 0.960 . S
H415 C428 0.960 . S
C416 H408 0.929 . S
C416 C417 1.377 . S
C416 C418 1.384 . S
C417 C416 1.377 . S
C417 C423 1.390 . S
C418 H409 0.930 . S
C418 C416 1.384 . S
C418 C419 1.372 . S
C419 C418 1.372 . S
C419 C420 1.400 . S
C419 C424 1.490 . S
C420 H410 0.930 . S
C420 C419 1.400 . S
C420 C423 1.386 . S
H421 C437 0.930 . S
H422 C438 0.931 . S
C423 H411 0.929 . S
C423 C417 1.390 . S
C423 C420 1.386 . S
C424 C419 1.490 . S
C424 C426 1.395 . S
C424 C427 1.403 . S
H425 C431 0.930 . S
C426 H412 0.930 . S
C426 C424 1.395 . S
C426 C429 1.403 . S
C427 C424 1.403 . S
C427 C428 1.524 . S
C427 C431 1.400 . S
C428 H413 0.960 . S
C428 H414 0.960 . S
C428 H415 0.960 . S
C428 C427 1.524 . S
C429 C426 1.403 . S
C429 C430 1.392 . S
C429 C433 1.495 . S
C430 C429 1.392 . S
C430 C431 1.385 . S
C430 C432 1.478 1_554 S
C431 H425 0.930 . S
C431 C427 1.400 . S
C431 C430 1.385 . S
C432 C430 1.478 1_556 S
C432 C434 1.381 . S
C432 C438 1.383 . S
C433 C429 1.495 . S
C433 H439 0.959 . S
C433 H440 0.961 . S
C433 H441 0.960 . S
C434 C432 1.381 . S
C434 C435 1.394 . S
C434 H442 0.930 . S
C435 C434 1.394 . S
C435 C436 1.383 . S
C435 H443 0.929 . S
C436 C435 1.383 . S
C436 C437 1.377 . S
C437 H421 0.930 . S
C437 C436 1.377 . S
C437 C438 1.379 . S
C438 H422 0.931 . S
C438 C432 1.383 . S
C438 C437 1.379 . S
H439 C433 0.959 . S
H440 C433 0.961 . S
H441 C433 0.960 . S
H442 C434 0.930 . S
H443 C435 0.929 . S
H444 C452 0.929 . S
H445 C454 0.930 . S
H446 C456 0.930 . S
H447 C459 0.929 . S
H448 C462 0.930 . S
H449 C464 0.960 . S
H450 C464 0.960 . S
H451 C464 0.960 . S
C452 H444 0.929 . S
C452 C453 1.377 . S
C452 C454 1.384 . S
C453 C452 1.377 . S
C453 C459 1.390 . S
C454 H445 0.930 . S
C454 C452 1.384 . S
C454 C455 1.372 . S
C455 C454 1.372 . S
C455 C456 1.400 . S
C455 C460 1.490 . S
C456 H446 0.930 . S
C456 C455 1.400 . S
C456 C459 1.386 . S
H457 C473 0.930 . S
H458 C474 0.931 . S
C459 H447 0.929 . S
C459 C453 1.390 . S
C459 C456 1.386 . S
C460 C455 1.490 . S
C460 C462 1.395 . S
C460 C463 1.403 . S
H461 C467 0.930 . S
C462 H448 0.930 . S
C462 C460 1.395 . S
C462 C465 1.403 . S
C463 C460 1.403 . S
C463 C464 1.524 . S
C463 C467 1.400 . S
C464 H449 0.960 . S
C464 H450 0.960 . S
C464 H451 0.960 . S
C464 C463 1.524 . S
C465 C462 1.403 . S
C465 C466 1.392 . S
C465 C469 1.495 . S
C466 C465 1.392 . S
C466 C467 1.385 . S
C466 C468 1.478 . S
C467 H461 0.930 . S
C467 C463 1.400 . S
C467 C466 1.385 . S
C468 C466 1.478 . S
C468 C470 1.381 . S
C468 C474 1.383 . S
C469 C465 1.495 . S
C469 H475 0.959 . S
C469 H476 0.961 . S
C469 H477 0.960 . S
C470 C468 1.381 . S
C470 C471 1.394 . S
C470 H478 0.930 . S
C471 C470 1.394 . S
C471 C472 1.383 . S
C471 H479 0.929 . S
C472 C471 1.383 . S
C472 C473 1.377 . S
C473 H457 0.930 . S
C473 C472 1.377 . S
C473 C474 1.379 . S
C474 H458 0.931 . S
C474 C468 1.383 . S
C474 C473 1.379 . S
H475 C469 0.959 . S
H476 C469 0.961 . S
H477 C469 0.960 . S
H478 C470 0.930 . S
H479 C471 0.929 . S
H480 C488 0.929 . S
H481 C490 0.930 . S
H482 C492 0.930 . S
H483 C495 0.929 . S
H484 C498 0.930 . S
H485 C500 0.960 . S
H486 C500 0.960 . S
H487 C500 0.960 . S
C488 H480 0.929 . S
C488 C489 1.377 . S
C488 C490 1.384 . S
C489 C488 1.377 . S
C489 C495 1.390 . S
C490 H481 0.930 . S
C490 C488 1.384 . S
C490 C491 1.372 . S
C491 C490 1.372 . S
C491 C492 1.400 . S
C491 C496 1.490 . S
C492 H482 0.930 . S
C492 C491 1.400 . S
C492 C495 1.386 . S
H493 C509 0.930 . S
H494 C510 0.931 . S
C495 H483 0.929 . S
C495 C489 1.390 . S
C495 C492 1.386 . S
C496 C491 1.490 . S
C496 C498 1.395 . S
C496 C499 1.403 . S
H497 C503 0.930 . S
C498 H484 0.930 . S
C498 C496 1.395 . S
C498 C501 1.403 . S
C499 C496 1.403 . S
C499 C500 1.524 . S
C499 C503 1.400 . S
C500 H485 0.960 . S
C500 H486 0.960 . S
C500 H487 0.960 . S
C500 C499 1.524 . S
C501 C498 1.403 . S
C501 C502 1.392 . S
C501 C505 1.495 . S
C502 C501 1.392 . S
C502 C503 1.385 . S
C502 C504 1.478 . S
C503 H497 0.930 . S
C503 C499 1.400 . S
C503 C502 1.385 . S
C504 C502 1.478 . S
C504 C506 1.381 . S
C504 C510 1.383 . S
C505 C501 1.495 . S
C505 H511 0.959 . S
C505 H512 0.961 . S
C505 H513 0.960 . S
C506 C504 1.381 . S
C506 C507 1.394 . S
C506 H514 0.930 . S
C507 C506 1.394 . S
C507 C508 1.383 . S
C507 H515 0.929 . S
C508 C507 1.383 . S
C508 C509 1.377 . S
C509 H493 0.930 . S
C509 C508 1.377 . S
C509 C510 1.379 . S
C510 H494 0.931 . S
C510 C504 1.383 . S
C510 C509 1.379 . S
H511 C505 0.959 . S
H512 C505 0.961 . S
H513 C505 0.960 . S
H514 C506 0.930 . S
H515 C507 0.929 . S
H516 C524 0.929 . S
H517 C526 0.930 . S
H518 C528 0.930 . S
H519 C531 0.929 . S
H520 C534 0.930 . S
H521 C536 0.960 . S
H522 C536 0.960 . S
H523 C536 0.960 . S
C524 H516 0.929 . S
C524 C525 1.377 . S
C524 C526 1.384 . S
C525 C524 1.377 . S
C525 C531 1.390 . S
C526 H517 0.930 . S
C526 C524 1.384 . S
C526 C527 1.372 . S
C527 C526 1.372 . S
C527 C528 1.400 . S
C527 C532 1.490 . S
C528 H518 0.930 . S
C528 C527 1.400 . S
C528 C531 1.386 . S
H529 C545 0.930 . S
H530 C546 0.931 . S
C531 H519 0.929 . S
C531 C525 1.390 . S
C531 C528 1.386 . S
C532 C527 1.490 . S
C532 C534 1.395 . S
C532 C535 1.403 . S
H533 C539 0.930 . S
C534 H520 0.930 . S
C534 C532 1.395 . S
C534 C537 1.403 . S
C535 C532 1.403 . S
C535 C536 1.524 . S
C535 C539 1.400 . S
C536 H521 0.960 . S
C536 H522 0.960 . S
C536 H523 0.960 . S
C536 C535 1.524 . S
C537 C534 1.403 . S
C537 C538 1.392 . S
C537 C541 1.495 . S
C538 C537 1.392 . S
C538 C539 1.385 . S
C538 C540 1.478 . S
C539 H533 0.930 . S
C539 C535 1.400 . S
C539 C538 1.385 . S
C540 C538 1.478 . S
C540 C542 1.381 . S
C540 C546 1.383 . S
C541 C537 1.495 . S
C541 H547 0.959 . S
C541 H548 0.961 . S
C541 H549 0.960 . S
C542 C540 1.381 . S
C542 C543 1.394 . S
C542 H550 0.930 . S
C543 C542 1.394 . S
C543 C544 1.383 . S
C543 H551 0.929 . S
C544 C543 1.383 . S
C544 C545 1.377 . S
C545 H529 0.930 . S
C545 C544 1.377 . S
C545 C546 1.379 . S
C546 H530 0.931 . S
C546 C540 1.383 . S
C546 C545 1.379 . S
H547 C541 0.959 . S
H548 C541 0.961 . S
H549 C541 0.960 . S
H550 C542 0.930 . S
H551 C543 0.929 . S
H552 C560 0.929 . S
H553 C562 0.930 . S
H554 C564 0.930 . S
H555 C567 0.929 . S
H556 C570 0.930 . S
H557 C572 0.960 . S
H558 C572 0.960 . S
H559 C572 0.960 . S
C560 H552 0.929 . S
C560 C561 1.377 . S
C560 C562 1.384 . S
C561 C560 1.377 . S
C561 C567 1.390 . S
C562 H553 0.930 . S
C562 C560 1.384 . S
C562 C563 1.372 . S
C563 C562 1.372 . S
C563 C564 1.400 . S
C563 C568 1.490 . S
C564 H554 0.930 . S
C564 C563 1.400 . S
C564 C567 1.386 . S
H565 C581 0.930 . S
H566 C582 0.931 . S
C567 H555 0.929 . S
C567 C561 1.390 . S
C567 C564 1.386 . S
C568 C563 1.490 . S
C568 C570 1.395 . S
C568 C571 1.403 . S
H569 C575 0.930 . S
C570 H556 0.930 . S
C570 C568 1.395 . S
C570 C573 1.403 . S
C571 C568 1.403 . S
C571 C572 1.524 . S
C571 C575 1.400 . S
C572 H557 0.960 . S
C572 H558 0.960 . S
C572 H559 0.960 . S
C572 C571 1.524 . S
C573 C570 1.403 . S
C573 C574 1.392 . S
C573 C577 1.495 . S
C574 C573 1.392 . S
C574 C575 1.385 . S
C574 C576 1.478 1_556 S
C575 H569 0.930 . S
C575 C571 1.400 . S
C575 C574 1.385 . S
C576 C574 1.478 1_554 S
C576 C578 1.381 . S
C576 C582 1.383 . S
C577 C573 1.495 . S
C577 H583 0.959 . S
C577 H584 0.961 . S
C577 H585 0.960 . S
C578 C576 1.381 . S
C578 C579 1.394 . S
C578 H586 0.930 . S
C579 C578 1.394 . S
C579 C580 1.383 . S
C579 H587 0.929 . S
C580 C579 1.383 . S
C580 C581 1.377 . S
C581 H565 0.930 . S
C581 C580 1.377 . S
C581 C582 1.379 . S
C582 H566 0.931 . S
C582 C576 1.383 . S
C582 C581 1.379 . S
H583 C577 0.959 . S
H584 C577 0.961 . S
H585 C577 0.960 . S
H586 C578 0.930 . S
H587 C579 0.929 . S
H588 C596 0.929 . S
H589 C598 0.930 . S
H590 C600 0.930 . S
H591 C603 0.929 . S
H592 C606 0.930 . S
H593 C608 0.960 . S
H594 C608 0.960 . S
H595 C608 0.960 . S
C596 H588 0.929 . S
C596 C597 1.377 . S
C596 C598 1.384 . S
C597 C596 1.377 . S
C597 C603 1.390 . S
C598 H589 0.930 . S
C598 C596 1.384 . S
C598 C599 1.372 . S
C599 C598 1.372 . S
C599 C600 1.400 . S
C599 C604 1.490 1_556 S
C600 H590 0.930 . S
C600 C599 1.400 . S
C600 C603 1.386 . S
H601 C617 0.930 . S
H602 C618 0.931 . S
C603 H591 0.929 . S
C603 C597 1.390 . S
C603 C600 1.386 . S
C604 C599 1.490 1_554 S
C604 C606 1.395 . S
C604 C607 1.403 . S
H605 C611 0.930 . S
C606 H592 0.930 . S
C606 C604 1.395 . S
C606 C609 1.403 . S
C607 C604 1.403 . S
C607 C608 1.524 . S
C607 C611 1.400 . S
C608 H593 0.960 . S
C608 H594 0.960 . S
C608 H595 0.960 . S
C608 C607 1.524 . S
C609 C606 1.403 . S
C609 C610 1.392 . S
C609 C613 1.495 . S
C610 C609 1.392 . S
C610 C611 1.385 . S
C610 C612 1.478 . S
C611 H605 0.930 . S
C611 C607 1.400 . S
C611 C610 1.385 . S
C612 C610 1.478 . S
C612 C614 1.381 . S
C612 C618 1.383 . S
C613 C609 1.495 . S
C613 H619 0.959 . S
C613 H620 0.961 . S
C613 H621 0.960 . S
C614 C612 1.381 . S
C614 C615 1.394 . S
C614 H622 0.930 . S
C615 C614 1.394 . S
C615 C616 1.383 . S
C615 H623 0.929 . S
C616 C615 1.383 . S
C616 C617 1.377 . S
C617 H601 0.930 . S
C617 C616 1.377 . S
C617 C618 1.379 . S
C618 H602 0.931 . S
C618 C612 1.383 . S
C618 C617 1.379 . S
H619 C613 0.959 . S
H620 C613 0.961 . S
H621 C613 0.960 . S
H622 C614 0.930 . S
H623 C615 0.929 . S
H624 C632 0.929 . S
H625 C634 0.930 . S
H626 C636 0.930 . S
H627 C639 0.929 . S
H628 C642 0.930 . S
H629 C644 0.960 . S
H630 C644 0.960 . S
H631 C644 0.960 . S
C632 H624 0.929 . S
C632 C633 1.377 . S
C632 C634 1.384 . S
C633 C632 1.377 . S
C633 C639 1.390 . S
C634 H625 0.930 . S
C634 C632 1.384 . S
C634 C635 1.372 . S
C635 C634 1.372 . S
C635 C636 1.400 . S
C635 C640 1.490 . S
C636 H626 0.930 . S
C636 C635 1.400 . S
C636 C639 1.386 . S
H637 C653 0.930 . S
H638 C654 0.931 . S
C639 H627 0.929 . S
C639 C633 1.390 . S
C639 C636 1.386 . S
C640 C635 1.490 . S
C640 C642 1.395 . S
C640 C643 1.403 . S
H641 C647 0.930 . S
C642 H628 0.930 . S
C642 C640 1.395 . S
C642 C645 1.403 . S
C643 C640 1.403 . S
C643 C644 1.524 . S
C643 C647 1.400 . S
C644 H629 0.960 . S
C644 H630 0.960 . S
C644 H631 0.960 . S
C644 C643 1.524 . S
C645 C642 1.403 . S
C645 C646 1.392 . S
C645 C649 1.495 . S
C646 C645 1.392 . S
C646 C647 1.385 . S
C646 C648 1.478 . S
C647 H641 0.930 . S
C647 C643 1.400 . S
C647 C646 1.385 . S
C648 C646 1.478 . S
C648 C650 1.381 . S
C648 C654 1.383 . S
C649 C645 1.495 . S
C649 H655 0.959 . S
C649 H656 0.961 . S
C649 H657 0.960 . S
C650 C648 1.381 . S
C650 C651 1.394 . S
C650 H658 0.930 . S
C651 C650 1.394 . S
C651 C652 1.383 . S
C651 H659 0.929 . S
C652 C651 1.383 . S
C652 C653 1.377 . S
C653 H637 0.930 . S
C653 C652 1.377 . S
C653 C654 1.379 . S
C654 H638 0.931 . S
C654 C648 1.383 . S
C654 C653 1.379 . S
H655 C649 0.959 . S
H656 C649 0.961 . S
H657 C649 0.960 . S
H658 C650 0.930 . S
H659 C651 0.929 . S
H660 C668 0.929 . S
H661 C670 0.930 . S
H662 C672 0.930 . S
H663 C675 0.929 . S
H664 C678 0.930 . S
H665 C680 0.960 . S
H666 C680 0.960 . S
H667 C680 0.960 . S
C668 H660 0.929 . S
C668 C669 1.377 . S
C668 C670 1.384 . S
C669 C668 1.377 . S
C669 C675 1.390 . S
C670 H661 0.930 . S
C670 C668 1.384 . S
C670 C671 1.372 . S
C671 C670 1.372 . S
C671 C672 1.400 . S
C671 C676 1.490 . S
C672 H662 0.930 . S
C672 C671 1.400 . S
C672 C675 1.386 . S
H673 C689 0.930 . S
H674 C690 0.931 . S
C675 H663 0.929 . S
C675 C669 1.390 . S
C675 C672 1.386 . S
C676 C671 1.490 . S
C676 C678 1.395 . S
C676 C679 1.403 . S
H677 C683 0.930 . S
C678 H664 0.930 . S
C678 C676 1.395 . S
C678 C681 1.403 . S
C679 C676 1.403 . S
C679 C680 1.524 . S
C679 C683 1.400 . S
C680 H665 0.960 . S
C680 H666 0.960 . S
C680 H667 0.960 . S
C680 C679 1.524 . S
C681 C678 1.403 . S
C681 C682 1.392 . S
C681 C685 1.495 . S
C682 C681 1.392 . S
C682 C683 1.385 . S
C682 C684 1.478 1_554 S
C683 H677 0.930 . S
C683 C679 1.400 . S
C683 C682 1.385 . S
C684 C682 1.478 1_556 S
C684 C686 1.381 . S
C684 C690 1.383 . S
C685 C681 1.495 . S
C685 H691 0.959 . S
C685 H692 0.961 . S
C685 H693 0.960 . S
C686 C684 1.381 . S
C686 C687 1.394 . S
C686 H694 0.930 . S
C687 C686 1.394 . S
C687 C688 1.383 . S
C687 H695 0.929 . S
C688 C687 1.383 . S
C688 C689 1.377 . S
C689 H673 0.930 . S
C689 C688 1.377 . S
C689 C690 1.379 . S
C690 H674 0.931 . S
C690 C684 1.383 . S
C690 C689 1.379 . S
H691 C685 0.959 . S
H692 C685 0.961 . S
H693 C685 0.960 . S
H694 C686 0.930 . S
H695 C687 0.929 . S
H696 C704 0.929 . S
H697 C706 0.930 . S
H698 C708 0.930 . S
H699 C711 0.929 . S
H700 C714 0.930 . S
H701 C716 0.960 . S
H702 C716 0.960 . S
H703 C716 0.960 . S
C704 H696 0.929 . S
C704 C705 1.377 . S
C704 C706 1.384 . S
C705 C704 1.377 . S
C705 C711 1.390 . S
C706 H697 0.930 . S
C706 C704 1.384 . S
C706 C707 1.372 . S
C707 C706 1.372 . S
C707 C708 1.400 . S
C707 C712 1.490 1_554 S
C708 H698 0.930 . S
C708 C707 1.400 . S
C708 C711 1.386 . S
H709 C725 0.930 . S
H710 C726 0.931 . S
C711 H699 0.929 . S
C711 C705 1.390 . S
C711 C708 1.386 . S
C712 C707 1.490 1_556 S
C712 C714 1.395 . S
C712 C715 1.403 . S
H713 C719 0.930 . S
C714 H700 0.930 . S
C714 C712 1.395 . S
C714 C717 1.403 . S
C715 C712 1.403 . S
C715 C716 1.524 . S
C715 C719 1.400 . S
C716 H701 0.960 . S
C716 H702 0.960 . S
C716 H703 0.960 . S
C716 C715 1.524 . S
C717 C714 1.403 . S
C717 C718 1.392 . S
C717 C721 1.495 . S
C718 C717 1.392 . S
C718 C719 1.385 . S
C718 C720 1.478 . S
C719 H713 0.930 . S
C719 C715 1.400 . S
C719 C718 1.385 . S
C720 C718 1.478 . S
C720 C722 1.381 . S
C720 C726 1.383 . S
C721 C717 1.495 . S
C721 H727 0.959 . S
C721 H728 0.961 . S
C721 H729 0.960 . S
C722 C720 1.381 . S
C722 C723 1.394 . S
C722 H730 0.930 . S
C723 C722 1.394 . S
C723 C724 1.383 . S
C723 H731 0.929 . S
C724 C723 1.383 . S
C724 C725 1.377 . S
C725 H709 0.930 . S
C725 C724 1.377 . S
C725 C726 1.379 . S
C726 H710 0.931 . S
C726 C720 1.383 . S
C726 C725 1.379 . S
H727 C721 0.959 . S
H728 C721 0.961 . S
H729 C721 0.960 . S
H730 C722 0.930 . S
H731 C723 0.929 . S
H732 C740 0.929 . S
H733 C742 0.930 . S
H734 C744 0.930 . S
H735 C747 0.929 . S
H736 C750 0.930 . S
H737 C752 0.960 . S
H738 C752 0.960 . S
H739 C752 0.960 . S
C740 H732 0.929 . S
C740 C741 1.377 . S
C740 C742 1.384 . S
C741 C740 1.377 . S
C741 C747 1.390 . S
C742 H733 0.930 . S
C742 C740 1.384 . S
C742 C743 1.372 . S
C743 C742 1.372 . S
C743 C744 1.400 . S
C743 C748 1.490 . S
C744 H734 0.930 . S
C744 C743 1.400 . S
C744 C747 1.386 . S
H745 C761 0.930 . S
H746 C762 0.931 . S
C747 H735 0.929 . S
C747 C741 1.390 . S
C747 C744 1.386 . S
C748 C743 1.490 . S
C748 C750 1.395 . S
C748 C751 1.403 . S
H749 C755 0.930 . S
C750 H736 0.930 . S
C750 C748 1.395 . S
C750 C753 1.403 . S
C751 C748 1.403 . S
C751 C752 1.524 . S
C751 C755 1.400 . S
C752 H737 0.960 . S
C752 H738 0.960 . S
C752 H739 0.960 . S
C752 C751 1.524 . S
C753 C750 1.403 . S
C753 C754 1.392 . S
C753 C757 1.495 . S
C754 C753 1.392 . S
C754 C755 1.385 . S
C754 C756 1.478 . S
C755 H749 0.930 . S
C755 C751 1.400 . S
C755 C754 1.385 . S
C756 C754 1.478 . S
C756 C758 1.381 . S
C756 C762 1.383 . S
C757 C753 1.495 . S
C757 H763 0.959 . S
C757 H764 0.961 . S
C757 H765 0.960 . S
C758 C756 1.381 . S
C758 C759 1.394 . S
C758 H766 0.930 . S
C759 C758 1.394 . S
C759 C760 1.383 . S
C759 H767 0.929 . S
C760 C759 1.383 . S
C760 C761 1.377 . S
C761 H745 0.930 . S
C761 C760 1.377 . S
C761 C762 1.379 . S
C762 H746 0.931 . S
C762 C756 1.383 . S
C762 C761 1.379 . S
H763 C757 0.959 . S
H764 C757 0.961 . S
H765 C757 0.960 . S
H766 C758 0.930 . S
H767 C759 0.929 . S
H768 C776 0.929 . S
H769 C778 0.930 . S
H770 C780 0.930 . S
H771 C783 0.929 . S
H772 C786 0.930 . S
H773 C788 0.960 . S
H774 C788 0.960 . S
H775 C788 0.960 . S
C776 H768 0.929 . S
C776 C777 1.377 . S
C776 C778 1.384 . S
C777 C776 1.377 . S
C777 C783 1.390 . S
C778 H769 0.930 . S
C778 C776 1.384 . S
C778 C779 1.372 . S
C779 C778 1.372 . S
C779 C780 1.400 . S
C779 C784 1.490 . S
C780 H770 0.930 . S
C780 C779 1.400 . S
C780 C783 1.386 . S
H781 C797 0.930 . S
H782 C798 0.931 . S
C783 H771 0.929 . S
C783 C777 1.390 . S
C783 C780 1.386 . S
C784 C779 1.490 . S
C784 C786 1.395 . S
C784 C787 1.403 . S
H785 C791 0.930 . S
C786 H772 0.930 . S
C786 C784 1.395 . S
C786 C789 1.403 . S
C787 C784 1.403 . S
C787 C788 1.524 . S
C787 C791 1.400 . S
C788 H773 0.960 . S
C788 H774 0.960 . S
C788 H775 0.960 . S
C788 C787 1.524 . S
C789 C786 1.403 . S
C789 C790 1.392 . S
C789 C793 1.495 . S
C790 C789 1.392 . S
C790 C791 1.385 . S
C790 C792 1.478 . S
C791 H785 0.930 . S
C791 C787 1.400 . S
C791 C790 1.385 . S
C792 C790 1.478 . S
C792 C794 1.381 . S
C792 C798 1.383 . S
C793 C789 1.495 . S
C793 H799 0.959 . S
C793 H800 0.961 . S
C793 H801 0.960 . S
C794 C792 1.381 . S
C794 C795 1.394 . S
C794 H802 0.930 . S
C795 C794 1.394 . S
C795 C796 1.383 . S
C795 H803 0.929 . S
C796 C795 1.383 . S
C796 C797 1.377 . S
C797 H781 0.930 . S
C797 C796 1.377 . S
C797 C798 1.379 . S
C798 H782 0.931 . S
C798 C792 1.383 . S
C798 C797 1.379 . S
H799 C793 0.959 . S
H800 C793 0.961 . S
H801 C793 0.960 . S
H802 C794 0.930 . S
H803 C795 0.929 . S
H804 C812 0.929 . S
H805 C814 0.930 . S
H806 C816 0.930 . S
H807 C819 0.929 . S
H808 C822 0.930 . S
H809 C824 0.960 . S
H810 C824 0.960 . S
H811 C824 0.960 . S
C812 H804 0.929 . S
C812 C813 1.377 . S
C812 C814 1.384 . S
C813 C812 1.377 . S
C813 C819 1.390 . S
C814 H805 0.930 . S
C814 C812 1.384 . S
C814 C815 1.372 . S
C815 C814 1.372 . S
C815 C816 1.400 . S
C815 C820 1.490 . S
C816 H806 0.930 . S
C816 C815 1.400 . S
C816 C819 1.386 . S
H817 C833 0.930 . S
H818 C834 0.931 . S
C819 H807 0.929 . S
C819 C813 1.390 . S
C819 C816 1.386 . S
C820 C815 1.490 . S
C820 C822 1.395 . S
C820 C823 1.403 . S
H821 C827 0.930 . S
C822 H808 0.930 . S
C822 C820 1.395 . S
C822 C825 1.403 . S
C823 C820 1.403 . S
C823 C824 1.524 . S
C823 C827 1.400 . S
C824 H809 0.960 . S
C824 H810 0.960 . S
C824 H811 0.960 . S
C824 C823 1.524 . S
C825 C822 1.403 . S
C825 C826 1.392 . S
C825 C829 1.495 . S
C826 C825 1.392 . S
C826 C827 1.385 . S
C826 C828 1.478 . S
C827 H821 0.930 . S
C827 C823 1.400 . S
C827 C826 1.385 . S
C828 C826 1.478 . S
C828 C830 1.381 . S
C828 C834 1.383 . S
C829 C825 1.495 . S
C829 H835 0.959 . S
C829 H836 0.961 . S
C829 H837 0.960 . S
C830 C828 1.381 . S
C830 C831 1.394 . S
C830 H838 0.930 . S
C831 C830 1.394 . S
C831 C832 1.383 . S
C831 H839 0.929 . S
C832 C831 1.383 . S
C832 C833 1.377 . S
C833 H817 0.930 . S
C833 C832 1.377 . S
C833 C834 1.379 . S
C834 H818 0.931 . S
C834 C828 1.383 . S
C834 C833 1.379 . S
H835 C829 0.959 . S
H836 C829 0.961 . S
H837 C829 0.960 . S
H838 C830 0.930 . S
H839 C831 0.929 . S
H840 C848 0.929 . S
H841 C850 0.930 . S
H842 C852 0.930 . S
H843 C855 0.929 . S
H844 C858 0.930 . S
H845 C860 0.960 . S
H846 C860 0.960 . S
H847 C860 0.960 . S
C848 H840 0.929 . S
C848 C849 1.377 . S
C848 C850 1.384 . S
C849 C848 1.377 . S
C849 C855 1.390 . S
C850 H841 0.930 . S
C850 C848 1.384 . S
C850 C851 1.372 . S
C851 C850 1.372 . S
C851 C852 1.400 . S
C851 C856 1.490 . S
C852 H842 0.930 . S
C852 C851 1.400 . S
C852 C855 1.386 . S
H853 C869 0.930 . S
H854 C870 0.931 . S
C855 H843 0.929 . S
C855 C849 1.390 . S
C855 C852 1.386 . S
C856 C851 1.490 . S
C856 C858 1.395 . S
C856 C859 1.403 . S
H857 C863 0.930 . S
C858 H844 0.930 . S
C858 C856 1.395 . S
C858 C861 1.403 . S
C859 C856 1.403 . S
C859 C860 1.524 . S
C859 C863 1.400 . S
C860 H845 0.960 . S
C860 H846 0.960 . S
C860 H847 0.960 . S
C860 C859 1.524 . S
C861 C858 1.403 . S
C861 C862 1.392 . S
C861 C865 1.495 . S
C862 C861 1.392 . S
C862 C863 1.385 . S
C862 C864 1.478 1_554 S
C863 H857 0.930 . S
C863 C859 1.400 . S
C863 C862 1.385 . S
C864 C862 1.478 1_556 S
C864 C866 1.381 . S
C864 C870 1.383 . S
C865 C861 1.495 . S
C865 H871 0.959 . S
C865 H872 0.961 . S
C865 H873 0.960 . S
C866 C864 1.381 . S
C866 C867 1.394 . S
C866 H874 0.930 . S
C867 C866 1.394 . S
C867 C868 1.383 . S
C867 H875 0.929 . S
C868 C867 1.383 . S
C868 C869 1.377 . S
C869 H853 0.930 . S
C869 C868 1.377 . S
C869 C870 1.379 . S
C870 H854 0.931 . S
C870 C864 1.383 . S
C870 C869 1.379 . S
H871 C865 0.959 . S
H872 C865 0.961 . S
H873 C865 0.960 . S
H874 C866 0.930 . S
H875 C867 0.929 . S
H876 C884 0.929 . S
H877 C886 0.930 . S
H878 C888 0.930 . S
H879 C891 0.929 . S
H880 C894 0.930 . S
H881 C896 0.960 . S
H882 C896 0.960 . S
H883 C896 0.960 . S
C884 H876 0.929 . S
C884 C885 1.377 . S
C884 C886 1.384 . S
C885 C884 1.377 . S
C885 C891 1.390 . S
C886 H877 0.930 . S
C886 C884 1.384 . S
C886 C887 1.372 . S
C887 C886 1.372 . S
C887 C888 1.400 . S
C887 C892 1.490 1_554 S
C888 H878 0.930 . S
C888 C887 1.400 . S
C888 C891 1.386 . S
H889 C905 0.930 . S
H890 C906 0.931 . S
C891 H879 0.929 . S
C891 C885 1.390 . S
C891 C888 1.386 . S
C892 C887 1.490 1_556 S
C892 C894 1.395 . S
C892 C895 1.403 . S
H893 C899 0.930 . S
C894 H880 0.930 . S
C894 C892 1.395 . S
C894 C897 1.403 . S
C895 C892 1.403 . S
C895 C896 1.524 . S
C895 C899 1.400 . S
C896 H881 0.960 . S
C896 H882 0.960 . S
C896 H883 0.960 . S
C896 C895 1.524 . S
C897 C894 1.403 . S
C897 C898 1.392 . S
C897 C901 1.495 . S
C898 C897 1.392 . S
C898 C899 1.385 . S
C898 C900 1.478 . S
C899 H893 0.930 . S
C899 C895 1.400 . S
C899 C898 1.385 . S
C900 C898 1.478 . S
C900 C902 1.381 . S
C900 C906 1.383 . S
C901 C897 1.495 . S
C901 H907 0.959 . S
C901 H908 0.961 . S
C901 H909 0.960 . S
C902 C900 1.381 . S
C902 C903 1.394 . S
C902 H910 0.930 . S
C903 C902 1.394 . S
C903 C904 1.383 . S
C903 H911 0.929 . S
C904 C903 1.383 . S
C904 C905 1.377 . S
C905 H889 0.930 . S
C905 C904 1.377 . S
C905 C906 1.379 . S
C906 H890 0.931 . S
C906 C900 1.383 . S
C906 C905 1.379 . S
H907 C901 0.959 . S
H908 C901 0.961 . S
H909 C901 0.960 . S
H910 C902 0.930 . S
H911 C903 0.929 . S
H912 C920 0.929 . S
H913 C922 0.930 . S
H914 C924 0.930 . S
H915 C927 0.929 . S
H916 C930 0.930 . S
H917 C932 0.960 . S
H918 C932 0.960 . S
H919 C932 0.960 . S
C920 H912 0.929 . S
C920 C921 1.377 . S
C920 C922 1.384 . S
C921 C920 1.377 . S
C921 C927 1.390 . S
C922 H913 0.930 . S
C922 C920 1.384 . S
C922 C923 1.372 . S
C923 C922 1.372 . S
C923 C924 1.400 . S
C923 C928 1.490 . S
C924 H914 0.930 . S
C924 C923 1.400 . S
C924 C927 1.386 . S
H925 C941 0.930 . S
H926 C942 0.931 . S
C927 H915 0.929 . S
C927 C921 1.390 . S
C927 C924 1.386 . S
C928 C923 1.490 . S
C928 C930 1.395 . S
C928 C931 1.403 . S
H929 C935 0.930 . S
C930 H916 0.930 . S
C930 C928 1.395 . S
C930 C933 1.403 . S
C931 C928 1.403 . S
C931 C932 1.524 . S
C931 C935 1.400 . S
C932 H917 0.960 . S
C932 H918 0.960 . S
C932 H919 0.960 . S
C932 C931 1.524 . S
C933 C930 1.403 . S
C933 C934 1.392 . S
C933 C937 1.495 1_554 S
C934 C933 1.392 . S
C934 C935 1.385 . S
C934 C936 1.478 . S
C935 H929 0.930 . S
C935 C931 1.400 . S
C935 C934 1.385 . S
C936 C934 1.478 . S
C936 C938 1.381 . S
C936 C942 1.383 . S
C937 C933 1.495 1_556 S
C937 H943 0.959 . S
C937 H944 0.961 . S
C937 H945 0.960 . S
C938 C936 1.381 . S
C938 C939 1.394 . S
C938 H946 0.930 . S
C939 C938 1.394 . S
C939 C940 1.383 . S
C939 H947 0.929 . S
C940 C939 1.383 . S
C940 C941 1.377 . S
C941 H925 0.930 . S
C941 C940 1.377 . S
C941 C942 1.379 . S
C942 H926 0.931 . S
C942 C936 1.383 . S
C942 C941 1.379 . S
H943 C937 0.959 . S
H944 C937 0.961 . S
H945 C937 0.960 . S
H946 C938 0.930 . S
H947 C939 0.929 . S
H948 C956 0.929 . S
H949 C958 0.930 . S
H950 C960 0.930 . S
H951 C963 0.929 . S
H952 C966 0.930 . S
H953 C968 0.960 . S
H954 C968 0.960 . S
H955 C968 0.960 . S
C956 H948 0.929 . S
C956 C957 1.377 . S
C956 C958 1.384 . S
C957 C956 1.377 . S
C957 C963 1.390 . S
C958 H949 0.930 . S
C958 C956 1.384 . S
C958 C959 1.372 . S
C959 C958 1.372 . S
C959 C960 1.400 . S
C959 C964 1.490 . S
C960 H950 0.930 . S
C960 C959 1.400 . S
C960 C963 1.386 . S
H961 C977 0.930 . S
H962 C978 0.931 . S
C963 H951 0.929 . S
C963 C957 1.390 . S
C963 C960 1.386 . S
C964 C959 1.490 . S
C964 C966 1.395 . S
C964 C967 1.403 . S
H965 C971 0.930 . S
C966 H952 0.930 . S
C966 C964 1.395 . S
C966 C969 1.403 . S
C967 C964 1.403 . S
C967 C968 1.524 . S
C967 C971 1.400 . S
C968 H953 0.960 . S
C968 H954 0.960 . S
C968 H955 0.960 . S
C968 C967 1.524 . S
C969 C966 1.403 . S
C969 C970 1.392 . S
C969 C973 1.495 . S
C970 C969 1.392 . S
C970 C971 1.385 . S
C970 C972 1.478 . S
C971 H965 0.930 . S
C971 C967 1.400 . S
C971 C970 1.385 . S
C972 C970 1.478 . S
C972 C974 1.381 . S
C972 C978 1.383 . S
C973 C969 1.495 . S
C973 H979 0.959 . S
C973 H980 0.961 . S
C973 H981 0.960 . S
C974 C972 1.381 . S
C974 C975 1.394 . S
C974 H982 0.930 . S
C975 C974 1.394 . S
C975 C976 1.383 . S
C975 H983 0.929 . S
C976 C975 1.383 . S
C976 C977 1.377 . S
C977 H961 0.930 . S
C977 C976 1.377 . S
C977 C978 1.379 . S
C978 H962 0.931 . S
C978 C972 1.383 . S
C978 C977 1.379 . S
H979 C973 0.959 . S
H980 C973 0.961 . S
H981 C973 0.960 . S
H982 C974 0.930 . S
H983 C975 0.929 . S
H984 C992 0.929 . S
H985 C994 0.930 . S
H986 C996 0.930 . S
H987 C999 0.929 . S
H988 C1002 0.930 . S
H989 C1004 0.960 . S
H990 C1004 0.960 . S
H991 C1004 0.960 . S
C992 H984 0.929 . S
C992 C993 1.377 . S
C992 C994 1.384 . S
C993 C992 1.377 . S
C993 C999 1.390 . S
C994 H985 0.930 . S
C994 C992 1.384 . S
C994 C995 1.372 . S
C995 C994 1.372 . S
C995 C996 1.400 . S
C995 C1000 1.490 . S
C996 H986 0.930 . S
C996 C995 1.400 . S
C996 C999 1.386 . S
H997 C1013 0.930 . S
H998 C1014 0.931 . S
C999 H987 0.929 . S
C999 C993 1.390 . S
C999 C996 1.386 . S
C1000 C995 1.490 . S
C1000 C1002 1.395 . S
C1000 C1003 1.403 . S
H1001 C1007 0.930 . S
C1002 H988 0.930 . S
C1002 C1000 1.395 . S
C1002 C1005 1.403 . S
C1003 C1000 1.403 . S
C1003 C1004 1.524 . S
C1003 C1007 1.400 . S
C1004 H989 0.960 . S
C1004 H990 0.960 . S
C1004 H991 0.960 . S
C1004 C1003 1.524 . S
C1005 C1002 1.403 . S
C1005 C1006 1.392 . S
C1005 C1009 1.495 . S
C1006 C1005 1.392 . S
C1006 C1007 1.385 . S
C1006 C1008 1.478 . S
C1007 H1001 0.930 . S
C1007 C1003 1.400 . S
C1007 C1006 1.385 . S
C1008 C1006 1.478 . S
C1008 C1010 1.381 . S
C1008 C1014 1.383 . S
C1009 C1005 1.495 . S
C1009 H1015 0.959 . S
C1009 H1016 0.961 . S
C1009 H1017 0.960 . S
C1010 C1008 1.381 . S
C1010 C1011 1.394 . S
C1010 H1018 0.930 . S
C1011 C1010 1.394 . S
C1011 C1012 1.383 . S
C1011 H1019 0.929 . S
C1012 C1011 1.383 . S
C1012 C1013 1.377 . S
C1013 H997 0.930 . S
C1013 C1012 1.377 . S
C1013 C1014 1.379 . S
C1014 H998 0.931 . S
C1014 C1008 1.383 . S
C1014 C1013 1.379 . S
H1015 C1009 0.959 . S
H1016 C1009 0.961 . S
H1017 C1009 0.960 . S
H1018 C1010 0.930 . S
H1019 C1011 0.929 . S
H1020 C1028 0.929 . S
H1021 C1030 0.930 . S
H1022 C1032 0.930 . S
H1023 C1035 0.929 . S
H1024 C1038 0.930 . S
H1025 C1040 0.960 . S
H1026 C1040 0.960 . S
H1027 C1040 0.960 . S
C1028 H1020 0.929 . S
C1028 C1029 1.377 . S
C1028 C1030 1.384 . S
C1029 C1028 1.377 . S
C1029 C1035 1.390 . S
C1030 H1021 0.930 . S
C1030 C1028 1.384 . S
C1030 C1031 1.372 . S
C1031 C1030 1.372 . S
C1031 C1032 1.400 . S
C1031 C1036 1.490 . S
C1032 H1022 0.930 . S
C1032 C1031 1.400 . S
C1032 C1035 1.386 . S
H1033 C1049 0.930 . S
H1034 C1050 0.931 . S
C1035 H1023 0.929 . S
C1035 C1029 1.390 . S
C1035 C1032 1.386 . S
C1036 C1031 1.490 . S
C1036 C1038 1.395 . S
C1036 C1039 1.403 . S
H1037 C1043 0.930 . S
C1038 H1024 0.930 . S
C1038 C1036 1.395 . S
C1038 C1041 1.403 1_655 S
C1039 C1036 1.403 . S
C1039 C1040 1.524 . S
C1039 C1043 1.400 1_655 S
C1040 H1025 0.960 . S
C1040 H1026 0.960 . S
C1040 H1027 0.960 . S
C1040 C1039 1.524 . S
C1041 C1038 1.403 1_455 S
C1041 C1042 1.392 . S
C1041 C1045 1.495 . S
C1042 C1041 1.392 . S
C1042 C1043 1.385 . S
C1042 C1044 1.478 . S
C1043 H1037 0.930 . S
C1043 C1039 1.400 1_455 S
C1043 C1042 1.385 . S
C1044 C1042 1.478 . S
C1044 C1046 1.381 . S
C1044 C1050 1.383 . S
C1045 C1041 1.495 . S
C1045 H1051 0.959 . S
C1045 H1052 0.961 . S
C1045 H1053 0.960 . S
C1046 C1044 1.381 . S
C1046 C1047 1.394 . S
C1046 H1054 0.930 . S
C1047 C1046 1.394 . S
C1047 C1048 1.383 . S
C1047 H1055 0.929 . S
C1048 C1047 1.383 . S
C1048 C1049 1.377 . S
C1049 H1033 0.930 . S
C1049 C1048 1.377 . S
C1049 C1050 1.379 . S
C1050 H1034 0.931 . S
C1050 C1044 1.383 . S
C1050 C1049 1.379 . S
H1051 C1045 0.959 . S
H1052 C1045 0.961 . S
H1053 C1045 0.960 . S
H1054 C1046 0.930 . S
H1055 C1047 0.929 . S
H1056 C1064 0.929 . S
H1057 C1066 0.930 . S
H1058 C1068 0.930 . S
H1059 C1071 0.929 . S
H1060 C1074 0.930 . S
H1061 C1076 0.960 . S
H1062 C1076 0.960 . S
H1063 C1076 0.960 . S
C1064 H1056 0.929 . S
C1064 C1065 1.377 . S
C1064 C1066 1.384 . S
C1065 C1064 1.377 . S
C1065 C1071 1.390 . S
C1066 H1057 0.930 . S
C1066 C1064 1.384 . S
C1066 C1067 1.372 . S
C1067 C1066 1.372 . S
C1067 C1068 1.400 . S
C1067 C1072 1.490 . S
C1068 H1058 0.930 . S
C1068 C1067 1.400 . S
C1068 C1071 1.386 . S
H1069 C1085 0.930 . S
H1070 C1086 0.931 . S
C1071 H1059 0.929 . S
C1071 C1065 1.390 . S
C1071 C1068 1.386 . S
C1072 C1067 1.490 . S
C1072 C1074 1.395 . S
C1072 C1075 1.403 . S
H1073 C1079 0.930 . S
C1074 H1060 0.930 . S
C1074 C1072 1.395 . S
C1074 C1077 1.403 . S
C1075 C1072 1.403 . S
C1075 C1076 1.524 . S
C1075 C1079 1.400 . S
C1076 H1061 0.960 . S
C1076 H1062 0.960 . S
C1076 H1063 0.960 . S
C1076 C1075 1.524 . S
C1077 C1074 1.403 . S
C1077 C1078 1.392 . S
C1077 C1081 1.495 . S
C1078 C1077 1.392 . S
C1078 C1079 1.385 . S
C1078 C1080 1.478 . S
C1079 H1073 0.930 . S
C1079 C1075 1.400 . S
C1079 C1078 1.385 . S
C1080 C1078 1.478 . S
C1080 C1082 1.381 . S
C1080 C1086 1.383 . S
C1081 C1077 1.495 . S
C1081 H1087 0.959 1_556 S
C1081 H1088 0.961 1_556 S
C1081 H1089 0.960 . S
C1082 C1080 1.381 . S
C1082 C1083 1.394 . S
C1082 H1090 0.930 . S
C1083 C1082 1.394 . S
C1083 C1084 1.383 . S
C1083 H1091 0.929 . S
C1084 C1083 1.383 . S
C1084 C1085 1.377 . S
C1085 H1069 0.930 . S
C1085 C1084 1.377 . S
C1085 C1086 1.379 . S
C1086 H1070 0.931 . S
C1086 C1080 1.383 . S
C1086 C1085 1.379 . S
H1087 C1081 0.959 1_554 S
H1088 C1081 0.961 1_554 S
H1089 C1081 0.960 . S
H1090 C1082 0.930 . S
H1091 C1083 0.929 . S
H1092 C1100 0.929 . S
H1093 C1102 0.930 . S
H1094 C1104 0.930 . S
H1095 C1107 0.929 . S
H1096 C1110 0.930 . S
H1097 C1112 0.960 . S
H1098 C1112 0.960 . S
H1099 C1112 0.960 . S
C1100 H1092 0.929 . S
C1100 C1101 1.377 . S
C1100 C1102 1.384 . S
C1101 C1100 1.377 . S
C1101 C1107 1.390 . S
C1102 H1093 0.930 . S
C1102 C1100 1.384 . S
C1102 C1103 1.372 . S
C1103 C1102 1.372 . S
C1103 C1104 1.400 . S
C1103 C1108 1.490 . S
C1104 H1094 0.930 . S
C1104 C1103 1.400 . S
C1104 C1107 1.386 . S
H1105 C1121 0.930 . S
H1106 C1122 0.931 . S
C1107 H1095 0.929 . S
C1107 C1101 1.390 . S
C1107 C1104 1.386 . S
C1108 C1103 1.490 . S
C1108 C1110 1.395 . S
C1108 C1111 1.403 . S
H1109 C1115 0.930 . S
C1110 H1096 0.930 . S
C1110 C1108 1.395 . S
C1110 C1113 1.403 1_455 S
C1111 C1108 1.403 . S
C1111 C1112 1.524 . S
C1111 C1115 1.400 1_455 S
C1112 H1097 0.960 . S
C1112 H1098 0.960 . S
C1112 H1099 0.960 . S
C1112 C1111 1.524 . S
C1113 C1110 1.403 1_655 S
C1113 C1114 1.392 . S
C1113 C1117 1.495 . S
C1114 C1113 1.392 . S
C1114 C1115 1.385 . S
C1114 C1116 1.478 . S
C1115 H1109 0.930 . S
C1115 C1111 1.400 1_655 S
C1115 C1114 1.385 . S
C1116 C1114 1.478 . S
C1116 C1118 1.381 . S
C1116 C1122 1.383 . S
C1117 C1113 1.495 . S
C1117 H1123 0.959 . S
C1117 H1124 0.961 . S
C1117 H1125 0.960 . S
C1118 C1116 1.381 . S
C1118 C1119 1.394 . S
C1118 H1126 0.930 . S
C1119 C1118 1.394 . S
C1119 C1120 1.383 . S
C1119 H1127 0.929 . S
C1120 C1119 1.383 . S
C1120 C1121 1.377 . S
C1121 H1105 0.930 . S
C1121 C1120 1.377 . S
C1121 C1122 1.379 . S
C1122 H1106 0.931 . S
C1122 C1116 1.383 . S
C1122 C1121 1.379 . S
H1123 C1117 0.959 . S
H1124 C1117 0.961 . S
H1125 C1117 0.960 . S
H1126 C1118 0.930 . S
H1127 C1119 0.929 . S
H1128 C1136 0.929 . S
H1129 C1138 0.930 . S
H1130 C1140 0.930 . S
H1131 C1143 0.929 . S
H1132 C1146 0.930 . S
H1133 C1148 0.960 . S
H1134 C1148 0.960 . S
H1135 C1148 0.960 . S
C1136 H1128 0.929 . S
C1136 C1137 1.377 . S
C1136 C1138 1.384 . S
C1137 C1136 1.377 . S
C1137 C1143 1.390 . S
C1138 H1129 0.930 . S
C1138 C1136 1.384 . S
C1138 C1139 1.372 . S
C1139 C1138 1.372 . S
C1139 C1140 1.400 . S
C1139 C1144 1.490 . S
C1140 H1130 0.930 . S
C1140 C1139 1.400 . S
C1140 C1143 1.386 . S
H1141 C1157 0.930 . S
H1142 C1158 0.931 . S
C1143 H1131 0.929 . S
C1143 C1137 1.390 . S
C1143 C1140 1.386 . S
C1144 C1139 1.490 . S
C1144 C1146 1.395 . S
C1144 C1147 1.403 . S
H1145 C1151 0.930 . S
C1146 H1132 0.930 . S
C1146 C1144 1.395 . S
C1146 C1149 1.403 . S
C1147 C1144 1.403 . S
C1147 C1148 1.524 . S
C1147 C1151 1.400 . S
C1148 H1133 0.960 . S
C1148 H1134 0.960 . S
C1148 H1135 0.960 . S
C1148 C1147 1.524 . S
C1149 C1146 1.403 . S
C1149 C1150 1.392 . S
C1149 C1153 1.495 . S
C1150 C1149 1.392 . S
C1150 C1151 1.385 . S
C1150 C1152 1.478 . S
C1151 H1145 0.930 . S
C1151 C1147 1.400 . S
C1151 C1150 1.385 . S
C1152 C1150 1.478 . S
C1152 C1154 1.381 . S
C1152 C1158 1.383 . S
C1153 C1149 1.495 . S
C1153 H1159 0.959 . S
C1153 H1160 0.961 . S
C1153 H1161 0.960 . S
C1154 C1152 1.381 . S
C1154 C1155 1.394 . S
C1154 H1162 0.930 . S
C1155 C1154 1.394 . S
C1155 C1156 1.383 . S
C1155 H1163 0.929 . S
C1156 C1155 1.383 . S
C1156 C1157 1.377 . S
C1157 H1141 0.930 . S
C1157 C1156 1.377 . S
C1157 C1158 1.379 . S
C1158 H1142 0.931 . S
C1158 C1152 1.383 . S
C1158 C1157 1.379 . S
H1159 C1153 0.959 . S
H1160 C1153 0.961 . S
H1161 C1153 0.960 . S
H1162 C1154 0.930 . S
H1163 C1155 0.929 . S
H1164 C1172 0.929 . S
H1165 C1174 0.930 . S
H1166 C1176 0.930 . S
H1167 C1179 0.929 . S
H1168 C1182 0.930 . S
H1169 C1184 0.960 . S
H1170 C1184 0.960 . S
H1171 C1184 0.960 . S
C1172 H1164 0.929 . S
C1172 C1173 1.377 . S
C1172 C1174 1.384 . S
C1173 C1172 1.377 . S
C1173 C1179 1.390 . S
C1174 H1165 0.930 . S
C1174 C1172 1.384 . S
C1174 C1175 1.372 . S
C1175 C1174 1.372 . S
C1175 C1176 1.400 . S
C1175 C1180 1.490 . S
C1176 H1166 0.930 . S
C1176 C1175 1.400 . S
C1176 C1179 1.386 . S
H1177 C1193 0.930 . S
H1178 C1194 0.931 . S
C1179 H1167 0.929 . S
C1179 C1173 1.390 . S
C1179 C1176 1.386 . S
C1180 C1175 1.490 . S
C1180 C1182 1.395 . S
C1180 C1183 1.403 . S
H1181 C1187 0.930 . S
C1182 H1168 0.930 . S
C1182 C1180 1.395 . S
C1182 C1185 1.403 . S
C1183 C1180 1.403 . S
C1183 C1184 1.524 . S
C1183 C1187 1.400 . S
C1184 H1169 0.960 . S
C1184 H1170 0.960 . S
C1184 H1171 0.960 . S
C1184 C1183 1.524 . S
C1185 C1182 1.403 . S
C1185 C1186 1.392 . S
C1185 C1189 1.495 . S
C1186 C1185 1.392 . S
C1186 C1187 1.385 . S
C1186 C1188 1.478 . S
C1187 H1181 0.930 . S
C1187 C1183 1.400 . S
C1187 C1186 1.385 . S
C1188 C1186 1.478 . S
C1188 C1190 1.381 . S
C1188 C1194 1.383 . S
C1189 C1185 1.495 . S
C1189 H1195 0.959 . S
C1189 H1196 0.961 . S
C1189 H1197 0.960 . S
C1190 C1188 1.381 . S
C1190 C1191 1.394 . S
C1190 H1198 0.930 . S
C1191 C1190 1.394 . S
C1191 C1192 1.383 . S
C1191 H1199 0.929 . S
C1192 C1191 1.383 . S
C1192 C1193 1.377 . S
C1193 H1177 0.930 . S
C1193 C1192 1.377 . S
C1193 C1194 1.379 . S
C1194 H1178 0.931 . S
C1194 C1188 1.383 . S
C1194 C1193 1.379 . S
H1195 C1189 0.959 . S
H1196 C1189 0.961 . S
H1197 C1189 0.960 . S
H1198 C1190 0.930 . S
H1199 C1191 0.929 . S
H1200 C1208 0.929 . S
H1201 C1210 0.930 . S
H1202 C1212 0.930 . S
H1203 C1215 0.929 . S
H1204 C1218 0.930 . S
H1205 C1220 0.960 . S
H1206 C1220 0.960 . S
H1207 C1220 0.960 . S
C1208 H1200 0.929 . S
C1208 C1209 1.377 . S
C1208 C1210 1.384 . S
C1209 C1208 1.377 . S
C1209 C1215 1.390 . S
C1210 H1201 0.930 . S
C1210 C1208 1.384 . S
C1210 C1211 1.372 . S
C1211 C1210 1.372 . S
C1211 C1212 1.400 . S
C1211 C1216 1.490 . S
C1212 H1202 0.930 . S
C1212 C1211 1.400 . S
C1212 C1215 1.386 . S
H1213 C1229 0.930 . S
H1214 C1230 0.931 . S
C1215 H1203 0.929 . S
C1215 C1209 1.390 . S
C1215 C1212 1.386 . S
C1216 C1211 1.490 . S
C1216 C1218 1.395 . S
C1216 C1219 1.403 . S
H1217 C1223 0.930 . S
C1218 H1204 0.930 . S
C1218 C1216 1.395 . S
C1218 C1221 1.403 . S
C1219 C1216 1.403 . S
C1219 C1220 1.524 . S
C1219 C1223 1.400 . S
C1220 H1205 0.960 . S
C1220 H1206 0.960 . S
C1220 H1207 0.960 . S
C1220 C1219 1.524 . S
C1221 C1218 1.403 . S
C1221 C1222 1.392 . S
C1221 C1225 1.495 . S
C1222 C1221 1.392 . S
C1222 C1223 1.385 . S
C1222 C1224 1.478 . S
C1223 H1217 0.930 . S
C1223 C1219 1.400 . S
C1223 C1222 1.385 . S
C1224 C1222 1.478 . S
C1224 C1226 1.381 . S
C1224 C1230 1.383 . S
C1225 C1221 1.495 . S
C1225 H1231 0.959 . S
C1225 H1232 0.961 . S
C1225 H1233 0.960 . S
C1226 C1224 1.381 . S
C1226 C1227 1.394 . S
C1226 H1234 0.930 . S
C1227 C1226 1.394 . S
C1227 C1228 1.383 . S
C1227 H1235 0.929 . S
C1228 C1227 1.383 . S
C1228 C1229 1.377 . S
C1229 H1213 0.930 . S
C1229 C1228 1.377 . S
C1229 C1230 1.379 . S
C1230 H1214 0.931 . S
C1230 C1224 1.383 . S
C1230 C1229 1.379 . S
H1231 C1225 0.959 . S
H1232 C1225 0.961 . S
H1233 C1225 0.960 . S
H1234 C1226 0.930 . S
H1235 C1227 0.929 . S
H1236 C1244 0.929 . S
H1237 C1246 0.930 . S
H1238 C1248 0.930 . S
H1239 C1251 0.929 . S
H1240 C1254 0.930 . S
H1241 C1256 0.960 . S
H1242 C1256 0.960 . S
H1243 C1256 0.960 . S
C1244 H1236 0.929 . S
C1244 C1245 1.377 . S
C1244 C1246 1.384 . S
C1245 C1244 1.377 . S
C1245 C1251 1.390 . S
C1246 H1237 0.930 . S
C1246 C1244 1.384 . S
C1246 C1247 1.372 . S
C1247 C1246 1.372 . S
C1247 C1248 1.400 . S
C1247 C1252 1.490 . S
C1248 H1238 0.930 . S
C1248 C1247 1.400 . S
C1248 C1251 1.386 . S
H1249 C1265 0.930 . S
H1250 C1266 0.931 . S
C1251 H1239 0.929 . S
C1251 C1245 1.390 . S
C1251 C1248 1.386 . S
C1252 C1247 1.490 . S
C1252 C1254 1.395 . S
C1252 C1255 1.403 . S
H1253 C1259 0.930 . S
C1254 H1240 0.930 . S
C1254 C1252 1.395 . S
C1254 C1257 1.403 . S
C1255 C1252 1.403 . S
C1255 C1256 1.524 . S
C1255 C1259 1.400 . S
C1256 H1241 0.960 . S
C1256 H1242 0.960 . S
C1256 H1243 0.960 . S
C1256 C1255 1.524 . S
C1257 C1254 1.403 . S
C1257 C1258 1.392 . S
C1257 C1261 1.495 . S
C1258 C1257 1.392 . S
C1258 C1259 1.385 . S
C1258 C1260 1.478 . S
C1259 H1253 0.930 . S
C1259 C1255 1.400 . S
C1259 C1258 1.385 . S
C1260 C1258 1.478 . S
C1260 C1262 1.381 . S
C1260 C1266 1.383 . S
C1261 C1257 1.495 . S
C1261 H1267 0.959 . S
C1261 H1268 0.961 . S
C1261 H1269 0.960 . S
C1262 C1260 1.381 . S
C1262 C1263 1.394 . S
C1262 H1270 0.930 . S
C1263 C1262 1.394 . S
C1263 C1264 1.383 . S
C1263 H1271 0.929 . S
C1264 C1263 1.383 . S
C1264 C1265 1.377 . S
C1265 H1249 0.930 . S
C1265 C1264 1.377 . S
C1265 C1266 1.379 . S
C1266 H1250 0.931 . S
C1266 C1260 1.383 . S
C1266 C1265 1.379 . S
H1267 C1261 0.959 . S
H1268 C1261 0.961 . S
H1269 C1261 0.960 . S
H1270 C1262 0.930 . S
H1271 C1263 0.929 . S
H1272 C1280 0.929 . S
H1273 C1282 0.930 . S
H1274 C1284 0.930 . S
H1275 C1287 0.929 . S
H1276 C1290 0.930 . S
H1277 C1292 0.960 . S
H1278 C1292 0.960 1_556 S
H1279 C1292 0.960 . S
C1280 H1272 0.929 . S
C1280 C1281 1.377 . S
C1280 C1282 1.384 . S
C1281 C1280 1.377 . S
C1281 C1287 1.390 . S
C1282 H1273 0.930 . S
C1282 C1280 1.384 . S
C1282 C1283 1.372 . S
C1283 C1282 1.372 . S
C1283 C1284 1.400 . S
C1283 C1288 1.490 . S
C1284 H1274 0.930 . S
C1284 C1283 1.400 . S
C1284 C1287 1.386 . S
H1285 C1301 0.930 . S
H1286 C1302 0.931 . S
C1287 H1275 0.929 . S
C1287 C1281 1.390 . S
C1287 C1284 1.386 . S
C1288 C1283 1.490 . S
C1288 C1290 1.395 . S
C1288 C1291 1.403 . S
H1289 C1295 0.930 . S
C1290 H1276 0.930 . S
C1290 C1288 1.395 . S
C1290 C1293 1.403 . S
C1291 C1288 1.403 . S
C1291 C1292 1.524 . S
C1291 C1295 1.400 . S
C1292 H1277 0.960 . S
C1292 H1278 0.960 1_554 S
C1292 H1279 0.960 . S
C1292 C1291 1.524 . S
C1293 C1290 1.403 . S
C1293 C1294 1.392 . S
C1293 C1297 1.495 . S
C1294 C1293 1.392 . S
C1294 C1295 1.385 . S
C1294 C1296 1.478 . S
C1295 H1289 0.930 . S
C1295 C1291 1.400 . S
C1295 C1294 1.385 . S
C1296 C1294 1.478 . S
C1296 C1298 1.381 . S
C1296 C1302 1.383 . S
C1297 C1293 1.495 . S
C1297 H1303 0.959 . S
C1297 H1304 0.961 . S
C1297 H1305 0.960 . S
C1298 C1296 1.381 . S
C1298 C1299 1.394 . S
C1298 H1306 0.930 . S
C1299 C1298 1.394 . S
C1299 C1300 1.383 . S
C1299 H1307 0.929 . S
C1300 C1299 1.383 . S
C1300 C1301 1.377 . S
C1301 H1285 0.930 . S
C1301 C1300 1.377 . S
C1301 C1302 1.379 . S
C1302 H1286 0.931 . S
C1302 C1296 1.383 . S
C1302 C1301 1.379 . S
H1303 C1297 0.959 . S
H1304 C1297 0.961 . S
H1305 C1297 0.960 . S
H1306 C1298 0.930 . S
H1307 C1299 0.929 . S
H1308 C1316 0.929 . S
H1309 C1318 0.930 . S
H1310 C1320 0.930 . S
H1311 C1323 0.929 . S
H1312 C1326 0.930 . S
H1313 C1328 0.960 . S
H1314 C1328 0.960 . S
H1315 C1328 0.960 . S
C1316 H1308 0.929 . S
C1316 C1317 1.377 . S
C1316 C1318 1.384 . S
C1317 C1316 1.377 . S
C1317 C1323 1.390 . S
C1318 H1309 0.930 . S
C1318 C1316 1.384 . S
C1318 C1319 1.372 . S
C1319 C1318 1.372 . S
C1319 C1320 1.400 . S
C1319 C1324 1.490 . S
C1320 H1310 0.930 . S
C1320 C1319 1.400 . S
C1320 C1323 1.386 . S
H1321 C1337 0.930 . S
H1322 C1338 0.931 . S
C1323 H1311 0.929 . S
C1323 C1317 1.390 . S
C1323 C1320 1.386 . S
C1324 C1319 1.490 . S
C1324 C1326 1.395 . S
C1324 C1327 1.403 . S
H1325 C1331 0.930 . S
C1326 H1312 0.930 . S
C1326 C1324 1.395 . S
C1326 C1329 1.403 . S
C1327 C1324 1.403 . S
C1327 C1328 1.524 . S
C1327 C1331 1.400 . S
C1328 H1313 0.960 . S
C1328 H1314 0.960 . S
C1328 H1315 0.960 . S
C1328 C1327 1.524 . S
C1329 C1326 1.403 . S
C1329 C1330 1.392 . S
C1329 C1333 1.495 . S
C1330 C1329 1.392 . S
C1330 C1331 1.385 . S
C1330 C1332 1.478 . S
C1331 H1325 0.930 . S
C1331 C1327 1.400 . S
C1331 C1330 1.385 . S
C1332 C1330 1.478 . S
C1332 C1334 1.381 . S
C1332 C1338 1.383 . S
C1333 C1329 1.495 . S
C1333 H1339 0.959 . S
C1333 H1340 0.961 . S
C1333 H1341 0.960 . S
C1334 C1332 1.381 . S
C1334 C1335 1.394 . S
C1334 H1342 0.930 . S
C1335 C1334 1.394 . S
C1335 C1336 1.383 . S
C1335 H1343 0.929 . S
C1336 C1335 1.383 . S
C1336 C1337 1.377 . S
C1337 H1321 0.930 . S
C1337 C1336 1.377 . S
C1337 C1338 1.379 . S
C1338 H1322 0.931 . S
C1338 C1332 1.383 . S
C1338 C1337 1.379 . S
H1339 C1333 0.959 . S
H1340 C1333 0.961 . S
H1341 C1333 0.960 . S
H1342 C1334 0.930 . S
H1343 C1335 0.929 . S
H1344 C1352 0.929 . S
H1345 C1354 0.930 . S
H1346 C1356 0.930 . S
H1347 C1359 0.929 . S
H1348 C1362 0.930 . S
H1349 C1364 0.960 . S
H1350 C1364 0.960 . S
H1351 C1364 0.960 . S
C1352 H1344 0.929 . S
C1352 C1353 1.377 . S
C1352 C1354 1.384 . S
C1353 C1352 1.377 . S
C1353 C1359 1.390 . S
C1354 H1345 0.930 . S
C1354 C1352 1.384 . S
C1354 C1355 1.372 . S
C1355 C1354 1.372 . S
C1355 C1356 1.400 . S
C1355 C1360 1.490 . S
C1356 H1346 0.930 . S
C1356 C1355 1.400 . S
C1356 C1359 1.386 . S
H1357 C1373 0.930 . S
H1358 C1374 0.931 . S
C1359 H1347 0.929 . S
C1359 C1353 1.390 . S
C1359 C1356 1.386 . S
C1360 C1355 1.490 . S
C1360 C1362 1.395 . S
C1360 C1363 1.403 . S
H1361 C1367 0.930 . S
C1362 H1348 0.930 . S
C1362 C1360 1.395 . S
C1362 C1365 1.403 1_655 S
C1363 C1360 1.403 . S
C1363 C1364 1.524 . S
C1363 C1367 1.400 1_655 S
C1364 H1349 0.960 . S
C1364 H1350 0.960 . S
C1364 H1351 0.960 . S
C1364 C1363 1.524 . S
C1365 C1362 1.403 1_455 S
C1365 C1366 1.392 . S
C1365 C1369 1.495 . S
C1366 C1365 1.392 . S
C1366 C1367 1.385 . S
C1366 C1368 1.478 . S
C1367 H1361 0.930 . S
C1367 C1363 1.400 1_455 S
C1367 C1366 1.385 . S
C1368 C1366 1.478 . S
C1368 C1370 1.381 . S
C1368 C1374 1.383 . S
C1369 C1365 1.495 . S
C1369 H1375 0.959 1_556 S
C1369 H1376 0.961 1_556 S
C1369 H1377 0.960 . S
C1370 C1368 1.381 . S
C1370 C1371 1.394 . S
C1370 H1378 0.930 . S
C1371 C1370 1.394 . S
C1371 C1372 1.383 . S
C1371 H1379 0.929 . S
C1372 C1371 1.383 . S
C1372 C1373 1.377 . S
C1373 H1357 0.930 . S
C1373 C1372 1.377 . S
C1373 C1374 1.379 . S
C1374 H1358 0.931 . S
C1374 C1368 1.383 . S
C1374 C1373 1.379 . S
H1375 C1369 0.959 1_554 S
H1376 C1369 0.961 1_554 S
H1377 C1369 0.960 . S
H1378 C1370 0.930 . S
H1379 C1371 0.929 . S
H1380 C1388 0.929 . S
H1381 C1390 0.930 . S
H1382 C1392 0.930 . S
H1383 C1395 0.929 . S
H1384 C1398 0.930 . S
H1385 C1400 0.960 . S
H1386 C1400 0.960 . S
H1387 C1400 0.960 . S
C1388 H1380 0.929 . S
C1388 C1389 1.377 . S
C1388 C1390 1.384 . S
C1389 C1388 1.377 . S
C1389 C1395 1.390 . S
C1390 H1381 0.930 . S
C1390 C1388 1.384 . S
C1390 C1391 1.372 . S
C1391 C1390 1.372 . S
C1391 C1392 1.400 . S
C1391 C1396 1.490 . S
C1392 H1382 0.930 . S
C1392 C1391 1.400 . S
C1392 C1395 1.386 . S
H1393 C1409 0.930 . S
H1394 C1410 0.931 . S
C1395 H1383 0.929 . S
C1395 C1389 1.390 . S
C1395 C1392 1.386 . S
C1396 C1391 1.490 . S
C1396 C1398 1.395 . S
C1396 C1399 1.403 . S
H1397 C1403 0.930 . S
C1398 H1384 0.930 . S
C1398 C1396 1.395 . S
C1398 C1401 1.403 . S
C1399 C1396 1.403 . S
C1399 C1400 1.524 . S
C1399 C1403 1.400 . S
C1400 H1385 0.960 . S
C1400 H1386 0.960 . S
C1400 H1387 0.960 . S
C1400 C1399 1.524 . S
C1401 C1398 1.403 . S
C1401 C1402 1.392 . S
C1401 C1405 1.495 . S
C1402 C1401 1.392 . S
C1402 C1403 1.385 . S
C1402 C1404 1.478 . S
C1403 H1397 0.930 . S
C1403 C1399 1.400 . S
C1403 C1402 1.385 . S
C1404 C1402 1.478 . S
C1404 C1406 1.381 . S
C1404 C1410 1.383 . S
C1405 C1401 1.495 . S
C1405 H1411 0.959 . S
C1405 H1412 0.961 . S
C1405 H1413 0.960 . S
C1406 C1404 1.381 . S
C1406 C1407 1.394 . S
C1406 H1414 0.930 . S
C1407 C1406 1.394 . S
C1407 C1408 1.383 . S
C1407 H1415 0.929 . S
C1408 C1407 1.383 . S
C1408 C1409 1.377 . S
C1409 H1393 0.930 . S
C1409 C1408 1.377 . S
C1409 C1410 1.379 . S
C1410 H1394 0.931 . S
C1410 C1404 1.383 . S
C1410 C1409 1.379 . S
H1411 C1405 0.959 . S
H1412 C1405 0.961 . S
H1413 C1405 0.960 . S
H1414 C1406 0.930 . S
H1415 C1407 0.929 . S
H1416 C1424 0.929 . S
H1417 C1426 0.930 . S
H1418 C1428 0.930 . S
H1419 C1431 0.929 . S
H1420 C1434 0.930 . S
H1421 C1436 0.960 . S
H1422 C1436 0.960 . S
H1423 C1436 0.960 . S
C1424 H1416 0.929 . S
C1424 C1425 1.377 . S
C1424 C1426 1.384 . S
C1425 C1424 1.377 . S
C1425 C1431 1.390 . S
C1426 H1417 0.930 . S
C1426 C1424 1.384 . S
C1426 C1427 1.372 . S
C1427 C1426 1.372 . S
C1427 C1428 1.400 . S
C1427 C1432 1.490 . S
C1428 H1418 0.930 . S
C1428 C1427 1.400 . S
C1428 C1431 1.386 . S
H1429 C1445 0.930 . S
H1430 C1446 0.931 . S
C1431 H1419 0.929 . S
C1431 C1425 1.390 . S
C1431 C1428 1.386 . S
C1432 C1427 1.490 . S
C1432 C1434 1.395 . S
C1432 C1435 1.403 . S
H1433 C1439 0.930 . S
C1434 H1420 0.930 . S
C1434 C1432 1.395 . S
C1434 C1437 1.403 . S
C1435 C1432 1.403 . S
C1435 C1436 1.524 . S
C1435 C1439 1.400 . S
C1436 H1421 0.960 . S
C1436 H1422 0.960 . S
C1436 H1423 0.960 . S
C1436 C1435 1.524 . S
C1437 C1434 1.403 . S
C1437 C1438 1.392 . S
C1437 C1441 1.495 . S
C1438 C1437 1.392 . S
C1438 C1439 1.385 . S
C1438 C1440 1.478 . S
C1439 H1433 0.930 . S
C1439 C1435 1.400 . S
C1439 C1438 1.385 . S
C1440 C1438 1.478 . S
C1440 C1442 1.381 . S
C1440 C1446 1.383 . S
C1441 C1437 1.495 . S
C1441 H1447 0.959 . S
C1441 H1448 0.961 . S
C1441 H1449 0.960 . S
C1442 C1440 1.381 . S
C1442 C1443 1.394 . S
C1442 H1450 0.930 . S
C1443 C1442 1.394 . S
C1443 C1444 1.383 . S
C1443 H1451 0.929 . S
C1444 C1443 1.383 . S
C1444 C1445 1.377 . S
C1445 H1429 0.930 . S
C1445 C1444 1.377 . S
C1445 C1446 1.379 . S
C1446 H1430 0.931 . S
C1446 C1440 1.383 . S
C1446 C1445 1.379 . S
H1447 C1441 0.959 . S
H1448 C1441 0.961 . S
H1449 C1441 0.960 . S
H1450 C1442 0.930 . S
H1451 C1443 0.929 . S
H1452 C1460 0.929 . S
H1453 C1462 0.930 . S
H1454 C1464 0.930 . S
H1455 C1467 0.929 . S
H1456 C1470 0.930 . S
H1457 C1472 0.960 . S
H1458 C1472 0.960 . S
H1459 C1472 0.960 . S
C1460 H1452 0.929 . S
C1460 C1461 1.377 . S
C1460 C1462 1.384 . S
C1461 C1460 1.377 . S
C1461 C1467 1.390 . S
C1462 H1453 0.930 . S
C1462 C1460 1.384 . S
C1462 C1463 1.372 . S
C1463 C1462 1.372 . S
C1463 C1464 1.400 . S
C1463 C1468 1.490 . S
C1464 H1454 0.930 . S
C1464 C1463 1.400 . S
C1464 C1467 1.386 . S
H1465 C1481 0.930 . S
H1466 C1482 0.931 . S
C1467 H1455 0.929 . S
C1467 C1461 1.390 . S
C1467 C1464 1.386 . S
C1468 C1463 1.490 . S
C1468 C1470 1.395 . S
C1468 C1471 1.403 . S
H1469 C1475 0.930 . S
C1470 H1456 0.930 . S
C1470 C1468 1.395 . S
C1470 C1473 1.403 1_455 S
C1471 C1468 1.403 . S
C1471 C1472 1.524 . S
C1471 C1475 1.400 1_455 S
C1472 H1457 0.960 . S
C1472 H1458 0.960 . S
C1472 H1459 0.960 . S
C1472 C1471 1.524 . S
C1473 C1470 1.403 1_655 S
C1473 C1474 1.392 . S
C1473 C1477 1.495 . S
C1474 C1473 1.392 . S
C1474 C1475 1.385 . S
C1474 C1476 1.478 . S
C1475 H1469 0.930 . S
C1475 C1471 1.400 1_655 S
C1475 C1474 1.385 . S
C1476 C1474 1.478 . S
C1476 C1478 1.381 . S
C1476 C1482 1.383 . S
C1477 C1473 1.495 . S
C1477 H1483 0.959 . S
C1477 H1484 0.961 . S
C1477 H1485 0.960 . S
C1478 C1476 1.381 . S
C1478 C1479 1.394 . S
C1478 H1486 0.930 . S
C1479 C1478 1.394 . S
C1479 C1480 1.383 . S
C1479 H1487 0.929 . S
C1480 C1479 1.383 . S
C1480 C1481 1.377 . S
C1481 H1465 0.930 . S
C1481 C1480 1.377 . S
C1481 C1482 1.379 . S
C1482 H1466 0.931 . S
C1482 C1476 1.383 . S
C1482 C1481 1.379 . S
H1483 C1477 0.959 . S
H1484 C1477 0.961 . S
H1485 C1477 0.960 . S
H1486 C1478 0.930 . S
H1487 C1479 0.929 . S
H1488 C1496 0.929 . S
H1489 C1498 0.930 . S
H1490 C1500 0.930 . S
H1491 C1503 0.928 . S
H1492 C1506 0.930 . S
H1493 C1508 0.960 . S
H1494 C1508 0.960 . S
H1495 C1508 0.960 . S
C1496 H1488 0.929 . S
C1496 C1497 1.377 . S
C1496 C1498 1.384 . S
C1497 C1496 1.377 . S
C1497 C1503 1.391 1_554 S
C1498 H1489 0.930 . S
C1498 C1496 1.384 . S
C1498 C1499 1.372 . S
C1499 C1498 1.372 . S
C1499 C1500 1.400 1_554 S
C1499 C1504 1.490 . S
C1500 H1490 0.930 . S
C1500 C1499 1.400 1_556 S
C1500 C1503 1.385 . S
H1501 C1517 0.930 . S
H1502 C1518 0.931 . S
C1503 H1491 0.928 . S
C1503 C1497 1.391 1_556 S
C1503 C1500 1.385 . S
C1504 C1499 1.490 . S
C1504 C1506 1.395 . S
C1504 C1507 1.403 1_554 S
H1505 C1511 0.930 . S
C1506 H1492 0.930 . S
C1506 C1504 1.395 . S
C1506 C1509 1.403 . S
C1507 C1504 1.403 1_556 S
C1507 C1508 1.524 . S
C1507 C1511 1.400 . S
C1508 H1493 0.960 . S
C1508 H1494 0.960 . S
C1508 H1495 0.960 . S
C1508 C1507 1.524 . S
C1509 C1506 1.403 . S
C1509 C1510 1.392 1_554 S
C1509 C1513 1.495 . S
C1510 C1509 1.392 1_556 S
C1510 C1511 1.385 . S
C1510 C1512 1.478 . S
C1511 H1505 0.930 . S
C1511 C1507 1.400 . S
C1511 C1510 1.385 . S
C1512 C1510 1.478 . S
C1512 C1514 1.381 1_556 S
C1512 C1518 1.383 . S
C1513 C1509 1.495 . S
C1513 H1519 0.959 . S
C1513 H1520 0.961 . S
C1513 H1521 0.960 . S
C1514 C1512 1.381 1_554 S
C1514 C1515 1.394 1_554 S
C1514 H1522 0.930 . S
C1515 C1514 1.394 1_556 S
C1515 C1516 1.383 . S
C1515 H1523 0.929 1_556 S
C1516 C1515 1.383 . S
C1516 C1517 1.377 . S
C1517 H1501 0.930 . S
C1517 C1516 1.377 . S
C1517 C1518 1.379 . S
C1518 H1502 0.931 . S
C1518 C1512 1.383 . S
C1518 C1517 1.379 . S
H1519 C1513 0.959 . S
H1520 C1513 0.961 . S
H1521 C1513 0.960 . S
H1522 C1514 0.930 . S
H1523 C1515 0.929 1_554 S
H1524 C1532 0.929 . S
H1525 C1534 0.930 . S
H1526 C1536 0.930 . S
H1527 C1539 0.929 . S
H1528 C1542 0.930 . S
H1529 C1544 0.960 . S
H1530 C1544 0.960 . S
H1531 C1544 0.960 . S
C1532 H1524 0.929 . S
C1532 C1533 1.377 . S
C1532 C1534 1.384 . S
C1533 C1532 1.377 . S
C1533 C1539 1.390 . S
C1534 H1525 0.930 . S
C1534 C1532 1.384 . S
C1534 C1535 1.372 . S
C1535 C1534 1.372 . S
C1535 C1536 1.400 . S
C1535 C1540 1.490 . S
C1536 H1526 0.930 . S
C1536 C1535 1.400 . S
C1536 C1539 1.386 . S
H1537 C1553 0.930 . S
H1538 C1554 0.931 . S
C1539 H1527 0.929 . S
C1539 C1533 1.390 . S
C1539 C1536 1.386 . S
C1540 C1535 1.490 . S
C1540 C1542 1.395 . S
C1540 C1543 1.403 . S
H1541 C1547 0.930 . S
C1542 H1528 0.930 . S
C1542 C1540 1.395 . S
C1542 C1545 1.403 . S
C1543 C1540 1.403 . S
C1543 C1544 1.524 . S
C1543 C1547 1.400 . S
C1544 H1529 0.960 . S
C1544 H1530 0.960 . S
C1544 H1531 0.960 . S
C1544 C1543 1.524 . S
C1545 C1542 1.403 . S
C1545 C1546 1.392 . S
C1545 C1549 1.495 . S
C1546 C1545 1.392 . S
C1546 C1547 1.385 . S
C1546 C1548 1.478 . S
C1547 H1541 0.930 . S
C1547 C1543 1.400 . S
C1547 C1546 1.385 . S
C1548 C1546 1.478 . S
C1548 C1550 1.381 . S
C1548 C1554 1.383 . S
C1549 C1545 1.495 . S
C1549 H1555 0.959 . S
C1549 H1556 0.961 . S
C1549 H1557 0.960 . S
C1550 C1548 1.381 . S
C1550 C1551 1.394 . S
C1550 H1558 0.930 . S
C1551 C1550 1.394 . S
C1551 C1552 1.383 . S
C1551 H1559 0.929 . S
C1552 C1551 1.383 . S
C1552 C1553 1.377 . S
C1553 H1537 0.930 . S
C1553 C1552 1.377 . S
C1553 C1554 1.379 . S
C1554 H1538 0.931 . S
C1554 C1548 1.383 . S
C1554 C1553 1.379 . S
H1555 C1549 0.959 . S
H1556 C1549 0.961 . S
H1557 C1549 0.960 . S
H1558 C1550 0.930 . S
H1559 C1551 0.929 . S
H1560 C1568 0.929 . S
H1561 C1570 0.930 . S
H1562 C1572 0.930 . S
H1563 C1575 0.929 . S
H1564 C1578 0.930 . S
H1565 C1580 0.960 . S
H1566 C1580 0.960 . S
H1567 C1580 0.960 . S
C1568 H1560 0.929 . S
C1568 C1569 1.377 . S
C1568 C1570 1.384 . S
C1569 C1568 1.377 . S
C1569 C1575 1.390 . S
C1570 H1561 0.930 . S
C1570 C1568 1.384 . S
C1570 C1571 1.372 . S
C1571 C1570 1.372 . S
C1571 C1572 1.400 . S
C1571 C1576 1.490 . S
C1572 H1562 0.930 . S
C1572 C1571 1.400 . S
C1572 C1575 1.386 . S
H1573 C1589 0.930 . S
H1574 C1590 0.931 . S
C1575 H1563 0.929 . S
C1575 C1569 1.390 . S
C1575 C1572 1.386 . S
C1576 C1571 1.490 . S
C1576 C1578 1.395 . S
C1576 C1579 1.403 . S
H1577 C1583 0.930 . S
C1578 H1564 0.930 . S
C1578 C1576 1.395 . S
C1578 C1581 1.403 . S
C1579 C1576 1.403 . S
C1579 C1580 1.524 . S
C1579 C1583 1.400 . S
C1580 H1565 0.960 . S
C1580 H1566 0.960 . S
C1580 H1567 0.960 . S
C1580 C1579 1.524 . S
C1581 C1578 1.403 . S
C1581 C1582 1.392 . S
C1581 C1585 1.495 . S
C1582 C1581 1.392 . S
C1582 C1583 1.385 . S
C1582 C1584 1.478 . S
C1583 H1577 0.930 . S
C1583 C1579 1.400 . S
C1583 C1582 1.385 . S
C1584 C1582 1.478 . S
C1584 C1586 1.381 . S
C1584 C1590 1.383 . S
C1585 C1581 1.495 . S
C1585 H1591 0.959 . S
C1585 H1592 0.961 . S
C1585 H1593 0.960 . S
C1586 C1584 1.381 . S
C1586 C1587 1.394 . S
C1586 H1594 0.930 . S
C1587 C1586 1.394 . S
C1587 C1588 1.383 . S
C1587 H1595 0.929 . S
C1588 C1587 1.383 . S
C1588 C1589 1.377 . S
C1589 H1573 0.930 . S
C1589 C1588 1.377 . S
C1589 C1590 1.379 . S
C1590 H1574 0.931 . S
C1590 C1584 1.383 . S
C1590 C1589 1.379 . S
H1591 C1585 0.959 . S
H1592 C1585 0.961 . S
H1593 C1585 0.960 . S
H1594 C1586 0.930 . S
H1595 C1587 0.929 . S
H1596 C1604 0.929 . S
H1597 C1606 0.930 . S
H1598 C1608 0.930 . S
H1599 C1611 0.929 . S
H1600 C1614 0.930 . S
H1601 C1616 0.960 . S
H1602 C1616 0.960 . S
H1603 C1616 0.960 . S
C1604 H1596 0.929 . S
C1604 C1605 1.377 . S
C1604 C1606 1.384 . S
C1605 C1604 1.377 . S
C1605 C1611 1.390 . S
C1606 H1597 0.930 . S
C1606 C1604 1.384 . S
C1606 C1607 1.372 . S
C1607 C1606 1.372 . S
C1607 C1608 1.400 . S
C1607 C1612 1.490 . S
C1608 H1598 0.930 . S
C1608 C1607 1.400 . S
C1608 C1611 1.386 . S
H1609 C1625 0.930 . S
H1610 C1626 0.931 . S
C1611 H1599 0.929 . S
C1611 C1605 1.390 . S
C1611 C1608 1.386 . S
C1612 C1607 1.490 . S
C1612 C1614 1.395 . S
C1612 C1615 1.403 . S
H1613 C1619 0.930 . S
C1614 H1600 0.930 . S
C1614 C1612 1.395 . S
C1614 C1617 1.403 . S
C1615 C1612 1.403 . S
C1615 C1616 1.524 . S
C1615 C1619 1.400 . S
C1616 H1601 0.960 . S
C1616 H1602 0.960 . S
C1616 H1603 0.960 . S
C1616 C1615 1.524 . S
C1617 C1614 1.403 . S
C1617 C1618 1.392 . S
C1617 C1621 1.495 . S
C1618 C1617 1.392 . S
C1618 C1619 1.385 . S
C1618 C1620 1.478 . S
C1619 H1613 0.930 . S
C1619 C1615 1.400 . S
C1619 C1618 1.385 . S
C1620 C1618 1.478 . S
C1620 C1622 1.381 . S
C1620 C1626 1.383 . S
C1621 C1617 1.495 . S
C1621 H1627 0.959 . S
C1621 H1628 0.961 . S
C1621 H1629 0.960 . S
C1622 C1620 1.381 . S
C1622 C1623 1.394 . S
C1622 H1630 0.930 . S
C1623 C1622 1.394 . S
C1623 C1624 1.383 . S
C1623 H1631 0.929 . S
C1624 C1623 1.383 . S
C1624 C1625 1.377 . S
C1625 H1609 0.930 . S
C1625 C1624 1.377 . S
C1625 C1626 1.379 . S
C1626 H1610 0.931 . S
C1626 C1620 1.383 . S
C1626 C1625 1.379 . S
H1627 C1621 0.959 . S
H1628 C1621 0.961 . S
H1629 C1621 0.960 . S
H1630 C1622 0.930 . S
H1631 C1623 0.929 . S
H1632 C1640 0.929 . S
H1633 C1642 0.930 . S
H1634 C1644 0.930 . S
H1635 C1647 0.929 1_556 S
H1636 C1650 0.930 . S
H1637 C1652 0.960 . S
H1638 C1652 0.960 . S
H1639 C1652 0.960 . S
C1640 H1632 0.929 . S
C1640 C1641 1.377 . S
C1640 C1642 1.384 . S
C1641 C1640 1.377 . S
C1641 C1647 1.390 . S
C1642 H1633 0.930 . S
C1642 C1640 1.384 . S
C1642 C1643 1.372 . S
C1643 C1642 1.372 . S
C1643 C1644 1.400 1_554 S
C1643 C1648 1.490 . S
C1644 H1634 0.930 . S
C1644 C1643 1.400 1_556 S
C1644 C1647 1.386 1_556 S
H1645 C1661 0.930 . S
H1646 C1662 0.931 . S
C1647 H1635 0.929 1_554 S
C1647 C1641 1.390 . S
C1647 C1644 1.386 1_554 S
C1648 C1643 1.490 . S
C1648 C1650 1.395 . S
C1648 C1651 1.403 1_554 S
H1649 C1655 0.930 . S
C1650 H1636 0.930 . S
C1650 C1648 1.395 . S
C1650 C1653 1.403 . S
C1651 C1648 1.403 1_556 S
C1651 C1652 1.524 . S
C1651 C1655 1.400 . S
C1652 H1637 0.960 . S
C1652 H1638 0.960 . S
C1652 H1639 0.960 . S
C1652 C1651 1.524 . S
C1653 C1650 1.403 . S
C1653 C1654 1.392 1_554 S
C1653 C1657 1.495 . S
C1654 C1653 1.392 1_556 S
C1654 C1655 1.385 . S
C1654 C1656 1.478 . S
C1655 H1649 0.930 . S
C1655 C1651 1.400 . S
C1655 C1654 1.385 . S
C1656 C1654 1.478 . S
C1656 C1658 1.381 1_556 S
C1656 C1662 1.383 . S
C1657 C1653 1.495 . S
C1657 H1663 0.959 . S
C1657 H1664 0.961 . S
C1657 H1665 0.960 . S
C1658 C1656 1.381 1_554 S
C1658 C1659 1.394 1_554 S
C1658 H1666 0.930 . S
C1659 C1658 1.394 1_556 S
C1659 C1660 1.383 . S
C1659 H1667 0.929 1_556 S
C1660 C1659 1.383 . S
C1660 C1661 1.377 . S
C1661 H1645 0.930 . S
C1661 C1660 1.377 . S
C1661 C1662 1.379 . S
C1662 H1646 0.931 . S
C1662 C1656 1.383 . S
C1662 C1661 1.379 . S
H1663 C1657 0.959 . S
H1664 C1657 0.961 . S
H1665 C1657 0.960 . S
H1666 C1658 0.930 . S
H1667 C1659 0.929 1_554 S
H1668 C1676 0.929 . S
H1669 C1678 0.930 . S
H1670 C1680 0.930 . S
H1671 C1683 0.929 . S
H1672 C1686 0.930 . S
H1673 C1688 0.960 . S
H1674 C1688 0.960 . S
H1675 C1688 0.960 . S
C1676 H1668 0.929 . S
C1676 C1677 1.377 . S
C1676 C1678 1.384 . S
C1677 C1676 1.377 . S
C1677 C1683 1.390 . S
C1678 H1669 0.930 . S
C1678 C1676 1.384 . S
C1678 C1679 1.372 . S
C1679 C1678 1.372 . S
C1679 C1680 1.400 . S
C1679 C1684 1.490 . S
C1680 H1670 0.930 . S
C1680 C1679 1.400 . S
C1680 C1683 1.386 . S
H1681 C1697 0.930 . S
H1682 C1698 0.931 . S
C1683 H1671 0.929 . S
C1683 C1677 1.390 . S
C1683 C1680 1.386 . S
C1684 C1679 1.490 . S
C1684 C1686 1.395 . S
C1684 C1687 1.403 . S
H1685 C1691 0.930 . S
C1686 H1672 0.930 . S
C1686 C1684 1.395 . S
C1686 C1689 1.403 . S
C1687 C1684 1.403 . S
C1687 C1688 1.524 . S
C1687 C1691 1.400 . S
C1688 H1673 0.960 . S
C1688 H1674 0.960 . S
C1688 H1675 0.960 . S
C1688 C1687 1.524 . S
C1689 C1686 1.403 . S
C1689 C1690 1.392 . S
C1689 C1693 1.495 . S
C1690 C1689 1.392 . S
C1690 C1691 1.385 . S
C1690 C1692 1.478 . S
C1691 H1685 0.930 . S
C1691 C1687 1.400 . S
C1691 C1690 1.385 . S
C1692 C1690 1.478 . S
C1692 C1694 1.381 . S
C1692 C1698 1.383 . S
C1693 C1689 1.495 . S
C1693 H1699 0.959 . S
C1693 H1700 0.961 . S
C1693 H1701 0.960 . S
C1694 C1692 1.381 . S
C1694 C1695 1.394 . S
C1694 H1702 0.930 . S
C1695 C1694 1.394 . S
C1695 C1696 1.383 . S
C1695 H1703 0.929 . S
C1696 C1695 1.383 . S
C1696 C1697 1.377 . S
C1697 H1681 0.930 . S
C1697 C1696 1.377 . S
C1697 C1698 1.379 . S
C1698 H1682 0.931 . S
C1698 C1692 1.383 . S
C1698 C1697 1.379 . S
H1699 C1693 0.959 . S
H1700 C1693 0.961 . S
H1701 C1693 0.960 . S
H1702 C1694 0.930 . S
H1703 C1695 0.929 . S
H1704 C1712 0.929 . S
H1705 C1714 0.930 . S
H1706 C1716 0.930 . S
H1707 C1719 0.929 . S
H1708 C1722 0.930 . S
H1709 C1724 0.960 . S
H1710 C1724 0.960 . S
H1711 C1724 0.960 . S
C1712 H1704 0.929 . S
C1712 C1713 1.377 . S
C1712 C1714 1.384 . S
C1713 C1712 1.377 . S
C1713 C1719 1.390 . S
C1714 H1705 0.930 . S
C1714 C1712 1.384 . S
C1714 C1715 1.372 . S
C1715 C1714 1.372 . S
C1715 C1716 1.400 . S
C1715 C1720 1.490 . S
C1716 H1706 0.930 . S
C1716 C1715 1.400 . S
C1716 C1719 1.386 . S
H1717 C1733 0.930 . S
H1718 C1734 0.931 . S
C1719 H1707 0.929 . S
C1719 C1713 1.390 . S
C1719 C1716 1.386 . S
C1720 C1715 1.490 . S
C1720 C1722 1.395 . S
C1720 C1723 1.403 . S
H1721 C1727 0.930 . S
C1722 H1708 0.930 . S
C1722 C1720 1.395 . S
C1722 C1725 1.403 . S
C1723 C1720 1.403 . S
C1723 C1724 1.524 . S
C1723 C1727 1.400 . S
C1724 H1709 0.960 . S
C1724 H1710 0.960 . S
C1724 H1711 0.960 . S
C1724 C1723 1.524 . S
C1725 C1722 1.403 . S
C1725 C1726 1.392 . S
C1725 C1729 1.495 . S
C1726 C1725 1.392 . S
C1726 C1727 1.385 . S
C1726 C1728 1.478 . S
C1727 H1721 0.930 . S
C1727 C1723 1.400 . S
C1727 C1726 1.385 . S
C1728 C1726 1.478 . S
C1728 C1730 1.381 . S
C1728 C1734 1.383 . S
C1729 C1725 1.495 . S
C1729 H1735 0.959 . S
C1729 H1736 0.961 . S
C1729 H1737 0.960 . S
C1730 C1728 1.381 . S
C1730 C1731 1.394 . S
C1730 H1738 0.930 . S
C1731 C1730 1.394 . S
C1731 C1732 1.383 . S
C1731 H1739 0.929 . S
C1732 C1731 1.383 . S
C1732 C1733 1.377 . S
C1733 H1717 0.930 . S
C1733 C1732 1.377 . S
C1733 C1734 1.379 . S
C1734 H1718 0.931 . S
C1734 C1728 1.383 . S
C1734 C1733 1.379 . S
H1735 C1729 0.959 . S
H1736 C1729 0.961 . S
H1737 C1729 0.960 . S
H1738 C1730 0.930 . S
H1739 C1731 0.929 . S
H1740 C1748 0.929 . S
H1741 C1750 0.930 . S
H1742 C1752 0.930 . S
H1743 C1755 0.929 . S
H1744 C1758 0.930 . S
H1745 C1760 0.960 . S
H1746 C1760 0.960 . S
H1747 C1760 0.960 . S
C1748 H1740 0.929 . S
C1748 C1749 1.377 . S
C1748 C1750 1.384 . S
C1749 C1748 1.377 . S
C1749 C1755 1.390 . S
C1750 H1741 0.930 . S
C1750 C1748 1.384 . S
C1750 C1751 1.372 . S
C1751 C1750 1.372 . S
C1751 C1752 1.400 . S
C1751 C1756 1.490 . S
C1752 H1742 0.930 . S
C1752 C1751 1.400 . S
C1752 C1755 1.386 . S
H1753 C1769 0.930 . S
H1754 C1770 0.931 . S
C1755 H1743 0.929 . S
C1755 C1749 1.390 . S
C1755 C1752 1.386 . S
C1756 C1751 1.490 . S
C1756 C1758 1.395 . S
C1756 C1759 1.403 . S
H1757 C1763 0.930 . S
C1758 H1744 0.930 . S
C1758 C1756 1.395 . S
C1758 C1761 1.403 . S
C1759 C1756 1.403 . S
C1759 C1760 1.524 . S
C1759 C1763 1.400 . S
C1760 H1745 0.960 . S
C1760 H1746 0.960 . S
C1760 H1747 0.960 . S
C1760 C1759 1.524 . S
C1761 C1758 1.403 . S
C1761 C1762 1.392 . S
C1761 C1765 1.495 . S
C1762 C1761 1.392 . S
C1762 C1763 1.385 . S
C1762 C1764 1.478 . S
C1763 H1757 0.930 . S
C1763 C1759 1.400 . S
C1763 C1762 1.385 . S
C1764 C1762 1.478 . S
C1764 C1766 1.381 . S
C1764 C1770 1.383 . S
C1765 C1761 1.495 . S
C1765 H1771 0.959 . S
C1765 H1772 0.961 . S
C1765 H1773 0.960 . S
C1766 C1764 1.381 . S
C1766 C1767 1.394 . S
C1766 H1774 0.930 . S
C1767 C1766 1.394 . S
C1767 C1768 1.383 . S
C1767 H1775 0.929 . S
C1768 C1767 1.383 . S
C1768 C1769 1.377 . S
C1769 H1753 0.930 . S
C1769 C1768 1.377 . S
C1769 C1770 1.379 . S
C1770 H1754 0.931 . S
C1770 C1764 1.383 . S
C1770 C1769 1.379 . S
H1771 C1765 0.959 . S
H1772 C1765 0.961 . S
H1773 C1765 0.960 . S
H1774 C1766 0.930 . S
H1775 C1767 0.929 . S
H1776 C1784 0.929 . S
H1777 C1786 0.930 . S
H1778 C1788 0.930 . S
H1779 C1791 0.929 . S
H1780 C1794 0.930 . S
H1781 C1796 0.960 1_545 S
H1782 C1796 0.960 . S
H1783 C1796 0.960 . S
C1784 H1776 0.929 . S
C1784 C1785 1.377 . S
C1784 C1786 1.384 . S
C1785 C1784 1.377 . S
C1785 C1791 1.390 . S
C1786 H1777 0.930 . S
C1786 C1784 1.384 . S
C1786 C1787 1.372 . S
C1787 C1786 1.372 . S
C1787 C1788 1.400 . S
C1787 C1792 1.490 . S
C1788 H1778 0.930 . S
C1788 C1787 1.400 . S
C1788 C1791 1.386 . S
H1789 C1805 0.930 . S
H1790 C1806 0.931 . S
C1791 H1779 0.929 . S
C1791 C1785 1.390 . S
C1791 C1788 1.386 . S
C1792 C1787 1.490 . S
C1792 C1794 1.395 . S
C1792 C1795 1.403 . S
H1793 C1799 0.930 . S
C1794 H1780 0.930 . S
C1794 C1792 1.395 . S
C1794 C1797 1.403 1_565 S
C1795 C1792 1.403 . S
C1795 C1796 1.524 . S
C1795 C1799 1.400 1_565 S
C1796 H1781 0.960 1_565 S
C1796 H1782 0.960 . S
C1796 H1783 0.960 . S
C1796 C1795 1.524 . S
C1797 C1794 1.403 1_545 S
C1797 C1798 1.392 . S
C1797 C1801 1.495 . S
C1798 C1797 1.392 . S
C1798 C1799 1.385 . S
C1798 C1800 1.478 . S
C1799 H1793 0.930 . S
C1799 C1795 1.400 1_545 S
C1799 C1798 1.385 . S
C1800 C1798 1.478 . S
C1800 C1802 1.381 . S
C1800 C1806 1.383 . S
C1801 C1797 1.495 . S
C1801 H1807 0.959 1_545 S
C1801 H1808 0.961 . S
C1801 H1809 0.960 . S
C1802 C1800 1.381 . S
C1802 C1803 1.394 . S
C1802 H1810 0.930 . S
C1803 C1802 1.394 . S
C1803 C1804 1.383 . S
C1803 H1811 0.929 . S
C1804 C1803 1.383 . S
C1804 C1805 1.377 . S
C1805 H1789 0.930 . S
C1805 C1804 1.377 . S
C1805 C1806 1.379 . S
C1806 H1790 0.931 . S
C1806 C1800 1.383 . S
C1806 C1805 1.379 . S
H1807 C1801 0.959 1_565 S
H1808 C1801 0.961 . S
H1809 C1801 0.960 . S
H1810 C1802 0.930 . S
H1811 C1803 0.929 . S
H1812 C1820 0.929 . S
H1813 C1822 0.930 . S
H1814 C1824 0.930 . S
H1815 C1827 0.929 . S
H1816 C1830 0.930 . S
H1817 C1832 0.960 . S
H1818 C1832 0.960 . S
H1819 C1832 0.960 . S
C1820 H1812 0.929 . S
C1820 C1821 1.377 . S
C1820 C1822 1.384 . S
C1821 C1820 1.377 . S
C1821 C1827 1.390 . S
C1822 H1813 0.930 . S
C1822 C1820 1.384 . S
C1822 C1823 1.372 . S
C1823 C1822 1.372 . S
C1823 C1824 1.400 . S
C1823 C1828 1.490 . S
C1824 H1814 0.930 . S
C1824 C1823 1.400 . S
C1824 C1827 1.386 . S
H1825 C1841 0.930 . S
H1826 C1842 0.931 . S
C1827 H1815 0.929 . S
C1827 C1821 1.390 . S
C1827 C1824 1.386 . S
C1828 C1823 1.490 . S
C1828 C1830 1.395 . S
C1828 C1831 1.403 . S
H1829 C1835 0.930 . S
C1830 H1816 0.930 . S
C1830 C1828 1.395 . S
C1830 C1833 1.403 . S
C1831 C1828 1.403 . S
C1831 C1832 1.524 . S
C1831 C1835 1.400 . S
C1832 H1817 0.960 . S
C1832 H1818 0.960 . S
C1832 H1819 0.960 . S
C1832 C1831 1.524 . S
C1833 C1830 1.403 . S
C1833 C1834 1.392 . S
C1833 C1837 1.495 . S
C1834 C1833 1.392 . S
C1834 C1835 1.385 . S
C1834 C1836 1.478 . S
C1835 H1829 0.930 . S
C1835 C1831 1.400 . S
C1835 C1834 1.385 . S
C1836 C1834 1.478 . S
C1836 C1838 1.381 . S
C1836 C1842 1.383 . S
C1837 C1833 1.495 . S
C1837 H1843 0.959 . S
C1837 H1844 0.961 . S
C1837 H1845 0.960 . S
C1838 C1836 1.381 . S
C1838 C1839 1.394 . S
C1838 H1846 0.930 . S
C1839 C1838 1.394 . S
C1839 C1840 1.383 . S
C1839 H1847 0.929 . S
C1840 C1839 1.383 . S
C1840 C1841 1.377 . S
C1841 H1825 0.930 . S
C1841 C1840 1.377 . S
C1841 C1842 1.379 . S
C1842 H1826 0.931 . S
C1842 C1836 1.383 . S
C1842 C1841 1.379 . S
H1843 C1837 0.959 . S
H1844 C1837 0.961 . S
H1845 C1837 0.960 . S
H1846 C1838 0.930 . S
H1847 C1839 0.929 . S
H1848 C1856 0.929 1_556 S
H1849 C1858 0.930 . S
H1850 C1860 0.930 . S
H1851 C1863 0.929 . S
H1852 C1866 0.930 . S
H1853 C1868 0.960 . S
H1854 C1868 0.960 . S
H1855 C1868 0.960 . S
C1856 H1848 0.929 1_554 S
C1856 C1857 1.377 . S
C1856 C1858 1.384 1_554 S
C1857 C1856 1.377 . S
C1857 C1863 1.390 . S
C1858 H1849 0.930 . S
C1858 C1856 1.384 1_556 S
C1858 C1859 1.372 1_556 S
C1859 C1858 1.372 1_554 S
C1859 C1860 1.400 . S
C1859 C1864 1.490 . S
C1860 H1850 0.930 . S
C1860 C1859 1.400 . S
C1860 C1863 1.386 . S
H1861 C1877 0.930 1_554 S
H1862 C1878 0.931 . S
C1863 H1851 0.929 . S
C1863 C1857 1.390 . S
C1863 C1860 1.386 . S
C1864 C1859 1.490 . S
C1864 C1866 1.395 1_554 S
C1864 C1867 1.403 . S
H1865 C1871 0.930 . S
C1866 H1852 0.930 . S
C1866 C1864 1.395 1_556 S
C1866 C1869 1.403 1_565 S
C1867 C1864 1.403 . S
C1867 C1868 1.524 . S
C1867 C1871 1.400 1_565 S
C1868 H1853 0.960 . S
C1868 H1854 0.960 . S
C1868 H1855 0.960 . S
C1868 C1867 1.524 . S
C1869 C1866 1.403 1_545 S
C1869 C1870 1.392 . S
C1869 C1873 1.495 . S
C1870 C1869 1.392 . S
C1870 C1871 1.385 1_556 S
C1870 C1872 1.478 . S
C1871 H1865 0.930 . S
C1871 C1867 1.400 1_545 S
C1871 C1870 1.385 1_554 S
C1872 C1870 1.478 . S
C1872 C1874 1.381 . S
C1872 C1878 1.383 1_556 S
C1873 C1869 1.495 . S
C1873 H1879 0.959 . S
C1873 H1880 0.961 . S
C1873 H1881 0.960 . S
C1874 C1872 1.381 . S
C1874 C1875 1.394 . S
C1874 H1882 0.930 . S
C1875 C1874 1.394 . S
C1875 C1876 1.383 . S
C1875 H1883 0.929 . S
C1876 C1875 1.383 . S
C1876 C1877 1.377 . S
C1877 H1861 0.930 1_556 S
C1877 C1876 1.377 . S
C1877 C1878 1.379 1_556 S
C1878 H1862 0.931 . S
C1878 C1872 1.383 1_554 S
C1878 C1877 1.379 1_554 S
H1879 C1873 0.959 . S
H1880 C1873 0.961 . S
H1881 C1873 0.960 . S
H1882 C1874 0.930 . S
H1883 C1875 0.929 . S
H1884 C1892 0.929 . S
H1885 C1894 0.930 . S
H1886 C1896 0.930 . S
H1887 C1899 0.929 . S
H1888 C1902 0.930 . S
H1889 C1904 0.960 . S
H1890 C1904 0.960 . S
H1891 C1904 0.960 . S
C1892 H1884 0.929 . S
C1892 C1893 1.377 . S
C1892 C1894 1.384 . S
C1893 C1892 1.377 . S
C1893 C1899 1.390 . S
C1894 H1885 0.930 . S
C1894 C1892 1.384 . S
C1894 C1895 1.372 . S
C1895 C1894 1.372 . S
C1895 C1896 1.400 . S
C1895 C1900 1.490 . S
C1896 H1886 0.930 . S
C1896 C1895 1.400 . S
C1896 C1899 1.386 . S
H1897 C1913 0.930 . S
H1898 C1914 0.931 . S
C1899 H1887 0.929 . S
C1899 C1893 1.390 . S
C1899 C1896 1.386 . S
C1900 C1895 1.490 . S
C1900 C1902 1.395 . S
C1900 C1903 1.403 . S
H1901 C1907 0.930 . S
C1902 H1888 0.930 . S
C1902 C1900 1.395 . S
C1902 C1905 1.403 . S
C1903 C1900 1.403 . S
C1903 C1904 1.524 . S
C1903 C1907 1.400 . S
C1904 H1889 0.960 . S
C1904 H1890 0.960 . S
C1904 H1891 0.960 . S
C1904 C1903 1.524 . S
C1905 C1902 1.403 . S
C1905 C1906 1.392 . S
C1905 C1909 1.495 . S
C1906 C1905 1.392 . S
C1906 C1907 1.385 . S
C1906 C1908 1.478 . S
C1907 H1901 0.930 . S
C1907 C1903 1.400 . S
C1907 C1906 1.385 . S
C1908 C1906 1.478 . S
C1908 C1910 1.381 . S
C1908 C1914 1.383 . S
C1909 C1905 1.495 . S
C1909 H1915 0.959 . S
C1909 H1916 0.961 . S
C1909 H1917 0.960 . S
C1910 C1908 1.381 . S
C1910 C1911 1.394 . S
C1910 H1918 0.930 . S
C1911 C1910 1.394 . S
C1911 C1912 1.383 . S
C1911 H1919 0.929 . S
C1912 C1911 1.383 . S
C1912 C1913 1.377 . S
C1913 H1897 0.930 . S
C1913 C1912 1.377 . S
C1913 C1914 1.379 . S
C1914 H1898 0.931 . S
C1914 C1908 1.383 . S
C1914 C1913 1.379 . S
H1915 C1909 0.959 . S
H1916 C1909 0.961 . S
H1917 C1909 0.960 . S
H1918 C1910 0.930 . S
H1919 C1911 0.929 . S
H1920 C1928 0.929 . S
H1921 C1930 0.930 . S
H1922 C1932 0.930 . S
H1923 C1935 0.929 . S
H1924 C1938 0.930 . S
H1925 C1940 0.960 . S
H1926 C1940 0.960 . S
H1927 C1940 0.960 . S
C1928 H1920 0.929 . S
C1928 C1929 1.377 . S
C1928 C1930 1.384 . S
C1929 C1928 1.377 . S
C1929 C1935 1.390 . S
C1930 H1921 0.930 . S
C1930 C1928 1.384 . S
C1930 C1931 1.372 . S
C1931 C1930 1.372 . S
C1931 C1932 1.400 . S
C1931 C1936 1.490 . S
C1932 H1922 0.930 . S
C1932 C1931 1.400 . S
C1932 C1935 1.386 . S
H1933 C1949 0.930 . S
H1934 C1950 0.931 . S
C1935 H1923 0.929 . S
C1935 C1929 1.390 . S
C1935 C1932 1.386 . S
C1936 C1931 1.490 . S
C1936 C1938 1.395 . S
C1936 C1939 1.403 . S
H1937 C1943 0.930 . S
C1938 H1924 0.930 . S
C1938 C1936 1.395 . S
C1938 C1941 1.403 1_565 S
C1939 C1936 1.403 . S
C1939 C1940 1.524 . S
C1939 C1943 1.400 1_565 S
C1940 H1925 0.960 . S
C1940 H1926 0.960 . S
C1940 H1927 0.960 . S
C1940 C1939 1.524 . S
C1941 C1938 1.403 1_545 S
C1941 C1942 1.392 . S
C1941 C1945 1.495 . S
C1942 C1941 1.392 . S
C1942 C1943 1.385 . S
C1942 C1944 1.478 . S
C1943 H1937 0.930 . S
C1943 C1939 1.400 1_545 S
C1943 C1942 1.385 . S
C1944 C1942 1.478 . S
C1944 C1946 1.381 . S
C1944 C1950 1.383 . S
C1945 C1941 1.495 . S
C1945 H1951 0.959 . S
C1945 H1952 0.961 . S
C1945 H1953 0.960 . S
C1946 C1944 1.381 . S
C1946 C1947 1.394 . S
C1946 H1954 0.930 . S
C1947 C1946 1.394 . S
C1947 C1948 1.383 . S
C1947 H1955 0.929 . S
C1948 C1947 1.383 . S
C1948 C1949 1.377 . S
C1949 H1933 0.930 . S
C1949 C1948 1.377 . S
C1949 C1950 1.379 . S
C1950 H1934 0.931 . S
C1950 C1944 1.383 . S
C1950 C1949 1.379 . S
H1951 C1945 0.959 . S
H1952 C1945 0.961 . S
H1953 C1945 0.960 . S
H1954 C1946 0.930 . S
H1955 C1947 0.929 . S
H1956 C1964 0.929 . S
H1957 C1966 0.930 . S
H1958 C1968 0.930 . S
H1959 C1971 0.929 . S
H1960 C1974 0.930 . S
H1961 C1976 0.960 . S
H1962 C1976 0.960 . S
H1963 C1976 0.960 . S
C1964 H1956 0.929 . S
C1964 C1965 1.377 . S
C1964 C1966 1.384 . S
C1965 C1964 1.377 . S
C1965 C1971 1.390 . S
C1966 H1957 0.930 . S
C1966 C1964 1.384 . S
C1966 C1967 1.372 . S
C1967 C1966 1.372 . S
C1967 C1968 1.400 . S
C1967 C1972 1.490 . S
C1968 H1958 0.930 . S
C1968 C1967 1.400 . S
C1968 C1971 1.386 . S
H1969 C1985 0.930 . S
H1970 C1986 0.931 . S
C1971 H1959 0.929 . S
C1971 C1965 1.390 . S
C1971 C1968 1.386 . S
C1972 C1967 1.490 . S
C1972 C1974 1.395 . S
C1972 C1975 1.403 . S
H1973 C1979 0.930 . S
C1974 H1960 0.930 . S
C1974 C1972 1.395 . S
C1974 C1977 1.403 . S
C1975 C1972 1.403 . S
C1975 C1976 1.524 . S
C1975 C1979 1.400 . S
C1976 H1961 0.960 . S
C1976 H1962 0.960 . S
C1976 H1963 0.960 . S
C1976 C1975 1.524 . S
C1977 C1974 1.403 . S
C1977 C1978 1.392 . S
C1977 C1981 1.495 . S
C1978 C1977 1.392 . S
C1978 C1979 1.385 . S
C1978 C1980 1.478 . S
C1979 H1973 0.930 . S
C1979 C1975 1.400 . S
C1979 C1978 1.385 . S
C1980 C1978 1.478 . S
C1980 C1982 1.381 . S
C1980 C1986 1.383 . S
C1981 C1977 1.495 . S
C1981 H1987 0.959 . S
C1981 H1988 0.961 . S
C1981 H1989 0.960 . S
C1982 C1980 1.381 . S
C1982 C1983 1.394 . S
C1982 H1990 0.930 . S
C1983 C1982 1.394 . S
C1983 C1984 1.383 . S
C1983 H1991 0.929 . S
C1984 C1983 1.383 . S
C1984 C1985 1.377 . S
C1985 H1969 0.930 . S
C1985 C1984 1.377 . S
C1985 C1986 1.379 . S
C1986 H1970 0.931 . S
C1986 C1980 1.383 . S
C1986 C1985 1.379 . S
H1987 C1981 0.959 . S
H1988 C1981 0.961 . S
H1989 C1981 0.960 . S
H1990 C1982 0.930 . S
H1991 C1983 0.929 . S
H1992 C2000 0.929 1_554 S
H1993 C2002 0.930 . S
H1994 C2004 0.930 . S
H1995 C2007 0.929 . S
H1996 C2010 0.930 . S
H1997 C2012 0.960 . S
H1998 C2012 0.960 . S
H1999 C2012 0.960 . S
C2000 H1992 0.929 1_556 S
C2000 C2001 1.377 . S
C2000 C2002 1.384 1_556 S
C2001 C2000 1.377 . S
C2001 C2007 1.390 . S
C2002 H1993 0.930 . S
C2002 C2000 1.384 1_554 S
C2002 C2003 1.372 1_554 S
C2003 C2002 1.372 1_556 S
C2003 C2004 1.400 . S
C2003 C2008 1.490 . S
C2004 H1994 0.930 . S
C2004 C2003 1.400 . S
C2004 C2007 1.386 . S
H2005 C2021 0.930 1_556 S
H2006 C2022 0.931 . S
C2007 H1995 0.929 . S
C2007 C2001 1.390 . S
C2007 C2004 1.386 . S
C2008 C2003 1.490 . S
C2008 C2010 1.395 1_556 S
C2008 C2011 1.403 . S
H2009 C2015 0.928 1_556 S
C2010 H1996 0.930 . S
C2010 C2008 1.395 1_554 S
C2010 C2013 1.403 1_545 S
C2011 C2008 1.403 . S
C2011 C2012 1.524 . S
C2011 C2015 1.395 1_546 S
C2012 H1997 0.960 . S
C2012 H1998 0.960 . S
C2012 H1999 0.960 . S
C2012 C2011 1.524 . S
C2013 C2010 1.403 1_565 S
C2013 C2014 1.392 . S
C2013 C2017 1.495 . S
C2014 C2013 1.392 . S
C2014 C2015 1.392 . S
C2014 C2016 1.478 . S
C2015 H2009 0.928 1_554 S
C2015 C2011 1.395 1_564 S
C2015 C2014 1.392 . S
C2016 C2014 1.478 . S
C2016 C2018 1.381 . S
C2016 C2022 1.383 1_554 S
C2017 C2013 1.495 . S
C2017 H2023 0.959 . S
C2017 H2024 0.961 . S
C2017 H2025 0.960 . S
C2018 C2016 1.381 . S
C2018 C2019 1.394 . S
C2018 H2026 0.930 . S
C2019 C2018 1.394 . S
C2019 C2020 1.383 . S
C2019 H2027 0.929 . S
C2020 C2019 1.383 . S
C2020 C2021 1.377 . S
C2021 H2005 0.930 1_554 S
C2021 C2020 1.377 . S
C2021 C2022 1.379 1_554 S
C2022 H2006 0.931 . S
C2022 C2016 1.383 1_556 S
C2022 C2021 1.379 1_556 S
H2023 C2017 0.959 . S
H2024 C2017 0.961 . S
H2025 C2017 0.960 . S
H2026 C2018 0.930 . S
H2027 C2019 0.929 . S
H2028 C2036 0.929 . S
H2029 C2038 0.930 . S
H2030 C2040 0.930 . S
H2031 C2043 0.929 . S
H2032 C2046 0.930 . S
H2033 C2048 0.960 . S
H2034 C2048 0.960 . S
H2035 C2048 0.960 . S
C2036 H2028 0.929 . S
C2036 C2037 1.377 . S
C2036 C2038 1.384 . S
C2037 C2036 1.377 . S
C2037 C2043 1.390 . S
C2038 H2029 0.930 . S
C2038 C2036 1.384 . S
C2038 C2039 1.372 . S
C2039 C2038 1.372 . S
C2039 C2040 1.400 . S
C2039 C2044 1.490 . S
C2040 H2030 0.930 . S
C2040 C2039 1.400 . S
C2040 C2043 1.386 . S
H2041 C2057 0.930 . S
H2042 C2058 0.931 . S
C2043 H2031 0.929 . S
C2043 C2037 1.390 . S
C2043 C2040 1.386 . S
C2044 C2039 1.490 . S
C2044 C2046 1.395 . S
C2044 C2047 1.403 . S
H2045 C2051 0.930 . S
C2046 H2032 0.930 . S
C2046 C2044 1.395 . S
C2046 C2049 1.403 . S
C2047 C2044 1.403 . S
C2047 C2048 1.524 . S
C2047 C2051 1.400 . S
C2048 H2033 0.960 . S
C2048 H2034 0.960 . S
C2048 H2035 0.960 . S
C2048 C2047 1.524 . S
C2049 C2046 1.403 . S
C2049 C2050 1.392 . S
C2049 C2053 1.495 . S
C2050 C2049 1.392 . S
C2050 C2051 1.385 . S
C2050 C2052 1.478 . S
C2051 H2045 0.930 . S
C2051 C2047 1.400 . S
C2051 C2050 1.385 . S
C2052 C2050 1.478 . S
C2052 C2054 1.381 . S
C2052 C2058 1.383 . S
C2053 C2049 1.495 . S
C2053 H2059 0.959 . S
C2053 H2060 0.961 . S
C2053 H2061 0.960 . S
C2054 C2052 1.381 . S
C2054 C2055 1.394 . S
C2054 H2062 0.930 . S
C2055 C2054 1.394 . S
C2055 C2056 1.383 . S
C2055 H2063 0.929 . S
C2056 C2055 1.383 . S
C2056 C2057 1.377 . S
C2057 H2041 0.930 . S
C2057 C2056 1.377 . S
C2057 C2058 1.379 . S
C2058 H2042 0.931 . S
C2058 C2052 1.383 . S
C2058 C2057 1.379 . S
H2059 C2053 0.959 . S
H2060 C2053 0.961 . S
H2061 C2053 0.960 . S
H2062 C2054 0.930 . S
H2063 C2055 0.929 . S
C345 C20 1.265 . S
C364 C16 1.257 . S
C381 C41 1.271 . S
C400 C37 1.235 . S
C417 C45 1.281 . S
C436 C61 1.235 . S
C453 C66 1.273 . S
C472 C82 1.232 . S
C489 C87 1.281 . S
C508 C103 1.256 . S
C525 C108 1.277 . S
C544 C124 1.227 . S
C561 C145 1.272 . S
C580 C129 1.308 . S
C597 C167 1.278 . S
C616 C163 1.281 . S
C633 C171 1.281 . S
C652 C187 1.309 . S
C669 C192 1.266 . S
C688 C208 1.228 . S
C705 C229 1.264 . S
C724 C213 1.238 . S
C741 C251 1.278 . S
C760 C247 1.304 . S
C777 C268 1.269 . S
C796 C272 1.235 . S
C813 C289 1.284 . S
C832 C293 1.311 . S
C849 C297 1.268 . S
C868 C313 1.230 . S
C885 C318 1.273 . S
C904 C334 1.260 . S
C921 C3 1.303 . S
C940 C238 1.273 . S
C957 C24 1.294 . S
C976 C319 1.236 . S
C993 C46 1.286 . S
C1012 C193 1.236 . S
C1029 C67 1.243 . S
C1048 C280 1.287 . S
C1065 C88 1.311 . S
C1084 C276 1.285 . S
C1101 C234 1.342 . S
C1120 C121 1.389 . S
C1137 C142 1.348 . S
C1156 C331 1.310 . S
C1173 C150 1.344 . S
C1192 C205 1.302 . S
C1209 C79 1.323 . S
C1228 C172 1.358 . S
C1245 C28 1.282 . S
C1264 C214 1.232 . S
C1281 C259 1.275 . S
C1300 C109 1.261 . S
C1317 C154 1.294 . S
C1336 C298 1.254 . S
C1353 C184 1.331 . S
C1372 C100 1.337 . S
C1389 C130 1.277 . S
C1408 C226 1.332 . S
C1425 C58 1.316 . S
C1444 C310 1.335 . S
C1461 C7 1.274 . S
C1480 C255 1.326 . S
C1497 C19 1.324 . S
C1516 C91 1.315 . S
C1533 C40 1.327 . S
C1552 C125 1.302 . S
C1569 C49 1.322 . S
C1588 C146 1.331 . S
C1605 C70 1.360 . S
C1624 C166 1.392 . S
C1641 C256 1.330 . S
C1660 C175 1.372 . S
C1677 C277 1.341 . S
C1696 C209 1.364 . S
C1713 C217 1.333 . S
C1732 C301 1.352 . S
C1749 C322 1.326 . S
C1768 C250 1.287 . S
C1785 C25 1.335 . S
C1804 C151 1.317 . S
C1821 C104 1.313 . S
C1840 C62 1.301 . S
C1857 C112 1.319 . S
C1876 C83 1.328 . S
C1893 C4 1.350 . S
C1912 C133 1.322 . S
C1929 C335 1.334 . S
C1948 C196 1.292 . S
C1965 C271 1.329 . S
C1984 C230 1.371 . S
C2001 C292 1.345 . S
C2020 C235 1.302 . S
C2037 C314 1.329 . S
C2056 C188 1.357 . S
