# Generated by pormake.
# Topology snp, (6)-cn, num edge types: 1
# Building blocks:
#     Node 0, Type 0, BuildingBlock: KUMBOL_clean_sbu_0, # of connection points: 6
#     Node 1, Type 0, BuildingBlock: KUMBOL_clean_sbu_0, # of connection points: 6
#     Node 2, Type 0, BuildingBlock: KUMBOL_clean_sbu_0, # of connection points: 6
#     Node 3, Type 0, BuildingBlock: KUMBOL_clean_sbu_0, # of connection points: 6
#     Edge 4, Type (0, 0), BuildingBlock: KIFKEQ_clean_linker_1, # of connection points: 2
#     Edge 5, Type (0, 0), BuildingBlock: KIFKEQ_clean_linker_1, # of connection points: 2
#     Edge 6, Type (0, 0), BuildingBlock: KIFKEQ_clean_linker_1, # of connection points: 2
#     Edge 7, Type (0, 0), BuildingBlock: KIFKEQ_clean_linker_1, # of connection points: 2
#     Edge 8, Type (0, 0), BuildingBlock: KIFKEQ_clean_linker_1, # of connection points: 2
#     Edge 9, Type (0, 0), BuildingBlock: KIFKEQ_clean_linker_1, # of connection points: 2
#     Edge 10, Type (0, 0), BuildingBlock: KIFKEQ_clean_linker_1, # of connection points: 2
#     Edge 11, Type (0, 0), BuildingBlock: KIFKEQ_clean_linker_1, # of connection points: 2
#     Edge 12, Type (0, 0), BuildingBlock: KIFKEQ_clean_linker_1, # of connection points: 2
#     Edge 13, Type (0, 0), BuildingBlock: KIFKEQ_clean_linker_1, # of connection points: 2
#     Edge 14, Type (0, 0), BuildingBlock: KIFKEQ_clean_linker_1, # of connection points: 2
#     Edge 15, Type (0, 0), BuildingBlock: KIFKEQ_clean_linker_1, # of connection points: 2
# Relax obj value: 0.232
# Max RMSD: 0.259
# Mean RMSD: 0.234
data_MOF--net-snp--node1-KUMBOL_clean_sbu_0--edge1-KIFKEQ_clean_linker_1
_symmetry_space_group_name_H-M    P1
_symmetry_Int_Tables_number       1
_symmetry_cell_setting            triclinic
loop_
_symmetry_equiv_pos_as_xyz
'x, y, z'
_cell_length_a     25.187448
_cell_length_b     26.812396
_cell_length_c     33.394814
_cell_angle_alpha  116.34428
_cell_angle_beta   97.060891
_cell_angle_gamma 94.15243
loop_
_atom_site_label
_atom_site_type_symbol
_atom_site_fract_x
_atom_site_fract_y
_atom_site_fract_z
_atom_type_partial_charge
Gd0 Gd 0.33912 0.05366 0.26783 0.0
Gd1 Gd 0.35152 0.18427 0.25438 0.0
C2 C 0.38887 0.35708 0.37903 0.0
C3 C 0.31243 0.40216 0.36698 0.0
C4 C 0.31988 0.30688 0.31231 0.0
C5 C 0.3675 0.30845 0.33822 0.0
C6 C 0.29241 0.35418 0.32565 0.0
C7 C 0.36054 0.40355 0.39371 0.0
C8 C 0.43853 0.3579 0.40337 0.0
C9 C 0.46624 0.31164 0.38611 0.0
N10 N 0.39369 0.2628 0.3228 0.0
C11 C 0.44352 0.26456 0.34525 0.0
H12 H 0.46554 0.22926 0.33256 0.0
C13 C 0.25925 0.25907 0.24286 0.0
N14 N 0.30181 0.25989 0.2728 0.0
C15 C 0.23046 0.30483 0.25445 0.0
C16 C 0.24661 0.35233 0.2964 0.0
H17 H 0.24664 0.22242 0.21038 0.0
H18 H 0.37609 0.44115 0.42514 0.0
H19 H 0.23013 0.98142 0.18877 0.0
H20 H 0.45629 0.39438 0.43495 0.0
H21 H 0.50514 0.31219 0.40424 0.0
H22 H 0.29164 0.43877 0.37808 0.0
H23 H 0.46165 0.0492 0.31714 0.0
H24 H 0.2728 0.82685 0.0926 0.0
H25 H 0.20518 0.89168 0.11847 0.0
H26 H 0.4545 0.82917 0.15721 0.0
H27 H 0.19586 0.30337 0.23107 0.0
H28 H 0.22436 0.3878 0.30532 0.0
H29 H 0.36609 0.80394 0.1073 0.0
H30 H 0.53173 0.98626 0.3007 0.0
N31 N 0.31132 0.9685 0.20148 0.0
C32 C 0.284 0.86632 0.12332 0.0
C33 C 0.24568 0.90272 0.13786 0.0
C34 C 0.33581 0.88051 0.14936 0.0
C35 C 0.34831 0.93247 0.18894 0.0
C36 C 0.25992 0.95355 0.17765 0.0
N37 N 0.40768 0.99604 0.25579 0.0
C38 C 0.39784 0.9463 0.21722 0.0
C39 C 0.49429 0.97462 0.2769 0.0
C40 C 0.4855 0.92414 0.23671 0.0
C41 C 0.45451 0.01009 0.28619 0.0
C42 C 0.43662 0.90916 0.20646 0.0
H43 H 0.51639 0.89676 0.22965 0.0
O44 O 0.34324 0.03914 0.32715 0.0
O45 O 0.34639 0.14647 0.30089 0.0
O46 O 0.43135 0.15075 0.25975 0.0
O47 O 0.40797 0.05489 0.23117 0.0
O48 O 0.39092 0.11356 0.33594 0.0
O49 O 0.2696 0.00949 0.2774 0.0
O50 O 0.34543 0.19222 0.19201 0.0
O51 O 0.33509 0.09102 0.21989 0.0
O52 O 0.2566 0.07924 0.25653 0.0
O53 O 0.26936 0.17457 0.27281 0.0
O54 O 0.29082 0.13204 0.19071 0.0
O55 O 0.42223 0.21666 0.23741 0.0
C56 C 0.37603 0.15957 0.33814 0.0
C57 C 0.42511 0.85819 0.16624 0.0
C58 C 0.3748 0.84388 0.13776 0.0
C59 C 0.29487 0.01041 0.31439 0.0
C60 C 0.29034 0.95674 0.31717 0.0
C61 C 0.31065 0.91066 0.28576 0.0
C62 C 0.2666 0.95134 0.35154 0.0
C63 C 0.26284 0.89978 0.35388 0.0
C64 C 0.30782 0.86011 0.28825 0.0
C65 C 0.28424 0.85462 0.32196 0.0
C66 C 0.44121 0.09864 0.23663 0.0
C67 C 0.29919 0.08337 0.18686 0.0
C68 C 0.39507 0.21651 0.20146 0.0
C69 C 0.40259 0.26856 0.19683 0.0
C70 C 0.41547 0.32133 0.23522 0.0
C71 C 0.3955 0.26548 0.15332 0.0
C72 C 0.40213 0.31467 0.14802 0.0
C73 C 0.42193 0.37024 0.23016 0.0
C74 C 0.41556 0.36706 0.18691 0.0
C75 C 0.23807 0.12741 0.26403 0.0
H76 H 0.32893 0.91371 0.25935 0.0
H77 H 0.25049 0.98671 0.37579 0.0
H78 H 0.32404 0.82498 0.26394 0.0
H79 H 0.28317 0.8149 0.32324 0.0
H80 H 0.42052 0.32481 0.26907 0.0
H81 H 0.38546 0.22477 0.12364 0.0
H82 H 0.43183 0.4108 0.25987 0.0
H83 H 0.42045 0.40563 0.18385 0.0
Gd84 Gd 0.21691 0.31881 0.68526 0.0
Gd85 Gd 0.09091 0.30799 0.61142 0.0
C86 C 0.94522 0.38893 0.66636 0.0
C87 C 0.89791 0.31729 0.68012 0.0
C88 C 0.98107 0.30152 0.64897 0.0
C89 C 0.98559 0.35449 0.65127 0.0
C90 C 0.93668 0.28198 0.66275 0.0
C91 C 0.90209 0.37061 0.68181 0.0
C92 C 0.94829 0.43975 0.6638 0.0
C93 C 0.98955 0.45393 0.64474 0.0
N94 N 0.02771 0.37095 0.63612 0.0
C95 C 0.02852 0.41828 0.63011 0.0
H96 H 0.06052 0.4293 0.61538 0.0
C97 C 0.01382 0.21416 0.62566 0.0
N98 N 0.01909 0.26834 0.63185 0.0
C99 C 0.97054 0.19296 0.63885 0.0
C100 C 0.93213 0.22722 0.65798 0.0
H101 H 0.04335 0.18721 0.61148 0.0
H102 H 0.87102 0.39675 0.69402 0.0
H103 H 0.29303 0.24122 0.61189 0.0
H104 H 0.918 0.46732 0.67493 0.0
H105 H 0.99125 0.49214 0.64116 0.0
H106 H 0.86386 0.30324 0.69131 0.0
H107 H 0.22603 0.43115 0.78686 0.0
H108 H 0.42986 0.34917 0.61655 0.0
H109 H 0.37618 0.25472 0.58366 0.0
H110 H 0.42061 0.52325 0.7456 0.0
H111 H 0.96712 0.15035 0.63461 0.0
H112 H 0.89878 0.21075 0.66836 0.0
H113 H 0.44575 0.44991 0.67691 0.0
H114 H 0.2823 0.52371 0.83273 0.0
N115 N 0.29754 0.3277 0.65828 0.0
C116 C 0.39309 0.34358 0.62876 0.0
C117 C 0.36299 0.2902 0.61022 0.0
C118 C 0.37697 0.38839 0.66464 0.0
C119 C 0.3287 0.37875 0.67915 0.0
C120 C 0.31564 0.28281 0.62613 0.0
N121 N 0.27046 0.40689 0.73244 0.0
C122 C 0.315 0.41965 0.71785 0.0
C123 C 0.29171 0.49501 0.8003 0.0
C124 C 0.33564 0.51017 0.78424 0.0
C125 C 0.26001 0.44248 0.77429 0.0
C126 C 0.34848 0.47184 0.743 0.0
H127 H 0.36033 0.55074 0.80459 0.0
O128 O 0.22756 0.30961 0.74726 0.0
O129 O 0.12682 0.29183 0.66854 0.0
O130 O 0.10939 0.39245 0.67318 0.0
O131 O 0.20311 0.40392 0.69039 0.0
O132 O 0.16058 0.34418 0.73579 0.0
O133 O 0.26711 0.25943 0.69207 0.0
O134 O 0.04214 0.24211 0.54931 0.0
O135 O 0.17948 0.30663 0.61744 0.0
O136 O 0.19963 0.22929 0.6276 0.0
O137 O 0.11507 0.2224 0.58612 0.0
O138 O 0.14982 0.35537 0.58941 0.0
O139 O 0.0676 0.32289 0.5532 0.0
C140 C 0.11647 0.31637 0.70849 0.0
C141 C 0.39466 0.48316 0.72705 0.0
C142 C 0.4089 0.44145 0.68789 0.0
C143 C 0.26351 0.27595 0.73451 0.0
C144 C 0.3147 0.2924 0.76692 0.0
C145 C 0.36221 0.3135 0.75809 0.0
C146 C 0.3155 0.2904 0.8084 0.0
C147 C 0.36308 0.31044 0.84118 0.0
C148 C 0.40952 0.33278 0.79025 0.0
C149 C 0.41 0.33159 0.83162 0.0
C150 C 0.15683 0.42434 0.69095 0.0
C151 C 0.19265 0.33623 0.5987 0.0
C152 C 0.04434 0.27153 0.52709 0.0
C153 C 0.061 0.24402 0.48233 0.0
C154 C 0.11009 0.22236 0.4787 0.0
C155 C 0.02913 0.2411 0.44339 0.0
C156 C 0.04666 0.21695 0.40102 0.0
C157 C 0.12778 0.19859 0.43711 0.0
C158 C 0.09644 0.19587 0.39853 0.0
C159 C 0.1578 0.20058 0.59452 0.0
H160 H 0.36282 0.31561 0.72657 0.0
H161 H 0.27881 0.27487 0.81568 0.0
H162 H 0.44588 0.34912 0.78321 0.0
H163 H 0.4472 0.34692 0.85613 0.0
H164 H 0.1346 0.22387 0.50816 0.0
H165 H 0.9913 0.25822 0.44623 0.0
H166 H 0.16583 0.18198 0.43472 0.0
H167 H 0.11077 0.17622 0.36652 0.0
Gd168 Gd 0.83572 0.96359 1.02067 0.0
Gd169 Gd 0.82094 0.08813 1.00376 0.0
C170 C 0.77793 0.25251 0.10963 0.0
C171 C 0.68774 0.25449 0.07538 0.0
C172 C 0.73632 0.17632 0.03654 0.0
C173 C 0.77957 0.20055 0.07196 0.0
C174 C 0.69003 0.20323 0.03765 0.0
C175 C 0.73159 0.27906 0.11134 0.0
C176 C 0.82325 0.27666 0.14413 0.0
C177 C 0.8691 0.24971 0.13996 0.0
N178 N 0.82381 0.17398 0.06907 0.0
C179 C 0.86889 0.19856 0.10172 0.0
H180 H 0.90474 0.1786 0.09872 0.0
C181 C 0.69869 0.10218 0.9642 0.0
N182 N 0.73959 0.12624 1.00092 0.0
C183 C 0.65198 0.12728 0.96379 0.0
C184 C 0.64747 0.17786 1.00075 0.0
H185 H 0.70137 0.06332 0.93519 0.0
H186 H 0.72951 0.31887 0.14006 0.0
H187 H 0.70575 0.94927 0.95893 0.0
H188 H 0.82357 0.31644 0.17368 0.0
H189 H 0.90472 0.26836 0.1661 0.0
H190 H 0.65242 0.27564 0.07694 0.0
H191 H 0.95075 0.91176 0.99939 0.0
H192 H 0.65619 0.77647 0.8693 0.0
H193 H 0.63612 0.87384 0.90608 0.0
H194 H 0.82041 0.69775 0.86524 0.0
H195 H 0.6195 0.10762 0.93487 0.0
H196 H 0.61121 0.19716 1.00031 0.0
H197 H 0.72527 0.71121 0.85417 0.0
H198 H 0.98252 0.82242 0.95462 0.0
N199 N 0.76487 0.89624 0.96106 0.0
C200 C 0.68689 0.80957 0.89463 0.0
C201 C 0.67536 0.86431 0.91548 0.0
C202 C 0.73921 0.7991 0.90401 0.0
C203 C 0.77789 0.84388 0.93724 0.0
C204 C 0.71518 0.90729 0.94745 0.0
N205 N 0.86795 0.88151 0.97167 0.0
C206 C 0.83129 0.83645 0.94262 0.0
C207 C 0.9398 0.82564 0.9507 0.0
C208 C 0.90253 0.77886 0.92085 0.0
C209 C 0.92163 0.87661 0.97594 0.0
C210 C 0.84756 0.78391 0.91621 0.0
H211 H 0.91661 0.73931 0.90123 0.0
O212 O 0.90176 0.96866 0.0708 0.0
O213 O 0.84898 0.05725 0.05366 0.0
O214 O 0.9075 0.08968 0.03197 0.0
O215 O 0.91537 0.9958 1.0074 0.0
O216 O 0.81449 0.02084 0.08846 0.0
O217 O 0.8298 0.90859 0.05346 0.0
O218 O 0.82925 0.09099 0.9405 0.0
O219 O 0.83683 0.99914 0.97308 0.0
O220 O 0.75186 0.98452 0.03367 0.0
O221 O 0.74494 0.06896 0.02852 0.0
O222 O 0.77926 0.01871 0.9355 0.0
O223 O 0.87793 0.15272 1.00292 0.0
C224 C 0.83378 0.06845 0.09123 0.0
C225 C 0.80874 0.73846 0.88543 0.0
C226 C 0.75459 0.74606 0.8793 0.0
C227 C 0.87712 0.93086 0.07917 0.0
C228 C 0.91066 0.8969 0.09404 0.0
C229 C 0.96264 0.88917 0.08327 0.0
C230 C 0.89377 0.87921 0.12508 0.0
C231 C 0.92869 0.85475 0.14538 0.0
C232 C -0.00376 0.86263 0.10158 0.0
C233 C 0.97958 0.84566 0.13246 0.0
C234 C 0.93781 0.04893 0.0235 0.0
C235 C 0.80574 0.97952 0.93556 0.0
C236 C 0.86514 0.1357 0.95951 0.0
C237 C 0.85744 0.17928 0.94451 0.0
C238 C 0.81915 0.21554 0.96061 0.0
C239 C 0.88881 0.18509 0.9141 0.0
C240 C 0.88263 0.22778 0.90068 0.0
C241 C 0.81235 0.25726 0.94702 0.0
C242 C 0.84386 0.26355 0.9175 0.0
C243 C 0.72608 0.0278 0.03734 0.0
H244 H 0.97845 0.90526 0.06209 0.0
H245 H 0.85485 0.8875 0.1354 0.0
H246 H 0.0361 0.85674 0.09284 0.0
H247 H 0.00699 0.82626 0.14693 0.0
H248 H 0.79467 0.21174 0.9838 0.0
H249 H 0.91869 0.15734 0.90178 0.0
H250 H 0.78265 0.28505 0.95959 0.0
H251 H 0.83765 0.29633 0.90755 0.0
Gd252 Gd 0.09249 0.88074 0.67455 0.0
Gd253 Gd 0.98155 0.78093 0.58279 0.0
C254 C 0.83005 0.70141 0.6068 0.0
C255 C 0.84515 0.60401 0.57944 0.0
C256 C 0.91056 0.67211 0.57531 0.0
C257 C 0.87963 0.714 0.59538 0.0
C258 C 0.89342 0.61644 0.56652 0.0
C259 C 0.81349 0.64643 0.59953 0.0
C260 C 0.79796 0.74409 0.624 0.0
C261 C 0.81466 0.797 0.62775 0.0
N262 N 0.89674 0.76647 0.60164 0.0
C263 C 0.86401 0.80722 0.61562 0.0
H264 H 0.87633 0.84827 0.61861 0.0
C265 C 0.98664 0.6449 0.53999 0.0
N266 N 0.95679 0.68561 0.56315 0.0
C267 C 0.97146 0.58908 0.53068 0.0
C268 C 0.92489 0.57485 0.54435 0.0
H269 H 0.02297 0.6557 0.52975 0.0
H270 H 0.77575 0.63605 0.60844 0.0
H271 H 0.18748 0.8009 0.62871 0.0
H272 H 0.75965 0.73622 0.6333 0.0
H273 H 0.7896 0.82999 0.64004 0.0
H274 H 0.83146 0.56157 0.57328 0.0
H275 H 0.06337 0.01114 0.72905 0.0
H276 H 0.31009 0.902 0.60873 0.0
H277 H 0.27221 0.81025 0.6018 0.0
H278 H 0.25711 0.0859 0.67548 0.0
H279 H 0.99576 0.55713 0.51309 0.0
H280 H 0.9132 0.53158 0.53706 0.0
H281 H 0.30404 0.00484 0.63621 0.0
H282 H 0.09784 0.1075 0.74393 0.0
N283 N 0.17563 0.88628 0.64979 0.0
C284 C 0.2726 0.89819 0.62063 0.0
C285 C 0.25138 0.84638 0.61671 0.0
C286 C 0.24588 0.94478 0.64089 0.0
C287 C 0.19709 0.93742 0.6556 0.0
C288 C 0.20304 0.84131 0.63209 0.0
N289 N 0.12491 0.97398 0.69206 0.0
C290 C 0.17084 0.98279 0.67749 0.0
C291 C 0.11881 0.07282 0.72518 0.0
C292 C 0.16525 0.08229 0.70919 0.0
C293 C 0.09949 0.01822 0.71679 0.0
C294 C 0.19234 0.03712 0.68554 0.0
H295 H 0.18019 0.12461 0.71572 0.0
O296 O 0.10916 0.92592 0.74855 0.0
O297 O 0.01003 0.83356 0.65699 0.0
O298 O 0.96627 0.87083 0.6053 0.0
O299 O 0.05191 0.9241 0.63806 0.0
O300 O 0.02362 0.91252 0.71182 0.0
O301 O 0.1388 0.84677 0.71311 0.0
O302 O 0.97598 0.74284 0.50939 0.0
O303 O 0.062 0.83252 0.60083 0.0
O304 O 0.10223 0.78872 0.64918 0.0
O305 O 0.01515 0.73959 0.6241 0.0
O306 O 0.05314 0.75492 0.54652 0.0
O307 O 0.92499 0.80571 0.54293 0.0
C308 C 0.98811 0.86898 0.68725 0.0
C309 C 0.24019 0.04459 0.67001 0.0
C310 C 0.26684 0.99844 0.64759 0.0
C311 C 0.1381 0.8893 0.75222 0.0
C312 C 0.19004 0.91106 0.78369 0.0
C313 C 0.23719 0.92351 0.7695 0.0
C314 C 0.19311 0.91604 0.82764 0.0
C315 C 0.24318 0.93235 0.85713 0.0
C316 C 0.28692 0.93986 0.79862 0.0
C317 C 0.29007 0.94393 0.84207 0.0
C318 C 0.00151 0.91604 0.61711 0.0
C319 C 0.08558 0.80141 0.56973 0.0
C320 C 0.93963 0.77304 0.50472 0.0
C321 C 0.89807 0.74781 0.46367 0.0
C322 C 0.85368 0.70966 0.45853 0.0
C323 C 0.90256 0.7643 0.42957 0.0
C324 C 0.86268 0.74341 0.39025 0.0
C325 C 0.81405 0.68828 0.41955 0.0
C326 C 0.81831 0.705 0.3857 0.0
C327 C 0.06646 0.74571 0.64206 0.0
H328 H 0.23569 0.91987 0.73579 0.0
H329 H 0.15672 0.90614 0.83855 0.0
H330 H 0.3232 0.94923 0.78743 0.0
H331 H 0.32902 0.95713 0.86421 0.0
H332 H 0.8496 0.69681 0.48467 0.0
H333 H 0.93753 0.79336 0.43377 0.0
H334 H 0.77959 0.65895 0.41569 0.0
H335 H 0.7864 0.6885 0.35636 0.0
H336 H 0.01632 0.98268 0.02596 0.0
H337 H 0.98905 0.15554 0.07956 0.0
H338 H 0.08368 0.00669 0.09222 0.0
H339 H 0.05067 0.179 0.14765 0.0
H340 H 0.18077 0.21163 0.26616 0.0
H341 H 0.11715 0.19713 0.20083 0.0
H342 H 0.08917 0.01908 0.16276 0.0
H343 H 0.16022 0.03378 0.2241 0.0
C344 C 0.02419 0.02568 0.05212 0.0
C345 C 0.99354 0.06597 0.04949 0.0
C346 C 0.06219 0.03956 0.09089 0.0
C347 C 0.06947 0.09386 0.12805 0.0
C348 C 0.04555 0.13609 0.12141 0.0
C349 C 0.00944 0.12249 0.0818 0.0
C350 C 0.16163 0.16933 0.24308 0.0
C351 C 0.18026 0.12326 0.24661 0.0
C352 C 0.12423 0.16064 0.20543 0.0
C353 C 0.10117 0.10563 0.17299 0.0
C354 C 0.10996 0.06135 0.18385 0.0
C355 C 0.14968 0.06998 0.22015 0.0
H356 H 0.00118 0.02804 0.65506 0.0
H357 H 0.98903 0.87955 0.52711 0.0
H358 H 0.04901 0.08265 0.62521 0.0
H359 H 0.0381 0.93384 0.49757 0.0
H360 H 0.09984 0.13417 0.51005 0.0
H361 H 0.0454 0.04753 0.49585 0.0
H362 H 0.15192 0.03926 0.60322 0.0
H363 H 0.20442 0.12822 0.62011 0.0
C364 C 0.00532 0.008 0.6196 0.0
C365 C 0.99248 0.94977 0.59358 0.0
C366 C 0.03368 0.03873 0.60284 0.0
C367 C 0.04894 0.01112 0.56006 0.0
C368 C 0.02731 0.95523 0.53094 0.0
C369 C -0.00184 0.92461 0.54762 0.0
C370 C 0.11355 0.1123 0.52907 0.0
C371 C 0.15361 0.13946 0.56833 0.0
C372 C 0.08232 0.06261 0.52067 0.0
C373 C 0.09346 0.03945 0.55026 0.0
C374 C 0.1423 0.05844 0.58126 0.0
C375 C 0.17259 0.10902 0.59062 0.0
H376 H 0.66465 0.11441 0.062 0.0
H377 H 0.67925 0.95678 0.06562 0.0
H378 H 0.59593 0.13151 0.11009 0.0
H379 H 0.61292 0.97493 0.11496 0.0
H380 H 0.45854 0.99781 0.17159 0.0
H381 H 0.52188 0.97999 0.11977 0.0
H382 H 0.58774 0.15643 0.1872 0.0
H383 H 0.52212 0.17481 0.23848 0.0
C384 C 0.65298 0.08314 0.07254 0.0
C385 C 0.67793 0.03437 0.05988 0.0
C386 C 0.61401 0.09331 0.10072 0.0
C387 C 0.59921 0.05499 0.11702 0.0
C388 C 0.62268 0.00524 0.10284 0.0
C389 C 0.66111 0.99489 0.07445 0.0
C390 C 0.48686 0.03293 0.17599 0.0
C391 C 0.48521 0.08783 0.20947 0.0
C392 C 0.52339 0.0226 0.14604 0.0
C393 C 0.56005 0.06671 0.14906 0.0
C394 C 0.55941 0.12155 0.18328 0.0
C395 C 0.52225 0.13203 0.21308 0.0
H396 H 0.22771 0.48993 0.67335 0.0
H397 H 0.0854 0.49144 0.73362 0.0
H398 H 0.20998 0.57567 0.66893 0.0
H399 H 0.0684 0.57828 0.73076 0.0
H400 H 0.16941 0.74049 0.67593 0.0
H401 H 0.19873 0.67364 0.70188 0.0
H402 H 0.03454 0.58889 0.66486 0.0
H403 H 0.00484 0.65668 0.64057 0.0
C404 C 0.19406 0.51016 0.68757 0.0
C405 C 0.15732 0.484 0.70312 0.0
C406 C 0.18372 0.55916 0.68491 0.0
C407 C 0.13689 0.58282 0.69832 0.0
C408 C 0.10391 0.56007 0.71893 0.0
C409 C 0.11394 0.51085 0.72111 0.0
C410 C 0.13946 0.70776 0.67354 0.0
C411 C 0.08472 0.70381 0.656 0.0
C412 C 0.15638 0.66942 0.68837 0.0
C413 C 0.11898 0.62624 0.68582 0.0
C414 C 0.06428 0.62236 0.66823 0.0
C415 C 0.04732 0.66078 0.65362 0.0
H416 H 0.22089 0.2335 0.54978 0.0
H417 H 0.25165 0.40622 0.57524 0.0
H418 H 0.28044 0.20676 0.49439 0.0
H419 H 0.31096 0.37845 0.51735 0.0
H420 H 0.42541 0.18516 0.42385 0.0
H421 H 0.39341 0.24158 0.49493 0.0
H422 H 0.2716 0.29036 0.42239 0.0
H423 H 0.30071 0.2321 0.35203 0.0
C424 C 0.24126 0.26612 0.54429 0.0
C425 C 0.23299 0.32233 0.56815 0.0
C426 C 0.27564 0.25069 0.51258 0.0
C427 C 0.30142 0.29083 0.50271 0.0
C428 C 0.29256 0.34712 0.52551 0.0
C429 C 0.25866 0.36286 0.5583 0.0
C430 C 0.39286 0.20925 0.42329 0.0
C431 C 0.36595 0.20416 0.38191 0.0
C432 C 0.37488 0.24176 0.46395 0.0
C433 C 0.33061 0.27081 0.46397 0.0
C434 C 0.30657 0.26938 0.42338 0.0
C435 C 0.32338 0.23563 0.3828 0.0
H436 H 0.04159 0.37565 0.75301 0.0
H437 H 0.09841 0.21503 0.70849 0.0
H438 H 0.98182 0.35077 0.79556 0.0
H439 H 0.041 0.19062 0.75304 0.0
H440 H 0.90561 0.14957 0.81939 0.0
H441 H 0.95594 0.1669 0.7674 0.0
H442 H 0.98845 0.34386 0.86252 0.0
H443 H 0.93678 0.32654 0.91294 0.0
C444 C 0.04046 0.33453 0.75184 0.0
C445 C 0.07323 0.29662 0.72644 0.0
C446 C 0.0069 0.32044 0.77684 0.0
C447 C 0.00687 0.26885 0.7787 0.0
C448 C 0.03911 0.2304 0.75229 0.0
C449 C 0.07205 0.24425 0.72662 0.0
C450 C 0.92382 0.19206 0.82909 0.0
C451 C 0.91677 0.23672 0.87016 0.0
C452 C 0.95275 0.20212 0.79929 0.0
C453 C 0.9759 0.25707 0.81007 0.0
C454 C 0.96997 0.30124 0.85193 0.0
C455 C 0.94064 0.29128 0.88125 0.0
H456 H 0.83497 0.68059 0.29744 0.0
H457 H 0.90105 0.84827 0.40143 0.0
H458 H 0.84596 0.71011 0.23917 0.0
H459 H 0.913 0.87715 0.34311 0.0
H460 H 0.99133 0.88209 0.22668 0.0
H461 H 0.97167 0.85677 0.28545 0.0
H462 H 0.81385 0.77321 0.20669 0.0
H463 H 0.83399 0.79832 0.14725 0.0
C464 C 0.85125 0.72389 0.30801 0.0
C465 C 0.86749 0.7618 0.35438 0.0
C466 C 0.85756 0.74079 0.2745 0.0
C467 C 0.88062 0.79592 0.28641 0.0
C468 C 0.89588 0.83411 0.3327 0.0
C469 C 0.88923 0.81739 0.36619 0.0
C470 C 0.95239 0.85829 0.22184 0.0
C471 C 0.91438 0.84177 0.18209 0.0
C472 C 0.94093 0.8442 0.25575 0.0
C473 C 0.8912 0.81287 0.25083 0.0
C474 C 0.85273 0.79696 0.21136 0.0
C475 C 0.86404 0.81167 0.1775 0.0
H476 H 0.18131 0.98926 0.91925 0.0
H477 H 0.31289 0.89126 0.9009 0.0
H478 H 0.19165 0.00878 0.99814 0.0
H479 H 0.32195 0.90812 0.97976 0.0
H480 H 0.37162 0.02792 0.13537 0.0
H481 H 0.35442 0.97815 0.05279 0.0
H482 H 0.18288 0.98151 0.05312 0.0
H483 H 0.20147 0.03544 0.13531 0.0
C484 C 0.21164 0.97071 0.93195 0.0
C485 C 0.24645 0.93907 0.90402 0.0
C486 C 0.21743 0.98143 0.97731 0.0
C487 C 0.25765 0.95992 0.9959 0.0
C488 C 0.29113 0.92627 0.96719 0.0
C489 C 0.28587 0.91639 0.92191 0.0
C490 C 0.3302 0.01584 0.11767 0.0
C491 C 0.2878 0.03506 0.1415 0.0
C492 C 0.32011 0.98745 0.07013 0.0
C493 C 0.26723 0.97712 0.04572 0.0
C494 C 0.22435 0.99058 0.07033 0.0
C495 C 0.23471 0.02045 0.11759 0.0
H496 H 0.74032 0.93195 0.85329 0.0
H497 H 0.89697 0.92917 0.92025 0.0
H498 H 0.76837 0.88126 0.7796 0.0
H499 H 0.92356 0.8758 0.84714 0.0
H500 H 0.91083 0.93477 0.71115 0.0
H501 H 0.84977 0.93675 0.76289 0.0
H502 H 0.90252 0.78649 0.76152 0.0
H503 H 0.9621 0.78306 0.70744 0.0
C504 C 0.77971 0.91809 0.85227 0.0
C505 C 0.81635 0.93434 0.89267 0.0
C506 C 0.79559 0.88891 0.81013 0.0
C507 C 0.84805 0.87455 0.80772 0.0
C508 C 0.88254 0.88545 0.84794 0.0
C509 C 0.86713 0.91582 0.89004 0.0
C510 C 0.9072 0.90056 0.72006 0.0
C511 C 0.94038 0.85842 0.70501 0.0
C512 C 0.87225 0.90159 0.74961 0.0
C513 C 0.87147 0.86177 0.76619 0.0
C514 C 0.90209 0.81733 0.74886 0.0
C515 C 0.93588 0.81523 0.71787 0.0
H516 H 0.27316 0.97095 0.44567 0.0
H517 H 0.19285 0.80944 0.34085 0.0
H518 H 0.23689 0.95098 0.50286 0.0
H519 H 0.15703 0.7896 0.3973 0.0
H520 H 0.1434 0.73952 0.50648 0.0
H521 H 0.1893 0.76706 0.4576 0.0
H522 H 0.15348 0.93627 0.52987 0.0
H523 H 0.1084 0.9088 0.5789 0.0
C524 C 0.24734 0.93154 0.43476 0.0
C525 C 0.23664 0.89146 0.38871 0.0
C526 C 0.22674 0.91996 0.46753 0.0
C527 C 0.19508 0.86802 0.45489 0.0
C528 C 0.18272 0.8292 0.4086 0.0
C529 C 0.20308 0.84074 0.3761 0.0
C530 C 0.14627 0.78287 0.51248 0.0
C531 C 0.12211 0.82181 0.54668 0.0
C532 C 0.17213 0.79862 0.48421 0.0
C533 C 0.17416 0.85373 0.48911 0.0
C534 C 0.15275 0.89355 0.52505 0.0
C535 C 0.12677 0.87769 0.55329 0.0
H536 H 0.39999 0.39798 0.9247 0.0
H537 H 0.32867 0.22361 0.85821 0.0
H538 H 0.40688 0.3982 0.9981 0.0
H539 H 0.33745 0.22272 0.93166 0.0
H540 H 0.31972 0.25511 0.07625 0.0
H541 H 0.30696 0.25396 1.00208 0.0
H542 H 0.45804 0.36496 0.04204 0.0
H543 H 0.46939 0.36747 0.11634 0.0
C544 C 0.38606 0.35954 0.92589 0.0
C545 C 0.36414 0.31069 0.8858 0.0
C546 C 0.39032 0.35946 0.96795 0.0
C547 C 0.37351 0.31023 0.97103 0.0
C548 C 0.3504 0.26159 0.93082 0.0
C549 C 0.34546 0.26195 0.88868 0.0
C550 C 0.35019 0.27902 0.06893 0.0
C551 C 0.39535 0.31171 0.10215 0.0
C552 C 0.34302 0.27828 0.02638 0.0
C553 C 0.38119 0.30977 1.01594 0.0
C554 C 0.42698 0.34136 0.04905 0.0
C555 C 0.43374 0.34261 0.09165 0.0
H556 H 0.79681 0.14437 0.16497 0.0
H557 H 0.93991 0.07674 0.11909 0.0
H558 H 0.84704 0.19441 0.24323 0.0
H559 H 0.99015 0.12609 0.19573 0.0
H560 H 0.08049 0.23587 0.33342 0.0
H561 H 0.02837 0.21471 0.25993 0.0
H562 H 0.88472 0.16441 0.2992 0.0
H563 H 0.93696 0.18592 0.37297 0.0
C564 C 0.83958 0.14215 0.1714 0.0
C565 C 0.86546 0.10916 0.13563 0.0
C566 C 0.8682 0.17018 0.21612 0.0
C567 C 0.92301 0.16493 0.22581 0.0
C568 C 0.94876 0.13293 0.18957 0.0
C569 C 0.92021 0.10512 0.14528 0.0
C570 C 0.03766 0.2208 0.32659 0.0
C571 C 0.0131 0.21182 0.35893 0.0
C572 C 0.00773 0.20875 0.28443 0.0
C573 C 0.95238 0.18727 0.27335 0.0
C574 C 0.92709 0.18144 0.30667 0.0
C575 C 0.9571 0.19364 0.349 0.0
loop_
_geom_bond_atom_site_label_1
_geom_bond_atom_site_label_2
_geom_bond_distance
_geom_bond_site_symmetry_2
_ccdc_geom_bond_type
Gd0 N31 2.661 . S
Gd0 N37 2.601 . S
Gd0 O44 2.545 . S
Gd0 O45 2.606 1_565 S
Gd0 O47 2.429 . S
Gd0 O48 2.545 1_565 S
Gd0 O49 2.412 . S
Gd0 O51 2.362 . S
Gd0 O52 2.324 . S
Gd0 C59 2.828 . S
Gd1 N10 2.661 . S
Gd1 N14 2.601 . S
Gd1 O45 2.362 . S
Gd1 O46 2.324 . S
Gd1 O50 2.545 . S
Gd1 O51 2.606 1_545 S
Gd1 O53 2.429 . S
Gd1 O54 2.545 . S
Gd1 O55 2.412 . S
Gd1 C68 2.828 . S
C2 C5 1.417 . S
C2 C7 1.431 . S
C2 C8 1.412 . S
C3 C6 1.437 . S
C3 C7 1.317 . S
C3 H22 0.929 . S
C4 C5 1.426 . S
C4 C6 1.413 . S
C4 N14 1.359 . S
C5 C2 1.417 . S
C5 C4 1.426 . S
C5 N10 1.350 . S
C6 C3 1.437 . S
C6 C4 1.413 . S
C6 C16 1.391 . S
C7 C2 1.431 . S
C7 C3 1.317 . S
C7 H18 0.930 . S
C8 C2 1.412 . S
C8 C9 1.355 . S
C8 H20 0.930 . S
C9 C8 1.355 . S
C9 C11 1.402 . S
C9 H21 0.930 . S
N10 Gd1 2.661 . S
N10 C5 1.350 . S
N10 C11 1.307 . S
C11 C9 1.402 . S
C11 N10 1.307 . S
C11 H12 0.930 . S
H12 C11 0.930 . S
C13 N14 1.334 . S
C13 C15 1.394 . S
C13 H17 0.930 . S
N14 Gd1 2.601 . S
N14 C4 1.359 . S
N14 C13 1.334 . S
C15 C13 1.394 . S
C15 C16 1.359 . S
C15 H27 0.930 . S
C16 C6 1.391 . S
C16 C15 1.359 . S
C16 H28 0.929 . S
H17 C13 0.930 . S
H18 C7 0.930 . S
H19 C36 0.930 . S
H20 C8 0.930 . S
H21 C9 0.930 . S
H22 C3 0.929 . S
H23 C41 0.930 . S
H24 C32 0.930 1_556 S
H25 C33 0.930 . S
H26 C57 0.929 . S
H27 C15 0.930 . S
H28 C16 0.929 . S
H29 C58 0.930 1_556 S
H30 C39 0.930 . S
N31 Gd0 2.661 . S
N31 C35 1.350 . S
N31 C36 1.307 . S
C32 H24 0.930 1_554 S
C32 C33 1.355 . S
C32 C34 1.412 . S
C33 H25 0.930 . S
C33 C32 1.355 . S
C33 C36 1.402 . S
C34 C32 1.412 . S
C34 C35 1.417 . S
C34 C58 1.431 . S
C35 N31 1.350 . S
C35 C34 1.417 . S
C35 C38 1.426 . S
C36 H19 0.930 . S
C36 N31 1.307 . S
C36 C33 1.402 . S
N37 Gd0 2.601 . S
N37 C38 1.359 . S
N37 C41 1.334 . S
C38 C35 1.426 . S
C38 N37 1.359 . S
C38 C42 1.413 . S
C39 H30 0.930 . S
C39 C40 1.359 . S
C39 C41 1.394 . S
C40 C39 1.359 . S
C40 C42 1.391 . S
C40 H43 0.929 . S
C41 H23 0.930 . S
C41 N37 1.334 . S
C41 C39 1.394 . S
C42 C38 1.413 . S
C42 C40 1.391 . S
C42 C57 1.437 . S
H43 C40 0.929 . S
O44 Gd0 2.545 . S
O44 C59 1.258 . S
O45 Gd0 2.606 1_545 S
O45 Gd1 2.362 . S
O45 C56 1.284 . S
O46 Gd1 2.324 . S
O46 C66 1.254 . S
O47 Gd0 2.429 . S
O47 C66 1.268 1_565 S
O48 Gd0 2.545 1_545 S
O48 C56 1.250 . S
O49 Gd0 2.412 . S
O49 C59 1.252 . S
O50 Gd1 2.545 . S
O50 C68 1.258 . S
O51 Gd0 2.362 . S
O51 Gd1 2.606 1_565 S
O51 C67 1.284 . S
O52 Gd0 2.324 . S
O52 C75 1.254 1_565 S
O53 Gd1 2.429 . S
O53 C75 1.268 . S
O54 Gd1 2.545 . S
O54 C67 1.250 1_545 S
O55 Gd1 2.412 . S
O55 C68 1.252 . S
C56 O45 1.284 . S
C56 O48 1.250 . S
C57 H26 0.929 . S
C57 C42 1.437 . S
C57 C58 1.317 . S
C58 H29 0.930 1_554 S
C58 C34 1.431 . S
C58 C57 1.317 . S
C59 Gd0 2.828 . S
C59 O44 1.258 . S
C59 O49 1.252 . S
C59 C60 1.497 . S
C60 C59 1.497 . S
C60 C61 1.395 . S
C60 C62 1.380 . S
C61 C60 1.395 . S
C61 C64 1.398 . S
C61 H76 0.930 . S
C62 C60 1.380 . S
C62 C63 1.391 . S
C62 H77 0.930 . S
C63 C62 1.391 . S
C63 C65 1.387 . S
C64 C61 1.398 . S
C64 C65 1.380 . S
C64 H78 0.930 . S
C65 C63 1.387 . S
C65 C64 1.380 . S
C65 H79 0.930 . S
C66 O46 1.254 . S
C66 O47 1.268 1_545 S
C67 O51 1.284 . S
C67 O54 1.250 1_565 S
C68 Gd1 2.828 . S
C68 O50 1.258 . S
C68 O55 1.252 . S
C68 C69 1.497 . S
C69 C68 1.497 . S
C69 C70 1.395 . S
C69 C71 1.380 . S
C70 C69 1.395 . S
C70 C73 1.398 . S
C70 H80 0.930 . S
C71 C69 1.380 . S
C71 C72 1.391 . S
C71 H81 0.930 . S
C72 C71 1.391 . S
C72 C74 1.387 . S
C73 C70 1.398 . S
C73 C74 1.380 . S
C73 H82 0.930 . S
C74 C72 1.387 . S
C74 C73 1.380 . S
C74 H83 0.930 . S
C75 O52 1.254 1_545 S
C75 O53 1.268 . S
H76 C61 0.930 . S
H77 C62 0.930 . S
H78 C64 0.930 . S
H79 C65 0.930 . S
H80 C70 0.930 . S
H81 C71 0.930 . S
H82 C73 0.930 . S
H83 C74 0.930 . S
Gd84 N115 2.661 . S
Gd84 N121 2.601 . S
Gd84 O128 2.545 . S
Gd84 O129 2.606 . S
Gd84 O131 2.429 . S
Gd84 O132 2.545 . S
Gd84 O133 2.412 . S
Gd84 O135 2.362 . S
Gd84 O136 2.324 . S
Gd84 C143 2.828 . S
Gd85 N94 2.661 . S
Gd85 N98 2.601 . S
Gd85 O129 2.362 . S
Gd85 O130 2.324 . S
Gd85 O134 2.545 . S
Gd85 O135 2.606 . S
Gd85 O137 2.429 . S
Gd85 O138 2.545 . S
Gd85 O139 2.412 . S
Gd85 C152 2.828 . S
C86 C89 1.417 . S
C86 C91 1.431 . S
C86 C92 1.412 . S
C87 C90 1.437 . S
C87 C91 1.317 . S
C87 H106 0.929 . S
C88 C89 1.426 . S
C88 C90 1.413 . S
C88 N98 1.359 1_655 S
C89 C86 1.417 . S
C89 C88 1.426 . S
C89 N94 1.350 1_655 S
C90 C87 1.437 . S
C90 C88 1.413 . S
C90 C100 1.391 . S
C91 C86 1.431 . S
C91 C87 1.317 . S
C91 H102 0.930 . S
C92 C86 1.412 . S
C92 C93 1.355 1_655 S
C92 H104 0.930 . S
C93 C92 1.355 1_455 S
C93 C95 1.402 . S
C93 H105 0.930 . S
N94 Gd85 2.661 . S
N94 C89 1.350 1_455 S
N94 C95 1.307 . S
C95 C93 1.402 . S
C95 N94 1.307 . S
C95 H96 0.930 . S
H96 C95 0.930 . S
C97 N98 1.334 . S
C97 C99 1.394 1_455 S
C97 H101 0.930 . S
N98 Gd85 2.601 . S
N98 C88 1.359 1_455 S
N98 C97 1.334 . S
C99 C97 1.394 1_655 S
C99 C100 1.359 . S
C99 H111 0.930 . S
C100 C90 1.391 . S
C100 C99 1.359 . S
C100 H112 0.929 . S
H101 C97 0.930 . S
H102 C91 0.930 . S
H103 C120 0.930 . S
H104 C92 0.930 . S
H105 C93 0.930 . S
H106 C87 0.929 . S
H107 C125 0.930 . S
H108 C116 0.930 . S
H109 C117 0.930 . S
H110 C141 0.929 . S
H111 C99 0.930 . S
H112 C100 0.929 . S
H113 C142 0.930 . S
H114 C123 0.930 . S
N115 Gd84 2.661 . S
N115 C119 1.350 . S
N115 C120 1.307 . S
C116 H108 0.930 . S
C116 C117 1.355 . S
C116 C118 1.412 . S
C117 H109 0.930 . S
C117 C116 1.355 . S
C117 C120 1.402 . S
C118 C116 1.412 . S
C118 C119 1.417 . S
C118 C142 1.431 . S
C119 N115 1.350 . S
C119 C118 1.417 . S
C119 C122 1.426 . S
C120 H103 0.930 . S
C120 N115 1.307 . S
C120 C117 1.402 . S
N121 Gd84 2.601 . S
N121 C122 1.359 . S
N121 C125 1.334 . S
C122 C119 1.426 . S
C122 N121 1.359 . S
C122 C126 1.413 . S
C123 H114 0.930 . S
C123 C124 1.359 . S
C123 C125 1.394 . S
C124 C123 1.359 . S
C124 C126 1.391 . S
C124 H127 0.929 . S
C125 H107 0.930 . S
C125 N121 1.334 . S
C125 C123 1.394 . S
C126 C122 1.413 . S
C126 C124 1.391 . S
C126 C141 1.437 . S
H127 C124 0.929 . S
O128 Gd84 2.545 . S
O128 C143 1.258 . S
O129 Gd84 2.606 . S
O129 Gd85 2.362 . S
O129 C140 1.284 . S
O130 Gd85 2.324 . S
O130 C150 1.254 . S
O131 Gd84 2.429 . S
O131 C150 1.268 . S
O132 Gd84 2.545 . S
O132 C140 1.250 . S
O133 Gd84 2.412 . S
O133 C143 1.252 . S
O134 Gd85 2.545 . S
O134 C152 1.258 . S
O135 Gd84 2.362 . S
O135 Gd85 2.606 . S
O135 C151 1.284 . S
O136 Gd84 2.324 . S
O136 C159 1.254 . S
O137 Gd85 2.429 . S
O137 C159 1.268 . S
O138 Gd85 2.545 . S
O138 C151 1.250 . S
O139 Gd85 2.412 . S
O139 C152 1.252 . S
C140 O129 1.284 . S
C140 O132 1.250 . S
C141 H110 0.929 . S
C141 C126 1.437 . S
C141 C142 1.317 . S
C142 H113 0.930 . S
C142 C118 1.431 . S
C142 C141 1.317 . S
C143 Gd84 2.828 . S
C143 O128 1.258 . S
C143 O133 1.252 . S
C143 C144 1.497 . S
C144 C143 1.497 . S
C144 C145 1.395 . S
C144 C146 1.380 . S
C145 C144 1.395 . S
C145 C148 1.398 . S
C145 H160 0.930 . S
C146 C144 1.380 . S
C146 C147 1.391 . S
C146 H161 0.930 . S
C147 C146 1.391 . S
C147 C149 1.387 . S
C148 C145 1.398 . S
C148 C149 1.380 . S
C148 H162 0.930 . S
C149 C147 1.387 . S
C149 C148 1.380 . S
C149 H163 0.930 . S
C150 O130 1.254 . S
C150 O131 1.268 . S
C151 O135 1.284 . S
C151 O138 1.250 . S
C152 Gd85 2.828 . S
C152 O134 1.258 . S
C152 O139 1.252 . S
C152 C153 1.497 . S
C153 C152 1.497 . S
C153 C154 1.395 1_455 S
C153 C155 1.380 . S
C154 C153 1.395 1_655 S
C154 C157 1.398 . S
C154 H164 0.930 . S
C155 C153 1.380 . S
C155 C156 1.391 . S
C155 H165 0.930 . S
C156 C155 1.391 . S
C156 C158 1.387 1_455 S
C157 C154 1.398 . S
C157 C158 1.380 . S
C157 H166 0.930 . S
C158 C156 1.387 1_655 S
C158 C157 1.380 . S
C158 H167 0.930 . S
C159 O136 1.254 . S
C159 O137 1.268 . S
H160 C145 0.930 . S
H161 C146 0.930 . S
H162 C148 0.930 . S
H163 C149 0.930 . S
H164 C154 0.930 . S
H165 C155 0.930 . S
H166 C157 0.930 . S
H167 C158 0.930 . S
Gd168 N199 2.661 1_545 S
Gd168 N205 2.601 1_545 S
Gd168 O212 2.545 1_545 S
Gd168 O213 2.606 . S
Gd168 O215 2.429 . S
Gd168 O216 2.545 . S
Gd168 O217 2.412 1_545 S
Gd168 O219 2.362 . S
Gd168 O220 2.324 . S
Gd168 C227 2.828 1_545 S
Gd169 N178 2.661 . S
Gd169 N182 2.601 . S
Gd169 O213 2.362 . S
Gd169 O214 2.324 . S
Gd169 O218 2.545 . S
Gd169 O219 2.606 . S
Gd169 O221 2.429 . S
Gd169 O222 2.545 1_554 S
Gd169 O223 2.412 . S
Gd169 C236 2.828 . S
C170 C173 1.417 . S
C170 C175 1.431 . S
C170 C176 1.429 . S
C171 C174 1.437 . S
C171 C175 1.317 . S
C171 H190 0.929 . S
C172 C173 1.426 . S
C172 C174 1.413 . S
C172 N182 1.359 . S
C173 C170 1.417 . S
C173 C172 1.426 . S
C173 N178 1.350 . S
C174 C171 1.437 . S
C174 C172 1.413 . S
C174 C184 1.391 . S
C175 C170 1.431 . S
C175 C171 1.317 . S
C175 H186 0.930 . S
C176 C170 1.429 . S
C176 C177 1.345 1_655 S
C176 H188 0.923 1_655 S
C177 C176 1.345 1_455 S
C177 C179 1.402 1_455 S
C177 H189 0.930 . S
N178 Gd169 2.661 . S
N178 C173 1.350 . S
N178 C179 1.307 . S
C179 C177 1.402 1_655 S
C179 N178 1.307 . S
C179 H180 0.930 . S
H180 C179 0.930 . S
C181 N182 1.334 . S
C181 C183 1.394 . S
C181 H185 0.930 . S
N182 Gd169 2.601 . S
N182 C172 1.359 . S
N182 C181 1.334 . S
C183 C181 1.394 . S
C183 C184 1.359 . S
C183 H195 0.930 . S
C184 C174 1.391 . S
C184 C183 1.359 . S
C184 H196 0.929 . S
H185 C181 0.930 . S
H186 C175 0.930 . S
H187 C204 0.927 1_554 S
H188 C176 0.923 1_455 S
H189 C177 0.930 . S
H190 C171 0.929 . S
H191 C209 0.930 . S
H192 C200 0.930 . S
H193 C201 0.930 . S
H194 C225 0.929 . S
H195 C183 0.930 . S
H196 C184 0.929 . S
H197 C226 0.930 . S
H198 C207 0.930 1_455 S
N199 Gd168 2.661 1_565 S
N199 C203 1.350 1_554 S
N199 C204 1.307 1_554 S
C200 H192 0.930 . S
C200 C201 1.355 . S
C200 C202 1.412 . S
C201 H193 0.930 . S
C201 C200 1.355 . S
C201 C204 1.402 . S
C202 C200 1.412 . S
C202 C203 1.417 . S
C202 C226 1.431 . S
C203 N199 1.350 1_556 S
C203 C202 1.417 . S
C203 C206 1.426 . S
C204 H187 0.927 1_556 S
C204 N199 1.307 1_556 S
C204 C201 1.402 . S
N205 Gd168 2.601 1_565 S
N205 C206 1.359 1_554 S
N205 C209 1.334 . S
C206 C203 1.426 . S
C206 N205 1.359 1_556 S
C206 C210 1.413 . S
C207 H198 0.930 1_655 S
C207 C208 1.359 1_554 S
C207 C209 1.394 . S
C208 C207 1.359 1_556 S
C208 C210 1.391 . S
C208 H211 0.929 . S
C209 H191 0.930 . S
C209 N205 1.334 . S
C209 C207 1.394 . S
C210 C206 1.413 . S
C210 C208 1.391 . S
C210 C225 1.437 . S
H211 C208 0.929 . S
O212 Gd168 2.545 1_565 S
O212 C227 1.258 . S
O213 Gd168 2.606 . S
O213 Gd169 2.362 . S
O213 C224 1.284 . S
O214 Gd169 2.324 . S
O214 C234 1.254 . S
O215 Gd168 2.429 . S
O215 C234 1.268 . S
O216 Gd168 2.545 . S
O216 C224 1.250 . S
O217 Gd168 2.412 1_565 S
O217 C227 1.252 . S
O218 Gd169 2.545 . S
O218 C236 1.258 . S
O219 Gd168 2.362 . S
O219 Gd169 2.606 . S
O219 C235 1.284 1_554 S
O220 Gd168 2.324 . S
O220 C243 1.254 . S
O221 Gd169 2.429 . S
O221 C243 1.268 . S
O222 Gd169 2.545 1_556 S
O222 C235 1.250 . S
O223 Gd169 2.412 . S
O223 C236 1.252 . S
C224 O213 1.284 . S
C224 O216 1.250 . S
C225 H194 0.929 . S
C225 C210 1.437 . S
C225 C226 1.317 . S
C226 H197 0.930 . S
C226 C202 1.431 . S
C226 C225 1.317 . S
C227 Gd168 2.828 1_565 S
C227 O212 1.258 . S
C227 O217 1.252 . S
C227 C228 1.497 . S
C228 C227 1.497 . S
C228 C229 1.395 . S
C228 C230 1.380 . S
C229 C228 1.395 . S
C229 C232 1.398 . S
C229 H244 0.930 . S
C230 C228 1.380 . S
C230 C231 1.391 . S
C230 H245 0.930 . S
C231 C230 1.391 . S
C231 C233 1.387 . S
C232 C229 1.398 . S
C232 C233 1.380 . S
C232 H246 0.930 . S
C233 C231 1.387 . S
C233 C232 1.380 . S
C233 H247 0.930 . S
C234 O214 1.254 . S
C234 O215 1.268 . S
C235 O219 1.284 1_556 S
C235 O222 1.250 . S
C236 Gd169 2.828 . S
C236 O218 1.258 . S
C236 O223 1.252 . S
C236 C237 1.497 1_554 S
C237 C236 1.497 1_556 S
C237 C238 1.395 . S
C237 C239 1.380 . S
C238 C237 1.395 . S
C238 C241 1.398 . S
C238 H248 0.930 . S
C239 C237 1.380 . S
C239 C240 1.391 . S
C239 H249 0.930 . S
C240 C239 1.391 . S
C240 C242 1.387 . S
C241 C238 1.398 . S
C241 C242 1.380 . S
C241 H250 0.930 . S
C242 C240 1.387 . S
C242 C241 1.380 . S
C242 H251 0.930 . S
C243 O220 1.254 . S
C243 O221 1.268 . S
H244 C229 0.930 . S
H245 C230 0.930 . S
H246 C232 0.930 . S
H247 C233 0.930 . S
H248 C238 0.930 . S
H249 C239 0.930 . S
H250 C241 0.930 . S
H251 C242 0.930 . S
Gd252 N283 2.661 . S
Gd252 N289 2.601 . S
Gd252 O296 2.545 . S
Gd252 O297 2.606 1_455 S
Gd252 O299 2.429 . S
Gd252 O300 2.545 . S
Gd252 O301 2.412 . S
Gd252 O303 2.362 . S
Gd252 O304 2.324 . S
Gd252 C311 2.828 . S
Gd253 N262 2.661 . S
Gd253 N266 2.601 . S
Gd253 O297 2.362 . S
Gd253 O298 2.324 . S
Gd253 O302 2.545 . S
Gd253 O303 2.606 1_655 S
Gd253 O305 2.429 . S
Gd253 O306 2.545 1_655 S
Gd253 O307 2.412 . S
Gd253 C320 2.828 . S
C254 C257 1.417 . S
C254 C259 1.431 . S
C254 C260 1.412 . S
C255 C258 1.437 . S
C255 C259 1.317 . S
C255 H274 0.929 . S
C256 C257 1.426 . S
C256 C258 1.413 . S
C256 N266 1.359 . S
C257 C254 1.417 . S
C257 C256 1.426 . S
C257 N262 1.350 . S
C258 C255 1.437 . S
C258 C256 1.413 . S
C258 C268 1.391 . S
C259 C254 1.431 . S
C259 C255 1.317 . S
C259 H270 0.930 . S
C260 C254 1.412 . S
C260 C261 1.355 . S
C260 H272 0.930 . S
C261 C260 1.355 . S
C261 C263 1.402 . S
C261 H273 0.930 . S
N262 Gd253 2.661 . S
N262 C257 1.350 . S
N262 C263 1.307 . S
C263 C261 1.402 . S
C263 N262 1.307 . S
C263 H264 0.930 . S
H264 C263 0.930 . S
C265 N266 1.334 . S
C265 C267 1.394 . S
C265 H269 0.930 . S
N266 Gd253 2.601 . S
N266 C256 1.359 . S
N266 C265 1.334 . S
C267 C265 1.394 . S
C267 C268 1.359 . S
C267 H279 0.930 . S
C268 C258 1.391 . S
C268 C267 1.359 . S
C268 H280 0.929 . S
H269 C265 0.930 . S
H270 C259 0.930 . S
H271 C288 0.930 . S
H272 C260 0.930 . S
H273 C261 0.930 . S
H274 C255 0.929 . S
H275 C293 0.930 . S
H276 C284 0.930 . S
H277 C285 0.930 . S
H278 C309 0.929 . S
H279 C267 0.930 . S
H280 C268 0.929 . S
H281 C310 0.930 . S
H282 C291 0.930 . S
N283 Gd252 2.661 . S
N283 C287 1.350 . S
N283 C288 1.307 . S
C284 H276 0.930 . S
C284 C285 1.355 . S
C284 C286 1.412 . S
C285 H277 0.930 . S
C285 C284 1.355 . S
C285 C288 1.402 . S
C286 C284 1.412 . S
C286 C287 1.417 . S
C286 C310 1.431 . S
C287 N283 1.350 . S
C287 C286 1.417 . S
C287 C290 1.426 . S
C288 H271 0.930 . S
C288 N283 1.307 . S
C288 C285 1.402 . S
N289 Gd252 2.601 . S
N289 C290 1.359 . S
N289 C293 1.334 . S
C290 C287 1.426 . S
C290 N289 1.359 . S
C290 C294 1.413 . S
C291 H282 0.930 . S
C291 C292 1.359 1_545 S
C291 C293 1.394 1_545 S
C292 C291 1.359 1_565 S
C292 C294 1.391 . S
C292 H295 0.929 1_565 S
C293 H275 0.930 . S
C293 N289 1.334 . S
C293 C291 1.394 1_565 S
C294 C290 1.413 . S
C294 C292 1.391 . S
C294 C309 1.437 . S
H295 C292 0.929 1_545 S
O296 Gd252 2.545 . S
O296 C311 1.258 . S
O297 Gd252 2.606 1_655 S
O297 Gd253 2.362 . S
O297 C308 1.284 . S
O298 Gd253 2.324 . S
O298 C318 1.254 1_655 S
O299 Gd252 2.429 . S
O299 C318 1.268 . S
O300 Gd252 2.545 . S
O300 C308 1.250 1_455 S
O301 Gd252 2.412 . S
O301 C311 1.252 . S
O302 Gd253 2.545 . S
O302 C320 1.258 . S
O303 Gd252 2.362 . S
O303 Gd253 2.606 1_455 S
O303 C319 1.284 . S
O304 Gd252 2.324 . S
O304 C327 1.254 . S
O305 Gd253 2.429 . S
O305 C327 1.268 1_655 S
O306 Gd253 2.545 1_455 S
O306 C319 1.250 . S
O307 Gd253 2.412 . S
O307 C320 1.252 . S
C308 O297 1.284 . S
C308 O300 1.250 1_655 S
C309 H278 0.929 . S
C309 C294 1.437 . S
C309 C310 1.317 . S
C310 H281 0.930 . S
C310 C286 1.431 . S
C310 C309 1.317 . S
C311 Gd252 2.828 . S
C311 O296 1.258 . S
C311 O301 1.252 . S
C311 C312 1.497 . S
C312 C311 1.497 . S
C312 C313 1.395 . S
C312 C314 1.380 . S
C313 C312 1.395 . S
C313 C316 1.398 . S
C313 H328 0.930 . S
C314 C312 1.380 . S
C314 C315 1.391 . S
C314 H329 0.930 . S
C315 C314 1.391 . S
C315 C317 1.387 . S
C316 C313 1.398 . S
C316 C317 1.380 . S
C316 H330 0.930 . S
C317 C315 1.387 . S
C317 C316 1.380 . S
C317 H331 0.930 . S
C318 O298 1.254 1_455 S
C318 O299 1.268 . S
C319 O303 1.284 . S
C319 O306 1.250 . S
C320 Gd253 2.828 . S
C320 O302 1.258 . S
C320 O307 1.252 . S
C320 C321 1.497 . S
C321 C320 1.497 . S
C321 C322 1.395 . S
C321 C323 1.380 . S
C322 C321 1.395 . S
C322 C325 1.398 . S
C322 H332 0.930 . S
C323 C321 1.380 . S
C323 C324 1.391 . S
C323 H333 0.930 . S
C324 C323 1.391 . S
C324 C326 1.387 . S
C325 C322 1.398 . S
C325 C326 1.380 . S
C325 H334 0.930 . S
C326 C324 1.387 . S
C326 C325 1.380 . S
C326 H335 0.930 . S
C327 O304 1.254 . S
C327 O305 1.268 1_455 S
H328 C313 0.930 . S
H329 C314 0.930 . S
H330 C316 0.930 . S
H331 C317 0.930 . S
H332 C322 0.930 . S
H333 C323 0.930 . S
H334 C325 0.930 . S
H335 C326 0.930 . S
H336 C344 0.950 . S
H337 C349 0.950 . S
H338 C346 0.950 . S
H339 C348 0.950 . S
H340 C350 0.950 . S
H341 C352 0.950 . S
H342 C354 0.950 1_565 S
H343 C355 0.942 1_565 S
C344 H336 0.950 . S
C344 C345 1.386 1_655 S
C344 C346 1.391 1_655 S
C345 C344 1.386 1_455 S
C345 C349 1.393 . S
C346 H338 0.950 . S
C346 C344 1.391 1_455 S
C346 C347 1.400 . S
C347 C346 1.400 . S
C347 C348 1.398 . S
C347 C353 1.491 . S
C348 H339 0.950 . S
C348 C347 1.398 . S
C348 C349 1.391 . S
C349 H337 0.950 . S
C349 C345 1.393 . S
C349 C348 1.391 . S
C350 H340 0.950 . S
C350 C351 1.386 . S
C350 C352 1.391 . S
C351 C350 1.386 . S
C351 C355 1.395 . S
C352 H341 0.950 . S
C352 C350 1.391 . S
C352 C353 1.400 . S
C353 C347 1.491 . S
C353 C352 1.400 . S
C353 C354 1.398 . S
C354 H342 0.950 1_545 S
C354 C353 1.398 . S
C354 C355 1.396 . S
C355 H343 0.942 1_545 S
C355 C351 1.395 . S
C355 C354 1.396 . S
H356 C364 0.950 . S
H357 C369 0.950 . S
H358 C366 0.950 . S
H359 C368 0.950 . S
H360 C370 0.950 . S
H361 C372 0.950 . S
H362 C374 0.950 . S
H363 C375 0.950 . S
C364 H356 0.950 . S
C364 C365 1.386 . S
C364 C366 1.391 1_565 S
C365 C364 1.386 . S
C365 C369 1.393 . S
C366 H358 0.950 . S
C366 C364 1.391 1_545 S
C366 C367 1.400 . S
C367 C366 1.400 . S
C367 C368 1.398 1_545 S
C367 C373 1.491 . S
C368 H359 0.950 . S
C368 C367 1.398 1_565 S
C368 C369 1.391 . S
C369 H357 0.950 . S
C369 C365 1.393 . S
C369 C368 1.391 . S
C370 H360 0.950 . S
C370 C371 1.386 . S
C370 C372 1.391 . S
C371 C370 1.386 . S
C371 C375 1.393 . S
C372 H361 0.950 . S
C372 C370 1.391 . S
C372 C373 1.400 . S
C373 C367 1.491 . S
C373 C372 1.400 . S
C373 C374 1.398 . S
C374 H362 0.950 . S
C374 C373 1.398 . S
C374 C375 1.391 . S
C375 H363 0.950 . S
C375 C371 1.393 . S
C375 C374 1.391 . S
H376 C384 0.950 . S
H377 C389 0.950 . S
H378 C386 0.950 . S
H379 C388 0.950 . S
H380 C390 0.950 1_565 S
H381 C392 0.950 . S
H382 C394 0.950 . S
H383 C395 0.950 . S
C384 H376 0.950 . S
C384 C385 1.386 . S
C384 C386 1.391 . S
C385 C384 1.386 . S
C385 C389 1.393 . S
C386 H378 0.950 . S
C386 C384 1.391 . S
C386 C387 1.400 . S
C387 C386 1.400 . S
C387 C388 1.398 . S
C387 C393 1.491 . S
C388 H379 0.950 . S
C388 C387 1.398 . S
C388 C389 1.391 . S
C389 H377 0.950 . S
C389 C385 1.393 . S
C389 C388 1.391 . S
C390 H380 0.950 1_545 S
C390 C391 1.386 . S
C390 C392 1.391 . S
C391 C390 1.386 . S
C391 C395 1.393 . S
C392 H381 0.950 . S
C392 C390 1.391 . S
C392 C393 1.400 . S
C393 C387 1.491 . S
C393 C392 1.400 . S
C393 C394 1.398 . S
C394 H382 0.950 . S
C394 C393 1.398 . S
C394 C395 1.391 . S
C395 H383 0.950 . S
C395 C391 1.393 . S
C395 C394 1.391 . S
H396 C404 0.950 . S
H397 C409 0.950 . S
H398 C406 0.950 . S
H399 C408 0.950 . S
H400 C410 0.950 . S
H401 C412 0.950 . S
H402 C414 0.950 . S
H403 C415 0.950 1_655 S
C404 H396 0.950 . S
C404 C405 1.386 . S
C404 C406 1.391 . S
C405 C404 1.386 . S
C405 C409 1.393 . S
C406 H398 0.950 . S
C406 C404 1.391 . S
C406 C407 1.400 . S
C407 C406 1.400 . S
C407 C408 1.398 . S
C407 C413 1.491 . S
C408 H399 0.950 . S
C408 C407 1.398 . S
C408 C409 1.391 . S
C409 H397 0.950 . S
C409 C405 1.393 . S
C409 C408 1.391 . S
C410 H400 0.950 . S
C410 C411 1.386 . S
C410 C412 1.391 . S
C411 C410 1.386 . S
C411 C415 1.393 . S
C412 H401 0.950 . S
C412 C410 1.391 . S
C412 C413 1.400 . S
C413 C407 1.491 . S
C413 C412 1.400 . S
C413 C414 1.398 . S
C414 H402 0.950 . S
C414 C413 1.398 . S
C414 C415 1.391 . S
C415 H403 0.950 1_455 S
C415 C411 1.393 . S
C415 C414 1.391 . S
H416 C424 0.950 . S
H417 C429 0.950 . S
H418 C426 0.950 . S
H419 C428 0.950 . S
H420 C430 0.950 . S
H421 C432 0.950 . S
H422 C434 0.950 . S
H423 C435 0.950 . S
C424 H416 0.950 . S
C424 C425 1.386 . S
C424 C426 1.391 . S
C425 C424 1.386 . S
C425 C429 1.393 . S
C426 H418 0.950 . S
C426 C424 1.391 . S
C426 C427 1.400 . S
C427 C426 1.400 . S
C427 C428 1.398 . S
C427 C433 1.491 . S
C428 H419 0.950 . S
C428 C427 1.398 . S
C428 C429 1.391 . S
C429 H417 0.950 . S
C429 C425 1.393 . S
C429 C428 1.391 . S
C430 H420 0.950 . S
C430 C431 1.386 . S
C430 C432 1.391 . S
C431 C430 1.386 . S
C431 C435 1.393 . S
C432 H421 0.950 . S
C432 C430 1.391 . S
C432 C433 1.400 . S
C433 C427 1.491 . S
C433 C432 1.400 . S
C433 C434 1.398 . S
C434 H422 0.950 . S
C434 C433 1.398 . S
C434 C435 1.391 . S
C435 H423 0.950 . S
C435 C431 1.393 . S
C435 C434 1.391 . S
H436 C444 0.950 . S
H437 C449 0.950 . S
H438 C446 0.950 . S
H439 C448 0.939 1_655 S
H440 C450 0.950 . S
H441 C452 0.950 . S
H442 C454 0.950 . S
H443 C455 0.950 . S
C444 H436 0.950 . S
C444 C445 1.386 . S
C444 C446 1.391 . S
C445 C444 1.386 . S
C445 C449 1.393 . S
C446 H438 0.950 . S
C446 C444 1.391 . S
C446 C447 1.400 . S
C447 C446 1.400 . S
C447 C448 1.398 . S
C447 C453 1.491 . S
C448 H439 0.939 1_455 S
C448 C447 1.398 . S
C448 C449 1.391 . S
C449 H437 0.950 . S
C449 C445 1.393 . S
C449 C448 1.391 . S
C450 H440 0.950 . S
C450 C451 1.386 . S
C450 C452 1.391 . S
C451 C450 1.386 . S
C451 C455 1.393 1_655 S
C452 H441 0.950 . S
C452 C450 1.391 . S
C452 C453 1.400 1_655 S
C453 C447 1.491 . S
C453 C452 1.400 1_455 S
C453 C454 1.398 . S
C454 H442 0.950 . S
C454 C453 1.398 . S
C454 C455 1.391 . S
C455 H443 0.950 . S
C455 C451 1.393 1_455 S
C455 C454 1.391 . S
H456 C464 0.950 . S
H457 C469 0.950 . S
H458 C466 0.950 . S
H459 C468 0.950 . S
H460 C470 0.950 1_545 S
H461 C472 0.950 . S
H462 C474 0.950 . S
H463 C475 0.950 . S
C464 H456 0.950 . S
C464 C465 1.386 . S
C464 C466 1.391 . S
C465 C464 1.386 . S
C465 C469 1.393 . S
C466 H458 0.950 . S
C466 C464 1.391 . S
C466 C467 1.400 . S
C467 C466 1.400 . S
C467 C468 1.398 . S
C467 C473 1.491 . S
C468 H459 0.950 . S
C468 C467 1.398 . S
C468 C469 1.391 . S
C469 H457 0.950 . S
C469 C465 1.393 . S
C469 C468 1.391 . S
C470 H460 0.950 1_565 S
C470 C471 1.386 . S
C470 C472 1.391 . S
C471 C470 1.386 . S
C471 C475 1.393 . S
C472 H461 0.950 . S
C472 C470 1.391 . S
C472 C473 1.400 . S
C473 C467 1.491 . S
C473 C472 1.400 . S
C473 C474 1.398 . S
C474 H462 0.950 . S
C474 C473 1.398 . S
C474 C475 1.391 . S
C475 H463 0.950 . S
C475 C471 1.393 . S
C475 C474 1.391 . S
H476 C484 0.950 . S
H477 C489 0.950 . S
H478 C486 0.950 . S
H479 C488 0.950 . S
H480 C490 0.950 1_545 S
H481 C492 0.950 . S
H482 C494 0.950 . S
H483 C495 0.950 . S
C484 H476 0.950 . S
C484 C485 1.386 . S
C484 C486 1.391 . S
C485 C484 1.386 . S
C485 C489 1.393 . S
C486 H478 0.950 . S
C486 C484 1.391 . S
C486 C487 1.400 . S
C487 C486 1.400 . S
C487 C488 1.398 . S
C487 C493 1.491 . S
C488 H479 0.950 . S
C488 C487 1.398 . S
C488 C489 1.391 . S
C489 H477 0.950 . S
C489 C485 1.393 . S
C489 C488 1.391 . S
C490 H480 0.950 1_565 S
C490 C491 1.386 . S
C490 C492 1.391 1_554 S
C491 C490 1.386 . S
C491 C495 1.393 . S
C492 H481 0.950 . S
C492 C490 1.391 1_556 S
C492 C493 1.400 . S
C493 C487 1.491 . S
C493 C492 1.400 . S
C493 C494 1.398 . S
C494 H482 0.950 . S
C494 C493 1.398 . S
C494 C495 1.391 1_556 S
C495 H483 0.950 . S
C495 C491 1.393 . S
C495 C494 1.391 1_554 S
H496 C504 0.950 . S
H497 C509 0.950 . S
H498 C506 0.950 . S
H499 C508 0.950 . S
H500 C510 0.950 . S
H501 C512 0.950 . S
H502 C514 0.950 . S
H503 C515 0.950 . S
C504 H496 0.950 . S
C504 C505 1.386 1_565 S
C504 C506 1.391 . S
C505 C504 1.386 1_545 S
C505 C509 1.393 . S
C506 H498 0.950 . S
C506 C504 1.391 . S
C506 C507 1.400 . S
C507 C506 1.400 . S
C507 C508 1.398 1_565 S
C507 C513 1.491 . S
C508 H499 0.950 . S
C508 C507 1.398 1_545 S
C508 C509 1.391 . S
C509 H497 0.950 . S
C509 C505 1.393 . S
C509 C508 1.391 . S
C510 H500 0.950 . S
C510 C511 1.386 . S
C510 C512 1.391 . S
C511 C510 1.386 . S
C511 C515 1.393 . S
C512 H501 0.950 . S
C512 C510 1.391 . S
C512 C513 1.400 . S
C513 C507 1.491 . S
C513 C512 1.400 . S
C513 C514 1.398 . S
C514 H502 0.950 . S
C514 C513 1.398 . S
C514 C515 1.391 . S
C515 H503 0.950 . S
C515 C511 1.393 . S
C515 C514 1.391 . S
H516 C524 0.950 . S
H517 C529 0.950 . S
H518 C526 0.950 . S
H519 C528 0.950 . S
H520 C530 0.950 . S
H521 C532 0.950 . S
H522 C534 0.950 . S
H523 C535 0.950 . S
C524 H516 0.950 . S
C524 C525 1.386 . S
C524 C526 1.391 . S
C525 C524 1.386 . S
C525 C529 1.393 . S
C526 H518 0.950 . S
C526 C524 1.391 . S
C526 C527 1.400 . S
C527 C526 1.400 . S
C527 C528 1.398 . S
C527 C533 1.491 . S
C528 H519 0.950 . S
C528 C527 1.398 . S
C528 C529 1.391 . S
C529 H517 0.950 . S
C529 C525 1.393 . S
C529 C528 1.391 . S
C530 H520 0.950 . S
C530 C531 1.386 . S
C530 C532 1.391 . S
C531 C530 1.386 . S
C531 C535 1.393 . S
C532 H521 0.950 . S
C532 C530 1.391 . S
C532 C533 1.400 . S
C533 C527 1.491 . S
C533 C532 1.400 . S
C533 C534 1.398 . S
C534 H522 0.950 . S
C534 C533 1.398 . S
C534 C535 1.391 . S
C535 H523 0.950 . S
C535 C531 1.393 . S
C535 C534 1.391 . S
H536 C544 0.950 . S
H537 C549 0.950 . S
H538 C546 0.950 . S
H539 C548 0.950 . S
H540 C550 0.950 . S
H541 C552 0.950 . S
H542 C554 0.950 1_554 S
H543 C555 0.950 . S
C544 H536 0.950 . S
C544 C545 1.386 . S
C544 C546 1.391 . S
C545 C544 1.386 . S
C545 C549 1.393 . S
C546 H538 0.950 . S
C546 C544 1.391 . S
C546 C547 1.400 . S
C547 C546 1.400 . S
C547 C548 1.398 . S
C547 C553 1.491 . S
C548 H539 0.950 . S
C548 C547 1.398 . S
C548 C549 1.391 . S
C549 H537 0.950 . S
C549 C545 1.393 . S
C549 C548 1.391 . S
C550 H540 0.950 . S
C550 C551 1.386 1_556 S
C550 C552 1.391 . S
C551 C550 1.386 1_554 S
C551 C555 1.393 . S
C552 H541 0.950 . S
C552 C550 1.391 . S
C552 C553 1.400 . S
C553 C547 1.491 . S
C553 C552 1.400 . S
C553 C554 1.398 . S
C554 H542 0.950 1_556 S
C554 C553 1.398 . S
C554 C555 1.391 1_556 S
C555 H543 0.950 . S
C555 C551 1.393 . S
C555 C554 1.391 1_554 S
H556 C564 0.950 . S
H557 C569 0.950 . S
H558 C566 0.950 . S
H559 C568 0.950 1_455 S
H560 C570 0.950 . S
H561 C572 0.950 . S
H562 C574 0.950 . S
H563 C575 0.950 . S
C564 H556 0.950 . S
C564 C565 1.386 . S
C564 C566 1.391 . S
C565 C564 1.386 . S
C565 C569 1.393 . S
C566 H558 0.950 . S
C566 C564 1.391 . S
C566 C567 1.400 . S
C567 C566 1.400 . S
C567 C568 1.398 . S
C567 C573 1.491 . S
C568 H559 0.950 1_655 S
C568 C567 1.398 . S
C568 C569 1.391 . S
C569 H557 0.950 . S
C569 C565 1.393 . S
C569 C568 1.391 . S
C570 H560 0.950 . S
C570 C571 1.386 . S
C570 C572 1.391 . S
C571 C570 1.386 . S
C571 C575 1.393 1_455 S
C572 H561 0.950 . S
C572 C570 1.391 . S
C572 C573 1.400 1_455 S
C573 C567 1.491 . S
C573 C572 1.400 1_655 S
C573 C574 1.398 . S
C574 H562 0.950 . S
C574 C573 1.398 . S
C574 C575 1.391 . S
C575 H563 0.950 . S
C575 C571 1.393 1_655 S
C575 C574 1.391 . S
C345 C234 0.801 1_455 S
C351 C75 0.801 . S
C365 C318 0.519 . S
C371 C159 0.519 . S
C385 C243 1.277 . S
C391 C66 1.277 . S
C405 C150 1.332 . S
C411 C327 1.332 . S
C425 C151 1.927 . S
C431 C56 2.083 . S
C445 C140 2.091 . S
C451 C240 2.111 . S
C465 C324 1.095 . S
C471 C231 0.901 . S
C485 C315 0.794 . S
C491 C67 0.828 . S
C505 C235 2.082 . S
C511 C308 1.928 . S
C525 C63 2.110 . S
C531 C319 2.093 . S
C545 C147 1.125 . S
C551 C72 0.953 . S
C565 C224 0.819 . S
C571 C156 0.823 . S
