# Generated by pormake.
# Topology sni, (6)-cn, num edge types: 1
# Building blocks:
#     Node 0, Type 0, BuildingBlock: MIDCAF_clean_sbu_0, # of connection points: 6
#     Node 1, Type 0, BuildingBlock: MIDCAF_clean_sbu_0, # of connection points: 6
#     Node 2, Type 0, BuildingBlock: MIDCAF_clean_sbu_0, # of connection points: 6
#     Node 3, Type 0, BuildingBlock: MIDCAF_clean_sbu_0, # of connection points: 6
#     Node 4, Type 0, BuildingBlock: MIDCAF_clean_sbu_0, # of connection points: 6
#     Node 5, Type 0, BuildingBlock: MIDCAF_clean_sbu_0, # of connection points: 6
#     Node 6, Type 0, BuildingBlock: MIDCAF_clean_sbu_0, # of connection points: 6
#     Node 7, Type 0, BuildingBlock: MIDCAF_clean_sbu_0, # of connection points: 6
#     Edge 8, Type (0, 0), BuildingBlock: XIVTED_clean_linker_0, # of connection points: 2
#     Edge 9, Type (0, 0), BuildingBlock: XIVTED_clean_linker_0, # of connection points: 2
#     Edge 10, Type (0, 0), BuildingBlock: XIVTED_clean_linker_0, # of connection points: 2
#     Edge 11, Type (0, 0), BuildingBlock: XIVTED_clean_linker_0, # of connection points: 2
#     Edge 12, Type (0, 0), BuildingBlock: XIVTED_clean_linker_0, # of connection points: 2
#     Edge 13, Type (0, 0), BuildingBlock: XIVTED_clean_linker_0, # of connection points: 2
#     Edge 14, Type (0, 0), BuildingBlock: XIVTED_clean_linker_0, # of connection points: 2
#     Edge 15, Type (0, 0), BuildingBlock: XIVTED_clean_linker_0, # of connection points: 2
#     Edge 16, Type (0, 0), BuildingBlock: XIVTED_clean_linker_0, # of connection points: 2
#     Edge 17, Type (0, 0), BuildingBlock: XIVTED_clean_linker_0, # of connection points: 2
#     Edge 18, Type (0, 0), BuildingBlock: XIVTED_clean_linker_0, # of connection points: 2
#     Edge 19, Type (0, 0), BuildingBlock: XIVTED_clean_linker_0, # of connection points: 2
#     Edge 20, Type (0, 0), BuildingBlock: XIVTED_clean_linker_0, # of connection points: 2
#     Edge 21, Type (0, 0), BuildingBlock: XIVTED_clean_linker_0, # of connection points: 2
#     Edge 22, Type (0, 0), BuildingBlock: XIVTED_clean_linker_0, # of connection points: 2
#     Edge 23, Type (0, 0), BuildingBlock: XIVTED_clean_linker_0, # of connection points: 2
#     Edge 24, Type (0, 0), BuildingBlock: XIVTED_clean_linker_0, # of connection points: 2
#     Edge 25, Type (0, 0), BuildingBlock: XIVTED_clean_linker_0, # of connection points: 2
#     Edge 26, Type (0, 0), BuildingBlock: XIVTED_clean_linker_0, # of connection points: 2
#     Edge 27, Type (0, 0), BuildingBlock: XIVTED_clean_linker_0, # of connection points: 2
#     Edge 28, Type (0, 0), BuildingBlock: XIVTED_clean_linker_0, # of connection points: 2
#     Edge 29, Type (0, 0), BuildingBlock: XIVTED_clean_linker_0, # of connection points: 2
#     Edge 30, Type (0, 0), BuildingBlock: XIVTED_clean_linker_0, # of connection points: 2
#     Edge 31, Type (0, 0), BuildingBlock: XIVTED_clean_linker_0, # of connection points: 2
# Relax obj value: 0.344
# Max RMSD: 0.256
# Mean RMSD: 0.256
data_MOF--net-sni--node1-MIDCAF_clean_sbu_0--edge1-XIVTED_clean_linker_0
_symmetry_space_group_name_H-M    P1
_symmetry_Int_Tables_number       1
_symmetry_cell_setting            triclinic
loop_
_symmetry_equiv_pos_as_xyz
'x, y, z'
_cell_length_a     43.219814
_cell_length_b     42.858271
_cell_length_c     16.837597
_cell_angle_alpha  89.811724
_cell_angle_beta   90.015317
_cell_angle_gamma 89.955237
loop_
_atom_site_label
_atom_site_type_symbol
_atom_site_fract_x
_atom_site_fract_y
_atom_site_fract_z
_atom_type_partial_charge
Zn0 Zn 0.68108 0.15459 0.92318 0.0
Zn1 Zn 0.65108 0.1893 0.14523 0.0
Zn2 Zn 0.6443 0.15128 0.03413 0.0
C3 C 0.62889 0.13486 0.2102 0.0
C4 C 0.5914 0.18961 0.11287 0.0
O5 O 0.64618 0.1973 0.97937 0.0
O6 O 0.69602 0.1967 0.95343 0.0
C7 C 0.67635 0.09456 0.95221 0.0
O8 O 0.61901 0.13517 0.13835 0.0
O9 O 0.64826 0.15527 0.23141 0.0
O10 O 0.61041 0.21197 0.12034 0.0
O11 O 0.60168 0.16278 0.09184 0.0
O12 O 0.7001 0.1117 0.94475 0.0
O13 O 0.6509 0.10717 0.97496 0.0
O14 O 0.62494 0.12736 0.93182 0.0
O15 O 0.64631 0.15588 0.83879 0.0
C16 C 0.62458 0.13809 0.86062 0.0
O17 O 0.68964 0.1482 0.0896 0.0
O18 O 0.69458 0.19832 0.11395 0.0
C19 C 0.6708 0.21167 0.95844 0.0
C20 C 0.7065 0.17133 0.11007 0.0
Zn21 Zn 0.7731 0.61032 0.94429 0.0
Zn22 Zn 0.8222 0.65069 0.16892 0.0
Zn23 Zn 0.79867 0.63419 0.05007 0.0
C24 C 0.87098 0.62937 0.08043 0.0
C25 C 0.7816 0.6012 0.20774 0.0
O26 O 0.76973 0.6675 0.9819 0.0
O27 O 0.73339 0.63384 0.95114 0.0
C28 C 0.83003 0.62765 0.87969 0.0
O29 O 0.84836 0.62253 0.03363 0.0
O30 O 0.86594 0.64355 0.14459 0.0
O31 O 0.80098 0.61959 0.23869 0.0
O32 O 0.7757 0.60344 0.13353 0.0
O33 O 0.80296 0.62363 0.85278 0.0
O34 O 0.83411 0.62607 0.95579 0.0
O35 O 0.82655 0.59549 1.00557 0.0
O36 O 0.78309 0.56941 0.99931 0.0
C37 C 0.81242 0.56916 0.99942 0.0
O38 O 0.7857 0.68374 0.0546 0.0
O39 O 0.80804 0.69375 0.16922 0.0
C40 C 0.74318 0.66166 0.9506 0.0
C41 C 0.7918 0.70277 0.11131 0.0
Zn42 Zn 0.29175 0.83527 0.15858 0.0
Zn43 Zn 0.33512 0.79257 0.92926 0.0
Zn44 Zn 0.3122 0.8165 0.03803 0.0
C45 C 0.37583 0.83167 0.98658 0.0
C46 C 0.31656 0.8509 0.87056 0.0
O47 O 0.2648 0.79769 0.04211 0.0
O48 O 0.25017 0.81787 0.15621 0.0
C49 C 0.3447 0.79952 0.19674 0.0
O50 O 0.34981 0.84603 0.99368 0.0
O51 O 0.37545 0.80212 0.98413 0.0
O52 O 0.32104 0.82397 0.84208 0.0
O53 O 0.3183 0.85428 0.94688 0.0
O54 O 0.32383 0.81572 0.22935 0.0
O55 O 0.34401 0.7955 0.12159 0.0
O56 O 0.3195 0.86762 0.02676 0.0
O57 O 0.29528 0.87993 0.1379 0.0
C58 C 0.30978 0.88826 0.07647 0.0
O59 O 0.28073 0.78523 0.96863 0.0
O60 O 0.3147 0.75117 0.92432 0.0
C61 C 0.24441 0.80084 0.09717 0.0
C62 C 0.28683 0.75987 0.93045 0.0
Zn63 Zn 0.1159 0.28829 0.16289 0.0
Zn64 Zn 0.14135 0.27152 0.92015 0.0
Zn65 Zn 0.13952 0.30319 0.03813 0.0
C66 C 0.12436 0.33269 0.87931 0.0
C67 C 0.08279 0.27262 0.93751 0.0
O68 O 0.14887 0.25628 0.07929 0.0
O69 O 0.11219 0.24185 0.16066 0.0
C70 C 0.15657 0.33177 0.2039 0.0
O71 O 0.11319 0.32844 0.94944 0.0
O72 O 0.14117 0.3115 0.84964 0.0
O73 O 0.10017 0.24918 0.92677 0.0
O74 O 0.09412 0.29673 0.97298 0.0
O75 O 0.14804 0.30627 0.23463 0.0
O76 O 0.15257 0.33605 0.12945 0.0
O77 O 0.09317 0.32568 0.02574 0.0
O78 O 0.08017 0.31675 0.15096 0.0
C79 C 0.07519 0.33062 0.08593 0.0
O80 O 0.18295 0.30597 0.97256 0.0
O81 O 0.18324 0.25557 0.9495 0.0
C82 C 0.13719 0.23563 0.12519 0.0
C83 C 0.19764 0.28125 0.95269 0.0
Zn84 Zn 0.61321 0.85981 0.64196 0.0
Zn85 Zn 0.59002 0.87133 0.38343 0.0
Zn86 Zn 0.60325 0.86307 0.51329 0.0
C87 C 0.59127 0.92952 0.43779 0.0
C88 C 0.5453 0.83208 0.4285 0.0
O89 O 0.63894 0.82601 0.5321 0.0
O90 O 0.61708 0.81387 0.64577 0.0
C91 C 0.64303 0.90967 0.61389 0.0
O92 O 0.60745 0.9138 0.48823 0.0
O93 O 0.57537 0.91516 0.38684 0.0
O94 O 0.55974 0.83794 0.36528 0.0
O95 O 0.5554 0.8434 0.49453 0.0
O96 O 0.65162 0.88538 0.6502 0.0
O97 O 0.62102 0.90761 0.56246 0.0
O98 O 0.5589 0.85284 0.57267 0.0
O99 O 0.57375 0.87954 0.67723 0.0
C100 C 0.55226 0.86737 0.63739 0.0
O101 O 0.63749 0.83531 0.44686 0.0
O102 O 0.6309 0.86292 0.33759 0.0
C103 C 0.63583 0.80707 0.59116 0.0
C104 C 0.6457 0.84231 0.37548 0.0
Zn105 Zn 0.11775 0.58498 0.31489 0.0
Zn106 Zn 0.09163 0.6041 0.65642 0.0
Zn107 Zn 0.09444 0.59702 0.50889 0.0
C108 C 0.10929 0.54307 0.63565 0.0
C109 C 0.0316 0.61463 0.60706 0.0
O110 O 0.12597 0.63371 0.45569 0.0
O111 O 0.14262 0.6216 0.33287 0.0
C112 C 0.12897 0.53446 0.42363 0.0
O113 O 0.10686 0.55179 0.56263 0.0
O114 O 0.10474 0.56225 0.69102 0.0
O115 O 0.04805 0.61509 0.66884 0.0
O116 O 0.04394 0.60761 0.53942 0.0
O117 O 0.13444 0.54633 0.35627 0.0
O118 O 0.11398 0.54919 0.47895 0.0
O119 O 0.04851 0.6025 0.4588 0.0
O120 O 0.07739 0.59337 0.3571 0.0
C121 C 0.05108 0.59882 0.38408 0.0
O122 O 0.1264 0.63616 0.54249 0.0
O123 O 0.12017 0.63833 0.6726 0.0
C124 C 0.14203 0.63961 0.39223 0.0
C125 C 0.13277 0.6485 0.61034 0.0
Zn126 Zn 0.35838 0.12699 0.39671 0.0
Zn127 Zn 0.36137 0.10469 0.65721 0.0
Zn128 Zn 0.35856 0.1144 0.52465 0.0
C129 C 0.42104 0.10471 0.61486 0.0
C130 C 0.32965 0.05545 0.60552 0.0
O131 O 0.31782 0.14536 0.50385 0.0
O132 O 0.31312 0.12849 0.38131 0.0
C133 C 0.40572 0.15828 0.43744 0.0
O134 O 0.40756 0.12069 0.56001 0.0
O135 O 0.40475 0.08916 0.66294 0.0
O136 O 0.32754 0.07349 0.66438 0.0
O137 O 0.34458 0.06475 0.54366 0.0
O138 O 0.38243 0.16669 0.3976 0.0
O139 O 0.40309 0.13501 0.48572 0.0
O140 O 0.3497 0.07144 0.45769 0.0
O141 O 0.3792 0.08812 0.36018 0.0
C142 C 0.36445 0.06611 0.39265 0.0
O143 O 0.32892 0.15078 0.57919 0.0
O144 O 0.35416 0.14823 0.69235 0.0
C145 C 0.30146 0.14199 0.44044 0.0
C146 C 0.3359 0.16276 0.64696 0.0
Zn147 Zn 0.85683 0.34171 0.64526 0.0
Zn148 Zn 0.83463 0.35259 0.39214 0.0
Zn149 Zn 0.84634 0.34709 0.51858 0.0
C150 C 0.89506 0.36088 0.39481 0.0
C151 C 0.80196 0.39788 0.4481 0.0
O152 O 0.80886 0.31674 0.5643 0.0
O153 O 0.81283 0.34144 0.67778 0.0
C154 C 0.90173 0.31046 0.58997 0.0
O155 O 0.8898 0.34224 0.45324 0.0
O156 O 0.8729 0.37631 0.36571 0.0
O157 O 0.79522 0.37619 0.40057 0.0
O158 O 0.82473 0.39375 0.49657 0.0
O159 O 0.88076 0.30205 0.63752 0.0
O160 O 0.89544 0.33214 0.5392 0.0
O161 O 0.84006 0.39257 0.574 0.0
O162 O 0.87904 0.38268 0.65382 0.0
C163 C 0.86024 0.40214 0.62452 0.0
O164 O 0.81785 0.30539 0.49183 0.0
O165 O 0.83521 0.30712 0.36939 0.0
C166 C 0.79686 0.32516 0.63098 0.0
C167 C 0.8231 0.2917 0.42517 0.0
H168 H 0.42073 0.21615 0.38076 0.0
H169 H 0.54811 0.14383 0.11831 0.0
H170 H 0.45904 0.12518 0.4306 0.0
H171 H 0.56558 0.23775 0.19939 0.0
H172 H 0.50528 0.14003 0.21142 0.0
H173 H 0.46683 0.22848 0.30085 0.0
C174 C 0.4393 0.19922 0.377 0.0
C175 C 0.43622 0.16961 0.4121 0.0
C176 C 0.51839 0.16155 0.20818 0.0
C177 C 0.48766 0.18304 0.31911 0.0
C178 C 0.54262 0.16392 0.15455 0.0
C179 C 0.56091 0.19094 0.15219 0.0
C180 C 0.51177 0.18662 0.2584 0.0
C181 C 0.55224 0.21639 0.19983 0.0
C182 C 0.46536 0.20622 0.33127 0.0
C183 C 0.46065 0.14833 0.40502 0.0
N184 N 0.52818 0.2136 0.25162 0.0
N185 N 0.48506 0.15518 0.35757 0.0
H186 H 0.78523 0.59448 0.36852 0.0
H187 H 0.75276 0.41176 0.35268 0.0
H188 H 0.75416 0.54654 0.158 0.0
H189 H 0.81845 0.45472 0.51149 0.0
H190 H 0.73749 0.46338 0.3053 0.0
H191 H 0.78097 0.54586 0.44337 0.0
C192 C 0.77676 0.57391 0.3383 0.0
C193 C 0.77062 0.57449 0.25625 0.0
C194 C 0.75475 0.4615 0.35172 0.0
C195 C 0.76574 0.51875 0.34218 0.0
C196 C 0.76349 0.43206 0.37917 0.0
C197 C 0.78738 0.42882 0.43542 0.0
C198 C 0.76971 0.48799 0.38128 0.0
C199 C 0.80008 0.45603 0.468 0.0
C200 C 0.77447 0.54616 0.38123 0.0
C201 C 0.75935 0.54716 0.22088 0.0
N202 N 0.79136 0.4845 0.43967 0.0
N203 N 0.75772 0.52022 0.26385 0.0
H204 H 0.49149 0.84004 0.51367 0.0
H205 H 0.34966 0.79791 0.35861 0.0
H206 H 0.53166 0.7867 0.32314 0.0
H207 H 0.40231 0.7814 0.14511 0.0
H208 H 0.39734 0.79601 0.43582 0.0
H209 H 0.44018 0.8223 0.4725 0.0
C210 C 0.48956 0.82359 0.46524 0.0
C211 C 0.51572 0.81507 0.42128 0.0
C212 C 0.39858 0.79275 0.37223 0.0
C213 C 0.45719 0.7947 0.3729 0.0
C214 C 0.37125 0.79342 0.32801 0.0
C215 C 0.37202 0.79044 0.24486 0.0
C216 C 0.42701 0.78937 0.33292 0.0
C217 C 0.40058 0.7841 0.20886 0.0
C218 C 0.46018 0.81344 0.44128 0.0
C219 C 0.51194 0.79415 0.35799 0.0
N220 N 0.42696 0.78425 0.25298 0.0
N221 N 0.48325 0.7852 0.33479 0.0
H222 H 0.14822 0.33487 0.36438 0.0
H223 H 0.0928 0.48353 0.44303 0.0
H224 H 0.18005 0.38944 0.16434 0.0
H225 H 0.18706 0.51254 0.40737 0.0
H226 H 0.10786 0.4298 0.41326 0.0
H227 H 0.14703 0.38223 0.44481 0.0
C228 C 0.15588 0.35658 0.33783 0.0
C229 C 0.16376 0.35829 0.25684 0.0
C230 C 0.12552 0.4477 0.41566 0.0
C231 C 0.16277 0.41214 0.34929 0.0
C232 C 0.11705 0.47817 0.43473 0.0
C233 C 0.1391 0.50202 0.43284 0.0
C234 C 0.15581 0.4416 0.38994 0.0
C235 C 0.1697 0.49442 0.41239 0.0
C236 C 0.15504 0.3835 0.38392 0.0
C237 C 0.17349 0.38713 0.22613 0.0
N238 N 0.17702 0.46498 0.38935 0.0
N239 N 0.17245 0.4131 0.27235 0.0
H240 H 0.51997 0.91677 0.69421 0.0
H241 H 0.43469 0.811 0.99699 0.0
H242 H 0.51604 0.81695 0.66609 0.0
H243 H 0.3797 0.88555 0.89721 0.0
H244 H 0.47562 0.82285 0.90179 0.0
H245 H 0.47572 0.91398 0.78617 0.0
C246 C 0.50912 0.89442 0.7057 0.0
C247 C 0.52125 0.86701 0.67243 0.0
C248 C 0.45479 0.83694 0.90191 0.0
C249 C 0.4724 0.86365 0.77955 0.0
C250 C 0.43167 0.83058 0.95681 0.0
C251 C 0.40356 0.84693 0.95384 0.0
C252 C 0.45008 0.86025 0.84484 0.0
C253 C 0.40097 0.87227 0.90102 0.0
C254 C 0.48419 0.89289 0.75829 0.0
C255 C 0.507 0.83855 0.68989 0.0
N256 N 0.42392 0.878 0.84739 0.0
N257 N 0.48369 0.83749 0.74392 0.0
H258 H 0.10869 0.38843 0.94325 0.0
H259 H 0.08254 0.49143 0.57246 0.0
H260 H 0.12797 0.34405 0.71878 0.0
H261 H 0.14521 0.52135 0.75549 0.0
H262 H 0.08663 0.43748 0.62248 0.0
H263 H 0.10674 0.43893 0.87533 0.0
C264 C 0.11194 0.38924 0.87946 0.0
C265 C 0.11868 0.36213 0.83646 0.0
C266 C 0.10006 0.45582 0.65009 0.0
C267 C 0.11621 0.41956 0.7591 0.0
C268 C 0.09835 0.48627 0.62045 0.0
C269 C 0.11483 0.51032 0.65733 0.0
C270 C 0.11714 0.45007 0.71932 0.0
C271 C 0.13265 0.50323 0.72453 0.0
C272 C 0.11109 0.41801 0.84112 0.0
C273 C 0.12289 0.36453 0.75393 0.0
N274 N 0.133 0.47377 0.75416 0.0
N275 N 0.12146 0.3929 0.71748 0.0
H276 H 0.45682 0.0596 0.68049 0.0
H277 H 0.60622 0.16801 0.72415 0.0
H278 H 0.46178 0.15214 0.57994 0.0
H279 H 0.58502 0.08891 0.87365 0.0
H280 H 0.55969 0.15687 0.6452 0.0
H281 H 0.51043 0.06423 0.72356 0.0
C282 C 0.46942 0.08074 0.66632 0.0
C283 C 0.45483 0.10562 0.62709 0.0
C284 C 0.56558 0.14175 0.69461 0.0
C285 C 0.51614 0.11128 0.6773 0.0
C286 C 0.59213 0.14797 0.7394 0.0
C287 C 0.59934 0.12945 0.80585 0.0
C288 C 0.54647 0.1166 0.71601 0.0
C289 C 0.58026 0.10391 0.8233 0.0
C290 C 0.5 0.0834 0.69108 0.0
C291 C 0.47229 0.13236 0.60957 0.0
N292 N 0.55468 0.09834 0.77891 0.0
N293 N 0.50202 0.13469 0.63582 0.0
H294 H 0.79024 0.51016 0.99188 0.0
H295 H 0.90623 0.43844 0.68543 0.0
H296 H 0.86828 0.56657 0.92079 0.0
H297 H 0.80711 0.43268 0.65966 0.0
H298 H 0.89931 0.47957 0.78554 0.0
H299 H 0.80456 0.47168 0.89216 0.0
C300 C 0.81092 0.51403 0.95683 0.0
C301 C 0.82763 0.54194 0.96316 0.0
C302 C 0.87923 0.46966 0.75655 0.0
C303 C 0.8438 0.49824 0.84877 0.0
C304 C 0.88309 0.44653 0.69921 0.0
C305 C 0.85715 0.43237 0.66434 0.0
C306 C 0.84925 0.47769 0.78043 0.0
C307 C 0.82767 0.44325 0.68461 0.0
C308 C 0.81876 0.49231 0.89929 0.0
C309 C 0.85453 0.54552 0.91706 0.0
N310 N 0.82448 0.46484 0.74274 0.0
N311 N 0.86164 0.524 0.86058 0.0
H312 H 0.8848 0.65567 0.91087 0.0
H313 H -0.02046 0.58296 0.55557 0.0
H314 H 0.8374 0.60403 0.72835 0.0
H315 H 0.00902 0.66344 0.68819 0.0
H316 H 0.92705 0.5893 0.61153 0.0
H317 H 0.93104 0.6568 0.82837 0.0
C318 C 0.88412 0.64466 0.85308 0.0
C319 C 0.85724 0.62976 0.82645 0.0
C320 C 0.94488 0.60601 0.62653 0.0
C321 C 0.91041 0.63071 0.73116 0.0
C322 C 0.97467 0.60259 0.59391 0.0
C323 C -0.00143 0.62272 0.61735 0.0
C324 C 0.93939 0.62944 0.68336 0.0
C325 C -0.00874 0.64736 0.66876 0.0
C326 C 0.9105 0.64546 0.80563 0.0
C327 C 0.85764 0.61597 0.75077 0.0
N328 N 0.96259 0.64971 0.70083 0.0
N329 N 0.88399 0.6164 0.70601 0.0
H330 H 0.28144 0.03571 0.69483 0.0
H331 H 0.33683 0.85775 0.71641 0.0
H332 H 0.35516 0.00113 0.5467 0.0
H333 H 0.29097 0.90729 0.90539 0.0
H334 H 0.33484 0.90541 0.63446 0.0
H335 H 0.27409 -0.0166 0.74856 0.0
C336 C 0.29556 0.01685 0.67199 0.0
C337 C 0.31921 0.02285 0.61694 0.0
C338 C 0.32501 0.90565 0.69361 0.0
C339 C 0.31138 0.96285 0.6799 0.0
C340 C 0.32604 0.87851 0.74031 0.0
C341 C 0.31414 0.87862 0.81803 0.0
C342 C 0.31141 0.93281 0.7244 0.0
C343 C 0.30065 0.90619 0.84619 0.0
C344 C 0.29155 -0.01296 0.70333 0.0
C345 C 0.33669 -0.00251 0.58914 0.0
N346 N 0.29961 0.93207 0.79945 0.0
N347 N 0.3328 0.96857 0.62201 0.0
H348 H 0.95209 0.34849 0.60117 0.0
H349 H 0.0493 0.22667 0.86317 0.0
H350 H 0.9226 0.25344 0.6366 0.0
H351 H 0.05252 0.3265 0.89556 0.0
H352 H 0.0087 0.234 0.76285 0.0
H353 H -0.00259 0.33815 0.68522 0.0
C354 C 0.95588 0.32508 0.62372 0.0
C355 C 0.93368 0.30173 0.61172 0.0
C356 C 0.01826 0.25423 0.79238 0.0
C357 C -0.01522 0.29001 0.7097 0.0
C358 C 0.0412 0.25006 0.85019 0.0
C359 C 0.05434 0.27594 0.8885 0.0
C360 C 0.00879 0.28453 0.77148 0.0
C361 C 0.04307 0.30576 0.86839 0.0
C362 C -0.01863 0.31937 0.67305 0.0
C363 C 0.93931 0.27201 0.64417 0.0
N364 N 0.02123 0.30922 0.81087 0.0
N365 N 0.96413 0.26705 0.69227 0.0
H366 H 0.62626 0.05667 0.93583 0.0
H367 H 0.69955 0.92526 0.67405 0.0
H368 H 0.72298 0.06347 0.87343 0.0
H369 H 0.60798 0.96169 0.63117 0.0
H370 H 0.71057 0.97051 0.75882 0.0
H371 H 0.6206 0.01388 0.84228 0.0
C372 C 0.64646 0.0489 0.9034 0.0
C373 C 0.67503 0.06412 0.91144 0.0
C374 C 0.68836 0.96882 0.72933 0.0
C375 C 0.6686 0.015 0.80458 0.0
C376 C 0.68213 0.94325 0.68075 0.0
C377 C 0.65289 0.93997 0.64546 0.0
C378 C 0.6648 -0.00951 0.74428 0.0
C379 C 0.63092 0.96358 0.65659 0.0
C380 C 0.64309 0.02468 0.84947 0.0
C381 C 0.70048 0.05256 0.86864 0.0
N382 N 0.63711 -0.01241 0.70642 0.0
N383 N 0.69667 0.02861 0.81665 0.0
H384 H 0.06115 0.39023 0.12375 0.0
H385 H 0.93035 0.31041 0.35863 0.0
H386 H 0.02153 0.30357 0.04528 0.0
H387 H 0.92367 0.40992 0.32363 0.0
H388 H 0.97019 0.30835 0.25496 0.0
H389 H 0.01365 0.40126 0.19807 0.0
C390 C 0.04165 0.3745 0.118 0.0
C391 C 0.04516 0.34587 0.07907 0.0
C392 C 0.96007 0.33064 0.27052 0.0
C393 C -0.00781 0.35718 0.16745 0.0
C394 C 0.93797 0.33189 0.33073 0.0
C395 C 0.9241 0.36039 0.34981 0.0
C396 C 0.96868 0.35815 0.23066 0.0
C397 C 0.93414 0.38754 0.31063 0.0
C398 C 0.01489 0.38044 0.16191 0.0
C399 C 0.01957 0.32592 0.07471 0.0
N400 N 0.95605 0.38584 0.25297 0.0
N401 N -0.00545 0.33127 0.12136 0.0
H402 H 0.63879 0.96829 0.48224 0.0
H403 H 0.57538 0.10152 0.20281 0.0
H404 H 0.54722 0.96861 0.38042 0.0
H405 H 0.65808 0.11279 0.34325 0.0
H406 H 0.56185 0.05581 0.28164 0.0
H407 H 0.64385 0.02375 0.4484 0.0
C408 C 0.61944 -0.01975 0.45493 0.0
C409 C 0.59268 0.96385 0.4334 0.0
C410 C 0.58274 0.06848 0.29632 0.0
C411 C 0.59851 0.02681 0.39277 0.0
C412 C 0.59046 0.0946 0.25113 0.0
C413 C 0.61804 0.11068 0.266 0.0
C414 C 0.60314 0.05787 0.3556 0.0
C415 C 0.63664 0.10089 0.32976 0.0
C416 C 0.62238 0.01184 0.4351 0.0
C417 C 0.56845 -0.01969 0.39694 0.0
N418 N 0.62917 0.07468 0.37132 0.0
N419 N 0.57212 0.01072 0.37677 0.0
H420 H 0.88581 0.57012 0.11361 0.0
H421 H 0.05536 0.62092 0.23533 0.0
H422 H 0.92458 0.65801 0.03954 0.0
H423 H -0.00974 0.58078 0.40094 0.0
H424 H 0.01576 0.62001 0.13206 0.0
H425 H 0.93446 0.55753 0.1814 0.0
C426 C 0.90531 0.58582 0.10717 0.0
C427 C 0.90139 0.61523 0.07196 0.0
C428 C 0.01026 0.61131 0.19088 0.0
C429 C 0.95618 0.60136 0.14956 0.0
C430 C 0.03255 0.6121 0.25001 0.0
C431 C 0.02569 0.60142 0.32699 0.0
C432 C -0.01892 0.59922 0.2084 0.0
C433 C -0.0039 0.58983 0.34275 0.0
C434 C 0.93267 0.57894 0.1473 0.0
C435 C 0.92694 0.63511 0.06625 0.0
N436 N 0.9747 0.58896 0.28348 0.0
N437 N 0.95327 0.6281 0.10638 0.0
H438 H 0.36862 0.91033 0.06728 0.0
H439 H 0.31352 0.02862 0.39092 0.0
H440 H 0.27362 0.93914 0.09145 0.0
H441 H 0.40358 0.04034 0.28443 0.0
H442 H 0.30098 -0.00999 0.28898 0.0
H443 H 0.38462 0.95629 0.14363 0.0
C444 C 0.3513 0.92729 0.08462 0.0
C445 C 0.31975 0.92088 0.07435 0.0
C446 C 0.32355 0.00096 0.28827 0.0
C447 C 0.33755 0.97197 0.16465 0.0
C448 C 0.3309 0.02247 0.34733 0.0
C449 C 0.35957 0.0376 0.34589 0.0
C450 C 0.34523 -0.00578 0.22842 0.0
C451 C 0.38116 0.02911 0.28731 0.0
C452 C 0.36036 0.95308 0.12976 0.0
C453 C 0.29817 0.94327 0.09897 0.0
N454 N 0.37358 0.00791 0.23075 0.0
N455 N 0.30734 0.9673 0.14548 0.0
H456 H 0.76911 0.26156 0.46379 0.0
H457 H 0.76446 0.19049 0.07191 0.0
H458 H 0.85588 0.24944 0.34199 0.0
H459 H 0.71124 0.14546 0.2554 0.0
H460 H 0.80226 0.2065 0.17169 0.0
H461 H 0.74947 0.21451 0.39883 0.0
C462 C 0.78454 0.24809 0.42684 0.0
C463 C 0.81406 0.25929 0.40824 0.0
C464 C 0.78304 0.19192 0.18986 0.0
C465 C 0.79146 0.20666 0.33076 0.0
C466 C 0.7617 0.18252 0.13265 0.0
C467 C 0.7349 0.16668 0.15579 0.0
C468 C 0.77656 0.18668 0.27064 0.0
C469 C 0.7318 0.15761 0.23556 0.0
C470 C 0.77328 0.22139 0.38901 0.0
C471 C 0.83276 0.24166 0.35697 0.0
N472 N 0.75171 0.16888 0.29097 0.0
N473 N 0.82087 0.21673 0.31815 0.0
H474 H 0.73591 0.72084 0.04781 0.0
H475 H 0.69713 0.81155 0.43422 0.0
H476 H 0.80904 0.75137 0.20387 0.0
H477 H 0.64865 0.83378 0.21693 0.0
H478 H 0.73645 0.78388 0.35494 0.0
H479 H 0.70151 0.75958 0.10805 0.0
C480 C 0.74511 0.73643 0.09233 0.0
C481 C 0.7752 0.73253 0.12172 0.0
C482 C 0.71724 0.79515 0.32508 0.0
C483 C 0.73576 0.77541 0.19327 0.0
C484 C 0.6948 0.81061 0.37021 0.0
C485 C 0.66981 0.82505 0.33202 0.0
C486 C 0.71397 0.79354 0.24197 0.0
C487 C 0.66775 0.82319 0.24874 0.0
C488 C 0.72535 0.75818 0.12759 0.0
C489 C 0.78576 0.75323 0.18048 0.0
N490 N 0.68934 0.80743 0.20656 0.0
N491 N 0.7658 0.77314 0.21614 0.0
H492 H 0.18663 0.81123 0.15559 0.0
H493 H 0.20278 0.64709 0.36582 0.0
H494 H 0.24772 0.73835 0.07544 0.0
H495 H 0.11667 0.69741 0.37829 0.0
H496 H 0.22317 0.68687 0.27612 0.0
H497 H 0.16033 0.77347 0.24174 0.0
C498 C 0.19345 0.78692 0.15307 0.0
C499 C 0.21958 0.77792 0.10897 0.0
C500 C 0.20002 0.68963 0.29975 0.0
C501 C 0.19092 0.73532 0.21028 0.0
C502 C 0.18876 0.66747 0.35288 0.0
C503 C 0.15815 0.6692 0.37982 0.0
C504 C 0.18061 0.71388 0.27401 0.0
C505 C 0.14058 0.69559 0.35965 0.0
C506 C 0.1789 0.76559 0.20356 0.0
C507 C 0.22772 0.74628 0.10843 0.0
N508 N 0.15191 0.71683 0.30678 0.0
N509 N 0.21407 0.72628 0.16041 0.0
H510 H 0.29113 0.20303 0.41217 0.0
H511 H 0.12339 0.18907 0.23287 0.0
H512 H 0.24545 0.11401 0.42921 0.0
H513 H 0.19986 0.23173 0.10807 0.0
H514 H 0.16045 0.16615 0.32748 0.0
H515 H 0.24795 0.22259 0.33147 0.0
C516 C 0.2712 0.18818 0.40246 0.0
C517 C 0.27147 0.1571 0.428 0.0
C518 C 0.16889 0.18019 0.27848 0.0
C519 C 0.22288 0.17875 0.33408 0.0
C520 C 0.14791 0.19289 0.22383 0.0
C521 C 0.1584 0.21272 0.16269 0.0
C522 C 0.20028 0.18806 0.27274 0.0
C523 C 0.1905 0.21687 0.15426 0.0
C524 C 0.247 0.19906 0.35505 0.0
C525 C 0.24566 0.13833 0.41147 0.0
N526 N 0.21019 0.20535 0.20985 0.0
N527 N 0.22236 0.14934 0.36475 0.0
H528 H 0.19471 0.64482 0.58153 0.0
H529 H 0.22561 0.77596 0.91087 0.0
H530 H 0.12399 0.70549 0.67374 0.0
H531 H 0.29398 0.70898 0.83445 0.0
H532 H 0.18935 0.75446 0.81368 0.0
H533 H 0.23368 0.67446 0.65593 0.0
C534 C 0.18763 0.66533 0.61435 0.0
C535 C 0.15623 0.67292 0.62134 0.0
C536 C 0.21229 0.74444 0.81833 0.0
C537 C 0.20016 0.70592 0.70945 0.0
C538 C 0.23289 0.75649 0.87455 0.0
C539 C 0.26289 0.74419 0.88144 0.0
C540 C 0.22173 0.71997 0.76829 0.0
C541 C 0.27107 0.71915 0.83179 0.0
C542 C 0.20973 0.68184 0.65825 0.0
C543 C 0.14808 0.69913 0.66647 0.0
N544 N 0.25069 0.70797 0.77738 0.0
N545 N 0.1698 0.71438 0.70984 0.0
H546 H 0.36082 0.20221 0.75459 0.0
H547 H 0.25419 0.26365 1.00549 0.0
H548 H 0.28036 0.19051 0.60591 0.0
H549 H 0.20545 0.29748 0.79955 0.0
H550 H 0.29542 0.24453 0.91948 0.0
H551 H 0.33479 0.24455 0.824 0.0
C552 C 0.3377 0.20878 0.73603 0.0
C553 C 0.32229 0.19219 0.67607 0.0
C554 C 0.27652 0.25746 0.89293 0.0
C555 C 0.29219 0.2402 0.75665 0.0
C556 C 0.25313 0.26857 0.94237 0.0
C557 C 0.22691 0.28262 0.90939 0.0
C558 C 0.27303 0.2596 0.80992 0.0
C559 C 0.22578 0.28728 0.82692 0.0
C560 C 0.32287 0.23288 0.77596 0.0
C561 C 0.29281 0.20234 0.65278 0.0
N562 N 0.24808 0.27491 0.77958 0.0
N563 N 0.2784 0.22542 0.69429 0.0
H564 H 0.76401 0.27193 0.59548 0.0
H565 H 0.64215 0.22114 0.81836 0.0
H566 H 0.75957 0.35712 0.73031 0.0
H567 H 0.69928 0.26635 0.99309 0.0
H568 H 0.6628 0.25642 0.71634 0.0
H569 H 0.7176 0.25339 0.6649 0.0
C570 C 0.75252 0.28722 0.63691 0.0
C571 C 0.76565 0.31592 0.65733 0.0
C572 C 0.66975 0.25941 0.77765 0.0
C573 C 0.71337 0.29484 0.73821 0.0
C574 C 0.65763 0.23974 0.83609 0.0
C575 C 0.66931 0.24091 0.91379 0.0
C576 C 0.69311 0.28055 0.79826 0.0
C577 C 0.68976 0.26489 0.93371 0.0
C578 C 0.72608 0.27669 0.67676 0.0
C579 C 0.75044 0.33452 0.71382 0.0
N580 N 0.70144 0.28358 0.87584 0.0
N581 N 0.72565 0.32329 0.75398 0.0
H582 H 0.69807 0.80985 0.61529 0.0
H583 H 0.68486 0.65792 0.89017 0.0
H584 H 0.62053 0.7469 0.61664 0.0
H585 H 0.76578 0.71684 0.88902 0.0
H586 H 0.66244 0.68973 0.78511 0.0
H587 H 0.72632 0.77375 0.70298 0.0
C588 C 0.68765 0.78766 0.63068 0.0
C589 C 0.65709 0.78108 0.60806 0.0
C590 C 0.68506 0.6959 0.80779 0.0
C591 C 0.68844 0.74058 0.71124 0.0
C592 C 0.69777 0.67789 0.86862 0.0
C593 C 0.72726 0.6847 0.8988 0.0
C594 C 0.70183 0.72113 0.77629 0.0
C595 C 0.74286 0.71086 0.86803 0.0
C596 C 0.70347 0.7674 0.68222 0.0
C597 C 0.6442 0.75258 0.63195 0.0
N598 N 0.73001 0.72808 0.80822 0.0
N599 N 0.65971 0.73365 0.68308 0.0
loop_
_geom_bond_atom_site_label_1
_geom_bond_atom_site_label_2
_geom_bond_distance
_geom_bond_site_symmetry_2
_ccdc_geom_bond_type
Zn0 O6 1.920 . S
Zn0 O12 1.898 . S
Zn0 O15 1.905 . S
Zn1 O9 1.905 . S
Zn1 O10 1.898 . S
Zn1 O18 1.920 . S
Zn2 O5 2.080 1_554 S
Zn2 O8 2.114 . S
Zn2 O11 2.120 . S
Zn2 O13 2.120 1_554 S
Zn2 O14 2.114 1_554 S
Zn2 O17 2.080 . S
C3 O8 1.166 . S
C3 O9 1.182 . S
C4 O10 1.167 . S
C4 O11 1.299 . S
O5 Zn2 2.080 1_556 S
O5 C19 1.305 . S
O6 Zn0 1.920 . S
O6 C19 1.234 . S
C7 O12 1.167 . S
C7 O13 1.299 . S
O8 Zn2 2.114 . S
O8 C3 1.166 . S
O9 Zn1 1.905 . S
O9 C3 1.182 . S
O10 Zn1 1.898 . S
O10 C4 1.167 . S
O11 Zn2 2.120 . S
O11 C4 1.299 . S
O12 Zn0 1.898 . S
O12 C7 1.167 . S
O13 Zn2 2.120 1_556 S
O13 C7 1.299 . S
O14 Zn2 2.114 1_556 S
O14 C16 1.166 . S
O15 Zn0 1.905 . S
O15 C16 1.182 . S
C16 O14 1.166 . S
C16 O15 1.182 . S
O17 Zn2 2.080 . S
O17 C20 1.305 . S
O18 Zn1 1.920 . S
O18 C20 1.234 . S
C19 O5 1.305 . S
C19 O6 1.234 . S
C20 O17 1.305 . S
C20 O18 1.234 . S
Zn21 O27 1.920 . S
Zn21 O33 1.898 . S
Zn21 O36 1.905 . S
Zn22 O30 1.905 . S
Zn22 O31 1.898 . S
Zn22 O39 1.920 . S
Zn23 O26 2.080 1_554 S
Zn23 O29 2.114 . S
Zn23 O32 2.120 . S
Zn23 O34 2.120 1_554 S
Zn23 O35 2.114 1_554 S
Zn23 O38 2.080 . S
C24 O29 1.166 . S
C24 O30 1.182 . S
C25 O31 1.167 . S
C25 O32 1.299 . S
O26 Zn23 2.080 1_556 S
O26 C40 1.305 . S
O27 Zn21 1.920 . S
O27 C40 1.234 . S
C28 O33 1.167 . S
C28 O34 1.299 . S
O29 Zn23 2.114 . S
O29 C24 1.166 . S
O30 Zn22 1.905 . S
O30 C24 1.182 . S
O31 Zn22 1.898 . S
O31 C25 1.167 . S
O32 Zn23 2.120 . S
O32 C25 1.299 . S
O33 Zn21 1.898 . S
O33 C28 1.167 . S
O34 Zn23 2.120 1_556 S
O34 C28 1.299 . S
O35 Zn23 2.114 1_556 S
O35 C37 1.166 . S
O36 Zn21 1.905 . S
O36 C37 1.182 . S
C37 O35 1.166 . S
C37 O36 1.182 . S
O38 Zn23 2.080 . S
O38 C41 1.305 . S
O39 Zn22 1.920 . S
O39 C41 1.234 . S
C40 O26 1.305 . S
C40 O27 1.234 . S
C41 O38 1.305 . S
C41 O39 1.234 . S
Zn42 O48 1.920 . S
Zn42 O54 1.898 . S
Zn42 O57 1.905 . S
Zn43 O51 1.905 . S
Zn43 O52 1.898 . S
Zn43 O60 1.920 . S
Zn44 O47 2.080 . S
Zn44 O50 2.114 1_554 S
Zn44 O53 2.120 1_554 S
Zn44 O55 2.120 . S
Zn44 O56 2.114 . S
Zn44 O59 2.080 1_554 S
C45 O50 1.166 . S
C45 O51 1.182 . S
C46 O52 1.167 . S
C46 O53 1.299 . S
O47 Zn44 2.080 . S
O47 C61 1.305 . S
O48 Zn42 1.920 . S
O48 C61 1.234 . S
C49 O54 1.167 . S
C49 O55 1.299 . S
O50 Zn44 2.114 1_556 S
O50 C45 1.166 . S
O51 Zn43 1.905 . S
O51 C45 1.182 . S
O52 Zn43 1.898 . S
O52 C46 1.167 . S
O53 Zn44 2.120 1_556 S
O53 C46 1.299 . S
O54 Zn42 1.898 . S
O54 C49 1.167 . S
O55 Zn44 2.120 . S
O55 C49 1.299 . S
O56 Zn44 2.114 . S
O56 C58 1.166 . S
O57 Zn42 1.905 . S
O57 C58 1.182 . S
C58 O56 1.166 . S
C58 O57 1.182 . S
O59 Zn44 2.080 1_556 S
O59 C62 1.305 . S
O60 Zn43 1.920 . S
O60 C62 1.234 . S
C61 O47 1.305 . S
C61 O48 1.234 . S
C62 O59 1.305 . S
C62 O60 1.234 . S
Zn63 O69 1.920 . S
Zn63 O75 1.898 . S
Zn63 O78 1.905 . S
Zn64 O72 1.905 . S
Zn64 O73 1.898 . S
Zn64 O81 1.920 . S
Zn65 O68 2.080 . S
Zn65 O71 2.114 1_554 S
Zn65 O74 2.120 1_554 S
Zn65 O76 2.120 . S
Zn65 O77 2.114 . S
Zn65 O80 2.080 1_554 S
C66 O71 1.166 . S
C66 O72 1.182 . S
C67 O73 1.167 . S
C67 O74 1.299 . S
O68 Zn65 2.080 . S
O68 C82 1.305 . S
O69 Zn63 1.920 . S
O69 C82 1.234 . S
C70 O75 1.167 . S
C70 O76 1.299 . S
O71 Zn65 2.114 1_556 S
O71 C66 1.166 . S
O72 Zn64 1.905 . S
O72 C66 1.182 . S
O73 Zn64 1.898 . S
O73 C67 1.167 . S
O74 Zn65 2.120 1_556 S
O74 C67 1.299 . S
O75 Zn63 1.898 . S
O75 C70 1.167 . S
O76 Zn65 2.120 . S
O76 C70 1.299 . S
O77 Zn65 2.114 . S
O77 C79 1.166 . S
O78 Zn63 1.905 . S
O78 C79 1.182 . S
C79 O77 1.166 . S
C79 O78 1.182 . S
O80 Zn65 2.080 1_556 S
O80 C83 1.305 . S
O81 Zn64 1.920 . S
O81 C83 1.234 . S
C82 O68 1.305 . S
C82 O69 1.234 . S
C83 O80 1.305 . S
C83 O81 1.234 . S
Zn84 O90 1.920 . S
Zn84 O96 1.898 . S
Zn84 O99 1.905 . S
Zn85 O93 1.905 . S
Zn85 O94 1.898 . S
Zn85 O102 1.920 . S
Zn86 O89 2.080 . S
Zn86 O92 2.114 . S
Zn86 O95 2.120 . S
Zn86 O97 2.120 . S
Zn86 O98 2.114 . S
Zn86 O101 2.080 . S
C87 O92 1.166 . S
C87 O93 1.182 . S
C88 O94 1.167 . S
C88 O95 1.299 . S
O89 Zn86 2.080 . S
O89 C103 1.305 . S
O90 Zn84 1.920 . S
O90 C103 1.234 . S
C91 O96 1.167 . S
C91 O97 1.299 . S
O92 Zn86 2.114 . S
O92 C87 1.166 . S
O93 Zn85 1.905 . S
O93 C87 1.182 . S
O94 Zn85 1.898 . S
O94 C88 1.167 . S
O95 Zn86 2.120 . S
O95 C88 1.299 . S
O96 Zn84 1.898 . S
O96 C91 1.167 . S
O97 Zn86 2.120 . S
O97 C91 1.299 . S
O98 Zn86 2.114 . S
O98 C100 1.166 . S
O99 Zn84 1.905 . S
O99 C100 1.182 . S
C100 O98 1.166 . S
C100 O99 1.182 . S
O101 Zn86 2.080 . S
O101 C104 1.305 . S
O102 Zn85 1.920 . S
O102 C104 1.234 . S
C103 O89 1.305 . S
C103 O90 1.234 . S
C104 O101 1.305 . S
C104 O102 1.234 . S
Zn105 O111 1.920 . S
Zn105 O117 1.898 . S
Zn105 O120 1.905 . S
Zn106 O114 1.905 . S
Zn106 O115 1.898 . S
Zn106 O123 1.920 . S
Zn107 O110 2.080 . S
Zn107 O113 2.114 . S
Zn107 O116 2.120 . S
Zn107 O118 2.120 . S
Zn107 O119 2.114 . S
Zn107 O122 2.080 . S
C108 O113 1.166 . S
C108 O114 1.182 . S
C109 O115 1.167 . S
C109 O116 1.299 . S
O110 Zn107 2.080 . S
O110 C124 1.305 . S
O111 Zn105 1.920 . S
O111 C124 1.234 . S
C112 O117 1.167 . S
C112 O118 1.299 . S
O113 Zn107 2.114 . S
O113 C108 1.166 . S
O114 Zn106 1.905 . S
O114 C108 1.182 . S
O115 Zn106 1.898 . S
O115 C109 1.167 . S
O116 Zn107 2.120 . S
O116 C109 1.299 . S
O117 Zn105 1.898 . S
O117 C112 1.167 . S
O118 Zn107 2.120 . S
O118 C112 1.299 . S
O119 Zn107 2.114 . S
O119 C121 1.166 . S
O120 Zn105 1.905 . S
O120 C121 1.182 . S
C121 O119 1.166 . S
C121 O120 1.182 . S
O122 Zn107 2.080 . S
O122 C125 1.305 . S
O123 Zn106 1.920 . S
O123 C125 1.234 . S
C124 O110 1.305 . S
C124 O111 1.234 . S
C125 O122 1.305 . S
C125 O123 1.234 . S
Zn126 O132 1.920 . S
Zn126 O138 1.898 . S
Zn126 O141 1.905 . S
Zn127 O135 1.905 . S
Zn127 O136 1.898 . S
Zn127 O144 1.920 . S
Zn128 O131 2.080 . S
Zn128 O134 2.114 . S
Zn128 O137 2.120 . S
Zn128 O139 2.120 . S
Zn128 O140 2.114 . S
Zn128 O143 2.080 . S
C129 O134 1.166 . S
C129 O135 1.182 . S
C130 O136 1.167 . S
C130 O137 1.299 . S
O131 Zn128 2.080 . S
O131 C145 1.305 . S
O132 Zn126 1.920 . S
O132 C145 1.234 . S
C133 O138 1.167 . S
C133 O139 1.299 . S
O134 Zn128 2.114 . S
O134 C129 1.166 . S
O135 Zn127 1.905 . S
O135 C129 1.182 . S
O136 Zn127 1.898 . S
O136 C130 1.167 . S
O137 Zn128 2.120 . S
O137 C130 1.299 . S
O138 Zn126 1.898 . S
O138 C133 1.167 . S
O139 Zn128 2.120 . S
O139 C133 1.299 . S
O140 Zn128 2.114 . S
O140 C142 1.166 . S
O141 Zn126 1.905 . S
O141 C142 1.182 . S
C142 O140 1.166 . S
C142 O141 1.182 . S
O143 Zn128 2.080 . S
O143 C146 1.305 . S
O144 Zn127 1.920 . S
O144 C146 1.234 . S
C145 O131 1.305 . S
C145 O132 1.234 . S
C146 O143 1.305 . S
C146 O144 1.234 . S
Zn147 O153 1.920 . S
Zn147 O159 1.898 . S
Zn147 O162 1.905 . S
Zn148 O156 1.905 . S
Zn148 O157 1.898 . S
Zn148 O165 1.920 . S
Zn149 O152 2.080 . S
Zn149 O155 2.114 . S
Zn149 O158 2.120 . S
Zn149 O160 2.120 . S
Zn149 O161 2.114 . S
Zn149 O164 2.080 . S
C150 O155 1.166 . S
C150 O156 1.182 . S
C151 O157 1.167 . S
C151 O158 1.299 . S
O152 Zn149 2.080 . S
O152 C166 1.305 . S
O153 Zn147 1.920 . S
O153 C166 1.234 . S
C154 O159 1.167 . S
C154 O160 1.299 . S
O155 Zn149 2.114 . S
O155 C150 1.166 . S
O156 Zn148 1.905 . S
O156 C150 1.182 . S
O157 Zn148 1.898 . S
O157 C151 1.167 . S
O158 Zn149 2.120 . S
O158 C151 1.299 . S
O159 Zn147 1.898 . S
O159 C154 1.167 . S
O160 Zn149 2.120 . S
O160 C154 1.299 . S
O161 Zn149 2.114 . S
O161 C163 1.166 . S
O162 Zn147 1.905 . S
O162 C163 1.182 . S
C163 O161 1.166 . S
C163 O162 1.182 . S
O164 Zn149 2.080 . S
O164 C167 1.305 . S
O165 Zn148 1.920 . S
O165 C167 1.234 . S
C166 O152 1.305 . S
C166 O153 1.234 . S
C167 O164 1.305 . S
C167 O165 1.234 . S
H168 C174 0.930 . S
H169 C178 0.930 . S
H170 C183 0.929 . S
H171 C181 0.929 . S
H172 C176 0.929 . S
H173 C182 0.929 . S
C174 H168 0.930 . S
C174 C175 1.367 . S
C174 C182 1.378 . S
C175 C174 1.367 . S
C175 C183 1.433 . S
C176 H172 0.929 . S
C176 C178 1.378 . S
C176 C180 1.350 . S
C177 C180 1.463 . S
C177 C182 1.350 . S
C177 N185 1.427 . S
C178 H169 0.930 . S
C178 C176 1.378 . S
C178 C179 1.367 . S
C179 C178 1.367 . S
C179 C181 1.433 . S
C180 C176 1.350 . S
C180 C177 1.463 . S
C180 N184 1.427 . S
C181 H171 0.929 . S
C181 C179 1.433 . S
C181 N184 1.384 . S
C182 H173 0.929 . S
C182 C174 1.378 . S
C182 C177 1.350 . S
C183 H170 0.929 . S
C183 C175 1.433 . S
C183 N185 1.384 . S
N184 C180 1.427 . S
N184 C181 1.384 . S
N185 C177 1.427 . S
N185 C183 1.384 . S
H186 C192 0.930 . S
H187 C196 0.930 . S
H188 C201 0.929 . S
H189 C199 0.929 . S
H190 C194 0.929 . S
H191 C200 0.929 . S
C192 H186 0.930 . S
C192 C193 1.367 . S
C192 C200 1.378 . S
C193 C192 1.367 . S
C193 C201 1.433 . S
C194 H190 0.929 . S
C194 C196 1.378 . S
C194 C198 1.350 . S
C195 C198 1.463 . S
C195 C200 1.350 . S
C195 N203 1.427 . S
C196 H187 0.930 . S
C196 C194 1.378 . S
C196 C197 1.367 . S
C197 C196 1.367 . S
C197 C199 1.433 . S
C198 C194 1.350 . S
C198 C195 1.463 . S
C198 N202 1.427 . S
C199 H189 0.929 . S
C199 C197 1.433 . S
C199 N202 1.384 . S
C200 H191 0.929 . S
C200 C192 1.378 . S
C200 C195 1.350 . S
C201 H188 0.929 . S
C201 C193 1.433 . S
C201 N203 1.384 . S
N202 C198 1.427 . S
N202 C199 1.384 . S
N203 C195 1.427 . S
N203 C201 1.384 . S
H204 C210 0.930 . S
H205 C214 0.930 . S
H206 C219 0.929 . S
H207 C217 0.929 . S
H208 C212 0.929 . S
H209 C218 0.929 . S
C210 H204 0.930 . S
C210 C211 1.367 . S
C210 C218 1.378 . S
C211 C210 1.367 . S
C211 C219 1.433 . S
C212 H208 0.929 . S
C212 C214 1.378 . S
C212 C216 1.350 . S
C213 C216 1.463 . S
C213 C218 1.350 . S
C213 N221 1.427 . S
C214 H205 0.930 . S
C214 C212 1.378 . S
C214 C215 1.367 . S
C215 C214 1.367 . S
C215 C217 1.433 . S
C216 C212 1.350 . S
C216 C213 1.463 . S
C216 N220 1.427 . S
C217 H207 0.929 . S
C217 C215 1.433 . S
C217 N220 1.384 . S
C218 H209 0.929 . S
C218 C210 1.378 . S
C218 C213 1.350 . S
C219 H206 0.929 . S
C219 C211 1.433 . S
C219 N221 1.384 . S
N220 C216 1.427 . S
N220 C217 1.384 . S
N221 C213 1.427 . S
N221 C219 1.384 . S
H222 C228 0.930 . S
H223 C232 0.930 . S
H224 C237 0.929 . S
H225 C235 0.929 . S
H226 C230 0.929 . S
H227 C236 0.929 . S
C228 H222 0.930 . S
C228 C229 1.367 . S
C228 C236 1.378 . S
C229 C228 1.367 . S
C229 C237 1.433 . S
C230 H226 0.929 . S
C230 C232 1.378 . S
C230 C234 1.350 . S
C231 C234 1.463 . S
C231 C236 1.350 . S
C231 N239 1.427 . S
C232 H223 0.930 . S
C232 C230 1.378 . S
C232 C233 1.367 . S
C233 C232 1.367 . S
C233 C235 1.433 . S
C234 C230 1.350 . S
C234 C231 1.463 . S
C234 N238 1.427 . S
C235 H225 0.929 . S
C235 C233 1.433 . S
C235 N238 1.384 . S
C236 H227 0.929 . S
C236 C228 1.378 . S
C236 C231 1.350 . S
C237 H224 0.929 . S
C237 C229 1.433 . S
C237 N239 1.384 . S
N238 C234 1.427 . S
N238 C235 1.384 . S
N239 C231 1.427 . S
N239 C237 1.384 . S
H240 C246 0.930 . S
H241 C250 0.930 . S
H242 C255 0.929 . S
H243 C253 0.929 . S
H244 C248 0.929 . S
H245 C254 0.929 . S
C246 H240 0.930 . S
C246 C247 1.367 . S
C246 C254 1.378 . S
C247 C246 1.367 . S
C247 C255 1.433 . S
C248 H244 0.929 . S
C248 C250 1.378 . S
C248 C252 1.350 . S
C249 C252 1.463 . S
C249 C254 1.350 . S
C249 N257 1.427 . S
C250 H241 0.930 . S
C250 C248 1.378 . S
C250 C251 1.367 . S
C251 C250 1.367 . S
C251 C253 1.433 . S
C252 C248 1.350 . S
C252 C249 1.463 . S
C252 N256 1.427 . S
C253 H243 0.929 . S
C253 C251 1.433 . S
C253 N256 1.384 . S
C254 H245 0.929 . S
C254 C246 1.378 . S
C254 C249 1.350 . S
C255 H242 0.929 . S
C255 C247 1.433 . S
C255 N257 1.384 . S
N256 C252 1.427 . S
N256 C253 1.384 . S
N257 C249 1.427 . S
N257 C255 1.384 . S
H258 C264 0.930 . S
H259 C268 0.930 . S
H260 C273 0.929 . S
H261 C271 0.929 . S
H262 C266 0.929 . S
H263 C272 0.929 . S
C264 H258 0.930 . S
C264 C265 1.367 . S
C264 C272 1.378 . S
C265 C264 1.367 . S
C265 C273 1.433 . S
C266 H262 0.929 . S
C266 C268 1.378 . S
C266 C270 1.350 . S
C267 C270 1.463 . S
C267 C272 1.350 . S
C267 N275 1.427 . S
C268 H259 0.930 . S
C268 C266 1.378 . S
C268 C269 1.367 . S
C269 C268 1.367 . S
C269 C271 1.433 . S
C270 C266 1.350 . S
C270 C267 1.463 . S
C270 N274 1.427 . S
C271 H261 0.929 . S
C271 C269 1.433 . S
C271 N274 1.384 . S
C272 H263 0.929 . S
C272 C264 1.378 . S
C272 C267 1.350 . S
C273 H260 0.929 . S
C273 C265 1.433 . S
C273 N275 1.384 . S
N274 C270 1.427 . S
N274 C271 1.384 . S
N275 C267 1.427 . S
N275 C273 1.384 . S
H276 C282 0.930 . S
H277 C286 0.930 . S
H278 C291 0.929 . S
H279 C289 0.929 . S
H280 C284 0.929 . S
H281 C290 0.929 . S
C282 H276 0.930 . S
C282 C283 1.367 . S
C282 C290 1.378 . S
C283 C282 1.367 . S
C283 C291 1.433 . S
C284 H280 0.929 . S
C284 C286 1.378 . S
C284 C288 1.350 . S
C285 C288 1.463 . S
C285 C290 1.350 . S
C285 N293 1.427 . S
C286 H277 0.930 . S
C286 C284 1.378 . S
C286 C287 1.367 . S
C287 C286 1.367 . S
C287 C289 1.433 . S
C288 C284 1.350 . S
C288 C285 1.463 . S
C288 N292 1.427 . S
C289 H279 0.929 . S
C289 C287 1.433 . S
C289 N292 1.384 . S
C290 H281 0.929 . S
C290 C282 1.378 . S
C290 C285 1.350 . S
C291 H278 0.929 . S
C291 C283 1.433 . S
C291 N293 1.384 . S
N292 C288 1.427 . S
N292 C289 1.384 . S
N293 C285 1.427 . S
N293 C291 1.384 . S
H294 C300 0.930 . S
H295 C304 0.930 . S
H296 C309 0.929 . S
H297 C307 0.929 . S
H298 C302 0.929 . S
H299 C308 0.929 . S
C300 H294 0.930 . S
C300 C301 1.367 . S
C300 C308 1.378 . S
C301 C300 1.367 . S
C301 C309 1.433 . S
C302 H298 0.929 . S
C302 C304 1.378 . S
C302 C306 1.350 . S
C303 C306 1.463 . S
C303 C308 1.350 . S
C303 N311 1.427 . S
C304 H295 0.930 . S
C304 C302 1.378 . S
C304 C305 1.367 . S
C305 C304 1.367 . S
C305 C307 1.433 . S
C306 C302 1.350 . S
C306 C303 1.463 . S
C306 N310 1.427 . S
C307 H297 0.929 . S
C307 C305 1.433 . S
C307 N310 1.384 . S
C308 H299 0.929 . S
C308 C300 1.378 . S
C308 C303 1.350 . S
C309 H296 0.929 . S
C309 C301 1.433 . S
C309 N311 1.384 . S
N310 C306 1.427 . S
N310 C307 1.384 . S
N311 C303 1.427 . S
N311 C309 1.384 . S
H312 C318 0.930 . S
H313 C322 0.930 . S
H314 C327 0.929 . S
H315 C325 0.929 . S
H316 C320 0.929 1_655 S
H317 C326 0.929 1_455 S
C318 H312 0.930 . S
C318 C319 1.367 . S
C318 C326 1.378 . S
C319 C318 1.367 . S
C319 C327 1.433 . S
C320 H316 0.929 1_455 S
C320 C322 1.378 . S
C320 C324 1.350 . S
C321 C324 1.463 1_655 S
C321 C326 1.350 . S
C321 N329 1.427 . S
C322 H313 0.930 . S
C322 C320 1.378 . S
C322 C323 1.367 . S
C323 C322 1.367 . S
C323 C325 1.433 . S
C324 C320 1.350 . S
C324 C321 1.463 1_455 S
C324 N328 1.427 . S
C325 H315 0.929 . S
C325 C323 1.433 . S
C325 N328 1.384 . S
C326 H317 0.929 1_655 S
C326 C318 1.378 . S
C326 C321 1.350 . S
C327 H314 0.929 . S
C327 C319 1.433 . S
C327 N329 1.384 . S
N328 C324 1.427 . S
N328 C325 1.384 . S
N329 C321 1.427 . S
N329 C327 1.384 . S
H330 C336 0.930 . S
H331 C340 0.930 . S
H332 C345 0.929 . S
H333 C343 0.929 . S
H334 C338 0.929 . S
H335 C344 0.929 . S
C336 H330 0.930 . S
C336 C337 1.367 . S
C336 C344 1.378 . S
C337 C336 1.367 . S
C337 C345 1.433 . S
C338 H334 0.929 . S
C338 C340 1.378 . S
C338 C342 1.350 . S
C339 C342 1.463 1_545 S
C339 C344 1.350 . S
C339 N347 1.427 . S
C340 H331 0.930 . S
C340 C338 1.378 . S
C340 C341 1.367 . S
C341 C340 1.367 . S
C341 C343 1.433 . S
C342 C338 1.350 . S
C342 C339 1.463 1_565 S
C342 N346 1.427 . S
C343 H333 0.929 . S
C343 C341 1.433 . S
C343 N346 1.384 . S
C344 H335 0.929 . S
C344 C336 1.378 . S
C344 C339 1.350 . S
C345 H332 0.929 . S
C345 C337 1.433 . S
C345 N347 1.384 . S
N346 C342 1.427 . S
N346 C343 1.384 . S
N347 C339 1.427 . S
N347 C345 1.384 . S
H348 C354 0.930 . S
H349 C358 0.930 . S
H350 C363 0.929 . S
H351 C361 0.929 . S
H352 C356 0.929 . S
H353 C362 0.929 . S
C354 H348 0.930 . S
C354 C355 1.367 . S
C354 C362 1.378 . S
C355 C354 1.367 . S
C355 C363 1.433 . S
C356 H352 0.929 . S
C356 C358 1.378 . S
C356 C360 1.350 . S
C357 C360 1.463 1_655 S
C357 C362 1.350 . S
C357 N365 1.427 . S
C358 H349 0.930 . S
C358 C356 1.378 . S
C358 C359 1.367 . S
C359 C358 1.367 . S
C359 C361 1.433 . S
C360 C356 1.350 . S
C360 C357 1.463 1_455 S
C360 N364 1.427 . S
C361 H351 0.929 . S
C361 C359 1.433 . S
C361 N364 1.384 . S
C362 H353 0.929 . S
C362 C354 1.378 . S
C362 C357 1.350 . S
C363 H350 0.929 . S
C363 C355 1.433 . S
C363 N365 1.384 . S
N364 C360 1.427 . S
N364 C361 1.384 . S
N365 C357 1.427 . S
N365 C363 1.384 . S
H366 C372 0.930 . S
H367 C376 0.930 . S
H368 C381 0.929 . S
H369 C379 0.929 . S
H370 C374 0.929 . S
H371 C380 0.929 . S
C372 H366 0.930 . S
C372 C373 1.367 . S
C372 C380 1.378 . S
C373 C372 1.367 . S
C373 C381 1.433 . S
C374 H370 0.929 . S
C374 C376 1.378 . S
C374 C378 1.350 . S
C375 C378 1.463 1_545 S
C375 C380 1.350 . S
C375 N383 1.427 . S
C376 H367 0.930 . S
C376 C374 1.378 . S
C376 C377 1.367 . S
C377 C376 1.367 . S
C377 C379 1.433 . S
C378 C374 1.350 . S
C378 C375 1.463 1_565 S
C378 N382 1.427 . S
C379 H369 0.929 . S
C379 C377 1.433 . S
C379 N382 1.384 . S
C380 H371 0.929 . S
C380 C372 1.378 . S
C380 C375 1.350 . S
C381 H368 0.929 . S
C381 C373 1.433 . S
C381 N383 1.384 . S
N382 C378 1.427 . S
N382 C379 1.384 . S
N383 C375 1.427 . S
N383 C381 1.384 . S
H384 C390 0.930 . S
H385 C394 0.930 . S
H386 C399 0.929 . S
H387 C397 0.929 . S
H388 C392 0.929 . S
H389 C398 0.929 . S
C390 H384 0.930 . S
C390 C391 1.367 . S
C390 C398 1.378 . S
C391 C390 1.367 . S
C391 C399 1.433 . S
C392 H388 0.929 . S
C392 C394 1.378 . S
C392 C396 1.350 . S
C393 C396 1.463 1_455 S
C393 C398 1.350 . S
C393 N401 1.427 . S
C394 H385 0.930 . S
C394 C392 1.378 . S
C394 C395 1.367 . S
C395 C394 1.367 . S
C395 C397 1.433 . S
C396 C392 1.350 . S
C396 C393 1.463 1_655 S
C396 N400 1.427 . S
C397 H387 0.929 . S
C397 C395 1.433 . S
C397 N400 1.384 . S
C398 H389 0.929 . S
C398 C390 1.378 . S
C398 C393 1.350 . S
C399 H386 0.929 . S
C399 C391 1.433 . S
C399 N401 1.384 . S
N400 C396 1.427 . S
N400 C397 1.384 . S
N401 C393 1.427 . S
N401 C399 1.384 . S
H402 C408 0.930 . S
H403 C412 0.930 . S
H404 C417 0.929 . S
H405 C415 0.929 . S
H406 C410 0.912 1_565 S
H407 C416 0.912 1_545 S
C408 H402 0.930 . S
C408 C409 1.367 . S
C408 C416 1.378 . S
C409 C408 1.367 . S
C409 C417 1.433 . S
C410 H406 0.912 1_545 S
C410 C412 1.378 . S
C410 C414 1.350 . S
C411 C414 1.463 1_565 S
C411 C416 1.350 . S
C411 N419 1.427 . S
C412 H403 0.930 . S
C412 C410 1.378 . S
C412 C413 1.367 . S
C413 C412 1.367 . S
C413 C415 1.433 . S
C414 C410 1.350 . S
C414 C411 1.463 1_545 S
C414 N418 1.427 . S
C415 H405 0.929 . S
C415 C413 1.433 . S
C415 N418 1.384 . S
C416 H407 0.912 1_565 S
C416 C408 1.378 . S
C416 C411 1.350 . S
C417 H404 0.929 . S
C417 C409 1.433 . S
C417 N419 1.384 . S
N418 C414 1.427 . S
N418 C415 1.384 . S
N419 C411 1.427 . S
N419 C417 1.384 . S
H420 C426 0.930 . S
H421 C430 0.930 . S
H422 C435 0.929 . S
H423 C433 0.929 . S
H424 C428 0.929 . S
H425 C434 0.929 . S
C426 H420 0.930 . S
C426 C427 1.367 . S
C426 C434 1.378 . S
C427 C426 1.367 . S
C427 C435 1.433 . S
C428 H424 0.929 . S
C428 C430 1.378 . S
C428 C432 1.350 . S
C429 C432 1.463 1_655 S
C429 C434 1.350 . S
C429 N437 1.427 . S
C430 H421 0.930 . S
C430 C428 1.378 . S
C430 C431 1.367 . S
C431 C430 1.367 . S
C431 C433 1.433 . S
C432 C428 1.350 . S
C432 C429 1.463 1_455 S
C432 N436 1.427 . S
C433 H423 0.929 . S
C433 C431 1.433 . S
C433 N436 1.384 . S
C434 H425 0.929 . S
C434 C426 1.378 . S
C434 C429 1.350 . S
C435 H422 0.929 . S
C435 C427 1.433 . S
C435 N437 1.384 . S
N436 C432 1.427 . S
N436 C433 1.384 . S
N437 C429 1.427 . S
N437 C435 1.384 . S
H438 C444 0.930 . S
H439 C448 0.930 . S
H440 C453 0.929 . S
H441 C451 0.929 . S
H442 C446 0.929 . S
H443 C452 0.929 . S
C444 H438 0.930 . S
C444 C445 1.367 . S
C444 C452 1.378 . S
C445 C444 1.367 . S
C445 C453 1.433 . S
C446 H442 0.929 . S
C446 C448 1.378 . S
C446 C450 1.350 . S
C447 C450 1.463 1_565 S
C447 C452 1.350 . S
C447 N455 1.427 . S
C448 H439 0.930 . S
C448 C446 1.378 . S
C448 C449 1.367 . S
C449 C448 1.367 . S
C449 C451 1.433 . S
C450 C446 1.350 . S
C450 C447 1.463 1_545 S
C450 N454 1.427 . S
C451 H441 0.929 . S
C451 C449 1.433 . S
C451 N454 1.384 . S
C452 H443 0.929 . S
C452 C444 1.378 . S
C452 C447 1.350 . S
C453 H440 0.929 . S
C453 C445 1.433 . S
C453 N455 1.384 . S
N454 C450 1.427 . S
N454 C451 1.384 . S
N455 C447 1.427 . S
N455 C453 1.384 . S
H456 C462 0.930 . S
H457 C466 0.930 . S
H458 C471 0.929 . S
H459 C469 0.929 . S
H460 C464 0.929 . S
H461 C470 0.929 . S
C462 H456 0.930 . S
C462 C463 1.367 . S
C462 C470 1.378 . S
C463 C462 1.367 . S
C463 C471 1.433 . S
C464 H460 0.929 . S
C464 C466 1.378 . S
C464 C468 1.350 . S
C465 C468 1.463 . S
C465 C470 1.350 . S
C465 N473 1.427 . S
C466 H457 0.930 . S
C466 C464 1.378 . S
C466 C467 1.367 . S
C467 C466 1.367 . S
C467 C469 1.433 . S
C468 C464 1.350 . S
C468 C465 1.463 . S
C468 N472 1.427 . S
C469 H459 0.929 . S
C469 C467 1.433 . S
C469 N472 1.384 . S
C470 H461 0.929 . S
C470 C462 1.378 . S
C470 C465 1.350 . S
C471 H458 0.929 . S
C471 C463 1.433 . S
C471 N473 1.384 . S
N472 C468 1.427 . S
N472 C469 1.384 . S
N473 C465 1.427 . S
N473 C471 1.384 . S
H474 C480 0.930 . S
H475 C484 0.930 . S
H476 C489 0.929 . S
H477 C487 0.929 . S
H478 C482 0.929 . S
H479 C488 0.929 . S
C480 H474 0.930 . S
C480 C481 1.367 . S
C480 C488 1.378 . S
C481 C480 1.367 . S
C481 C489 1.433 . S
C482 H478 0.929 . S
C482 C484 1.378 . S
C482 C486 1.350 . S
C483 C486 1.463 . S
C483 C488 1.350 . S
C483 N491 1.427 . S
C484 H475 0.930 . S
C484 C482 1.378 . S
C484 C485 1.367 . S
C485 C484 1.367 . S
C485 C487 1.433 . S
C486 C482 1.350 . S
C486 C483 1.463 . S
C486 N490 1.427 . S
C487 H477 0.929 . S
C487 C485 1.433 . S
C487 N490 1.384 . S
C488 H479 0.929 . S
C488 C480 1.378 . S
C488 C483 1.350 . S
C489 H476 0.929 . S
C489 C481 1.433 . S
C489 N491 1.384 . S
N490 C486 1.427 . S
N490 C487 1.384 . S
N491 C483 1.427 . S
N491 C489 1.384 . S
H492 C498 0.930 . S
H493 C502 0.930 . S
H494 C507 0.929 . S
H495 C505 0.929 . S
H496 C500 0.929 . S
H497 C506 0.929 . S
C498 H492 0.930 . S
C498 C499 1.367 . S
C498 C506 1.378 . S
C499 C498 1.367 . S
C499 C507 1.433 . S
C500 H496 0.929 . S
C500 C502 1.378 . S
C500 C504 1.350 . S
C501 C504 1.463 . S
C501 C506 1.350 . S
C501 N509 1.427 . S
C502 H493 0.930 . S
C502 C500 1.378 . S
C502 C503 1.367 . S
C503 C502 1.367 . S
C503 C505 1.433 . S
C504 C500 1.350 . S
C504 C501 1.463 . S
C504 N508 1.427 . S
C505 H495 0.929 . S
C505 C503 1.433 . S
C505 N508 1.384 . S
C506 H497 0.929 . S
C506 C498 1.378 . S
C506 C501 1.350 . S
C507 H494 0.929 . S
C507 C499 1.433 . S
C507 N509 1.384 . S
N508 C504 1.427 . S
N508 C505 1.384 . S
N509 C501 1.427 . S
N509 C507 1.384 . S
H510 C516 0.930 . S
H511 C520 0.930 . S
H512 C525 0.929 . S
H513 C523 0.929 . S
H514 C518 0.929 . S
H515 C524 0.929 . S
C516 H510 0.930 . S
C516 C517 1.367 . S
C516 C524 1.378 . S
C517 C516 1.367 . S
C517 C525 1.433 . S
C518 H514 0.929 . S
C518 C520 1.378 . S
C518 C522 1.350 . S
C519 C522 1.463 . S
C519 C524 1.350 . S
C519 N527 1.427 . S
C520 H511 0.930 . S
C520 C518 1.378 . S
C520 C521 1.367 . S
C521 C520 1.367 . S
C521 C523 1.433 . S
C522 C518 1.350 . S
C522 C519 1.463 . S
C522 N526 1.427 . S
C523 H513 0.929 . S
C523 C521 1.433 . S
C523 N526 1.384 . S
C524 H515 0.929 . S
C524 C516 1.378 . S
C524 C519 1.350 . S
C525 H512 0.929 . S
C525 C517 1.433 . S
C525 N527 1.384 . S
N526 C522 1.427 . S
N526 C523 1.384 . S
N527 C519 1.427 . S
N527 C525 1.384 . S
H528 C534 0.930 . S
H529 C538 0.930 . S
H530 C543 0.929 . S
H531 C541 0.929 . S
H532 C536 0.929 . S
H533 C542 0.929 . S
C534 H528 0.930 . S
C534 C535 1.367 . S
C534 C542 1.378 . S
C535 C534 1.367 . S
C535 C543 1.433 . S
C536 H532 0.929 . S
C536 C538 1.378 . S
C536 C540 1.350 . S
C537 C540 1.463 . S
C537 C542 1.350 . S
C537 N545 1.427 . S
C538 H529 0.930 . S
C538 C536 1.378 . S
C538 C539 1.367 . S
C539 C538 1.367 . S
C539 C541 1.433 . S
C540 C536 1.350 . S
C540 C537 1.463 . S
C540 N544 1.427 . S
C541 H531 0.929 . S
C541 C539 1.433 . S
C541 N544 1.384 . S
C542 H533 0.929 . S
C542 C534 1.378 . S
C542 C537 1.350 . S
C543 H530 0.929 . S
C543 C535 1.433 . S
C543 N545 1.384 . S
N544 C540 1.427 . S
N544 C541 1.384 . S
N545 C537 1.427 . S
N545 C543 1.384 . S
H546 C552 0.930 . S
H547 C556 0.930 . S
H548 C561 0.929 . S
H549 C559 0.929 . S
H550 C554 0.929 . S
H551 C560 0.929 . S
C552 H546 0.930 . S
C552 C553 1.367 . S
C552 C560 1.378 . S
C553 C552 1.367 . S
C553 C561 1.433 . S
C554 H550 0.929 . S
C554 C556 1.378 . S
C554 C558 1.350 . S
C555 C558 1.463 . S
C555 C560 1.350 . S
C555 N563 1.427 . S
C556 H547 0.930 . S
C556 C554 1.378 . S
C556 C557 1.367 . S
C557 C556 1.367 . S
C557 C559 1.433 . S
C558 C554 1.350 . S
C558 C555 1.463 . S
C558 N562 1.427 . S
C559 H549 0.929 . S
C559 C557 1.433 . S
C559 N562 1.384 . S
C560 H551 0.929 . S
C560 C552 1.378 . S
C560 C555 1.350 . S
C561 H548 0.929 . S
C561 C553 1.433 . S
C561 N563 1.384 . S
N562 C558 1.427 . S
N562 C559 1.384 . S
N563 C555 1.427 . S
N563 C561 1.384 . S
H564 C570 0.930 . S
H565 C574 0.930 . S
H566 C579 0.929 . S
H567 C577 0.929 . S
H568 C572 0.929 . S
H569 C578 0.929 . S
C570 H564 0.930 . S
C570 C571 1.367 . S
C570 C578 1.378 . S
C571 C570 1.367 . S
C571 C579 1.433 . S
C572 H568 0.929 . S
C572 C574 1.378 . S
C572 C576 1.350 . S
C573 C576 1.463 . S
C573 C578 1.350 . S
C573 N581 1.427 . S
C574 H565 0.930 . S
C574 C572 1.378 . S
C574 C575 1.367 . S
C575 C574 1.367 . S
C575 C577 1.433 . S
C576 C572 1.350 . S
C576 C573 1.463 . S
C576 N580 1.427 . S
C577 H567 0.929 . S
C577 C575 1.433 . S
C577 N580 1.384 . S
C578 H569 0.929 . S
C578 C570 1.378 . S
C578 C573 1.350 . S
C579 H566 0.929 . S
C579 C571 1.433 . S
C579 N581 1.384 . S
N580 C576 1.427 . S
N580 C577 1.384 . S
N581 C573 1.427 . S
N581 C579 1.384 . S
H582 C588 0.930 . S
H583 C592 0.930 . S
H584 C597 0.929 . S
H585 C595 0.929 . S
H586 C590 0.929 . S
H587 C596 0.929 . S
C588 H582 0.930 . S
C588 C589 1.367 . S
C588 C596 1.378 . S
C589 C588 1.367 . S
C589 C597 1.433 . S
C590 H586 0.929 . S
C590 C592 1.378 . S
C590 C594 1.350 . S
C591 C594 1.463 . S
C591 C596 1.350 . S
C591 N599 1.427 . S
C592 H583 0.930 . S
C592 C590 1.378 . S
C592 C593 1.367 . S
C593 C592 1.367 . S
C593 C595 1.433 . S
C594 C590 1.350 . S
C594 C591 1.463 . S
C594 N598 1.427 . S
C595 H585 0.929 . S
C595 C593 1.433 . S
C595 N598 1.384 . S
C596 H587 0.929 . S
C596 C588 1.378 . S
C596 C591 1.350 . S
C597 H584 0.929 . S
C597 C589 1.433 . S
C597 N599 1.384 . S
N598 C594 1.427 . S
N598 C595 1.384 . S
N599 C591 1.427 . S
N599 C597 1.384 . S
C175 C133 1.362 . S
C179 C4 1.350 . S
C193 C25 1.340 . S
C197 C151 1.340 . S
C211 C88 1.343 . S
C215 C49 1.357 . S
C229 C70 1.358 . S
C233 C112 1.344 . S
C247 C100 1.163 . S
C251 C45 1.164 . S
C265 C66 1.165 . S
C269 C108 1.164 . S
C283 C129 1.150 . S
C287 C16 1.151 . S
C301 C37 1.166 . S
C305 C163 1.166 . S
C319 C28 1.362 . S
C323 C109 1.361 . S
C337 C130 1.346 . S
C341 C46 1.338 . S
C355 C154 1.339 . S
C359 C67 1.352 . S
C373 C7 1.353 . S
C377 C91 1.363 . S
C391 C79 1.140 . S
C395 C150 1.140 . S
C409 C87 1.161 . S
C413 C3 1.160 . S
C427 C24 1.138 . S
C431 C121 1.137 . S
C445 C58 1.140 . S
C449 C142 1.140 . S
C463 C167 1.049 . S
C467 C20 1.051 . S
C481 C41 1.050 . S
C485 C104 1.050 . S
C499 C61 1.038 . S
C503 C124 1.028 . S
C517 C145 1.042 . S
C521 C82 1.049 . S
C535 C125 1.029 . S
C539 C62 1.021 . S
C553 C146 1.051 . S
C557 C83 1.046 . S
C571 C166 1.028 . S
C575 C19 1.038 . S
C589 C103 1.030 . S
C593 C40 1.040 . S
