# Generated by pormake.
# Topology bcg, (8)-cn, num edge types: 1
# Building blocks:
#     Node 0, Type 0, BuildingBlock: OLANEW_clean_sbu_1, # of connection points: 8
#     Node 1, Type 0, BuildingBlock: OLANEW_clean_sbu_1, # of connection points: 8
#     Node 2, Type 0, BuildingBlock: OLANEW_clean_sbu_1, # of connection points: 8
#     Node 3, Type 0, BuildingBlock: OLANEW_clean_sbu_1, # of connection points: 8
#     Edge 4, Type (0, 0), BuildingBlock: XUDNAN_clean_linker_2, # of connection points: 2
#     Edge 5, Type (0, 0), BuildingBlock: XUDNAN_clean_linker_2, # of connection points: 2
#     Edge 6, Type (0, 0), BuildingBlock: XUDNAN_clean_linker_2, # of connection points: 2
#     Edge 7, Type (0, 0), BuildingBlock: XUDNAN_clean_linker_2, # of connection points: 2
#     Edge 8, Type (0, 0), BuildingBlock: XUDNAN_clean_linker_2, # of connection points: 2
#     Edge 9, Type (0, 0), BuildingBlock: XUDNAN_clean_linker_2, # of connection points: 2
#     Edge 10, Type (0, 0), BuildingBlock: XUDNAN_clean_linker_2, # of connection points: 2
#     Edge 11, Type (0, 0), BuildingBlock: XUDNAN_clean_linker_2, # of connection points: 2
#     Edge 12, Type (0, 0), BuildingBlock: XUDNAN_clean_linker_2, # of connection points: 2
#     Edge 13, Type (0, 0), BuildingBlock: XUDNAN_clean_linker_2, # of connection points: 2
#     Edge 14, Type (0, 0), BuildingBlock: XUDNAN_clean_linker_2, # of connection points: 2
#     Edge 15, Type (0, 0), BuildingBlock: XUDNAN_clean_linker_2, # of connection points: 2
#     Edge 16, Type (0, 0), BuildingBlock: XUDNAN_clean_linker_2, # of connection points: 2
#     Edge 17, Type (0, 0), BuildingBlock: XUDNAN_clean_linker_2, # of connection points: 2
#     Edge 18, Type (0, 0), BuildingBlock: XUDNAN_clean_linker_2, # of connection points: 2
#     Edge 19, Type (0, 0), BuildingBlock: XUDNAN_clean_linker_2, # of connection points: 2
# Relax obj value: 0.091
# Max RMSD: 0.203
# Mean RMSD: 0.203
data_MOF--net-bcg--node1-OLANEW_clean_sbu_1--edge1-XUDNAN_clean_linker_2
_symmetry_space_group_name_H-M    P1
_symmetry_Int_Tables_number       1
_symmetry_cell_setting            triclinic
loop_
_symmetry_equiv_pos_as_xyz
'x, y, z'
_cell_length_a     27.159306
_cell_length_b     27.985275
_cell_length_c     28.231217
_cell_angle_alpha  94.381617
_cell_angle_beta   90.321833
_cell_angle_gamma 90.132098
loop_
_atom_site_label
_atom_site_type_symbol
_atom_site_fract_x
_atom_site_fract_y
_atom_site_fract_z
_atom_type_partial_charge
Cd0 Cd 0.03928 0.16525 0.04579 0.0
Cd1 Cd 0.23692 0.18098 0.98572 0.0
C2 C 0.18205 0.27662 0.95035 0.0
Cd3 Cd 0.49544 0.33206 0.91197 0.0
Cd4 Cd 0.308 0.28251 0.97194 0.0
C5 C 0.4826 0.29497 0.80145 0.0
O6 O 0.4645 0.33855 0.80271 0.0
O7 O 0.12138 0.14975 0.0098 0.0
O8 O 0.18281 0.11017 0.97513 0.0
O9 O 0.57004 0.32076 0.95911 0.0
O10 O 0.22425 0.29211 0.9394 0.0
O11 O 0.17803 0.2446 0.9796 0.0
C12 C 0.39442 0.3654 0.97546 0.0
O13 O 0.49736 0.27889 0.83988 0.0
C14 C 0.94464 0.22786 0.0328 0.0
O15 O 0.96946 0.24604 0.06996 0.0
O16 O 0.41384 0.33241 0.94826 0.0
O17 O 0.35088 0.35929 0.99027 0.0
C18 C 0.31545 0.21176 0.07197 0.0
O19 O 0.96343 0.19294 0.0076 0.0
O20 O 0.28213 0.1811 0.0603 0.0
O21 O 0.32525 0.24497 0.04522 0.0
C22 C 0.13835 0.11099 0.98941 0.0
O23 O 0.04067 0.20638 0.12499 0.0
C24 C 0.6027 0.29322 0.93989 0.0
O25 O 0.59342 0.27109 0.89805 0.0
C26 C 0.02391 0.18492 0.15954 0.0
O27 O 0.01348 0.13901 0.15294 0.0
Cd28 Cd 0.51295 0.69924 0.08463 0.0
Cd29 Cd 0.70199 0.71577 0.00965 0.0
C30 C 0.67908 0.78803 0.91672 0.0
Cd31 Cd 0.96368 0.76375 0.95418 0.0
Cd32 Cd 0.77585 0.81798 0.99078 0.0
C33 C 0.97662 0.75239 0.83578 0.0
O34 O 0.953 0.79337 0.83757 0.0
O35 O 0.59483 0.68807 0.04983 0.0
O36 O 0.65248 0.64287 0.01596 0.0
O37 O 0.04206 0.79889 0.98244 0.0
O38 O 0.71801 0.81313 0.92304 0.0
O39 O 0.6684 0.75614 0.9446 0.0
C40 C 0.88542 0.85779 0.97215 0.0
O41 O 0.98244 0.73117 0.87361 0.0
C42 C 0.42596 0.76603 0.05038 0.0
O43 O 0.44914 0.79273 0.08377 0.0
O44 O 0.88927 0.81245 0.96628 0.0
O45 O 0.84326 0.87567 0.98155 0.0
C46 C 0.79424 0.74715 0.07596 0.0
O47 O 0.4433 0.72492 0.03756 0.0
O48 O 0.74781 0.74517 0.0806 0.0
O49 O 0.81265 0.75521 0.03603 0.0
C50 C 0.60991 0.64683 0.03428 0.0
O51 O 0.51113 0.74557 0.16107 0.0
C52 C 0.07727 0.77291 0.96593 0.0
O53 O 0.0666 0.73382 0.93903 0.0
C54 C 0.54113 0.74305 0.19548 0.0
O55 O 0.57892 0.71389 0.19068 0.0
Cd56 Cd 0.03395 0.77498 0.37862 0.0
Cd57 Cd 0.20981 0.79705 0.46077 0.0
C58 C 0.19584 0.73341 0.5614 0.0
Cd59 Cd 0.4674 0.68873 0.52031 0.0
Cd60 Cd 0.27052 0.69956 0.47173 0.0
C61 C 0.48304 0.72033 0.63084 0.0
O62 O 0.47376 0.67416 0.62995 0.0
O63 O 0.10314 0.8116 0.42443 0.0
O64 O 0.15259 0.86496 0.45932 0.0
O65 O 0.54368 0.68666 0.47465 0.0
O66 O 0.22636 0.70156 0.5463 0.0
O67 O 0.18679 0.76901 0.5374 0.0
C68 C 0.3657 0.62905 0.47688 0.0
O69 O 0.4801 0.74083 0.59236 0.0
C70 C 0.92003 0.77917 0.41597 0.0
O71 O 0.9233 0.81926 0.39485 0.0
O72 O 0.384 0.67011 0.48934 0.0
O73 O 0.32008 0.62609 0.46634 0.0
C74 C 0.33507 0.80041 0.45205 0.0
O75 O 0.95811 0.75323 0.41913 0.0
O76 O 0.29479 0.82183 0.44457 0.0
O77 O 0.33486 0.75866 0.46669 0.0
C78 C 0.11025 0.85416 0.44233 0.0
O79 O 0.0717 0.7031 0.33888 0.0
C80 C 0.57178 0.72258 0.48402 0.0
O81 O 0.55567 0.75859 0.51228 0.0
C82 C 0.05855 0.6817 0.29949 0.0
O83 O 0.08544 0.64613 0.28097 0.0
Cd84 Cd 0.5519 0.26807 0.46416 0.0
Cd85 Cd 0.73086 0.34552 0.49376 0.0
C86 C 0.69094 0.23206 0.54206 0.0
Cd87 Cd 0.9974 0.15511 0.55907 0.0
Cd88 Cd 0.80917 0.2138 0.51523 0.0
C89 C 0.99695 0.22593 0.65788 0.0
O90 O 0.98309 0.25662 0.62749 0.0
O91 O 0.61593 0.33165 0.47326 0.0
O92 O 0.66012 0.39716 0.48093 0.0
O93 O 0.06199 0.19766 0.51971 0.0
O94 O 0.72503 0.20092 0.54086 0.0
O95 O 0.69897 0.2731 0.52708 0.0
C96 C 0.89295 0.13201 0.50066 0.0
O97 O 1.00367 0.18238 0.64311 0.0
C98 C 0.43543 0.29489 0.46055 0.0
O99 O 0.45106 0.30741 0.41932 0.0
O100 O 0.91535 0.16527 0.52546 0.0
O101 O 0.84845 0.13838 0.48865 0.0
C102 C 0.81482 0.2993 0.4226 0.0
O103 O 0.46638 0.27982 0.48989 0.0
O104 O 0.78587 0.33496 0.42527 0.0
O105 O 0.81297 0.2698 0.45444 0.0
C106 C 0.61814 0.37728 0.47523 0.0
O107 O 0.53831 0.23151 0.38423 0.0
C108 C 0.10301 0.19563 0.54129 0.0
O109 O 0.10544 0.17158 0.57943 0.0
C110 C 0.5322 0.25716 0.34949 0.0
O111 O 0.54078 0.30346 0.35574 0.0
H112 H 0.67807 0.23313 0.91016 0.0
H113 H 0.63858 0.34322 0.02008 0.0
H114 H 0.72203 0.33882 0.05466 0.0
H115 H 0.75347 0.16277 0.98542 0.0
H116 H 0.79769 0.14729 0.93944 0.0
H117 H 0.73456 0.15849 0.92392 0.0
H118 H 0.76334 0.22321 0.8692 0.0
H119 H 0.82653 0.21253 0.88484 0.0
H120 H 0.8014 0.2721 0.89342 0.0
H121 H 0.81008 0.32461 0.07559 0.0
H122 H 0.89568 0.29838 0.08495 0.0
H123 H 0.8785 0.1963 0.96206 0.0
C124 C 0.68683 0.25616 0.94167 0.0
C125 C 0.65173 0.28861 0.96239 0.0
C126 C 0.66473 0.31802 0.00364 0.0
C127 C 0.7121 0.31588 0.02345 0.0
C128 C 0.74595 0.28399 0.00175 0.0
C129 C 0.73385 0.25433 0.96204 0.0
C130 C 0.77712 0.22314 0.94576 0.0
C131 C 0.76497 0.16976 0.94883 0.0
C132 C 0.79303 0.23338 0.89531 0.0
C133 C 0.81564 0.24019 0.98232 0.0
C134 C 0.79679 0.27539 0.01416 0.0
C135 C 0.82518 0.29698 0.05099 0.0
C136 C 0.87393 0.28185 0.05586 0.0
C137 C 0.89403 0.24525 0.0242 0.0
C138 C 0.86438 0.22443 0.98674 0.0
H139 H 0.15771 0.71743 0.94479 0.0
H140 H 0.11443 0.85488 0.01344 0.0
H141 H 0.20156 0.87197 0.03509 0.0
H142 H 0.24287 0.68925 0.03076 0.0
H143 H 0.28564 0.65991 0.98956 0.0
H144 H 0.2212 0.66137 0.97481 0.0
H145 H 0.24155 0.70047 0.897 0.0
H146 H 0.30623 0.69927 0.91144 0.0
H147 H 0.27723 0.75502 0.89958 0.0
H148 H 0.29253 0.87102 0.0541 0.0
H149 H 0.37862 0.85098 0.07246 0.0
H150 H 0.36134 0.71338 0.99202 0.0
C151 C 0.16651 0.7515 0.96375 0.0
C152 C 0.12929 0.78489 0.97738 0.0
C153 C 0.14237 0.82877 0.00268 0.0
C154 C 0.19176 0.83886 0.01487 0.0
C155 C 0.22747 0.80478 0.00134 0.0
C156 C 0.21536 0.76198 0.97632 0.0
C157 C 0.25975 0.72967 0.96919 0.0
C158 C 0.25189 0.68227 0.99249 0.0
C159 C 0.2719 0.7206 0.91615 0.0
C160 C 0.29872 0.76047 -0.00491 0.0
C161 C 0.27956 0.80393 0.0128 0.0
C162 C 0.308 0.83732 0.04 0.0
C163 C 0.35691 0.82556 0.05024 0.0
C164 C 0.37684 0.78063 0.03363 0.0
C165 C 0.34746 0.74821 0.00484 0.0
H166 H 0.63564 0.79833 0.48363 0.0
H167 H 0.6257 0.64448 0.45103 0.0
H168 H 0.7148 0.6419 0.43363 0.0
H169 H 0.72252 0.82103 0.39148 0.0
H170 H 0.75471 0.86717 0.42751 0.0
H171 H 0.69034 0.85643 0.43747 0.0
H172 H 0.70947 0.84421 0.52577 0.0
H173 H 0.77402 0.85423 0.51587 0.0
H174 H 0.75397 0.79978 0.54015 0.0
H175 H 0.8059 0.65559 0.42436 0.0
H176 H 0.89018 0.68595 0.41258 0.0
H177 H 0.83967 0.83137 0.44666 0.0
C178 C 0.65212 0.76413 0.47249 0.0
C179 C 0.62378 0.72158 0.46874 0.0
C180 C 0.64665 0.67757 0.45386 0.0
C181 C 0.69729 0.6757 0.44427 0.0
C182 C 0.72436 0.7182 0.44928 0.0
C183 C 0.70244 0.76171 0.46224 0.0
C184 C 0.73954 0.80233 0.46382 0.0
C185 C 0.72596 0.83888 0.42791 0.0
C186 C 0.74453 0.82655 0.51441 0.0
C187 C 0.78574 0.77493 0.44929 0.0
C188 C 0.77639 0.72633 0.44201 0.0
C189 C 0.81359 0.69359 0.42962 0.0
C190 C 0.86136 0.7111 0.42337 0.0
C191 C 0.87123 0.76093 0.42866 0.0
C192 C 0.83298 0.79311 0.4422 0.0
H193 H 0.19671 0.19016 0.5758 0.0
H194 H 0.11 0.25471 0.46803 0.0
H195 H 0.18523 0.29335 0.43964 0.0
H196 H 0.28154 0.2894 0.60207 0.0
H197 H 0.33347 0.25055 0.60921 0.0
H198 H 0.27235 0.23068 0.62278 0.0
H199 H 0.2831 0.15546 0.56417 0.0
H200 H 0.34428 0.17495 0.55073 0.0
H201 H 0.30001 0.16289 0.5035 0.0
H202 H 0.27119 0.32114 0.42049 0.0
H203 H 0.36059 0.33323 0.41032 0.0
H204 H 0.38973 0.2507 0.53145 0.0
C205 C 0.1933 0.2128 0.54653 0.0
C206 C 0.14743 0.21958 0.52425 0.0
C207 C 0.14477 0.24906 0.48568 0.0
C208 C 0.18725 0.27129 0.46945 0.0
C209 C 0.23195 0.2637 0.49224 0.0
C210 C 0.23517 0.23506 0.52989 0.0
C211 C 0.28779 0.23037 0.54669 0.0
C212 C 0.29414 0.25153 0.59825 0.0
C213 C 0.30478 0.17781 0.54091 0.0
C214 C 0.3139 0.26051 0.51236 0.0
C215 C 0.28113 0.27967 0.48134 0.0
C216 C 0.29711 0.30665 0.44485 0.0
C217 C 0.34794 0.31331 0.43936 0.0
C218 C 0.38209 0.29302 0.47018 0.0
C219 C 0.36458 0.26719 0.50769 0.0
H220 H 0.59819 0.57227 0.96632 0.0
H221 H 0.54947 0.62533 0.10653 0.0
H222 H 0.48925 0.55899 0.1066 0.0
H223 H 0.48123 0.53712 0.92009 0.0
H224 H 0.50235 0.48361 0.88681 0.0
H225 H 0.54361 0.53361 0.89861 0.0
H226 H 0.60605 0.47852 0.9377 0.0
H227 H 0.56504 0.42828 0.9257 0.0
H228 H 0.5862 0.44396 0.98548 0.0
H229 H 0.43149 0.48972 0.08974 0.0
H230 H 0.38303 0.41916 0.05907 0.0
H231 H 0.46844 0.41113 0.92936 0.0
C232 C 0.57527 0.56942 -0.00274 0.0
C233 C 0.57761 0.60442 0.03607 0.0
C234 C 0.54705 0.59972 0.07587 0.0
C235 C 0.51313 0.56192 0.0764 0.0
C236 C 0.51056 0.52883 0.03698 0.0
C237 C 0.54112 0.53183 -0.00169 0.0
C238 C 0.52992 0.49215 0.96005 0.0
C239 C 0.51328 0.51288 0.91366 0.0
C240 C 0.57446 0.45876 0.95176 0.0
C241 C 0.4879 0.46684 0.98303 0.0
C242 C 0.47749 0.4885 0.02745 0.0
C243 C 0.43958 0.47223 0.05515 0.0
C244 C 0.41202 0.43233 0.03728 0.0
C245 C 0.42253 0.40899 0.99217 0.0
C246 C 0.46065 0.42699 0.96459 0.0
H247 H 0.61299 0.4741 0.46555 0.0
H248 H 0.52281 0.34924 0.48297 0.0
H249 H 0.44787 0.39944 0.48384 0.0
H250 H 0.54406 0.55238 0.54442 0.0
H251 H 0.55067 0.6043 0.51121 0.0
H252 H 0.59764 0.55896 0.50802 0.0
H253 H 0.58972 0.54743 0.41686 0.0
H254 H 0.54382 0.59382 0.41823 0.0
H255 H 0.53016 0.53531 0.38999 0.0
H256 H 0.38331 0.46365 0.48364 0.0
H257 H 0.33347 0.53743 0.48424 0.0
H258 H 0.46617 0.62054 0.46653 0.0
C259 C 0.57743 0.45714 0.46893 0.0
C260 C 0.57337 0.40724 0.47322 0.0
C261 C 0.5263 0.38686 0.47835 0.0
C262 C 0.48375 0.41523 0.47919 0.0
C263 C 0.48902 0.46421 0.47488 0.0
C264 C 0.53467 0.48505 0.46984 0.0
C265 C 0.53042 0.53883 0.46787 0.0
C266 C 0.5573 0.56516 0.51037 0.0
C267 C 0.54966 0.55477 0.42041 0.0
C268 C 0.47513 0.54488 0.47183 0.0
C269 C 0.45197 0.50142 0.47607 0.0
C270 C 0.40104 0.49791 0.4804 0.0
C271 C 0.37304 0.54 0.48057 0.0
C272 C 0.39599 0.58502 0.47651 0.0
C273 C 0.44768 0.58715 0.47158 0.0
H274 H 0.05491 0.08664 0.03788 0.0
H275 H 0.15278 0.03458 0.92478 0.0
H276 H 0.10055 0.9625 0.91005 0.0
H277 H 0.02151 0.9745 0.08011 0.0
H278 H 0.95802 0.99059 0.09031 0.0
H279 H 1.00499 0.03629 0.09422 0.0
H280 H 0.95861 0.08254 0.03177 0.0
H281 H 0.91126 0.03723 0.02778 0.0
H282 H 0.94294 0.05233 0.97498 0.0
H283 H 0.0379 0.89546 0.90877 0.0
H284 H 0.96606 0.84225 0.91604 0.0
H285 H 0.90362 0.94376 0.02253 0.0
C286 C 0.06461 0.06127 0.00893 0.0
C287 C 0.10732 0.06728 0.98169 0.0
C288 C 0.12021 0.03096 0.94618 0.0
C289 C 0.0907 0.98992 0.93745 0.0
C290 C 0.04815 0.98589 0.96425 0.0
C291 C 0.03487 0.02085 -0.00106 0.0
C292 C 0.98629 0.00896 0.02149 0.0
C293 C 0.99314 1.00218 0.07468 0.0
C294 C 0.94748 0.04755 0.0135 0.0
C295 C 0.97403 0.96194 -0.00629 0.0
C296 C 0.01071 0.94877 0.96158 0.0
C297 C 0.00868 0.90573 0.93337 0.0
C298 C 0.96782 0.87566 0.93774 0.0
C299 C 0.92908 0.88913 0.96923 0.0
C300 C 0.93238 0.93288 -0.00242 0.0
H301 H 0.99057 0.11497 0.48089 0.0
H302 H 0.84925 0.04415 0.49123 0.0
H303 H 0.88916 0.9656 0.47339 0.0
H304 H 0.03902 0.03507 0.38542 0.0
H305 H 0.10086 0.03663 0.40903 0.0
H306 H 0.06085 0.08743 0.42054 0.0
H307 H 0.07414 0.08359 0.51103 0.0
H308 H 0.11437 0.03298 0.49995 0.0
H309 H 0.06168 0.02847 0.53792 0.0
H310 H 0.94466 0.89502 0.45869 0.0
H311 H 0.01211 0.83632 0.44674 0.0
H312 H 0.11801 0.95252 0.44746 0.0
C313 C 0.96821 0.08287 0.48016 0.0
C314 C 0.917 0.08546 0.48838 0.0
C315 C 0.88857 0.04286 0.4851 0.0
C316 C 0.91092 0.99814 0.47509 0.0
C317 C 0.96164 0.99673 0.468 0.0
C318 C 0.98996 0.03793 0.47023 0.0
C319 C 0.04387 0.02637 0.46188 0.0
C320 C 0.06222 0.04764 0.41652 0.0
C321 C 0.07536 0.04387 0.50529 0.0
C322 C 0.04157 0.97209 0.45562 0.0
C323 C 0.99368 0.95586 0.4588 0.0
C324 C 0.9822 0.9072 0.45516 0.0
C325 C 0.02066 0.87415 0.448 0.0
C326 C 0.07003 0.88981 0.44506 0.0
C327 C 0.08051 0.93951 0.44898 0.0
H328 H 0.51392 0.30081 0.26756 0.0
H329 H 0.48815 0.16899 0.33541 0.0
H330 H 0.43168 0.14131 0.27026 0.0
H331 H 0.39445 0.31879 0.23051 0.0
H332 H 0.40991 0.34075 0.17406 0.0
H333 H 0.45275 0.34811 0.2229 0.0
H334 H 0.52032 0.30423 0.17185 0.0
H335 H 0.47785 0.2975 0.12251 0.0
H336 H 0.5077 0.24557 0.14341 0.0
H337 H 0.37061 0.13212 0.2023 0.0
H338 H 0.31628 0.13897 0.13243 0.0
H339 H 0.38357 0.27613 0.10929 0.0
C340 C 0.49733 0.26564 0.26819 0.0
C341 C 0.50549 0.23714 0.30662 0.0
C342 C 0.48275 0.19142 0.30622 0.0
C343 C 0.45043 0.1754 0.26944 0.0
C344 C 0.44178 0.20518 0.23299 0.0
C345 C 0.46533 0.24893 0.23159 0.0
C346 C 0.4484 0.27488 0.18936 0.0
C347 C 0.42498 0.32349 0.20518 0.0
C348 C 0.49111 0.28088 0.15473 0.0
C349 C 0.41042 0.2397 0.16827 0.0
C350 C 0.40721 0.19959 0.19368 0.0
C351 C 0.37325 0.16309 0.18172 0.0
C352 C 0.34232 0.16743 0.14222 0.0
C353 C 0.34566 0.20799 0.1153 0.0
C354 C 0.38013 0.24451 0.12888 0.0
H355 H 0.46613 0.80567 0.21547 0.0
H356 H 0.58688 0.73376 0.28143 0.0
H357 H 0.55607 0.76272 0.36055 0.0
H358 H 0.45217 0.90937 0.31094 0.0
H359 H 0.38614 0.90689 0.30426 0.0
H360 H 0.42507 0.89238 0.25366 0.0
H361 H 0.38157 0.80997 0.23899 0.0
H362 H 0.34258 0.82436 0.28895 0.0
H363 H 0.37906 0.77049 0.28651 0.0
H364 H 0.50194 0.781 0.42977 0.0
H365 H 0.42907 0.78388 0.48157 0.0
H366 H 0.3443 0.84709 0.37214 0.0
C367 C 0.4872 0.79751 0.2465 0.0
C368 C 0.52894 0.76754 0.24227 0.0
C369 C 0.55499 0.75697 0.28375 0.0
C370 C 0.53786 0.77351 0.32889 0.0
C371 C 0.49514 0.80123 0.33188 0.0
C372 C 0.47048 0.81361 0.29162 0.0
C373 C 0.42134 0.83666 0.30385 0.0
C374 C 0.4212 0.88948 0.29252 0.0
C375 C 0.37869 0.80867 0.2781 0.0
C376 C 0.42041 0.83216 0.35694 0.0
C377 C 0.46391 0.81284 0.37268 0.0
C378 C 0.46847 0.7977 0.41843 0.0
C379 C 0.42689 0.79964 0.44773 0.0
C380 C 0.38133 0.81655 0.4311 0.0
C381 C 0.37911 0.83578 0.38639 0.0
H382 H 0.49007 0.68807 0.71945 0.0
H383 H 0.52701 0.80906 0.63889 0.0
H384 H 0.57529 0.84478 0.70715 0.0
H385 H 0.48327 0.75642 0.83824 0.0
H386 H 0.51008 0.70749 0.86732 0.0
H387 H 0.47265 0.69549 0.81482 0.0
H388 H 0.54427 0.64685 0.77463 0.0
H389 H 0.58195 0.65908 0.82668 0.0
H390 H 0.60364 0.67495 0.76971 0.0
H391 H 0.62988 0.86077 0.77991 0.0
H392 H 0.68094 0.8579 0.8527 0.0
H393 H 0.60542 0.72752 0.88505 0.0
C394 C 0.50718 0.72271 0.71655 0.0
C395 C 0.50473 0.74576 0.67389 0.0
C396 C 0.52809 0.79085 0.67138 0.0
C397 C 0.55567 0.81142 0.70996 0.0
C398 C 0.55884 0.78682 0.75096 0.0
C399 C 0.53448 0.74381 0.75472 0.0
C400 C 0.54648 0.72267 0.80109 0.0
C401 C 0.50037 0.72041 0.8322 0.0
C402 C 0.57052 0.67298 0.79248 0.0
C403 C 0.58278 0.75955 0.82205 0.0
C404 C 0.58935 0.7965 0.79295 0.0
C405 C 0.62427 0.83253 0.80346 0.0
C406 C 0.65325 0.83051 0.84471 0.0
C407 C 0.64699 0.79274 0.87479 0.0
C408 C 0.61073 0.75736 0.86334 0.0
H409 H 0.48983 0.33199 0.71544 0.0
H410 H 0.50619 0.20013 0.78502 0.0
H411 H 0.54437 0.16185 0.71273 0.0
H412 H 0.4774 0.27474 0.58693 0.0
H413 H 0.51358 0.32305 0.56611 0.0
H414 H 0.47318 0.33413 0.61612 0.0
H415 H 0.54714 0.36935 0.66579 0.0
H416 H 0.58723 0.35751 0.61616 0.0
H417 H 0.60131 0.33313 0.67197 0.0
H418 H 0.59773 0.14465 0.643 0.0
H419 H 0.66368 0.15101 0.58432 0.0
H420 H 0.61506 0.29473 0.56016 0.0
C421 C 0.49931 0.29439 0.71462 0.0
C422 C 0.4948 0.2689 0.75559 0.0
C423 C 0.50909 0.22021 0.75383 0.0
C424 C 0.53053 0.19809 0.71278 0.0
C425 C 0.53719 0.22508 0.67375 0.0
C426 C 0.52155 0.27216 0.67421 0.0
C427 C 0.54101 0.29619 0.63184 0.0
C428 C 0.49875 0.30766 0.59822 0.0
C429 C 0.57097 0.34166 0.64742 0.0
C430 C 0.57342 0.25669 0.6097 0.0
C431 C 0.56926 0.21535 0.63331 0.0
C432 C 0.60036 0.17632 0.62341 0.0
C433 C 0.63794 0.18035 0.59009 0.0
C434 C 0.64465 0.22344 0.56765 0.0
C435 C 0.61046 0.26107 0.57611 0.0
H436 H 0.04457 0.68058 0.20365 0.0
H437 H 0.97241 0.7141 0.33827 0.0
H438 H 0.89664 0.73641 0.29623 0.0
H439 H 0.98985 0.77625 0.14137 0.0
H440 H 0.9843 0.74002 0.086 0.0
H441 H 0.03286 0.72837 0.12722 0.0
H442 H 1.00348 0.64019 0.12772 0.0
H443 H 0.95467 0.65164 0.08672 0.0
H444 H 0.9405 0.62783 0.14262 0.0
H445 H 0.82747 0.74992 0.23873 0.0
H446 H 0.7717 0.75942 0.1705 0.0
H447 H 0.89062 0.71938 0.07347 0.0
C448 C 0.01288 0.69298 0.22417 0.0
C449 C 0.01427 0.69667 0.27425 0.0
C450 C 0.97222 0.7127 0.3 0.0
C451 C 0.929 0.72483 0.27635 0.0
C452 C 0.92876 0.72082 0.22684 0.0
C453 C 0.96975 0.70568 0.20104 0.0
C454 C 0.95988 0.70423 0.14815 0.0
C455 C 0.99373 0.73932 0.1243 0.0
C456 C 0.96493 0.65292 0.12496 0.0
C457 C 0.90688 0.72069 0.1482 0.0
C458 C 0.88941 0.72965 0.19389 0.0
C459 C 0.84085 0.74343 0.20279 0.0
C460 C 0.80944 0.74852 0.16387 0.0
C461 C 0.82698 0.74039 0.1168 0.0
C462 C 0.87635 0.72635 0.10907 0.0
H463 H 0.86703 0.21824 0.39549 0.0
H464 H 0.84468 0.36559 0.36228 0.0
H465 H 0.90581 0.35476 0.29794 0.0
H466 H 0.99961 0.21121 0.36773 0.0
H467 H 0.99481 0.15056 0.34162 0.0
H468 H 0.95385 0.17128 0.38878 0.0
H469 H 0.87847 0.14703 0.3356 0.0
H470 H 0.91908 0.12579 0.28856 0.0
H471 H 0.87293 0.16995 0.27782 0.0
H472 H 0.96561 0.32706 0.23497 0.0
H473 H 0.01165 0.28203 0.17137 0.0
H474 H 0.99241 0.15148 0.24308 0.0
C475 C 0.87549 0.24844 0.3751 0.0
C476 C 0.85136 0.29289 0.38405 0.0
C477 C 0.86276 0.33125 0.35605 0.0
C478 C 0.89774 0.32556 0.31973 0.0
C479 C 0.92086 0.28128 0.31182 0.0
C480 C 0.90988 0.24322 0.33839 0.0
C481 C 0.93637 0.1981 0.31972 0.0
C482 C 0.97335 0.18185 0.35666 0.0
C483 C 0.8995 0.15788 0.3045 0.0
C484 C 0.96252 0.21635 0.27738 0.0
C485 C 0.95418 0.26474 0.27431 0.0
C486 C 0.97273 0.28925 0.23716 0.0
C487 C 0.99901 0.26333 0.20124 0.0
C488 C 0.0056 0.21318 0.20222 0.0
C489 C 0.98822 0.1898 0.24152 0.0
H490 H 0.13937 0.20335 0.89972 0.0
H491 H 0.13812 0.3582 0.92076 0.0
H492 H 0.07897 0.36138 0.8534 0.0
H493 H 0.14819 0.20312 0.77757 0.0
H494 H 0.11375 0.14846 0.76505 0.0
H495 H 0.14692 0.15836 0.8202 0.0
H496 H 0.06681 0.14533 0.86699 0.0
H497 H 0.03323 0.13519 0.8119 0.0
H498 H 0.01312 0.18076 0.85613 0.0
H499 H 0.02686 0.34682 0.77838 0.0
H500 H 0.99273 0.31766 0.70005 0.0
H501 H 0.03462 0.1725 0.7266 0.0
C502 C 0.125 0.23784 0.89134 0.0
C503 C 0.14157 0.28051 0.91617 0.0
C504 C 0.12458 0.32519 0.90268 0.0
C505 C 0.09112 0.32719 0.8646 0.0
C506 C 0.07628 0.28422 0.84003 0.0
C507 C 0.09323 0.24042 0.85276 0.0
C508 C 0.07872 0.20004 0.81674 0.0
C509 C 0.12461 0.17612 0.79354 0.0
C510 C 0.04599 0.16317 0.8393 0.0
C511 C 0.0503 0.22766 0.78174 0.0
C512 C 0.04883 0.27608 0.79584 0.0
C513 C 0.02743 0.30895 0.76729 0.0
C514 C 0.00818 0.29203 0.72282 0.0
C515 C 0.01094 0.24277 0.70715 0.0
C516 C 0.03137 0.21027 0.73765 0.0
H517 H 0.1227 0.79146 0.59922 0.0
H518 H 0.20229 0.66035 0.62089 0.0
H519 H 0.14927 0.64715 0.68956 0.0
H520 H 0.1075 0.83008 0.72114 0.0
H521 H 0.04671 0.85391 0.71287 0.0
H522 H 0.09017 0.85176 0.6649 0.0
H523 H 0.02724 0.8034 0.61089 0.0
H524 H 0.98384 0.80477 0.65901 0.0
H525 H 1.00234 0.74822 0.62973 0.0
H526 H 0.08874 0.64925 0.75667 0.0
H527 H 0.02992 0.66971 0.82122 0.0
H528 H 0.98954 0.79905 0.75473 0.0
C529 C 0.12924 0.76 0.61842 0.0
C530 C 0.1668 0.72698 0.60468 0.0
C531 C 0.17388 0.68625 0.63081 0.0
C532 C 0.14374 0.67827 0.66965 0.0
C533 C 0.1066 0.71121 0.6817 0.0
C534 C 0.09947 0.75141 0.65704 0.0
C535 C 0.05801 0.78209 0.67803 0.0
C536 C 0.07674 0.83242 0.69527 0.0
C537 C 0.01534 0.78476 0.64228 0.0
C538 C 0.04362 0.75344 0.71915 0.0
C539 C 0.07164 0.71236 0.72026 0.0
C540 C 0.06641 0.68117 0.75604 0.0
C541 C 0.03279 0.69309 0.7925 0.0
C542 C 1.00505 0.73599 0.79306 0.0
C543 C 0.00976 0.76578 0.75513 0.0
loop_
_geom_bond_atom_site_label_1
_geom_bond_atom_site_label_2
_geom_bond_distance
_geom_bond_site_symmetry_2
_ccdc_geom_bond_type
Cd0 O7 2.298 . S
Cd0 O19 2.255 1_455 S
Cd0 O23 2.218 . S
Cd1 O8 2.269 1_554 S
Cd1 O11 2.237 1_554 S
Cd1 O20 2.201 . S
C2 O10 1.266 . S
C2 O11 1.194 . S
Cd3 O9 2.255 . S
Cd3 O13 2.218 . S
Cd3 O16 2.298 . S
Cd4 O10 2.201 . S
Cd4 O17 2.269 1_556 S
Cd4 O21 2.237 1_556 S
C5 O6 1.201 . S
C5 O13 1.235 . S
O6 C5 1.201 . S
O7 Cd0 2.298 . S
O7 C22 1.265 . S
O8 Cd1 2.269 1_556 S
O8 C22 1.233 1_556 S
O9 Cd3 2.255 . S
O9 C24 1.210 . S
O10 C2 1.266 . S
O10 Cd4 2.201 . S
O11 Cd1 2.237 1_556 S
O11 C2 1.194 . S
C12 O16 1.265 . S
C12 O17 1.233 1_556 S
O13 Cd3 2.218 . S
O13 C5 1.235 . S
C14 O15 1.269 . S
C14 O19 1.210 . S
O15 C14 1.269 . S
O16 Cd3 2.298 . S
O16 C12 1.265 . S
O17 Cd4 2.269 1_554 S
O17 C12 1.233 1_554 S
C18 O20 1.266 . S
C18 O21 1.194 . S
O19 Cd0 2.255 1_655 S
O19 C14 1.210 . S
O20 Cd1 2.201 . S
O20 C18 1.266 . S
O21 Cd4 2.237 1_554 S
O21 C18 1.194 . S
C22 O7 1.265 . S
C22 O8 1.233 1_554 S
O23 Cd0 2.218 . S
O23 C26 1.235 . S
C24 O9 1.210 . S
C24 O25 1.269 . S
O25 C24 1.269 . S
C26 O23 1.235 . S
C26 O27 1.201 . S
O27 C26 1.201 . S
Cd28 O35 2.298 . S
Cd28 O47 2.255 . S
Cd28 O51 2.218 . S
Cd29 O36 2.269 1_554 S
Cd29 O39 2.237 1_554 S
Cd29 O48 2.201 . S
C30 O38 1.266 . S
C30 O39 1.194 . S
Cd31 O37 2.255 1_655 S
Cd31 O41 2.218 . S
Cd31 O44 2.298 . S
Cd32 O38 2.201 . S
Cd32 O45 2.269 1_556 S
Cd32 O49 2.237 1_556 S
C33 O34 1.201 . S
C33 O41 1.235 . S
O34 C33 1.201 . S
O35 Cd28 2.298 . S
O35 C50 1.265 . S
O36 Cd29 2.269 1_556 S
O36 C50 1.233 1_556 S
O37 Cd31 2.255 1_455 S
O37 C52 1.210 . S
O38 C30 1.266 . S
O38 Cd32 2.201 . S
O39 Cd29 2.237 1_556 S
O39 C30 1.194 . S
C40 O44 1.265 . S
C40 O45 1.233 1_556 S
O41 Cd31 2.218 . S
O41 C33 1.235 . S
C42 O43 1.269 . S
C42 O47 1.210 . S
O43 C42 1.269 . S
O44 Cd31 2.298 . S
O44 C40 1.265 . S
O45 Cd32 2.269 1_554 S
O45 C40 1.233 1_554 S
C46 O48 1.266 . S
C46 O49 1.194 . S
O47 Cd28 2.255 . S
O47 C42 1.210 . S
O48 Cd29 2.201 . S
O48 C46 1.266 . S
O49 Cd32 2.237 1_554 S
O49 C46 1.194 . S
C50 O35 1.265 . S
C50 O36 1.233 1_554 S
O51 Cd28 2.218 . S
O51 C54 1.235 . S
C52 O37 1.210 . S
C52 O53 1.269 . S
O53 C52 1.269 . S
C54 O51 1.235 . S
C54 O55 1.201 . S
O55 C54 1.201 . S
Cd56 O63 2.298 . S
Cd56 O75 2.255 1_455 S
Cd56 O79 2.218 . S
Cd57 O64 2.269 . S
Cd57 O67 2.237 . S
Cd57 O76 2.201 . S
C58 O66 1.266 . S
C58 O67 1.194 . S
Cd59 O65 2.255 . S
Cd59 O69 2.218 . S
Cd59 O72 2.298 . S
Cd60 O66 2.201 . S
Cd60 O73 2.269 . S
Cd60 O77 2.237 . S
C61 O62 1.201 . S
C61 O69 1.235 . S
O62 C61 1.201 . S
O63 Cd56 2.298 . S
O63 C78 1.265 . S
O64 Cd57 2.269 . S
O64 C78 1.233 . S
O65 Cd59 2.255 . S
O65 C80 1.210 . S
O66 C58 1.266 . S
O66 Cd60 2.201 . S
O67 Cd57 2.237 . S
O67 C58 1.194 . S
C68 O72 1.265 . S
C68 O73 1.233 . S
O69 Cd59 2.218 . S
O69 C61 1.235 . S
C70 O71 1.269 . S
C70 O75 1.210 . S
O71 C70 1.269 . S
O72 Cd59 2.298 . S
O72 C68 1.265 . S
O73 Cd60 2.269 . S
O73 C68 1.233 . S
C74 O76 1.266 . S
C74 O77 1.194 . S
O75 Cd56 2.255 1_655 S
O75 C70 1.210 . S
O76 Cd57 2.201 . S
O76 C74 1.266 . S
O77 Cd60 2.237 . S
O77 C74 1.194 . S
C78 O63 1.265 . S
C78 O64 1.233 . S
O79 Cd56 2.218 . S
O79 C82 1.235 . S
C80 O65 1.210 . S
C80 O81 1.269 . S
O81 C80 1.269 . S
C82 O79 1.235 . S
C82 O83 1.201 . S
O83 C82 1.201 . S
Cd84 O91 2.298 . S
Cd84 O103 2.255 . S
Cd84 O107 2.218 . S
Cd85 O92 2.269 . S
Cd85 O95 2.237 . S
Cd85 O104 2.201 . S
C86 O94 1.266 . S
C86 O95 1.194 . S
Cd87 O93 2.255 1_655 S
Cd87 O97 2.218 . S
Cd87 O100 2.298 . S
Cd88 O94 2.201 . S
Cd88 O101 2.269 . S
Cd88 O105 2.237 . S
C89 O90 1.201 . S
C89 O97 1.235 . S
O90 C89 1.201 . S
O91 Cd84 2.298 . S
O91 C106 1.265 . S
O92 Cd85 2.269 . S
O92 C106 1.233 . S
O93 Cd87 2.255 1_455 S
O93 C108 1.210 . S
O94 C86 1.266 . S
O94 Cd88 2.201 . S
O95 Cd85 2.237 . S
O95 C86 1.194 . S
C96 O100 1.265 . S
C96 O101 1.233 . S
O97 Cd87 2.218 . S
O97 C89 1.235 . S
C98 O99 1.269 . S
C98 O103 1.210 . S
O99 C98 1.269 . S
O100 Cd87 2.298 . S
O100 C96 1.265 . S
O101 Cd88 2.269 . S
O101 C96 1.233 . S
C102 O104 1.266 . S
C102 O105 1.194 . S
O103 Cd84 2.255 . S
O103 C98 1.210 . S
O104 Cd85 2.201 . S
O104 C102 1.266 . S
O105 Cd88 2.237 . S
O105 C102 1.194 . S
C106 O91 1.265 . S
C106 O92 1.233 . S
O107 Cd84 2.218 . S
O107 C110 1.235 . S
C108 O93 1.210 . S
C108 O109 1.269 . S
O109 C108 1.269 . S
C110 O107 1.235 . S
C110 O111 1.201 . S
O111 C110 1.201 . S
H112 C124 0.930 . S
H113 C126 0.930 . S
H114 C127 0.930 . S
H115 C131 0.959 1_554 S
H116 C131 0.959 . S
H117 C131 0.961 . S
H118 C132 0.960 . S
H119 C132 0.961 . S
H120 C132 0.959 . S
H121 C135 0.929 . S
H122 C136 0.931 . S
H123 C138 0.930 . S
C124 H112 0.930 . S
C124 C125 1.399 . S
C124 C129 1.399 . S
C125 C124 1.399 . S
C125 C126 1.376 . S
C126 H113 0.930 . S
C126 C125 1.376 . S
C126 C127 1.388 1_556 S
C127 H114 0.930 . S
C127 C126 1.388 1_554 S
C127 C128 1.390 1_554 S
C128 C127 1.390 1_556 S
C128 C129 1.394 . S
C128 C134 1.465 1_556 S
C129 C124 1.399 . S
C129 C128 1.394 . S
C129 C130 1.516 . S
C130 C129 1.516 . S
C130 C131 1.502 . S
C130 C132 1.561 . S
C130 C133 1.526 1_556 S
C131 H115 0.959 1_556 S
C131 H116 0.959 . S
C131 H117 0.961 . S
C131 C130 1.502 . S
C132 H118 0.960 . S
C132 H119 0.961 . S
C132 H120 0.959 . S
C132 C130 1.561 . S
C133 C130 1.526 1_554 S
C133 C134 1.396 . S
C133 C138 1.390 . S
C134 C128 1.465 1_554 S
C134 C133 1.396 . S
C134 C135 1.399 . S
C135 H121 0.929 . S
C135 C134 1.399 . S
C135 C136 1.385 . S
C136 H122 0.931 . S
C136 C135 1.385 . S
C136 C137 1.389 . S
C137 C136 1.389 . S
C137 C138 1.387 . S
C138 H123 0.930 . S
C138 C133 1.390 . S
C138 C137 1.387 . S
H139 C151 0.930 . S
H140 C153 0.930 . S
H141 C154 0.930 1_554 S
H142 C158 0.959 1_554 S
H143 C158 0.959 . S
H144 C158 0.961 . S
H145 C159 0.960 . S
H146 C159 0.961 . S
H147 C159 0.959 . S
H148 C162 0.929 . S
H149 C163 0.931 . S
H150 C165 0.930 . S
C151 H139 0.930 . S
C151 C152 1.399 . S
C151 C156 1.399 . S
C152 C151 1.399 . S
C152 C153 1.376 . S
C153 H140 0.930 . S
C153 C152 1.376 . S
C153 C154 1.388 . S
C154 H141 0.930 1_556 S
C154 C153 1.388 . S
C154 C155 1.390 . S
C155 C154 1.390 . S
C155 C156 1.394 . S
C155 C161 1.465 1_556 S
C156 C151 1.399 . S
C156 C155 1.394 . S
C156 C157 1.516 . S
C157 C156 1.516 . S
C157 C158 1.502 . S
C157 C159 1.561 . S
C157 C160 1.526 1_556 S
C158 H142 0.959 1_556 S
C158 H143 0.959 . S
C158 H144 0.961 . S
C158 C157 1.502 . S
C159 H145 0.960 . S
C159 H146 0.961 . S
C159 H147 0.959 . S
C159 C157 1.561 . S
C160 C157 1.526 1_554 S
C160 C161 1.396 . S
C160 C165 1.390 . S
C161 C155 1.465 1_554 S
C161 C160 1.396 . S
C161 C162 1.399 . S
C162 H148 0.929 . S
C162 C161 1.399 . S
C162 C163 1.385 . S
C163 H149 0.931 . S
C163 C162 1.385 . S
C163 C164 1.389 . S
C164 C163 1.389 . S
C164 C165 1.387 . S
C165 H150 0.930 . S
C165 C160 1.390 . S
C165 C164 1.387 . S
H166 C178 0.930 . S
H167 C180 0.930 . S
H168 C181 0.930 . S
H169 C185 0.959 . S
H170 C185 0.959 . S
H171 C185 0.961 . S
H172 C186 0.960 . S
H173 C186 0.961 . S
H174 C186 0.959 . S
H175 C189 0.929 . S
H176 C190 0.931 . S
H177 C192 0.930 . S
C178 H166 0.930 . S
C178 C179 1.399 . S
C178 C183 1.399 . S
C179 C178 1.399 . S
C179 C180 1.376 . S
C180 H167 0.930 . S
C180 C179 1.376 . S
C180 C181 1.388 . S
C181 H168 0.930 . S
C181 C180 1.388 . S
C181 C182 1.390 . S
C182 C181 1.390 . S
C182 C183 1.394 . S
C182 C188 1.465 . S
C183 C178 1.399 . S
C183 C182 1.394 . S
C183 C184 1.516 . S
C184 C183 1.516 . S
C184 C185 1.502 . S
C184 C186 1.561 . S
C184 C187 1.526 . S
C185 H169 0.959 . S
C185 H170 0.959 . S
C185 H171 0.961 . S
C185 C184 1.502 . S
C186 H172 0.960 . S
C186 H173 0.961 . S
C186 H174 0.959 . S
C186 C184 1.561 . S
C187 C184 1.526 . S
C187 C188 1.396 . S
C187 C192 1.390 . S
C188 C182 1.465 . S
C188 C187 1.396 . S
C188 C189 1.399 . S
C189 H175 0.929 . S
C189 C188 1.399 . S
C189 C190 1.385 . S
C190 H176 0.931 . S
C190 C189 1.385 . S
C190 C191 1.389 . S
C191 C190 1.389 . S
C191 C192 1.387 . S
C192 H177 0.930 . S
C192 C187 1.390 . S
C192 C191 1.387 . S
H193 C205 0.930 . S
H194 C207 0.930 . S
H195 C208 0.930 . S
H196 C212 0.959 . S
H197 C212 0.959 . S
H198 C212 0.961 . S
H199 C213 0.960 . S
H200 C213 0.961 . S
H201 C213 0.959 . S
H202 C216 0.929 . S
H203 C217 0.931 . S
H204 C219 0.930 . S
C205 H193 0.930 . S
C205 C206 1.399 . S
C205 C210 1.399 . S
C206 C205 1.399 . S
C206 C207 1.376 . S
C207 H194 0.930 . S
C207 C206 1.376 . S
C207 C208 1.388 . S
C208 H195 0.930 . S
C208 C207 1.388 . S
C208 C209 1.390 . S
C209 C208 1.390 . S
C209 C210 1.394 . S
C209 C215 1.465 . S
C210 C205 1.399 . S
C210 C209 1.394 . S
C210 C211 1.516 . S
C211 C210 1.516 . S
C211 C212 1.502 . S
C211 C213 1.561 . S
C211 C214 1.526 . S
C212 H196 0.959 . S
C212 H197 0.959 . S
C212 H198 0.961 . S
C212 C211 1.502 . S
C213 H199 0.960 . S
C213 H200 0.961 . S
C213 H201 0.959 . S
C213 C211 1.561 . S
C214 C211 1.526 . S
C214 C215 1.396 . S
C214 C219 1.390 . S
C215 C209 1.465 . S
C215 C214 1.396 . S
C215 C216 1.399 . S
C216 H202 0.929 . S
C216 C215 1.399 . S
C216 C217 1.385 . S
C217 H203 0.931 . S
C217 C216 1.385 . S
C217 C218 1.389 . S
C218 C217 1.389 . S
C218 C219 1.387 . S
C219 H204 0.930 . S
C219 C214 1.390 . S
C219 C218 1.387 . S
H220 C232 0.930 . S
H221 C234 0.930 . S
H222 C235 0.930 . S
H223 C239 0.959 . S
H224 C239 0.959 . S
H225 C239 0.961 . S
H226 C240 0.960 . S
H227 C240 0.961 . S
H228 C240 0.959 . S
H229 C243 0.929 . S
H230 C244 0.931 . S
H231 C246 0.930 . S
C232 H220 0.930 . S
C232 C233 1.399 . S
C232 C237 1.399 . S
C233 C232 1.399 . S
C233 C234 1.376 1_556 S
C234 H221 0.930 . S
C234 C233 1.376 1_554 S
C234 C235 1.388 . S
C235 H222 0.930 . S
C235 C234 1.388 . S
C235 C236 1.390 . S
C236 C235 1.390 . S
C236 C237 1.394 1_554 S
C236 C242 1.465 . S
C237 C232 1.399 . S
C237 C236 1.394 1_556 S
C237 C238 1.516 . S
C238 C237 1.516 . S
C238 C239 1.502 . S
C238 C240 1.561 . S
C238 C241 1.526 . S
C239 H223 0.959 . S
C239 H224 0.959 . S
C239 H225 0.961 . S
C239 C238 1.502 . S
C240 H226 0.960 . S
C240 H227 0.961 . S
C240 H228 0.959 . S
C240 C238 1.561 . S
C241 C238 1.526 . S
C241 C242 1.396 1_556 S
C241 C246 1.390 . S
C242 C236 1.465 . S
C242 C241 1.396 1_554 S
C242 C243 1.399 . S
C243 H229 0.929 . S
C243 C242 1.399 . S
C243 C244 1.385 . S
C244 H230 0.931 . S
C244 C243 1.385 . S
C244 C245 1.389 . S
C245 C244 1.389 . S
C245 C246 1.387 1_554 S
C246 H231 0.930 . S
C246 C241 1.390 . S
C246 C245 1.387 1_556 S
H247 C259 0.930 . S
H248 C261 0.930 . S
H249 C262 0.930 . S
H250 C266 0.959 . S
H251 C266 0.959 . S
H252 C266 0.961 . S
H253 C267 0.960 . S
H254 C267 0.961 . S
H255 C267 0.959 . S
H256 C270 0.929 . S
H257 C271 0.931 . S
H258 C273 0.930 . S
C259 H247 0.930 . S
C259 C260 1.399 . S
C259 C264 1.399 . S
C260 C259 1.399 . S
C260 C261 1.376 . S
C261 H248 0.930 . S
C261 C260 1.376 . S
C261 C262 1.388 . S
C262 H249 0.930 . S
C262 C261 1.388 . S
C262 C263 1.390 . S
C263 C262 1.390 . S
C263 C264 1.394 . S
C263 C269 1.465 . S
C264 C259 1.399 . S
C264 C263 1.394 . S
C264 C265 1.516 . S
C265 C264 1.516 . S
C265 C266 1.502 . S
C265 C267 1.561 . S
C265 C268 1.526 . S
C266 H250 0.959 . S
C266 H251 0.959 . S
C266 H252 0.961 . S
C266 C265 1.502 . S
C267 H253 0.960 . S
C267 H254 0.961 . S
C267 H255 0.959 . S
C267 C265 1.561 . S
C268 C265 1.526 . S
C268 C269 1.396 . S
C268 C273 1.390 . S
C269 C263 1.465 . S
C269 C268 1.396 . S
C269 C270 1.399 . S
C270 H256 0.929 . S
C270 C269 1.399 . S
C270 C271 1.385 . S
C271 H257 0.931 . S
C271 C270 1.385 . S
C271 C272 1.389 . S
C272 C271 1.389 . S
C272 C273 1.387 . S
C273 H258 0.930 . S
C273 C268 1.390 . S
C273 C272 1.387 . S
H274 C286 0.930 . S
H275 C288 0.930 . S
H276 C289 0.930 . S
H277 C293 0.959 . S
H278 C293 0.959 . S
H279 C293 0.961 1_545 S
H280 C294 0.960 . S
H281 C294 0.961 . S
H282 C294 0.959 . S
H283 C297 0.929 . S
H284 C298 0.931 . S
H285 C300 0.930 . S
C286 H274 0.930 . S
C286 C287 1.399 1_554 S
C286 C291 1.399 . S
C287 C286 1.399 1_556 S
C287 C288 1.376 . S
C288 H275 0.930 . S
C288 C287 1.376 . S
C288 C289 1.388 . S
C289 H276 0.930 . S
C289 C288 1.388 . S
C289 C290 1.390 . S
C290 C289 1.390 . S
C290 C291 1.394 1_556 S
C290 C296 1.465 1_445 S
C291 C286 1.399 . S
C291 C290 1.394 1_554 S
C291 C292 1.516 . S
C292 C291 1.516 . S
C292 C293 1.502 1_545 S
C292 C294 1.561 1_455 S
C292 C295 1.526 1_445 S
C293 H277 0.959 . S
C293 H278 0.959 . S
C293 H279 0.961 1_565 S
C293 C292 1.502 1_565 S
C294 H280 0.960 . S
C294 H281 0.961 . S
C294 H282 0.959 . S
C294 C292 1.561 1_655 S
C295 C292 1.526 1_665 S
C295 C296 1.396 1_554 S
C295 C300 1.390 . S
C296 C290 1.465 1_665 S
C296 C295 1.396 1_556 S
C296 C297 1.399 . S
C297 H283 0.929 . S
C297 C296 1.399 . S
C297 C298 1.385 . S
C298 H284 0.931 . S
C298 C297 1.385 . S
C298 C299 1.389 1_556 S
C299 C298 1.389 1_554 S
C299 C300 1.387 . S
C300 H285 0.930 . S
C300 C295 1.390 . S
C300 C299 1.387 . S
H301 C313 0.930 . S
H302 C315 0.930 . S
H303 C316 0.930 . S
H304 C320 0.959 1_565 S
H305 C320 0.959 1_565 S
H306 C320 0.961 . S
H307 C321 0.960 . S
H308 C321 0.961 . S
H309 C321 0.959 . S
H310 C324 0.929 1_655 S
H311 C325 0.931 . S
H312 C327 0.930 . S
C313 H301 0.930 . S
C313 C314 1.399 . S
C313 C318 1.399 . S
C314 C313 1.399 . S
C314 C315 1.376 . S
C315 H302 0.930 . S
C315 C314 1.376 . S
C315 C316 1.388 . S
C316 H303 0.930 . S
C316 C315 1.388 . S
C316 C317 1.390 . S
C317 C316 1.390 . S
C317 C318 1.394 . S
C317 C323 1.465 1_645 S
C318 C313 1.399 . S
C318 C317 1.394 . S
C318 C319 1.516 1_655 S
C319 C318 1.516 1_455 S
C319 C320 1.502 . S
C319 C321 1.561 . S
C319 C322 1.526 1_545 S
C320 H304 0.959 1_545 S
C320 H305 0.959 1_545 S
C320 H306 0.961 . S
C320 C319 1.502 . S
C321 H307 0.960 . S
C321 H308 0.961 . S
C321 H309 0.959 . S
C321 C319 1.561 . S
C322 C319 1.526 1_565 S
C322 C323 1.396 . S
C322 C327 1.390 . S
C323 C317 1.465 1_465 S
C323 C322 1.396 . S
C323 C324 1.399 . S
C324 H310 0.929 1_455 S
C324 C323 1.399 . S
C324 C325 1.385 . S
C325 H311 0.931 . S
C325 C324 1.385 . S
C325 C326 1.389 . S
C326 C325 1.389 . S
C326 C327 1.387 . S
C327 H312 0.930 . S
C327 C322 1.390 . S
C327 C326 1.387 . S
H328 C340 0.930 . S
H329 C342 0.930 . S
H330 C343 0.930 . S
H331 C347 0.959 . S
H332 C347 0.959 . S
H333 C347 0.961 . S
H334 C348 0.960 . S
H335 C348 0.961 . S
H336 C348 0.959 . S
H337 C351 0.929 . S
H338 C352 0.931 . S
H339 C354 0.930 . S
C340 H328 0.930 . S
C340 C341 1.399 . S
C340 C345 1.399 . S
C341 C340 1.399 . S
C341 C342 1.376 . S
C342 H329 0.930 . S
C342 C341 1.376 . S
C342 C343 1.388 . S
C343 H330 0.930 . S
C343 C342 1.388 . S
C343 C344 1.390 . S
C344 C343 1.390 . S
C344 C345 1.394 . S
C344 C350 1.465 . S
C345 C340 1.399 . S
C345 C344 1.394 . S
C345 C346 1.516 . S
C346 C345 1.516 . S
C346 C347 1.502 . S
C346 C348 1.561 . S
C346 C349 1.526 . S
C347 H331 0.959 . S
C347 H332 0.959 . S
C347 H333 0.961 . S
C347 C346 1.502 . S
C348 H334 0.960 . S
C348 H335 0.961 . S
C348 H336 0.959 . S
C348 C346 1.561 . S
C349 C346 1.526 . S
C349 C350 1.396 . S
C349 C354 1.390 . S
C350 C344 1.465 . S
C350 C349 1.396 . S
C350 C351 1.399 . S
C351 H337 0.929 . S
C351 C350 1.399 . S
C351 C352 1.385 . S
C352 H338 0.931 . S
C352 C351 1.385 . S
C352 C353 1.389 . S
C353 C352 1.389 . S
C353 C354 1.387 . S
C354 H339 0.930 . S
C354 C349 1.390 . S
C354 C353 1.387 . S
H355 C367 0.930 . S
H356 C369 0.930 . S
H357 C370 0.930 . S
H358 C374 0.959 . S
H359 C374 0.959 . S
H360 C374 0.961 . S
H361 C375 0.960 . S
H362 C375 0.961 . S
H363 C375 0.959 . S
H364 C378 0.929 . S
H365 C379 0.931 . S
H366 C381 0.930 . S
C367 H355 0.930 . S
C367 C368 1.399 . S
C367 C372 1.399 . S
C368 C367 1.399 . S
C368 C369 1.376 . S
C369 H356 0.930 . S
C369 C368 1.376 . S
C369 C370 1.388 . S
C370 H357 0.930 . S
C370 C369 1.388 . S
C370 C371 1.390 . S
C371 C370 1.390 . S
C371 C372 1.394 . S
C371 C377 1.465 . S
C372 C367 1.399 . S
C372 C371 1.394 . S
C372 C373 1.516 . S
C373 C372 1.516 . S
C373 C374 1.502 . S
C373 C375 1.561 . S
C373 C376 1.526 . S
C374 H358 0.959 . S
C374 H359 0.959 . S
C374 H360 0.961 . S
C374 C373 1.502 . S
C375 H361 0.960 . S
C375 H362 0.961 . S
C375 H363 0.959 . S
C375 C373 1.561 . S
C376 C373 1.526 . S
C376 C377 1.396 . S
C376 C381 1.390 . S
C377 C371 1.465 . S
C377 C376 1.396 . S
C377 C378 1.399 . S
C378 H364 0.929 . S
C378 C377 1.399 . S
C378 C379 1.385 . S
C379 H365 0.931 . S
C379 C378 1.385 . S
C379 C380 1.389 . S
C380 C379 1.389 . S
C380 C381 1.387 . S
C381 H366 0.930 . S
C381 C376 1.390 . S
C381 C380 1.387 . S
H382 C394 0.930 . S
H383 C396 0.930 . S
H384 C397 0.930 . S
H385 C401 0.959 . S
H386 C401 0.959 . S
H387 C401 0.961 . S
H388 C402 0.960 . S
H389 C402 0.961 . S
H390 C402 0.959 . S
H391 C405 0.929 . S
H392 C406 0.931 . S
H393 C408 0.930 . S
C394 H382 0.930 . S
C394 C395 1.399 . S
C394 C399 1.399 . S
C395 C394 1.399 . S
C395 C396 1.376 . S
C396 H383 0.930 . S
C396 C395 1.376 . S
C396 C397 1.388 . S
C397 H384 0.930 . S
C397 C396 1.388 . S
C397 C398 1.390 . S
C398 C397 1.390 . S
C398 C399 1.394 . S
C398 C404 1.465 . S
C399 C394 1.399 . S
C399 C398 1.394 . S
C399 C400 1.516 . S
C400 C399 1.516 . S
C400 C401 1.502 . S
C400 C402 1.561 . S
C400 C403 1.526 . S
C401 H385 0.959 . S
C401 H386 0.959 . S
C401 H387 0.961 . S
C401 C400 1.502 . S
C402 H388 0.960 . S
C402 H389 0.961 . S
C402 H390 0.959 . S
C402 C400 1.561 . S
C403 C400 1.526 . S
C403 C404 1.396 . S
C403 C408 1.390 . S
C404 C398 1.465 . S
C404 C403 1.396 . S
C404 C405 1.399 . S
C405 H391 0.929 . S
C405 C404 1.399 . S
C405 C406 1.385 . S
C406 H392 0.931 . S
C406 C405 1.385 . S
C406 C407 1.389 . S
C407 C406 1.389 . S
C407 C408 1.387 . S
C408 H393 0.930 . S
C408 C403 1.390 . S
C408 C407 1.387 . S
H409 C421 0.930 . S
H410 C423 0.930 . S
H411 C424 0.930 . S
H412 C428 0.959 . S
H413 C428 0.959 . S
H414 C428 0.961 . S
H415 C429 0.960 . S
H416 C429 0.961 . S
H417 C429 0.959 . S
H418 C432 0.929 . S
H419 C433 0.931 . S
H420 C435 0.930 . S
C421 H409 0.930 . S
C421 C422 1.399 . S
C421 C426 1.399 . S
C422 C421 1.399 . S
C422 C423 1.376 . S
C423 H410 0.930 . S
C423 C422 1.376 . S
C423 C424 1.388 . S
C424 H411 0.930 . S
C424 C423 1.388 . S
C424 C425 1.390 . S
C425 C424 1.390 . S
C425 C426 1.394 . S
C425 C431 1.465 . S
C426 C421 1.399 . S
C426 C425 1.394 . S
C426 C427 1.516 . S
C427 C426 1.516 . S
C427 C428 1.502 . S
C427 C429 1.561 . S
C427 C430 1.526 . S
C428 H412 0.959 . S
C428 H413 0.959 . S
C428 H414 0.961 . S
C428 C427 1.502 . S
C429 H415 0.960 . S
C429 H416 0.961 . S
C429 H417 0.959 . S
C429 C427 1.561 . S
C430 C427 1.526 . S
C430 C431 1.396 . S
C430 C435 1.390 . S
C431 C425 1.465 . S
C431 C430 1.396 . S
C431 C432 1.399 . S
C432 H418 0.929 . S
C432 C431 1.399 . S
C432 C433 1.385 . S
C433 H419 0.931 . S
C433 C432 1.385 . S
C433 C434 1.389 . S
C434 C433 1.389 . S
C434 C435 1.387 . S
C435 H420 0.930 . S
C435 C430 1.390 . S
C435 C434 1.387 . S
H436 C448 0.930 . S
H437 C450 0.930 . S
H438 C451 0.930 . S
H439 C455 0.959 1_455 S
H440 C455 0.959 . S
H441 C455 0.961 1_455 S
H442 C456 0.960 . S
H443 C456 0.961 . S
H444 C456 0.959 . S
H445 C459 0.929 . S
H446 C460 0.931 . S
H447 C462 0.930 . S
C448 H436 0.930 . S
C448 C449 1.399 . S
C448 C453 1.399 1_455 S
C449 C448 1.399 . S
C449 C450 1.376 . S
C450 H437 0.930 . S
C450 C449 1.376 . S
C450 C451 1.388 1_455 S
C451 H438 0.930 . S
C451 C450 1.388 1_655 S
C451 C452 1.390 . S
C452 C451 1.390 . S
C452 C453 1.394 . S
C452 C458 1.465 . S
C453 C448 1.399 1_655 S
C453 C452 1.394 . S
C453 C454 1.516 . S
C454 C453 1.516 . S
C454 C455 1.502 . S
C454 C456 1.561 . S
C454 C457 1.526 . S
C455 H439 0.959 1_655 S
C455 H440 0.959 . S
C455 H441 0.961 1_655 S
C455 C454 1.502 . S
C456 H442 0.960 . S
C456 H443 0.961 . S
C456 H444 0.959 . S
C456 C454 1.561 . S
C457 C454 1.526 . S
C457 C458 1.396 . S
C457 C462 1.390 . S
C458 C452 1.465 . S
C458 C457 1.396 . S
C458 C459 1.399 . S
C459 H445 0.929 . S
C459 C458 1.399 . S
C459 C460 1.385 . S
C460 H446 0.931 . S
C460 C459 1.385 . S
C460 C461 1.389 . S
C461 C460 1.389 . S
C461 C462 1.387 . S
C462 H447 0.930 . S
C462 C457 1.390 . S
C462 C461 1.387 . S
H463 C475 0.930 . S
H464 C477 0.930 . S
H465 C478 0.930 . S
H466 C482 0.959 . S
H467 C482 0.968 . S
H468 C482 0.961 . S
H469 C483 0.960 . S
H470 C483 0.961 . S
H471 C483 0.959 . S
H472 C486 0.929 . S
H473 C487 0.931 . S
H474 C489 0.930 . S
C475 H463 0.930 . S
C475 C476 1.399 . S
C475 C480 1.399 . S
C476 C475 1.399 . S
C476 C477 1.376 . S
C477 H464 0.930 . S
C477 C476 1.376 . S
C477 C478 1.388 . S
C478 H465 0.930 . S
C478 C477 1.388 . S
C478 C479 1.390 . S
C479 C478 1.390 . S
C479 C480 1.394 . S
C479 C485 1.465 . S
C480 C475 1.399 . S
C480 C479 1.394 . S
C480 C481 1.516 . S
C481 C480 1.516 . S
C481 C482 1.502 . S
C481 C483 1.561 . S
C481 C484 1.526 . S
C482 H466 0.959 . S
C482 H467 0.968 . S
C482 H468 0.961 . S
C482 C481 1.502 . S
C483 H469 0.960 . S
C483 H470 0.961 . S
C483 H471 0.959 . S
C483 C481 1.561 . S
C484 C481 1.526 . S
C484 C485 1.396 . S
C484 C489 1.390 1_655 S
C485 C479 1.465 . S
C485 C484 1.396 . S
C485 C486 1.399 . S
C486 H472 0.929 . S
C486 C485 1.399 . S
C486 C487 1.385 1_655 S
C487 H473 0.931 . S
C487 C486 1.385 1_455 S
C487 C488 1.389 . S
C488 C487 1.389 . S
C488 C489 1.387 . S
C489 H474 0.930 . S
C489 C484 1.390 1_455 S
C489 C488 1.387 . S
H490 C502 0.930 . S
H491 C504 0.930 . S
H492 C505 0.930 . S
H493 C509 0.959 . S
H494 C509 0.959 . S
H495 C509 0.961 . S
H496 C510 0.960 . S
H497 C510 0.961 . S
H498 C510 0.959 . S
H499 C513 0.929 . S
H500 C514 0.931 . S
H501 C516 0.930 1_455 S
C502 H490 0.930 . S
C502 C503 1.399 . S
C502 C507 1.399 . S
C503 C502 1.399 . S
C503 C504 1.376 . S
C504 H491 0.930 . S
C504 C503 1.376 . S
C504 C505 1.388 . S
C505 H492 0.930 . S
C505 C504 1.388 . S
C505 C506 1.390 . S
C506 C505 1.390 . S
C506 C507 1.394 . S
C506 C512 1.465 . S
C507 C502 1.399 . S
C507 C506 1.394 . S
C507 C508 1.516 . S
C508 C507 1.516 . S
C508 C509 1.502 . S
C508 C510 1.561 . S
C508 C511 1.526 . S
C509 H493 0.959 . S
C509 H494 0.959 . S
C509 H495 0.961 . S
C509 C508 1.502 . S
C510 H496 0.960 . S
C510 H497 0.961 . S
C510 H498 0.959 . S
C510 C508 1.561 . S
C511 C508 1.526 . S
C511 C512 1.396 . S
C511 C516 1.390 1_455 S
C512 C506 1.465 . S
C512 C511 1.396 . S
C512 C513 1.399 1_455 S
C513 H499 0.929 . S
C513 C512 1.399 1_655 S
C513 C514 1.385 . S
C514 H500 0.931 . S
C514 C513 1.385 . S
C514 C515 1.389 . S
C515 C514 1.389 . S
C515 C516 1.387 . S
C516 H501 0.930 1_655 S
C516 C511 1.390 1_655 S
C516 C515 1.387 . S
H517 C529 0.930 . S
H518 C531 0.930 . S
H519 C532 0.930 . S
H520 C536 0.959 . S
H521 C536 0.959 . S
H522 C536 0.961 . S
H523 C537 0.960 1_455 S
H524 C537 0.961 . S
H525 C537 0.959 . S
H526 C540 0.929 . S
H527 C541 0.931 . S
H528 C543 0.930 . S
C529 H517 0.930 . S
C529 C530 1.399 . S
C529 C534 1.399 . S
C530 C529 1.399 . S
C530 C531 1.376 . S
C531 H518 0.930 . S
C531 C530 1.376 . S
C531 C532 1.388 . S
C532 H519 0.930 . S
C532 C531 1.388 . S
C532 C533 1.390 . S
C533 C532 1.390 . S
C533 C534 1.394 . S
C533 C539 1.465 . S
C534 C529 1.399 . S
C534 C533 1.394 . S
C534 C535 1.516 . S
C535 C534 1.516 . S
C535 C536 1.502 . S
C535 C537 1.561 1_455 S
C535 C538 1.526 . S
C536 H520 0.959 . S
C536 H521 0.959 . S
C536 H522 0.961 . S
C536 C535 1.502 . S
C537 H523 0.960 1_655 S
C537 H524 0.961 . S
C537 H525 0.959 . S
C537 C535 1.561 1_655 S
C538 C535 1.526 . S
C538 C539 1.396 . S
C538 C543 1.390 1_455 S
C539 C533 1.465 . S
C539 C538 1.396 . S
C539 C540 1.399 . S
C540 H526 0.929 . S
C540 C539 1.399 . S
C540 C541 1.385 1_455 S
C541 H527 0.931 . S
C541 C540 1.385 1_655 S
C541 C542 1.389 . S
C542 C541 1.389 . S
C542 C543 1.387 . S
C543 H528 0.930 . S
C543 C538 1.390 1_655 S
C543 C542 1.387 . S
C125 C24 2.339 . S
C137 C14 2.292 . S
C152 C52 2.342 . S
C164 C42 2.286 . S
C179 C80 2.343 . S
C191 C70 2.285 . S
C206 C108 2.284 . S
C218 C98 2.343 . S
C233 C50 1.434 1_556 S
C245 C12 1.546 1_554 S
C260 C106 1.527 . S
C272 C68 1.443 . S
C287 C22 1.545 1_556 S
C299 C40 1.433 1_554 S
C314 C96 1.433 . S
C326 C78 1.546 . S
C341 C110 1.553 . S
C353 C18 2.088 . S
C368 C54 1.528 . S
C380 C74 2.082 . S
C395 C61 1.539 . S
C407 C30 2.088 . S
C422 C5 1.526 . S
C434 C86 2.090 . S
C449 C82 1.455 . S
C461 C46 2.094 . S
C476 C102 2.087 . S
C488 C26 1.563 . S
C503 C2 2.080 . S
C515 C89 1.596 . S
C530 C58 2.083 . S
C542 C33 1.566 . S
