# Generated by pormake.
# Topology wli, (5)-cn, num edge types: 1
# Building blocks:
#     Node 0, Type 0, BuildingBlock: XOMCOT_clean_sbu_1, # of connection points: 5
#     Node 1, Type 0, BuildingBlock: XOMCOT_clean_sbu_1, # of connection points: 5
#     Node 2, Type 0, BuildingBlock: XOMCOT_clean_sbu_1, # of connection points: 5
#     Node 3, Type 0, BuildingBlock: XOMCOT_clean_sbu_1, # of connection points: 5
#     Node 4, Type 0, BuildingBlock: XOMCOT_clean_sbu_1, # of connection points: 5
#     Node 5, Type 0, BuildingBlock: XOMCOT_clean_sbu_1, # of connection points: 5
#     Edge 6, Type (0, 0), BuildingBlock: ZUJKAS_clean_linker_0, # of connection points: 2
#     Edge 7, Type (0, 0), BuildingBlock: ZUJKAS_clean_linker_0, # of connection points: 2
#     Edge 8, Type (0, 0), BuildingBlock: ZUJKAS_clean_linker_0, # of connection points: 2
#     Edge 9, Type (0, 0), BuildingBlock: ZUJKAS_clean_linker_0, # of connection points: 2
#     Edge 10, Type (0, 0), BuildingBlock: ZUJKAS_clean_linker_0, # of connection points: 2
#     Edge 11, Type (0, 0), BuildingBlock: ZUJKAS_clean_linker_0, # of connection points: 2
#     Edge 12, Type (0, 0), BuildingBlock: ZUJKAS_clean_linker_0, # of connection points: 2
#     Edge 13, Type (0, 0), BuildingBlock: ZUJKAS_clean_linker_0, # of connection points: 2
#     Edge 14, Type (0, 0), BuildingBlock: ZUJKAS_clean_linker_0, # of connection points: 2
#     Edge 15, Type (0, 0), BuildingBlock: ZUJKAS_clean_linker_0, # of connection points: 2
#     Edge 16, Type (0, 0), BuildingBlock: ZUJKAS_clean_linker_0, # of connection points: 2
#     Edge 17, Type (0, 0), BuildingBlock: ZUJKAS_clean_linker_0, # of connection points: 2
#     Edge 18, Type (0, 0), BuildingBlock: ZUJKAS_clean_linker_0, # of connection points: 2
#     Edge 19, Type (0, 0), BuildingBlock: ZUJKAS_clean_linker_0, # of connection points: 2
#     Edge 20, Type (0, 0), BuildingBlock: ZUJKAS_clean_linker_0, # of connection points: 2
# Relax obj value: 0.113
# Max RMSD: 0.138
# Mean RMSD: 0.138
data_MOF--net-wli--node1-XOMCOT_clean_sbu_1--edge1-ZUJKAS_clean_linker_0
_symmetry_space_group_name_H-M    P1
_symmetry_Int_Tables_number       1
_symmetry_cell_setting            triclinic
loop_
_symmetry_equiv_pos_as_xyz
'x, y, z'
_cell_length_a     45.4741
_cell_length_b     45.43877
_cell_length_c     34.072056
_cell_angle_alpha  90.010081
_cell_angle_beta   89.996133
_cell_angle_gamma 119.99583
loop_
_atom_site_label
_atom_site_type_symbol
_atom_site_fract_x
_atom_site_fract_y
_atom_site_fract_z
_atom_type_partial_charge
C0 C 0.20138 0.46875 0.03285 0.0
C1 C 0.22284 0.49468 0.00828 0.0
N2 N 0.25508 0.50483 0.01887 0.0
N3 N 0.21999 0.46219 0.05844 0.0
C4 C 0.25261 0.48476 0.04943 0.0
H5 H 0.17395 0.45592 0.03258 0.0
Co6 Co 0.20322 0.43136 0.09971 0.0
C7 C 0.23881 0.3921 0.09296 0.0
O8 O 0.2096 0.36479 0.10087 0.0
N9 N 0.1862 0.40134 0.14344 0.0
C10 C 0.18603 0.37948 0.20218 0.0
C11 C 0.2057 0.39768 0.17079 0.0
C12 C 0.15493 0.38635 0.16011 0.0
N13 N 0.15405 0.37253 0.19554 0.0
O14 O 0.22976 0.46763 0.13541 0.0
H15 H 0.23303 0.40934 0.16926 0.0
H16 H 0.13355 0.38733 0.14811 0.0
O17 O 0.24058 0.42118 0.0921 0.0
C18 C 0.21057 0.47827 0.1488 0.0
O19 O 0.17879 0.46306 0.13703 0.0
N20 N 0.17486 0.39702 0.06363 0.0
C21 C 0.12983 0.35678 0.00446 0.0
C22 C 0.16452 0.36735 1.00208 0.0
C23 C 0.18669 0.38804 0.03149 0.0
C24 C 0.14139 0.38772 0.06565 0.0
C25 C 0.11835 0.36693 0.03714 0.0
H26 H 0.21358 0.39864 0.02676 0.0
H27 H 0.13281 0.39877 0.08757 0.0
H28 H 0.27412 0.48661 0.06525 0.0
H29 H 0.21528 0.50588 0.98518 0.0
H30 H 0.19507 0.37392 0.229 0.0
H31 H 0.17486 0.36155 0.97652 0.0
H32 H 0.09198 0.36015 0.0399 0.0
C33 C 0.56568 0.73881 0.69505 0.0
C34 C 0.54064 0.73498 0.66946 0.0
N35 N 0.53166 0.75835 0.6783 0.0
N36 N 0.5728 0.76471 0.71971 0.0
C37 C 0.55159 0.77603 0.70897 0.0
H38 H 0.57723 0.72303 0.69638 0.0
Co39 Co 0.602 0.77734 0.76255 0.0
C40 C 0.64243 0.85239 0.75835 0.0
O41 O 0.66911 0.84984 0.76777 0.0
N42 N 0.63023 0.78882 0.80757 0.0
C43 C 0.65014 0.80919 0.86731 0.0
C44 C 0.63271 0.81115 0.83544 0.0
C45 C 0.64514 0.77249 0.82433 0.0
N46 N 0.65783 0.78468 0.86039 0.0
O47 O 0.56466 0.76739 0.79668 0.0
H48 H 0.6209 0.82669 0.83373 0.0
H49 H 0.64517 0.7508 0.81169 0.0
O50 O 0.61326 0.82534 0.75579 0.0
C51 C 0.54999 0.73558 0.80362 0.0
O52 O 0.56281 0.71807 0.78773 0.0
N53 N 0.63724 0.78334 0.72806 0.0
C54 C 0.67686 0.77708 0.66929 0.0
C55 C 0.66836 0.80276 0.66742 0.0
C56 C 0.6479 0.80498 0.69659 0.0
C57 C 0.64492 0.75797 0.72981 0.0
C58 C 0.66531 0.75489 0.70144 0.0
H59 H 0.6386 0.82237 0.69191 0.0
H60 H 0.63262 0.73799 0.75118 0.0
H61 H 0.55045 0.79646 0.72387 0.0
H62 H 0.52907 0.7156 0.64707 0.0
H63 H 0.65479 0.82315 0.89451 0.0
H64 H 0.67536 0.81947 0.64223 0.0
H65 H 0.6705 0.73414 0.7037 0.0
C66 C 0.2963 0.83414 0.36804 0.0
C67 C 0.30162 0.81347 0.34309 0.0
N68 N 0.27772 0.78094 0.35023 0.0
N69 N 0.26897 0.81484 0.39055 0.0
C70 C 0.25827 0.78254 0.37928 0.0
H71 H 0.31181 0.86147 0.37029 0.0
Co72 Co 0.25401 0.8312 0.43119 0.0
C73 C 0.1793 0.79427 0.42441 0.0
O74 O 0.18092 0.82349 0.43149 0.0
N75 N 0.24039 0.84811 0.4744 0.0
C76 C 0.21872 0.84841 0.5331 0.0
C77 C 0.21728 0.82864 0.50183 0.0
C78 C 0.25665 0.87946 0.49096 0.0
N79 N 0.2437 0.88042 0.52636 0.0
O80 O 0.26466 0.80578 0.46749 0.0
H81 H 0.20182 0.80127 0.50056 0.0
H82 H 0.27915 0.90072 0.47899 0.0
O83 O 0.20679 0.79282 0.42404 0.0
C84 C 0.29428 0.82543 0.48113 0.0
O85 O 0.3104 0.85727 0.46946 0.0
N86 N 0.2469 0.85828 0.39421 0.0
C87 C 0.24918 0.90052 0.33298 0.0
C88 C 0.22674 0.86539 0.33155 0.0
C89 C 0.22654 0.84468 0.36193 0.0
C90 C 0.26951 0.8923 0.39539 0.0
C91 C 0.27054 0.91396 0.36567 0.0
H92 H 0.21155 0.81753 0.35798 0.0
H93 H 0.28899 0.90249 0.4175 0.0
H94 H 0.23688 0.76066 0.39249 0.0
H95 H 0.32219 0.82178 0.32221 0.0
H96 H 0.20424 0.83937 0.56 0.0
H97 H 0.21043 0.85377 0.30638 0.0
H98 H 0.28958 0.94066 0.36701 0.0
C99 C 0.4736 0.1935 0.97248 0.0
C100 C 0.49954 0.21401 0.99753 0.0
N101 N 0.50906 0.24665 0.98961 0.0
N102 N 0.46645 0.21303 0.94915 0.0
C103 C 0.48859 0.24531 0.96001 0.0
H104 H 0.4612 0.1661 0.97075 0.0
Co105 Co 0.43546 0.19692 0.90816 0.0
C106 C 0.39781 0.23406 0.91468 0.0
O107 O 0.37019 0.20495 0.90733 0.0
N108 N 0.40528 0.18027 0.86464 0.0
C109 C 0.38364 0.18019 0.80579 0.0
C110 C 0.40171 0.19983 0.83726 0.0
C111 C 0.39045 0.14902 0.84785 0.0
N112 N 0.37674 0.14819 0.81236 0.0
O113 O 0.47184 0.22242 0.8722 0.0
H114 H 0.4135 0.22718 0.8387 0.0
H115 H 0.39174 0.12775 0.85971 0.0
O116 O 0.42667 0.23535 0.91534 0.0
C117 C 0.48184 0.20271 0.85877 0.0
O118 O 0.46604 0.17089 0.8705 0.0
N119 N 0.40097 0.16971 0.94476 0.0
C120 C 0.36087 0.12711 0.00565 0.0
C121 C 0.37342 0.16222 0.00732 0.0
C122 C 0.39398 0.18312 0.97706 0.0
C123 C 0.38962 0.13571 0.94334 0.0
C124 C 0.36892 0.11388 0.97287 0.0
H125 H 0.40605 0.21025 0.98119 0.0
H126 H 0.39907 0.12566 0.92125 0.0
H127 H 0.48988 0.26734 0.94613 0.0
H128 H 0.51121 0.20552 0.01902 0.0
H129 H 0.37829 0.18931 0.77889 0.0
H130 H 0.36864 0.17367 0.0326 0.0
H131 H 0.36136 0.0872 0.97136 0.0
C132 C 0.8394 0.28724 0.64514 0.0
C133 C 0.81821 0.29121 0.67064 0.0
N134 N 0.78586 0.2679 0.66179 0.0
N135 N 0.82061 0.26131 0.62052 0.0
C136 C 0.7881 0.25012 0.6312 0.0
H137 H 0.86674 0.30293 0.64385 0.0
Co138 Co 0.83721 0.24847 0.57788 0.0
C139 C 0.80262 0.17346 0.58239 0.0
O140 O 0.83184 0.17597 0.57301 0.0
N141 N 0.85399 0.23676 0.53301 0.0
C142 C 0.85353 0.21611 0.47343 0.0
C143 C 0.8341 0.21448 0.50513 0.0
C144 C 0.88531 0.25273 0.51642 0.0
N145 N 0.88579 0.24036 0.48047 0.0
O146 O 0.80992 0.25833 0.54349 0.0
H147 H 0.80675 0.19916 0.50676 0.0
H148 H 0.90713 0.27425 0.52911 0.0
O149 O 0.80048 0.20051 0.58482 0.0
C150 C 0.82728 0.28998 0.53578 0.0
O151 O 0.85761 0.30753 0.55161 0.0
N152 N 0.86639 0.24252 0.61255 0.0
C153 C 0.91257 0.24786 0.67047 0.0
C154 C 0.87822 0.22268 0.67278 0.0
C155 C 0.85543 0.22091 0.64403 0.0
C156 C 0.89951 0.26764 0.61058 0.0
C157 C 0.92313 0.27021 0.63844 0.0
H158 H 0.82873 0.20376 0.6489 0.0
H159 H 0.90723 0.28769 0.58929 0.0
H160 H 0.76652 0.22969 0.61633 0.0
H161 H 0.82605 0.31063 0.69299 0.0
H162 H 0.84422 0.20206 0.44629 0.0
H163 H 0.86854 0.2059 0.69791 0.0
H164 H 0.94918 0.29059 0.63577 0.0
C165 C 0.74795 0.55739 0.30763 0.0
C166 C 0.74318 0.53117 0.33188 0.0
N167 N 0.76463 0.52039 0.32063 0.0
N168 N 0.77268 0.56352 0.28159 0.0
C169 C 0.78217 0.54039 0.28999 0.0
H170 H 0.73378 0.57068 0.30841 0.0
Co171 Co 0.78655 0.59446 0.24044 0.0
C172 C 0.86137 0.63338 0.24616 0.0
O173 O 0.85931 0.66067 0.23856 0.0
N174 N 0.79923 0.62456 0.19684 0.0
C175 C 0.82019 0.64627 0.13782 0.0
C176 C 0.82214 0.62825 0.16911 0.0
C177 C 0.78258 0.63931 0.18048 0.0
N178 N 0.79508 0.65303 0.14488 0.0
O179 O 0.77626 0.55821 0.20447 0.0
H180 H 0.83786 0.61664 0.17026 0.0
H181 H 0.76017 0.63804 0.19278 0.0
O182 O 0.83409 0.60428 0.24719 0.0
C183 C 0.74665 0.5479 0.1906 0.0
O184 O 0.73014 0.56327 0.20203 0.0
N185 N 0.7933 0.6289 0.27692 0.0
C186 C 0.79076 0.66987 0.33678 0.0
C187 C 0.8141 0.65829 0.33838 0.0
C188 C 0.81442 0.63722 0.30871 0.0
C189 C 0.76978 0.63912 0.27568 0.0
C190 C 0.76855 0.66018 0.30469 0.0
H191 H 0.83023 0.62599 0.31286 0.0
H192 H 0.74984 0.62857 0.25411 0.0
H193 H 0.80131 0.53806 0.27363 0.0
H194 H 0.72458 0.52015 0.35515 0.0
H195 H 0.83442 0.65171 0.11073 0.0
H196 H 0.83111 0.66433 0.36314 0.0
H197 H 0.74881 0.66686 0.3033 0.0
H198 H 0.29983 0.77679 0.27759 0.0
H199 H 0.29457 0.72628 0.24569 0.0
H200 H 0.24259 0.66619 0.34731 0.0
H201 H 0.24864 0.71689 0.38006 0.0
H202 H 0.29339 0.65276 0.3148 0.0
H203 H 0.20338 0.64996 0.20242 0.0
H204 H 0.24264 0.68953 0.20624 0.0
H205 H 0.21328 0.67509 0.24659 0.0
C206 C 0.2876 0.75298 0.29343 0.0
C207 C 0.2745 0.75098 0.3314 0.0
C208 C 0.28441 0.72405 0.27499 0.0
C209 C 0.26791 0.69246 0.29398 0.0
C210 C 0.25535 0.69036 0.33211 0.0
H211 H 0.17228 0.49366 0.19575 0.0
H212 H 0.1899 0.54566 0.23272 0.0
C213 C 0.25851 0.71932 0.35062 0.0
C214 C 0.26266 0.66139 0.27348 0.0
H215 H 0.22139 0.60977 0.19571 0.0
C216 C 0.27775 0.64334 0.28868 0.0
C217 C 0.24208 0.64913 0.23958 0.0
C218 C 0.22414 0.6667 0.22282 0.0
C219 C 0.27264 0.6132 0.27084 0.0
C220 C 0.25212 0.60105 0.23691 0.0
C221 C 0.23733 0.61931 0.2216 0.0
C222 C 0.24315 0.56808 0.21833 0.0
C223 C 0.28832 0.59399 0.28896 0.0
C224 C 0.26745 0.56302 0.19865 0.0
C225 C 0.25741 0.53297 0.17739 0.0
C226 C 0.2229 0.50789 0.17531 0.0
C227 C 0.19902 0.51261 0.19643 0.0
C228 C 0.20903 0.54233 0.21766 0.0
H229 H 0.29899 0.60384 0.31854 0.0
H230 H 0.26919 0.56655 0.29142 0.0
H231 H 0.30913 0.59636 0.26981 0.0
H232 H 0.29389 0.58279 0.19843 0.0
H233 H 0.2763 0.53007 0.16119 0.0
H234 H 0.50596 0.66802 0.8047 0.0
H235 H 0.45728 0.63624 0.84723 0.0
H236 H 0.47537 0.72946 0.90197 0.0
H237 H 0.5244 0.76196 0.85826 0.0
H238 H 0.4583 0.63287 0.92678 0.0
H239 H 0.37351 0.68143 0.87834 0.0
H240 H 0.4102 0.68852 0.85036 0.0
H241 H 0.41543 0.71276 0.89405 0.0
C242 C 0.49959 0.68197 0.82554 0.0
C243 C 0.51915 0.71755 0.82821 0.0
C244 C 0.47168 0.66367 0.84991 0.0
C245 C 0.46257 0.68036 0.8778 0.0
C246 C 0.48163 0.71604 0.88028 0.0
H247 H 0.31459 0.54664 0.05563 0.0
H248 H 0.36609 0.59297 0.02599 0.0
C249 C 0.50965 0.73458 0.85542 0.0
C250 C 0.43378 0.65955 0.90468 0.0
H251 H 0.3524 0.63886 0.92684 0.0
C252 C 0.43524 0.6344 0.92716 0.0
C253 C 0.40369 0.66147 0.90491 0.0
C254 C 0.40028 0.68729 0.88047 0.0
C255 C 0.40706 0.61021 0.94848 0.0
C256 C 0.37675 0.61178 0.94832 0.0
C257 C 0.37568 0.63774 0.92704 0.0
C258 C 0.34514 0.58513 0.96734 0.0
C259 C 0.40953 0.58212 0.96916 0.0
C260 C 0.31587 0.56598 0.94459 0.0
C261 C 0.28638 0.53979 0.96155 0.0
C262 C 0.28553 0.53205 1.00162 0.0
C263 C 0.31469 0.55156 0.02454 0.0
C264 C 0.34412 0.57805 0.00762 0.0
H265 H 0.43145 0.5799 0.95855 0.0
H266 H 0.413 0.58761 1.00108 0.0
H267 H 0.38601 0.55725 0.96491 0.0
H268 H 0.31603 0.57089 0.91345 0.0
H269 H 0.26443 0.5251 0.94309 0.0
H270 H 0.2819 0.76011 0.49246 0.0
H271 H 0.3178 0.7433 0.5292 0.0
H272 H 0.38239 0.84728 0.56545 0.0
H273 H 0.34724 0.86415 0.52884 0.0
H274 H 0.41693 0.81871 0.52859 0.0
H275 H 0.33312 0.73578 0.64813 0.0
H276 H 0.31615 0.72574 0.59913 0.0
H277 H 0.32433 0.76489 0.62145 0.0
C278 C 0.30334 0.77915 0.509 0.0
C279 C 0.31192 0.81346 0.50755 0.0
C280 C 0.32379 0.76954 0.52999 0.0
C281 C 0.35276 0.79408 0.55008 0.0
C282 C 0.36025 0.82797 0.55007 0.0
H283 H 0.49528 0.78499 0.71051 0.0
H284 H 0.45083 0.79185 0.67867 0.0
C285 C 0.34011 0.83756 0.52907 0.0
C286 C 0.37725 0.78564 0.56832 0.0
H287 H 0.38796 0.74218 0.64358 0.0
C288 C 0.41055 0.80184 0.55363 0.0
C289 C 0.36891 0.76388 0.60115 0.0
C290 C 0.33378 0.74668 0.61873 0.0
C291 C 0.43587 0.79721 0.57108 0.0
C292 C 0.42755 0.77527 0.60374 0.0
C293 C 0.39419 0.75886 0.61839 0.0
C294 C 0.45349 0.76978 0.62347 0.0
C295 C 0.47157 0.81663 0.55506 0.0
C296 C 0.46952 0.75486 0.60309 0.0
C297 C 0.49516 0.75124 0.62103 0.0
C298 C 0.50521 0.76228 0.65986 0.0
C299 C 0.48867 0.77674 0.68041 0.0
C300 C 0.46298 0.78035 0.6624 0.0
H301 H 0.4754 0.83823 0.53623 0.0
H302 H 0.49047 0.82663 0.57924 0.0
H303 H 0.47661 0.79932 0.53697 0.0
H304 H 0.46233 0.74621 0.57315 0.0
H305 H 0.50744 0.74023 0.60419 0.0
H306 H 0.5351 0.26788 0.84758 0.0
H307 H 0.58776 0.28435 0.81088 0.0
H308 H 0.54773 0.1803 0.77445 0.0
H309 H 0.49578 0.16378 0.81102 0.0
H310 H 0.61075 0.20831 0.81123 0.0
H311 H 0.61071 0.29195 0.69202 0.0
H312 H 0.60392 0.30203 0.74106 0.0
H313 H 0.57272 0.26304 0.71867 0.0
C314 C 0.53736 0.24876 0.83101 0.0
C315 C 0.51147 0.21453 0.8324 0.0
C316 C 0.56738 0.25817 0.81004 0.0
C317 C 0.57162 0.23351 0.78991 0.0
C318 C 0.54507 0.19971 0.78987 0.0
H319 H 0.72293 0.24152 0.6295 0.0
H320 H 0.67169 0.23496 0.66126 0.0
C321 C 0.51538 0.19032 0.81085 0.0
C322 C 0.6045 0.24172 0.77166 0.0
H323 H 0.65885 0.28503 0.6965 0.0
C324 C 0.62135 0.22521 0.78625 0.0
C325 C 0.61808 0.26353 0.73889 0.0
C326 C 0.60041 0.28105 0.7214 0.0
C327 C 0.65121 0.22962 0.76878 0.0
C328 C 0.66499 0.25161 0.73618 0.0
C329 C 0.64829 0.26831 0.72162 0.0
C330 C 0.69637 0.25691 0.7165 0.0
C331 C 0.66723 0.20991 0.7847 0.0
C332 C 0.72728 0.27166 0.73692 0.0
C333 C 0.7565 0.27513 0.71903 0.0
C334 C 0.75552 0.2641 0.68019 0.0
C335 C 0.72455 0.24978 0.6596 0.0
C336 C 0.6953 0.24633 0.67757 0.0
H337 H 0.64936 0.18835 0.8035 0.0
H338 H 0.67598 0.19981 0.76047 0.0
H339 H 0.68963 0.22705 0.8028 0.0
H340 H 0.72875 0.28031 0.76687 0.0
H341 H 0.77975 0.28603 0.7359 0.0
H342 H 0.78067 0.47778 0.28266 0.0
H343 H 0.78393 0.42993 0.3111 0.0
H344 H 0.75821 0.45262 0.42469 0.0
H345 H 0.75428 0.49983 0.39626 0.0
H346 H 0.82472 0.42908 0.36448 0.0
H347 H 0.69426 0.35246 0.42121 0.0
H348 H 0.70621 0.38745 0.38776 0.0
H349 H 0.7134 0.39499 0.43976 0.0
C350 C 0.77568 0.47248 0.31367 0.0
C351 C 0.76706 0.49247 0.3372 0.0
C352 C 0.77732 0.445 0.32986 0.0
C353 C 0.77046 0.43703 0.3699 0.0
C354 C 0.76237 0.45735 0.39348 0.0
H355 H 0.85413 0.35789 0.52838 0.0
H356 H 0.83739 0.3886 0.48392 0.0
C357 C 0.76038 0.48454 0.37725 0.0
C358 C 0.77423 0.40922 0.38781 0.0
H359 H 0.73678 0.34265 0.45208 0.0
C360 C 0.80519 0.40982 0.38302 0.0
C361 C 0.74856 0.38344 0.41134 0.0
C362 C 0.71362 0.3793 0.41493 0.0
C363 C 0.812 0.38694 0.40313 0.0
C364 C 0.78758 0.36337 0.4296 0.0
C365 C 0.75574 0.36112 0.43234 0.0
C366 C 0.79615 0.3436 0.45741 0.0
C367 C 0.84568 0.38876 0.39641 0.0
C368 C 0.77747 0.30788 0.45873 0.0
C369 C 0.78683 0.28997 0.48476 0.0
C370 C 0.81494 0.30765 0.50978 0.0
C371 C 0.83268 0.34338 0.50912 0.0
C372 C 0.82327 0.36107 0.48349 0.0
H373 H 0.85578 0.39876 0.36668 0.0
H374 H 0.86437 0.40635 0.41817 0.0
H375 H 0.8435 0.36343 0.39972 0.0
H376 H 0.75613 0.2939 0.43917 0.0
H377 H 0.77262 0.26245 0.48472 0.0
H378 H 0.54674 0.30977 0.95813 0.0
H379 H 0.59247 0.36008 0.99023 0.0
H380 H 0.57935 0.3014 0.09487 0.0
H381 H 0.53309 0.25134 0.06346 0.0
H382 H 0.58136 0.36183 0.10957 0.0
H383 H 0.69001 0.38315 0.01579 0.0
H384 H 0.65435 0.37962 0.98899 0.0
H385 H 0.65005 0.34363 0.01586 0.0
C386 C 0.55348 0.30758 0.98801 0.0
C387 C 0.53621 0.27644 0.00818 0.0
C388 C 0.57997 0.33626 0.00613 0.0
C389 C 0.58976 0.33433 0.0447 0.0
C390 C 0.57249 0.30336 0.06493 0.0
H391 H 0.75865 0.49456 0.18101 0.0
H392 H 0.72297 0.44171 0.14416 0.0
C393 C 0.54611 0.27472 0.04685 0.0
C394 C 0.6164 0.36505 0.06499 0.0
H395 H 0.6996 0.42797 0.06003 0.0
C396 C 0.60726 0.37609 0.0989 0.0
C397 C 0.65032 0.38343 0.05132 0.0
C398 C 0.66196 0.37174 0.0162 0.0
C399 C 0.63078 0.40557 0.1188 0.0
C400 C 0.66427 0.42482 0.10413 0.0
C401 C 0.67384 0.41326 0.07099 0.0
C402 C 0.68874 0.45792 0.12194 0.0
C403 C 0.61951 0.41607 0.15528 0.0
C404 C 0.68201 0.48478 0.12029 0.0
C405 C 0.70204 0.5146 0.14124 0.0
C406 C 0.72949 0.51835 0.16401 0.0
C407 C 0.73768 0.49233 0.16365 0.0
C408 C 0.71732 0.46219 0.14273 0.0
H409 H 0.59625 0.39452 0.16815 0.0
H410 H 0.63986 0.42625 0.17784 0.0
H411 H 0.61373 0.43638 0.14763 0.0
H412 H 0.66042 0.48218 0.10389 0.0
H413 H 0.69537 0.53439 0.14049 0.0
H414 H 0.91756 0.19968 0.71435 0.0
H415 H 0.95474 0.20929 0.77093 0.0
H416 H 0.99819 0.3175 0.75738 0.0
H417 H 0.961 0.30831 0.70169 0.0
H418 H 0.04663 0.2949 0.76998 0.0
H419 H 0.9415 0.24392 0.87941 0.0
H420 H 0.9373 0.21715 0.83836 0.0
H421 H 0.93644 0.25574 0.83035 0.0
C422 C 0.93502 0.22551 0.72347 0.0
C423 C 0.93634 0.2532 0.70331 0.0
C424 C 0.95625 0.23093 0.75573 0.0
C425 C 0.97905 0.2641 0.76838 0.0
C426 C 0.98089 0.29171 0.7479 0.0
H427 H 0.07987 0.36699 0.97441 0.0
H428 H 0.04325 0.33919 0.91823 0.0
C429 C 0.95971 0.28636 0.71586 0.0
C430 C 1.00045 0.27057 0.80368 0.0
H431 H 0.99708 0.26779 0.9038 0.0
C432 C 0.03588 0.28851 0.79926 0.0
C433 C 0.98622 0.26241 0.84175 0.0
C434 C 0.9483 0.24393 0.84808 0.0
C435 C 0.05752 0.29951 0.83202 0.0
C436 C 0.04326 0.2921 0.87011 0.0
C437 C 1.00786 0.27319 0.8745 0.0
C438 C 0.06446 0.30695 0.90556 0.0
C439 C 0.09538 0.32047 0.82574 0.0
C440 C 0.08825 0.29765 0.91743 0.0
C441 C 0.10916 0.31334 0.94996 0.0
C442 C 0.10652 0.33851 0.97119 0.0
C443 C 0.0822 0.34725 0.9594 0.0
C444 C 0.06133 0.33153 0.92708 0.0
H445 H 0.10199 0.32806 0.79456 0.0
H446 H 0.10635 0.34375 0.84414 0.0
H447 H 0.10742 0.30546 0.83468 0.0
H448 H 0.09075 0.27842 0.90142 0.0
H449 H 0.12737 0.30578 0.95847 0.0
H450 H 0.79257 0.65797 0.41522 0.0
H451 H 0.77971 0.68431 0.47001 0.0
H452 H 0.76611 0.74972 0.38946 0.0
H453 H 0.77916 0.72356 0.33425 0.0
H454 H 0.80788 0.75246 0.49668 0.0
H455 H 0.67411 0.69718 0.44643 0.0
H456 H 0.70234 0.6837 0.42685 0.0
H457 H 0.70604 0.72316 0.4112 0.0
C458 C 0.7876 0.67847 0.40912 0.0
C459 C 0.78675 0.68856 0.37029 0.0
C460 C 0.78011 0.69341 0.44051 0.0
C461 C 0.7715 0.71861 0.43373 0.0
C462 C 0.77212 0.72988 0.39523 0.0
H463 H 0.7303 0.82402 0.62478 0.0
H464 H 0.75562 0.81311 0.56691 0.0
C465 C 0.77956 0.71491 0.36376 0.0
C466 C 0.75983 0.73136 0.46684 0.0
H467 H 0.6895 0.73014 0.50396 0.0
C468 C 0.7821 0.7479 0.49821 0.0
C469 C 0.72605 0.72497 0.46884 0.0
C470 C 0.70058 0.70605 0.43675 0.0
C471 C 0.77133 0.75784 0.53182 0.0
C472 C 0.73753 0.75129 0.53383 0.0
C473 C 0.71547 0.73528 0.50218 0.0
C474 C 0.72359 0.75844 0.56957 0.0
C475 C 0.79573 0.77408 0.56552 0.0
C476 C 0.69703 0.73139 0.5899 0.0
C477 C 0.68243 0.73751 0.62261 0.0
C478 C 0.69403 0.7709 0.63574 0.0
C479 C 0.7208 0.79803 0.6154 0.0
C480 C 0.73546 0.79184 0.58256 0.0
H481 H 0.81879 0.77174 0.56225 0.0
H482 H 0.80381 0.80149 0.56685 0.0
H483 H 0.78324 0.76234 0.59381 0.0
H484 H 0.68735 0.70544 0.58017 0.0
H485 H 0.66138 0.71604 0.63693 0.0
H486 H 0.37714 0.14073 0.08325 0.0
H487 H 0.35204 0.10201 0.13885 0.0
H488 H 0.28042 0.02431 0.06121 0.0
H489 H 0.30517 0.06306 0.00521 0.0
H490 H 0.25602 0.0375 0.14316 0.0
H491 H 0.36487 0.01364 0.14297 0.0
H492 H 0.37445 0.05712 0.13978 0.0
H493 H 0.35294 0.02851 0.09997 0.0
C494 C 0.35552 0.11571 0.07805 0.0
C495 C 0.34311 0.10494 0.03979 0.0
C496 C 0.34137 0.09359 0.10983 0.0
C497 C 0.31454 0.06039 0.10397 0.0
C498 C 0.30113 0.04991 0.06619 0.0
H499 H 0.25111 0.8864 0.25542 0.0
H500 H 0.26321 0.92432 0.19941 0.0
C501 C 0.31539 0.07198 0.03429 0.0
C502 C 0.30229 0.03592 0.13685 0.0
H503 H 0.32461 0.98837 0.19363 0.0
C504 C 0.27089 0.02667 0.15427 0.0
C505 C 0.32175 0.02176 0.15087 0.0
C506 C 0.35533 0.03048 0.13243 0.0
C507 C 0.25863 1.00378 0.18595 0.0
C508 C 0.2784 0.99006 0.20038 0.0
C509 C 0.30958 0.99904 0.18252 0.0
C510 C 0.26738 0.96619 0.23392 0.0
C511 C 0.22452 0.9941 0.20348 0.0
C512 C 0.26546 0.97713 0.27186 0.0
C513 C 0.25847 0.95546 0.30401 0.0
C514 C 0.25326 0.92248 0.29872 0.0
C515 C 0.25438 0.91139 0.26048 0.0
C516 C 0.26152 0.9331 0.22844 0.0
H517 H 0.20949 1.0013 0.18409 0.0
H518 H 0.20968 0.96633 0.20913 0.0
H519 H 0.22836 1.00738 0.23197 0.0
H520 H 0.27042 1.00277 0.27674 0.0
H521 H 0.25768 0.96468 0.33309 0.0
H522 H 0.34311 0.24194 0.90361 0.0
H523 H 0.33169 0.28389 0.93301 0.0
H524 H 0.43139 0.33404 0.98538 0.0
H525 H 0.44286 0.29118 0.95634 0.0
H526 H 0.3833 0.32248 0.03875 0.0
H527 H 0.36011 0.38091 0.90976 0.0
H528 H 0.33505 0.33558 0.90617 0.0
H529 H 0.38075 0.35586 0.90588 0.0
C530 C 0.36297 0.26221 0.92076 0.0
C531 C 0.39392 0.26315 0.92761 0.0
C532 C 0.35648 0.28648 0.93731 0.0
C533 C 0.38084 0.31261 0.96093 0.0
C534 C 0.4123 0.31433 0.96694 0.0
H535 H 0.2971 0.43757 0.05348 0.0
H536 H 0.34 0.42607 0.02479 0.0
C537 C 0.4189 0.28993 0.95019 0.0
C538 C 0.37147 0.33539 0.98233 0.0
H539 H 0.32962 0.37962 0.96952 0.0
C540 C 0.37233 0.33569 0.02354 0.0
C541 C 0.35781 0.35339 0.96278 0.0
C542 C 0.35875 0.35673 0.91869 0.0
C543 C 0.35731 0.35089 0.04555 0.0
C544 C 0.34026 0.36553 0.02589 0.0
C545 C 0.34206 0.36788 0.98476 0.0
C546 C 0.31708 0.37458 0.04689 0.0
C547 C 0.35905 0.35022 0.08973 0.0
C548 C 0.29004 0.34966 0.06899 0.0
C549 C 0.26573 0.35616 0.08536 0.0
C550 C 0.26753 0.3877 0.0798 0.0
C551 C 0.29512 0.41312 0.0586 0.0
C552 C 0.31957 0.40652 0.04206 0.0
H553 H 0.38269 0.35088 0.09946 0.0
H554 H 0.35806 0.37197 0.1032 0.0
H555 H 0.33727 0.32624 0.1008 0.0
H556 H 0.28688 0.32453 0.07232 0.0
H557 H 0.24483 0.33594 0.1014 0.0
H558 H 0.79748 0.11179 0.57194 0.0
H559 H 0.75662 0.05773 0.60096 0.0
H560 H 0.70324 0.10423 0.65277 0.0
H561 H 0.74493 0.15922 0.62416 0.0
H562 H 0.71544 0.06793 0.70614 0.0
H563 H 0.66054 0.9877 0.57519 0.0
H564 H 0.70596 1.00897 0.57296 0.0
H565 H 0.68471 0.0335 0.5723 0.0
C566 C 0.77676 0.11057 0.58894 0.0
C567 C 0.77454 0.13994 0.59567 0.0
C568 C 0.75314 0.07941 0.60529 0.0
C569 C 0.72638 0.07657 0.62856 0.0
C570 C 0.72347 0.10566 0.63461 0.0
H571 H 0.59888 0.86672 0.71692 0.0
H572 H 0.61209 0.92173 0.68844 0.0
C573 C 0.74722 0.13705 0.6181 0.0
C574 C 0.70386 0.04395 0.64928 0.0
H575 H 0.66032 0.958 0.63489 0.0
C576 C 0.70274 0.04394 0.69049 0.0
C577 C 0.68653 1.01252 0.6291 0.0
C578 C 0.68418 1.01071 0.58493 0.0
C579 C 0.68717 0.0134 0.71194 0.0
C580 C 0.67297 0.98197 0.69175 0.0
C581 C 0.67167 0.98198 0.65056 0.0
C582 C 0.66295 0.94934 0.71241 0.0
C583 C 0.68683 0.01522 0.75613 0.0
C584 C 0.68694 0.94646 0.73551 0.0
C585 C 0.67945 0.91528 0.75179 0.0
C586 C 0.64784 0.88593 0.74515 0.0
C587 C 0.62336 0.88887 0.72289 0.0
C588 C 0.63094 0.92027 0.70646 0.0
H589 H 0.68625 0.03824 0.76597 0.0
H590 H 0.66465 0.99244 0.76885 0.0
H591 H 0.7104 0.01694 0.76791 0.0
H592 H 0.7121 0.96812 0.73975 0.0
H593 H 0.69899 0.91402 0.76865 0.0
H594 H 0.16681 0.73518 0.38673 0.0
H595 H 0.1128 0.69218 0.35731 0.0
H596 H 0.06409 0.74609 0.40154 0.0
H597 H 0.11707 0.78811 0.43158 0.0
H598 H 0.02291 0.67796 0.40797 0.0
H599 H 0.07711 0.71164 0.25726 0.0
H600 H 0.09714 0.69639 0.29056 0.0
H601 H 0.09964 0.73653 0.29959 0.0
C602 C 0.14439 0.73743 0.39076 0.0
C603 C 0.14637 0.7653 0.41118 0.0
C604 C 0.11361 0.71302 0.3736 0.0
C605 C 0.08445 0.71623 0.37649 0.0
C606 C 0.08615 0.74303 0.39869 0.0
H607 H 0.92316 0.69019 0.23927 0.0
H608 H 0.9764 0.70195 0.26931 0.0
C609 C 0.11663 0.7672 0.41578 0.0
C610 C 0.05245 0.69345 0.35488 0.0
H611 H 1.0184 0.67606 0.26258 0.0
C612 C 0.02191 0.67694 0.37616 0.0
C613 C 0.05116 0.69226 0.31334 0.0
C614 C 0.0829 0.71028 0.28866 0.0
C615 C 0.99016 0.66126 0.35721 0.0
C616 C 0.98885 0.66136 0.31568 0.0
C617 C 1.01941 0.67589 0.29439 0.0
C618 C 0.95674 0.65173 0.29412 0.0
C619 C 0.9584 0.64701 0.38191 0.0
C620 C 0.92789 0.61911 0.29689 0.0
C621 C 0.89697 0.61228 0.27977 0.0
C622 C 0.89452 0.63794 0.25945 0.0
C623 C 0.92395 0.66987 0.25497 0.0
C624 C 0.95458 0.67664 0.27206 0.0
H625 H 0.96412 0.65409 0.41335 0.0
H626 H 0.94133 0.65616 0.37112 0.0
H627 H 0.94452 0.61887 0.37989 0.0
H628 H 0.92906 0.59921 0.31306 0.0
H629 H 0.87479 0.58739 0.28369 0.0
H630 H 0.89591 0.20422 0.4243 0.0
H631 H 0.94213 0.22545 0.37637 0.0
H632 H 0.98509 0.32589 0.42609 0.0
H633 H 0.93911 0.30476 0.47421 0.0
H634 H 0.95906 0.27322 0.3201 0.0
H635 H 0.06709 0.3134 0.42265 0.0
H636 H 0.0235 0.28706 0.43783 0.0
H637 H 0.04156 0.33232 0.43343 0.0
C638 C 0.91525 0.23081 0.42509 0.0
C639 C 0.91387 0.25272 0.45327 0.0
C640 C 0.94171 0.24291 0.39773 0.0
C641 C 0.96741 0.27718 0.39793 0.0
C642 C 0.96608 0.29916 0.42595 0.0
H643 H 0.10275 0.38643 0.20365 0.0
H644 H 0.05689 0.36229 0.25193 0.0
C645 C 0.93972 0.28703 0.4535 0.0
C646 C 0.99483 0.29008 0.36788 0.0
H647 H 0.081 0.33156 0.35629 0.0
C648 C 0.98573 0.28584 0.32802 0.0
C649 C 0.02963 0.30615 0.37816 0.0
C650 C 0.04109 0.30973 0.42033 0.0
C651 C 1.0104 0.29769 0.29822 0.0
C652 C 0.04523 0.31494 0.30851 0.0
C653 C 0.05433 0.31866 0.34837 0.0
C654 C 0.07266 0.32912 0.27847 0.0
C655 C 0.99885 0.29104 0.256 0.0
C656 C 0.0973 0.31912 0.27774 0.0
C657 C 0.1237 0.33306 0.25027 0.0
C658 C 0.12607 0.35733 0.22291 0.0
C659 C 0.10132 0.36728 0.22367 0.0
C660 C 0.07503 0.35347 0.25132 0.0
H661 H 0.97243 0.26947 0.25336 0.0
H662 H 0.99945 0.31395 0.24373 0.0
H663 H 1.01576 0.28537 0.23797 0.0
H664 H 0.09608 0.30044 0.29844 0.0
H665 H 0.14222 0.32472 0.25031 0.0
H666 H 0.6458 0.71989 0.8665 0.0
H667 H 0.66932 0.69788 0.91533 0.0
H668 H 0.72755 0.79804 0.96551 0.0
H669 H 0.70392 0.82015 0.91691 0.0
H670 H 0.73413 0.71364 0.93146 0.0
H671 H 0.6786 0.74175 0.06102 0.0
H672 H 0.66578 0.74383 0.01146 0.0
H673 H 0.70421 0.77846 0.03133 0.0
C674 C 0.66383 0.73732 0.88767 0.0
C675 C 0.67284 0.77179 0.88791 0.0
C676 C 0.67714 0.72465 0.91573 0.0
C677 C 0.69969 0.74614 0.94463 0.0
C678 C 0.70947 0.78075 0.94424 0.0
H679 H 0.83001 0.70089 0.08984 0.0
H680 H 0.80698 0.72366 0.04128 0.0
C681 C 0.69603 0.79338 0.91635 0.0
C682 C 0.7132 0.7324 0.9749 0.0
H683 H 0.71934 0.72471 0.07394 0.0
C684 C 0.73081 0.71597 0.96261 0.0
C685 C 0.70841 0.73495 0.01557 0.0
C686 C 0.68793 0.75039 0.0307 0.0
C687 C 0.74424 0.70255 0.98981 0.0
C688 C 0.74061 0.7063 0.0305 0.0
C689 C 0.72249 0.72221 0.04278 0.0
C690 C 0.7549 0.69337 0.0608 0.0
C691 C 0.76156 0.68386 0.97462 0.0
C692 C 0.73357 0.66973 0.08894 0.0
C693 C 0.74675 0.65694 0.117 0.0
C694 C 0.78161 0.66756 0.1175 0.0
C695 C 0.80301 0.69181 0.08982 0.0
C696 C 0.78984 0.70475 0.06195 0.0
H697 H 0.75379 0.67488 0.94401 0.0
H698 H 0.78944 0.70129 0.97475 0.0
H699 H 0.75576 0.66163 0.99339 0.0
H700 H 0.70654 0.66067 0.08874 0.0
H701 H 0.72947 0.63804 0.13753 0.0
H702 H 0.39089 0.09696 0.80455 0.0
H703 H 0.36785 0.05163 0.75547 0.0
H704 H 0.30629 0.09081 0.7081 0.0
H705 H 0.32938 0.13634 0.75705 0.0
H706 H 0.30304 1.00116 0.74036 0.0
H707 H 0.35535 0.08586 0.61102 0.0
H708 H 0.36859 0.10064 0.66055 0.0
H709 H 0.32942 0.09577 0.64178 0.0
C710 C 0.37221 0.09578 0.78399 0.0
C711 C 0.36207 0.1204 0.78466 0.0
C712 C 0.35919 0.06993 0.75577 0.0
C713 C 0.33582 0.06817 0.72759 0.0
C714 C 0.32497 0.09216 0.72884 0.0
H715 H 0.20802 0.89219 0.58153 0.0
H716 H 0.23022 0.9378 0.63036 0.0
C717 C 0.3381 0.11811 0.75691 0.0
C718 C 0.32263 0.04106 0.69715 0.0
H719 H 0.3161 0.02769 0.59802 0.0
C720 C 0.30596 1.00696 0.70924 0.0
C721 C 0.32691 0.04863 0.65652 0.0
C722 C 0.34633 0.0847 0.6416 0.0
C723 C 0.29299 0.98023 0.68187 0.0
C724 C 0.29616 0.98779 0.64124 0.0
C725 C 0.31331 0.0219 0.62915 0.0
C726 C 0.28238 0.96068 0.61081 0.0
C727 C 0.27664 0.94417 0.69677 0.0
C728 C 0.30404 0.95902 0.58264 0.0
C729 C 0.29135 0.93311 0.55449 0.0
C730 C 0.25666 0.90832 0.55389 0.0
C731 C 0.23492 0.91054 0.58161 0.0
C732 C 0.2476 0.93654 0.60961 0.0
H733 H 0.28456 0.94308 0.72734 0.0
H734 H 0.24864 0.93289 0.69662 0.0
H735 H 0.28314 0.92837 0.67781 0.0
H736 H 0.33095 0.97743 0.5829 0.0
H737 H 0.30891 0.932 0.53395 0.0
loop_
_geom_bond_atom_site_label_1
_geom_bond_atom_site_label_2
_geom_bond_distance
_geom_bond_site_symmetry_2
_ccdc_geom_bond_type
C0 C1 1.351 1_554 S
C0 N3 1.368 . S
C0 H5 0.931 . S
C1 C0 1.351 1_556 S
C1 N2 1.373 . S
C1 H29 0.930 . S
N2 C1 1.373 . S
N2 C4 1.340 1_556 S
N3 C0 1.368 . S
N3 C4 1.321 . S
N3 Co6 2.135 . S
C4 N2 1.340 1_554 S
C4 N3 1.321 . S
C4 H28 0.930 . S
H5 C0 0.931 . S
Co6 N3 2.135 . S
Co6 N9 2.121 . S
Co6 O14 2.055 . S
Co6 O17 2.039 . S
Co6 N20 2.140 . S
C7 O8 1.227 . S
C7 O17 1.265 . S
O8 C7 1.227 . S
N9 Co6 2.121 . S
N9 C11 1.375 . S
N9 C12 1.313 . S
C10 C11 1.338 . S
C10 N13 1.377 . S
C10 H30 0.930 . S
C11 N9 1.375 . S
C11 C10 1.338 . S
C11 H15 0.931 . S
C12 N9 1.313 . S
C12 N13 1.344 . S
C12 H16 0.930 . S
N13 C10 1.377 . S
N13 C12 1.344 . S
O14 Co6 2.055 . S
O14 C18 1.253 . S
H15 C11 0.931 . S
H16 C12 0.930 . S
O17 Co6 2.039 . S
O17 C7 1.265 . S
C18 O14 1.253 . S
C18 O19 1.227 . S
O19 C18 1.227 . S
N20 Co6 2.140 . S
N20 C23 1.346 1_554 S
N20 C24 1.345 . S
C21 C22 1.387 . S
C21 C25 1.391 1_556 S
C22 C21 1.387 . S
C22 C23 1.369 . S
C22 H31 0.929 . S
C23 N20 1.346 1_556 S
C23 C22 1.369 . S
C23 H26 0.928 . S
C24 N20 1.345 . S
C24 C25 1.371 . S
C24 H27 0.931 . S
C25 C21 1.391 1_554 S
C25 C24 1.371 . S
C25 H32 0.930 . S
H26 C23 0.928 . S
H27 C24 0.931 . S
H28 C4 0.930 . S
H29 C1 0.930 . S
H30 C10 0.930 . S
H31 C22 0.929 . S
H32 C25 0.930 . S
C33 C34 1.351 . S
C33 N36 1.368 . S
C33 H38 0.931 . S
C34 C33 1.351 . S
C34 N35 1.373 . S
C34 H62 0.930 . S
N35 C34 1.373 . S
N35 C37 1.340 . S
N36 C33 1.368 . S
N36 C37 1.321 . S
N36 Co39 2.135 . S
C37 N35 1.340 . S
C37 N36 1.321 . S
C37 H61 0.930 . S
H38 C33 0.931 . S
Co39 N36 2.135 . S
Co39 N42 2.121 . S
Co39 O47 2.055 . S
Co39 O50 2.039 . S
Co39 N53 2.140 . S
C40 O41 1.227 . S
C40 O50 1.265 . S
O41 C40 1.227 . S
N42 Co39 2.121 . S
N42 C44 1.375 . S
N42 C45 1.313 . S
C43 C44 1.338 . S
C43 N46 1.377 . S
C43 H63 0.930 . S
C44 N42 1.375 . S
C44 C43 1.338 . S
C44 H48 0.931 . S
C45 N42 1.313 . S
C45 N46 1.344 . S
C45 H49 0.930 . S
N46 C43 1.377 . S
N46 C45 1.344 . S
O47 Co39 2.055 . S
O47 C51 1.253 . S
H48 C44 0.931 . S
H49 C45 0.930 . S
O50 Co39 2.039 . S
O50 C40 1.265 . S
C51 O47 1.253 . S
C51 O52 1.227 . S
O52 C51 1.227 . S
N53 Co39 2.140 . S
N53 C56 1.346 . S
N53 C57 1.345 . S
C54 C55 1.387 . S
C54 C58 1.391 . S
C55 C54 1.387 . S
C55 C56 1.369 . S
C55 H64 0.929 . S
C56 N53 1.346 . S
C56 C55 1.369 . S
C56 H59 0.928 . S
C57 N53 1.345 . S
C57 C58 1.371 . S
C57 H60 0.931 . S
C58 C54 1.391 . S
C58 C57 1.371 . S
C58 H65 0.930 . S
H59 C56 0.928 . S
H60 C57 0.931 . S
H61 C37 0.930 . S
H62 C34 0.930 . S
H63 C43 0.930 . S
H64 C55 0.929 . S
H65 C58 0.930 . S
C66 C67 1.351 . S
C66 N69 1.368 . S
C66 H71 0.931 . S
C67 C66 1.351 . S
C67 N68 1.373 . S
C67 H95 0.930 . S
N68 C67 1.373 . S
N68 C70 1.340 . S
N69 C66 1.368 . S
N69 C70 1.321 . S
N69 Co72 2.135 . S
C70 N68 1.340 . S
C70 N69 1.321 . S
C70 H94 0.930 . S
H71 C66 0.931 . S
Co72 N69 2.135 . S
Co72 N75 2.121 . S
Co72 O80 2.055 . S
Co72 O83 2.039 . S
Co72 N86 2.140 . S
C73 O74 1.227 . S
C73 O83 1.265 . S
O74 C73 1.227 . S
N75 Co72 2.121 . S
N75 C77 1.375 . S
N75 C78 1.313 . S
C76 C77 1.338 . S
C76 N79 1.377 . S
C76 H96 0.930 . S
C77 N75 1.375 . S
C77 C76 1.338 . S
C77 H81 0.931 . S
C78 N75 1.313 . S
C78 N79 1.344 . S
C78 H82 0.930 . S
N79 C76 1.377 . S
N79 C78 1.344 . S
O80 Co72 2.055 . S
O80 C84 1.253 . S
H81 C77 0.931 . S
H82 C78 0.930 . S
O83 Co72 2.039 . S
O83 C73 1.265 . S
C84 O80 1.253 . S
C84 O85 1.227 . S
O85 C84 1.227 . S
N86 Co72 2.140 . S
N86 C89 1.346 . S
N86 C90 1.345 . S
C87 C88 1.387 . S
C87 C91 1.391 . S
C88 C87 1.387 . S
C88 C89 1.369 . S
C88 H97 0.929 . S
C89 N86 1.346 . S
C89 C88 1.369 . S
C89 H92 0.928 . S
C90 N86 1.345 . S
C90 C91 1.371 . S
C90 H93 0.931 . S
C91 C87 1.391 . S
C91 C90 1.371 . S
C91 H98 0.930 . S
H92 C89 0.928 . S
H93 C90 0.931 . S
H94 C70 0.930 . S
H95 C67 0.930 . S
H96 C76 0.930 . S
H97 C88 0.929 . S
H98 C91 0.930 . S
C99 C100 1.351 1_556 S
C99 N102 1.368 . S
C99 H104 0.931 . S
C100 C99 1.351 1_554 S
C100 N101 1.373 . S
C100 H128 0.930 . S
N101 C100 1.373 . S
N101 C103 1.340 1_554 S
N102 C99 1.368 . S
N102 C103 1.321 . S
N102 Co105 2.135 . S
C103 N101 1.340 1_556 S
C103 N102 1.321 . S
C103 H127 0.930 . S
H104 C99 0.931 . S
Co105 N102 2.135 . S
Co105 N108 2.121 . S
Co105 O113 2.055 . S
Co105 O116 2.039 . S
Co105 N119 2.140 . S
C106 O107 1.227 . S
C106 O116 1.265 . S
O107 C106 1.227 . S
N108 Co105 2.121 . S
N108 C110 1.375 . S
N108 C111 1.313 . S
C109 C110 1.338 . S
C109 N112 1.377 . S
C109 H129 0.930 . S
C110 N108 1.375 . S
C110 C109 1.338 . S
C110 H114 0.931 . S
C111 N108 1.313 . S
C111 N112 1.344 . S
C111 H115 0.930 . S
N112 C109 1.377 . S
N112 C111 1.344 . S
O113 Co105 2.055 . S
O113 C117 1.253 . S
H114 C110 0.931 . S
H115 C111 0.930 . S
O116 Co105 2.039 . S
O116 C106 1.265 . S
C117 O113 1.253 . S
C117 O118 1.227 . S
O118 C117 1.227 . S
N119 Co105 2.140 . S
N119 C122 1.346 1_556 S
N119 C123 1.345 . S
C120 C121 1.387 . S
C120 C124 1.391 1_554 S
C121 C120 1.387 . S
C121 C122 1.369 . S
C121 H130 0.929 . S
C122 N119 1.346 1_554 S
C122 C121 1.369 . S
C122 H125 0.928 . S
C123 N119 1.345 . S
C123 C124 1.371 . S
C123 H126 0.931 . S
C124 C120 1.391 1_556 S
C124 C123 1.371 . S
C124 H131 0.930 . S
H125 C122 0.928 . S
H126 C123 0.931 . S
H127 C103 0.930 . S
H128 C100 0.930 . S
H129 C109 0.930 . S
H130 C121 0.929 . S
H131 C124 0.930 . S
C132 C133 1.351 . S
C132 N135 1.368 . S
C132 H137 0.931 . S
C133 C132 1.351 . S
C133 N134 1.373 . S
C133 H161 0.930 . S
N134 C133 1.373 . S
N134 C136 1.340 . S
N135 C132 1.368 . S
N135 C136 1.321 . S
N135 Co138 2.135 . S
C136 N134 1.340 . S
C136 N135 1.321 . S
C136 H160 0.930 . S
H137 C132 0.931 . S
Co138 N135 2.135 . S
Co138 N141 2.121 . S
Co138 O146 2.055 . S
Co138 O149 2.039 . S
Co138 N152 2.140 . S
C139 O140 1.227 . S
C139 O149 1.265 . S
O140 C139 1.227 . S
N141 Co138 2.121 . S
N141 C143 1.375 . S
N141 C144 1.313 . S
C142 C143 1.338 . S
C142 N145 1.377 . S
C142 H162 0.930 . S
C143 N141 1.375 . S
C143 C142 1.338 . S
C143 H147 0.931 . S
C144 N141 1.313 . S
C144 N145 1.344 . S
C144 H148 0.930 . S
N145 C142 1.377 . S
N145 C144 1.344 . S
O146 Co138 2.055 . S
O146 C150 1.253 . S
H147 C143 0.931 . S
H148 C144 0.930 . S
O149 Co138 2.039 . S
O149 C139 1.265 . S
C150 O146 1.253 . S
C150 O151 1.227 . S
O151 C150 1.227 . S
N152 Co138 2.140 . S
N152 C155 1.346 . S
N152 C156 1.345 . S
C153 C154 1.387 . S
C153 C157 1.391 . S
C154 C153 1.387 . S
C154 C155 1.369 . S
C154 H163 0.929 . S
C155 N152 1.346 . S
C155 C154 1.369 . S
C155 H158 0.928 . S
C156 N152 1.345 . S
C156 C157 1.371 . S
C156 H159 0.931 . S
C157 C153 1.391 . S
C157 C156 1.371 . S
C157 H164 0.930 . S
H158 C155 0.928 . S
H159 C156 0.931 . S
H160 C136 0.930 . S
H161 C133 0.930 . S
H162 C142 0.930 . S
H163 C154 0.929 . S
H164 C157 0.930 . S
C165 C166 1.351 . S
C165 N168 1.368 . S
C165 H170 0.931 . S
C166 C165 1.351 . S
C166 N167 1.373 . S
C166 H194 0.930 . S
N167 C166 1.373 . S
N167 C169 1.340 . S
N168 C165 1.368 . S
N168 C169 1.321 . S
N168 Co171 2.135 . S
C169 N167 1.340 . S
C169 N168 1.321 . S
C169 H193 0.930 . S
H170 C165 0.931 . S
Co171 N168 2.135 . S
Co171 N174 2.121 . S
Co171 O179 2.055 . S
Co171 O182 2.039 . S
Co171 N185 2.140 . S
C172 O173 1.227 . S
C172 O182 1.265 . S
O173 C172 1.227 . S
N174 Co171 2.121 . S
N174 C176 1.375 . S
N174 C177 1.313 . S
C175 C176 1.338 . S
C175 N178 1.377 . S
C175 H195 0.930 . S
C176 N174 1.375 . S
C176 C175 1.338 . S
C176 H180 0.931 . S
C177 N174 1.313 . S
C177 N178 1.344 . S
C177 H181 0.930 . S
N178 C175 1.377 . S
N178 C177 1.344 . S
O179 Co171 2.055 . S
O179 C183 1.253 . S
H180 C176 0.931 . S
H181 C177 0.930 . S
O182 Co171 2.039 . S
O182 C172 1.265 . S
C183 O179 1.253 . S
C183 O184 1.227 . S
O184 C183 1.227 . S
N185 Co171 2.140 . S
N185 C188 1.346 . S
N185 C189 1.345 . S
C186 C187 1.387 . S
C186 C190 1.391 . S
C187 C186 1.387 . S
C187 C188 1.369 . S
C187 H196 0.929 . S
C188 N185 1.346 . S
C188 C187 1.369 . S
C188 H191 0.928 . S
C189 N185 1.345 . S
C189 C190 1.371 . S
C189 H192 0.931 . S
C190 C186 1.391 . S
C190 C189 1.371 . S
C190 H197 0.930 . S
H191 C188 0.928 . S
H192 C189 0.931 . S
H193 C169 0.930 . S
H194 C166 0.930 . S
H195 C175 0.930 . S
H196 C187 0.929 . S
H197 C190 0.930 . S
H198 C206 0.929 . S
H199 C208 0.930 . S
H200 C210 0.930 . S
H201 C213 0.929 . S
H202 C216 0.930 . S
H203 C218 0.960 . S
H204 C218 0.960 . S
H205 C218 0.960 . S
C206 H198 0.929 . S
C206 C207 1.377 . S
C206 C208 1.384 . S
C207 C206 1.377 . S
C207 C213 1.390 . S
C208 H199 0.930 . S
C208 C206 1.384 . S
C208 C209 1.372 . S
C209 C208 1.372 . S
C209 C210 1.400 . S
C209 C214 1.490 . S
C210 H200 0.930 . S
C210 C209 1.400 . S
C210 C213 1.386 . S
H211 C227 0.930 . S
H212 C228 0.931 . S
C213 H201 0.929 . S
C213 C207 1.390 . S
C213 C210 1.386 . S
C214 C209 1.490 . S
C214 C216 1.395 . S
C214 C217 1.403 . S
H215 C221 0.930 . S
C216 H202 0.930 . S
C216 C214 1.395 . S
C216 C219 1.403 . S
C217 C214 1.403 . S
C217 C218 1.524 . S
C217 C221 1.400 . S
C218 H203 0.960 . S
C218 H204 0.960 . S
C218 H205 0.960 . S
C218 C217 1.524 . S
C219 C216 1.403 . S
C219 C220 1.392 . S
C219 C223 1.495 . S
C220 C219 1.392 . S
C220 C221 1.385 . S
C220 C222 1.478 . S
C221 H215 0.930 . S
C221 C217 1.400 . S
C221 C220 1.385 . S
C222 C220 1.478 . S
C222 C224 1.381 . S
C222 C228 1.383 . S
C223 C219 1.495 . S
C223 H229 0.959 . S
C223 H230 0.961 . S
C223 H231 0.960 . S
C224 C222 1.381 . S
C224 C225 1.394 . S
C224 H232 0.930 . S
C225 C224 1.394 . S
C225 C226 1.383 . S
C225 H233 0.929 . S
C226 C225 1.383 . S
C226 C227 1.377 . S
C227 H211 0.930 . S
C227 C226 1.377 . S
C227 C228 1.379 . S
C228 H212 0.931 . S
C228 C222 1.383 . S
C228 C227 1.379 . S
H229 C223 0.959 . S
H230 C223 0.961 . S
H231 C223 0.960 . S
H232 C224 0.930 . S
H233 C225 0.929 . S
H234 C242 0.929 . S
H235 C244 0.930 . S
H236 C246 0.930 . S
H237 C249 0.929 . S
H238 C252 0.930 . S
H239 C254 0.960 . S
H240 C254 0.960 . S
H241 C254 0.960 . S
C242 H234 0.929 . S
C242 C243 1.377 . S
C242 C244 1.384 . S
C243 C242 1.377 . S
C243 C249 1.390 . S
C244 H235 0.930 . S
C244 C242 1.384 . S
C244 C245 1.372 . S
C245 C244 1.372 . S
C245 C246 1.400 . S
C245 C250 1.490 . S
C246 H236 0.930 . S
C246 C245 1.400 . S
C246 C249 1.386 . S
H247 C263 0.930 1_554 S
H248 C264 0.931 . S
C249 H237 0.929 . S
C249 C243 1.390 . S
C249 C246 1.386 . S
C250 C245 1.490 . S
C250 C252 1.395 . S
C250 C253 1.403 . S
H251 C257 0.930 . S
C252 H238 0.930 . S
C252 C250 1.395 . S
C252 C255 1.403 . S
C253 C250 1.403 . S
C253 C254 1.524 . S
C253 C257 1.400 . S
C254 H239 0.960 . S
C254 H240 0.960 . S
C254 H241 0.960 . S
C254 C253 1.524 . S
C255 C252 1.403 . S
C255 C256 1.392 . S
C255 C259 1.495 . S
C256 C255 1.392 . S
C256 C257 1.385 . S
C256 C258 1.478 . S
C257 H251 0.930 . S
C257 C253 1.400 . S
C257 C256 1.385 . S
C258 C256 1.478 . S
C258 C260 1.381 . S
C258 C264 1.383 . S
C259 C255 1.495 . S
C259 H265 0.959 . S
C259 H266 0.961 . S
C259 H267 0.960 . S
C260 C258 1.381 . S
C260 C261 1.394 . S
C260 H268 0.930 . S
C261 C260 1.394 . S
C261 C262 1.383 . S
C261 H269 0.929 . S
C262 C261 1.383 . S
C262 C263 1.377 . S
C263 H247 0.930 1_556 S
C263 C262 1.377 . S
C263 C264 1.379 . S
C264 H248 0.931 . S
C264 C258 1.383 . S
C264 C263 1.379 . S
H265 C259 0.959 . S
H266 C259 0.961 . S
H267 C259 0.960 . S
H268 C260 0.930 . S
H269 C261 0.929 . S
H270 C278 0.929 . S
H271 C280 0.930 . S
H272 C282 0.930 . S
H273 C285 0.929 . S
H274 C288 0.930 . S
H275 C290 0.960 . S
H276 C290 0.960 . S
H277 C290 0.960 . S
C278 H270 0.929 . S
C278 C279 1.377 . S
C278 C280 1.384 . S
C279 C278 1.377 . S
C279 C285 1.390 . S
C280 H271 0.930 . S
C280 C278 1.384 . S
C280 C281 1.372 . S
C281 C280 1.372 . S
C281 C282 1.400 . S
C281 C286 1.490 . S
C282 H272 0.930 . S
C282 C281 1.400 . S
C282 C285 1.386 . S
H283 C299 0.930 . S
H284 C300 0.931 . S
C285 H273 0.929 . S
C285 C279 1.390 . S
C285 C282 1.386 . S
C286 C281 1.490 . S
C286 C288 1.395 . S
C286 C289 1.403 . S
H287 C293 0.930 . S
C288 H274 0.930 . S
C288 C286 1.395 . S
C288 C291 1.403 . S
C289 C286 1.403 . S
C289 C290 1.524 . S
C289 C293 1.400 . S
C290 H275 0.960 . S
C290 H276 0.960 . S
C290 H277 0.960 . S
C290 C289 1.524 . S
C291 C288 1.403 . S
C291 C292 1.392 . S
C291 C295 1.495 . S
C292 C291 1.392 . S
C292 C293 1.385 . S
C292 C294 1.478 . S
C293 H287 0.930 . S
C293 C289 1.400 . S
C293 C292 1.385 . S
C294 C292 1.478 . S
C294 C296 1.381 . S
C294 C300 1.383 . S
C295 C291 1.495 . S
C295 H301 0.959 . S
C295 H302 0.961 . S
C295 H303 0.960 . S
C296 C294 1.381 . S
C296 C297 1.394 . S
C296 H304 0.930 . S
C297 C296 1.394 . S
C297 C298 1.383 . S
C297 H305 0.929 . S
C298 C297 1.383 . S
C298 C299 1.377 . S
C299 H283 0.930 . S
C299 C298 1.377 . S
C299 C300 1.379 . S
C300 H284 0.931 . S
C300 C294 1.383 . S
C300 C299 1.379 . S
H301 C295 0.959 . S
H302 C295 0.961 . S
H303 C295 0.960 . S
H304 C296 0.930 . S
H305 C297 0.929 . S
H306 C314 0.929 . S
H307 C316 0.930 . S
H308 C318 0.930 . S
H309 C321 0.929 . S
H310 C324 0.930 . S
H311 C326 0.960 . S
H312 C326 0.960 . S
H313 C326 0.960 . S
C314 H306 0.929 . S
C314 C315 1.377 . S
C314 C316 1.384 . S
C315 C314 1.377 . S
C315 C321 1.390 . S
C316 H307 0.930 . S
C316 C314 1.384 . S
C316 C317 1.372 . S
C317 C316 1.372 . S
C317 C318 1.400 . S
C317 C322 1.490 . S
C318 H308 0.930 . S
C318 C317 1.400 . S
C318 C321 1.386 . S
H319 C335 0.930 . S
H320 C336 0.931 . S
C321 H309 0.929 . S
C321 C315 1.390 . S
C321 C318 1.386 . S
C322 C317 1.490 . S
C322 C324 1.395 . S
C322 C325 1.403 . S
H323 C329 0.930 . S
C324 H310 0.930 . S
C324 C322 1.395 . S
C324 C327 1.403 . S
C325 C322 1.403 . S
C325 C326 1.524 . S
C325 C329 1.400 . S
C326 H311 0.960 . S
C326 H312 0.960 . S
C326 H313 0.960 . S
C326 C325 1.524 . S
C327 C324 1.403 . S
C327 C328 1.392 . S
C327 C331 1.495 . S
C328 C327 1.392 . S
C328 C329 1.385 . S
C328 C330 1.478 . S
C329 H323 0.930 . S
C329 C325 1.400 . S
C329 C328 1.385 . S
C330 C328 1.478 . S
C330 C332 1.381 . S
C330 C336 1.383 . S
C331 C327 1.495 . S
C331 H337 0.959 . S
C331 H338 0.961 . S
C331 H339 0.960 . S
C332 C330 1.381 . S
C332 C333 1.394 . S
C332 H340 0.930 . S
C333 C332 1.394 . S
C333 C334 1.383 . S
C333 H341 0.929 . S
C334 C333 1.383 . S
C334 C335 1.377 . S
C335 H319 0.930 . S
C335 C334 1.377 . S
C335 C336 1.379 . S
C336 H320 0.931 . S
C336 C330 1.383 . S
C336 C335 1.379 . S
H337 C331 0.959 . S
H338 C331 0.961 . S
H339 C331 0.960 . S
H340 C332 0.930 . S
H341 C333 0.929 . S
H342 C350 0.929 . S
H343 C352 0.930 . S
H344 C354 0.930 . S
H345 C357 0.929 . S
H346 C360 0.930 . S
H347 C362 0.960 . S
H348 C362 0.960 . S
H349 C362 0.960 . S
C350 H342 0.929 . S
C350 C351 1.377 . S
C350 C352 1.384 . S
C351 C350 1.377 . S
C351 C357 1.390 . S
C352 H343 0.930 . S
C352 C350 1.384 . S
C352 C353 1.372 . S
C353 C352 1.372 . S
C353 C354 1.400 . S
C353 C358 1.490 . S
C354 H344 0.930 . S
C354 C353 1.400 . S
C354 C357 1.386 . S
H355 C371 0.930 . S
H356 C372 0.931 . S
C357 H345 0.929 . S
C357 C351 1.390 . S
C357 C354 1.386 . S
C358 C353 1.490 . S
C358 C360 1.395 . S
C358 C361 1.403 . S
H359 C365 0.930 . S
C360 H346 0.930 . S
C360 C358 1.395 . S
C360 C363 1.403 . S
C361 C358 1.403 . S
C361 C362 1.524 . S
C361 C365 1.400 . S
C362 H347 0.960 . S
C362 H348 0.960 . S
C362 H349 0.960 . S
C362 C361 1.524 . S
C363 C360 1.403 . S
C363 C364 1.392 . S
C363 C367 1.495 . S
C364 C363 1.392 . S
C364 C365 1.385 . S
C364 C366 1.478 . S
C365 H359 0.930 . S
C365 C361 1.400 . S
C365 C364 1.385 . S
C366 C364 1.478 . S
C366 C368 1.381 . S
C366 C372 1.383 . S
C367 C363 1.495 . S
C367 H373 0.959 . S
C367 H374 0.961 . S
C367 H375 0.960 . S
C368 C366 1.381 . S
C368 C369 1.394 . S
C368 H376 0.930 . S
C369 C368 1.394 . S
C369 C370 1.383 . S
C369 H377 0.929 . S
C370 C369 1.383 . S
C370 C371 1.377 . S
C371 H355 0.930 . S
C371 C370 1.377 . S
C371 C372 1.379 . S
C372 H356 0.931 . S
C372 C366 1.383 . S
C372 C371 1.379 . S
H373 C367 0.959 . S
H374 C367 0.961 . S
H375 C367 0.960 . S
H376 C368 0.930 . S
H377 C369 0.929 . S
H378 C386 0.929 . S
H379 C388 0.930 . S
H380 C390 0.930 . S
H381 C393 0.929 . S
H382 C396 0.930 . S
H383 C398 0.960 . S
H384 C398 0.960 . S
H385 C398 0.960 . S
C386 H378 0.929 . S
C386 C387 1.377 . S
C386 C388 1.384 . S
C387 C386 1.377 . S
C387 C393 1.390 . S
C388 H379 0.930 . S
C388 C386 1.384 . S
C388 C389 1.372 . S
C389 C388 1.372 . S
C389 C390 1.400 . S
C389 C394 1.490 . S
C390 H380 0.930 . S
C390 C389 1.400 . S
C390 C393 1.386 . S
H391 C407 0.930 . S
H392 C408 0.931 . S
C393 H381 0.929 . S
C393 C387 1.390 . S
C393 C390 1.386 . S
C394 C389 1.490 . S
C394 C396 1.395 . S
C394 C397 1.403 . S
H395 C401 0.930 . S
C396 H382 0.930 . S
C396 C394 1.395 . S
C396 C399 1.403 . S
C397 C394 1.403 . S
C397 C398 1.524 . S
C397 C401 1.400 . S
C398 H383 0.960 . S
C398 H384 0.960 . S
C398 H385 0.960 . S
C398 C397 1.524 . S
C399 C396 1.403 . S
C399 C400 1.392 . S
C399 C403 1.495 . S
C400 C399 1.392 . S
C400 C401 1.385 . S
C400 C402 1.478 . S
C401 H395 0.930 . S
C401 C397 1.400 . S
C401 C400 1.385 . S
C402 C400 1.478 . S
C402 C404 1.381 . S
C402 C408 1.383 . S
C403 C399 1.495 . S
C403 H409 0.959 . S
C403 H410 0.961 . S
C403 H411 0.960 . S
C404 C402 1.381 . S
C404 C405 1.394 . S
C404 H412 0.930 . S
C405 C404 1.394 . S
C405 C406 1.383 . S
C405 H413 0.929 . S
C406 C405 1.383 . S
C406 C407 1.377 . S
C407 H391 0.930 . S
C407 C406 1.377 . S
C407 C408 1.379 . S
C408 H392 0.931 . S
C408 C402 1.383 . S
C408 C407 1.379 . S
H409 C403 0.959 . S
H410 C403 0.961 . S
H411 C403 0.960 . S
H412 C404 0.930 . S
H413 C405 0.929 . S
H414 C422 0.929 . S
H415 C424 0.930 . S
H416 C426 0.930 . S
H417 C429 0.929 . S
H418 C432 0.930 . S
H419 C434 0.960 . S
H420 C434 0.960 . S
H421 C434 0.960 . S
C422 H414 0.929 . S
C422 C423 1.377 . S
C422 C424 1.384 . S
C423 C422 1.377 . S
C423 C429 1.390 . S
C424 H415 0.930 . S
C424 C422 1.384 . S
C424 C425 1.372 . S
C425 C424 1.372 . S
C425 C426 1.400 . S
C425 C430 1.490 . S
C426 H416 0.930 . S
C426 C425 1.400 . S
C426 C429 1.386 . S
H427 C443 0.930 . S
H428 C444 0.931 . S
C429 H417 0.929 . S
C429 C423 1.390 . S
C429 C426 1.386 . S
C430 C425 1.490 . S
C430 C432 1.395 1_655 S
C430 C433 1.403 . S
H431 C437 0.930 . S
C432 H418 0.930 . S
C432 C430 1.395 1_455 S
C432 C435 1.403 . S
C433 C430 1.403 . S
C433 C434 1.524 . S
C433 C437 1.400 . S
C434 H419 0.960 . S
C434 H420 0.960 . S
C434 H421 0.960 . S
C434 C433 1.524 . S
C435 C432 1.403 . S
C435 C436 1.392 . S
C435 C439 1.495 . S
C436 C435 1.392 . S
C436 C437 1.385 1_455 S
C436 C438 1.478 . S
C437 H431 0.930 . S
C437 C433 1.400 . S
C437 C436 1.385 1_655 S
C438 C436 1.478 . S
C438 C440 1.381 . S
C438 C444 1.383 . S
C439 C435 1.495 . S
C439 H445 0.959 . S
C439 H446 0.961 . S
C439 H447 0.960 . S
C440 C438 1.381 . S
C440 C441 1.394 . S
C440 H448 0.930 . S
C441 C440 1.394 . S
C441 C442 1.383 . S
C441 H449 0.929 . S
C442 C441 1.383 . S
C442 C443 1.377 . S
C443 H427 0.930 . S
C443 C442 1.377 . S
C443 C444 1.379 . S
C444 H428 0.931 . S
C444 C438 1.383 . S
C444 C443 1.379 . S
H445 C439 0.959 . S
H446 C439 0.961 . S
H447 C439 0.960 . S
H448 C440 0.930 . S
H449 C441 0.929 . S
H450 C458 0.929 . S
H451 C460 0.930 . S
H452 C462 0.930 . S
H453 C465 0.929 . S
H454 C468 0.930 . S
H455 C470 0.960 . S
H456 C470 0.960 . S
H457 C470 0.960 . S
C458 H450 0.929 . S
C458 C459 1.377 . S
C458 C460 1.384 . S
C459 C458 1.377 . S
C459 C465 1.390 . S
C460 H451 0.930 . S
C460 C458 1.384 . S
C460 C461 1.372 . S
C461 C460 1.372 . S
C461 C462 1.400 . S
C461 C466 1.490 . S
C462 H452 0.930 . S
C462 C461 1.400 . S
C462 C465 1.386 . S
H463 C479 0.930 . S
H464 C480 0.931 . S
C465 H453 0.929 . S
C465 C459 1.390 . S
C465 C462 1.386 . S
C466 C461 1.490 . S
C466 C468 1.395 . S
C466 C469 1.403 . S
H467 C473 0.930 . S
C468 H454 0.930 . S
C468 C466 1.395 . S
C468 C471 1.403 . S
C469 C466 1.403 . S
C469 C470 1.524 . S
C469 C473 1.400 . S
C470 H455 0.960 . S
C470 H456 0.960 . S
C470 H457 0.960 . S
C470 C469 1.524 . S
C471 C468 1.403 . S
C471 C472 1.392 . S
C471 C475 1.495 . S
C472 C471 1.392 . S
C472 C473 1.385 . S
C472 C474 1.478 . S
C473 H467 0.930 . S
C473 C469 1.400 . S
C473 C472 1.385 . S
C474 C472 1.478 . S
C474 C476 1.381 . S
C474 C480 1.383 . S
C475 C471 1.495 . S
C475 H481 0.959 . S
C475 H482 0.961 . S
C475 H483 0.960 . S
C476 C474 1.381 . S
C476 C477 1.394 . S
C476 H484 0.930 . S
C477 C476 1.394 . S
C477 C478 1.383 . S
C477 H485 0.929 . S
C478 C477 1.383 . S
C478 C479 1.377 . S
C479 H463 0.930 . S
C479 C478 1.377 . S
C479 C480 1.379 . S
C480 H464 0.931 . S
C480 C474 1.383 . S
C480 C479 1.379 . S
H481 C475 0.959 . S
H482 C475 0.961 . S
H483 C475 0.960 . S
H484 C476 0.930 . S
H485 C477 0.929 . S
H486 C494 0.929 . S
H487 C496 0.930 . S
H488 C498 0.930 . S
H489 C501 0.929 . S
H490 C504 0.930 . S
H491 C506 0.960 1_565 S
H492 C506 0.960 . S
H493 C506 0.960 . S
C494 H486 0.929 . S
C494 C495 1.377 . S
C494 C496 1.384 . S
C495 C494 1.377 . S
C495 C501 1.390 . S
C496 H487 0.930 . S
C496 C494 1.384 . S
C496 C497 1.372 . S
C497 C496 1.372 . S
C497 C498 1.400 . S
C497 C502 1.490 . S
C498 H488 0.930 . S
C498 C497 1.400 . S
C498 C501 1.386 . S
H499 C515 0.930 . S
H500 C516 0.931 . S
C501 H489 0.929 . S
C501 C495 1.390 . S
C501 C498 1.386 . S
C502 C497 1.490 . S
C502 C504 1.395 . S
C502 C505 1.403 . S
H503 C509 0.930 . S
C504 H490 0.930 . S
C504 C502 1.395 . S
C504 C507 1.403 1_545 S
C505 C502 1.403 . S
C505 C506 1.524 . S
C505 C509 1.400 1_545 S
C506 H491 0.960 1_545 S
C506 H492 0.960 . S
C506 H493 0.960 . S
C506 C505 1.524 . S
C507 C504 1.403 1_565 S
C507 C508 1.392 . S
C507 C511 1.495 . S
C508 C507 1.392 . S
C508 C509 1.385 . S
C508 C510 1.478 . S
C509 H503 0.930 . S
C509 C505 1.400 1_565 S
C509 C508 1.385 . S
C510 C508 1.478 . S
C510 C512 1.381 . S
C510 C516 1.383 . S
C511 C507 1.495 . S
C511 H517 0.959 1_565 S
C511 H518 0.961 . S
C511 H519 0.960 . S
C512 C510 1.381 . S
C512 C513 1.394 . S
C512 H520 0.930 . S
C513 C512 1.394 . S
C513 C514 1.383 . S
C513 H521 0.929 . S
C514 C513 1.383 . S
C514 C515 1.377 . S
C515 H499 0.930 . S
C515 C514 1.377 . S
C515 C516 1.379 . S
C516 H500 0.931 . S
C516 C510 1.383 . S
C516 C515 1.379 . S
H517 C511 0.959 1_545 S
H518 C511 0.961 . S
H519 C511 0.960 . S
H520 C512 0.930 . S
H521 C513 0.929 . S
H522 C530 0.929 . S
H523 C532 0.930 . S
H524 C534 0.930 1_554 S
H525 C537 0.929 . S
H526 C540 0.930 . S
H527 C542 0.960 . S
H528 C542 0.960 . S
H529 C542 0.960 . S
C530 H522 0.929 . S
C530 C531 1.377 . S
C530 C532 1.384 . S
C531 C530 1.377 . S
C531 C537 1.390 . S
C532 H523 0.930 . S
C532 C530 1.384 . S
C532 C533 1.372 . S
C533 C532 1.372 . S
C533 C534 1.400 . S
C533 C538 1.490 . S
C534 H524 0.930 1_556 S
C534 C533 1.400 . S
C534 C537 1.386 . S
H535 C551 0.930 . S
H536 C552 0.931 . S
C537 H525 0.929 . S
C537 C531 1.390 . S
C537 C534 1.386 . S
C538 C533 1.490 . S
C538 C540 1.395 1_556 S
C538 C541 1.403 . S
H539 C545 0.930 . S
C540 H526 0.930 . S
C540 C538 1.395 1_554 S
C540 C543 1.403 . S
C541 C538 1.403 . S
C541 C542 1.524 . S
C541 C545 1.400 . S
C542 H527 0.960 . S
C542 H528 0.960 . S
C542 H529 0.960 . S
C542 C541 1.524 . S
C543 C540 1.403 . S
C543 C544 1.392 . S
C543 C547 1.495 . S
C544 C543 1.392 . S
C544 C545 1.385 1_554 S
C544 C546 1.478 . S
C545 H539 0.930 . S
C545 C541 1.400 . S
C545 C544 1.385 1_556 S
C546 C544 1.478 . S
C546 C548 1.381 . S
C546 C552 1.383 . S
C547 C543 1.495 . S
C547 H553 0.959 . S
C547 H554 0.961 . S
C547 H555 0.960 . S
C548 C546 1.381 . S
C548 C549 1.394 . S
C548 H556 0.930 1_554 S
C549 C548 1.394 . S
C549 C550 1.383 . S
C549 H557 0.929 . S
C550 C549 1.383 . S
C550 C551 1.377 . S
C551 H535 0.930 . S
C551 C550 1.377 . S
C551 C552 1.379 . S
C552 H536 0.931 . S
C552 C546 1.383 . S
C552 C551 1.379 . S
H553 C547 0.959 . S
H554 C547 0.961 . S
H555 C547 0.960 . S
H556 C548 0.930 1_556 S
H557 C549 0.929 . S
H558 C566 0.929 . S
H559 C568 0.930 . S
H560 C570 0.930 . S
H561 C573 0.929 . S
H562 C576 0.930 . S
H563 C578 0.960 1_565 S
H564 C578 0.960 . S
H565 C578 0.960 . S
C566 H558 0.929 . S
C566 C567 1.377 . S
C566 C568 1.384 . S
C567 C566 1.377 . S
C567 C573 1.390 . S
C568 H559 0.930 . S
C568 C566 1.384 . S
C568 C569 1.372 . S
C569 C568 1.372 . S
C569 C570 1.400 . S
C569 C574 1.490 . S
C570 H560 0.930 . S
C570 C569 1.400 . S
C570 C573 1.386 . S
H571 C587 0.930 . S
H572 C588 0.931 . S
C573 H561 0.929 . S
C573 C567 1.390 . S
C573 C570 1.386 . S
C574 C569 1.490 . S
C574 C576 1.395 . S
C574 C577 1.403 . S
H575 C581 0.930 . S
C576 H562 0.930 . S
C576 C574 1.395 . S
C576 C579 1.403 1_545 S
C577 C574 1.403 . S
C577 C578 1.524 . S
C577 C581 1.400 1_545 S
C578 H563 0.960 1_545 S
C578 H564 0.960 . S
C578 H565 0.960 . S
C578 C577 1.524 . S
C579 C576 1.403 1_565 S
C579 C580 1.392 . S
C579 C583 1.495 . S
C580 C579 1.392 . S
C580 C581 1.385 . S
C580 C582 1.478 . S
C581 H575 0.930 . S
C581 C577 1.400 1_565 S
C581 C580 1.385 . S
C582 C580 1.478 . S
C582 C584 1.381 . S
C582 C588 1.383 . S
C583 C579 1.495 . S
C583 H589 0.959 1_565 S
C583 H590 0.961 . S
C583 H591 0.960 . S
C584 C582 1.381 . S
C584 C585 1.394 . S
C584 H592 0.930 . S
C585 C584 1.394 . S
C585 C586 1.383 . S
C585 H593 0.929 . S
C586 C585 1.383 . S
C586 C587 1.377 . S
C587 H571 0.930 . S
C587 C586 1.377 . S
C587 C588 1.379 . S
C588 H572 0.931 . S
C588 C582 1.383 . S
C588 C587 1.379 . S
H589 C583 0.959 1_545 S
H590 C583 0.961 . S
H591 C583 0.960 . S
H592 C584 0.930 . S
H593 C585 0.929 . S
H594 C602 0.929 . S
H595 C604 0.930 . S
H596 C606 0.930 . S
H597 C609 0.929 . S
H598 C612 0.930 . S
H599 C614 0.960 . S
H600 C614 0.960 . S
H601 C614 0.960 . S
C602 H594 0.929 . S
C602 C603 1.377 . S
C602 C604 1.384 . S
C603 C602 1.377 . S
C603 C609 1.390 . S
C604 H595 0.930 . S
C604 C602 1.384 . S
C604 C605 1.372 . S
C605 C604 1.372 . S
C605 C606 1.400 . S
C605 C610 1.490 . S
C606 H596 0.930 . S
C606 C605 1.400 . S
C606 C609 1.386 . S
H607 C623 0.930 . S
H608 C624 0.931 . S
C609 H597 0.929 . S
C609 C603 1.390 . S
C609 C606 1.386 . S
C610 C605 1.490 . S
C610 C612 1.395 . S
C610 C613 1.403 . S
H611 C617 0.930 . S
C612 H598 0.930 . S
C612 C610 1.395 . S
C612 C615 1.403 1_455 S
C613 C610 1.403 . S
C613 C614 1.524 . S
C613 C617 1.400 1_455 S
C614 H599 0.960 . S
C614 H600 0.960 . S
C614 H601 0.960 . S
C614 C613 1.524 . S
C615 C612 1.403 1_655 S
C615 C616 1.392 . S
C615 C619 1.495 . S
C616 C615 1.392 . S
C616 C617 1.385 . S
C616 C618 1.478 . S
C617 H611 0.930 . S
C617 C613 1.400 1_655 S
C617 C616 1.385 . S
C618 C616 1.478 . S
C618 C620 1.381 . S
C618 C624 1.383 . S
C619 C615 1.495 . S
C619 H625 0.959 . S
C619 H626 0.961 . S
C619 H627 0.960 . S
C620 C618 1.381 . S
C620 C621 1.394 . S
C620 H628 0.930 . S
C621 C620 1.394 . S
C621 C622 1.383 . S
C621 H629 0.929 . S
C622 C621 1.383 . S
C622 C623 1.377 . S
C623 H607 0.930 . S
C623 C622 1.377 . S
C623 C624 1.379 . S
C624 H608 0.931 . S
C624 C618 1.383 . S
C624 C623 1.379 . S
H625 C619 0.959 . S
H626 C619 0.961 . S
H627 C619 0.960 . S
H628 C620 0.930 . S
H629 C621 0.929 . S
H630 C638 0.929 . S
H631 C640 0.930 . S
H632 C642 0.930 . S
H633 C645 0.929 . S
H634 C648 0.930 . S
H635 C650 0.960 . S
H636 C650 0.960 . S
H637 C650 0.960 . S
C638 H630 0.929 . S
C638 C639 1.377 . S
C638 C640 1.384 . S
C639 C638 1.377 . S
C639 C645 1.390 . S
C640 H631 0.930 . S
C640 C638 1.384 . S
C640 C641 1.372 . S
C641 C640 1.372 . S
C641 C642 1.400 . S
C641 C646 1.490 . S
C642 H632 0.930 . S
C642 C641 1.400 . S
C642 C645 1.386 . S
H643 C659 0.930 . S
H644 C660 0.931 . S
C645 H633 0.929 . S
C645 C639 1.390 . S
C645 C642 1.386 . S
C646 C641 1.490 . S
C646 C648 1.395 . S
C646 C649 1.403 1_655 S
H647 C653 0.930 . S
C648 H634 0.930 . S
C648 C646 1.395 . S
C648 C651 1.403 . S
C649 C646 1.403 1_455 S
C649 C650 1.524 . S
C649 C653 1.400 . S
C650 H635 0.960 . S
C650 H636 0.960 . S
C650 H637 0.960 . S
C650 C649 1.524 . S
C651 C648 1.403 . S
C651 C652 1.392 1_655 S
C651 C655 1.495 . S
C652 C651 1.392 1_455 S
C652 C653 1.385 . S
C652 C654 1.478 . S
C653 H647 0.930 . S
C653 C649 1.400 . S
C653 C652 1.385 . S
C654 C652 1.478 . S
C654 C656 1.381 . S
C654 C660 1.383 . S
C655 C651 1.495 . S
C655 H661 0.959 . S
C655 H662 0.961 . S
C655 H663 0.960 . S
C656 C654 1.381 . S
C656 C657 1.394 . S
C656 H664 0.930 . S
C657 C656 1.394 . S
C657 C658 1.383 . S
C657 H665 0.929 . S
C658 C657 1.383 . S
C658 C659 1.377 . S
C659 H643 0.930 . S
C659 C658 1.377 . S
C659 C660 1.379 . S
C660 H644 0.931 . S
C660 C654 1.383 . S
C660 C659 1.379 . S
H661 C655 0.959 . S
H662 C655 0.961 . S
H663 C655 0.960 . S
H664 C656 0.930 . S
H665 C657 0.929 . S
H666 C674 0.929 . S
H667 C676 0.930 . S
H668 C678 0.930 . S
H669 C681 0.929 . S
H670 C684 0.930 . S
H671 C686 0.960 . S
H672 C686 0.960 1_556 S
H673 C686 0.960 . S
C674 H666 0.929 . S
C674 C675 1.377 . S
C674 C676 1.384 . S
C675 C674 1.377 . S
C675 C681 1.390 . S
C676 H667 0.930 . S
C676 C674 1.384 . S
C676 C677 1.372 . S
C677 C676 1.372 . S
C677 C678 1.400 . S
C677 C682 1.490 . S
C678 H668 0.930 . S
C678 C677 1.400 . S
C678 C681 1.386 . S
H679 C695 0.930 . S
H680 C696 0.931 . S
C681 H669 0.929 . S
C681 C675 1.390 . S
C681 C678 1.386 . S
C682 C677 1.490 . S
C682 C684 1.395 . S
C682 C685 1.403 1_556 S
H683 C689 0.930 . S
C684 H670 0.930 . S
C684 C682 1.395 . S
C684 C687 1.403 . S
C685 C682 1.403 1_554 S
C685 C686 1.524 . S
C685 C689 1.400 . S
C686 H671 0.960 . S
C686 H672 0.960 1_554 S
C686 H673 0.960 . S
C686 C685 1.524 . S
C687 C684 1.403 . S
C687 C688 1.392 1_556 S
C687 C691 1.495 . S
C688 C687 1.392 1_554 S
C688 C689 1.385 . S
C688 C690 1.478 . S
C689 H683 0.930 . S
C689 C685 1.400 . S
C689 C688 1.385 . S
C690 C688 1.478 . S
C690 C692 1.381 . S
C690 C696 1.383 . S
C691 C687 1.495 . S
C691 H697 0.959 . S
C691 H698 0.961 1_556 S
C691 H699 0.960 . S
C692 C690 1.381 . S
C692 C693 1.394 . S
C692 H700 0.930 . S
C693 C692 1.394 . S
C693 C694 1.383 . S
C693 H701 0.929 . S
C694 C693 1.383 . S
C694 C695 1.377 . S
C695 H679 0.930 . S
C695 C694 1.377 . S
C695 C696 1.379 . S
C696 H680 0.931 . S
C696 C690 1.383 . S
C696 C695 1.379 . S
H697 C691 0.959 . S
H698 C691 0.961 1_554 S
H699 C691 0.960 . S
H700 C692 0.930 . S
H701 C693 0.929 . S
H702 C710 0.929 . S
H703 C712 0.930 . S
H704 C714 0.930 . S
H705 C717 0.929 . S
H706 C720 0.930 . S
H707 C722 0.960 . S
H708 C722 0.960 . S
H709 C722 0.960 . S
C710 H702 0.929 . S
C710 C711 1.377 . S
C710 C712 1.384 . S
C711 C710 1.377 . S
C711 C717 1.390 . S
C712 H703 0.930 . S
C712 C710 1.384 . S
C712 C713 1.372 . S
C713 C712 1.372 . S
C713 C714 1.400 . S
C713 C718 1.490 . S
C714 H704 0.930 . S
C714 C713 1.400 . S
C714 C717 1.386 . S
H715 C731 0.930 . S
H716 C732 0.931 . S
C717 H705 0.929 . S
C717 C711 1.390 . S
C717 C714 1.386 . S
C718 C713 1.490 . S
C718 C720 1.395 1_545 S
C718 C721 1.403 . S
H719 C725 0.930 . S
C720 H706 0.930 . S
C720 C718 1.395 1_565 S
C720 C723 1.403 . S
C721 C718 1.403 . S
C721 C722 1.524 . S
C721 C725 1.400 . S
C722 H707 0.960 . S
C722 H708 0.960 . S
C722 H709 0.960 . S
C722 C721 1.524 . S
C723 C720 1.403 . S
C723 C724 1.392 . S
C723 C727 1.495 . S
C724 C723 1.392 . S
C724 C725 1.385 1_565 S
C724 C726 1.478 . S
C725 H719 0.930 . S
C725 C721 1.400 . S
C725 C724 1.385 1_545 S
C726 C724 1.478 . S
C726 C728 1.381 . S
C726 C732 1.383 . S
C727 C723 1.495 . S
C727 H733 0.959 . S
C727 H734 0.961 . S
C727 H735 0.960 . S
C728 C726 1.381 . S
C728 C729 1.394 . S
C728 H736 0.930 . S
C729 C728 1.394 . S
C729 C730 1.383 . S
C729 H737 0.929 . S
C730 C729 1.383 . S
C730 C731 1.377 . S
C731 H715 0.930 . S
C731 C730 1.377 . S
C731 C732 1.379 . S
C732 H716 0.931 . S
C732 C726 1.383 . S
C732 C731 1.379 . S
H733 C727 0.959 . S
H734 C727 0.961 . S
H735 C727 0.960 . S
H736 C728 0.930 . S
H737 C729 0.929 . S
C207 N68 1.111 . S
C226 C18 1.174 . S
C243 C51 1.166 . S
C262 N2 1.145 . S
C279 C84 1.168 . S
C298 N35 1.146 . S
C315 C117 1.167 . S
C334 N134 1.149 . S
C351 N167 1.100 . S
C370 C150 1.163 . S
C387 N101 1.099 . S
C406 C183 1.155 . S
C423 C153 0.473 . S
C442 C21 0.469 . S
C459 C186 0.476 . S
C478 C54 0.479 . S
C495 C120 0.475 . S
C514 C87 0.474 . S
C531 C106 1.506 . S
C550 C7 1.512 . S
C567 C139 1.503 . S
C586 C40 1.522 . S
C603 C73 1.497 . S
C622 C172 1.498 . S
C639 N145 2.113 . S
C658 N13 2.114 . S
C675 N46 2.116 . S
C694 N178 2.105 . S
C711 N112 2.116 . S
C730 N79 2.107 . S
