# Generated by pormake.
# Topology ukg, (4)-cn, num edge types: 1
# Building blocks:
#     Node 0, Type 0, BuildingBlock: MUDLON_clean_sbu_0, # of connection points: 4
#     Node 1, Type 0, BuildingBlock: MUDLON_clean_sbu_0, # of connection points: 4
#     Node 2, Type 0, BuildingBlock: MUDLON_clean_sbu_0, # of connection points: 4
#     Node 3, Type 0, BuildingBlock: MUDLON_clean_sbu_0, # of connection points: 4
#     Node 4, Type 0, BuildingBlock: MUDLON_clean_sbu_0, # of connection points: 4
#     Node 5, Type 0, BuildingBlock: MUDLON_clean_sbu_0, # of connection points: 4
#     Node 6, Type 0, BuildingBlock: MUDLON_clean_sbu_0, # of connection points: 4
#     Node 7, Type 0, BuildingBlock: MUDLON_clean_sbu_0, # of connection points: 4
#     Edge 8, Type (0, 0), BuildingBlock: ZUJKAS_clean_linker_0, # of connection points: 2
#     Edge 9, Type (0, 0), BuildingBlock: ZUJKAS_clean_linker_0, # of connection points: 2
#     Edge 10, Type (0, 0), BuildingBlock: ZUJKAS_clean_linker_0, # of connection points: 2
#     Edge 11, Type (0, 0), BuildingBlock: ZUJKAS_clean_linker_0, # of connection points: 2
#     Edge 12, Type (0, 0), BuildingBlock: ZUJKAS_clean_linker_0, # of connection points: 2
#     Edge 13, Type (0, 0), BuildingBlock: ZUJKAS_clean_linker_0, # of connection points: 2
#     Edge 14, Type (0, 0), BuildingBlock: ZUJKAS_clean_linker_0, # of connection points: 2
#     Edge 15, Type (0, 0), BuildingBlock: ZUJKAS_clean_linker_0, # of connection points: 2
#     Edge 16, Type (0, 0), BuildingBlock: ZUJKAS_clean_linker_0, # of connection points: 2
#     Edge 17, Type (0, 0), BuildingBlock: ZUJKAS_clean_linker_0, # of connection points: 2
#     Edge 18, Type (0, 0), BuildingBlock: ZUJKAS_clean_linker_0, # of connection points: 2
#     Edge 19, Type (0, 0), BuildingBlock: ZUJKAS_clean_linker_0, # of connection points: 2
#     Edge 20, Type (0, 0), BuildingBlock: ZUJKAS_clean_linker_0, # of connection points: 2
#     Edge 21, Type (0, 0), BuildingBlock: ZUJKAS_clean_linker_0, # of connection points: 2
#     Edge 22, Type (0, 0), BuildingBlock: ZUJKAS_clean_linker_0, # of connection points: 2
#     Edge 23, Type (0, 0), BuildingBlock: ZUJKAS_clean_linker_0, # of connection points: 2
# Relax obj value: 0.086
# Max RMSD: 0.239
# Mean RMSD: 0.239
data_MOF--net-ukg--node1-MUDLON_clean_sbu_0--edge1-ZUJKAS_clean_linker_0
_symmetry_space_group_name_H-M    P1
_symmetry_Int_Tables_number       1
_symmetry_cell_setting            triclinic
loop_
_symmetry_equiv_pos_as_xyz
'x, y, z'
_cell_length_a     41.614006
_cell_length_b     41.55067
_cell_length_c     48.166412
_cell_angle_alpha  89.64671
_cell_angle_beta   90.064484
_cell_angle_gamma 90.143005
loop_
_atom_site_label
_atom_site_type_symbol
_atom_site_fract_x
_atom_site_fract_y
_atom_site_fract_z
_atom_type_partial_charge
Mg0 Mg 0.04774 0.67118 0.17026 0.0
C1 C 0.99502 0.65398 0.2089 0.0
O2 O 0.98183 0.67585 0.19274 0.0
C3 C 0.11354 0.69496 0.1588 0.0
O4 O 0.09717 0.70555 0.13727 0.0
C5 C 0.02633 0.61711 0.13267 0.0
O6 O 1.01608 0.60596 0.15666 0.0
O7 O 0.04003 0.64453 0.13183 0.0
O8 O 0.02417 0.64622 0.20465 0.0
O9 O 0.02695 0.71932 0.16959 0.0
C10 C 0.04023 0.74011 0.18517 0.0
O11 O 0.06628 0.73199 0.19892 0.0
O12 O 0.0991 0.67772 0.17681 0.0
Mg13 Mg 0.35232 0.54224 0.66647 0.0
C14 C 0.40379 0.51206 0.70435 0.0
O15 O 0.42314 0.51943 0.68373 0.0
C16 C 0.31874 0.60381 0.65634 0.0
O17 O 0.30828 0.58554 0.63606 0.0
C18 C 0.39632 0.51375 0.62181 0.0
O19 O 0.38952 0.48665 0.63475 0.0
O20 O 0.38372 0.53977 0.63027 0.0
O21 O 0.37442 0.52028 0.70294 0.0
O22 O 0.30711 0.51666 0.66138 0.0
C23 C 0.30486 0.48733 0.66882 0.0
O24 O 0.33101 0.47196 0.67642 0.0
O25 O 0.33903 0.59214 0.67339 0.0
Mg26 Mg 0.49149 0.85685 0.16369 0.0
C27 C 0.51706 0.90993 0.20245 0.0
O28 O 0.50853 0.92941 0.18217 0.0
C29 C 0.43163 0.82579 0.18826 0.0
O30 O 0.45264 0.81551 0.20665 0.0
C31 C 0.52223 0.90273 0.12095 0.0
O32 O 0.54785 0.89846 0.1365 0.0
O33 O 0.49644 0.8878 0.12711 0.0
O34 O 0.51117 0.88 0.20039 0.0
O35 O 0.51852 0.81219 0.1614 0.0
C36 C 0.50539 0.78515 0.15638 0.0
O37 O 0.4751 0.78435 0.14872 0.0
O38 O 0.44107 0.84432 0.16877 0.0
Mg39 Mg 0.1765 0.99279 0.65702 0.0
C40 C 0.13731 0.04286 0.68528 0.0
O41 O 0.1353 0.05202 0.65917 0.0
C42 C 0.20095 0.92741 0.64718 0.0
O43 O 0.21141 0.94384 0.62559 0.0
C44 C 0.11887 0.99063 0.62024 0.0
O45 O 0.10796 0.97766 0.64334 0.0
O46 O 0.14817 0.99947 0.61925 0.0
O47 O 0.15257 0.0172 0.69111 0.0
O48 O 0.22494 1.01259 0.6552 0.0
C49 C 0.23081 0.04222 0.6593 0.0
O50 O 0.20666 0.06232 0.66163 0.0
O51 O 0.18354 0.94173 0.66491 0.0
Mg52 Mg 0.99297 0.35568 0.85603 0.0
C53 C 0.0453 0.30554 0.85058 0.0
O54 O 0.06252 0.33132 0.84495 0.0
C55 C 1.01344 0.40979 0.89395 0.0
O56 O 0.02677 0.41949 0.87064 0.0
C57 C 0.92656 0.33426 0.86877 0.0
O58 O 0.94067 0.33239 0.89315 0.0
O59 O 0.9426 0.34502 0.84825 0.0
O60 O 1.0162 0.30893 0.85798 0.0
O61 O 1.0158 0.38165 0.82199 0.0
C62 C 0.02188 0.36785 0.7991 0.0
O63 O 1.01126 0.33843 0.79512 0.0
O64 O 0.9981 0.38324 0.89428 0.0
Mg65 Mg 0.67712 0.49472 0.35851 0.0
C66 C 0.74973 0.50522 0.36645 0.0
O67 O 0.74941 0.47466 0.3736 0.0
C68 C 0.63042 0.52163 0.40122 0.0
O69 O 0.6307 0.54621 0.38393 0.0
C70 C 0.70656 0.43588 0.33138 0.0
O71 O 0.71904 0.45808 0.31508 0.0
O72 O 0.6872 0.44431 0.35041 0.0
O73 O 0.72327 0.51936 0.3614 0.0
O74 O 0.65126 0.5178 0.32429 0.0
C75 C 0.65995 0.54628 0.31784 0.0
O76 O 0.68341 0.5597 0.33192 0.0
O77 O 0.64825 0.49752 0.3962 0.0
Mg78 Mg 0.54457 0.18005 0.85276 0.0
C79 C 0.50513 0.24313 0.86405 0.0
O80 O 0.48773 0.22633 0.8817 0.0
C81 C 0.51785 0.13235 0.89558 0.0
O82 O 0.49818 0.12578 0.87504 0.0
C83 C 0.61278 0.19269 0.8655 0.0
O84 O 0.59877 0.19518 0.88983 0.0
O85 O 0.59579 0.18457 0.84471 0.0
O86 O 0.52845 0.22981 0.8516 0.0
O87 O 0.51841 0.15532 0.81977 0.0
C88 C 0.48834 0.16076 0.81888 0.0
O89 O 0.47583 0.18001 0.83746 0.0
O90 O 0.53855 0.15469 0.89245 0.0
Mg91 Mg 0.85003 0.04863 0.35021 0.0
C92 C 0.78555 1.01085 0.36092 0.0
O93 O 0.8008 0.99456 0.38031 0.0
C94 C 0.90461 0.04554 0.38915 0.0
O95 O 0.9174 0.05661 0.36604 0.0
C96 C 0.82804 0.11468 0.35879 0.0
O97 O 0.81436 0.0981 0.3789 0.0
O98 O 0.84708 0.10013 0.34249 0.0
O99 O 0.80021 0.03291 0.34758 0.0
O100 O 0.87604 0.02232 0.31835 0.0
C101 C 0.86905 0.99254 0.31703 0.0
O102 O 0.84728 0.98095 0.33411 0.0
O103 O 0.87458 0.03961 0.38952 0.0
H104 H 0.04401 0.46768 0.89936 0.0
H105 H 0.04586 0.50242 0.94007 0.0
H106 H 0.98844 0.43385 0.98585 0.0
H107 H 0.9867 0.39867 0.94524 0.0
H108 H 0.99412 0.53026 0.96818 0.0
H109 H 0.06465 0.45033 0.03801 0.0
H110 H 0.06218 0.44404 1.00102 0.0
H111 H 0.02951 0.43202 0.02317 0.0
C112 C 0.03193 0.45981 0.91812 0.0
C113 C 1.01529 0.43028 0.91904 0.0
C114 C 0.03298 0.47977 0.94136 0.0
C115 C 0.01761 0.47059 0.96609 0.0
C116 C 1.00097 0.44115 0.96714 0.0
H117 H 0.99614 0.55899 0.12766 0.0
H118 H 0.99307 0.52467 0.08677 0.0
C119 C 0.99989 0.42113 0.94386 0.0
C120 C 0.01833 0.49232 0.99046 0.0
H121 H 0.04298 0.49749 0.05795 0.0
C122 C 1.0049 0.52316 0.9878 0.0
C123 C 0.03236 0.483 0.01602 0.0
C124 C 0.04826 0.45066 0.01978 0.0
C125 C 1.00462 0.54475 1.01015 0.0
C126 C 0.01873 0.53545 0.03571 0.0
C127 C 0.03215 0.50459 0.03836 0.0
C128 C 0.01967 0.55721 0.06009 0.0
C129 C 0.98857 0.577 1.00638 0.0
C130 C 0.0357 0.58698 0.05874 0.0
C131 C 0.03739 0.60681 0.08212 0.0
C132 C 0.02333 0.59708 0.10737 0.0
C133 C 1.00722 0.56729 0.10858 0.0
C134 C 1.00547 0.54757 0.08521 0.0
H135 H 0.97164 0.57699 0.98852 0.0
H136 H 0.97519 0.58394 0.02535 0.0
H137 H 1.00718 0.59559 1.00229 0.0
H138 H 0.04742 0.59464 0.03975 0.0
H139 H 0.05018 0.62948 0.08052 0.0
H140 H 0.43212 0.46369 0.60194 0.0
H141 H 0.47275 0.46531 0.56527 0.0
H142 H 0.45423 0.56635 0.55231 0.0
H143 H 0.41404 0.56513 0.58928 0.0
H144 H 0.46775 0.48096 0.5101 0.0
H145 H 0.55099 0.56562 0.56243 0.0
H146 H 0.51809 0.54625 0.58036 0.0
H147 H 0.51092 0.58095 0.55873 0.0
C148 C 0.43668 0.48629 0.59132 0.0
C149 C 0.41994 0.51433 0.59872 0.0
C150 C 0.45994 0.48716 0.57035 0.0
C151 C 0.46702 0.51609 0.55639 0.0
C152 C 0.4498 0.54394 0.56326 0.0
H153 H 0.59122 0.57007 0.4191 0.0
H154 H 0.55206 0.56816 0.45696 0.0
C155 C 0.42663 0.54313 0.58429 0.0
C156 C 0.49204 0.51696 0.53436 0.0
H157 H 0.56229 0.55369 0.5152 0.0
C158 C 0.48852 0.49672 0.51131 0.0
C159 C 0.51919 0.53751 0.53595 0.0
C160 C 0.52527 0.55859 0.56081 0.0
C161 C 0.51102 0.49694 0.48956 0.0
C162 C 0.53796 0.51769 0.49105 0.0
C163 C 0.54156 0.53787 0.5141 0.0
C164 C 0.56251 0.51897 0.46873 0.0
C165 C 0.50544 0.47549 0.46485 0.0
C166 C 0.58185 0.49215 0.46315 0.0
C167 C 0.60438 0.49319 0.4416 0.0
C168 C 0.60798 0.5211 0.42518 0.0
C169 C 0.58902 0.54816 0.43124 0.0
C170 C 0.56662 0.54713 0.45289 0.0
H171 H 0.48035 0.46632 0.46405 0.0
H172 H 0.5107 0.48857 0.44519 0.0
H173 H 0.52181 0.4545 0.46617 0.0
H174 H 0.57942 0.47035 0.47542 0.0
H175 H 0.61862 0.47195 0.43757 0.0
H176 H 0.57113 0.9434 0.10567 0.0
H177 H 0.57061 0.9844 0.06897 0.0
H178 H 0.47419 0.9564 0.04664 0.0
H179 H 0.47423 0.91582 0.0836 0.0
H180 H 0.56303 0.97932 0.01285 0.0
H181 H 0.46437 0.0526 0.05652 0.0
H182 H 0.48421 0.02134 0.07621 0.0
H183 H 0.45335 1.01127 0.05152 0.0
C184 C 0.54979 0.94594 0.09296 0.0
C185 C 0.52263 0.92643 0.09774 0.0
C186 C 0.54954 0.96942 0.07199 0.0
C187 C 0.52212 0.97397 0.05541 0.0
C188 C 0.49531 0.95395 0.05964 0.0
H189 H 0.47319 0.0873 0.9108 0.0
H190 H 0.47509 0.05035 0.9505 0.0
C191 C 0.49548 0.93056 0.08066 0.0
C192 C 0.52176 0.99926 0.0334 0.0
H193 H 0.4804 0.06518 1.01017 0.0
C194 C 0.54514 0.99826 0.01241 0.0
C195 C 0.49847 0.02408 0.03287 0.0
C196 C 0.47388 0.02766 0.05563 0.0
C197 C 0.54529 0.02079 0.99052 0.0
C198 C 0.52162 0.04514 0.98972 0.0
C199 C 0.49847 0.04642 1.01083 0.0
C200 C 0.51993 0.06888 0.96661 0.0
C201 C 0.5702 0.01789 0.96794 0.0
C202 C 0.54417 0.09207 0.96289 0.0
C203 C 0.54306 0.11343 0.94029 0.0
C204 C 0.51775 0.11185 0.92094 0.0
C205 C 0.4931 0.08911 0.92521 0.0
C206 C 0.49411 0.06796 0.9479 0.0
H207 H 0.58309 0.99453 0.96895 0.0
H208 H 0.55888 0.0204 0.94715 0.0
H209 H 0.58813 0.03752 0.97017 0.0
H210 H 0.5641 0.09342 0.97732 0.0
H211 H 0.56243 0.13064 0.93764 0.0
H212 H 0.96901 0.05646 0.3937 0.0
H213 H 1.00377 0.04645 0.4336 0.0
H214 H 0.92241 1.01204 0.48062 0.0
H215 H 0.88727 0.02167 0.44047 0.0
H216 H 1.0003 0.07235 0.48684 0.0
H217 H 0.98817 0.93914 0.48965 0.0
H218 H 0.97586 0.96303 0.46008 0.0
H219 H 0.95097 0.96097 0.4905 0.0
C220 C 0.95839 0.04668 0.41246 0.0
C221 C 0.9253 0.03974 0.41381 0.0
C222 C 0.97836 0.04102 0.4353 0.0
C223 C 0.96581 0.02812 0.45998 0.0
C224 C 0.93273 0.02145 0.46159 0.0
H225 H 0.05473 0.97696 0.61755 0.0
H226 H 0.01785 0.98671 0.57896 0.0
C227 C 0.91264 0.02714 0.43869 0.0
C228 C 0.98751 0.02225 0.48401 0.0
H229 H 0.01825 0.96306 0.52575 0.0
C230 C 1.00425 0.04845 0.49535 0.0
C231 C 0.99263 0.99106 0.49509 0.0
C232 C 0.97621 0.96184 0.48312 0.0
C233 C 0.02573 0.0444 0.51763 0.0
C234 C 0.03113 1.01316 0.52852 0.0
C235 C 1.01418 0.98698 0.51733 0.0
C236 C 0.05395 1.00715 0.55176 0.0
C237 C 0.04194 0.07371 0.52964 0.0
C238 C 0.0867 1.01497 0.54922 0.0
C239 C 0.10793 1.00951 0.57134 0.0
C240 C 0.09684 0.99586 0.59637 0.0
C241 C 0.06413 0.98756 0.59862 0.0
C242 C 0.04296 0.99309 0.57655 0.0
H243 H 0.02893 0.09618 0.52413 0.0
H244 H 0.04362 0.0719 0.55261 0.0
H245 H 0.06667 0.07565 0.52119 0.0
H246 H 0.09589 0.02518 0.53006 0.0
H247 H 0.13299 1.016 0.56884 0.0
H248 H 0.15403 0.68037 0.2022 0.0
H249 H 0.20811 0.70199 0.21053 0.0
H250 H 0.20281 0.7558 0.13386 0.0
H251 H 0.14901 0.73453 0.12537 0.0
H252 H 0.2649 0.69926 0.17549 0.0
H253 H 0.22364 0.82427 0.19375 0.0
H254 H 0.19682 0.79005 0.19512 0.0
H255 H 0.20892 0.80667 0.16221 0.0
C256 C 0.16445 0.69667 0.18704 0.0
C257 C 0.1471 0.70587 0.1632 0.0
C258 C 0.19531 0.70901 0.19186 0.0
C259 C 0.20917 0.73092 0.17305 0.0
C260 C 0.19229 0.73939 0.14889 0.0
H261 H 0.3835 0.83895 0.15118 0.0
H262 H 0.3297 0.81533 0.14962 0.0
C263 C 0.16158 0.72704 0.14402 0.0
C264 C 0.24127 0.74509 0.17847 0.0
H265 H 0.27986 0.81683 0.18788 0.0
C266 C 0.26823 0.7249 0.1785 0.0
C267 C 0.24544 0.77855 0.18238 0.0
C268 C 0.21717 0.80118 0.18363 0.0
C269 C 0.29945 0.73748 0.18127 0.0
C270 C 0.30367 0.77106 0.18466 0.0
C271 C 0.2766 0.79112 0.18523 0.0
C272 C 0.33601 0.78605 0.18651 0.0
C273 C 0.32769 0.71487 0.17945 0.0
C274 C 0.3572 0.77799 0.20815 0.0
C275 C 0.38805 0.79142 0.20908 0.0
C276 C 0.3982 0.81336 0.1885 0.0
C277 C 0.37652 0.8221 0.16734 0.0
C278 C 0.34574 0.80861 0.1664 0.0
H279 H 0.3208 0.69135 0.17031 0.0
H280 H 0.34728 0.72559 0.16676 0.0
H281 H 0.33723 0.71027 0.20063 0.0
H282 H 0.34993 0.76117 0.22424 0.0
H283 H 0.40406 0.78429 0.22575 0.0
H284 H 0.33337 0.64812 0.69663 0.0
H285 H 0.31194 0.7028 0.70119 0.0
H286 H 0.25532 0.68935 0.62711 0.0
H287 H 0.27612 0.63486 0.6226 0.0
H288 H 0.31655 0.75387 0.66478 0.0
H289 H 0.18876 0.72244 0.68164 0.0
H290 H 0.22065 0.69323 0.68468 0.0
H291 H 0.20483 0.70399 0.65109 0.0
C292 C 0.31624 0.65677 0.6814 0.0
C293 C 0.30635 0.63704 0.65932 0.0
C294 C 0.30399 0.68799 0.68405 0.0
C295 C 0.28152 0.69991 0.66481 0.0
C296 C 0.27196 0.68038 0.64262 0.0
H297 H 0.23704 0.89094 0.6123 0.0
H298 H 0.25649 0.83628 0.61973 0.0
C299 C 0.28412 0.64927 0.63996 0.0
C300 C 0.26909 0.73326 0.66695 0.0
H301 H 0.19966 0.77698 0.66747 0.0
C302 C 0.29102 0.75893 0.66574 0.0
C303 C 0.23579 0.73989 0.66869 0.0
C304 C 0.21117 0.71342 0.6719 0.0
C305 C 0.28048 0.79099 0.66479 0.0
C306 C 0.2471 0.79751 0.66456 0.0
C307 C 0.22522 0.77194 0.66724 0.0
C308 C 0.23451 0.83053 0.66014 0.0
C309 C 0.30521 0.8176 0.66383 0.0
C310 C 0.21462 0.84508 0.67996 0.0
C311 C 0.20317 0.87642 0.67567 0.0
C312 C 0.21128 0.89361 0.6514 0.0
C313 C 0.23051 0.87855 0.63133 0.0
C314 C 0.24188 0.84734 0.63562 0.0
H315 H 0.32857 0.80958 0.67264 0.0
H316 H 0.30935 0.82481 0.64191 0.0
H317 H 0.29693 0.83905 0.67543 0.0
H318 H 0.20838 0.83238 0.69891 0.0
H319 H 0.18835 0.88729 0.69151 0.0
H320 H 0.64649 0.20317 0.81721 0.0
H321 H 0.70136 0.22443 0.8127 0.0
H322 H 0.71034 0.22648 0.90185 0.0
H323 H 0.65593 0.20526 0.90658 0.0
H324 H 0.72364 0.28429 0.83493 0.0
H325 H 0.79305 0.18107 0.87658 0.0
H326 H 0.7521 0.1772 0.86454 0.0
H327 H 0.76036 0.19292 0.89852 0.0
C328 C 0.66036 0.20768 0.83583 0.0
C329 C 0.64685 0.20247 0.86226 0.0
C330 C 0.69163 0.21993 0.83321 0.0
C331 C 0.71001 0.22671 0.85693 0.0
C332 C 0.69679 0.22091 0.88327 0.0
H333 H 0.88551 0.31337 0.90912 0.0
H334 H 0.83299 0.28807 0.90328 0.0
C335 C 0.66558 0.2089 0.88592 0.0
C336 C 0.74233 0.24157 0.85455 0.0
H337 H 0.82037 0.23173 0.87464 0.0
C338 C 0.74495 0.27267 0.8432 0.0
C339 C 0.77001 0.22633 0.86538 0.0
C340 C 0.7689 0.19241 0.87671 0.0
C341 C 0.77425 0.2896 0.84368 0.0
C342 C 0.8017 0.27473 0.85541 0.0
C343 C 0.79926 0.24318 0.86583 0.0
C344 C 0.83282 0.2919 0.85846 0.0
C345 C 0.77524 0.32372 0.83282 0.0
C346 C 0.85012 0.30274 0.83518 0.0
C347 C 0.88021 0.31746 0.83847 0.0
C348 C 0.89362 0.32128 0.86509 0.0
C349 C 0.87596 0.31079 0.88832 0.0
C350 C 0.84593 0.29624 0.88503 0.0
H351 H 0.75077 0.33395 0.8302 0.0
H352 H 0.78917 0.33945 0.84701 0.0
H353 H 0.78725 0.32411 0.81227 0.0
H354 H 0.84073 0.29915 0.81446 0.0
H355 H 0.8933 0.32506 0.82013 0.0
H356 H 0.75072 0.41041 0.29559 0.0
H357 H 0.77195 0.3555 0.29543 0.0
H358 H 0.7099 0.33039 0.36389 0.0
H359 H 0.68822 0.38491 0.36396 0.0
H360 H 0.80405 0.32451 0.338 0.0
H361 H 0.69386 0.25689 0.31038 0.0
H362 H 0.69723 0.29993 0.30582 0.0
H363 H 0.68805 0.28307 0.33941 0.0
C364 C 0.74124 0.39308 0.31036 0.0
C365 C 0.71765 0.40205 0.32973 0.0
C366 C 0.75349 0.36173 0.31028 0.0
C367 C 0.74223 0.33872 0.32939 0.0
C368 C 0.71845 0.34752 0.34853 0.0
H369 H 0.78664 0.15056 0.38944 0.0
H370 H 0.76815 0.20522 0.38023 0.0
C371 C 0.70618 0.3788 0.34863 0.0
C372 C 0.75646 0.306 0.33045 0.0
H373 H 0.73702 0.22612 0.32991 0.0
C374 C 0.78951 0.30296 0.33584 0.0
C375 C 0.73747 0.27793 0.32754 0.0
C376 C 0.70225 0.27954 0.32019 0.0
C377 C 0.80377 0.27262 0.33965 0.0
C378 C 0.78451 0.24465 0.33773 0.0
C379 C 0.75169 0.24765 0.33152 0.0
C380 C 0.79742 0.21209 0.34361 0.0
C381 C 0.83902 0.27069 0.34682 0.0
C382 C 0.82025 0.19786 0.32612 0.0
C383 C 0.83095 0.16642 0.33132 0.0
C384 C 0.81891 0.14875 0.35406 0.0
C385 C 0.79646 0.16341 0.37174 0.0
C386 C 0.78577 0.19467 0.36649 0.0
H387 H 0.84922 0.29459 0.3522 0.0
H388 H 0.84291 0.25393 0.36455 0.0
H389 H 0.85243 0.26122 0.32874 0.0
H390 H 0.82925 0.21079 0.30814 0.0
H391 H 0.84814 0.15579 0.31724 0.0
H392 H 0.81058 0.48014 0.36842 0.0
H393 H 0.85991 0.50461 0.35028 0.0
H394 H 0.80746 0.5908 0.32931 0.0
H395 H 0.75836 0.56689 0.34776 0.0
H396 H 0.86844 0.52237 0.29657 0.0
H397 H 0.88781 0.62836 0.36327 0.0
H398 H 0.86115 0.59584 0.37298 0.0
H399 H 0.84765 0.62721 0.3498 0.0
C400 C 0.8097 0.5046 0.36056 0.0
C401 C 0.78047 0.52152 0.35952 0.0
C402 C 0.83793 0.51851 0.35014 0.0
C403 C 0.83752 0.54968 0.33871 0.0
C404 C 0.80861 0.56703 0.33861 0.0
H405 H 0.93465 0.67003 0.22534 0.0
H406 H 0.90093 0.64297 0.25966 0.0
C407 C 0.78044 0.55319 0.34903 0.0
C408 C 0.86618 0.56287 0.32418 0.0
H409 H 0.91255 0.63045 0.31787 0.0
C410 C 0.8786 0.54569 0.30159 0.0
C411 C 0.87943 0.59329 0.33075 0.0
C412 C 0.86852 0.61207 0.35571 0.0
C413 C 0.90249 0.55895 0.28438 0.0
C414 C 0.91452 0.59006 0.29013 0.0
C415 C 0.90319 0.60663 0.31346 0.0
C416 C 0.93635 0.60707 0.27063 0.0
C417 C 0.91339 0.54039 0.25927 0.0
C418 C 0.96773 0.59613 0.2657 0.0
C419 C 0.98722 0.61162 0.24598 0.0
C420 C 0.97555 0.63824 0.23089 0.0
C421 C 0.94437 0.64949 0.23644 0.0
C422 C 0.92505 0.63413 0.25614 0.0
H423 H 0.89824 0.5188 0.25547 0.0
H424 H 0.91283 0.55596 0.24045 0.0
H425 H 0.93854 0.53234 0.26243 0.0
H426 H 0.97701 0.57548 0.27693 0.0
H427 H 1.01116 0.60245 0.24225 0.0
H428 H 0.4628 0.48391 0.71062 0.0
H429 H 0.47856 0.44347 0.74511 0.0
H430 H 0.38592 0.45146 0.78441 0.0
H431 H 0.3697 0.49153 0.74977 0.0
H432 H 0.48142 0.44329 0.80383 0.0
H433 H 0.39108 0.35593 0.76421 0.0
H434 H 0.40174 0.3921 0.74542 0.0
H435 H 0.37528 0.39411 0.77481 0.0
C436 C 0.44586 0.47735 0.72676 0.0
C437 C 0.41485 0.49072 0.72723 0.0
C438 C 0.45494 0.45424 0.74648 0.0
C439 C 0.4332 0.44403 0.767 0.0
C440 C 0.40283 0.45852 0.76841 0.0
H441 H 0.44962 0.27549 0.87686 0.0
H442 H 0.43164 0.32732 0.85783 0.0
C443 C 0.39368 0.48156 0.74866 0.0
C444 C 0.44186 0.4171 0.78595 0.0
H445 H 0.42299 0.3391 0.80184 0.0
C446 C 0.46853 0.42057 0.80356 0.0
C447 C 0.42495 0.3875 0.7856 0.0
C448 C 0.39683 0.38192 0.76637 0.0
C449 C 0.47898 0.39507 0.8206 0.0
C450 C 0.46263 0.3652 0.81964 0.0
C451 C 0.43539 0.36207 0.80266 0.0
C452 C 0.47491 0.336 0.83403 0.0
C453 C 0.5075 0.40034 0.8394 0.0
C454 C 0.50527 0.32383 0.82716 0.0
C455 C 0.51555 0.29433 0.83792 0.0
C456 C 0.4956 0.27618 0.85569 0.0
C457 C 0.46561 0.2889 0.86333 0.0
C458 C 0.45528 0.31847 0.85243 0.0
H459 H 0.51054 0.42621 0.84452 0.0
H460 H 0.5051 0.38637 0.85902 0.0
H461 H 0.52963 0.39232 0.82865 0.0
H462 H 0.52055 0.33652 0.81253 0.0
H463 H 0.53878 0.28529 0.83158 0.0
H464 H 0.53764 0.8763 0.24812 0.0
H465 H 0.5767 0.89358 0.28294 0.0
H466 H 0.58273 0.9868 0.24341 0.0
H467 H 0.54327 0.96995 0.20881 0.0
H468 H 0.63797 0.91054 0.27126 0.0
H469 H 0.57798 1.01159 0.32441 0.0
H470 H 0.55631 0.98334 0.30299 0.0
H471 H 0.57799 1.01631 0.28736 0.0
C472 C 0.54677 0.90071 0.24713 0.0
C473 C 0.53736 0.92173 0.2256 0.0
C474 C 0.56912 0.91053 0.26707 0.0
C475 C 0.58242 0.94159 0.266 0.0
C476 C 0.57228 0.96298 0.24508 0.0
H477 H 0.74675 0.04233 0.3241 0.0
H478 H 0.69557 0.02414 0.30507 0.0
C479 C 0.54982 0.95322 0.22518 0.0
C480 C 0.60925 0.95047 0.28486 0.0
H481 H 0.63538 1.00845 0.3296 0.0
C482 C 0.63721 0.93164 0.2844 0.0
C483 C 0.60825 0.97803 0.30196 0.0
C484 C 0.57839 0.9983 0.30446 0.0
C485 C 0.66471 0.9404 0.2995 0.0
C486 C 0.66406 0.96853 0.31589 0.0
C487 C 0.6358 0.98687 0.31704 0.0
C488 C 0.69336 0.9807 0.32996 0.0
C489 C 0.69473 0.92036 0.29671 0.0
C490 C 0.70869 0.96275 0.35092 0.0
C491 C 0.73815 0.97307 0.36188 0.0
C492 C 0.75269 1.00153 0.35205 0.0
C493 C 0.73641 0.02015 0.33201 0.0
C494 C 0.70705 1.00986 0.32114 0.0
H495 H 0.69304 0.90308 0.27925 0.0
H496 H 0.71609 0.93598 0.29338 0.0
H497 H 0.69856 0.9064 0.31614 0.0
H498 H 0.69824 0.9404 0.35832 0.0
H499 H 0.74996 0.95825 0.37738 0.0
H500 H 0.01743 0.24698 0.86136 0.0
H501 H 0.03321 0.19476 0.84262 0.0
H502 H 0.11503 0.23916 0.80283 0.0
H503 H 0.10003 0.29104 0.8221 0.0
H504 H 0.03416 0.18049 0.78972 0.0
H505 H 0.15573 0.15845 0.83122 0.0
H506 H 0.12956 0.18873 0.84547 0.0
H507 H 0.15371 0.19747 0.81529 0.0
C508 C 0.03925 0.24546 0.8492 0.0
C509 C 0.05745 0.27321 0.8432 0.0
C510 C 0.04821 0.21558 0.83847 0.0
C511 C 0.07552 0.21286 0.82153 0.0
C512 C 0.09437 0.24035 0.81642 0.0
H513 H 0.10683 0.10035 0.67884 0.0
H514 H 0.08978 0.13742 0.71482 0.0
C515 C 0.08561 0.27014 0.82735 0.0
C516 C 0.08219 0.18246 0.8065 0.0
H517 H 0.14276 0.13168 0.78789 0.0
C518 C 0.05776 0.16947 0.78977 0.0
C519 C 0.11276 0.16758 0.80683 0.0
C520 C 0.13928 0.17861 0.82593 0.0
C521 C 0.06361 0.14337 0.77217 0.0
C522 C 0.09495 0.13038 0.77068 0.0
C523 C 0.11885 0.14197 0.78867 0.0
C524 C 0.10401 0.10669 0.74912 0.0
C525 C 0.0362 0.1303 0.75504 0.0
C526 C 0.11836 0.07724 0.75635 0.0
C527 C 0.12851 0.05596 0.73568 0.0
C528 C 0.12464 0.06392 0.70743 0.0
C529 C 0.10999 0.0933 0.70035 0.0
C530 C 0.09999 0.1145 0.72095 0.0
H531 H 1.01272 0.13451 0.76535 0.0
H532 H 0.03568 0.14291 0.73467 0.0
H533 H 0.0389 0.10409 0.75133 0.0
H534 H 0.12193 0.07084 0.77797 0.0
H535 H 0.13985 0.03359 0.74183 0.0
H536 H 0.04672 0.34147 0.7518 0.0
H537 H 0.09152 0.36201 0.72392 0.0
H538 H 0.09519 0.44741 0.7742 0.0
H539 H 0.05065 0.42703 0.80237 0.0
H540 H 0.10314 0.42143 0.69341 0.0
H541 H 0.18462 0.4046 0.78379 0.0
H542 H 0.14493 0.38707 0.78238 0.0
H543 H 0.1499 0.42896 0.79045 0.0
C544 C 0.05668 0.36487 0.75668 0.0
C545 C 0.04533 0.38243 0.77955 0.0
C546 C 0.08227 0.37656 0.74069 0.0
C547 C 0.09697 0.40594 0.74731 0.0
C548 C 0.08446 0.42442 0.76904 0.0
H549 H 0.2457 0.51568 0.66372 0.0
H550 H 0.19414 0.49405 0.67948 0.0
C551 C 0.05893 0.41277 0.78505 0.0
C552 C 0.12681 0.41613 0.73293 0.0
H553 H 0.20655 0.43029 0.74419 0.0
C554 C 0.1258 0.42334 0.70442 0.0
C555 C 0.15641 0.41802 0.74729 0.0
C556 C 0.15927 0.40899 0.77761 0.0
C557 C 0.1536 0.43313 0.69003 0.0
C558 C 0.18299 0.43599 0.70464 0.0
C559 C 0.184 0.42818 0.73302 0.0
C560 C 0.21308 0.44747 0.6913 0.0
C561 C 0.15139 0.4399 0.65929 0.0
C562 C 0.24087 0.42842 0.69247 0.0
C563 C 0.27044 0.4408 0.68369 0.0
C564 C 0.27286 0.47257 0.67367 0.0
C565 C 0.2447 0.49108 0.67124 0.0
C566 C 0.21511 0.47868 0.68011 0.0
H567 H 0.12998 0.4282 0.6499 0.0
H568 H 0.14925 0.46625 0.65589 0.0
H569 H 0.17323 0.43147 0.64833 0.0
H570 H 0.23986 0.40429 0.70108 0.0
H571 H 0.29161 0.42585 0.68579 0.0
H572 H 0.6054 0.53027 0.28854 0.0
H573 H 0.57791 0.56303 0.25315 0.0
H574 H 0.65018 0.63684 0.26179 0.0
H575 H 0.67771 0.60451 0.29673 0.0
H576 H 0.55316 0.62523 0.26095 0.0
H577 H 0.64446 0.62608 0.17757 0.0
H578 H 0.64471 0.59692 0.20555 0.0
H579 H 0.66097 0.63662 0.21073 0.0
C580 C 0.6156 0.55332 0.28263 0.0
C581 C 0.64375 0.56476 0.29546 0.0
C582 C 0.59988 0.57197 0.26243 0.0
C583 C 0.61233 0.60211 0.25449 0.0
C584 C 0.64056 0.61335 0.26709 0.0
H585 H 0.5664 0.77862 0.17685 0.0
H586 H 0.59065 0.73029 0.19682 0.0
C587 C 0.65612 0.59489 0.28728 0.0
C588 C 0.59485 0.62322 0.23466 0.0
H589 H 0.60547 0.66882 0.17612 0.0
C590 C 0.56424 0.63429 0.24207 0.0
C591 C 0.60943 0.635 0.21009 0.0
C592 C 0.64158 0.6228 0.20034 0.0
C593 C 0.54865 0.65833 0.22651 0.0
C594 C 0.56389 0.67117 0.20259 0.0
C595 C 0.59386 0.65902 0.19449 0.0
C596 C 0.55042 0.69917 0.18728 0.0
C597 C 0.51689 0.6711 0.23673 0.0
C598 C 0.52025 0.69745 0.17432 0.0
C599 C 0.50622 0.72513 0.16292 0.0
C600 C 0.52222 0.75497 0.16416 0.0
C601 C 0.55331 0.75611 0.17564 0.0
C602 C 0.56724 0.72848 0.18707 0.0
H603 H 0.51153 0.66307 0.25828 0.0
H604 H 0.51666 0.69782 0.23607 0.0
H605 H 0.49733 0.66228 0.22305 0.0
H606 H 0.50714 0.67491 0.17375 0.0
H607 H 0.48235 0.72333 0.15407 0.0
H608 H 0.42307 0.16162 0.81745 0.0
H609 H 0.38743 0.13653 0.78371 0.0
H610 H 0.4692 0.10002 0.73913 0.0
H611 H 0.5055 0.12505 0.7732 0.0
H612 H 0.41448 0.13539 0.70678 0.0
H613 H 0.37612 0.03433 0.77524 0.0
H614 H 0.37707 0.07332 0.79127 0.0
H615 H 0.41386 0.05532 0.77974 0.0
C616 C 0.43365 0.14828 0.80053 0.0
C617 C 0.46718 0.14528 0.79807 0.0
C618 C 0.41318 0.1339 0.78129 0.0
C619 C 0.42572 0.11632 0.7591 0.0
C620 C 0.45915 0.11347 0.75623 0.0
H621 H 0.28494 1.00514 0.66421 0.0
H622 H 0.33701 0.02134 0.68324 0.0
C623 C 0.47979 0.12769 0.77571 0.0
C624 C 0.40334 0.1012 0.73914 0.0
H625 H 0.34305 0.04562 0.73599 0.0
C626 C 0.39922 0.11537 0.71287 0.0
C627 C 0.38372 0.07495 0.7471 0.0
C628 C 0.38796 0.05833 0.77479 0.0
C629 C 0.37465 0.10503 0.69492 0.0
C630 C 0.35361 0.08016 0.70369 0.0
C631 C 0.35905 0.06479 0.72931 0.0
C632 C 0.32421 0.07143 0.68794 0.0
C633 C 0.37102 0.12122 0.667 0.0
C634 C 0.29989 0.09433 0.6838 0.0
C635 C 0.27007 0.08516 0.67299 0.0
C636 C 0.2639 0.05284 0.66626 0.0
C637 C 0.28884 0.03024 0.66916 0.0
C638 C 0.31864 0.03943 0.68006 0.0
H639 H 0.39412 0.13185 0.65986 0.0
H640 H 0.36229 0.10403 0.6511 0.0
H641 H 0.35328 0.141 0.66869 0.0
H642 H 0.30338 0.11902 0.69024 0.0
H643 H 0.25142 0.10318 0.67108 0.0
H644 H 0.0661 0.7914 0.21218 0.0
H645 H 0.03819 0.83926 0.2286 0.0
H646 H 0.95111 0.80735 0.18867 0.0
H647 H 0.97898 0.75931 0.17183 0.0
H648 H 0.96432 0.87756 0.18596 0.0
H649 H 0.97149 0.82471 0.29216 0.0
H650 H 1.00914 0.82831 0.27415 0.0
H651 H 0.97878 0.8014 0.26132 0.0
C652 C 0.04114 0.79475 0.20647 0.0
C653 C 0.02462 0.77132 0.19102 0.0
C654 C 0.02525 0.82214 0.21589 0.0
C655 C 0.99251 0.82653 0.21021 0.0
C656 C 0.9764 0.8043 0.1933 0.0
H657 H 0.85522 0.92961 0.3075 0.0
H658 H 0.88486 0.89163 0.27906 0.0
C659 C 0.99235 0.77688 0.18373 0.0
C660 C 0.97451 0.8525 0.22419 0.0
H661 H 0.9495 0.87672 0.28817 0.0
C662 C 0.96107 0.87751 0.20829 0.0
C663 C 0.97008 0.85207 0.25331 0.0
C664 C 0.98286 0.82509 0.2713 0.0
C665 C 0.94342 0.90231 0.22089 0.0
C666 C 0.93939 0.90203 0.25004 0.0
C667 C 0.95282 0.87697 0.26583 0.0
C668 C 0.91997 0.92641 0.26477 0.0
C669 C 0.92859 0.92818 0.20295 0.0
C670 C 0.9297 0.95878 0.26596 0.0
C671 C 0.9127 0.98074 0.28232 0.0
C672 C 0.88589 0.97054 0.29785 0.0
C673 C 0.87585 0.93829 0.29596 0.0
C674 C 0.89273 0.9165 0.27965 0.0
H675 H 0.92863 0.92158 0.18063 0.0
H676 H 0.90347 0.93295 0.20949 0.0
H677 H 0.94249 0.95082 0.20534 0.0
H678 H 0.95097 0.96681 0.25497 0.0
H679 H 0.92108 1.0054 0.2834 0.0
loop_
_geom_bond_atom_site_label_1
_geom_bond_atom_site_label_2
_geom_bond_distance
_geom_bond_site_symmetry_2
_ccdc_geom_bond_type
Mg0 O7 2.141 . S
Mg0 O8 2.048 1_455 S
Mg0 O9 2.048 . S
Mg0 O12 2.141 . S
C1 O2 1.313 . S
C1 O8 1.195 . S
O2 C1 1.313 . S
C3 O4 1.245 . S
C3 O12 1.289 . S
O4 C3 1.245 . S
C5 O6 1.245 . S
C5 O7 1.289 . S
O6 C5 1.245 . S
O7 Mg0 2.141 . S
O7 C5 1.289 . S
O8 Mg0 2.048 1_655 S
O8 C1 1.195 . S
O9 Mg0 2.048 . S
O9 C10 1.195 . S
C10 O9 1.195 . S
C10 O11 1.313 1_455 S
O11 C10 1.313 1_655 S
O12 Mg0 2.141 . S
O12 C3 1.289 . S
Mg13 O20 2.141 . S
Mg13 O21 2.048 . S
Mg13 O22 2.048 . S
Mg13 O25 2.141 . S
C14 O15 1.313 . S
C14 O21 1.195 . S
O15 C14 1.313 . S
C16 O17 1.245 . S
C16 O25 1.289 . S
O17 C16 1.245 . S
C18 O19 1.245 . S
C18 O20 1.289 . S
O19 C18 1.245 . S
O20 Mg13 2.141 . S
O20 C18 1.289 . S
O21 Mg13 2.048 . S
O21 C14 1.195 . S
O22 Mg13 2.048 . S
O22 C23 1.195 . S
C23 O22 1.195 . S
C23 O24 1.313 . S
O24 C23 1.313 . S
O25 Mg13 2.141 . S
O25 C16 1.289 . S
Mg26 O33 2.141 . S
Mg26 O34 2.048 . S
Mg26 O35 2.048 . S
Mg26 O38 2.141 . S
C27 O28 1.313 . S
C27 O34 1.195 . S
O28 C27 1.313 . S
C29 O30 1.245 . S
C29 O38 1.289 . S
O30 C29 1.245 . S
C31 O32 1.245 . S
C31 O33 1.289 . S
O32 C31 1.245 . S
O33 Mg26 2.141 . S
O33 C31 1.289 . S
O34 Mg26 2.048 . S
O34 C27 1.195 . S
O35 Mg26 2.048 . S
O35 C36 1.195 . S
C36 O35 1.195 . S
C36 O37 1.313 . S
O37 C36 1.313 . S
O38 Mg26 2.141 . S
O38 C29 1.289 . S
Mg39 O46 2.141 . S
Mg39 O47 2.048 1_565 S
Mg39 O48 2.048 . S
Mg39 O51 2.141 . S
C40 O41 1.313 . S
C40 O47 1.195 . S
O41 C40 1.313 . S
C42 O43 1.245 . S
C42 O51 1.289 . S
O43 C42 1.245 . S
C44 O45 1.245 . S
C44 O46 1.289 . S
O45 C44 1.245 . S
O46 Mg39 2.141 . S
O46 C44 1.289 . S
O47 Mg39 2.048 1_545 S
O47 C40 1.195 . S
O48 Mg39 2.048 . S
O48 C49 1.195 . S
C49 O48 1.195 . S
C49 O50 1.313 1_565 S
O50 C49 1.313 1_545 S
O51 Mg39 2.141 . S
O51 C42 1.289 . S
Mg52 O59 2.141 . S
Mg52 O60 2.048 . S
Mg52 O61 2.048 1_655 S
Mg52 O64 2.141 . S
C53 O54 1.313 1_655 S
C53 O60 1.195 . S
O54 C53 1.313 1_455 S
C55 O56 1.245 . S
C55 O64 1.289 . S
O56 C55 1.245 . S
C57 O58 1.245 . S
C57 O59 1.289 . S
O58 C57 1.245 . S
O59 Mg52 2.141 . S
O59 C57 1.289 . S
O60 Mg52 2.048 . S
O60 C53 1.195 . S
O61 Mg52 2.048 1_455 S
O61 C62 1.195 . S
C62 O61 1.195 . S
C62 O63 1.313 . S
O63 C62 1.313 . S
O64 Mg52 2.141 . S
O64 C55 1.289 . S
Mg65 O72 2.141 . S
Mg65 O73 2.048 . S
Mg65 O74 2.048 . S
Mg65 O77 2.141 . S
C66 O67 1.313 . S
C66 O73 1.195 . S
O67 C66 1.313 . S
C68 O69 1.245 . S
C68 O77 1.289 . S
O69 C68 1.245 . S
C70 O71 1.245 . S
C70 O72 1.289 . S
O71 C70 1.245 . S
O72 Mg65 2.141 . S
O72 C70 1.289 . S
O73 Mg65 2.048 . S
O73 C66 1.195 . S
O74 Mg65 2.048 . S
O74 C75 1.195 . S
C75 O74 1.195 . S
C75 O76 1.313 . S
O76 C75 1.313 . S
O77 Mg65 2.141 . S
O77 C68 1.289 . S
Mg78 O85 2.141 . S
Mg78 O86 2.048 . S
Mg78 O87 2.048 . S
Mg78 O90 2.141 . S
C79 O80 1.313 . S
C79 O86 1.195 . S
O80 C79 1.313 . S
C81 O82 1.245 . S
C81 O90 1.289 . S
O82 C81 1.245 . S
C83 O84 1.245 . S
C83 O85 1.289 . S
O84 C83 1.245 . S
O85 Mg78 2.141 . S
O85 C83 1.289 . S
O86 Mg78 2.048 . S
O86 C79 1.195 . S
O87 Mg78 2.048 . S
O87 C88 1.195 . S
C88 O87 1.195 . S
C88 O89 1.313 . S
O89 C88 1.313 . S
O90 Mg78 2.141 . S
O90 C81 1.289 . S
Mg91 O98 2.141 . S
Mg91 O99 2.048 . S
Mg91 O100 2.048 1_545 S
Mg91 O103 2.141 . S
C92 O93 1.313 1_545 S
C92 O99 1.195 . S
O93 C92 1.313 1_565 S
C94 O95 1.245 . S
C94 O103 1.289 . S
O95 C94 1.245 . S
C96 O97 1.245 . S
C96 O98 1.289 . S
O97 C96 1.245 . S
O98 Mg91 2.141 . S
O98 C96 1.289 . S
O99 Mg91 2.048 . S
O99 C92 1.195 . S
O100 Mg91 2.048 1_565 S
O100 C101 1.195 . S
C101 O100 1.195 . S
C101 O102 1.313 . S
O102 C101 1.313 . S
O103 Mg91 2.141 . S
O103 C94 1.289 . S
H104 C112 0.929 . S
H105 C114 0.930 . S
H106 C116 0.930 . S
H107 C119 0.929 . S
H108 C122 0.930 . S
H109 C124 0.960 . S
H110 C124 0.960 . S
H111 C124 0.960 . S
C112 H104 0.929 . S
C112 C113 1.377 1_455 S
C112 C114 1.384 . S
C113 C112 1.377 1_655 S
C113 C119 1.390 . S
C114 H105 0.930 . S
C114 C112 1.384 . S
C114 C115 1.372 1_455 S
C115 C114 1.372 1_655 S
C115 C116 1.400 . S
C115 C120 1.490 . S
C116 H106 0.930 . S
C116 C115 1.400 . S
C116 C119 1.386 . S
H117 C133 0.950 . S
H118 C134 0.931 . S
C119 H107 0.929 . S
C119 C113 1.390 . S
C119 C116 1.386 . S
C120 C115 1.490 . S
C120 C122 1.395 1_655 S
C120 C123 1.403 1_556 S
H121 C127 0.934 . S
C122 H108 0.930 . S
C122 C120 1.395 1_455 S
C122 C125 1.403 . S
C123 C120 1.403 1_554 S
C123 C124 1.524 . S
C123 C127 1.408 . S
C124 H109 0.960 . S
C124 H110 0.960 . S
C124 H111 0.960 . S
C124 C123 1.524 . S
C125 C122 1.403 . S
C125 C126 1.392 1_556 S
C125 C129 1.495 . S
C126 C125 1.392 1_554 S
C126 C127 1.375 1_455 S
C126 C128 1.478 . S
C127 H121 0.934 . S
C127 C123 1.408 . S
C127 C126 1.375 1_655 S
C128 C126 1.478 . S
C128 C130 1.381 . S
C128 C134 1.383 1_455 S
C129 C125 1.495 . S
C129 H135 0.959 . S
C129 H136 0.961 . S
C129 H137 0.960 . S
C130 C128 1.381 . S
C130 C131 1.394 . S
C130 H138 0.930 . S
C131 C130 1.394 . S
C131 C132 1.383 . S
C131 H139 0.929 . S
C132 C131 1.383 . S
C132 C133 1.351 1_455 S
C133 H117 0.950 . S
C133 C132 1.351 1_655 S
C133 C134 1.385 . S
C134 H118 0.931 . S
C134 C128 1.383 1_655 S
C134 C133 1.385 . S
H135 C129 0.959 . S
H136 C129 0.961 . S
H137 C129 0.960 . S
H138 C130 0.930 . S
H139 C131 0.929 . S
H140 C148 0.929 . S
H141 C150 0.930 . S
H142 C152 0.930 . S
H143 C155 0.929 . S
H144 C158 0.930 . S
H145 C160 0.960 . S
H146 C160 0.960 . S
H147 C160 0.960 . S
C148 H140 0.929 . S
C148 C149 1.377 . S
C148 C150 1.384 . S
C149 C148 1.377 . S
C149 C155 1.390 . S
C150 H141 0.930 . S
C150 C148 1.384 . S
C150 C151 1.372 . S
C151 C150 1.372 . S
C151 C152 1.400 . S
C151 C156 1.490 . S
C152 H142 0.930 . S
C152 C151 1.400 . S
C152 C155 1.386 . S
H153 C169 0.930 . S
H154 C170 0.931 . S
C155 H143 0.929 . S
C155 C149 1.390 . S
C155 C152 1.386 . S
C156 C151 1.490 . S
C156 C158 1.395 . S
C156 C159 1.403 . S
H157 C163 0.930 . S
C158 H144 0.930 . S
C158 C156 1.395 . S
C158 C161 1.403 . S
C159 C156 1.403 . S
C159 C160 1.524 . S
C159 C163 1.400 . S
C160 H145 0.960 . S
C160 H146 0.960 . S
C160 H147 0.960 . S
C160 C159 1.524 . S
C161 C158 1.403 . S
C161 C162 1.392 . S
C161 C165 1.495 . S
C162 C161 1.392 . S
C162 C163 1.385 . S
C162 C164 1.478 . S
C163 H157 0.930 . S
C163 C159 1.400 . S
C163 C162 1.385 . S
C164 C162 1.478 . S
C164 C166 1.381 . S
C164 C170 1.383 . S
C165 C161 1.495 . S
C165 H171 0.959 . S
C165 H172 0.961 . S
C165 H173 0.960 . S
C166 C164 1.381 . S
C166 C167 1.394 . S
C166 H174 0.930 . S
C167 C166 1.394 . S
C167 C168 1.383 . S
C167 H175 0.929 . S
C168 C167 1.383 . S
C168 C169 1.377 . S
C169 H153 0.930 . S
C169 C168 1.377 . S
C169 C170 1.379 . S
C170 H154 0.931 . S
C170 C164 1.383 . S
C170 C169 1.379 . S
H171 C165 0.959 . S
H172 C165 0.961 . S
H173 C165 0.960 . S
H174 C166 0.930 . S
H175 C167 0.929 . S
H176 C184 0.929 . S
H177 C186 0.930 . S
H178 C188 0.930 . S
H179 C191 0.929 . S
H180 C194 0.930 . S
H181 C196 0.960 . S
H182 C196 0.960 . S
H183 C196 0.960 . S
C184 H176 0.929 . S
C184 C185 1.377 . S
C184 C186 1.384 . S
C185 C184 1.377 . S
C185 C191 1.390 . S
C186 H177 0.930 . S
C186 C184 1.384 . S
C186 C187 1.372 . S
C187 C186 1.372 . S
C187 C188 1.400 . S
C187 C192 1.490 . S
C188 H178 0.930 . S
C188 C187 1.400 . S
C188 C191 1.386 . S
H189 C205 0.930 . S
H190 C206 0.931 . S
C191 H179 0.929 . S
C191 C185 1.390 . S
C191 C188 1.386 . S
C192 C187 1.490 . S
C192 C194 1.395 1_554 S
C192 C195 1.403 1_565 S
H193 C199 0.930 . S
C194 H180 0.930 . S
C194 C192 1.395 1_556 S
C194 C197 1.403 . S
C195 C192 1.403 1_545 S
C195 C196 1.524 . S
C195 C199 1.400 1_554 S
C196 H181 0.960 . S
C196 H182 0.960 . S
C196 H183 0.960 . S
C196 C195 1.524 . S
C197 C194 1.403 . S
C197 C198 1.392 1_565 S
C197 C201 1.495 . S
C198 C197 1.392 1_545 S
C198 C199 1.385 . S
C198 C200 1.478 . S
C199 H193 0.930 . S
C199 C195 1.400 1_556 S
C199 C198 1.385 . S
C200 C198 1.478 . S
C200 C202 1.381 . S
C200 C206 1.383 . S
C201 C197 1.495 . S
C201 H207 0.959 . S
C201 H208 0.961 . S
C201 H209 0.960 . S
C202 C200 1.381 . S
C202 C203 1.394 . S
C202 H210 0.930 . S
C203 C202 1.394 . S
C203 C204 1.383 . S
C203 H211 0.929 . S
C204 C203 1.383 . S
C204 C205 1.377 . S
C205 H189 0.930 . S
C205 C204 1.377 . S
C205 C206 1.379 . S
C206 H190 0.931 . S
C206 C200 1.383 . S
C206 C205 1.379 . S
H207 C201 0.959 . S
H208 C201 0.961 . S
H209 C201 0.960 . S
H210 C202 0.930 . S
H211 C203 0.929 . S
H212 C220 0.929 . S
H213 C222 0.930 . S
H214 C224 0.930 . S
H215 C227 0.929 . S
H216 C230 0.930 . S
H217 C232 0.960 . S
H218 C232 0.960 . S
H219 C232 0.960 . S
C220 H212 0.929 . S
C220 C221 1.377 1_565 S
C220 C222 1.384 . S
C221 C220 1.377 1_545 S
C221 C227 1.390 . S
C222 H213 0.930 . S
C222 C220 1.384 . S
C222 C223 1.372 1_565 S
C223 C222 1.372 1_545 S
C223 C224 1.400 . S
C223 C228 1.490 . S
C224 H214 0.930 . S
C224 C223 1.400 . S
C224 C227 1.386 . S
H225 C241 0.950 . S
H226 C242 0.931 . S
C227 H215 0.929 . S
C227 C221 1.390 . S
C227 C224 1.386 . S
C228 C223 1.490 . S
C228 C230 1.395 1_645 S
C228 C231 1.403 . S
H229 C235 0.930 . S
C230 H216 0.930 . S
C230 C228 1.395 1_465 S
C230 C233 1.403 . S
C231 C228 1.403 . S
C231 C232 1.524 . S
C231 C235 1.400 . S
C232 H217 0.960 . S
C232 H218 0.960 . S
C232 H219 0.960 . S
C232 C231 1.524 . S
C233 C230 1.403 . S
C233 C234 1.392 . S
C233 C237 1.495 . S
C234 C233 1.392 . S
C234 C235 1.385 1_465 S
C234 C236 1.478 . S
C235 H229 0.930 . S
C235 C231 1.400 . S
C235 C234 1.385 1_645 S
C236 C234 1.478 . S
C236 C238 1.381 . S
C236 C242 1.383 1_565 S
C237 C233 1.495 . S
C237 H243 0.959 . S
C237 H244 0.961 . S
C237 H245 0.960 . S
C238 C236 1.381 . S
C238 C239 1.394 . S
C238 H246 0.930 . S
C239 C238 1.394 . S
C239 C240 1.383 . S
C239 H247 0.929 . S
C240 C239 1.383 . S
C240 C241 1.351 1_565 S
C241 H225 0.950 . S
C241 C240 1.351 1_545 S
C241 C242 1.385 . S
C242 H226 0.931 . S
C242 C236 1.383 1_545 S
C242 C241 1.385 . S
H243 C237 0.959 . S
H244 C237 0.961 . S
H245 C237 0.960 . S
H246 C238 0.930 . S
H247 C239 0.929 . S
H248 C256 0.929 . S
H249 C258 0.930 . S
H250 C260 0.930 . S
H251 C263 0.929 . S
H252 C266 0.930 . S
H253 C268 0.960 . S
H254 C268 0.960 . S
H255 C268 0.960 . S
C256 H248 0.929 . S
C256 C257 1.377 . S
C256 C258 1.384 . S
C257 C256 1.377 . S
C257 C263 1.390 . S
C258 H249 0.930 . S
C258 C256 1.384 . S
C258 C259 1.372 . S
C259 C258 1.372 . S
C259 C260 1.400 . S
C259 C264 1.490 . S
C260 H250 0.930 . S
C260 C259 1.400 . S
C260 C263 1.386 . S
H261 C277 0.930 . S
H262 C278 0.931 . S
C263 H251 0.929 . S
C263 C257 1.390 . S
C263 C260 1.386 . S
C264 C259 1.490 . S
C264 C266 1.395 . S
C264 C267 1.403 . S
H265 C271 0.930 . S
C266 H252 0.930 . S
C266 C264 1.395 . S
C266 C269 1.403 . S
C267 C264 1.403 . S
C267 C268 1.524 . S
C267 C271 1.400 . S
C268 H253 0.960 . S
C268 H254 0.960 . S
C268 H255 0.960 . S
C268 C267 1.524 . S
C269 C266 1.403 . S
C269 C270 1.392 . S
C269 C273 1.495 . S
C270 C269 1.392 . S
C270 C271 1.385 . S
C270 C272 1.478 . S
C271 H265 0.930 . S
C271 C267 1.400 . S
C271 C270 1.385 . S
C272 C270 1.478 . S
C272 C274 1.381 . S
C272 C278 1.383 . S
C273 C269 1.495 . S
C273 H279 0.959 . S
C273 H280 0.961 . S
C273 H281 0.960 . S
C274 C272 1.381 . S
C274 C275 1.394 . S
C274 H282 0.930 . S
C275 C274 1.394 . S
C275 C276 1.383 . S
C275 H283 0.929 . S
C276 C275 1.383 . S
C276 C277 1.377 . S
C277 H261 0.930 . S
C277 C276 1.377 . S
C277 C278 1.379 . S
C278 H262 0.931 . S
C278 C272 1.383 . S
C278 C277 1.379 . S
H279 C273 0.959 . S
H280 C273 0.961 . S
H281 C273 0.960 . S
H282 C274 0.930 . S
H283 C275 0.929 . S
H284 C292 0.929 . S
H285 C294 0.930 . S
H286 C296 0.930 . S
H287 C299 0.929 . S
H288 C302 0.930 . S
H289 C304 0.960 . S
H290 C304 0.960 . S
H291 C304 0.960 . S
C292 H284 0.929 . S
C292 C293 1.377 . S
C292 C294 1.384 . S
C293 C292 1.377 . S
C293 C299 1.390 . S
C294 H285 0.930 . S
C294 C292 1.384 . S
C294 C295 1.372 . S
C295 C294 1.372 . S
C295 C296 1.400 . S
C295 C300 1.490 . S
C296 H286 0.930 . S
C296 C295 1.400 . S
C296 C299 1.386 . S
H297 C313 0.930 . S
H298 C314 0.931 . S
C299 H287 0.929 . S
C299 C293 1.390 . S
C299 C296 1.386 . S
C300 C295 1.490 . S
C300 C302 1.395 . S
C300 C303 1.403 . S
H301 C307 0.930 . S
C302 H288 0.930 . S
C302 C300 1.395 . S
C302 C305 1.403 . S
C303 C300 1.403 . S
C303 C304 1.524 . S
C303 C307 1.400 . S
C304 H289 0.960 . S
C304 H290 0.960 . S
C304 H291 0.960 . S
C304 C303 1.524 . S
C305 C302 1.403 . S
C305 C306 1.392 . S
C305 C309 1.495 . S
C306 C305 1.392 . S
C306 C307 1.385 . S
C306 C308 1.478 . S
C307 H301 0.930 . S
C307 C303 1.400 . S
C307 C306 1.385 . S
C308 C306 1.478 . S
C308 C310 1.381 . S
C308 C314 1.383 . S
C309 C305 1.495 . S
C309 H315 0.959 . S
C309 H316 0.961 . S
C309 H317 0.960 . S
C310 C308 1.381 . S
C310 C311 1.394 . S
C310 H318 0.930 . S
C311 C310 1.394 . S
C311 C312 1.383 . S
C311 H319 0.929 . S
C312 C311 1.383 . S
C312 C313 1.377 . S
C313 H297 0.930 . S
C313 C312 1.377 . S
C313 C314 1.379 . S
C314 H298 0.931 . S
C314 C308 1.383 . S
C314 C313 1.379 . S
H315 C309 0.959 . S
H316 C309 0.961 . S
H317 C309 0.960 . S
H318 C310 0.930 . S
H319 C311 0.929 . S
H320 C328 0.929 . S
H321 C330 0.930 . S
H322 C332 0.930 . S
H323 C335 0.929 . S
H324 C338 0.930 . S
H325 C340 0.960 . S
H326 C340 0.960 . S
H327 C340 0.960 . S
C328 H320 0.929 . S
C328 C329 1.377 . S
C328 C330 1.384 . S
C329 C328 1.377 . S
C329 C335 1.390 . S
C330 H321 0.930 . S
C330 C328 1.384 . S
C330 C331 1.372 . S
C331 C330 1.372 . S
C331 C332 1.400 . S
C331 C336 1.490 . S
C332 H322 0.930 . S
C332 C331 1.400 . S
C332 C335 1.386 . S
H333 C349 0.930 . S
H334 C350 0.931 . S
C335 H323 0.929 . S
C335 C329 1.390 . S
C335 C332 1.386 . S
C336 C331 1.490 . S
C336 C338 1.395 . S
C336 C339 1.403 . S
H337 C343 0.930 . S
C338 H324 0.930 . S
C338 C336 1.395 . S
C338 C341 1.403 . S
C339 C336 1.403 . S
C339 C340 1.524 . S
C339 C343 1.400 . S
C340 H325 0.960 . S
C340 H326 0.960 . S
C340 H327 0.960 . S
C340 C339 1.524 . S
C341 C338 1.403 . S
C341 C342 1.392 . S
C341 C345 1.495 . S
C342 C341 1.392 . S
C342 C343 1.385 . S
C342 C344 1.478 . S
C343 H337 0.930 . S
C343 C339 1.400 . S
C343 C342 1.385 . S
C344 C342 1.478 . S
C344 C346 1.381 . S
C344 C350 1.383 . S
C345 C341 1.495 . S
C345 H351 0.959 . S
C345 H352 0.961 . S
C345 H353 0.960 . S
C346 C344 1.381 . S
C346 C347 1.394 . S
C346 H354 0.930 . S
C347 C346 1.394 . S
C347 C348 1.383 . S
C347 H355 0.929 . S
C348 C347 1.383 . S
C348 C349 1.377 . S
C349 H333 0.930 . S
C349 C348 1.377 . S
C349 C350 1.379 . S
C350 H334 0.931 . S
C350 C344 1.383 . S
C350 C349 1.379 . S
H351 C345 0.959 . S
H352 C345 0.961 . S
H353 C345 0.960 . S
H354 C346 0.930 . S
H355 C347 0.929 . S
H356 C364 0.929 . S
H357 C366 0.930 . S
H358 C368 0.930 . S
H359 C371 0.929 . S
H360 C374 0.930 . S
H361 C376 0.960 . S
H362 C376 0.960 . S
H363 C376 0.960 . S
C364 H356 0.929 . S
C364 C365 1.377 . S
C364 C366 1.384 . S
C365 C364 1.377 . S
C365 C371 1.390 . S
C366 H357 0.930 . S
C366 C364 1.384 . S
C366 C367 1.372 . S
C367 C366 1.372 . S
C367 C368 1.400 . S
C367 C372 1.490 . S
C368 H358 0.930 . S
C368 C367 1.400 . S
C368 C371 1.386 . S
H369 C385 0.930 . S
H370 C386 0.931 . S
C371 H359 0.929 . S
C371 C365 1.390 . S
C371 C368 1.386 . S
C372 C367 1.490 . S
C372 C374 1.395 . S
C372 C375 1.403 . S
H373 C379 0.930 . S
C374 H360 0.930 . S
C374 C372 1.395 . S
C374 C377 1.403 . S
C375 C372 1.403 . S
C375 C376 1.524 . S
C375 C379 1.400 . S
C376 H361 0.960 . S
C376 H362 0.960 . S
C376 H363 0.960 . S
C376 C375 1.524 . S
C377 C374 1.403 . S
C377 C378 1.392 . S
C377 C381 1.495 . S
C378 C377 1.392 . S
C378 C379 1.385 . S
C378 C380 1.478 . S
C379 H373 0.930 . S
C379 C375 1.400 . S
C379 C378 1.385 . S
C380 C378 1.478 . S
C380 C382 1.381 . S
C380 C386 1.383 . S
C381 C377 1.495 . S
C381 H387 0.959 . S
C381 H388 0.961 . S
C381 H389 0.960 . S
C382 C380 1.381 . S
C382 C383 1.394 . S
C382 H390 0.930 . S
C383 C382 1.394 . S
C383 C384 1.383 . S
C383 H391 0.929 . S
C384 C383 1.383 . S
C384 C385 1.377 . S
C385 H369 0.930 . S
C385 C384 1.377 . S
C385 C386 1.379 . S
C386 H370 0.931 . S
C386 C380 1.383 . S
C386 C385 1.379 . S
H387 C381 0.959 . S
H388 C381 0.961 . S
H389 C381 0.960 . S
H390 C382 0.930 . S
H391 C383 0.929 . S
H392 C400 0.929 . S
H393 C402 0.930 . S
H394 C404 0.930 . S
H395 C407 0.929 . S
H396 C410 0.930 . S
H397 C412 0.960 . S
H398 C412 0.960 . S
H399 C412 0.960 . S
C400 H392 0.929 . S
C400 C401 1.377 . S
C400 C402 1.384 . S
C401 C400 1.377 . S
C401 C407 1.390 . S
C402 H393 0.930 . S
C402 C400 1.384 . S
C402 C403 1.372 . S
C403 C402 1.372 . S
C403 C404 1.400 . S
C403 C408 1.490 . S
C404 H394 0.930 . S
C404 C403 1.400 . S
C404 C407 1.386 . S
H405 C421 0.930 . S
H406 C422 0.931 . S
C407 H395 0.929 . S
C407 C401 1.390 . S
C407 C404 1.386 . S
C408 C403 1.490 . S
C408 C410 1.395 . S
C408 C411 1.403 . S
H409 C415 0.930 . S
C410 H396 0.930 . S
C410 C408 1.395 . S
C410 C413 1.403 . S
C411 C408 1.403 . S
C411 C412 1.524 . S
C411 C415 1.400 . S
C412 H397 0.960 . S
C412 H398 0.960 . S
C412 H399 0.960 . S
C412 C411 1.524 . S
C413 C410 1.403 . S
C413 C414 1.392 . S
C413 C417 1.495 . S
C414 C413 1.392 . S
C414 C415 1.385 . S
C414 C416 1.478 . S
C415 H409 0.930 . S
C415 C411 1.400 . S
C415 C414 1.385 . S
C416 C414 1.478 . S
C416 C418 1.381 . S
C416 C422 1.383 . S
C417 C413 1.495 . S
C417 H423 0.959 . S
C417 H424 0.961 . S
C417 H425 0.960 . S
C418 C416 1.381 . S
C418 C419 1.394 . S
C418 H426 0.930 . S
C419 C418 1.394 . S
C419 C420 1.383 . S
C419 H427 0.929 . S
C420 C419 1.383 . S
C420 C421 1.377 . S
C421 H405 0.930 . S
C421 C420 1.377 . S
C421 C422 1.379 . S
C422 H406 0.931 . S
C422 C416 1.383 . S
C422 C421 1.379 . S
H423 C417 0.959 . S
H424 C417 0.961 . S
H425 C417 0.960 . S
H426 C418 0.930 . S
H427 C419 0.929 . S
H428 C436 0.929 . S
H429 C438 0.930 . S
H430 C440 0.930 . S
H431 C443 0.929 . S
H432 C446 0.930 . S
H433 C448 0.960 . S
H434 C448 0.960 . S
H435 C448 0.960 . S
C436 H428 0.929 . S
C436 C437 1.377 . S
C436 C438 1.384 . S
C437 C436 1.377 . S
C437 C443 1.390 . S
C438 H429 0.930 . S
C438 C436 1.384 . S
C438 C439 1.372 . S
C439 C438 1.372 . S
C439 C440 1.400 . S
C439 C444 1.490 . S
C440 H430 0.930 . S
C440 C439 1.400 . S
C440 C443 1.386 . S
H441 C457 0.930 . S
H442 C458 0.931 . S
C443 H431 0.929 . S
C443 C437 1.390 . S
C443 C440 1.386 . S
C444 C439 1.490 . S
C444 C446 1.395 . S
C444 C447 1.403 . S
H445 C451 0.930 . S
C446 H432 0.930 . S
C446 C444 1.395 . S
C446 C449 1.403 . S
C447 C444 1.403 . S
C447 C448 1.524 . S
C447 C451 1.400 . S
C448 H433 0.960 . S
C448 H434 0.960 . S
C448 H435 0.960 . S
C448 C447 1.524 . S
C449 C446 1.403 . S
C449 C450 1.392 . S
C449 C453 1.495 . S
C450 C449 1.392 . S
C450 C451 1.385 . S
C450 C452 1.478 . S
C451 H445 0.930 . S
C451 C447 1.400 . S
C451 C450 1.385 . S
C452 C450 1.478 . S
C452 C454 1.381 . S
C452 C458 1.383 . S
C453 C449 1.495 . S
C453 H459 0.959 . S
C453 H460 0.961 . S
C453 H461 0.960 . S
C454 C452 1.381 . S
C454 C455 1.394 . S
C454 H462 0.930 . S
C455 C454 1.394 . S
C455 C456 1.383 . S
C455 H463 0.929 . S
C456 C455 1.383 . S
C456 C457 1.377 . S
C457 H441 0.930 . S
C457 C456 1.377 . S
C457 C458 1.379 . S
C458 H442 0.931 . S
C458 C452 1.383 . S
C458 C457 1.379 . S
H459 C453 0.959 . S
H460 C453 0.961 . S
H461 C453 0.960 . S
H462 C454 0.930 . S
H463 C455 0.929 . S
H464 C472 0.929 . S
H465 C474 0.930 . S
H466 C476 0.930 . S
H467 C479 0.929 . S
H468 C482 0.930 . S
H469 C484 0.960 1_545 S
H470 C484 0.960 . S
H471 C484 0.960 . S
C472 H464 0.929 . S
C472 C473 1.377 . S
C472 C474 1.384 . S
C473 C472 1.377 . S
C473 C479 1.390 . S
C474 H465 0.930 . S
C474 C472 1.384 . S
C474 C475 1.372 . S
C475 C474 1.372 . S
C475 C476 1.400 . S
C475 C480 1.490 . S
C476 H466 0.930 . S
C476 C475 1.400 . S
C476 C479 1.386 . S
H477 C493 0.930 . S
H478 C494 0.931 . S
C479 H467 0.929 . S
C479 C473 1.390 . S
C479 C476 1.386 . S
C480 C475 1.490 . S
C480 C482 1.395 . S
C480 C483 1.403 . S
H481 C487 0.930 . S
C482 H468 0.930 . S
C482 C480 1.395 . S
C482 C485 1.403 . S
C483 C480 1.403 . S
C483 C484 1.524 . S
C483 C487 1.400 . S
C484 H469 0.960 1_565 S
C484 H470 0.960 . S
C484 H471 0.960 . S
C484 C483 1.524 . S
C485 C482 1.403 . S
C485 C486 1.392 . S
C485 C489 1.495 . S
C486 C485 1.392 . S
C486 C487 1.385 . S
C486 C488 1.478 . S
C487 H481 0.930 . S
C487 C483 1.400 . S
C487 C486 1.385 . S
C488 C486 1.478 . S
C488 C490 1.381 . S
C488 C494 1.383 . S
C489 C485 1.495 . S
C489 H495 0.959 . S
C489 H496 0.961 . S
C489 H497 0.960 . S
C490 C488 1.381 . S
C490 C491 1.394 . S
C490 H498 0.930 . S
C491 C490 1.394 . S
C491 C492 1.404 . S
C491 H499 0.929 . S
C492 C491 1.404 . S
C492 C493 1.374 1_565 S
C493 H477 0.930 . S
C493 C492 1.374 1_545 S
C493 C494 1.379 1_545 S
C494 H478 0.931 . S
C494 C488 1.383 . S
C494 C493 1.379 1_565 S
H495 C489 0.959 . S
H496 C489 0.961 . S
H497 C489 0.960 . S
H498 C490 0.930 . S
H499 C491 0.929 . S
H500 C508 0.929 . S
H501 C510 0.930 . S
H502 C512 0.930 . S
H503 C515 0.929 . S
H504 C518 0.930 . S
H505 C520 0.960 . S
H506 C520 0.960 . S
H507 C520 0.960 . S
C508 H500 0.929 . S
C508 C509 1.377 . S
C508 C510 1.384 . S
C509 C508 1.377 . S
C509 C515 1.390 1_655 S
C510 H501 0.930 . S
C510 C508 1.384 . S
C510 C511 1.372 1_655 S
C511 C510 1.372 1_455 S
C511 C512 1.400 . S
C511 C516 1.490 . S
C512 H502 0.930 . S
C512 C511 1.400 . S
C512 C515 1.386 . S
H513 C529 0.930 . S
H514 C530 0.931 . S
C515 H503 0.929 . S
C515 C509 1.390 1_455 S
C515 C512 1.386 . S
C516 C511 1.490 . S
C516 C518 1.395 . S
C516 C519 1.403 . S
H517 C523 0.930 . S
C518 H504 0.930 . S
C518 C516 1.395 . S
C518 C521 1.403 . S
C519 C516 1.403 . S
C519 C520 1.524 . S
C519 C523 1.400 . S
C520 H505 0.960 . S
C520 H506 0.960 . S
C520 H507 0.960 . S
C520 C519 1.524 . S
C521 C518 1.403 . S
C521 C522 1.392 . S
C521 C525 1.495 . S
C522 C521 1.392 . S
C522 C523 1.385 . S
C522 C524 1.478 . S
C523 H517 0.930 . S
C523 C519 1.400 . S
C523 C522 1.385 . S
C524 C522 1.478 . S
C524 C526 1.381 . S
C524 C530 1.383 . S
C525 C521 1.495 . S
C525 H531 0.959 . S
C525 H532 0.961 . S
C525 H533 0.960 . S
C526 C524 1.381 . S
C526 C527 1.394 . S
C526 H534 0.930 . S
C527 C526 1.394 . S
C527 C528 1.383 . S
C527 H535 0.929 . S
C528 C527 1.383 . S
C528 C529 1.377 . S
C529 H513 0.930 . S
C529 C528 1.377 . S
C529 C530 1.379 . S
C530 H514 0.931 . S
C530 C524 1.383 . S
C530 C529 1.379 . S
H531 C525 0.959 . S
H532 C525 0.961 . S
H533 C525 0.960 . S
H534 C526 0.930 . S
H535 C527 0.929 . S
H536 C544 0.929 . S
H537 C546 0.930 . S
H538 C548 0.930 . S
H539 C551 0.929 . S
H540 C554 0.930 . S
H541 C556 0.960 . S
H542 C556 0.960 . S
H543 C556 0.960 . S
C544 H536 0.929 . S
C544 C545 1.377 . S
C544 C546 1.384 . S
C545 C544 1.377 . S
C545 C551 1.390 . S
C546 H537 0.930 . S
C546 C544 1.384 . S
C546 C547 1.372 . S
C547 C546 1.372 . S
C547 C548 1.400 . S
C547 C552 1.490 . S
C548 H538 0.930 . S
C548 C547 1.400 . S
C548 C551 1.386 . S
H549 C565 0.930 . S
H550 C566 0.931 . S
C551 H539 0.929 . S
C551 C545 1.390 . S
C551 C548 1.386 . S
C552 C547 1.490 . S
C552 C554 1.395 . S
C552 C555 1.403 . S
H553 C559 0.930 . S
C554 H540 0.930 . S
C554 C552 1.395 . S
C554 C557 1.403 . S
C555 C552 1.403 . S
C555 C556 1.524 . S
C555 C559 1.400 . S
C556 H541 0.960 . S
C556 H542 0.960 . S
C556 H543 0.960 . S
C556 C555 1.524 . S
C557 C554 1.403 . S
C557 C558 1.392 . S
C557 C561 1.495 . S
C558 C557 1.392 . S
C558 C559 1.385 . S
C558 C560 1.478 . S
C559 H553 0.930 . S
C559 C555 1.400 . S
C559 C558 1.385 . S
C560 C558 1.478 . S
C560 C562 1.381 . S
C560 C566 1.383 . S
C561 C557 1.495 . S
C561 H567 0.959 . S
C561 H568 0.961 . S
C561 H569 0.960 . S
C562 C560 1.381 . S
C562 C563 1.394 . S
C562 H570 0.930 . S
C563 C562 1.394 . S
C563 C564 1.383 . S
C563 H571 0.929 . S
C564 C563 1.383 . S
C564 C565 1.377 . S
C565 H549 0.930 . S
C565 C564 1.377 . S
C565 C566 1.379 . S
C566 H550 0.931 . S
C566 C560 1.383 . S
C566 C565 1.379 . S
H567 C561 0.959 . S
H568 C561 0.961 . S
H569 C561 0.960 . S
H570 C562 0.930 . S
H571 C563 0.929 . S
H572 C580 0.929 . S
H573 C582 0.930 . S
H574 C584 0.930 . S
H575 C587 0.929 . S
H576 C590 0.930 . S
H577 C592 0.960 . S
H578 C592 0.960 . S
H579 C592 0.960 . S
C580 H572 0.929 . S
C580 C581 1.377 . S
C580 C582 1.384 . S
C581 C580 1.377 . S
C581 C587 1.390 . S
C582 H573 0.930 . S
C582 C580 1.384 . S
C582 C583 1.372 . S
C583 C582 1.372 . S
C583 C584 1.400 . S
C583 C588 1.490 . S
C584 H574 0.930 . S
C584 C583 1.400 . S
C584 C587 1.386 . S
H585 C601 0.930 . S
H586 C602 0.931 . S
C587 H575 0.929 . S
C587 C581 1.390 . S
C587 C584 1.386 . S
C588 C583 1.490 . S
C588 C590 1.395 . S
C588 C591 1.403 . S
H589 C595 0.930 . S
C590 H576 0.930 . S
C590 C588 1.395 . S
C590 C593 1.403 . S
C591 C588 1.403 . S
C591 C592 1.524 . S
C591 C595 1.400 . S
C592 H577 0.960 . S
C592 H578 0.960 . S
C592 H579 0.960 . S
C592 C591 1.524 . S
C593 C590 1.403 . S
C593 C594 1.392 . S
C593 C597 1.495 . S
C594 C593 1.392 . S
C594 C595 1.385 . S
C594 C596 1.478 . S
C595 H589 0.930 . S
C595 C591 1.400 . S
C595 C594 1.385 . S
C596 C594 1.478 . S
C596 C598 1.381 . S
C596 C602 1.383 . S
C597 C593 1.495 . S
C597 H603 0.959 . S
C597 H604 0.961 . S
C597 H605 0.960 . S
C598 C596 1.381 . S
C598 C599 1.394 . S
C598 H606 0.930 . S
C599 C598 1.394 . S
C599 C600 1.383 . S
C599 H607 0.929 . S
C600 C599 1.383 . S
C600 C601 1.377 . S
C601 H585 0.930 . S
C601 C600 1.377 . S
C601 C602 1.379 . S
C602 H586 0.931 . S
C602 C596 1.383 . S
C602 C601 1.379 . S
H603 C597 0.959 . S
H604 C597 0.961 . S
H605 C597 0.960 . S
H606 C598 0.930 . S
H607 C599 0.929 . S
H608 C616 0.929 . S
H609 C618 0.930 . S
H610 C620 0.930 . S
H611 C623 0.929 . S
H612 C626 0.930 . S
H613 C628 0.960 . S
H614 C628 0.960 . S
H615 C628 0.960 . S
C616 H608 0.929 . S
C616 C617 1.377 . S
C616 C618 1.384 . S
C617 C616 1.377 . S
C617 C623 1.390 . S
C618 H609 0.930 . S
C618 C616 1.384 . S
C618 C619 1.372 . S
C619 C618 1.372 . S
C619 C620 1.400 . S
C619 C624 1.490 . S
C620 H610 0.930 . S
C620 C619 1.400 . S
C620 C623 1.386 . S
H621 C637 0.930 . S
H622 C638 0.943 . S
C623 H611 0.929 . S
C623 C617 1.390 . S
C623 C620 1.386 . S
C624 C619 1.490 . S
C624 C626 1.395 . S
C624 C627 1.403 . S
H625 C631 0.930 . S
C626 H612 0.930 . S
C626 C624 1.395 . S
C626 C629 1.403 . S
C627 C624 1.403 . S
C627 C628 1.524 . S
C627 C631 1.400 . S
C628 H613 0.960 . S
C628 H614 0.960 . S
C628 H615 0.960 . S
C628 C627 1.524 . S
C629 C626 1.403 . S
C629 C630 1.392 . S
C629 C633 1.495 . S
C630 C629 1.392 . S
C630 C631 1.385 . S
C630 C632 1.478 . S
C631 H625 0.930 . S
C631 C627 1.400 . S
C631 C630 1.385 . S
C632 C630 1.478 . S
C632 C634 1.381 . S
C632 C638 1.361 1_545 S
C633 C629 1.495 . S
C633 H639 0.959 . S
C633 H640 0.961 . S
C633 H641 0.960 . S
C634 C632 1.381 . S
C634 C635 1.394 . S
C634 H642 0.930 . S
C635 C634 1.394 . S
C635 C636 1.385 1_545 S
C635 H643 0.929 . S
C636 C635 1.385 1_565 S
C636 C637 1.376 . S
C637 H621 0.930 . S
C637 C636 1.376 . S
C637 C638 1.390 . S
C638 H622 0.943 . S
C638 C632 1.361 1_565 S
C638 C637 1.390 . S
H639 C633 0.959 . S
H640 C633 0.961 . S
H641 C633 0.960 . S
H642 C634 0.930 . S
H643 C635 0.929 . S
H644 C652 0.929 . S
H645 C654 0.930 . S
H646 C656 0.930 . S
H647 C659 0.929 . S
H648 C662 0.930 . S
H649 C664 0.960 . S
H650 C664 0.960 1_455 S
H651 C664 0.960 . S
C652 H644 0.929 . S
C652 C653 1.377 . S
C652 C654 1.384 1_455 S
C653 C652 1.377 . S
C653 C659 1.390 1_455 S
C654 H645 0.930 . S
C654 C652 1.384 1_655 S
C654 C655 1.372 . S
C655 C654 1.372 . S
C655 C656 1.400 . S
C655 C660 1.490 . S
C656 H646 0.930 . S
C656 C655 1.400 . S
C656 C659 1.386 . S
H657 C673 0.930 . S
H658 C674 0.931 . S
C659 H647 0.929 . S
C659 C653 1.390 1_655 S
C659 C656 1.386 . S
C660 C655 1.490 . S
C660 C662 1.395 . S
C660 C663 1.403 . S
H661 C667 0.930 . S
C662 H648 0.930 . S
C662 C660 1.395 . S
C662 C665 1.403 . S
C663 C660 1.403 . S
C663 C664 1.524 . S
C663 C667 1.400 . S
C664 H649 0.960 . S
C664 H650 0.960 1_655 S
C664 H651 0.960 . S
C664 C663 1.524 . S
C665 C662 1.403 . S
C665 C666 1.392 . S
C665 C669 1.495 . S
C666 C665 1.392 . S
C666 C667 1.385 . S
C666 C668 1.478 . S
C667 H661 0.930 . S
C667 C663 1.400 . S
C667 C666 1.385 . S
C668 C666 1.478 . S
C668 C670 1.381 . S
C668 C674 1.383 . S
C669 C665 1.495 . S
C669 H675 0.959 . S
C669 H676 0.961 . S
C669 H677 0.960 . S
C670 C668 1.381 . S
C670 C671 1.394 . S
C670 H678 0.930 . S
C671 C670 1.394 . S
C671 C672 1.383 . S
C671 H679 0.929 . S
C672 C671 1.383 . S
C672 C673 1.377 . S
C673 H657 0.930 . S
C673 C672 1.377 . S
C673 C674 1.379 . S
C674 H658 0.931 . S
C674 C668 1.383 . S
C674 C673 1.379 . S
H675 C669 0.959 . S
H676 C669 0.961 . S
H677 C669 0.960 . S
H678 C670 0.930 . S
H679 C671 0.929 . S
C113 C55 1.835 . S
C132 C5 1.820 . S
C149 C18 1.841 . S
C168 C68 1.860 . S
C185 C31 1.839 . S
C204 C81 1.856 . S
C221 C94 1.835 . S
C240 C44 1.820 . S
C257 C3 2.032 . S
C276 C29 2.026 . S
C293 C16 2.032 . S
C312 C42 2.026 . S
C329 C83 2.032 . S
C348 C57 2.028 . S
C365 C70 2.032 . S
C384 C96 2.030 . S
C401 C66 1.404 . S
C420 C1 1.448 . S
C437 C14 1.453 . S
C456 C79 1.428 . S
C473 C27 1.452 . S
C492 C92 1.377 1_565 S
C509 C53 1.408 . S
C528 C40 1.458 . S
C545 C62 1.452 . S
C564 C23 1.394 . S
C581 C75 1.451 . S
C600 C36 1.420 . S
C617 C88 1.453 . S
C636 C49 1.381 . S
C653 C10 1.413 . S
C672 C101 1.442 . S
