# Generated by pormake.
# Topology whv, (6)-cn, num edge types: 1
# Building blocks:
#     Node 0, Type 0, BuildingBlock: IZENUY_clean_sbu_0, # of connection points: 6
#     Node 1, Type 0, BuildingBlock: IZENUY_clean_sbu_0, # of connection points: 6
#     Node 2, Type 0, BuildingBlock: IZENUY_clean_sbu_0, # of connection points: 6
#     Node 3, Type 0, BuildingBlock: IZENUY_clean_sbu_0, # of connection points: 6
#     Node 4, Type 0, BuildingBlock: IZENUY_clean_sbu_0, # of connection points: 6
#     Node 5, Type 0, BuildingBlock: IZENUY_clean_sbu_0, # of connection points: 6
#     Node 6, Type 0, BuildingBlock: IZENUY_clean_sbu_0, # of connection points: 6
#     Node 7, Type 0, BuildingBlock: IZENUY_clean_sbu_0, # of connection points: 6
#     Node 8, Type 0, BuildingBlock: IZENUY_clean_sbu_0, # of connection points: 6
#     Node 9, Type 0, BuildingBlock: IZENUY_clean_sbu_0, # of connection points: 6
#     Node 10, Type 0, BuildingBlock: IZENUY_clean_sbu_0, # of connection points: 6
#     Node 11, Type 0, BuildingBlock: IZENUY_clean_sbu_0, # of connection points: 6
#     Node 12, Type 0, BuildingBlock: IZENUY_clean_sbu_0, # of connection points: 6
#     Node 13, Type 0, BuildingBlock: IZENUY_clean_sbu_0, # of connection points: 6
#     Node 14, Type 0, BuildingBlock: IZENUY_clean_sbu_0, # of connection points: 6
#     Node 15, Type 0, BuildingBlock: IZENUY_clean_sbu_0, # of connection points: 6
#     Edge 16, Type (0, 0), None
#     Edge 17, Type (0, 0), None
#     Edge 18, Type (0, 0), None
#     Edge 19, Type (0, 0), None
#     Edge 20, Type (0, 0), None
#     Edge 21, Type (0, 0), None
#     Edge 22, Type (0, 0), None
#     Edge 23, Type (0, 0), None
#     Edge 24, Type (0, 0), None
#     Edge 25, Type (0, 0), None
#     Edge 26, Type (0, 0), None
#     Edge 27, Type (0, 0), None
#     Edge 28, Type (0, 0), None
#     Edge 29, Type (0, 0), None
#     Edge 30, Type (0, 0), None
#     Edge 31, Type (0, 0), None
#     Edge 32, Type (0, 0), None
#     Edge 33, Type (0, 0), None
#     Edge 34, Type (0, 0), None
#     Edge 35, Type (0, 0), None
#     Edge 36, Type (0, 0), None
#     Edge 37, Type (0, 0), None
#     Edge 38, Type (0, 0), None
#     Edge 39, Type (0, 0), None
#     Edge 40, Type (0, 0), None
#     Edge 41, Type (0, 0), None
#     Edge 42, Type (0, 0), None
#     Edge 43, Type (0, 0), None
#     Edge 44, Type (0, 0), None
#     Edge 45, Type (0, 0), None
#     Edge 46, Type (0, 0), None
#     Edge 47, Type (0, 0), None
#     Edge 48, Type (0, 0), None
#     Edge 49, Type (0, 0), None
#     Edge 50, Type (0, 0), None
#     Edge 51, Type (0, 0), None
#     Edge 52, Type (0, 0), None
#     Edge 53, Type (0, 0), None
#     Edge 54, Type (0, 0), None
#     Edge 55, Type (0, 0), None
#     Edge 56, Type (0, 0), None
#     Edge 57, Type (0, 0), None
#     Edge 58, Type (0, 0), None
#     Edge 59, Type (0, 0), None
#     Edge 60, Type (0, 0), None
#     Edge 61, Type (0, 0), None
#     Edge 62, Type (0, 0), None
#     Edge 63, Type (0, 0), None
# Relax obj value: 0.236
# Max RMSD: 0.247
# Mean RMSD: 0.247
data_MOF--net-whv--node1-IZENUY_clean_sbu_0--edge1-none
_symmetry_space_group_name_H-M    P1
_symmetry_Int_Tables_number       1
_symmetry_cell_setting            triclinic
loop_
_symmetry_equiv_pos_as_xyz
'x, y, z'
_cell_length_a     23.949515
_cell_length_b     23.949593
_cell_length_c     11.390848
_cell_angle_alpha  89.998082
_cell_angle_beta   90.001132
_cell_angle_gamma 90.000043
loop_
_atom_site_label
_atom_site_type_symbol
_atom_site_fract_x
_atom_site_fract_y
_atom_site_fract_z
_atom_type_partial_charge
Fe0 Fe 0.29386 0.26968 0.06466 0.0
Fe1 Fe 0.33429 0.15932 0.9847 0.0
O2 O 0.33884 0.2146 0.08486 0.0
Fe3 Fe 0.39507 0.22142 0.17841 0.0
O4 O 0.42317 0.28053 0.1032 0.0
O5 O 0.34503 0.32507 0.10221 0.0
O6 O 0.32963 0.27599 0.93081 0.0
C7 C 0.30054 0.25732 0.85826 0.0
C8 C 0.2921 0.26827 0.29629 0.0
O9 O 0.29611 0.20367 0.86539 0.0
C10 C 0.38343 0.11514 0.20433 0.0
O11 O 0.23409 0.21846 1.02031 0.0
O12 O 0.27175 0.13634 1.0502 0.0
O13 O 0.34687 0.26109 0.29012 0.0
O14 O 0.2631 0.26607 0.20563 0.0
C15 C 0.44025 0.1741 0.95968 0.0
O16 O 0.37252 0.11005 0.09266 0.0
O17 O 0.37521 0.16042 0.25488 0.0
C18 C 0.23007 0.16433 1.02363 0.0
O19 O 0.39483 0.18007 0.91169 0.0
O20 O 0.44523 0.18226 0.07249 0.0
C21 C 0.39615 0.32136 0.07072 0.0
Fe22 Fe 0.53289 0.54393 0.31463 0.0
Fe23 Fe 0.64325 0.58437 0.2347 0.0
O24 O 0.58797 0.58891 0.33485 0.0
Fe25 Fe 0.58114 0.64514 0.42839 0.0
O26 O 0.52204 0.67324 0.35317 0.0
O27 O 0.4775 0.5951 0.35218 0.0
O28 O 0.52658 0.5797 0.18078 0.0
C29 C 0.54526 0.55062 0.10824 0.0
C30 C 0.53428 0.54216 0.54626 0.0
O31 O 0.59891 0.54619 0.11538 0.0
C32 C 0.68741 0.63351 0.45434 0.0
O33 O 0.58411 0.48417 0.27029 0.0
O34 O 0.66623 0.52182 0.30019 0.0
O35 O 0.54146 0.59693 0.54009 0.0
O36 O 0.5365 0.51317 0.4556 0.0
C37 C 0.62848 0.69032 0.20969 0.0
O38 O 0.69252 0.6226 0.34267 0.0
O39 O 0.64213 0.62528 0.50487 0.0
C40 C 0.63824 0.48015 0.27361 0.0
O41 O 0.62251 0.64491 0.16169 0.0
O42 O 0.62031 0.69531 0.32249 0.0
C43 C 0.4812 0.64622 0.32069 0.0
Fe44 Fe 0.25862 0.78295 0.56466 0.0
Fe45 Fe 0.2182 0.89332 0.4847 0.0
O46 O 0.21364 0.83804 0.58485 0.0
Fe47 Fe 0.15741 0.83122 0.6784 0.0
O48 O 0.12931 0.77211 0.60319 0.0
O49 O 0.20745 0.72757 0.60221 0.0
O50 O 0.22286 0.77664 0.43081 0.0
C51 C 0.25195 0.79531 0.35826 0.0
C52 C 0.26038 0.78436 0.79629 0.0
O53 O 0.25638 0.84897 0.36539 0.0
C54 C 0.16906 0.93749 0.70432 0.0
O55 O 0.31839 0.83417 0.52032 0.0
O56 O 0.28074 0.91629 0.5502 0.0
O57 O 0.20562 0.79154 0.79012 0.0
O58 O 0.28938 0.78657 0.70563 0.0
C59 C 0.11224 0.87855 0.45967 0.0
O60 O 0.17997 0.94259 0.59265 0.0
O61 O 0.17728 0.89221 0.75487 0.0
C62 C 0.32242 0.8883 0.52364 0.0
O63 O 0.15766 0.87258 0.41168 0.0
O64 O 0.10726 0.87038 0.57248 0.0
C65 C 0.15633 0.73128 0.57071 0.0
Fe66 Fe 1.01961 0.5087 0.81463 0.0
Fe67 Fe 0.90924 0.46827 0.73471 0.0
O68 O 0.96452 0.46372 0.83485 0.0
Fe69 Fe 0.97135 0.40749 0.92841 0.0
O70 O 0.03046 0.37939 0.85319 0.0
O71 O 0.075 0.45753 0.85217 0.0
O72 O 1.0259 0.47293 0.68078 0.0
C73 C 1.00723 0.50202 0.60824 0.0
C74 C 1.01821 0.51047 1.04627 0.0
O75 O 0.95358 0.50645 0.61538 0.0
C76 C 0.86508 0.41912 0.95435 0.0
O77 O 0.96838 0.56847 0.77029 0.0
O78 O 0.88626 0.53081 0.8002 0.0
O79 O 1.01103 0.4557 1.0401 0.0
O80 O 1.016 0.53947 0.95559 0.0
C81 C 0.92401 0.36231 0.7097 0.0
O82 O 0.85997 0.43003 0.84268 0.0
O83 O 0.91036 0.42735 1.00488 0.0
C84 C 0.91425 0.57249 0.77362 0.0
O85 O 0.92998 0.40773 0.6617 0.0
O86 O 0.93218 0.35733 0.8225 0.0
C87 C 0.07129 0.40641 0.82069 0.0
Fe88 Fe 0.71819 0.89335 0.21863 0.0
Fe89 Fe 0.65739 0.83123 1.02497 0.0
O90 O 0.71363 0.83806 0.11851 0.0
Fe91 Fe 0.7586 0.78297 0.13875 0.0
O92 O 0.72284 0.77669 0.27261 0.0
O93 O 0.75637 0.84901 0.33796 0.0
O94 O 0.65765 0.87262 0.29167 0.0
C95 C 0.61223 0.87859 0.24369 0.0
C96 C 0.82241 0.88831 0.1797 0.0
O97 O 0.60724 0.87041 0.13089 0.0
C98 C 0.76035 0.78434 0.90711 0.0
O99 O 0.67995 0.94261 0.11065 0.0
O100 O 0.67726 0.89222 0.94847 0.0
O101 O 0.81838 0.83419 0.18304 0.0
O102 O 0.78073 0.91631 0.15311 0.0
C103 C 0.65629 0.73131 0.13275 0.0
O104 O 0.70559 0.79154 0.91327 0.0
O105 O 0.78935 0.78655 0.99777 0.0
C106 C 0.66903 0.9375 0.99899 0.0
O107 O 0.62928 0.77214 0.1002 0.0
O108 O 0.70741 0.72758 0.10126 0.0
C109 C 0.75194 0.79536 0.34513 0.0
Fe110 Fe 0.47133 0.40747 0.77502 0.0
Fe111 Fe 0.51961 0.50869 0.88871 0.0
O112 O 0.46451 0.46372 0.86853 0.0
Fe113 Fe 0.4092 0.46832 0.9686 0.0
O114 O 0.42987 0.40779 1.04172 0.0
O115 O 0.43214 0.35734 0.88096 0.0
O116 O 0.53042 0.37937 0.85029 0.0
C117 C 0.57128 0.40638 0.88268 0.0
C118 C 0.36506 0.41913 0.74898 0.0
O119 O 0.57499 0.4575 0.85117 0.0
C120 C 0.41428 0.57252 0.92963 0.0
O121 O 0.51103 0.45566 0.66329 0.0
O122 O 0.51599 0.53943 0.74774 0.0
O123 O 0.35994 0.43008 0.86063 0.0
O124 O 0.41035 0.42734 0.69849 0.0
C125 C 0.50718 0.50201 0.09506 0.0
O126 O 0.4684 0.56848 0.93301 0.0
O127 O 0.38628 0.53086 0.90298 0.0
C128 C 0.5182 0.51042 0.65709 0.0
O129 O 0.52593 0.47293 1.0226 0.0
O130 O 0.45354 0.5065 0.08794 0.0
C131 C 0.42393 0.36236 0.99375 0.0
Fe132 Fe 0.79389 0.26968 0.63875 0.0
Fe133 Fe 0.83429 0.15929 0.71863 0.0
O134 O 0.83886 0.21458 0.61852 0.0
Fe135 Fe 0.89509 0.22141 0.52498 0.0
O136 O 0.92321 0.2805 0.60021 0.0
O137 O 0.84508 0.32506 0.60126 0.0
O138 O 0.82965 0.27595 0.77262 0.0
C139 C 0.80054 0.25727 0.84513 0.0
C140 C 0.79213 0.2683 0.40711 0.0
O141 O 0.79611 0.20362 0.83796 0.0
C142 C 0.88345 0.11514 0.49899 0.0
O143 O 0.73411 0.21846 0.68303 0.0
O144 O 0.77174 0.13634 0.6531 0.0
O145 O 0.8469 0.26111 0.41328 0.0
O146 O 0.76313 0.2661 0.49777 0.0
C147 C 0.94025 0.17404 0.74369 0.0
O148 O 0.87252 0.11003 0.61065 0.0
O149 O 0.87522 0.16043 0.44847 0.0
C150 C 0.73007 0.16433 0.67969 0.0
O151 O 0.89483 0.18 0.79168 0.0
O152 O 0.94524 0.18223 0.63089 0.0
C153 C 0.8962 0.32133 0.63276 0.0
Fe154 Fe 0.03287 0.54396 0.38872 0.0
Fe155 Fe 0.14329 0.58432 0.4686 0.0
O156 O 0.08797 0.58893 0.36854 0.0
Fe157 Fe 0.08115 0.64517 0.27501 0.0
O158 O 1.02206 0.67327 0.35028 0.0
O159 O 0.97749 0.59515 0.35119 0.0
O160 O 0.02655 0.57972 0.52261 0.0
C161 C 0.04531 0.55063 0.59507 0.0
C162 C 0.03428 0.54222 0.1571 0.0
O163 O 0.09895 0.54614 0.58794 0.0
C164 C 0.18742 0.63351 0.24898 0.0
O165 O 0.08408 0.48417 0.43302 0.0
O166 O 0.1662 0.52178 0.40299 0.0
O167 O 0.04146 0.59698 0.16329 0.0
O168 O 0.03648 0.51321 0.24775 0.0
C169 C 0.12854 0.69028 0.49375 0.0
O170 O 0.19254 0.62257 0.36063 0.0
O171 O 0.14213 0.6253 0.19849 0.0
C172 C 0.1382 0.48012 0.42963 0.0
O173 O 0.12261 0.64485 0.54172 0.0
O174 O 0.12034 0.6953 0.38096 0.0
C175 C 0.98121 0.64627 0.38269 0.0
Fe176 Fe 0.79385 0.76969 0.56464 0.0
Fe177 Fe 0.83425 0.65929 0.48469 0.0
O178 O 0.83883 0.71459 0.58482 0.0
Fe179 Fe 0.89506 0.7214 0.67837 0.0
O180 O 0.92317 0.7805 0.60315 0.0
O181 O 0.84504 0.82507 0.60223 0.0
O182 O 0.82962 0.77603 0.43078 0.0
C183 C 0.80055 0.75729 0.35829 0.0
C184 C 0.7921 0.76826 0.79627 0.0
O185 O 0.79606 0.70364 0.36538 0.0
C186 C 0.88339 0.61512 0.7043 0.0
O187 O 0.73407 0.71848 0.52031 0.0
O188 O 0.7717 0.63634 0.55024 0.0
O189 O 0.84686 0.76108 0.7901 0.0
O190 O 0.7631 0.76606 0.70561 0.0
C191 C 0.94021 0.67405 0.45964 0.0
O192 O 0.87248 0.61002 0.59264 0.0
O193 O 0.87519 0.6604 0.75484 0.0
C194 C 0.73004 0.66436 0.52369 0.0
O195 O 0.89478 0.68 0.41164 0.0
O196 O 0.9452 0.68223 0.57244 0.0
C197 C 0.89616 0.82136 0.57073 0.0
Fe198 Fe 0.03288 0.04393 0.81462 0.0
Fe199 Fe 0.14326 0.08435 0.73469 0.0
O200 O 0.08798 0.0889 0.83485 0.0
Fe201 Fe 0.08116 0.14513 0.9284 0.0
O202 O 1.02206 0.17325 0.8532 0.0
O203 O 0.97751 0.09512 0.85214 0.0
O204 O 0.0266 0.0797 0.68077 0.0
C205 C 0.04527 0.0506 0.60823 0.0
C206 C 0.03428 0.04216 1.04627 0.0
O207 O 0.09892 0.04617 0.61537 0.0
C208 C 0.18744 0.13347 0.95432 0.0
O209 O 0.0841 0.98416 0.77031 0.0
O210 O 0.16624 1.0218 0.80017 0.0
O211 O 0.04148 0.09693 1.0401 0.0
O212 O 0.03648 1.01317 0.9556 0.0
C213 C 0.12849 0.19031 0.70968 0.0
O214 O 0.19253 0.12257 0.84265 0.0
O215 O 0.14216 0.12525 1.00487 0.0
C216 C 0.13822 0.98013 0.77365 0.0
O217 O 0.12252 0.14489 0.66169 0.0
O218 O 0.12033 0.19529 0.82249 0.0
C219 C 0.98123 0.14624 0.82065 0.0
Fe220 Fe 0.75863 0.28294 0.06464 0.0
Fe221 Fe 0.71825 0.39335 0.98469 0.0
O222 O 0.71366 0.33805 0.08481 0.0
Fe223 Fe 0.65743 0.33124 0.17836 0.0
O224 O 0.62931 0.27214 0.10314 0.0
O225 O 0.70744 0.22757 0.10223 0.0
O226 O 0.72286 0.27661 0.93077 0.0
C227 C 0.75194 0.29535 0.85829 0.0
C228 C 0.76038 0.28437 0.29627 0.0
O229 O 0.75643 0.349 0.86538 0.0
C230 C 0.6691 0.43751 0.20429 0.0
O231 O 0.81841 0.33415 1.02031 0.0
O232 O 0.78079 0.41629 1.05025 0.0
O233 O 0.70562 0.29156 0.29009 0.0
O234 O 0.78938 0.28657 0.20561 0.0
C235 C 0.61228 0.3786 0.95962 0.0
O236 O 0.68002 0.44262 0.09263 0.0
O237 O 0.6773 0.39223 0.25483 0.0
C238 C 0.82245 0.38827 1.0237 0.0
O239 O 0.6577 0.37265 0.91163 0.0
O240 O 0.60728 0.37041 0.07242 0.0
C241 C 0.65632 0.23128 0.07072 0.0
Fe242 Fe 0.51961 1.0087 0.31462 0.0
Fe243 Fe 0.40923 0.96829 0.23469 0.0
O244 O 0.46451 0.96373 0.33485 0.0
Fe245 Fe 0.47133 0.9075 0.42842 0.0
O246 O 0.53043 0.87938 0.35322 0.0
O247 O 0.57498 0.95751 0.35214 0.0
O248 O 0.52589 0.97293 0.18077 0.0
C249 C 0.50722 1.00204 0.10824 0.0
C250 C 0.51821 1.01047 0.54627 0.0
O251 O 0.45357 1.00647 0.11538 0.0
C252 C 0.36505 0.91916 0.45432 0.0
O253 O 0.46839 0.06848 0.27031 0.0
O254 O 0.38625 0.03083 0.30018 0.0
O255 O 0.51101 0.95571 0.54012 0.0
O256 O 0.51602 0.03946 0.45559 0.0
C257 C 0.424 0.86233 0.2097 0.0
O258 O 0.35996 0.93006 0.34265 0.0
O259 O 0.41033 0.92738 0.50487 0.0
C260 C 0.41427 0.0725 0.27366 0.0
O261 O 0.42997 0.90774 0.16169 0.0
O262 O 0.43216 0.85735 0.32251 0.0
C263 C 0.57125 0.9064 0.32065 0.0
Fe264 Fe 0.21824 0.39337 0.71862 0.0
Fe265 Fe 0.1574 0.33124 0.52501 0.0
O266 O 0.21364 0.33806 0.61855 0.0
Fe267 Fe 0.25861 0.28295 0.63876 0.0
O268 O 0.22284 0.27665 0.77264 0.0
O269 O 0.25642 0.34904 0.83796 0.0
O270 O 0.1577 0.37268 0.79172 0.0
C271 C 0.11228 0.37862 0.74373 0.0
C272 C 0.32243 0.38829 0.67961 0.0
O273 O 0.10727 0.37042 0.63094 0.0
C274 C 0.26035 0.28435 0.40712 0.0
O275 O 0.17999 0.44263 0.61064 0.0
O276 O 0.17728 0.39221 0.44849 0.0
O277 O 0.3184 0.33416 0.68303 0.0
O278 O 0.28078 0.4163 0.65303 0.0
C279 C 0.1563 0.2313 0.63274 0.0
O280 O 0.20559 0.29154 0.4133 0.0
O281 O 0.28936 0.28655 0.49778 0.0
C282 C 0.16906 0.4375 0.49899 0.0
O283 O 0.12929 0.27215 0.60027 0.0
O284 O 0.20741 0.22758 0.60124 0.0
C285 C 0.25193 0.2954 0.8451 0.0
Fe286 Fe 1.01962 1.00867 0.38874 0.0
Fe287 Fe 0.90919 0.96832 0.46865 0.0
O288 O 0.9645 0.96371 0.36855 0.0
Fe289 Fe 0.97131 0.90748 0.27502 0.0
O290 O 0.0304 0.87935 0.35026 0.0
O291 O 0.07498 0.95747 0.35121 0.0
O292 O 1.02592 0.97291 0.52263 0.0
C293 C 1.00718 1.002 0.59509 0.0
C294 C 1.0182 1.01042 0.15711 0.0
O295 O 0.95354 1.0065 0.58797 0.0
C296 C 0.86504 0.91916 0.24903 0.0
O297 O 0.96841 0.06847 0.43303 0.0
O298 O 0.88627 0.03086 0.40305 0.0
O299 O 1.01101 0.95566 0.16329 0.0
O300 O 1.01601 0.03942 0.24776 0.0
C301 C 0.92394 0.86235 0.49376 0.0
O302 O 0.85993 0.93009 0.36069 0.0
O303 O 0.91033 0.92736 0.19852 0.0
C304 C 0.91429 0.07251 0.42962 0.0
O305 O 0.92988 0.90778 0.54174 0.0
O306 O 0.93212 0.85735 0.38097 0.0
C307 C 0.07125 0.90635 0.38272 0.0
Fe308 Fe 0.29388 0.76969 0.13876 0.0
Fe309 Fe 0.33424 0.65926 0.21862 0.0
O310 O 0.33884 0.71458 0.11855 0.0
Fe311 Fe 0.39508 0.7214 1.02502 0.0
O312 O 0.4232 0.78049 0.10029 0.0
O313 O 0.34508 0.82506 0.10125 0.0
O314 O 0.32964 0.77599 0.27265 0.0
C315 C 0.30055 0.75723 0.3451 0.0
C316 C 0.29213 0.7683 0.90713 0.0
O317 O 0.29606 0.70359 0.33796 0.0
C318 C 0.38341 0.61514 0.99899 0.0
O319 O 0.23408 0.71848 0.18303 0.0
O320 O 0.2717 0.63634 0.15303 0.0
O321 O 0.3469 0.76111 0.91331 0.0
O322 O 0.26313 0.7661 0.99779 0.0
C323 C 0.4402 0.67401 0.24374 0.0
O324 O 0.37248 0.61001 0.11064 0.0
O325 O 0.37521 0.66043 0.94849 0.0
C326 C 0.23004 0.66436 0.17961 0.0
O327 O 0.39478 0.67994 0.29172 0.0
O328 O 0.44521 0.68221 0.13095 0.0
C329 C 0.39619 0.82134 0.13276 0.0
Fe330 Fe 0.53286 0.04397 0.88875 0.0
Fe331 Fe 0.64329 0.08433 0.96865 0.0
O332 O 0.58798 0.08893 0.86856 0.0
Fe333 Fe 0.58117 0.14517 0.77501 0.0
O334 O 0.52208 0.17329 0.85024 0.0
O335 O 0.4775 0.09518 0.85122 0.0
O336 O 0.52656 0.07973 1.02264 0.0
C337 C 0.54531 0.05064 0.09509 0.0
C338 C 0.53428 0.04222 0.65711 0.0
O339 O 0.59895 0.04614 0.08797 0.0
C340 C 0.68744 0.13348 0.74903 0.0
O341 O 0.58407 0.98417 0.93303 0.0
O342 O 0.66621 1.02179 0.90306 0.0
O343 O 0.54147 0.09699 0.66329 0.0
O344 O 0.53646 1.01322 0.74778 0.0
C345 C 0.62854 0.19029 0.99376 0.0
O346 O 0.69255 0.12256 0.86069 0.0
O347 O 0.64215 0.12528 0.69852 0.0
C348 C 0.63819 0.98013 0.92962 0.0
O349 O 0.62261 0.14486 1.04174 0.0
O350 O 0.62036 0.1953 0.88096 0.0
C351 C 0.48123 0.14629 0.88273 0.0
loop_
_geom_bond_atom_site_label_1
_geom_bond_atom_site_label_2
_geom_bond_distance
_geom_bond_site_symmetry_2
_ccdc_geom_bond_type
Fe0 O2 1.918 . S
Fe0 O5 1.997 . S
Fe0 O6 2.002 1_554 S
Fe0 O11 1.976 . S
Fe0 O14 1.996 . S
Fe1 O2 1.918 1_556 S
Fe1 O9 1.997 . S
Fe1 O12 1.996 . S
Fe1 O16 1.976 1_556 S
Fe1 O19 2.002 . S
O2 Fe0 1.918 . S
O2 Fe1 1.918 1_554 S
O2 Fe3 1.918 . S
Fe3 O2 1.918 . S
Fe3 O4 2.002 . S
Fe3 O13 1.976 . S
Fe3 O17 1.996 . S
Fe3 O20 1.997 . S
O4 Fe3 2.002 . S
O4 C21 1.295 . S
O5 Fe0 1.997 . S
O5 C21 1.235 . S
O6 Fe0 2.002 1_556 S
O6 C7 1.295 . S
C7 O6 1.295 . S
C7 O9 1.235 . S
C8 O13 1.287 . S
C8 O14 1.255 . S
O9 Fe1 1.997 . S
O9 C7 1.235 . S
C10 O16 1.287 . S
C10 O17 1.255 . S
O11 Fe0 1.976 . S
O11 C18 1.287 1_554 S
O12 Fe1 1.996 . S
O12 C18 1.255 . S
O13 Fe3 1.976 . S
O13 C8 1.287 . S
O14 Fe0 1.996 . S
O14 C8 1.255 . S
C15 O19 1.295 . S
C15 O20 1.235 1_556 S
O16 Fe1 1.976 1_554 S
O16 C10 1.287 . S
O17 Fe3 1.996 . S
O17 C10 1.255 . S
C18 O11 1.287 1_556 S
C18 O12 1.255 . S
O19 Fe1 2.002 . S
O19 C15 1.295 . S
O20 Fe3 1.997 . S
O20 C15 1.235 1_554 S
C21 O4 1.295 . S
C21 O5 1.235 . S
Fe22 O24 1.918 . S
Fe22 O27 1.997 . S
Fe22 O28 2.002 . S
Fe22 O33 1.976 . S
Fe22 O36 1.996 . S
Fe23 O24 1.918 . S
Fe23 O31 1.997 . S
Fe23 O34 1.996 . S
Fe23 O38 1.976 . S
Fe23 O41 2.002 . S
O24 Fe22 1.918 . S
O24 Fe23 1.918 . S
O24 Fe25 1.918 . S
Fe25 O24 1.918 . S
Fe25 O26 2.002 . S
Fe25 O35 1.976 . S
Fe25 O39 1.996 . S
Fe25 O42 1.997 . S
O26 Fe25 2.002 . S
O26 C43 1.295 . S
O27 Fe22 1.997 . S
O27 C43 1.235 . S
O28 Fe22 2.002 . S
O28 C29 1.295 . S
C29 O28 1.295 . S
C29 O31 1.235 . S
C30 O35 1.287 . S
C30 O36 1.255 . S
O31 Fe23 1.997 . S
O31 C29 1.235 . S
C32 O38 1.287 . S
C32 O39 1.255 . S
O33 Fe22 1.976 . S
O33 C40 1.287 . S
O34 Fe23 1.996 . S
O34 C40 1.255 . S
O35 Fe25 1.976 . S
O35 C30 1.287 . S
O36 Fe22 1.996 . S
O36 C30 1.255 . S
C37 O41 1.295 . S
C37 O42 1.235 . S
O38 Fe23 1.976 . S
O38 C32 1.287 . S
O39 Fe25 1.996 . S
O39 C32 1.255 . S
C40 O33 1.287 . S
C40 O34 1.255 . S
O41 Fe23 2.002 . S
O41 C37 1.295 . S
O42 Fe25 1.997 . S
O42 C37 1.235 . S
C43 O26 1.295 . S
C43 O27 1.235 . S
Fe44 O46 1.918 . S
Fe44 O49 1.997 . S
Fe44 O50 2.002 . S
Fe44 O55 1.976 . S
Fe44 O58 1.996 . S
Fe45 O46 1.918 . S
Fe45 O53 1.997 . S
Fe45 O56 1.996 . S
Fe45 O60 1.976 . S
Fe45 O63 2.002 . S
O46 Fe44 1.918 . S
O46 Fe45 1.918 . S
O46 Fe47 1.918 . S
Fe47 O46 1.918 . S
Fe47 O48 2.002 . S
Fe47 O57 1.976 . S
Fe47 O61 1.996 . S
Fe47 O64 1.997 . S
O48 Fe47 2.002 . S
O48 C65 1.295 . S
O49 Fe44 1.997 . S
O49 C65 1.235 . S
O50 Fe44 2.002 . S
O50 C51 1.295 . S
C51 O50 1.295 . S
C51 O53 1.235 . S
C52 O57 1.287 . S
C52 O58 1.255 . S
O53 Fe45 1.997 . S
O53 C51 1.235 . S
C54 O60 1.287 . S
C54 O61 1.255 . S
O55 Fe44 1.976 . S
O55 C62 1.287 . S
O56 Fe45 1.996 . S
O56 C62 1.255 . S
O57 Fe47 1.976 . S
O57 C52 1.287 . S
O58 Fe44 1.996 . S
O58 C52 1.255 . S
C59 O63 1.295 . S
C59 O64 1.235 . S
O60 Fe45 1.976 . S
O60 C54 1.287 . S
O61 Fe47 1.996 . S
O61 C54 1.255 . S
C62 O55 1.287 . S
C62 O56 1.255 . S
O63 Fe45 2.002 . S
O63 C59 1.295 . S
O64 Fe47 1.997 . S
O64 C59 1.235 . S
C65 O48 1.295 . S
C65 O49 1.235 . S
Fe66 O68 1.918 . S
Fe66 O71 1.997 1_655 S
Fe66 O72 2.003 . S
Fe66 O77 1.976 . S
Fe66 O80 1.996 1_655 S
Fe67 O68 1.918 . S
Fe67 O75 1.997 . S
Fe67 O78 1.996 . S
Fe67 O82 1.976 . S
Fe67 O85 2.002 . S
O68 Fe66 1.918 . S
O68 Fe67 1.918 . S
O68 Fe69 1.918 . S
Fe69 O68 1.918 . S
Fe69 O70 2.002 1_655 S
Fe69 O79 1.976 . S
Fe69 O83 1.996 . S
Fe69 O86 1.997 . S
O70 Fe69 2.002 1_455 S
O70 C87 1.295 . S
O71 Fe66 1.997 1_455 S
O71 C87 1.235 . S
O72 Fe66 2.003 . S
O72 C73 1.304 . S
C73 O72 1.304 . S
C73 O75 1.235 . S
C74 O79 1.287 . S
C74 O80 1.255 1_655 S
O75 Fe67 1.997 . S
O75 C73 1.235 . S
C76 O82 1.287 . S
C76 O83 1.255 . S
O77 Fe66 1.976 . S
O77 C84 1.287 . S
O78 Fe67 1.996 . S
O78 C84 1.255 . S
O79 Fe69 1.976 . S
O79 C74 1.287 . S
O80 Fe66 1.996 1_455 S
O80 C74 1.255 1_455 S
C81 O85 1.295 . S
C81 O86 1.235 . S
O82 Fe67 1.976 . S
O82 C76 1.287 . S
O83 Fe69 1.996 . S
O83 C76 1.255 . S
C84 O77 1.287 . S
C84 O78 1.255 . S
O85 Fe67 2.002 . S
O85 C81 1.295 . S
O86 Fe69 1.997 . S
O86 C81 1.235 . S
C87 O70 1.295 . S
C87 O71 1.235 . S
Fe88 O90 1.918 . S
Fe88 O93 1.997 . S
Fe88 O94 2.002 . S
Fe88 O99 1.976 . S
Fe88 O102 1.996 . S
Fe89 O90 1.918 1_556 S
Fe89 O97 1.997 1_556 S
Fe89 O100 1.996 . S
Fe89 O104 1.976 . S
Fe89 O107 2.002 1_556 S
O90 Fe88 1.918 . S
O90 Fe89 1.918 1_554 S
O90 Fe91 1.918 . S
Fe91 O90 1.918 . S
Fe91 O92 2.002 . S
Fe91 O101 1.976 . S
Fe91 O105 1.996 1_554 S
Fe91 O108 1.997 . S
O92 Fe91 2.002 . S
O92 C109 1.295 . S
O93 Fe88 1.997 . S
O93 C109 1.235 . S
O94 Fe88 2.002 . S
O94 C95 1.295 . S
C95 O94 1.295 . S
C95 O97 1.235 . S
C96 O101 1.287 . S
C96 O102 1.255 . S
O97 Fe89 1.997 1_554 S
O97 C95 1.235 . S
C98 O104 1.287 . S
C98 O105 1.255 . S
O99 Fe88 1.976 . S
O99 C106 1.287 1_554 S
O100 Fe89 1.996 . S
O100 C106 1.255 . S
O101 Fe91 1.976 . S
O101 C96 1.287 . S
O102 Fe88 1.996 . S
O102 C96 1.255 . S
C103 O107 1.295 . S
C103 O108 1.235 . S
O104 Fe89 1.976 . S
O104 C98 1.287 . S
O105 Fe91 1.996 1_556 S
O105 C98 1.255 . S
C106 O99 1.287 1_556 S
C106 O100 1.255 . S
O107 Fe89 2.002 1_554 S
O107 C103 1.295 . S
O108 Fe91 1.997 . S
O108 C103 1.235 . S
C109 O92 1.295 . S
C109 O93 1.235 . S
Fe110 O112 1.918 . S
Fe110 O115 1.997 . S
Fe110 O116 2.002 . S
Fe110 O121 1.976 . S
Fe110 O124 1.996 . S
Fe111 O112 1.918 . S
Fe111 O119 1.997 . S
Fe111 O122 1.996 . S
Fe111 O126 1.976 . S
Fe111 O129 2.002 . S
O112 Fe110 1.918 . S
O112 Fe111 1.918 . S
O112 Fe113 1.918 . S
Fe113 O112 1.918 . S
Fe113 O114 2.002 . S
Fe113 O123 1.976 . S
Fe113 O127 1.996 . S
Fe113 O130 1.997 1_556 S
O114 Fe113 2.002 . S
O114 C131 1.295 . S
O115 Fe110 1.997 . S
O115 C131 1.235 . S
O116 Fe110 2.002 . S
O116 C117 1.295 . S
C117 O116 1.295 . S
C117 O119 1.235 . S
C118 O123 1.287 . S
C118 O124 1.255 . S
O119 Fe111 1.997 . S
O119 C117 1.235 . S
C120 O126 1.287 . S
C120 O127 1.255 . S
O121 Fe110 1.976 . S
O121 C128 1.287 . S
O122 Fe111 1.996 . S
O122 C128 1.255 . S
O123 Fe113 1.976 . S
O123 C118 1.287 . S
O124 Fe110 1.996 . S
O124 C118 1.255 . S
C125 O129 1.295 1_554 S
C125 O130 1.235 . S
O126 Fe111 1.976 . S
O126 C120 1.287 . S
O127 Fe113 1.996 . S
O127 C120 1.255 . S
C128 O121 1.287 . S
C128 O122 1.255 . S
O129 Fe111 2.002 . S
O129 C125 1.295 1_556 S
O130 Fe113 1.997 1_554 S
O130 C125 1.235 . S
C131 O114 1.295 . S
C131 O115 1.235 . S
Fe132 O134 1.918 . S
Fe132 O137 1.997 . S
Fe132 O138 2.002 . S
Fe132 O143 1.976 . S
Fe132 O146 1.996 . S
Fe133 O134 1.918 . S
Fe133 O141 1.997 . S
Fe133 O144 1.996 . S
Fe133 O148 1.976 . S
Fe133 O151 2.002 . S
O134 Fe132 1.918 . S
O134 Fe133 1.918 . S
O134 Fe135 1.918 . S
Fe135 O134 1.918 . S
Fe135 O136 2.002 . S
Fe135 O145 1.976 . S
Fe135 O149 1.996 . S
Fe135 O152 1.997 . S
O136 Fe135 2.002 . S
O136 C153 1.295 . S
O137 Fe132 1.997 . S
O137 C153 1.235 . S
O138 Fe132 2.002 . S
O138 C139 1.295 . S
C139 O138 1.295 . S
C139 O141 1.235 . S
C140 O145 1.287 . S
C140 O146 1.255 . S
O141 Fe133 1.997 . S
O141 C139 1.235 . S
C142 O148 1.287 . S
C142 O149 1.255 . S
O143 Fe132 1.976 . S
O143 C150 1.287 . S
O144 Fe133 1.996 . S
O144 C150 1.255 . S
O145 Fe135 1.976 . S
O145 C140 1.287 . S
O146 Fe132 1.996 . S
O146 C140 1.255 . S
C147 O151 1.295 . S
C147 O152 1.235 . S
O148 Fe133 1.976 . S
O148 C142 1.287 . S
O149 Fe135 1.996 . S
O149 C142 1.255 . S
C150 O143 1.287 . S
C150 O144 1.255 . S
O151 Fe133 2.002 . S
O151 C147 1.295 . S
O152 Fe135 1.997 . S
O152 C147 1.235 . S
C153 O136 1.295 . S
C153 O137 1.235 . S
Fe154 O156 1.918 . S
Fe154 O159 1.997 1_455 S
Fe154 O160 2.003 . S
Fe154 O165 1.976 . S
Fe154 O168 1.996 1_455 S
Fe155 O156 1.918 . S
Fe155 O163 1.997 . S
Fe155 O166 1.996 . S
Fe155 O170 1.976 . S
Fe155 O173 2.002 . S
O156 Fe154 1.918 . S
O156 Fe155 1.918 . S
O156 Fe157 1.918 . S
Fe157 O156 1.918 . S
Fe157 O158 2.002 1_455 S
Fe157 O167 1.976 . S
Fe157 O171 1.996 . S
Fe157 O174 1.997 . S
O158 Fe157 2.002 1_655 S
O158 C175 1.295 . S
O159 Fe154 1.997 1_655 S
O159 C175 1.235 . S
O160 Fe154 2.003 . S
O160 C161 1.304 . S
C161 O160 1.304 . S
C161 O163 1.235 . S
C162 O167 1.287 . S
C162 O168 1.255 1_455 S
O163 Fe155 1.997 . S
O163 C161 1.235 . S
C164 O170 1.287 . S
C164 O171 1.255 . S
O165 Fe154 1.976 . S
O165 C172 1.287 . S
O166 Fe155 1.996 . S
O166 C172 1.255 . S
O167 Fe157 1.976 . S
O167 C162 1.287 . S
O168 Fe154 1.996 1_655 S
O168 C162 1.255 1_655 S
C169 O173 1.295 . S
C169 O174 1.235 . S
O170 Fe155 1.976 . S
O170 C164 1.287 . S
O171 Fe157 1.996 . S
O171 C164 1.255 . S
C172 O165 1.287 . S
C172 O166 1.255 . S
O173 Fe155 2.002 . S
O173 C169 1.295 . S
O174 Fe157 1.997 . S
O174 C169 1.235 . S
C175 O158 1.295 . S
C175 O159 1.235 . S
Fe176 O178 1.918 . S
Fe176 O181 1.997 . S
Fe176 O182 2.002 . S
Fe176 O187 1.976 . S
Fe176 O190 1.996 . S
Fe177 O178 1.918 . S
Fe177 O185 1.997 . S
Fe177 O188 1.996 . S
Fe177 O192 1.976 . S
Fe177 O195 2.002 . S
O178 Fe176 1.918 . S
O178 Fe177 1.918 . S
O178 Fe179 1.918 . S
Fe179 O178 1.918 . S
Fe179 O180 2.002 . S
Fe179 O189 1.976 . S
Fe179 O193 1.996 . S
Fe179 O196 1.997 . S
O180 Fe179 2.002 . S
O180 C197 1.295 . S
O181 Fe176 1.997 . S
O181 C197 1.235 . S
O182 Fe176 2.002 . S
O182 C183 1.295 . S
C183 O182 1.295 . S
C183 O185 1.235 . S
C184 O189 1.287 . S
C184 O190 1.255 . S
O185 Fe177 1.997 . S
O185 C183 1.235 . S
C186 O192 1.287 . S
C186 O193 1.255 . S
O187 Fe176 1.976 . S
O187 C194 1.287 . S
O188 Fe177 1.996 . S
O188 C194 1.255 . S
O189 Fe179 1.976 . S
O189 C184 1.287 . S
O190 Fe176 1.996 . S
O190 C184 1.255 . S
C191 O195 1.295 . S
C191 O196 1.235 . S
O192 Fe177 1.976 . S
O192 C186 1.287 . S
O193 Fe179 1.996 . S
O193 C186 1.255 . S
C194 O187 1.287 . S
C194 O188 1.255 . S
O195 Fe177 2.002 . S
O195 C191 1.295 . S
O196 Fe179 1.997 . S
O196 C191 1.235 . S
C197 O180 1.295 . S
C197 O181 1.235 . S
Fe198 O200 1.918 . S
Fe198 O203 1.997 1_455 S
Fe198 O204 2.003 . S
Fe198 O209 1.976 1_545 S
Fe198 O212 1.996 1_445 S
Fe199 O200 1.918 . S
Fe199 O207 1.997 . S
Fe199 O210 1.996 1_545 S
Fe199 O214 1.976 . S
Fe199 O217 2.002 . S
O200 Fe198 1.918 . S
O200 Fe199 1.918 . S
O200 Fe201 1.918 . S
Fe201 O200 1.918 . S
Fe201 O202 2.002 1_455 S
Fe201 O211 1.976 . S
Fe201 O215 1.996 . S
Fe201 O218 1.997 . S
O202 Fe201 2.002 1_655 S
O202 C219 1.295 . S
O203 Fe198 1.997 1_655 S
O203 C219 1.235 . S
O204 Fe198 2.003 . S
O204 C205 1.303 . S
C205 O204 1.303 . S
C205 O207 1.235 . S
C206 O211 1.287 . S
C206 O212 1.255 1_445 S
O207 Fe199 1.997 . S
O207 C205 1.235 . S
C208 O214 1.287 . S
C208 O215 1.255 . S
O209 Fe198 1.976 1_565 S
O209 C216 1.287 . S
O210 Fe199 1.996 1_565 S
O210 C216 1.255 . S
O211 Fe201 1.976 . S
O211 C206 1.287 . S
O212 Fe198 1.996 1_665 S
O212 C206 1.255 1_665 S
C213 O217 1.295 . S
C213 O218 1.235 . S
O214 Fe199 1.976 . S
O214 C208 1.287 . S
O215 Fe201 1.996 . S
O215 C208 1.255 . S
C216 O209 1.287 . S
C216 O210 1.255 . S
O217 Fe199 2.002 . S
O217 C213 1.295 . S
O218 Fe201 1.997 . S
O218 C213 1.235 . S
C219 O202 1.295 . S
C219 O203 1.235 . S
Fe220 O222 1.918 . S
Fe220 O225 1.997 . S
Fe220 O226 2.002 1_554 S
Fe220 O231 1.976 . S
Fe220 O234 1.996 . S
Fe221 O222 1.918 1_556 S
Fe221 O229 1.997 . S
Fe221 O232 1.996 . S
Fe221 O236 1.976 1_556 S
Fe221 O239 2.002 . S
O222 Fe220 1.918 . S
O222 Fe221 1.918 1_554 S
O222 Fe223 1.918 . S
Fe223 O222 1.918 . S
Fe223 O224 2.002 . S
Fe223 O233 1.976 . S
Fe223 O237 1.996 . S
Fe223 O240 1.997 . S
O224 Fe223 2.002 . S
O224 C241 1.295 . S
O225 Fe220 1.997 . S
O225 C241 1.235 . S
O226 Fe220 2.002 1_556 S
O226 C227 1.295 . S
C227 O226 1.295 . S
C227 O229 1.235 . S
C228 O233 1.287 . S
C228 O234 1.255 . S
O229 Fe221 1.997 . S
O229 C227 1.235 . S
C230 O236 1.287 . S
C230 O237 1.255 . S
O231 Fe220 1.976 . S
O231 C238 1.287 1_554 S
O232 Fe221 1.996 . S
O232 C238 1.255 . S
O233 Fe223 1.976 . S
O233 C228 1.287 . S
O234 Fe220 1.996 . S
O234 C228 1.255 . S
C235 O239 1.295 . S
C235 O240 1.235 1_556 S
O236 Fe221 1.976 1_554 S
O236 C230 1.287 . S
O237 Fe223 1.996 . S
O237 C230 1.255 . S
C238 O231 1.287 1_556 S
C238 O232 1.255 . S
O239 Fe221 2.002 . S
O239 C235 1.295 . S
O240 Fe223 1.997 . S
O240 C235 1.235 1_554 S
C241 O224 1.295 . S
C241 O225 1.235 . S
Fe242 O244 1.918 . S
Fe242 O247 1.997 . S
Fe242 O248 2.002 . S
Fe242 O253 1.976 1_565 S
Fe242 O256 1.996 1_565 S
Fe243 O244 1.918 . S
Fe243 O251 1.997 . S
Fe243 O254 1.996 1_565 S
Fe243 O258 1.976 . S
Fe243 O261 2.002 . S
O244 Fe242 1.918 . S
O244 Fe243 1.918 . S
O244 Fe245 1.918 . S
Fe245 O244 1.918 . S
Fe245 O246 2.002 . S
Fe245 O255 1.976 . S
Fe245 O259 1.996 . S
Fe245 O262 1.997 . S
O246 Fe245 2.002 . S
O246 C263 1.295 . S
O247 Fe242 1.997 . S
O247 C263 1.235 . S
O248 Fe242 2.002 . S
O248 C249 1.295 . S
C249 O248 1.295 . S
C249 O251 1.235 . S
C250 O255 1.287 . S
C250 O256 1.255 1_565 S
O251 Fe243 1.997 . S
O251 C249 1.235 . S
C252 O258 1.287 . S
C252 O259 1.255 . S
O253 Fe242 1.976 1_545 S
O253 C260 1.287 . S
O254 Fe243 1.996 1_545 S
O254 C260 1.255 . S
O255 Fe245 1.976 . S
O255 C250 1.287 . S
O256 Fe242 1.996 1_545 S
O256 C250 1.255 1_545 S
C257 O261 1.295 . S
C257 O262 1.235 . S
O258 Fe243 1.976 . S
O258 C252 1.287 . S
O259 Fe245 1.996 . S
O259 C252 1.255 . S
C260 O253 1.287 . S
C260 O254 1.255 . S
O261 Fe243 2.002 . S
O261 C257 1.295 . S
O262 Fe245 1.997 . S
O262 C257 1.235 . S
C263 O246 1.295 . S
C263 O247 1.235 . S
Fe264 O266 1.918 . S
Fe264 O269 1.997 . S
Fe264 O270 2.002 . S
Fe264 O275 1.976 . S
Fe264 O278 1.996 . S
Fe265 O266 1.918 . S
Fe265 O273 1.997 . S
Fe265 O276 1.996 . S
Fe265 O280 1.976 . S
Fe265 O283 2.002 . S
O266 Fe264 1.918 . S
O266 Fe265 1.918 . S
O266 Fe267 1.918 . S
Fe267 O266 1.918 . S
Fe267 O268 2.002 . S
Fe267 O277 1.976 . S
Fe267 O281 1.996 . S
Fe267 O284 1.997 . S
O268 Fe267 2.002 . S
O268 C285 1.295 . S
O269 Fe264 1.997 . S
O269 C285 1.235 . S
O270 Fe264 2.002 . S
O270 C271 1.295 . S
C271 O270 1.295 . S
C271 O273 1.235 . S
C272 O277 1.287 . S
C272 O278 1.255 . S
O273 Fe265 1.997 . S
O273 C271 1.235 . S
C274 O280 1.287 . S
C274 O281 1.255 . S
O275 Fe264 1.976 . S
O275 C282 1.287 . S
O276 Fe265 1.996 . S
O276 C282 1.255 . S
O277 Fe267 1.976 . S
O277 C272 1.287 . S
O278 Fe264 1.996 . S
O278 C272 1.255 . S
C279 O283 1.295 . S
C279 O284 1.235 . S
O280 Fe265 1.976 . S
O280 C274 1.287 . S
O281 Fe267 1.996 . S
O281 C274 1.255 . S
C282 O275 1.287 . S
C282 O276 1.255 . S
O283 Fe265 2.002 . S
O283 C279 1.295 . S
O284 Fe267 1.997 . S
O284 C279 1.235 . S
C285 O268 1.295 . S
C285 O269 1.235 . S
Fe286 O288 1.918 . S
Fe286 O291 1.997 1_655 S
Fe286 O292 2.003 . S
Fe286 O297 1.976 1_565 S
Fe286 O300 1.996 1_665 S
Fe287 O288 1.918 . S
Fe287 O295 1.997 . S
Fe287 O298 1.996 1_565 S
Fe287 O302 1.976 . S
Fe287 O305 2.002 . S
O288 Fe286 1.918 . S
O288 Fe287 1.918 . S
O288 Fe289 1.918 . S
Fe289 O288 1.918 . S
Fe289 O290 2.002 1_655 S
Fe289 O299 1.976 . S
Fe289 O303 1.996 . S
Fe289 O306 1.997 . S
O290 Fe289 2.002 1_455 S
O290 C307 1.295 . S
O291 Fe286 1.997 1_455 S
O291 C307 1.235 . S
O292 Fe286 2.003 . S
O292 C293 1.303 . S
C293 O292 1.303 . S
C293 O295 1.235 . S
C294 O299 1.287 . S
C294 O300 1.255 1_665 S
O295 Fe287 1.997 . S
O295 C293 1.235 . S
C296 O302 1.287 . S
C296 O303 1.255 . S
O297 Fe286 1.976 1_545 S
O297 C304 1.287 . S
O298 Fe287 1.996 1_545 S
O298 C304 1.255 . S
O299 Fe289 1.976 . S
O299 C294 1.287 . S
O300 Fe286 1.996 1_445 S
O300 C294 1.255 1_445 S
C301 O305 1.295 . S
C301 O306 1.235 . S
O302 Fe287 1.976 . S
O302 C296 1.287 . S
O303 Fe289 1.996 . S
O303 C296 1.255 . S
C304 O297 1.287 . S
C304 O298 1.255 . S
O305 Fe287 2.002 . S
O305 C301 1.295 . S
O306 Fe289 1.997 . S
O306 C301 1.235 . S
C307 O290 1.295 . S
C307 O291 1.235 . S
Fe308 O310 1.918 . S
Fe308 O313 1.997 . S
Fe308 O314 2.002 . S
Fe308 O319 1.976 . S
Fe308 O322 1.996 1_554 S
Fe309 O310 1.918 . S
Fe309 O317 1.997 . S
Fe309 O320 1.996 . S
Fe309 O324 1.976 . S
Fe309 O327 2.002 . S
O310 Fe308 1.918 . S
O310 Fe309 1.918 . S
O310 Fe311 1.918 1_554 S
Fe311 O310 1.918 1_556 S
Fe311 O312 2.002 1_556 S
Fe311 O321 1.976 . S
Fe311 O325 1.996 . S
Fe311 O328 1.997 1_556 S
O312 Fe311 2.002 1_554 S
O312 C329 1.295 . S
O313 Fe308 1.997 . S
O313 C329 1.235 . S
O314 Fe308 2.002 . S
O314 C315 1.295 . S
C315 O314 1.295 . S
C315 O317 1.235 . S
C316 O321 1.287 . S
C316 O322 1.255 . S
O317 Fe309 1.997 . S
O317 C315 1.235 . S
C318 O324 1.287 1_556 S
C318 O325 1.255 . S
O319 Fe308 1.976 . S
O319 C326 1.287 . S
O320 Fe309 1.996 . S
O320 C326 1.255 . S
O321 Fe311 1.976 . S
O321 C316 1.287 . S
O322 Fe308 1.996 1_556 S
O322 C316 1.255 . S
C323 O327 1.295 . S
C323 O328 1.235 . S
O324 Fe309 1.976 . S
O324 C318 1.287 1_554 S
O325 Fe311 1.996 . S
O325 C318 1.255 . S
C326 O319 1.287 . S
C326 O320 1.255 . S
O327 Fe309 2.002 . S
O327 C323 1.295 . S
O328 Fe311 1.997 1_554 S
O328 C323 1.235 . S
C329 O312 1.295 . S
C329 O313 1.235 . S
Fe330 O332 1.918 . S
Fe330 O335 1.997 . S
Fe330 O336 2.002 . S
Fe330 O341 1.976 1_545 S
Fe330 O344 1.996 1_545 S
Fe331 O332 1.918 . S
Fe331 O339 1.997 1_556 S
Fe331 O342 1.996 1_545 S
Fe331 O346 1.976 . S
Fe331 O349 2.002 . S
O332 Fe330 1.918 . S
O332 Fe331 1.918 . S
O332 Fe333 1.918 . S
Fe333 O332 1.918 . S
Fe333 O334 2.002 . S
Fe333 O343 1.976 . S
Fe333 O347 1.996 . S
Fe333 O350 1.997 . S
O334 Fe333 2.002 . S
O334 C351 1.295 . S
O335 Fe330 1.997 . S
O335 C351 1.235 . S
O336 Fe330 2.002 . S
O336 C337 1.295 1_556 S
C337 O336 1.295 1_554 S
C337 O339 1.235 . S
C338 O343 1.287 . S
C338 O344 1.255 1_545 S
O339 Fe331 1.997 1_554 S
O339 C337 1.235 . S
C340 O346 1.287 . S
C340 O347 1.255 . S
O341 Fe330 1.976 1_565 S
O341 C348 1.287 . S
O342 Fe331 1.996 1_565 S
O342 C348 1.255 . S
O343 Fe333 1.976 . S
O343 C338 1.287 . S
O344 Fe330 1.996 1_565 S
O344 C338 1.255 1_565 S
C345 O349 1.295 . S
C345 O350 1.235 . S
O346 Fe331 1.976 . S
O346 C340 1.287 . S
O347 Fe333 1.996 . S
O347 C340 1.255 . S
C348 O341 1.287 . S
C348 O342 1.255 . S
O349 Fe331 2.002 . S
O349 C345 1.295 . S
O350 Fe333 1.997 . S
O350 C345 1.235 . S
C351 O334 1.295 . S
C351 O335 1.235 . S
C18 C208 1.922 . S
C230 C40 1.922 . S
C252 C62 1.922 . S
C186 C84 1.922 . S
C96 C296 1.922 . S
C120 C318 1.922 . S
C340 C150 1.922 . S
C282 C172 1.922 . S
C32 C194 1.922 . S
C54 C216 1.922 . S
C76 C238 1.922 . S
C260 C10 1.922 . S
C118 C272 1.922 . S
C142 C304 1.922 . S
C164 C326 1.922 . S
C106 C348 1.922 . S
C15 C351 2.143 . S
C37 C103 2.143 . S
C307 C59 2.143 . S
C153 C81 2.143 . S
C95 C263 2.143 . S
C21 C131 2.143 1_554 S
C147 C219 2.143 . S
C169 C65 2.143 . S
C191 C175 2.143 . S
C279 C213 2.143 . S
C235 C117 2.143 . S
C329 C257 2.143 . S
C271 C87 2.143 . S
C197 C301 2.143 . S
C323 C43 2.143 . S
C345 C241 2.143 1_556 S
C8 C274 1.694 . S
C128 C30 1.694 . S
C52 C316 1.694 . S
C162 C74 1.694 1_454 S
C98 C184 1.694 . S
C228 C140 1.694 . S
C206 C294 1.694 1_446 S
C338 C250 1.694 1_545 S
C285 C7 1.920 . S
C125 C29 1.920 . S
C51 C315 1.920 . S
C161 C73 1.920 1_455 S
C109 C183 1.920 . S
C139 C227 1.920 . S
C293 C205 1.920 1_665 S
C337 C249 1.920 1_545 S
