# Generated by pormake.
# Topology une, (4)-cn, num edge types: 1
# Building blocks:
#     Node 0, Type 0, BuildingBlock: ICAMEG_clean_sbu_1, # of connection points: 4
#     Node 1, Type 0, BuildingBlock: ICAMEG_clean_sbu_1, # of connection points: 4
#     Node 2, Type 0, BuildingBlock: ICAMEG_clean_sbu_1, # of connection points: 4
#     Node 3, Type 0, BuildingBlock: ICAMEG_clean_sbu_1, # of connection points: 4
#     Node 4, Type 0, BuildingBlock: ICAMEG_clean_sbu_1, # of connection points: 4
#     Node 5, Type 0, BuildingBlock: ICAMEG_clean_sbu_1, # of connection points: 4
#     Node 6, Type 0, BuildingBlock: ICAMEG_clean_sbu_1, # of connection points: 4
#     Node 7, Type 0, BuildingBlock: ICAMEG_clean_sbu_1, # of connection points: 4
#     Node 8, Type 0, BuildingBlock: ICAMEG_clean_sbu_1, # of connection points: 4
#     Node 9, Type 0, BuildingBlock: ICAMEG_clean_sbu_1, # of connection points: 4
#     Node 10, Type 0, BuildingBlock: ICAMEG_clean_sbu_1, # of connection points: 4
#     Node 11, Type 0, BuildingBlock: ICAMEG_clean_sbu_1, # of connection points: 4
#     Node 12, Type 0, BuildingBlock: ICAMEG_clean_sbu_1, # of connection points: 4
#     Node 13, Type 0, BuildingBlock: ICAMEG_clean_sbu_1, # of connection points: 4
#     Node 14, Type 0, BuildingBlock: ICAMEG_clean_sbu_1, # of connection points: 4
#     Node 15, Type 0, BuildingBlock: ICAMEG_clean_sbu_1, # of connection points: 4
#     Node 16, Type 0, BuildingBlock: ICAMEG_clean_sbu_1, # of connection points: 4
#     Node 17, Type 0, BuildingBlock: ICAMEG_clean_sbu_1, # of connection points: 4
#     Edge 18, Type (0, 0), BuildingBlock: MIFKUJ_clean_linker_0, # of connection points: 2
#     Edge 19, Type (0, 0), BuildingBlock: MIFKUJ_clean_linker_0, # of connection points: 2
#     Edge 20, Type (0, 0), BuildingBlock: MIFKUJ_clean_linker_0, # of connection points: 2
#     Edge 21, Type (0, 0), BuildingBlock: MIFKUJ_clean_linker_0, # of connection points: 2
#     Edge 22, Type (0, 0), BuildingBlock: MIFKUJ_clean_linker_0, # of connection points: 2
#     Edge 23, Type (0, 0), BuildingBlock: MIFKUJ_clean_linker_0, # of connection points: 2
#     Edge 24, Type (0, 0), BuildingBlock: MIFKUJ_clean_linker_0, # of connection points: 2
#     Edge 25, Type (0, 0), BuildingBlock: MIFKUJ_clean_linker_0, # of connection points: 2
#     Edge 26, Type (0, 0), BuildingBlock: MIFKUJ_clean_linker_0, # of connection points: 2
#     Edge 27, Type (0, 0), BuildingBlock: MIFKUJ_clean_linker_0, # of connection points: 2
#     Edge 28, Type (0, 0), BuildingBlock: MIFKUJ_clean_linker_0, # of connection points: 2
#     Edge 29, Type (0, 0), BuildingBlock: MIFKUJ_clean_linker_0, # of connection points: 2
#     Edge 30, Type (0, 0), BuildingBlock: MIFKUJ_clean_linker_0, # of connection points: 2
#     Edge 31, Type (0, 0), BuildingBlock: MIFKUJ_clean_linker_0, # of connection points: 2
#     Edge 32, Type (0, 0), BuildingBlock: MIFKUJ_clean_linker_0, # of connection points: 2
#     Edge 33, Type (0, 0), BuildingBlock: MIFKUJ_clean_linker_0, # of connection points: 2
#     Edge 34, Type (0, 0), BuildingBlock: MIFKUJ_clean_linker_0, # of connection points: 2
#     Edge 35, Type (0, 0), BuildingBlock: MIFKUJ_clean_linker_0, # of connection points: 2
#     Edge 36, Type (0, 0), BuildingBlock: MIFKUJ_clean_linker_0, # of connection points: 2
#     Edge 37, Type (0, 0), BuildingBlock: MIFKUJ_clean_linker_0, # of connection points: 2
#     Edge 38, Type (0, 0), BuildingBlock: MIFKUJ_clean_linker_0, # of connection points: 2
#     Edge 39, Type (0, 0), BuildingBlock: MIFKUJ_clean_linker_0, # of connection points: 2
#     Edge 40, Type (0, 0), BuildingBlock: MIFKUJ_clean_linker_0, # of connection points: 2
#     Edge 41, Type (0, 0), BuildingBlock: MIFKUJ_clean_linker_0, # of connection points: 2
#     Edge 42, Type (0, 0), BuildingBlock: MIFKUJ_clean_linker_0, # of connection points: 2
#     Edge 43, Type (0, 0), BuildingBlock: MIFKUJ_clean_linker_0, # of connection points: 2
#     Edge 44, Type (0, 0), BuildingBlock: MIFKUJ_clean_linker_0, # of connection points: 2
#     Edge 45, Type (0, 0), BuildingBlock: MIFKUJ_clean_linker_0, # of connection points: 2
#     Edge 46, Type (0, 0), BuildingBlock: MIFKUJ_clean_linker_0, # of connection points: 2
#     Edge 47, Type (0, 0), BuildingBlock: MIFKUJ_clean_linker_0, # of connection points: 2
#     Edge 48, Type (0, 0), BuildingBlock: MIFKUJ_clean_linker_0, # of connection points: 2
#     Edge 49, Type (0, 0), BuildingBlock: MIFKUJ_clean_linker_0, # of connection points: 2
#     Edge 50, Type (0, 0), BuildingBlock: MIFKUJ_clean_linker_0, # of connection points: 2
#     Edge 51, Type (0, 0), BuildingBlock: MIFKUJ_clean_linker_0, # of connection points: 2
#     Edge 52, Type (0, 0), BuildingBlock: MIFKUJ_clean_linker_0, # of connection points: 2
#     Edge 53, Type (0, 0), BuildingBlock: MIFKUJ_clean_linker_0, # of connection points: 2
# Relax obj value: 0.321
# Max RMSD: 0.226
# Mean RMSD: 0.209
data_MOF--net-une--node1-ICAMEG_clean_sbu_1--edge1-MIFKUJ_clean_linker_0
_symmetry_space_group_name_H-M    P1
_symmetry_Int_Tables_number       1
_symmetry_cell_setting            triclinic
loop_
_symmetry_equiv_pos_as_xyz
'x, y, z'
_cell_length_a     49.65174
_cell_length_b     51.148036
_cell_length_c     75.009877
_cell_angle_alpha  89.502074
_cell_angle_beta   89.232789
_cell_angle_gamma 119.33946
loop_
_atom_site_label
_atom_site_type_symbol
_atom_site_fract_x
_atom_site_fract_y
_atom_site_fract_z
_atom_type_partial_charge
Co0 Co 0.40403 0.07975 0.04889 0.0
Co1 Co 0.37152 0.03434 0.08553 0.0
O2 O 0.38911 0.07364 0.07357 0.0
C3 C 0.36321 0.1063 0.0498 0.0
O4 O 0.34181 0.08067 0.05664 0.0
C5 C 0.3984 0.0826 0.11354 0.0
O6 O 0.41752 0.10219 0.10174 0.0
O7 O 0.41149 0.03362 0.08049 0.0
O8 O 0.41856 0.0497 0.05183 0.0
H9 H 0.3498 0.92781 0.09257 0.0
H10 H 0.42542 0.13409 0.07094 0.0
O11 O 0.3897 0.10979 0.04554 0.0
H12 H 0.52014 0.13318 0.0513 0.0
H13 H 0.45288 0.1406 0.99283 0.0
H14 H 0.39993 0.03902 0.01989 0.0
H15 H 0.46899 0.09342 0.04211 0.0
H16 H 0.43709 0.13312 0.02462 0.0
O17 O 0.38451 0.05462 0.1098 0.0
H18 H 0.37028 0.97702 0.07745 0.0
H19 H 0.33686 0.00839 0.11989 0.0
H20 H 0.41502 0.04543 0.98804 0.0
H21 H 0.47618 0.17452 0.08029 0.0
H22 H 0.44174 0.09653 0.9743 0.0
H23 H 0.524 0.17417 0.0705 0.0
O24 O 0.36326 0.04745 0.04156 0.0
H25 H 0.30353 0.07992 0.0989 0.0
H26 H 0.30559 0.98836 0.0812 0.0
H27 H 0.2557 0.98738 0.08413 0.0
H28 H 0.25435 0.03335 0.09301 0.0
H29 H 0.35276 0.08011 0.09555 0.0
H30 H 0.31632 0.95965 0.13559 0.0
H31 H 0.32259 0.91887 0.1219 0.0
O32 O 0.35564 0.01285 0.06245 0.0
C33 C 0.42321 0.03595 0.06469 0.0
C34 C 0.34694 0.94541 0.09869 0.0
C35 C 0.32821 0.9633 0.12284 0.0
N36 N 0.35495 0.99568 0.09775 0.0
C37 C 0.3585 0.97335 0.09017 0.0
C38 C 0.34009 0.99095 0.11393 0.0
C39 C 0.3317 0.94041 0.11515 0.0
C40 C 0.44612 0.13383 0.06659 0.0
N41 N 0.44419 0.11128 0.05613 0.0
C42 C 0.4748 0.15676 0.07194 0.0
C43 C 0.50162 0.15654 0.06646 0.0
C44 C 0.49948 0.13352 0.05572 0.0
C45 C 0.47041 0.11097 0.05064 0.0
C46 C 0.44128 0.11823 0.99867 0.0
C47 C 0.41164 0.06134 0.01404 0.0
C48 C 0.43233 0.11387 0.01666 0.0
N49 N 0.4178 0.08569 0.02413 0.0
C50 C 0.42001 0.06481 0.99597 0.0
C51 C 0.435 0.09349 0.98827 0.0
C52 C 0.34939 0.02057 0.0475 0.0
C53 C 0.30372 0.05956 0.0953 0.0
C54 C 0.30531 0.00841 0.08535 0.0
C55 C 0.27692 0.00772 0.08692 0.0
C56 C 0.27618 0.0335 0.09192 0.0
N57 N 0.33231 0.03398 0.08886 0.0
C58 C 0.33167 0.05939 0.09367 0.0
Co59 Co 0.89318 0.2873 0.02392 0.0
Co60 Co 0.93715 0.31036 0.06145 0.0
O61 O 0.89983 0.28223 0.04895 0.0
C62 C 0.8809 0.2246 0.02559 0.0
O63 O 0.90738 0.23403 0.03354 0.0
C64 C 0.88349 0.28166 0.08824 0.0
O65 O 0.86352 0.27752 0.07583 0.0
O66 O 0.93054 0.3455 0.05425 0.0
O67 O 0.91458 0.33179 0.02623 0.0
H68 H 0.03783 0.406 0.06777 0.0
H69 H 0.83871 0.24463 0.04577 0.0
O70 O 0.87188 0.24298 0.02094 0.0
H71 H 0.81333 0.32103 0.02398 0.0
H72 H 0.83178 0.26026 0.96767 0.0
H73 H 0.93164 0.32894 0.99461 0.0
H74 H 0.86291 0.32395 0.01565 0.0
H75 H 0.84055 0.25507 0.99945 0.0
O76 O 0.91229 0.3001 0.08515 0.0
H77 H 0.99121 0.36961 0.05226 0.0
H78 H 0.96253 0.31133 0.09763 0.0
H79 H 0.92357 0.33506 0.96277 0.0
H80 H 0.78857 0.24045 0.05418 0.0
H81 H 0.87347 0.30063 0.94913 0.0
H82 H 0.77566 0.27895 0.04336 0.0
O83 O 0.93323 0.28975 0.01738 0.0
H84 H 0.90742 0.20379 0.07789 0.0
H85 H 0.99361 0.30374 0.06164 0.0
H86 H 1.00441 0.26279 0.06874 0.0
H87 H 0.96121 0.21218 0.07675 0.0
H88 H 0.89778 0.24529 0.07157 0.0
H89 H 0.00865 0.34721 0.1137 0.0
H90 H 0.04681 0.39493 0.09875 0.0
O91 O 0.96317 0.31878 0.03919 0.0
C92 C 0.9263 0.3518 0.03814 0.0
C93 C 0.02132 0.38534 0.07446 0.0
C94 C 0.00491 0.35239 0.10025 0.0
N95 N 0.97383 0.33848 0.07407 0.0
C96 C 0.99481 0.36465 0.06575 0.0
C97 C 0.97864 0.33224 0.09112 0.0
C98 C 0.02634 0.37913 0.09184 0.0
C99 C 0.83324 0.2614 0.04093 0.0
N100 N 0.85398 0.2848 0.03043 0.0
C101 C 0.80482 0.25895 0.04578 0.0
C102 C 0.79761 0.28058 0.03972 0.0
C103 C 0.81876 0.30423 0.02889 0.0
C104 C 0.84696 0.30595 0.02434 0.0
C105 C 0.85374 0.27546 0.97348 0.0
C106 C 0.90966 0.31394 0.98878 0.0
C107 C 0.85889 0.27258 0.99146 0.0
N108 N 0.88652 0.2918 0.99892 0.0
C109 C 0.90529 0.31749 0.97075 0.0
C110 C 0.87714 0.29812 0.96308 0.0
C111 C 0.95961 0.30599 0.02418 0.0
C112 C 0.92664 0.2258 0.07484 0.0
C113 C 0.97468 0.28205 0.06562 0.0
C114 C 0.98095 0.25883 0.06943 0.0
C115 C 0.95672 0.23049 0.07402 0.0
N116 N 0.94518 0.27753 0.06695 0.0
C117 C 0.92132 0.24968 0.07134 0.0
Co118 Co 0.72318 0.60401 0.05766 0.0
Co119 Co 0.70571 0.64085 0.08941 0.0
O120 O 0.72944 0.62199 0.08105 0.0
C121 C 0.79112 0.64262 0.05806 0.0
O122 O 0.78679 0.66557 0.06098 0.0
C123 C 0.72568 0.61805 0.1214 0.0
O124 O 0.72537 0.59634 0.11207 0.0
O125 O 0.66543 0.60175 0.08549 0.0
O126 O 0.67806 0.59147 0.05855 0.0
H127 H 0.61849 0.66422 0.08732 0.0
H128 H 0.75486 0.58575 0.08429 0.0
O129 O 0.76816 0.61643 0.05628 0.0
H130 H 0.66109 0.49245 0.06856 0.0
H131 H 0.74212 0.5476 0.00891 0.0
H132 H 0.6897 0.60483 0.02538 0.0
H133 H 0.67271 0.54073 0.05455 0.0
H134 H 0.74646 0.56735 0.03926 0.0
O135 O 0.7117 0.63173 0.11541 0.0
H136 H 0.64985 0.642 0.07674 0.0
H137 H 0.70955 0.67857 0.1206 0.0
H138 H 0.68528 0.58607 0.99483 0.0
H139 H 0.74435 0.53789 0.09843 0.0
H140 H 0.71148 0.55707 0.98643 0.0
H141 H 0.6971 0.4908 0.09063 0.0
O142 O 0.73159 0.64258 0.04643 0.0
H143 H 0.81787 0.70782 0.10441 0.0
H144 H 0.72449 0.7043 0.08015 0.0
H145 H 0.7721 0.75283 0.08227 0.0
H146 H 0.81924 0.75492 0.09464 0.0
H147 H 0.77024 0.65966 0.10149 0.0
H148 H 0.6786 0.70088 0.13176 0.0
H149 H 0.63277 0.6939 0.11504 0.0
O150 O 0.70209 0.65323 0.06448 0.0
C151 C 0.65782 0.58937 0.07004 0.0
C152 C 0.63839 0.66739 0.09474 0.0
C153 C 0.67208 0.68791 0.1197 0.0
N154 N 0.68149 0.65879 0.09807 0.0
C155 C 0.65627 0.65485 0.08882 0.0
C156 C 0.68941 0.67502 0.11337 0.0
C157 C 0.6464 0.68403 0.1103 0.0
C158 C 0.73434 0.56535 0.08075 0.0
N159 N 0.71433 0.56611 0.06871 0.0
C160 C 0.72846 0.53832 0.08884 0.0
C161 C 0.70193 0.51191 0.08448 0.0
C162 C 0.6817 0.51283 0.07212 0.0
C163 C 0.68831 0.54028 0.06431 0.0
C164 C 0.7305 0.5601 0.01243 0.0
C165 C 0.70108 0.59215 0.02187 0.0
C166 C 0.73281 0.57127 0.0296 0.0
N167 N 0.71812 0.58699 0.03413 0.0
C168 C 0.69855 0.58163 1.00453 0.0
C169 C 0.71332 0.56543 0.99982 0.0
C170 C 0.71739 0.65704 0.04995 0.0
C171 C 0.79738 0.70723 0.0992 0.0
C172 C 0.74478 0.70486 0.08563 0.0
C173 C 0.77175 0.7325 0.08675 0.0
C174 C 0.79817 0.73365 0.09368 0.0
N175 N 0.7439 0.67899 0.0914 0.0
C176 C 0.77004 0.67995 0.09779 0.0
Co177 Co 0.60402 0.87522 0.97281 0.0
Co178 Co 0.62261 0.91529 0.93357 0.0
O179 O 0.61438 0.87961 0.94746 0.0
C180 C 0.65531 0.86225 0.96988 0.0
O181 O 0.67123 0.88877 0.9622 0.0
C182 C 0.5945 0.86129 0.90962 0.0
O183 O 0.57772 0.84374 0.92288 0.0
O184 O 0.58073 0.90989 0.94119 0.0
O185 O 0.58069 0.89768 0.97015 0.0
H186 H 0.62371 0.01296 0.92265 0.0
H187 H 0.59029 0.81965 0.95347 0.0
O188 O 0.62781 0.85324 0.97564 0.0
H189 H 0.48984 0.80271 0.9773 0.0
H190 H 0.57342 0.8197 0.03181 0.0
H191 H 0.60222 0.91534 1.00059 0.0
H192 H 0.53749 0.85013 0.98281 0.0
H193 H 0.58587 0.82571 0.99956 0.0
O194 O 0.60714 0.88981 0.91121 0.0
H195 H 0.6148 0.96837 0.94016 0.0
H196 H 0.64646 0.93764 0.89654 0.0
H197 H 0.58974 0.91024 0.03279 0.0
H198 H 0.54325 0.77169 0.94791 0.0
H199 H 0.57516 0.86212 0.04862 0.0
H200 H 0.49253 0.76302 0.95979 0.0
O201 O 0.64181 0.9136 0.97738 0.0
H202 H 0.70055 0.88361 0.91547 0.0
H203 H 0.6856 0.96876 0.93199 0.0
H204 H 0.73796 0.97768 0.92473 0.0
H205 H 0.74572 0.93497 0.91623 0.0
H206 H 0.64884 0.87556 0.92328 0.0
H207 H 0.65539 0.98171 0.87848 0.0
H208 H 0.64413 0.01987 0.89154 0.0
O209 O 0.64076 0.94184 0.95467 0.0
C210 C 0.57127 0.90786 0.95752 0.0
C211 C 0.62869 0.99649 0.9168 0.0
C212 C 0.64641 0.97893 0.892 0.0
N213 N 0.62998 0.95029 0.91942 0.0
C214 C 0.62369 0.97117 0.92667 0.0
C215 C 0.64111 0.95388 0.90227 0.0
C216 C 0.64013 1.00034 0.89935 0.0
C217 C 0.56836 0.81598 0.95883 0.0
N218 N 0.56667 0.83776 0.96837 0.0
C219 C 0.54177 0.7888 0.95557 0.0
C220 C 0.51332 0.78397 0.96221 0.0
C221 C 0.51178 0.80625 0.972 0.0
C222 C 0.53885 0.83315 0.97498 0.0
C223 C 0.57969 0.84075 0.02506 0.0
C224 C 0.59577 0.89428 1.00736 0.0
C225 C 0.58682 0.8443 1.00681 0.0
N226 N 0.5945 0.87075 0.99818 0.0
C227 C 0.58883 0.89157 0.02561 0.0
C228 C 0.58067 0.86457 0.03448 0.0
C229 C 0.65109 0.9389 0.96962 0.0
C230 C 0.69743 0.90248 0.9189 0.0
C231 C 0.68866 0.95002 0.92825 0.0
C232 C 0.71843 0.95523 0.92416 0.0
C233 C 0.72277 0.93128 0.91939 0.0
N234 N 0.66376 0.92177 0.92747 0.0
C235 C 0.66801 0.89812 0.9231 0.0
Co236 Co 0.11799 0.69516 0.95461 0.0
Co237 Co 0.06498 0.68125 0.92175 0.0
O238 O 0.1062 0.70486 0.93179 0.0
C239 C 0.13598 0.75904 0.95837 0.0
O240 O 0.10855 0.75264 0.95273 0.0
C241 C 0.11197 0.70643 0.89089 0.0
O242 O 0.13358 0.7072 0.90107 0.0
O243 O 0.06714 0.64241 0.9245 0.0
O244 O 0.09253 0.65158 0.95029 0.0
H245 H 0.95692 0.59405 0.91991 0.0
H246 H 0.16844 0.73857 0.93061 0.0
O247 O 0.14346 0.73864 0.95974 0.0
H248 H 0.18868 0.65399 0.93851 0.0
H249 H 0.19204 0.70871 1.0035 0.0
H250 H 0.08446 0.65044 0.98365 0.0
H251 H 0.14396 0.65345 0.95352 0.0
H252 H 0.17682 0.72013 0.97456 0.0
O253 O 0.08362 0.69154 0.89625 0.0
H254 H 0.00871 0.62451 0.93228 0.0
H255 H 0.03324 0.68798 0.88976 0.0
H256 H 0.09887 0.63807 0.01257 0.0
H257 H 0.21381 0.74035 0.91561 0.0
H258 H 0.15292 0.6673 0.02268 0.0
H259 H 0.22408 0.69776 0.91942 0.0
O260 O 0.08177 0.69431 0.96676 0.0
H261 H 0.1036 0.7914 0.90974 0.0
H262 H 0.01505 0.69574 0.93036 0.0
H263 H 0.00997 0.74122 0.9293 0.0
H264 H 0.05437 0.7895 0.91877 0.0
H265 H 0.10797 0.74571 0.91144 0.0
H266 H 0.98183 0.65802 0.87682 0.0
H267 H 0.94317 0.61072 0.89194 0.0
O268 O 0.0452 0.67289 0.94616 0.0
C269 C 0.07513 0.63342 0.93863 0.0
C270 C 0.9736 0.61455 0.91315 0.0
C271 C 0.9876 0.65042 0.88895 0.0
N272 N 0.02424 0.65783 0.91165 0.0
C273 C 1.00302 0.63189 0.92008 0.0
C274 C 0.01682 0.66718 0.89627 0.0
C275 C 0.96591 0.62391 0.89746 0.0
C276 C 0.17287 0.72004 0.93246 0.0
N277 N 0.15334 0.69577 0.9428 0.0
C278 C 0.19854 0.72114 0.92387 0.0
C279 C 0.20426 0.69721 0.92599 0.0
C280 C 0.18437 0.67262 0.93666 0.0
C281 C 0.15891 0.67231 0.94502 0.0
C282 C 0.16839 0.69578 0.99923 0.0
C283 C 0.10811 0.66319 0.98789 0.0
C284 C 0.15961 0.7022 0.98287 0.0
N285 N 0.12982 0.68587 0.97735 0.0
C286 C 0.11608 0.65611 1.00431 0.0
C287 C 0.14644 0.67254 0.00998 0.0
C288 C 0.05363 0.68148 0.96206 0.0
C289 C 0.08395 0.77042 0.91413 0.0
C290 C 0.03451 0.71657 0.92576 0.0
C291 C 0.03147 0.7423 0.92517 0.0
C292 C 0.05637 0.76937 0.91926 0.0
N293 N 0.06149 0.71759 0.92047 0.0
C294 C 0.08614 0.74423 0.91491 0.0
Co295 Co 0.31775 0.42443 0.9556 0.0
Co296 Co 0.3025 0.35343 0.94474 0.0
O297 O 0.32725 0.39159 0.95624 0.0
C298 C 0.3877 0.45075 0.95614 0.0
O299 O 0.38538 0.42796 0.94709 0.0
C300 C 0.30384 0.33186 0.98154 0.0
O301 O 0.28916 0.34549 0.98766 0.0
O302 O 0.26455 0.34855 0.95691 0.0
O303 O 0.27211 0.39552 0.95587 0.0
H304 H 0.21097 0.27702 0.9114 0.0
H305 H 0.35528 0.41694 0.98413 0.0
O306 O 0.36429 0.45501 0.95713 0.0
H307 H 0.2727 0.4257 0.01594 0.0
H308 H 0.33372 0.52637 0.97205 0.0
H309 H 0.27142 0.43545 0.93738 0.0
H310 H 0.27567 0.42764 0.98311 0.0
H311 H 0.34454 0.48426 0.97299 0.0
O312 O 0.31035 0.33273 0.965 0.0
H313 H 0.24317 0.32567 0.9256 0.0
H314 H 0.30819 0.29842 0.94025 0.0
H315 H 0.25963 0.47691 0.93619 0.0
H316 H 0.35307 0.41482 0.01681 0.0
H317 H 0.29094 0.52286 0.9536 0.0
H318 H 0.31176 0.41951 0.03306 0.0
O319 O 0.31611 0.42342 0.92827 0.0
H320 H 0.41222 0.37334 0.94161 0.0
H321 H 0.31919 0.34837 0.90706 0.0
H322 H 0.36596 0.35426 0.89154 0.0
H323 H 0.41291 0.36671 0.90887 0.0
H324 H 0.36516 0.36794 0.95649 0.0
H325 H 0.27652 0.24934 0.92634 0.0
H326 H 0.22759 0.23844 0.91171 0.0
O327 O 0.29424 0.37356 0.92438 0.0
C328 C 0.25474 0.36729 0.95825 0.0
C329 C 0.2323 0.28154 0.91768 0.0
C330 C 0.26907 0.26599 0.92608 0.0
N331 N 0.27768 0.31499 0.93361 0.0
C332 C 0.25069 0.30909 0.9257 0.0
C333 C 0.28687 0.2938 0.93397 0.0
C334 C 0.24162 0.25989 0.91787 0.0
C335 C 0.33751 0.41956 0.99094 0.0
N336 N 0.31629 0.4235 0.98157 0.0
C337 C 0.33626 0.41811 0.00954 0.0
C338 C 0.31299 0.42058 0.01864 0.0
C339 C 0.2911 0.42408 0.00904 0.0
C340 C 0.29299 0.42527 0.99042 0.0
C341 C 0.32005 0.50656 0.96431 0.0
C342 C 0.2853 0.45539 0.94489 0.0
C343 C 0.32624 0.4827 0.96466 0.0
N344 N 0.30897 0.45752 0.95499 0.0
C345 C 0.27845 0.4788 0.94421 0.0
C346 C 0.29601 0.50456 0.95398 0.0
C347 C 0.30096 0.39972 0.91876 0.0
C348 C 0.39193 0.36795 0.9339 0.0
C349 C 0.33966 0.35435 0.91462 0.0
C350 C 0.36602 0.35738 0.9058 0.0
C351 C 0.39232 0.36428 0.91553 0.0
N352 N 0.33949 0.35817 0.93262 0.0
C353 C 0.36513 0.36471 0.94227 0.0
Co354 Co 0.07194 0.41235 0.38649 0.0
Co355 Co 0.03656 0.36468 0.42197 0.0
O356 O 0.05407 0.40443 0.41057 0.0
C357 C 0.02888 0.43641 0.38551 0.0
O358 O 0.00744 0.41022 0.39166 0.0
C359 C 0.05985 0.41164 0.45116 0.0
O360 O 0.08046 0.43201 0.44026 0.0
O361 O 0.07776 0.36568 0.41845 0.0
O362 O 0.08795 0.3837 0.39016 0.0
H363 H 0.01799 0.2591 0.42851 0.0
H364 H 0.088 0.46497 0.40929 0.0
O365 O 0.05615 0.44106 0.38236 0.0
H366 H 0.18726 0.47005 0.39361 0.0
H367 H 0.12521 0.47701 0.33231 0.0
H368 H 0.07352 0.37409 0.35746 0.0
H369 H 0.13835 0.42929 0.38242 0.0
H370 H 0.10585 0.46724 0.36348 0.0
O371 O 0.04602 0.38399 0.44664 0.0
H372 H 0.03848 0.30881 0.41406 0.0
H373 H 0.99866 0.33627 0.45511 0.0
H374 H 0.09218 0.3828 0.32619 0.0
H375 H 0.13644 0.50637 0.42061 0.0
H376 H 0.11827 0.43458 0.31342 0.0
H377 H 0.18653 0.50904 0.41283 0.0
O378 O 0.03301 0.37914 0.37751 0.0
H379 H 0.9645 0.40629 0.43234 0.0
H380 H 0.97184 0.31726 0.41538 0.0
H381 H 0.92092 0.31443 0.41648 0.0
H382 H 0.91689 0.35918 0.42514 0.0
H383 H 0.01471 0.40822 0.43121 0.0
H384 H 0.978 0.287 0.47014 0.0
H385 H 0.98748 0.2479 0.4568 0.0
O386 O 0.02396 0.34412 0.3984 0.0
C387 C 0.0915 0.36942 0.40312 0.0
C388 C 0.01372 0.27595 0.43447 0.0
C389 C 0.99134 0.29163 0.45785 0.0
N390 N 0.02 0.32559 0.43371 0.0
C391 C 0.02531 0.30418 0.42633 0.0
C392 C 1.00331 0.31961 0.44932 0.0
C393 C 0.99663 0.26969 0.45035 0.0
C394 C 0.10971 0.46606 0.40578 0.0
N395 N 0.1103 0.44464 0.3953 0.0
C396 C 0.13706 0.48951 0.41226 0.0
C397 C 0.16515 0.49098 0.40791 0.0
C398 C 0.16558 0.46909 0.39715 0.0
C399 C 0.13777 0.44596 0.39094 0.0
C400 C 0.1139 0.45435 0.33773 0.0
C401 C 0.08492 0.3967 0.35202 0.0
C402 C 0.10294 0.4487 0.35537 0.0
N403 N 0.08873 0.42015 0.36231 0.0
C404 C 0.09532 0.40147 0.33428 0.0
C405 C 0.10996 0.43053 0.32713 0.0
C406 C 0.01948 0.35198 0.383 0.0
C407 C 0.96576 0.38645 0.42902 0.0
C408 C 0.97035 0.33676 0.41938 0.0
C409 C 0.94139 0.33501 0.41993 0.0
C410 C 0.93913 0.36008 0.4248 0.0
N411 N 0.99639 0.36264 0.42377 0.0
C412 C 0.99428 0.38732 0.42848 0.0
Co413 Co 0.56886 0.63471 0.3623 0.0
Co414 Co 0.61038 0.64654 0.40021 0.0
O415 O 0.57204 0.62447 0.38706 0.0
C416 C 0.54542 0.5697 0.36167 0.0
O417 O 0.57121 0.575 0.36927 0.0
C418 C 0.55685 0.61919 0.42746 0.0
O419 O 0.53704 0.61642 0.41521 0.0
O420 O 0.60924 0.68538 0.39564 0.0
O421 O 0.597 0.67831 0.36657 0.0
H422 H 0.71671 0.73314 0.41024 0.0
H423 H 0.5104 0.59754 0.38275 0.0
O424 O 0.54069 0.5913 0.35759 0.0
H425 H 0.50715 0.68874 0.36433 0.0
H426 H 0.51334 0.62547 0.30502 0.0
H427 H 0.61365 0.67594 0.33497 0.0
H428 H 0.55155 0.68216 0.35587 0.0
H429 H 0.51744 0.6137 0.3365 0.0
O430 O 0.58594 0.63576 0.4241 0.0
H431 H 0.66822 0.70439 0.39411 0.0
H432 H 0.63427 0.63671 0.4346 0.0
H433 H 0.61056 0.6885 0.30353 0.0
H434 H 0.46536 0.60309 0.39139 0.0
H435 H 0.56013 0.66316 0.28833 0.0
H436 H 0.46358 0.64899 0.38219 0.0
O437 O 0.60511 0.63014 0.35557 0.0
H438 H 0.56747 0.53561 0.4121 0.0
H439 H 0.66083 0.63109 0.39639 0.0
H440 H 0.66432 0.58483 0.39927 0.0
H441 H 0.61764 0.5368 0.40744 0.0
H442 H 0.56455 0.58175 0.40836 0.0
H443 H 0.6822 0.66491 0.45132 0.0
H444 H 0.72398 0.71343 0.43909 0.0
O445 O 0.63622 0.65581 0.3778 0.0
C446 C 0.60841 0.69542 0.37988 0.0
C447 C 0.69865 0.71206 0.41573 0.0
C448 C 0.67927 0.67381 0.4388 0.0
N449 N 0.64822 0.66894 0.41343 0.0
C450 C 0.67109 0.69566 0.40665 0.0
C451 C 0.65202 0.65803 0.42934 0.0
C452 C 0.70272 0.701 0.43192 0.0
C453 C 0.50975 0.61754 0.37867 0.0
N454 N 0.53366 0.63955 0.36892 0.0
C455 C 0.48421 0.62058 0.38362 0.0
C456 C 0.48324 0.64635 0.37847 0.0
C457 C 0.50768 0.66868 0.36847 0.0
C458 C 0.53285 0.66488 0.36379 0.0
C459 C 0.53545 0.63665 0.31149 0.0
C460 C 0.59159 0.6649 0.32848 0.0
C461 C 0.53792 0.63004 0.3293 0.0
N462 N 0.56572 0.64423 0.33759 0.0
C463 C 0.59001 0.67203 0.31065 0.0
C464 C 0.56171 0.65779 0.30213 0.0
C465 C 0.63165 0.64371 0.36254 0.0
C466 C 0.58817 0.55656 0.40891 0.0
C467 C 0.6403 0.61032 0.40004 0.0
C468 C 0.6425 0.5842 0.40163 0.0
C469 C 0.61627 0.55721 0.4062 0.0
N470 N 0.61274 0.60971 0.40302 0.0
C471 C 0.58679 0.58307 0.40711 0.0
Co472 Co 0.38266 0.92877 0.39351 0.0
Co473 Co 0.36499 0.96388 0.42683 0.0
O474 O 0.38962 0.94685 0.41693 0.0
C475 C 0.44939 0.97247 0.39163 0.0
O476 O 0.44258 0.99328 0.39623 0.0
C477 C 0.38913 0.94216 0.45742 0.0
O478 O 0.39093 0.92238 0.44722 0.0
O479 O 0.32483 0.92441 0.42288 0.0
O480 O 0.33706 0.91197 0.39644 0.0
H481 H 0.27689 0.98613 0.42802 0.0
H482 H 0.42146 0.91681 0.4184 0.0
O483 O 0.42809 0.94543 0.39002 0.0
H484 H 0.3337 0.81744 0.40518 0.0
H485 H 0.40222 0.87526 0.34321 0.0
H486 H 0.34223 0.9233 0.36339 0.0
H487 H 0.33798 0.86325 0.39137 0.0
H488 H 0.40985 0.89715 0.37313 0.0
O489 O 0.37271 0.95391 0.45236 0.0
H490 H 0.30892 0.96589 0.41555 0.0
H491 H 0.36874 0.99856 0.4596 0.0
H492 H 0.33364 0.90141 0.33345 0.0
H493 H 0.41852 0.87158 0.43226 0.0
H494 H 0.36377 0.87718 0.32318 0.0
H495 H 0.37428 0.82143 0.42577 0.0
O496 O 0.38589 0.96562 0.38246 0.0
H497 H 0.47822 0.0325 0.43861 0.0
H498 H 0.38107 0.02721 0.41973 0.0
H499 H 0.42785 0.07625 0.42164 0.0
H500 H 0.47708 0.07934 0.43092 0.0
H501 H 0.43097 0.98395 0.43667 0.0
H502 H 0.33723 0.0189 0.47263 0.0
H503 H 0.29094 0.01284 0.45679 0.0
O504 O 0.35958 0.97702 0.40255 0.0
C505 C 0.31702 0.91004 0.408 0.0
C506 C 0.29688 0.98875 0.43511 0.0
C507 C 0.3307 0.00708 0.46015 0.0
N508 N 0.34035 0.9804 0.43698 0.0
C509 C 0.31506 0.97721 0.42814 0.0
C510 C 0.34831 0.99522 0.45278 0.0
C511 C 0.30478 0.00373 0.45125 0.0
C512 C 0.40218 0.89508 0.41546 0.0
N513 N 0.37956 0.89274 0.40434 0.0
C514 C 0.40062 0.86954 0.42338 0.0
C515 C 0.37577 0.84142 0.41974 0.0
C516 C 0.35296 0.83917 0.40824 0.0
C517 C 0.3553 0.86522 0.40059 0.0
C518 C 0.3889 0.8857 0.34755 0.0
C519 C 0.35528 0.91261 0.35907 0.0
C520 C 0.39317 0.89819 0.36446 0.0
N521 N 0.37631 0.91127 0.37006 0.0
C522 C 0.35038 0.90034 0.34208 0.0
C523 C 0.36732 0.88678 0.33632 0.0
C524 C 0.37257 0.98035 0.38726 0.0
C525 C 0.45685 0.03158 0.43476 0.0
C526 C 0.40211 0.02816 0.4242 0.0
C527 C 0.42869 0.05612 0.4251 0.0
C528 C 0.45624 0.0578 0.43038 0.0
N529 N 0.40261 1.00247 0.42885 0.0
C530 C 0.42972 0.00401 0.43388 0.0
Co531 Co 0.27246 0.21542 0.31148 0.0
Co532 Co 0.29034 0.25038 0.27048 0.0
O533 O 0.28228 0.2163 0.28612 0.0
C534 C 0.32255 0.20053 0.31072 0.0
O535 O 0.3382 0.2245 0.3006 0.0
C536 C 0.26477 0.19428 0.24801 0.0
O537 O 0.25109 0.1771 0.26202 0.0
O538 O 0.24844 0.24569 0.27744 0.0
O539 O 0.24963 0.23771 0.30693 0.0
H540 H 0.29042 0.34618 0.25463 0.0
H541 H 0.25753 0.15728 0.29515 0.0
O542 O 0.2956 0.19351 0.31655 0.0
H543 H 0.15807 0.14466 0.31781 0.0
H544 H 0.24201 0.1686 0.37295 0.0
H545 H 0.27213 0.25986 0.33653 0.0
H546 H 0.20625 0.19238 0.32159 0.0
H547 H 0.25371 0.16968 0.34079 0.0
O548 O 0.27486 0.22263 0.24894 0.0
H549 H 0.28178 0.30365 0.27412 0.0
H550 H 0.31479 0.26919 0.23316 0.0
H551 H 0.26042 0.25968 0.36858 0.0
H552 H 0.2099 0.109 0.29125 0.0
H553 H 0.24521 0.2138 0.38702 0.0
H554 H 0.15969 0.10249 0.30258 0.0
O555 O 0.31076 0.25407 0.3145 0.0
H556 H 0.36858 0.21703 0.25749 0.0
H557 H 0.35323 0.30392 0.26749 0.0
H558 H 0.40573 0.31219 0.26144 0.0
H559 H 0.41378 0.26858 0.25626 0.0
H560 H 0.31692 0.20982 0.26339 0.0
H561 H 0.32342 0.31112 0.21313 0.0
H562 H 0.31136 0.35012 0.22386 0.0
O563 O 0.3084 0.2793 0.29055 0.0
C564 C 0.23965 0.24598 0.29368 0.0
C565 C 0.29573 0.32931 0.24978 0.0
C566 C 0.31418 0.30961 0.22649 0.0
N567 N 0.29756 0.28377 0.2548 0.0
C568 C 0.29087 0.30514 0.26078 0.0
C569 C 0.30902 0.28576 0.23786 0.0
C570 C 0.30745 0.3315 0.23252 0.0
C571 C 0.23579 0.15457 0.30018 0.0
N572 N 0.23468 0.17769 0.30848 0.0
C573 C 0.20888 0.12721 0.2979 0.0
C574 C 0.18072 0.12358 0.30424 0.0
C575 C 0.17978 0.14724 0.31276 0.0
C576 C 0.20714 0.17428 0.31477 0.0
C577 C 0.24859 0.18872 0.36505 0.0
C578 C 0.26542 0.23976 0.34444 0.0
C579 C 0.2553 0.18948 0.34684 0.0
N580 N 0.26339 0.21473 0.33677 0.0
C581 C 0.25891 0.23983 0.3626 0.0
C582 C 0.25039 0.21409 0.37294 0.0
C583 C 0.31917 0.27837 0.30576 0.0
C584 C 0.36545 0.23634 0.25918 0.0
C585 C 0.35638 0.28481 0.26495 0.0
C586 C 0.38624 0.28966 0.2616 0.0
C587 C 0.39074 0.2652 0.25867 0.0
N588 N 0.33154 0.25643 0.26507 0.0
C589 C 0.33594 0.23238 0.26235 0.0
Co590 Co 0.77932 0.02794 0.29056 0.0
Co591 Co 0.73305 0.0177 0.25483 0.0
O592 O 0.77301 0.03873 0.26656 0.0
C593 C 0.80253 0.09285 0.29301 0.0
O594 O 0.77565 0.08765 0.28707 0.0
C595 C 0.7836 0.04408 0.22587 0.0
O596 O 0.80447 0.04649 0.23725 0.0
O597 O 0.73291 0.978 0.25833 0.0
O598 O 0.7503 0.98452 0.28647 0.0
H599 H 0.62444 0.93338 0.2476 0.0
H600 H 0.83547 0.06565 0.26836 0.0
O601 O 0.8082 0.0713 0.29519 0.0
H602 H 0.83985 0.9735 0.28256 0.0
H603 H 0.84172 0.0366 0.34478 0.0
H604 H 0.73773 0.98708 0.31912 0.0
H605 H 0.79676 0.98005 0.2939 0.0
H606 H 0.83402 0.04787 0.31381 0.0
O607 O 0.75482 0.02784 0.23011 0.0
H608 H 0.67449 0.9612 0.26238 0.0
H609 H 0.70678 0.02848 0.22167 0.0
H610 H 0.74432 0.9754 0.35016 0.0
H611 H 0.8792 0.06016 0.25688 0.0
H612 H 0.79664 1.00022 0.36319 0.0
H613 H 0.88152 0.01377 0.26393 0.0
O614 O 0.7443 0.03238 0.29965 0.0
H615 H 0.7785 0.12945 0.24512 0.0
H616 H 0.68429 0.03474 0.26075 0.0
H617 H 0.68206 0.0817 0.25948 0.0
H618 H 0.72932 0.12954 0.25153 0.0
H619 H 0.77989 0.08231 0.24681 0.0
H620 H 0.65724 1.00122 0.20631 0.0
H621 H 0.61554 0.95336 0.21931 0.0
O622 O 0.70992 0.00937 0.27825 0.0
C623 C 0.73593 0.96764 0.27353 0.0
C624 C 0.64244 0.95419 0.24178 0.0
C625 C 0.66086 0.99222 0.21859 0.0
N626 N 0.69371 0.99637 0.24288 0.0
C627 C 0.67086 0.97005 0.2501 0.0
C628 C 0.689 0.00746 0.22729 0.0
C629 C 0.63747 0.9654 0.22591 0.0
C630 C 0.83637 0.04545 0.27151 0.0
N631 N 0.81347 0.02313 0.28166 0.0
C632 C 0.86116 0.04244 0.26496 0.0
C633 C 0.86244 0.01639 0.26891 0.0
C634 C 0.83905 0.99377 0.27933 0.0
C635 C 0.8146 0.99755 0.28563 0.0
C636 C 0.81882 0.02562 0.33925 0.0
C637 C 0.76059 0.99791 0.32466 0.0
C638 C 0.81434 0.03188 0.32171 0.0
N639 N 0.78551 0.01799 0.31462 0.0
C640 C 0.76415 0.99128 0.34228 0.0
C641 C 0.79351 0.00523 0.34958 0.0
C642 C 0.71692 0.02026 0.29384 0.0
C643 C 0.75757 0.10867 0.24826 0.0
C644 C 0.70495 0.05533 0.25704 0.0
C645 C 0.70353 0.08191 0.25641 0.0
C646 C 0.73004 0.10874 0.25195 0.0
N647 N 0.7319 0.05525 0.25308 0.0
C648 C 0.75809 0.08164 0.24896 0.0
Co649 Co 0.98324 0.75443 0.28953 0.0
Co650 Co 0.96938 0.6839 0.27867 0.0
O651 O 0.99362 0.72216 0.2902 0.0
C652 C 0.05338 0.78212 0.29048 0.0
O653 O 0.05204 0.75986 0.28128 0.0
C654 C 0.97095 0.66226 0.31541 0.0
O655 O 0.9561 0.67573 0.32154 0.0
O656 O 0.93121 0.67831 0.29094 0.0
O657 O 0.93788 0.72494 0.28955 0.0
H658 H 0.87848 0.6066 0.24532 0.0
H659 H 0.02103 0.74798 0.31838 0.0
O660 O 0.02948 0.78562 0.29134 0.0
H661 H 0.93621 0.75382 0.34952 0.0
H662 H 0.99689 0.85551 0.30611 0.0
H663 H 0.93628 0.76444 0.27125 0.0
H664 H 0.93994 0.75614 0.31673 0.0
H665 H 0.00871 0.81406 0.30707 0.0
O666 O 0.97771 0.66343 0.29889 0.0
H667 H 0.91 0.65532 0.25959 0.0
H668 H 0.97625 0.62957 0.27405 0.0
H669 H 0.9235 0.80524 0.27001 0.0
H670 H 0.01837 0.74605 0.3511 0.0
H671 H 0.95396 0.85126 0.28751 0.0
H672 H 0.97573 0.74895 0.36697 0.0
O673 O 0.9819 0.75354 0.26219 0.0
H674 H 0.07983 0.7061 0.27541 0.0
H675 H 0.98624 0.67918 0.24098 0.0
H676 H 0.03338 0.68613 0.22539 0.0
H677 H 0.08063 0.69957 0.24267 0.0
H678 H 0.03237 0.69959 0.29035 0.0
H679 H 0.94527 0.58042 0.26007 0.0
H680 H 0.89607 0.56873 0.2455 0.0
O681 O 0.96056 0.70372 0.25834 0.0
C682 C 0.92098 0.69673 0.2922 0.0
C683 C 0.89993 0.61146 0.25157 0.0
C684 C 0.9374 0.59676 0.25987 0.0
N685 N 0.94508 0.64539 0.26751 0.0
C686 C 0.91793 0.63906 0.25963 0.0
C687 C 0.95481 0.6246 0.2678 0.0
C688 C 0.9098 0.59022 0.25169 0.0
C689 C 1.00279 0.75 0.32505 0.0
N690 N 0.98131 0.75327 0.3155 0.0
C691 C 1.00123 0.74857 0.34366 0.0
C692 C 0.97726 0.75011 0.35255 0.0
C693 C 0.95511 0.75287 0.34277 0.0
C694 C 0.95742 0.75426 0.32418 0.0
C695 C 0.98361 0.83568 0.29831 0.0
C696 C 0.94983 0.78444 0.27877 0.0
C697 C 0.99037 0.81219 0.29867 0.0
N698 N 0.97362 0.78699 0.28892 0.0
C699 C 0.9424 0.80746 0.27807 0.0
C700 C 0.95948 0.83326 0.2879 0.0
C701 C 0.9669 0.72977 0.2527 0.0
C702 C 0.05942 0.70029 0.26773 0.0
C703 C 0.00682 0.68558 0.24851 0.0
C704 C 0.0334 0.68922 0.23965 0.0
C705 C 0.05987 0.69668 0.24935 0.0
N706 N 0.00661 0.68936 0.26651 0.0
C707 C 0.03241 0.69644 0.27612 0.0
Co708 Co 0.7368 0.75094 0.72235 0.0
Co709 Co 0.70733 0.69796 0.75578 0.0
O710 O 0.72089 0.73835 0.7465 0.0
C711 C 0.68875 0.76879 0.7256 0.0
O712 O 0.66858 0.74066 0.72926 0.0
C713 C 0.73485 0.74254 0.7853 0.0
O714 O 0.75653 0.76182 0.77443 0.0
O715 O 0.74909 0.70185 0.74925 0.0
O716 O 0.75688 0.72524 0.72259 0.0
H717 H 0.69438 0.59415 0.75452 0.0
H718 H 0.74922 0.79868 0.74853 0.0
O719 O 0.71683 0.77659 0.72195 0.0
H720 H 0.85178 0.81701 0.72781 0.0
H721 H 0.78191 0.82552 0.67136 0.0
H722 H 0.74189 0.72009 0.69022 0.0
H723 H 0.80436 0.77488 0.7161 0.0
H724 H 0.76353 0.80918 0.70232 0.0
O725 O 0.71931 0.71503 0.78078 0.0
H726 H 0.71036 0.64484 0.74266 0.0
H727 H 0.67593 0.66513 0.78961 0.0
H728 H 0.76031 0.73552 0.65919 0.0
H729 H 0.79602 0.84144 0.76031 0.0
H730 H 0.78044 0.78858 0.64958 0.0
H731 H 0.84779 0.85074 0.75003 0.0
O732 O 0.69893 0.71684 0.71277 0.0
H733 H 0.63225 0.73153 0.77667 0.0
H734 H 0.64286 0.64884 0.75057 0.0
H735 H 0.59097 0.64213 0.75654 0.0
H736 H 0.58533 0.68357 0.76974 0.0
H737 H 0.68361 0.73748 0.77031 0.0
H738 H 0.65981 0.61473 0.80204 0.0
H739 H 0.6689 0.57878 0.78443 0.0
O740 O 0.69262 0.68007 0.73176 0.0
C741 C 0.76205 0.70904 0.73359 0.0
C742 C 0.69034 0.60963 0.76234 0.0
C743 C 0.671 0.6212 0.78902 0.0
N744 N 0.69435 0.65809 0.76546 0.0
C745 C 0.69937 0.6384 0.7557 0.0
C746 C 0.68038 0.64981 0.78195 0.0
C747 C 0.67606 0.60103 0.77913 0.0
C748 C 0.77163 0.80274 0.74382 0.0
N749 N 0.77401 0.78415 0.73169 0.0
C750 C 0.79807 0.82692 0.75062 0.0
C751 C 0.8271 0.83209 0.74488 0.0
C752 C 0.82936 0.81313 0.73244 0.0
C753 C 0.80241 0.78916 0.72595 0.0
C754 C 0.77324 0.80235 0.6754 0.0
C755 C 0.75086 0.74326 0.68618 0.0
C756 C 0.76276 0.79296 0.69291 0.0
N757 N 0.75191 0.76376 0.69811 0.0
C758 C 0.76116 0.75185 0.66857 0.0
C759 C 0.77242 0.78162 0.66318 0.0
C760 C 0.68663 0.68919 0.71722 0.0
C761 C 0.63437 0.71316 0.7711 0.0
C762 C 0.64073 0.66698 0.75645 0.0
C763 C 0.61121 0.66305 0.75973 0.0
C764 C 0.60807 0.6863 0.76716 0.0
N765 N 0.6665 0.6932 0.76066 0.0
C766 C 0.66352 0.71627 0.76766 0.0
Co767 Co 0.21752 0.95406 0.69252 0.0
Co768 Co 0.26385 0.97699 0.72894 0.0
O769 O 0.22565 0.94882 0.71724 0.0
C770 C 0.2049 0.8913 0.69409 0.0
O771 O 0.23234 0.90112 0.7009 0.0
C772 C 0.21179 0.94876 0.75688 0.0
O773 O 0.19133 0.94602 0.7451 0.0
O774 O 0.25627 0.01189 0.7229 0.0
O775 O 0.23941 0.99879 0.69493 0.0
H776 H 0.36528 0.07241 0.73403 0.0
H777 H 0.16424 0.9117 0.71529 0.0
O778 O 0.19564 0.90962 0.68966 0.0
H779 H 0.13834 0.98857 0.69511 0.0
H780 H 0.15322 0.92783 0.63738 0.0
H781 H 0.25446 0.99589 0.66305 0.0
H782 H 0.18732 0.99118 0.68559 0.0
H783 H 0.16352 0.92208 0.66884 0.0
O784 O 0.24066 0.96585 0.7532 0.0
H785 H 0.31788 0.03616 0.71912 0.0
H786 H 0.29161 0.97742 0.7642 0.0
H787 H 0.24503 1.00263 0.63158 0.0
H788 H 0.1147 0.90781 0.72484 0.0
H789 H 0.19411 0.96844 0.61855 0.0
H790 H 0.10154 0.94654 0.71483 0.0
O791 O 0.25701 0.95619 0.6849 0.0
H792 H 0.23849 0.87147 0.74597 0.0
H793 H 0.32016 0.97095 0.72496 0.0
H794 H 0.33269 0.93047 0.72971 0.0
H795 H 0.29177 0.88032 0.74046 0.0
H796 H 0.22677 0.91221 0.7406 0.0
H797 H 0.33861 0.01313 0.77964 0.0
H798 H 0.37582 0.06113 0.76459 0.0
O799 O 0.28801 0.98652 0.70594 0.0
C800 C 0.25159 0.01858 0.70697 0.0
C801 C 0.34906 0.05174 0.74082 0.0
C802 C 0.33408 0.01848 0.76642 0.0
N803 N 0.30144 0.00497 0.74091 0.0
C804 C 0.32208 0.03112 0.73245 0.0
C805 C 0.30732 0.99843 0.75764 0.0
C806 C 0.35497 0.04539 0.75796 0.0
C807 C 0.15863 0.92856 0.71078 0.0
N808 N 0.17888 0.95187 0.70005 0.0
C809 C 0.13057 0.92628 0.71628 0.0
C810 C 0.12322 0.94803 0.71068 0.0
C811 C 0.14388 0.97165 0.69965 0.0
C812 C 0.17173 0.97318 0.69442 0.0
C813 C 0.17549 0.94289 0.64291 0.0
C814 C 0.23218 0.98102 0.6575 0.0
C815 C 0.18148 0.9397 0.6607 0.0
N816 N 0.20949 0.95876 0.6678 0.0
C817 C 0.22701 0.9849 0.63966 0.0
C818 C 0.19843 0.96569 0.63235 0.0
C819 C 0.28365 0.97362 0.69097 0.0
C820 C 0.25665 0.89335 0.74156 0.0
C821 C 0.30221 0.94929 0.72975 0.0
C822 C 0.30946 0.92641 0.73238 0.0
C823 C 0.2865 0.89829 0.7384 0.0
N824 N 0.27296 0.94449 0.73314 0.0
C825 C 0.25023 0.91676 0.73874 0.0
Co826 Co 0.05599 0.26841 0.72856 0.0
Co827 Co 0.03736 0.30882 0.75762 0.0
O828 O 0.0619 0.29008 0.75062 0.0
C829 C 0.1226 0.31219 0.72716 0.0
O830 O 0.11519 0.33336 0.72912 0.0
C831 C 0.05594 0.28748 0.79072 0.0
O832 O 0.05368 0.26409 0.78238 0.0
O833 O 0.99714 0.26924 0.75449 0.0
O834 O 0.0102 0.25206 0.73017 0.0
H835 H 0.95112 0.33308 0.75195 0.0
H836 H 0.09337 0.26031 0.7564 0.0
O837 O 0.10168 0.28478 0.7265 0.0
H838 H 0.00542 0.15932 0.74687 0.0
H839 H 0.07757 0.20676 0.68463 0.0
H840 H 0.01746 0.25817 0.69673 0.0
H841 H 0.01066 0.2029 0.72967 0.0
H842 H 0.08405 0.23378 0.71272 0.0
O843 O 0.04324 0.30185 0.78399 0.0
H844 H 0.98293 0.31045 0.74296 0.0
H845 H 0.03969 0.34768 0.78788 0.0
H846 H 0.01033 0.23145 0.66848 0.0
H847 H 0.08945 0.21729 0.77363 0.0
H848 H 0.04054 0.20549 0.66229 0.0
H849 H 0.04511 0.16635 0.769 0.0
O850 O 0.05993 0.30331 0.7146 0.0
H851 H 0.14891 0.37791 0.77291 0.0
H852 H 0.05574 0.37128 0.74617 0.0
H853 H 0.10287 0.42028 0.74772 0.0
H854 H 0.14997 0.42395 0.76122 0.0
H855 H 0.10158 0.32924 0.77077 0.0
H856 H 0.00837 0.3705 0.79744 0.0
H857 H 0.96374 0.36335 0.77941 0.0
O858 O 0.03387 0.31888 0.73219 0.0
C859 C 0.9898 0.2524 0.7406 0.0
C860 C 0.9704 0.33622 0.75999 0.0
C861 C 1.00249 0.35717 0.78552 0.0
N862 N 0.01285 0.32719 0.76502 0.0
C863 C 0.98845 0.32336 0.75498 0.0
C864 C 0.02 0.34394 0.78011 0.0
C865 C 0.97749 0.3532 0.77538 0.0
C866 C 0.07414 0.2382 0.75418 0.0
N867 N 0.05205 0.2342 0.74216 0.0
C868 C 0.07198 0.21393 0.76404 0.0
C869 C 0.04707 0.18537 0.76146 0.0
C870 C 0.02476 0.18142 0.74909 0.0
C871 C 0.02767 0.20623 0.73949 0.0
C872 C 0.06432 0.21801 0.68718 0.0
C873 C 0.03058 0.24682 0.69417 0.0
C874 C 0.06788 0.23334 0.70305 0.0
N875 N 0.05091 0.24728 0.70644 0.0
C876 C 0.02651 0.23179 0.67813 0.0
C877 C 0.04349 0.21727 0.67465 0.0
C878 C 0.04703 0.3192 0.71738 0.0
C879 C 0.12847 0.37665 0.76714 0.0
C880 C 0.07598 0.37254 0.75217 0.0
C881 C 0.10271 0.40043 0.75294 0.0
C882 C 0.12908 0.40247 0.76055 0.0
N883 N 0.07527 0.3473 0.75898 0.0
C884 C 0.10132 0.3491 0.76612 0.0
Co885 Co 0.94089 0.53462 0.64398 0.0
Co886 Co 0.95667 0.58072 0.6076 0.0
O887 O 0.95143 0.54405 0.61891 0.0
C888 C 0.99508 0.52614 0.6384 0.0
O889 O 0.01037 0.55392 0.63238 0.0
C890 C 0.92851 0.52992 0.58163 0.0
O891 O 0.90968 0.51182 0.59411 0.0
O892 O 0.91369 0.5712 0.61606 0.0
O893 O 0.9142 0.55397 0.64371 0.0
H894 H 0.95204 0.67668 0.60406 0.0
H895 H 0.93244 0.48504 0.62024 0.0
O896 O 0.96747 0.51535 0.64439 0.0
H897 H 0.8291 0.45405 0.64609 0.0
H898 H 0.91427 0.46931 0.69917 0.0
H899 H 0.93482 0.5674 0.67483 0.0
H900 H 0.87389 0.50225 0.65413 0.0
H901 H 0.92652 0.48159 0.66717 0.0
O902 O 0.9428 0.55824 0.58421 0.0
H903 H 0.94657 0.63096 0.61865 0.0
H904 H 0.97766 0.60838 0.57124 0.0
H905 H 0.92239 0.55595 0.70687 0.0
H906 H 0.88843 0.43639 0.61213 0.0
H907 H 0.912 0.50659 0.71924 0.0
H908 H 0.83624 0.42066 0.625 0.0
O909 O 0.97668 0.57363 0.65046 0.0
H910 H 0.04011 0.56038 0.5841 0.0
H911 H 0.01741 0.6369 0.60828 0.0
H912 H 0.07091 0.65105 0.59967 0.0
H913 H 0.0826 0.61266 0.58742 0.0
H914 H 0.98715 0.54697 0.59328 0.0
H915 H 0.98325 0.65374 0.55609 0.0
H916 H 0.97047 0.68834 0.57253 0.0
O917 O 0.973 0.60395 0.63002 0.0
C918 C 0.90376 0.5655 0.63241 0.0
C919 C 0.95757 0.66173 0.59673 0.0
C920 C 0.97503 0.64883 0.56981 0.0
N921 N 0.96137 0.61673 0.59578 0.0
C922 C 0.95446 0.63575 0.60492 0.0
C923 C 0.97159 0.62303 0.57843 0.0
C924 C 0.96791 0.66826 0.57904 0.0
C925 C 0.9099 0.47824 0.62608 0.0
N926 N 0.90575 0.49658 0.63761 0.0
C927 C 0.88501 0.45071 0.62135 0.0
C928 C 0.85573 0.44194 0.62855 0.0
C929 C 0.8517 0.46069 0.64035 0.0
C930 C 0.87712 0.48807 0.64476 0.0
C931 C 0.91869 0.49087 0.69393 0.0
C932 C 0.93015 0.5458 0.68009 0.0
C933 C 0.9257 0.49797 0.67584 0.0
N934 N 0.93113 0.52508 0.66912 0.0
C935 C 0.92321 0.53948 0.69825 0.0
C936 C 0.91741 0.5118 0.70518 0.0
C937 C 0.98355 0.59963 0.64452 0.0
C938 C 0.03532 0.57732 0.58933 0.0
C939 C 0.02219 0.62003 0.60291 0.0
C940 C 0.05261 0.62819 0.5981 0.0
C941 C 0.05914 0.60666 0.59121 0.0
N942 N 0.99881 0.59128 0.60076 0.0
C943 C 0.0052 0.56995 0.59434 0.0
Co944 Co 0.45217 0.36584 0.62505 0.0
Co945 Co 0.40137 0.35193 0.59086 0.0
O946 O 0.44211 0.37504 0.60156 0.0
C947 C 0.47069 0.42997 0.62763 0.0
O948 O 0.44394 0.42355 0.62089 0.0
C949 C 0.45015 0.37552 0.56098 0.0
O950 O 0.47097 0.3762 0.57181 0.0
O951 O 0.40199 0.31251 0.5949 0.0
O952 O 0.42606 0.32202 0.62117 0.0
H953 H 0.29243 0.26652 0.58782 0.0
H954 H 0.5046 0.40783 0.60166 0.0
O955 O 0.47799 0.40954 0.62983 0.0
H956 H 0.52158 0.32184 0.61251 0.0
H957 H 0.5226 0.37976 0.67608 0.0
H958 H 0.41623 0.32259 0.65422 0.0
H959 H 0.47656 0.32286 0.62597 0.0
H960 H 0.50967 0.39052 0.64626 0.0
O961 O 0.42148 0.3608 0.56573 0.0
H962 H 0.34352 0.29646 0.60114 0.0
H963 H 0.3723 0.35852 0.55761 0.0
H964 H 0.42822 0.31091 0.68404 0.0
H965 H 0.55028 0.40804 0.5882 0.0
H966 H 0.48174 0.33961 0.69516 0.0
H967 H 0.55892 0.36473 0.59351 0.0
O968 O 0.41584 0.36635 0.63592 0.0
H969 H 0.44338 0.46212 0.57685 0.0
H970 H 0.35225 0.36831 0.59737 0.0
H971 H 0.34859 0.41443 0.59466 0.0
H972 H 0.39428 0.46178 0.58415 0.0
H973 H 0.44633 0.41587 0.58022 0.0
H974 H 0.32163 0.32911 0.54373 0.0
H975 H 0.2812 0.28276 0.55888 0.0
O976 O 0.38029 0.34501 0.61478 0.0
C977 C 0.40876 0.30364 0.60954 0.0
C978 C 0.3099 0.28659 0.58104 0.0
C979 C 0.32631 0.32168 0.55629 0.0
N980 N 0.36116 0.329 0.58006 0.0
C981 C 0.33894 0.30362 0.58851 0.0
C982 C 0.3551 0.33812 0.56415 0.0
C983 C 0.30362 0.29571 0.56481 0.0
C984 C 0.50831 0.389 0.60416 0.0
N985 N 0.48774 0.36521 0.61446 0.0
C986 C 0.53417 0.3892 0.59644 0.0
C987 C 0.53897 0.36488 0.5994 0.0
C988 C 0.518 0.34077 0.61002 0.0
C989 C 0.49239 0.34135 0.6175 0.0
C990 C 0.49921 0.36706 0.67137 0.0
C991 C 0.43962 0.33506 0.6589 0.0
C992 C 0.49173 0.37309 0.65451 0.0
N993 N 0.46227 0.35705 0.64844 0.0
C994 C 0.44625 0.3284 0.67583 0.0
C995 C 0.47628 0.34453 0.68207 0.0
C996 C 0.38808 0.35419 0.63065 0.0
C997 C 0.42315 0.44154 0.58118 0.0
C998 C 0.37226 0.38872 0.59275 0.0
C999 C 0.37003 0.41482 0.59124 0.0
C1000 C 0.39565 0.44136 0.58535 0.0
N1001 N 0.39916 0.38884 0.58836 0.0
C1002 C 0.42453 0.415 0.58287 0.0
Co1003 Co 0.65029 0.0871 0.62809 0.0
Co1004 Co 0.62249 0.01294 0.61922 0.0
O1005 O 0.65496 0.05108 0.62824 0.0
C1006 C 0.71965 0.10791 0.62773 0.0
O1007 O 0.71447 0.08157 0.6223 0.0
C1008 C 0.63461 0.99415 0.65426 0.0
O1009 O 0.63297 0.01651 0.66161 0.0
O1010 O 0.59256 0.01479 0.636 0.0
O1011 O 0.60407 0.06232 0.63102 0.0
H1012 H 0.51389 0.94175 0.60135 0.0
H1013 H 0.68823 0.0764 0.65527 0.0
O1014 O 0.69776 0.1145 0.62696 0.0
H1015 H 0.61857 0.10048 0.68993 0.0
H1016 H 0.67906 0.1935 0.64308 0.0
H1017 H 0.60705 0.10328 0.61054 0.0
H1018 H 0.61611 0.0984 0.65721 0.0
H1019 H 0.68396 0.14788 0.64432 0.0
O1020 O 0.63221 0.99047 0.6375 0.0
H1021 H 0.55771 0.99102 0.60853 0.0
H1022 H 0.61669 0.95296 0.61238 0.0
H1023 H 0.60104 0.14826 0.60914 0.0
H1024 H 0.69203 0.07915 0.6878 0.0
H1025 H 0.63724 0.19386 0.62546 0.0
H1026 H 0.657 0.09117 0.70548 0.0
O1027 O 0.64429 0.08363 0.60108 0.0
H1028 H 0.72324 0.01847 0.60184 0.0
H1029 H 0.62272 1.00179 0.58026 0.0
H1030 H 0.66014 1.00009 0.55904 0.0
H1031 H 0.71082 0.00842 0.56979 0.0
H1032 H 0.68515 0.02018 0.6226 0.0
H1033 H 0.57357 0.9033 0.60482 0.0
H1034 H 0.52158 0.89736 0.59957 0.0
O1035 O 0.61132 0.03395 0.60065 0.0
C1036 C 0.58571 0.03566 0.63667 0.0
C1037 C 0.5364 0.94402 0.60365 0.0
C1038 C 0.5699 0.92245 0.60562 0.0
N1039 N 0.58974 0.97488 0.61094 0.0
C1040 C 0.56138 0.97191 0.60765 0.0
C1041 C 0.59427 0.95065 0.60981 0.0
C1042 C 0.54072 0.91912 0.60271 0.0
C1043 C 0.67365 0.0828 0.6626 0.0
N1044 N 0.65298 0.08865 0.65405 0.0
C1045 C 0.67558 0.08381 0.68117 0.0
C1046 C 0.65583 0.09041 0.69108 0.0
C1047 C 0.63428 0.09563 0.68237 0.0
C1048 C 0.63306 0.09447 0.66379 0.0
C1049 C 0.66322 0.17382 0.63584 0.0
C1050 C 0.62295 0.12298 0.61767 0.0
C1051 C 0.66606 0.14798 0.63638 0.0
N1052 N 0.64603 0.12293 0.62738 0.0
C1053 C 0.61941 0.14842 0.61683 0.0
C1054 C 0.63973 0.17399 0.62598 0.0
C1055 C 0.62258 0.0601 0.59366 0.0
C1056 C 0.70126 0.01484 0.59698 0.0
C1057 C 0.64483 0.00571 0.58503 0.0
C1058 C 0.66587 0.00458 0.57295 0.0
C1059 C 0.69428 0.00922 0.579 0.0
N1060 N 0.65189 0.0113 0.60264 0.0
C1061 C 0.67962 0.01577 0.60868 0.0
H1062 H 0.48486 0.05253 0.06478 0.0
H1063 H 0.5101 0.03003 0.04707 0.0
H1064 H 0.42083 0.9593 0.03157 0.0
H1065 H 0.39587 0.98151 0.04938 0.0
H1066 H 0.45971 0.93695 0.03546 0.0
H1067 H 0.46534 0.02475 1.00628 0.0
H1068 H 0.48059 0.07849 1.00498 0.0
H1069 H 0.57594 0.1023 0.00913 0.0
H1070 H 0.56134 0.04878 0.01102 0.0
H1071 H 0.50835 0.8862 0.96027 0.0
H1072 H 0.48222 0.90746 0.97832 0.0
H1073 H 0.57056 0.98401 0.98955 0.0
H1074 H 0.59622 0.96324 0.97116 0.0
H1075 H 0.53211 0.00341 0.98805 0.0
H1076 H 0.53055 0.92046 0.01857 0.0
H1077 H 0.5196 0.86819 0.02231 0.0
H1078 H 0.42239 0.83687 0.01813 0.0
H1079 H 0.43278 0.88895 0.01401 0.0
C1080 C 0.47067 0.0314 0.0583 0.0
C1081 C 0.43827 0.01813 0.05921 0.0
C1082 C 0.4851 0.01877 0.04785 0.0
C1083 C 0.46753 0.99297 0.03764 0.0
C1084 C 0.43513 0.97897 0.03929 0.0
C1085 C 0.42078 0.99151 0.04975 0.0
C1086 C 0.48246 0.98175 0.02429 0.0
C1087 C 0.47527 0.95147 0.02499 0.0
C1088 C 0.50348 1.00059 0.01074 0.0
C1089 C 0.51222 0.03272 0.00895 0.0
C1090 C 0.48955 0.04143 1.00699 0.0
C1091 C 0.49806 0.07184 1.00617 0.0
C1092 C 0.52915 0.09374 1.00696 0.0
C1093 C 0.55185 0.0853 1.00854 0.0
C1094 C 0.54349 0.05494 0.00952 0.0
C1095 C 0.52197 0.90818 0.96594 0.0
C1096 C 0.55429 0.92355 0.96364 0.0
C1097 C 0.5071 0.92013 0.97662 0.0
C1098 C 0.52427 0.94733 0.98575 0.0
C1099 C 0.55646 0.96319 0.98274 0.0
C1100 C 0.5712 0.95141 0.97198 0.0
C1101 C 0.50934 0.95853 0.99916 0.0
C1102 C 0.5165 0.98881 0.99848 0.0
C1103 C 0.48884 0.93987 0.01297 0.0
C1104 C 0.48245 0.90859 0.0158 0.0
C1105 C 0.50684 0.90242 0.01836 0.0
C1106 C 0.50075 0.87283 0.02053 0.0
C1107 C 0.47034 0.84923 0.02042 0.0
C1108 C 0.44594 0.85518 0.01818 0.0
C1109 C 0.45191 0.88473 0.01592 0.0
H1110 H 0.46567 0.82634 0.02209 0.0
H1111 H 0.53564 0.11726 1.00633 0.0
H1112 H 0.90581 0.36935 0.00937 0.0
H1113 H 0.93089 0.4164 0.99291 0.0
H1114 H 1.00016 0.45456 0.03312 0.0
H1115 H 0.97449 0.40667 0.05016 0.0
H1116 H 0.98595 0.49732 0.01874 0.0
H1117 H 0.01642 0.42998 0.99662 0.0
H1118 H 0.01168 0.38267 0.98566 0.0
H1119 H 0.96205 0.38699 0.94032 0.0
H1120 H 0.96575 0.43397 0.95125 0.0
H1121 H 0.09915 0.60931 0.96179 0.0
H1122 H 0.07267 0.56198 0.97802 0.0
H1123 H 0.99273 0.53466 0.94555 0.0
H1124 H 0.01921 0.58315 0.92915 0.0
H1125 H 0.01351 0.48717 0.95628 0.0
H1126 H 0.98996 0.56103 0.98015 0.0
H1127 H 1.00397 0.61087 0.99164 0.0
H1128 H 0.05043 0.59656 0.03536 0.0
H1129 H 0.03779 0.547 0.02371 0.0
C1130 C 0.92593 0.38771 0.01516 0.0
C1131 C 0.93801 0.38352 0.03124 0.0
C1132 C 0.94053 0.41485 1.00549 0.0
C1133 C 0.96803 0.43916 0.01136 0.0
C1134 C 0.97913 0.43616 0.02809 0.0
C1135 C 0.96431 0.40865 0.03792 0.0
C1136 C 0.9855 0.46647 0.99928 0.0
C1137 C 0.9922 0.49505 1.00516 0.0
C1138 C 0.99387 0.46394 0.98142 0.0
C1139 C 0.9911 0.43541 0.97486 0.0
C1140 C 1.00416 0.42069 0.98442 0.0
C1141 C 1.00173 0.39395 0.97819 0.0
C1142 C 0.98666 0.38189 0.96228 0.0
C1143 C 0.9738 0.39643 0.95262 0.0
C1144 C 0.976 0.42308 0.95885 0.0
C1145 C 0.07619 0.59323 0.95761 0.0
C1146 C 0.06144 0.60077 0.94408 0.0
C1147 C 0.06096 0.56595 0.96711 0.0
C1148 C 0.03043 0.54472 0.96335 0.0
C1149 C 0.01627 0.55071 0.94885 0.0
C1150 C 0.03154 0.57851 0.93936 0.0
C1151 C 0.01319 0.51776 0.9756 0.0
C1152 C 0.00687 0.48931 0.96979 0.0
C1153 C 0.00607 0.52065 0.99367 0.0
C1154 C 0.01316 0.55028 1.00091 0.0
C1155 C 1.00355 0.56861 0.99207 0.0
C1156 C 0.01126 0.59686 0.99862 0.0
C1157 C 0.0281 0.60691 0.01423 0.0
C1158 C 0.03734 0.58873 0.02328 0.0
C1159 C 0.02999 0.56057 0.01666 0.0
H1160 H 0.03399 0.62876 0.01932 0.0
H1161 H 0.98487 0.36123 0.95745 0.0
H1162 H 0.43373 0.43741 0.96329 0.0
H1163 H 0.47505 0.45984 0.98467 0.0
H1164 H 0.44663 0.52472 0.99793 0.0
H1165 H 0.40385 0.50102 0.97705 0.0
H1166 H 0.52333 0.50574 0.98829 0.0
H1167 H 0.47187 0.55592 0.03817 0.0
H1168 H 0.42105 0.54542 0.05035 0.0
H1169 H 0.38389 0.45183 0.03959 0.0
H1170 H 0.43444 0.46176 0.02728 0.0
H1171 H 0.64378 0.60885 0.04003 0.0
H1172 H 0.59639 0.5854 0.02308 0.0
H1173 H 0.55175 0.51905 0.06496 0.0
H1174 H 0.60008 0.54267 0.08212 0.0
H1175 H 0.51022 0.53553 0.04912 0.0
H1176 H 0.57715 0.50026 0.02974 0.0
H1177 H 0.62424 0.50031 0.01888 0.0
H1178 H 0.62576 0.54934 0.97178 0.0
H1179 H 0.57901 0.55018 0.98254 0.0
C1180 C 0.43618 0.45657 0.97063 0.0
C1181 C 0.41515 0.46731 0.96815 0.0
C1182 C 0.46012 0.46954 0.98303 0.0
C1183 C 0.46443 0.49408 0.99344 0.0
C1184 C 0.44387 0.50541 0.99065 0.0
C1185 C 0.41945 0.49203 0.97841 0.0
C1186 C 0.49075 0.50778 1.00668 0.0
C1187 C 0.52015 0.51223 1.00153 0.0
C1188 C 0.48733 0.51586 0.02438 0.0
C1189 C 0.45685 0.50966 0.03165 0.0
C1190 C 0.45284 0.5331 0.0384 0.0
C1191 C 0.42406 0.52725 0.04528 0.0
C1192 C 0.3992 0.49799 0.04562 0.0
C1193 C 0.40308 0.4745 0.03913 0.0
C1194 C 0.43177 0.48024 0.03217 0.0
C1195 C 0.62376 0.58957 0.0459 0.0
C1196 C 0.62598 0.57786 0.06258 0.0
C1197 C 0.59652 0.576 0.03606 0.0
C1198 C 0.57018 0.55 0.04242 0.0
C1199 C 0.57156 0.53905 0.0596 0.0
C1200 C 0.59921 0.5527 0.06953 0.0
C1201 C 0.54252 0.5338 0.03044 0.0
C1202 C 0.51313 0.52903 0.03582 0.0
C1203 C 0.54557 0.52442 0.01312 0.0
C1204 C 0.57466 0.52546 1.00702 0.0
C1205 C 0.58776 0.51145 0.01719 0.0
C1206 C 0.61432 0.51121 0.01102 0.0
C1207 C 0.62782 0.52462 0.9946 0.0
C1208 C 0.61515 0.53881 0.98446 0.0
C1209 C 0.58865 0.53922 0.9906 0.0
H1210 H 0.64808 0.52398 0.98971 0.0
H1211 H 0.37696 0.49349 0.05097 0.0
H1212 H 0.15335 0.38672 0.40407 0.0
H1213 H 0.17978 0.36566 0.38612 0.0
H1214 H 0.09154 0.29484 0.3693 0.0
H1215 H 0.06548 0.31555 0.3873 0.0
H1216 H 0.13043 0.27312 0.37244 0.0
H1217 H 0.13773 0.36441 0.34625 0.0
H1218 H 0.15465 0.41854 0.3469 0.0
H1219 H 0.24917 0.43913 0.35004 0.0
H1220 H 0.2329 0.38521 0.35013 0.0
H1221 H 0.17691 0.22512 0.29594 0.0
H1222 H 0.15149 0.2465 0.31444 0.0
H1223 H 0.24038 0.32277 0.32513 0.0
H1224 H 0.26523 0.30214 0.30603 0.0
H1225 H 0.20271 0.34232 0.32592 0.0
H1226 H 0.20113 0.25753 0.35355 0.0
H1227 H 0.19017 0.20505 0.35562 0.0
H1228 H 0.09288 0.17415 0.35288 0.0
H1229 H 0.10324 0.22643 0.35039 0.0
C1230 C 0.13964 0.36579 0.39728 0.0
C1231 C 0.10718 0.35204 0.39792 0.0
C1232 C 0.15477 0.35403 0.38667 0.0
C1233 C 0.13782 0.32873 0.37597 0.0
C1234 C 0.10539 0.31417 0.37739 0.0
C1235 C 0.09037 0.32579 0.38803 0.0
C1236 C 0.15327 0.31858 0.36229 0.0
C1237 C 0.14598 0.28827 0.36218 0.0
C1238 C 0.17447 0.33827 0.34906 0.0
C1239 C 0.18407 0.3707 0.34835 0.0
C1240 C 0.16211 0.38045 0.34715 0.0
C1241 C 0.17156 0.41109 0.34741 0.0
C1242 C 0.20288 0.4322 0.34845 0.0
C1243 C 0.22489 0.42276 0.34924 0.0
C1244 C 0.21558 0.39216 0.3492 0.0
C1245 C 0.19075 0.24718 0.30146 0.0
C1246 C 0.22301 0.26241 0.29889 0.0
C1247 C 0.17632 0.25917 0.31246 0.0
C1248 C 0.19389 0.28612 0.32175 0.0
C1249 C 0.22595 0.30209 0.31827 0.0
C1250 C 0.24022 0.29039 0.30708 0.0
C1251 C 0.17958 0.29673 0.33591 0.0
C1252 C 0.1871 0.32711 0.33613 0.0
C1253 C 0.15935 0.27734 0.34958 0.0
C1254 C 0.15297 0.2459 0.35161 0.0
C1255 C 0.17739 0.23955 0.35332 0.0
C1256 C 0.17131 0.20985 0.35455 0.0
C1257 C 0.14087 0.18631 0.35436 0.0
C1258 C 0.11645 0.19242 0.353 0.0
C1259 C 0.1224 0.22208 0.35167 0.0
H1260 H 0.13622 0.16333 0.35528 0.0
H1261 H 0.21009 0.45589 0.34864 0.0
H1262 H 0.58846 0.73705 0.38085 0.0
H1263 H 0.61014 0.7839 0.36314 0.0
H1264 H 0.68648 0.77136 0.34657 0.0
H1265 H 0.66543 0.72548 0.36475 0.0
H1266 H 0.70778 0.82801 0.34793 0.0
H1267 H 0.61725 0.74898 0.32168 0.0
H1268 H 0.56241 0.70981 0.32144 0.0
H1269 H 0.53481 0.77647 0.32904 0.0
H1270 H 0.58949 0.81601 0.32978 0.0
H1271 H 0.7542 0.92486 0.27171 0.0
H1272 H 0.73227 0.87791 0.28934 0.0
H1273 H 0.65832 0.89275 0.30778 0.0
H1274 H 0.67965 0.93884 0.28976 0.0
H1275 H 0.63589 0.83481 0.30531 0.0
H1276 H 0.72934 0.91426 0.33065 0.0
H1277 H 0.7849 0.95164 0.32959 0.0
H1278 H 0.80775 0.88168 0.32225 0.0
H1279 H 0.75238 0.8439 0.32267 0.0
C1280 C 0.61068 0.74516 0.37418 0.0
C1281 C 0.6258 0.72802 0.37491 0.0
C1282 C 0.6228 0.77169 0.36363 0.0
C1283 C 0.64984 0.78129 0.35296 0.0
C1284 C 0.66574 0.76495 0.35452 0.0
C1285 C 0.65384 0.73874 0.36521 0.0
C1286 C 0.6606 0.8069 0.33941 0.0
C1287 C 0.69197 0.82921 0.33855 0.0
C1288 C 0.64036 0.80909 0.32697 0.0
C1289 C 0.60749 0.78545 0.32595 0.0
C1290 C 0.5995 0.7553 0.32336 0.0
C1291 C 0.56845 0.73301 0.32316 0.0
C1292 C 0.54517 0.74064 0.32524 0.0
C1293 C 0.55288 0.77059 0.32746 0.0
C1294 C 0.58389 0.79295 0.32779 0.0
C1295 C 0.73239 0.91726 0.27878 0.0
C1296 C 0.71799 0.93508 0.27858 0.0
C1297 C 0.72015 0.89065 0.28927 0.0
C1298 C 0.69374 0.88164 0.3004 0.0
C1299 C 0.67853 0.8987 0.29942 0.0
C1300 C 0.69056 0.92502 0.28881 0.0
C1301 C 0.68304 0.85595 0.31388 0.0
C1302 C 0.65166 0.83362 0.31472 0.0
C1303 C 0.70337 0.85353 0.32614 0.0
C1304 C 0.73666 0.87624 0.32654 0.0
C1305 C 0.74619 0.90683 0.32875 0.0
C1306 C 0.77763 0.92811 0.32824 0.0
C1307 C 0.79978 0.91905 0.32589 0.0
C1308 C 0.79056 0.88867 0.32406 0.0
C1309 C 0.75915 0.86732 0.32439 0.0
H1310 H 0.8241 0.93559 0.32549 0.0
H1311 H 0.52115 0.72334 0.3251 0.0
H1312 H 0.06211 0.82473 0.31598 0.0
H1313 H 0.10273 0.8465 0.3383 0.0
H1314 H 0.14584 0.79838 0.31608 0.0
H1315 H 0.10548 0.77659 0.2939 0.0
H1316 H 0.14346 0.79216 0.35108 0.0
H1317 H 0.17651 0.8771 0.31107 0.0
H1318 H 0.17104 0.91572 0.29413 0.0
H1319 H 0.15362 0.94891 0.34284 0.0
H1320 H 0.1586 0.91021 0.36005 0.0
H1321 H 0.29321 0.863 0.38533 0.0
H1322 H 0.2462 0.84273 0.36862 0.0
H1323 H 0.21759 0.89727 0.39797 0.0
H1324 H 0.26563 0.91807 0.41509 0.0
H1325 H 0.20815 0.90074 0.36257 0.0
H1326 H 0.17929 0.81884 0.40288 0.0
H1327 H 0.18484 0.78048 0.42004 0.0
H1328 H 0.19321 0.74123 0.37137 0.0
H1329 H 0.18815 0.77961 0.3539 0.0
C1330 C 0.08051 0.81916 0.31559 0.0
C1331 C 0.08028 0.79891 0.30282 0.0
C1332 C 0.10389 0.83168 0.32849 0.0
C1333 C 0.12788 0.82438 0.32909 0.0
C1334 C 0.12785 0.80455 0.31617 0.0
C1335 C 0.10465 0.79217 0.30328 0.0
C1336 C 0.15241 0.83634 0.34335 0.0
C1337 C 0.15772 0.81596 0.3534 0.0
C1338 C 0.17065 0.86735 0.34715 0.0
C1339 C 0.16755 0.89053 0.33682 0.0
C1340 C 0.17124 0.89246 0.31815 0.0
C1341 C 0.16828 0.9144 0.3085 0.0
C1342 C 0.16188 0.93469 0.3174 0.0
C1343 C 0.15851 0.93313 0.33596 0.0
C1344 C 0.16141 0.91121 0.34567 0.0
C1345 C 0.27681 0.87034 0.38878 0.0
C1346 C 0.28391 0.89246 0.40183 0.0
C1347 C 0.24955 0.85858 0.379 0.0
C1348 C 0.22771 0.86812 0.38182 0.0
C1349 C 0.23386 0.88937 0.39533 0.0
C1350 C 0.2614 0.90114 0.40532 0.0
C1351 C 0.19959 0.85655 0.37 0.0
C1352 C 0.19363 0.87693 0.36039 0.0
C1353 C 0.18057 0.82548 0.36664 0.0
C1354 C 0.18354 0.80226 0.37708 0.0
C1355 C 0.18253 0.80216 0.39583 0.0
C1356 C 0.18555 0.78038 0.40562 0.0
C1357 C 0.18943 0.75846 0.3968 0.0
C1358 C 0.19022 0.75823 0.37818 0.0
C1359 C 0.18723 0.77997 0.36833 0.0
H1360 H 0.19177 0.74162 0.40441 0.0
H1361 H 0.15962 0.95167 0.3099 0.0
H1362 H 0.86827 0.54519 0.66287 0.0
H1363 H 0.84354 0.56842 0.67955 0.0
H1364 H 0.86743 0.63447 0.63751 0.0
H1365 H 0.89189 0.61065 0.62032 0.0
H1366 H 0.88447 0.66045 0.67103 0.0
H1367 H 0.79266 0.58237 0.64558 0.0
H1368 H 0.75526 0.53041 0.63774 0.0
H1369 H 0.73958 0.50514 0.69323 0.0
H1370 H 0.77723 0.55688 0.70141 0.0
H1371 H 0.8008 0.72872 0.70447 0.0
H1372 H 0.82334 0.70341 0.68811 0.0
H1373 H 0.78906 0.633 0.72819 0.0
H1374 H 0.76558 0.65842 0.7448 0.0
H1375 H 0.77754 0.60862 0.69608 0.0
H1376 H 0.8686 0.68537 0.72199 0.0
H1377 H 0.90706 0.73656 0.73056 0.0
H1378 H 0.92562 0.76358 0.67539 0.0
H1379 H 0.88693 0.71265 0.66648 0.0
C1380 C 0.86774 0.56421 0.65681 0.0
C1381 C 0.88256 0.57601 0.64013 0.0
C1382 C 0.85351 0.57761 0.66651 0.0
C1383 C 0.85358 0.60346 0.65999 0.0
C1384 C 0.86713 0.61467 0.64299 0.0
C1385 C 0.88104 0.60089 0.63307 0.0
C1386 C 0.84106 0.61937 0.67145 0.0
C1387 C 0.8609 0.64925 0.67622 0.0
C1388 C 0.81067 0.60459 0.67897 0.0
C1389 C 0.788 0.57346 0.6741 0.0
C1390 C 0.78145 0.56568 0.65611 0.0
C1391 C 0.76016 0.53628 0.65161 0.0
C1392 C 0.74511 0.51447 0.66498 0.0
C1393 C 0.75128 0.52204 0.68289 0.0
C1394 C 0.77257 0.55142 0.68746 0.0
C1395 C 0.79837 0.70815 0.71018 0.0
C1396 C 0.78107 0.69583 0.72615 0.0
C1397 C 0.81152 0.69359 0.70067 0.0
C1398 C 0.80834 0.66616 0.70678 0.0
C1399 C 0.79198 0.65409 0.72305 0.0
C1400 C 0.77872 0.66883 0.73268 0.0
C1401 C 0.8209 0.64988 0.69561 0.0
C1402 C 0.80111 0.6199 0.6909 0.0
C1403 C 0.85147 0.66448 0.68828 0.0
C1404 C 0.87463 0.69522 0.69357 0.0
C1405 C 0.88067 0.70228 0.71168 0.0
C1406 C 0.90256 0.73125 0.7166 0.0
C1407 C 0.91872 0.75332 0.70353 0.0
C1408 C 0.91306 0.74647 0.68551 0.0
C1409 C 0.89117 0.71754 0.68051 0.0
H1410 H 0.93568 0.77573 0.70737 0.0
H1411 H 0.72863 0.49171 0.66146 0.0
H1412 H 0.43022 0.27888 0.63395 0.0
H1413 H 0.40257 0.23149 0.64984 0.0
H1414 H 0.3244 0.20553 0.61593 0.0
H1415 H 0.35225 0.25422 0.59994 0.0
H1416 H 0.30372 0.19137 0.64901 0.0
H1417 H 0.37302 0.17136 0.61519 0.0
H1418 H 0.42287 0.18023 0.60243 0.0
H1419 H 0.45705 0.18302 0.65505 0.0
H1420 H 0.40754 0.17458 0.66816 0.0
H1421 H 0.23019 0.03806 0.6794 0.0
H1422 H 0.25567 0.08581 0.66338 0.0
H1423 H 0.32833 0.12016 0.70175 0.0
H1424 H 0.30203 0.07213 0.71845 0.0
H1425 H 0.35102 0.12918 0.66607 0.0
H1426 H 0.2798 0.14825 0.69942 0.0
H1427 H 0.2289 0.13793 0.71126 0.0
H1428 H 0.19695 0.13451 0.65797 0.0
H1429 H 0.24754 0.14438 0.64579 0.0
C1430 C 0.40743 0.26305 0.62939 0.0
C1431 C 0.39381 0.27101 0.61543 0.0
C1432 C 0.39145 0.23552 0.63865 0.0
C1433 C 0.36115 0.21421 0.63424 0.0
C1434 C 0.3477 0.22134 0.61979 0.0
C1435 C 0.36385 0.24924 0.61044 0.0
C1436 C 0.34355 0.18557 0.64541 0.0
C1437 C 0.31398 0.17756 0.65241 0.0
C1438 C 0.35678 0.16748 0.65048 0.0
C1439 C 0.38663 0.17259 0.64266 0.0
C1440 C 0.39124 0.17409 0.62405 0.0
C1441 C 0.41943 0.17901 0.61675 0.0
C1442 C 0.44314 0.18226 0.62792 0.0
C1443 C 0.43868 0.18053 0.64642 0.0
C1444 C 0.41054 0.17565 0.65379 0.0
C1445 C 0.25112 0.05585 0.6849 0.0
C1446 C 0.26387 0.05058 0.70037 0.0
C1447 C 0.26588 0.0834 0.67553 0.0
C1448 C 0.29426 0.10694 0.68109 0.0
C1449 C 0.30658 0.10244 0.69697 0.0
C1450 C 0.29137 0.07484 0.70663 0.0
C1451 C 0.31142 0.13522 0.66971 0.0
C1452 C 0.34085 0.14306 0.66263 0.0
C1453 C 0.2979 0.15288 0.66441 0.0
C1454 C 0.26739 0.14677 0.67169 0.0
C1455 C 0.26183 0.14501 0.69021 0.0
C1456 C 0.23305 0.1393 0.69699 0.0
C1457 C 0.20969 0.13549 0.68537 0.0
C1458 C 0.21507 0.13743 0.66695 0.0
C1459 C 0.2438 0.14311 0.6601 0.0
H1460 H 0.18743 0.13111 0.69065 0.0
H1461 H 0.46494 0.18606 0.62224 0.0
H1462 H 0.73589 0.15978 0.64706 0.0
H1463 H 0.77826 0.18469 0.66799 0.0
H1464 H 0.81058 0.12281 0.65477 0.0
H1465 H 0.76812 0.09761 0.63417 0.0
H1466 H 0.81213 0.12768 0.68906 0.0
H1467 H 0.84873 0.2006 0.64123 0.0
H1468 H 0.84669 0.23601 0.6195 0.0
H1469 H 0.83669 0.28611 0.66224 0.0
H1470 H 0.83827 0.25074 0.68423 0.0
H1471 H 0.96548 0.20206 0.7204 0.0
H1472 H 0.91793 0.17937 0.70384 0.0
H1473 H 0.89144 0.23987 0.72772 0.0
H1474 H 0.93939 0.26258 0.7449 0.0
H1475 H 0.88399 0.23726 0.69049 0.0
H1476 H 0.85172 0.16586 0.73836 0.0
H1477 H 0.85538 0.13081 0.75966 0.0
H1478 H 0.85831 0.07792 0.71632 0.0
H1479 H 0.85511 0.1129 0.69472 0.0
C1480 C 0.75217 0.15164 0.64837 0.0
C1481 C 0.74816 0.12647 0.63867 0.0
C1482 C 0.77667 0.16605 0.66044 0.0
C1483 C 0.79821 0.15597 0.66319 0.0
C1484 C 0.79455 0.13126 0.6532 0.0
C1485 C 0.77014 0.11689 0.64119 0.0
C1486 C 0.82389 0.1702 0.67671 0.0
C1487 C 0.82794 0.15165 0.68915 0.0
C1488 C 0.8444 0.20165 0.67754 0.0
C1489 C 0.84323 0.22281 0.66436 0.0
C1490 C 0.84581 0.219 0.64598 0.0
C1491 C 0.8448 0.2391 0.63362 0.0
C1492 C 0.84146 0.26324 0.63948 0.0
C1493 C 0.8392 0.26736 0.65772 0.0
C1494 C 0.84017 0.2473 0.67014 0.0
C1495 C 0.94939 0.21026 0.72265 0.0
C1496 C 0.95689 0.23446 0.73422 0.0
C1497 C 0.92194 0.19717 0.71295 0.0
C1498 C 0.90066 0.20772 0.71426 0.0
C1499 C 0.90734 0.23121 0.72625 0.0
C1500 C 0.93484 0.24412 0.73626 0.0
C1501 C 0.87238 0.19463 0.70258 0.0
C1502 C 0.86792 0.21334 0.69048 0.0
C1503 C 0.85153 0.1633 0.70198 0.0
C1504 C 0.85342 0.14216 0.71491 0.0
C1505 C 0.85339 0.14689 0.73335 0.0
C1506 C 0.85534 0.12701 0.74549 0.0
C1507 C 0.85714 0.10219 0.73935 0.0
C1508 C 0.85694 0.09717 0.72105 0.0
C1509 C 0.85502 0.117 0.70886 0.0
H1510 H 0.85864 0.08682 0.74876 0.0
H1511 H 0.8407 0.27879 0.62989 0.0
H1512 H 0.35943 0.05027 0.14196 0.0
H1513 H 0.33664 0.06803 0.16471 0.0
H1514 H 0.38599 0.15723 0.14166 0.0
H1515 H 0.40982 0.13994 0.11958 0.0
H1516 H 0.38699 0.16465 0.17421 0.0
H1517 H 0.29816 0.10453 0.13746 0.0
H1518 H 0.25962 0.05933 0.12221 0.0
H1519 H 0.23801 0.00859 0.17126 0.0
H1520 H 0.27557 0.05385 0.18697 0.0
H1521 H 0.2996 0.22355 0.21768 0.0
H1522 H 0.32228 0.20471 0.19559 0.0
H1523 H 0.27888 0.11852 0.22251 0.0
H1524 H 0.2557 0.13703 0.2444 0.0
H1525 H 0.27473 0.10921 0.18853 0.0
H1526 H 0.36769 0.16982 0.22428 0.0
H1527 H 0.40703 0.21573 0.2387 0.0
H1528 H 0.41976 0.26641 0.19037 0.0
H1529 H 0.38164 0.22046 0.17543 0.0
C1530 C 0.36573 0.07375 0.14185 0.0
C1531 C 0.38675 0.09355 0.12883 0.0
C1532 C 0.35222 0.0839 0.15479 0.0
C1533 C 0.35872 0.11406 0.1549 0.0
C1534 C 0.38025 0.13389 0.14212 0.0
C1535 C 0.39407 0.12389 0.1294 0.0
C1536 C 0.34382 0.12531 0.16836 0.0
C1537 C 0.36232 0.15254 0.17704 0.0
C1538 C 0.31172 0.10973 0.17274 0.0
C1539 C 0.28988 0.08238 0.1633 0.0
C1540 C 0.28533 0.08366 0.14495 0.0
C1541 C 0.26362 0.05807 0.13624 0.0
C1542 C 0.24674 0.03098 0.14567 0.0
C1543 C 0.25121 0.02954 0.16393 0.0
C1544 C 0.2725 0.0552 0.17278 0.0
C1545 C 0.29461 0.20051 0.21888 0.0
C1546 C 0.27561 0.18198 0.233 0.0
C1547 C 0.30804 0.18978 0.20627 0.0
C1548 C 0.30314 0.16021 0.20742 0.0
C1549 C 0.28339 0.14143 0.22119 0.0
C1550 C 0.26994 0.15211 0.23375 0.0
C1551 C 0.31789 0.14857 0.19419 0.0
C1552 C 0.29938 0.12125 0.18561 0.0
C1553 C 0.34991 0.16418 0.18976 0.0
C1554 C 0.37161 0.19193 0.19887 0.0
C1555 C 0.37875 0.19083 0.21681 0.0
C1556 C 0.40094 0.21678 0.22502 0.0
C1557 C 0.4155 0.24405 0.21555 0.0
C1558 C 0.40833 0.24532 0.19773 0.0
C1559 C 0.38669 0.21929 0.18932 0.0
H1560 H 0.43252 0.26414 0.22199 0.0
H1561 H 0.23005 0.01118 0.13886 0.0
H1562 H 0.91854 0.27658 0.11535 0.0
H1563 H 0.90235 0.23702 0.13823 0.0
H1564 H 0.80942 0.19525 0.11871 0.0
H1565 H 0.82526 0.2351 0.09623 0.0
H1566 H 0.80455 0.19025 0.15249 0.0
H1567 H 0.86281 0.15832 0.11206 0.0
H1568 H 0.90834 0.1643 0.09485 0.0
H1569 H 0.96552 0.2029 0.14023 0.0
H1570 H 0.92001 0.19573 0.15794 0.0
H1571 H 0.74819 0.04982 0.19922 0.0
H1572 H 0.76453 0.08945 0.17632 0.0
H1573 H 0.85794 0.12966 0.19502 0.0
H1574 H 0.84198 0.08975 0.2174 0.0
H1575 H 0.86276 0.1357 0.16179 0.0
H1576 H 0.80459 0.16113 0.2034 0.0
H1577 H 0.75961 0.15323 0.22181 0.0
H1578 H 0.70323 0.12854 0.1754 0.0
H1579 H 0.74814 0.13709 0.15661 0.0
C1580 C 0.89458 0.2592 0.11599 0.0
C1581 C 0.87337 0.25951 0.10377 0.0
C1582 C 0.88533 0.23608 0.12902 0.0
C1583 C 0.85459 0.2122 0.1302 0.0
C1584 C 0.83328 0.21299 0.11829 0.0
C1585 C 0.84246 0.2361 0.10535 0.0
C1586 C 0.84428 0.18683 0.14392 0.0
C1587 C 0.81719 0.17816 0.15427 0.0
C1588 C 0.86073 0.17107 0.14699 0.0
C1589 C 0.88824 0.17694 0.13618 0.0
C1590 C 0.88517 0.1683 0.11828 0.0
C1591 C 0.9109 0.1717 0.1085 0.0
C1592 C 0.93988 0.18439 0.11635 0.0
C1593 C 0.94311 0.19325 0.13412 0.0
C1594 C 0.91733 0.18924 0.14409 0.0
C1595 C 0.77227 0.06691 0.19839 0.0
C1596 C 0.7936 0.06618 0.21035 0.0
C1597 C 0.78164 0.09 0.18533 0.0
C1598 C 0.81258 0.11347 0.18393 0.0
C1599 C 0.83396 0.11222 0.19558 0.0
C1600 C 0.82469 0.08909 0.20849 0.0
C1601 C 0.82298 0.13904 0.17035 0.0
C1602 C 0.85007 0.14776 0.16002 0.0
C1603 C 0.80666 0.155 0.16744 0.0
C1604 C 0.77957 0.14941 0.17866 0.0
C1605 C 0.78254 0.15384 0.19715 0.0
C1606 C 0.75709 0.1493 0.20765 0.0
C1607 C 0.72848 0.14001 0.19984 0.0
C1608 C 0.72536 0.13561 0.18145 0.0
C1609 C 0.75085 0.14049 0.17085 0.0
H1610 H 0.70879 0.1364 0.20802 0.0
H1611 H 0.95978 0.18716 0.10871 0.0
H1612 H 0.94301 0.7664 0.24061 0.0
H1613 H 0.90457 0.75388 0.21718 0.0
H1614 H 0.9159 0.6786 0.20235 0.0
H1615 H 0.95387 0.69096 0.22531 0.0
H1616 H 0.90489 0.69925 0.17345 0.0
H1617 H 0.85629 0.67264 0.23171 0.0
H1618 H 0.84956 0.68465 0.26254 0.0
H1619 H 0.82173 0.74705 0.24343 0.0
H1620 H 0.82866 0.73556 0.21234 0.0
H1621 H 0.76266 0.59722 0.13544 0.0
H1622 H 0.80514 0.62178 0.15612 0.0
H1623 H 0.78528 0.69442 0.1616 0.0
H1624 H 0.74236 0.66974 0.14088 0.0
H1625 H 0.80157 0.6809 0.19397 0.0
H1626 H 0.84551 0.70162 0.13456 0.0
H1627 H 0.85444 0.68875 0.1042 0.0
H1628 H 0.89129 0.63532 0.12603 0.0
H1629 H 0.88236 0.64756 0.15652 0.0
C1630 C 0.93793 0.74763 0.23213 0.0
C1631 C 0.95162 0.72956 0.23532 0.0
C1632 C 0.91554 0.74021 0.21873 0.0
C1633 C 0.90626 0.71457 0.20808 0.0
C1634 C 0.92201 0.69828 0.21026 0.0
C1635 C 0.9441 0.70558 0.22355 0.0
C1636 C 0.87905 0.70309 0.19558 0.0
C1637 C 0.88234 0.69521 0.17804 0.0
C1638 C 0.84931 0.69787 0.20116 0.0
C1639 C 0.84339 0.70356 0.21973 0.0
C1640 C 0.84889 0.68905 0.23409 0.0
C1641 C 0.84524 0.69592 0.25161 0.0
C1642 C 0.83568 0.71698 0.25498 0.0
C1643 C 0.82938 0.73093 0.24079 0.0
C1644 C 0.83313 0.72422 0.22321 0.0
C1645 C 0.76686 0.61821 0.14118 0.0
C1646 C 0.74864 0.63126 0.13629 0.0
C1647 C 0.79156 0.63248 0.15299 0.0
C1648 C 0.79922 0.66047 0.16035 0.0
C1649 C 0.78025 0.67298 0.15616 0.0
C1650 C 0.75547 0.6587 0.14427 0.0
C1651 C 0.8274 0.67674 0.17191 0.0
C1652 C 0.82422 0.68535 0.18929 0.0
C1653 C 0.85724 0.68237 0.16621 0.0
C1654 C 0.86302 0.67533 0.14786 0.0
C1655 C 0.85535 0.68698 0.1329 0.0
C1656 C 0.86041 0.67981 0.11567 0.0
C1657 C 0.87323 0.66112 0.11321 0.0
C1658 C 0.88127 0.64973 0.12796 0.0
C1659 C 0.87628 0.65682 0.14522 0.0
H1660 H 0.87705 0.65555 0.09986 0.0
H1661 H 0.83275 0.72223 0.26856 0.0
H1662 H 0.63838 0.89118 0.88294 0.0
H1663 H 0.66154 0.87065 0.86239 0.0
H1664 H 0.59929 0.78148 0.88255 0.0
H1665 H 0.57656 0.80201 0.90347 0.0
H1666 H 0.65381 0.78696 0.87999 0.0
H1667 H 0.59385 0.80888 0.83933 0.0
H1668 H 0.57509 0.83965 0.82412 0.0
H1669 H 0.66702 0.89996 0.80461 0.0
H1670 H 0.68643 0.86978 0.81992 0.0
H1671 H 0.68779 0.71029 0.81004 0.0
H1672 H 0.66399 0.72957 0.83124 0.0
H1673 H 0.73004 0.82009 0.81516 0.0
H1674 H 0.75393 0.80107 0.79404 0.0
H1675 H 0.67293 0.8131 0.81556 0.0
H1676 H 0.73247 0.79052 0.85632 0.0
H1677 H 0.75082 0.75963 0.87177 0.0
H1678 H 0.6586 0.69973 0.891 0.0
H1679 H 0.6396 0.73005 0.87547 0.0
C1680 C 0.62911 0.86713 0.88282 0.0
C1681 C 0.60525 0.84839 0.89493 0.0
C1682 C 0.64249 0.85531 0.87097 0.0
C1683 C 0.63222 0.82427 0.87062 0.0
C1684 C 0.6079 0.80546 0.88241 0.0
C1685 C 0.59463 0.81729 0.89434 0.0
C1686 C 0.64747 0.81156 0.85853 0.0
C1687 C 0.65746 0.79236 0.86584 0.0
C1688 C 0.6532 0.81892 0.84006 0.0
C1689 C 0.64164 0.83723 0.83094 0.0
C1690 C 0.61012 0.82885 0.83193 0.0
C1691 C 0.59936 0.84616 0.82327 0.0
C1692 C 0.61986 0.87179 0.81345 0.0
C1693 C 0.65117 0.88013 0.81225 0.0
C1694 C 0.66206 0.86292 0.82091 0.0
C1695 C 0.69773 0.73433 0.81125 0.0
C1696 C 0.72311 0.75399 0.80029 0.0
C1697 C 0.68397 0.7454 0.82342 0.0
C1698 C 0.69507 0.77646 0.82497 0.0
C1699 C 0.72081 0.79608 0.81432 0.0
C1700 C 0.7347 0.78507 0.80228 0.0
C1701 C 0.67923 0.78855 0.83703 0.0
C1702 C 0.66915 0.80764 0.8297 0.0
C1703 C 0.67328 0.78096 0.85546 0.0
C1704 C 0.68454 0.76235 0.86451 0.0
C1705 C 0.71603 0.77057 0.86366 0.0
C1706 C 0.72657 0.75321 0.87249 0.0
C1707 C 0.70587 0.72768 0.88231 0.0
C1708 C 0.67459 0.71946 0.88334 0.0
C1709 C 0.66393 0.73674 0.87454 0.0
H1710 H 0.71409 0.71431 0.88917 0.0
H1711 H 0.61148 0.88514 0.80673 0.0
H1712 H 0.07495 0.71836 0.86847 0.0
H1713 H 0.09114 0.75881 0.84612 0.0
H1714 H 0.18657 0.78635 0.85604 0.0
H1715 H 0.17059 0.74622 0.87842 0.0
H1716 H 0.18024 0.83457 0.85472 0.0
H1717 H 0.14874 0.7499 0.81684 0.0
H1718 H 0.11347 0.69995 0.805 0.0
H1719 H 0.04883 0.72934 0.79108 0.0
H1720 H 0.08354 0.77936 0.80308 0.0
H1721 H 0.2476 0.93756 0.78056 0.0
H1722 H 0.23064 0.89691 0.80274 0.0
H1723 H 0.13564 0.86779 0.79043 0.0
H1724 H 0.15252 0.90799 0.76799 0.0
H1725 H 0.14127 0.82032 0.79309 0.0
H1726 H 0.17214 0.9047 0.83101 0.0
H1727 H 0.20709 0.95476 0.84285 0.0
H1728 H 0.27227 0.92608 0.85682 0.0
H1729 H 0.23786 0.87594 0.84485 0.0
C1730 C 0.09939 0.73264 0.86573 0.0
C1731 C 0.12129 0.72849 0.87536 0.0
C1732 C 0.10872 0.75598 0.85285 0.0
C1733 C 0.14028 0.77601 0.84911 0.0
C1734 C 0.16211 0.77157 0.85852 0.0
C1735 C 0.15282 0.74824 0.87132 0.0
C1736 C 0.1507 0.80198 0.83586 0.0
C1737 C 0.17195 0.83126 0.84118 0.0
C1738 C 0.13957 0.79837 0.81819 0.0
C1739 C 0.11859 0.76827 0.81105 0.0
C1740 C 0.12688 0.74563 0.81141 0.0
C1741 C 0.10701 0.71732 0.80464 0.0
C1742 C 0.07888 0.71144 0.79735 0.0
C1743 C 0.07059 0.7339 0.79677 0.0
C1744 C 0.09036 0.76224 0.80355 0.0
C1745 C 0.22307 0.92295 0.78276 0.0
C1746 C 0.20159 0.92665 0.77242 0.0
C1747 C 0.21327 0.89945 0.79555 0.0
C1748 C 0.18161 0.87894 0.79864 0.0
C1749 C 0.16017 0.88295 0.78851 0.0
C1750 C 0.16994 0.90632 0.77568 0.0
C1751 C 0.17084 0.85296 0.81195 0.0
C1752 C 0.14953 0.82368 0.80664 0.0
C1753 C 0.18183 0.85657 0.82966 0.0
C1754 C 0.20256 0.88667 0.83687 0.0
C1755 C 0.19403 0.90914 0.83649 0.0
C1756 C 0.21373 0.93751 0.84324 0.0
C1757 C 0.24193 0.94362 0.85054 0.0
C1758 C 0.25045 0.92133 0.85114 0.0
C1759 C 0.23084 0.89293 0.84438 0.0
H1760 H 0.25714 0.9656 0.85577 0.0
H1761 H 0.06354 0.68952 0.7921 0.0
H1762 H 0.27917 0.43783 0.90632 0.0
H1763 H 0.24105 0.42628 0.88281 0.0
H1764 H 0.24853 0.34852 0.8688 0.0
H1765 H 0.28649 0.36017 0.89165 0.0
H1766 H 0.23703 0.36818 0.8398 0.0
H1767 H 0.19113 0.3462 0.89873 0.0
H1768 H 0.18793 0.36117 0.92931 0.0
H1769 H 0.16355 0.42581 0.90967 0.0
H1770 H 0.1669 0.41124 0.87874 0.0
H1771 H 0.09175 0.26596 0.80558 0.0
H1772 H 0.13517 0.29114 0.8256 0.0
H1773 H 0.11888 0.36631 0.82862 0.0
H1774 H 0.07504 0.34105 0.80855 0.0
H1775 H 0.13604 0.35442 0.86161 0.0
H1776 H 0.17587 0.36944 0.80155 0.0
H1777 H 0.18167 0.35348 0.77144 0.0
H1778 H 0.2183 0.30021 0.79385 0.0
H1779 H 0.21229 0.31542 0.82411 0.0
C1780 C 0.2734 0.41878 0.89794 0.0
C1781 C 0.28595 0.3998 0.90134 0.0
C1782 C 0.25117 0.4119 0.88451 0.0
C1783 C 0.24078 0.38579 0.87414 0.0
C1784 C 0.2555 0.3686 0.87648 0.0
C1785 C 0.27755 0.37545 0.88974 0.0
C1786 C 0.21307 0.37451 0.86203 0.0
C1787 C 0.21501 0.36517 0.84466 0.0
C1788 C 0.184 0.37064 0.86797 0.0
C1789 C 0.1796 0.37789 0.88646 0.0
C1790 C 0.18517 0.36368 0.90093 0.0
C1791 C 0.18355 0.37226 0.91834 0.0
C1792 C 0.17599 0.39479 0.9215 0.0
C1793 C 0.16964 0.40852 0.9072 0.0
C1794 C 0.17132 0.40005 0.88971 0.0
C1795 C 0.0969 0.28764 0.81067 0.0
C1796 C 0.07945 0.30123 0.80528 0.0
C1797 C 0.12212 0.30223 0.8221 0.0
C1798 C 0.13104 0.33108 0.82856 0.0
C1799 C 0.11283 0.34419 0.8239 0.0
C1800 C 0.08754 0.32958 0.81238 0.0
C1801 C 0.15997 0.3477 0.83948 0.0
C1802 C 0.15817 0.35786 0.85664 0.0
C1803 C 0.18917 0.3521 0.83337 0.0
C1804 C 0.19342 0.34342 0.81513 0.0
C1805 C 0.18501 0.3542 0.80007 0.0
C1806 C 0.18832 0.34529 0.78298 0.0
C1807 C 0.20026 0.32581 0.78075 0.0
C1808 C 0.20903 0.31528 0.7956 0.0
C1809 C 0.20571 0.32406 0.81272 0.0
H1810 H 0.20277 0.31892 0.7675 0.0
H1811 H 0.17468 0.40137 0.93501 0.0
H1812 H 1.00401 0.3802 0.46943 0.0
H1813 H 0.98114 0.39896 0.49147 0.0
H1814 H 0.06398 0.48505 0.48983 0.0
H1815 H 0.08689 0.46652 0.46754 0.0
H1816 H 0.04151 0.46868 0.52447 0.0
H1817 H 1.00043 0.47778 0.46839 0.0
H1818 H 0.97319 0.46251 0.43986 0.0
H1819 H 0.89224 0.39428 0.46718 0.0
H1820 H 0.91896 0.40934 0.49589 0.0
H1821 H 0.97859 0.55956 0.55855 0.0
H1822 H 1.00037 0.53764 0.5379 0.0
H1823 H 0.924 0.4496 0.54963 0.0
H1824 H 0.90276 0.47114 0.57103 0.0
H1825 H 0.94241 0.46544 0.51093 0.0
H1826 H 0.98199 0.46156 0.5677 0.0
H1827 H 0.00812 0.4807 0.59617 0.0
H1828 H 0.09248 0.5398 0.56788 0.0
H1829 H 0.06657 0.52178 0.53918 0.0
C1830 C 0.01771 0.40297 0.47393 0.0
C1831 C 0.04758 0.42164 0.46664 0.0
C1832 C 1.00437 0.41384 0.48648 0.0
C1833 C 0.02054 0.44366 0.49234 0.0
C1834 C 0.05082 0.46201 0.48563 0.0
C1835 C 0.06399 0.45129 0.47285 0.0
C1836 C 0.00571 0.4558 0.50513 0.0
C1837 C 0.02003 0.46824 0.52137 0.0
C1838 C 0.97721 0.4548 0.50151 0.0
C1839 C 0.96177 0.44446 0.48422 0.0
C1840 C 0.97693 0.45932 0.46827 0.0
C1841 C 0.9615 0.4509 0.4521 0.0
C1842 C 0.93097 0.4275 0.45172 0.0
C1843 C 0.91585 0.41243 0.4675 0.0
C1844 C 0.93109 0.42097 0.48373 0.0
C1845 C 0.96615 0.53554 0.55669 0.0
C1846 C 0.93882 0.51722 0.56666 0.0
C1847 C 0.97881 0.52299 0.54488 0.0
C1848 C 0.96409 0.49186 0.54226 0.0
C1849 C 0.93595 0.47365 0.55143 0.0
C1850 C 0.92372 0.48608 0.56363 0.0
C1851 C 0.97827 0.4784 0.53014 0.0
C1852 C 0.96383 0.46574 0.51405 0.0
C1853 C 0.00661 0.47924 0.53395 0.0
C1854 C 0.02216 0.49058 0.55122 0.0
C1855 C 0.00595 0.47905 0.5675 0.0
C1856 C 0.02075 0.48965 0.5837 0.0
C1857 C 0.05195 0.51139 0.58383 0.0
C1858 C 0.06832 0.52286 0.56776 0.0
C1859 C 0.05356 0.51254 0.55151 0.0
H1860 H 0.06343 0.51943 0.59638 0.0
H1861 H 0.9191 0.42096 0.43918 0.0
H1862 H 0.49714 0.5766 0.4365 0.0
H1863 H 0.4792 0.53598 0.45865 0.0
H1864 H 0.57274 0.56918 0.47573 0.0
H1865 H 0.5909 0.60986 0.45341 0.0
H1866 H 0.54614 0.51028 0.47285 0.0
H1867 H 0.51519 0.57506 0.50154 0.0
H1868 H 0.48948 0.6057 0.50406 0.0
H1869 H 0.40166 0.52804 0.49473 0.0
H1870 H 0.42691 0.49699 0.49192 0.0
H1871 H 0.50952 0.41714 0.55078 0.0
H1872 H 0.52683 0.45781 0.5288 0.0
H1873 H 0.43245 0.42669 0.51406 0.0
H1874 H 0.41486 0.38624 0.53654 0.0
H1875 H 0.45924 0.48442 0.51552 0.0
H1876 H 0.48948 0.41952 0.48666 0.0
H1877 H 0.5147 0.38849 0.48369 0.0
H1878 H 0.60309 0.46563 0.49268 0.0
H1879 H 0.57834 0.49706 0.49593 0.0
C1880 C 0.514 0.57574 0.44513 0.0
C1881 C 0.54567 0.59703 0.443 0.0
C1882 C 0.50359 0.55226 0.45792 0.0
C1883 C 0.52438 0.54917 0.4692 0.0
C1884 C 0.55597 0.57068 0.46732 0.0
C1885 C 0.56641 0.59426 0.45453 0.0
C1886 C 0.51333 0.52312 0.48244 0.0
C1887 C 0.52744 0.50501 0.48234 0.0
C1888 C 0.48823 0.51517 0.49464 0.0
C1889 C 0.47299 0.53377 0.49635 0.0
C1890 C 0.49043 0.56456 0.49989 0.0
C1891 C 0.47593 0.582 0.5014 0.0
C1892 C 0.44397 0.56884 0.49951 0.0
C1893 C 0.42642 0.53821 0.49617 0.0
C1894 C 0.44081 0.52067 0.49463 0.0
C1895 C 0.49229 0.41847 0.54271 0.0
C1896 C 0.4606 0.39782 0.54553 0.0
C1897 C 0.50235 0.44197 0.52998 0.0
C1898 C 0.48121 0.4456 0.51931 0.0
C1899 C 0.44953 0.42476 0.52193 0.0
C1900 C 0.43941 0.40129 0.53479 0.0
C1901 C 0.49207 0.47153 0.50596 0.0
C1902 C 0.47793 0.48964 0.50603 0.0
C1903 C 0.51706 0.4794 0.49367 0.0
C1904 C 0.53201 0.46058 0.4917 0.0
C1905 C 0.51427 0.42982 0.48813 0.0
C1906 C 0.52848 0.41217 0.48637 0.0
C1907 C 0.56046 0.42506 0.48804 0.0
C1908 C 0.57831 0.45566 0.49141 0.0
C1909 C 0.56421 0.47341 0.4932 0.0
H1910 H 0.57142 0.41136 0.48667 0.0
H1911 H 0.43279 0.58238 0.50068 0.0
H1912 H 0.56383 0.04931 0.59534 0.0
H1913 H 0.52693 0.03386 0.57107 0.0
H1914 H 0.60057 0.05494 0.53296 0.0
H1915 H 0.63775 0.0696 0.55748 0.0
H1916 H 0.53892 0.07 0.52786 0.0
H1917 H 0.57712 0.99914 0.53133 0.0
H1918 H 0.59166 0.96482 0.54613 0.0
H1919 H 0.49997 0.91409 0.56859 0.0
H1920 H 0.48539 0.94911 0.55463 0.0
H1921 H 0.43675 0.93177 0.46579 0.0
H1922 H 0.47788 0.95722 0.48697 0.0
H1923 H 0.43604 0.00943 0.50447 0.0
H1924 H 0.39536 0.98481 0.48247 0.0
H1925 H 0.48502 0.96008 0.51904 0.0
H1926 H 0.48307 0.07103 0.52448 0.0
H1927 H 0.47415 0.10614 0.50596 0.0
H1928 H 0.50275 0.07779 0.45914 0.0
H1929 H 0.51081 0.04185 0.47727 0.0
C1930 C 0.5725 0.05183 0.58173 0.0
C1931 C 0.60413 0.06167 0.57842 0.0
C1932 C 0.55116 0.0425 0.56784 0.0
C1933 C 0.56058 0.04268 0.55009 0.0
C1934 C 0.59249 0.05438 0.54651 0.0
C1935 C 0.61394 0.06332 0.56053 0.0
C1936 C 0.53659 0.02848 0.53584 0.0
C1937 C 0.52719 0.04596 0.52591 0.0
C1938 C 0.52118 0.99714 0.53296 0.0
C1939 C 0.53041 0.9772 0.5423 0.0
C1940 C 0.56034 0.98124 0.53987 0.0
C1941 C 0.56855 0.96156 0.54802 0.0
C1942 C 0.54678 0.93732 0.55832 0.0
C1943 C 0.51686 0.93294 0.56066 0.0
C1944 C 0.50869 0.95284 0.55275 0.0
C1945 C 0.43598 0.94854 0.47416 0.0
C1946 C 0.41221 0.9559 0.47224 0.0
C1947 C 0.45986 0.9633 0.48642 0.0
C1948 C 0.46104 0.98598 0.49747 0.0
C1949 C 0.43679 0.99285 0.49594 0.0
C1950 C 0.41301 0.97832 0.48343 0.0
C1951 C 0.48718 1.00151 0.51066 0.0
C1952 C 0.49671 0.98417 0.52074 0.0
C1953 C 0.50332 0.03309 0.51323 0.0
C1954 C 0.49723 0.05363 0.50218 0.0
C1955 C 0.48717 0.07215 0.5102 0.0
C1956 C 0.4821 0.09205 0.49975 0.0
C1957 C 0.4875 0.09393 0.48133 0.0
C1958 C 0.49795 0.07588 0.47333 0.0
C1959 C 0.5026 0.05562 0.48366 0.0
H1960 H 0.48381 0.1095 0.47328 0.0
H1961 H 0.55307 0.92185 0.56438 0.0
H1962 H 0.32829 0.96044 0.04993 0.0
H1963 H 0.29172 0.9216 0.03047 0.0
H1964 H 0.2817 0.98825 1.00016 0.0
H1965 H 0.31876 0.02757 0.01945 0.0
H1966 H 0.22351 0.93051 0.01155 0.0
H1967 H 0.32162 0.96853 0.98066 0.0
H1968 H 0.37741 0.98526 0.97979 0.0
H1969 H 0.35876 0.89741 0.99662 0.0
H1970 H 0.30287 0.88029 0.99793 0.0
H1971 H 0.13489 0.81143 0.95181 0.0
H1972 H 0.17176 0.86165 0.96223 0.0
H1973 H 0.22303 0.82508 0.98866 0.0
H1974 H 0.18731 0.77559 0.97787 0.0
H1975 H 0.2617 0.87558 0.974 0.0
H1976 H 0.16882 0.83978 0.01073 0.0
H1977 H 0.11326 0.82128 0.01634 0.0
H1978 H 0.12171 0.90172 0.99258 0.0
H1979 H 0.17729 0.92054 0.98664 0.0
C1980 C 0.31823 0.96688 0.03919 0.0
C1981 C 0.32649 0.99705 0.03614 0.0
C1982 C 0.2974 0.94469 0.0281 0.0
C1983 C 0.28427 0.95224 0.01392 0.0
C1984 C 0.29173 0.98216 0.01108 0.0
C1985 C 0.31296 0.0045 0.02203 0.0
C1986 C 0.26348 0.92864 1.00183 0.0
C1987 C 0.23177 0.91886 1.00296 0.0
C1988 C 0.27452 0.91333 0.99101 0.0
C1989 C 0.30803 0.92317 0.98947 0.0
C1990 C 0.32941 0.9528 0.98424 0.0
C1991 C 0.36106 0.96236 0.98368 0.0
C1992 C 0.37163 0.94242 0.98818 0.0
C1993 C 0.35054 0.91283 0.99314 0.0
C1994 C 0.31886 0.90317 0.99377 0.0
C1995 C 0.15414 0.81424 0.95978 0.0
C1996 C 0.15813 0.78958 0.96409 0.0
C1997 C 0.17515 0.84289 0.96573 0.0
C1998 C 0.20002 0.84709 0.97637 0.0
C1999 C 0.20417 0.82249 0.98039 0.0
C2000 C 0.18358 0.79411 0.97426 0.0
C2001 C 0.2213 0.8766 0.98407 0.0
C2002 C 0.25328 0.8876 0.98215 0.0
C2003 C 0.21042 0.89265 0.99448 0.0
C2004 C 0.17707 0.88137 0.99803 0.0
C2005 C 0.15876 0.85341 1.00658 0.0
C2006 C 0.12729 0.84288 0.00984 0.0
C2007 C 0.11394 0.86026 1.00476 0.0
C2008 C 0.13207 0.88825 0.99646 0.0
C2009 C 0.16355 0.89886 0.99315 0.0
H2010 H 0.08957 0.85208 1.0073 0.0
H2011 H 0.39615 0.94989 0.98779 0.0
H2012 H 0.96293 0.27459 0.99552 0.0
H2013 H 0.00955 0.27762 0.98197 0.0
H2014 H 0.06594 0.34866 0.01767 0.0
H2015 H 0.01976 0.3454 0.03149 0.0
H2016 H 0.05796 0.31883 0.96453 0.0
H2017 H 0.125 0.34409 0.03095 0.0
H2018 H 0.11415 0.32933 0.06278 0.0
H2019 H 0.03375 0.24712 0.04885 0.0
H2020 H 0.04389 0.26159 0.01703 0.0
H2021 H 0.22445 0.39971 0.96127 0.0
H2022 H 0.16983 0.38099 0.96833 0.0
H2023 H 0.15505 0.29082 0.97236 0.0
H2024 H 0.20961 0.30906 0.96481 0.0
H2025 H 0.1374 0.31804 1.00362 0.0
H2026 H 0.12025 0.29091 0.94376 0.0
H2027 H 0.12189 0.29151 0.91093 0.0
H2028 H 0.0948 0.35934 0.90978 0.0
H2029 H 0.09374 0.35973 0.94264 0.0
C2030 C 0.98528 0.29098 1.00041 0.0
C2031 C 0.98758 0.30956 0.0147 0.0
C2032 C 0.01189 0.29265 0.99266 0.0
C2033 C 0.04119 0.3129 0.99907 0.0
C2034 C 0.04354 0.33228 0.01283 0.0
C2035 C 0.01706 0.33052 0.02064 0.0
C2036 C 0.06952 0.31413 0.99146 0.0
C2037 C 0.07538 0.31868 0.97303 0.0
C2038 C 0.09157 0.31248 1.00249 0.0
C2039 C 0.08511 0.30402 0.02165 0.0
C2040 C 0.10499 0.3229 0.03471 0.0
C2041 C 0.09889 0.31464 0.05275 0.0
C2042 C 0.07318 0.28738 0.05785 0.0
C2043 C 0.05349 0.26836 0.04492 0.0
C2044 C 0.05931 0.27665 0.02689 0.0
C2045 C 0.20965 0.37584 0.96348 0.0
C2046 C 0.22152 0.35589 0.96245 0.0
C2047 C 0.17836 0.36519 0.96736 0.0
C2048 C 0.15843 0.33452 0.97048 0.0
C2049 C 0.17008 0.31452 0.96963 0.0
C2050 C 0.20129 0.32505 0.96545 0.0
C2051 C 0.12646 0.32424 0.9768 0.0
C2052 C 0.11999 0.31812 0.99507 0.0
C2053 C 0.10347 0.32333 0.96547 0.0
C2054 C 0.10736 0.32564 0.94575 0.0
C2055 C 0.11534 0.30647 0.93655 0.0
C2056 C 0.11584 0.3064 0.91791 0.0
C2057 C 0.10826 0.32531 0.90827 0.0
C2058 C 0.10049 0.34457 0.91726 0.0
C2059 C 0.10006 0.34481 0.9359 0.0
H2060 H 0.10864 0.3252 0.89384 0.0
H2061 H 0.06855 0.28097 0.07182 0.0
H2062 H 0.74543 0.67151 0.01665 0.0
H2063 H 0.74727 0.70942 0.99553 0.0
H2064 H 0.69203 0.72895 0.03214 0.0
H2065 H 0.68984 0.69153 0.05307 0.0
H2066 H 0.69716 0.71548 0.97968 0.0
H2067 H 0.72562 0.80324 0.03544 0.0
H2068 H 0.75546 0.81814 0.06307 0.0
H2069 H 0.81403 0.78471 0.04309 0.0
H2070 H 0.78496 0.77014 0.01517 0.0
H2071 H 0.62571 0.80253 0.97809 0.0
H2072 H 0.64885 0.77064 0.98285 0.0
H2073 H 0.7392 0.84546 0.97069 0.0
H2074 H 0.71613 0.87764 0.9657 0.0
H2075 H 0.73619 0.81826 1.00273 0.0
H2076 H 0.71421 0.78878 0.94328 0.0
H2077 H 0.68435 0.77343 0.91564 0.0
H2078 H 0.61617 0.69205 0.94151 0.0
H2079 H 0.64539 0.70699 0.96937 0.0
C2080 C 0.73362 0.68386 0.02015 0.0
C2081 C 0.7178 0.67873 0.03665 0.0
C2082 C 0.73465 0.70539 1.00807 0.0
C2083 C 0.72018 0.72217 0.01247 0.0
C2084 C 0.70374 0.71649 0.02866 0.0
C2085 C 0.70253 0.69503 0.04062 0.0
C2086 C 0.72206 0.74613 1.00055 0.0
C2087 C 0.70614 0.73814 0.98446 0.0
C2088 C 0.73474 0.77587 1.00663 0.0
C2089 C 0.75305 0.78557 0.02317 0.0
C2090 C 0.74508 0.79936 0.03683 0.0
C2091 C 0.76182 0.80769 0.05257 0.0
C2092 C 0.78664 0.8024 0.05482 0.0
C2093 C 0.79481 0.78881 0.04132 0.0
C2094 C 0.7782 0.7805 0.02553 0.0
C2095 C 0.65047 0.81216 0.97624 0.0
C2096 C 0.66916 0.84265 0.97174 0.0
C2097 C 0.66362 0.79383 0.97876 0.0
C2098 C 0.69568 0.80565 0.97691 0.0
C2099 C 0.71438 0.83592 0.97201 0.0
C2100 C 0.70117 0.85424 0.96925 0.0
C2101 C 0.70948 0.78708 0.98245 0.0
C2102 C 0.72827 0.79604 0.99746 0.0
C2103 C 0.69975 0.75843 0.97522 0.0
C2104 C 0.68202 0.74909 0.95847 0.0
C2105 C 0.69276 0.76768 0.94312 0.0
C2106 C 0.67596 0.75904 0.9274 0.0
C2107 C 0.64835 0.73182 0.92684 0.0
C2108 C 0.63757 0.71312 0.94197 0.0
C2109 C 0.6543 0.72163 0.95772 0.0
H2110 H 0.63531 0.72522 0.91469 0.0
H2111 H 0.79953 0.80881 0.06704 0.0
H2112 H 0.68365 0.94242 0.99962 0.0
H2113 H 0.72694 0.98735 0.01182 0.0
H2114 H 0.7173 0.04157 0.97072 0.0
H2115 H 0.67437 0.99703 0.95837 0.0
H2116 H 0.77661 0.05423 0.97381 0.0
H2117 H 0.69203 0.04003 0.01305 0.0
H2118 H 0.64907 0.01155 0.03449 0.0
H2119 H 0.71168 0.00474 0.07072 0.0
H2120 H 0.75496 0.03283 0.04935 0.0
H2121 H 0.83615 0.20116 1.00095 0.0
H2122 H 0.80245 0.14854 0.99438 0.0
H2123 H 0.84654 0.12269 0.03462 0.0
H2124 H 0.88104 0.17593 0.04126 0.0
H2125 H 0.77729 0.09075 0.03498 0.0
H2126 H 0.86357 0.11328 0.99663 0.0
H2127 H 0.90535 0.1436 0.9749 0.0
H2128 H 0.83841 0.13608 0.93668 0.0
H2129 H 0.79622 0.1061 0.95828 0.0
C2130 C 0.69058 0.96394 0.99326 0.0
C2131 C 0.6756 0.9661 0.97796 0.0
C2132 C 0.71532 0.98956 1.00026 0.0
C2133 C 0.72532 0.01772 0.99214 0.0
C2134 C 0.71006 0.01998 0.9771 0.0
C2135 C 0.68542 0.99448 0.9701 0.0
C2136 C 0.75197 0.04505 0.99899 0.0
C2137 C 0.77676 0.06221 0.98719 0.0
C2138 C 0.7526 0.05488 0.01663 0.0
C2139 C 0.72664 0.03817 0.02951 0.0
C2140 C 0.69658 0.03223 0.02552 0.0
C2141 C 0.67218 0.0162 0.03767 0.0
C2142 C 0.67762 0.00625 0.05393 0.0
C2143 C 0.70749 0.0124 0.0581 0.0
C2144 C 0.73196 0.02837 0.04598 0.0
C2145 C 0.8388 0.18437 1.00843 0.0
C2146 C 0.86125 0.19261 0.0216 0.0
C2147 C 0.81957 0.15433 1.00461 0.0
C2148 C 0.8222 0.13189 0.01396 0.0
C2149 C 0.84434 0.13984 0.02727 0.0
C2150 C 0.86404 0.17013 0.03095 0.0
C2151 C 0.80125 0.10028 0.00958 0.0
C2152 C 0.77753 0.08231 0.02179 0.0
C2153 C 0.80143 0.08974 0.99226 0.0
C2154 C 0.82672 0.10754 0.97913 0.0
C2155 C 0.85775 0.11826 0.98364 0.0
C2156 C 0.88151 0.13536 0.97133 0.0
C2157 C 0.87454 0.14179 0.95443 0.0
C2158 C 0.84377 0.13107 0.94978 0.0
C2159 C 0.81992 0.11398 0.96204 0.0
H2160 H 0.89297 0.15504 0.94492 0.0
H2161 H 0.6587 0.99384 0.06332 0.0
H2162 H 0.81042 0.60161 0.06245 0.0
H2163 H 0.86027 0.60681 0.05341 0.0
H2164 H 0.89185 0.69854 0.03685 0.0
H2165 H 0.84255 0.6938 0.0467 0.0
H2166 H 0.87973 0.61293 0.02192 0.0
H2167 H 0.96868 0.73925 0.03354 0.0
H2168 H 0.97987 0.77716 0.05657 0.0
H2169 H 0.9342 0.70748 0.09626 0.0
H2170 H 0.923 0.66911 0.07354 0.0
H2171 H 0.99324 0.66465 0.9562 0.0
H2172 H 0.95325 0.65641 0.97793 0.0
H2173 H 0.0174 0.67494 0.02055 0.0
H2174 H 0.05852 0.68529 0.99857 0.0
H2175 H 0.98505 0.69953 0.02817 0.0
H2176 H 0.95302 0.5972 0.01331 0.0
H2177 H 0.94028 0.55389 0.99402 0.0
H2178 H 0.87395 0.56945 0.96669 0.0
H2179 H 0.8856 0.61227 0.98613 0.0
C2180 C 0.82829 0.62309 0.05725 0.0
C2181 C 0.82257 0.64722 0.05508 0.0
C2182 C 0.85677 0.62605 0.05209 0.0
C2183 C 0.87992 0.65304 0.0444 0.0
C2184 C 0.8747 0.67764 0.04305 0.0
C2185 C 0.8464 0.67486 0.04856 0.0
C2186 C 0.90757 0.65422 0.03568 0.0
C2187 C 0.9028 0.63172 0.02353 0.0
C2188 C 0.93788 0.6783 0.03796 0.0
C2189 C 0.94484 0.70128 0.05177 0.0
C2190 C 0.96116 0.73199 0.04719 0.0
C2191 C 0.96745 0.75357 0.06019 0.0
C2192 C 0.95765 0.74472 0.07785 0.0
C2193 C 0.94162 0.71428 0.08256 0.0
C2194 C 0.93526 0.69261 0.06962 0.0
C2195 C 0.99907 0.66716 0.97016 0.0
C2196 C 0.02925 0.67584 0.97558 0.0
C2197 C 0.97591 0.66194 0.98266 0.0
C2198 C 0.98193 0.66419 1.00098 0.0
C2199 C 0.01207 0.6729 1.00651 0.0
C2200 C 0.03557 0.67881 0.99392 0.0
C2201 C 0.95687 0.65868 0.0141 0.0
C2202 C 0.96208 0.68043 0.02696 0.0
C2203 C 0.92704 0.63336 0.01298 0.0
C2204 C 0.92041 0.60806 1.00103 0.0
C2205 C 0.93589 0.59148 1.00309 0.0
C2206 C 0.92882 0.567 0.99218 0.0
C2207 C 0.90666 0.55918 0.979 0.0
C2208 C 0.8912 0.57559 0.97686 0.0
C2209 C 0.89784 0.59981 0.9879 0.0
H2210 H 0.90132 0.54029 0.97054 0.0
H2211 H 0.96254 0.76146 0.08789 0.0
H2212 H 0.2727 0.30002 0.01164 0.0
H2213 H 0.28132 0.26275 0.02769 0.0
H2214 H 0.36151 0.28603 0.99413 0.0
H2215 H 0.35237 0.32219 0.97782 0.0
H2216 H 0.3237 0.22846 0.99345 0.0
H2217 H 0.36588 0.30289 0.03933 0.0
H2218 H 0.36488 0.33782 0.06145 0.0
H2219 H 0.28857 0.26458 0.0891 0.0
H2220 H 0.28884 0.22925 0.067 0.0
H2221 H 0.39937 0.15896 0.03188 0.0
H2222 H 0.38691 0.19837 0.0247 0.0
H2223 H 0.29976 0.14943 0.05316 0.0
H2224 H 0.31196 0.10956 0.06044 0.0
H2225 H 0.33405 0.21559 0.05818 0.0
H2226 H 0.29429 0.14126 0.01244 0.0
H2227 H 0.29747 0.10706 0.9906 0.0
H2228 H 0.37148 0.182 0.96266 0.0
H2229 H 0.36907 0.21661 0.98451 0.0
C2230 C 0.29249 0.29753 1.00801 0.0
C2231 C 0.31167 0.31363 0.99341 0.0
C2232 C 0.29743 0.2763 0.01717 0.0
C2233 C 0.32196 0.27148 0.01201 0.0
C2234 C 0.34225 0.28912 0.9982 0.0
C2235 C 0.33704 0.30981 0.98891 0.0
C2236 C 0.32515 0.24632 0.01959 0.0
C2237 C 0.32624 0.22591 1.00761 0.0
C2238 C 0.32731 0.24227 0.03811 0.0
C2239 C 0.32714 0.26348 0.05139 0.0
C2240 C 0.3487 0.29427 0.05004 0.0
C2241 C 0.34831 0.31413 0.06259 0.0
C2242 C 0.32661 0.30344 0.07664 0.0
C2243 C 0.30532 0.27284 0.07819 0.0
C2244 C 0.3056 0.25289 0.06566 0.0
C2245 C 0.37765 0.15662 0.03678 0.0
C2246 C 0.35645 0.13096 0.04652 0.0
C2247 C 0.37064 0.1792 0.0327 0.0
C2248 C 0.34239 0.17661 0.03834 0.0
C2249 C 0.3217 0.15174 0.04875 0.0
C2250 C 0.32861 0.12894 0.05275 0.0
C2251 C 0.3337 0.19877 0.03193 0.0
C2252 C 0.33128 0.21825 0.04408 0.0
C2253 C 0.33046 0.20222 0.01352 0.0
C2254 C 0.33165 0.1815 1.0002 0.0
C2255 C 0.3114 0.15042 1.00171 0.0
C2256 C 0.31304 0.13097 0.98932 0.0
C2257 C 0.33471 0.14234 0.97528 0.0
C2258 C 0.35472 0.17321 0.97356 0.0
C2259 C 0.3532 0.19276 0.98593 0.0
H2260 H 0.33596 0.12724 0.9657 0.0
H2261 H 0.32635 0.31885 0.08635 0.0
H2262 H 0.00558 0.35838 0.34851 0.0
H2263 H 0.96856 0.31906 0.32928 0.0
H2264 H 0.94859 0.25309 0.37095 0.0
H2265 H 0.98533 0.29188 0.39021 0.0
H2266 H 0.96514 0.26559 0.31707 0.0
H2267 H 0.87107 0.20671 0.37243 0.0
H2268 H 0.85379 0.22027 0.40009 0.0
H2269 H 0.88849 0.31015 0.37994 0.0
H2270 H 0.9054 0.29698 0.35201 0.0
H2271 H 0.86178 0.11222 0.30327 0.0
H2272 H 0.89865 0.16174 0.31407 0.0
H2273 H 0.83264 0.19215 0.3055 0.0
H2274 H 0.79547 0.14256 0.29465 0.0
H2275 H 0.85659 0.20459 0.33884 0.0
H2276 H 0.89478 0.21899 0.27905 0.0
H2277 H 0.91265 0.20637 0.25128 0.0
H2278 H 0.98873 0.20805 0.27881 0.0
H2279 H 0.97106 0.22023 0.30683 0.0
C2280 C 0.99335 0.33549 0.35357 0.0
C2281 C 0.99815 0.32835 0.37099 0.0
C2282 C 0.97234 0.31309 0.34254 0.0
C2283 C 0.95565 0.28335 0.34882 0.0
C2284 C 0.96098 0.27604 0.36598 0.0
C2285 C 0.98201 0.29829 0.37696 0.0
C2286 C 0.93203 0.25976 0.33772 0.0
C2287 C 0.94134 0.25235 0.32171 0.0
C2288 C 0.90089 0.24304 0.34367 0.0
C2289 C 0.88968 0.25087 0.36016 0.0
C2290 C 0.87476 0.22929 0.37383 0.0
C2291 C 0.86507 0.23693 0.38957 0.0
C2292 C 0.87008 0.26606 0.39178 0.0
C2293 C 0.88465 0.2876 0.37822 0.0
C2294 C 0.89431 0.28006 0.36243 0.0
C2295 C 0.85518 0.1295 0.3035 0.0
C2296 C 0.82564 0.12343 0.29821 0.0
C2297 C 0.87634 0.15784 0.30959 0.0
C2298 C 0.86839 0.18061 0.31047 0.0
C2299 C 0.83918 0.17484 0.30487 0.0
C2300 C 0.81802 0.14652 0.29866 0.0
C2301 C 0.88991 0.20967 0.31846 0.0
C2302 C 0.88022 0.21811 0.33397 0.0
C2303 C 0.92058 0.22747 0.31193 0.0
C2304 C 0.93147 0.22037 0.29508 0.0
C2305 C 0.91521 0.21647 0.27922 0.0
C2306 C 0.92532 0.20942 0.26343 0.0
C2307 C 0.95178 0.20637 0.26329 0.0
C2308 C 0.96823 0.21042 0.27894 0.0
C2309 C 0.9582 0.21745 0.29478 0.0
H2310 H 0.95957 0.2009 0.25105 0.0
H2311 H 0.86265 0.27195 0.404 0.0
H2312 H 0.87811 0.63978 0.30328 0.0
H2313 H 0.82431 0.62206 0.31265 0.0
H2314 H 0.83541 0.70948 0.30111 0.0
H2315 H 0.88913 0.72771 0.29211 0.0
H2316 H 0.81076 0.65991 0.34137 0.0
H2317 H 0.75573 0.67893 0.2778 0.0
H2318 H 0.75631 0.67315 0.24522 0.0
H2319 H 0.78803 0.60933 0.252 0.0
H2320 H 0.7867 0.61396 0.28461 0.0
H2321 H 0.69128 0.68786 0.36478 0.0
H2322 H 0.73677 0.68992 0.35067 0.0
H2323 H 0.67891 0.60603 0.32483 0.0
H2324 H 0.63292 0.60458 0.33838 0.0
H2325 H 0.72314 0.64218 0.30282 0.0
H2326 H 0.72139 0.60963 0.36366 0.0
H2327 H 0.71859 0.61244 0.39643 0.0
H2328 H 0.79896 0.69977 0.39499 0.0
H2329 H 0.80254 0.69741 0.36227 0.0
C2330 C 0.86904 0.65518 0.30256 0.0
C2331 C 0.88799 0.68519 0.29695 0.0
C2332 C 0.83831 0.64496 0.30785 0.0
C2333 C 0.82592 0.66437 0.30717 0.0
C2334 C 0.84452 0.69409 0.30134 0.0
C2335 C 0.8753 0.70448 0.29635 0.0
C2336 C 0.79475 0.65501 0.31446 0.0
C2337 C 0.79144 0.6557 0.33298 0.0
C2338 C 0.7697 0.64938 0.3034 0.0
C2339 C 0.77156 0.64716 0.28372 0.0
C2340 C 0.76274 0.66358 0.27237 0.0
C2341 C 0.763 0.66036 0.25388 0.0
C2342 C 0.77214 0.64084 0.24655 0.0
C2343 C 0.781 0.62448 0.25769 0.0
C2344 C 0.78058 0.62747 0.27619 0.0
C2345 C 0.68822 0.66995 0.35599 0.0
C2346 C 0.65863 0.64594 0.35275 0.0
C2347 C 0.71426 0.67102 0.34804 0.0
C2348 C 0.71135 0.64766 0.33712 0.0
C2349 C 0.68171 0.62416 0.33334 0.0
C2350 C 0.65549 0.62337 0.34104 0.0
C2351 C 0.73938 0.64794 0.32976 0.0
C2352 C 0.74223 0.64585 0.31125 0.0
C2353 C 0.76405 0.65213 0.34081 0.0
C2354 C 0.76213 0.65338 0.36052 0.0
C2355 C 0.73841 0.62945 0.37034 0.0
C2356 C 0.73667 0.63097 0.38889 0.0
C2357 C 0.75839 0.65633 0.39776 0.0
C2358 C 0.78212 0.68015 0.38811 0.0
C2359 C 0.78412 0.67867 0.36957 0.0
H2360 H 0.75691 0.65747 0.41211 0.0
H2361 H 0.77252 0.63854 0.23223 0.0
H2362 H 0.36736 0.1946 0.29254 0.0
H2363 H 0.38794 0.16096 0.30024 0.0
H2364 H 0.32881 0.1305 0.3472 0.0
H2365 H 0.30773 0.16324 0.33946 0.0
H2366 H 0.39637 0.1494 0.35121 0.0
H2367 H 0.30379 0.08817 0.31525 0.0
H2368 H 0.27579 0.07873 0.28703 0.0
H2369 H 0.35137 0.07791 0.25903 0.0
H2370 H 0.38 0.08778 0.28709 0.0
H2371 H 0.34509 0.01449 0.39271 0.0
H2372 H 0.34982 0.05593 0.37447 0.0
H2373 H 0.40556 0.04078 0.33581 0.0
H2374 H 0.4013 0.99889 0.35426 0.0
H2375 H 0.35806 0.05183 0.32106 0.0
H2376 H 0.44349 0.09789 0.35849 0.0
H2377 H 0.47412 0.11001 0.3858 0.0
H2378 H 0.4175 0.14255 0.40983 0.0
H2379 H 0.3861 0.1301 0.38283 0.0
C2380 C 0.35894 0.1808 0.30454 0.0
C2381 C 0.33597 0.18142 0.31543 0.0
C2382 C 0.37064 0.16166 0.30887 0.0
C2383 C 0.35987 0.14347 0.32428 0.0
C2384 C 0.33741 0.14453 0.33529 0.0
C2385 C 0.32532 0.16311 0.33082 0.0
C2386 C 0.37106 0.12254 0.32911 0.0
C2387 C 0.38833 0.12815 0.34459 0.0
C2388 C 0.36164 0.09553 0.31991 0.0
C2389 C 0.34416 0.08907 0.30319 0.0
C2390 C 0.31452 0.08622 0.30305 0.0
C2391 C 0.29852 0.08075 0.28709 0.0
C2392 C 0.31184 0.07783 0.27123 0.0
C2393 C 0.34112 0.08024 0.27131 0.0
C2394 C 0.35723 0.08576 0.28723 0.0
C2395 C 0.35834 0.01972 0.38033 0.0
C2396 C 0.3731 0.00349 0.37506 0.0
C2397 C 0.36107 0.04353 0.36994 0.0
C2398 C 0.3785 0.05168 0.354 0.0
C2399 C 0.39224 0.03489 0.34818 0.0
C2400 C 0.38971 0.01099 0.35871 0.0
C2401 C 0.38191 0.078 0.34382 0.0
C2402 C 0.36731 0.07348 0.32736 0.0
C2403 C 0.3942 0.10627 0.35201 0.0
C2404 C 0.41241 0.11305 0.36857 0.0
C2405 C 0.43736 0.10738 0.36965 0.0
C2406 C 0.45493 0.1144 0.38506 0.0
C2407 C 0.44791 0.12726 0.39948 0.0
C2408 C 0.42305 0.13279 0.3986 0.0
C2409 C 0.40536 0.12576 0.38323 0.0
H2410 H 0.46162 0.13279 0.41137 0.0
H2411 H 0.29943 0.07363 0.25889 0.0
H2412 H 0.54162 0.51782 0.37451 0.0
H2413 H 0.50202 0.46642 0.36823 0.0
H2414 H 0.45627 0.50012 0.33402 0.0
H2415 H 0.49517 0.55147 0.34066 0.0
H2416 H 0.41496 0.45485 0.35338 0.0
H2417 H 0.504 0.47382 0.31734 0.0
H2418 H 0.55862 0.48822 0.31168 0.0
H2419 H 0.54854 0.41593 0.34575 0.0
H2420 H 0.49394 0.40134 0.35179 0.0
H2421 H 0.33265 0.33479 0.29541 0.0
H2422 H 0.37043 0.38218 0.30819 0.0
H2423 H 0.3948 0.33445 0.34662 0.0
H2424 H 0.35679 0.28664 0.33397 0.0
H2425 H 0.44607 0.38377 0.32848 0.0
H2426 H 0.3538 0.36188 0.36122 0.0
H2427 H 0.29848 0.34662 0.36391 0.0
H2428 H 0.31424 0.42466 0.33364 0.0
H2429 H 0.36962 0.44011 0.33045 0.0
C2430 C 0.52312 0.51425 0.36565 0.0
C2431 C 0.52162 0.53864 0.35796 0.0
C2432 C 0.50053 0.48489 0.36206 0.0
C2433 C 0.47641 0.47944 0.35048 0.0
C2434 C 0.47464 0.5038 0.34302 0.0
C2435 C 0.49698 0.53313 0.34676 0.0
C2436 C 0.45333 0.44844 0.34572 0.0
C2437 C 0.42179 0.4394 0.34785 0.0
C2438 C 0.46222 0.42802 0.33884 0.0
C2439 C 0.49501 0.43671 0.33518 0.0
C2440 C 0.51351 0.46114 0.32373 0.0
C2441 C 0.54445 0.46931 0.32044 0.0
C2442 C 0.55707 0.45306 0.32839 0.0
C2443 C 0.53875 0.42854 0.33962 0.0
C2444 C 0.50781 0.4203 0.34298 0.0
C2445 C 0.34597 0.33428 0.30659 0.0
C2446 C 0.34171 0.30695 0.3137 0.0
C2447 C 0.36746 0.36138 0.3139 0.0
C2448 C 0.38515 0.36167 0.32838 0.0
C2449 C 0.38123 0.33454 0.33545 0.0
C2450 C 0.35946 0.30732 0.32826 0.0
C2451 C 0.40795 0.39054 0.33591 0.0
C2452 C 0.43935 0.39914 0.33428 0.0
C2453 C 0.39894 0.41064 0.34305 0.0
C2454 C 0.36586 0.40204 0.34549 0.0
C2455 C 0.34546 0.37572 0.35505 0.0
C2456 C 0.31409 0.36703 0.35666 0.0
C2457 C 0.30285 0.38462 0.34891 0.0
C2458 C 0.323 0.41105 0.33962 0.0
C2459 C 0.35439 0.4198 0.33792 0.0
H2460 H 0.27854 0.37778 0.35012 0.0
H2461 H 0.58103 0.45941 0.32582 0.0
H2462 H 0.72177 0.03967 0.32818 0.0
H2463 H 0.68035 0.03614 0.34775 0.0
H2464 H 0.61445 0.99253 0.30626 0.0
H2465 H 0.65557 0.99609 0.28654 0.0
H2466 H 0.6058 0.03518 0.32241 0.0
H2467 H 0.62045 0.95199 0.33931 0.0
H2468 H 0.65146 0.92894 0.34898 0.0
H2469 H 0.67372 0.9793 0.39724 0.0
H2470 H 0.64323 1.00305 0.38769 0.0
H2471 H 0.47101 0.93436 0.38316 0.0
H2472 H 0.52149 0.94731 0.37049 0.0
H2473 H 0.55099 0.04139 0.37604 0.0
H2474 H 0.50008 0.02861 0.38854 0.0
H2475 H 0.5813 0.97792 0.37966 0.0
H2476 H 0.59097 0.0767 0.33762 0.0
H2477 H 0.55741 0.09572 0.32597 0.0
H2478 H 0.481 0.00588 0.325 0.0
H2479 H 0.51421 0.98634 0.33639 0.0
C2480 C 0.69848 0.02937 0.32318 0.0
C2481 C 0.69199 0.01812 0.30578 0.0
C2482 C 0.67487 0.02738 0.3344 0.0
C2483 C 0.6444 0.014 0.32845 0.0
C2484 C 0.63789 1.00307 0.31106 0.0
C2485 C 0.66143 0.005 0.29984 0.0
C2486 C 0.61896 0.01056 0.34043 0.0
C2487 C 0.60062 0.02293 0.33501 0.0
C2488 C 0.61209 0.99428 0.35676 0.0
C2489 C 0.62984 0.97954 0.3627 0.0
C2490 C 0.63212 0.95829 0.35193 0.0
C2491 C 0.64959 0.94509 0.35739 0.0
C2492 C 0.66463 0.95272 0.37369 0.0
C2493 C 0.6621 0.97346 0.3846 0.0
C2494 C 0.64473 0.98679 0.37918 0.0
C2495 C 0.48831 0.95783 0.38192 0.0
C2496 C 0.48137 0.9805 0.38653 0.0
C2497 C 0.51726 0.96517 0.3748 0.0
C2498 C 0.53979 0.99528 0.37212 0.0
C2499 C 0.53371 0.018 0.37783 0.0
C2500 C 0.50465 0.01066 0.38496 0.0
C2501 C 0.56807 1.00249 0.36161 0.0
C2502 C 0.58692 0.99078 0.36727 0.0
C2503 C 0.575 0.01874 0.34526 0.0
C2504 C 0.55498 0.03015 0.33806 0.0
C2505 C 0.56703 0.06103 0.33485 0.0
C2506 C 0.54808 0.07189 0.3283 0.0
C2507 C 0.51707 0.05203 0.32482 0.0
C2508 C 0.50499 0.02125 0.32777 0.0
C2509 C 0.52386 0.01028 0.33428 0.0
H2510 H 0.50242 0.06049 0.31979 0.0
H2511 H 0.67817 0.94251 0.37789 0.0
H2512 H 0.93935 0.63058 0.34544 0.0
H2513 H 0.94695 0.59268 0.36146 0.0
H2514 H 0.02679 0.61444 0.32793 0.0
H2515 H 0.01862 0.65123 0.31161 0.0
H2516 H 0.98883 0.55717 0.32751 0.0
H2517 H 0.0312 0.63171 0.3733 0.0
H2518 H 0.03056 0.66705 0.39523 0.0
H2519 H 0.9532 0.59462 0.42272 0.0
H2520 H 0.95312 0.55889 0.40079 0.0
H2521 H 0.06461 0.48894 0.36745 0.0
H2522 H 0.05147 0.52764 0.35965 0.0
H2523 H 0.96364 0.47775 0.38731 0.0
H2524 H 0.97652 0.43851 0.39519 0.0
H2525 H 0.99799 0.54445 0.3924 0.0
H2526 H 0.9588 0.46985 0.34677 0.0
H2527 H 0.96226 0.43554 0.32513 0.0
H2528 H 0.03668 0.51033 0.29734 0.0
H2529 H 0.034 0.54505 0.31899 0.0
C2530 C 0.95885 0.6276 0.34179 0.0
C2531 C 0.97823 0.64352 0.32721 0.0
C2532 C 0.9632 0.60601 0.35094 0.0
C2533 C 0.98736 0.60061 0.34582 0.0
C2534 C 0.0078 0.61797 0.33198 0.0
C2535 C 1.00317 0.63904 0.3227 0.0
C2536 C 0.99007 0.57525 0.35356 0.0
C2537 C 0.99109 0.55464 0.3417 0.0
C2538 C 0.99189 0.57123 0.37212 0.0
C2539 C 0.99192 0.59269 0.38528 0.0
C2540 C 0.01387 0.62336 0.38392 0.0
C2541 C 0.01368 0.64346 0.39637 0.0
C2542 C 0.99179 0.63311 0.41032 0.0
C2543 C 0.9701 0.60262 0.41188 0.0
C2544 C 0.97018 0.58243 0.39946 0.0
C2545 C 0.04258 0.48621 0.37203 0.0
C2546 C 0.02142 0.46049 0.38174 0.0
C2547 C 0.03516 0.50839 0.36759 0.0
C2548 C 0.00656 0.50536 0.37284 0.0
C2549 C 0.98583 0.48038 0.38318 0.0
C2550 C 0.99313 0.45794 0.38752 0.0
C2551 C 0.99781 0.52738 0.36625 0.0
C2552 C 0.99542 0.54704 0.37826 0.0
C2553 C 0.99496 0.53082 0.34779 0.0
C2554 C 0.99634 0.51002 0.33459 0.0
C2555 C 0.97605 0.47896 0.33613 0.0
C2556 C 0.97785 0.45944 0.32385 0.0
C2557 C 0.99972 0.47074 0.30989 0.0
C2558 C 0.01977 0.5016 0.30816 0.0
C2559 C 0.01809 0.52121 0.32042 0.0
H2560 H 1.00108 0.45559 0.3004 0.0
H2561 H 0.99168 0.6487 0.41995 0.0
H2562 H 0.47247 0.48282 0.61832 0.0
H2563 H 0.50672 0.53285 0.63033 0.0
H2564 H 0.54915 0.49502 0.66393 0.0
H2565 H 0.5159 0.44554 0.65185 0.0
H2566 H 0.52408 0.53334 0.68066 0.0
H2567 H 0.58915 0.5282 0.63229 0.0
H2568 H 0.59959 0.5233 0.60062 0.0
H2569 H 0.59004 0.60008 0.58711 0.0
H2570 H 0.57908 0.60513 0.61872 0.0
H2571 H 0.66058 0.62846 0.72053 0.0
H2572 H 0.62105 0.59048 0.70224 0.0
H2573 H 0.62114 0.65934 0.66858 0.0
H2574 H 0.66143 0.69799 0.68682 0.0
H2575 H 0.61761 0.61238 0.64912 0.0
H2576 H 0.56316 0.62431 0.69765 0.0
H2577 H 0.55162 0.63002 0.72897 0.0
H2578 H 0.53806 0.54236 0.74182 0.0
H2579 H 0.54993 0.53625 0.71061 0.0
C2580 C 0.48925 0.4853 0.6282 0.0
C2581 C 0.49157 0.46033 0.63415 0.0
C2582 C 0.50873 0.51379 0.63499 0.0
C2583 C 0.53028 0.5174 0.64799 0.0
C2584 C 0.53258 0.49254 0.6539 0.0
C2585 C 0.51366 0.46433 0.64692 0.0
C2586 C 0.55025 0.54678 0.65598 0.0
C2587 C 0.54449 0.55073 0.6738 0.0
C2588 C 0.57611 0.56975 0.64673 0.0
C2589 C 0.58286 0.56677 0.6278 0.0
C2590 C 0.58894 0.54383 0.62254 0.0
C2591 C 0.59503 0.54107 0.60461 0.0
C2592 C 0.59535 0.56129 0.59185 0.0
C2593 C 0.5897 0.58438 0.597 0.0
C2594 C 0.58355 0.5872 0.61492 0.0
C2595 C 0.6524 0.63572 0.70923 0.0
C2596 C 0.66401 0.66635 0.70526 0.0
C2597 C 0.62966 0.61391 0.6988 0.0
C2598 C 0.61771 0.62211 0.68429 0.0
C2599 C 0.62992 0.65259 0.67983 0.0
C2600 C 0.65289 0.67459 0.69027 0.0
C2601 C 0.5922 0.59841 0.67413 0.0
C2602 C 0.5968 0.59548 0.65591 0.0
C2603 C 0.56494 0.57647 0.68296 0.0
C2604 C 0.55755 0.57987 0.70177 0.0
C2605 C 0.55789 0.6063 0.70717 0.0
C2606 C 0.55125 0.6096 0.7249 0.0
C2607 C 0.54411 0.58657 0.73738 0.0
C2608 C 0.54356 0.56017 0.73213 0.0
C2609 C 0.55018 0.55675 0.71441 0.0
H2610 H 0.53899 0.58917 0.75111 0.0
H2611 H 0.60008 0.55913 0.57797 0.0
H2612 H 0.53697 0.98 0.64466 0.0
H2613 H 0.48402 0.96737 0.65256 0.0
H2614 H 0.50991 0.06106 0.64988 0.0
H2615 H 0.56288 0.07403 0.64184 0.0
H2616 H 0.47389 0.0291 0.68059 0.0
H2617 H 0.47455 0.01851 0.61599 0.0
H2618 H 0.48432 0.9969 0.58904 0.0
H2619 H 0.41937 0.90826 0.60799 0.0
H2620 H 0.4095 0.92927 0.6352 0.0
H2621 H 0.33426 0.02706 0.68397 0.0
H2622 H 0.38416 0.0356 0.67233 0.0
H2623 H 0.34595 0.94034 0.66507 0.0
H2624 H 0.29536 0.932 0.67585 0.0
H2625 H 0.38761 0.96914 0.64002 0.0
H2626 H 0.3851 0.97471 0.70314 0.0
H2627 H 0.3773 0.99092 0.73273 0.0
H2628 H 0.44556 0.08173 0.71969 0.0
H2629 H 0.45361 0.06618 0.68996 0.0
C2630 C 0.5315 0.99798 0.64584 0.0
C2631 C 0.55417 0.02805 0.64256 0.0
C2632 C 0.50121 0.99067 0.65028 0.0
C2633 C 0.49315 0.01329 0.65161 0.0
C2634 C 0.5158 0.04334 0.64885 0.0
C2635 C 0.54603 0.05067 0.64425 0.0
C2636 C 0.46099 0.00575 0.65577 0.0
C2637 C 0.45503 0.01634 0.67164 0.0
C2638 C 0.43638 0.98792 0.64441 0.0
C2639 C 0.44146 0.97545 0.62771 0.0
C2640 C 0.46244 0.9944 0.61445 0.0
C2641 C 0.46802 0.98227 0.59913 0.0
C2642 C 0.45257 0.95125 0.59683 0.0
C2643 C 0.43135 0.93229 0.6098 0.0
C2644 C 0.42572 0.9443 0.62516 0.0
C2645 C 0.3364 0.0081 0.67941 0.0
C2646 C 0.31127 0.97892 0.68077 0.0
C2647 C 0.3649 0.01291 0.67292 0.0
C2648 C 0.36901 0.9885 0.66837 0.0
C2649 C 0.34333 0.95947 0.66862 0.0
C2650 C 0.3145 0.95472 0.67471 0.0
C2651 C 0.40051 0.99328 0.66468 0.0
C2652 C 0.40637 0.98198 0.64899 0.0
C2653 C 0.42501 0.00976 0.67648 0.0
C2654 C 0.41983 0.0193 0.69426 0.0
C2655 C 0.39827 0.99818 0.70652 0.0
C2656 C 0.39382 0.00724 0.72332 0.0
C2657 C 0.41092 0.03731 0.72806 0.0
C2658 C 0.43237 0.05843 0.71599 0.0
C2659 C 0.43692 0.04951 0.69917 0.0
H2660 H 0.40769 0.04424 0.74113 0.0
H2661 H 0.457 0.9419 0.58498 0.0
H2662 H 0.075 0.32991 0.6841 0.0
H2663 H 0.08055 0.36823 0.66209 0.0
H2664 H 0.02821 0.39422 0.69686 0.0
H2665 H 0.02219 0.35629 0.71862 0.0
H2666 H 0.0344 0.37819 0.64472 0.0
H2667 H 0.06726 0.46919 0.69941 0.0
H2668 H 0.09788 0.48454 0.72675 0.0
H2669 H 0.15118 0.44442 0.70819 0.0
H2670 H 0.12135 0.42934 0.68056 0.0
H2671 H 0.96613 0.46558 0.6425 0.0
H2672 H 0.98959 0.43388 0.64547 0.0
H2673 H 0.08004 0.51074 0.63679 0.0
H2674 H 0.05647 0.54298 0.63379 0.0
H2675 H 0.07753 0.48201 0.66682 0.0
H2676 H 0.05747 0.45193 0.60756 0.0
H2677 H 0.02983 0.43686 0.57918 0.0
H2678 H 0.95672 0.35807 0.60471 0.0
H2679 H 0.9841 0.37239 0.63319 0.0
C2680 C 0.06446 0.34364 0.68697 0.0
C2681 C 0.04842 0.3402 0.70323 0.0
C2682 C 0.0677 0.36548 0.6744 0.0
C2683 C 0.05528 0.38432 0.67806 0.0
C2684 C 0.03844 0.38021 0.69396 0.0
C2685 C 0.03497 0.3584 0.70638 0.0
C2686 C 0.05953 0.40865 0.66561 0.0
C2687 C 0.04432 0.40106 0.6493 0.0
C2688 C 0.07365 0.43868 0.67133 0.0
C2689 C 0.09201 0.44813 0.68787 0.0
C2690 C 0.08571 0.46389 0.70106 0.0
C2691 C 0.10291 0.47251 0.71663 0.0
C2692 C 0.12653 0.46556 0.71917 0.0
C2693 C 0.13292 0.44986 0.70618 0.0
C2694 C 0.11585 0.44124 0.69057 0.0
C2695 C 0.991 0.47578 0.64096 0.0
C2696 C 0.00953 0.50687 0.63826 0.0
C2697 C 1.00438 0.4575 0.64239 0.0
C2698 C 0.03658 0.46985 0.64116 0.0
C2699 C 0.05513 0.50073 0.63765 0.0
C2700 C 0.04166 0.51911 0.63604 0.0
C2701 C 0.05025 0.45103 0.64659 0.0
C2702 C 0.06876 0.45956 0.66172 0.0
C2703 C 0.03971 0.4221 0.63958 0.0
C2704 C 0.0229 0.41326 0.62253 0.0
C2705 C 0.03546 0.43142 0.60714 0.0
C2706 C 0.01986 0.42299 0.59103 0.0
C2707 C 0.99146 0.39663 0.59017 0.0
C2708 C 0.97873 0.37849 0.60539 0.0
C2709 C 0.9944 0.38664 0.6215 0.0
H2710 H 0.97935 0.39024 0.57769 0.0
H2711 H 0.13981 0.47226 0.73124 0.0
H2712 H 0.15049 0.86478 0.67664 0.0
H2713 H 0.11418 0.81152 0.67434 0.0
H2714 H 0.17427 0.79062 0.70506 0.0
H2715 H 0.21137 0.84439 0.7072 0.0
H2716 H 0.15109 0.75391 0.67679 0.0
H2717 H 0.10964 0.78376 0.72456 0.0
H2718 H 0.09336 0.81576 0.74056 0.0
H2719 H 0.02454 0.79808 0.70134 0.0
H2720 H 0.04075 0.7664 0.68491 0.0
H2721 H 0.02315 0.60348 0.67087 0.0
H2722 H 0.06129 0.64908 0.68565 0.0
H2723 H 0.03005 0.70128 0.65576 0.0
H2724 H 0.99221 0.65625 0.64101 0.0
H2725 H 0.0404 0.71707 0.69158 0.0
H2726 H 0.09109 0.69668 0.64128 0.0
H2727 H 0.10796 0.66514 0.62521 0.0
H2728 H 0.15928 0.66449 0.67066 0.0
H2729 H 0.14242 0.69577 0.68708 0.0
C2730 C 0.15611 0.84895 0.68292 0.0
C2731 C 0.18376 0.85882 0.69218 0.0
C2732 C 0.13521 0.81847 0.68168 0.0
C2733 C 0.14121 0.79714 0.68987 0.0
C2734 C 0.16912 0.80677 0.69877 0.0
C2735 C 0.19026 0.83745 0.69996 0.0
C2736 C 0.11819 0.76488 0.68868 0.0
C2737 C 0.12701 0.74562 0.68046 0.0
C2738 C 0.08676 0.75407 0.69347 0.0
C2739 C 0.07652 0.77275 0.70345 0.0
C2740 C 0.09114 0.78681 0.71928 0.0
C2741 C 0.08192 0.8049 0.72843 0.0
C2742 C 0.05796 0.80898 0.72196 0.0
C2743 C 0.0431 0.7949 0.70634 0.0
C2744 C 0.05227 0.77682 0.69711 0.0
C2745 C 0.02419 0.62464 0.66763 0.0
C2746 C 0.00483 0.6263 0.65466 0.0
C2747 C 0.04599 0.65061 0.67605 0.0
C2748 C 0.04851 0.67849 0.67171 0.0
C2749 C 0.02839 0.67995 0.65932 0.0
C2750 C 0.0069 0.65418 0.65081 0.0
C2751 C 0.07318 0.7067 0.67904 0.0
C2752 C 0.06463 0.72516 0.68844 0.0
C2753 C 0.10482 0.71668 0.67545 0.0
C2754 C 0.11521 0.69823 0.66547 0.0
C2755 C 0.10579 0.68963 0.64789 0.0
C2756 C 0.11536 0.67183 0.63871 0.0
C2757 C 0.13456 0.66272 0.64693 0.0
C2758 C 0.14435 0.6715 0.66432 0.0
C2759 C 0.13481 0.68927 0.67357 0.0
H2760 H 0.14194 0.64893 0.63981 0.0
H2761 H 0.05088 0.82302 0.72905 0.0
H2762 H 0.16819 0.36362 0.71178 0.0
H2763 H 0.21819 0.372 0.70037 0.0
H2764 H 0.20038 0.28739 0.72367 0.0
H2765 H 0.14968 0.27827 0.73431 0.0
H2766 H 0.27048 0.3765 0.71037 0.0
H2767 H 0.22323 0.2514 0.69471 0.0
H2768 H 0.17344 0.20557 0.68997 0.0
H2769 H 0.13356 0.25912 0.67259 0.0
H2770 H 0.18324 0.30521 0.67695 0.0
H2771 H 0.39209 0.3624 0.66687 0.0
H2772 H 0.35076 0.35571 0.68772 0.0
H2773 H 0.28748 0.33143 0.64413 0.0
H2774 H 0.32793 0.3367 0.62347 0.0
H2775 H 0.26013 0.29546 0.67037 0.0
H2776 H 0.32272 0.40278 0.66359 0.0
H2777 H 0.37096 0.45128 0.66463 0.0
H2778 H 0.37711 0.43838 0.72077 0.0
H2779 H 0.32909 0.38957 0.72 0.0
C2780 C 0.17522 0.3471 0.71474 0.0
C2781 C 0.15491 0.32001 0.72354 0.0
C2782 C 0.20385 0.35194 0.70828 0.0
C2783 C 0.21268 0.32996 0.71077 0.0
C2784 C 0.19367 0.30429 0.72118 0.0
C2785 C 0.16477 0.29911 0.72726 0.0
C2786 C 0.23972 0.3323 0.70071 0.0
C2787 C 0.26833 0.3587 0.70174 0.0
C2788 C 0.23679 0.30928 0.68919 0.0
C2789 C 0.20683 0.28173 0.68639 0.0
C2790 C 0.20384 0.25336 0.68984 0.0
C2791 C 0.17565 0.22736 0.68722 0.0
C2792 C 0.15033 0.22944 0.68105 0.0
C2793 C 0.15316 0.25754 0.67743 0.0
C2794 C 0.18133 0.28361 0.67997 0.0
C2795 C 0.36935 0.35563 0.66174 0.0
C2796 C 0.36342 0.35033 0.64345 0.0
C2797 C 0.34579 0.35193 0.67367 0.0
C2798 C 0.31609 0.34339 0.66747 0.0
C2799 C 0.31018 0.33797 0.64925 0.0
C2800 C 0.33347 0.3412 0.6374 0.0
C2801 C 0.29083 0.33987 0.67975 0.0
C2802 C 0.26252 0.31313 0.67921 0.0
C2803 C 0.2938 0.36299 0.69119 0.0
C2804 C 0.32253 0.39239 0.69169 0.0
C2805 C 0.33448 0.41019 0.67613 0.0
C2806 C 0.36177 0.43775 0.67667 0.0
C2807 C 0.37714 0.44786 0.69275 0.0
C2808 C 0.36521 0.43049 0.70832 0.0
C2809 C 0.33795 0.40289 0.70784 0.0
H2810 H 0.39827 0.4692 0.69314 0.0
H2811 H 0.12857 0.20926 0.679 0.0
H2812 H 0.63229 0.76095 0.71656 0.0
H2813 H 0.61952 0.80065 0.70994 0.0
H2814 H 0.71017 0.86747 0.72625 0.0
H2815 H 0.7235 0.82813 0.7323 0.0
H2816 H 0.6442 0.87084 0.73437 0.0
H2817 H 0.7215 0.8712 0.69053 0.0
H2818 H 0.73865 0.84217 0.67207 0.0
H2819 H 0.65006 0.79785 0.64735 0.0
H2820 H 0.63228 0.82634 0.66592 0.0
H2821 H 0.66348 1.00168 0.68623 0.0
H2822 H 0.66981 0.96365 0.70305 0.0
H2823 H 0.61549 0.89739 0.66424 0.0
H2824 H 0.61052 0.93535 0.64714 0.0
H2825 H 0.66371 0.89392 0.66952 0.0
H2826 H 0.58914 0.90001 0.70821 0.0
H2827 H 0.56791 0.92458 0.72754 0.0
H2828 H 0.64461 0.95243 0.76253 0.0
H2829 H 0.66655 0.92841 0.74326 0.0
C2830 C 0.64917 0.78404 0.71915 0.0
C2831 C 0.67898 0.79162 0.72466 0.0
C2832 C 0.6418 0.8066 0.71548 0.0
C2833 C 0.66393 0.8368 0.71772 0.0
C2834 C 0.6928 0.84421 0.72463 0.0
C2835 C 0.70043 0.82178 0.72789 0.0
C2836 C 0.65916 0.86052 0.70968 0.0
C2837 C 0.64865 0.87626 0.72024 0.0
C2838 C 0.66454 0.86694 0.69126 0.0
C2839 C 0.67553 0.85066 0.67967 0.0
C2840 C 0.70567 0.85515 0.68121 0.0
C2841 C 0.71549 0.8388 0.67074 0.0
C2842 C 0.69544 0.81812 0.65857 0.0
C2843 C 0.66555 0.81385 0.6568 0.0
C2844 C 0.6556 0.83008 0.66728 0.0
C2845 C 0.65281 0.97891 0.68144 0.0
C2846 C 0.63688 0.97145 0.66532 0.0
C2847 C 0.65624 0.95717 0.69108 0.0
C2848 C 0.64303 0.92758 0.68494 0.0
C2849 C 0.62616 0.92008 0.66917 0.0
C2850 C 0.62335 0.94181 0.65939 0.0
C2851 C 0.64825 0.90465 0.69407 0.0
C2852 C 0.65911 0.88888 0.68368 0.0
C2853 C 0.64276 0.89814 0.71262 0.0
C2854 C 0.62967 0.9127 0.72418 0.0
C2855 C 0.60163 0.91161 0.71994 0.0
C2856 C 0.58944 0.9254 0.7309 0.0
C2857 C 0.60495 0.94014 0.74622 0.0
C2858 C 0.63265 0.94106 0.75064 0.0
C2859 C 0.64497 0.92735 0.73971 0.0
H2860 H 0.59546 0.95078 0.7547 0.0
H2861 H 0.70307 0.80546 0.65049 0.0
loop_
_geom_bond_atom_site_label_1
_geom_bond_atom_site_label_2
_geom_bond_distance
_geom_bond_site_symmetry_2
_ccdc_geom_bond_type
Co0 O2 2.143 . S
Co0 O8 2.074 . S
Co0 O11 2.093 . S
Co0 O24 2.097 . S
Co0 N41 2.151 . S
Co0 N49 2.214 1_554 S
Co1 O2 2.160 . S
Co1 O7 2.058 . S
Co1 O17 2.057 . S
Co1 O32 2.037 1_545 S
Co1 N36 2.145 1_545 S
Co1 N57 2.257 . S
O2 Co0 2.143 . S
O2 Co1 2.160 . S
C3 O4 1.278 . S
C3 O11 1.224 . S
O4 C3 1.278 . S
C5 O6 1.245 . S
C5 O17 1.232 . S
O6 C5 1.245 . S
O7 Co1 2.058 . S
O7 C33 1.269 . S
O8 Co0 2.074 . S
O8 C33 1.257 . S
H9 C34 0.930 . S
H10 C40 0.930 . S
O11 Co0 2.093 . S
O11 C3 1.224 . S
H12 C44 0.929 . S
H13 C46 0.930 . S
H14 C47 0.894 1_554 S
H15 C45 0.929 . S
H16 C48 0.928 . S
O17 Co1 2.057 . S
O17 C5 1.232 . S
H18 C37 0.929 . S
H19 C38 0.929 . S
H20 C50 0.931 1_565 S
H21 C42 0.929 . S
H22 C51 0.930 . S
H23 C43 0.931 . S
O24 Co0 2.097 . S
O24 C52 1.214 1_545 S
H25 C53 0.929 . S
H26 C54 0.929 . S
H27 C55 0.930 . S
H28 C56 0.929 . S
H29 C58 0.930 . S
H30 C35 0.930 . S
H31 C39 0.930 . S
O32 Co1 2.037 1_565 S
O32 C52 1.234 . S
C33 O7 1.269 . S
C33 O8 1.257 . S
C34 H9 0.930 . S
C34 C37 1.388 . S
C34 C39 1.418 . S
C35 H30 0.930 . S
C35 C38 1.404 . S
C35 C39 1.353 . S
N36 Co1 2.145 1_565 S
N36 C37 1.397 . S
N36 C38 1.334 . S
C37 H18 0.929 . S
C37 C34 1.388 . S
C37 N36 1.397 . S
C38 H19 0.929 . S
C38 C35 1.404 . S
C38 N36 1.334 . S
C39 H31 0.930 . S
C39 C34 1.418 . S
C39 C35 1.353 . S
C40 H10 0.930 . S
C40 N41 1.330 . S
C40 C42 1.446 . S
N41 Co0 2.151 . S
N41 C40 1.330 . S
N41 C45 1.418 . S
C42 H21 0.929 . S
C42 C40 1.446 . S
C42 C43 1.332 . S
C43 H23 0.931 . S
C43 C42 1.332 . S
C43 C44 1.267 . S
C44 H12 0.929 . S
C44 C43 1.267 . S
C44 C45 1.251 . S
C45 H15 0.929 . S
C45 N41 1.418 . S
C45 C44 1.251 . S
C46 H13 0.930 . S
C46 C48 1.406 . S
C46 C51 1.261 . S
C47 H14 0.894 1_556 S
C47 N49 1.325 . S
C47 C50 1.357 . S
C48 H16 0.928 . S
C48 C46 1.406 . S
C48 N49 1.261 . S
N49 Co0 2.214 1_556 S
N49 C47 1.325 . S
N49 C48 1.261 . S
C50 H20 0.931 1_545 S
C50 C47 1.357 . S
C50 C51 1.312 . S
C51 H22 0.930 . S
C51 C46 1.261 . S
C51 C50 1.312 . S
C52 O24 1.214 1_565 S
C52 O32 1.234 . S
C53 H25 0.929 . S
C53 C56 1.391 . S
C53 C58 1.391 . S
C54 H26 0.929 . S
C54 C55 1.390 . S
C54 N57 1.391 1_565 S
C55 H27 0.930 . S
C55 C54 1.390 . S
C55 C56 1.392 1_565 S
C56 H28 0.929 . S
C56 C53 1.391 . S
C56 C55 1.392 1_545 S
N57 Co1 2.257 . S
N57 C54 1.391 1_545 S
N57 C58 1.388 . S
C58 H29 0.930 . S
C58 C53 1.391 . S
C58 N57 1.388 . S
Co59 O61 2.143 . S
Co59 O67 2.074 . S
Co59 O70 2.093 1_554 S
Co59 O83 2.097 . S
Co59 N100 2.151 . S
Co59 N108 2.214 1_554 S
Co60 O61 2.160 . S
Co60 O66 2.058 . S
Co60 O76 2.057 . S
Co60 O91 2.037 . S
Co60 N95 2.145 . S
Co60 N116 2.257 . S
O61 Co59 2.143 . S
O61 Co60 2.160 . S
C62 O63 1.278 . S
C62 O70 1.224 1_554 S
O63 C62 1.278 . S
C64 O65 1.245 . S
C64 O76 1.232 . S
O65 C64 1.245 . S
O66 Co60 2.058 . S
O66 C92 1.269 . S
O67 Co59 2.074 . S
O67 C92 1.257 . S
H68 C93 0.930 . S
H69 C99 0.930 . S
O70 Co59 2.093 1_556 S
O70 C62 1.224 1_556 S
H71 C103 0.929 . S
H72 C105 0.930 . S
H73 C106 0.930 . S
H74 C104 0.929 . S
H75 C107 0.928 . S
O76 Co60 2.057 . S
O76 C64 1.232 . S
H77 C96 0.929 . S
H78 C97 0.929 . S
H79 C109 0.931 . S
H80 C101 0.929 . S
H81 C110 0.930 . S
H82 C102 0.933 . S
O83 Co59 2.097 . S
O83 C111 1.214 . S
H84 C112 0.929 . S
H85 C113 0.929 . S
H86 C114 0.930 . S
H87 C115 0.929 . S
H88 C117 0.930 . S
H89 C94 0.930 . S
H90 C98 0.930 . S
O91 Co60 2.037 . S
O91 C111 1.234 . S
C92 O66 1.269 . S
C92 O67 1.257 . S
C93 H68 0.930 . S
C93 C96 1.388 . S
C93 C98 1.418 . S
C94 H89 0.930 . S
C94 C97 1.404 . S
C94 C98 1.352 1_655 S
N95 Co60 2.145 . S
N95 C96 1.397 1_655 S
N95 C97 1.334 . S
C96 H77 0.929 . S
C96 C93 1.388 . S
C96 N95 1.397 1_455 S
C97 H78 0.929 . S
C97 C94 1.404 . S
C97 N95 1.334 . S
C98 H90 0.930 . S
C98 C93 1.418 . S
C98 C94 1.352 1_455 S
C99 H69 0.930 . S
C99 N100 1.330 . S
C99 C101 1.446 . S
N100 Co59 2.151 . S
N100 C99 1.330 . S
N100 C104 1.418 1_554 S
C101 H80 0.929 . S
C101 C99 1.446 . S
C101 C102 1.326 1_554 S
C102 H82 0.933 . S
C102 C101 1.326 1_556 S
C102 C103 1.270 . S
C103 H71 0.929 . S
C103 C102 1.270 . S
C103 C104 1.251 . S
C104 H74 0.929 . S
C104 N100 1.418 1_556 S
C104 C103 1.251 . S
C105 H72 0.930 . S
C105 C107 1.406 . S
C105 C110 1.261 . S
C106 H73 0.930 . S
C106 N108 1.325 . S
C106 C109 1.357 . S
C107 H75 0.928 . S
C107 C105 1.406 . S
C107 N108 1.261 . S
N108 Co59 2.214 1_556 S
N108 C106 1.325 . S
N108 C107 1.261 . S
C109 H79 0.931 . S
C109 C106 1.357 . S
C109 C110 1.312 . S
C110 H81 0.930 . S
C110 C105 1.261 . S
C110 C109 1.312 . S
C111 O83 1.214 . S
C111 O91 1.234 . S
C112 H84 0.929 . S
C112 C115 1.391 . S
C112 C117 1.391 . S
C113 H85 0.929 . S
C113 C114 1.390 . S
C113 N116 1.391 . S
C114 H86 0.930 . S
C114 C113 1.390 . S
C114 C115 1.392 . S
C115 H87 0.929 . S
C115 C112 1.391 . S
C115 C114 1.392 . S
N116 Co60 2.257 . S
N116 C113 1.391 . S
N116 C117 1.388 . S
C117 H88 0.930 . S
C117 C112 1.391 . S
C117 N116 1.388 . S
Co118 O120 2.143 . S
Co118 O126 2.074 . S
Co118 O129 2.093 . S
Co118 O142 2.097 . S
Co118 N159 2.151 . S
Co118 N167 2.214 . S
Co119 O120 2.160 . S
Co119 O125 2.058 . S
Co119 O135 2.057 . S
Co119 O150 2.037 . S
Co119 N154 2.145 . S
Co119 N175 2.257 . S
O120 Co118 2.143 . S
O120 Co119 2.160 . S
C121 O122 1.278 . S
C121 O129 1.224 . S
O122 C121 1.278 . S
C123 O124 1.245 . S
C123 O135 1.232 . S
O124 C123 1.245 . S
O125 Co119 2.058 . S
O125 C151 1.269 . S
O126 Co118 2.074 . S
O126 C151 1.257 . S
H127 C152 0.930 . S
H128 C158 0.930 . S
O129 Co118 2.093 . S
O129 C121 1.224 . S
H130 C162 0.929 . S
H131 C164 0.930 . S
H132 C165 0.930 . S
H133 C163 0.929 . S
H134 C166 0.935 . S
O135 Co119 2.057 . S
O135 C123 1.232 . S
H136 C155 0.929 . S
H137 C156 0.929 . S
H138 C168 0.931 . S
H139 C160 0.929 . S
H140 C169 0.930 . S
H141 C161 0.931 . S
O142 Co118 2.097 . S
O142 C170 1.214 . S
H143 C171 0.929 . S
H144 C172 0.929 . S
H145 C173 0.930 . S
H146 C174 0.929 . S
H147 C176 0.930 . S
H148 C153 0.930 . S
H149 C157 0.930 . S
O150 Co119 2.037 . S
O150 C170 1.234 . S
C151 O125 1.269 . S
C151 O126 1.257 . S
C152 H127 0.930 . S
C152 C155 1.388 . S
C152 C157 1.418 . S
C153 H148 0.930 . S
C153 C156 1.404 . S
C153 C157 1.353 . S
N154 Co119 2.145 . S
N154 C155 1.397 . S
N154 C156 1.334 . S
C155 H136 0.929 . S
C155 C152 1.388 . S
C155 N154 1.397 . S
C156 H137 0.929 . S
C156 C153 1.404 . S
C156 N154 1.334 . S
C157 H149 0.930 . S
C157 C152 1.418 . S
C157 C153 1.353 . S
C158 H128 0.930 . S
C158 N159 1.330 . S
C158 C160 1.446 . S
N159 Co118 2.151 . S
N159 C158 1.330 . S
N159 C163 1.418 . S
C160 H139 0.929 . S
C160 C158 1.446 . S
C160 C161 1.332 . S
C161 H141 0.931 . S
C161 C160 1.332 . S
C161 C162 1.267 . S
C162 H130 0.929 . S
C162 C161 1.267 . S
C162 C163 1.251 . S
C163 H133 0.929 . S
C163 N159 1.418 . S
C163 C162 1.251 . S
C164 H131 0.930 . S
C164 C166 1.378 1_556 S
C164 C169 1.261 . S
C165 H132 0.930 . S
C165 N167 1.325 . S
C165 C168 1.357 1_554 S
C166 H134 0.935 . S
C166 C164 1.378 1_554 S
C166 N167 1.283 . S
N167 Co118 2.214 . S
N167 C165 1.325 . S
N167 C166 1.283 . S
C168 H138 0.931 . S
C168 C165 1.357 1_556 S
C168 C169 1.312 . S
C169 H140 0.930 . S
C169 C164 1.261 . S
C169 C168 1.312 . S
C170 O142 1.214 . S
C170 O150 1.234 . S
C171 H143 0.929 . S
C171 C174 1.391 . S
C171 C176 1.391 . S
C172 H144 0.929 . S
C172 C173 1.390 . S
C172 N175 1.391 . S
C173 H145 0.930 . S
C173 C172 1.390 . S
C173 C174 1.392 . S
C174 H146 0.929 . S
C174 C171 1.391 . S
C174 C173 1.392 . S
N175 Co119 2.257 . S
N175 C172 1.391 . S
N175 C176 1.388 . S
C176 H147 0.930 . S
C176 C171 1.391 . S
C176 N175 1.388 . S
Co177 O179 2.143 . S
Co177 O185 2.074 . S
Co177 O188 2.093 . S
Co177 O201 2.097 . S
Co177 N218 2.151 . S
Co177 N226 2.214 1_556 S
Co178 O179 2.160 . S
Co178 O184 2.058 . S
Co178 O194 2.057 . S
Co178 O209 2.037 . S
Co178 N213 2.145 . S
Co178 N234 2.257 . S
O179 Co177 2.143 . S
O179 Co178 2.160 . S
C180 O181 1.278 . S
C180 O188 1.224 . S
O181 C180 1.278 . S
C182 O183 1.245 . S
C182 O194 1.232 . S
O183 C182 1.245 . S
O184 Co178 2.058 . S
O184 C210 1.269 . S
O185 Co177 2.074 . S
O185 C210 1.257 . S
H186 C211 0.930 . S
H187 C217 0.930 . S
O188 Co177 2.093 . S
O188 C180 1.224 . S
H189 C221 0.929 . S
H190 C223 0.930 . S
H191 C224 0.930 1_556 S
H192 C222 0.929 . S
H193 C225 0.928 . S
O194 Co178 2.057 . S
O194 C182 1.232 . S
H195 C214 0.929 . S
H196 C215 0.929 . S
H197 C227 0.931 . S
H198 C219 0.929 . S
H199 C228 0.930 . S
H200 C220 0.931 . S
O201 Co177 2.097 . S
O201 C229 1.214 . S
H202 C230 0.929 . S
H203 C231 0.929 . S
H204 C232 0.930 . S
H205 C233 0.929 . S
H206 C235 0.930 . S
H207 C212 0.930 . S
H208 C216 0.930 . S
O209 Co178 2.037 . S
O209 C229 1.234 . S
C210 O184 1.269 . S
C210 O185 1.257 . S
C211 H186 0.930 . S
C211 C214 1.388 1_545 S
C211 C216 1.418 . S
C212 H207 0.930 . S
C212 C215 1.404 . S
C212 C216 1.353 1_565 S
N213 Co178 2.145 . S
N213 C214 1.397 . S
N213 C215 1.334 . S
C214 H195 0.929 . S
C214 C211 1.388 1_565 S
C214 N213 1.397 . S
C215 H196 0.929 . S
C215 C212 1.404 . S
C215 N213 1.334 . S
C216 H208 0.930 . S
C216 C211 1.418 . S
C216 C212 1.353 1_545 S
C217 H187 0.930 . S
C217 N218 1.330 . S
C217 C219 1.446 . S
N218 Co177 2.151 . S
N218 C217 1.330 . S
N218 C222 1.418 . S
C219 H198 0.929 . S
C219 C217 1.446 . S
C219 C220 1.332 . S
C220 H200 0.931 . S
C220 C219 1.332 . S
C220 C221 1.267 . S
C221 H189 0.929 . S
C221 C220 1.267 . S
C221 C222 1.251 . S
C222 H192 0.929 . S
C222 N218 1.418 . S
C222 C221 1.251 . S
C223 H190 0.930 . S
C223 C225 1.406 . S
C223 C228 1.261 . S
C224 H191 0.930 1_554 S
C224 N226 1.325 . S
C224 C227 1.357 . S
C225 H193 0.928 . S
C225 C223 1.406 . S
C225 N226 1.261 . S
N226 Co177 2.214 1_554 S
N226 C224 1.325 . S
N226 C225 1.261 . S
C227 H197 0.931 . S
C227 C224 1.357 . S
C227 C228 1.312 . S
C228 H199 0.930 . S
C228 C223 1.261 . S
C228 C227 1.312 . S
C229 O201 1.214 . S
C229 O209 1.234 . S
C230 H202 0.929 . S
C230 C233 1.391 . S
C230 C235 1.391 . S
C231 H203 0.929 . S
C231 C232 1.390 . S
C231 N234 1.391 . S
C232 H204 0.930 . S
C232 C231 1.390 . S
C232 C233 1.392 . S
C233 H205 0.929 . S
C233 C230 1.391 . S
C233 C232 1.392 . S
N234 Co178 2.257 . S
N234 C231 1.391 . S
N234 C235 1.388 . S
C235 H206 0.930 . S
C235 C230 1.391 . S
C235 N234 1.388 . S
Co236 O238 2.143 . S
Co236 O244 2.074 . S
Co236 O247 2.093 . S
Co236 O260 2.097 . S
Co236 N277 2.151 . S
Co236 N285 2.214 . S
Co237 O238 2.160 . S
Co237 O243 2.058 . S
Co237 O253 2.057 . S
Co237 O268 2.037 . S
Co237 N272 2.145 . S
Co237 N293 2.257 . S
O238 Co236 2.143 . S
O238 Co237 2.160 . S
C239 O240 1.278 . S
C239 O247 1.224 . S
O240 C239 1.278 . S
C241 O242 1.245 . S
C241 O253 1.232 . S
O242 C241 1.245 . S
O243 Co237 2.058 . S
O243 C269 1.269 . S
O244 Co236 2.074 . S
O244 C269 1.257 . S
H245 C270 0.930 . S
H246 C276 0.930 . S
O247 Co236 2.093 . S
O247 C239 1.224 . S
H248 C280 0.929 . S
H249 C282 0.930 . S
H250 C283 0.949 . S
H251 C281 0.929 . S
H252 C284 0.928 . S
O253 Co237 2.057 . S
O253 C241 1.232 . S
H254 C273 0.929 . S
H255 C274 0.929 . S
H256 C286 0.931 . S
H257 C278 0.929 . S
H258 C287 0.930 . S
H259 C279 0.931 . S
O260 Co236 2.097 . S
O260 C288 1.214 . S
H261 C289 0.929 . S
H262 C290 0.929 . S
H263 C291 0.930 . S
H264 C292 0.929 . S
H265 C294 0.930 . S
H266 C271 0.930 . S
H267 C275 0.930 . S
O268 Co237 2.037 . S
O268 C288 1.234 . S
C269 O243 1.269 . S
C269 O244 1.257 . S
C270 H245 0.930 . S
C270 C273 1.388 . S
C270 C275 1.418 . S
C271 H266 0.930 . S
C271 C274 1.404 1_655 S
C271 C275 1.353 . S
N272 Co237 2.145 . S
N272 C273 1.397 1_455 S
N272 C274 1.334 . S
C273 H254 0.929 . S
C273 C270 1.388 . S
C273 N272 1.397 1_655 S
C274 H255 0.929 . S
C274 C271 1.404 1_455 S
C274 N272 1.334 . S
C275 H267 0.930 . S
C275 C270 1.418 . S
C275 C271 1.353 . S
C276 H246 0.930 . S
C276 N277 1.330 . S
C276 C278 1.446 . S
N277 Co236 2.151 . S
N277 C276 1.330 . S
N277 C281 1.418 . S
C278 H257 0.929 . S
C278 C276 1.446 . S
C278 C279 1.332 . S
C279 H259 0.931 . S
C279 C278 1.332 . S
C279 C280 1.267 . S
C280 H248 0.929 . S
C280 C279 1.267 . S
C280 C281 1.251 . S
C281 H251 0.929 . S
C281 N277 1.418 . S
C281 C280 1.251 . S
C282 H249 0.930 . S
C282 C284 1.406 . S
C282 C287 1.261 . S
C283 H250 0.949 . S
C283 N285 1.334 . S
C283 C286 1.331 1_556 S
C284 H252 0.928 . S
C284 C282 1.406 . S
C284 N285 1.261 1_554 S
N285 Co236 2.214 . S
N285 C283 1.334 . S
N285 C284 1.261 1_556 S
C286 H256 0.931 . S
C286 C283 1.331 1_554 S
C286 C287 1.312 . S
C287 H258 0.930 . S
C287 C282 1.261 . S
C287 C286 1.312 . S
C288 O260 1.214 . S
C288 O268 1.234 . S
C289 H261 0.929 . S
C289 C292 1.391 . S
C289 C294 1.391 . S
C290 H262 0.929 . S
C290 C291 1.390 . S
C290 N293 1.391 . S
C291 H263 0.930 . S
C291 C290 1.390 . S
C291 C292 1.392 . S
C292 H264 0.929 . S
C292 C289 1.391 . S
C292 C291 1.392 . S
N293 Co237 2.257 . S
N293 C290 1.391 . S
N293 C294 1.388 . S
C294 H265 0.930 . S
C294 C289 1.391 . S
C294 N293 1.388 . S
Co295 O297 2.143 . S
Co295 O303 2.074 . S
Co295 O306 2.093 . S
Co295 O319 2.097 . S
Co295 N336 2.151 . S
Co295 N344 2.214 . S
Co296 O297 2.160 . S
Co296 O302 2.058 . S
Co296 O312 2.057 . S
Co296 O327 2.037 . S
Co296 N331 2.145 . S
Co296 N352 2.257 . S
O297 Co295 2.143 . S
O297 Co296 2.160 . S
C298 O299 1.278 . S
C298 O306 1.224 . S
O299 C298 1.278 . S
C300 O301 1.245 . S
C300 O312 1.232 . S
O301 C300 1.245 . S
O302 Co296 2.058 . S
O302 C328 1.269 . S
O303 Co295 2.074 . S
O303 C328 1.257 . S
H304 C329 0.930 . S
H305 C335 0.930 1_556 S
O306 Co295 2.093 . S
O306 C298 1.224 . S
H307 C339 0.929 . S
H308 C341 0.930 . S
H309 C342 0.930 . S
H310 C340 0.929 1_556 S
H311 C343 0.928 . S
O312 Co296 2.057 . S
O312 C300 1.232 . S
H313 C332 0.929 . S
H314 C333 0.929 . S
H315 C345 0.931 . S
H316 C337 0.929 . S
H317 C346 0.930 . S
H318 C338 0.931 . S
O319 Co295 2.097 . S
O319 C347 1.214 . S
H320 C348 0.929 . S
H321 C349 0.929 . S
H322 C350 0.930 . S
H323 C351 0.929 . S
H324 C353 0.930 . S
H325 C330 0.930 . S
H326 C334 0.930 . S
O327 Co296 2.037 . S
O327 C347 1.234 . S
C328 O302 1.269 . S
C328 O303 1.257 . S
C329 H304 0.930 . S
C329 C332 1.388 . S
C329 C334 1.418 . S
C330 H325 0.930 . S
C330 C333 1.404 . S
C330 C334 1.353 . S
N331 Co296 2.145 . S
N331 C332 1.397 . S
N331 C333 1.334 . S
C332 H313 0.929 . S
C332 C329 1.388 . S
C332 N331 1.397 . S
C333 H314 0.929 . S
C333 C330 1.404 . S
C333 N331 1.334 . S
C334 H326 0.930 . S
C334 C329 1.418 . S
C334 C330 1.353 . S
C335 H305 0.930 1_554 S
C335 N336 1.330 1_554 S
C335 C337 1.446 . S
N336 Co295 2.151 . S
N336 C335 1.330 1_556 S
N336 C340 1.418 1_556 S
C337 H316 0.929 . S
C337 C335 1.446 . S
C337 C338 1.332 . S
C338 H318 0.931 . S
C338 C337 1.332 . S
C338 C339 1.267 . S
C339 H307 0.929 . S
C339 C338 1.267 . S
C339 C340 1.251 . S
C340 H310 0.929 1_554 S
C340 N336 1.418 1_554 S
C340 C339 1.251 . S
C341 H308 0.930 . S
C341 C343 1.406 . S
C341 C346 1.261 . S
C342 H309 0.930 . S
C342 N344 1.325 . S
C342 C345 1.357 . S
C343 H311 0.928 . S
C343 C341 1.406 . S
C343 N344 1.261 . S
N344 Co295 2.214 . S
N344 C342 1.325 . S
N344 C343 1.261 . S
C345 H315 0.931 . S
C345 C342 1.357 . S
C345 C346 1.312 . S
C346 H317 0.930 . S
C346 C341 1.261 . S
C346 C345 1.312 . S
C347 O319 1.214 . S
C347 O327 1.234 . S
C348 H320 0.929 . S
C348 C351 1.391 . S
C348 C353 1.391 . S
C349 H321 0.929 . S
C349 C350 1.390 . S
C349 N352 1.391 . S
C350 H322 0.930 . S
C350 C349 1.390 . S
C350 C351 1.392 . S
C351 H323 0.929 . S
C351 C348 1.391 . S
C351 C350 1.392 . S
N352 Co296 2.257 . S
N352 C349 1.391 . S
N352 C353 1.388 . S
C353 H324 0.930 . S
C353 C348 1.391 . S
C353 N352 1.388 . S
Co354 O356 2.143 . S
Co354 O362 2.074 . S
Co354 O365 2.109 . S
Co354 O378 2.097 1_455 S
Co354 N395 2.151 . S
Co354 N403 2.214 . S
Co355 O356 2.160 1_655 S
Co355 O361 2.058 1_655 S
Co355 O371 2.057 1_655 S
Co355 O386 2.037 . S
Co355 N390 2.145 . S
Co355 N411 2.257 . S
O356 Co354 2.143 . S
O356 Co355 2.160 1_455 S
C357 O358 1.278 . S
C357 O365 1.209 1_655 S
O358 C357 1.278 . S
C359 O360 1.245 . S
C359 O371 1.232 . S
O360 C359 1.245 . S
O361 Co355 2.058 1_455 S
O361 C387 1.269 . S
O362 Co354 2.074 . S
O362 C387 1.257 . S
H363 C388 0.930 . S
H364 C394 0.930 . S
O365 Co354 2.109 . S
O365 C357 1.209 1_455 S
H366 C398 0.929 . S
H367 C400 0.930 . S
H368 C401 0.930 . S
H369 C399 0.929 . S
H370 C402 0.928 . S
O371 Co355 2.057 1_455 S
O371 C359 1.232 . S
H372 C391 0.929 . S
H373 C392 0.929 . S
H374 C404 0.931 . S
H375 C396 0.929 . S
H376 C405 0.930 . S
H377 C397 0.931 . S
O378 Co354 2.097 1_655 S
O378 C406 1.214 . S
H379 C407 0.929 . S
H380 C408 0.929 . S
H381 C409 0.930 . S
H382 C410 0.929 . S
H383 C412 0.930 . S
H384 C389 0.930 . S
H385 C393 0.930 . S
O386 Co355 2.037 . S
O386 C406 1.234 . S
C387 O361 1.269 . S
C387 O362 1.257 . S
C388 H363 0.930 . S
C388 C391 1.388 . S
C388 C393 1.418 . S
C389 H384 0.930 . S
C389 C392 1.404 . S
C389 C393 1.353 . S
N390 Co355 2.145 . S
N390 C391 1.397 . S
N390 C392 1.334 . S
C391 H372 0.929 . S
C391 C388 1.388 . S
C391 N390 1.397 . S
C392 H373 0.929 . S
C392 C389 1.404 . S
C392 N390 1.334 . S
C393 H385 0.930 . S
C393 C388 1.418 . S
C393 C389 1.353 . S
C394 H364 0.930 . S
C394 N395 1.330 . S
C394 C396 1.446 . S
N395 Co354 2.151 . S
N395 C394 1.330 . S
N395 C399 1.418 . S
C396 H375 0.929 . S
C396 C394 1.446 . S
C396 C397 1.332 . S
C397 H377 0.931 . S
C397 C396 1.332 . S
C397 C398 1.267 . S
C398 H366 0.929 . S
C398 C397 1.267 . S
C398 C399 1.251 . S
C399 H369 0.929 . S
C399 N395 1.418 . S
C399 C398 1.251 . S
C400 H367 0.930 . S
C400 C402 1.406 . S
C400 C405 1.261 . S
C401 H368 0.930 . S
C401 N403 1.325 . S
C401 C404 1.357 . S
C402 H370 0.928 . S
C402 C400 1.406 . S
C402 N403 1.261 . S
N403 Co354 2.214 . S
N403 C401 1.325 . S
N403 C402 1.261 . S
C404 H374 0.931 . S
C404 C401 1.357 . S
C404 C405 1.312 . S
C405 H376 0.930 . S
C405 C400 1.261 . S
C405 C404 1.312 . S
C406 O378 1.214 . S
C406 O386 1.234 . S
C407 H379 0.929 . S
C407 C410 1.391 . S
C407 C412 1.391 . S
C408 H380 0.929 . S
C408 C409 1.390 . S
C408 N411 1.391 . S
C409 H381 0.930 . S
C409 C408 1.390 . S
C409 C410 1.392 . S
C410 H382 0.929 . S
C410 C407 1.391 . S
C410 C409 1.392 . S
N411 Co355 2.257 . S
N411 C408 1.391 . S
N411 C412 1.388 . S
C412 H383 0.930 . S
C412 C407 1.391 . S
C412 N411 1.388 . S
Co413 O415 2.143 . S
Co413 O421 2.074 . S
Co413 O424 2.093 . S
Co413 O437 2.097 . S
Co413 N454 2.151 . S
Co413 N462 2.214 . S
Co414 O415 2.160 . S
Co414 O420 2.058 . S
Co414 O430 2.057 . S
Co414 O445 2.037 . S
Co414 N449 2.145 . S
Co414 N470 2.257 . S
O415 Co413 2.143 . S
O415 Co414 2.160 . S
C416 O417 1.278 . S
C416 O424 1.224 . S
O417 C416 1.278 . S
C418 O419 1.245 . S
C418 O430 1.232 . S
O419 C418 1.245 . S
O420 Co414 2.058 . S
O420 C446 1.269 . S
O421 Co413 2.074 . S
O421 C446 1.257 . S
H422 C447 0.930 . S
H423 C453 0.930 . S
O424 Co413 2.093 . S
O424 C416 1.224 . S
H425 C457 0.929 . S
H426 C459 0.930 . S
H427 C460 0.930 . S
H428 C458 0.929 . S
H429 C461 0.928 . S
O430 Co414 2.057 . S
O430 C418 1.232 . S
H431 C450 0.929 . S
H432 C451 0.929 . S
H433 C463 0.931 . S
H434 C455 0.929 . S
H435 C464 0.930 . S
H436 C456 0.931 . S
O437 Co413 2.097 . S
O437 C465 1.214 . S
H438 C466 0.929 . S
H439 C467 0.929 . S
H440 C468 0.930 . S
H441 C469 0.929 . S
H442 C471 0.930 . S
H443 C448 0.930 . S
H444 C452 0.930 . S
O445 Co414 2.037 . S
O445 C465 1.234 . S
C446 O420 1.269 . S
C446 O421 1.257 . S
C447 H422 0.930 . S
C447 C450 1.388 . S
C447 C452 1.418 . S
C448 H443 0.930 . S
C448 C451 1.404 . S
C448 C452 1.353 . S
N449 Co414 2.145 . S
N449 C450 1.397 . S
N449 C451 1.334 . S
C450 H431 0.929 . S
C450 C447 1.388 . S
C450 N449 1.397 . S
C451 H432 0.929 . S
C451 C448 1.404 . S
C451 N449 1.334 . S
C452 H444 0.930 . S
C452 C447 1.418 . S
C452 C448 1.353 . S
C453 H423 0.930 . S
C453 N454 1.330 . S
C453 C455 1.446 . S
N454 Co413 2.151 . S
N454 C453 1.330 . S
N454 C458 1.418 . S
C455 H434 0.929 . S
C455 C453 1.446 . S
C455 C456 1.332 . S
C456 H436 0.931 . S
C456 C455 1.332 . S
C456 C457 1.267 . S
C457 H425 0.929 . S
C457 C456 1.267 . S
C457 C458 1.251 . S
C458 H428 0.929 . S
C458 N454 1.418 . S
C458 C457 1.251 . S
C459 H426 0.930 . S
C459 C461 1.406 . S
C459 C464 1.261 . S
C460 H427 0.930 . S
C460 N462 1.325 . S
C460 C463 1.357 . S
C461 H429 0.928 . S
C461 C459 1.406 . S
C461 N462 1.261 . S
N462 Co413 2.214 . S
N462 C460 1.325 . S
N462 C461 1.261 . S
C463 H433 0.931 . S
C463 C460 1.357 . S
C463 C464 1.312 . S
C464 H435 0.930 . S
C464 C459 1.261 . S
C464 C463 1.312 . S
C465 O437 1.214 . S
C465 O445 1.234 . S
C466 H438 0.929 . S
C466 C469 1.391 . S
C466 C471 1.391 . S
C467 H439 0.929 . S
C467 C468 1.390 . S
C467 N470 1.391 . S
C468 H440 0.930 . S
C468 C467 1.390 . S
C468 C469 1.392 . S
C469 H441 0.929 . S
C469 C466 1.391 . S
C469 C468 1.392 . S
N470 Co414 2.257 . S
N470 C467 1.391 . S
N470 C471 1.388 . S
C471 H442 0.930 . S
C471 C466 1.391 . S
C471 N470 1.388 . S
Co472 O474 2.143 . S
Co472 O480 2.074 . S
Co472 O483 2.093 1_565 S
Co472 O496 2.097 1_565 S
Co472 N513 2.151 . S
Co472 N521 2.214 . S
Co473 O474 2.160 1_545 S
Co473 O479 2.058 1_545 S
Co473 O489 2.057 1_545 S
Co473 O504 2.037 . S
Co473 N508 2.145 . S
Co473 N529 2.257 . S
O474 Co472 2.143 . S
O474 Co473 2.160 1_565 S
C475 O476 1.278 . S
C475 O483 1.224 . S
O476 C475 1.278 . S
C477 O478 1.245 . S
C477 O489 1.232 . S
O478 C477 1.245 . S
O479 Co473 2.058 1_565 S
O479 C505 1.269 . S
O480 Co472 2.074 . S
O480 C505 1.257 . S
H481 C506 0.930 . S
H482 C512 0.930 . S
O483 Co472 2.093 1_545 S
O483 C475 1.224 . S
H484 C516 0.929 . S
H485 C518 0.930 . S
H486 C519 0.930 . S
H487 C517 0.929 . S
H488 C520 0.928 . S
O489 Co473 2.057 1_565 S
O489 C477 1.232 . S
H490 C509 0.929 . S
H491 C510 0.929 . S
H492 C522 0.931 . S
H493 C514 0.929 . S
H494 C523 0.930 . S
H495 C515 0.931 . S
O496 Co472 2.097 1_545 S
O496 C524 1.214 . S
H497 C525 0.929 . S
H498 C526 0.929 . S
H499 C527 0.930 . S
H500 C528 0.929 . S
H501 C530 0.930 . S
H502 C507 0.930 . S
H503 C511 0.930 . S
O504 Co473 2.037 . S
O504 C524 1.234 . S
C505 O479 1.269 . S
C505 O480 1.257 . S
C506 H481 0.930 . S
C506 C509 1.388 . S
C506 C511 1.418 . S
C507 H502 0.930 . S
C507 C510 1.404 . S
C507 C511 1.353 . S
N508 Co473 2.145 . S
N508 C509 1.397 . S
N508 C510 1.334 . S
C509 H490 0.929 . S
C509 C506 1.388 . S
C509 N508 1.397 . S
C510 H491 0.929 . S
C510 C507 1.404 . S
C510 N508 1.334 . S
C511 H503 0.930 . S
C511 C506 1.418 . S
C511 C507 1.353 . S
C512 H482 0.930 . S
C512 N513 1.330 . S
C512 C514 1.446 . S
N513 Co472 2.151 . S
N513 C512 1.330 . S
N513 C517 1.418 . S
C514 H493 0.929 . S
C514 C512 1.446 . S
C514 C515 1.332 . S
C515 H495 0.931 . S
C515 C514 1.332 . S
C515 C516 1.267 . S
C516 H484 0.929 . S
C516 C515 1.267 . S
C516 C517 1.251 . S
C517 H487 0.929 . S
C517 N513 1.418 . S
C517 C516 1.251 . S
C518 H485 0.930 . S
C518 C520 1.406 . S
C518 C523 1.261 . S
C519 H486 0.930 . S
C519 N521 1.325 . S
C519 C522 1.357 . S
C520 H488 0.928 . S
C520 C518 1.406 . S
C520 N521 1.261 . S
N521 Co472 2.214 . S
N521 C519 1.325 . S
N521 C520 1.261 . S
C522 H492 0.931 . S
C522 C519 1.357 . S
C522 C523 1.312 . S
C523 H494 0.930 . S
C523 C518 1.261 . S
C523 C522 1.312 . S
C524 O496 1.214 . S
C524 O504 1.234 . S
C525 H497 0.929 . S
C525 C528 1.391 . S
C525 C530 1.391 . S
C526 H498 0.929 . S
C526 C527 1.390 . S
C526 N529 1.391 . S
C527 H499 0.930 . S
C527 C526 1.390 . S
C527 C528 1.392 . S
C528 H500 0.929 . S
C528 C525 1.391 . S
C528 C527 1.392 . S
N529 Co473 2.257 . S
N529 C526 1.391 . S
N529 C530 1.388 . S
C530 H501 0.930 . S
C530 C525 1.391 . S
C530 N529 1.388 . S
Co531 O533 2.143 . S
Co531 O539 2.074 . S
Co531 O542 2.093 . S
Co531 O555 2.097 . S
Co531 N572 2.151 . S
Co531 N580 2.214 . S
Co532 O533 2.160 . S
Co532 O538 2.058 . S
Co532 O548 2.057 . S
Co532 O563 2.037 . S
Co532 N567 2.145 . S
Co532 N588 2.257 . S
O533 Co531 2.143 . S
O533 Co532 2.160 . S
C534 O535 1.278 . S
C534 O542 1.224 . S
O535 C534 1.278 . S
C536 O537 1.245 . S
C536 O548 1.232 . S
O537 C536 1.245 . S
O538 Co532 2.058 . S
O538 C564 1.269 . S
O539 Co531 2.074 . S
O539 C564 1.257 . S
H540 C565 0.930 . S
H541 C571 0.930 . S
O542 Co531 2.093 . S
O542 C534 1.224 . S
H543 C575 0.929 . S
H544 C577 0.930 . S
H545 C578 0.930 . S
H546 C576 0.929 . S
H547 C579 0.928 . S
O548 Co532 2.057 . S
O548 C536 1.232 . S
H549 C568 0.929 . S
H550 C569 0.929 . S
H551 C581 0.931 . S
H552 C573 0.929 . S
H553 C582 0.930 . S
H554 C574 0.931 . S
O555 Co531 2.097 . S
O555 C583 1.214 . S
H556 C584 0.929 . S
H557 C585 0.929 . S
H558 C586 0.930 . S
H559 C587 0.929 . S
H560 C589 0.930 . S
H561 C566 0.930 . S
H562 C570 0.930 . S
O563 Co532 2.037 . S
O563 C583 1.234 . S
C564 O538 1.269 . S
C564 O539 1.257 . S
C565 H540 0.930 . S
C565 C568 1.388 . S
C565 C570 1.418 . S
C566 H561 0.930 . S
C566 C569 1.404 . S
C566 C570 1.353 . S
N567 Co532 2.145 . S
N567 C568 1.397 . S
N567 C569 1.334 . S
C568 H549 0.929 . S
C568 C565 1.388 . S
C568 N567 1.397 . S
C569 H550 0.929 . S
C569 C566 1.404 . S
C569 N567 1.334 . S
C570 H562 0.930 . S
C570 C565 1.418 . S
C570 C566 1.353 . S
C571 H541 0.930 . S
C571 N572 1.330 . S
C571 C573 1.446 . S
N572 Co531 2.151 . S
N572 C571 1.330 . S
N572 C576 1.418 . S
C573 H552 0.929 . S
C573 C571 1.446 . S
C573 C574 1.332 . S
C574 H554 0.931 . S
C574 C573 1.332 . S
C574 C575 1.267 . S
C575 H543 0.929 . S
C575 C574 1.267 . S
C575 C576 1.251 . S
C576 H546 0.929 . S
C576 N572 1.418 . S
C576 C575 1.251 . S
C577 H544 0.930 . S
C577 C579 1.406 . S
C577 C582 1.261 . S
C578 H545 0.930 . S
C578 N580 1.325 . S
C578 C581 1.357 . S
C579 H547 0.928 . S
C579 C577 1.406 . S
C579 N580 1.261 . S
N580 Co531 2.214 . S
N580 C578 1.325 . S
N580 C579 1.261 . S
C581 H551 0.931 . S
C581 C578 1.357 . S
C581 C582 1.312 . S
C582 H553 0.930 . S
C582 C577 1.261 . S
C582 C581 1.312 . S
C583 O555 1.214 . S
C583 O563 1.234 . S
C584 H556 0.929 . S
C584 C587 1.391 . S
C584 C589 1.391 . S
C585 H557 0.929 . S
C585 C586 1.390 . S
C585 N588 1.391 . S
C586 H558 0.930 . S
C586 C585 1.390 . S
C586 C587 1.392 . S
C587 H559 0.929 . S
C587 C584 1.391 . S
C587 C586 1.392 . S
N588 Co532 2.257 . S
N588 C585 1.391 . S
N588 C589 1.388 . S
C589 H560 0.930 . S
C589 C584 1.391 . S
C589 N588 1.388 . S
Co590 O592 2.143 . S
Co590 O598 2.074 . S
Co590 O601 2.093 . S
Co590 O614 2.097 . S
Co590 N631 2.151 . S
Co590 N639 2.214 . S
Co591 O592 2.160 . S
Co591 O597 2.072 . S
Co591 O607 2.057 . S
Co591 O622 2.037 . S
Co591 N626 2.145 . S
Co591 N647 2.257 . S
O592 Co590 2.143 . S
O592 Co591 2.160 . S
C593 O594 1.278 . S
C593 O601 1.224 . S
O594 C593 1.278 . S
C595 O596 1.245 . S
C595 O607 1.232 . S
O596 C595 1.245 . S
O597 Co591 2.072 . S
O597 C623 1.263 1_545 S
O598 Co590 2.074 . S
O598 C623 1.257 1_545 S
H599 C624 0.930 . S
H600 C630 0.930 . S
O601 Co590 2.093 . S
O601 C593 1.224 . S
H602 C634 0.929 . S
H603 C636 0.930 . S
H604 C637 0.930 . S
H605 C635 0.929 . S
H606 C638 0.928 . S
O607 Co591 2.057 . S
O607 C595 1.232 . S
H608 C627 0.929 . S
H609 C628 0.929 . S
H610 C640 0.931 . S
H611 C632 0.929 . S
H612 C641 0.930 1_565 S
H613 C633 0.931 . S
O614 Co590 2.097 . S
O614 C642 1.214 . S
H615 C643 0.929 . S
H616 C644 0.929 . S
H617 C645 0.930 . S
H618 C646 0.929 . S
H619 C648 0.930 . S
H620 C625 0.930 . S
H621 C629 0.930 . S
O622 Co591 2.037 . S
O622 C642 1.234 . S
C623 O597 1.263 1_565 S
C623 O598 1.257 1_565 S
C624 H599 0.930 . S
C624 C627 1.388 . S
C624 C629 1.418 . S
C625 H620 0.930 . S
C625 C628 1.404 . S
C625 C629 1.353 1_545 S
N626 Co591 2.145 . S
N626 C627 1.397 1_545 S
N626 C628 1.334 . S
C627 H608 0.929 . S
C627 C624 1.388 . S
C627 N626 1.397 1_565 S
C628 H609 0.929 . S
C628 C625 1.404 . S
C628 N626 1.334 . S
C629 H621 0.930 . S
C629 C624 1.418 . S
C629 C625 1.353 1_565 S
C630 H600 0.930 . S
C630 N631 1.330 . S
C630 C632 1.446 . S
N631 Co590 2.151 . S
N631 C630 1.330 . S
N631 C635 1.418 . S
C632 H611 0.929 . S
C632 C630 1.446 . S
C632 C633 1.332 . S
C633 H613 0.931 . S
C633 C632 1.332 . S
C633 C634 1.267 . S
C634 H602 0.929 . S
C634 C633 1.267 . S
C634 C635 1.251 . S
C635 H605 0.929 . S
C635 N631 1.418 . S
C635 C634 1.251 . S
C636 H603 0.930 . S
C636 C638 1.406 . S
C636 C641 1.261 . S
C637 H604 0.930 . S
C637 N639 1.325 . S
C637 C640 1.357 1_545 S
C638 H606 0.928 . S
C638 C636 1.406 . S
C638 N639 1.261 . S
N639 Co590 2.214 . S
N639 C637 1.325 . S
N639 C638 1.261 . S
C640 H610 0.931 . S
C640 C637 1.357 1_565 S
C640 C641 1.312 1_565 S
C641 H612 0.930 1_545 S
C641 C636 1.261 . S
C641 C640 1.312 1_545 S
C642 O614 1.214 . S
C642 O622 1.234 . S
C643 H615 0.929 . S
C643 C646 1.391 . S
C643 C648 1.391 . S
C644 H616 0.929 . S
C644 C645 1.390 . S
C644 N647 1.391 . S
C645 H617 0.930 . S
C645 C644 1.390 . S
C645 C646 1.392 . S
C646 H618 0.929 . S
C646 C643 1.391 . S
C646 C645 1.392 . S
N647 Co591 2.257 . S
N647 C644 1.391 . S
N647 C648 1.388 . S
C648 H619 0.930 . S
C648 C643 1.391 . S
C648 N647 1.388 . S
Co649 O651 2.143 . S
Co649 O657 2.074 . S
Co649 O660 2.093 1_655 S
Co649 O673 2.097 . S
Co649 N690 2.151 . S
Co649 N698 2.214 . S
Co650 O651 2.160 . S
Co650 O656 2.058 . S
Co650 O666 2.057 . S
Co650 O681 2.037 . S
Co650 N685 2.145 . S
Co650 N706 2.257 . S
O651 Co649 2.143 . S
O651 Co650 2.160 . S
C652 O653 1.278 . S
C652 O660 1.224 . S
O653 C652 1.278 . S
C654 O655 1.245 . S
C654 O666 1.232 . S
O655 C654 1.245 . S
O656 Co650 2.058 . S
O656 C682 1.269 . S
O657 Co649 2.074 . S
O657 C682 1.257 . S
H658 C683 0.930 . S
H659 C689 0.930 1_455 S
O660 Co649 2.093 1_455 S
O660 C652 1.224 . S
H661 C693 0.929 . S
H662 C695 0.930 . S
H663 C696 0.930 . S
H664 C694 0.929 . S
H665 C697 0.928 . S
O666 Co650 2.057 . S
O666 C654 1.232 . S
H667 C686 0.929 . S
H668 C687 0.929 . S
H669 C699 0.931 . S
H670 C691 0.929 1_455 S
H671 C700 0.930 . S
H672 C692 0.931 . S
O673 Co649 2.097 . S
O673 C701 1.214 . S
H674 C702 0.929 . S
H675 C703 0.929 . S
H676 C704 0.934 . S
H677 C705 0.929 . S
H678 C707 0.930 . S
H679 C684 0.930 . S
H680 C688 0.930 . S
O681 Co650 2.037 . S
O681 C701 1.234 . S
C682 O656 1.269 . S
C682 O657 1.257 . S
C683 H658 0.930 . S
C683 C686 1.388 . S
C683 C688 1.418 . S
C684 H679 0.930 . S
C684 C687 1.404 . S
C684 C688 1.353 . S
N685 Co650 2.145 . S
N685 C686 1.397 . S
N685 C687 1.334 . S
C686 H667 0.929 . S
C686 C683 1.388 . S
C686 N685 1.397 . S
C687 H668 0.929 . S
C687 C684 1.404 . S
C687 N685 1.334 . S
C688 H680 0.930 . S
C688 C683 1.418 . S
C688 C684 1.353 . S
C689 H659 0.930 1_655 S
C689 N690 1.330 . S
C689 C691 1.446 . S
N690 Co649 2.151 . S
N690 C689 1.330 . S
N690 C694 1.418 . S
C691 H670 0.929 1_655 S
C691 C689 1.446 . S
C691 C692 1.332 . S
C692 H672 0.931 . S
C692 C691 1.332 . S
C692 C693 1.267 . S
C693 H661 0.929 . S
C693 C692 1.267 . S
C693 C694 1.251 . S
C694 H664 0.929 . S
C694 N690 1.418 . S
C694 C693 1.251 . S
C695 H662 0.930 . S
C695 C697 1.406 . S
C695 C700 1.261 . S
C696 H663 0.930 . S
C696 N698 1.325 . S
C696 C699 1.357 . S
C697 H665 0.928 . S
C697 C695 1.406 . S
C697 N698 1.261 . S
N698 Co649 2.214 . S
N698 C696 1.325 . S
N698 C697 1.261 . S
C699 H669 0.931 . S
C699 C696 1.357 . S
C699 C700 1.312 . S
C700 H671 0.930 . S
C700 C695 1.261 . S
C700 C699 1.312 . S
C701 O673 1.214 . S
C701 O681 1.234 . S
C702 H674 0.929 . S
C702 C705 1.391 . S
C702 C707 1.391 . S
C703 H675 0.929 . S
C703 C704 1.390 1_655 S
C703 N706 1.391 . S
C704 H676 0.934 . S
C704 C703 1.390 1_455 S
C704 C705 1.392 . S
C705 H677 0.929 . S
C705 C702 1.391 . S
C705 C704 1.392 . S
N706 Co650 2.257 . S
N706 C703 1.391 . S
N706 C707 1.388 1_655 S
C707 H678 0.930 . S
C707 C702 1.391 . S
C707 N706 1.388 1_455 S
Co708 O710 2.143 . S
Co708 O716 2.074 . S
Co708 O719 2.093 . S
Co708 O732 2.097 . S
Co708 N749 2.151 . S
Co708 N757 2.214 . S
Co709 O710 2.160 . S
Co709 O715 2.058 . S
Co709 O725 2.057 . S
Co709 O740 2.037 . S
Co709 N744 2.145 . S
Co709 N765 2.257 . S
O710 Co708 2.143 . S
O710 Co709 2.160 . S
C711 O712 1.278 . S
C711 O719 1.224 . S
O712 C711 1.278 . S
C713 O714 1.245 . S
C713 O725 1.232 . S
O714 C713 1.245 . S
O715 Co709 2.058 . S
O715 C741 1.269 . S
O716 Co708 2.074 . S
O716 C741 1.257 . S
H717 C742 0.930 . S
H718 C748 0.930 . S
O719 Co708 2.093 . S
O719 C711 1.224 . S
H720 C752 0.929 . S
H721 C754 0.930 . S
H722 C755 0.930 . S
H723 C753 0.929 . S
H724 C756 0.928 . S
O725 Co709 2.057 . S
O725 C713 1.232 . S
H726 C745 0.929 . S
H727 C746 0.929 . S
H728 C758 0.931 . S
H729 C750 0.929 . S
H730 C759 0.930 . S
H731 C751 0.931 . S
O732 Co708 2.097 . S
O732 C760 1.214 . S
H733 C761 0.929 . S
H734 C762 0.929 . S
H735 C763 0.930 . S
H736 C764 0.929 . S
H737 C766 0.930 . S
H738 C743 0.930 . S
H739 C747 0.930 . S
O740 Co709 2.037 . S
O740 C760 1.234 . S
C741 O715 1.269 . S
C741 O716 1.257 . S
C742 H717 0.930 . S
C742 C745 1.388 . S
C742 C747 1.418 . S
C743 H738 0.930 . S
C743 C746 1.404 . S
C743 C747 1.353 . S
N744 Co709 2.145 . S
N744 C745 1.397 . S
N744 C746 1.334 . S
C745 H726 0.929 . S
C745 C742 1.388 . S
C745 N744 1.397 . S
C746 H727 0.929 . S
C746 C743 1.404 . S
C746 N744 1.334 . S
C747 H739 0.930 . S
C747 C742 1.418 . S
C747 C743 1.353 . S
C748 H718 0.930 . S
C748 N749 1.330 . S
C748 C750 1.446 . S
N749 Co708 2.151 . S
N749 C748 1.330 . S
N749 C753 1.418 . S
C750 H729 0.929 . S
C750 C748 1.446 . S
C750 C751 1.332 . S
C751 H731 0.931 . S
C751 C750 1.332 . S
C751 C752 1.267 . S
C752 H720 0.929 . S
C752 C751 1.267 . S
C752 C753 1.251 . S
C753 H723 0.929 . S
C753 N749 1.418 . S
C753 C752 1.251 . S
C754 H721 0.930 . S
C754 C756 1.406 . S
C754 C759 1.261 . S
C755 H722 0.930 . S
C755 N757 1.325 . S
C755 C758 1.357 . S
C756 H724 0.928 . S
C756 C754 1.406 . S
C756 N757 1.261 . S
N757 Co708 2.214 . S
N757 C755 1.325 . S
N757 C756 1.261 . S
C758 H728 0.931 . S
C758 C755 1.357 . S
C758 C759 1.312 . S
C759 H730 0.930 . S
C759 C754 1.261 . S
C759 C758 1.312 . S
C760 O732 1.214 . S
C760 O740 1.234 . S
C761 H733 0.929 . S
C761 C764 1.391 . S
C761 C766 1.391 . S
C762 H734 0.929 . S
C762 C763 1.390 . S
C762 N765 1.391 . S
C763 H735 0.930 . S
C763 C762 1.390 . S
C763 C764 1.392 . S
C764 H736 0.929 . S
C764 C761 1.391 . S
C764 C763 1.392 . S
N765 Co709 2.257 . S
N765 C762 1.391 . S
N765 C766 1.388 . S
C766 H737 0.930 . S
C766 C761 1.391 . S
C766 N765 1.388 . S
Co767 O769 2.143 . S
Co767 O775 2.074 . S
Co767 O778 2.093 . S
Co767 O791 2.097 . S
Co767 N808 2.151 . S
Co767 N816 2.214 . S
Co768 O769 2.160 . S
Co768 O774 2.058 . S
Co768 O784 2.057 . S
Co768 O799 2.037 . S
Co768 N803 2.145 . S
Co768 N824 2.257 . S
O769 Co767 2.143 . S
O769 Co768 2.160 . S
C770 O771 1.278 . S
C770 O778 1.224 . S
O771 C770 1.278 . S
C772 O773 1.245 . S
C772 O784 1.232 . S
O773 C772 1.245 . S
O774 Co768 2.058 . S
O774 C800 1.269 . S
O775 Co767 2.074 . S
O775 C800 1.257 . S
H776 C801 0.930 . S
H777 C807 0.930 . S
O778 Co767 2.093 . S
O778 C770 1.224 . S
H779 C811 0.929 . S
H780 C813 0.930 . S
H781 C814 0.930 . S
H782 C812 0.929 . S
H783 C815 0.928 . S
O784 Co768 2.057 . S
O784 C772 1.232 . S
H785 C804 0.929 . S
H786 C805 0.929 . S
H787 C817 0.931 . S
H788 C809 0.929 . S
H789 C818 0.930 . S
H790 C810 0.931 . S
O791 Co767 2.097 . S
O791 C819 1.214 . S
H792 C820 0.929 . S
H793 C821 0.929 . S
H794 C822 0.930 . S
H795 C823 0.929 . S
H796 C825 0.930 . S
H797 C802 0.930 . S
H798 C806 0.930 1_545 S
O799 Co768 2.037 . S
O799 C819 1.234 . S
C800 O774 1.269 . S
C800 O775 1.257 . S
C801 H776 0.930 . S
C801 C804 1.388 1_545 S
C801 C806 1.418 1_545 S
C802 H797 0.930 . S
C802 C805 1.404 . S
C802 C806 1.353 . S
N803 Co768 2.145 . S
N803 C804 1.397 . S
N803 C805 1.334 . S
C804 H785 0.929 . S
C804 C801 1.388 1_565 S
C804 N803 1.397 . S
C805 H786 0.929 . S
C805 C802 1.404 . S
C805 N803 1.334 . S
C806 H798 0.930 1_565 S
C806 C801 1.418 1_565 S
C806 C802 1.353 . S
C807 H777 0.930 . S
C807 N808 1.330 . S
C807 C809 1.446 . S
N808 Co767 2.151 . S
N808 C807 1.330 . S
N808 C812 1.418 . S
C809 H788 0.929 . S
C809 C807 1.446 . S
C809 C810 1.332 . S
C810 H790 0.931 . S
C810 C809 1.332 . S
C810 C811 1.267 . S
C811 H779 0.929 . S
C811 C810 1.267 . S
C811 C812 1.251 . S
C812 H782 0.929 . S
C812 N808 1.418 . S
C812 C811 1.251 . S
C813 H780 0.930 . S
C813 C815 1.406 . S
C813 C818 1.261 . S
C814 H781 0.930 . S
C814 N816 1.325 . S
C814 C817 1.357 . S
C815 H783 0.928 . S
C815 C813 1.406 . S
C815 N816 1.261 . S
N816 Co767 2.214 . S
N816 C814 1.325 . S
N816 C815 1.261 . S
C817 H787 0.931 . S
C817 C814 1.357 . S
C817 C818 1.312 . S
C818 H789 0.930 . S
C818 C813 1.261 . S
C818 C817 1.312 . S
C819 O791 1.214 . S
C819 O799 1.234 . S
C820 H792 0.929 . S
C820 C823 1.391 . S
C820 C825 1.391 . S
C821 H793 0.929 . S
C821 C822 1.390 . S
C821 N824 1.391 . S
C822 H794 0.930 . S
C822 C821 1.390 . S
C822 C823 1.392 . S
C823 H795 0.929 . S
C823 C820 1.391 . S
C823 C822 1.392 . S
N824 Co768 2.257 . S
N824 C821 1.391 . S
N824 C825 1.388 . S
C825 H796 0.930 . S
C825 C820 1.391 . S
C825 N824 1.388 . S
Co826 O828 2.143 . S
Co826 O834 2.074 . S
Co826 O837 2.093 . S
Co826 O850 2.097 . S
Co826 N867 2.151 . S
Co826 N875 2.214 . S
Co827 O828 2.160 . S
Co827 O833 2.058 . S
Co827 O843 2.057 . S
Co827 O858 2.037 . S
Co827 N862 2.145 . S
Co827 N883 2.257 . S
O828 Co826 2.143 . S
O828 Co827 2.160 . S
C829 O830 1.278 . S
C829 O837 1.224 . S
O830 C829 1.278 . S
C831 O832 1.245 . S
C831 O843 1.232 . S
O832 C831 1.245 . S
O833 Co827 2.058 . S
O833 C859 1.269 . S
O834 Co826 2.074 . S
O834 C859 1.257 . S
H835 C860 0.930 . S
H836 C866 0.930 . S
O837 Co826 2.093 . S
O837 C829 1.224 . S
H838 C870 0.929 . S
H839 C872 0.930 . S
H840 C873 0.930 . S
H841 C871 0.929 . S
H842 C874 0.928 . S
O843 Co827 2.057 . S
O843 C831 1.232 . S
H844 C863 0.929 . S
H845 C864 0.929 . S
H846 C876 0.931 . S
H847 C868 0.929 . S
H848 C877 0.930 . S
H849 C869 0.931 . S
O850 Co826 2.097 . S
O850 C878 1.214 . S
H851 C879 0.929 . S
H852 C880 0.929 . S
H853 C881 0.930 . S
H854 C882 0.929 . S
H855 C884 0.930 . S
H856 C861 0.930 . S
H857 C865 0.930 1_655 S
O858 Co827 2.037 . S
O858 C878 1.234 . S
C859 O833 1.269 . S
C859 O834 1.257 . S
C860 H835 0.930 . S
C860 C863 1.388 1_655 S
C860 C865 1.418 1_655 S
C861 H856 0.930 . S
C861 C864 1.404 . S
C861 C865 1.353 . S
N862 Co827 2.145 . S
N862 C863 1.397 . S
N862 C864 1.334 . S
C863 H844 0.929 . S
C863 C860 1.388 1_455 S
C863 N862 1.397 . S
C864 H845 0.929 . S
C864 C861 1.404 . S
C864 N862 1.334 . S
C865 H857 0.930 1_455 S
C865 C860 1.418 1_455 S
C865 C861 1.353 . S
C866 H836 0.930 . S
C866 N867 1.330 . S
C866 C868 1.446 . S
N867 Co826 2.151 . S
N867 C866 1.330 . S
N867 C871 1.418 . S
C868 H847 0.929 . S
C868 C866 1.446 . S
C868 C869 1.332 . S
C869 H849 0.931 . S
C869 C868 1.332 . S
C869 C870 1.267 . S
C870 H838 0.929 . S
C870 C869 1.267 . S
C870 C871 1.251 . S
C871 H841 0.929 . S
C871 N867 1.418 . S
C871 C870 1.251 . S
C872 H839 0.930 . S
C872 C874 1.406 . S
C872 C877 1.261 . S
C873 H840 0.930 . S
C873 N875 1.325 . S
C873 C876 1.357 . S
C874 H842 0.928 . S
C874 C872 1.406 . S
C874 N875 1.261 . S
N875 Co826 2.214 . S
N875 C873 1.325 . S
N875 C874 1.261 . S
C876 H846 0.931 . S
C876 C873 1.357 . S
C876 C877 1.312 . S
C877 H848 0.930 . S
C877 C872 1.261 . S
C877 C876 1.312 . S
C878 O850 1.214 . S
C878 O858 1.234 . S
C879 H851 0.929 . S
C879 C882 1.391 . S
C879 C884 1.391 . S
C880 H852 0.929 . S
C880 C881 1.390 . S
C880 N883 1.391 . S
C881 H853 0.930 . S
C881 C880 1.390 . S
C881 C882 1.392 . S
C882 H854 0.929 . S
C882 C879 1.391 . S
C882 C881 1.392 . S
N883 Co827 2.257 . S
N883 C880 1.391 . S
N883 C884 1.388 . S
C884 H855 0.930 . S
C884 C879 1.391 . S
C884 N883 1.388 . S
Co885 O887 2.143 . S
Co885 O893 2.074 . S
Co885 O896 2.093 . S
Co885 O909 2.097 1_655 S
Co885 N926 2.151 . S
Co885 N934 2.214 . S
Co886 O887 2.160 . S
Co886 O892 2.058 . S
Co886 O902 2.057 . S
Co886 O917 2.037 1_655 S
Co886 N921 2.145 1_655 S
Co886 N942 2.257 1_655 S
O887 Co885 2.143 . S
O887 Co886 2.160 . S
C888 O889 1.278 . S
C888 O896 1.224 1_455 S
O889 C888 1.278 . S
C890 O891 1.245 . S
C890 O902 1.232 . S
O891 C890 1.245 . S
O892 Co886 2.058 . S
O892 C918 1.269 . S
O893 Co885 2.074 . S
O893 C918 1.257 . S
H894 C919 0.930 . S
H895 C925 0.930 . S
O896 Co885 2.093 . S
O896 C888 1.224 1_655 S
H897 C929 0.929 . S
H898 C931 0.930 . S
H899 C932 0.930 . S
H900 C930 0.929 . S
H901 C933 0.928 . S
O902 Co886 2.057 . S
O902 C890 1.232 . S
H903 C922 0.929 . S
H904 C923 0.929 . S
H905 C935 0.931 . S
H906 C927 0.929 . S
H907 C936 0.930 . S
H908 C928 0.931 . S
O909 Co885 2.097 1_455 S
O909 C937 1.214 . S
H910 C938 0.929 . S
H911 C939 0.929 . S
H912 C940 0.930 . S
H913 C941 0.929 . S
H914 C943 0.930 . S
H915 C920 0.930 . S
H916 C924 0.930 . S
O917 Co886 2.037 1_455 S
O917 C937 1.234 . S
C918 O892 1.269 . S
C918 O893 1.257 . S
C919 H894 0.930 . S
C919 C922 1.388 . S
C919 C924 1.418 . S
C920 H915 0.930 . S
C920 C923 1.404 . S
C920 C924 1.353 . S
N921 Co886 2.145 1_455 S
N921 C922 1.397 . S
N921 C923 1.334 . S
C922 H903 0.929 . S
C922 C919 1.388 . S
C922 N921 1.397 . S
C923 H904 0.929 . S
C923 C920 1.404 . S
C923 N921 1.334 . S
C924 H916 0.930 . S
C924 C919 1.418 . S
C924 C920 1.353 . S
C925 H895 0.930 . S
C925 N926 1.330 . S
C925 C927 1.446 . S
N926 Co885 2.151 . S
N926 C925 1.330 . S
N926 C930 1.418 . S
C927 H906 0.929 . S
C927 C925 1.446 . S
C927 C928 1.332 . S
C928 H908 0.931 . S
C928 C927 1.332 . S
C928 C929 1.267 . S
C929 H897 0.929 . S
C929 C928 1.267 . S
C929 C930 1.251 . S
C930 H900 0.929 . S
C930 N926 1.418 . S
C930 C929 1.251 . S
C931 H898 0.930 . S
C931 C933 1.406 . S
C931 C936 1.261 . S
C932 H899 0.930 . S
C932 N934 1.325 . S
C932 C935 1.357 . S
C933 H901 0.928 . S
C933 C931 1.406 . S
C933 N934 1.261 . S
N934 Co885 2.214 . S
N934 C932 1.325 . S
N934 C933 1.261 . S
C935 H905 0.931 . S
C935 C932 1.357 . S
C935 C936 1.312 . S
C936 H907 0.930 . S
C936 C931 1.261 . S
C936 C935 1.312 . S
C937 O909 1.214 . S
C937 O917 1.234 . S
C938 H910 0.929 . S
C938 C941 1.391 . S
C938 C943 1.391 . S
C939 H911 0.929 . S
C939 C940 1.390 . S
C939 N942 1.391 . S
C940 H912 0.930 . S
C940 C939 1.390 . S
C940 C941 1.392 . S
C941 H913 0.929 . S
C941 C938 1.391 . S
C941 C940 1.392 . S
N942 Co886 2.257 1_455 S
N942 C939 1.391 . S
N942 C943 1.388 . S
C943 H914 0.930 . S
C943 C938 1.391 . S
C943 N942 1.388 . S
Co944 O946 2.143 . S
Co944 O952 2.074 . S
Co944 O955 2.093 . S
Co944 O968 2.097 . S
Co944 N985 2.151 . S
Co944 N993 2.214 . S
Co945 O946 2.160 . S
Co945 O951 2.058 . S
Co945 O961 2.057 . S
Co945 O976 2.037 . S
Co945 N980 2.145 . S
Co945 N1001 2.257 . S
O946 Co944 2.143 . S
O946 Co945 2.160 . S
C947 O948 1.278 . S
C947 O955 1.224 . S
O948 C947 1.278 . S
C949 O950 1.245 . S
C949 O961 1.232 . S
O950 C949 1.245 . S
O951 Co945 2.058 . S
O951 C977 1.269 . S
O952 Co944 2.074 . S
O952 C977 1.257 . S
H953 C978 0.930 . S
H954 C984 0.930 . S
O955 Co944 2.093 . S
O955 C947 1.224 . S
H956 C988 0.929 . S
H957 C990 0.930 . S
H958 C991 0.930 . S
H959 C989 0.929 . S
H960 C992 0.928 . S
O961 Co945 2.057 . S
O961 C949 1.232 . S
H962 C981 0.929 . S
H963 C982 0.929 . S
H964 C994 0.931 . S
H965 C986 0.929 . S
H966 C995 0.930 . S
H967 C987 0.931 . S
O968 Co944 2.097 . S
O968 C996 1.214 . S
H969 C997 0.929 . S
H970 C998 0.929 . S
H971 C999 0.930 . S
H972 C1000 0.929 . S
H973 C1002 0.930 . S
H974 C979 0.930 . S
H975 C983 0.930 . S
O976 Co945 2.037 . S
O976 C996 1.234 . S
C977 O951 1.269 . S
C977 O952 1.257 . S
C978 H953 0.930 . S
C978 C981 1.388 . S
C978 C983 1.418 . S
C979 H974 0.930 . S
C979 C982 1.404 . S
C979 C983 1.353 . S
N980 Co945 2.145 . S
N980 C981 1.397 . S
N980 C982 1.334 . S
C981 H962 0.929 . S
C981 C978 1.388 . S
C981 N980 1.397 . S
C982 H963 0.929 . S
C982 C979 1.404 . S
C982 N980 1.334 . S
C983 H975 0.930 . S
C983 C978 1.418 . S
C983 C979 1.353 . S
C984 H954 0.930 . S
C984 N985 1.330 . S
C984 C986 1.446 . S
N985 Co944 2.151 . S
N985 C984 1.330 . S
N985 C989 1.418 . S
C986 H965 0.929 . S
C986 C984 1.446 . S
C986 C987 1.332 . S
C987 H967 0.931 . S
C987 C986 1.332 . S
C987 C988 1.267 . S
C988 H956 0.929 . S
C988 C987 1.267 . S
C988 C989 1.251 . S
C989 H959 0.929 . S
C989 N985 1.418 . S
C989 C988 1.251 . S
C990 H957 0.930 . S
C990 C992 1.406 . S
C990 C995 1.261 . S
C991 H958 0.930 . S
C991 N993 1.325 . S
C991 C994 1.357 . S
C992 H960 0.928 . S
C992 C990 1.406 . S
C992 N993 1.261 . S
N993 Co944 2.214 . S
N993 C991 1.325 . S
N993 C992 1.261 . S
C994 H964 0.931 . S
C994 C991 1.357 . S
C994 C995 1.312 . S
C995 H966 0.930 . S
C995 C990 1.261 . S
C995 C994 1.312 . S
C996 O968 1.214 . S
C996 O976 1.234 . S
C997 H969 0.929 . S
C997 C1000 1.391 . S
C997 C1002 1.391 . S
C998 H970 0.929 . S
C998 C999 1.390 . S
C998 N1001 1.391 . S
C999 H971 0.930 . S
C999 C998 1.390 . S
C999 C1000 1.392 . S
C1000 H972 0.929 . S
C1000 C997 1.391 . S
C1000 C999 1.392 . S
N1001 Co945 2.257 . S
N1001 C998 1.391 . S
N1001 C1002 1.388 . S
C1002 H973 0.930 . S
C1002 C997 1.391 . S
C1002 N1001 1.388 . S
Co1003 O1005 2.143 . S
Co1003 O1011 2.074 . S
Co1003 O1014 2.093 . S
Co1003 O1027 2.097 . S
Co1003 N1044 2.151 . S
Co1003 N1052 2.214 . S
Co1004 O1005 2.160 1_565 S
Co1004 O1010 2.058 . S
Co1004 O1020 2.057 . S
Co1004 O1035 2.037 1_565 S
Co1004 N1039 2.145 . S
Co1004 N1060 2.257 . S
O1005 Co1003 2.143 . S
O1005 Co1004 2.160 1_545 S
C1006 O1007 1.278 . S
C1006 O1014 1.224 . S
O1007 C1006 1.278 . S
C1008 O1009 1.245 . S
C1008 O1020 1.232 . S
O1009 C1008 1.245 . S
O1010 Co1004 2.058 . S
O1010 C1036 1.269 . S
O1011 Co1003 2.074 . S
O1011 C1036 1.257 1_545 S
H1012 C1037 0.930 . S
H1013 C1043 0.930 . S
O1014 Co1003 2.093 . S
O1014 C1006 1.224 . S
H1015 C1047 0.929 . S
H1016 C1049 0.930 . S
H1017 C1050 0.930 . S
H1018 C1048 0.929 . S
H1019 C1051 0.928 . S
O1020 Co1004 2.057 . S
O1020 C1008 1.232 . S
H1021 C1040 0.929 . S
H1022 C1041 0.929 . S
H1023 C1053 0.931 . S
H1024 C1045 0.929 . S
H1025 C1054 0.930 . S
H1026 C1046 0.931 . S
O1027 Co1003 2.097 . S
O1027 C1055 1.214 . S
H1028 C1056 0.929 . S
H1029 C1057 0.929 . S
H1030 C1058 0.930 . S
H1031 C1059 0.929 . S
H1032 C1061 0.930 . S
H1033 C1038 0.930 . S
H1034 C1042 0.930 . S
O1035 Co1004 2.037 1_545 S
O1035 C1055 1.234 . S
C1036 O1010 1.269 . S
C1036 O1011 1.257 1_565 S
C1037 H1012 0.930 . S
C1037 C1040 1.388 . S
C1037 C1042 1.418 . S
C1038 H1033 0.930 . S
C1038 C1041 1.404 . S
C1038 C1042 1.353 . S
N1039 Co1004 2.145 . S
N1039 C1040 1.397 . S
N1039 C1041 1.334 . S
C1040 H1021 0.929 . S
C1040 C1037 1.388 . S
C1040 N1039 1.397 . S
C1041 H1022 0.929 . S
C1041 C1038 1.404 . S
C1041 N1039 1.334 . S
C1042 H1034 0.930 . S
C1042 C1037 1.418 . S
C1042 C1038 1.353 . S
C1043 H1013 0.930 . S
C1043 N1044 1.330 . S
C1043 C1045 1.446 . S
N1044 Co1003 2.151 . S
N1044 C1043 1.330 . S
N1044 C1048 1.418 . S
C1045 H1024 0.929 . S
C1045 C1043 1.446 . S
C1045 C1046 1.332 . S
C1046 H1026 0.931 . S
C1046 C1045 1.332 . S
C1046 C1047 1.267 . S
C1047 H1015 0.929 . S
C1047 C1046 1.267 . S
C1047 C1048 1.251 . S
C1048 H1018 0.929 . S
C1048 N1044 1.418 . S
C1048 C1047 1.251 . S
C1049 H1016 0.930 . S
C1049 C1051 1.406 . S
C1049 C1054 1.261 . S
C1050 H1017 0.930 . S
C1050 N1052 1.325 . S
C1050 C1053 1.357 . S
C1051 H1019 0.928 . S
C1051 C1049 1.406 . S
C1051 N1052 1.261 . S
N1052 Co1003 2.214 . S
N1052 C1050 1.325 . S
N1052 C1051 1.261 . S
C1053 H1023 0.931 . S
C1053 C1050 1.357 . S
C1053 C1054 1.312 . S
C1054 H1025 0.930 . S
C1054 C1049 1.261 . S
C1054 C1053 1.312 . S
C1055 O1027 1.214 . S
C1055 O1035 1.234 . S
C1056 H1028 0.929 . S
C1056 C1059 1.391 . S
C1056 C1061 1.391 . S
C1057 H1029 0.929 . S
C1057 C1058 1.390 . S
C1057 N1060 1.391 . S
C1058 H1030 0.930 . S
C1058 C1057 1.390 . S
C1058 C1059 1.392 . S
C1059 H1031 0.929 . S
C1059 C1056 1.391 . S
C1059 C1058 1.392 . S
N1060 Co1004 2.257 . S
N1060 C1057 1.391 . S
N1060 C1061 1.388 . S
C1061 H1032 0.930 . S
C1061 C1056 1.391 . S
C1061 N1060 1.388 . S
H1062 C1080 0.951 . S
H1063 C1082 0.951 . S
H1064 C1084 0.950 . S
H1065 C1085 0.950 . S
H1066 C1087 0.950 . S
H1067 C1090 0.950 . S
H1068 C1091 0.950 . S
H1069 C1093 0.954 . S
H1070 C1094 0.950 . S
H1071 C1095 0.951 . S
H1072 C1097 0.951 . S
H1073 C1099 0.950 . S
H1074 C1100 0.950 . S
H1075 C1102 0.950 1_545 S
H1076 C1105 0.950 . S
H1077 C1106 0.950 . S
H1078 C1108 0.967 . S
H1079 C1109 0.950 . S
C1080 H1062 0.951 . S
C1080 C1081 1.366 . S
C1080 C1082 1.388 . S
C1081 C1080 1.366 . S
C1081 C1085 1.385 1_545 S
C1082 H1063 0.951 . S
C1082 C1080 1.388 . S
C1082 C1083 1.366 1_545 S
C1083 C1082 1.366 1_565 S
C1083 C1084 1.414 . S
C1083 C1086 1.499 . S
C1084 H1064 0.950 . S
C1084 C1083 1.414 . S
C1084 C1085 1.374 . S
C1085 H1065 0.950 . S
C1085 C1081 1.385 1_565 S
C1085 C1084 1.374 . S
C1086 C1083 1.499 . S
C1086 C1087 1.373 . S
C1086 C1088 1.388 1_554 S
C1087 H1066 0.950 . S
C1087 C1086 1.373 . S
C1087 C1103 1.369 1_554 S
C1088 C1086 1.388 1_556 S
C1088 C1089 1.525 1_565 S
C1088 C1102 1.378 . S
C1089 C1088 1.525 1_545 S
C1089 C1090 1.397 . S
C1089 C1094 1.363 1_556 S
C1090 H1067 0.950 . S
C1090 C1089 1.397 . S
C1090 C1091 1.334 . S
C1091 H1068 0.950 . S
C1091 C1090 1.334 . S
C1091 C1092 1.287 . S
C1092 C1091 1.287 . S
C1092 C1093 1.517 1_556 S
C1092 H1111 0.913 . S
C1093 H1069 0.954 . S
C1093 C1092 1.517 1_554 S
C1093 C1094 1.417 . S
C1094 H1070 0.950 . S
C1094 C1089 1.363 1_554 S
C1094 C1093 1.417 . S
C1095 H1071 0.951 . S
C1095 C1096 1.366 . S
C1095 C1097 1.388 . S
C1096 C1095 1.366 . S
C1096 C1100 1.385 . S
C1097 H1072 0.951 . S
C1097 C1095 1.388 . S
C1097 C1098 1.366 . S
C1098 C1097 1.366 . S
C1098 C1099 1.414 . S
C1098 C1101 1.499 . S
C1099 H1073 0.950 . S
C1099 C1098 1.414 . S
C1099 C1100 1.374 . S
C1100 H1074 0.950 . S
C1100 C1096 1.385 . S
C1100 C1099 1.374 . S
C1101 C1098 1.499 . S
C1101 C1102 1.373 . S
C1101 C1103 1.397 . S
C1102 H1075 0.950 1_565 S
C1102 C1088 1.378 . S
C1102 C1101 1.373 . S
C1103 C1087 1.369 1_556 S
C1103 C1101 1.397 . S
C1103 C1104 1.523 1_556 S
C1104 C1103 1.523 1_554 S
C1104 C1105 1.397 . S
C1104 C1109 1.363 1_554 S
C1105 H1076 0.950 . S
C1105 C1104 1.397 . S
C1105 C1106 1.334 . S
C1106 H1077 0.950 . S
C1106 C1105 1.334 . S
C1106 C1107 1.287 . S
C1107 C1106 1.287 . S
C1107 C1108 1.501 1_554 S
C1107 H1110 0.999 . S
C1108 H1078 0.967 . S
C1108 C1107 1.501 1_556 S
C1108 C1109 1.422 . S
C1109 H1079 0.950 . S
C1109 C1104 1.363 1_556 S
C1109 C1108 1.422 . S
H1110 C1107 0.999 . S
H1111 C1092 0.913 . S
H1112 C1130 0.977 . S
H1113 C1132 0.951 . S
H1114 C1134 0.937 1_455 S
H1115 C1135 0.950 . S
H1116 C1137 0.950 . S
H1117 C1140 0.950 . S
H1118 C1141 0.950 . S
H1119 C1143 0.950 . S
H1120 C1144 0.950 . S
H1121 C1145 0.951 . S
H1122 C1147 0.951 . S
H1123 C1149 0.950 1_655 S
H1124 C1150 0.950 . S
H1125 C1152 0.950 . S
H1126 C1155 0.950 1_556 S
H1127 C1156 0.950 . S
H1128 C1158 0.950 . S
H1129 C1159 0.950 . S
C1130 H1112 0.977 . S
C1130 C1131 1.320 1_556 S
C1130 C1132 1.410 . S
C1131 C1130 1.320 1_554 S
C1131 C1135 1.385 . S
C1132 H1113 0.951 . S
C1132 C1130 1.410 . S
C1132 C1133 1.379 . S
C1133 C1132 1.379 . S
C1133 C1134 1.388 1_556 S
C1133 C1136 1.510 . S
C1134 H1114 0.937 1_655 S
C1134 C1133 1.388 1_554 S
C1134 C1135 1.374 . S
C1135 H1115 0.950 . S
C1135 C1131 1.385 . S
C1135 C1134 1.374 . S
C1136 C1133 1.510 . S
C1136 C1137 1.373 1_556 S
C1136 C1138 1.389 . S
C1137 H1116 0.950 . S
C1137 C1136 1.373 1_554 S
C1137 C1153 1.377 1_554 S
C1138 C1136 1.389 . S
C1138 C1139 1.524 . S
C1138 C1152 1.377 1_655 S
C1139 C1138 1.524 . S
C1139 C1140 1.397 1_655 S
C1139 C1144 1.363 . S
C1140 H1117 0.950 . S
C1140 C1139 1.397 1_455 S
C1140 C1141 1.334 . S
C1141 H1118 0.950 . S
C1141 C1140 1.334 . S
C1141 C1142 1.287 . S
C1142 C1141 1.287 . S
C1142 C1143 1.524 1_455 S
C1142 H1161 0.913 . S
C1143 H1119 0.950 . S
C1143 C1142 1.524 1_655 S
C1143 C1144 1.415 . S
C1144 H1120 0.950 . S
C1144 C1139 1.363 . S
C1144 C1143 1.415 . S
C1145 H1121 0.951 . S
C1145 C1146 1.366 . S
C1145 C1147 1.388 . S
C1146 C1145 1.366 . S
C1146 C1150 1.385 . S
C1147 H1122 0.951 . S
C1147 C1145 1.388 . S
C1147 C1148 1.366 . S
C1148 C1147 1.366 . S
C1148 C1149 1.414 . S
C1148 C1151 1.499 . S
C1149 H1123 0.950 1_455 S
C1149 C1148 1.414 . S
C1149 C1150 1.374 . S
C1150 H1124 0.950 . S
C1150 C1146 1.385 . S
C1150 C1149 1.374 . S
C1151 C1148 1.499 . S
C1151 C1152 1.373 . S
C1151 C1153 1.389 1_455 S
C1152 H1125 0.950 . S
C1152 C1138 1.377 1_455 S
C1152 C1151 1.373 . S
C1153 C1137 1.377 1_556 S
C1153 C1151 1.389 1_655 S
C1153 C1154 1.524 1_556 S
C1154 C1153 1.524 1_554 S
C1154 C1155 1.397 . S
C1154 C1159 1.363 1_655 S
C1155 H1126 0.950 1_554 S
C1155 C1154 1.397 . S
C1155 C1156 1.334 . S
C1156 H1127 0.950 . S
C1156 C1155 1.334 . S
C1156 C1157 1.287 . S
C1157 C1156 1.287 . S
C1157 C1158 1.524 1_655 S
C1157 H1160 0.999 . S
C1158 H1128 0.950 . S
C1158 C1157 1.524 1_455 S
C1158 C1159 1.415 . S
C1159 H1129 0.950 . S
C1159 C1154 1.363 1_455 S
C1159 C1158 1.415 . S
H1160 C1157 0.999 . S
H1161 C1142 0.913 . S
H1162 C1180 0.951 . S
H1163 C1182 0.951 . S
H1164 C1184 0.950 . S
H1165 C1185 0.950 . S
H1166 C1187 0.950 . S
H1167 C1190 0.950 . S
H1168 C1191 0.950 . S
H1169 C1193 0.950 . S
H1170 C1194 0.950 . S
H1171 C1195 0.951 . S
H1172 C1197 0.951 . S
H1173 C1199 0.950 . S
H1174 C1200 0.950 . S
H1175 C1202 0.950 . S
H1176 C1205 0.950 . S
H1177 C1206 0.950 1_554 S
H1178 C1208 0.950 . S
H1179 C1209 0.950 . S
C1180 H1162 0.951 . S
C1180 C1181 1.366 . S
C1180 C1182 1.388 1_556 S
C1181 C1180 1.366 . S
C1181 C1185 1.385 . S
C1182 H1163 0.951 . S
C1182 C1180 1.388 1_554 S
C1182 C1183 1.366 1_554 S
C1183 C1182 1.366 1_556 S
C1183 C1184 1.414 . S
C1183 C1186 1.499 1_556 S
C1184 H1164 0.950 . S
C1184 C1183 1.414 . S
C1184 C1185 1.374 . S
C1185 H1165 0.950 . S
C1185 C1181 1.385 . S
C1185 C1184 1.374 . S
C1186 C1183 1.499 1_554 S
C1186 C1187 1.373 1_554 S
C1186 C1188 1.389 . S
C1187 H1166 0.950 . S
C1187 C1186 1.373 1_556 S
C1187 C1203 1.377 1_556 S
C1188 C1186 1.389 . S
C1188 C1189 1.524 . S
C1188 C1202 1.377 . S
C1189 C1188 1.524 . S
C1189 C1190 1.397 . S
C1189 C1194 1.363 . S
C1190 H1167 0.950 . S
C1190 C1189 1.397 . S
C1190 C1191 1.334 . S
C1191 H1168 0.950 . S
C1191 C1190 1.334 . S
C1191 C1192 1.287 . S
C1192 C1191 1.287 . S
C1192 C1193 1.524 . S
C1192 H1211 0.913 . S
C1193 H1169 0.950 . S
C1193 C1192 1.524 . S
C1193 C1194 1.415 . S
C1194 H1170 0.950 . S
C1194 C1189 1.363 . S
C1194 C1193 1.415 . S
C1195 H1171 0.951 . S
C1195 C1196 1.366 . S
C1195 C1197 1.388 . S
C1196 C1195 1.366 . S
C1196 C1200 1.385 . S
C1197 H1172 0.951 . S
C1197 C1195 1.388 . S
C1197 C1198 1.366 . S
C1198 C1197 1.366 . S
C1198 C1199 1.414 . S
C1198 C1201 1.499 . S
C1199 H1173 0.950 . S
C1199 C1198 1.414 . S
C1199 C1200 1.374 . S
C1200 H1174 0.950 . S
C1200 C1196 1.385 . S
C1200 C1199 1.374 . S
C1201 C1198 1.499 . S
C1201 C1202 1.373 . S
C1201 C1203 1.389 . S
C1202 H1175 0.950 . S
C1202 C1188 1.377 . S
C1202 C1201 1.373 . S
C1203 C1187 1.377 1_554 S
C1203 C1201 1.389 . S
C1203 C1204 1.524 1_554 S
C1204 C1203 1.524 1_556 S
C1204 C1205 1.397 1_556 S
C1204 C1209 1.363 . S
C1205 H1176 0.950 . S
C1205 C1204 1.397 1_554 S
C1205 C1206 1.334 1_554 S
C1206 H1177 0.950 1_556 S
C1206 C1205 1.334 1_556 S
C1206 C1207 1.287 . S
C1207 C1206 1.287 . S
C1207 C1208 1.524 . S
C1207 H1210 0.999 . S
C1208 H1178 0.950 . S
C1208 C1207 1.524 . S
C1208 C1209 1.415 . S
C1209 H1179 0.950 . S
C1209 C1204 1.363 . S
C1209 C1208 1.415 . S
H1210 C1207 0.999 . S
H1211 C1192 0.913 . S
H1212 C1230 0.951 . S
H1213 C1232 0.951 . S
H1214 C1234 0.950 . S
H1215 C1235 0.950 . S
H1216 C1237 0.950 . S
H1217 C1240 0.950 . S
H1218 C1241 0.950 . S
H1219 C1243 0.950 . S
H1220 C1244 0.950 . S
H1221 C1245 0.951 . S
H1222 C1247 0.951 . S
H1223 C1249 0.950 . S
H1224 C1250 0.950 . S
H1225 C1252 0.950 . S
H1226 C1255 0.950 . S
H1227 C1256 0.950 . S
H1228 C1258 0.950 . S
H1229 C1259 0.950 . S
C1230 H1212 0.951 . S
C1230 C1231 1.366 . S
C1230 C1232 1.388 . S
C1231 C1230 1.366 . S
C1231 C1235 1.385 . S
C1232 H1213 0.951 . S
C1232 C1230 1.388 . S
C1232 C1233 1.366 . S
C1233 C1232 1.366 . S
C1233 C1234 1.414 . S
C1233 C1236 1.499 . S
C1234 H1214 0.950 . S
C1234 C1233 1.414 . S
C1234 C1235 1.374 . S
C1235 H1215 0.950 . S
C1235 C1231 1.385 . S
C1235 C1234 1.374 . S
C1236 C1233 1.499 . S
C1236 C1237 1.373 . S
C1236 C1238 1.389 . S
C1237 H1216 0.950 . S
C1237 C1236 1.373 . S
C1237 C1253 1.377 . S
C1238 C1236 1.389 . S
C1238 C1239 1.524 . S
C1238 C1252 1.377 . S
C1239 C1238 1.524 . S
C1239 C1240 1.397 . S
C1239 C1244 1.363 . S
C1240 H1217 0.950 . S
C1240 C1239 1.397 . S
C1240 C1241 1.334 . S
C1241 H1218 0.950 . S
C1241 C1240 1.334 . S
C1241 C1242 1.287 . S
C1242 C1241 1.287 . S
C1242 C1243 1.524 . S
C1242 H1261 0.913 . S
C1243 H1219 0.950 . S
C1243 C1242 1.524 . S
C1243 C1244 1.415 . S
C1244 H1220 0.950 . S
C1244 C1239 1.363 . S
C1244 C1243 1.415 . S
C1245 H1221 0.951 . S
C1245 C1246 1.366 . S
C1245 C1247 1.388 . S
C1246 C1245 1.366 . S
C1246 C1250 1.385 . S
C1247 H1222 0.951 . S
C1247 C1245 1.388 . S
C1247 C1248 1.366 . S
C1248 C1247 1.366 . S
C1248 C1249 1.414 . S
C1248 C1251 1.499 . S
C1249 H1223 0.950 . S
C1249 C1248 1.414 . S
C1249 C1250 1.374 . S
C1250 H1224 0.950 . S
C1250 C1246 1.385 . S
C1250 C1249 1.374 . S
C1251 C1248 1.499 . S
C1251 C1252 1.373 . S
C1251 C1253 1.389 . S
C1252 H1225 0.950 . S
C1252 C1238 1.377 . S
C1252 C1251 1.373 . S
C1253 C1237 1.377 . S
C1253 C1251 1.389 . S
C1253 C1254 1.524 . S
C1254 C1253 1.524 . S
C1254 C1255 1.397 . S
C1254 C1259 1.363 . S
C1255 H1226 0.950 . S
C1255 C1254 1.397 . S
C1255 C1256 1.334 . S
C1256 H1227 0.950 . S
C1256 C1255 1.334 . S
C1256 C1257 1.287 . S
C1257 C1256 1.287 . S
C1257 C1258 1.524 . S
C1257 H1260 0.999 . S
C1258 H1228 0.950 . S
C1258 C1257 1.524 . S
C1258 C1259 1.415 . S
C1259 H1229 0.950 . S
C1259 C1254 1.363 . S
C1259 C1258 1.415 . S
H1260 C1257 0.999 . S
H1261 C1242 0.913 . S
H1262 C1280 0.951 . S
H1263 C1282 0.951 . S
H1264 C1284 0.950 . S
H1265 C1285 0.950 . S
H1266 C1287 0.950 . S
H1267 C1290 0.950 . S
H1268 C1291 0.950 . S
H1269 C1293 0.950 . S
H1270 C1294 0.950 . S
H1271 C1295 0.951 . S
H1272 C1297 0.951 . S
H1273 C1299 0.950 . S
H1274 C1300 0.950 . S
H1275 C1302 0.950 . S
H1276 C1305 0.950 . S
H1277 C1306 0.950 . S
H1278 C1308 0.950 . S
H1279 C1309 0.950 . S
C1280 H1262 0.951 . S
C1280 C1281 1.366 . S
C1280 C1282 1.388 . S
C1281 C1280 1.366 . S
C1281 C1285 1.385 . S
C1282 H1263 0.951 . S
C1282 C1280 1.388 . S
C1282 C1283 1.366 . S
C1283 C1282 1.366 . S
C1283 C1284 1.414 . S
C1283 C1286 1.499 . S
C1284 H1264 0.950 . S
C1284 C1283 1.414 . S
C1284 C1285 1.374 . S
C1285 H1265 0.950 . S
C1285 C1281 1.385 . S
C1285 C1284 1.374 . S
C1286 C1283 1.499 . S
C1286 C1287 1.373 . S
C1286 C1288 1.389 . S
C1287 H1266 0.950 . S
C1287 C1286 1.373 . S
C1287 C1303 1.377 . S
C1288 C1286 1.389 . S
C1288 C1289 1.524 . S
C1288 C1302 1.377 . S
C1289 C1288 1.524 . S
C1289 C1290 1.397 . S
C1289 C1294 1.363 . S
C1290 H1267 0.950 . S
C1290 C1289 1.397 . S
C1290 C1291 1.334 . S
C1291 H1268 0.950 . S
C1291 C1290 1.334 . S
C1291 C1292 1.287 . S
C1292 C1291 1.287 . S
C1292 C1293 1.524 . S
C1292 H1311 0.913 . S
C1293 H1269 0.950 . S
C1293 C1292 1.524 . S
C1293 C1294 1.415 . S
C1294 H1270 0.950 . S
C1294 C1289 1.363 . S
C1294 C1293 1.415 . S
C1295 H1271 0.951 . S
C1295 C1296 1.366 . S
C1295 C1297 1.388 . S
C1296 C1295 1.366 . S
C1296 C1300 1.385 . S
C1297 H1272 0.951 . S
C1297 C1295 1.388 . S
C1297 C1298 1.366 . S
C1298 C1297 1.366 . S
C1298 C1299 1.414 . S
C1298 C1301 1.499 . S
C1299 H1273 0.950 . S
C1299 C1298 1.414 . S
C1299 C1300 1.374 . S
C1300 H1274 0.950 . S
C1300 C1296 1.385 . S
C1300 C1299 1.374 . S
C1301 C1298 1.499 . S
C1301 C1302 1.373 . S
C1301 C1303 1.389 . S
C1302 H1275 0.950 . S
C1302 C1288 1.377 . S
C1302 C1301 1.373 . S
C1303 C1287 1.377 . S
C1303 C1301 1.389 . S
C1303 C1304 1.524 . S
C1304 C1303 1.524 . S
C1304 C1305 1.397 . S
C1304 C1309 1.363 . S
C1305 H1276 0.950 . S
C1305 C1304 1.397 . S
C1305 C1306 1.334 . S
C1306 H1277 0.950 . S
C1306 C1305 1.334 . S
C1306 C1307 1.287 . S
C1307 C1306 1.287 . S
C1307 C1308 1.524 . S
C1307 H1310 0.999 . S
C1308 H1278 0.950 . S
C1308 C1307 1.524 . S
C1308 C1309 1.415 . S
C1309 H1279 0.950 . S
C1309 C1304 1.363 . S
C1309 C1308 1.415 . S
H1310 C1307 0.999 . S
H1311 C1292 0.913 . S
H1312 C1330 0.951 . S
H1313 C1332 0.951 . S
H1314 C1334 0.950 . S
H1315 C1335 0.950 . S
H1316 C1337 0.950 . S
H1317 C1340 0.950 . S
H1318 C1341 0.950 . S
H1319 C1343 0.950 . S
H1320 C1344 0.950 . S
H1321 C1345 0.951 . S
H1322 C1347 0.951 . S
H1323 C1349 0.950 . S
H1324 C1350 0.950 . S
H1325 C1352 0.950 . S
H1326 C1355 0.950 . S
H1327 C1356 0.950 . S
H1328 C1358 0.950 . S
H1329 C1359 0.950 . S
C1330 H1312 0.951 . S
C1330 C1331 1.366 . S
C1330 C1332 1.388 . S
C1331 C1330 1.366 . S
C1331 C1335 1.385 . S
C1332 H1313 0.951 . S
C1332 C1330 1.388 . S
C1332 C1333 1.366 . S
C1333 C1332 1.366 . S
C1333 C1334 1.414 . S
C1333 C1336 1.499 . S
C1334 H1314 0.950 . S
C1334 C1333 1.414 . S
C1334 C1335 1.374 . S
C1335 H1315 0.950 . S
C1335 C1331 1.385 . S
C1335 C1334 1.374 . S
C1336 C1333 1.499 . S
C1336 C1337 1.373 . S
C1336 C1338 1.389 . S
C1337 H1316 0.950 . S
C1337 C1336 1.373 . S
C1337 C1353 1.377 . S
C1338 C1336 1.389 . S
C1338 C1339 1.524 . S
C1338 C1352 1.377 . S
C1339 C1338 1.524 . S
C1339 C1340 1.397 . S
C1339 C1344 1.363 . S
C1340 H1317 0.950 . S
C1340 C1339 1.397 . S
C1340 C1341 1.334 . S
C1341 H1318 0.950 . S
C1341 C1340 1.334 . S
C1341 C1342 1.287 . S
C1342 C1341 1.287 . S
C1342 C1343 1.524 . S
C1342 H1361 0.913 . S
C1343 H1319 0.950 . S
C1343 C1342 1.524 . S
C1343 C1344 1.415 . S
C1344 H1320 0.950 . S
C1344 C1339 1.363 . S
C1344 C1343 1.415 . S
C1345 H1321 0.951 . S
C1345 C1346 1.366 . S
C1345 C1347 1.388 . S
C1346 C1345 1.366 . S
C1346 C1350 1.385 . S
C1347 H1322 0.951 . S
C1347 C1345 1.388 . S
C1347 C1348 1.366 . S
C1348 C1347 1.366 . S
C1348 C1349 1.414 . S
C1348 C1351 1.499 . S
C1349 H1323 0.950 . S
C1349 C1348 1.414 . S
C1349 C1350 1.374 . S
C1350 H1324 0.950 . S
C1350 C1346 1.385 . S
C1350 C1349 1.374 . S
C1351 C1348 1.499 . S
C1351 C1352 1.373 . S
C1351 C1353 1.389 . S
C1352 H1325 0.950 . S
C1352 C1338 1.377 . S
C1352 C1351 1.373 . S
C1353 C1337 1.377 . S
C1353 C1351 1.389 . S
C1353 C1354 1.524 . S
C1354 C1353 1.524 . S
C1354 C1355 1.397 . S
C1354 C1359 1.363 . S
C1355 H1326 0.950 . S
C1355 C1354 1.397 . S
C1355 C1356 1.334 . S
C1356 H1327 0.950 . S
C1356 C1355 1.334 . S
C1356 C1357 1.287 . S
C1357 C1356 1.287 . S
C1357 C1358 1.524 . S
C1357 H1360 0.999 . S
C1358 H1328 0.950 . S
C1358 C1357 1.524 . S
C1358 C1359 1.415 . S
C1359 H1329 0.950 . S
C1359 C1354 1.363 . S
C1359 C1358 1.415 . S
H1360 C1357 0.999 . S
H1361 C1342 0.913 . S
H1362 C1380 0.951 . S
H1363 C1382 0.951 . S
H1364 C1384 0.950 . S
H1365 C1385 0.950 . S
H1366 C1387 0.950 . S
H1367 C1390 0.950 . S
H1368 C1391 0.950 . S
H1369 C1393 0.950 . S
H1370 C1394 0.950 . S
H1371 C1395 0.951 . S
H1372 C1397 0.951 . S
H1373 C1399 0.950 . S
H1374 C1400 0.950 . S
H1375 C1402 0.950 . S
H1376 C1405 0.950 . S
H1377 C1406 0.950 . S
H1378 C1408 0.950 . S
H1379 C1409 0.950 . S
C1380 H1362 0.951 . S
C1380 C1381 1.366 . S
C1380 C1382 1.388 . S
C1381 C1380 1.366 . S
C1381 C1385 1.385 . S
C1382 H1363 0.951 . S
C1382 C1380 1.388 . S
C1382 C1383 1.366 . S
C1383 C1382 1.366 . S
C1383 C1384 1.414 . S
C1383 C1386 1.499 . S
C1384 H1364 0.950 . S
C1384 C1383 1.414 . S
C1384 C1385 1.374 . S
C1385 H1365 0.950 . S
C1385 C1381 1.385 . S
C1385 C1384 1.374 . S
C1386 C1383 1.499 . S
C1386 C1387 1.373 . S
C1386 C1388 1.389 . S
C1387 H1366 0.950 . S
C1387 C1386 1.373 . S
C1387 C1403 1.377 . S
C1388 C1386 1.389 . S
C1388 C1389 1.524 . S
C1388 C1402 1.377 . S
C1389 C1388 1.524 . S
C1389 C1390 1.397 . S
C1389 C1394 1.363 . S
C1390 H1367 0.950 . S
C1390 C1389 1.397 . S
C1390 C1391 1.334 . S
C1391 H1368 0.950 . S
C1391 C1390 1.334 . S
C1391 C1392 1.287 . S
C1392 C1391 1.287 . S
C1392 C1393 1.524 . S
C1392 H1411 0.913 . S
C1393 H1369 0.950 . S
C1393 C1392 1.524 . S
C1393 C1394 1.415 . S
C1394 H1370 0.950 . S
C1394 C1389 1.363 . S
C1394 C1393 1.415 . S
C1395 H1371 0.951 . S
C1395 C1396 1.366 . S
C1395 C1397 1.388 . S
C1396 C1395 1.366 . S
C1396 C1400 1.385 . S
C1397 H1372 0.951 . S
C1397 C1395 1.388 . S
C1397 C1398 1.366 . S
C1398 C1397 1.366 . S
C1398 C1399 1.414 . S
C1398 C1401 1.499 . S
C1399 H1373 0.950 . S
C1399 C1398 1.414 . S
C1399 C1400 1.374 . S
C1400 H1374 0.950 . S
C1400 C1396 1.385 . S
C1400 C1399 1.374 . S
C1401 C1398 1.499 . S
C1401 C1402 1.373 . S
C1401 C1403 1.389 . S
C1402 H1375 0.950 . S
C1402 C1388 1.377 . S
C1402 C1401 1.373 . S
C1403 C1387 1.377 . S
C1403 C1401 1.389 . S
C1403 C1404 1.524 . S
C1404 C1403 1.524 . S
C1404 C1405 1.397 . S
C1404 C1409 1.363 . S
C1405 H1376 0.950 . S
C1405 C1404 1.397 . S
C1405 C1406 1.334 . S
C1406 H1377 0.950 . S
C1406 C1405 1.334 . S
C1406 C1407 1.287 . S
C1407 C1406 1.287 . S
C1407 C1408 1.524 . S
C1407 H1410 0.999 . S
C1408 H1378 0.950 . S
C1408 C1407 1.524 . S
C1408 C1409 1.415 . S
C1409 H1379 0.950 . S
C1409 C1404 1.363 . S
C1409 C1408 1.415 . S
H1410 C1407 0.999 . S
H1411 C1392 0.913 . S
H1412 C1430 0.951 . S
H1413 C1432 0.951 . S
H1414 C1434 0.950 . S
H1415 C1435 0.950 . S
H1416 C1437 0.950 . S
H1417 C1440 0.950 . S
H1418 C1441 0.950 . S
H1419 C1443 0.950 . S
H1420 C1444 0.950 . S
H1421 C1445 0.951 . S
H1422 C1447 0.951 . S
H1423 C1449 0.950 . S
H1424 C1450 0.950 . S
H1425 C1452 0.950 . S
H1426 C1455 0.950 . S
H1427 C1456 0.950 . S
H1428 C1458 0.950 . S
H1429 C1459 0.950 . S
C1430 H1412 0.951 . S
C1430 C1431 1.366 . S
C1430 C1432 1.388 . S
C1431 C1430 1.366 . S
C1431 C1435 1.385 . S
C1432 H1413 0.951 . S
C1432 C1430 1.388 . S
C1432 C1433 1.366 . S
C1433 C1432 1.366 . S
C1433 C1434 1.414 . S
C1433 C1436 1.499 . S
C1434 H1414 0.950 . S
C1434 C1433 1.414 . S
C1434 C1435 1.374 . S
C1435 H1415 0.950 . S
C1435 C1431 1.385 . S
C1435 C1434 1.374 . S
C1436 C1433 1.499 . S
C1436 C1437 1.373 . S
C1436 C1438 1.389 . S
C1437 H1416 0.950 . S
C1437 C1436 1.373 . S
C1437 C1453 1.377 . S
C1438 C1436 1.389 . S
C1438 C1439 1.524 . S
C1438 C1452 1.377 . S
C1439 C1438 1.524 . S
C1439 C1440 1.397 . S
C1439 C1444 1.363 . S
C1440 H1417 0.950 . S
C1440 C1439 1.397 . S
C1440 C1441 1.334 . S
C1441 H1418 0.950 . S
C1441 C1440 1.334 . S
C1441 C1442 1.287 . S
C1442 C1441 1.287 . S
C1442 C1443 1.524 . S
C1442 H1461 0.913 . S
C1443 H1419 0.950 . S
C1443 C1442 1.524 . S
C1443 C1444 1.415 . S
C1444 H1420 0.950 . S
C1444 C1439 1.363 . S
C1444 C1443 1.415 . S
C1445 H1421 0.951 . S
C1445 C1446 1.366 . S
C1445 C1447 1.388 . S
C1446 C1445 1.366 . S
C1446 C1450 1.385 . S
C1447 H1422 0.951 . S
C1447 C1445 1.388 . S
C1447 C1448 1.366 . S
C1448 C1447 1.366 . S
C1448 C1449 1.414 . S
C1448 C1451 1.499 . S
C1449 H1423 0.950 . S
C1449 C1448 1.414 . S
C1449 C1450 1.374 . S
C1450 H1424 0.950 . S
C1450 C1446 1.385 . S
C1450 C1449 1.374 . S
C1451 C1448 1.499 . S
C1451 C1452 1.373 . S
C1451 C1453 1.389 . S
C1452 H1425 0.950 . S
C1452 C1438 1.377 . S
C1452 C1451 1.373 . S
C1453 C1437 1.377 . S
C1453 C1451 1.389 . S
C1453 C1454 1.524 . S
C1454 C1453 1.524 . S
C1454 C1455 1.397 . S
C1454 C1459 1.363 . S
C1455 H1426 0.950 . S
C1455 C1454 1.397 . S
C1455 C1456 1.334 . S
C1456 H1427 0.950 . S
C1456 C1455 1.334 . S
C1456 C1457 1.287 . S
C1457 C1456 1.287 . S
C1457 C1458 1.524 . S
C1457 H1460 0.999 . S
C1458 H1428 0.950 . S
C1458 C1457 1.524 . S
C1458 C1459 1.415 . S
C1459 H1429 0.950 . S
C1459 C1454 1.363 . S
C1459 C1458 1.415 . S
H1460 C1457 0.999 . S
H1461 C1442 0.913 . S
H1462 C1480 0.951 . S
H1463 C1482 0.951 . S
H1464 C1484 0.950 . S
H1465 C1485 0.950 . S
H1466 C1487 0.950 . S
H1467 C1490 0.950 . S
H1468 C1491 0.950 . S
H1469 C1493 0.950 . S
H1470 C1494 0.950 . S
H1471 C1495 0.951 . S
H1472 C1497 0.951 . S
H1473 C1499 0.950 . S
H1474 C1500 0.950 . S
H1475 C1502 0.950 . S
H1476 C1505 0.950 . S
H1477 C1506 0.950 . S
H1478 C1508 0.950 . S
H1479 C1509 0.950 . S
C1480 H1462 0.951 . S
C1480 C1481 1.366 . S
C1480 C1482 1.388 . S
C1481 C1480 1.366 . S
C1481 C1485 1.385 . S
C1482 H1463 0.951 . S
C1482 C1480 1.388 . S
C1482 C1483 1.366 . S
C1483 C1482 1.366 . S
C1483 C1484 1.414 . S
C1483 C1486 1.499 . S
C1484 H1464 0.950 . S
C1484 C1483 1.414 . S
C1484 C1485 1.374 . S
C1485 H1465 0.950 . S
C1485 C1481 1.385 . S
C1485 C1484 1.374 . S
C1486 C1483 1.499 . S
C1486 C1487 1.373 . S
C1486 C1488 1.389 . S
C1487 H1466 0.950 . S
C1487 C1486 1.373 . S
C1487 C1503 1.377 . S
C1488 C1486 1.389 . S
C1488 C1489 1.524 . S
C1488 C1502 1.377 . S
C1489 C1488 1.524 . S
C1489 C1490 1.397 . S
C1489 C1494 1.363 . S
C1490 H1467 0.950 . S
C1490 C1489 1.397 . S
C1490 C1491 1.334 . S
C1491 H1468 0.950 . S
C1491 C1490 1.334 . S
C1491 C1492 1.287 . S
C1492 C1491 1.287 . S
C1492 C1493 1.524 . S
C1492 H1511 0.913 . S
C1493 H1469 0.950 . S
C1493 C1492 1.524 . S
C1493 C1494 1.415 . S
C1494 H1470 0.950 . S
C1494 C1489 1.363 . S
C1494 C1493 1.415 . S
C1495 H1471 0.951 . S
C1495 C1496 1.366 . S
C1495 C1497 1.388 . S
C1496 C1495 1.366 . S
C1496 C1500 1.385 . S
C1497 H1472 0.951 . S
C1497 C1495 1.388 . S
C1497 C1498 1.366 . S
C1498 C1497 1.366 . S
C1498 C1499 1.414 . S
C1498 C1501 1.499 . S
C1499 H1473 0.950 . S
C1499 C1498 1.414 . S
C1499 C1500 1.374 . S
C1500 H1474 0.950 . S
C1500 C1496 1.385 . S
C1500 C1499 1.374 . S
C1501 C1498 1.499 . S
C1501 C1502 1.373 . S
C1501 C1503 1.389 . S
C1502 H1475 0.950 . S
C1502 C1488 1.377 . S
C1502 C1501 1.373 . S
C1503 C1487 1.377 . S
C1503 C1501 1.389 . S
C1503 C1504 1.524 . S
C1504 C1503 1.524 . S
C1504 C1505 1.397 . S
C1504 C1509 1.363 . S
C1505 H1476 0.950 . S
C1505 C1504 1.397 . S
C1505 C1506 1.334 . S
C1506 H1477 0.950 . S
C1506 C1505 1.334 . S
C1506 C1507 1.287 . S
C1507 C1506 1.287 . S
C1507 C1508 1.524 . S
C1507 H1510 0.999 . S
C1508 H1478 0.950 . S
C1508 C1507 1.524 . S
C1508 C1509 1.415 . S
C1509 H1479 0.950 . S
C1509 C1504 1.363 . S
C1509 C1508 1.415 . S
H1510 C1507 0.999 . S
H1511 C1492 0.913 . S
H1512 C1530 0.951 . S
H1513 C1532 0.951 . S
H1514 C1534 0.950 . S
H1515 C1535 0.950 . S
H1516 C1537 0.950 . S
H1517 C1540 0.950 . S
H1518 C1541 0.950 . S
H1519 C1543 0.950 . S
H1520 C1544 0.950 . S
H1521 C1545 0.951 . S
H1522 C1547 0.951 . S
H1523 C1549 0.950 . S
H1524 C1550 0.950 . S
H1525 C1552 0.950 . S
H1526 C1555 0.950 . S
H1527 C1556 0.950 . S
H1528 C1558 0.950 . S
H1529 C1559 0.950 . S
C1530 H1512 0.951 . S
C1530 C1531 1.366 . S
C1530 C1532 1.388 . S
C1531 C1530 1.366 . S
C1531 C1535 1.385 . S
C1532 H1513 0.951 . S
C1532 C1530 1.388 . S
C1532 C1533 1.366 . S
C1533 C1532 1.366 . S
C1533 C1534 1.414 . S
C1533 C1536 1.499 . S
C1534 H1514 0.950 . S
C1534 C1533 1.414 . S
C1534 C1535 1.374 . S
C1535 H1515 0.950 . S
C1535 C1531 1.385 . S
C1535 C1534 1.374 . S
C1536 C1533 1.499 . S
C1536 C1537 1.373 . S
C1536 C1538 1.389 . S
C1537 H1516 0.950 . S
C1537 C1536 1.373 . S
C1537 C1553 1.377 . S
C1538 C1536 1.389 . S
C1538 C1539 1.524 . S
C1538 C1552 1.377 . S
C1539 C1538 1.524 . S
C1539 C1540 1.397 . S
C1539 C1544 1.363 . S
C1540 H1517 0.950 . S
C1540 C1539 1.397 . S
C1540 C1541 1.334 . S
C1541 H1518 0.950 . S
C1541 C1540 1.334 . S
C1541 C1542 1.287 . S
C1542 C1541 1.287 . S
C1542 C1543 1.524 . S
C1542 H1561 0.913 1_545 S
C1543 H1519 0.950 . S
C1543 C1542 1.524 . S
C1543 C1544 1.415 . S
C1544 H1520 0.950 . S
C1544 C1539 1.363 . S
C1544 C1543 1.415 . S
C1545 H1521 0.951 . S
C1545 C1546 1.366 . S
C1545 C1547 1.388 . S
C1546 C1545 1.366 . S
C1546 C1550 1.385 . S
C1547 H1522 0.951 . S
C1547 C1545 1.388 . S
C1547 C1548 1.366 . S
C1548 C1547 1.366 . S
C1548 C1549 1.414 . S
C1548 C1551 1.499 . S
C1549 H1523 0.950 . S
C1549 C1548 1.414 . S
C1549 C1550 1.374 . S
C1550 H1524 0.950 . S
C1550 C1546 1.385 . S
C1550 C1549 1.374 . S
C1551 C1548 1.499 . S
C1551 C1552 1.373 . S
C1551 C1553 1.389 . S
C1552 H1525 0.950 . S
C1552 C1538 1.377 . S
C1552 C1551 1.373 . S
C1553 C1537 1.377 . S
C1553 C1551 1.389 . S
C1553 C1554 1.524 . S
C1554 C1553 1.524 . S
C1554 C1555 1.397 . S
C1554 C1559 1.363 . S
C1555 H1526 0.950 . S
C1555 C1554 1.397 . S
C1555 C1556 1.334 . S
C1556 H1527 0.950 . S
C1556 C1555 1.334 . S
C1556 C1557 1.287 . S
C1557 C1556 1.287 . S
C1557 C1558 1.524 . S
C1557 H1560 0.999 . S
C1558 H1528 0.950 . S
C1558 C1557 1.524 . S
C1558 C1559 1.415 . S
C1559 H1529 0.950 . S
C1559 C1554 1.363 . S
C1559 C1558 1.415 . S
H1560 C1557 0.999 . S
H1561 C1542 0.913 1_565 S
H1562 C1580 0.951 . S
H1563 C1582 0.951 . S
H1564 C1584 0.950 . S
H1565 C1585 0.950 . S
H1566 C1587 0.950 . S
H1567 C1590 0.950 . S
H1568 C1591 0.950 . S
H1569 C1593 0.950 . S
H1570 C1594 0.950 . S
H1571 C1595 0.951 . S
H1572 C1597 0.951 . S
H1573 C1599 0.950 . S
H1574 C1600 0.950 . S
H1575 C1602 0.950 . S
H1576 C1605 0.950 . S
H1577 C1606 0.950 . S
H1578 C1608 0.950 . S
H1579 C1609 0.950 . S
C1580 H1562 0.951 . S
C1580 C1581 1.366 . S
C1580 C1582 1.388 . S
C1581 C1580 1.366 . S
C1581 C1585 1.385 . S
C1582 H1563 0.951 . S
C1582 C1580 1.388 . S
C1582 C1583 1.366 . S
C1583 C1582 1.366 . S
C1583 C1584 1.414 . S
C1583 C1586 1.499 . S
C1584 H1564 0.950 . S
C1584 C1583 1.414 . S
C1584 C1585 1.374 . S
C1585 H1565 0.950 . S
C1585 C1581 1.385 . S
C1585 C1584 1.374 . S
C1586 C1583 1.499 . S
C1586 C1587 1.373 . S
C1586 C1588 1.389 . S
C1587 H1566 0.950 . S
C1587 C1586 1.373 . S
C1587 C1603 1.377 . S
C1588 C1586 1.389 . S
C1588 C1589 1.524 . S
C1588 C1602 1.377 . S
C1589 C1588 1.524 . S
C1589 C1590 1.397 . S
C1589 C1594 1.363 . S
C1590 H1567 0.950 . S
C1590 C1589 1.397 . S
C1590 C1591 1.334 . S
C1591 H1568 0.950 . S
C1591 C1590 1.334 . S
C1591 C1592 1.287 . S
C1592 C1591 1.287 . S
C1592 C1593 1.524 . S
C1592 H1611 0.913 . S
C1593 H1569 0.950 . S
C1593 C1592 1.524 . S
C1593 C1594 1.415 . S
C1594 H1570 0.950 . S
C1594 C1589 1.363 . S
C1594 C1593 1.415 . S
C1595 H1571 0.951 . S
C1595 C1596 1.366 . S
C1595 C1597 1.388 . S
C1596 C1595 1.366 . S
C1596 C1600 1.385 . S
C1597 H1572 0.951 . S
C1597 C1595 1.388 . S
C1597 C1598 1.366 . S
C1598 C1597 1.366 . S
C1598 C1599 1.414 . S
C1598 C1601 1.499 . S
C1599 H1573 0.950 . S
C1599 C1598 1.414 . S
C1599 C1600 1.374 . S
C1600 H1574 0.950 . S
C1600 C1596 1.385 . S
C1600 C1599 1.374 . S
C1601 C1598 1.499 . S
C1601 C1602 1.373 . S
C1601 C1603 1.389 . S
C1602 H1575 0.950 . S
C1602 C1588 1.377 . S
C1602 C1601 1.373 . S
C1603 C1587 1.377 . S
C1603 C1601 1.389 . S
C1603 C1604 1.524 . S
C1604 C1603 1.524 . S
C1604 C1605 1.397 . S
C1604 C1609 1.363 . S
C1605 H1576 0.950 . S
C1605 C1604 1.397 . S
C1605 C1606 1.334 . S
C1606 H1577 0.950 . S
C1606 C1605 1.334 . S
C1606 C1607 1.287 . S
C1607 C1606 1.287 . S
C1607 C1608 1.524 . S
C1607 H1610 0.999 . S
C1608 H1578 0.950 . S
C1608 C1607 1.524 . S
C1608 C1609 1.415 . S
C1609 H1579 0.950 . S
C1609 C1604 1.363 . S
C1609 C1608 1.415 . S
H1610 C1607 0.999 . S
H1611 C1592 0.913 . S
H1612 C1630 0.951 . S
H1613 C1632 0.951 . S
H1614 C1634 0.950 . S
H1615 C1635 0.950 . S
H1616 C1637 0.950 . S
H1617 C1640 0.950 . S
H1618 C1641 0.950 . S
H1619 C1643 0.950 . S
H1620 C1644 0.950 . S
H1621 C1645 0.951 . S
H1622 C1647 0.951 . S
H1623 C1649 0.950 . S
H1624 C1650 0.950 . S
H1625 C1652 0.950 . S
H1626 C1655 0.950 . S
H1627 C1656 0.950 . S
H1628 C1658 0.950 . S
H1629 C1659 0.950 . S
C1630 H1612 0.951 . S
C1630 C1631 1.366 . S
C1630 C1632 1.388 . S
C1631 C1630 1.366 . S
C1631 C1635 1.385 . S
C1632 H1613 0.951 . S
C1632 C1630 1.388 . S
C1632 C1633 1.366 . S
C1633 C1632 1.366 . S
C1633 C1634 1.414 . S
C1633 C1636 1.499 . S
C1634 H1614 0.950 . S
C1634 C1633 1.414 . S
C1634 C1635 1.374 . S
C1635 H1615 0.950 . S
C1635 C1631 1.385 . S
C1635 C1634 1.374 . S
C1636 C1633 1.499 . S
C1636 C1637 1.373 . S
C1636 C1638 1.389 . S
C1637 H1616 0.950 . S
C1637 C1636 1.373 . S
C1637 C1653 1.377 . S
C1638 C1636 1.389 . S
C1638 C1639 1.524 . S
C1638 C1652 1.377 . S
C1639 C1638 1.524 . S
C1639 C1640 1.397 . S
C1639 C1644 1.363 . S
C1640 H1617 0.950 . S
C1640 C1639 1.397 . S
C1640 C1641 1.334 . S
C1641 H1618 0.950 . S
C1641 C1640 1.334 . S
C1641 C1642 1.287 . S
C1642 C1641 1.287 . S
C1642 C1643 1.524 . S
C1642 H1661 0.913 . S
C1643 H1619 0.950 . S
C1643 C1642 1.524 . S
C1643 C1644 1.415 . S
C1644 H1620 0.950 . S
C1644 C1639 1.363 . S
C1644 C1643 1.415 . S
C1645 H1621 0.951 . S
C1645 C1646 1.366 . S
C1645 C1647 1.388 . S
C1646 C1645 1.366 . S
C1646 C1650 1.385 . S
C1647 H1622 0.951 . S
C1647 C1645 1.388 . S
C1647 C1648 1.366 . S
C1648 C1647 1.366 . S
C1648 C1649 1.414 . S
C1648 C1651 1.499 . S
C1649 H1623 0.950 . S
C1649 C1648 1.414 . S
C1649 C1650 1.374 . S
C1650 H1624 0.950 . S
C1650 C1646 1.385 . S
C1650 C1649 1.374 . S
C1651 C1648 1.499 . S
C1651 C1652 1.373 . S
C1651 C1653 1.389 . S
C1652 H1625 0.950 . S
C1652 C1638 1.377 . S
C1652 C1651 1.373 . S
C1653 C1637 1.377 . S
C1653 C1651 1.389 . S
C1653 C1654 1.524 . S
C1654 C1653 1.524 . S
C1654 C1655 1.397 . S
C1654 C1659 1.363 . S
C1655 H1626 0.950 . S
C1655 C1654 1.397 . S
C1655 C1656 1.334 . S
C1656 H1627 0.950 . S
C1656 C1655 1.334 . S
C1656 C1657 1.287 . S
C1657 C1656 1.287 . S
C1657 C1658 1.524 . S
C1657 H1660 0.999 . S
C1658 H1628 0.950 . S
C1658 C1657 1.524 . S
C1658 C1659 1.415 . S
C1659 H1629 0.950 . S
C1659 C1654 1.363 . S
C1659 C1658 1.415 . S
H1660 C1657 0.999 . S
H1661 C1642 0.913 . S
H1662 C1680 0.951 . S
H1663 C1682 0.951 . S
H1664 C1684 0.950 . S
H1665 C1685 0.950 . S
H1666 C1687 0.950 . S
H1667 C1690 0.950 . S
H1668 C1691 0.950 . S
H1669 C1693 0.950 . S
H1670 C1694 0.950 . S
H1671 C1695 0.951 . S
H1672 C1697 0.951 . S
H1673 C1699 0.950 . S
H1674 C1700 0.950 . S
H1675 C1702 0.950 . S
H1676 C1705 0.950 . S
H1677 C1706 0.950 . S
H1678 C1708 0.950 . S
H1679 C1709 0.950 . S
C1680 H1662 0.951 . S
C1680 C1681 1.366 . S
C1680 C1682 1.388 . S
C1681 C1680 1.366 . S
C1681 C1685 1.385 . S
C1682 H1663 0.951 . S
C1682 C1680 1.388 . S
C1682 C1683 1.366 . S
C1683 C1682 1.366 . S
C1683 C1684 1.414 . S
C1683 C1686 1.499 . S
C1684 H1664 0.950 . S
C1684 C1683 1.414 . S
C1684 C1685 1.374 . S
C1685 H1665 0.950 . S
C1685 C1681 1.385 . S
C1685 C1684 1.374 . S
C1686 C1683 1.499 . S
C1686 C1687 1.373 . S
C1686 C1688 1.389 . S
C1687 H1666 0.950 . S
C1687 C1686 1.373 . S
C1687 C1703 1.377 . S
C1688 C1686 1.389 . S
C1688 C1689 1.524 . S
C1688 C1702 1.377 . S
C1689 C1688 1.524 . S
C1689 C1690 1.397 . S
C1689 C1694 1.363 . S
C1690 H1667 0.950 . S
C1690 C1689 1.397 . S
C1690 C1691 1.334 . S
C1691 H1668 0.950 . S
C1691 C1690 1.334 . S
C1691 C1692 1.287 . S
C1692 C1691 1.287 . S
C1692 C1693 1.524 . S
C1692 H1711 0.913 . S
C1693 H1669 0.950 . S
C1693 C1692 1.524 . S
C1693 C1694 1.415 . S
C1694 H1670 0.950 . S
C1694 C1689 1.363 . S
C1694 C1693 1.415 . S
C1695 H1671 0.951 . S
C1695 C1696 1.366 . S
C1695 C1697 1.388 . S
C1696 C1695 1.366 . S
C1696 C1700 1.385 . S
C1697 H1672 0.951 . S
C1697 C1695 1.388 . S
C1697 C1698 1.366 . S
C1698 C1697 1.366 . S
C1698 C1699 1.414 . S
C1698 C1701 1.499 . S
C1699 H1673 0.950 . S
C1699 C1698 1.414 . S
C1699 C1700 1.374 . S
C1700 H1674 0.950 . S
C1700 C1696 1.385 . S
C1700 C1699 1.374 . S
C1701 C1698 1.499 . S
C1701 C1702 1.373 . S
C1701 C1703 1.389 . S
C1702 H1675 0.950 . S
C1702 C1688 1.377 . S
C1702 C1701 1.373 . S
C1703 C1687 1.377 . S
C1703 C1701 1.389 . S
C1703 C1704 1.524 . S
C1704 C1703 1.524 . S
C1704 C1705 1.397 . S
C1704 C1709 1.363 . S
C1705 H1676 0.950 . S
C1705 C1704 1.397 . S
C1705 C1706 1.334 . S
C1706 H1677 0.950 . S
C1706 C1705 1.334 . S
C1706 C1707 1.287 . S
C1707 C1706 1.287 . S
C1707 C1708 1.524 . S
C1707 H1710 0.999 . S
C1708 H1678 0.950 . S
C1708 C1707 1.524 . S
C1708 C1709 1.415 . S
C1709 H1679 0.950 . S
C1709 C1704 1.363 . S
C1709 C1708 1.415 . S
H1710 C1707 0.999 . S
H1711 C1692 0.913 . S
H1712 C1730 0.951 . S
H1713 C1732 0.951 . S
H1714 C1734 0.950 . S
H1715 C1735 0.950 . S
H1716 C1737 0.950 . S
H1717 C1740 0.950 . S
H1718 C1741 0.950 . S
H1719 C1743 0.950 . S
H1720 C1744 0.950 . S
H1721 C1745 0.951 . S
H1722 C1747 0.951 . S
H1723 C1749 0.950 . S
H1724 C1750 0.950 . S
H1725 C1752 0.950 . S
H1726 C1755 0.950 . S
H1727 C1756 0.950 . S
H1728 C1758 0.950 . S
H1729 C1759 0.950 . S
C1730 H1712 0.951 . S
C1730 C1731 1.366 . S
C1730 C1732 1.388 . S
C1731 C1730 1.366 . S
C1731 C1735 1.385 . S
C1732 H1713 0.951 . S
C1732 C1730 1.388 . S
C1732 C1733 1.366 . S
C1733 C1732 1.366 . S
C1733 C1734 1.414 . S
C1733 C1736 1.499 . S
C1734 H1714 0.950 . S
C1734 C1733 1.414 . S
C1734 C1735 1.374 . S
C1735 H1715 0.950 . S
C1735 C1731 1.385 . S
C1735 C1734 1.374 . S
C1736 C1733 1.499 . S
C1736 C1737 1.373 . S
C1736 C1738 1.389 . S
C1737 H1716 0.950 . S
C1737 C1736 1.373 . S
C1737 C1753 1.377 . S
C1738 C1736 1.389 . S
C1738 C1739 1.524 . S
C1738 C1752 1.377 . S
C1739 C1738 1.524 . S
C1739 C1740 1.397 . S
C1739 C1744 1.363 . S
C1740 H1717 0.950 . S
C1740 C1739 1.397 . S
C1740 C1741 1.334 . S
C1741 H1718 0.950 . S
C1741 C1740 1.334 . S
C1741 C1742 1.287 . S
C1742 C1741 1.287 . S
C1742 C1743 1.524 . S
C1742 H1761 0.913 . S
C1743 H1719 0.950 . S
C1743 C1742 1.524 . S
C1743 C1744 1.415 . S
C1744 H1720 0.950 . S
C1744 C1739 1.363 . S
C1744 C1743 1.415 . S
C1745 H1721 0.951 . S
C1745 C1746 1.366 . S
C1745 C1747 1.388 . S
C1746 C1745 1.366 . S
C1746 C1750 1.385 . S
C1747 H1722 0.951 . S
C1747 C1745 1.388 . S
C1747 C1748 1.366 . S
C1748 C1747 1.366 . S
C1748 C1749 1.414 . S
C1748 C1751 1.499 . S
C1749 H1723 0.950 . S
C1749 C1748 1.414 . S
C1749 C1750 1.374 . S
C1750 H1724 0.950 . S
C1750 C1746 1.385 . S
C1750 C1749 1.374 . S
C1751 C1748 1.499 . S
C1751 C1752 1.373 . S
C1751 C1753 1.389 . S
C1752 H1725 0.950 . S
C1752 C1738 1.377 . S
C1752 C1751 1.373 . S
C1753 C1737 1.377 . S
C1753 C1751 1.389 . S
C1753 C1754 1.524 . S
C1754 C1753 1.524 . S
C1754 C1755 1.397 . S
C1754 C1759 1.363 . S
C1755 H1726 0.950 . S
C1755 C1754 1.397 . S
C1755 C1756 1.334 . S
C1756 H1727 0.950 . S
C1756 C1755 1.334 . S
C1756 C1757 1.287 . S
C1757 C1756 1.287 . S
C1757 C1758 1.524 . S
C1757 H1760 0.999 . S
C1758 H1728 0.950 . S
C1758 C1757 1.524 . S
C1758 C1759 1.415 . S
C1759 H1729 0.950 . S
C1759 C1754 1.363 . S
C1759 C1758 1.415 . S
H1760 C1757 0.999 . S
H1761 C1742 0.913 . S
H1762 C1780 0.951 . S
H1763 C1782 0.951 . S
H1764 C1784 0.950 . S
H1765 C1785 0.950 . S
H1766 C1787 0.950 . S
H1767 C1790 0.950 . S
H1768 C1791 0.950 . S
H1769 C1793 0.950 . S
H1770 C1794 0.950 . S
H1771 C1795 0.951 . S
H1772 C1797 0.951 . S
H1773 C1799 0.950 . S
H1774 C1800 0.950 . S
H1775 C1802 0.950 . S
H1776 C1805 0.950 . S
H1777 C1806 0.950 . S
H1778 C1808 0.950 . S
H1779 C1809 0.950 . S
C1780 H1762 0.951 . S
C1780 C1781 1.366 . S
C1780 C1782 1.388 . S
C1781 C1780 1.366 . S
C1781 C1785 1.385 . S
C1782 H1763 0.951 . S
C1782 C1780 1.388 . S
C1782 C1783 1.366 . S
C1783 C1782 1.366 . S
C1783 C1784 1.414 . S
C1783 C1786 1.499 . S
C1784 H1764 0.950 . S
C1784 C1783 1.414 . S
C1784 C1785 1.374 . S
C1785 H1765 0.950 . S
C1785 C1781 1.385 . S
C1785 C1784 1.374 . S
C1786 C1783 1.499 . S
C1786 C1787 1.373 . S
C1786 C1788 1.389 . S
C1787 H1766 0.950 . S
C1787 C1786 1.373 . S
C1787 C1803 1.377 . S
C1788 C1786 1.389 . S
C1788 C1789 1.524 . S
C1788 C1802 1.377 . S
C1789 C1788 1.524 . S
C1789 C1790 1.397 . S
C1789 C1794 1.363 . S
C1790 H1767 0.950 . S
C1790 C1789 1.397 . S
C1790 C1791 1.334 . S
C1791 H1768 0.950 . S
C1791 C1790 1.334 . S
C1791 C1792 1.287 . S
C1792 C1791 1.287 . S
C1792 C1793 1.524 . S
C1792 H1811 0.913 . S
C1793 H1769 0.950 . S
C1793 C1792 1.524 . S
C1793 C1794 1.415 . S
C1794 H1770 0.950 . S
C1794 C1789 1.363 . S
C1794 C1793 1.415 . S
C1795 H1771 0.951 . S
C1795 C1796 1.366 . S
C1795 C1797 1.388 . S
C1796 C1795 1.366 . S
C1796 C1800 1.385 . S
C1797 H1772 0.951 . S
C1797 C1795 1.388 . S
C1797 C1798 1.366 . S
C1798 C1797 1.366 . S
C1798 C1799 1.414 . S
C1798 C1801 1.499 . S
C1799 H1773 0.950 . S
C1799 C1798 1.414 . S
C1799 C1800 1.374 . S
C1800 H1774 0.950 . S
C1800 C1796 1.385 . S
C1800 C1799 1.374 . S
C1801 C1798 1.499 . S
C1801 C1802 1.373 . S
C1801 C1803 1.389 . S
C1802 H1775 0.950 . S
C1802 C1788 1.377 . S
C1802 C1801 1.373 . S
C1803 C1787 1.377 . S
C1803 C1801 1.389 . S
C1803 C1804 1.524 . S
C1804 C1803 1.524 . S
C1804 C1805 1.397 . S
C1804 C1809 1.363 . S
C1805 H1776 0.950 . S
C1805 C1804 1.397 . S
C1805 C1806 1.334 . S
C1806 H1777 0.950 . S
C1806 C1805 1.334 . S
C1806 C1807 1.287 . S
C1807 C1806 1.287 . S
C1807 C1808 1.524 . S
C1807 H1810 0.999 . S
C1808 H1778 0.950 . S
C1808 C1807 1.524 . S
C1808 C1809 1.415 . S
C1809 H1779 0.950 . S
C1809 C1804 1.363 . S
C1809 C1808 1.415 . S
H1810 C1807 0.999 . S
H1811 C1792 0.913 . S
H1812 C1830 0.951 1_655 S
H1813 C1832 0.951 . S
H1814 C1834 0.950 . S
H1815 C1835 0.950 . S
H1816 C1837 0.950 . S
H1817 C1840 0.950 . S
H1818 C1841 0.950 . S
H1819 C1843 0.950 . S
H1820 C1844 0.950 . S
H1821 C1845 0.951 . S
H1822 C1847 0.951 1_455 S
H1823 C1849 0.950 . S
H1824 C1850 0.950 . S
H1825 C1852 0.950 . S
H1826 C1855 0.950 . S
H1827 C1856 0.950 . S
H1828 C1858 0.950 . S
H1829 C1859 0.950 . S
C1830 H1812 0.951 1_455 S
C1830 C1831 1.366 . S
C1830 C1832 1.388 1_455 S
C1831 C1830 1.366 . S
C1831 C1835 1.385 . S
C1832 H1813 0.951 . S
C1832 C1830 1.388 1_655 S
C1832 C1833 1.366 1_655 S
C1833 C1832 1.366 1_455 S
C1833 C1834 1.414 . S
C1833 C1836 1.499 1_455 S
C1834 H1814 0.950 . S
C1834 C1833 1.414 . S
C1834 C1835 1.374 . S
C1835 H1815 0.950 . S
C1835 C1831 1.385 . S
C1835 C1834 1.374 . S
C1836 C1833 1.499 1_655 S
C1836 C1837 1.373 1_655 S
C1836 C1838 1.389 . S
C1837 H1816 0.950 . S
C1837 C1836 1.373 1_455 S
C1837 C1853 1.377 . S
C1838 C1836 1.389 . S
C1838 C1839 1.524 . S
C1838 C1852 1.377 . S
C1839 C1838 1.524 . S
C1839 C1840 1.397 . S
C1839 C1844 1.363 . S
C1840 H1817 0.950 . S
C1840 C1839 1.397 . S
C1840 C1841 1.334 . S
C1841 H1818 0.950 . S
C1841 C1840 1.334 . S
C1841 C1842 1.287 . S
C1842 C1841 1.287 . S
C1842 C1843 1.524 . S
C1842 H1861 0.913 . S
C1843 H1819 0.950 . S
C1843 C1842 1.524 . S
C1843 C1844 1.415 . S
C1844 H1820 0.950 . S
C1844 C1839 1.363 . S
C1844 C1843 1.415 . S
C1845 H1821 0.951 . S
C1845 C1846 1.366 . S
C1845 C1847 1.388 . S
C1846 C1845 1.366 . S
C1846 C1850 1.385 . S
C1847 H1822 0.951 1_655 S
C1847 C1845 1.388 . S
C1847 C1848 1.366 . S
C1848 C1847 1.366 . S
C1848 C1849 1.414 . S
C1848 C1851 1.499 . S
C1849 H1823 0.950 . S
C1849 C1848 1.414 . S
C1849 C1850 1.374 . S
C1850 H1824 0.950 . S
C1850 C1846 1.385 . S
C1850 C1849 1.374 . S
C1851 C1848 1.499 . S
C1851 C1852 1.373 . S
C1851 C1853 1.389 1_655 S
C1852 H1825 0.950 . S
C1852 C1838 1.377 . S
C1852 C1851 1.373 . S
C1853 C1837 1.377 . S
C1853 C1851 1.389 1_455 S
C1853 C1854 1.524 . S
C1854 C1853 1.524 . S
C1854 C1855 1.397 . S
C1854 C1859 1.363 . S
C1855 H1826 0.950 . S
C1855 C1854 1.397 . S
C1855 C1856 1.334 . S
C1856 H1827 0.950 . S
C1856 C1855 1.334 . S
C1856 C1857 1.287 . S
C1857 C1856 1.287 . S
C1857 C1858 1.524 . S
C1857 H1860 0.999 . S
C1858 H1828 0.950 . S
C1858 C1857 1.524 . S
C1858 C1859 1.415 . S
C1859 H1829 0.950 . S
C1859 C1854 1.363 . S
C1859 C1858 1.415 . S
H1860 C1857 0.999 . S
H1861 C1842 0.913 . S
H1862 C1880 0.951 . S
H1863 C1882 0.951 . S
H1864 C1884 0.950 . S
H1865 C1885 0.950 . S
H1866 C1887 0.950 . S
H1867 C1890 0.950 . S
H1868 C1891 0.950 . S
H1869 C1893 0.950 . S
H1870 C1894 0.950 . S
H1871 C1895 0.951 . S
H1872 C1897 0.951 . S
H1873 C1899 0.950 . S
H1874 C1900 0.950 . S
H1875 C1902 0.950 . S
H1876 C1905 0.950 . S
H1877 C1906 0.950 . S
H1878 C1908 0.950 . S
H1879 C1909 0.950 . S
C1880 H1862 0.951 . S
C1880 C1881 1.366 . S
C1880 C1882 1.388 . S
C1881 C1880 1.366 . S
C1881 C1885 1.385 . S
C1882 H1863 0.951 . S
C1882 C1880 1.388 . S
C1882 C1883 1.366 . S
C1883 C1882 1.366 . S
C1883 C1884 1.414 . S
C1883 C1886 1.499 . S
C1884 H1864 0.950 . S
C1884 C1883 1.414 . S
C1884 C1885 1.374 . S
C1885 H1865 0.950 . S
C1885 C1881 1.385 . S
C1885 C1884 1.374 . S
C1886 C1883 1.499 . S
C1886 C1887 1.373 . S
C1886 C1888 1.389 . S
C1887 H1866 0.950 . S
C1887 C1886 1.373 . S
C1887 C1903 1.377 . S
C1888 C1886 1.389 . S
C1888 C1889 1.524 . S
C1888 C1902 1.377 . S
C1889 C1888 1.524 . S
C1889 C1890 1.397 . S
C1889 C1894 1.363 . S
C1890 H1867 0.950 . S
C1890 C1889 1.397 . S
C1890 C1891 1.334 . S
C1891 H1868 0.950 . S
C1891 C1890 1.334 . S
C1891 C1892 1.287 . S
C1892 C1891 1.287 . S
C1892 C1893 1.524 . S
C1892 H1911 0.913 . S
C1893 H1869 0.950 . S
C1893 C1892 1.524 . S
C1893 C1894 1.415 . S
C1894 H1870 0.950 . S
C1894 C1889 1.363 . S
C1894 C1893 1.415 . S
C1895 H1871 0.951 . S
C1895 C1896 1.366 . S
C1895 C1897 1.388 . S
C1896 C1895 1.366 . S
C1896 C1900 1.385 . S
C1897 H1872 0.951 . S
C1897 C1895 1.388 . S
C1897 C1898 1.366 . S
C1898 C1897 1.366 . S
C1898 C1899 1.414 . S
C1898 C1901 1.499 . S
C1899 H1873 0.950 . S
C1899 C1898 1.414 . S
C1899 C1900 1.374 . S
C1900 H1874 0.950 . S
C1900 C1896 1.385 . S
C1900 C1899 1.374 . S
C1901 C1898 1.499 . S
C1901 C1902 1.373 . S
C1901 C1903 1.389 . S
C1902 H1875 0.950 . S
C1902 C1888 1.377 . S
C1902 C1901 1.373 . S
C1903 C1887 1.377 . S
C1903 C1901 1.389 . S
C1903 C1904 1.524 . S
C1904 C1903 1.524 . S
C1904 C1905 1.397 . S
C1904 C1909 1.363 . S
C1905 H1876 0.950 . S
C1905 C1904 1.397 . S
C1905 C1906 1.334 . S
C1906 H1877 0.950 . S
C1906 C1905 1.334 . S
C1906 C1907 1.287 . S
C1907 C1906 1.287 . S
C1907 C1908 1.524 . S
C1907 H1910 0.999 . S
C1908 H1878 0.950 . S
C1908 C1907 1.524 . S
C1908 C1909 1.415 . S
C1909 H1879 0.950 . S
C1909 C1904 1.363 . S
C1909 C1908 1.415 . S
H1910 C1907 0.999 . S
H1911 C1892 0.913 . S
H1912 C1930 0.951 . S
H1913 C1932 0.951 . S
H1914 C1934 0.950 . S
H1915 C1935 0.950 . S
H1916 C1937 0.950 . S
H1917 C1940 0.950 . S
H1918 C1941 0.950 . S
H1919 C1943 0.950 . S
H1920 C1944 0.950 . S
H1921 C1945 0.951 . S
H1922 C1947 0.951 1_545 S
H1923 C1949 0.950 . S
H1924 C1950 0.950 . S
H1925 C1952 0.950 . S
H1926 C1955 0.950 . S
H1927 C1956 0.950 . S
H1928 C1958 0.950 . S
H1929 C1959 0.950 . S
C1930 H1912 0.951 . S
C1930 C1931 1.366 . S
C1930 C1932 1.388 . S
C1931 C1930 1.366 . S
C1931 C1935 1.385 . S
C1932 H1913 0.951 . S
C1932 C1930 1.388 . S
C1932 C1933 1.366 . S
C1933 C1932 1.366 . S
C1933 C1934 1.414 . S
C1933 C1936 1.499 . S
C1934 H1914 0.950 . S
C1934 C1933 1.414 . S
C1934 C1935 1.374 . S
C1935 H1915 0.950 . S
C1935 C1931 1.385 . S
C1935 C1934 1.374 . S
C1936 C1933 1.499 . S
C1936 C1937 1.373 . S
C1936 C1938 1.389 1_545 S
C1937 H1916 0.950 . S
C1937 C1936 1.373 . S
C1937 C1953 1.377 . S
C1938 C1936 1.389 1_565 S
C1938 C1939 1.524 . S
C1938 C1952 1.377 . S
C1939 C1938 1.524 . S
C1939 C1940 1.397 . S
C1939 C1944 1.363 . S
C1940 H1917 0.950 . S
C1940 C1939 1.397 . S
C1940 C1941 1.334 . S
C1941 H1918 0.950 . S
C1941 C1940 1.334 . S
C1941 C1942 1.287 . S
C1942 C1941 1.287 . S
C1942 C1943 1.524 . S
C1942 H1961 0.913 . S
C1943 H1919 0.950 . S
C1943 C1942 1.524 . S
C1943 C1944 1.415 . S
C1944 H1920 0.950 . S
C1944 C1939 1.363 . S
C1944 C1943 1.415 . S
C1945 H1921 0.951 . S
C1945 C1946 1.366 . S
C1945 C1947 1.388 . S
C1946 C1945 1.366 . S
C1946 C1950 1.385 . S
C1947 H1922 0.951 1_565 S
C1947 C1945 1.388 . S
C1947 C1948 1.366 . S
C1948 C1947 1.366 . S
C1948 C1949 1.414 . S
C1948 C1951 1.499 1_565 S
C1949 H1923 0.950 . S
C1949 C1948 1.414 . S
C1949 C1950 1.374 . S
C1950 H1924 0.950 . S
C1950 C1946 1.385 . S
C1950 C1949 1.374 . S
C1951 C1948 1.499 1_545 S
C1951 C1952 1.373 1_545 S
C1951 C1953 1.389 . S
C1952 H1925 0.950 . S
C1952 C1938 1.377 . S
C1952 C1951 1.373 1_565 S
C1953 C1937 1.377 . S
C1953 C1951 1.389 . S
C1953 C1954 1.524 . S
C1954 C1953 1.524 . S
C1954 C1955 1.397 . S
C1954 C1959 1.363 . S
C1955 H1926 0.950 . S
C1955 C1954 1.397 . S
C1955 C1956 1.334 . S
C1956 H1927 0.950 . S
C1956 C1955 1.334 . S
C1956 C1957 1.287 . S
C1957 C1956 1.287 . S
C1957 C1958 1.524 . S
C1957 H1960 0.999 . S
C1958 H1928 0.950 . S
C1958 C1957 1.524 . S
C1958 C1959 1.415 . S
C1959 H1929 0.950 . S
C1959 C1954 1.363 . S
C1959 C1958 1.415 . S
H1960 C1957 0.999 . S
H1961 C1942 0.913 . S
H1962 C1980 0.951 . S
H1963 C1982 0.951 . S
H1964 C1984 0.950 . S
H1965 C1985 0.950 1_545 S
H1966 C1987 0.950 . S
H1967 C1990 0.950 . S
H1968 C1991 0.950 . S
H1969 C1993 0.950 . S
H1970 C1994 0.950 . S
H1971 C1995 0.951 . S
H1972 C1997 0.951 . S
H1973 C1999 0.950 . S
H1974 C2000 0.950 . S
H1975 C2002 0.950 . S
H1976 C2005 0.950 . S
H1977 C2006 0.950 . S
H1978 C2008 0.950 . S
H1979 C2009 0.950 . S
C1980 H1962 0.951 . S
C1980 C1981 1.366 . S
C1980 C1982 1.388 . S
C1981 C1980 1.366 . S
C1981 C1985 1.385 . S
C1982 H1963 0.951 . S
C1982 C1980 1.388 . S
C1982 C1983 1.366 . S
C1983 C1982 1.366 . S
C1983 C1984 1.414 . S
C1983 C1986 1.499 . S
C1984 H1964 0.950 . S
C1984 C1983 1.414 . S
C1984 C1985 1.374 . S
C1985 H1965 0.950 1_565 S
C1985 C1981 1.385 . S
C1985 C1984 1.374 . S
C1986 C1983 1.499 . S
C1986 C1987 1.373 . S
C1986 C1988 1.389 1_554 S
C1987 H1966 0.950 . S
C1987 C1986 1.373 . S
C1987 C2003 1.405 . S
C1988 C1986 1.389 1_556 S
C1988 C1989 1.524 . S
C1988 C2002 1.377 . S
C1989 C1988 1.524 . S
C1989 C1990 1.397 . S
C1989 C1994 1.363 . S
C1990 H1967 0.950 . S
C1990 C1989 1.397 . S
C1990 C1991 1.334 . S
C1991 H1968 0.950 . S
C1991 C1990 1.334 . S
C1991 C1992 1.287 . S
C1992 C1991 1.287 . S
C1992 C1993 1.524 . S
C1992 H2011 0.913 . S
C1993 H1969 0.950 . S
C1993 C1992 1.524 . S
C1993 C1994 1.415 . S
C1994 H1970 0.950 . S
C1994 C1989 1.363 . S
C1994 C1993 1.415 . S
C1995 H1971 0.951 . S
C1995 C1996 1.366 . S
C1995 C1997 1.388 . S
C1996 C1995 1.366 . S
C1996 C2000 1.385 . S
C1997 H1972 0.951 . S
C1997 C1995 1.388 . S
C1997 C1998 1.366 . S
C1998 C1997 1.366 . S
C1998 C1999 1.414 . S
C1998 C2001 1.499 . S
C1999 H1973 0.950 . S
C1999 C1998 1.414 . S
C1999 C2000 1.374 . S
C2000 H1974 0.950 . S
C2000 C1996 1.385 . S
C2000 C1999 1.374 . S
C2001 C1998 1.499 . S
C2001 C2002 1.373 . S
C2001 C2003 1.349 1_556 S
C2002 H1975 0.950 . S
C2002 C1988 1.377 . S
C2002 C2001 1.373 . S
C2003 C1987 1.405 . S
C2003 C2001 1.349 1_554 S
C2003 C2004 1.545 . S
C2004 C2003 1.545 . S
C2004 C2005 1.397 . S
C2004 C2009 1.363 . S
C2005 H1976 0.950 . S
C2005 C2004 1.397 . S
C2005 C2006 1.334 . S
C2006 H1977 0.950 . S
C2006 C2005 1.334 . S
C2006 C2007 1.287 . S
C2007 C2006 1.287 . S
C2007 C2008 1.524 . S
C2007 H2010 0.999 . S
C2008 H1978 0.950 . S
C2008 C2007 1.524 . S
C2008 C2009 1.415 . S
C2009 H1979 0.950 . S
C2009 C2004 1.363 . S
C2009 C2008 1.415 . S
H2010 C2007 0.999 . S
H2011 C1992 0.913 . S
H2012 C2030 0.951 . S
H2013 C2032 0.955 . S
H2014 C2034 0.950 . S
H2015 C2035 0.950 1_655 S
H2016 C2037 0.950 . S
H2017 C2040 0.950 . S
H2018 C2041 0.950 . S
H2019 C2043 0.950 . S
H2020 C2044 0.950 . S
H2021 C2045 0.951 . S
H2022 C2047 0.951 . S
H2023 C2049 0.950 . S
H2024 C2050 0.950 . S
H2025 C2052 0.950 1_554 S
H2026 C2055 0.950 . S
H2027 C2056 0.950 . S
H2028 C2058 0.950 . S
H2029 C2059 0.950 . S
C2030 H2012 0.951 . S
C2030 C2031 1.366 . S
C2030 C2032 1.388 1_655 S
C2031 C2030 1.366 . S
C2031 C2035 1.385 1_655 S
C2032 H2013 0.955 . S
C2032 C2030 1.388 1_455 S
C2032 C2033 1.366 1_554 S
C2033 C2032 1.366 1_556 S
C2033 C2034 1.414 . S
C2033 C2036 1.499 . S
C2034 H2014 0.950 . S
C2034 C2033 1.414 . S
C2034 C2035 1.375 1_556 S
C2035 H2015 0.950 1_455 S
C2035 C2031 1.385 1_455 S
C2035 C2034 1.375 1_554 S
C2036 C2033 1.499 . S
C2036 C2037 1.373 . S
C2036 C2038 1.389 1_556 S
C2037 H2016 0.950 . S
C2037 C2036 1.373 . S
C2037 C2053 1.377 . S
C2038 C2036 1.389 1_554 S
C2038 C2039 1.524 . S
C2038 C2052 1.377 1_554 S
C2039 C2038 1.524 . S
C2039 C2040 1.397 . S
C2039 C2044 1.363 . S
C2040 H2017 0.950 . S
C2040 C2039 1.397 . S
C2040 C2041 1.334 . S
C2041 H2018 0.950 . S
C2041 C2040 1.334 . S
C2041 C2042 1.287 . S
C2042 C2041 1.287 . S
C2042 C2043 1.524 . S
C2042 H2061 0.913 . S
C2043 H2019 0.950 . S
C2043 C2042 1.524 . S
C2043 C2044 1.415 . S
C2044 H2020 0.950 . S
C2044 C2039 1.363 . S
C2044 C2043 1.415 . S
C2045 H2021 0.951 . S
C2045 C2046 1.366 . S
C2045 C2047 1.388 . S
C2046 C2045 1.366 . S
C2046 C2050 1.385 . S
C2047 H2022 0.951 . S
C2047 C2045 1.388 . S
C2047 C2048 1.366 . S
C2048 C2047 1.366 . S
C2048 C2049 1.414 . S
C2048 C2051 1.499 . S
C2049 H2023 0.950 . S
C2049 C2048 1.414 . S
C2049 C2050 1.374 . S
C2050 H2024 0.950 . S
C2050 C2046 1.385 . S
C2050 C2049 1.374 . S
C2051 C2048 1.499 . S
C2051 C2052 1.373 . S
C2051 C2053 1.389 . S
C2052 H2025 0.950 1_556 S
C2052 C2038 1.377 1_556 S
C2052 C2051 1.373 . S
C2053 C2037 1.377 . S
C2053 C2051 1.389 . S
C2053 C2054 1.524 . S
C2054 C2053 1.524 . S
C2054 C2055 1.397 . S
C2054 C2059 1.363 . S
C2055 H2026 0.950 . S
C2055 C2054 1.397 . S
C2055 C2056 1.334 . S
C2056 H2027 0.950 . S
C2056 C2055 1.334 . S
C2056 C2057 1.287 . S
C2057 C2056 1.287 . S
C2057 C2058 1.524 . S
C2057 H2060 0.999 . S
C2058 H2028 0.950 . S
C2058 C2057 1.524 . S
C2058 C2059 1.415 . S
C2059 H2029 0.950 . S
C2059 C2054 1.363 . S
C2059 C2058 1.415 . S
H2060 C2057 0.999 . S
H2061 C2042 0.913 . S
H2062 C2080 0.951 . S
H2063 C2082 0.951 . S
H2064 C2084 0.950 . S
H2065 C2085 0.950 . S
H2066 C2087 0.950 1_556 S
H2067 C2090 0.950 . S
H2068 C2091 0.950 . S
H2069 C2093 0.950 . S
H2070 C2094 0.950 . S
H2071 C2095 0.951 . S
H2072 C2097 0.951 . S
H2073 C2099 0.950 . S
H2074 C2100 0.950 . S
H2075 C2102 0.950 . S
H2076 C2105 0.950 . S
H2077 C2106 0.950 . S
H2078 C2108 0.950 . S
H2079 C2109 0.950 . S
C2080 H2062 0.951 . S
C2080 C2081 1.366 . S
C2080 C2082 1.388 . S
C2081 C2080 1.366 . S
C2081 C2085 1.385 . S
C2082 H2063 0.951 . S
C2082 C2080 1.388 . S
C2082 C2083 1.366 . S
C2083 C2082 1.366 . S
C2083 C2084 1.414 . S
C2083 C2086 1.499 . S
C2084 H2064 0.950 . S
C2084 C2083 1.414 . S
C2084 C2085 1.374 . S
C2085 H2065 0.950 . S
C2085 C2081 1.385 . S
C2085 C2084 1.374 . S
C2086 C2083 1.499 . S
C2086 C2087 1.373 . S
C2086 C2088 1.389 . S
C2087 H2066 0.950 1_554 S
C2087 C2086 1.373 . S
C2087 C2103 1.377 1_554 S
C2088 C2086 1.389 . S
C2088 C2089 1.524 . S
C2088 C2102 1.377 . S
C2089 C2088 1.524 . S
C2089 C2090 1.397 . S
C2089 C2094 1.363 . S
C2090 H2067 0.950 . S
C2090 C2089 1.397 . S
C2090 C2091 1.334 . S
C2091 H2068 0.950 . S
C2091 C2090 1.334 . S
C2091 C2092 1.287 . S
C2092 C2091 1.287 . S
C2092 C2093 1.524 . S
C2092 H2111 0.913 . S
C2093 H2069 0.950 . S
C2093 C2092 1.524 . S
C2093 C2094 1.415 . S
C2094 H2070 0.950 . S
C2094 C2089 1.363 . S
C2094 C2093 1.415 . S
C2095 H2071 0.951 . S
C2095 C2096 1.366 . S
C2095 C2097 1.388 . S
C2096 C2095 1.366 . S
C2096 C2100 1.385 . S
C2097 H2072 0.951 . S
C2097 C2095 1.388 . S
C2097 C2098 1.366 . S
C2098 C2097 1.366 . S
C2098 C2099 1.414 . S
C2098 C2101 1.532 . S
C2099 H2073 0.950 . S
C2099 C2098 1.414 . S
C2099 C2100 1.374 . S
C2100 H2074 0.950 . S
C2100 C2096 1.385 . S
C2100 C2099 1.374 . S
C2101 C2098 1.532 . S
C2101 C2102 1.312 1_556 S
C2101 C2103 1.416 . S
C2102 H2075 0.950 . S
C2102 C2088 1.377 . S
C2102 C2101 1.312 1_554 S
C2103 C2087 1.377 1_556 S
C2103 C2101 1.416 . S
C2103 C2104 1.524 . S
C2104 C2103 1.524 . S
C2104 C2105 1.397 . S
C2104 C2109 1.363 . S
C2105 H2076 0.950 . S
C2105 C2104 1.397 . S
C2105 C2106 1.334 . S
C2106 H2077 0.950 . S
C2106 C2105 1.334 . S
C2106 C2107 1.287 . S
C2107 C2106 1.287 . S
C2107 C2108 1.524 . S
C2107 H2110 0.999 . S
C2108 H2078 0.950 . S
C2108 C2107 1.524 . S
C2108 C2109 1.415 . S
C2109 H2079 0.950 . S
C2109 C2104 1.363 . S
C2109 C2108 1.415 . S
H2110 C2107 0.999 . S
H2111 C2092 0.913 . S
H2112 C2130 0.951 . S
H2113 C2132 0.951 1_544 S
H2114 C2134 0.950 . S
H2115 C2135 0.950 . S
H2116 C2137 0.950 . S
H2117 C2140 0.950 . S
H2118 C2141 0.950 . S
H2119 C2143 0.950 . S
H2120 C2144 0.950 . S
H2121 C2145 0.951 . S
H2122 C2147 0.951 . S
H2123 C2149 0.950 . S
H2124 C2150 0.950 . S
H2125 C2152 0.950 1_554 S
H2126 C2155 0.965 . S
H2127 C2156 0.950 . S
H2128 C2158 0.950 . S
H2129 C2159 0.950 . S
C2130 H2112 0.951 . S
C2130 C2131 1.366 . S
C2130 C2132 1.388 . S
C2131 C2130 1.366 . S
C2131 C2135 1.385 . S
C2132 H2113 0.951 1_566 S
C2132 C2130 1.388 . S
C2132 C2133 1.366 1_565 S
C2133 C2132 1.366 1_545 S
C2133 C2134 1.414 . S
C2133 C2136 1.499 . S
C2134 H2114 0.950 . S
C2134 C2133 1.414 . S
C2134 C2135 1.374 1_545 S
C2135 H2115 0.950 . S
C2135 C2131 1.385 . S
C2135 C2134 1.374 1_565 S
C2136 C2133 1.499 . S
C2136 C2137 1.373 . S
C2136 C2138 1.389 . S
C2137 H2116 0.950 . S
C2137 C2136 1.373 . S
C2137 C2153 1.377 . S
C2138 C2136 1.389 . S
C2138 C2139 1.524 . S
C2138 C2152 1.377 . S
C2139 C2138 1.524 . S
C2139 C2140 1.397 . S
C2139 C2144 1.363 1_556 S
C2140 H2117 0.950 . S
C2140 C2139 1.397 . S
C2140 C2141 1.334 . S
C2141 H2118 0.950 . S
C2141 C2140 1.334 . S
C2141 C2142 1.287 1_556 S
C2142 C2141 1.287 1_554 S
C2142 C2143 1.524 . S
C2142 H2161 0.913 . S
C2143 H2119 0.950 . S
C2143 C2142 1.524 . S
C2143 C2144 1.415 . S
C2144 H2120 0.950 . S
C2144 C2139 1.363 1_554 S
C2144 C2143 1.415 . S
C2145 H2121 0.951 . S
C2145 C2146 1.366 1_556 S
C2145 C2147 1.388 . S
C2146 C2145 1.366 1_554 S
C2146 C2150 1.385 . S
C2147 H2122 0.951 . S
C2147 C2145 1.388 . S
C2147 C2148 1.366 . S
C2148 C2147 1.366 . S
C2148 C2149 1.414 1_556 S
C2148 C2151 1.499 . S
C2149 H2123 0.950 . S
C2149 C2148 1.414 1_554 S
C2149 C2150 1.374 . S
C2150 H2124 0.950 . S
C2150 C2146 1.385 . S
C2150 C2149 1.374 . S
C2151 C2148 1.499 . S
C2151 C2152 1.373 . S
C2151 C2153 1.389 . S
C2152 H2125 0.950 1_556 S
C2152 C2138 1.377 . S
C2152 C2151 1.373 . S
C2153 C2137 1.377 . S
C2153 C2151 1.389 . S
C2153 C2154 1.524 . S
C2154 C2153 1.524 . S
C2154 C2155 1.397 . S
C2154 C2159 1.363 . S
C2155 H2126 0.965 . S
C2155 C2154 1.397 . S
C2155 C2156 1.334 . S
C2156 H2127 0.950 . S
C2156 C2155 1.334 . S
C2156 C2157 1.287 . S
C2157 C2156 1.287 . S
C2157 C2158 1.524 . S
C2157 H2160 0.999 . S
C2158 H2128 0.950 . S
C2158 C2157 1.524 . S
C2158 C2159 1.415 . S
C2159 H2129 0.950 . S
C2159 C2154 1.363 . S
C2159 C2158 1.415 . S
H2160 C2157 0.999 . S
H2161 C2142 0.913 . S
H2162 C2180 0.951 . S
H2163 C2182 0.951 . S
H2164 C2184 0.950 . S
H2165 C2185 0.950 . S
H2166 C2187 0.950 . S
H2167 C2190 0.950 . S
H2168 C2191 0.950 . S
H2169 C2193 0.950 . S
H2170 C2194 0.950 . S
H2171 C2195 0.951 . S
H2172 C2197 0.951 . S
H2173 C2199 0.950 1_554 S
H2174 C2200 0.950 . S
H2175 C2202 0.950 . S
H2176 C2205 0.950 . S
H2177 C2206 0.950 . S
H2178 C2208 0.950 . S
H2179 C2209 0.950 . S
C2180 H2162 0.951 . S
C2180 C2181 1.366 . S
C2180 C2182 1.388 . S
C2181 C2180 1.366 . S
C2181 C2185 1.385 . S
C2182 H2163 0.951 . S
C2182 C2180 1.388 . S
C2182 C2183 1.366 . S
C2183 C2182 1.366 . S
C2183 C2184 1.414 . S
C2183 C2186 1.499 . S
C2184 H2164 0.950 . S
C2184 C2183 1.414 . S
C2184 C2185 1.374 . S
C2185 H2165 0.950 . S
C2185 C2181 1.385 . S
C2185 C2184 1.374 . S
C2186 C2183 1.499 . S
C2186 C2187 1.373 1_554 S
C2186 C2188 1.389 . S
C2187 H2166 0.950 . S
C2187 C2186 1.373 1_556 S
C2187 C2203 1.377 . S
C2188 C2186 1.389 . S
C2188 C2189 1.524 . S
C2188 C2202 1.377 . S
C2189 C2188 1.524 . S
C2189 C2190 1.397 . S
C2189 C2194 1.363 . S
C2190 H2167 0.950 . S
C2190 C2189 1.397 . S
C2190 C2191 1.334 . S
C2191 H2168 0.950 . S
C2191 C2190 1.334 . S
C2191 C2192 1.287 . S
C2192 C2191 1.287 . S
C2192 C2193 1.524 . S
C2192 H2211 0.913 . S
C2193 H2169 0.950 . S
C2193 C2192 1.524 . S
C2193 C2194 1.415 . S
C2194 H2170 0.950 . S
C2194 C2189 1.363 . S
C2194 C2193 1.415 . S
C2195 H2171 0.951 . S
C2195 C2196 1.366 . S
C2195 C2197 1.388 1_455 S
C2196 C2195 1.366 . S
C2196 C2200 1.385 . S
C2197 H2172 0.951 . S
C2197 C2195 1.388 1_655 S
C2197 C2198 1.366 . S
C2198 C2197 1.366 . S
C2198 C2199 1.414 . S
C2198 C2201 1.499 . S
C2199 H2173 0.950 1_556 S
C2199 C2198 1.414 . S
C2199 C2200 1.374 1_655 S
C2200 H2174 0.950 . S
C2200 C2196 1.385 . S
C2200 C2199 1.374 1_455 S
C2201 C2198 1.499 . S
C2201 C2202 1.373 1_556 S
C2201 C2203 1.389 . S
C2202 H2175 0.950 . S
C2202 C2188 1.377 . S
C2202 C2201 1.373 1_554 S
C2203 C2187 1.377 . S
C2203 C2201 1.389 . S
C2203 C2204 1.524 . S
C2204 C2203 1.524 . S
C2204 C2205 1.397 . S
C2204 C2209 1.363 . S
C2205 H2176 0.950 . S
C2205 C2204 1.397 . S
C2205 C2206 1.334 . S
C2206 H2177 0.950 . S
C2206 C2205 1.334 . S
C2206 C2207 1.287 . S
C2207 C2206 1.287 . S
C2207 C2208 1.524 . S
C2207 H2210 0.999 . S
C2208 H2178 0.950 . S
C2208 C2207 1.524 . S
C2208 C2209 1.415 . S
C2209 H2179 0.950 . S
C2209 C2204 1.363 . S
C2209 C2208 1.415 . S
H2210 C2207 0.999 . S
H2211 C2192 0.913 . S
H2212 C2230 0.951 . S
H2213 C2232 0.951 . S
H2214 C2234 0.950 . S
H2215 C2235 0.950 . S
H2216 C2237 0.950 . S
H2217 C2240 0.950 . S
H2218 C2241 0.950 . S
H2219 C2243 0.950 . S
H2220 C2244 0.950 . S
H2221 C2245 0.951 . S
H2222 C2247 0.951 . S
H2223 C2249 0.950 . S
H2224 C2250 0.950 . S
H2225 C2252 0.950 . S
H2226 C2255 0.950 . S
H2227 C2256 0.950 . S
H2228 C2258 0.950 . S
H2229 C2259 0.950 . S
C2230 H2212 0.951 . S
C2230 C2231 1.366 . S
C2230 C2232 1.388 . S
C2231 C2230 1.366 . S
C2231 C2235 1.385 . S
C2232 H2213 0.951 . S
C2232 C2230 1.388 . S
C2232 C2233 1.366 . S
C2233 C2232 1.366 . S
C2233 C2234 1.414 . S
C2233 C2236 1.504 . S
C2234 H2214 0.950 . S
C2234 C2233 1.414 . S
C2234 C2235 1.374 . S
C2235 H2215 0.950 . S
C2235 C2231 1.385 . S
C2235 C2234 1.374 . S
C2236 C2233 1.504 . S
C2236 C2237 1.382 . S
C2236 C2238 1.376 1_556 S
C2237 H2216 0.950 . S
C2237 C2236 1.382 . S
C2237 C2253 1.377 . S
C2238 C2236 1.376 1_554 S
C2238 C2239 1.524 . S
C2238 C2252 1.377 . S
C2239 C2238 1.524 . S
C2239 C2240 1.397 . S
C2239 C2244 1.363 . S
C2240 H2217 0.950 . S
C2240 C2239 1.397 . S
C2240 C2241 1.334 . S
C2241 H2218 0.950 . S
C2241 C2240 1.334 . S
C2241 C2242 1.287 . S
C2242 C2241 1.287 . S
C2242 C2243 1.524 . S
C2242 H2261 0.913 . S
C2243 H2219 0.950 . S
C2243 C2242 1.524 . S
C2243 C2244 1.415 . S
C2244 H2220 0.950 . S
C2244 C2239 1.363 . S
C2244 C2243 1.415 . S
C2245 H2221 0.951 . S
C2245 C2246 1.366 . S
C2245 C2247 1.388 . S
C2246 C2245 1.366 . S
C2246 C2250 1.385 . S
C2247 H2222 0.951 . S
C2247 C2245 1.388 . S
C2247 C2248 1.366 . S
C2248 C2247 1.366 . S
C2248 C2249 1.414 . S
C2248 C2251 1.499 . S
C2249 H2223 0.950 . S
C2249 C2248 1.414 . S
C2249 C2250 1.374 . S
C2250 H2224 0.950 . S
C2250 C2246 1.385 . S
C2250 C2249 1.374 . S
C2251 C2248 1.499 . S
C2251 C2252 1.373 . S
C2251 C2253 1.389 1_554 S
C2252 H2225 0.950 . S
C2252 C2238 1.377 . S
C2252 C2251 1.373 . S
C2253 C2237 1.377 . S
C2253 C2251 1.389 1_556 S
C2253 C2254 1.524 . S
C2254 C2253 1.524 . S
C2254 C2255 1.397 . S
C2254 C2259 1.363 . S
C2255 H2226 0.950 . S
C2255 C2254 1.397 . S
C2255 C2256 1.334 . S
C2256 H2227 0.950 . S
C2256 C2255 1.334 . S
C2256 C2257 1.287 . S
C2257 C2256 1.287 . S
C2257 C2258 1.524 . S
C2257 H2260 0.999 . S
C2258 H2228 0.950 . S
C2258 C2257 1.524 . S
C2258 C2259 1.415 . S
C2259 H2229 0.950 . S
C2259 C2254 1.363 . S
C2259 C2258 1.415 . S
H2260 C2257 0.999 . S
H2261 C2242 0.913 . S
H2262 C2280 0.951 . S
H2263 C2282 0.951 . S
H2264 C2284 0.950 . S
H2265 C2285 0.950 . S
H2266 C2287 0.950 . S
H2267 C2290 0.950 . S
H2268 C2291 0.950 . S
H2269 C2293 0.950 . S
H2270 C2294 0.950 . S
H2271 C2295 0.951 . S
H2272 C2297 0.951 . S
H2273 C2299 0.950 . S
H2274 C2300 0.950 . S
H2275 C2302 0.950 . S
H2276 C2305 0.950 . S
H2277 C2306 0.950 . S
H2278 C2308 0.950 . S
H2279 C2309 0.950 . S
C2280 H2262 0.951 . S
C2280 C2281 1.366 . S
C2280 C2282 1.388 . S
C2281 C2280 1.366 . S
C2281 C2285 1.385 . S
C2282 H2263 0.951 . S
C2282 C2280 1.388 . S
C2282 C2283 1.366 . S
C2283 C2282 1.366 . S
C2283 C2284 1.414 . S
C2283 C2286 1.499 . S
C2284 H2264 0.950 . S
C2284 C2283 1.414 . S
C2284 C2285 1.374 . S
C2285 H2265 0.950 . S
C2285 C2281 1.385 . S
C2285 C2284 1.374 . S
C2286 C2283 1.499 . S
C2286 C2287 1.373 . S
C2286 C2288 1.389 . S
C2287 H2266 0.950 . S
C2287 C2286 1.373 . S
C2287 C2303 1.377 . S
C2288 C2286 1.389 . S
C2288 C2289 1.524 . S
C2288 C2302 1.377 . S
C2289 C2288 1.524 . S
C2289 C2290 1.397 . S
C2289 C2294 1.363 . S
C2290 H2267 0.950 . S
C2290 C2289 1.397 . S
C2290 C2291 1.334 . S
C2291 H2268 0.950 . S
C2291 C2290 1.334 . S
C2291 C2292 1.287 . S
C2292 C2291 1.287 . S
C2292 C2293 1.524 . S
C2292 H2311 0.913 . S
C2293 H2269 0.950 . S
C2293 C2292 1.524 . S
C2293 C2294 1.415 . S
C2294 H2270 0.950 . S
C2294 C2289 1.363 . S
C2294 C2293 1.415 . S
C2295 H2271 0.951 . S
C2295 C2296 1.366 . S
C2295 C2297 1.388 . S
C2296 C2295 1.366 . S
C2296 C2300 1.385 . S
C2297 H2272 0.951 . S
C2297 C2295 1.388 . S
C2297 C2298 1.366 . S
C2298 C2297 1.366 . S
C2298 C2299 1.414 . S
C2298 C2301 1.499 . S
C2299 H2273 0.950 . S
C2299 C2298 1.414 . S
C2299 C2300 1.374 . S
C2300 H2274 0.950 . S
C2300 C2296 1.385 . S
C2300 C2299 1.374 . S
C2301 C2298 1.499 . S
C2301 C2302 1.373 . S
C2301 C2303 1.389 . S
C2302 H2275 0.950 . S
C2302 C2288 1.377 . S
C2302 C2301 1.373 . S
C2303 C2287 1.377 . S
C2303 C2301 1.389 . S
C2303 C2304 1.524 . S
C2304 C2303 1.524 . S
C2304 C2305 1.397 . S
C2304 C2309 1.363 . S
C2305 H2276 0.950 . S
C2305 C2304 1.397 . S
C2305 C2306 1.334 . S
C2306 H2277 0.950 . S
C2306 C2305 1.334 . S
C2306 C2307 1.287 . S
C2307 C2306 1.287 . S
C2307 C2308 1.524 . S
C2307 H2310 0.999 . S
C2308 H2278 0.950 . S
C2308 C2307 1.524 . S
C2308 C2309 1.415 . S
C2309 H2279 0.950 . S
C2309 C2304 1.363 . S
C2309 C2308 1.415 . S
H2310 C2307 0.999 . S
H2311 C2292 0.913 . S
H2312 C2330 0.951 . S
H2313 C2332 0.951 . S
H2314 C2334 0.950 . S
H2315 C2335 0.950 . S
H2316 C2337 0.950 . S
H2317 C2340 0.950 . S
H2318 C2341 0.950 . S
H2319 C2343 0.950 . S
H2320 C2344 0.950 . S
H2321 C2345 0.951 . S
H2322 C2347 0.951 . S
H2323 C2349 0.950 . S
H2324 C2350 0.950 . S
H2325 C2352 0.950 . S
H2326 C2355 0.950 . S
H2327 C2356 0.950 . S
H2328 C2358 0.950 . S
H2329 C2359 0.950 . S
C2330 H2312 0.951 . S
C2330 C2331 1.366 . S
C2330 C2332 1.388 . S
C2331 C2330 1.366 . S
C2331 C2335 1.385 . S
C2332 H2313 0.951 . S
C2332 C2330 1.388 . S
C2332 C2333 1.366 . S
C2333 C2332 1.366 . S
C2333 C2334 1.414 . S
C2333 C2336 1.499 . S
C2334 H2314 0.950 . S
C2334 C2333 1.414 . S
C2334 C2335 1.374 . S
C2335 H2315 0.950 . S
C2335 C2331 1.385 . S
C2335 C2334 1.374 . S
C2336 C2333 1.499 . S
C2336 C2337 1.373 . S
C2336 C2338 1.389 . S
C2337 H2316 0.950 . S
C2337 C2336 1.373 . S
C2337 C2353 1.377 . S
C2338 C2336 1.389 . S
C2338 C2339 1.524 . S
C2338 C2352 1.377 . S
C2339 C2338 1.524 . S
C2339 C2340 1.397 . S
C2339 C2344 1.363 . S
C2340 H2317 0.950 . S
C2340 C2339 1.397 . S
C2340 C2341 1.334 . S
C2341 H2318 0.950 . S
C2341 C2340 1.334 . S
C2341 C2342 1.287 . S
C2342 C2341 1.287 . S
C2342 C2343 1.524 . S
C2342 H2361 0.913 . S
C2343 H2319 0.950 . S
C2343 C2342 1.524 . S
C2343 C2344 1.415 . S
C2344 H2320 0.950 . S
C2344 C2339 1.363 . S
C2344 C2343 1.415 . S
C2345 H2321 0.951 . S
C2345 C2346 1.366 . S
C2345 C2347 1.388 . S
C2346 C2345 1.366 . S
C2346 C2350 1.385 . S
C2347 H2322 0.951 . S
C2347 C2345 1.388 . S
C2347 C2348 1.366 . S
C2348 C2347 1.366 . S
C2348 C2349 1.414 . S
C2348 C2351 1.499 . S
C2349 H2323 0.950 . S
C2349 C2348 1.414 . S
C2349 C2350 1.374 . S
C2350 H2324 0.950 . S
C2350 C2346 1.385 . S
C2350 C2349 1.374 . S
C2351 C2348 1.499 . S
C2351 C2352 1.373 . S
C2351 C2353 1.389 . S
C2352 H2325 0.950 . S
C2352 C2338 1.377 . S
C2352 C2351 1.373 . S
C2353 C2337 1.377 . S
C2353 C2351 1.389 . S
C2353 C2354 1.524 . S
C2354 C2353 1.524 . S
C2354 C2355 1.397 . S
C2354 C2359 1.363 . S
C2355 H2326 0.950 . S
C2355 C2354 1.397 . S
C2355 C2356 1.334 . S
C2356 H2327 0.950 . S
C2356 C2355 1.334 . S
C2356 C2357 1.287 . S
C2357 C2356 1.287 . S
C2357 C2358 1.524 . S
C2357 H2360 0.999 . S
C2358 H2328 0.950 . S
C2358 C2357 1.524 . S
C2358 C2359 1.415 . S
C2359 H2329 0.950 . S
C2359 C2354 1.363 . S
C2359 C2358 1.415 . S
H2360 C2357 0.999 . S
H2361 C2342 0.913 . S
H2362 C2380 0.951 . S
H2363 C2382 0.951 . S
H2364 C2384 0.950 . S
H2365 C2385 0.950 . S
H2366 C2387 0.950 . S
H2367 C2390 0.950 . S
H2368 C2391 0.950 . S
H2369 C2393 0.950 . S
H2370 C2394 0.950 . S
H2371 C2395 0.951 . S
H2372 C2397 0.951 . S
H2373 C2399 0.950 . S
H2374 C2400 0.950 . S
H2375 C2402 0.950 . S
H2376 C2405 0.950 . S
H2377 C2406 0.950 . S
H2378 C2408 0.950 . S
H2379 C2409 0.950 . S
C2380 H2362 0.951 . S
C2380 C2381 1.366 . S
C2380 C2382 1.388 . S
C2381 C2380 1.366 . S
C2381 C2385 1.385 . S
C2382 H2363 0.951 . S
C2382 C2380 1.388 . S
C2382 C2383 1.366 . S
C2383 C2382 1.366 . S
C2383 C2384 1.414 . S
C2383 C2386 1.499 . S
C2384 H2364 0.950 . S
C2384 C2383 1.414 . S
C2384 C2385 1.374 . S
C2385 H2365 0.950 . S
C2385 C2381 1.385 . S
C2385 C2384 1.374 . S
C2386 C2383 1.499 . S
C2386 C2387 1.373 . S
C2386 C2388 1.389 . S
C2387 H2366 0.950 . S
C2387 C2386 1.373 . S
C2387 C2403 1.377 . S
C2388 C2386 1.389 . S
C2388 C2389 1.524 . S
C2388 C2402 1.377 . S
C2389 C2388 1.524 . S
C2389 C2390 1.397 . S
C2389 C2394 1.363 . S
C2390 H2367 0.950 . S
C2390 C2389 1.397 . S
C2390 C2391 1.334 . S
C2391 H2368 0.950 . S
C2391 C2390 1.334 . S
C2391 C2392 1.287 . S
C2392 C2391 1.287 . S
C2392 C2393 1.524 . S
C2392 H2411 0.913 . S
C2393 H2369 0.950 . S
C2393 C2392 1.524 . S
C2393 C2394 1.415 . S
C2394 H2370 0.950 . S
C2394 C2389 1.363 . S
C2394 C2393 1.415 . S
C2395 H2371 0.951 . S
C2395 C2396 1.366 . S
C2395 C2397 1.388 . S
C2396 C2395 1.366 . S
C2396 C2400 1.385 . S
C2397 H2372 0.951 . S
C2397 C2395 1.388 . S
C2397 C2398 1.366 . S
C2398 C2397 1.366 . S
C2398 C2399 1.414 . S
C2398 C2401 1.499 . S
C2399 H2373 0.950 . S
C2399 C2398 1.414 . S
C2399 C2400 1.374 . S
C2400 H2374 0.950 . S
C2400 C2396 1.385 . S
C2400 C2399 1.374 . S
C2401 C2398 1.499 . S
C2401 C2402 1.373 . S
C2401 C2403 1.389 . S
C2402 H2375 0.950 . S
C2402 C2388 1.377 . S
C2402 C2401 1.373 . S
C2403 C2387 1.377 . S
C2403 C2401 1.389 . S
C2403 C2404 1.524 . S
C2404 C2403 1.524 . S
C2404 C2405 1.397 . S
C2404 C2409 1.363 . S
C2405 H2376 0.950 . S
C2405 C2404 1.397 . S
C2405 C2406 1.334 . S
C2406 H2377 0.950 . S
C2406 C2405 1.334 . S
C2406 C2407 1.287 . S
C2407 C2406 1.287 . S
C2407 C2408 1.524 . S
C2407 H2410 0.999 . S
C2408 H2378 0.950 . S
C2408 C2407 1.524 . S
C2408 C2409 1.415 . S
C2409 H2379 0.950 . S
C2409 C2404 1.363 . S
C2409 C2408 1.415 . S
H2410 C2407 0.999 . S
H2411 C2392 0.913 . S
H2412 C2430 0.951 . S
H2413 C2432 0.951 . S
H2414 C2434 0.950 . S
H2415 C2435 0.950 . S
H2416 C2437 0.950 . S
H2417 C2440 0.950 . S
H2418 C2441 0.950 . S
H2419 C2443 0.950 . S
H2420 C2444 0.950 . S
H2421 C2445 0.951 . S
H2422 C2447 0.951 . S
H2423 C2449 0.950 . S
H2424 C2450 0.950 . S
H2425 C2452 0.950 . S
H2426 C2455 0.950 . S
H2427 C2456 0.950 . S
H2428 C2458 0.950 . S
H2429 C2459 0.950 . S
C2430 H2412 0.951 . S
C2430 C2431 1.366 . S
C2430 C2432 1.388 . S
C2431 C2430 1.366 . S
C2431 C2435 1.385 . S
C2432 H2413 0.951 . S
C2432 C2430 1.388 . S
C2432 C2433 1.366 . S
C2433 C2432 1.366 . S
C2433 C2434 1.414 . S
C2433 C2436 1.499 . S
C2434 H2414 0.950 . S
C2434 C2433 1.414 . S
C2434 C2435 1.374 . S
C2435 H2415 0.950 . S
C2435 C2431 1.385 . S
C2435 C2434 1.374 . S
C2436 C2433 1.499 . S
C2436 C2437 1.373 . S
C2436 C2438 1.389 . S
C2437 H2416 0.950 . S
C2437 C2436 1.373 . S
C2437 C2453 1.377 . S
C2438 C2436 1.389 . S
C2438 C2439 1.524 . S
C2438 C2452 1.377 . S
C2439 C2438 1.524 . S
C2439 C2440 1.397 . S
C2439 C2444 1.363 . S
C2440 H2417 0.950 . S
C2440 C2439 1.397 . S
C2440 C2441 1.334 . S
C2441 H2418 0.950 . S
C2441 C2440 1.334 . S
C2441 C2442 1.287 . S
C2442 C2441 1.287 . S
C2442 C2443 1.524 . S
C2442 H2461 0.913 . S
C2443 H2419 0.950 . S
C2443 C2442 1.524 . S
C2443 C2444 1.415 . S
C2444 H2420 0.950 . S
C2444 C2439 1.363 . S
C2444 C2443 1.415 . S
C2445 H2421 0.951 . S
C2445 C2446 1.366 . S
C2445 C2447 1.388 . S
C2446 C2445 1.366 . S
C2446 C2450 1.385 . S
C2447 H2422 0.951 . S
C2447 C2445 1.388 . S
C2447 C2448 1.366 . S
C2448 C2447 1.366 . S
C2448 C2449 1.414 . S
C2448 C2451 1.499 . S
C2449 H2423 0.950 . S
C2449 C2448 1.414 . S
C2449 C2450 1.374 . S
C2450 H2424 0.950 . S
C2450 C2446 1.385 . S
C2450 C2449 1.374 . S
C2451 C2448 1.499 . S
C2451 C2452 1.373 . S
C2451 C2453 1.389 . S
C2452 H2425 0.950 . S
C2452 C2438 1.377 . S
C2452 C2451 1.373 . S
C2453 C2437 1.377 . S
C2453 C2451 1.389 . S
C2453 C2454 1.524 . S
C2454 C2453 1.524 . S
C2454 C2455 1.397 . S
C2454 C2459 1.363 . S
C2455 H2426 0.950 . S
C2455 C2454 1.397 . S
C2455 C2456 1.334 . S
C2456 H2427 0.950 . S
C2456 C2455 1.334 . S
C2456 C2457 1.287 . S
C2457 C2456 1.287 . S
C2457 C2458 1.524 . S
C2457 H2460 0.999 . S
C2458 H2428 0.950 . S
C2458 C2457 1.524 . S
C2458 C2459 1.415 . S
C2459 H2429 0.950 . S
C2459 C2454 1.363 . S
C2459 C2458 1.415 . S
H2460 C2457 0.999 . S
H2461 C2442 0.913 . S
H2462 C2480 0.951 . S
H2463 C2482 0.951 . S
H2464 C2484 0.950 . S
H2465 C2485 0.950 . S
H2466 C2487 0.950 . S
H2467 C2490 0.950 . S
H2468 C2491 0.950 . S
H2469 C2493 0.950 . S
H2470 C2494 0.950 . S
H2471 C2495 0.951 . S
H2472 C2497 0.951 . S
H2473 C2499 0.950 . S
H2474 C2500 0.950 . S
H2475 C2502 0.950 1_565 S
H2476 C2505 0.950 . S
H2477 C2506 0.950 . S
H2478 C2508 0.950 . S
H2479 C2509 0.950 . S
C2480 H2462 0.951 . S
C2480 C2481 1.366 . S
C2480 C2482 1.388 . S
C2481 C2480 1.366 . S
C2481 C2485 1.385 . S
C2482 H2463 0.951 . S
C2482 C2480 1.388 . S
C2482 C2483 1.366 . S
C2483 C2482 1.366 . S
C2483 C2484 1.414 . S
C2483 C2486 1.499 . S
C2484 H2464 0.950 . S
C2484 C2483 1.414 . S
C2484 C2485 1.374 . S
C2485 H2465 0.950 . S
C2485 C2481 1.385 . S
C2485 C2484 1.374 . S
C2486 C2483 1.499 . S
C2486 C2487 1.373 . S
C2486 C2488 1.389 . S
C2487 H2466 0.950 . S
C2487 C2486 1.373 . S
C2487 C2503 1.377 . S
C2488 C2486 1.389 . S
C2488 C2489 1.524 1_545 S
C2488 C2502 1.377 . S
C2489 C2488 1.524 1_565 S
C2489 C2490 1.397 . S
C2489 C2494 1.363 . S
C2490 H2467 0.950 . S
C2490 C2489 1.397 . S
C2490 C2491 1.334 . S
C2491 H2468 0.950 . S
C2491 C2490 1.334 . S
C2491 C2492 1.287 . S
C2492 C2491 1.287 . S
C2492 C2493 1.524 . S
C2492 H2511 0.913 . S
C2493 H2469 0.950 . S
C2493 C2492 1.524 . S
C2493 C2494 1.415 . S
C2494 H2470 0.950 . S
C2494 C2489 1.363 . S
C2494 C2493 1.415 . S
C2495 H2471 0.951 . S
C2495 C2496 1.366 . S
C2495 C2497 1.388 . S
C2496 C2495 1.366 . S
C2496 C2500 1.385 . S
C2497 H2472 0.951 . S
C2497 C2495 1.388 . S
C2497 C2498 1.366 . S
C2498 C2497 1.366 . S
C2498 C2499 1.414 . S
C2498 C2501 1.499 . S
C2499 H2473 0.950 . S
C2499 C2498 1.414 . S
C2499 C2500 1.374 . S
C2500 H2474 0.950 . S
C2500 C2496 1.385 . S
C2500 C2499 1.374 . S
C2501 C2498 1.499 . S
C2501 C2502 1.373 . S
C2501 C2503 1.389 . S
C2502 H2475 0.950 1_545 S
C2502 C2488 1.377 . S
C2502 C2501 1.373 . S
C2503 C2487 1.377 . S
C2503 C2501 1.389 . S
C2503 C2504 1.524 . S
C2504 C2503 1.524 . S
C2504 C2505 1.397 . S
C2504 C2509 1.363 . S
C2505 H2476 0.950 . S
C2505 C2504 1.397 . S
C2505 C2506 1.334 . S
C2506 H2477 0.950 . S
C2506 C2505 1.334 . S
C2506 C2507 1.287 . S
C2507 C2506 1.287 . S
C2507 C2508 1.524 . S
C2507 H2510 0.999 . S
C2508 H2478 0.950 . S
C2508 C2507 1.524 . S
C2508 C2509 1.415 . S
C2509 H2479 0.950 . S
C2509 C2504 1.363 . S
C2509 C2508 1.415 . S
H2510 C2507 0.999 . S
H2511 C2492 0.913 . S
H2512 C2530 0.951 . S
H2513 C2532 0.951 . S
H2514 C2534 0.950 1_455 S
H2515 C2535 0.950 1_455 S
H2516 C2537 0.950 1_455 S
H2517 C2540 0.950 . S
H2518 C2541 0.950 . S
H2519 C2543 0.950 . S
H2520 C2544 0.950 . S
H2521 C2545 0.951 . S
H2522 C2547 0.951 . S
H2523 C2549 0.950 . S
H2524 C2550 0.950 . S
H2525 C2552 0.950 . S
H2526 C2555 0.950 1_655 S
H2527 C2556 0.950 . S
H2528 C2558 0.950 . S
H2529 C2559 0.950 . S
C2530 H2512 0.951 . S
C2530 C2531 1.366 . S
C2530 C2532 1.388 . S
C2531 C2530 1.366 . S
C2531 C2535 1.385 . S
C2532 H2513 0.951 . S
C2532 C2530 1.388 . S
C2532 C2533 1.366 . S
C2533 C2532 1.366 . S
C2533 C2534 1.414 . S
C2533 C2536 1.499 . S
C2534 H2514 0.950 1_655 S
C2534 C2533 1.414 . S
C2534 C2535 1.374 . S
C2535 H2515 0.950 1_655 S
C2535 C2531 1.385 . S
C2535 C2534 1.374 . S
C2536 C2533 1.499 . S
C2536 C2537 1.373 . S
C2536 C2538 1.389 . S
C2537 H2516 0.950 1_655 S
C2537 C2536 1.373 . S
C2537 C2553 1.377 . S
C2538 C2536 1.389 . S
C2538 C2539 1.524 . S
C2538 C2552 1.377 . S
C2539 C2538 1.524 . S
C2539 C2540 1.397 . S
C2539 C2544 1.363 . S
C2540 H2517 0.950 . S
C2540 C2539 1.397 . S
C2540 C2541 1.334 . S
C2541 H2518 0.950 . S
C2541 C2540 1.334 . S
C2541 C2542 1.287 . S
C2542 C2541 1.287 . S
C2542 C2543 1.524 . S
C2542 H2561 0.913 . S
C2543 H2519 0.950 . S
C2543 C2542 1.524 . S
C2543 C2544 1.415 . S
C2544 H2520 0.950 . S
C2544 C2539 1.363 . S
C2544 C2543 1.415 . S
C2545 H2521 0.951 . S
C2545 C2546 1.366 1_455 S
C2545 C2547 1.388 . S
C2546 C2545 1.366 1_655 S
C2546 C2550 1.385 . S
C2547 H2522 0.951 . S
C2547 C2545 1.388 . S
C2547 C2548 1.366 1_455 S
C2548 C2547 1.366 1_655 S
C2548 C2549 1.414 . S
C2548 C2551 1.499 . S
C2549 H2523 0.950 . S
C2549 C2548 1.414 . S
C2549 C2550 1.374 . S
C2550 H2524 0.950 . S
C2550 C2546 1.385 . S
C2550 C2549 1.374 . S
C2551 C2548 1.499 . S
C2551 C2552 1.373 . S
C2551 C2553 1.389 . S
C2552 H2525 0.950 . S
C2552 C2538 1.377 . S
C2552 C2551 1.373 . S
C2553 C2537 1.377 . S
C2553 C2551 1.389 . S
C2553 C2554 1.524 1_655 S
C2554 C2553 1.524 1_455 S
C2554 C2555 1.397 . S
C2554 C2559 1.363 . S
C2555 H2526 0.950 1_455 S
C2555 C2554 1.397 . S
C2555 C2556 1.334 . S
C2556 H2527 0.950 . S
C2556 C2555 1.334 . S
C2556 C2557 1.287 . S
C2557 C2556 1.287 . S
C2557 C2558 1.524 . S
C2557 H2560 0.999 . S
C2558 H2528 0.950 . S
C2558 C2557 1.524 . S
C2558 C2559 1.415 . S
C2559 H2529 0.950 . S
C2559 C2554 1.363 . S
C2559 C2558 1.415 . S
H2560 C2557 0.999 . S
H2561 C2542 0.913 . S
H2562 C2580 0.951 . S
H2563 C2582 0.951 . S
H2564 C2584 0.950 . S
H2565 C2585 0.950 . S
H2566 C2587 0.950 . S
H2567 C2590 0.950 . S
H2568 C2591 0.950 . S
H2569 C2593 0.950 . S
H2570 C2594 0.950 . S
H2571 C2595 0.951 . S
H2572 C2597 0.951 . S
H2573 C2599 0.950 . S
H2574 C2600 0.950 . S
H2575 C2602 0.950 . S
H2576 C2605 0.950 . S
H2577 C2606 0.950 . S
H2578 C2608 0.950 . S
H2579 C2609 0.950 . S
C2580 H2562 0.951 . S
C2580 C2581 1.366 . S
C2580 C2582 1.388 . S
C2581 C2580 1.366 . S
C2581 C2585 1.385 . S
C2582 H2563 0.951 . S
C2582 C2580 1.388 . S
C2582 C2583 1.366 . S
C2583 C2582 1.366 . S
C2583 C2584 1.414 . S
C2583 C2586 1.499 . S
C2584 H2564 0.950 . S
C2584 C2583 1.414 . S
C2584 C2585 1.374 . S
C2585 H2565 0.950 . S
C2585 C2581 1.385 . S
C2585 C2584 1.374 . S
C2586 C2583 1.499 . S
C2586 C2587 1.373 . S
C2586 C2588 1.389 . S
C2587 H2566 0.950 . S
C2587 C2586 1.373 . S
C2587 C2603 1.377 . S
C2588 C2586 1.389 . S
C2588 C2589 1.524 . S
C2588 C2602 1.377 . S
C2589 C2588 1.524 . S
C2589 C2590 1.397 . S
C2589 C2594 1.363 . S
C2590 H2567 0.950 . S
C2590 C2589 1.397 . S
C2590 C2591 1.334 . S
C2591 H2568 0.950 . S
C2591 C2590 1.334 . S
C2591 C2592 1.287 . S
C2592 C2591 1.287 . S
C2592 C2593 1.524 . S
C2592 H2611 0.913 . S
C2593 H2569 0.950 . S
C2593 C2592 1.524 . S
C2593 C2594 1.415 . S
C2594 H2570 0.950 . S
C2594 C2589 1.363 . S
C2594 C2593 1.415 . S
C2595 H2571 0.951 . S
C2595 C2596 1.366 . S
C2595 C2597 1.388 . S
C2596 C2595 1.366 . S
C2596 C2600 1.385 . S
C2597 H2572 0.951 . S
C2597 C2595 1.388 . S
C2597 C2598 1.366 . S
C2598 C2597 1.366 . S
C2598 C2599 1.414 . S
C2598 C2601 1.499 . S
C2599 H2573 0.950 . S
C2599 C2598 1.414 . S
C2599 C2600 1.374 . S
C2600 H2574 0.950 . S
C2600 C2596 1.385 . S
C2600 C2599 1.374 . S
C2601 C2598 1.499 . S
C2601 C2602 1.373 . S
C2601 C2603 1.389 . S
C2602 H2575 0.950 . S
C2602 C2588 1.377 . S
C2602 C2601 1.373 . S
C2603 C2587 1.377 . S
C2603 C2601 1.389 . S
C2603 C2604 1.524 . S
C2604 C2603 1.524 . S
C2604 C2605 1.397 . S
C2604 C2609 1.363 . S
C2605 H2576 0.950 . S
C2605 C2604 1.397 . S
C2605 C2606 1.334 . S
C2606 H2577 0.950 . S
C2606 C2605 1.334 . S
C2606 C2607 1.287 . S
C2607 C2606 1.287 . S
C2607 C2608 1.524 . S
C2607 H2610 0.999 . S
C2608 H2578 0.950 . S
C2608 C2607 1.524 . S
C2608 C2609 1.415 . S
C2609 H2579 0.950 . S
C2609 C2604 1.363 . S
C2609 C2608 1.415 . S
H2610 C2607 0.999 . S
H2611 C2592 0.913 . S
H2612 C2630 0.951 . S
H2613 C2632 0.951 . S
H2614 C2634 0.950 . S
H2615 C2635 0.950 . S
H2616 C2637 0.950 1_545 S
H2617 C2640 0.950 . S
H2618 C2641 0.950 . S
H2619 C2643 0.950 . S
H2620 C2644 0.950 . S
H2621 C2645 0.951 . S
H2622 C2647 0.951 . S
H2623 C2649 0.950 . S
H2624 C2650 0.950 . S
H2625 C2652 0.950 . S
H2626 C2655 0.939 1_565 S
H2627 C2656 0.950 . S
H2628 C2658 0.950 . S
H2629 C2659 0.950 . S
C2630 H2612 0.951 . S
C2630 C2631 1.366 . S
C2630 C2632 1.388 . S
C2631 C2630 1.366 . S
C2631 C2635 1.385 1_565 S
C2632 H2613 0.951 . S
C2632 C2630 1.388 . S
C2632 C2633 1.366 . S
C2633 C2632 1.366 . S
C2633 C2634 1.414 1_565 S
C2633 C2636 1.499 . S
C2634 H2614 0.950 . S
C2634 C2633 1.414 1_545 S
C2634 C2635 1.374 . S
C2635 H2615 0.950 . S
C2635 C2631 1.385 1_545 S
C2635 C2634 1.374 . S
C2636 C2633 1.499 . S
C2636 C2637 1.373 . S
C2636 C2638 1.389 . S
C2637 H2616 0.950 1_565 S
C2637 C2636 1.373 . S
C2637 C2653 1.377 . S
C2638 C2636 1.389 . S
C2638 C2639 1.524 . S
C2638 C2652 1.377 . S
C2639 C2638 1.524 . S
C2639 C2640 1.397 . S
C2639 C2644 1.363 . S
C2640 H2617 0.950 . S
C2640 C2639 1.397 . S
C2640 C2641 1.334 . S
C2641 H2618 0.950 . S
C2641 C2640 1.334 . S
C2641 C2642 1.287 . S
C2642 C2641 1.287 . S
C2642 C2643 1.524 . S
C2642 H2661 0.913 . S
C2643 H2619 0.950 . S
C2643 C2642 1.524 . S
C2643 C2644 1.415 . S
C2644 H2620 0.950 . S
C2644 C2639 1.363 . S
C2644 C2643 1.415 . S
C2645 H2621 0.951 . S
C2645 C2646 1.366 . S
C2645 C2647 1.388 . S
C2646 C2645 1.366 . S
C2646 C2650 1.385 . S
C2647 H2622 0.951 . S
C2647 C2645 1.388 . S
C2647 C2648 1.366 . S
C2648 C2647 1.366 . S
C2648 C2649 1.414 . S
C2648 C2651 1.499 . S
C2649 H2623 0.950 . S
C2649 C2648 1.414 . S
C2649 C2650 1.374 . S
C2650 H2624 0.950 . S
C2650 C2646 1.385 . S
C2650 C2649 1.374 . S
C2651 C2648 1.499 . S
C2651 C2652 1.373 . S
C2651 C2653 1.389 . S
C2652 H2625 0.950 . S
C2652 C2638 1.377 . S
C2652 C2651 1.373 . S
C2653 C2637 1.377 . S
C2653 C2651 1.389 . S
C2653 C2654 1.524 1_565 S
C2654 C2653 1.524 1_545 S
C2654 C2655 1.399 . S
C2654 C2659 1.363 . S
C2655 H2626 0.939 1_545 S
C2655 C2654 1.399 . S
C2655 C2656 1.342 . S
C2656 H2627 0.950 . S
C2656 C2655 1.342 . S
C2656 C2657 1.287 . S
C2657 C2656 1.287 . S
C2657 C2658 1.524 . S
C2657 H2660 0.999 . S
C2658 H2628 0.950 . S
C2658 C2657 1.524 . S
C2658 C2659 1.415 . S
C2659 H2629 0.950 . S
C2659 C2654 1.363 . S
C2659 C2658 1.415 . S
H2660 C2657 0.999 . S
H2661 C2642 0.913 . S
H2662 C2680 0.951 . S
H2663 C2682 0.951 . S
H2664 C2684 0.950 . S
H2665 C2685 0.950 . S
H2666 C2687 0.950 . S
H2667 C2690 0.950 . S
H2668 C2691 0.950 . S
H2669 C2693 0.950 . S
H2670 C2694 0.950 . S
H2671 C2695 0.951 . S
H2672 C2697 0.951 . S
H2673 C2699 0.950 . S
H2674 C2700 0.950 . S
H2675 C2702 0.950 . S
H2676 C2705 0.950 . S
H2677 C2706 0.950 . S
H2678 C2708 0.950 1_655 S
H2679 C2709 0.950 1_655 S
C2680 H2662 0.951 . S
C2680 C2681 1.366 . S
C2680 C2682 1.388 . S
C2681 C2680 1.366 . S
C2681 C2685 1.385 . S
C2682 H2663 0.951 . S
C2682 C2680 1.388 . S
C2682 C2683 1.366 . S
C2683 C2682 1.366 . S
C2683 C2684 1.414 . S
C2683 C2686 1.499 . S
C2684 H2664 0.950 . S
C2684 C2683 1.414 . S
C2684 C2685 1.374 . S
C2685 H2665 0.950 . S
C2685 C2681 1.385 . S
C2685 C2684 1.374 . S
C2686 C2683 1.499 . S
C2686 C2687 1.373 . S
C2686 C2688 1.389 . S
C2687 H2666 0.950 . S
C2687 C2686 1.373 . S
C2687 C2703 1.377 . S
C2688 C2686 1.389 . S
C2688 C2689 1.524 . S
C2688 C2702 1.377 . S
C2689 C2688 1.524 . S
C2689 C2690 1.397 . S
C2689 C2694 1.363 . S
C2690 H2667 0.950 . S
C2690 C2689 1.397 . S
C2690 C2691 1.334 . S
C2691 H2668 0.950 . S
C2691 C2690 1.334 . S
C2691 C2692 1.287 . S
C2692 C2691 1.287 . S
C2692 C2693 1.524 . S
C2692 H2711 0.913 . S
C2693 H2669 0.950 . S
C2693 C2692 1.524 . S
C2693 C2694 1.415 . S
C2694 H2670 0.950 . S
C2694 C2689 1.363 . S
C2694 C2693 1.415 . S
C2695 H2671 0.951 . S
C2695 C2696 1.366 1_655 S
C2695 C2697 1.388 . S
C2696 C2695 1.366 1_455 S
C2696 C2700 1.385 . S
C2697 H2672 0.951 . S
C2697 C2695 1.388 . S
C2697 C2698 1.366 1_655 S
C2698 C2697 1.366 1_455 S
C2698 C2699 1.414 . S
C2698 C2701 1.499 . S
C2699 H2673 0.950 . S
C2699 C2698 1.414 . S
C2699 C2700 1.374 . S
C2700 H2674 0.950 . S
C2700 C2696 1.385 . S
C2700 C2699 1.374 . S
C2701 C2698 1.499 . S
C2701 C2702 1.373 . S
C2701 C2703 1.389 . S
C2702 H2675 0.950 . S
C2702 C2688 1.377 . S
C2702 C2701 1.373 . S
C2703 C2687 1.377 . S
C2703 C2701 1.389 . S
C2703 C2704 1.524 . S
C2704 C2703 1.524 . S
C2704 C2705 1.397 . S
C2704 C2709 1.363 . S
C2705 H2676 0.950 . S
C2705 C2704 1.397 . S
C2705 C2706 1.334 . S
C2706 H2677 0.950 . S
C2706 C2705 1.334 . S
C2706 C2707 1.287 . S
C2707 C2706 1.287 . S
C2707 C2708 1.524 . S
C2707 H2710 0.999 . S
C2708 H2678 0.950 1_455 S
C2708 C2707 1.524 . S
C2708 C2709 1.415 . S
C2709 H2679 0.950 1_455 S
C2709 C2704 1.363 . S
C2709 C2708 1.415 . S
H2710 C2707 0.999 . S
H2711 C2692 0.913 . S
H2712 C2730 0.951 . S
H2713 C2732 0.951 . S
H2714 C2734 0.950 . S
H2715 C2735 0.950 . S
H2716 C2737 0.950 . S
H2717 C2740 0.950 . S
H2718 C2741 0.950 . S
H2719 C2743 0.950 . S
H2720 C2744 0.950 . S
H2721 C2745 0.951 . S
H2722 C2747 0.951 . S
H2723 C2749 0.950 . S
H2724 C2750 0.950 . S
H2725 C2752 0.950 . S
H2726 C2755 0.950 . S
H2727 C2756 0.950 . S
H2728 C2758 0.950 . S
H2729 C2759 0.950 . S
C2730 H2712 0.951 . S
C2730 C2731 1.366 . S
C2730 C2732 1.388 . S
C2731 C2730 1.366 . S
C2731 C2735 1.385 . S
C2732 H2713 0.951 . S
C2732 C2730 1.388 . S
C2732 C2733 1.366 . S
C2733 C2732 1.366 . S
C2733 C2734 1.414 . S
C2733 C2736 1.499 . S
C2734 H2714 0.950 . S
C2734 C2733 1.414 . S
C2734 C2735 1.374 . S
C2735 H2715 0.950 . S
C2735 C2731 1.385 . S
C2735 C2734 1.374 . S
C2736 C2733 1.499 . S
C2736 C2737 1.373 . S
C2736 C2738 1.389 . S
C2737 H2716 0.950 . S
C2737 C2736 1.373 . S
C2737 C2753 1.377 . S
C2738 C2736 1.389 . S
C2738 C2739 1.524 . S
C2738 C2752 1.377 . S
C2739 C2738 1.524 . S
C2739 C2740 1.397 . S
C2739 C2744 1.363 . S
C2740 H2717 0.950 . S
C2740 C2739 1.397 . S
C2740 C2741 1.334 . S
C2741 H2718 0.950 . S
C2741 C2740 1.334 . S
C2741 C2742 1.287 . S
C2742 C2741 1.287 . S
C2742 C2743 1.524 . S
C2742 H2761 0.913 . S
C2743 H2719 0.950 . S
C2743 C2742 1.524 . S
C2743 C2744 1.415 . S
C2744 H2720 0.950 . S
C2744 C2739 1.363 . S
C2744 C2743 1.415 . S
C2745 H2721 0.951 . S
C2745 C2746 1.366 . S
C2745 C2747 1.388 . S
C2746 C2745 1.366 . S
C2746 C2750 1.385 . S
C2747 H2722 0.951 . S
C2747 C2745 1.388 . S
C2747 C2748 1.366 . S
C2748 C2747 1.366 . S
C2748 C2749 1.414 . S
C2748 C2751 1.499 . S
C2749 H2723 0.950 . S
C2749 C2748 1.414 . S
C2749 C2750 1.374 . S
C2750 H2724 0.950 . S
C2750 C2746 1.385 . S
C2750 C2749 1.374 . S
C2751 C2748 1.499 . S
C2751 C2752 1.373 . S
C2751 C2753 1.389 . S
C2752 H2725 0.950 . S
C2752 C2738 1.377 . S
C2752 C2751 1.373 . S
C2753 C2737 1.377 . S
C2753 C2751 1.389 . S
C2753 C2754 1.524 . S
C2754 C2753 1.524 . S
C2754 C2755 1.397 . S
C2754 C2759 1.363 . S
C2755 H2726 0.950 . S
C2755 C2754 1.397 . S
C2755 C2756 1.334 . S
C2756 H2727 0.950 . S
C2756 C2755 1.334 . S
C2756 C2757 1.287 . S
C2757 C2756 1.287 . S
C2757 C2758 1.524 . S
C2757 H2760 0.999 . S
C2758 H2728 0.950 . S
C2758 C2757 1.524 . S
C2758 C2759 1.415 . S
C2759 H2729 0.950 . S
C2759 C2754 1.363 . S
C2759 C2758 1.415 . S
H2760 C2757 0.999 . S
H2761 C2742 0.913 . S
H2762 C2780 0.951 . S
H2763 C2782 0.951 . S
H2764 C2784 0.950 . S
H2765 C2785 0.950 . S
H2766 C2787 0.950 . S
H2767 C2790 0.950 . S
H2768 C2791 0.950 . S
H2769 C2793 0.950 . S
H2770 C2794 0.950 . S
H2771 C2795 0.951 . S
H2772 C2797 0.951 . S
H2773 C2799 0.950 . S
H2774 C2800 0.950 . S
H2775 C2802 0.950 . S
H2776 C2805 0.950 . S
H2777 C2806 0.950 . S
H2778 C2808 0.950 . S
H2779 C2809 0.950 . S
C2780 H2762 0.951 . S
C2780 C2781 1.366 . S
C2780 C2782 1.388 . S
C2781 C2780 1.366 . S
C2781 C2785 1.385 . S
C2782 H2763 0.951 . S
C2782 C2780 1.388 . S
C2782 C2783 1.366 . S
C2783 C2782 1.366 . S
C2783 C2784 1.414 . S
C2783 C2786 1.499 . S
C2784 H2764 0.950 . S
C2784 C2783 1.414 . S
C2784 C2785 1.374 . S
C2785 H2765 0.950 . S
C2785 C2781 1.385 . S
C2785 C2784 1.374 . S
C2786 C2783 1.499 . S
C2786 C2787 1.373 . S
C2786 C2788 1.389 . S
C2787 H2766 0.950 . S
C2787 C2786 1.373 . S
C2787 C2803 1.377 . S
C2788 C2786 1.389 . S
C2788 C2789 1.524 . S
C2788 C2802 1.377 . S
C2789 C2788 1.524 . S
C2789 C2790 1.397 . S
C2789 C2794 1.363 . S
C2790 H2767 0.950 . S
C2790 C2789 1.397 . S
C2790 C2791 1.334 . S
C2791 H2768 0.950 . S
C2791 C2790 1.334 . S
C2791 C2792 1.287 . S
C2792 C2791 1.287 . S
C2792 C2793 1.524 . S
C2792 H2811 0.913 . S
C2793 H2769 0.950 . S
C2793 C2792 1.524 . S
C2793 C2794 1.415 . S
C2794 H2770 0.950 . S
C2794 C2789 1.363 . S
C2794 C2793 1.415 . S
C2795 H2771 0.951 . S
C2795 C2796 1.366 . S
C2795 C2797 1.388 . S
C2796 C2795 1.366 . S
C2796 C2800 1.385 . S
C2797 H2772 0.951 . S
C2797 C2795 1.388 . S
C2797 C2798 1.366 . S
C2798 C2797 1.366 . S
C2798 C2799 1.414 . S
C2798 C2801 1.499 . S
C2799 H2773 0.950 . S
C2799 C2798 1.414 . S
C2799 C2800 1.374 . S
C2800 H2774 0.950 . S
C2800 C2796 1.385 . S
C2800 C2799 1.374 . S
C2801 C2798 1.499 . S
C2801 C2802 1.373 . S
C2801 C2803 1.389 . S
C2802 H2775 0.950 . S
C2802 C2788 1.377 . S
C2802 C2801 1.373 . S
C2803 C2787 1.377 . S
C2803 C2801 1.389 . S
C2803 C2804 1.524 . S
C2804 C2803 1.524 . S
C2804 C2805 1.397 . S
C2804 C2809 1.363 . S
C2805 H2776 0.950 . S
C2805 C2804 1.397 . S
C2805 C2806 1.334 . S
C2806 H2777 0.950 . S
C2806 C2805 1.334 . S
C2806 C2807 1.287 . S
C2807 C2806 1.287 . S
C2807 C2808 1.524 . S
C2807 H2810 0.999 . S
C2808 H2778 0.950 . S
C2808 C2807 1.524 . S
C2808 C2809 1.415 . S
C2809 H2779 0.950 . S
C2809 C2804 1.363 . S
C2809 C2808 1.415 . S
H2810 C2807 0.999 . S
H2811 C2792 0.913 . S
H2812 C2830 0.951 . S
H2813 C2832 0.951 . S
H2814 C2834 0.950 . S
H2815 C2835 0.950 . S
H2816 C2837 0.950 . S
H2817 C2840 0.950 . S
H2818 C2841 0.950 . S
H2819 C2843 0.950 . S
H2820 C2844 0.950 . S
H2821 C2845 0.951 . S
H2822 C2847 0.951 . S
H2823 C2849 0.950 . S
H2824 C2850 0.950 . S
H2825 C2852 0.950 . S
H2826 C2855 0.950 . S
H2827 C2856 0.950 . S
H2828 C2858 0.950 . S
H2829 C2859 0.950 . S
C2830 H2812 0.951 . S
C2830 C2831 1.366 . S
C2830 C2832 1.388 . S
C2831 C2830 1.366 . S
C2831 C2835 1.385 . S
C2832 H2813 0.951 . S
C2832 C2830 1.388 . S
C2832 C2833 1.366 . S
C2833 C2832 1.366 . S
C2833 C2834 1.414 . S
C2833 C2836 1.499 . S
C2834 H2814 0.950 . S
C2834 C2833 1.414 . S
C2834 C2835 1.374 . S
C2835 H2815 0.950 . S
C2835 C2831 1.385 . S
C2835 C2834 1.374 . S
C2836 C2833 1.499 . S
C2836 C2837 1.373 . S
C2836 C2838 1.389 . S
C2837 H2816 0.950 . S
C2837 C2836 1.373 . S
C2837 C2853 1.377 . S
C2838 C2836 1.389 . S
C2838 C2839 1.524 . S
C2838 C2852 1.377 . S
C2839 C2838 1.524 . S
C2839 C2840 1.397 . S
C2839 C2844 1.363 . S
C2840 H2817 0.950 . S
C2840 C2839 1.397 . S
C2840 C2841 1.334 . S
C2841 H2818 0.950 . S
C2841 C2840 1.334 . S
C2841 C2842 1.287 . S
C2842 C2841 1.287 . S
C2842 C2843 1.524 . S
C2842 H2861 0.913 . S
C2843 H2819 0.950 . S
C2843 C2842 1.524 . S
C2843 C2844 1.415 . S
C2844 H2820 0.950 . S
C2844 C2839 1.363 . S
C2844 C2843 1.415 . S
C2845 H2821 0.951 . S
C2845 C2846 1.366 . S
C2845 C2847 1.388 . S
C2846 C2845 1.366 . S
C2846 C2850 1.385 . S
C2847 H2822 0.951 . S
C2847 C2845 1.388 . S
C2847 C2848 1.366 . S
C2848 C2847 1.366 . S
C2848 C2849 1.414 . S
C2848 C2851 1.499 . S
C2849 H2823 0.950 . S
C2849 C2848 1.414 . S
C2849 C2850 1.374 . S
C2850 H2824 0.950 . S
C2850 C2846 1.385 . S
C2850 C2849 1.374 . S
C2851 C2848 1.499 . S
C2851 C2852 1.373 . S
C2851 C2853 1.389 . S
C2852 H2825 0.950 . S
C2852 C2838 1.377 . S
C2852 C2851 1.373 . S
C2853 C2837 1.377 . S
C2853 C2851 1.389 . S
C2853 C2854 1.524 . S
C2854 C2853 1.524 . S
C2854 C2855 1.397 . S
C2854 C2859 1.363 . S
C2855 H2826 0.950 . S
C2855 C2854 1.397 . S
C2855 C2856 1.334 . S
C2856 H2827 0.950 . S
C2856 C2855 1.334 . S
C2856 C2857 1.287 . S
C2857 C2856 1.287 . S
C2857 C2858 1.524 . S
C2857 H2860 0.999 . S
C2858 H2828 0.950 . S
C2858 C2857 1.524 . S
C2858 C2859 1.415 . S
C2859 H2829 0.950 . S
C2859 C2854 1.363 . S
C2859 C2858 1.415 . S
H2860 C2857 0.999 . S
H2861 C2842 0.913 . S
C1081 C33 2.392 . S
C1096 C210 2.389 . S
C1131 C92 2.484 . S
C1146 C269 2.478 . S
C1181 C298 2.476 . S
C1196 C151 2.433 . S
C1231 C387 2.392 . S
C1246 C564 2.389 . S
C1281 C446 2.484 . S
C1296 C623 2.478 . S
C1331 C652 2.476 . S
C1346 C505 2.433 . S
C1381 C918 2.389 . S
C1396 C741 2.392 . S
C1431 C977 2.477 . S
C1446 C800 2.484 1_545 S
C1481 C1006 2.476 . S
C1496 C859 2.433 1_655 S
C1531 C5 1.619 . S
C1546 C536 1.625 . S
C1581 C64 1.844 . S
C1596 C595 1.853 . S
C1631 C701 1.766 . S
C1646 C123 1.772 . S
C1681 C182 1.624 . S
C1696 C713 1.619 . S
C1731 C241 1.853 . S
C1746 C772 1.844 . S
C1781 C347 1.766 . S
C1796 C831 1.772 . S
C1831 C359 1.619 . S
C1846 C890 1.625 . S
C1881 C418 1.844 . S
C1896 C949 1.853 . S
C1931 C1055 1.766 . S
C1946 C477 1.772 . S
C1981 C52 0.073 . S
C1996 C239 0.172 . S
C2031 C111 0.530 . S
C2046 C328 0.520 . S
C2081 C170 0.102 . S
C2096 C180 0.147 . S
C2131 C229 0.225 . S
C2146 C62 0.201 . S
C2181 C121 0.307 . S
C2196 C288 0.303 . S
C2231 C300 0.143 . S
C2246 C3 0.129 . S
C2281 C406 0.077 . S
C2296 C593 0.168 . S
C2331 C682 0.520 . S
C2346 C465 0.530 . S
C2381 C534 0.147 . S
C2396 C524 0.103 . S
C2431 C416 0.200 . S
C2446 C583 0.225 . S
C2481 C642 0.303 . S
C2496 C475 0.308 . S
C2531 C654 0.143 . S
C2546 C357 0.129 . S
C2581 C947 0.169 . S
C2596 C760 0.077 . S
C2631 C1036 0.520 . S
C2646 C819 0.530 . S
C2681 C878 0.102 . S
C2696 C888 0.147 . S
C2731 C770 0.200 . S
C2746 C937 0.227 . S
C2781 C829 0.309 . S
C2796 C996 0.304 . S
C2831 C711 0.129 . S
C2846 C1008 0.143 . S
