# Generated by pormake.
# Topology lcy, (6)-cn, num edge types: 1
# Building blocks:
#     Node 0, Type 0, BuildingBlock: FUNLAD_clean_sbu_0, # of connection points: 6
#     Node 1, Type 0, BuildingBlock: FUNLAD_clean_sbu_0, # of connection points: 6
#     Node 2, Type 0, BuildingBlock: FUNLAD_clean_sbu_0, # of connection points: 6
#     Node 3, Type 0, BuildingBlock: FUNLAD_clean_sbu_0, # of connection points: 6
#     Edge 4, Type (0, 0), BuildingBlock: MIFKUJ_clean_linker_0, # of connection points: 2
#     Edge 5, Type (0, 0), BuildingBlock: MIFKUJ_clean_linker_0, # of connection points: 2
#     Edge 6, Type (0, 0), BuildingBlock: MIFKUJ_clean_linker_0, # of connection points: 2
#     Edge 7, Type (0, 0), BuildingBlock: MIFKUJ_clean_linker_0, # of connection points: 2
#     Edge 8, Type (0, 0), BuildingBlock: MIFKUJ_clean_linker_0, # of connection points: 2
#     Edge 9, Type (0, 0), BuildingBlock: MIFKUJ_clean_linker_0, # of connection points: 2
#     Edge 10, Type (0, 0), BuildingBlock: MIFKUJ_clean_linker_0, # of connection points: 2
#     Edge 11, Type (0, 0), BuildingBlock: MIFKUJ_clean_linker_0, # of connection points: 2
#     Edge 12, Type (0, 0), BuildingBlock: MIFKUJ_clean_linker_0, # of connection points: 2
#     Edge 13, Type (0, 0), BuildingBlock: MIFKUJ_clean_linker_0, # of connection points: 2
#     Edge 14, Type (0, 0), BuildingBlock: MIFKUJ_clean_linker_0, # of connection points: 2
#     Edge 15, Type (0, 0), BuildingBlock: MIFKUJ_clean_linker_0, # of connection points: 2
# Relax obj value: 0.581
# Max RMSD: 0.338
# Mean RMSD: 0.311
data_MOF--net-lcy--node1-FUNLAD_clean_sbu_0--edge1-MIFKUJ_clean_linker_0
_symmetry_space_group_name_H-M    P1
_symmetry_Int_Tables_number       1
_symmetry_cell_setting            triclinic
loop_
_symmetry_equiv_pos_as_xyz
'x, y, z'
_cell_length_a     34.845325
_cell_length_b     34.799178
_cell_length_c     34.20665
_cell_angle_alpha  82.595049
_cell_angle_beta   82.158719
_cell_angle_gamma 75.510429
loop_
_atom_site_label
_atom_site_type_symbol
_atom_site_fract_x
_atom_site_fract_y
_atom_site_fract_z
_atom_type_partial_charge
C0 C 0.31879 0.44683 0.34096 0.0
N1 N 0.42623 0.46463 0.36884 0.0
C2 C 0.43224 0.47719 0.32968 0.0
C3 C 0.4544 0.5057 0.3172 0.0
C4 C 0.47113 0.52097 0.34522 0.0
C5 C 0.4658 0.50608 0.38525 0.0
C6 C 0.44281 0.47818 0.39649 0.0
Zn7 Zn 0.38929 0.42735 0.38749 0.0
C8 C 0.33067 0.45706 0.45642 0.0
N9 N 0.31144 0.35065 0.42743 0.0
C10 C 0.29429 0.33739 0.40004 0.0
C11 C 0.30238 0.34162 0.46695 0.0
C12 C 0.27392 0.31959 0.48029 0.0
C13 C 0.25466 0.30679 0.45265 0.0
C14 C 0.26572 0.31529 0.41205 0.0
Zn15 Zn 0.34888 0.38722 0.40845 0.0
O16 O 0.35044 0.45732 0.34452 0.0
C17 C 0.40816 0.35501 0.34297 0.0
O18 O 0.3089 0.41935 0.36562 0.0
H19 H 0.31652 0.35237 0.48818 0.0
H20 H 0.41888 0.46597 0.30817 0.0
H21 H 0.30192 0.34494 0.36876 0.0
O22 O 0.42111 0.38573 0.34528 0.0
O23 O 0.37786 0.34915 0.36572 0.0
H24 H 0.43754 0.46799 0.42753 0.0
O25 O 0.3908 0.35452 0.44949 0.0
O26 O 0.42765 0.39738 0.42896 0.0
O27 O 0.31981 0.42564 0.45254 0.0
O28 O 0.35811 0.46691 0.43155 0.0
C29 C 0.42178 0.36707 0.45146 0.0
H30 H 0.45706 0.51662 0.28609 0.0
H31 H 0.47868 0.5163 0.40786 0.0
H32 H 0.26655 0.31326 0.51187 0.0
H33 H 0.25125 0.30646 0.38975 0.0
C34 C 0.78984 0.1801 0.6112 0.0
N35 N 0.86368 0.06681 0.59295 0.0
C36 C 0.8326 0.05145 0.58813 0.0
C37 C 0.83872 0.0198 0.56496 0.0
C38 C 0.87711 0.00425 0.54656 0.0
C39 C 0.90853 0.02065 0.55208 0.0
C40 C 0.90116 0.05195 0.57564 0.0
Zn41 Zn 0.85695 0.11057 0.62881 0.0
C42 C 0.90727 0.16577 0.59877 0.0
N43 N 0.84702 0.19923 0.70648 0.0
C44 C 0.81326 0.22647 0.71828 0.0
C45 C 0.88328 0.20128 0.71539 0.0
C46 C 0.88697 0.23219 0.73545 0.0
C47 C 0.85314 0.26186 0.74627 0.0
C48 C 0.81565 0.25827 0.73854 0.0
Zn49 Zn 0.84874 0.15622 0.67013 0.0
O50 O 0.8071 0.14515 0.60218 0.0
C51 C 0.79969 0.10133 0.70106 0.0
O52 O 0.80309 0.19491 0.63732 0.0
H53 H 0.90988 0.17975 0.7055 0.0
H54 H 0.80313 0.06367 0.60234 0.0
H55 H 0.78473 0.22442 0.71074 0.0
O56 O 0.8188 0.08341 0.67159 0.0
O57 O 0.80505 0.13484 0.70676 0.0
H58 H 0.92563 0.06414 0.58035 0.0
O59 O 0.8929 0.11428 0.70373 0.0
O60 O 0.90558 0.07566 0.65569 0.0
O61 O 0.89323 0.17792 0.63235 0.0
O62 O 0.89541 0.13786 0.58742 0.0
C63 C 0.91277 0.08255 0.68899 0.0
H64 H 0.81365 0.00816 0.56082 0.0
H65 H 0.93853 0.00926 0.53848 0.0
H66 H 0.91635 0.2335 0.7414 0.0
H67 H 0.78887 0.28068 0.7464 0.0
C68 C 0.17353 0.58423 0.96019 0.0
N69 N 0.19242 0.69445 0.90665 0.0
C70 C 0.1929 0.70382 0.94393 0.0
C71 C 0.21516 0.73004 0.95053 0.0
C72 C 0.23768 0.74664 0.91856 0.0
C73 C 0.2368 0.73631 0.88033 0.0
C74 C 0.21377 0.7101 0.875 0.0
Zn75 Zn 0.15717 0.65737 0.89981 0.0
C76 C 0.19044 0.60086 0.83959 0.0
N77 N 0.08048 0.5813 0.89331 0.0
C78 C 0.0635 0.5607 0.92464 0.0
C79 C 0.07263 0.58014 0.85568 0.0
C80 C 0.04699 0.55763 0.8483 0.0
C81 C 0.02922 0.53571 0.87988 0.0
C82 C 0.03761 0.53759 0.91856 0.0
Zn83 Zn 0.11737 0.61673 0.90048 0.0
O84 O 0.18257 0.617 0.94675 0.0
C85 C 0.07972 0.6748 0.95537 0.0
O86 O 0.14758 0.57324 0.94414 0.0
H87 H 0.08615 0.59693 0.8312 0.0
H88 H 0.17567 0.69115 0.96867 0.0
H89 H 0.06999 0.56223 0.95436 0.0
O90 O 0.10999 0.68855 0.94138 0.0
O91 O 0.0772 0.64179 0.94542 0.0
H92 H 0.21285 0.70235 0.84558 0.0
O93 O 0.08604 0.66351 0.85976 0.0
O94 O 0.13196 0.69751 0.85495 0.0
O95 O 0.15789 0.59143 0.85323 0.0
O96 O 0.20098 0.62714 0.85567 0.0
C97 C 0.09933 0.69389 0.84539 0.0
H98 H 0.21422 0.73761 0.98043 0.0
H99 H 0.25401 0.74799 0.85485 0.0
H100 H 0.04085 0.55776 0.81808 0.0
H101 H 0.02479 0.52095 0.94374 0.0
C102 C 0.5925 0.98632 0.17799 0.0
N103 N 0.706 0.90996 0.19076 0.0
C104 C 0.72044 0.93956 0.2012 0.0
C105 C 0.75265 0.93018 0.2238 0.0
C106 C 0.77052 0.88994 0.235 0.0
C107 C 0.75547 0.8602 0.22283 0.0
C108 C 0.72274 0.87089 0.20133 0.0
Zn109 Zn 0.66083 0.92077 0.15607 0.0
C110 C 0.60739 0.86871 0.18205 0.0
N111 N 0.57244 0.93537 0.07834 0.0
C112 C 0.54501 0.96976 0.06914 0.0
C113 C 0.56982 0.89996 0.0674 0.0
C114 C 0.53791 0.89768 0.04827 0.0
C115 C 0.50816 0.93211 0.04016 0.0
C116 C 0.51237 0.96882 0.04963 0.0
Zn117 Zn 0.61638 0.93098 0.11396 0.0
O118 O 0.62767 0.96933 0.18619 0.0
C119 C 0.67077 0.9806 0.08638 0.0
O120 O 0.5781 0.97382 0.15104 0.0
H121 H 0.59158 0.87287 0.07515 0.0
H122 H 0.7068 0.97038 0.19225 0.0
H123 H 0.54754 0.99756 0.0783 0.0
O124 O 0.68852 0.9597 0.11491 0.0
O125 O 0.63676 0.97684 0.08052 0.0
H126 H 0.71083 0.84765 0.19298 0.0
O127 O 0.65745 0.8901 0.07606 0.0
O128 O 0.69394 0.87342 0.12533 0.0
O129 O 0.59643 0.88348 0.14838 0.0
O130 O 0.6333 0.88144 0.19586 0.0
C131 C 0.68817 0.86857 0.09085 0.0
H132 H 0.76271 0.95421 0.23319 0.0
H133 H 0.76851 0.82885 0.2302 0.0
H134 H 0.53578 0.8689 0.04108 0.0
H135 H 0.48978 0.99596 0.04384 0.0
H136 H 0.23419 0.59713 0.99536 0.0
H137 H 0.25599 0.56877 0.05967 0.0
H138 H 0.17243 0.49384 0.07406 0.0
H139 H 0.14972 0.52292 0.00934 0.0
H140 H 0.16885 0.52826 0.14098 0.0
H141 H 0.27366 0.45417 0.05676 0.0
H142 H 0.32632 0.44323 1.00061 0.0
H143 H 0.38996 0.51418 0.04828 0.0
H144 H 0.33739 0.52602 0.10445 0.0
H145 H 0.25715 0.42285 0.31621 0.0
H146 H 0.2299 0.44178 0.25219 0.0
H147 H 0.30561 0.52425 0.21991 0.0
H148 H 0.33311 0.50535 0.2834 0.0
H149 H 0.31161 0.47808 0.16171 0.0
H150 H 0.20344 0.55578 0.2434 0.0
H151 H 0.15065 0.56592 0.29954 0.0
H152 H 0.09362 0.48603 0.25667 0.0
H153 H 0.14639 0.47502 0.20051 0.0
C154 C 0.22073 0.57417 0.01177 0.0
C155 C 0.19026 0.56222 0.99686 0.0
C156 C 0.23337 0.55785 0.04872 0.0
C157 C 0.21622 0.52879 0.07186 0.0
C158 C 0.18625 0.51615 0.05684 0.0
C159 C 0.17353 0.53253 0.01963 0.0
C160 C 0.22886 0.51314 0.11219 0.0
C161 C 0.20002 0.51655 0.14541 0.0
C162 C 0.26958 0.49839 0.11835 0.0
C163 C 0.3014 0.49121 0.08469 0.0
C164 C 0.29874 0.46767 0.05513 0.0
C165 C 0.3286 0.46128 0.02332 0.0
C166 C 0.36143 0.47806 0.02084 0.0
C167 C 0.3645 0.50121 0.05023 0.0
C168 C 0.33471 0.50773 0.0821 0.0
C169 C 0.26743 0.44561 0.29582 0.0
C170 C 0.29734 0.46258 0.30517 0.0
C171 C 0.25184 0.45638 0.2591 0.0
C172 C 0.26567 0.48448 0.23096 0.0
C173 C 0.29454 0.50235 0.24086 0.0
C174 C 0.31008 0.49166 0.27744 0.0
C175 C 0.25173 0.49411 0.19053 0.0
C176 C 0.2804 0.48946 0.15726 0.0
C177 C 0.2109 0.5075 0.1844 0.0
C178 C 0.1791 0.51423 0.21802 0.0
C179 C 0.17982 0.54013 0.24612 0.0
C180 C 0.14987 0.54608 0.27791 0.0
C181 C 0.11887 0.52654 0.28174 0.0
C182 C 0.11769 0.5011 0.2537 0.0
C183 C 0.14759 0.49501 0.22188 0.0
H184 H 0.09571 0.53118 0.30637 0.0
H185 H 0.38451 0.47308 0.99618 0.0
H186 H 0.78045 0.82934 0.29493 0.0
H187 H 0.82167 0.82107 0.34847 0.0
H188 H 0.8715 0.91872 0.29264 0.0
H189 H 0.83189 0.92591 0.23725 0.0
H190 H 0.92301 0.86103 0.34438 0.0
H191 H 0.78687 0.94446 0.34309 0.0
H192 H 0.71578 0.95444 0.33448 0.0
H193 H 0.70528 0.86049 0.42696 0.0
H194 H 0.77659 0.84953 0.43558 0.0
H195 H 0.91663 0.00317 0.47255 0.0
H196 H 0.91897 0.9569 0.42422 0.0
H197 H 0.85572 0.88752 0.51177 0.0
H198 H 0.85241 0.93473 0.56012 0.0
H199 H 0.81732 0.91066 0.45109 0.0
H200 H 0.95157 0.84597 0.46573 0.0
H201 H 0.02246 0.83952 0.47258 0.0
H202 H 0.03799 0.90031 0.35619 0.0
H203 H 0.96706 0.90771 0.34882 0.0
C204 C 0.80153 0.84788 0.29275 0.0
C205 C 0.802 0.87915 0.26227 0.0
C206 C 0.82519 0.84296 0.32352 0.0
C207 C 0.84888 0.86979 0.32477 0.0
C208 C 0.85317 0.89784 0.29217 0.0
C209 C 0.82989 0.90245 0.26098 0.0
C210 C 0.86006 0.87565 0.36317 0.0
C211 C 0.9002 0.87164 0.36801 0.0
C212 C 0.83007 0.88867 0.39406 0.0
C213 C 0.78704 0.89588 0.38965 0.0
C214 C 0.76941 0.92581 0.36142 0.0
C215 C 0.72911 0.93163 0.35654 0.0
C216 C 0.70604 0.90804 0.3801 0.0
C217 C 0.72321 0.87867 0.40868 0.0
C218 C 0.76356 0.87263 0.41357 0.0
C219 C 0.90424 0.97741 0.4818 0.0
C220 C 0.88388 0.97268 0.51978 0.0
C221 C 0.90595 0.95069 0.45427 0.0
C222 C 0.88786 0.91845 0.46446 0.0
C223 C 0.86997 0.91213 0.50335 0.0
C224 C 0.86779 0.93921 0.53078 0.0
C225 C 0.88063 0.89694 0.43267 0.0
C226 C 0.84077 0.89842 0.42863 0.0
C227 C 0.911 0.88198 0.40268 0.0
C228 C 0.95385 0.87747 0.40678 0.0
C229 C 0.97001 0.8582 0.44167 0.0
C230 C 0.01024 0.85434 0.44563 0.0
C231 C 0.03471 0.86951 0.41485 0.0
C232 C 0.01901 0.88852 0.38 0.0
C233 C 0.97879 0.89248 0.37588 0.0
H234 H 0.06584 0.86651 0.41799 0.0
H235 H 0.67485 0.91257 0.37627 0.0
H236 H 0.17597 0.54214 0.80227 0.0
H237 H 0.20499 0.52047 0.73777 0.0
H238 H 0.28383 0.59994 0.72715 0.0
H239 H 0.25389 0.62278 0.79202 0.0
H240 H 0.25194 0.60583 0.65934 0.0
H241 H 0.31888 0.49685 0.74324 0.0
H242 H 0.32555 0.4434 0.79846 0.0
H243 H 0.25194 0.38607 0.7465 0.0
H244 H 0.24436 0.43947 0.69123 0.0
H245 H 0.35708 0.51628 0.48317 0.0
H246 H 0.33809 0.54309 0.54776 0.0
H247 H 0.2511 0.47198 0.5768 0.0
H248 H 0.27018 0.4448 0.51281 0.0
H249 H 0.29557 0.46293 0.63591 0.0
H250 H 0.22497 0.57543 0.55465 0.0
H251 H 0.21903 0.62898 0.49949 0.0
H252 H 0.30164 0.67925 0.54649 0.0
H253 H 0.30846 0.62567 0.60169 0.0
C254 C 0.1999 0.55475 0.78666 0.0
C255 C 0.21268 0.58415 0.80268 0.0
C256 C 0.21663 0.54214 0.7496 0.0
C257 C 0.24705 0.5581 0.72747 0.0
C258 C 0.26049 0.58701 0.74358 0.0
C259 C 0.24358 0.59981 0.78087 0.0
C260 C 0.26328 0.54545 0.68703 0.0
C261 C 0.26223 0.57457 0.65434 0.0
C262 C 0.27619 0.50467 0.6801 0.0
C263 C 0.28084 0.47234 0.71321 0.0
C264 C 0.3039 0.47299 0.74371 0.0
C265 C 0.30788 0.44267 0.77501 0.0
C266 C 0.28913 0.41139 0.77602 0.0
C267 C 0.26644 0.41032 0.74569 0.0
C268 C 0.26234 0.44058 0.71433 0.0
C269 C 0.33334 0.50695 0.50298 0.0
C270 C 0.31515 0.47837 0.4926 0.0
C271 C 0.32253 0.52229 0.54002 0.0
C272 C 0.29309 0.50962 0.56741 0.0
C273 C 0.27403 0.48214 0.55646 0.0
C274 C 0.28484 0.46678 0.5196 0.0
C275 C 0.28324 0.52322 0.60817 0.0
C276 C 0.28563 0.4942 0.64094 0.0
C277 C 0.27177 0.56403 0.6151 0.0
C278 C 0.26756 0.5963 0.58204 0.0
C279 C 0.24211 0.59772 0.55304 0.0
C280 C 0.23854 0.62811 0.52181 0.0
C281 C 0.26003 0.65743 0.51942 0.0
C282 C 0.28506 0.65648 0.54834 0.0
C283 C 0.28876 0.62614 0.57962 0.0
H284 H 0.25723 0.68092 0.49521 0.0
H285 H 0.29224 0.38796 0.80029 0.0
H286 H 0.74473 0.95177 0.05188 0.0
H287 H 0.76916 0.97149 0.98403 0.0
H288 H 0.6693 0.0741 0.97968 0.0
H289 H 0.64378 0.053 0.0471 0.0
H290 H 0.66904 0.03026 0.92465 0.0
H291 H 0.77037 0.08064 0.96898 0.0
H292 H 0.82663 0.07882 0.00633 0.0
H293 H 0.8976 0.97921 0.94676 0.0
H294 H 0.84158 0.98011 0.90939 0.0
H295 H 0.73224 0.13485 0.74544 0.0
H296 H 0.70788 0.10696 0.81055 0.0
H297 H 0.79391 0.99549 0.79441 0.0
H298 H 0.81786 0.0231 0.72869 0.0
H299 H 0.8032 0.03634 0.85797 0.0
H300 H 0.70209 0.99113 0.80951 0.0
H301 H 0.64564 0.99545 0.77155 0.0
H302 H 0.57388 0.08922 0.83856 0.0
H303 H 0.63008 0.0859 0.87656 0.0
C304 C 0.72925 0.97969 0.03716 0.0
C305 C 0.69259 1.00111 0.05443 0.0
C306 C 0.74308 0.99084 0.99823 0.0
C307 C 0.72085 0.02411 0.97667 0.0
C308 C 0.68665 0.0481 0.99573 0.0
C309 C 0.67233 0.03639 0.03428 0.0
C310 C 0.72937 0.03015 0.93311 0.0
C311 C 0.69824 0.03232 0.91012 0.0
C312 C 0.76789 0.03083 0.91418 0.0
C313 C 0.80161 0.0302 0.93667 0.0
C314 C 0.79785 0.05813 0.96409 0.0
C315 C 0.82973 0.0573 0.98521 0.0
C316 C 0.86562 0.02884 0.979 0.0
C317 C 0.86975 1.0012 0.95158 0.0
C318 C 0.83797 0.00189 0.93038 0.0
C319 C 0.74464 0.10383 0.7551 0.0
C320 C 0.7769 0.08106 0.73247 0.0
C321 C 0.73076 0.08795 0.79219 0.0
C322 C 0.74941 0.04936 0.80715 0.0
C323 C 0.77922 0.02532 0.78309 0.0
C324 C 0.79262 0.04099 0.74557 0.0
C325 C 0.74263 0.03754 0.84988 0.0
C326 C 0.7741 0.03409 0.8727 0.0
C327 C 0.70434 0.03616 0.86867 0.0
C328 C 0.67046 0.03844 0.84571 0.0
C329 C 0.6744 0.01294 0.81592 0.0
C330 C 0.64241 0.01515 0.79444 0.0
C331 C 0.60622 0.04264 0.80258 0.0
C332 C 0.60194 0.06795 0.83227 0.0
C333 C 0.63384 0.06587 0.85383 0.0
H334 H 0.58148 0.04429 0.78594 0.0
H335 H 0.89027 0.02827 0.99538 0.0
H336 H 0.95504 0.13707 0.53334 0.0
H337 H 0.01364 0.15944 0.49996 0.0
H338 H 0.9909 0.25242 0.57814 0.0
H339 H 0.93242 0.23064 0.61128 0.0
H340 H 0.01407 0.27852 0.50245 0.0
H341 H 0.05617 0.16574 0.59839 0.0
H342 H 0.06149 0.0964 0.62805 0.0
H343 H 0.12201 0.05309 0.51862 0.0
H344 H 0.11652 0.12226 0.48813 0.0
H345 H 0.19451 0.32707 0.51153 0.0
H346 H 0.13574 0.29985 0.52938 0.0
H347 H 0.17872 0.21712 0.4406 0.0
H348 H 0.23846 0.24356 0.42319 0.0
H349 H 0.1456 0.18296 0.51149 0.0
H350 H 0.11012 0.29799 0.41878 0.0
H351 H 0.10535 0.36801 0.39174 0.0
H352 H 0.0325 0.40779 0.49734 0.0
H353 H 0.03733 0.33798 0.52529 0.0
C354 C 0.96218 0.1627 0.54291 0.0
C355 C 0.93935 0.18193 0.57509 0.0
C356 C 0.99571 0.17529 0.52397 0.0
C357 C 0.00677 0.20723 0.53697 0.0
C358 C 0.98285 0.22768 0.56772 0.0
C359 C 0.94952 0.21509 0.5867 0.0
C360 C 0.04446 0.21822 0.52047 0.0
C361 C 0.04284 0.25768 0.50446 0.0
C362 C 0.08188 0.19071 0.52244 0.0
C363 C 0.0855 0.14914 0.54084 0.0
C364 C 0.07033 0.14143 0.58056 0.0
C365 C 0.07342 0.10217 0.59754 0.0
C366 C 0.09196 0.07036 0.5752 0.0
C367 C 0.10758 0.07776 0.53586 0.0
C368 C 0.1045 0.11698 0.51872 0.0
C369 C 0.19195 0.30253 0.49633 0.0
C370 C 0.22105 0.28755 0.46585 0.0
C371 C 0.15815 0.2873 0.50628 0.0
C372 C 0.15267 0.257 0.48579 0.0
C373 C 0.18237 0.24073 0.45651 0.0
C374 C 0.21627 0.25601 0.44647 0.0
C375 C 0.11516 0.24349 0.4943 0.0
C376 C 0.11682 0.2036 0.50878 0.0
C377 C 0.07773 0.27066 0.49117 0.0
C378 C 0.0743 0.31272 0.47423 0.0
C379 C 0.09328 0.32166 0.43634 0.0
C380 C 0.09054 0.36132 0.42084 0.0
C381 C 0.06868 0.39233 0.44283 0.0
C382 C 0.04943 0.38374 0.48034 0.0
C383 C 0.05211 0.34413 0.49601 0.0
H384 H 0.06662 0.42302 0.43079 0.0
H385 H 0.09433 0.03998 0.58839 0.0
H386 H 0.03199 0.73784 0.8803 0.0
H387 H 0.99944 0.80662 0.85927 0.0
H388 H 0.07705 0.80038 0.74921 0.0
H389 H 0.1114 0.73225 0.7719 0.0
H390 H 0.07754 0.86349 0.7779 0.0
H391 H 0.96829 0.80576 0.7604 0.0
H392 H 0.91856 0.76578 0.78257 0.0
H393 H 0.86845 0.84053 0.87626 0.0
H394 H 0.91802 0.88083 0.85478 0.0
H395 H 0.9778 0.02932 0.66008 0.0
H396 H 0.00959 0.96543 0.69351 0.0
H397 H 0.93683 0.99646 0.80265 0.0
H398 H 0.90458 0.06088 0.76892 0.0
H399 H 0.93236 0.92418 0.78325 0.0
H400 H 0.03657 0.98596 0.79629 0.0
H401 H 0.08579 0.02646 0.77435 0.0
H402 H 0.1455 0.94398 0.68983 0.0
H403 H 0.09631 0.90324 0.71087 0.0
C404 C 0.04096 0.75077 0.85097 0.0
C405 C 0.07328 0.72959 0.82709 0.0
C406 C 0.02243 0.79021 0.83896 0.0
C407 C 0.03528 0.80888 0.8023 0.0
C408 C 0.06647 0.7868 0.77761 0.0
C409 C 0.08574 0.74771 0.79019 0.0
C410 C 0.0188 0.85218 0.79104 0.0
C411 C 0.04577 0.87651 0.77851 0.0
C412 C 0.97731 0.8699 0.79371 0.0
C413 C 0.947 0.84616 0.8061 0.0
C414 C 0.9467 0.81363 0.78576 0.0
C415 C 0.91849 0.79097 0.79815 0.0
C416 C 0.8903 0.80069 0.83071 0.0
C417 C 0.89019 0.83315 0.85093 0.0
C418 C 0.91829 0.85595 0.83861 0.0
C419 C 0.96953 0.02312 0.69155 0.0
C420 C 0.93898 0.05016 0.712 0.0
C421 C 0.98766 0.98652 0.71064 0.0
C422 C 0.97564 0.97609 0.75063 0.0
C423 C 0.94659 0.00393 0.77179 0.0
C424 C 0.92859 0.04091 0.75267 0.0
C425 C 0.99119 0.93484 0.76872 0.0
C426 C 0.96411 0.91103 0.7828 0.0
C427 C 0.03257 0.9175 0.76747 0.0
C428 C 0.06257 0.94165 0.75503 0.0
C429 C 0.06005 0.97657 0.77286 0.0
C430 C 0.08797 0.99956 0.7606 0.0
C431 C 0.11871 0.98784 0.73067 0.0
C432 C 0.12167 0.95302 0.71301 0.0
C433 C 0.09381 0.92993 0.72515 0.0
H434 H 0.14028 0.0057 0.72119 0.0
H435 H 0.86865 0.78296 0.84041 0.0
H436 H 0.25014 0.81393 0.87167 0.0
H437 H 0.28867 0.86009 0.88485 0.0
H438 H 0.31729 0.78893 0.99451 0.0
H439 H 0.28035 0.74211 0.9811 0.0
H440 H 0.2888 0.87144 0.00217 0.0
H441 H 0.38445 0.78122 0.91718 0.0
H442 H 0.40792 0.74963 0.85497 0.0
H443 H 0.40044 0.86486 0.78986 0.0
H444 H 0.37638 0.89716 0.85169 0.0
H445 H 0.46083 0.88334 0.07278 0.0
H446 H 0.40588 0.86887 0.04507 0.0
H447 H 0.41812 0.95651 0.94564 0.0
H448 H 0.47411 0.97091 0.97357 0.0
H449 H 0.41546 0.88511 0.92215 0.0
H450 H 0.3349 0.974 0.01 0.0
H451 H 0.31272 0.0054 0.0724 0.0
H452 H 0.29075 0.89525 0.1317 0.0
H453 H 0.31336 0.86297 0.06985 0.0
C454 C 0.26507 0.80781 0.89834 0.0
C455 C 0.26186 0.77437 0.92546 0.0
C456 C 0.28681 0.83438 0.90592 0.0
C457 C 0.30552 0.82802 0.94079 0.0
C458 C 0.30262 0.79462 0.96767 0.0
C459 C 0.28132 0.76795 0.95999 0.0
C460 C 0.32857 0.85561 0.94979 0.0
C461 C 0.31645 0.8746 0.98469 0.0
C462 C 0.36368 0.86105 0.92598 0.0
C463 C 0.37809 0.84161 0.88892 0.0
C464 C 0.38742 0.79983 0.88953 0.0
C465 C 0.40092 0.7818 0.85437 0.0
C466 C 0.40551 0.80523 0.81846 0.0
C467 C 0.39675 0.84675 0.81768 0.0
C468 C 0.38319 0.86493 0.85276 0.0
C469 C 0.45145 0.89994 0.04529 0.0
C470 C 0.47168 0.92808 0.02516 0.0
C471 C 0.41986 0.89187 0.02959 0.0
C472 C 0.40757 0.9119 0.99348 0.0
C473 C 0.42701 0.94092 0.97368 0.0
C474 C 0.45872 0.94925 0.98966 0.0
C475 C 0.37667 0.89945 0.97565 0.0
C476 C 0.38718 0.88324 0.93907 0.0
C477 C 0.3399 0.89674 0.99782 0.0
C478 C 0.32593 0.91603 0.03519 0.0
C479 C 0.32555 0.95638 0.03639 0.0
C480 C 0.31287 0.97435 0.07168 0.0
C481 C 0.30035 0.95233 0.106 0.0
C482 C 0.30041 0.91229 0.10508 0.0
C483 C 0.31308 0.89416 0.06987 0.0
H484 H 0.29056 0.9663 0.13329 0.0
H485 H 0.41599 0.79122 0.79127 0.0
H486 H 0.4882 0.32293 0.32861 0.0
H487 H 0.51958 0.26206 0.29638 0.0
H488 H 0.405 0.25735 0.26505 0.0
H489 H 0.37358 0.31661 0.29923 0.0
H490 H 0.43635 0.18929 0.29546 0.0
H491 H 0.48639 0.27866 0.19493 0.0
H492 H 0.52023 0.33208 0.16731 0.0
H493 H 0.62917 0.26293 0.2106 0.0
H494 H 0.59584 0.20929 0.23894 0.0
H495 H 0.51628 0.03066 0.16937 0.0
H496 H 0.48427 0.09543 0.1942 0.0
H497 H 0.58833 0.09079 0.25153 0.0
H498 H 0.62029 0.0262 0.22739 0.0
H499 H 0.56205 0.16349 0.20523 0.0
H500 H 0.5085 0.07487 0.30659 0.0
H501 H 0.47318 0.02186 0.3313 0.0
H502 H 0.36811 0.09167 0.28114 0.0
H503 H 0.40301 0.14489 0.25565 0.0
C504 C 0.47005 0.30939 0.31387 0.0
C505 C 0.42859 0.32442 0.31618 0.0
C506 C 0.48794 0.27456 0.29542 0.0
C507 C 0.46476 0.25491 0.27801 0.0
C508 C 0.4236 0.27155 0.27844 0.0
C509 C 0.40568 0.30563 0.29767 0.0
C510 C 0.48246 0.21544 0.26233 0.0
C511 C 0.46345 0.18407 0.27511 0.0
C512 C 0.51833 0.20793 0.23645 0.0
C513 C 0.5385 0.24011 0.21938 0.0
C514 C 0.51748 0.27497 0.19882 0.0
C515 C 0.53659 0.30527 0.18298 0.0
C516 C 0.5768 0.30095 0.18728 0.0
C517 C 0.59802 0.26626 0.20733 0.0
C518 C 0.57904 0.23587 0.22325 0.0
C519 C 0.5321 0.04316 0.18775 0.0
C520 C 0.57081 0.02312 0.19645 0.0
C521 C 0.51383 0.08021 0.20181 0.0
C522 C 0.53404 0.09798 0.22456 0.0
C523 C 0.57232 0.07773 0.23385 0.0
C524 C 0.5904 0.04061 0.22022 0.0
C525 C 0.51572 0.13797 0.23825 0.0
C526 C 0.53473 0.16919 0.22525 0.0
C527 C 0.47954 0.14557 0.2634 0.0
C528 C 0.45851 0.11366 0.27885 0.0
C529 C 0.47798 0.07876 0.30054 0.0
C530 C 0.45801 0.04872 0.31474 0.0
C531 C 0.41846 0.05335 0.3077 0.0
C532 C 0.39876 0.0881 0.28652 0.0
C533 C 0.41861 0.11822 0.27222 0.0
H534 H 0.40305 0.03005 0.31873 0.0
H535 H 0.59154 0.32445 0.175 0.0
H536 H 0.7445 0.14781 0.57232 0.0
H537 H 0.67976 0.17892 0.54983 0.0
H538 H 0.68447 0.29062 0.58882 0.0
H539 H 0.74904 0.25875 0.61348 0.0
H540 H 0.61353 0.28009 0.6085 0.0
H541 H 0.69937 0.27162 0.48724 0.0
H542 H 0.75126 0.23988 0.43704 0.0
H543 H 0.68034 0.15912 0.42236 0.0
H544 H 0.62822 0.19002 0.47288 0.0
H545 H 0.4682 0.40069 0.48695 0.0
H546 H 0.52714 0.36695 0.52 0.0
H547 H 0.50575 0.25288 0.50612 0.0
H548 H 0.4459 0.28679 0.47335 0.0
H549 H 0.58339 0.26393 0.47477 0.0
H550 H 0.49525 0.27862 0.59565 0.0
H551 H 0.44388 0.31579 0.64288 0.0
H552 H 0.52063 0.39205 0.65412 0.0
H553 H 0.57226 0.35571 0.60648 0.0
C554 C 0.73212 0.17916 0.57577 0.0
C555 C 0.75222 0.20092 0.59436 0.0
C556 C 0.69498 0.197 0.56272 0.0
C557 C 0.67735 0.23741 0.56682 0.0
C558 C 0.69745 0.25941 0.58516 0.0
C559 C 0.73447 0.24128 0.599 0.0
C560 C 0.63756 0.25608 0.55283 0.0
C561 C 0.6072 0.27698 0.57904 0.0
C562 C 0.6288 0.25152 0.51463 0.0
C563 C 0.66005 0.23291 0.48413 0.0
C564 C 0.69496 0.2469 0.47352 0.0
C565 C 0.7244 0.22909 0.44497 0.0
C566 C 0.71915 0.19744 0.4266 0.0
C567 C 0.68439 0.1836 0.43665 0.0
C568 C 0.65487 0.20128 0.46521 0.0
C569 C 0.4755 0.36841 0.49178 0.0
C570 C 0.45253 0.34629 0.47763 0.0
C571 C 0.50915 0.3492 0.51072 0.0
C572 C 0.52081 0.30745 0.51551 0.0
C573 C 0.49711 0.28518 0.50277 0.0
C574 C 0.46286 0.3045 0.48435 0.0
C575 C 0.55964 0.28758 0.53047 0.0
C576 C 0.58984 0.26669 0.5043 0.0
C577 C 0.56841 0.29292 0.5683 0.0
C578 C 0.53752 0.31461 0.59723 0.0
C579 C 0.50107 0.30351 0.60794 0.0
C580 C 0.47192 0.3244 0.63484 0.0
C581 C 0.47895 0.35632 0.65143 0.0
C582 C 0.51521 0.36734 0.64123 0.0
C583 C 0.54445 0.34657 0.61432 0.0
H584 H 0.45634 0.37246 0.67224 0.0
H585 H 0.74197 0.18369 0.40451 0.0
H586 H 0.95899 0.52544 0.92276 0.0
H587 H 0.91438 0.48631 0.90706 0.0
H588 H 0.99452 0.4515 0.80319 0.0
H589 H 0.03936 0.48946 0.81897 0.0
H590 H 0.91559 0.47947 0.78767 0.0
H591 H 0.9927 0.38835 0.88586 0.0
H592 H 0.01529 0.36915 0.95243 0.0
H593 H 0.89383 0.38312 0.00431 0.0
H594 H 0.87051 0.4029 0.93802 0.0
H595 H 0.90743 0.30528 0.71877 0.0
H596 H 0.9212 0.35969 0.74807 0.0
H597 H 0.82403 0.35459 0.83994 0.0
H598 H 0.81067 0.29861 0.8109 0.0
H599 H 0.89108 0.3582 0.87039 0.0
H600 H 0.81524 0.43437 0.77067 0.0
H601 H 0.79231 0.45258 0.70423 0.0
H602 H 0.90822 0.46852 0.65567 0.0
H603 H 0.93208 0.44983 0.72168 0.0
C604 C 0.96729 0.50904 0.89685 0.0
C605 C 0.00261 0.51086 0.87193 0.0
C606 C 0.94168 0.4869 0.88784 0.0
C607 C 0.95105 0.46626 0.85382 0.0
C608 C 0.98648 0.46763 0.82932 0.0
C609 C 0.01205 0.48947 0.83835 0.0
C610 C 0.92446 0.443 0.84298 0.0
C611 C 0.9101 0.45299 0.80574 0.0
C612 C 0.91576 0.40956 0.86739 0.0
C613 C 0.92985 0.39761 0.90711 0.0
C614 C 0.97081 0.38767 0.91151 0.0
C615 C 0.98374 0.37661 0.94917 0.0
C616 C 0.95601 0.37506 0.98259 0.0
C617 C 0.91528 0.38444 0.97841 0.0
C618 C 0.90219 0.39556 0.94081 0.0
C619 C 0.88887 0.3157 0.74518 0.0
C620 C 0.85822 0.29743 0.76279 0.0
C621 C 0.89649 0.34717 0.76168 0.0
C622 C 0.87333 0.36162 0.79593 0.0
C623 C 0.84211 0.34402 0.81335 0.0
C624 C 0.83437 0.31228 0.79668 0.0
C625 C 0.88406 0.39349 0.81408 0.0
C626 C 0.89536 0.38532 0.85272 0.0
C627 C 0.88972 0.42887 0.79105 0.0
C628 C 0.87546 0.44062 0.75122 0.0
C629 C 0.83592 0.44157 0.74581 0.0
C630 C 0.82275 0.45199 0.7082 0.0
C631 C 0.84879 0.46169 0.67575 0.0
C632 C 0.88806 0.46106 0.68085 0.0
C633 C 0.9014 0.45064 0.71839 0.0
H634 H 0.83855 0.46972 0.64665 0.0
H635 H 0.96608 0.36648 0.01172 0.0
H636 H 0.01882 0.64921 1.00017 0.0
H637 H 0.95171 0.68915 0.01683 0.0
H638 H 0.99028 0.79645 0.97189 0.0
H639 H 0.05799 0.75641 0.95454 0.0
H640 H 0.93266 0.79953 0.04638 0.0
H641 H 0.94795 0.76906 0.9107 0.0
H642 H 0.96839 0.72494 0.85675 0.0
H643 H 0.8916 0.65085 0.91444 0.0
H644 H 0.87061 0.69444 0.96874 0.0
H645 H 0.71442 0.88242 0.01238 0.0
H646 H 0.78198 0.8543 0.98143 0.0
H647 H 0.80544 0.77307 0.08644 0.0
H648 H 0.73847 0.80073 0.11723 0.0
H649 H 0.83296 0.77091 0.97028 0.0
H650 H 0.88695 0.79229 0.11577 0.0
H651 H 0.8644 0.83506 0.17072 0.0
H652 H 0.80288 0.92925 0.09175 0.0
H653 H 0.82515 0.88719 0.03628 0.0
C654 C 0.01343 0.68139 0.99482 0.0
C655 C 0.0437 0.69964 0.97586 0.0
C656 C 0.97497 0.70413 0.00412 0.0
C657 C 0.96598 0.74558 0.99484 0.0
C658 C 0.99673 0.76441 0.97906 0.0
C659 C 0.03544 0.74154 0.96954 0.0
C660 C 0.92382 0.7682 0.9993 0.0
C661 C 0.91094 0.79378 0.02939 0.0
C662 C 0.89557 0.76095 0.97676 0.0
C663 C 0.90789 0.7349 0.94392 0.0
C664 C 0.93565 0.74319 0.91205 0.0
C665 C 0.94733 0.7183 0.88141 0.0
C666 C 0.93153 0.68502 0.88232 0.0
C667 C 0.90384 0.67664 0.91378 0.0
C668 C 0.89192 0.7015 0.94442 0.0
C669 C 0.73337 0.85727 0.02798 0.0
C670 C 0.72131 0.84364 0.06714 0.0
C671 C 0.77203 0.84154 0.01047 0.0
C672 C 0.79876 0.8122 0.03206 0.0
C673 C 0.78533 0.79602 0.06955 0.0
C674 C 0.74698 0.81162 0.08696 0.0
C675 C 0.84181 0.80121 0.01808 0.0
C676 C 0.85481 0.77758 0.98647 0.0
C677 C 0.87019 0.8105 0.03901 0.0
C678 C 0.85766 0.8365 0.07191 0.0
C679 C 0.86882 0.82222 0.11008 0.0
C680 C 0.85597 0.84629 0.14133 0.0
C681 C 0.83217 0.8848 0.1347 0.0
C682 C 0.82116 0.89934 0.09683 0.0
C683 C 0.83383 0.87538 0.0655 0.0
H684 H 0.82239 0.90343 0.15887 0.0
H685 H 0.94066 0.6658 0.85857 0.0
H686 H 0.59811 0.84648 0.26187 0.0
H687 H 0.57607 0.78748 0.29453 0.0
H688 H 0.56631 0.75305 0.18001 0.0
H689 H 0.58532 0.81307 0.14789 0.0
H690 H 0.50817 0.73958 0.22462 0.0
H691 H 0.64794 0.7096 0.23981 0.0
H692 H 0.70921 0.72081 0.26011 0.0
H693 H 0.65804 0.71787 0.38167 0.0
H694 H 0.59623 0.70717 0.36201 0.0
H695 H 0.51869 0.53347 0.27605 0.0
H696 H 0.54479 0.59238 0.25304 0.0
H697 H 0.49818 0.64124 0.36411 0.0
H698 H 0.4699 0.58381 0.38671 0.0
H699 H 0.58368 0.64707 0.32575 0.0
H700 H 0.4426 0.67592 0.30418 0.0
H701 H 0.38613 0.65957 0.27902 0.0
H702 H 0.44822 0.65857 0.1616 0.0
H703 H 0.50534 0.67427 0.18625 0.0
C704 C 0.59086 0.82635 0.24392 0.0
C705 C 0.59315 0.83427 0.2025 0.0
C706 C 0.57866 0.79249 0.26248 0.0
C707 C 0.57016 0.76531 0.23973 0.0
C708 C 0.57246 0.77352 0.19832 0.0
C709 C 0.58336 0.80785 0.17995 0.0
C710 C 0.55845 0.72844 0.25855 0.0
C711 C 0.5251 0.71932 0.24641 0.0
C712 C 0.58005 0.70196 0.28744 0.0
C713 C 0.61732 0.708 0.29938 0.0
C714 C 0.64967 0.71159 0.27083 0.0
C715 C 0.6845 0.71783 0.28223 0.0
C716 C 0.68747 0.72017 0.32214 0.0
C717 C 0.65567 0.71612 0.35076 0.0
C718 C 0.62074 0.70994 0.33951 0.0
C719 C 0.51387 0.55668 0.29566 0.0
C720 C 0.49171 0.55395 0.33311 0.0
C721 C 0.52924 0.59005 0.28261 0.0
C722 C 0.52328 0.6209 0.30699 0.0
C723 C 0.50328 0.61741 0.34513 0.0
C724 C 0.48727 0.58441 0.35798 0.0
C725 C 0.53425 0.65853 0.29107 0.0
C726 C 0.5671 0.66768 0.30394 0.0
C727 C 0.513 0.68457 0.26203 0.0
C728 C 0.47836 0.67587 0.24713 0.0
C729 C 0.44433 0.67188 0.27307 0.0
C730 C 0.41219 0.66279 0.25889 0.0
C731 C 0.41363 0.65793 0.21876 0.0
C732 C 0.44716 0.66229 0.19269 0.0
C733 C 0.47941 0.67131 0.20674 0.0
H734 H 0.38872 0.65088 0.20784 0.0
H735 H 0.71445 0.72503 0.3309 0.0
loop_
_geom_bond_atom_site_label_1
_geom_bond_atom_site_label_2
_geom_bond_distance
_geom_bond_site_symmetry_2
_ccdc_geom_bond_type
C0 O16 1.251 . S
C0 O18 1.254 . S
N1 C2 1.333 . S
N1 C6 1.307 . S
N1 Zn7 2.020 . S
C2 N1 1.333 . S
C2 C3 1.379 . S
C2 H20 0.952 . S
C3 C2 1.379 . S
C3 C4 1.390 . S
C3 H30 0.949 . S
C4 C3 1.390 . S
C4 C5 1.357 . S
C5 C4 1.357 . S
C5 C6 1.370 . S
C5 H31 0.950 . S
C6 N1 1.307 . S
C6 C5 1.370 . S
C6 H24 0.948 . S
Zn7 N1 2.020 . S
Zn7 O16 2.039 . S
Zn7 O22 2.034 . S
Zn7 O26 2.025 . S
Zn7 O28 2.024 . S
C8 O27 1.246 . S
C8 O28 1.249 . S
N9 C10 1.307 . S
N9 C11 1.333 . S
N9 Zn15 2.020 . S
C10 N9 1.307 . S
C10 C14 1.370 . S
C10 H21 0.948 . S
C11 N9 1.333 . S
C11 C12 1.379 . S
C11 H19 0.952 . S
C12 C11 1.379 . S
C12 C13 1.390 . S
C12 H32 0.949 . S
C13 C12 1.390 . S
C13 C14 1.357 . S
C14 C10 1.370 . S
C14 C13 1.357 . S
C14 H33 0.950 . S
Zn15 N9 2.020 . S
Zn15 O18 2.025 . S
Zn15 O23 2.024 . S
Zn15 O25 2.039 . S
Zn15 O27 2.034 . S
O16 C0 1.251 . S
O16 Zn7 2.039 . S
C17 O22 1.246 . S
C17 O23 1.249 . S
O18 C0 1.254 . S
O18 Zn15 2.025 . S
H19 C11 0.952 . S
H20 C2 0.952 . S
H21 C10 0.948 . S
O22 Zn7 2.034 . S
O22 C17 1.246 . S
O23 Zn15 2.024 . S
O23 C17 1.249 . S
H24 C6 0.948 . S
O25 Zn15 2.039 . S
O25 C29 1.251 . S
O26 Zn7 2.025 . S
O26 C29 1.254 . S
O27 C8 1.246 . S
O27 Zn15 2.034 . S
O28 Zn7 2.024 . S
O28 C8 1.249 . S
C29 O25 1.251 . S
C29 O26 1.254 . S
H30 C3 0.949 . S
H31 C5 0.950 . S
H32 C12 0.949 . S
H33 C14 0.950 . S
C34 O50 1.251 . S
C34 O52 1.254 . S
N35 C36 1.333 . S
N35 C40 1.307 . S
N35 Zn41 2.020 . S
C36 N35 1.333 . S
C36 C37 1.379 . S
C36 H54 0.952 . S
C37 C36 1.379 . S
C37 C38 1.390 . S
C37 H64 0.949 . S
C38 C37 1.390 . S
C38 C39 1.357 . S
C39 C38 1.357 . S
C39 C40 1.370 . S
C39 H65 0.950 1_545 S
C40 N35 1.307 . S
C40 C39 1.370 . S
C40 H58 0.948 . S
Zn41 N35 2.020 . S
Zn41 O50 2.039 . S
Zn41 O56 2.034 . S
Zn41 O60 2.025 . S
Zn41 O62 2.024 . S
C42 O61 1.246 . S
C42 O62 1.249 . S
N43 C44 1.307 . S
N43 C45 1.333 . S
N43 Zn49 2.020 . S
C44 N43 1.307 . S
C44 C48 1.370 . S
C44 H55 0.948 . S
C45 N43 1.333 . S
C45 C46 1.379 . S
C45 H53 0.952 . S
C46 C45 1.379 . S
C46 C47 1.390 . S
C46 H66 0.949 . S
C47 C46 1.390 . S
C47 C48 1.357 . S
C48 C44 1.370 . S
C48 C47 1.357 . S
C48 H67 0.950 . S
Zn49 N43 2.020 . S
Zn49 O52 2.025 . S
Zn49 O57 2.024 . S
Zn49 O59 2.039 . S
Zn49 O61 2.034 . S
O50 C34 1.251 . S
O50 Zn41 2.039 . S
C51 O56 1.246 . S
C51 O57 1.249 . S
O52 C34 1.254 . S
O52 Zn49 2.025 . S
H53 C45 0.952 . S
H54 C36 0.952 . S
H55 C44 0.948 . S
O56 Zn41 2.034 . S
O56 C51 1.246 . S
O57 Zn49 2.024 . S
O57 C51 1.249 . S
H58 C40 0.948 . S
O59 Zn49 2.039 . S
O59 C63 1.251 . S
O60 Zn41 2.025 . S
O60 C63 1.254 . S
O61 C42 1.246 . S
O61 Zn49 2.034 . S
O62 Zn41 2.024 . S
O62 C42 1.249 . S
C63 O59 1.251 . S
C63 O60 1.254 . S
H64 C37 0.949 . S
H65 C39 0.950 1_565 S
H66 C46 0.949 . S
H67 C48 0.950 . S
C68 O84 1.251 . S
C68 O86 1.254 . S
N69 C70 1.333 . S
N69 C74 1.307 . S
N69 Zn75 2.020 . S
C70 N69 1.333 . S
C70 C71 1.379 . S
C70 H88 0.952 . S
C71 C70 1.379 . S
C71 C72 1.390 . S
C71 H98 0.949 . S
C72 C71 1.390 . S
C72 C73 1.357 . S
C73 C72 1.357 . S
C73 C74 1.370 . S
C73 H99 0.950 . S
C74 N69 1.307 . S
C74 C73 1.370 . S
C74 H92 0.948 . S
Zn75 N69 2.020 . S
Zn75 O84 2.039 . S
Zn75 O90 2.034 . S
Zn75 O94 2.025 . S
Zn75 O96 2.024 . S
C76 O95 1.246 . S
C76 O96 1.249 . S
N77 C78 1.307 . S
N77 C79 1.333 . S
N77 Zn83 2.020 . S
C78 N77 1.307 . S
C78 C82 1.370 . S
C78 H89 0.948 . S
C79 N77 1.333 . S
C79 C80 1.379 . S
C79 H87 0.952 . S
C80 C79 1.379 . S
C80 C81 1.390 . S
C80 H100 0.949 . S
C81 C80 1.390 . S
C81 C82 1.357 . S
C82 C78 1.370 . S
C82 C81 1.357 . S
C82 H101 0.950 . S
Zn83 N77 2.020 . S
Zn83 O86 2.025 . S
Zn83 O91 2.024 . S
Zn83 O93 2.039 . S
Zn83 O95 2.034 . S
O84 C68 1.251 . S
O84 Zn75 2.039 . S
C85 O90 1.246 . S
C85 O91 1.249 . S
O86 C68 1.254 . S
O86 Zn83 2.025 . S
H87 C79 0.952 . S
H88 C70 0.952 . S
H89 C78 0.948 . S
O90 Zn75 2.034 . S
O90 C85 1.246 . S
O91 Zn83 2.024 . S
O91 C85 1.249 . S
H92 C74 0.948 . S
O93 Zn83 2.039 . S
O93 C97 1.251 . S
O94 Zn75 2.025 . S
O94 C97 1.254 . S
O95 C76 1.246 . S
O95 Zn83 2.034 . S
O96 Zn75 2.024 . S
O96 C76 1.249 . S
C97 O93 1.251 . S
C97 O94 1.254 . S
H98 C71 0.949 . S
H99 C73 0.950 . S
H100 C80 0.949 . S
H101 C82 0.950 . S
C102 O118 1.251 . S
C102 O120 1.254 . S
N103 C104 1.333 . S
N103 C108 1.307 . S
N103 Zn109 2.020 . S
C104 N103 1.333 . S
C104 C105 1.379 . S
C104 H122 0.952 . S
C105 C104 1.379 . S
C105 C106 1.390 . S
C105 H132 0.949 1_565 S
C106 C105 1.390 . S
C106 C107 1.357 . S
C107 C106 1.357 . S
C107 C108 1.370 . S
C107 H133 0.950 . S
C108 N103 1.307 . S
C108 C107 1.370 . S
C108 H126 0.948 . S
Zn109 N103 2.020 . S
Zn109 O118 2.039 . S
Zn109 O124 2.034 . S
Zn109 O128 2.025 . S
Zn109 O130 2.024 . S
C110 O129 1.246 . S
C110 O130 1.249 . S
N111 C112 1.307 . S
N111 C113 1.333 . S
N111 Zn117 2.020 . S
C112 N111 1.307 . S
C112 C116 1.370 . S
C112 H123 0.948 . S
C113 N111 1.333 . S
C113 C114 1.379 . S
C113 H121 0.952 . S
C114 C113 1.379 . S
C114 C115 1.390 . S
C114 H134 0.949 . S
C115 C114 1.390 . S
C115 C116 1.357 . S
C116 C112 1.370 . S
C116 C115 1.357 . S
C116 H135 0.950 . S
Zn117 N111 2.020 . S
Zn117 O120 2.025 . S
Zn117 O125 2.024 . S
Zn117 O127 2.039 . S
Zn117 O129 2.034 . S
O118 C102 1.251 . S
O118 Zn109 2.039 . S
C119 O124 1.246 . S
C119 O125 1.249 . S
O120 C102 1.254 . S
O120 Zn117 2.025 . S
H121 C113 0.952 . S
H122 C104 0.952 . S
H123 C112 0.948 . S
O124 Zn109 2.034 . S
O124 C119 1.246 . S
O125 Zn117 2.024 . S
O125 C119 1.249 . S
H126 C108 0.948 . S
O127 Zn117 2.039 . S
O127 C131 1.251 . S
O128 Zn109 2.025 . S
O128 C131 1.254 . S
O129 C110 1.246 . S
O129 Zn117 2.034 . S
O130 Zn109 2.024 . S
O130 C110 1.249 . S
C131 O127 1.251 . S
C131 O128 1.254 . S
H132 C105 0.949 1_545 S
H133 C107 0.950 . S
H134 C114 0.949 . S
H135 C116 0.950 . S
H136 C154 0.951 1_556 S
H137 C156 0.951 . S
H138 C158 0.950 . S
H139 C159 0.950 . S
H140 C161 0.950 . S
H141 C164 0.950 . S
H142 C165 0.950 . S
H143 C167 0.950 . S
H144 C168 0.950 . S
H145 C169 0.951 . S
H146 C171 0.951 . S
H147 C173 0.950 . S
H148 C174 0.950 . S
H149 C176 0.950 . S
H150 C179 0.950 . S
H151 C180 0.950 . S
H152 C182 0.950 . S
H153 C183 0.950 . S
C154 H136 0.951 1_554 S
C154 C155 1.366 1_554 S
C154 C156 1.388 . S
C155 C154 1.366 1_556 S
C155 C159 1.385 1_556 S
C156 H137 0.951 . S
C156 C154 1.388 . S
C156 C157 1.366 . S
C157 C156 1.366 . S
C157 C158 1.414 . S
C157 C160 1.499 . S
C158 H138 0.950 . S
C158 C157 1.414 . S
C158 C159 1.374 . S
C159 H139 0.950 . S
C159 C155 1.385 1_554 S
C159 C158 1.374 . S
C160 C157 1.499 . S
C160 C161 1.373 . S
C160 C162 1.389 . S
C161 H140 0.950 . S
C161 C160 1.373 . S
C161 C177 1.377 . S
C162 C160 1.389 . S
C162 C163 1.524 . S
C162 C176 1.377 . S
C163 C162 1.524 . S
C163 C164 1.397 . S
C163 C168 1.363 . S
C164 H141 0.950 . S
C164 C163 1.397 . S
C164 C165 1.334 . S
C165 H142 0.950 . S
C165 C164 1.334 . S
C165 C166 1.287 . S
C166 C165 1.287 . S
C166 C167 1.524 . S
C166 H185 0.913 1_554 S
C167 H143 0.950 . S
C167 C166 1.524 . S
C167 C168 1.415 . S
C168 H144 0.950 . S
C168 C163 1.363 . S
C168 C167 1.415 . S
C169 H145 0.951 . S
C169 C170 1.366 . S
C169 C171 1.388 . S
C170 C169 1.366 . S
C170 C174 1.385 . S
C171 H146 0.951 . S
C171 C169 1.388 . S
C171 C172 1.366 . S
C172 C171 1.366 . S
C172 C173 1.414 . S
C172 C175 1.499 . S
C173 H147 0.950 . S
C173 C172 1.414 . S
C173 C174 1.374 . S
C174 H148 0.950 . S
C174 C170 1.385 . S
C174 C173 1.374 . S
C175 C172 1.499 . S
C175 C176 1.373 . S
C175 C177 1.389 . S
C176 H149 0.950 . S
C176 C162 1.377 . S
C176 C175 1.373 . S
C177 C161 1.377 . S
C177 C175 1.389 . S
C177 C178 1.524 . S
C178 C177 1.524 . S
C178 C179 1.397 . S
C178 C183 1.363 . S
C179 H150 0.950 . S
C179 C178 1.397 . S
C179 C180 1.334 . S
C180 H151 0.950 . S
C180 C179 1.334 . S
C180 C181 1.287 . S
C181 C180 1.287 . S
C181 C182 1.524 . S
C181 H184 0.999 . S
C182 H152 0.950 . S
C182 C181 1.524 . S
C182 C183 1.415 . S
C183 H153 0.950 . S
C183 C178 1.363 . S
C183 C182 1.415 . S
H184 C181 0.999 . S
H185 C166 0.913 1_556 S
H186 C204 0.951 . S
H187 C206 0.951 . S
H188 C208 0.950 1_545 S
H189 C209 0.950 . S
H190 C211 0.950 . S
H191 C214 0.950 . S
H192 C215 0.950 . S
H193 C217 0.950 1_565 S
H194 C218 0.950 . S
H195 C219 0.951 . S
H196 C221 0.951 . S
H197 C223 0.950 . S
H198 C224 0.950 . S
H199 C226 0.950 1_545 S
H200 C229 0.950 . S
H201 C230 0.950 . S
H202 C232 0.950 . S
H203 C233 0.950 . S
C204 H186 0.951 . S
C204 C205 1.366 . S
C204 C206 1.388 . S
C205 C204 1.366 . S
C205 C209 1.385 . S
C206 H187 0.951 . S
C206 C204 1.388 . S
C206 C207 1.366 . S
C207 C206 1.366 . S
C207 C208 1.414 . S
C207 C210 1.499 . S
C208 H188 0.950 1_565 S
C208 C207 1.414 . S
C208 C209 1.374 . S
C209 H189 0.950 . S
C209 C205 1.385 . S
C209 C208 1.374 . S
C210 C207 1.499 . S
C210 C211 1.373 . S
C210 C212 1.389 . S
C211 H190 0.950 . S
C211 C210 1.373 . S
C211 C227 1.377 . S
C212 C210 1.389 . S
C212 C213 1.524 1_565 S
C212 C226 1.377 . S
C213 C212 1.524 1_545 S
C213 C214 1.397 . S
C213 C218 1.363 1_545 S
C214 H191 0.950 . S
C214 C213 1.397 . S
C214 C215 1.334 . S
C215 H192 0.950 . S
C215 C214 1.334 . S
C215 C216 1.287 . S
C216 C215 1.287 . S
C216 C217 1.524 . S
C216 H235 0.913 . S
C217 H193 0.950 1_545 S
C217 C216 1.524 . S
C217 C218 1.415 1_545 S
C218 H194 0.950 . S
C218 C213 1.363 1_565 S
C218 C217 1.415 1_565 S
C219 H195 0.951 . S
C219 C220 1.366 . S
C219 C221 1.388 . S
C220 C219 1.366 . S
C220 C224 1.385 1_545 S
C221 H196 0.951 . S
C221 C219 1.388 . S
C221 C222 1.366 1_545 S
C222 C221 1.366 1_565 S
C222 C223 1.414 . S
C222 C225 1.499 . S
C223 H197 0.950 . S
C223 C222 1.414 . S
C223 C224 1.374 . S
C224 H198 0.950 . S
C224 C220 1.385 1_565 S
C224 C223 1.374 . S
C225 C222 1.499 . S
C225 C226 1.373 . S
C225 C227 1.389 . S
C226 H199 0.950 1_565 S
C226 C212 1.377 . S
C226 C225 1.373 . S
C227 C211 1.377 . S
C227 C225 1.389 . S
C227 C228 1.524 . S
C228 C227 1.524 . S
C228 C229 1.397 . S
C228 C233 1.363 . S
C229 H200 0.950 . S
C229 C228 1.397 . S
C229 C230 1.334 . S
C230 H201 0.950 . S
C230 C229 1.334 . S
C230 C231 1.287 . S
C231 C230 1.287 . S
C231 C232 1.524 . S
C231 H234 0.999 . S
C232 H202 0.950 . S
C232 C231 1.524 . S
C232 C233 1.415 . S
C233 H203 0.950 . S
C233 C228 1.363 . S
C233 C232 1.415 . S
H234 C231 0.999 . S
H235 C216 0.913 . S
H236 C254 0.951 . S
H237 C256 0.951 . S
H238 C258 0.950 . S
H239 C259 0.950 . S
H240 C261 0.950 . S
H241 C264 0.950 . S
H242 C265 0.950 . S
H243 C267 0.950 . S
H244 C268 0.950 . S
H245 C269 0.951 . S
H246 C271 0.951 . S
H247 C273 0.950 . S
H248 C274 0.950 . S
H249 C276 0.950 . S
H250 C279 0.950 . S
H251 C280 0.950 . S
H252 C282 0.950 . S
H253 C283 0.950 . S
C254 H236 0.951 . S
C254 C255 1.366 . S
C254 C256 1.388 . S
C255 C254 1.366 . S
C255 C259 1.385 . S
C256 H237 0.951 . S
C256 C254 1.388 . S
C256 C257 1.366 . S
C257 C256 1.366 . S
C257 C258 1.414 . S
C257 C260 1.499 . S
C258 H238 0.950 . S
C258 C257 1.414 . S
C258 C259 1.374 . S
C259 H239 0.950 . S
C259 C255 1.385 . S
C259 C258 1.374 . S
C260 C257 1.499 . S
C260 C261 1.373 . S
C260 C262 1.389 . S
C261 H240 0.950 . S
C261 C260 1.373 . S
C261 C277 1.377 . S
C262 C260 1.389 . S
C262 C263 1.524 . S
C262 C276 1.377 . S
C263 C262 1.524 . S
C263 C264 1.397 . S
C263 C268 1.363 . S
C264 H241 0.950 . S
C264 C263 1.397 . S
C264 C265 1.334 . S
C265 H242 0.950 . S
C265 C264 1.334 . S
C265 C266 1.287 . S
C266 C265 1.287 . S
C266 C267 1.524 . S
C266 H285 0.913 . S
C267 H243 0.950 . S
C267 C266 1.524 . S
C267 C268 1.415 . S
C268 H244 0.950 . S
C268 C263 1.363 . S
C268 C267 1.415 . S
C269 H245 0.951 . S
C269 C270 1.366 . S
C269 C271 1.388 . S
C270 C269 1.366 . S
C270 C274 1.385 . S
C271 H246 0.951 . S
C271 C269 1.388 . S
C271 C272 1.366 . S
C272 C271 1.366 . S
C272 C273 1.414 . S
C272 C275 1.499 . S
C273 H247 0.950 . S
C273 C272 1.414 . S
C273 C274 1.374 . S
C274 H248 0.950 . S
C274 C270 1.385 . S
C274 C273 1.374 . S
C275 C272 1.499 . S
C275 C276 1.373 . S
C275 C277 1.389 . S
C276 H249 0.950 . S
C276 C262 1.377 . S
C276 C275 1.373 . S
C277 C261 1.377 . S
C277 C275 1.389 . S
C277 C278 1.524 . S
C278 C277 1.524 . S
C278 C279 1.397 . S
C278 C283 1.363 . S
C279 H250 0.950 . S
C279 C278 1.397 . S
C279 C280 1.334 . S
C280 H251 0.950 . S
C280 C279 1.334 . S
C280 C281 1.287 . S
C281 C280 1.287 . S
C281 C282 1.524 . S
C281 H284 0.999 . S
C282 H252 0.950 . S
C282 C281 1.524 . S
C282 C283 1.415 . S
C283 H253 0.950 . S
C283 C278 1.363 . S
C283 C282 1.415 . S
H284 C281 0.999 . S
H285 C266 0.913 . S
H286 C304 0.951 . S
H287 C306 0.951 . S
H288 C308 0.950 . S
H289 C309 0.950 . S
H290 C311 0.950 . S
H291 C314 0.950 . S
H292 C315 0.950 . S
H293 C317 0.950 . S
H294 C318 0.950 . S
H295 C319 0.951 . S
H296 C321 0.951 . S
H297 C323 0.950 . S
H298 C324 0.950 . S
H299 C326 0.950 . S
H300 C329 0.950 . S
H301 C330 0.950 . S
H302 C332 0.950 . S
H303 C333 0.950 . S
C304 H286 0.951 . S
C304 C305 1.366 . S
C304 C306 1.388 1_554 S
C305 C304 1.366 . S
C305 C309 1.385 1_565 S
C306 H287 0.951 . S
C306 C304 1.388 1_556 S
C306 C307 1.366 1_565 S
C307 C306 1.366 1_545 S
C307 C308 1.414 . S
C307 C310 1.499 . S
C308 H288 0.950 . S
C308 C307 1.414 . S
C308 C309 1.374 1_556 S
C309 H289 0.950 . S
C309 C305 1.385 1_545 S
C309 C308 1.374 1_554 S
C310 C307 1.499 . S
C310 C311 1.373 . S
C310 C312 1.389 . S
C311 H290 0.950 . S
C311 C310 1.373 . S
C311 C327 1.377 . S
C312 C310 1.389 . S
C312 C313 1.524 . S
C312 C326 1.377 . S
C313 C312 1.524 . S
C313 C314 1.397 . S
C313 C318 1.363 1_545 S
C314 H291 0.950 . S
C314 C313 1.397 . S
C314 C315 1.334 1_556 S
C315 H292 0.950 . S
C315 C314 1.334 1_554 S
C315 C316 1.287 1_545 S
C316 C315 1.287 1_565 S
C316 C317 1.524 1_554 S
C316 H335 0.913 . S
C317 H293 0.950 . S
C317 C316 1.524 1_556 S
C317 C318 1.415 . S
C318 H294 0.950 . S
C318 C313 1.363 1_565 S
C318 C317 1.415 . S
C319 H295 0.951 . S
C319 C320 1.366 . S
C319 C321 1.388 . S
C320 C319 1.366 . S
C320 C324 1.385 . S
C321 H296 0.951 . S
C321 C319 1.388 . S
C321 C322 1.366 . S
C322 C321 1.366 . S
C322 C323 1.414 . S
C322 C325 1.499 . S
C323 H297 0.950 . S
C323 C322 1.414 . S
C323 C324 1.374 . S
C324 H298 0.950 . S
C324 C320 1.385 . S
C324 C323 1.374 . S
C325 C322 1.499 . S
C325 C326 1.373 . S
C325 C327 1.389 . S
C326 H299 0.950 . S
C326 C312 1.377 . S
C326 C325 1.373 . S
C327 C311 1.377 . S
C327 C325 1.389 . S
C327 C328 1.524 . S
C328 C327 1.524 . S
C328 C329 1.397 . S
C328 C333 1.363 . S
C329 H300 0.950 . S
C329 C328 1.397 . S
C329 C330 1.334 . S
C330 H301 0.950 . S
C330 C329 1.334 . S
C330 C331 1.287 . S
C331 C330 1.287 . S
C331 C332 1.524 . S
C331 H334 0.999 . S
C332 H302 0.950 . S
C332 C331 1.524 . S
C332 C333 1.415 . S
C333 H303 0.950 . S
C333 C328 1.363 . S
C333 C332 1.415 . S
H334 C331 0.999 . S
H335 C316 0.913 . S
H336 C354 0.951 . S
H337 C356 0.962 . S
H338 C358 0.950 1_455 S
H339 C359 0.950 . S
H340 C361 0.950 . S
H341 C364 0.950 . S
H342 C365 0.950 . S
H343 C367 0.950 . S
H344 C368 0.950 . S
H345 C369 0.951 . S
H346 C371 0.951 . S
H347 C373 0.950 . S
H348 C374 0.950 . S
H349 C376 0.950 . S
H350 C379 0.950 . S
H351 C380 0.950 . S
H352 C382 0.950 . S
H353 C383 0.950 . S
C354 H336 0.951 . S
C354 C355 1.366 . S
C354 C356 1.359 1_655 S
C355 C354 1.366 . S
C355 C359 1.385 . S
C356 H337 0.962 . S
C356 C354 1.359 1_455 S
C356 C357 1.384 . S
C357 C356 1.384 . S
C357 C358 1.414 1_455 S
C357 C360 1.499 . S
C358 H338 0.950 1_655 S
C358 C357 1.414 1_655 S
C358 C359 1.374 . S
C359 H339 0.950 . S
C359 C355 1.385 . S
C359 C358 1.374 . S
C360 C357 1.499 . S
C360 C361 1.373 . S
C360 C362 1.389 . S
C361 H340 0.950 . S
C361 C360 1.373 . S
C361 C377 1.377 . S
C362 C360 1.389 . S
C362 C363 1.524 . S
C362 C376 1.377 . S
C363 C362 1.524 . S
C363 C364 1.397 . S
C363 C368 1.363 . S
C364 H341 0.950 . S
C364 C363 1.397 . S
C364 C365 1.334 . S
C365 H342 0.950 . S
C365 C364 1.334 . S
C365 C366 1.287 . S
C366 C365 1.287 . S
C366 C367 1.524 . S
C366 H385 0.913 . S
C367 H343 0.950 . S
C367 C366 1.524 . S
C367 C368 1.415 . S
C368 H344 0.950 . S
C368 C363 1.363 . S
C368 C367 1.415 . S
C369 H345 0.951 . S
C369 C370 1.366 . S
C369 C371 1.388 . S
C370 C369 1.366 . S
C370 C374 1.385 . S
C371 H346 0.951 . S
C371 C369 1.388 . S
C371 C372 1.366 . S
C372 C371 1.366 . S
C372 C373 1.414 . S
C372 C375 1.499 . S
C373 H347 0.950 . S
C373 C372 1.414 . S
C373 C374 1.374 . S
C374 H348 0.950 . S
C374 C370 1.385 . S
C374 C373 1.374 . S
C375 C372 1.499 . S
C375 C376 1.373 . S
C375 C377 1.389 . S
C376 H349 0.950 . S
C376 C362 1.377 . S
C376 C375 1.373 . S
C377 C361 1.377 . S
C377 C375 1.389 . S
C377 C378 1.524 . S
C378 C377 1.524 . S
C378 C379 1.397 . S
C378 C383 1.363 . S
C379 H350 0.950 . S
C379 C378 1.397 . S
C379 C380 1.334 . S
C380 H351 0.950 . S
C380 C379 1.334 . S
C380 C381 1.287 . S
C381 C380 1.287 . S
C381 C382 1.524 . S
C381 H384 0.999 . S
C382 H352 0.950 . S
C382 C381 1.524 . S
C382 C383 1.415 . S
C383 H353 0.950 . S
C383 C378 1.363 . S
C383 C382 1.415 . S
H384 C381 0.999 . S
H385 C366 0.913 . S
H386 C404 0.951 . S
H387 C406 0.951 . S
H388 C408 0.950 . S
H389 C409 0.950 . S
H390 C411 0.950 . S
H391 C414 0.950 . S
H392 C415 0.950 . S
H393 C417 0.950 . S
H394 C418 0.950 . S
H395 C419 0.951 . S
H396 C421 0.949 . S
H397 C423 0.950 . S
H398 C424 0.950 . S
H399 C426 0.950 . S
H400 C429 0.950 . S
H401 C430 0.950 . S
H402 C432 0.950 . S
H403 C433 0.950 . S
C404 H386 0.951 . S
C404 C405 1.366 . S
C404 C406 1.388 . S
C405 C404 1.366 . S
C405 C409 1.385 . S
C406 H387 0.951 . S
C406 C404 1.388 . S
C406 C407 1.366 . S
C407 C406 1.366 . S
C407 C408 1.414 . S
C407 C410 1.499 . S
C408 H388 0.950 . S
C408 C407 1.414 . S
C408 C409 1.374 . S
C409 H389 0.950 . S
C409 C405 1.385 . S
C409 C408 1.374 . S
C410 C407 1.499 . S
C410 C411 1.373 . S
C410 C412 1.389 1_455 S
C411 H390 0.950 . S
C411 C410 1.373 . S
C411 C427 1.377 . S
C412 C410 1.389 1_655 S
C412 C413 1.524 . S
C412 C426 1.377 . S
C413 C412 1.524 . S
C413 C414 1.397 . S
C413 C418 1.363 . S
C414 H391 0.950 . S
C414 C413 1.397 . S
C414 C415 1.334 . S
C415 H392 0.950 . S
C415 C414 1.334 . S
C415 C416 1.287 . S
C416 C415 1.287 . S
C416 C417 1.524 . S
C416 H435 0.913 . S
C417 H393 0.950 . S
C417 C416 1.524 . S
C417 C418 1.415 . S
C418 H394 0.950 . S
C418 C413 1.363 . S
C418 C417 1.415 . S
C419 H395 0.951 . S
C419 C420 1.366 . S
C419 C421 1.388 1_545 S
C420 C419 1.366 . S
C420 C424 1.385 . S
C421 H396 0.949 . S
C421 C419 1.388 1_565 S
C421 C422 1.366 . S
C422 C421 1.366 . S
C422 C423 1.414 . S
C422 C425 1.499 . S
C423 H397 0.950 . S
C423 C422 1.414 . S
C423 C424 1.374 1_565 S
C424 H398 0.950 . S
C424 C420 1.385 . S
C424 C423 1.374 1_545 S
C425 C422 1.499 . S
C425 C426 1.373 . S
C425 C427 1.389 1_655 S
C426 H399 0.950 . S
C426 C412 1.377 . S
C426 C425 1.373 . S
C427 C411 1.377 . S
C427 C425 1.389 1_455 S
C427 C428 1.524 . S
C428 C427 1.524 . S
C428 C429 1.397 . S
C428 C433 1.363 . S
C429 H400 0.950 . S
C429 C428 1.397 . S
C429 C430 1.334 1_565 S
C430 H401 0.950 . S
C430 C429 1.334 1_545 S
C430 C431 1.287 1_545 S
C431 C430 1.287 1_565 S
C431 C432 1.524 . S
C431 H434 0.999 1_565 S
C432 H402 0.950 . S
C432 C431 1.524 . S
C432 C433 1.415 . S
C433 H403 0.950 . S
C433 C428 1.363 . S
C433 C432 1.415 . S
H434 C431 0.999 1_545 S
H435 C416 0.913 . S
H436 C454 0.951 . S
H437 C456 0.951 . S
H438 C458 0.950 1_554 S
H439 C459 0.960 . S
H440 C461 0.950 1_554 S
H441 C464 0.950 . S
H442 C465 0.950 . S
H443 C467 0.950 . S
H444 C468 0.950 . S
H445 C469 0.951 . S
H446 C471 0.951 . S
H447 C473 0.950 . S
H448 C474 0.950 . S
H449 C476 0.950 . S
H450 C479 0.964 . S
H451 C480 0.950 . S
H452 C482 0.950 . S
H453 C483 0.950 . S
C454 H436 0.951 . S
C454 C455 1.366 . S
C454 C456 1.388 . S
C455 C454 1.366 . S
C455 C459 1.385 . S
C456 H437 0.951 . S
C456 C454 1.388 . S
C456 C457 1.366 . S
C457 C456 1.366 . S
C457 C458 1.414 . S
C457 C460 1.499 . S
C458 H438 0.950 1_556 S
C458 C457 1.414 . S
C458 C459 1.374 . S
C459 H439 0.960 . S
C459 C455 1.385 . S
C459 C458 1.374 . S
C460 C457 1.499 . S
C460 C461 1.373 . S
C460 C462 1.389 . S
C461 H440 0.950 1_556 S
C461 C460 1.373 . S
C461 C477 1.383 . S
C462 C460 1.389 . S
C462 C463 1.524 . S
C462 C476 1.377 . S
C463 C462 1.524 . S
C463 C464 1.397 . S
C463 C468 1.363 . S
C464 H441 0.950 . S
C464 C463 1.397 . S
C464 C465 1.334 . S
C465 H442 0.950 . S
C465 C464 1.334 . S
C465 C466 1.287 . S
C466 C465 1.287 . S
C466 C467 1.524 . S
C466 H485 0.913 . S
C467 H443 0.950 . S
C467 C466 1.524 . S
C467 C468 1.415 . S
C468 H444 0.950 . S
C468 C463 1.363 . S
C468 C467 1.415 . S
C469 H445 0.951 . S
C469 C470 1.366 1_554 S
C469 C471 1.388 . S
C470 C469 1.366 1_556 S
C470 C474 1.385 . S
C471 H446 0.951 . S
C471 C469 1.388 . S
C471 C472 1.366 1_554 S
C472 C471 1.366 1_556 S
C472 C473 1.414 . S
C472 C475 1.499 . S
C473 H447 0.950 . S
C473 C472 1.414 . S
C473 C474 1.374 . S
C474 H448 0.950 . S
C474 C470 1.385 . S
C474 C473 1.374 . S
C475 C472 1.499 . S
C475 C476 1.373 . S
C475 C477 1.402 . S
C476 H449 0.950 . S
C476 C462 1.377 . S
C476 C475 1.373 . S
C477 C461 1.383 . S
C477 C475 1.402 . S
C477 C478 1.506 1_556 S
C478 C477 1.506 1_554 S
C478 C479 1.397 . S
C478 C483 1.363 . S
C479 H450 0.964 . S
C479 C478 1.397 . S
C479 C480 1.334 . S
C480 H451 0.950 . S
C480 C479 1.334 . S
C480 C481 1.287 . S
C481 C480 1.287 . S
C481 C482 1.524 . S
C481 H484 0.999 . S
C482 H452 0.950 . S
C482 C481 1.524 . S
C482 C483 1.415 . S
C483 H453 0.950 . S
C483 C478 1.363 . S
C483 C482 1.415 . S
H484 C481 0.999 . S
H485 C466 0.913 . S
H486 C504 0.951 . S
H487 C506 0.951 . S
H488 C508 0.950 . S
H489 C509 0.950 . S
H490 C511 0.950 . S
H491 C514 0.950 . S
H492 C515 0.950 . S
H493 C517 0.950 . S
H494 C518 0.950 . S
H495 C519 0.951 . S
H496 C521 0.951 . S
H497 C523 0.950 . S
H498 C524 0.950 . S
H499 C526 0.950 . S
H500 C529 0.950 . S
H501 C530 0.950 . S
H502 C532 0.950 . S
H503 C533 0.950 . S
C504 H486 0.951 . S
C504 C505 1.366 . S
C504 C506 1.388 . S
C505 C504 1.366 . S
C505 C509 1.385 . S
C506 H487 0.951 . S
C506 C504 1.388 . S
C506 C507 1.366 . S
C507 C506 1.366 . S
C507 C508 1.414 . S
C507 C510 1.499 . S
C508 H488 0.950 . S
C508 C507 1.414 . S
C508 C509 1.374 . S
C509 H489 0.950 . S
C509 C505 1.385 . S
C509 C508 1.374 . S
C510 C507 1.499 . S
C510 C511 1.373 . S
C510 C512 1.389 . S
C511 H490 0.950 . S
C511 C510 1.373 . S
C511 C527 1.377 . S
C512 C510 1.389 . S
C512 C513 1.524 . S
C512 C526 1.377 . S
C513 C512 1.524 . S
C513 C514 1.397 . S
C513 C518 1.363 . S
C514 H491 0.950 . S
C514 C513 1.397 . S
C514 C515 1.334 . S
C515 H492 0.950 . S
C515 C514 1.334 . S
C515 C516 1.287 . S
C516 C515 1.287 . S
C516 C517 1.524 . S
C516 H535 0.913 . S
C517 H493 0.950 . S
C517 C516 1.524 . S
C517 C518 1.415 . S
C518 H494 0.950 . S
C518 C513 1.363 . S
C518 C517 1.415 . S
C519 H495 0.951 . S
C519 C520 1.366 . S
C519 C521 1.388 . S
C520 C519 1.366 . S
C520 C524 1.385 . S
C521 H496 0.951 . S
C521 C519 1.388 . S
C521 C522 1.366 . S
C522 C521 1.366 . S
C522 C523 1.414 . S
C522 C525 1.499 . S
C523 H497 0.950 . S
C523 C522 1.414 . S
C523 C524 1.374 . S
C524 H498 0.950 . S
C524 C520 1.385 . S
C524 C523 1.374 . S
C525 C522 1.499 . S
C525 C526 1.373 . S
C525 C527 1.389 . S
C526 H499 0.950 . S
C526 C512 1.377 . S
C526 C525 1.373 . S
C527 C511 1.377 . S
C527 C525 1.389 . S
C527 C528 1.524 . S
C528 C527 1.524 . S
C528 C529 1.397 . S
C528 C533 1.363 . S
C529 H500 0.950 . S
C529 C528 1.397 . S
C529 C530 1.334 . S
C530 H501 0.950 . S
C530 C529 1.334 . S
C530 C531 1.287 . S
C531 C530 1.287 . S
C531 C532 1.524 . S
C531 H534 0.999 . S
C532 H502 0.950 . S
C532 C531 1.524 . S
C532 C533 1.415 . S
C533 H503 0.950 . S
C533 C528 1.363 . S
C533 C532 1.415 . S
H534 C531 0.999 . S
H535 C516 0.913 . S
H536 C554 0.951 . S
H537 C556 0.951 . S
H538 C558 0.950 . S
H539 C559 0.950 . S
H540 C561 0.950 . S
H541 C564 0.950 . S
H542 C565 0.950 . S
H543 C567 0.950 . S
H544 C568 0.950 . S
H545 C569 0.951 . S
H546 C571 0.951 . S
H547 C573 0.950 . S
H548 C574 0.950 . S
H549 C576 0.950 . S
H550 C579 0.950 . S
H551 C580 0.950 . S
H552 C582 0.950 . S
H553 C583 0.950 . S
C554 H536 0.951 . S
C554 C555 1.366 . S
C554 C556 1.388 . S
C555 C554 1.366 . S
C555 C559 1.385 . S
C556 H537 0.951 . S
C556 C554 1.388 . S
C556 C557 1.366 . S
C557 C556 1.366 . S
C557 C558 1.414 . S
C557 C560 1.499 . S
C558 H538 0.950 . S
C558 C557 1.414 . S
C558 C559 1.374 . S
C559 H539 0.950 . S
C559 C555 1.385 . S
C559 C558 1.374 . S
C560 C557 1.499 . S
C560 C561 1.373 . S
C560 C562 1.389 . S
C561 H540 0.950 . S
C561 C560 1.373 . S
C561 C577 1.377 . S
C562 C560 1.389 . S
C562 C563 1.524 . S
C562 C576 1.377 . S
C563 C562 1.524 . S
C563 C564 1.397 . S
C563 C568 1.363 . S
C564 H541 0.950 . S
C564 C563 1.397 . S
C564 C565 1.334 . S
C565 H542 0.950 . S
C565 C564 1.334 . S
C565 C566 1.287 . S
C566 C565 1.287 . S
C566 C567 1.524 . S
C566 H585 0.913 . S
C567 H543 0.950 . S
C567 C566 1.524 . S
C567 C568 1.415 . S
C568 H544 0.950 . S
C568 C563 1.363 . S
C568 C567 1.415 . S
C569 H545 0.951 . S
C569 C570 1.366 . S
C569 C571 1.388 . S
C570 C569 1.366 . S
C570 C574 1.385 . S
C571 H546 0.951 . S
C571 C569 1.388 . S
C571 C572 1.366 . S
C572 C571 1.366 . S
C572 C573 1.414 . S
C572 C575 1.499 . S
C573 H547 0.950 . S
C573 C572 1.414 . S
C573 C574 1.374 . S
C574 H548 0.950 . S
C574 C570 1.385 . S
C574 C573 1.374 . S
C575 C572 1.499 . S
C575 C576 1.373 . S
C575 C577 1.389 . S
C576 H549 0.950 . S
C576 C562 1.377 . S
C576 C575 1.373 . S
C577 C561 1.377 . S
C577 C575 1.389 . S
C577 C578 1.524 . S
C578 C577 1.524 . S
C578 C579 1.397 . S
C578 C583 1.363 . S
C579 H550 0.950 . S
C579 C578 1.397 . S
C579 C580 1.334 . S
C580 H551 0.950 . S
C580 C579 1.334 . S
C580 C581 1.287 . S
C581 C580 1.287 . S
C581 C582 1.524 . S
C581 H584 0.999 . S
C582 H552 0.950 . S
C582 C581 1.524 . S
C582 C583 1.415 . S
C583 H553 0.950 . S
C583 C578 1.363 . S
C583 C582 1.415 . S
H584 C581 0.999 . S
H585 C566 0.913 . S
H586 C604 0.951 . S
H587 C606 0.951 . S
H588 C608 0.950 . S
H589 C609 0.950 . S
H590 C611 0.950 . S
H591 C614 0.950 . S
H592 C615 0.950 . S
H593 C617 0.950 . S
H594 C618 0.950 . S
H595 C619 0.951 . S
H596 C621 0.951 . S
H597 C623 0.950 . S
H598 C624 0.950 . S
H599 C626 0.950 . S
H600 C629 0.950 . S
H601 C630 0.950 . S
H602 C632 0.950 . S
H603 C633 0.950 . S
C604 H586 0.951 . S
C604 C605 1.366 . S
C604 C606 1.388 . S
C605 C604 1.366 . S
C605 C609 1.385 1_655 S
C606 H587 0.951 . S
C606 C604 1.388 . S
C606 C607 1.366 . S
C607 C606 1.366 . S
C607 C608 1.414 1_655 S
C607 C610 1.499 . S
C608 H588 0.950 . S
C608 C607 1.414 1_455 S
C608 C609 1.374 . S
C609 H589 0.950 . S
C609 C605 1.385 1_455 S
C609 C608 1.374 . S
C610 C607 1.499 . S
C610 C611 1.373 . S
C610 C612 1.389 . S
C611 H590 0.950 . S
C611 C610 1.373 . S
C611 C627 1.377 . S
C612 C610 1.389 . S
C612 C613 1.524 . S
C612 C626 1.377 . S
C613 C612 1.524 . S
C613 C614 1.397 . S
C613 C618 1.363 . S
C614 H591 0.950 . S
C614 C613 1.397 . S
C614 C615 1.334 . S
C615 H592 0.950 . S
C615 C614 1.334 . S
C615 C616 1.287 . S
C616 C615 1.287 . S
C616 C617 1.524 . S
C616 H635 0.913 . S
C617 H593 0.950 . S
C617 C616 1.524 . S
C617 C618 1.415 . S
C618 H594 0.950 . S
C618 C613 1.363 . S
C618 C617 1.415 . S
C619 H595 0.951 . S
C619 C620 1.366 . S
C619 C621 1.388 . S
C620 C619 1.366 . S
C620 C624 1.385 . S
C621 H596 0.951 . S
C621 C619 1.388 . S
C621 C622 1.366 . S
C622 C621 1.366 . S
C622 C623 1.414 . S
C622 C625 1.499 . S
C623 H597 0.950 . S
C623 C622 1.414 . S
C623 C624 1.374 . S
C624 H598 0.950 . S
C624 C620 1.385 . S
C624 C623 1.374 . S
C625 C622 1.499 . S
C625 C626 1.373 . S
C625 C627 1.389 . S
C626 H599 0.950 . S
C626 C612 1.377 . S
C626 C625 1.373 . S
C627 C611 1.377 . S
C627 C625 1.389 . S
C627 C628 1.524 . S
C628 C627 1.524 . S
C628 C629 1.397 . S
C628 C633 1.363 1_655 S
C629 H600 0.950 . S
C629 C628 1.397 . S
C629 C630 1.334 . S
C630 H601 0.950 . S
C630 C629 1.334 . S
C630 C631 1.287 . S
C631 C630 1.287 . S
C631 C632 1.524 1_655 S
C631 H634 0.999 . S
C632 H602 0.950 . S
C632 C631 1.524 1_455 S
C632 C633 1.415 . S
C633 H603 0.950 . S
C633 C628 1.363 1_455 S
C633 C632 1.415 . S
H634 C631 0.999 . S
H635 C616 0.913 . S
H636 C654 0.951 . S
H637 C656 0.951 . S
H638 C658 0.950 . S
H639 C659 0.950 . S
H640 C661 0.950 . S
H641 C664 0.950 . S
H642 C665 0.950 . S
H643 C667 0.950 . S
H644 C668 0.950 . S
H645 C669 0.951 . S
H646 C671 0.951 . S
H647 C673 0.950 . S
H648 C674 0.950 . S
H649 C676 0.950 1_556 S
H650 C679 0.950 . S
H651 C680 0.950 . S
H652 C682 0.950 . S
H653 C683 0.950 . S
C654 H636 0.951 . S
C654 C655 1.366 . S
C654 C656 1.388 1_455 S
C655 C654 1.366 . S
C655 C659 1.385 . S
C656 H637 0.951 . S
C656 C654 1.388 1_655 S
C656 C657 1.366 . S
C657 C656 1.366 . S
C657 C658 1.414 . S
C657 C660 1.499 1_556 S
C658 H638 0.950 . S
C658 C657 1.414 . S
C658 C659 1.374 1_655 S
C659 H639 0.950 . S
C659 C655 1.385 . S
C659 C658 1.374 1_455 S
C660 C657 1.499 1_554 S
C660 C661 1.373 . S
C660 C662 1.389 1_554 S
C661 H640 0.950 . S
C661 C660 1.373 . S
C661 C677 1.377 . S
C662 C660 1.389 1_556 S
C662 C663 1.524 . S
C662 C676 1.377 1_556 S
C663 C662 1.524 . S
C663 C664 1.397 . S
C663 C668 1.363 . S
C664 H641 0.950 . S
C664 C663 1.397 . S
C664 C665 1.334 . S
C665 H642 0.950 . S
C665 C664 1.334 . S
C665 C666 1.287 . S
C666 C665 1.287 . S
C666 C667 1.524 . S
C666 H685 0.913 . S
C667 H643 0.950 . S
C667 C666 1.524 . S
C667 C668 1.415 . S
C668 H644 0.950 . S
C668 C663 1.363 . S
C668 C667 1.415 . S
C669 H645 0.951 . S
C669 C670 1.366 . S
C669 C671 1.388 . S
C670 C669 1.366 . S
C670 C674 1.385 . S
C671 H646 0.951 . S
C671 C669 1.388 . S
C671 C672 1.366 . S
C672 C671 1.366 . S
C672 C673 1.414 . S
C672 C675 1.499 . S
C673 H647 0.950 . S
C673 C672 1.414 . S
C673 C674 1.374 . S
C674 H648 0.950 . S
C674 C670 1.385 . S
C674 C673 1.374 . S
C675 C672 1.499 . S
C675 C676 1.373 . S
C675 C677 1.389 . S
C676 H649 0.950 1_554 S
C676 C662 1.377 1_554 S
C676 C675 1.373 . S
C677 C661 1.377 . S
C677 C675 1.389 . S
C677 C678 1.524 . S
C678 C677 1.524 . S
C678 C679 1.397 . S
C678 C683 1.363 . S
C679 H650 0.950 . S
C679 C678 1.397 . S
C679 C680 1.334 . S
C680 H651 0.950 . S
C680 C679 1.334 . S
C680 C681 1.287 . S
C681 C680 1.287 . S
C681 C682 1.524 . S
C681 H684 0.999 . S
C682 H652 0.950 . S
C682 C681 1.524 . S
C682 C683 1.415 . S
C683 H653 0.950 . S
C683 C678 1.363 . S
C683 C682 1.415 . S
H684 C681 0.999 . S
H685 C666 0.913 . S
H686 C704 0.951 . S
H687 C706 0.951 . S
H688 C708 0.950 . S
H689 C709 0.950 . S
H690 C711 0.950 . S
H691 C714 0.950 . S
H692 C715 0.950 . S
H693 C717 0.950 . S
H694 C718 0.950 . S
H695 C719 0.951 . S
H696 C721 0.951 . S
H697 C723 0.950 . S
H698 C724 0.950 . S
H699 C726 0.950 . S
H700 C729 0.950 . S
H701 C730 0.950 . S
H702 C732 0.950 . S
H703 C733 0.950 . S
C704 H686 0.951 . S
C704 C705 1.366 . S
C704 C706 1.388 . S
C705 C704 1.366 . S
C705 C709 1.385 . S
C706 H687 0.951 . S
C706 C704 1.388 . S
C706 C707 1.366 . S
C707 C706 1.366 . S
C707 C708 1.414 . S
C707 C710 1.499 . S
C708 H688 0.950 . S
C708 C707 1.414 . S
C708 C709 1.374 . S
C709 H689 0.950 . S
C709 C705 1.385 . S
C709 C708 1.374 . S
C710 C707 1.499 . S
C710 C711 1.373 . S
C710 C712 1.389 . S
C711 H690 0.950 . S
C711 C710 1.373 . S
C711 C727 1.377 . S
C712 C710 1.389 . S
C712 C713 1.524 . S
C712 C726 1.377 . S
C713 C712 1.524 . S
C713 C714 1.397 . S
C713 C718 1.363 . S
C714 H691 0.950 . S
C714 C713 1.397 . S
C714 C715 1.334 . S
C715 H692 0.950 . S
C715 C714 1.334 . S
C715 C716 1.287 . S
C716 C715 1.287 . S
C716 C717 1.524 . S
C716 H735 0.913 . S
C717 H693 0.950 . S
C717 C716 1.524 . S
C717 C718 1.415 . S
C718 H694 0.950 . S
C718 C713 1.363 . S
C718 C717 1.415 . S
C719 H695 0.951 . S
C719 C720 1.366 . S
C719 C721 1.388 . S
C720 C719 1.366 . S
C720 C724 1.385 . S
C721 H696 0.951 . S
C721 C719 1.388 . S
C721 C722 1.366 . S
C722 C721 1.366 . S
C722 C723 1.414 . S
C722 C725 1.499 . S
C723 H697 0.950 . S
C723 C722 1.414 . S
C723 C724 1.374 . S
C724 H698 0.950 . S
C724 C720 1.385 . S
C724 C723 1.374 . S
C725 C722 1.499 . S
C725 C726 1.373 . S
C725 C727 1.389 . S
C726 H699 0.950 . S
C726 C712 1.377 . S
C726 C725 1.373 . S
C727 C711 1.377 . S
C727 C725 1.389 . S
C727 C728 1.524 . S
C728 C727 1.524 . S
C728 C729 1.397 . S
C728 C733 1.363 . S
C729 H700 0.950 . S
C729 C728 1.397 . S
C729 C730 1.334 . S
C730 H701 0.950 . S
C730 C729 1.334 . S
C730 C731 1.287 . S
C731 C730 1.287 . S
C731 C732 1.524 . S
C731 H734 0.999 . S
C732 H702 0.950 . S
C732 C731 1.524 . S
C732 C733 1.415 . S
C733 H703 0.950 . S
C733 C728 1.363 . S
C733 C732 1.415 . S
H734 C731 0.999 . S
H735 C716 0.913 . S
C155 C68 2.225 . S
C170 C0 2.239 . S
C205 C106 0.581 . S
C220 C38 0.580 . S
C255 C76 2.137 . S
C270 C8 2.148 . S
C305 C119 0.825 . S
C320 C51 0.825 . S
C355 C42 1.517 . S
C370 C13 1.526 . S
C405 C97 0.994 . S
C420 C63 0.996 . S
C455 C72 0.834 . S
C470 C115 0.824 1_556 S
C505 C17 1.897 . S
C520 C102 1.867 1_545 S
C555 C34 1.876 . S
C570 C29 1.907 . S
C605 C81 0.902 1_655 S
C620 C47 0.893 . S
C655 C85 0.986 . S
C670 C131 0.984 . S
C705 C110 1.425 . S
C720 C4 1.460 . S
