# Generated by pormake.
# Topology wir, (6)-cn, num edge types: 1
# Building blocks:
#     Node 0, Type 0, BuildingBlock: BETFAJ_clean_sbu_0, # of connection points: 6
#     Node 1, Type 0, BuildingBlock: BETFAJ_clean_sbu_0, # of connection points: 6
#     Node 2, Type 0, BuildingBlock: BETFAJ_clean_sbu_0, # of connection points: 6
#     Node 3, Type 0, BuildingBlock: BETFAJ_clean_sbu_0, # of connection points: 6
#     Node 4, Type 0, BuildingBlock: BETFAJ_clean_sbu_0, # of connection points: 6
#     Node 5, Type 0, BuildingBlock: BETFAJ_clean_sbu_0, # of connection points: 6
#     Node 6, Type 0, BuildingBlock: BETFAJ_clean_sbu_0, # of connection points: 6
#     Node 7, Type 0, BuildingBlock: BETFAJ_clean_sbu_0, # of connection points: 6
#     Node 8, Type 0, BuildingBlock: BETFAJ_clean_sbu_0, # of connection points: 6
#     Node 9, Type 0, BuildingBlock: BETFAJ_clean_sbu_0, # of connection points: 6
#     Node 10, Type 0, BuildingBlock: BETFAJ_clean_sbu_0, # of connection points: 6
#     Node 11, Type 0, BuildingBlock: BETFAJ_clean_sbu_0, # of connection points: 6
#     Node 12, Type 0, BuildingBlock: BETFAJ_clean_sbu_0, # of connection points: 6
#     Node 13, Type 0, BuildingBlock: BETFAJ_clean_sbu_0, # of connection points: 6
#     Node 14, Type 0, BuildingBlock: BETFAJ_clean_sbu_0, # of connection points: 6
#     Node 15, Type 0, BuildingBlock: BETFAJ_clean_sbu_0, # of connection points: 6
#     Node 16, Type 0, BuildingBlock: BETFAJ_clean_sbu_0, # of connection points: 6
#     Node 17, Type 0, BuildingBlock: BETFAJ_clean_sbu_0, # of connection points: 6
#     Node 18, Type 0, BuildingBlock: BETFAJ_clean_sbu_0, # of connection points: 6
#     Node 19, Type 0, BuildingBlock: BETFAJ_clean_sbu_0, # of connection points: 6
#     Node 20, Type 0, BuildingBlock: BETFAJ_clean_sbu_0, # of connection points: 6
#     Node 21, Type 0, BuildingBlock: BETFAJ_clean_sbu_0, # of connection points: 6
#     Node 22, Type 0, BuildingBlock: BETFAJ_clean_sbu_0, # of connection points: 6
#     Node 23, Type 0, BuildingBlock: BETFAJ_clean_sbu_0, # of connection points: 6
#     Node 24, Type 0, BuildingBlock: BETFAJ_clean_sbu_0, # of connection points: 6
#     Node 25, Type 0, BuildingBlock: BETFAJ_clean_sbu_0, # of connection points: 6
#     Node 26, Type 0, BuildingBlock: BETFAJ_clean_sbu_0, # of connection points: 6
#     Node 27, Type 0, BuildingBlock: BETFAJ_clean_sbu_0, # of connection points: 6
#     Node 28, Type 0, BuildingBlock: BETFAJ_clean_sbu_0, # of connection points: 6
#     Node 29, Type 0, BuildingBlock: BETFAJ_clean_sbu_0, # of connection points: 6
#     Node 30, Type 0, BuildingBlock: BETFAJ_clean_sbu_0, # of connection points: 6
#     Node 31, Type 0, BuildingBlock: BETFAJ_clean_sbu_0, # of connection points: 6
#     Edge 32, Type (0, 0), BuildingBlock: ZUJKAS_clean_linker_0, # of connection points: 2
#     Edge 33, Type (0, 0), BuildingBlock: ZUJKAS_clean_linker_0, # of connection points: 2
#     Edge 34, Type (0, 0), BuildingBlock: ZUJKAS_clean_linker_0, # of connection points: 2
#     Edge 35, Type (0, 0), BuildingBlock: ZUJKAS_clean_linker_0, # of connection points: 2
#     Edge 36, Type (0, 0), BuildingBlock: ZUJKAS_clean_linker_0, # of connection points: 2
#     Edge 37, Type (0, 0), BuildingBlock: ZUJKAS_clean_linker_0, # of connection points: 2
#     Edge 38, Type (0, 0), BuildingBlock: ZUJKAS_clean_linker_0, # of connection points: 2
#     Edge 39, Type (0, 0), BuildingBlock: ZUJKAS_clean_linker_0, # of connection points: 2
#     Edge 40, Type (0, 0), BuildingBlock: ZUJKAS_clean_linker_0, # of connection points: 2
#     Edge 41, Type (0, 0), BuildingBlock: ZUJKAS_clean_linker_0, # of connection points: 2
#     Edge 42, Type (0, 0), BuildingBlock: ZUJKAS_clean_linker_0, # of connection points: 2
#     Edge 43, Type (0, 0), BuildingBlock: ZUJKAS_clean_linker_0, # of connection points: 2
#     Edge 44, Type (0, 0), BuildingBlock: ZUJKAS_clean_linker_0, # of connection points: 2
#     Edge 45, Type (0, 0), BuildingBlock: ZUJKAS_clean_linker_0, # of connection points: 2
#     Edge 46, Type (0, 0), BuildingBlock: ZUJKAS_clean_linker_0, # of connection points: 2
#     Edge 47, Type (0, 0), BuildingBlock: ZUJKAS_clean_linker_0, # of connection points: 2
#     Edge 48, Type (0, 0), BuildingBlock: ZUJKAS_clean_linker_0, # of connection points: 2
#     Edge 49, Type (0, 0), BuildingBlock: ZUJKAS_clean_linker_0, # of connection points: 2
#     Edge 50, Type (0, 0), BuildingBlock: ZUJKAS_clean_linker_0, # of connection points: 2
#     Edge 51, Type (0, 0), BuildingBlock: ZUJKAS_clean_linker_0, # of connection points: 2
#     Edge 52, Type (0, 0), BuildingBlock: ZUJKAS_clean_linker_0, # of connection points: 2
#     Edge 53, Type (0, 0), BuildingBlock: ZUJKAS_clean_linker_0, # of connection points: 2
#     Edge 54, Type (0, 0), BuildingBlock: ZUJKAS_clean_linker_0, # of connection points: 2
#     Edge 55, Type (0, 0), BuildingBlock: ZUJKAS_clean_linker_0, # of connection points: 2
#     Edge 56, Type (0, 0), BuildingBlock: ZUJKAS_clean_linker_0, # of connection points: 2
#     Edge 57, Type (0, 0), BuildingBlock: ZUJKAS_clean_linker_0, # of connection points: 2
#     Edge 58, Type (0, 0), BuildingBlock: ZUJKAS_clean_linker_0, # of connection points: 2
#     Edge 59, Type (0, 0), BuildingBlock: ZUJKAS_clean_linker_0, # of connection points: 2
#     Edge 60, Type (0, 0), BuildingBlock: ZUJKAS_clean_linker_0, # of connection points: 2
#     Edge 61, Type (0, 0), BuildingBlock: ZUJKAS_clean_linker_0, # of connection points: 2
#     Edge 62, Type (0, 0), BuildingBlock: ZUJKAS_clean_linker_0, # of connection points: 2
#     Edge 63, Type (0, 0), BuildingBlock: ZUJKAS_clean_linker_0, # of connection points: 2
#     Edge 64, Type (0, 0), BuildingBlock: ZUJKAS_clean_linker_0, # of connection points: 2
#     Edge 65, Type (0, 0), BuildingBlock: ZUJKAS_clean_linker_0, # of connection points: 2
#     Edge 66, Type (0, 0), BuildingBlock: ZUJKAS_clean_linker_0, # of connection points: 2
#     Edge 67, Type (0, 0), BuildingBlock: ZUJKAS_clean_linker_0, # of connection points: 2
#     Edge 68, Type (0, 0), BuildingBlock: ZUJKAS_clean_linker_0, # of connection points: 2
#     Edge 69, Type (0, 0), BuildingBlock: ZUJKAS_clean_linker_0, # of connection points: 2
#     Edge 70, Type (0, 0), BuildingBlock: ZUJKAS_clean_linker_0, # of connection points: 2
#     Edge 71, Type (0, 0), BuildingBlock: ZUJKAS_clean_linker_0, # of connection points: 2
#     Edge 72, Type (0, 0), BuildingBlock: ZUJKAS_clean_linker_0, # of connection points: 2
#     Edge 73, Type (0, 0), BuildingBlock: ZUJKAS_clean_linker_0, # of connection points: 2
#     Edge 74, Type (0, 0), BuildingBlock: ZUJKAS_clean_linker_0, # of connection points: 2
#     Edge 75, Type (0, 0), BuildingBlock: ZUJKAS_clean_linker_0, # of connection points: 2
#     Edge 76, Type (0, 0), BuildingBlock: ZUJKAS_clean_linker_0, # of connection points: 2
#     Edge 77, Type (0, 0), BuildingBlock: ZUJKAS_clean_linker_0, # of connection points: 2
#     Edge 78, Type (0, 0), BuildingBlock: ZUJKAS_clean_linker_0, # of connection points: 2
#     Edge 79, Type (0, 0), BuildingBlock: ZUJKAS_clean_linker_0, # of connection points: 2
#     Edge 80, Type (0, 0), BuildingBlock: ZUJKAS_clean_linker_0, # of connection points: 2
#     Edge 81, Type (0, 0), BuildingBlock: ZUJKAS_clean_linker_0, # of connection points: 2
#     Edge 82, Type (0, 0), BuildingBlock: ZUJKAS_clean_linker_0, # of connection points: 2
#     Edge 83, Type (0, 0), BuildingBlock: ZUJKAS_clean_linker_0, # of connection points: 2
#     Edge 84, Type (0, 0), BuildingBlock: ZUJKAS_clean_linker_0, # of connection points: 2
#     Edge 85, Type (0, 0), BuildingBlock: ZUJKAS_clean_linker_0, # of connection points: 2
#     Edge 86, Type (0, 0), BuildingBlock: ZUJKAS_clean_linker_0, # of connection points: 2
#     Edge 87, Type (0, 0), BuildingBlock: ZUJKAS_clean_linker_0, # of connection points: 2
#     Edge 88, Type (0, 0), BuildingBlock: ZUJKAS_clean_linker_0, # of connection points: 2
#     Edge 89, Type (0, 0), BuildingBlock: ZUJKAS_clean_linker_0, # of connection points: 2
#     Edge 90, Type (0, 0), BuildingBlock: ZUJKAS_clean_linker_0, # of connection points: 2
#     Edge 91, Type (0, 0), BuildingBlock: ZUJKAS_clean_linker_0, # of connection points: 2
#     Edge 92, Type (0, 0), BuildingBlock: ZUJKAS_clean_linker_0, # of connection points: 2
#     Edge 93, Type (0, 0), BuildingBlock: ZUJKAS_clean_linker_0, # of connection points: 2
#     Edge 94, Type (0, 0), BuildingBlock: ZUJKAS_clean_linker_0, # of connection points: 2
#     Edge 95, Type (0, 0), BuildingBlock: ZUJKAS_clean_linker_0, # of connection points: 2
#     Edge 96, Type (0, 0), BuildingBlock: ZUJKAS_clean_linker_0, # of connection points: 2
#     Edge 97, Type (0, 0), BuildingBlock: ZUJKAS_clean_linker_0, # of connection points: 2
#     Edge 98, Type (0, 0), BuildingBlock: ZUJKAS_clean_linker_0, # of connection points: 2
#     Edge 99, Type (0, 0), BuildingBlock: ZUJKAS_clean_linker_0, # of connection points: 2
#     Edge 100, Type (0, 0), BuildingBlock: ZUJKAS_clean_linker_0, # of connection points: 2
#     Edge 101, Type (0, 0), BuildingBlock: ZUJKAS_clean_linker_0, # of connection points: 2
#     Edge 102, Type (0, 0), BuildingBlock: ZUJKAS_clean_linker_0, # of connection points: 2
#     Edge 103, Type (0, 0), BuildingBlock: ZUJKAS_clean_linker_0, # of connection points: 2
#     Edge 104, Type (0, 0), BuildingBlock: ZUJKAS_clean_linker_0, # of connection points: 2
#     Edge 105, Type (0, 0), BuildingBlock: ZUJKAS_clean_linker_0, # of connection points: 2
#     Edge 106, Type (0, 0), BuildingBlock: ZUJKAS_clean_linker_0, # of connection points: 2
#     Edge 107, Type (0, 0), BuildingBlock: ZUJKAS_clean_linker_0, # of connection points: 2
#     Edge 108, Type (0, 0), BuildingBlock: ZUJKAS_clean_linker_0, # of connection points: 2
#     Edge 109, Type (0, 0), BuildingBlock: ZUJKAS_clean_linker_0, # of connection points: 2
#     Edge 110, Type (0, 0), BuildingBlock: ZUJKAS_clean_linker_0, # of connection points: 2
#     Edge 111, Type (0, 0), BuildingBlock: ZUJKAS_clean_linker_0, # of connection points: 2
#     Edge 112, Type (0, 0), BuildingBlock: ZUJKAS_clean_linker_0, # of connection points: 2
#     Edge 113, Type (0, 0), BuildingBlock: ZUJKAS_clean_linker_0, # of connection points: 2
#     Edge 114, Type (0, 0), BuildingBlock: ZUJKAS_clean_linker_0, # of connection points: 2
#     Edge 115, Type (0, 0), BuildingBlock: ZUJKAS_clean_linker_0, # of connection points: 2
#     Edge 116, Type (0, 0), BuildingBlock: ZUJKAS_clean_linker_0, # of connection points: 2
#     Edge 117, Type (0, 0), BuildingBlock: ZUJKAS_clean_linker_0, # of connection points: 2
#     Edge 118, Type (0, 0), BuildingBlock: ZUJKAS_clean_linker_0, # of connection points: 2
#     Edge 119, Type (0, 0), BuildingBlock: ZUJKAS_clean_linker_0, # of connection points: 2
#     Edge 120, Type (0, 0), BuildingBlock: ZUJKAS_clean_linker_0, # of connection points: 2
#     Edge 121, Type (0, 0), BuildingBlock: ZUJKAS_clean_linker_0, # of connection points: 2
#     Edge 122, Type (0, 0), BuildingBlock: ZUJKAS_clean_linker_0, # of connection points: 2
#     Edge 123, Type (0, 0), BuildingBlock: ZUJKAS_clean_linker_0, # of connection points: 2
#     Edge 124, Type (0, 0), BuildingBlock: ZUJKAS_clean_linker_0, # of connection points: 2
#     Edge 125, Type (0, 0), BuildingBlock: ZUJKAS_clean_linker_0, # of connection points: 2
#     Edge 126, Type (0, 0), BuildingBlock: ZUJKAS_clean_linker_0, # of connection points: 2
#     Edge 127, Type (0, 0), BuildingBlock: ZUJKAS_clean_linker_0, # of connection points: 2
# Relax obj value: 0.369
# Max RMSD: 0.201
# Mean RMSD: 0.201
data_MOF--net-wir--node1-BETFAJ_clean_sbu_0--edge1-ZUJKAS_clean_linker_0
_symmetry_space_group_name_H-M    P1
_symmetry_Int_Tables_number       1
_symmetry_cell_setting            triclinic
loop_
_symmetry_equiv_pos_as_xyz
'x, y, z'
_cell_length_a     49.033419
_cell_length_b     49.079578
_cell_length_c     135.26603
_cell_angle_alpha  89.976015
_cell_angle_beta   90.013072
_cell_angle_gamma 90.0189
loop_
_atom_site_label
_atom_site_type_symbol
_atom_site_fract_x
_atom_site_fract_y
_atom_site_fract_z
_atom_type_partial_charge
Sm0 Sm 0.24211 0.23272 0.37862 0.0
Sm1 Sm 0.21997 0.19276 0.37264 0.0
C2 C 0.25548 0.28155 0.38547 0.0
C3 C 0.24066 0.30744 0.38578 0.0
C4 C 0.21207 0.30752 0.38577 0.0
C5 C 0.19783 0.33183 0.387 0.0
C6 C 0.21193 0.35663 0.38813 0.0
C7 C 0.2406 0.35661 0.38738 0.0
C8 C 0.25486 0.33214 0.38627 0.0
C9 C 0.27749 0.19001 0.38666 0.0
C10 C 0.20765 0.20725 0.39485 0.0
C11 C 0.2096 0.14299 0.36605 0.0
C12 C 0.19514 0.12868 0.35817 0.0
C13 C 0.18604 0.10216 0.36001 0.0
C14 C 0.16968 0.08876 0.35315 0.0
C15 C 0.16225 0.10164 0.34426 0.0
C16 C 0.1716 0.1283 0.3424 0.0
C17 C 0.18786 0.1418 0.34935 0.0
C18 C 0.17397 0.2271 0.3733 0.0
C19 C 0.24846 0.22959 0.35452 0.0
O20 O 0.26235 0.27301 0.37671 0.0
O21 O 0.24554 0.26218 0.39098 0.0
O22 O 0.25176 0.1888 0.38534 0.0
O23 O 0.28523 0.21258 0.38252 0.0
O24 O 0.2102 0.23131 0.39092 0.0
O25 O 0.2161 0.18668 0.38948 0.0
O26 O 0.23188 0.15633 0.36379 0.0
O27 O 0.19397 0.15612 0.37218 0.0
O28 O 0.19834 0.23515 0.37077 0.0
O29 O 0.17481 0.20146 0.37539 0.0
O30 O 0.23504 0.20686 0.3565 0.0
O31 O 0.25493 0.24415 0.36231 0.0
H32 H 0.20073 0.28862 0.38521 0.0
H33 H 0.17585 0.33082 0.38766 0.0
H34 H 0.25208 0.37538 0.38802 0.0
H35 H 0.27695 0.33242 0.38609 0.0
H36 H 0.19109 0.092 0.36689 0.0
H37 H 0.16249 0.06845 0.35489 0.0
H38 H 0.16652 0.13863 0.33557 0.0
H39 H 0.19442 0.16251 0.3479 0.0
Sm40 Sm 0.08806 0.99931 0.63586 0.0
Sm41 Sm 0.12702 0.97614 0.63046 0.0
C42 C 0.03977 1.01654 0.64198 0.0
C43 C 1.0126 1.00552 0.63992 0.0
C44 C 1.00809 0.98991 0.63137 0.0
C45 C 0.98459 0.97404 0.63049 0.0
C46 C 0.96544 0.97325 0.63821 0.0
C47 C 0.96918 0.99059 0.64642 0.0
C48 C 0.99258 1.00658 0.64725 0.0
C49 C 0.13255 1.03215 0.64418 0.0
C50 C 0.10973 0.96172 0.65238 0.0
C51 C 0.17713 0.96782 0.62386 0.0
C52 C 0.19093 0.95556 0.61541 0.0
C53 C 0.17599 0.9442 0.6076 0.0
C54 C 0.1894 0.92952 0.6002 0.0
C55 C 0.21782 0.92588 0.60062 0.0
C56 C 0.23264 0.93775 0.60841 0.0
C57 C 0.21926 0.95246 0.61575 0.0
C58 C 0.09269 0.93055 0.63068 0.0
C59 C 0.09023 1.00257 0.61179 0.0
O60 O 0.05259 1.02726 0.63448 0.0
O61 O 0.05532 1.00055 0.6472 0.0
O62 O 0.13064 1.00639 0.64364 0.0
O63 O 0.11226 0.0412 0.63895 0.0
O64 O 0.08634 0.96927 0.64874 0.0
O65 O 0.13159 0.9666 0.64707 0.0
O66 O 0.16392 0.99066 0.6224 0.0
O67 O 0.16382 0.95061 0.62937 0.0
O68 O 0.08451 0.95505 0.62826 0.0
O69 O 0.1184 0.93112 0.63274 0.0
O70 O 0.11305 0.9895 0.61401 0.0
O71 O 0.07559 1.00955 0.61947 0.0
H72 H 1.02349 0.98864 0.62565 0.0
H73 H 0.98221 0.9612 0.62403 0.0
H74 H 0.95521 0.99024 0.65261 0.0
H75 H 0.99591 1.01825 0.65394 0.0
H76 H 0.15399 0.94613 0.60735 0.0
H77 H 0.17751 0.92056 0.59429 0.0
H78 H 0.25462 0.93578 0.6088 0.0
H79 H 0.23097 0.96093 0.62181 0.0
Sm80 Sm 0.31815 0.83692 0.87958 0.0
Sm81 Sm 0.34138 0.87525 0.87359 0.0
C82 C 0.30212 0.78922 0.88672 0.0
C83 C 0.31501 0.76236 0.88645 0.0
C84 C 0.33472 0.75641 0.87923 0.0
C85 C 0.35117 0.73334 0.88017 0.0
C86 C 0.34842 0.71613 0.88842 0.0
C87 C 0.32735 0.72134 0.89526 0.0
C88 C 0.3108 0.74426 0.89426 0.0
C89 C 0.285 0.88136 0.88761 0.0
C90 C 0.35574 0.86092 0.89563 0.0
C91 C 0.35046 0.92383 0.86577 0.0
C92 C 0.36286 0.93429 0.85672 0.0
C93 C 0.36466 0.96244 0.85528 0.0
C94 C 0.37895 0.97279 0.84719 0.0
C95 C 0.39168 0.95508 0.84044 0.0
C96 C 0.3895 0.92679 0.84186 0.0
C97 C 0.37516 0.91646 0.84996 0.0
C98 C 0.38671 0.84045 0.87413 0.0
C99 C 0.31343 0.83782 0.8555 0.0
O100 O 0.29369 0.79891 0.8783 0.0
O101 O 0.31521 0.80726 0.89193 0.0
O102 O 0.31084 0.88041 0.88671 0.0
O103 O 0.27605 0.86024 0.88283 0.0
O104 O 0.34942 0.83702 0.89212 0.0
O105 O 0.34996 0.88213 0.89013 0.0
O106 O 0.32715 0.91103 0.86487 0.0
O107 O 0.3674 0.91154 0.87171 0.0
O108 O 0.36207 0.83242 0.87185 0.0
O109 O 0.38643 0.86625 0.876 0.0
O110 O 0.32791 0.85991 0.85741 0.0
O111 O 0.30554 0.82438 0.86336 0.0
H112 H 0.3384 0.77038 0.87317 0.0
H113 H 0.36695 0.72979 0.87472 0.0
H114 H 0.32487 0.70894 0.90182 0.0
H115 H 0.2959 0.74876 0.89995 0.0
H116 H 0.35557 0.97641 0.86053 0.0
H117 H 0.38056 0.99468 0.84636 0.0
H118 H 0.39882 0.91269 0.83672 0.0
H119 H 0.37411 0.89461 0.85106 0.0
Sm120 Sm 0.48638 0.06985 0.13512 0.0
Sm121 Sm 0.44731 0.09015 0.12931 0.0
C122 C 0.53626 0.05052 0.13808 0.0
C123 C 0.56337 0.0598 0.13502 0.0
C124 C 0.56709 0.08687 0.13201 0.0
C125 C 0.59328 0.0977 0.13127 0.0
C126 C 0.61623 0.08151 0.13344 0.0
C127 C 0.61235 0.05349 0.13525 0.0
C128 C 0.58603 0.04278 0.13616 0.0
C129 C 0.44588 0.03986 0.14646 0.0
C130 C 0.46232 0.1057 0.15107 0.0
C131 C 0.39827 0.0997 0.12171 0.0
C132 C 0.38591 0.11737 0.11421 0.0
C133 C 0.40119 0.12735 0.10622 0.0
C134 C 0.38871 0.14354 0.09902 0.0
C135 C 0.36087 0.15014 0.09976 0.0
C136 C 0.34595 0.14075 0.10796 0.0
C137 C 0.35839 0.12448 0.11512 0.0
C138 C 0.47993 0.13773 0.13022 0.0
C139 C 0.48368 0.06446 0.11104 0.0
O140 O 0.52025 0.04157 0.13111 0.0
O141 O 0.52373 0.06668 0.14422 0.0
O142 O 0.44346 0.04724 0.13724 0.0
O143 O 0.46965 0.04797 0.14927 0.0
O144 O 0.48618 0.10285 0.14695 0.0
O145 O 0.44126 0.09705 0.146 0.0
O146 O 0.41442 0.08043 0.11856 0.0
O147 O 0.4076 0.11191 0.12954 0.0
O148 O 0.48899 0.11379 0.12771 0.0
O149 O 0.45436 0.13574 0.13241 0.0
O150 O 0.46467 0.0827 0.11296 0.0
O151 O 0.49389 0.05282 0.11895 0.0
H152 H 0.5497 0.10021 0.13097 0.0
H153 H 0.59523 0.11935 0.1299 0.0
H154 H 0.62957 0.04027 0.13671 0.0
H155 H 0.58343 1.02168 0.13832 0.0
H156 H 0.42261 0.12233 0.10549 0.0
H157 H 0.40073 0.15063 0.09281 0.0
H158 H 0.32438 0.14513 0.10867 0.0
H159 H 0.34639 0.11705 0.12128 0.0
Sm160 Sm 0.2491 0.83165 0.23386 0.0
Sm161 Sm 0.2294 0.87057 0.24 0.0
C162 C 0.26359 0.78056 0.23013 0.0
C163 C 0.24795 0.75518 0.23076 0.0
C164 C 0.22437 0.75393 0.23664 0.0
C165 C 0.20535 0.7331 0.23522 0.0
C166 C 0.20947 0.71344 0.2278 0.0
C167 C 0.23427 0.7136 0.22253 0.0
C168 C 0.25332 0.73432 0.22401 0.0
C169 C 0.28096 0.87184 0.22316 0.0
C170 C 0.21562 0.8601 0.21793 0.0
C171 C 0.21817 0.91832 0.24821 0.0
C172 C 0.19724 0.92825 0.25503 0.0
C173 C 0.18558 0.91091 0.26212 0.0
C174 C 0.16528 0.92062 0.26844 0.0
C175 C 0.15614 0.94768 0.26766 0.0
C176 C 0.16733 0.96468 0.26034 0.0
C177 C 0.18776 0.95502 0.25408 0.0
C178 C 0.18138 0.83846 0.23832 0.0
C179 C 0.25665 0.8339 0.25788 0.0
O180 O 0.2692 0.79285 0.23842 0.0
O181 O 0.25476 0.79732 0.22342 0.0
O182 O 0.27273 0.87426 0.2323 0.0
O183 O 0.27337 0.84804 0.22023 0.0
O184 O 0.2169 0.83559 0.22165 0.0
O185 O 0.22469 0.87987 0.2235 0.0
O186 O 0.23625 0.90145 0.25178 0.0
O187 O 0.20921 0.91098 0.23957 0.0
O188 O 0.20501 0.82921 0.241 0.0
O189 O 0.18384 0.86405 0.2363 0.0
O190 O 0.23761 0.85223 0.25612 0.0
O191 O 0.2685 0.8246 0.24982 0.0
H192 H 0.21975 0.77007 0.24184 0.0
H193 H 0.18668 0.73335 0.2395 0.0
H194 H 0.23807 0.6991 0.21666 0.0
H195 H 0.27123 0.7352 0.21932 0.0
H196 H 0.19227 0.88996 0.26281 0.0
H197 H 0.15693 0.90711 0.27401 0.0
H198 H 0.16098 0.98574 0.25968 0.0
H199 H 0.19632 0.96852 0.24855 0.0
Sm200 Sm 0.47896 1.00039 0.47712 0.0
Sm201 Sm 0.44009 0.97848 0.48308 0.0
C202 C 0.52794 1.01465 0.47069 0.0
C203 C 0.55455 1.00176 0.47222 0.0
C204 C 0.556 0.97369 0.47405 0.0
C205 C 0.58119 0.96097 0.47514 0.0
C206 C 0.6055 0.97615 0.47455 0.0
C207 C 0.60382 1.00462 0.47333 0.0
C208 C 0.57849 1.01731 0.47214 0.0
C209 C 0.43603 0.03499 0.46871 0.0
C210 C 0.45405 0.96491 0.46092 0.0
C211 C 0.39183 0.97045 0.49122 0.0
C212 C 0.38291 0.95882 0.50063 0.0
C213 C 0.35766 0.96623 0.5046 0.0
C214 C 0.34896 0.95486 0.51352 0.0
C215 C 0.36538 0.93582 0.51851 0.0
C216 C 0.39073 0.92851 0.51451 0.0
C217 C 0.39954 0.94009 0.50566 0.0
C218 C 0.47345 0.93213 0.4824 0.0
C219 C 0.47785 1.0054 0.50125 0.0
O220 O 0.51686 1.02498 0.47859 0.0
O221 O 0.51058 1.00081 0.46538 0.0
O222 O 0.43512 1.00932 0.47013 0.0
O223 O 0.45837 0.04307 0.47292 0.0
O224 O 0.47813 0.96896 0.46468 0.0
O225 O 0.43314 0.97227 0.46635 0.0
O226 O 0.40469 0.9938 0.49173 0.0
O227 O 0.40327 0.95324 0.48515 0.0
O228 O 0.48213 0.95639 0.48485 0.0
O229 O 0.44774 0.9333 0.48034 0.0
O230 O 0.45563 0.9912 0.49932 0.0
O231 O 0.49133 1.01316 0.49337 0.0
H232 H 0.53764 0.96142 0.47434 0.0
H233 H 0.58151 0.93901 0.47589 0.0
H234 H 0.62209 1.01697 0.47299 0.0
H235 H 0.57762 0.03913 0.47096 0.0
H236 H 0.34466 0.98069 0.5008 0.0
H237 H 0.32923 0.96067 0.51645 0.0
H238 H 0.40384 0.91411 0.5183 0.0
H239 H 0.41928 0.93436 0.50272 0.0
Sm240 Sm 0.3238 0.23771 0.73372 0.0
Sm241 Sm 0.34327 0.19817 0.73962 0.0
C242 C 0.30771 0.28852 0.73033 0.0
C243 C 0.32191 0.31459 0.73137 0.0
C244 C 0.34561 0.31633 0.73716 0.0
C245 C 0.36358 0.33817 0.73593 0.0
C246 C 0.35829 0.35829 0.72877 0.0
C247 C 0.33313 0.35769 0.72372 0.0
C248 C 0.31513 0.33599 0.72501 0.0
C249 C 0.29226 0.19761 0.72285 0.0
C250 C 0.35859 0.21163 0.71776 0.0
C251 C 0.35372 0.14907 0.74693 0.0
C252 C 0.37542 0.13635 0.75275 0.0
C253 C 0.39094 0.15152 0.75951 0.0
C254 C 0.41123 0.13876 0.7651 0.0
C255 C 0.41643 0.11078 0.7639 0.0
C256 C 0.40156 0.09602 0.75681 0.0
C257 C 0.38119 0.10873 0.75129 0.0
C258 C 0.39153 0.23 0.73846 0.0
C259 C 0.31647 0.23438 0.75772 0.0
O260 O 0.30196 0.27539 0.73843 0.0
O261 O 0.31802 0.27271 0.72359 0.0
O262 O 0.29986 0.19537 0.73206 0.0
O263 O 0.30059 0.22112 0.71988 0.0
O264 O 0.35664 0.23576 0.72174 0.0
O265 O 0.34941 0.1912 0.723 0.0
O266 O 0.3383 0.16689 0.75139 0.0
O267 O 0.36069 0.15669 0.73809 0.0
O268 O 0.36783 0.23943 0.74099 0.0
O269 O 0.38905 0.20445 0.7364 0.0
O270 O 0.33462 0.21522 0.75589 0.0
O271 O 0.30531 0.24487 0.74974 0.0
H272 H 0.35125 0.29983 0.74208 0.0
H273 H 0.38252 0.33821 0.74005 0.0
H274 H 0.32837 0.37253 0.71805 0.0
H275 H 0.29705 0.33478 0.72042 0.0
H276 H 0.38708 0.17306 0.76057 0.0
H277 H 0.42244 0.15059 0.7705 0.0
H278 H 0.40478 0.07435 0.75585 0.0
H279 H 0.36959 0.09686 0.74601 0.0
Sm280 Sm 0.08233 0.07007 0.97878 0.0
Sm281 Sm 0.12163 0.09012 0.98496 0.0
C282 C 1.03132 0.05438 0.9757 0.0
C283 C 1.0056 0.06576 0.97931 0.0
C284 C 1.00586 0.0847 0.98709 0.0
C285 C 0.98389 0.10245 0.98841 0.0
C286 C 0.96162 0.10174 0.98185 0.0
C287 C 0.96023 0.0805 0.97485 0.0
C288 C 0.98212 0.06271 0.97358 0.0
C289 C 0.12211 0.03927 0.96762 0.0
C290 C 0.11182 0.10293 0.96271 0.0
C291 C 0.16935 0.09823 0.99373 0.0
C292 C 0.18017 0.11237 1.00243 0.0
C293 C 0.20289 0.10146 1.00727 0.0
C294 C 0.21336 0.11416 1.01567 0.0
C295 C 0.20128 0.13806 1.01936 0.0
C296 C 0.17863 0.14916 1.01444 0.0
C297 C 0.16801 0.13629 1.00605 0.0
C298 C 0.08883 0.13744 0.98329 0.0
C299 C 0.08445 0.06433 1.00287 0.0
O300 O 0.04715 0.04288 0.98223 0.0
O301 O 0.04458 0.07066 0.96982 0.0
O302 O 0.12513 0.04738 0.97675 0.0
O303 O 0.09794 0.04641 0.96492 0.0
O304 O 0.08703 0.1009 0.96618 0.0
O305 O 0.13164 0.09531 0.96856 0.0
O306 O 0.154 0.07704 0.99546 0.0
O307 O 0.1601 0.11345 0.98659 0.0
O308 O 0.08004 0.11376 0.98616 0.0
O309 O 0.11442 0.13538 0.98107 0.0
O310 O 0.10252 0.08351 1.00102 0.0
O311 O 0.07549 0.05183 0.9949 0.0
H312 H 1.02398 0.0874 0.99158 0.0
H313 H 0.98543 0.11822 0.99398 0.0
H314 H 0.94363 0.07931 0.96959 0.0
H315 H 0.98171 0.04834 0.9675 0.0
H316 H 0.21251 0.08304 1.00457 0.0
H317 H 0.23106 0.10537 1.01925 0.0
H318 H 0.16886 0.16746 1.01717 0.0
H319 H 0.15028 0.1449 1.00243 0.0
Sm320 Sm 0.83908 0.87411 0.73328 0.0
Sm321 Sm 0.81849 0.83541 0.72778 0.0
C322 C 0.84846 0.92361 0.74043 0.0
C323 C 0.86697 0.9365 0.74749 0.0
C324 C 0.88233 0.92084 0.75414 0.0
C325 C 0.89928 0.93364 0.76103 0.0
C326 C 0.90117 0.96223 0.7613 0.0
C327 C 0.88635 0.97768 0.75438 0.0
C328 C 0.86938 0.96488 0.74754 0.0
C329 C 0.88692 0.84202 0.73265 0.0
C330 C 0.81357 0.83851 0.7518 0.0
C331 C 0.79882 0.78551 0.72525 0.0
C332 C 0.80979 0.75895 0.72817 0.0
C333 C 0.83709 0.75702 0.73114 0.0
C334 C 0.84947 0.73162 0.73208 0.0
C335 C 0.83465 0.70761 0.73015 0.0
C336 C 0.80645 0.70971 0.72823 0.0
C337 C 0.79417 0.73527 0.72713 0.0
C338 C 0.78877 0.87602 0.71633 0.0
C339 C 0.85517 0.85709 0.71176 0.0
O340 O 0.83018 0.90707 0.74407 0.0
O341 O 0.85973 0.91427 0.73242 0.0
O342 O 0.86291 0.83258 0.73496 0.0
O343 O 0.88484 0.86757 0.73047 0.0
O344 O 0.83243 0.85682 0.74973 0.0
O345 O 0.80112 0.82888 0.74396 0.0
O346 O 0.79115 0.80141 0.73243 0.0
O347 O 0.81323 0.79834 0.71863 0.0
O348 O 0.79594 0.87816 0.72558 0.0
O349 O 0.79698 0.85232 0.7135 0.0
O350 O 0.85207 0.83373 0.71618 0.0
O351 O 0.84638 0.87863 0.71651 0.0
H352 H 0.88088 0.8988 0.7541 0.0
H353 H 0.91057 0.92124 0.76624 0.0
H354 H 0.88698 0.99974 0.75451 0.0
H355 H 0.85773 0.97719 0.7424 0.0
H356 H 0.84936 0.77521 0.73207 0.0
H357 H 0.8712 0.73112 0.73347 0.0
H358 H 0.79424 0.69167 0.72695 0.0
H359 H 0.77292 0.73649 0.72499 0.0
Sm360 Sm 0.94676 0.0959 0.4901 0.0
Sm361 Sm 0.98482 0.07304 0.48425 0.0
C362 C 0.89864 0.10531 0.4982 0.0
C363 C 0.89048 0.11962 0.50721 0.0
C364 C 0.8638 0.11732 0.51075 0.0
C365 C 0.85545 0.13284 0.51885 0.0
C366 C 0.87362 0.15111 0.52347 0.0
C367 C 0.90056 0.15287 0.51998 0.0
C368 C 0.90894 0.13716 0.51194 0.0
C369 C 0.98101 0.14166 0.49007 0.0
C370 C 0.98386 0.06755 0.50827 0.0
C371 C 1.03267 0.05715 0.47719 0.0
C372 C 0.05915 0.0709 0.47709 0.0
C373 C 0.06039 0.09915 0.47855 0.0
C374 C 0.08509 0.11289 0.47758 0.0
C375 C 0.10908 0.09858 0.47523 0.0
C376 C 0.108 0.06995 0.4745 0.0
C377 C 0.08313 0.05622 0.47537 0.0
C378 C 0.94053 0.03997 0.47589 0.0
C379 C 0.96275 0.1122 0.46852 0.0
O380 O 0.91169 0.08225 0.49936 0.0
O381 O 0.90962 0.12093 0.4915 0.0
O382 O 0.98946 0.11696 0.49204 0.0
O383 O 0.95519 0.1412 0.4882 0.0
O384 O 0.96197 0.08231 0.50632 0.0
O385 O 0.99715 0.05951 0.5004 0.0
O386 O 1.02374 0.05015 0.48588 0.0
O387 O 1.01384 0.0685 0.47178 0.0
O388 O 0.94136 0.0658 0.47689 0.0
O389 O 0.96177 1.03106 0.48062 0.0
O390 O 0.98622 0.10627 0.47247 0.0
O391 O 0.94096 0.10503 0.4735 0.0
H392 H 0.84936 0.10382 0.50717 0.0
H393 H 0.83474 0.13047 0.5215 0.0
H394 H 0.91501 0.16681 0.5233 0.0
H395 H 0.92967 0.13919 0.50926 0.0
H396 H 0.04204 0.11073 0.48004 0.0
H397 H 0.08492 0.13492 0.47806 0.0
H398 H 0.12618 0.05827 0.47286 0.0
H399 H 0.0825 0.03431 0.47442 0.0
Sm400 Sm 0.72312 0.19036 0.2344 0.0
Sm401 Sm 0.74227 0.23001 0.22796 0.0
C402 C 0.71463 0.14258 0.24308 0.0
C403 C 0.69782 0.13188 0.25114 0.0
C404 C 0.7053 0.10742 0.25568 0.0
C405 C 0.68969 0.09693 0.26341 0.0
C406 C 0.6662 0.11071 0.26671 0.0
C407 C 0.65873 0.13528 0.26209 0.0
C408 C 0.67448 0.14583 0.25437 0.0
C409 C 0.67508 0.22223 0.23277 0.0
C410 C 0.74841 0.22895 0.25211 0.0
C411 C 0.75835 0.28058 0.22428 0.0
C412 C 0.74915 0.30747 0.22763 0.0
C413 C 0.72183 0.31138 0.23033 0.0
C414 C 0.71146 0.33764 0.23139 0.0
C415 C 0.72835 0.36052 0.22991 0.0
C416 C 0.7565 0.35625 0.22846 0.0
C417 C 0.76676 0.32989 0.22719 0.0
C418 C 0.77378 0.18992 0.21719 0.0
C419 C 0.70968 0.19945 0.21211 0.0
O420 O 0.73434 0.15903 0.2456 0.0
O421 O 0.70155 0.15077 0.23525 0.0
O422 O 0.69866 0.23163 0.23549 0.0
O423 O 0.67767 0.1967 0.23064 0.0
O424 O 0.73069 0.20927 0.25047 0.0
O425 O 0.75944 0.23906 0.24405 0.0
O426 O 0.77018 0.2651 0.23084 0.0
O427 O 0.74094 0.26731 0.21882 0.0
O428 O 0.76612 0.18773 0.2264 0.0
O429 O 0.76567 0.21348 0.21418 0.0
O430 O 0.71118 0.22437 0.21548 0.0
O431 O 0.71802 0.18004 0.21801 0.0
H432 H 0.72336 0.09652 0.2533 0.0
H433 H 0.69643 0.07832 0.26695 0.0
H434 H 0.64073 0.14631 0.26443 0.0
H435 H 0.66848 0.16485 0.25093 0.0
H436 H 0.70801 0.29421 0.23089 0.0
H437 H 0.6897 0.33977 0.23248 0.0
H438 H 0.7703 0.3733 0.22759 0.0
H439 H 0.78806 0.32714 0.22531 0.0
Sm440 Sm 0.6278 0.97173 0.98965 0.0
Sm441 Sm 0.58908 0.99436 0.98381 0.0
C442 C 0.67585 0.96265 0.99784 0.0
C443 C 0.6837 0.94844 1.00692 0.0
C444 C 0.70912 0.95329 1.01126 0.0
C445 C 0.71711 0.93846 1.01959 0.0
C446 C 0.69988 0.91834 1.02363 0.0
C447 C 0.67419 0.91392 1.01931 0.0
C448 C 0.66611 0.92897 1.01108 0.0
C449 C 0.59367 0.92598 0.98954 0.0
C450 C 0.59025 0.99955 1.0078 0.0
C451 C 0.54086 1.00944 0.97682 0.0
C452 C 0.5148 0.99503 0.97741 0.0
C453 C 0.51383 0.96954 0.9821 0.0
C454 C 0.49049 0.95347 0.98143 0.0
C455 C 0.46775 0.9628 0.97613 0.0
C456 C 0.46805 0.98919 0.97207 0.0
C457 C 0.49159 1.00521 0.97267 0.0
C458 C 0.63342 1.02773 0.97572 0.0
C459 C 0.61244 0.9558 0.96794 0.0
O460 O 0.66275 0.98571 0.99891 0.0
O461 O 0.66514 0.947 0.99109 0.0
O462 O 0.58526 0.95055 0.99169 0.0
O463 O 0.6194 0.92655 0.98754 0.0
O464 O 0.61241 0.9852 1.00585 0.0
O465 O 0.57665 1.00727 0.99996 0.0
O466 O 0.55056 1.01795 0.98523 0.0
O467 O 0.5593 0.99732 0.97148 0.0
O468 O 0.63221 1.00193 0.97645 0.0
O469 O 0.6124 0.03656 0.9806 0.0
O470 O 0.58877 0.96176 0.97174 0.0
O471 O 0.63404 0.96269 0.97308 0.0
H472 H 0.72284 0.96835 1.00816 0.0
H473 H 0.73676 0.94287 1.02287 0.0
H474 H 0.6605 0.89849 1.02216 0.0
H475 H 0.6463 0.92502 1.00782 0.0
H476 H 0.53164 0.96148 0.98583 0.0
H477 H 0.49071 0.93315 0.98457 0.0
H478 H 0.45086 0.99661 0.96782 0.0
H479 H 0.4921 1.02487 0.96902 0.0
Sm480 Sm 0.84726 0.19126 0.88019 0.0
Sm481 Sm 0.82407 0.22961 0.88564 0.0
C482 C 0.85358 0.142 0.87264 0.0
C483 C 0.86346 0.13113 0.86323 0.0
C484 C 0.85719 0.10434 0.86053 0.0
C485 C 0.86754 0.09348 0.85176 0.0
C486 C 0.88444 0.10929 0.84561 0.0
C487 C 0.89049 0.13624 0.84832 0.0
C488 C 0.87995 0.14714 0.85704 0.0
C489 C 0.89276 0.22542 0.87985 0.0
C490 C 0.82042 0.22799 0.86165 0.0
C491 C 0.8062 0.27752 0.89193 0.0
C492 C 0.81728 0.30487 0.89029 0.0
C493 C 0.84493 0.30798 0.88793 0.0
C494 C 0.85613 0.33388 0.88685 0.0
C495 C 0.8398 0.35726 0.88799 0.0
C496 C 0.81164 0.35392 0.88971 0.0
C497 C 0.80049 0.32787 0.8909 0.0
C498 C 0.79214 0.1849 0.89422 0.0
C499 C 0.86415 0.20916 0.90166 0.0
O500 O 0.8303 0.15509 0.87239 0.0
O501 O 0.872 0.15417 0.87803 0.0
O502 O 0.86802 0.23382 0.87782 0.0
O503 O 0.89249 0.19968 0.88189 0.0
O504 O 0.83492 0.20606 0.86378 0.0
O505 O 0.81212 0.24162 0.86938 0.0
O506 O 0.79674 0.26553 0.88406 0.0
O507 O 0.82124 0.26136 0.89729 0.0
O508 O 0.8179 0.18741 0.89367 0.0
O509 O 0.78266 0.20465 0.88884 0.0
O510 O 0.85624 0.2322 0.89782 0.0
O511 O 0.85878 0.1869 0.89665 0.0
H512 H 0.84454 0.09174 0.86525 0.0
H513 H 0.86272 0.07258 0.84987 0.0
H514 H 0.90317 0.14893 0.84364 0.0
H515 H 0.88487 0.16797 0.85902 0.0
H516 H 0.85811 0.29036 0.88724 0.0
H517 H 0.87792 0.33544 0.8857 0.0
H518 H 0.79839 0.37144 0.89048 0.0
H519 H 0.77895 0.32572 0.89249 0.0
Sm520 Sm 0.61942 0.09478 0.62318 0.0
Sm521 Sm 0.58055 0.07505 0.62882 0.0
C522 C 0.66859 0.10455 0.61579 0.0
C523 C 0.68231 0.12555 0.60976 0.0
C524 C 0.68936 0.11974 0.59995 0.0
C525 C 0.70405 0.13858 0.59437 0.0
C526 C 0.71218 0.16358 0.59851 0.0
C527 C 0.70466 0.16968 0.60827 0.0
C528 C 0.6898 0.15086 0.61385 0.0
C529 C 0.58828 0.14336 0.62404 0.0
C530 C 0.58404 0.06786 0.60494 0.0
C531 C 0.52973 0.05811 0.63182 0.0
C532 C 0.50396 0.07314 0.6317 0.0
C533 C 0.50447 0.10168 0.63138 0.0
C534 C 0.48061 0.11652 0.63284 0.0
C535 C 0.45569 0.10308 0.63455 0.0
C536 C 0.45499 0.07439 0.63403 0.0
C537 C 0.47904 0.05952 0.63269 0.0
C538 C 0.62095 0.0442 0.63993 0.0
C539 C 0.60393 0.11142 0.6447 0.0
O540 O 0.65064 0.0891 0.61139 0.0
O541 O 0.66115 0.11149 0.62467 0.0
O542 O 0.57826 0.1196 0.62185 0.0
O543 O 0.61393 0.14075 0.626 0.0
O544 O 0.60175 0.08735 0.60688 0.0
O545 O 0.57499 0.05539 0.61289 0.0
O546 O 0.54214 0.05589 0.62336 0.0
O547 O 0.54632 0.06498 0.63889 0.0
O548 O 0.62283 0.05134 0.63067 0.0
O549 O 0.59757 0.05293 0.64292 0.0
O550 O 0.58031 0.10896 0.64037 0.0
O551 O 0.625 0.1019 0.63988 0.0
H552 H 0.68411 0.10031 0.59665 0.0
H553 H 0.71005 0.13302 0.58693 0.0
H554 H 0.71065 0.18879 0.61163 0.0
H555 H 0.68471 0.15597 0.62141 0.0
H556 H 0.52361 0.11249 0.63057 0.0
H557 H 0.4822 0.13848 0.63331 0.0
H558 H 0.43609 0.06339 0.63514 0.0
H559 H 0.47834 0.03746 0.63283 0.0
Sm560 Sm 0.72875 0.87614 0.37891 0.0
Sm561 Sm 0.74809 0.83695 0.38489 0.0
C562 C 0.7197 0.92476 0.37092 0.0
C563 C 0.70096 0.9374 0.3637 0.0
C564 C 0.70679 0.93683 0.35354 0.0
C565 C 0.68978 0.95016 0.34682 0.0
C566 C 0.6666 0.96441 0.35011 0.0
C567 C 0.6605 0.96454 0.36026 0.0
C568 C 0.67755 0.95125 0.36698 0.0
C569 C 0.68034 0.84461 0.38 0.0
C570 C 0.75415 0.83921 0.3608 0.0
C571 C 0.76491 0.78623 0.38795 0.0
C572 C 0.75218 0.76032 0.38518 0.0
C573 C 0.72494 0.76023 0.38205 0.0
C574 C 0.71061 0.73581 0.38134 0.0
C575 C 0.72337 0.7109 0.38363 0.0
C576 C 0.75158 0.71099 0.38572 0.0
C577 C 0.7658 0.7356 0.38661 0.0
C578 C 0.77862 0.87727 0.39614 0.0
C579 C 0.71277 0.86286 0.40075 0.0
O580 O 0.73805 0.90779 0.36761 0.0
O581 O 0.70903 0.91676 0.37924 0.0
O582 O 0.70407 0.83497 0.37753 0.0
O583 O 0.68295 0.87017 0.3821 0.0
O584 O 0.73557 0.85792 0.36267 0.0
O585 O 0.76609 0.82961 0.36878 0.0
O586 O 0.77382 0.80125 0.3807 0.0
O587 O 0.75116 0.80031 0.3944 0.0
O588 O 0.77197 0.87908 0.38682 0.0
O589 O 0.76958 0.854 0.39911 0.0
O590 O 0.71524 0.83871 0.39683 0.0
O591 O 0.72157 0.88344 0.39549 0.0
H592 H 0.72479 0.92656 0.35077 0.0
H593 H 0.6954 0.95012 0.33908 0.0
H594 H 0.64273 0.9752 0.36302 0.0
H595 H 0.67259 0.95221 0.37478 0.0
H596 H 0.71419 0.77922 0.38083 0.0
H597 H 0.68897 0.7369 0.3798 0.0
H598 H 0.76229 0.69218 0.38727 0.0
H599 H 0.78698 0.73536 0.3889 0.0
Sm600 Sm 0.9435 0.97335 0.12467 0.0
Sm601 Sm 0.98231 0.99387 0.12999 0.0
C602 C 0.89414 0.96233 0.11767 0.0
C603 C 0.88066 0.94035 0.11204 0.0
C604 C 0.87819 0.94221 0.10173 0.0
C605 C 0.86386 0.9224 0.09647 0.0
C606 C 0.85157 0.90035 0.10141 0.0
C607 C 0.85462 0.89811 0.1117 0.0
C608 C 0.86899 0.91793 0.11697 0.0
C609 C 0.97521 0.9253 0.12551 0.0
C610 C 0.97778 1.0004 0.10618 0.0
C611 C 1.03279 1.01231 0.13262 0.0
C612 C 0.05915 0.99837 0.13252 0.0
C613 C 0.05991 0.96988 0.13191 0.0
C614 C 0.08429 0.95596 0.13348 0.0
C615 C 0.10839 0.97034 0.13566 0.0
C616 C 0.10788 0.99905 0.13544 0.0
C617 C 0.08334 1.01297 0.13395 0.0
C618 C 0.94181 1.02419 0.14117 0.0
C619 C 0.96074 0.95741 0.14614 0.0
O620 O 0.91171 0.97764 0.11301 0.0
O621 O 0.90198 0.95643 0.12661 0.0
O622 O 0.98491 0.94911 0.12319 0.0
O623 O 0.94964 0.92762 0.12762 0.0
O624 O 0.96067 0.98051 0.10828 0.0
O625 O 0.98669 1.01342 0.11402 0.0
O626 O 1.02005 1.01356 0.12419 0.0
O627 O 1.0167 1.00522 0.13981 0.0
O628 O 0.9397 1.01688 0.13195 0.0
O629 O 0.96542 1.0159 0.14409 0.0
O630 O 0.98406 0.96026 0.14164 0.0
O631 O 0.9392 0.96637 0.14145 0.0
H632 H 0.88671 0.95934 0.09773 0.0
H633 H 0.86136 0.9251 0.08858 0.0
H634 H 0.8454 0.88134 0.1157 0.0
H635 H 0.87042 0.91595 0.12493 0.0
H636 H 0.04132 0.95833 0.13078 0.0
H637 H 0.08369 0.93391 0.13372 0.0
H638 H 0.12616 1.01074 0.13693 0.0
H639 H 0.08305 0.03501 0.13435 0.0
Sm640 Sm 0.7424 0.73094 0.87877 0.0
Sm641 Sm 0.72222 0.69259 0.87273 0.0
C642 C 0.7591 0.78159 0.88212 0.0
C643 C 0.74552 0.80789 0.88082 0.0
C644 C 0.72222 0.80986 0.87484 0.0
C645 C 0.7047 0.83215 0.87577 0.0
C646 C 0.71006 0.85253 0.88283 0.0
C647 C 0.7349 0.85165 0.88807 0.0
C648 C 0.75245 0.82946 0.88708 0.0
C649 C 0.77337 0.69056 0.88971 0.0
C650 C 0.70843 0.70411 0.89479 0.0
C651 C 0.71105 0.64489 0.86443 0.0
C652 C 0.69083 0.63462 0.85737 0.0
C653 C 0.68135 0.6509 0.84955 0.0
C654 C 0.66184 0.64073 0.84298 0.0
C655 C 0.6513 0.61431 0.84422 0.0
C656 C 0.66031 0.59843 0.85223 0.0
C657 C 0.67996 0.60851 0.85874 0.0
C658 C 0.67443 0.72481 0.87433 0.0
C659 C 0.74932 0.72907 0.85484 0.0
O660 O 0.76521 0.76814 0.87413 0.0
O661 O 0.74798 0.76616 0.88881 0.0
O662 O 0.76542 0.68813 0.88053 0.0
O663 O 0.76574 0.71438 0.89259 0.0
O664 O 0.71027 0.72846 0.89098 0.0
O665 O 0.71688 0.68396 0.88928 0.0
O666 O 0.72964 0.66153 0.86106 0.0
O667 O 0.7013 0.6525 0.87292 0.0
O668 O 0.69813 0.73404 0.87166 0.0
O669 O 0.6768 0.69926 0.87644 0.0
O670 O 0.72958 0.71154 0.85663 0.0
O671 O 0.76196 0.73741 0.86286 0.0
H672 H 0.71648 0.79323 0.86999 0.0
H673 H 0.68599 0.83239 0.87151 0.0
H674 H 0.73966 0.86669 0.89366 0.0
H675 H 0.77023 0.8281 0.89181 0.0
H676 H 0.68913 0.67136 0.84848 0.0
H677 H 0.65517 0.6534 0.83688 0.0
H678 H 0.65289 0.57784 0.85328 0.0
H679 H 0.68685 0.59582 0.8648 0.0
Sm680 Sm 0.58668 0.49393 0.13533 0.0
Sm681 Sm 0.62595 0.47435 0.12903 0.0
C682 C 0.5358 0.50957 0.13867 0.0
C683 C 0.51001 0.49826 0.13509 0.0
C684 C 0.51012 0.47953 0.12724 0.0
C685 C 0.48811 0.46183 0.1259 0.0
C686 C 0.46593 0.46241 0.13249 0.0
C687 C 0.46469 0.48342 0.13959 0.0
C688 C 0.48663 0.50114 0.14089 0.0
C689 C 0.62676 0.52493 0.14635 0.0
C690 C 0.61608 0.46044 0.15122 0.0
C691 C 0.67363 0.46611 0.12024 0.0
C692 C 0.68406 0.4511 0.11168 0.0
C693 C 0.70667 0.46137 0.10659 0.0
C694 C 0.71665 0.44782 0.09829 0.0
C695 C 0.70418 0.42371 0.09496 0.0
C696 C 0.68166 0.41325 0.10014 0.0
C697 C 0.67153 0.42697 0.10842 0.0
C698 C 0.59338 0.42673 0.13052 0.0
C699 C 0.58818 0.50028 0.11125 0.0
O700 O 0.55146 0.52127 0.13213 0.0
O701 O 0.54921 0.49313 0.14445 0.0
O702 O 0.62931 0.51713 0.13717 0.0
O703 O 0.60293 0.51717 0.14921 0.0
O704 O 0.59131 0.46256 0.14774 0.0
O705 O 0.63591 0.46857 0.14546 0.0
O706 O 0.65799 0.48694 0.11831 0.0
O707 O 0.66479 0.45157 0.12763 0.0
O708 O 0.58447 0.45045 0.12775 0.0
O709 O 0.61895 0.42894 0.13275 0.0
O710 O 0.60694 0.48166 0.11296 0.0
O711 O 0.57877 0.51203 0.11928 0.0
H712 H 0.52816 0.47694 0.12271 0.0
H713 H 0.48954 0.44621 0.12027 0.0
H714 H 0.44815 0.48446 0.14488 0.0
H715 H 0.48634 0.51533 0.14702 0.0
H716 H 0.71655 0.47995 0.10902 0.0
H717 H 0.73425 0.45614 0.09451 0.0
H718 H 0.67159 0.39482 0.09767 0.0
H719 H 0.65387 0.41886 0.11223 0.0
Sm720 Sm 0.81844 0.33875 0.37887 0.0
Sm721 Sm 0.84059 0.3781 0.3726 0.0
C722 C 0.80495 0.29074 0.38636 0.0
C723 C 0.81995 0.265 0.38605 0.0
C724 C 0.84126 0.26164 0.37921 0.0
C725 C 0.85945 0.23995 0.38018 0.0
C726 C 0.85673 0.22147 0.38805 0.0
C727 C 0.83418 0.22394 0.39446 0.0
C728 C 0.81596 0.2456 0.39346 0.0
C729 C 0.78381 0.38265 0.38647 0.0
C730 C 0.85579 0.36484 0.39454 0.0
C731 C 0.85039 0.42687 0.365 0.0
C732 C 0.86468 0.43846 0.35649 0.0
C733 C 0.87846 0.46319 0.3577 0.0
C734 C 0.89518 0.47322 0.35021 0.0
C735 C 0.89829 0.45875 0.34131 0.0
C736 C 0.88408 0.43404 0.34007 0.0
C737 C 0.86752 0.42387 0.34763 0.0
C738 C 0.88638 0.34353 0.37312 0.0
C739 C 0.81274 0.33958 0.35479 0.0
O740 O 0.79574 0.29961 0.37791 0.0
O741 O 0.81682 0.30981 0.39147 0.0
O742 O 0.80968 0.38244 0.38562 0.0
O743 O 0.77556 0.3608 0.38196 0.0
O744 O 0.85108 0.34064 0.39097 0.0
O745 O 0.84781 0.3856 0.38919 0.0
O746 O 0.82765 0.41355 0.36341 0.0
O747 O 0.86626 0.41486 0.37136 0.0
O748 O 0.86184 0.33547 0.3708 0.0
O749 O 0.88584 0.3693 0.37501 0.0
O750 O 0.82573 0.36265 0.3566 0.0
O751 O 0.80644 0.32542 0.36269 0.0
H752 H 0.84475 0.27665 0.37347 0.0
H753 H 0.87646 0.23849 0.3751 0.0
H754 H 0.8317 0.21038 0.40071 0.0
H755 H 0.79981 0.24813 0.39885 0.0
H756 H 0.8769 0.4744 0.36458 0.0
H757 H 0.90614 0.49205 0.3515 0.0
H758 H 0.8857 0.42259 0.33325 0.0
H759 H 0.85736 0.40446 0.34663 0.0
Sm760 Sm 0.98803 0.57319 0.63836 0.0
Sm761 Sm 0.94947 0.59426 0.6323 0.0
C762 C 0.03658 0.55851 0.64513 0.0
C763 C 0.06377 0.56826 0.64238 0.0
C764 C 0.06772 0.5817 0.63332 0.0
C765 C 0.09176 0.59614 0.63155 0.0
C766 C 0.11204 0.59764 0.63886 0.0
C767 C 0.10873 0.58238 0.64762 0.0
C768 C 0.08475 0.56784 0.64936 0.0
C769 C 0.9442 0.53958 0.64665 0.0
C770 C 0.96151 0.61155 0.65426 0.0
C771 C 0.90188 0.59545 0.62338 0.0
C772 C 0.89562 0.59776 0.61288 0.0
C773 C 0.8736 0.58333 0.60893 0.0
C774 C 0.87006 0.58201 0.59872 0.0
C775 C 0.88869 0.59496 0.59235 0.0
C776 C 0.91049 0.6098 0.59636 0.0
C777 C 0.91392 0.6112 0.60655 0.0
C778 C 0.98196 0.641 0.63235 0.0
C779 C 0.98818 0.56821 0.61425 0.0
O780 O 1.02347 0.54495 0.63835 0.0
O781 O 1.02128 0.5766 0.64946 0.0
O782 O 0.94536 0.56535 0.64589 0.0
O783 O 0.96503 0.53078 0.64167 0.0
O784 O 0.98556 0.60336 0.65133 0.0
O785 O 0.94086 0.60709 0.64831 0.0
O786 O 0.91416 0.57271 0.62578 0.0
O787 O 0.91275 0.617 0.6275 0.0
O788 O 0.99117 0.61663 0.63025 0.0
O789 O 0.95611 0.63979 0.63432 0.0
O790 O 0.96574 0.58201 0.61614 0.0
O791 O 1.00166 0.56081 0.62217 0.0
H792 H 0.05159 0.5824 0.62785 0.0
H793 H 0.09375 0.60743 0.6247 0.0
H794 H 0.12363 0.58339 0.65352 0.0
H795 H 0.0819 0.55778 0.65642 0.0
H796 H 0.85956 0.57255 0.61373 0.0
H797 H 0.85272 0.57092 0.59582 0.0
H798 H 0.92519 0.61985 0.59162 0.0
H799 H 0.93137 0.62209 0.60948 0.0
Sm800 Sm 0.74835 0.33408 0.73475 0.0
Sm801 Sm 0.72925 0.37288 0.74098 0.0
C802 C 0.76345 0.28315 0.73102 0.0
C803 C 0.74834 0.25742 0.73139 0.0
C804 C 0.72509 0.25492 0.73738 0.0
C805 C 0.70677 0.23352 0.73587 0.0
C806 C 0.71119 0.2146 0.72822 0.0
C807 C 0.73573 0.21609 0.72281 0.0
C808 C 0.75412 0.2373 0.7244 0.0
C809 C 0.78019 0.37421 0.72407 0.0
C810 C 0.7135 0.36175 0.71913 0.0
C811 C 0.72067 0.42062 0.74963 0.0
C812 C 0.70223 0.4312 0.75723 0.0
C813 C 0.71051 0.45336 0.76299 0.0
C814 C 0.69337 0.46358 0.77032 0.0
C815 C 0.66762 0.45181 0.772 0.0
C816 C 0.65925 0.4297 0.76615 0.0
C817 C 0.67653 0.41933 0.75885 0.0
C818 C 0.68065 0.34181 0.73956 0.0
C819 C 0.75606 0.33561 0.75862 0.0
O820 O 0.76813 0.29525 0.73942 0.0
O821 O 0.75495 0.29997 0.72427 0.0
O822 O 0.77249 0.37624 0.73327 0.0
O823 O 0.77169 0.3509 0.72096 0.0
O824 O 0.71497 0.33743 0.72299 0.0
O825 O 0.72338 0.38174 0.72443 0.0
O826 O 0.73921 0.40343 0.75261 0.0
O827 O 0.70938 0.41339 0.74132 0.0
O828 O 0.70427 0.33188 0.74197 0.0
O829 O 0.6834 0.36749 0.73769 0.0
O830 O 0.73641 0.35329 0.75694 0.0
O831 O 0.76845 0.32729 0.75055 0.0
H832 H 0.72017 0.27046 0.74279 0.0
H833 H 0.68837 0.23277 0.74029 0.0
H834 H 0.73979 0.20228 0.71675 0.0
H835 H 0.77181 0.23913 0.71964 0.0
H836 H 0.73026 0.46275 0.76182 0.0
H837 H 0.70018 0.48088 0.77464 0.0
H838 H 0.63959 0.42018 0.76734 0.0
H839 H 0.66988 0.40203 0.7545 0.0
Sm840 Sm 0.97885 0.49318 0.97821 0.0
Sm841 Sm 0.93995 0.47232 0.98397 0.0
C842 C 1.02912 0.51168 0.97543 0.0
C843 C 0.05586 0.50136 0.97848 0.0
C844 C 0.05856 0.47403 0.98132 0.0
C845 C 0.08432 0.46221 0.98201 0.0
C846 C 0.10787 0.47765 0.97997 0.0
C847 C 0.10503 0.50589 0.97833 0.0
C848 C 0.07914 0.5176 0.97747 0.0
C849 C 0.93844 0.5235 0.96702 0.0
C850 C 0.95325 0.45903 0.96191 0.0
C851 C 0.89149 0.46175 0.99185 0.0
C852 C 0.8801 0.44376 0.99945 0.0
C853 C 0.89628 0.43386 1.00721 0.0
C854 C 0.88481 0.4171 1.01446 0.0
C855 C 0.85708 0.40983 1.01398 0.0
C856 C 0.84124 0.41919 1.00601 0.0
C857 C 0.85268 0.43604 0.99881 0.0
C858 C 0.9732 0.42528 0.98262 0.0
C859 C 0.97602 0.49811 1.00226 0.0
O860 O 1.01325 0.52063 0.98243 0.0
O861 O 1.01625 0.49625 0.96914 0.0
O862 O 0.93578 0.5155 0.97617 0.0
O863 O 0.96246 0.51611 0.96425 0.0
O864 O 0.97745 0.46165 0.96581 0.0
O865 O 0.93255 0.46669 0.96734 0.0
O866 O 0.9073 0.48147 0.99487 0.0
O867 O 0.90073 0.44971 0.98398 0.0
O868 O 0.98178 0.4491 0.98544 0.0
O869 O 0.94774 0.42717 0.98025 0.0
O870 O 0.95795 0.47902 1.00025 0.0
O871 O 0.98532 0.51076 0.99439 0.0
H872 H 0.04069 0.46129 0.98225 0.0
H873 H 0.08544 0.44044 0.98324 0.0
H874 H 0.12274 0.51855 0.97699 0.0
H875 H 0.07734 0.53887 0.97543 0.0
H876 H 0.91764 0.43932 1.00773 0.0
H877 H 0.89751 0.41005 1.02049 0.0
H878 H 0.81974 0.41431 1.00552 0.0
H879 H 0.84 0.44337 0.99281 0.0
Sm880 Sm 0.82423 0.73289 0.23347 0.0
Sm881 Sm 0.84403 0.69389 0.23946 0.0
C882 C 0.80737 0.7834 0.23001 0.0
C883 C 0.82104 0.80971 0.2312 0.0
C884 C 0.84349 0.81219 0.23759 0.0
C885 C 0.86126 0.83432 0.23669 0.0
C886 C 0.8571 0.85398 0.22926 0.0
C887 C 0.83312 0.85253 0.22352 0.0
C888 C 0.81527 0.83059 0.2245 0.0
C889 C 0.79315 0.69233 0.22262 0.0
C890 C 0.8596 0.70731 0.2176 0.0
C891 C 0.8544 0.64489 0.24688 0.0
C892 C 0.87609 0.63216 0.25269 0.0
C893 C 0.89259 0.64762 0.25904 0.0
C894 C 0.91305 0.63493 0.26457 0.0
C895 C 0.91744 0.60672 0.26371 0.0
C896 C 0.90149 0.59159 0.25704 0.0
C897 C 0.88095 0.60424 0.25159 0.0
C898 C 0.89219 0.72582 0.23821 0.0
C899 C 0.81745 0.73039 0.25752 0.0
O900 O 0.80136 0.77008 0.23806 0.0
O901 O 0.81832 0.76785 0.22333 0.0
O902 O 0.80066 0.69037 0.23185 0.0
O903 O 0.80143 0.71581 0.2196 0.0
O904 O 0.85718 0.73145 0.22154 0.0
O905 O 0.85065 0.68681 0.22285 0.0
O906 O 0.83913 0.66287 0.25133 0.0
O907 O 0.86136 0.65237 0.23802 0.0
O908 O 0.8684 0.73531 0.24062 0.0
O909 O 0.88987 0.70014 0.23633 0.0
O910 O 0.83598 0.71157 0.25571 0.0
O911 O 0.8058 0.74019 0.24952 0.0
H912 H 0.84839 0.79608 0.24277 0.0
H913 H 0.8792 0.83501 0.24135 0.0
H914 H 0.82924 0.86693 0.21762 0.0
H915 H 0.7982 0.8288 0.21945 0.0
H916 H 0.88941 0.66936 0.25982 0.0
H917 H 0.92511 0.64705 0.26964 0.0
H918 H 0.90408 0.56976 0.25635 0.0
H919 H 0.86858 0.59213 0.24661 0.0
Sm920 Sm 0.57687 0.57397 0.47538 0.0
Sm921 Sm 0.61644 0.59594 0.48044 0.0
C922 C 0.52765 0.55752 0.46994 0.0
C923 C 0.50146 0.57027 0.47229 0.0
C924 C 0.50128 0.59708 0.47584 0.0
C925 C 0.47677 0.61074 0.47725 0.0
C926 C 0.45175 0.59775 0.47528 0.0
C927 C 0.45203 0.57004 0.47248 0.0
C928 C 0.47678 0.55645 0.47094 0.0
C929 C 0.62064 0.54128 0.46646 0.0
C930 C 0.59744 0.6131 0.45895 0.0
C931 C 0.66814 0.59887 0.48564 0.0
C932 C 0.68795 0.60118 0.4936 0.0
C933 C 0.68309 0.58988 0.50295 0.0
C934 C 0.70373 0.58998 0.51004 0.0
C935 C 0.72932 0.60142 0.50783 0.0
C936 C 0.73371 0.61337 0.49854 0.0
C937 C 0.71313 0.61323 0.49147 0.0
C938 C 0.58355 0.6424 0.48084 0.0
C939 C 0.581 0.57013 0.49947 0.0
O940 O 0.54061 0.54726 0.47747 0.0
O941 O 0.54355 0.57199 0.46428 0.0
O942 O 0.61801 0.56698 0.46683 0.0
O943 O 0.60137 0.53214 0.47218 0.0
O944 O 0.57432 0.60484 0.46268 0.0
O945 O 0.61959 0.60831 0.46409 0.0
O946 O 0.6547 0.57588 0.48496 0.0
O947 O 0.65357 0.62038 0.48354 0.0
O948 O 0.57481 0.61801 0.48317 0.0
O949 O 0.60915 0.64136 0.4785 0.0
O950 O 0.60372 0.5831 0.49706 0.0
O951 O 0.56585 0.56322 0.4919 0.0
H952 H 0.52024 0.60793 0.47707 0.0
H953 H 0.47771 0.63208 0.47924 0.0
H954 H 0.43319 0.55922 0.47107 0.0
H955 H 0.47663 0.53551 0.4684 0.0
H956 H 0.66364 0.58054 0.50467 0.0
H957 H 0.69977 0.581 0.51722 0.0
H958 H 0.75331 0.6221 0.49663 0.0
H959 H 0.71712 0.62187 0.48424 0.0
Sm960 Sm 0.33996 0.36782 0.23207 0.0
Sm961 Sm 0.3179 0.32976 0.22649 0.0
C962 C 0.34034 0.41638 0.2403 0.0
C963 C 0.34044 0.42444 0.25071 0.0
C964 C 0.32204 0.44435 0.25394 0.0
C965 C 0.31814 0.44873 0.26402 0.0
C966 C 0.33271 0.43333 0.271 0.0
C967 C 0.35188 0.4141 0.26777 0.0
C968 C 0.35558 0.40952 0.25769 0.0
C969 C 0.38613 0.3348 0.23272 0.0
C970 C 0.31356 0.33061 0.25051 0.0
C971 C 0.3006 0.28195 0.2199 0.0
C972 C 0.31064 0.25454 0.22214 0.0
C973 C 0.32515 0.24975 0.23093 0.0
C974 C 0.34006 0.22576 0.23213 0.0
C975 C 0.34097 0.20637 0.2245 0.0
C976 C 0.32466 0.21043 0.21604 0.0
C977 C 0.30965 0.23435 0.21487 0.0
C978 C 0.28622 0.37433 0.21777 0.0
C979 C 0.35998 0.35136 0.21092 0.0
O980 O 0.3179 0.40416 0.23749 0.0
O981 O 0.36247 0.40467 0.23694 0.0
O982 O 0.36145 0.32575 0.23451 0.0
O983 O 0.38557 0.36072 0.23083 0.0
O984 O 0.32706 0.35313 0.24841 0.0
O985 O 0.30645 0.31646 0.24274 0.0
O986 O 0.289 0.29489 0.22717 0.0
O987 O 0.31774 0.29722 0.21507 0.0
O988 O 0.31194 0.37137 0.21819 0.0
O989 O 0.27668 0.35522 0.22345 0.0
O990 O 0.3502 0.32839 0.21428 0.0
O991 O 0.35561 0.37341 0.21617 0.0
H992 H 0.30994 0.45575 0.24866 0.0
H993 H 0.30355 0.46399 0.26637 0.0
H994 H 0.36327 0.40196 0.27303 0.0
H995 H 0.36949 0.39361 0.25537 0.0
H996 H 0.32635 0.26524 0.23662 0.0
H997 H 0.35217 0.22315 0.23876 0.0
H998 H 0.32518 0.19622 0.20992 0.0
H999 H 0.29879 0.23787 0.20801 0.0
Sm1000 Sm 0.44328 0.59347 0.98998 0.0
Sm1001 Sm 0.48186 0.57092 0.9841 0.0
C1002 C 0.3946 0.60137 0.99785 0.0
C1003 C 0.38496 0.61355 1.00708 0.0
C1004 C 0.35814 0.60913 1.01021 0.0
C1005 C 0.34837 0.62221 1.01866 0.0
C1006 C 0.36528 0.64002 1.02403 0.0
C1007 C 0.39228 0.64413 1.02092 0.0
C1008 C 0.40211 0.63085 1.01253 0.0
C1009 C 0.4771 0.63939 0.98985 0.0
C1010 C 0.48069 0.56554 1.00811 0.0
C1011 C 0.52959 0.55472 0.97697 0.0
C1012 C 0.55642 0.56777 0.97683 0.0
C1013 C 0.55852 0.59597 0.97826 0.0
C1014 C 0.58362 0.60897 0.97723 0.0
C1015 C 0.60714 0.59393 0.97483 0.0
C1016 C 0.60518 0.56535 0.97412 0.0
C1017 C 0.57993 0.55238 0.97506 0.0
C1018 C 0.43734 0.53803 0.97585 0.0
C1019 C 0.45909 0.60937 0.96829 0.0
O1020 O 0.4077 0.5782 0.9986 0.0
O1021 O 0.40621 0.61843 0.99177 0.0
O1022 O 0.48581 0.61483 0.9919 0.0
O1023 O 0.45127 0.63873 0.98798 0.0
O1024 O 0.45868 0.58011 1.00618 0.0
O1025 O 0.49412 0.55765 1.00026 0.0
O1026 O 0.52063 0.54775 0.98566 0.0
O1027 O 0.51093 0.56656 0.97163 0.0
O1028 O 0.43883 0.5638 0.97665 0.0
O1029 O 0.4581 0.52892 0.98081 0.0
O1030 O 0.48275 0.60414 0.97224 0.0
O1031 O 0.43755 0.60178 0.97333 0.0
H1032 H 0.34467 0.59593 1.00604 0.0
H1033 H 0.3274 0.61885 1.02088 0.0
H1034 H 0.40579 0.65749 1.025 0.0
H1035 H 0.42295 0.63441 1.0102 0.0
H1036 H 0.54054 0.60811 0.97978 0.0
H1037 H 0.58415 0.63099 0.9777 0.0
H1038 H 0.62297 0.55313 0.97244 0.0
H1039 H 0.57863 0.5305 0.97411 0.0
Sm1040 Sm 0.22434 0.69742 0.73318 0.0
Sm1041 Sm 0.2449 0.73687 0.72785 0.0
C1042 C 0.21483 0.64766 0.74009 0.0
C1043 C 0.19662 0.63435 0.74716 0.0
C1044 C 0.18186 0.64955 0.75411 0.0
C1045 C 0.16518 0.6363 0.76098 0.0
C1046 C 0.16295 0.60771 0.76091 0.0
C1047 C 0.17718 0.59276 0.7537 0.0
C1048 C 0.19388 0.60601 0.74688 0.0
C1049 C 0.17674 0.72997 0.7325 0.0
C1050 C 0.24962 0.73266 0.75189 0.0
C1051 C 0.26338 0.7873 0.72595 0.0
C1052 C 0.25211 0.81229 0.73022 0.0
C1053 C 0.23021 0.8103 0.73687 0.0
C1054 C 0.21336 0.83271 0.73854 0.0
C1055 C 0.21835 0.85737 0.73361 0.0
C1056 C 0.2423 0.86019 0.72796 0.0
C1057 C 0.25898 0.83763 0.7262 0.0
C1058 C 0.27482 0.69689 0.71623 0.0
C1059 C 0.20932 0.71448 0.71151 0.0
O1060 O 0.23337 0.66388 0.74373 0.0
O1061 O 0.20322 0.65753 0.73222 0.0
O1062 O 0.20066 0.73888 0.73514 0.0
O1063 O 0.17878 0.70461 0.73005 0.0
O1064 O 0.23132 0.71384 0.74974 0.0
O1065 O 0.26164 0.74314 0.7441 0.0
O1066 O 0.27369 0.7699 0.7322 0.0
O1067 O 0.2474 0.77569 0.71952 0.0
O1068 O 0.26748 0.69422 0.72544 0.0
O1069 O 0.26692 0.72086 0.71356 0.0
O1070 O 0.21232 0.73794 0.71587 0.0
O1071 O 0.21759 0.69296 0.71639 0.0
H1072 H 0.18356 0.67156 0.75431 0.0
H1073 H 0.15435 0.64833 0.76642 0.0
H1074 H 0.17629 0.57071 0.75357 0.0
H1075 H 0.20506 0.59406 0.7415 0.0
H1076 H 0.22458 0.79078 0.74002 0.0
H1077 H 0.19494 0.83002 0.74286 0.0
H1078 H 0.24638 0.8789 0.72397 0.0
H1079 H 0.27571 0.83943 0.721 0.0
Sm1080 Sm 0.12758 0.47786 0.49218 0.0
Sm1081 Sm 0.08958 0.49836 0.48665 0.0
C1082 C 0.17552 0.46643 0.50026 0.0
C1083 C 0.1851 0.44571 0.50727 0.0
C1084 C 0.16822 0.43639 0.51495 0.0
C1085 C 0.17749 0.41629 0.52144 0.0
C1086 C 0.2036 0.40494 0.52026 0.0
C1087 C 0.2201 0.41379 0.51239 0.0
C1088 C 0.21091 0.43406 0.50596 0.0
C1089 C 0.0958 0.42981 0.49084 0.0
C1090 C 0.09278 0.50503 0.51045 0.0
C1091 C 0.03888 0.51579 0.48381 0.0
C1092 C 1.01276 0.50131 0.48394 0.0
C1093 C 1.01029 0.4765 0.48903 0.0
C1094 C 0.98833 0.45917 0.4871 0.0
C1095 C 0.96879 0.46623 0.47992 0.0
C1096 C 0.97021 0.49222 0.47551 0.0
C1097 C 0.99204 0.50959 0.47751 0.0
C1098 C 0.12969 0.52902 0.47539 0.0
C1099 C 0.11332 0.4632 0.47042 0.0
O1100 O 0.15914 0.48513 0.5037 0.0
O1101 O 0.16781 0.45715 0.49171 0.0
O1102 O 0.08616 0.45351 0.49334 0.0
O1103 O 0.12136 0.43234 0.48875 0.0
O1104 O 0.1092 0.48455 0.50842 0.0
O1105 O 0.08495 0.51846 0.50254 0.0
O1106 O 0.05161 0.51806 0.49222 0.0
O1107 O 0.05509 0.50853 0.47669 0.0
O1108 O 0.13235 0.5212 0.48457 0.0
O1109 O 0.10579 0.52117 0.47263 0.0
O1110 O 0.08952 0.46575 0.47462 0.0
O1111 O 0.13434 0.47169 0.47552 0.0
H1112 H 0.14796 0.44473 0.51596 0.0
H1113 H 0.16437 0.40975 0.52743 0.0
H1114 H 0.24047 0.4057 0.5114 0.0
H1115 H 0.22404 0.44079 0.49999 0.0
H1116 H 1.02625 0.46967 0.49399 0.0
H1117 H 0.98765 0.43951 0.49073 0.0
H1118 H 0.95583 0.49829 0.46985 0.0
H1119 H 0.99382 0.52855 0.47345 0.0
Sm1120 Sm 0.34572 0.69734 0.38159 0.0
Sm1121 Sm 0.3223 0.73524 0.3862 0.0
C1122 C 0.34848 0.64519 0.37692 0.0
C1123 C 0.34752 0.62456 0.36915 0.0
C1124 C 0.32975 0.62724 0.36108 0.0
C1125 C 0.3254 0.60521 0.35477 0.0
C1126 C 0.33884 0.58033 0.35642 0.0
C1127 C 0.35767 0.57822 0.3642 0.0
C1128 C 0.36189 0.6002 0.37055 0.0
C1129 C 0.39158 0.73066 0.38066 0.0
C1130 C 0.31951 0.73152 0.36223 0.0
C1131 C 0.30059 0.7824 0.3916 0.0
C1132 C 0.30809 0.81057 0.38926 0.0
C1133 C 0.32162 0.8168 0.38039 0.0
C1134 C 0.33427 0.84208 0.37917 0.0
C1135 C 0.33397 0.8613 0.38687 0.0
C1136 C 0.31842 0.85564 0.3954 0.0
C1137 C 0.3056 0.8305 0.39657 0.0
C1138 C 0.29257 0.69053 0.3959 0.0
C1139 C 0.36379 0.72048 0.40249 0.0
O1140 O 0.32566 0.65804 0.37877 0.0
O1141 O 0.37017 0.66055 0.37765 0.0
O1142 O 0.36685 0.73941 0.37869 0.0
O1143 O 0.39113 0.70497 0.38292 0.0
O1144 O 0.33241 0.70889 0.36481 0.0
O1145 O 0.3125 0.74679 0.36971 0.0
O1146 O 0.29124 0.7678 0.3843 0.0
O1147 O 0.31838 0.76926 0.39693 0.0
O1148 O 0.31802 0.69525 0.39558 0.0
O1149 O 0.28239 0.70756 0.38953 0.0
O1150 O 0.35344 0.74222 0.39845 0.0
O1151 O 0.36058 0.69729 0.39779 0.0
H1152 H 0.31849 0.64595 0.35989 0.0
H1153 H 0.31119 0.60748 0.34869 0.0
H1154 H 0.36826 0.55926 0.36562 0.0
H1155 H 0.3755 0.5978 0.3768 0.0
H1156 H 0.32385 0.80159 0.37465 0.0
H1157 H 0.3457 0.84587 0.37246 0.0
H1158 H 0.318 0.8696 0.40159 0.0
H1159 H 0.29541 0.82594 0.40349 0.0
Sm1160 Sm 0.11905 0.58854 0.12375 0.0
Sm1161 Sm 0.07993 0.56854 0.12922 0.0
C1162 C 0.16855 0.59845 0.11667 0.0
C1163 C 0.18178 0.62027 0.11106 0.0
C1164 C 0.20987 0.62423 0.11211 0.0
C1165 C 0.223 0.64474 0.10679 0.0
C1166 C 0.20818 0.66158 0.10031 0.0
C1167 C 0.1798 0.65806 0.09951 0.0
C1168 C 0.16664 0.63762 0.1049 0.0
C1169 C 0.0879 0.63697 0.1247 0.0
C1170 C 0.08408 0.5617 0.10541 0.0
C1171 C 1.02902 0.55153 0.13192 0.0
C1172 C 1.00345 0.5669 0.13184 0.0
C1173 C 1.0044 0.59542 0.13156 0.0
C1174 C 0.98075 0.61062 0.13295 0.0
C1175 C 0.9556 0.59755 0.13459 0.0
C1176 C 0.95448 0.56887 0.13407 0.0
C1177 C 0.97833 0.55364 0.13278 0.0
C1178 C 0.12029 0.53763 0.14023 0.0
C1179 C 0.1027 0.60505 0.14525 0.0
O1180 O 0.15046 0.58377 0.11201 0.0
O1181 O 0.16091 0.60495 0.12555 0.0
O1182 O 0.07788 0.61328 0.12241 0.0
O1183 O 0.11354 0.63438 0.12665 0.0
O1184 O 0.10137 0.5815 0.10743 0.0
O1185 O 0.07525 0.5488 0.1133 0.0
O1186 O 0.04162 0.54989 0.12348 0.0
O1187 O 0.0455 0.55769 0.13911 0.0
O1188 O 0.12219 0.54492 0.131 0.0
O1189 O 0.09691 0.54626 0.14327 0.0
O1190 O 0.07918 0.60216 0.14088 0.0
O1191 O 0.12401 0.59581 0.14049 0.0
H1192 H 0.22175 0.61116 0.11692 0.0
H1193 H 0.24494 0.64661 0.10743 0.0
H1194 H 0.16791 0.6708 0.09459 0.0
H1195 H 0.14478 0.6351 0.10416 0.0
H1196 H 1.02372 0.60595 0.13079 0.0
H1197 H 0.98267 0.63255 0.13343 0.0
H1198 H 0.93539 0.55817 0.13513 0.0
H1199 H 0.97729 0.53159 0.1329 0.0
Sm1200 Sm 0.2245 0.37847 0.8791 0.0
Sm1201 Sm 0.24685 0.3393 0.88518 0.0
C1202 C 0.21633 0.42695 0.8711 0.0
C1203 C 0.2057 0.43706 0.86167 0.0
C1204 C 0.21223 0.46343 0.85854 0.0
C1205 C 0.20133 0.47361 0.84975 0.0
C1206 C 0.18361 0.45756 0.84401 0.0
C1207 C 0.17726 0.43103 0.84714 0.0
C1208 C 0.18837 0.42078 0.85589 0.0
C1209 C 0.1788 0.34407 0.87956 0.0
C1210 C 0.25149 0.34038 0.86105 0.0
C1211 C 0.26293 0.29133 0.89205 0.0
C1212 C 0.25247 0.26374 0.89043 0.0
C1213 C 0.22536 0.25997 0.88744 0.0
C1214 C 0.21447 0.23382 0.88677 0.0
C1215 C 0.23062 0.21091 0.88899 0.0
C1216 C 0.25842 0.21479 0.89123 0.0
C1217 C 0.26922 0.24107 0.892 0.0
C1218 C 0.28062 0.38348 0.89315 0.0
C1219 C 0.21037 0.36493 0.90132 0.0
O1220 O 0.23993 0.4145 0.8708 0.0
O1221 O 0.19857 0.41465 0.87672 0.0
O1222 O 0.2033 0.33585 0.87721 0.0
O1223 O 0.17941 0.36978 0.88159 0.0
O1224 O 0.23894 0.36355 0.86301 0.0
O1225 O 0.25757 0.32583 0.86887 0.0
O1226 O 0.27388 0.30295 0.88436 0.0
O1227 O 0.24678 0.30765 0.89689 0.0
O1228 O 0.25481 0.38261 0.89231 0.0
O1229 O 0.28928 0.36226 0.88836 0.0
O1230 O 0.21578 0.34073 0.89785 0.0
O1231 O 0.21684 0.38574 0.89569 0.0
H1232 H 0.22554 0.47623 0.86294 0.0
H1233 H 0.20637 0.49421 0.84753 0.0
H1234 H 0.16392 0.41815 0.84279 0.0
H1235 H 0.18325 0.40025 0.85819 0.0
H1236 H 0.21226 0.27733 0.88602 0.0
H1237 H 0.19294 0.23179 0.88515 0.0
H1238 H 0.27152 0.19758 0.89281 0.0
H1239 H 0.29036 0.2437 0.89412 0.0
Sm1240 Sm 0.44323 0.48022 0.62194 0.0
Sm1241 Sm 0.48131 0.50047 0.62766 0.0
C1242 C 0.39482 0.47088 0.61386 0.0
C1243 C 0.38364 0.45172 0.6066 0.0
C1244 C 0.36193 0.45998 0.60061 0.0
C1245 C 0.35134 0.44229 0.59352 0.0
C1246 C 0.36229 0.416 0.59233 0.0
C1247 C 0.38386 0.40761 0.59844 0.0
C1248 C 0.39461 0.42544 0.60549 0.0
C1249 C 0.47483 0.43203 0.62291 0.0
C1250 C 0.47856 0.50698 0.60373 0.0
C1251 C 0.5315 0.51881 0.63096 0.0
C1252 C 0.5581 0.50524 0.6311 0.0
C1253 C 0.56247 0.48147 0.62555 0.0
C1254 C 0.58493 0.46484 0.62755 0.0
C1255 C 0.60302 0.47146 0.63526 0.0
C1256 C 0.5996 0.49647 0.64023 0.0
C1257 C 0.57736 0.5132 0.63815 0.0
C1258 C 0.44063 0.53029 0.63895 0.0
C1259 C 0.45812 0.46321 0.64342 0.0
O1260 O 0.41183 0.48905 0.61047 0.0
O1261 O 0.4026 0.46048 0.62225 0.0
O1262 O 0.48475 0.45591 0.62078 0.0
O1263 O 0.44907 0.43434 0.62474 0.0
O1264 O 0.46161 0.48689 0.60572 0.0
O1265 O 0.4868 0.52009 0.61166 0.0
O1266 O 0.51932 0.52089 0.62244 0.0
O1267 O 0.515 0.51097 0.63792 0.0
O1268 O 0.43865 0.52331 0.62968 0.0
O1269 O 0.46417 0.52182 0.64186 0.0
O1270 O 0.48182 0.46657 0.63922 0.0
O1271 O 0.4369 0.47222 0.63855 0.0
H1272 H 0.35324 0.48016 0.60138 0.0
H1273 H 0.33446 0.44913 0.58898 0.0
H1274 H 0.39274 0.38753 0.59762 0.0
H1275 H 0.41155 0.41876 0.61003 0.0
H1276 H 0.54765 0.47487 0.62011 0.0
H1277 H 0.58717 0.44602 0.62345 0.0
H1278 H 0.61273 0.50219 0.64632 0.0
H1279 H 0.57411 0.53132 0.64257 0.0
H1280 H 0.16043 0.37421 0.38295 0.0
H1281 H 0.13193 0.40537 0.39257 0.0
H1282 H 0.20115 0.42556 0.41082 0.0
H1283 H 0.22927 0.39416 0.40161 0.0
H1284 H 0.12532 0.39136 0.41194 0.0
H1285 H 0.16092 0.49754 0.41027 0.0
H1286 H 0.16795 0.47326 0.40054 0.0
H1287 H 0.18958 0.47508 0.41131 0.0
C1288 C 0.16974 0.38584 0.38886 0.0
C1289 C 0.19703 0.38117 0.39163 0.0
C1290 C 0.15346 0.40384 0.39427 0.0
C1291 C 0.16443 0.41785 0.40238 0.0
C1292 C 0.19235 0.41545 0.40446 0.0
H1293 H 0.16021 0.45539 0.46017 0.0
H1294 H 0.16513 0.44772 0.44245 0.0
C1295 C 0.2085 0.39731 0.39915 0.0
C1296 C 0.14646 0.4295 0.41006 0.0
H1297 H 0.1457 0.4815 0.42671 0.0
C1298 C 0.12886 0.41148 0.415 0.0
C1299 C 0.15102 0.45575 0.41399 0.0
C1300 C 0.1682 0.47657 0.40866 0.0
C1301 C 0.11852 0.41772 0.42438 0.0
C1302 C 0.12564 0.44283 0.42879 0.0
C1303 C 0.14065 0.46207 0.42336 0.0
C1304 C 0.12175 0.44759 0.43947 0.0
C1305 C 0.10233 0.39641 0.4299 0.0
C1306 C 0.09568 0.44964 0.44366 0.0
C1307 C 0.0928 0.45365 0.45384 0.0
C1308 C 0.11598 0.4559 0.45992 0.0
C1309 C 0.14199 0.4536 0.45568 0.0
C1310 C 0.14483 0.44947 0.44556 0.0
H1311 H 0.1012 0.37681 0.42581 0.0
H1312 H 0.11155 0.39254 0.43726 0.0
H1313 H 0.08123 0.40388 0.43108 0.0
H1314 H 0.07765 0.44847 0.43906 0.0
H1315 H 0.07249 0.45568 0.4569 0.0
H1316 H 0.91341 0.97645 0.6455 0.0
H1317 H 0.88792 0.93833 0.65227 0.0
H1318 H 0.94305 0.88196 0.63815 0.0
H1319 H 0.9702 0.92004 0.63212 0.0
H1320 H 0.86288 0.89077 0.6489 0.0
H1321 H 0.96454 0.87067 0.66621 0.0
H1322 H 0.95935 0.89985 0.6584 0.0
H1323 H 0.96142 0.86625 0.65311 0.0
C1324 C 0.91988 0.95596 0.64368 0.0
C1325 C 0.94457 0.95136 0.6387 0.0
C1326 C 0.90507 0.93409 0.64745 0.0
C1327 C 0.9144 0.90729 0.64611 0.0
C1328 C 0.93618 0.90253 0.63962 0.0
H1329 H 0.87819 0.8169 0.70053 0.0
H1330 H 0.88948 0.81904 0.68286 0.0
C1331 C 0.95149 0.92445 0.63605 0.0
C1332 C 0.90499 0.88618 0.65316 0.0
H1333 H 0.9262 0.85684 0.67472 0.0
C1334 C 0.87678 0.88254 0.65438 0.0
C1335 C 0.92317 0.87504 0.66027 0.0
C1336 C 0.95378 0.87813 0.65951 0.0
C1337 C 0.86621 0.87117 0.66308 0.0
C1338 C 0.88436 0.86323 0.67066 0.0
C1339 C 0.91246 0.86334 0.66889 0.0
C1340 C 0.87525 0.86044 0.681 0.0
C1341 C 0.83573 0.86966 0.66442 0.0
C1342 C 0.86429 0.88327 0.68581 0.0
C1343 C 0.85839 0.88233 0.69587 0.0
C1344 C 0.8633 0.85848 0.70131 0.0
C1345 C 0.87429 0.83557 0.6965 0.0
C1346 C 0.88048 0.83664 0.68642 0.0
H1347 H 0.82524 0.86708 0.6572 0.0
H1348 H 0.82994 0.85258 0.66938 0.0
H1349 H 0.8284 0.88897 0.66776 0.0
H1350 H 0.86089 0.9021 0.68181 0.0
H1351 H 0.84975 0.90022 0.69936 0.0
H1352 H 0.34192 0.66606 0.89712 0.0
H1353 H 0.37678 0.64193 0.90643 0.0
H1354 H 0.43872 0.69428 0.89409 0.0
H1355 H 0.40371 0.72012 0.88542 0.0
H1356 H 0.42483 0.61584 0.90546 0.0
H1357 H 0.43949 0.71875 0.92229 0.0
H1358 H 0.41319 0.7124 0.91331 0.0
H1359 H 0.44823 0.71526 0.90948 0.0
C1360 C 0.36299 0.67224 0.89626 0.0
C1361 C 0.3698 0.69579 0.89089 0.0
C1362 C 0.383 0.65819 0.9015 0.0
C1363 C 0.41019 0.66711 0.90128 0.0
C1364 C 0.41768 0.68774 0.89464 0.0
H1365 H 0.49958 0.6291 0.95635 0.0
H1366 H 0.49589 0.64096 0.93874 0.0
C1367 C 0.39756 0.70229 0.88958 0.0
C1368 C 0.42874 0.65827 0.9093 0.0
H1369 H 0.45497 0.68146 0.93113 0.0
C1370 C 0.43213 0.63022 0.91095 0.0
C1371 C 0.43831 0.67711 0.91648 0.0
C1372 C 0.43455 0.70754 0.91538 0.0
C1373 C 0.44253 0.62049 0.91993 0.0
C1374 C 0.44986 0.6393 0.92736 0.0
C1375 C 0.44921 0.66724 0.92536 0.0
C1376 C 0.45306 0.63084 0.93773 0.0
C1377 C 0.44392 0.5902 0.9217 0.0
C1378 C 0.42998 0.62211 0.94296 0.0
C1379 C 0.43183 0.61597 0.95298 0.0
C1380 C 0.45689 0.61825 0.95793 0.0
C1381 C 0.48001 0.6272 0.9527 0.0
C1382 C 0.47803 0.63374 0.94266 0.0
H1383 H 0.44492 0.57871 0.91464 0.0
H1384 H 0.46192 0.58488 0.9263 0.0
H1385 H 0.42532 0.58361 0.92573 0.0
H1386 H 0.4104 0.62039 0.93929 0.0
H1387 H 0.4137 0.60908 0.95681 0.0
H1388 H 0.70815 0.15002 0.20318 0.0
H1389 H 0.70659 0.14053 0.18553 0.0
H1390 H 0.70102 0.22657 0.17932 0.0
H1391 H 0.70231 0.23633 0.19711 0.0
H1392 H 0.66407 0.19656 0.16911 0.0
H1393 H 0.76519 0.14958 0.16463 0.0
H1394 H 0.74776 0.13437 0.17488 0.0
H1395 H 0.75644 0.17006 0.17527 0.0
C1396 C 0.70646 0.16697 0.19808 0.0
C1397 C 0.70531 0.19392 0.20153 0.0
C1398 C 0.70605 0.16154 0.18798 0.0
C1399 C 0.70471 0.18291 0.18112 0.0
C1400 C 0.70266 0.20985 0.18451 0.0
H1401 H 0.64061 0.12638 0.12472 0.0
H1402 H 0.67247 0.15719 0.13309 0.0
C1403 C 0.70308 0.21534 0.19466 0.0
C1404 C 0.70279 0.17638 0.17047 0.0
H1405 H 0.72908 0.13203 0.1536 0.0
C1406 C 0.6787 0.18328 0.16551 0.0
C1407 C 0.7222 0.1595 0.16575 0.0
C1408 C 0.74948 0.15324 0.17039 0.0
C1409 C 0.67174 0.17077 0.15655 0.0
C1410 C 0.68969 0.15117 0.15243 0.0
C1411 C 0.7153 0.1469 0.15679 0.0
C1412 C 0.67918 0.13031 0.14553 0.0
C1413 C 0.64392 0.17631 0.15219 0.0
C1414 C 0.67455 0.10411 0.1493 0.0
C1415 C 0.65634 0.08663 0.14461 0.0
C1416 C 0.64244 0.09503 0.13604 0.0
C1417 C 0.65031 0.11966 0.13149 0.0
C1418 C 0.66857 0.13727 0.13623 0.0
H1419 H 0.63193 0.19098 0.15668 0.0
H1420 H 0.64619 0.18488 0.14465 0.0
H1421 H 0.63211 0.15706 0.15161 0.0
H1422 H 0.68267 0.09826 0.15644 0.0
H1423 H 0.651 0.06793 0.14839 0.0
H1424 H 0.15547 0.72711 0.22619 0.0
H1425 H 0.12137 0.70403 0.21617 0.0
H1426 H 0.17821 0.63869 0.21061 0.0
H1427 H 0.2117 0.66068 0.22117 0.0
H1428 H 0.13103 0.70077 0.19755 0.0
H1429 H 0.10969 0.5963 0.20987 0.0
H1430 H 0.12484 0.62122 0.21803 0.0
H1431 H 0.14586 0.60112 0.20984 0.0
C1432 C 0.16029 0.70713 0.22329 0.0
C1433 C 0.18661 0.69599 0.22433 0.0
C1434 C 0.14073 0.69402 0.21748 0.0
C1435 C 0.14716 0.66966 0.21257 0.0
C1436 C 0.17244 0.6572 0.21442 0.0
H1437 H 0.14776 0.60525 0.15693 0.0
H1438 H 0.15131 0.62074 0.17404 0.0
C1439 C 0.19185 0.67007 0.22035 0.0
C1440 C 0.13061 0.66053 0.204 0.0
H1441 H 0.11123 0.60304 0.19167 0.0
C1442 C 0.12576 0.67953 0.19642 0.0
C1443 C 0.12363 0.63287 0.20248 0.0
C1444 C 0.12604 0.61186 0.21057 0.0
C1445 C 0.11662 0.67122 0.18709 0.0
C1446 C 0.11229 0.64325 0.18531 0.0
C1447 C 0.11493 0.62449 0.19307 0.0
C1448 C 0.10905 0.63293 0.17515 0.0
C1449 C 0.11371 0.69202 0.17894 0.0
C1450 C 0.08408 0.63489 0.17016 0.0
C1451 C 0.08197 0.62608 0.16035 0.0
C1452 C 0.10488 0.6154 0.15544 0.0
C1453 C 0.12982 0.61356 0.1605 0.0
C1454 C 0.13184 0.62218 0.17028 0.0
H1455 H 0.11767 0.7131 0.18156 0.0
H1456 H 0.12819 0.68725 0.17287 0.0
H1457 H 0.09278 0.69111 0.17582 0.0
H1458 H 0.06635 0.64329 0.17384 0.0
H1459 H 0.06247 0.62763 0.15663 0.0
H1460 H 0.70771 0.82314 0.41484 0.0
H1461 H 0.70311 0.82981 0.43274 0.0
H1462 H 0.69985 0.91681 0.42831 0.0
H1463 H 0.70492 0.91039 0.41053 0.0
H1464 H 0.7365 0.89916 0.44375 0.0
H1465 H 0.63256 0.85338 0.4469 0.0
H1466 H 0.65968 0.83379 0.44145 0.0
H1467 H 0.64636 0.86286 0.43502 0.0
C1468 C 0.70563 0.84365 0.41769 0.0
C1469 C 0.70643 0.86628 0.41131 0.0
C1470 C 0.70319 0.8474 0.42791 0.0
C1471 C 0.70127 0.87378 0.43181 0.0
C1472 C 0.70161 0.89628 0.42542 0.0
H1473 H 0.64788 0.98913 0.46238 0.0
H1474 H 0.6824 0.9582 0.45648 0.0
C1475 C 0.7042 0.89259 0.41526 0.0
C1476 C 0.69774 0.87869 0.4425 0.0
H1477 H 0.64674 0.88249 0.45945 0.0
C1478 C 0.71722 0.89483 0.44736 0.0
C1479 C 0.67295 0.87236 0.44729 0.0
C1480 C 0.65156 0.8547 0.44245 0.0
C1481 C 0.71107 0.90765 0.45634 0.0
C1482 C 0.68474 0.90447 0.4604 0.0
C1483 C 0.66687 0.88517 0.45627 0.0
C1484 C 0.6724 0.92573 0.46672 0.0
C1485 C 0.73194 0.92627 0.46095 0.0
C1486 C 0.65625 0.91852 0.47487 0.0
C1487 C 0.6363 0.93648 0.47834 0.0
C1488 C 0.63195 0.96162 0.47356 0.0
C1489 C 0.65056 0.97005 0.46628 0.0
C1490 C 0.67059 0.95226 0.4629 0.0
H1491 H 0.75277 0.91773 0.46004 0.0
H1492 H 0.73152 0.94627 0.45712 0.0
H1493 H 0.7279 0.92954 0.46894 0.0
H1494 H 0.65732 0.89815 0.47793 0.0
H1495 H 0.62278 0.92969 0.48417 0.0
H1496 H 0.41146 0.4554 0.65387 0.0
H1497 H 0.40717 0.44029 0.67101 0.0
H1498 H 0.49454 0.43266 0.67319 0.0
H1499 H 0.49915 0.4478 0.65595 0.0
H1500 H 0.43711 0.38569 0.67854 0.0
H1501 H 0.45917 0.48399 0.69755 0.0
H1502 H 0.44354 0.48377 0.68545 0.0
H1503 H 0.47836 0.47343 0.68681 0.0
C1504 C 0.42978 0.45043 0.65797 0.0
C1505 C 0.45562 0.45268 0.65358 0.0
C1506 C 0.42729 0.44195 0.66775 0.0
C1507 C 0.45057 0.43571 0.67332 0.0
C1508 C 0.47643 0.43768 0.66898 0.0
H1509 H 0.41243 0.34563 0.72665 0.0
H1510 H 0.44409 0.36764 0.71536 0.0
C1511 C 0.47896 0.44614 0.65915 0.0
C1512 C 0.44719 0.42596 0.68353 0.0
H1513 H 0.4406 0.4485 0.70726 0.0
C1514 C 0.43849 0.3991 0.68489 0.0
C1515 C 0.44888 0.44381 0.69168 0.0
C1516 C 0.45801 0.47292 0.6904 0.0
C1517 C 0.4298 0.3899 0.69417 0.0
C1518 C 0.43047 0.40804 0.70233 0.0
C1519 C 0.44047 0.4346 0.70103 0.0
C1520 C 0.41686 0.40078 0.71172 0.0
C1521 C 0.41808 0.36149 0.69495 0.0
C1522 C 0.39239 0.41386 0.71422 0.0
C1523 C 0.37442 0.40174 0.7209 0.0
C1524 C 0.38053 0.37614 0.72503 0.0
C1525 C 0.40681 0.36522 0.72358 0.0
C1526 C 0.42495 0.37764 0.71703 0.0
H1527 H 0.41484 0.35199 0.68758 0.0
H1528 H 0.43234 0.34835 0.69917 0.0
H1529 H 0.39825 0.36181 0.69891 0.0
H1530 H 0.38598 0.43203 0.7103 0.0
H1531 H 0.35473 0.41115 0.72211 0.0
H1532 H 0.97593 0.15552 0.98341 0.0
H1533 H 0.95398 0.19258 0.97465 0.0
H1534 H 0.88627 0.13987 0.9676 0.0
H1535 H 0.90718 0.10325 0.97698 0.0
H1536 H 0.95371 0.18219 0.95601 0.0
H1537 H 0.84876 0.21114 0.96545 0.0
H1538 H 0.87097 0.19484 0.97433 0.0
H1539 H 0.85102 0.17476 0.96579 0.0
C1540 C 0.95556 0.15218 0.98058 0.0
C1541 C 0.94376 0.12599 0.98058 0.0
C1542 C 0.94305 0.17352 0.97549 0.0
C1543 C 0.91877 0.16893 0.97025 0.0
C1544 C 0.90494 0.14413 0.97159 0.0
H1545 H 0.88471 0.16498 0.91127 0.0
H1546 H 0.89935 0.16239 0.92853 0.0
C1547 C 0.91718 0.12293 0.97684 0.0
C1548 C 0.91238 0.18574 0.96144 0.0
H1549 H 0.85871 0.20727 0.9474 0.0
C1550 C 0.93307 0.1886 0.9543 0.0
C1551 C 0.88559 0.19429 0.95912 0.0
C1552 C 0.86296 0.19382 0.96666 0.0
C1553 C 0.92714 0.19709 0.94467 0.0
C1554 C 0.89986 0.20261 0.94209 0.0
C1555 C 0.87958 0.20247 0.9494 0.0
C1556 C 0.89172 0.20496 0.93164 0.0
C1557 C 0.94982 0.19841 0.93715 0.0
C1558 C 0.88274 0.22981 0.92774 0.0
C1559 C 0.87464 0.23141 0.91785 0.0
C1560 C 0.87506 0.20807 0.9118 0.0
C1561 C 0.88427 0.18329 0.91574 0.0
C1562 C 0.89259 0.18178 0.92558 0.0
H1563 H 0.97008 0.20056 0.94074 0.0
H1564 H 0.94991 0.17931 0.93276 0.0
H1565 H 0.94673 0.21573 0.93198 0.0
H1566 H 0.88195 0.24785 0.93234 0.0
H1567 H 0.86745 0.25077 0.91501 0.0
H1568 H 0.82324 0.66964 0.716 0.0
H1569 H 0.85516 0.6382 0.70879 0.0
H1570 H 0.91355 0.65626 0.73171 0.0
H1571 H 0.88092 0.68755 0.73933 0.0
H1572 H 0.93073 0.67243 0.71378 0.0
H1573 H 0.89499 0.56696 0.71009 0.0
H1574 H 0.86698 0.58928 0.70756 0.0
H1575 H 0.8824 0.58933 0.71969 0.0
C1576 C 0.84212 0.66595 0.71992 0.0
C1577 C 0.84969 0.68185 0.72813 0.0
C1578 C 0.86053 0.64771 0.71574 0.0
C1579 C 0.88687 0.64493 0.71967 0.0
C1580 C 0.89333 0.65816 0.72856 0.0
H1581 H 0.99809 0.61116 0.66958 0.0
H1582 H 0.98754 0.61585 0.68725 0.0
C1583 C 0.87472 0.67625 0.73283 0.0
C1584 C 0.90861 0.63446 0.7131 0.0
H1585 H 0.91627 0.58706 0.69493 0.0
C1586 C 0.92847 0.65319 0.70992 0.0
C1587 C 0.90586 0.60934 0.7081 0.0
C1588 C 0.88655 0.58752 0.71164 0.0
C1589 C 0.94284 0.64908 0.70109 0.0
C1590 C 0.93728 0.62561 0.69543 0.0
C1591 C 0.92007 0.60532 0.69924 0.0
C1592 C 0.94474 0.62421 0.68489 0.0
C1593 C 0.96164 0.6711 0.69732 0.0
C1594 C 0.92427 0.62807 0.67779 0.0
C1595 C 0.93017 0.62561 0.66777 0.0
C1596 C 0.95669 0.61912 0.66465 0.0
C1597 C 0.97749 0.61636 0.67177 0.0
C1598 C 0.97151 0.61883 0.68184 0.0
H1599 H 0.96396 0.68808 0.70269 0.0
H1600 H 0.98208 0.66236 0.69579 0.0
H1601 H 0.9536 0.67945 0.69027 0.0
H1602 H 0.90352 0.6325 0.68004 0.0
H1603 H 0.91372 0.62781 0.66248 0.0
H1604 H 0.13015 0.14648 0.48271 0.0
H1605 H 0.16076 0.17764 0.4739 0.0
H1606 H 0.17366 0.11657 0.45148 0.0
H1607 H 0.14301 0.08584 0.45997 0.0
H1608 H 0.22013 0.15179 0.45514 0.0
H1609 H 0.12235 0.20763 0.44883 0.0
H1610 H 0.1346 0.20275 0.46124 0.0
H1611 H 0.1223 0.17413 0.45429 0.0
C1612 C 0.14006 0.13948 0.47603 0.0
C1613 C 0.13355 0.1139 0.47192 0.0
C1614 C 0.15763 0.15726 0.47105 0.0
C1615 C 0.16893 0.14954 0.46195 0.0
C1616 C 0.16509 0.1229 0.4585 0.0
H1617 H 0.2064 0.15984 0.40512 0.0
H1618 H 0.2025 0.15399 0.42292 0.0
C1619 C 0.14753 0.10524 0.46341 0.0
C1620 C 0.18009 0.16979 0.45498 0.0
H1621 H 0.15621 0.2118 0.43686 0.0
C1622 C 0.20656 0.16575 0.45134 0.0
C1623 C 0.16241 0.18824 0.4501 0.0
C1624 C 0.13379 0.19357 0.45375 0.0
C1625 C 0.2147 0.17728 0.44234 0.0
C1626 C 0.19567 0.19269 0.43682 0.0
C1627 C 0.17056 0.19961 0.44107 0.0
C1628 C 0.19912 0.19712 0.4261 0.0
C1629 C 0.24293 0.17127 0.43848 0.0
C1630 C 0.1971 0.22323 0.42194 0.0
C1631 C 0.1989 0.22661 0.41169 0.0
C1632 C 0.20248 0.20387 0.4055 0.0
C1633 C 0.20369 0.17775 0.40969 0.0
C1634 C 0.20193 0.17442 0.41989 0.0
H1635 H 0.25768 0.16907 0.44467 0.0
H1636 H 0.2426 0.15169 0.43438 0.0
H1637 H 0.25019 0.18754 0.43342 0.0
H1638 H 0.19434 0.24092 0.42662 0.0
H1639 H 0.198 0.247 0.40864 0.0
H1640 H 0.66507 0.45287 0.16014 0.0
H1641 H 0.67413 0.44868 0.17781 0.0
H1642 H 0.58785 0.45282 0.18388 0.0
H1643 H 0.57854 0.45645 0.16612 0.0
H1644 H 0.66002 0.48594 0.19304 0.0
H1645 H 0.61202 0.38387 0.1985 0.0
H1646 H 0.61972 0.39678 0.18633 0.0
H1647 H 0.59162 0.41057 0.19319 0.0
C1648 C 0.64799 0.45249 0.16522 0.0
C1649 C 0.6211 0.45471 0.16175 0.0
C1650 C 0.65319 0.45037 0.17531 0.0
C1651 C 0.63166 0.45049 0.18214 0.0
C1652 C 0.60472 0.45242 0.17872 0.0
H1653 H 0.68196 0.38363 0.23805 0.0
H1654 H 0.6529 0.41678 0.22962 0.0
C1655 C 0.59946 0.45437 0.16858 0.0
C1656 C 0.63801 0.44791 0.19278 0.0
H1657 H 0.63977 0.4004 0.21109 0.0
C1658 C 0.65505 0.46756 0.19712 0.0
C1659 C 0.63098 0.42424 0.19815 0.0
C1660 C 0.61268 0.40252 0.19385 0.0
C1661 C 0.66746 0.46283 0.2063 0.0
C1662 C 0.6629 0.43775 0.21114 0.0
C1663 C 0.64333 0.41963 0.20735 0.0
C1664 C 0.68264 0.42661 0.21836 0.0
C1665 C 0.68675 0.48391 0.2104 0.0
C1666 C 0.70955 0.42246 0.21521 0.0
C1667 C 0.72591 0.40309 0.21982 0.0
C1668 C 0.71567 0.38745 0.22771 0.0
C1669 C 0.69017 0.3946 0.23177 0.0
C1670 C 0.6736 0.41379 0.22704 0.0
H1671 H 0.67956 0.50478 0.20858 0.0
H1672 H 0.68893 0.48203 0.21854 0.0
H1673 H 0.70711 0.48126 0.20695 0.0
H1674 H 0.7169 0.43173 0.20844 0.0
H1675 H 0.74528 0.39835 0.2164 0.0
H1676 H 0.34133 0.82807 0.911 0.0
H1677 H 0.34576 0.83837 0.92865 0.0
H1678 H 0.39042 0.91157 0.92143 0.0
H1679 H 0.3845 0.90219 0.90384 0.0
H1680 H 0.38405 0.84334 0.94114 0.0
H1681 H 0.33517 0.94334 0.93924 0.0
H1682 H 0.33411 0.91994 0.92897 0.0
H1683 H 0.3621 0.94363 0.93033 0.0
C1684 C 0.35229 0.84623 0.91322 0.0
C1685 C 0.3625 0.86449 0.90612 0.0
C1686 C 0.35462 0.85218 0.92329 0.0
C1687 C 0.36749 0.87628 0.92636 0.0
C1688 C 0.37925 0.89352 0.91923 0.0
H1689 H 0.47554 0.91461 0.96717 0.0
H1690 H 0.44212 0.88815 0.95826 0.0
C1691 C 0.37632 0.88795 0.9092 0.0
C1692 C 0.36972 0.88332 0.93698 0.0
H1693 H 0.37203 0.93928 0.9517 0.0
C1694 C 0.38074 0.86414 0.94356 0.0
C1695 C 0.36374 0.90984 0.94044 0.0
C1696 C 0.34775 0.93015 0.93437 0.0
C1697 C 0.38944 0.87196 0.95302 0.0
C1698 C 0.38852 0.89987 0.95567 0.0
C1699 C 0.37387 0.91802 0.94963 0.0
C1700 C 0.40715 0.91163 0.96322 0.0
C1701 C 0.40051 0.85038 0.95987 0.0
C1702 C 0.39906 0.93391 0.96908 0.0
C1703 C 0.4186 0.94994 0.97388 0.0
C1704 C 0.44637 0.94339 0.97311 0.0
C1705 C 0.45418 0.91979 0.96802 0.0
C1706 C 0.43487 0.90435 0.963 0.0
H1707 H 0.38743 0.83191 0.95956 0.0
H1708 H 0.42116 0.8442 0.95737 0.0
H1709 H 0.40157 0.85754 0.96764 0.0
H1710 H 0.37785 0.94003 0.96939 0.0
H1711 H 0.4122 0.96811 0.97779 0.0
H1712 H 0.82623 0.39783 0.90085 0.0
H1713 H 0.85627 0.43309 0.90676 0.0
H1714 H 0.91483 0.41306 0.8841 0.0
H1715 H 0.88412 0.3778 0.87785 0.0
H1716 H 0.93302 0.40099 0.90214 0.0
H1717 H 0.89366 0.5053 0.90389 0.0
H1718 H 0.86618 0.48263 0.90676 0.0
H1719 H 0.88191 0.48121 0.8947 0.0
C1720 C 0.84469 0.40179 0.8967 0.0
C1721 C 0.85309 0.38432 0.88906 0.0
C1722 C 0.86197 0.42226 0.90009 0.0
C1723 C 0.88797 0.42566 0.89592 0.0
C1724 C 0.89488 0.41075 0.88744 0.0
H1725 H 0.99259 0.45779 0.94755 0.0
H1726 H 0.9853 0.45556 0.92962 0.0
C1727 C 0.87742 0.39037 0.88397 0.0
C1728 C 0.90944 0.43807 0.90215 0.0
H1729 H 0.91409 0.4875 0.91971 0.0
C1730 C 0.92982 0.4205 0.90572 0.0
C1731 C 0.90561 0.46363 0.90673 0.0
C1732 C 0.88579 0.48432 0.90271 0.0
C1733 C 0.94314 0.42579 0.91469 0.0
C1734 C 0.93616 0.44951 0.92002 0.0
C1735 C 0.91892 0.46899 0.91569 0.0
C1736 C 0.94147 0.45148 0.93073 0.0
C1737 C 0.96203 0.40451 0.91893 0.0
C1738 C 0.91927 0.44971 0.93724 0.0
C1739 C 0.92332 0.45094 0.94741 0.0
C1740 C 0.9497 0.45389 0.95127 0.0
C1741 C 0.97206 0.45511 0.94477 0.0
C1742 C 0.96794 0.45404 0.93454 0.0
H1743 H 0.96403 0.38643 0.91405 0.0
H1744 H 0.98259 0.41344 0.92002 0.0
H1745 H 0.95444 0.39765 0.92626 0.0
H1746 H 0.8987 0.44741 0.93443 0.0
H1747 H 0.90571 0.45008 0.95224 0.0
H1748 H 0.42023 0.08731 0.64901 0.0
H1749 H 0.39115 0.11659 0.65876 0.0
H1750 H 0.40963 0.18438 0.63961 0.0
H1751 H 0.43841 0.15474 0.62947 0.0
H1752 H 0.42655 0.19184 0.6587 0.0
H1753 H 0.31954 0.15781 0.65913 0.0
H1754 H 0.34193 0.12906 0.66004 0.0
H1755 H 0.34246 0.14989 0.64906 0.0
C1756 C 0.41713 0.10802 0.64649 0.0
C1757 C 0.43213 0.11871 0.63853 0.0
C1758 C 0.40034 0.12485 0.65212 0.0
C1759 C 0.39816 0.15268 0.64991 0.0
C1760 C 0.411 0.16292 0.64142 0.0
H1761 H 0.36603 0.25093 0.70361 0.0
H1762 H 0.37241 0.24362 0.68579 0.0
C1763 C 0.42763 0.14598 0.6357 0.0
C1764 C 0.38783 0.17127 0.65764 0.0
H1765 H 0.3376 0.17477 0.67499 0.0
C1766 C 0.4067 0.18898 0.66209 0.0
C1767 C 0.36193 0.16757 0.66201 0.0
C1768 C 0.34024 0.15024 0.65723 0.0
C1769 C 0.40159 0.20048 0.6714 0.0
C1770 C 0.3768 0.19438 0.67623 0.0
C1771 C 0.35678 0.17908 0.6713 0.0
C1772 C 0.37312 0.19964 0.68689 0.0
C1773 C 0.42371 0.21689 0.67638 0.0
C1774 C 0.37158 0.17735 0.69336 0.0
C1775 C 0.36797 0.18141 0.70345 0.0
C1776 C 0.36583 0.20788 0.70729 0.0
C1777 C 0.36794 0.2303 0.70085 0.0
C1778 C 0.37146 0.22618 0.69069 0.0
H1779 H 0.44285 0.21739 0.67199 0.0
H1780 H 0.41659 0.23815 0.67742 0.0
H1781 H 0.4283 0.2083 0.68379 0.0
H1782 H 0.37306 0.15671 0.69056 0.0
H1783 H 0.36634 0.16375 0.70822 0.0
H1784 H 0.73135 0.67266 0.39803 0.0
H1785 H 0.69732 0.64291 0.40498 0.0
H1786 H 0.64107 0.66478 0.3818 0.0
H1787 H 0.67585 0.69414 0.3744 0.0
H1788 H 0.62388 0.68045 0.40014 0.0
H1789 H 0.65472 0.57298 0.40221 0.0
H1790 H 0.68355 0.59404 0.40499 0.0
H1791 H 0.66807 0.59586 0.3929 0.0
C1792 C 0.71244 0.67017 0.39401 0.0
C1793 C 0.70627 0.68647 0.38575 0.0
C1794 C 0.69281 0.65295 0.39804 0.0
C1795 C 0.66657 0.65162 0.39393 0.0
C1796 C 0.66121 0.66552 0.38508 0.0
H1797 H 0.55927 0.60808 0.44422 0.0
H1798 H 0.56691 0.61508 0.42642 0.0
C1799 C 0.68106 0.68252 0.38093 0.0
C1800 C 0.6441 0.6414 0.40022 0.0
H1801 H 0.63376 0.5921 0.41754 0.0
C1802 C 0.62507 0.66062 0.40366 0.0
C1803 C 0.64543 0.61551 0.40476 0.0
C1804 C 0.6639 0.59337 0.40092 0.0
C1805 C 0.61028 0.65599 0.41237 0.0
C1806 C 0.61463 0.63161 0.41764 0.0
C1807 C 0.6308 0.61098 0.41351 0.0
C1808 C 0.60815 0.62981 0.42825 0.0
C1809 C 0.59248 0.67829 0.41649 0.0
C1810 C 0.62858 0.63656 0.43506 0.0
C1811 C 0.62436 0.63265 0.44513 0.0
C1812 C 0.59958 0.62196 0.44857 0.0
C1813 C 0.57853 0.61653 0.44177 0.0
C1814 C 0.58287 0.62031 0.43162 0.0
H1815 H 0.58806 0.69427 0.41089 0.0
H1816 H 0.57293 0.66966 0.41921 0.0
H1817 H 0.60295 0.68794 0.42287 0.0
H1818 H 0.64818 0.64405 0.43254 0.0
H1819 H 0.64091 0.63705 0.4502 0.0
H1820 H 0.20379 0.82237 0.20361 0.0
H1821 H 0.19666 0.83112 0.18591 0.0
H1822 H 0.20542 0.9174 0.19109 0.0
H1823 H 0.21282 0.90891 0.20861 0.0
H1824 H 0.15672 0.86129 0.17716 0.0
H1825 H 0.25656 0.90607 0.16792 0.0
H1826 H 0.25096 0.88656 0.17908 0.0
H1827 H 0.24254 0.9223 0.17864 0.0
C1828 C 0.20412 0.84318 0.20095 0.0
C1829 C 0.20887 0.86497 0.20747 0.0
C1830 C 0.20029 0.84811 0.19085 0.0
C1831 C 0.2014 0.87482 0.18716 0.0
C1832 C 0.20546 0.89655 0.19373 0.0
H1833 H 0.14074 0.98607 0.15101 0.0
H1834 H 0.17064 0.95724 0.16072 0.0
C1835 C 0.20928 0.89169 0.20377 0.0
C1836 C 0.196 0.88075 0.17663 0.0
H1837 H 0.21783 0.92218 0.15799 0.0
C1838 C 0.17039 0.87381 0.17278 0.0
C1839 C 0.21408 0.89676 0.17091 0.0
C1840 C 0.24269 0.90307 0.17432 0.0
C1841 C 0.16111 0.88509 0.16387 0.0
C1842 C 0.17815 0.90347 0.15867 0.0
C1843 C 0.20479 0.9082 0.16203 0.0
C1844 C 0.16658 0.92209 0.15119 0.0
C1845 C 0.13223 0.87934 0.1606 0.0
C1846 C 0.15579 0.91235 0.14227 0.0
C1847 C 0.1387 0.92898 0.1366 0.0
C1848 C 0.13216 0.95548 0.13982 0.0
C1849 C 0.14538 0.96592 0.14823 0.0
C1850 C 0.16247 0.94937 0.15384 0.0
H1851 H 0.12104 0.86625 0.16594 0.0
H1852 H 0.1208 0.89872 0.15969 0.0
H1853 H 0.13251 0.86884 0.15334 0.0
H1854 H 0.15914 0.89142 0.14004 0.0
H1855 H 0.12931 0.92054 0.13003 0.0
H1856 H 0.57133 0.94792 0.95461 0.0
H1857 H 0.57567 0.93344 0.93733 0.0
H1858 H 0.6627 0.92615 0.941 0.0
H1859 H 0.65868 0.9408 0.95823 0.0
H1860 H 0.61774 0.96061 0.92187 0.0
H1861 H 0.62683 0.84988 0.93001 0.0
H1862 H 0.60911 0.87327 0.93809 0.0
H1863 H 0.6457 0.87252 0.93794 0.0
C1864 C 0.59137 0.94307 0.95175 0.0
C1865 C 0.6147 0.94537 0.95776 0.0
C1866 C 0.59378 0.93499 0.94189 0.0
C1867 C 0.61947 0.92888 0.93797 0.0
C1868 C 0.64271 0.93086 0.94396 0.0
H1869 H 0.71429 0.90572 0.88901 0.0
H1870 H 0.68299 0.92799 0.90038 0.0
C1871 C 0.64037 0.93911 0.95378 0.0
C1872 C 0.62239 0.91996 0.92763 0.0
H1873 H 0.64125 0.86468 0.91417 0.0
C1874 C 0.62233 0.93956 0.92008 0.0
C1875 C 0.62786 0.89248 0.92538 0.0
C1876 C 0.62723 0.87068 0.93325 0.0
C1877 C 0.62953 0.93254 0.91036 0.0
C1878 C 0.63725 0.90539 0.90827 0.0
C1879 C 0.63531 0.88553 0.91573 0.0
C1880 C 0.65125 0.8975 0.899 0.0
C1881 C 0.62957 0.95437 0.90252 0.0
C1882 C 0.64334 0.8737 0.89403 0.0
C1883 C 0.66157 0.86049 0.88773 0.0
C1884 C 0.68801 0.87098 0.88628 0.0
C1885 C 0.69434 0.89679 0.89017 0.0
C1886 C 0.67623 0.90979 0.89658 0.0
H1887 H 0.61366 0.96993 0.90406 0.0
H1888 H 0.64961 0.96488 0.90256 0.0
H1889 H 0.62605 0.94572 0.89505 0.0
H1890 H 0.62412 0.8639 0.89578 0.0
H1891 H 0.65585 0.84067 0.8849 0.0
H1892 H 0.36228 0.31098 0.19707 0.0
H1893 H 0.37916 0.31457 0.18007 0.0
H1894 H 0.40212 0.39811 0.18537 0.0
H1895 H 0.38514 0.39485 0.20233 0.0
H1896 H 0.36012 0.35572 0.16545 0.0
H1897 H 0.47101 0.3594 0.17311 0.0
H1898 H 0.44665 0.34506 0.18169 0.0
H1899 H 0.45139 0.38135 0.18101 0.0
C1900 C 0.37124 0.33003 0.19465 0.0
C1901 C 0.37247 0.35267 0.20103 0.0
C1902 C 0.38074 0.33201 0.18494 0.0
C1903 C 0.39196 0.35651 0.18154 0.0
C1904 C 0.39373 0.37894 0.18794 0.0
H1905 H 0.41145 0.46111 0.13723 0.0
H1906 H 0.38983 0.42417 0.14624 0.0
C1907 C 0.38402 0.37707 0.19761 0.0
C1908 C 0.40095 0.35946 0.1712 0.0
H1909 H 0.45604 0.38003 0.15795 0.0
C1910 C 0.3812 0.36038 0.1637 0.0
C1911 C 0.42849 0.3647 0.1689 0.0
C1912 C 0.45068 0.36232 0.17658 0.0
C1913 C 0.38798 0.36917 0.15412 0.0
C1914 C 0.41502 0.37756 0.15214 0.0
C1915 C 0.43519 0.37383 0.15942 0.0
C1916 C 0.42217 0.39498 0.14357 0.0
C1917 C 0.36589 0.37045 0.14639 0.0
C1918 C 0.44669 0.3905 0.13847 0.0
C1919 C 0.45957 0.41198 0.13358 0.0
C1920 C 0.44793 0.43823 0.13366 0.0
C1921 C 0.42127 0.44134 0.1373 0.0
C1922 C 0.40864 0.41999 0.14234 0.0
H1923 H 0.35142 0.3532 0.14729 0.0
H1924 H 0.35409 0.38956 0.14734 0.0
H1925 H 0.37441 0.36992 0.13878 0.0
H1926 H 0.45741 0.37132 0.13925 0.0
H1927 H 0.48003 0.40863 0.13083 0.0
H1928 H 1.00488 0.1244 0.45608 0.0
H1929 H 1.00174 0.13967 0.43884 0.0
H1930 H 0.91401 0.13921 0.44087 0.0
H1931 H 0.91682 0.12391 0.45805 0.0
H1932 H 0.95459 0.10885 0.42255 0.0
H1933 H 0.95689 0.21991 0.43098 0.0
H1934 H 0.97601 0.19528 0.43811 0.0
H1935 H 0.93976 0.19767 0.4396 0.0
C1936 C 0.98491 0.12769 0.45286 0.0
C1937 C 0.96105 0.12305 0.4584 0.0
C1938 C 0.98322 0.13623 0.44303 0.0
C1939 C 0.95768 0.14027 0.43866 0.0
C1940 C 0.93388 0.13596 0.44417 0.0
H1941 H 0.8531 0.16915 0.39493 0.0
H1942 H 0.88794 0.1456 0.40442 0.0
C1943 C 0.93552 0.1274 0.45398 0.0
C1944 C 0.95528 0.14967 0.42838 0.0
H1945 H 0.939 0.20676 0.41549 0.0
C1946 C 0.95189 0.1303 0.42087 0.0
C1947 C 0.9524 0.17761 0.42625 0.0
C1948 C 0.95657 0.19898 0.43412 0.0
C1949 C 0.94328 0.13816 0.4114 0.0
C1950 C 0.93737 0.16591 0.40957 0.0
C1951 C 0.94343 0.18543 0.41685 0.0
C1952 C 0.91998 0.17474 0.40121 0.0
C1953 C 0.93941 0.11655 0.40361 0.0
C1954 C 0.92657 0.19838 0.39588 0.0
C1955 C 0.90637 0.21231 0.39065 0.0
C1956 C 0.87931 0.20272 0.39067 0.0
C1957 C 0.87365 0.17728 0.39495 0.0
C1958 C 0.89375 0.16353 0.40026 0.0
H1959 H 0.95517 0.10041 0.40435 0.0
H1960 H 0.91923 0.10671 0.40464 0.0
H1961 H 0.94044 0.12519 0.39603 0.0
H1962 H 0.94667 0.20741 0.39652 0.0
H1963 H 0.91148 0.23188 0.38744 0.0
H1964 H 0.10789 0.64974 0.63175 0.0
H1965 H 0.13622 0.68783 0.63682 0.0
H1966 H 0.19211 0.63186 0.65082 0.0
H1967 H 0.16506 0.59373 0.64511 0.0
H1968 H 0.13327 0.69454 0.65514 0.0
H1969 H 0.24258 0.69311 0.6478 0.0
H1970 H 0.21902 0.67497 0.6399 0.0
H1971 H 0.23377 0.65866 0.65065 0.0
C1972 C 0.12712 0.64536 0.63535 0.0
C1973 C 0.13375 0.6187 0.63836 0.0
C1974 C 0.14332 0.66732 0.63828 0.0
C1975 C 0.16605 0.66294 0.6444 0.0
C1976 C 0.17487 0.63606 0.64606 0.0
H1977 H 0.20872 0.66927 0.69994 0.0
H1978 H 0.20094 0.66695 0.68215 0.0
C1979 C 0.15901 0.61411 0.64295 0.0
C1980 C 0.17492 0.68447 0.6514 0.0
H1981 H 0.22967 0.69919 0.66597 0.0
C1982 C 0.15451 0.69665 0.65723 0.0
C1983 C 0.20255 0.68779 0.65414 0.0
C1984 C 0.22561 0.6781 0.64768 0.0
C1985 C 0.16064 0.70816 0.66643 0.0
C1986 C 0.18785 0.7076 0.6698 0.0
C1987 C 0.20869 0.69896 0.66342 0.0
C1988 C 0.19397 0.71023 0.68042 0.0
C1989 C 0.13767 0.71793 0.67296 0.0
C1990 C 0.19222 0.73533 0.6853 0.0
C1991 C 0.19639 0.73669 0.69552 0.0
C1992 C 0.20234 0.71293 0.70094 0.0
C1993 C 0.20394 0.68786 0.69599 0.0
C1994 C 0.19983 0.68656 0.68582 0.0
H1995 H 0.1175 0.71655 0.66924 0.0
H1996 H 0.13699 0.70562 0.67984 0.0
H1997 H 0.14125 0.73946 0.67509 0.0
H1998 H 0.18762 0.75377 0.68123 0.0
H1999 H 0.19528 0.75633 0.69914 0.0
H2000 H 0.64692 0.10392 0.65702 0.0
H2001 H 0.65047 0.11704 0.67437 0.0
H2002 H 0.56994 0.15218 0.67319 0.0
H2003 H 0.566 0.13871 0.65574 0.0
H2004 H 0.61587 0.18634 0.68059 0.0
H2005 H 0.60809 0.08615 0.69928 0.0
H2006 H 0.62972 0.08643 0.68855 0.0
H2007 H 0.59381 0.09271 0.68717 0.0
C2008 C 0.62994 0.11444 0.66043 0.0
C2009 C 0.60624 0.12047 0.65503 0.0
C2010 C 0.63187 0.12158 0.67037 0.0
C2011 C 0.61024 0.13503 0.67507 0.0
C2012 C 0.58662 0.14139 0.66969 0.0
H2013 H 0.65624 0.22563 0.72775 0.0
H2014 H 0.62248 0.20302 0.71743 0.0
C2015 C 0.58451 0.13388 0.65975 0.0
C2016 C 0.6139 0.14462 0.6853 0.0
H2017 H 0.63088 0.12176 0.7083 0.0
C2018 C 0.61843 0.17246 0.68677 0.0
C2019 C 0.61721 0.12625 0.69325 0.0
C2020 C 0.61173 0.09621 0.69204 0.0
C2021 C 0.62876 0.18224 0.69575 0.0
C2022 C 0.6337 0.16361 0.70358 0.0
C2023 C 0.62703 0.136 0.70232 0.0
C2024 C 0.65005 0.17166 0.71231 0.0
C2025 C 0.63661 0.21198 0.69639 0.0
C2026 C 0.67567 0.15958 0.71377 0.0
C2027 C 0.69479 0.17183 0.71997 0.0
C2028 C 0.68878 0.19669 0.72465 0.0
C2029 C 0.66185 0.20666 0.7242 0.0
C2030 C 0.64251 0.19398 0.71818 0.0
H2031 H 0.63597 0.22223 0.68906 0.0
H2032 H 0.62216 0.22275 0.70134 0.0
H2033 H 0.65749 0.21429 0.69945 0.0
H2034 H 0.68177 0.14198 0.70946 0.0
H2035 H 0.71498 0.163 0.72045 0.0
H2036 H 0.20374 0.41317 0.91079 0.0
H2037 H 0.19934 0.42072 0.9285 0.0
H2038 H 0.19917 0.33396 0.93358 0.0
H2039 H 0.20364 0.3261 0.91571 0.0
H2040 H 0.15808 0.36282 0.94361 0.0
H2041 H 0.25816 0.41098 0.9499 0.0
H2042 H 0.24143 0.42556 0.93936 0.0
H2043 H 0.25099 0.39013 0.93918 0.0
C2044 C 0.20263 0.39563 0.91564 0.0
C2045 C 0.20411 0.36904 0.91187 0.0
C2046 C 0.2005 0.4 0.92578 0.0
C2047 C 0.19987 0.3779 0.93235 0.0
C2048 C 0.20022 0.35125 0.92861 0.0
H2049 H 0.13034 0.43139 0.98841 0.0
H2050 H 0.16204 0.40034 0.98009 0.0
C2051 C 0.2025 0.34683 0.91842 0.0
C2052 C 0.19678 0.38331 0.94303 0.0
H2053 H 0.22096 0.42658 0.96066 0.0
C2054 C 0.1722 0.37591 0.94756 0.0
C2055 C 0.21555 0.39994 0.94817 0.0
C2056 C 0.24315 0.40685 0.94393 0.0
C2057 C 0.1642 0.38778 0.95653 0.0
C2058 C 0.18155 0.40721 0.96107 0.0
C2059 C 0.20763 0.41184 0.95714 0.0
C2060 C 0.17019 0.42775 0.96792 0.0
C2061 C 0.13596 0.38181 0.96044 0.0
C2062 C 0.16625 0.45418 0.96427 0.0
C2063 C 0.14814 0.47181 0.96892 0.0
C2064 C 0.13362 0.46334 0.97735 0.0
C2065 C 0.14055 0.43822 0.98175 0.0
C2066 C 0.1587 0.42047 0.97704 0.0
H2067 H 0.12461 0.36723 0.95569 0.0
H2068 H 0.13748 0.37293 0.96796 0.0
H2069 H 0.12395 0.40093 0.96096 0.0
H2070 H 0.17503 0.46027 0.95726 0.0
H2071 H 0.14348 0.49083 0.96524 0.0
H2072 H 0.91846 0.96467 0.15878 0.0
H2073 H 0.91619 0.95204 0.17621 0.0
H2074 H 0.99715 0.91806 0.17452 0.0
H2075 H 0.99979 0.93105 0.15698 0.0
H2076 H 0.95217 0.8834 0.18234 0.0
H2077 H 0.95949 0.98395 0.20075 0.0
H2078 H 0.93736 0.98327 0.19015 0.0
H2079 H 0.97327 0.97738 0.18857 0.0
C2080 C 0.93581 0.95452 0.1621 0.0
C2081 C 0.95923 0.94865 0.15653 0.0
C2082 C 0.93462 0.94766 0.17208 0.0
C2083 C 0.95673 0.93468 0.17665 0.0
C2084 C 0.9801 0.9285 0.17112 0.0
H2085 H 0.91226 0.84386 0.22932 0.0
H2086 H 0.94618 0.86711 0.21928 0.0
C2087 C 0.98147 0.93573 0.16112 0.0
C2088 C 0.95378 0.92522 0.18694 0.0
H2089 H 0.93726 0.94826 0.20995 0.0
C2090 C 0.94967 0.89735 0.1885 0.0
C2091 C 0.95055 0.94367 0.19486 0.0
C2092 C 0.95563 0.97375 0.19355 0.0
C2093 C 0.93971 0.8876 0.19754 0.0
C2094 C 0.93475 0.90631 0.20534 0.0
C2095 C 0.94112 0.93397 0.204 0.0
C2096 C 0.91847 0.89828 0.2141 0.0
C2097 C 0.93218 0.85779 0.19826 0.0
C2098 C 0.89272 0.91015 0.2155 0.0
C2099 C 0.8735 0.89755 0.22157 0.0
C2100 C 0.87952 0.87253 0.22614 0.0
C2101 C 0.9066 0.8629 0.22584 0.0
C2102 C 0.92605 0.87596 0.21996 0.0
H2103 H 0.93291 0.84739 0.19097 0.0
H2104 H 0.94673 0.84726 0.20324 0.0
H2105 H 0.91132 0.85533 0.20133 0.0
H2106 H 0.88659 0.92777 0.21121 0.0
H2107 H 0.85319 0.90615 0.22196 0.0
H2108 H 0.43596 0.64238 0.48635 0.0
H2109 H 0.407 0.67915 0.48018 0.0
H2110 H 0.38123 0.62789 0.45604 0.0
H2111 H 0.41074 0.59199 0.46175 0.0
H2112 H 0.42536 0.69653 0.46218 0.0
H2113 H 0.31546 0.67685 0.45891 0.0
H2114 H 0.3362 0.66084 0.46834 0.0
H2115 H 0.3336 0.64611 0.45615 0.0
C2116 C 0.42346 0.63864 0.47989 0.0
C2117 C 0.42663 0.61458 0.47432 0.0
C2118 C 0.40663 0.6596 0.47647 0.0
C2119 C 0.39213 0.65638 0.46761 0.0
C2120 C 0.39192 0.63081 0.46297 0.0
H2121 H 0.39413 0.68239 0.41204 0.0
H2122 H 0.40048 0.67826 0.42991 0.0
C2123 C 0.40905 0.6101 0.46627 0.0
C2124 C 0.38442 0.68035 0.46161 0.0
H2125 H 0.33807 0.69555 0.44371 0.0
C2126 C 0.4058 0.69735 0.45845 0.0
C2127 C 0.35891 0.68175 0.45679 0.0
C2128 C 0.3347 0.66555 0.46033 0.0
C2129 C 0.40364 0.71223 0.44965 0.0
C2130 C 0.37951 0.71019 0.44405 0.0
C2131 C 0.35677 0.69665 0.44798 0.0
C2132 C 0.37963 0.71591 0.43338 0.0
C2133 C 0.42809 0.72756 0.44582 0.0
C2134 C 0.36659 0.7389 0.4295 0.0
C2135 C 0.36339 0.74155 0.41927 0.0
C2136 C 0.37264 0.72087 0.41288 0.0
C2137 C 0.38687 0.69858 0.4168 0.0
C2138 C 0.39047 0.69621 0.42698 0.0
H2139 H 0.4426 0.7326 0.45186 0.0
H2140 H 0.4389 0.71473 0.44031 0.0
H2141 H 0.42167 0.74665 0.44207 0.0
H2142 H 0.35801 0.75415 0.43438 0.0
H2143 H 0.35214 0.75886 0.41644 0.0
H2144 H 0.33688 0.15403 0.21762 0.0
H2145 H 0.37467 0.12738 0.21135 0.0
H2146 H 0.43165 0.18266 0.22513 0.0
H2147 H 0.39386 0.21056 0.23081 0.0
H2148 H 0.43731 0.18545 0.2066 0.0
H2149 H 0.43576 0.07635 0.21458 0.0
H2150 H 0.40135 0.0856 0.21178 0.0
H2151 H 0.41811 0.1004 0.22242 0.0
C2152 C 0.35743 0.16003 0.2196 0.0
C2153 C 0.36233 0.18494 0.22439 0.0
C2154 C 0.37917 0.14441 0.21616 0.0
C2155 C 0.40618 0.1531 0.21767 0.0
C2156 C 0.41101 0.17563 0.22382 0.0
H2157 H 0.50295 0.12093 0.1638 0.0
H2158 H 0.49864 0.13 0.18158 0.0
C2159 C 0.38925 0.19156 0.22711 0.0
C2160 C 0.42747 0.14398 0.21062 0.0
H2161 H 0.44299 0.08856 0.19654 0.0
C2162 C 0.43962 0.16413 0.20467 0.0
C2163 C 0.4309 0.11626 0.20809 0.0
C2164 C 0.42101 0.09353 0.21467 0.0
C2165 C 0.45154 0.15755 0.19558 0.0
C2166 C 0.4514 0.13016 0.19244 0.0
C2167 C 0.4425 0.10967 0.19892 0.0
C2168 C 0.45505 0.12333 0.18192 0.0
C2169 C 0.46144 0.18018 0.18892 0.0
C2170 C 0.43193 0.11681 0.17631 0.0
C2171 C 0.43423 0.1119 0.16621 0.0
C2172 C 0.45976 0.11333 0.16155 0.0
C2173 C 0.48297 0.11992 0.16719 0.0
C2174 C 0.48061 0.12491 0.17733 0.0
H2175 H 0.45952 0.20056 0.19242 0.0
H2176 H 0.48318 0.17678 0.18702 0.0
H2177 H 0.44961 0.18017 0.18192 0.0
H2178 H 0.41198 0.11581 0.17974 0.0
H2179 H 0.41603 0.10666 0.16208 0.0
H2180 H 0.62998 0.64091 0.98238 0.0
H2181 H 0.66166 0.67108 0.97361 0.0
H2182 H 0.67192 0.6101 0.95098 0.0
H2183 H 0.64028 0.58033 0.95946 0.0
H2184 H 0.71966 0.64347 0.95454 0.0
H2185 H 0.62386 0.70311 0.94882 0.0
H2186 H 0.63621 0.69754 0.96118 0.0
H2187 H 0.6228 0.6695 0.95418 0.0
C2188 C 0.63955 0.63369 0.97566 0.0
C2189 C 0.63204 0.60846 0.9715 0.0
C2190 C 0.65772 0.6509 0.9707 0.0
C2191 C 0.6686 0.64298 0.96156 0.0
C2192 C 0.6637 0.61658 0.95803 0.0
H2193 H 0.70602 0.65593 0.90455 0.0
H2194 H 0.70226 0.64873 0.92229 0.0
C2195 C 0.64556 0.59948 0.96293 0.0
C2196 C 0.68034 0.663 0.95462 0.0
H2197 H 0.6578 0.70702 0.9369 0.0
C2198 C 0.70656 0.65814 0.95087 0.0
C2199 C 0.66328 0.68238 0.94992 0.0
C2200 C 0.63493 0.68856 0.95367 0.0
C2201 C 0.71502 0.66994 0.94195 0.0
C2202 C 0.69652 0.68646 0.93662 0.0
C2203 C 0.67174 0.694 0.94097 0.0
C2204 C 0.70003 0.69165 0.92594 0.0
C2205 C 0.74297 0.66315 0.93799 0.0
C2206 C 0.69857 0.71813 0.92205 0.0
C2207 C 0.70025 0.7223 0.91184 0.0
C2208 C 0.70316 0.69999 0.9054 0.0
C2209 C 0.70383 0.67352 0.90932 0.0
C2210 C 0.70217 0.66941 0.91948 0.0
H2211 H 0.75772 0.6601 0.94413 0.0
H2212 H 0.74191 0.64381 0.93376 0.0
H2213 H 0.75076 0.67942 0.93303 0.0
H2214 H 0.69634 0.7355 0.92692 0.0
H2215 H 0.69983 0.74294 0.90901 0.0
H2216 H 0.16882 0.84434 0.72654 0.0
H2217 H 0.13994 0.87428 0.71697 0.0
H2218 H 0.18625 0.94381 0.72702 0.0
H2219 H 0.2172 0.9131 0.73594 0.0
H2220 H 0.10925 0.91569 0.71567 0.0
H2221 H 0.20966 0.94497 0.69937 0.0
H2222 H 0.20725 0.92024 0.7091 0.0
H2223 H 0.20386 0.95608 0.71179 0.0
C2224 C 0.17233 0.8661 0.72702 0.0
C2225 C 0.19565 0.87641 0.73174 0.0
C2226 C 0.1557 0.88333 0.72152 0.0
C2227 C 0.16179 0.91123 0.72083 0.0
C2228 C 0.18209 0.92216 0.72702 0.0
H2229 H 0.07913 0.97906 0.6679 0.0
H2230 H 0.08856 0.97155 0.68547 0.0
C2231 C 0.19952 0.90472 0.73223 0.0
C2232 C 0.15074 0.92665 0.71226 0.0
H2233 H 0.17109 0.95431 0.69031 0.0
C2234 C 0.12271 0.92448 0.71016 0.0
C2235 C 0.16835 0.93813 0.70504 0.0
C2236 C 0.19893 0.93988 0.70637 0.0
C2237 C 0.1123 0.93082 0.70075 0.0
C2238 C 0.13024 0.94101 0.69344 0.0
C2239 C 0.15757 0.94596 0.69589 0.0
C2240 C 0.12236 0.94404 0.68292 0.0
C2241 C 0.08278 0.92458 0.69855 0.0
C2242 C 0.13826 0.93122 0.67562 0.0
C2243 C 0.13348 0.93618 0.66563 0.0
C2244 C 0.11222 0.95345 0.66275 0.0
C2245 C 0.09538 0.96525 0.66998 0.0
C2246 C 0.10068 0.96091 0.68002 0.0
H2247 H 0.07364 0.91087 0.70419 0.0
H2248 H 0.07096 0.94385 0.69853 0.0
H2249 H 0.08056 0.91489 0.69118 0.0
H2250 H 0.15502 0.91797 0.67768 0.0
H2251 H 0.14672 0.92696 0.66017 0.0
H2252 H 0.98037 0.41255 0.47643 0.0
H2253 H 0.95697 0.38294 0.46478 0.0
H2254 H 0.89358 0.44299 0.46124 0.0
H2255 H 0.91608 0.47232 0.47334 0.0
H2256 H 0.87603 0.38718 0.45822 0.0
H2257 H 0.96913 0.41591 0.43696 0.0
H2258 H 0.97472 0.39791 0.44835 0.0
H2259 H 0.96054 0.43166 0.44858 0.0
C2260 C 0.96076 0.41901 0.4736 0.0
C2261 C 0.95048 0.44524 0.47561 0.0
C2262 C 0.94752 0.40206 0.46685 0.0
C2263 C 0.92409 0.41121 0.46195 0.0
C2264 C 0.91188 0.43574 0.46488 0.0
H2265 H 0.86718 0.4128 0.40367 0.0
H2266 H 0.8835 0.41953 0.42055 0.0
C2267 C 0.92491 0.45259 0.47172 0.0
C2268 C 0.9155 0.39843 0.45257 0.0
H2269 H 0.93492 0.3926 0.42843 0.0
C2270 C 0.88901 0.38784 0.45173 0.0
C2271 C 0.93247 0.3998 0.44411 0.0
C2272 C 0.96072 0.41209 0.44446 0.0
C2273 C 0.87881 0.3792 0.44255 0.0
C2274 C 0.89559 0.38128 0.4341 0.0
C2275 C 0.92231 0.39095 0.435 0.0
C2276 C 0.88497 0.37656 0.42406 0.0
C2277 C 0.84981 0.3692 0.44179 0.0
C2278 C 0.88076 0.3501 0.42048 0.0
C2279 C 0.87163 0.34616 0.41079 0.0
C2280 C 0.86658 0.36866 0.40461 0.0
C2281 C 0.87095 0.39509 0.40825 0.0
C2282 C 0.88015 0.39898 0.41789 0.0
H2283 H 0.83898 0.37003 0.44899 0.0
H2284 H 0.83843 0.3817 0.43632 0.0
H2285 H 0.8497 0.34784 0.4391 0.0
H2286 H 0.88471 0.3326 0.42515 0.0
H2287 H 0.86835 0.32556 0.40817 0.0
H2288 H 0.49286 0.94607 0.44813 0.0
H2289 H 0.48771 0.93833 0.43029 0.0
H2290 H 0.40334 0.96269 0.43211 0.0
H2291 H 0.40819 0.97024 0.44984 0.0
H2292 H 0.44948 0.90146 0.42222 0.0
H2293 H 0.43225 1.00516 0.40776 0.0
H2294 H 0.44928 0.99861 0.41939 0.0
H2295 H 0.41261 0.99861 0.4187 0.0
C2296 C 0.47324 0.94976 0.4447 0.0
C2297 C 0.45085 0.95853 0.45036 0.0
C2298 C 0.47044 0.94562 0.43452 0.0
C2299 C 0.44539 0.95074 0.42988 0.0
C2300 C 0.42307 0.95944 0.43553 0.0
H2301 H 0.3269 0.91251 0.39464 0.0
H2302 H 0.36363 0.93986 0.40148 0.0
C2303 C 0.42574 0.96326 0.44568 0.0
C2304 C 0.44102 0.94366 0.4194 0.0
H2305 H 0.40982 0.96827 0.39875 0.0
C2306 C 0.44168 0.91604 0.41689 0.0
C2307 C 0.4312 0.96292 0.41251 0.0
C2308 C 0.43155 0.99303 0.41469 0.0
C2309 C 0.42931 0.90663 0.40821 0.0
C2310 C 0.41682 0.92571 0.40172 0.0
C2311 C 0.41924 0.95369 0.40371 0.0
C2312 C 0.39597 0.91673 0.3945 0.0
C2313 C 0.42706 0.87617 0.40673 0.0
C2314 C 0.40176 0.89661 0.38745 0.0
C2315 C 0.38076 0.88012 0.38386 0.0
C2316 C 0.3537 0.8843 0.38704 0.0
C2317 C 0.34765 0.90799 0.39243 0.0
C2318 C 0.36868 0.9239 0.39626 0.0
H2319 H 0.43517 0.86446 0.41312 0.0
H2320 H 0.40544 0.87015 0.40563 0.0
H2321 H 0.43885 0.87006 0.4001 0.0
H2322 H 0.42268 0.89155 0.38566 0.0
H2323 H 0.3863 0.86238 0.37955 0.0
H2324 H 0.86759 0.65947 0.20805 0.0
H2325 H 0.87443 0.65252 0.19039 0.0
H2326 H 0.87379 0.73945 0.18568 0.0
H2327 H 0.86724 0.74667 0.20348 0.0
H2328 H 0.83854 0.67131 0.17483 0.0
H2329 H 0.94433 0.71257 0.17182 0.0
H2330 H 0.92993 0.70317 0.18362 0.0
H2331 H 0.91834 0.73334 0.17742 0.0
C2332 C 0.86925 0.67716 0.20329 0.0
C2333 C 0.86702 0.70361 0.20714 0.0
C2334 C 0.87294 0.67314 0.1932 0.0
C2335 C 0.87448 0.69546 0.18675 0.0
C2336 C 0.8728 0.72199 0.19056 0.0
H2337 H 0.93921 0.6494 0.1294 0.0
H2338 H 0.91088 0.67963 0.13947 0.0
C2339 C 0.86919 0.72605 0.20072 0.0
C2340 C 0.87805 0.69026 0.17608 0.0
H2341 H 0.92779 0.68696 0.15858 0.0
C2342 C 0.85778 0.67533 0.17114 0.0
C2343 C 0.90294 0.69599 0.17126 0.0
C2344 C 0.92527 0.71207 0.17626 0.0
C2345 C 0.86276 0.66378 0.16185 0.0
C2346 C 0.88874 0.66703 0.1575 0.0
C2347 C 0.90789 0.68442 0.16195 0.0
C2348 C 0.89877 0.64821 0.14979 0.0
C2349 C 0.84079 0.64684 0.15705 0.0
C2350 C 0.90042 0.62035 0.15203 0.0
C2351 C 0.91694 0.60319 0.14644 0.0
C2352 C 0.93221 0.61357 0.13848 0.0
C2353 C 0.92821 0.64089 0.13562 0.0
C2354 C 0.91185 0.65816 0.1413 0.0
H2355 H 0.82024 0.65485 0.15891 0.0
H2356 H 0.8431 0.64638 0.14888 0.0
H2357 H 0.84202 0.62566 0.15989 0.0
H2358 H 0.89102 0.61231 0.15866 0.0
H2359 H 0.91966 0.58245 0.14898 0.0
H2360 H 0.18854 0.18703 0.87853 0.0
H2361 H 0.15768 0.15196 0.88496 0.0
H2362 H 0.2114 0.1397 0.90982 0.0
H2363 H 0.24177 0.1745 0.90363 0.0
H2364 H 0.18136 0.09209 0.90436 0.0
H2365 H 0.11567 0.18448 0.90843 0.0
H2366 H 0.12563 0.17327 0.89631 0.0
H2367 H 0.15059 0.1878 0.90448 0.0
C2368 C 0.19412 0.17627 0.88522 0.0
C2369 C 0.21722 0.18418 0.89072 0.0
C2370 C 0.17653 0.15617 0.88885 0.0
C2371 C 0.18193 0.14384 0.89799 0.0
C2372 C 0.20679 0.14906 0.90275 0.0
H2373 H 0.16099 0.10592 0.95363 0.0
H2374 H 0.17003 0.1087 0.93599 0.0
C2375 C 0.22427 0.16907 0.89917 0.0
C2376 C 0.16024 0.13055 0.90384 0.0
H2377 H 0.11145 0.15045 0.92026 0.0
C2378 C 0.16527 0.10437 0.90759 0.0
C2379 C 0.13894 0.14643 0.90796 0.0
C2380 C 0.13223 0.17457 0.90414 0.0
C2381 C 0.15206 0.09517 0.91615 0.0
C2382 C 0.1338 0.11283 0.92108 0.0
C2383 C 0.12586 0.13721 0.91654 0.0
C2384 C 0.12747 0.10941 0.93169 0.0
C2385 C 0.15935 0.06752 0.92025 0.0
C2386 C 0.10053 0.11034 0.93517 0.0
C2387 C 0.09528 0.10928 0.94533 0.0
C2388 C 0.11695 0.1075 0.95212 0.0
C2389 C 0.14386 0.10726 0.94859 0.0
C2390 C 0.14905 0.10832 0.93849 0.0
H2391 H 0.16364 0.05292 0.91417 0.0
H2392 H 0.17816 0.06925 0.92477 0.0
H2393 H 0.14278 0.05916 0.92495 0.0
H2394 H 0.08363 0.1118 0.93004 0.0
H2395 H 0.07432 0.10933 0.94785 0.0
H2396 H 0.59561 0.41609 0.63653 0.0
H2397 H 0.62021 0.38493 0.6473 0.0
H2398 H 0.67687 0.44889 0.65478 0.0
H2399 H 0.65382 0.47966 0.64338 0.0
H2400 H 0.70069 0.39912 0.65608 0.0
H2401 H 0.60074 0.39913 0.67571 0.0
H2402 H 0.60025 0.38489 0.66351 0.0
H2403 H 0.60721 0.42059 0.66517 0.0
C2404 C 0.61403 0.42333 0.64008 0.0
C2405 C 0.62219 0.45079 0.63932 0.0
C2406 C 0.62786 0.40548 0.64636 0.0
C2407 C 0.64955 0.41498 0.65217 0.0
C2408 C 0.65979 0.44128 0.65051 0.0
H2409 H 0.72109 0.40688 0.70785 0.0
H2410 H 0.70738 0.41377 0.69067 0.0
C2411 C 0.64638 0.45897 0.64406 0.0
C2412 C 0.65886 0.39958 0.66095 0.0
H2413 H 0.63756 0.37918 0.68383 0.0
C2414 C 0.68683 0.39431 0.66209 0.0
C2415 C 0.64071 0.39348 0.66882 0.0
C2416 C 0.61061 0.39997 0.66832 0.0
C2417 C 0.69727 0.3842 0.67102 0.0
C2418 C 0.67925 0.37928 0.67897 0.0
C2419 C 0.65118 0.38292 0.67766 0.0
C2420 C 0.68922 0.37383 0.68906 0.0
C2421 C 0.72757 0.37975 0.67204 0.0
C2422 C 0.68296 0.34929 0.69386 0.0
C2423 C 0.69074 0.34528 0.7037 0.0
C2424 C 0.7044 0.36601 0.70888 0.0
C2425 C 0.71041 0.39063 0.70406 0.0
C2426 C 0.70292 0.39447 0.69422 0.0
H2427 H 0.73756 0.37742 0.66472 0.0
H2428 H 0.73678 0.39762 0.6758 0.0
H2429 H 0.73189 0.3614 0.67659 0.0
H2430 H 0.672 0.33333 0.69 0.0
H2431 H 0.68591 0.32611 0.70726 0.0
H2432 H 0.12334 0.20302 0.3728 0.0
H2433 H 0.07755 0.22182 0.37221 0.0
H2434 H 0.11111 0.30283 0.37163 0.0
H2435 H 0.15768 0.28364 0.37184 0.0
H2436 H 0.04449 0.2467 0.38245 0.0
H2437 H 0.0564 0.32045 0.35201 0.0
H2438 H 0.08277 0.29626 0.35498 0.0
H2439 H 0.07944 0.32737 0.36198 0.0
C2440 C 0.12145 0.22497 0.3724 0.0
C2441 C 0.14546 0.24129 0.37222 0.0
C2442 C 0.0945 0.23596 0.37213 0.0
C2443 C 0.08917 0.26429 0.3717 0.0
C2444 C 0.11321 0.28091 0.3716 0.0
H2445 H 0.93728 0.36695 0.37325 0.0
H2446 H 0.98289 0.3476 0.37288 0.0
C2447 C 0.1405 0.26977 0.37178 0.0
C2448 C 0.05891 0.27547 0.37162 0.0
H2449 H 1.01512 0.32287 0.36102 0.0
C2450 C 0.03843 0.26327 0.37764 0.0
C2451 C 0.04926 0.29725 0.36548 0.0
C2452 C 0.06799 0.31094 0.35817 0.0
C2453 C 1.01034 0.27206 0.37787 0.0
C2454 C 1.00081 0.29397 0.37179 0.0
C2455 C 1.02123 0.30618 0.36577 0.0
C2456 C 0.97072 0.3054 0.37185 0.0
C2457 C 0.99128 0.25808 0.38499 0.0
C2458 C 0.94657 0.28906 0.37125 0.0
C2459 C 0.91939 0.30049 0.37141 0.0
C2460 C 0.91474 0.32899 0.37216 0.0
C2461 C 0.93893 0.34502 0.37264 0.0
C2462 C 0.96575 0.33375 0.37241 0.0
H2463 H 1.00258 0.2476 0.39101 0.0
H2464 H 0.97685 0.27281 0.38837 0.0
H2465 H 0.97931 0.24245 0.38096 0.0
H2466 H 0.94854 0.2672 0.37056 0.0
H2467 H 0.90206 0.28686 0.37106 0.0
H2468 H 0.9567 0.69093 0.63125 0.0
H2469 H 0.97447 0.73707 0.63038 0.0
H2470 H 0.05633 0.7055 0.63059 0.0
H2471 H 0.03821 0.65854 0.63108 0.0
H2472 H 0.99806 0.77134 0.64048 0.0
H2473 H 0.07364 0.75928 0.61064 0.0
H2474 H 0.04992 0.73255 0.61368 0.0
H2475 H 0.08062 0.7371 0.62085 0.0
C2476 C 0.97863 0.69334 0.63097 0.0
C2477 C 0.99553 0.66974 0.63111 0.0
C2478 C 0.98902 0.72049 0.63053 0.0
C2479 C 1.01726 0.72646 0.63023 0.0
C2480 C 0.03446 0.70287 0.63045 0.0
H2481 H 0.11677 0.88011 0.63108 0.0
H2482 H 0.09816 0.8343 0.63091 0.0
C2483 C 1.02394 0.67536 0.63079 0.0
C2484 C 1.02773 0.75695 0.62997 0.0
H2485 H 0.07465 0.80112 0.6193 0.0
C2486 C 1.01475 0.77749 0.63573 0.0
C2487 C 0.04959 0.76671 0.62388 0.0
C2488 C 0.06409 0.74788 0.61684 0.0
C2489 C 1.02288 0.80576 0.63577 0.0
C2490 C 0.04489 0.81542 0.62976 0.0
C2491 C 0.05786 0.79493 0.624 0.0
C2492 C 0.05576 0.8457 0.62967 0.0
C2493 C 1.00807 0.82491 0.64263 0.0
C2494 C 0.03903 0.86953 0.62887 0.0
C2495 C 0.05003 0.89689 0.62891 0.0
C2496 C 0.07847 0.90203 0.62975 0.0
C2497 C 0.09486 0.87813 0.6304 0.0
C2498 C 0.08402 0.85116 0.63029 0.0
H2499 H 0.99748 0.81376 0.64866 0.0
H2500 H 1.0223 0.83985 0.646 0.0
H2501 H 0.99239 0.83626 0.63838 0.0
H2502 H 1.01721 0.86716 0.62811 0.0
H2503 H 0.03612 0.91397 0.62843 0.0
H2504 H 0.40303 0.7836 0.8742 0.0
H2505 H 0.44993 0.76455 0.87407 0.0
H2506 H 0.48267 0.84547 0.87127 0.0
H2507 H 0.43692 0.8642 0.87171 0.0
H2508 H 0.4942 0.75991 0.86274 0.0
H2509 H 0.53183 0.82562 0.89268 0.0
H2510 H 0.4962 0.82438 0.88948 0.0
H2511 H 0.51937 0.84595 0.88267 0.0
C2512 C 0.42012 0.79744 0.87351 0.0
C2513 C 0.41503 0.82594 0.873 0.0
C2514 C 0.44749 0.78641 0.87348 0.0
C2515 C 0.47135 0.80316 0.873 0.0
C2516 C 0.46588 0.83137 0.87211 0.0
H2517 H 0.65681 0.78024 0.87105 0.0
H2518 H 0.60967 0.79854 0.87058 0.0
C2519 C 0.43893 0.84227 0.87222 0.0
C2520 C 0.5015 0.79187 0.87327 0.0
H2521 H 0.56603 0.80298 0.88323 0.0
C2522 C 0.50959 0.76944 0.86733 0.0
C2523 C 0.52299 0.80349 0.87914 0.0
C2524 C 0.51714 0.82597 0.88642 0.0
C2525 C 0.53719 0.7593 0.8669 0.0
C2526 C 0.5587 0.77113 0.87269 0.0
C2527 C 0.55062 0.79349 0.87864 0.0
C2528 C 0.58887 0.76006 0.87293 0.0
C2529 C 0.5431 0.73624 0.85987 0.0
C2530 C 0.5947 0.73218 0.87459 0.0
C2531 C 0.62186 0.7217 0.87491 0.0
C2532 C 0.64546 0.73818 0.87358 0.0
C2533 C 0.63992 0.76628 0.872 0.0
C2534 C 0.61244 0.77691 0.87177 0.0
H2535 H 0.52805 0.7356 0.85373 0.0
H2536 H 0.56385 0.73801 0.85665 0.0
H2537 H 0.54168 0.71663 0.86392 0.0
H2538 H 0.57805 0.71814 0.87586 0.0
H2539 H 0.62428 0.7001 0.87628 0.0
H2540 H 0.45507 0.18814 0.12997 0.0
H2541 H 0.47349 0.23419 0.12942 0.0
H2542 H 0.55487 0.20141 0.12882 0.0
H2543 H 0.53608 0.15479 0.12887 0.0
H2544 H 0.49751 0.26786 0.13932 0.0
H2545 H 0.57345 0.2561 0.10963 0.0
H2546 H 0.54936 0.22953 0.11243 0.0
H2547 H 0.58014 0.23322 0.11965 0.0
C2548 C 0.47701 0.19034 0.12956 0.0
C2549 C 0.49358 0.16654 0.12931 0.0
C2550 C 0.4878 0.21741 0.12932 0.0
C2551 C 0.51615 0.22303 0.12888 0.0
C2552 C 0.53296 0.19916 0.12876 0.0
H2553 H 0.61775 0.37619 0.13189 0.0
H2554 H 0.59902 0.33014 0.1314 0.0
C2555 C 0.52204 0.17182 0.12887 0.0
C2556 C 0.52721 0.25338 0.12883 0.0
H2557 H 0.57558 0.2972 0.11876 0.0
C2558 C 0.51449 0.27389 0.13469 0.0
C2559 C 0.54951 0.26306 0.12292 0.0
C2560 C 0.56374 0.24445 0.11573 0.0
C2561 C 0.5232 0.30198 0.13496 0.0
C2562 C 0.54568 0.31149 0.12915 0.0
C2563 C 0.55846 0.29107 0.12332 0.0
C2564 C 0.5569 0.34165 0.12928 0.0
C2565 C 0.50842 0.32114 0.14182 0.0
C2566 C 0.54039 0.36547 0.12813 0.0
C2567 C 0.55145 0.39276 0.12831 0.0
C2568 C 0.57971 0.39791 0.12972 0.0
C2569 C 0.59598 0.37407 0.13079 0.0
C2570 C 0.58508 0.34706 0.13049 0.0
H2571 H 0.49727 0.30998 0.14771 0.0
H2572 H 0.52277 0.33566 0.14536 0.0
H2573 H 0.49326 0.33299 0.13751 0.0
H2574 H 0.5187 0.36313 0.12694 0.0
H2575 H 0.53767 0.40984 0.12745 0.0
H2576 H 0.94254 0.70075 0.23876 0.0
H2577 H 0.98869 0.71912 0.23926 0.0
H2578 H 0.95602 0.80051 0.23905 0.0
H2579 H 0.90934 0.78182 0.23904 0.0
H2580 H 1.02253 0.74278 0.22914 0.0
H2581 H 1.01012 0.81967 0.25847 0.0
H2582 H 0.9836 0.79548 0.2557 0.0
H2583 H 0.98747 0.82595 0.24834 0.0
C2584 C 0.94481 0.72269 0.23897 0.0
C2585 C 0.92105 0.73933 0.23902 0.0
C2586 C 0.9719 0.73344 0.2392 0.0
C2587 C 0.97754 0.76177 0.23941 0.0
C2588 C 0.95372 0.77863 0.2393 0.0
H2589 H 0.13095 0.86299 0.23667 0.0
H2590 H 0.0848 0.84439 0.237 0.0
C2591 C 0.92635 0.76777 0.23921 0.0
C2592 C 1.00788 0.77279 0.23948 0.0
H2593 H 0.05152 0.82134 0.24949 0.0
C2594 C 1.0285 0.75987 0.23372 0.0
C2595 C 1.01743 0.79524 0.24532 0.0
C2596 C 0.99861 0.80973 0.25238 0.0
C2597 C 0.05661 0.76856 0.23349 0.0
C2598 C 0.066 0.79116 0.23925 0.0
C2599 C 0.04547 0.80412 0.24498 0.0
C2600 C 0.09618 0.80229 0.23919 0.0
C2601 C 0.0759 0.75366 0.22671 0.0
C2602 C 0.11993 0.78574 0.24045 0.0
C2603 C 0.14724 0.79671 0.24035 0.0
C2604 C 0.15249 0.82492 0.23896 0.0
C2605 C 0.12873 0.84125 0.23778 0.0
C2606 C 0.10167 0.83043 0.23798 0.0
H2607 H 0.06481 0.7425 0.2208 0.0
H2608 H 0.09055 0.76792 0.22318 0.0
H2609 H 0.08765 0.7385 0.23106 0.0
H2610 H 0.11749 0.76409 0.24165 0.0
H2611 H 0.16427 0.78293 0.24129 0.0
H2612 H 0.44841 0.88209 0.48336 0.0
H2613 H 0.46634 0.83598 0.48373 0.0
H2614 H 0.54809 0.86786 0.48321 0.0
H2615 H 0.52983 0.91475 0.48325 0.0
H2616 H 0.48929 0.80255 0.47317 0.0
H2617 H 0.56692 0.81266 0.50243 0.0
H2618 H 0.54298 0.83955 0.49985 0.0
H2619 H 0.57317 0.83557 0.49237 0.0
C2620 C 0.47037 0.87975 0.48347 0.0
C2621 C 0.48719 0.90341 0.48341 0.0
C2622 C 0.48084 0.85262 0.48362 0.0
C2623 C 0.50911 0.84672 0.48366 0.0
C2624 C 0.52623 0.8704 0.48353 0.0
H2625 H 0.60812 0.69272 0.48021 0.0
H2626 H 0.5899 0.73873 0.48095 0.0
C2627 C 0.51562 0.89788 0.48349 0.0
C2628 C 0.51966 0.81626 0.48355 0.0
H2629 H 0.56739 0.77143 0.49336 0.0
C2630 C 0.50631 0.79611 0.47772 0.0
C2631 C 0.54197 0.80612 0.48934 0.0
C2632 C 0.55694 0.82448 0.49642 0.0
C2633 C 0.51445 0.76788 0.47734 0.0
C2634 C 0.53687 0.75784 0.48306 0.0
C2635 C 0.55026 0.77794 0.48888 0.0
C2636 C 0.54761 0.72754 0.4828 0.0
C2637 C 0.49919 0.74918 0.47044 0.0
C2638 C 0.53081 0.7038 0.48373 0.0
C2639 C 0.54157 0.67639 0.48336 0.0
C2640 C 0.56982 0.67108 0.48205 0.0
C2641 C 0.58633 0.69487 0.48126 0.0
C2642 C 0.57573 0.72192 0.48169 0.0
H2643 H 0.48818 0.76072 0.46461 0.0
H2644 H 0.5132 0.73451 0.46682 0.0
H2645 H 0.48383 0.73751 0.47473 0.0
H2646 H 0.50912 0.7063 0.48484 0.0
H2647 H 0.52759 0.6594 0.484 0.0
H2648 H 0.66258 0.28604 0.74099 0.0
H2649 H 0.61532 0.26811 0.74092 0.0
H2650 H 0.58442 0.35006 0.73981 0.0
H2651 H 0.63079 0.36761 0.7395 0.0
H2652 H 0.57055 0.26705 0.75142 0.0
H2653 H 0.53633 0.32512 0.71896 0.0
H2654 H 0.57163 0.32446 0.7226 0.0
H2655 H 0.54809 0.34786 0.72837 0.0
C2656 C 0.6458 0.30035 0.74071 0.0
C2657 C 0.65159 0.3287 0.74019 0.0
C2658 C 0.61824 0.28996 0.74065 0.0
C2659 C 0.59482 0.30721 0.74003 0.0
C2660 C 0.60091 0.33545 0.73984 0.0
H2661 H 0.40913 0.28568 0.74079 0.0
H2662 H 0.4563 0.30391 0.74131 0.0
C2663 C 0.62816 0.34572 0.7398 0.0
C2664 C 0.56454 0.29631 0.7398 0.0
H2665 H 0.50108 0.3052 0.7287 0.0
C2666 C 0.55569 0.27549 0.74635 0.0
C2667 C 0.54372 0.30652 0.73329 0.0
C2668 C 0.55045 0.32699 0.72535 0.0
C2669 C 0.52801 0.26559 0.74674 0.0
C2670 C 0.5072 0.27605 0.74033 0.0
C2671 C 0.51599 0.29683 0.73378 0.0
C2672 C 0.47704 0.26505 0.74006 0.0
C2673 C 0.52124 0.24428 0.75439 0.0
C2674 C 0.47125 0.23693 0.73901 0.0
C2675 C 0.44408 0.22648 0.73865 0.0
C2676 C 0.42049 0.24324 0.73935 0.0
C2677 C 0.42603 0.27154 0.74035 0.0
C2678 C 0.4535 0.28212 0.7406 0.0
H2679 H 0.53578 0.24487 0.76068 0.0
H2680 H 0.50026 0.24701 0.75731 0.0
H2681 H 0.52267 0.22381 0.75095 0.0
H2682 H 0.48794 0.22267 0.73826 0.0
H2683 H 0.44164 0.2047 0.73775 0.0
H2684 H 0.11333 0.18809 0.98353 0.0
H2685 H 0.09442 0.23395 0.98403 0.0
H2686 H 1.01335 0.20027 0.98441 0.0
H2687 H 1.03263 0.15389 0.98447 0.0
H2688 H 0.07039 0.26736 0.97413 0.0
H2689 H 0.9934 0.25458 1.00344 0.0
H2690 H 1.01786 0.22828 1.00075 0.0
H2691 H 0.98737 0.23175 0.99335 0.0
C2692 C 0.09136 0.19007 0.98388 0.0
C2693 C 0.07501 0.16613 0.98411 0.0
C2694 C 0.08028 0.21701 0.9841 0.0
C2695 C 0.05186 0.22232 0.98447 0.0
C2696 C 0.03529 0.19828 0.98454 0.0
H2697 H 0.94928 0.37462 0.98095 0.0
H2698 H 0.96824 0.3287 0.98151 0.0
C2699 C 0.04649 0.17108 0.98448 0.0
C2700 C 0.04049 0.25252 0.98448 0.0
H2701 H 0.99138 0.29578 0.99436 0.0
C2702 C 0.05322 0.27319 0.9787 0.0
C2703 C 1.01788 0.26192 0.99029 0.0
C2704 C 1.00349 0.24309 0.99738 0.0
C2705 C 0.04428 0.30119 0.97841 0.0
C2706 C 1.02155 0.31043 0.98414 0.0
C2707 C 1.00872 0.28985 0.98989 0.0
C2708 C 1.01014 0.34048 0.98399 0.0
C2709 C 0.05905 0.32054 0.97161 0.0
C2710 C 1.02643 0.36437 0.98533 0.0
C2711 C 1.01523 0.39159 0.9851 0.0
C2712 C 0.98704 0.39657 0.98348 0.0
C2713 C 0.97098 0.37264 0.98223 0.0
C2714 C 0.98202 0.34571 0.98256 0.0
H2715 H 0.07051 0.30952 0.96577 0.0
H2716 H 0.04463 0.33488 0.96801 0.0
H2717 H 0.07394 0.33259 0.97598 0.0
H2718 H 0.04805 0.36213 0.98669 0.0
H2719 H 1.02884 0.40873 0.98612 0.0
H2720 H 0.12622 0.70546 0.73133 0.0
H2721 H 0.08009 0.72397 0.73182 0.0
H2722 H 0.11284 0.8044 0.7361 0.0
H2723 H 0.15968 0.78565 0.73557 0.0
H2724 H 0.04694 0.74735 0.74435 0.0
H2725 H 0.05954 0.82534 0.71529 0.0
H2726 H 0.0853 0.79996 0.71768 0.0
H2727 H 0.0826 0.82955 0.72547 0.0
C2728 C 0.12405 0.72721 0.7324 0.0
C2729 C 0.14788 0.74357 0.73341 0.0
C2730 C 0.09698 0.73799 0.73269 0.0
C2731 C 0.09145 0.76614 0.73384 0.0
C2732 C 0.11526 0.78273 0.73495 0.0
H2733 H 0.93729 0.86711 0.73296 0.0
H2734 H 0.98346 0.84894 0.73356 0.0
C2735 C 0.14263 0.7718 0.73477 0.0
C2736 C 0.0612 0.77721 0.73393 0.0
H2737 H 1.01737 0.82503 0.72366 0.0
C2738 C 0.04077 0.76438 0.73977 0.0
C2739 C 0.05161 0.79956 0.72808 0.0
C2740 C 0.07075 0.81431 0.7212 0.0
C2741 C 1.01268 0.77318 0.74012 0.0
C2742 C 1.00293 0.79537 0.73418 0.0
C2743 C 1.02345 0.80814 0.72833 0.0
C2744 C 0.97249 0.80626 0.73409 0.0
C2745 C 0.99404 0.75889 0.7473 0.0
C2746 C 0.94867 0.78935 0.73418 0.0
C2747 C 0.92124 0.80011 0.73402 0.0
C2748 C 0.91583 0.82852 0.73358 0.0
C2749 C 0.93958 0.84519 0.73337 0.0
C2750 C 0.96673 0.83456 0.73364 0.0
H2751 H 1.00569 0.74927 0.75343 0.0
H2752 H 0.97902 0.7732 0.75057 0.0
H2753 H 0.98291 0.74245 0.74338 0.0
H2754 H 0.95103 0.76747 0.73413 0.0
H2755 H 0.90427 0.78599 0.73401 0.0
H2756 H 0.03784 0.15811 0.49035 0.0
H2757 H 0.05691 0.20497 0.49089 0.0
H2758 H 0.97573 0.23772 0.49244 0.0
H2759 H 0.957 0.19192 0.49199 0.0
H2760 H 0.05471 0.25137 0.47925 0.0
H2761 H 1.00607 0.28288 0.51409 0.0
H2762 H 1.00631 0.24781 0.51012 0.0
H2763 H 0.98142 0.27129 0.50526 0.0
C2764 C 1.02394 0.17515 0.49099 0.0
C2765 C 0.9954 0.17003 0.49128 0.0
C2766 C 0.03499 0.20249 0.49123 0.0
C2767 C 1.01825 0.22627 0.49194 0.0
C2768 C 0.98991 0.22085 0.49221 0.0
H2769 H 0.04031 0.41171 0.49394 0.0
H2770 H 1.02221 0.36452 0.49405 0.0
C2771 C 0.97899 0.19391 0.49188 0.0
C2772 C 1.02961 0.25635 0.49213 0.0
H2773 H 1.02457 0.31866 0.50426 0.0
C2774 C 0.04813 0.26577 0.48483 0.0
C2775 C 1.02148 0.27657 0.4992 0.0
C2776 C 1.00295 0.26913 0.50767 0.0
C2777 C 0.05773 0.29353 0.48426 0.0
C2778 C 0.04976 0.31376 0.49138 0.0
C2779 C 1.03123 0.30429 0.49868 0.0
C2780 C 0.06078 0.34403 0.49149 0.0
C2781 C 0.0756 0.30098 0.47561 0.0
C2782 C 0.08885 0.35011 0.4903 0.0
C2783 C 0.09921 0.37731 0.4902 0.0
C2784 C 0.08252 0.40076 0.49146 0.0
C2785 C 0.0544 0.39496 0.49294 0.0
C2786 C 0.0439 0.36742 0.49298 0.0
H2787 H 0.07175 0.28741 0.46918 0.0
H2788 H 0.07224 0.32236 0.47322 0.0
H2789 H 0.0973 0.29845 0.47774 0.0
H2790 H 0.1033 0.33361 0.48953 0.0
H2791 H 0.12094 0.37988 0.48912 0.0
H2792 H 0.62496 0.19758 0.23032 0.0
H2793 H 0.57862 0.21563 0.23077 0.0
H2794 H 0.61031 0.29533 0.2373 0.0
H2795 H 0.6573 0.27709 0.23678 0.0
H2796 H 0.54429 0.23615 0.24337 0.0
H2797 H 0.5586 0.31989 0.21664 0.0
H2798 H 0.58444 0.29437 0.21867 0.0
H2799 H 0.58084 0.32246 0.22713 0.0
C2800 C 0.62249 0.21908 0.23186 0.0
C2801 C 0.64605 0.23544 0.23348 0.0
C2802 C 0.59531 0.22958 0.23213 0.0
C2803 C 0.58948 0.25741 0.2339 0.0
C2804 C 0.61302 0.27396 0.23564 0.0
H2805 H 0.43646 0.3587 0.23506 0.0
H2806 H 0.48225 0.33982 0.23557 0.0
C2807 C 0.64046 0.26332 0.23544 0.0
C2808 C 0.55921 0.26827 0.234 0.0
H2809 H 0.51607 0.31824 0.22478 0.0
C2810 C 0.53841 0.25415 0.23924 0.0
C2811 C 0.55 0.2918 0.22871 0.0
C2812 C 0.5695 0.30791 0.22239 0.0
C2813 C 0.5103 0.26281 0.23958 0.0
C2814 C 0.50102 0.28633 0.23426 0.0
C2815 C 0.52187 0.30034 0.22898 0.0
C2816 C 0.47074 0.29743 0.23429 0.0
C2817 C 0.49106 0.24687 0.24606 0.0
C2818 C 0.44679 0.28086 0.23346 0.0
C2819 C 0.41951 0.292 0.23334 0.0
C2820 C 0.4145 0.32046 0.23389 0.0
C2821 C 0.43843 0.33675 0.23467 0.0
C2822 C 0.46536 0.32573 0.23489 0.0
H2823 H 0.50218 0.23553 0.25192 0.0
H2824 H 0.47591 0.2604 0.24967 0.0
H2825 H 0.48004 0.2317 0.24147 0.0
H2826 H 0.44897 0.25908 0.23261 0.0
H2827 H 0.4024 0.27824 0.2325 0.0
H2828 H 0.53704 0.90967 0.99148 0.0
H2829 H 0.51798 0.86281 0.99205 0.0
H2830 H 0.59902 0.82984 0.99014 0.0
H2831 H 0.61774 0.87557 0.98967 0.0
H2832 H 0.5166 0.81779 0.97986 0.0
H2833 H 0.57501 0.78271 1.01221 0.0
H2834 H 0.57385 0.81814 1.00871 0.0
H2835 H 0.59709 0.7951 1.00266 0.0
C2836 C 0.55093 0.89256 0.99134 0.0
C2837 C 0.57942 0.89757 0.99066 0.0
C2838 C 0.53989 0.86525 0.99161 0.0
C2839 C 0.55666 0.84143 0.99139 0.0
C2840 C 0.58493 0.84674 0.99066 0.0
H2841 H 0.5338 0.65598 0.991 0.0
H2842 H 0.55264 0.70295 0.99125 0.0
C2843 C 0.59582 0.87364 0.99032 0.0
C2844 C 0.54534 0.81142 0.99161 0.0
H2845 H 0.55381 0.74789 1.00261 0.0
C2846 C 0.52475 0.80281 0.98495 0.0
C2847 C 0.55549 0.7905 0.99805 0.0
C2848 C 0.57637 0.79707 1.00587 0.0
C2849 C 0.51496 0.77515 0.98439 0.0
C2850 C 0.525 0.75423 0.99086 0.0
C2851 C 0.5456 0.76286 0.99753 0.0
C2852 C 0.5138 0.72413 0.99103 0.0
C2853 C 0.49449 0.7686 0.97642 0.0
C2854 C 0.48548 0.71862 0.99114 0.0
C2855 C 0.47472 0.69165 0.991 0.0
C2856 C 0.49128 0.66784 0.9909 0.0
C2857 C 0.5198 0.67302 0.99112 0.0
C2858 C 0.53071 0.7004 0.99122 0.0
H2859 H 0.49636 0.78284 0.97006 0.0
H2860 H 0.49702 0.74748 0.97363 0.0
H2861 H 0.4736 0.77086 0.97945 0.0
H2862 H 0.4712 0.73539 0.99141 0.0
H2863 H 0.45273 0.68958 0.99093 0.0
H2864 H 0.16275 0.28753 0.87728 0.0
H2865 H 0.11594 0.26821 0.87676 0.0
H2866 H 0.08247 0.3488 0.8795 0.0
H2867 H 0.12815 0.36779 0.87993 0.0
H2868 H 0.07129 0.26584 0.88918 0.0
H2869 H 0.03473 0.32574 0.85742 0.0
H2870 H 0.07032 0.32459 0.86074 0.0
H2871 H 0.04733 0.34729 0.86708 0.0
C2872 C 0.14553 0.30129 0.87763 0.0
C2873 C 0.15038 0.32974 0.87852 0.0
C2874 C 0.11825 0.29008 0.87738 0.0
C2875 C 0.09431 0.30665 0.87785 0.0
C2876 C 0.09946 0.33488 0.87879 0.0
H2877 H 0.90885 0.28224 0.87875 0.0
H2878 H 0.95569 0.30145 0.87838 0.0
C2879 C 0.12634 0.34592 0.87911 0.0
C2880 C 0.06434 0.29512 0.87766 0.0
H2881 H 1.00037 0.30363 0.86696 0.0
C2882 C 0.05608 0.27413 0.88421 0.0
C2883 C 0.04313 0.30544 0.87138 0.0
C2884 C 0.04931 0.3268 0.86369 0.0
C2885 C 1.02849 0.26409 0.88481 0.0
C2886 C 1.00728 0.27427 0.87848 0.0
C2887 C 1.01556 0.29529 0.87193 0.0
C2888 C 0.97723 0.26283 0.87836 0.0
C2889 C 1.02233 0.24321 0.89268 0.0
C2890 C 0.97193 0.2345 0.87814 0.0
C2891 C 0.94503 0.22352 0.87836 0.0
C2892 C 0.92106 0.23986 0.87863 0.0
C2893 C 0.92601 0.2684 0.87849 0.0
C2894 C 0.95333 0.27953 0.87832 0.0
H2895 H 0.03674 0.24491 0.89899 0.0
H2896 H 1.00125 0.2454 0.89556 0.0
H2897 H 1.02471 0.2225 0.88951 0.0
H2898 H 0.98882 0.22037 0.87774 0.0
H2899 H 0.94314 0.20154 0.87835 0.0
H2900 H 0.53093 0.41466 0.62175 0.0
H2901 H 0.54944 0.36762 0.6216 0.0
H2902 H 0.46788 0.33562 0.62283 0.0
H2903 H 0.44965 0.3818 0.62296 0.0
H2904 H 0.54918 0.3229 0.63411 0.0
H2905 H 0.49373 0.28763 0.60108 0.0
H2906 H 0.49508 0.32315 0.60446 0.0
H2907 H 0.47113 0.30056 0.61037 0.0
C2908 C 0.51679 0.39771 0.62186 0.0
C2909 C 0.48833 0.40313 0.62223 0.0
C2910 C 0.52753 0.37029 0.62183 0.0
C2911 C 0.5105 0.34667 0.62198 0.0
C2912 C 0.4822 0.35236 0.6224 0.0
H2913 H 0.5326 0.16127 0.62163 0.0
H2914 H 0.51448 0.2084 0.62133 0.0
C2915 C 0.47158 0.37946 0.62254 0.0
C2916 C 0.52171 0.31655 0.62197 0.0
H2917 H 0.51467 0.25309 0.6108 0.0
C2918 C 0.54161 0.30792 0.6289 0.0
C2919 C 0.51231 0.29562 0.61539 0.0
C2920 C 0.49209 0.30218 0.60734 0.0
C2921 C 0.55141 0.28027 0.6296 0.0
C2922 C 0.54225 0.25933 0.62295 0.0
C2923 C 0.52231 0.26801 0.61601 0.0
C2924 C 0.55334 0.22909 0.62296 0.0
C2925 C 0.5708 0.27375 0.63792 0.0
C2926 C 0.58155 0.2231 0.62371 0.0
C2927 C 0.59193 0.19591 0.62396 0.0
C2928 C 0.57509 0.17239 0.62326 0.0
C2929 C 0.5468 0.17808 0.6222 0.0
C2930 C 0.53629 0.20559 0.62203 0.0
H2931 H 0.56798 0.28792 0.64424 0.0
H2932 H 0.568 0.25261 0.64065 0.0
H2933 H 0.59207 0.2762 0.63527 0.0
H2934 H 0.59609 0.23964 0.62402 0.0
H2935 H 0.61378 0.1934 0.62468 0.0
H2936 H 0.66227 0.78927 0.37678 0.0
H2937 H 0.61502 0.77123 0.37641 0.0
H2938 H 0.58395 0.85185 0.3816 0.0
H2939 H 0.63031 0.86964 0.38193 0.0
H2940 H 0.57155 0.76709 0.38915 0.0
H2941 H 0.5334 0.8343 0.35962 0.0
H2942 H 0.56923 0.83177 0.36246 0.0
H2943 H 0.5473 0.85331 0.36975 0.0
C2944 C 0.64548 0.80334 0.37774 0.0
C2945 C 0.65125 0.83143 0.37927 0.0
C2946 C 0.61794 0.79286 0.37757 0.0
C2947 C 0.59447 0.80982 0.37873 0.0
C2948 C 0.6005 0.8377 0.38033 0.0
H2949 H 0.40848 0.78732 0.3803 0.0
H2950 H 0.45553 0.80599 0.37998 0.0
C2951 C 0.62774 0.84804 0.3806 0.0
C2952 C 0.56421 0.79887 0.37857 0.0
H2953 H 0.4996 0.81018 0.36873 0.0
C2954 C 0.55611 0.77659 0.38457 0.0
C2955 C 0.54266 0.81069 0.37281 0.0
C2956 C 0.54855 0.83366 0.36573 0.0
C2957 C 0.52844 0.76669 0.38515 0.0
C2958 C 0.50688 0.7783 0.3793 0.0
C2959 C 0.51501 0.80064 0.37331 0.0
C2960 C 0.47662 0.76718 0.37914 0.0
C2961 C 0.52263 0.74432 0.3925 0.0
C2962 C 0.47087 0.73897 0.37842 0.0
C2963 C 0.44381 0.72828 0.37864 0.0
C2964 C 0.42006 0.74484 0.37935 0.0
C2965 C 0.42543 0.7733 0.37967 0.0
C2966 C 0.4529 0.78412 0.37953 0.0
H2967 H 0.53743 0.74471 0.39872 0.0
H2968 H 0.50175 0.74604 0.39561 0.0
H2969 H 0.52471 0.72429 0.38878 0.0
H2970 H 0.48752 0.72469 0.37765 0.0
H2971 H 0.4416 0.70635 0.37828 0.0
H2972 H 1.03103 0.90793 0.12333 0.0
H2973 H 0.04942 0.86088 0.12283 0.0
H2974 H 0.96813 0.82897 0.12562 0.0
H2975 H 0.94999 0.87516 0.12612 0.0
H2976 H 0.05024 0.81605 0.13554 0.0
H2977 H 0.99136 0.78153 0.10317 0.0
H2978 H 0.99338 0.81701 0.10658 0.0
H2979 H 0.9699 0.79458 0.1128 0.0
C2980 C 1.01691 0.89101 0.12372 0.0
C2981 C 0.98856 0.89643 0.12465 0.0
C2982 C 1.02759 0.8636 0.12348 0.0
C2983 C 1.01055 0.84003 0.12397 0.0
C2984 C 0.98236 0.84571 0.12493 0.0
H2985 H 1.0321 0.65486 0.12291 0.0
H2986 H 1.01404 0.70201 0.12292 0.0
C2987 C 0.97183 0.8728 0.12528 0.0
C2988 C 1.02166 0.80997 0.12373 0.0
H2989 H 1.01337 0.74681 0.11249 0.0
C2990 C 0.04216 0.80119 0.13039 0.0
C2991 C 1.01155 0.78923 0.11722 0.0
C2992 C 0.99053 0.79603 0.10947 0.0
C2993 C 0.05192 0.77352 0.1309 0.0
C2994 C 0.04208 0.75278 0.1243 0.0
C2995 C 1.02153 0.76162 0.11764 0.0
C2996 C 0.05308 0.72258 0.12409 0.0
C2997 C 0.07202 0.76676 0.13897 0.0
C2998 C 0.08134 0.71659 0.12446 0.0
C2999 C 0.09168 0.68942 0.12453 0.0
C3000 C 0.07472 0.66596 0.12402 0.0
C3001 C 0.04637 0.67165 0.12332 0.0
C3002 C 0.0359 0.69915 0.12333 0.0
H3003 H 0.06979 0.78078 0.14537 0.0
H3004 H 0.06942 0.74556 0.14167 0.0
H3005 H 0.09306 0.76923 0.13608 0.0
H3006 H 0.09592 0.73312 0.12461 0.0
H3007 H 0.11358 0.68686 0.12498 0.0
H3008 H 0.23744 0.20579 0.3358 0.0
H3009 H 0.24842 0.22235 0.31905 0.0
H3010 H 0.28602 0.29354 0.33161 0.0
H3011 H 0.27564 0.2768 0.34824 0.0
H3012 H 0.23597 0.26183 0.30696 0.0
H3013 H 0.34542 0.28064 0.31296 0.0
H3014 H 0.32489 0.26319 0.32202 0.0
H3015 H 0.32497 0.29991 0.32141 0.0
C3016 C 0.24834 0.22488 0.33509 0.0
C3017 C 0.25571 0.23939 0.34379 0.0
C3018 C 0.25467 0.23462 0.3253 0.0
C3019 C 0.26901 0.25941 0.32353 0.0
C3020 C 0.27597 0.27402 0.33226 0.0
H3021 H 0.32476 0.35473 0.26917 0.0
H3022 H 0.31402 0.33835 0.28597 0.0
C3023 C 0.26966 0.26432 0.34201 0.0
C3024 C 0.27592 0.27008 0.31279 0.0
H3025 H 0.32674 0.2988 0.29816 0.0
C3026 C 0.25602 0.26967 0.30515 0.0
C3027 C 0.30191 0.28085 0.30985 0.0
C3028 C 0.32561 0.28097 0.31695 0.0
C3029 C 0.26081 0.27977 0.29528 0.0
C3030 C 0.28681 0.29051 0.29234 0.0
C3031 C 0.3067 0.29096 0.29997 0.0
C3032 C 0.2937 0.30105 0.28158 0.0
C3033 C 0.23711 0.27969 0.28818 0.0
C3034 C 0.28684 0.28623 0.27289 0.0
C3035 C 0.29303 0.2958 0.26312 0.0
C3036 C 0.30677 0.3208 0.26128 0.0
C3037 C 0.31408 0.33553 0.26994 0.0
C3038 C 0.30787 0.32592 0.27975 0.0
H3039 H 0.2173 0.28008 0.29217 0.0
H3040 H 0.23787 0.29745 0.28311 0.0
H3041 H 0.2377 0.26073 0.28373 0.0
H3042 H 0.27691 0.26665 0.27359 0.0
H3043 H 0.28708 0.28319 0.25692 0.0
H3044 H 1.02992 0.03808 0.51449 0.0
H3045 H 0.0468 1.02756 0.53117 0.0
H3046 H 0.97922 0.07134 0.54372 0.0
H3047 H 0.96208 0.08142 0.52703 0.0
H3048 H 0.06726 0.05153 0.5465 0.0
H3049 H 0.97206 1.0096 0.56186 0.0
H3050 H 0.97551 1.01728 0.54889 0.0
H3051 H 0.96771 0.04392 0.55762 0.0
C3052 C 1.01827 0.04539 0.52075 0.0
C3053 C 0.99403 0.06059 0.519 0.0
C3054 C 1.02822 0.03932 0.5305 0.0
C3055 C 1.01455 0.04777 0.53926 0.0
C3056 C 0.99044 0.06329 0.5375 0.0
H3057 H 0.04355 1.03036 0.60534 0.0
H3058 H 1.02706 0.04072 0.58864 0.0
C3059 C 0.9805 0.06941 0.52772 0.0
C3060 C 1.02581 0.0409 0.54995 0.0
H3061 H 1.0076 1.01782 0.57335 0.0
C3062 C 0.05392 0.04401 0.55227 0.0
C3063 C 1.00945 1.03093 0.55797 0.0
C3064 C 0.97959 1.02495 0.55647 0.0
C3065 C 0.06543 0.0385 0.56191 0.0
C3066 C 0.04908 1.0285 0.56993 0.0
C3067 C 1.02096 1.02536 0.56759 0.0
C3068 C 0.06024 1.02173 0.58065 0.0
C3069 C 0.09524 0.0447 0.5634 0.0
C3070 C 0.08479 1.00694 0.58251 0.0
C3071 C 0.09458 1.00099 0.59232 0.0
C3072 C 0.08039 1.00917 0.60099 0.0
C3073 C 0.05571 1.02356 0.59913 0.0
C3074 C 0.04598 1.02953 0.58935 0.0
H3075 H 0.10264 0.06014 0.55803 0.0
H3076 H 0.09928 0.05237 0.57098 0.0
H3077 H 0.10726 1.02583 0.56222 0.0
H3078 H 0.09648 0.99932 0.57633 0.0
H3079 H 0.11337 0.98961 0.59309 0.0
H3080 H 0.32952 0.85797 0.8367 0.0
H3081 H 0.31891 0.84078 0.82 0.0
H3082 H 0.27138 0.77611 0.83277 0.0
H3083 H 0.2817 0.79333 0.84936 0.0
H3084 H 0.32834 0.79698 0.80892 0.0
H3085 H 0.2165 0.79578 0.8127 0.0
H3086 H 0.23811 0.81158 0.82183 0.0
H3087 H 0.23278 0.77524 0.82193 0.0
C3088 C 0.31656 0.84019 0.83604 0.0
C3089 C 0.30647 0.82763 0.84478 0.0
C3090 C 0.31044 0.83009 0.82629 0.0
C3091 C 0.29349 0.80697 0.82459 0.0
C3092 C 0.28369 0.79432 0.83336 0.0
H3093 H 0.23036 0.71471 0.77062 0.0
H3094 H 0.24107 0.7317 0.78734 0.0
C3095 C 0.28992 0.80428 0.84308 0.0
C3096 C 0.28674 0.79593 0.81389 0.0
H3097 H 0.23439 0.77343 0.79857 0.0
C3098 C 0.30763 0.7921 0.80675 0.0
C3099 C 0.2599 0.78887 0.81053 0.0
C3100 C 0.23548 0.7933 0.81709 0.0
C3101 C 0.30289 0.78132 0.79697 0.0
C3102 C 0.276 0.77442 0.79357 0.0
C3103 C 0.25512 0.77826 0.80072 0.0
C3104 C 0.2692 0.76344 0.78284 0.0
C3105 C 0.32747 0.77641 0.79053 0.0
C3106 C 0.28044 0.77499 0.77409 0.0
C3107 C 0.27437 0.76495 0.76438 0.0
C3108 C 0.2563 0.7428 0.76263 0.0
C3109 C 0.24454 0.73151 0.77132 0.0
C3110 C 0.25073 0.74152 0.78108 0.0
H3111 H 0.34616 0.77328 0.79503 0.0
H3112 H 0.32463 0.75831 0.78572 0.0
H3113 H 0.33096 0.79454 0.7858 0.0
H3114 H 0.29381 0.79243 0.77468 0.0
H3115 H 0.28383 0.775 0.75813 0.0
H3116 H 0.46625 0.08329 0.09223 0.0
H3117 H 0.48361 0.07231 0.0756 0.0
H3118 H 0.54402 1.01976 0.08856 0.0
H3119 H 0.5262 1.03003 0.10504 0.0
H3120 H 0.5256 0.0789 0.06453 0.0
H3121 H 0.52523 0.96725 0.06823 0.0
H3122 H 0.51007 0.98886 0.07746 0.0
H3123 H 0.54633 0.98254 0.07749 0.0
C3124 C 0.48306 0.0691 0.09161 0.0
C3125 C 0.49417 0.05751 0.10037 0.0
C3126 C 0.49328 0.06275 0.08191 0.0
C3127 C 0.51523 0.04427 0.08026 0.0
C3128 C 0.52659 1.03315 0.08907 0.0
H3129 H 0.6105 0.98368 1.02662 0.0
H3130 H 0.59322 0.99438 1.04331 0.0
C3131 C 0.51632 0.03938 0.09874 0.0
C3132 C 0.52643 0.03736 0.06958 0.0
H3133 H 0.54912 0.98492 1.05435 0.0
C3134 C 0.53043 0.05816 0.06242 0.0
C3135 C 0.53334 1.01046 0.06624 0.0
C3136 C 0.52828 0.98597 0.07271 0.0
C3137 C 0.54117 0.05329 1.05264 0.0
C3138 C 0.54822 1.02644 1.04933 0.0
C3139 C 0.54425 1.00563 1.05648 0.0
C3140 C 0.55932 1.01961 1.03866 0.0
C3141 C 0.54575 0.07762 1.04605 0.0
C3142 C 0.54666 1.02929 1.02987 0.0
C3143 C 0.55667 1.02301 1.02017 0.0
C3144 C 0.58008 1.00655 1.0185 0.0
C3145 C 0.59268 0.99657 1.02726 0.0
C3146 C 0.58252 1.00274 1.037 0.0
H3147 H 0.54824 0.09662 1.05042 0.0
H3148 H 0.5641 0.07492 1.04134 0.0
H3149 H 0.52774 0.08033 1.04118 0.0
H3150 H 0.52839 0.04153 1.03044 0.0
H3151 H 0.5457 1.03113 1.01388 0.0
H3152 H 0.33489 0.70887 0.34356 0.0
H3153 H 0.32537 0.72545 0.32667 0.0
H3154 H 0.27855 0.79157 0.33877 0.0
H3155 H 0.28888 0.77576 0.35547 0.0
H3156 H 0.2873 0.73228 0.31389 0.0
H3157 H 0.31563 0.83913 0.32045 0.0
H3158 H 0.32178 0.81322 0.3296 0.0
H3159 H 0.2887 0.82918 0.32861 0.0
C3160 C 0.32268 0.72708 0.3427 0.0
C3161 C 0.31308 0.74068 0.35132 0.0
C3162 C 0.31707 0.7368 0.33283 0.0
C3163 C 0.3016 0.76085 0.33086 0.0
C3164 C 0.29147 0.77385 0.33952 0.0
H3165 H 0.23823 0.85148 0.27664 0.0
H3166 H 0.24884 0.83419 0.29331 0.0
C3167 C 0.29721 0.76433 0.34933 0.0
C3168 C 0.29568 0.77182 0.32003 0.0
H3169 H 0.29122 0.83045 0.30559 0.0
C3170 C 0.28849 0.75383 0.31221 0.0
C3171 C 0.29685 0.80003 0.31718 0.0
C3172 C 0.30643 0.82146 0.32436 0.0
C3173 C 0.28205 0.76272 0.30228 0.0
C3174 C 0.28287 0.79093 0.29949 0.0
C3175 C 0.29011 0.8089 0.30729 0.0
C3176 C 0.27636 0.80207 0.28875 0.0
C3177 C 0.27339 0.74138 0.29491 0.0
C3178 C 0.28811 0.79103 0.27999 0.0
C3179 C 0.28209 0.80128 0.27027 0.0
C3180 C 0.26387 0.82335 0.26855 0.0
C3181 C 0.25232 0.8346 0.2773 0.0
C3182 C 0.25853 0.82449 0.28704 0.0
H3183 H 0.2654 0.72286 0.29865 0.0
H3184 H 0.25743 0.74929 0.28985 0.0
H3185 H 0.29132 0.73522 0.29044 0.0
H3186 H 0.3025 0.77444 0.28062 0.0
H3187 H 0.29182 0.79161 0.264 0.0
H3188 H 0.60033 0.08825 0.58626 0.0
H3189 H 0.58282 0.07797 0.56959 0.0
H3190 H 0.52597 1.02088 0.58212 0.0
H3191 H 0.54329 1.03127 0.59873 0.0
H3192 H 0.58027 0.03633 0.55695 0.0
H3193 H 0.47202 0.05711 0.56484 0.0
H3194 H 0.49857 0.06554 0.57354 0.0
H3195 H 0.48575 1.0312 0.57275 0.0
C3196 C 0.58404 0.07348 0.58556 0.0
C3197 C 0.5736 0.06089 0.59425 0.0
C3198 C 0.57382 0.06746 0.57583 0.0
C3199 C 0.5521 0.04878 0.57409 0.0
C3200 C 0.54195 0.03597 0.58279 0.0
H3201 H 0.45818 0.98852 0.52003 0.0
H3202 H 0.47581 0.99828 0.53672 0.0
C3203 C 0.55229 0.04182 0.5925 0.0
C3204 C 0.54071 0.04251 0.56339 0.0
H3205 H 0.48146 0.03625 0.54942 0.0
C3206 C 0.55858 0.03656 0.55542 0.0
C3207 C 0.51232 0.04226 0.56082 0.0
C3208 C 0.49102 0.04962 0.56839 0.0
C3209 C 0.54943 1.03 0.54555 0.0
C3210 C 0.52102 1.02999 0.54294 0.0
C3211 C 0.50316 0.03595 0.55093 0.0
C3212 C 0.50959 1.02391 0.5322 0.0
C3213 C 0.57085 1.0219 0.53812 0.0
C3214 C 0.52136 0.03492 0.52344 0.0
C3215 C 0.51121 1.02905 0.51372 0.0
C3216 C 0.48816 1.01212 0.51198 0.0
C3217 C 0.47587 1.00159 0.52071 0.0
C3218 C 0.48618 1.00733 0.53047 0.0
H3219 H 0.58928 1.01354 0.54181 0.0
H3220 H 0.56303 1.00634 0.53288 0.0
H3221 H 0.57727 0.04017 0.53389 0.0
H3222 H 0.53852 0.04865 0.52405 0.0
H3223 H 0.5216 0.0381 0.50746 0.0
H3224 H 0.28308 0.27785 0.76391 0.0
H3225 H 0.27313 0.29511 0.78058 0.0
H3226 H 0.32271 0.23151 0.79306 0.0
H3227 H 0.33341 0.21495 0.7764 0.0
H3228 H 0.24832 0.2835 0.79643 0.0
H3229 H 0.35391 0.28637 0.81019 0.0
H3230 H 0.34637 0.27929 0.79742 0.0
H3231 H 0.34459 0.25255 0.80657 0.0
C3232 C 0.29211 0.26743 0.77016 0.0
C3233 C 0.30942 0.24468 0.7684 0.0
C3234 C 0.28628 0.2775 0.77991 0.0
C3235 C 0.29741 0.26566 0.78863 0.0
C3236 C 0.31423 0.24248 0.78685 0.0
H3237 H 0.28064 0.29426 0.85474 0.0
H3238 H 0.29077 0.27755 0.83801 0.0
C3239 C 0.32022 0.23252 0.7771 0.0
C3240 C 0.29098 0.27709 0.79932 0.0
H3241 H 0.31929 0.29221 0.82227 0.0
C3242 C 0.26419 0.28545 0.80196 0.0
C3243 C 0.31084 0.28031 0.80704 0.0
C3244 C 0.34056 0.27444 0.80516 0.0
C3245 C 0.25689 0.29568 0.81162 0.0
C3246 C 0.27671 0.29863 0.81934 0.0
C3247 C 0.30348 0.2903 0.81671 0.0
C3248 C 0.27022 0.3098 0.83004 0.0
C3249 C 0.22736 0.30237 0.81349 0.0
C3250 C 0.25541 0.33428 0.83184 0.0
C3251 C 0.24962 0.34418 0.84163 0.0
C3252 C 0.25826 0.3303 0.85031 0.0
C3253 C 0.2733 0.30602 0.84851 0.0
C3254 C 0.27925 0.29625 0.83873 0.0
H3255 H 0.21368 0.29143 0.80829 0.0
H3256 H 0.2213 0.29706 0.82116 0.0
H3257 H 0.22416 0.32455 0.81239 0.0
H3258 H 0.24845 0.34627 0.82563 0.0
H3259 H 0.23815 0.36291 0.84237 0.0
H3260 H 0.04552 1.02585 1.00926 0.0
H3261 H 1.02817 1.0159 1.02595 0.0
H3262 H 0.08191 0.0767 1.03798 0.0
H3263 H 0.09883 0.08695 1.02131 0.0
H3264 H 0.04425 0.99583 1.0428 0.0
H3265 H 1.01846 0.10125 1.05313 0.0
H3266 H 1.02838 0.09242 1.04072 0.0
H3267 H 0.05388 0.09784 1.05013 0.0
C3268 C 0.05375 0.03732 1.01541 0.0
C3269 C 0.0739 0.05753 1.01354 0.0
C3270 C 0.04364 1.0315 1.02516 0.0
C3271 C 0.05269 0.04567 1.03373 0.0
C3272 C 0.07319 0.06559 1.03185 0.0
H3273 H 1.0156 0.03956 0.09958 0.0
H3274 H 1.03269 0.04934 0.08286 0.0
C3275 C 0.08334 0.07138 1.0221 0.0
C3276 C 0.04124 0.0393 1.0444 0.0
H3277 H 1.01707 0.06869 0.06609 0.0
C3278 C 0.03823 1.01204 1.04778 0.0
C3279 C 1.03294 0.05964 1.0514 0.0
C3280 C 1.03329 0.0894 1.04865 0.0
C3281 C 1.02842 1.00487 0.0575 0.0
C3282 C 1.02009 1.02522 0.0645 0.0
C3283 C 1.02309 0.05247 0.06112 0.0
C3284 C 1.00873 1.01889 0.07519 0.0
C3285 C 1.02821 0.97512 0.06025 0.0
C3286 C 0.98859 0.99865 0.07716 0.0
C3287 C 0.97862 0.99291 0.08694 0.0
C3288 C 0.98782 1.00719 0.09545 0.0
C3289 C 1.00754 1.02776 0.09348 0.0
C3290 C 1.01752 0.03348 0.08371 0.0
H3291 H 0.0431 0.96333 1.05578 0.0
H3292 H 1.03313 0.97212 0.06819 0.0
H3293 H 1.00767 0.96657 0.05877 0.0
H3294 H 0.98005 0.98721 0.07108 0.0
H3295 H 0.96348 0.97703 0.08781 0.0
H3296 H 0.72654 0.71632 0.83618 0.0
H3297 H 0.73748 0.7342 0.81963 0.0
H3298 H 0.79883 0.78601 0.83239 0.0
H3299 H 0.78834 0.76774 0.84883 0.0
H3300 H 0.73462 0.77873 0.80943 0.0
H3301 H 0.84569 0.76274 0.81068 0.0
H3302 H 0.82349 0.7493 0.8201 0.0
H3303 H 0.83453 0.78434 0.82055 0.0
C3304 C 0.74264 0.73132 0.83554 0.0
C3305 C 0.75655 0.73989 0.84423 0.0
C3306 C 0.74897 0.74185 0.82587 0.0
C3307 C 0.7698 0.76155 0.82418 0.0
C3308 C 0.78339 0.77036 0.83292 0.0
H3309 H 0.83641 0.85251 0.77042 0.0
H3310 H 0.82588 0.83494 0.78707 0.0
C3311 C 0.77708 0.75984 0.84257 0.0
C3312 C 0.77659 0.77308 0.81353 0.0
H3313 H 0.82933 0.78993 0.79743 0.0
C3314 C 0.75548 0.78085 0.80691 0.0
C3315 C 0.80365 0.77659 0.80968 0.0
C3316 C 0.82814 0.76757 0.81557 0.0
C3317 C 0.7603 0.79203 0.79719 0.0
C3318 C 0.78735 0.79553 0.79333 0.0
C3319 C 0.80848 0.7878 0.79996 0.0
C3320 C 0.79406 0.80684 0.78265 0.0
C3321 C 0.73582 0.80101 0.79129 0.0
C3322 C 0.78062 0.79749 0.77396 0.0
C3323 C 0.78672 0.80777 0.76427 0.0
C3324 C 0.80684 0.82807 0.7625 0.0
C3325 C 0.82062 0.83723 0.77114 0.0
C3326 C 0.81453 0.82688 0.78086 0.0
H3327 H 0.71828 0.80591 0.79617 0.0
H3328 H 0.74048 0.81922 0.78672 0.0
H3329 H 0.72942 0.78418 0.78633 0.0
H3330 H 0.76545 0.78159 0.77458 0.0
H3331 H 0.77557 0.79942 0.75806 0.0
H3332 H 0.82641 0.3607 0.33589 0.0
H3333 H 0.81587 0.34283 0.31927 0.0
H3334 H 0.77308 0.27547 0.33242 0.0
H3335 H 0.78336 0.29332 0.34892 0.0
H3336 H 0.82737 0.29904 0.30822 0.0
H3337 H 0.71591 0.29258 0.31277 0.0
H3338 H 0.73722 0.30961 0.32169 0.0
H3339 H 0.73368 0.27306 0.32193 0.0
C3340 C 0.81451 0.34218 0.33533 0.0
C3341 C 0.80571 0.32903 0.34414 0.0
C3342 C 0.80844 0.33169 0.32563 0.0
C3343 C 0.79284 0.30758 0.32408 0.0
C3344 C 0.78432 0.29438 0.33292 0.0
H3345 H 0.73116 0.21129 0.27104 0.0
H3346 H 0.7421 0.22941 0.28755 0.0
C3347 C 0.79052 0.30473 0.34258 0.0
C3348 C 0.78612 0.29611 0.31345 0.0
H3349 H 0.73413 0.27091 0.29855 0.0
C3350 C 0.80681 0.29315 0.30619 0.0
C3351 C 0.75948 0.28775 0.31029 0.0
C3352 C 0.73523 0.29112 0.31703 0.0
C3353 C 0.80211 0.28197 0.29647 0.0
C3354 C 0.77541 0.27374 0.29328 0.0
C3355 C 0.75472 0.27676 0.30055 0.0
C3356 C 0.76859 0.26209 0.28266 0.0
C3357 C 0.82657 0.27805 0.28988 0.0
C3358 C 0.77887 0.27372 0.27376 0.0
C3359 C 0.77268 0.263 0.26415 0.0
C3360 C 0.75542 0.24008 0.26268 0.0
C3361 C 0.74466 0.2287 0.27153 0.0
C3362 C 0.75098 0.23936 0.28117 0.0
H3363 H 0.84562 0.27598 0.29427 0.0
H3364 H 0.82437 0.25968 0.28517 0.0
H3365 H 0.82892 0.29619 0.28506 0.0
H3366 H 0.79154 0.29171 0.27416 0.0
H3367 H 0.78136 0.2731 0.25777 0.0
H3368 H 0.73581 0.3506 0.77739 0.0
H3369 H 0.74698 0.3328 0.79391 0.0
H3370 H 0.80324 0.27613 0.7808 0.0
H3371 H 0.79277 0.29454 0.76438 0.0
H3372 H 0.74186 0.29038 0.80454 0.0
H3373 H 0.85372 0.29556 0.80168 0.0
H3374 H 0.83195 0.31031 0.79239 0.0
H3375 H 0.83973 0.27437 0.79218 0.0
C3376 C 0.75086 0.33454 0.77795 0.0
C3377 C 0.76342 0.32468 0.76918 0.0
C3378 C 0.75732 0.32405 0.7876 0.0
C3379 C 0.77685 0.30302 0.78917 0.0
C3380 C 0.78898 0.29287 0.78035 0.0
H3381 H 0.83777 0.20816 0.84293 0.0
H3382 H 0.82744 0.22532 0.82618 0.0
C3383 C 0.78265 0.30345 0.77072 0.0
C3384 C 0.78371 0.29154 0.7998 0.0
H3385 H 0.83629 0.27053 0.81532 0.0
C3386 C 0.76269 0.28636 0.80679 0.0
C3387 C 0.81073 0.28565 0.80331 0.0
C3388 C 0.83534 0.292 0.79705 0.0
C3389 C 0.76749 0.27551 0.81655 0.0
C3390 C 0.79446 0.26952 0.82002 0.0
C3391 C 0.81549 0.27459 0.81305 0.0
C3392 C 0.80114 0.25849 0.8307 0.0
C3393 C 0.74302 0.2697 0.82295 0.0
C3394 C 0.79071 0.27083 0.83942 0.0
C3395 C 0.79679 0.26093 0.84915 0.0
C3396 C 0.81376 0.23794 0.8509 0.0
C3397 C 0.82447 0.22565 0.84221 0.0
C3398 C 0.81851 0.23573 0.83245 0.0
H3399 H 0.72434 0.26659 0.81844 0.0
H3400 H 0.74626 0.25134 0.8276 0.0
H3401 H 0.73933 0.28739 0.82788 0.0
H3402 H 0.77799 0.28875 0.83878 0.0
H3403 H 0.78807 0.27163 0.85539 0.0
H3404 H 0.7329 0.85433 0.3421 0.0
H3405 H 0.74305 0.83636 0.32549 0.0
H3406 H 0.80194 0.78155 0.33812 0.0
H3407 H 0.79139 0.79905 0.35466 0.0
H3408 H 0.7821 0.83426 0.31248 0.0
H3409 H 0.76912 0.72559 0.32139 0.0
H3410 H 0.76003 0.75192 0.33006 0.0
H3411 H 0.79499 0.74091 0.32891 0.0
C3412 C 0.74799 0.83835 0.34143 0.0
C3413 C 0.76098 0.82848 0.35014 0.0
C3414 C 0.75395 0.82785 0.33173 0.0
C3415 C 0.7731 0.80652 0.33002 0.0
C3416 C 0.78639 0.79707 0.33874 0.0
H3417 H 0.83847 0.71523 0.27625 0.0
H3418 H 0.82821 0.73322 0.29284 0.0
C3419 C 0.78046 0.80755 0.34842 0.0
C3420 C 0.77937 0.79486 0.31935 0.0
H3421 H 0.78916 0.73535 0.30582 0.0
C3422 C 0.78338 0.81253 0.31115 0.0
C3423 C 0.78147 0.7664 0.31701 0.0
C3424 C 0.77591 0.74508 0.32477 0.0
C3425 C 0.78979 0.80321 0.30129 0.0
C3426 C 0.7919 0.77475 0.29894 0.0
C3427 C 0.78788 0.75708 0.30715 0.0
C3428 C 0.79821 0.76307 0.28827 0.0
C3429 C 0.79533 0.82453 0.29352 0.0
C3430 C 0.78499 0.77253 0.27955 0.0
C3431 C 0.79098 0.76203 0.26987 0.0
C3432 C 0.81046 0.74108 0.26818 0.0
C3433 C 0.82337 0.73121 0.2769 0.0
C3434 C 0.81735 0.74172 0.28659 0.0
H3435 H 0.8021 0.84403 0.2969 0.0
H3436 H 0.81123 0.8177 0.28824 0.0
H3437 H 0.77626 0.82868 0.28937 0.0
H3438 H 0.76945 0.78806 0.28015 0.0
H3439 H 0.78012 0.77055 0.26362 0.0
H3440 H 0.6048 0.48143 0.09242 0.0
H3441 H 0.58715 0.49253 0.07585 0.0
H3442 H 0.52748 0.54558 0.08897 0.0
H3443 H 0.54564 0.53516 0.10542 0.0
H3444 H 0.5451 0.48617 0.06492 0.0
H3445 H 0.54592 0.59786 0.06851 0.0
H3446 H 0.56118 0.57623 0.07774 0.0
H3447 H 0.52492 0.58261 0.07782 0.0
C3448 C 0.58808 0.49575 0.09185 0.0
C3449 C 0.57731 0.50743 0.10064 0.0
C3450 C 0.57769 0.50217 0.08218 0.0
C3451 C 0.55586 0.52082 0.08059 0.0
C3452 C 0.54481 0.53205 0.08943 0.0
H3453 H 0.46065 0.58167 1.02692 0.0
H3454 H 0.47792 0.57099 1.04361 0.0
C3455 C 0.55527 0.52573 0.09908 0.0
C3456 C 0.54452 0.52774 0.06993 0.0
H3457 H 0.52202 0.58021 1.05465 0.0
C3458 C 0.54036 0.50692 0.06278 0.0
C3459 C 0.53772 0.55466 0.06656 0.0
C3460 C 0.5429 0.57915 0.07301 0.0
C3461 C 0.52961 0.51179 1.05301 0.0
C3462 C 0.52271 0.53866 1.04967 0.0
C3463 C 0.5268 0.55949 1.0568 0.0
C3464 C 0.51162 0.54548 1.03898 0.0
C3465 C 0.52486 0.48744 1.04645 0.0
C3466 C 0.52418 0.53564 1.03021 0.0
C3467 C 0.51417 0.5419 1.0205 0.0
C3468 C 0.49087 0.55852 1.01882 0.0
C3469 C 0.47839 0.56865 1.02757 0.0
C3470 C 0.48853 0.56249 1.03731 0.0
H3471 H 0.52225 0.46849 1.05084 0.0
H3472 H 0.50652 0.49022 1.04174 0.0
H3473 H 0.54284 0.48457 1.04158 0.0
H3474 H 0.54235 0.52327 1.03079 0.0
H3475 H 0.52505 0.53365 1.01421 0.0
H3476 H 0.96812 0.58477 0.59554 0.0
H3477 H 0.98511 0.57457 0.57879 0.0
H3478 H 0.04957 0.52626 0.59132 0.0
H3479 H 1.03265 0.53642 0.60799 0.0
H3480 H 1.03048 0.58416 0.56787 0.0
H3481 H 1.02733 0.47222 0.57092 0.0
H3482 H 1.01186 0.49399 0.58008 0.0
H3483 H 0.04802 0.4876 0.58032 0.0
C3484 C 0.98584 0.57179 0.59482 0.0
C3485 C 0.99845 0.56147 0.60353 0.0
C3486 C 0.99581 0.56589 0.58504 0.0
C3487 C 1.01882 0.54888 0.58326 0.0
C3488 C 1.03149 0.53875 0.59199 0.0
H3489 H 0.10789 0.48339 0.52907 0.0
H3490 H 0.09101 0.49425 0.54576 0.0
C3491 C 1.0217 0.54485 0.60175 0.0
C3492 C 1.02967 0.54233 0.57252 0.0
H3493 H 0.0499 0.48998 0.55683 0.0
C3494 C 0.03448 0.56341 0.56554 0.0
C3495 C 0.0356 0.51545 0.56897 0.0
C3496 C 1.03023 0.49096 0.57541 0.0
C3497 C 0.04519 0.55879 0.55574 0.0
C3498 C 0.05088 0.53184 0.55212 0.0
C3499 C 0.046 0.51076 0.55913 0.0
C3500 C 0.06183 0.52513 0.54137 0.0
C3501 C 0.05145 0.58352 0.54953 0.0
C3502 C 0.05171 0.5379 0.53264 0.0
C3503 C 0.06182 0.53181 0.52292 0.0
C3504 C 0.08249 0.5121 0.52115 0.0
C3505 C 0.09227 0.49885 0.5298 0.0
C3506 C 0.0823 0.50513 0.53955 0.0
H3507 H 0.05542 0.60169 0.55421 0.0
H3508 H 0.0695 0.58015 0.54474 0.0
H3509 H 1.03357 0.58825 0.54481 0.0
H3510 H 0.03531 0.55252 0.53324 0.0
H3511 H 0.05295 0.54248 0.5167 0.0
H3512 H 0.04601 0.5226 0.09895 0.0
H3513 H 1.02891 0.5124 0.08227 0.0
H3514 H 0.08009 0.57557 0.07036 0.0
H3515 H 0.09755 0.58536 0.08701 0.0
H3516 H 0.99984 0.53443 0.06839 0.0
H3517 H 0.09908 0.52279 1.04981 0.0
H3518 H 0.09649 0.52585 0.06304 0.0
H3519 H 0.09561 0.55579 1.05532 0.0
C3520 C 0.05403 0.53428 0.09282 0.0
C3521 C 0.07384 0.55481 0.09471 0.0
C3522 C 0.04395 0.5284 0.08307 0.0
C3523 C 0.05311 0.54245 0.07449 0.0
C3524 C 0.0727 0.56323 0.07642 0.0
H3525 H 1.01475 0.5365 1.00873 0.0
H3526 H 1.03181 0.54658 1.02542 0.0
C3527 C 0.08276 0.56914 0.08617 0.0
C3528 C 0.0418 0.53583 0.06381 0.0
H3529 H 0.06037 0.52492 1.03932 0.0
C3530 C 1.01342 0.53224 0.06212 0.0
C3531 C 0.05846 0.53272 1.05517 0.0
C3532 C 0.0891 0.5342 1.0559 0.0
C3533 C 1.00173 0.52667 1.05254 0.0
C3534 C 1.0184 0.52353 1.04389 0.0
C3535 C 0.04678 0.52711 1.04558 0.0
C3536 C 1.0071 0.51696 1.03321 0.0
C3537 C 0.97109 0.52529 1.0518 0.0
C3538 C 0.98722 0.49644 1.03126 0.0
C3539 C 0.97715 0.49063 1.02151 0.0
C3540 C 0.98638 0.50476 1.01296 0.0
C3541 C 1.0065 0.52498 1.01486 0.0
C3542 C 1.01656 0.53079 1.02462 0.0
H3543 H 0.96116 0.53678 0.05789 0.0
H3544 H 0.96371 0.53363 1.04466 0.0
H3545 H 0.9645 0.50373 1.05242 0.0
H3546 H 0.9796 0.48424 1.03732 0.0
H3547 H 0.9621 0.47465 1.02066 0.0
H3548 H 0.51933 0.54356 0.59728 0.0
H3549 H 0.5361 0.55376 0.58052 0.0
H3550 H 0.47889 0.4963 0.56845 0.0
H3551 H 0.46214 0.48616 0.58518 0.0
H3552 H 0.56205 0.52807 0.5657 0.0
H3553 H 0.46294 0.55537 0.54923 0.0
H3554 H 0.46703 0.55066 0.56237 0.0
H3555 H 0.46301 0.52165 0.55434 0.0
C3556 C 0.50997 0.5331 0.59111 0.0
C3557 C 0.48876 0.51398 0.593 0.0
C3558 C 0.51985 0.53898 0.58131 0.0
C3559 C 0.50894 0.52654 0.57267 0.0
C3560 C 0.48783 0.50728 0.57458 0.0
H3561 H 0.53647 0.53963 0.50637 0.0
H3562 H 0.52099 0.52961 0.52322 0.0
C3563 C 0.47815 0.50119 0.58438 0.0
C3564 C 0.51981 0.53324 0.56192 0.0
H3565 H 0.49981 0.55056 0.53807 0.0
C3566 C 0.54816 0.53309 0.55974 0.0
C3567 C 0.50269 0.53991 0.55368 0.0
C3568 C 0.47226 0.54221 0.55499 0.0
C3569 C 0.55928 0.53833 0.55002 0.0
C3570 C 0.54217 0.54524 0.54176 0.0
C3571 C 0.5138 0.54547 0.54399 0.0
C3572 C 0.5528 0.55168 0.53092 0.0
C3573 C 0.58962 0.53505 0.54873 0.0
C3574 C 0.57623 0.56799 0.52881 0.0
C3575 C 0.58554 0.57357 0.51891 0.0
C3576 C 0.57184 0.56366 0.51037 0.0
C3577 C 0.54821 0.54782 0.51246 0.0
C3578 C 0.53906 0.54206 0.52234 0.0
H3579 H 0.59835 0.52114 0.55438 0.0
H3580 H 0.59471 0.52686 0.54131 0.0
H3581 H 0.59962 0.55518 0.54964 0.0
H3582 H 0.58738 0.57714 0.53485 0.0
H3583 H 0.60349 0.58615 0.51796 0.0
H3584 H 0.32991 0.19927 0.39527 0.0
H3585 H 0.35469 0.17459 0.40839 0.0
H3586 H 0.28826 0.11793 0.41078 0.0
H3587 H 0.26346 0.14272 0.39777 0.0
H3588 H 0.35051 0.16275 0.42796 0.0
H3589 H 0.34595 0.06089 0.41099 0.0
H3590 H 0.33629 0.09113 0.40426 0.0
H3591 H 0.31287 0.07564 0.41284 0.0
C3592 C 0.32034 0.18144 0.39846 0.0
C3593 C 0.29401 0.17359 0.39494 0.0
C3594 C 0.33487 0.16697 0.4062 0.0
C3595 C 0.32463 0.14306 0.41097 0.0
C3596 C 0.29819 0.13535 0.40746 0.0
H3597 H 0.38908 1.02044 0.45737 0.0
H3598 H 0.36388 0.04551 0.4445 0.0
C3599 C 0.2835 0.15003 0.39983 0.0
C3600 C 0.34097 0.12703 0.41949 0.0
H3601 H 0.3625 0.06269 0.42739 0.0
C3602 C 0.35302 0.14083 0.42767 0.0
C3603 C 0.34514 0.098 0.41979 0.0
C3604 C 0.33465 0.08047 0.41148 0.0
C3605 C 0.36742 0.12742 0.43573 0.0
C3606 C 0.37208 0.09836 0.43597 0.0
C3607 C 0.35999 0.08459 0.42775 0.0
C3608 C 0.38862 0.08215 0.44447 0.0
C3609 C 0.37632 0.14514 0.44423 0.0
C3610 C 0.4124 0.09243 0.44938 0.0
C3611 C 0.42692 0.07784 0.45707 0.0
C3612 C 0.41944 0.05133 0.46044 0.0
C3613 C 0.39617 0.04062 0.4554 0.0
C3614 C 0.38143 0.05536 0.44778 0.0
H3615 H 0.36354 0.16376 0.44481 0.0
H3616 H 0.37509 0.13408 0.45138 0.0
H3617 H 0.39765 0.15185 0.44299 0.0
H3618 H 0.42057 0.11192 0.44716 0.0
H3619 H 0.44466 0.08749 0.46031 0.0
H3620 H 0.27652 0.14002 0.72339 0.0
H3621 H 0.25139 0.11282 0.7109 0.0
H3622 H 0.24019 0.18492 0.69334 0.0
H3623 H 0.26591 0.21127 0.70537 0.0
H3624 H 0.2059 0.10258 0.70224 0.0
H3625 H 0.25912 0.14515 0.67011 0.0
H3626 H 0.26999 0.15294 0.68248 0.0
H3627 H 0.24272 0.17206 0.67674 0.0
C3628 C 0.26878 0.15033 0.71689 0.0
C3629 C 0.27409 0.1788 0.7158 0.0
C3630 C 0.25408 0.13437 0.70952 0.0
C3631 C 0.24364 0.14549 0.70044 0.0
C3632 C 0.2483 0.17408 0.69964 0.0
H3633 H 0.14074 0.08934 0.64705 0.0
H3634 H 0.16617 0.1144 0.65992 0.0
C3635 C 0.26309 0.18979 0.70687 0.0
C3636 C 0.22793 0.12813 0.69208 0.0
H3637 H 0.21808 0.12122 0.66655 0.0
C3638 C 0.2091 0.10691 0.69447 0.0
C3639 C 0.23087 0.13211 0.68155 0.0
C3640 C 0.25196 0.15155 0.67755 0.0
C3641 C 0.19362 0.09132 0.68722 0.0
C3642 C 0.19609 0.09586 0.67673 0.0
C3643 C 0.21497 0.11692 0.67433 0.0
C3644 C 0.17978 0.0794 0.66833 0.0
C3645 C 0.17378 0.07037 0.69102 0.0
C3646 C 0.17799 0.05034 0.66795 0.0
C3647 C 0.16342 0.03563 0.66031 0.0
C3648 C 0.14913 0.04863 0.6524 0.0
C3649 C 0.15093 0.07766 0.65275 0.0
C3650 C 0.16589 0.09237 0.66031 0.0
H3651 H 0.16774 0.07457 0.69879 0.0
H3652 H 0.15509 0.06965 0.68639 0.0
H3653 H 0.18358 0.05001 0.69083 0.0
H3654 H 0.18837 0.03853 0.67355 0.0
H3655 H 0.16326 1.01359 0.66067 0.0
H3656 H 0.10807 1.01082 0.95051 0.0
H3657 H 0.13499 0.98592 0.93825 0.0
H3658 H 0.20771 1.00221 0.95494 0.0
H3659 H 0.18043 1.02718 0.96739 0.0
H3660 H 0.16455 0.9409 0.93632 0.0
H3661 H 0.24062 1.02091 0.9288 0.0
H3662 H 0.2393 1.01089 0.94156 0.0
H3663 H 0.21038 1.02752 0.93601 0.0
C3664 C 0.12981 1.00916 0.95179 0.0
C3665 C 0.14104 1.02158 0.96044 0.0
C3666 C 0.14565 0.99452 0.94453 0.0
C3667 C 0.17449 0.99147 0.94505 0.0
C3668 C 0.18597 1.00383 0.95374 0.0
H3669 H 0.3036 0.91521 0.9034 0.0
H3670 H 0.2785 0.93951 0.91648 0.0
C3671 C 0.16991 1.01821 0.96115 0.0
C3672 C 0.19149 0.97538 0.93672 0.0
H3673 H 0.24818 0.97843 0.92107 0.0
C3674 C 0.18279 0.94955 0.93306 0.0
C3675 C 0.21592 0.98511 0.93199 0.0
C3676 C 0.2271 1.01271 0.93468 0.0
C3677 C 0.1971 0.93385 0.92555 0.0
C3678 C 0.22133 0.94374 0.92065 0.0
C3679 C 0.23006 0.96963 0.92435 0.0
C3680 C 0.23765 0.92791 0.91201 0.0
C3681 C 0.18623 0.9058 0.92333 0.0
C3682 C 0.22484 0.91238 0.90433 0.0
C3683 C 0.23965 0.8978 0.89671 0.0
C3684 C 0.26865 0.89791 0.89589 0.0
C3685 C 0.28156 0.91392 0.90338 0.0
C3686 C 0.26674 0.92826 0.91108 0.0
H3687 H 0.1747 0.89739 0.92972 0.0
H3688 H 0.17192 0.90701 0.917 0.0
H3689 H 0.2029 0.89137 0.92151 0.0
H3690 H 0.20285 0.91166 0.904 0.0
H3691 H 0.22799 0.88644 0.8913 0.0
H3692 H 0.30904 0.85867 0.20589 0.0
H3693 H 0.33407 0.88603 0.19379 0.0
H3694 H 0.31914 0.95774 0.21115 0.0
H3695 H 0.29396 0.92999 0.22342 0.0
H3696 H 0.37875 0.91422 0.1915 0.0
H3697 H 0.30087 0.99346 0.18561 0.0
H3698 H 0.31166 0.99096 0.19826 0.0
H3699 H 0.29377 0.96297 0.19261 0.0
C3700 C 0.31102 0.88026 0.20735 0.0
C3701 C 0.29888 0.89105 0.21613 0.0
C3702 C 0.32574 0.89639 0.20018 0.0
C3703 C 0.32922 0.92512 0.20093 0.0
C3704 C 0.31718 0.93614 0.20976 0.0
H3705 H 0.38864 1.02273 0.14576 0.0
H3706 H 0.36162 0.99679 0.15812 0.0
C3707 C 0.30268 0.91979 0.21707 0.0
C3708 C 0.34539 0.94244 0.19268 0.0
H3709 H 0.34351 1.0008 0.17777 0.0
C3710 C 0.37064 0.93319 0.18864 0.0
C3711 C 0.33609 0.96752 0.18827 0.0
C3712 C 0.30902 0.9793 0.1913 0.0
C3713 C 0.38611 0.94748 0.18106 0.0
C3714 C 0.37721 0.9729 0.17683 0.0
C3715 C 0.35162 0.9819 0.18068 0.0
C3716 C 0.39414 0.98995 0.16871 0.0
C3717 C 0.412 0.93431 0.17745 0.0
C3718 C 0.42228 0.9964 0.16988 0.0
C3719 C 0.43791 1.01161 0.16271 0.0
C3720 C 0.42715 1.02174 0.15359 0.0
C3721 C 0.39886 1.01553 0.15235 0.0
C3722 C 0.38297 1.00045 0.15966 0.0
H3723 H 0.41185 0.91196 0.17875 0.0
H3724 H 0.41515 0.93803 0.16943 0.0
H3725 H 0.42957 0.94297 0.18155 0.0
H3726 H 0.43254 0.99007 0.17657 0.0
H3727 H 0.45908 1.01564 0.16445 0.0
H3728 H 0.76707 0.8647 0.69769 0.0
H3729 H 0.74127 0.89189 0.68582 0.0
H3730 H 0.74468 0.96022 0.70565 0.0
H3731 H 0.76963 0.93228 0.71779 0.0
H3732 H 0.74153 0.92762 0.67359 0.0
H3733 H 0.67208 0.98071 0.69901 0.0
H3734 H 0.70701 0.98755 0.70197 0.0
H3735 H 0.69363 0.95341 0.70322 0.0
C3736 C 0.76213 0.88542 0.69976 0.0
C3737 C 0.7709 0.89509 0.70922 0.0
C3738 C 0.74704 0.90157 0.69269 0.0
C3739 C 0.7392 0.92921 0.69431 0.0
C3740 C 0.74841 0.93918 0.70376 0.0
H3741 H 0.60965 1.02235 0.65854 0.0
H3742 H 0.63683 0.99646 0.67038 0.0
C3743 C 0.76341 0.9228 0.71093 0.0
C3744 C 0.72251 0.94665 0.68615 0.0
H3745 H 0.67256 0.99662 0.68259 0.0
C3746 C 0.72645 0.94256 0.67577 0.0
C3747 C 0.70173 0.96669 0.68819 0.0
C3748 C 0.69307 0.97224 0.69868 0.0
C3749 C 0.71162 0.95682 0.66798 0.0
C3750 C 0.69158 0.9776 0.67002 0.0
C3751 C 0.68749 0.98153 0.6804 0.0
C3752 C 0.67414 0.99431 0.66186 0.0
C3753 C 0.71718 0.94817 0.65749 0.0
C3754 C 0.6841 1.00349 0.65241 0.0
C3755 C 0.66771 1.01854 0.64525 0.0
C3756 C 0.64 1.02611 0.64698 0.0
C3757 C 0.63036 1.01735 0.65644 0.0
C3758 C 0.64651 1.0022 0.6635 0.0
H3759 H 0.72565 0.9272 0.65716 0.0
H3760 H 0.69834 0.94875 0.65295 0.0
H3761 H 0.73251 0.9621 0.6542 0.0
H3762 H 0.70513 0.99971 0.6505 0.0
H3763 H 0.67718 1.02476 0.63838 0.0
H3764 H 0.8963 0.05605 0.46333 0.0
H3765 H 0.87094 1.03087 0.45052 0.0
H3766 H 0.92176 0.96096 0.45563 0.0
H3767 H 0.94599 0.98565 0.46868 0.0
H3768 H 0.87012 1.01066 0.4337 0.0
H3769 H 0.86072 0.91353 0.45351 0.0
H3770 H 0.87384 0.94342 0.45954 0.0
H3771 H 0.8959 0.92234 0.45204 0.0
C3772 C 0.90206 0.03512 0.46192 0.0
C3773 C 0.92375 1.0236 0.46762 0.0
C3774 C 0.88721 1.02029 0.45432 0.0
C3775 C 0.89266 0.99252 0.45169 0.0
C3776 C 0.9149 0.98136 0.45727 0.0
H3777 H 0.78265 0.8753 0.41664 0.0
H3778 H 0.80789 0.90213 0.42874 0.0
C3779 C 0.92952 0.99607 0.46492 0.0
C3780 C 0.87593 0.9761 0.44326 0.0
H3781 H 0.85025 0.91225 0.43649 0.0
C3782 C 0.86596 0.9891 0.4345 0.0
C3783 C 0.86874 0.94759 0.44365 0.0
C3784 C 0.87506 0.93093 0.45272 0.0
C3785 C 0.8506 0.9755 0.42667 0.0
C3786 C 0.84454 0.94669 0.42685 0.0
C3787 C 0.85421 0.93384 0.43568 0.0
C3788 C 0.82768 0.92985 0.41854 0.0
C3789 C 0.84008 0.99307 0.41838 0.0
C3790 C 0.82854 0.93457 0.40803 0.0
C3791 C 0.81304 0.91881 0.40079 0.0
C3792 C 0.79578 0.89652 0.40343 0.0
C3793 C 0.79524 0.89173 0.41386 0.0
C3794 C 0.8103 0.90755 0.42103 0.0
H3795 H 0.83849 1.01477 0.42065 0.0
H3796 H 0.85451 0.99203 0.41208 0.0
H3797 H 0.81966 0.98618 0.41587 0.0
H3798 H 0.84181 0.95028 0.40519 0.0
H3799 H 0.81513 0.92395 0.39305 0.0
H3800 H 0.88473 0.04137 0.14012 0.0
H3801 H 0.85715 0.06702 0.15238 0.0
H3802 H 0.92713 0.07313 0.17133 0.0
H3803 H 0.95424 0.04785 0.1593 0.0
H3804 H 0.83821 0.06232 0.17191 0.0
H3805 H 0.90642 0.15128 0.17347 0.0
H3806 H 0.91012 0.12539 0.16411 0.0
H3807 H 0.92405 0.12024 0.17629 0.0
C3808 C 0.89462 0.04839 0.1468 0.0
C3809 C 0.92281 0.04213 0.14823 0.0
C3810 C 0.87841 0.06328 0.15405 0.0
C3811 C 0.88917 0.07349 0.16319 0.0
C3812 C 0.91722 0.067 0.16454 0.0
H3813 H 0.80124 0.20342 0.19985 0.0
H3814 H 0.82682 0.17639 0.18782 0.0
C3815 C 0.93316 0.05197 0.15744 0.0
C3816 C 0.8719 0.09032 0.17123 0.0
H3817 H 0.87277 0.14871 0.18603 0.0
C3818 C 0.84617 0.08118 0.17491 0.0
C3819 C 0.88062 0.11567 0.17556 0.0
C3820 C 0.90664 0.12895 0.17211 0.0
C3821 C 0.83033 0.09538 0.18244 0.0
C3822 C 0.83946 0.12035 0.18695 0.0
C3823 C 0.86483 0.12977 0.18308 0.0
C3824 C 0.82294 0.13741 0.19512 0.0
C3825 C 0.80313 0.08355 0.1853 0.0
C3826 C 0.81125 0.12626 0.20398 0.0
C3827 C 0.79646 0.14241 0.21126 0.0
C3828 C 0.792 0.17101 0.21021 0.0
C3829 C 0.80376 0.18191 0.20138 0.0
C3830 C 0.81879 0.16601 0.19426 0.0
H3831 H 0.7953 0.06929 0.17959 0.0
H3832 H 0.80541 0.07204 0.19232 0.0
H3833 H 0.78779 0.09988 0.18647 0.0
H3834 H 0.81372 0.10473 0.20543 0.0
H3835 H 0.78804 0.13216 0.21765 0.0
H3836 H 0.66685 1.00935 0.95986 0.0
H3837 H 0.69134 0.0345 0.94686 0.0
H3838 H 0.66458 0.11006 0.95967 0.0
H3839 H 0.63905 0.08482 0.97228 0.0
H3840 H 0.72995 0.0633 0.94221 0.0
H3841 H 0.65159 0.14005 0.93419 0.0
H3842 H 0.66154 0.14185 0.9469 0.0
H3843 H 0.64469 0.1117 0.94224 0.0
C3844 C 0.66581 1.03138 0.95996 0.0
C3845 C 0.65001 0.04423 0.96751 0.0
C3846 C 0.68028 0.04624 0.95232 0.0
C3847 C 0.68033 0.07533 0.95151 0.0
C3848 C 0.665 0.08809 0.95925 0.0
H3849 H 0.73498 0.17702 0.89735 0.0
H3850 H 0.7102 0.15154 0.91022 0.0
C3851 C 0.65024 0.07323 0.96682 0.0
C3852 C 0.6965 0.09155 0.94294 0.0
H3853 H 0.6953 0.14879 0.92751 0.0
C3854 C 0.72186 0.08196 0.9391 0.0
C3855 C 0.68731 0.11616 0.93813 0.0
C3856 C 0.65969 0.12793 0.94048 0.0
C3857 C 0.7374 0.09535 0.93131 0.0
C3858 C 0.72893 0.12074 0.92688 0.0
C3859 C 0.70332 0.13007 0.93059 0.0
C3860 C 0.74537 0.13719 0.91843 0.0
C3861 C 0.76253 0.08087 0.92766 0.0
C3862 C 0.77447 0.13949 0.91803 0.0
C3863 C 0.78903 0.15408 0.91036 0.0
C3864 C 0.77586 0.1683 0.90249 0.0
C3865 C 0.74681 0.16668 0.90297 0.0
C3866 C 0.73224 0.15177 0.91059 0.0
H3867 H 0.76126 0.05857 0.92902 0.0
H3868 H 0.76564 0.08412 0.91962 0.0
H3869 H 0.78059 0.08858 0.93174 0.0
H3870 H 0.78654 0.13039 0.92383 0.0
H3871 H 0.81108 0.15455 0.91073 0.0
H3872 H 0.79453 0.70173 0.90839 0.0
H3873 H 0.81961 0.67445 0.92041 0.0
H3874 H 0.81648 0.60601 0.90063 0.0
H3875 H 0.79206 0.63402 0.88834 0.0
H3876 H 0.81815 0.63853 0.93264 0.0
H3877 H 0.8891 0.58573 0.90763 0.0
H3878 H 0.86769 0.61301 0.90331 0.0
H3879 H 0.85429 0.57888 0.90449 0.0
C3880 C 0.79937 0.68097 0.90635 0.0
C3881 C 0.79086 0.67129 0.89687 0.0
C3882 C 0.81404 0.66477 0.91351 0.0
C3883 C 0.82172 0.63709 0.91195 0.0
C3884 C 0.81279 0.62708 0.90248 0.0
H3885 H 0.9504 0.54589 0.94858 0.0
H3886 H 0.92341 0.57135 0.93657 0.0
C3887 C 0.79814 0.6435 0.89522 0.0
C3888 C 0.83801 0.61968 0.92021 0.0
H3889 H 0.88814 0.57008 0.92409 0.0
C3890 C 0.83348 0.62371 0.93056 0.0
C3891 C 0.85899 0.59977 0.91829 0.0
C3892 C 0.86809 0.5942 0.90785 0.0
C3893 C 0.84799 0.60954 0.93844 0.0
C3894 C 0.86832 0.58897 0.93651 0.0
C3895 C 0.87297 0.58506 0.92617 0.0
C3896 C 0.88554 0.57248 0.94478 0.0
C3897 C 0.84174 0.618 0.94889 0.0
C3898 C 0.87515 0.56291 0.95411 0.0
C3899 C 0.89139 0.54805 0.96137 0.0
C3900 C 0.91936 0.54118 0.95986 0.0
C3901 C 0.92944 0.55036 0.95051 0.0
C3902 C 0.91343 0.56525 0.94335 0.0
H3903 H 0.83296 0.63885 0.9492 0.0
H3904 H 0.82644 0.60382 0.95206 0.0
H3905 H 0.86034 0.61761 0.95357 0.0
H3906 H 0.85392 0.56623 0.95585 0.0
H3907 H 0.88162 0.54149 0.96814 0.0
H3908 H 0.6135 0.55147 0.16392 0.0
H3909 H 0.64061 0.57694 0.17596 0.0
H3910 H 0.71191 0.56555 0.158 0.0
H3911 H 0.68443 0.5399 0.14579 0.0
H3912 H 0.66716 0.62249 0.17829 0.0
H3913 H 0.7498 0.54763 0.18314 0.0
H3914 H 0.74622 0.55892 0.17058 0.0
H3915 H 0.71924 0.53965 0.17629 0.0
C3916 C 0.63495 0.5543 0.16233 0.0
C3917 C 0.64573 0.54297 0.1534 0.0
C3918 C 0.65092 0.56929 0.16946 0.0
C3919 C 0.67947 0.57389 0.16851 0.0
C3920 C 0.69047 0.56268 0.15954 0.0
H3921 H 0.77742 0.63477 0.22335 0.0
H3922 H 0.75173 0.6073 0.21105 0.0
C3923 C 0.67427 0.54789 0.15227 0.0
C3924 C 0.69662 0.59035 0.17672 0.0
H3925 H 0.75588 0.59014 0.19118 0.0
C3926 C 0.68659 0.61501 0.18096 0.0
C3927 C 0.72231 0.58187 0.18088 0.0
C3928 C 0.73503 0.55547 0.1776 0.0
C3929 C 0.70071 0.63069 0.18852 0.0
C3930 C 0.72669 0.6226 0.19252 0.0
C3931 C 0.73649 0.5976 0.18846 0.0
C3932 C 0.74352 0.63981 0.2006 0.0
C3933 C 0.68678 0.6559 0.19237 0.0
C3934 C 0.74906 0.66813 0.19948 0.0
C3935 C 0.76413 0.68401 0.2066 0.0
C3936 C 0.77495 0.67335 0.21562 0.0
C3937 C 0.7696 0.64491 0.21683 0.0
C3938 C 0.75469 0.62877 0.20956 0.0
H3939 H 0.66437 0.65502 0.1912 0.0
H3940 H 0.69077 0.65882 0.20038 0.0
H3941 H 0.69465 0.67393 0.18833 0.0
H3942 H 0.74214 0.67832 0.19284 0.0
H3943 H 0.76752 0.70529 0.20489 0.0
H3944 H 0.72654 0.38618 0.39033 0.0
H3945 H 0.70097 0.41187 0.40292 0.0
H3946 H 0.77651 0.44218 0.41473 0.0
H3947 H 0.80169 0.41776 0.40187 0.0
H3948 H 0.68758 0.41681 0.42028 0.0
H3949 H 0.74565 0.51232 0.41866 0.0
H3950 H 0.75126 0.48555 0.40982 0.0
H3951 H 0.76773 0.48461 0.42178 0.0
C3952 C 0.73799 0.3986 0.39548 0.0
C3953 C 0.767 0.39943 0.39455 0.0
C3954 C 0.72296 0.41364 0.40294 0.0
C3955 C 0.73555 0.43082 0.41019 0.0
C3956 C 0.76469 0.43098 0.40936 0.0
H3957 H 0.65076 0.55922 0.4497 0.0
H3958 H 0.67591 0.53379 0.43696 0.0
C3959 C 0.77966 0.41624 0.40183 0.0
C3960 C 0.7186 0.44739 0.41847 0.0
H3961 H 0.71618 0.50746 0.43238 0.0
C3962 C 0.69426 0.43668 0.42278 0.0
C3963 C 0.72528 0.47418 0.42217 0.0
C3964 C 0.74869 0.49001 0.41781 0.0
C3965 C 0.67786 0.45058 0.43021 0.0
C3966 C 0.68536 0.47672 0.43429 0.0
C3967 C 0.70942 0.48765 0.42985 0.0
C3968 C 0.66869 0.49314 0.44269 0.0
C3969 C 0.65161 0.43701 0.43324 0.0
C3970 C 0.65516 0.48064 0.45093 0.0
C3971 C 0.63996 0.49564 0.45834 0.0
C3972 C 0.63746 0.52459 0.45836 0.0
C3973 C 0.65147 0.53724 0.45032 0.0
C3974 C 0.66635 0.52221 0.44283 0.0
H3975 H 0.64398 0.42308 0.42739 0.0
H3976 H 0.65526 0.42454 0.43996 0.0
H3977 H 0.63544 0.45221 0.43483 0.0
H3978 H 0.65656 0.45884 0.45186 0.0
H3979 H 0.63029 0.48423 0.46423 0.0
H3980 H 0.80659 0.36163 0.70643 0.0
H3981 H 0.83292 0.38887 0.69475 0.0
H3982 H 0.82113 0.4594 0.71311 0.0
H3983 H 0.79583 0.43141 0.72513 0.0
H3984 H 0.83195 0.42243 0.68195 0.0
H3985 H 0.89253 0.4851 0.70759 0.0
H3986 H 0.87254 0.4568 0.71196 0.0
H3987 H 0.85672 0.48944 0.70963 0.0
C3988 C 0.80986 0.38287 0.70823 0.0
C3989 C 0.79873 0.3932 0.71724 0.0
C3990 C 0.82521 0.39903 0.70127 0.0
C3991 C 0.8308 0.42732 0.70256 0.0
C3992 C 0.81924 0.43791 0.71155 0.0
H3993 H 0.91114 0.55785 0.66261 0.0
H3994 H 0.88554 0.53241 0.67531 0.0
C3995 C 0.80407 0.4215 0.71864 0.0
C3996 C 0.84752 0.44474 0.69445 0.0
H3997 H 0.89387 0.49813 0.6908 0.0
C3998 C 0.84559 0.43871 0.68413 0.0
C3999 C 0.86608 0.46688 0.6965 0.0
C4000 C 0.87239 0.47483 0.70701 0.0
C4001 C 0.86017 0.4532 0.67638 0.0
C4002 C 0.87853 0.47533 0.67844 0.0
C4003 C 0.88034 0.48164 0.68871 0.0
C4004 C 0.89551 0.49179 0.67023 0.0
C4005 C 0.85484 0.44483 0.66584 0.0
C4006 C 0.91127 0.47903 0.66263 0.0
C4007 C 0.92657 0.49397 0.65524 0.0
C4008 C 0.92724 0.523 0.65473 0.0
C4009 C 0.91165 0.53581 0.66234 0.0
C4010 C 0.89668 0.52086 0.66982 0.0
H4011 H 0.83492 0.43425 0.66507 0.0
H4012 H 0.85499 0.46271 0.66081 0.0
H4013 H 0.87102 0.43049 0.66344 0.0
H4014 H 0.9123 0.45702 0.66245 0.0
H4015 H 0.93802 0.48246 0.64982 0.0
H4016 H 0.30437 0.40491 0.20112 0.0
H4017 H 0.27878 0.43047 0.18844 0.0
H4018 H 0.20361 0.4087 0.2027 0.0
H4019 H 0.22916 0.38311 0.21531 0.0
H4020 H 0.24271 0.42253 0.17356 0.0
H4021 H 0.18376 0.48637 0.19926 0.0
H4022 H 0.21171 0.46548 0.20345 0.0
H4023 H 0.17855 0.45069 0.2014 0.0
C4024 C 0.28236 0.40551 0.2017 0.0
C4025 C 0.26965 0.39133 0.2097 0.0
C4026 C 0.26731 0.42045 0.19423 0.0
C4027 C 0.23828 0.423 0.19421 0.0
C4028 C 0.22562 0.40866 0.20219 0.0
H4029 H 0.10823 0.51328 0.15832 0.0
H4030 H 0.13551 0.4871 0.17004 0.0
C4031 C 0.24063 0.39342 0.20959 0.0
C4032 C 0.22173 0.43989 0.18598 0.0
H4033 H 0.17037 0.48819 0.18251 0.0
C4034 C 0.22699 0.4369 0.17567 0.0
C4035 C 0.20054 0.45931 0.18807 0.0
C4036 C 0.19338 0.46596 0.19863 0.0
C4037 C 0.21208 0.45105 0.16788 0.0
C4038 C 0.19091 0.47065 0.16996 0.0
C4039 C 0.18591 0.47374 0.18031 0.0
C4040 C 0.17344 0.48731 0.16185 0.0
C4041 C 0.21879 0.4435 0.15737 0.0
C4042 C 0.18374 0.49778 0.15264 0.0
C4043 C 0.16731 0.51292 0.14554 0.0
C4044 C 0.13928 0.51929 0.14714 0.0
C4045 C 0.12925 0.50922 0.15636 0.0
C4046 C 0.14543 0.49394 0.16334 0.0
H4047 H 0.22816 0.42293 0.15691 0.0
H4048 H 0.20029 0.44367 0.15264 0.0
H4049 H 0.23378 0.4583 0.15438 0.0
H4050 H 0.20504 0.49501 0.15089 0.0
H4051 H 0.177 0.52025 0.13886 0.0
H4052 H 0.43104 0.48096 0.97201 0.0
H4053 H 0.40558 0.45675 0.95899 0.0
H4054 H 0.38148 0.53368 0.94655 0.0
H4055 H 0.40551 0.55754 0.95982 0.0
H4056 H 0.40209 0.44337 0.9416 0.0
H4057 H 0.31018 0.50712 0.94138 0.0
H4058 H 0.3396 0.52744 0.93874 0.0
H4059 H 0.33603 0.51127 0.95069 0.0
C4060 C 0.42004 0.49302 0.96662 0.0
C4061 C 0.42079 0.52201 0.96749 0.0
C4062 C 0.40513 0.47879 0.95891 0.0
C4063 C 0.38972 0.49224 0.95134 0.0
C4064 C 0.39121 0.52131 0.95213 0.0
H4065 H 0.26201 0.41517 0.90944 0.0
H4066 H 0.28703 0.4388 0.92266 0.0
C4067 C 0.40575 0.53549 0.9599 0.0
C4068 C 0.37328 0.47622 0.94279 0.0
H4069 H 0.31517 0.47732 0.92776 0.0
C4070 C 0.38304 0.45122 0.93871 0.0
C4071 C 0.34749 0.48448 0.93859 0.0
C4072 C 0.33252 0.50884 0.94263 0.0
C4073 C 0.36919 0.43561 0.93105 0.0
C4074 C 0.34418 0.44466 0.92647 0.0
C4075 C 0.33415 0.46939 0.93068 0.0
C4076 C 0.32799 0.42897 0.91777 0.0
C4077 C 0.38148 0.40851 0.92833 0.0
C4078 C 0.34085 0.41455 0.90982 0.0
C4079 C 0.32605 0.40021 0.90213 0.0
C4080 C 0.29702 0.39959 0.90151 0.0
C4081 C 0.28407 0.4145 0.90927 0.0
C4082 C 0.29886 0.42848 0.91705 0.0
H4083 H 0.39398 0.40011 0.93447 0.0
H4084 H 0.36551 0.39334 0.92646 0.0
H4085 H 0.39518 0.41124 0.92188 0.0
H4086 H 0.36282 0.41456 0.90933 0.0
H4087 H 0.33772 0.3897 0.89651 0.0
H4088 H 0.45235 0.55195 0.65753 0.0
H4089 H 0.42543 0.5776 0.6695 0.0
H4090 H 0.35661 0.57449 0.64984 0.0
H4091 H 0.38429 0.54962 0.6376 0.0
H4092 H 0.38992 0.57694 0.68181 0.0
H4093 H 0.33635 0.647 0.65671 0.0
H4094 H 0.32941 0.61216 0.65369 0.0
H4095 H 0.36356 0.62552 0.65238 0.0
C4096 C 0.43157 0.55691 0.65551 0.0
C4097 C 0.42169 0.54824 0.64607 0.0
C4098 C 0.41558 0.57192 0.66264 0.0
C4099 C 0.38789 0.57976 0.66111 0.0
C4100 C 0.3777 0.5707 0.65167 0.0
H4101 H 0.29641 0.70878 0.69762 0.0
H4102 H 0.32184 0.68182 0.68558 0.0
C4103 C 0.39393 0.55577 0.64444 0.0
C4104 C 0.37065 0.5963 0.66936 0.0
H4105 H 0.3209 0.6463 0.67319 0.0
C4106 C 0.37497 0.59211 0.67971 0.0
C4107 C 0.35061 0.61716 0.66742 0.0
C4108 C 0.34482 0.62602 0.65697 0.0
C4109 C 0.36092 0.60679 0.68758 0.0
C4110 C 0.34015 0.62691 0.68564 0.0
C4111 C 0.33599 0.63127 0.67529 0.0
C4112 C 0.32369 0.64417 0.6939 0.0
C4113 C 0.36977 0.60096 0.69803 0.0
C4114 C 0.31451 0.63392 0.70331 0.0
C4115 C 0.29971 0.65013 0.71057 0.0
C4116 C 0.29245 0.67797 0.70901 0.0
C4117 C 0.3012 0.68794 0.69959 0.0
C4118 C 0.31607 0.67193 0.69242 0.0
H4119 H 0.39075 0.59244 0.69829 0.0
H4120 H 0.36932 0.61967 0.70263 0.0
H4121 H 0.35586 0.58559 0.70131 0.0
H4122 H 0.31812 0.61278 0.7051 0.0
H4123 H 0.29349 0.64045 0.7174 0.0
H4124 H 0.18658 0.54766 0.47626 0.0
H4125 H 0.21342 0.5736 0.46385 0.0
H4126 H 0.14325 0.577 0.44491 0.0
H4127 H 0.11686 0.55164 0.4571 0.0
H4128 H 0.23326 0.56961 0.44495 0.0
H4129 H 0.16088 0.65437 0.44104 0.0
H4130 H 0.15727 0.62935 0.45071 0.0
H4131 H 0.14498 0.62232 0.4384 0.0
C4132 C 0.17646 0.55415 0.46955 0.0
C4133 C 0.1484 0.54709 0.4682 0.0
C4134 C 0.19225 0.56927 0.46221 0.0
C4135 C 0.18124 0.57894 0.45301 0.0
C4136 C 0.15336 0.57154 0.45173 0.0
H4137 H 0.23577 0.67866 0.39845 0.0
H4138 H 0.21152 0.65298 0.41141 0.0
C4139 C 0.13782 0.55637 0.45894 0.0
C4140 C 0.19819 0.59579 0.44481 0.0
H4141 H 0.19532 0.65172 0.42878 0.0
C4142 C 0.22465 0.58767 0.44156 0.0
C4143 C 0.18845 0.61986 0.43982 0.0
C4144 C 0.16149 0.63222 0.44271 0.0
C4145 C 0.24019 0.60134 0.4338 0.0
C4146 C 0.2305 0.62554 0.42882 0.0
C4147 C 0.20406 0.63368 0.43214 0.0
C4148 C 0.24668 0.64218 0.42031 0.0
C4149 C 0.26671 0.58835 0.43076 0.0
C4150 C 0.27558 0.64663 0.42024 0.0
C4151 C 0.28987 0.66146 0.41253 0.0
C4152 C 0.27661 0.67375 0.40425 0.0
C4153 C 0.24771 0.66993 0.40439 0.0
C4154 C 0.23343 0.65487 0.41206 0.0
H4155 H 0.26697 0.56623 0.4325 0.0
H4156 H 0.27046 0.59081 0.42272 0.0
H4157 H 0.28366 0.59797 0.43492 0.0
H4158 H 0.28765 0.63909 0.42633 0.0
H4159 H 0.31177 0.66361 0.41319 0.0
H4160 H 0.12071 0.12171 0.33269 0.0
H4161 H 0.09551 0.09741 0.31973 0.0
H4162 H 0.14061 1.0242 0.32635 0.0
H4163 H 0.16609 0.0482 0.33903 0.0
H4164 H 0.12119 0.07523 0.30372 0.0
H4165 H 0.0639 0.99426 0.32266 0.0
H4166 H 0.07538 1.0247 0.32895 0.0
H4167 H 0.09793 0.99598 0.32746 0.0
C4168 C 0.12507 0.10037 0.33141 0.0
C4169 C 0.14542 0.08688 0.33689 0.0
C4170 C 0.11041 0.08647 0.32411 0.0
C4171 C 0.11566 0.05883 0.32228 0.0
C4172 C 0.13547 0.04525 0.3279 0.0
H4173 H 0.15924 0.94194 0.28755 0.0
H4174 H 0.13575 0.9691 0.29993 0.0
C4175 C 0.15019 0.05908 0.33512 0.0
C4176 C 0.10437 0.04502 0.31349 0.0
H4177 H 0.08365 0.9817 0.30644 0.0
C4178 C 0.11193 0.05519 0.30421 0.0
C4179 C 0.09192 1.01912 0.31417 0.0
C4180 C 0.08156 1.00806 0.32386 0.0
C4181 C 0.11122 0.03856 0.2958 0.0
C4182 C 0.10204 1.01129 0.29674 0.0
C4183 C 0.09097 1.00248 0.30576 0.0
C4184 C 0.11013 0.99043 0.28942 0.0
C4185 C 0.12332 0.04936 0.2863 0.0
C4186 C 0.10246 0.99232 0.27945 0.0
C4187 C 0.11624 0.977 0.27231 0.0
C4188 C 0.1374 0.95926 0.27511 0.0
C4189 C 0.14297 0.95538 0.28519 0.0
C4190 C 0.12949 0.97089 0.29227 0.0
H4191 H 0.13181 0.07021 0.28715 0.0
H4192 H 0.13988 0.03573 0.28368 0.0
H4193 H 0.10732 0.0501 0.28051 0.0
H4194 H 0.0871 1.00682 0.27713 0.0
H4195 H 0.11128 0.97997 0.26458 0.0
H4196 H 0.21041 0.92992 0.58074 0.0
H4197 H 0.23948 0.91129 0.56783 0.0
H4198 H 0.28757 0.86942 0.58983 0.0
H4199 H 0.25843 0.88821 0.60285 0.0
H4200 H 0.31801 0.90218 0.57896 0.0
H4201 H 0.25526 0.84141 0.55353 0.0
H4202 H 0.23787 0.87266 0.55614 0.0
H4203 H 0.24445 0.84881 0.56602 0.0
C4204 C 0.22657 0.916 0.58281 0.0
C4205 C 0.23237 0.91075 0.59279 0.0
C4206 C 0.24309 0.90515 0.57541 0.0
C4207 C 0.26549 0.88863 0.57786 0.0
C4208 C 0.27027 0.88195 0.58779 0.0
H4209 H 0.36464 0.88204 0.52373 0.0
H4210 H 0.34639 0.86225 0.53907 0.0
C4211 C 0.25379 0.89289 0.5952 0.0
C4212 C 0.2864 0.88313 0.57026 0.0
H4213 H 0.29141 0.8695 0.54564 0.0
C4214 C 0.31253 0.89407 0.57177 0.0
C4215 C 0.27959 0.87204 0.56094 0.0
C4216 C 0.25282 0.8578 0.55912 0.0
C4217 C 0.33065 0.8974 0.56388 0.0
C4218 C 0.32219 0.88989 0.55429 0.0
C4219 C 0.29758 0.87576 0.553 0.0
C4220 C 0.33571 0.90119 0.54548 0.0
C4221 C 0.35786 0.9108 0.56574 0.0
C4222 C 0.33549 0.9295 0.54405 0.0
C4223 C 0.34557 0.94073 0.53534 0.0
C4224 C 0.35605 0.92381 0.52791 0.0
C4225 C 0.35681 0.89546 0.52941 0.0
C4226 C 0.34643 0.88417 0.53812 0.0
H4227 H 0.36519 0.90656 0.57336 0.0
H4228 H 0.37345 0.90371 0.56037 0.0
H4229 H 0.35563 0.9332 0.56496 0.0
H4230 H 0.32677 0.9429 0.54957 0.0
H4231 H 0.34495 0.96263 0.53438 0.0
H4232 H 0.45505 0.0719 0.75979 0.0
H4233 H 0.47464 0.03954 0.77167 0.0
H4234 H 0.43612 0.08329 0.79555 0.0
H4235 H 0.4173 0.11576 0.78385 0.0
H4236 H 0.48387 0.05888 0.80149 0.0
H4237 H 0.4175 0.98587 0.78081 0.0
H4238 H 0.44566 1.0012 0.77439 0.0
H4239 H 0.41705 1.02176 0.77805 0.0
C4240 C 0.45154 0.07499 0.76762 0.0
C4241 C 0.43425 0.09598 0.7709 0.0
C4242 C 0.46269 0.05651 0.77438 0.0
C4243 C 0.45615 0.05857 0.78445 0.0
C4244 C 0.44138 0.08125 0.7878 0.0
H4245 H 0.37658 0.99686 0.82845 0.0
H4246 H 0.40194 1.01628 0.81464 0.0
C4247 C 0.43058 0.09985 0.78109 0.0
C4248 C 0.45969 0.03533 0.7913 0.0
H4249 H 0.42684 0.97625 0.79724 0.0
C4250 C 0.47235 0.04023 0.80045 0.0
C4251 C 0.44463 1.01095 0.78991 0.0
C4252 C 0.43032 1.0045 0.78029 0.0
C4253 C 0.46758 1.02307 0.80856 0.0
C4254 C 0.45004 1.00054 0.8074 0.0
C4255 C 0.44025 0.99371 0.79801 0.0
C4256 C 0.43603 0.98855 0.81596 0.0
C4257 C 0.47879 1.03066 0.81856 0.0
C4258 C 0.44692 0.96646 0.82119 0.0
C4259 C 0.43247 0.95535 0.82916 0.0
C4260 C 0.40702 0.96626 0.83194 0.0
C4261 C 0.39628 0.9883 0.82659 0.0
C4262 C 0.41067 0.99933 0.81869 0.0
H4263 H 0.49519 0.04621 0.81801 0.0
H4264 H 0.46208 0.03901 0.8232 0.0
H4265 H 0.48695 1.01232 0.82235 0.0
H4266 H 0.46647 0.95792 0.81912 0.0
H4267 H 0.44132 0.9385 0.83321 0.0
H4268 H 0.21504 0.11298 1.03653 0.0
H4269 H 0.23761 0.13287 1.05085 0.0
H4270 H 0.2351 0.21213 1.03707 0.0
H4271 H 0.21279 0.19204 1.0225 0.0
H4272 H 0.28615 0.19872 1.04378 0.0
H4273 H 0.21149 0.18039 0.07341 0.0
H4274 H 0.21619 0.14981 0.06638 0.0
H4275 H 0.20218 0.17965 0.06048 0.0
C4276 C 0.21906 0.13469 1.03658 0.0
C4277 C 0.21235 0.15095 1.0284 0.0
C4278 C 0.23162 0.14611 1.04482 0.0
C4279 C 0.23757 0.17407 1.0451 0.0
C4280 C 0.23036 0.19057 1.03703 0.0
H4281 H 0.32314 0.19121 0.10113 0.0
H4282 H 0.29407 0.20871 0.08782 0.0
C4283 C 0.2176 0.17911 1.02876 0.0
C4284 C 0.25396 0.18484 1.0534 0.0
H4285 H 0.25966 0.17802 0.07835 0.0
C4286 C 0.28011 0.19503 1.05138 0.0
C4287 C 0.24586 0.18087 0.06332 0.0
C4288 C 0.21725 0.17238 0.06601 0.0
C4289 C 0.2994 0.19827 0.05895 0.0
C4290 C 0.29243 0.19049 0.0687 0.0
C4291 C 0.2653 0.18346 0.07085 0.0
C4292 C 0.31341 0.18492 0.07632 0.0
C4293 C 0.32741 0.20872 1.05634 0.0
C4294 C 0.33431 0.16621 0.07425 0.0
C4295 C 0.35089 0.15627 0.08181 0.0
C4296 C 0.34666 0.16452 0.09162 0.0
C4297 C 0.32668 0.18432 0.09363 0.0
C4298 C 0.31018 0.19443 0.08604 0.0
H4299 H 0.32617 0.22403 1.0503 0.0
H4300 H 0.3377 0.21812 0.0628 0.0
H4301 H 0.34008 0.19157 1.05361 0.0
H4302 H 0.33669 0.15784 0.0669 0.0
H4303 H 0.36579 0.14072 0.08004 0.0
H4304 H 0.93429 1.0071 0.75999 0.0
H4305 H 0.94971 0.03575 0.77371 0.0
H4306 H 0.91596 0.97808 0.79446 0.0
H4307 H 0.9007 0.94952 0.78087 0.0
H4308 H 0.91264 0.05868 0.78518 0.0
H4309 H 0.9828 1.00168 0.80928 0.0
H4310 H 0.97654 0.99181 0.79661 0.0
H4311 H 0.954 0.98072 0.80635 0.0
C4312 C 0.93087 1.00022 0.7675 0.0
C4313 C 0.91604 0.97623 0.76937 0.0
C4314 C 0.93984 1.0165 0.77532 0.0
C4315 C 0.93421 1.00897 0.78512 0.0
C4316 C 0.92123 0.98399 0.78699 0.0
H4317 H 0.85693 0.08046 0.83165 0.0
H4318 H 0.87516 0.06047 0.81649 0.0
C4319 C 0.91235 0.9677 0.77919 0.0
C4320 C 0.93657 1.02912 0.79321 0.0
H4321 H 0.95158 0.03353 0.81778 0.0
C4322 C 0.92196 0.05358 0.79222 0.0
C4323 C 0.94898 1.02275 0.80236 0.0
C4324 C 0.9667 0.99791 0.80366 0.0
C4325 C 0.91708 0.07036 0.80039 0.0
C4326 C 0.92679 0.06227 0.80976 0.0
C4327 C 0.94374 0.03937 0.81058 0.0
C4328 C 0.91632 0.07502 0.81886 0.0
C4329 C 0.90017 0.09577 0.79905 0.0
C4330 C 0.93362 0.08943 0.82523 0.0
C4331 C 0.92322 0.1009 0.83391 0.0
C4332 C 0.89552 0.09768 0.83637 0.0
C4333 C 0.87838 0.08306 0.82997 0.0
C4334 C 0.8887 0.07185 0.82129 0.0
H4335 H 0.9012 0.10336 0.79132 0.0
H4336 H 0.87853 0.09105 0.80075 0.0
H4337 H 0.90703 0.11218 0.80412 0.0
H4338 H 0.95504 0.09183 0.82348 0.0
H4339 H 0.93689 0.11187 0.83878 0.0
H4340 H 0.70828 0.17842 0.57913 0.0
H4341 H 0.74488 0.19696 0.56894 0.0
H4342 H 0.79445 0.2087 0.59494 0.0
H4343 H 0.75818 0.18922 0.60517 0.0
H4344 H 0.78186 0.2431 0.56785 0.0
H4345 H 0.83163 0.1461 0.57978 0.0
H4346 H 0.79627 0.15283 0.58245 0.0
H4347 H 0.82256 0.17056 0.58909 0.0
C4348 C 0.72672 0.18553 0.5827 0.0
C4349 C 0.7307 0.18168 0.59289 0.0
C4350 C 0.74751 0.19641 0.57689 0.0
C4351 C 0.77252 0.20364 0.58119 0.0
C4352 C 0.77536 0.20289 0.5915 0.0
H4353 H 0.90212 0.16428 0.54027 0.0
H4354 H 0.88499 0.18782 0.5549 0.0
C4355 C 0.75458 0.19185 0.59733 0.0
C4356 C 0.79653 0.20624 0.57467 0.0
H4357 H 0.84735 0.16643 0.56545 0.0
C4358 C 0.79677 0.22682 0.56747 0.0
C4359 C 0.81615 0.18512 0.57426 0.0
C4360 C 0.81677 0.16229 0.58176 0.0
C4361 C 0.81468 0.22554 0.55939 0.0
C4362 C 0.83214 0.20275 0.55841 0.0
C4363 C 0.83383 0.18381 0.56616 0.0
C4364 C 0.84475 0.19508 0.54886 0.0
C4365 C 0.81379 0.24794 0.55177 0.0
C4366 C 0.82808 0.19191 0.5405 0.0
C4367 C 0.8379 0.17879 0.53209 0.0
C4368 C 0.86445 0.16802 0.53193 0.0
C4369 C 0.88161 0.17243 0.54011 0.0
C4370 C 0.87185 0.18589 0.5485 0.0
H4371 H 0.80982 0.26793 0.55535 0.0
H4372 H 0.83312 0.24927 0.54752 0.0
H4373 H 0.79676 0.24402 0.54655 0.0
H4374 H 0.80688 0.19807 0.54066 0.0
H4375 H 0.82434 0.17627 0.52584 0.0
H4376 H 0.6461 1.01568 0.35282 0.0
H4377 H 0.6269 0.04573 0.34023 0.0
H4378 H 0.6328 0.98113 0.31872 0.0
H4379 H 0.65088 0.95064 0.33135 0.0
H4380 H 0.65857 0.05915 0.3251 0.0
H4381 H 0.56292 1.01719 0.31005 0.0
H4382 H 0.5764 1.00692 0.32192 0.0
H4383 H 0.58862 0.9913 0.31071 0.0
C4384 C 0.64228 1.00751 0.34551 0.0
C4385 C 0.65033 0.98086 0.34304 0.0
C4386 C 0.63134 1.02476 0.33832 0.0
C4387 C 0.62819 1.01565 0.32855 0.0
C4388 C 0.63445 0.98848 0.32625 0.0
H4389 H 0.65346 0.05763 0.27073 0.0
H4390 H 0.63644 0.03926 0.2863 0.0
C4391 C 0.64527 0.97119 0.33344 0.0
C4392 C 0.62388 0.03548 0.32046 0.0
H4393 H 0.59073 0.04376 0.29848 0.0
C4394 C 0.6432 0.05637 0.31941 0.0
C4395 C 0.60386 1.03176 0.31306 0.0
C4396 C 0.58162 1.01072 0.31405 0.0
C4397 C 0.64467 0.07201 0.31078 0.0
C4398 C 0.62581 0.06702 0.30306 0.0
C4399 C 0.60518 0.04751 0.3044 0.0
C4400 C 0.6301 0.07867 0.29309 0.0
C4401 C 0.66787 0.09206 0.30968 0.0
C4402 C 0.63094 0.10694 0.29159 0.0
C4403 C 0.64133 0.11753 0.28276 0.0
C4404 C 0.65064 0.09994 0.27527 0.0
C4405 C 0.64722 0.07169 0.27647 0.0
C4406 C 0.63714 0.06116 0.28532 0.0
H4407 H 0.68319 0.09006 0.31569 0.0
H4408 H 0.67842 0.08917 0.30249 0.0
H4409 H 0.6597 0.11312 0.3099 0.0
H4410 H 0.62507 0.12079 0.29744 0.0
H4411 H 0.64359 0.1394 0.28207 0.0
H4412 H 0.80143 0.88182 0.10712 0.0
H4413 H 0.76644 0.86266 0.09636 0.0
H4414 H 0.82433 0.85984 0.07236 0.0
H4415 H 0.85962 0.87778 0.08318 0.0
H4416 H 0.75252 0.89552 0.08201 0.0
H4417 H 0.77663 0.79695 0.06491 0.0
H4418 H 0.79236 0.80792 0.07633 0.0
H4419 H 0.80634 0.81815 0.06456 0.0
C4420 C 0.80709 0.87581 0.0997 0.0
C4421 C 0.83311 0.88186 0.09592 0.0
C4422 C 0.78702 0.86485 0.09355 0.0
C4423 C 0.79268 0.85983 0.08354 0.0
C4424 C 0.81948 0.86306 0.08008 0.0
H4425 H 0.75083 0.89863 1.02769 0.0
H4426 H 0.76645 0.87731 1.04294 0.0
C4427 C 0.83958 0.87381 0.08623 0.0
C4428 C 0.77017 0.85858 0.07626 0.0
H4429 H 0.75424 0.83076 1.05391 0.0
C4430 C 0.75214 0.88078 0.07604 0.0
C4431 C 0.76967 0.83937 0.06849 0.0
C4432 C 0.78716 0.81413 0.06866 0.0
C4433 C 0.73601 0.88611 0.06773 0.0
C4434 C 0.73745 0.86826 0.05953 0.0
C4435 C 0.75337 0.84454 0.06017 0.0
C4436 C 0.72656 0.87649 1.04979 0.0
C4437 C 0.71973 0.91226 0.06744 0.0
C4438 C 0.69881 0.88234 1.04848 0.0
C4439 C 0.68994 0.89537 1.03987 0.0
C4440 C 0.70863 0.90225 1.03237 0.0
C4441 C 0.73605 0.89442 1.03344 0.0
C4442 C 0.74493 0.88178 1.04208 0.0
H4443 H 0.72428 0.92575 0.07383 0.0
H4444 H 0.724 0.92374 0.06054 0.0
H4445 H 0.69765 0.9074 0.06762 0.0
H4446 H 0.68425 0.87799 1.05428 0.0
H4447 H 0.66867 0.90107 1.03931 0.0
H4448 H 0.65792 0.61573 0.82434 0.0
H4449 H 0.63509 0.58756 0.81219 0.0
H4450 H 0.58104 0.55654 0.83475 0.0
H4451 H 0.60471 0.58441 0.8471 0.0
H4452 H 0.60382 0.51662 0.8265 0.0
H4453 H 0.56952 0.57979 0.79575 0.0
H4454 H 0.60329 0.59123 0.79849 0.0
H4455 H 0.57676 0.5945 0.80771 0.0
C4456 C 0.6405 0.60373 0.82666 0.0
C4457 C 0.63323 0.60208 0.83667 0.0
C4458 C 0.62719 0.58774 0.81966 0.0
C4459 C 0.60596 0.57011 0.82247 0.0
C4460 C 0.59725 0.57004 0.83237 0.0
H4461 H 0.6132 0.4644 0.77098 0.0
H4462 H 0.58569 0.48725 0.78371 0.0
C4463 C 0.61085 0.58585 0.83942 0.0
C4464 C 0.59754 0.54816 0.81557 0.0
H4465 H 0.59535 0.53705 0.79074 0.0
C4466 C 0.6008 0.52107 0.81872 0.0
C4467 C 0.59243 0.55339 0.80545 0.0
C4468 C 0.58497 0.58136 0.80173 0.0
C4469 C 0.6036 0.49989 0.81187 0.0
C4470 C 0.60393 0.50618 0.80168 0.0
C4471 C 0.59613 0.53234 0.79857 0.0
C4472 C 0.61823 0.48844 0.79452 0.0
C4473 C 0.60845 0.47136 0.81562 0.0
C4474 C 0.64553 0.48147 0.79639 0.0
C4475 C 0.66113 0.46861 0.78919 0.0
C4476 C 0.64989 0.46265 0.77991 0.0
C4477 C 0.62228 0.46866 0.77811 0.0
C4478 C 0.60659 0.48169 0.78536 0.0
H4479 H 0.59613 0.46747 0.82237 0.0
H4480 H 0.60329 0.45581 0.80996 0.0
H4481 H 0.63023 0.46907 0.8177 0.0
H4482 H 0.65526 0.48718 0.80328 0.0
H4483 H 0.68228 0.46399 0.7908 0.0
H4484 H 0.86338 0.41872 1.03367 0.0
H4485 H 0.83556 0.4007 1.04701 0.0
H4486 H 0.79258 0.34938 1.02631 0.0
H4487 H 0.82034 0.36782 1.01281 0.0
H4488 H 0.75823 0.37922 1.03599 0.0
H4489 H 0.82659 0.33466 0.06372 0.0
H4490 H 0.84008 0.36723 0.06032 0.0
H4491 H 0.83755 0.34061 1.05115 0.0
C4492 C 0.84871 0.40288 1.032 0.0
C4493 C 0.84392 0.3948 1.02219 0.0
C4494 C 0.83288 0.3924 1.03966 0.0
C4495 C 0.81219 0.37333 1.03771 0.0
C4496 C 0.80852 0.36393 1.028 0.0
H4497 H 0.71512 0.36941 0.09235 0.0
H4498 H 0.73624 0.34791 0.07782 0.0
C4499 C 0.82427 0.37459 1.0203 0.0
C4500 C 0.79167 0.36747 1.04547 0.0
H4501 H 0.78693 0.3604 0.07048 0.0
C4502 C 0.76436 0.37414 1.04347 0.0
C4503 C 0.79924 0.36012 1.05521 0.0
C4504 C 0.82745 0.34995 0.05767 0.0
C4505 C 0.74537 0.37699 1.05114 0.0
C4506 C 0.75412 0.37368 0.06101 0.0
C4507 C 0.78041 0.36363 0.0629 0.0
C4508 C 0.73841 0.38524 0.06934 0.0
C4509 C 0.71657 0.38523 1.04862 0.0
C4510 C 0.73272 0.41326 0.06936 0.0
C4511 C 0.72086 0.42548 0.07758 0.0
C4512 C 0.7146 0.40998 0.08599 0.0
C4513 C 0.7196 0.38176 0.08591 0.0
C4514 C 0.73167 0.36949 0.07765 0.0
H4515 H 0.71032 0.37665 1.04136 0.0
H4516 H 0.7019 0.37836 1.05436 0.0
H4517 H 0.71545 0.40776 1.04803 0.0
H4518 H 0.73837 0.42593 0.06313 0.0
H4519 H 0.71701 0.44721 0.07742 0.0
H4520 H 0.93255 0.43067 0.32884 0.0
H4521 H 0.95896 0.44917 0.31498 0.0
H4522 H 0.93044 0.52995 0.32206 0.0
H4523 H 0.90359 0.51178 0.33562 0.0
H4524 H 0.93423 0.47608 0.29945 0.0
H4525 H 1.01115 0.54345 0.31619 0.0
H4526 H 0.9953 0.51579 0.32291 0.0
H4527 H 0.97862 0.54842 0.32196 0.0
C4528 C 0.93204 0.4524 0.32747 0.0
C4529 C 0.9159 0.46975 0.33334 0.0
C4530 C 0.94744 0.46293 0.31964 0.0
C4531 C 0.94724 0.49099 0.31767 0.0
C4532 C 0.93169 0.50836 0.32367 0.0
H4533 H 0.92113 0.61384 0.28354 0.0
H4534 H 0.94174 0.5828 0.29536 0.0
C4535 C 0.91619 0.49788 0.3314 0.0
C4536 C 0.95917 0.50208 0.3085 0.0
H4537 H 0.99126 0.55949 0.30045 0.0
C4538 C 0.9476 0.49369 0.29953 0.0
C4539 C 0.97693 0.52474 0.30865 0.0
C4540 C 0.99143 0.53341 0.31795 0.0
C4541 C 0.94999 0.50974 0.29101 0.0
C4542 C 0.96494 0.53444 0.29149 0.0
C4543 C 0.97957 0.54074 0.30012 0.0
C4544 C 0.95981 0.55653 0.28429 0.0
C4545 C 0.9338 0.50173 0.28196 0.0
C4546 C 0.96454 0.55303 0.27414 0.0
C4547 C 0.9524 0.57069 0.26732 0.0
C4548 C 0.93587 0.5923 0.27061 0.0
C4549 C 0.93381 0.59745 0.28078 0.0
C4550 C 0.94563 0.57967 0.28756 0.0
H4551 H 0.92133 0.48313 0.28319 0.0
H4552 H 0.91993 0.51853 0.27973 0.0
H4553 H 0.94792 0.49762 0.27573 0.0
H4554 H 0.976 0.53567 0.27148 0.0
H4555 H 0.95467 0.5666 0.2595 0.0
H4556 H 0.74478 0.55827 0.51921 0.0
H4557 H 0.78123 0.55721 0.53159 0.0
H4558 H 0.80119 0.6408 0.52488 0.0
H4559 H 0.76437 0.64231 0.5127 0.0
H4560 H 0.8403 0.57084 0.52986 0.0
H4561 H 0.77984 0.63779 0.55485 0.0
H4562 H 0.76478 0.61985 0.54457 0.0
H4563 H 0.78452 0.65011 0.54244 0.0
C4564 C 0.75688 0.57643 0.52042 0.0
C4565 C 0.75165 0.60047 0.5151 0.0
C4566 C 0.77784 0.57567 0.52736 0.0
C4567 C 0.79367 0.59894 0.52908 0.0
C4568 C 0.78903 0.6227 0.5236 0.0
H4569 H 0.89369 0.6368 0.57924 0.0
H4570 H 0.87858 0.63727 0.56207 0.0
C4571 C 0.76809 0.6235 0.51667 0.0
C4572 C 0.81346 0.59911 0.53719 0.0
H4573 H 0.82347 0.62506 0.5602 0.0
C4574 C 0.83687 0.58281 0.53648 0.0
C4575 C 0.80856 0.61465 0.54578 0.0
C4576 C 0.78299 0.63145 0.54705 0.0
C4577 C 0.85572 0.58167 0.54427 0.0
C4578 C 0.85066 0.59709 0.55288 0.0
C4579 C 0.82743 0.61365 0.55348 0.0
C4580 C 0.86735 0.59465 0.56184 0.0
C4581 C 0.88069 0.56398 0.54328 0.0
C4582 C 0.86698 0.57021 0.5672 0.0
C4583 C 0.87566 0.56985 0.577 0.0
C4584 C 0.88454 0.59399 0.58156 0.0
C4585 C 0.88701 0.61788 0.57591 0.0
C4586 C 0.87845 0.61819 0.56611 0.0
H4587 H 0.88547 0.55963 0.53541 0.0
H4588 H 0.89868 0.57376 0.54679 0.0
H4589 H 0.87697 0.54426 0.54707 0.0
H4590 H 0.85804 0.55197 0.56407 0.0
H4591 H 0.8741 0.55104 0.58115 0.0
H4592 H 0.28885 0.56161 0.35088 0.0
H4593 H 0.27885 0.52454 0.33934 0.0
H4594 H 0.36501 0.50865 0.33631 0.0
H4595 H 0.37507 0.54545 0.3479 0.0
H4596 H 0.2958 0.52724 0.32061 0.0
H4597 H 0.33463 0.43199 0.33711 0.0
H4598 H 0.32807 0.4622 0.34437 0.0
H4599 H 0.3597 0.45854 0.33772 0.0
C4600 C 0.3056 0.54994 0.34783 0.0
C4601 C 0.33274 0.5565 0.35016 0.0
C4602 C 0.29985 0.52863 0.34135 0.0
C4603 C 0.32115 0.51358 0.33711 0.0
C4604 C 0.34823 0.51946 0.33973 0.0
H4605 H 0.3708 0.44139 0.2853 0.0
H4606 H 0.36262 0.45476 0.30246 0.0
C4607 C 0.35398 0.54065 0.34626 0.0
C4608 C 0.31565 0.49516 0.32874 0.0
H4609 H 0.33353 0.43358 0.31907 0.0
C4610 C 0.30331 0.50646 0.32034 0.0
C4611 C 0.32549 0.46812 0.32846 0.0
C4612 C 0.33746 0.45444 0.33745 0.0
C4613 C 0.30264 0.49232 0.31138 0.0
C4614 C 0.31414 0.46593 0.31091 0.0
C4615 C 0.3248 0.45385 0.31948 0.0
C4616 C 0.31863 0.45249 0.30132 0.0
C4617 C 0.29157 0.50662 0.30233 0.0
C4618 C 0.2966 0.44585 0.29518 0.0
C4619 C 0.30122 0.43865 0.28535 0.0
C4620 C 0.32795 0.43759 0.28163 0.0
C4621 C 0.35003 0.44215 0.28801 0.0
C4622 C 0.34538 0.44965 0.2978 0.0
H4623 H 0.28761 0.52859 0.30369 0.0
H4624 H 0.30604 0.50481 0.29605 0.0
H4625 H 0.27204 0.49698 0.30011 0.0
H4626 H 0.27584 0.44752 0.29785 0.0
H4627 H 0.28392 0.43464 0.28058 0.0
H4628 H 0.37002 0.69408 1.02869 0.0
H4629 H 0.3507 0.71759 1.04314 0.0
H4630 H 0.31724 0.64143 1.05347 0.0
H4631 H 0.3365 0.61796 1.03919 0.0
H4632 H 0.29363 0.71894 1.0485 0.0
H4633 H 0.35706 0.67353 0.07788 0.0
H4634 H 0.36769 0.67465 0.06509 0.0
H4635 H 0.34534 0.64802 0.06938 0.0
C4636 C 0.35883 0.68239 1.03414 0.0
C4637 C 0.35469 0.65422 1.03286 0.0
C4638 C 0.34781 0.69582 1.04234 0.0
C4639 C 0.33298 0.68112 1.04941 0.0
C4640 C 0.32907 0.65301 1.04817 0.0
H4641 H 0.20071 0.66715 0.08055 0.0
H4642 H 0.23264 0.6867 0.06886 0.0
C4643 C 0.33983 0.63967 1.03997 0.0
C4644 C 0.31978 0.69479 0.05785 0.0
H4645 H 0.31006 0.68419 0.08241 0.0
C4646 C 0.29766 0.71217 1.056 0.0
C4647 C 0.32564 0.68678 0.06764 0.0
C4648 C 0.35045 0.66996 0.07013 0.0
C4649 C 0.27913 0.7187 0.06354 0.0
C4650 C 0.28267 0.707 0.07301 0.0
C4651 C 0.30689 0.69282 0.07512 0.0
C4652 C 0.25964 0.70353 0.08 0.0
C4653 C 0.25508 0.73662 0.06111 0.0
C4654 C 0.26358 0.70707 0.0902 0.0
C4655 C 0.24542 0.69538 0.09694 0.0
C4656 C 0.22302 0.6801 0.09356 0.0
C4657 C 0.21762 0.67903 0.08338 0.0
C4658 C 0.23586 0.69047 0.07666 0.0
H4659 H 0.2613 0.75317 1.05598 0.0
H4660 H 0.23928 0.72434 0.05728 0.0
H4661 H 0.24603 0.74584 0.06785 0.0
H4662 H 0.2818 0.717 0.09295 0.0
H4663 H 0.24984 0.69678 0.10477 0.0
H4664 H 0.12927 0.56333 0.75931 0.0
H4665 H 0.11417 0.53366 0.7728 0.0
H4666 H 0.14967 0.58904 0.79397 0.0
H4667 H 0.16462 0.6186 0.78062 0.0
H4668 H 0.15116 0.50909 0.78381 0.0
H4669 H 0.08323 0.56524 0.80893 0.0
H4670 H 0.08904 0.57607 0.79633 0.0
H4671 H 0.11217 0.58605 0.80605 0.0
C4672 C 0.13316 0.56949 0.76687 0.0
C4673 C 0.14837 0.59313 0.76892 0.0
C4674 C 0.12437 0.55263 0.77456 0.0
C4675 C 0.13055 0.55923 0.78441 0.0
C4676 C 0.14396 0.58385 0.78647 0.0
H4677 H 0.21042 0.48434 0.82936 0.0
H4678 H 0.19111 0.50411 0.81434 0.0
C4679 C 0.15266 0.60073 0.7788 0.0
C4680 C 0.12822 0.53845 0.79229 0.0
H4681 H 0.11474 0.53257 0.81693 0.0
C4682 C 0.14236 0.51384 0.79096 0.0
C4683 C 0.11644 0.54432 0.80159 0.0
C4684 C 0.09912 0.56926 0.80325 0.0
C4685 C 0.14754 0.49644 0.79894 0.0
C4686 C 0.13864 0.50407 0.80847 0.0
C4687 C 0.122 0.52708 0.80962 0.0
C4688 C 0.14984 0.49087 0.81738 0.0
C4689 C 0.16392 0.47087 0.79723 0.0
C4690 C 0.13287 0.47725 0.8241 0.0
C4691 C 0.1439 0.46592 0.83271 0.0
C4692 C 0.17192 0.46853 0.83476 0.0
C4693 C 0.18875 0.48221 0.82799 0.0
C4694 C 0.1778 0.49327 0.81938 0.0
H4695 H 0.16169 0.46352 0.7895 0.0
H4696 H 0.18583 0.4753 0.79852 0.0
H4697 H 0.15761 0.45438 0.80237 0.0
H4698 H 0.1112 0.47547 0.82269 0.0
H4699 H 0.13046 0.45568 0.83787 0.0
H4700 H 0.23139 0.35717 0.51726 0.0
H4701 H 0.25732 0.33143 0.52963 0.0
H4702 H 0.22841 0.38618 0.55232 0.0
H4703 H 0.20201 0.41094 0.54014 0.0
H4704 H 0.29809 0.3506 0.5382 0.0
H4705 H 0.23191 0.32033 0.56859 0.0
H4706 H 0.21793 0.32871 0.55661 0.0
H4707 H 0.22247 0.35473 0.56594 0.0
C4708 C 0.22997 0.36303 0.52496 0.0
C4709 C 0.21483 0.38609 0.52776 0.0
C4710 C 0.24466 0.34826 0.53203 0.0
C4711 C 0.24463 0.3565 0.54198 0.0
C4712 C 0.22812 0.37859 0.5448 0.0
H4713 H 0.35202 0.42894 0.57323 0.0
H4714 H 0.32867 0.40148 0.56093 0.0
C4715 C 0.21317 0.39303 0.53779 0.0
C4716 C 0.26575 0.34656 0.54897 0.0
H4717 H 0.27569 0.34464 0.57386 0.0
C4718 C 0.29314 0.34809 0.54596 0.0
C4719 C 0.25985 0.34194 0.55907 0.0
C4720 C 0.23136 0.336 0.56266 0.0
C4721 C 0.31417 0.34997 0.55293 0.0
C4722 C 0.30744 0.35123 0.56307 0.0
C4723 C 0.28079 0.34482 0.56606 0.0
C4724 C 0.32536 0.36554 0.57019 0.0
C4725 C 0.3431 0.35307 0.54933 0.0
C4726 C 0.331 0.35469 0.57958 0.0
C4727 C 0.34412 0.37067 0.58672 0.0
C4728 C 0.3513 0.3978 0.58459 0.0
C4729 C 0.34647 0.40819 0.57509 0.0
C4730 C 0.33353 0.3923 0.568 0.0
H4731 H 0.34668 0.33992 0.54277 0.0
H4732 H 0.34658 0.37447 0.54699 0.0
H4733 H 0.35812 0.34771 0.55517 0.0
H4734 H 0.3245 0.33425 0.58146 0.0
H4735 H 0.34753 0.36227 0.59402 0.0
loop_
_geom_bond_atom_site_label_1
_geom_bond_atom_site_label_2
_geom_bond_distance
_geom_bond_site_symmetry_2
_ccdc_geom_bond_type
Sm0 C2 2.846 . S
Sm0 O20 2.543 . S
Sm0 O21 2.450 . S
Sm0 O22 2.681 . S
Sm0 O23 2.464 . S
Sm0 O24 2.396 . S
Sm0 O28 2.386 . S
Sm0 O31 2.408 . S
Sm1 C11 2.846 . S
Sm1 O22 2.386 . S
Sm1 O25 2.408 . S
Sm1 O26 2.543 . S
Sm1 O27 2.450 . S
Sm1 O28 2.681 . S
Sm1 O29 2.464 . S
Sm1 O30 2.396 . S
C2 Sm0 2.846 . S
C2 C3 1.506 . S
C2 O20 1.261 . S
C2 O21 1.242 . S
C3 C2 1.506 . S
C3 C4 1.358 . S
C3 C8 1.382 . S
C4 C3 1.358 . S
C4 C5 1.385 . S
C4 H32 0.930 . S
C5 C4 1.385 . S
C5 C6 1.395 . S
C5 H33 0.929 . S
C6 C5 1.395 . S
C6 C7 1.335 . S
C7 C6 1.335 . S
C7 C8 1.398 . S
C7 H34 0.930 . S
C8 C3 1.382 . S
C8 C7 1.398 . S
C8 H35 0.929 . S
C9 O22 1.271 . S
C9 O23 1.251 . S
C10 O24 1.252 . S
C10 O25 1.272 . S
C11 Sm1 2.846 . S
C11 C12 1.506 . S
C11 O26 1.261 . S
C11 O27 1.242 . S
C12 C11 1.506 . S
C12 C13 1.358 . S
C12 C17 1.382 . S
C13 C12 1.358 . S
C13 C14 1.385 . S
C13 H36 0.930 . S
C14 C13 1.385 . S
C14 C15 1.395 . S
C14 H37 0.929 . S
C15 C14 1.395 . S
C15 C16 1.335 . S
C16 C15 1.335 . S
C16 C17 1.398 . S
C16 H38 0.930 . S
C17 C12 1.382 . S
C17 C16 1.398 . S
C17 H39 0.929 . S
C18 O28 1.271 . S
C18 O29 1.251 . S
C19 O30 1.252 . S
C19 O31 1.272 . S
O20 Sm0 2.543 . S
O20 C2 1.261 . S
O21 Sm0 2.450 . S
O21 C2 1.242 . S
O22 Sm0 2.681 . S
O22 Sm1 2.386 . S
O22 C9 1.271 . S
O23 Sm0 2.464 . S
O23 C9 1.251 . S
O24 Sm0 2.396 . S
O24 C10 1.252 . S
O25 Sm1 2.408 . S
O25 C10 1.272 . S
O26 Sm1 2.543 . S
O26 C11 1.261 . S
O27 Sm1 2.450 . S
O27 C11 1.242 . S
O28 Sm0 2.386 . S
O28 Sm1 2.681 . S
O28 C18 1.271 . S
O29 Sm1 2.464 . S
O29 C18 1.251 . S
O30 Sm1 2.396 . S
O30 C19 1.252 . S
O31 Sm0 2.408 . S
O31 C19 1.272 . S
H32 C4 0.930 . S
H33 C5 0.929 . S
H34 C7 0.930 . S
H35 C8 0.929 . S
H36 C13 0.930 . S
H37 C14 0.929 . S
H38 C16 0.930 . S
H39 C17 0.929 . S
Sm40 C42 2.846 1_455 S
Sm40 O60 2.543 1_455 S
Sm40 O61 2.450 1_455 S
Sm40 O62 2.681 . S
Sm40 O63 2.464 . S
Sm40 O64 2.396 . S
Sm40 O68 2.386 . S
Sm40 O71 2.408 . S
Sm41 C51 2.846 . S
Sm41 O62 2.386 . S
Sm41 O65 2.408 . S
Sm41 O66 2.543 . S
Sm41 O67 2.450 . S
Sm41 O68 2.681 . S
Sm41 O69 2.464 . S
Sm41 O70 2.396 . S
C42 Sm40 2.846 1_655 S
C42 C43 1.506 . S
C42 O60 1.261 . S
C42 O61 1.242 . S
C43 C42 1.506 . S
C43 C44 1.358 . S
C43 C48 1.382 . S
C44 C43 1.358 . S
C44 C45 1.385 . S
C44 H72 0.930 . S
C45 C44 1.385 . S
C45 C46 1.395 . S
C45 H73 0.929 . S
C46 C45 1.395 . S
C46 C47 1.335 . S
C47 C46 1.335 . S
C47 C48 1.398 . S
C47 H74 0.930 . S
C48 C43 1.382 . S
C48 C47 1.398 . S
C48 H75 0.929 . S
C49 O62 1.271 . S
C49 O63 1.251 . S
C50 O64 1.252 . S
C50 O65 1.272 . S
C51 Sm41 2.846 . S
C51 C52 1.506 . S
C51 O66 1.261 . S
C51 O67 1.242 . S
C52 C51 1.506 . S
C52 C53 1.358 . S
C52 C57 1.382 . S
C53 C52 1.358 . S
C53 C54 1.385 . S
C53 H76 0.930 . S
C54 C53 1.385 . S
C54 C55 1.395 . S
C54 H77 0.929 . S
C55 C54 1.395 . S
C55 C56 1.335 . S
C56 C55 1.335 . S
C56 C57 1.398 . S
C56 H78 0.930 . S
C57 C52 1.382 . S
C57 C56 1.398 . S
C57 H79 0.929 . S
C58 O68 1.271 . S
C58 O69 1.251 . S
C59 O70 1.252 . S
C59 O71 1.272 . S
O60 Sm40 2.543 1_655 S
O60 C42 1.261 . S
O61 Sm40 2.450 1_655 S
O61 C42 1.242 . S
O62 Sm40 2.681 . S
O62 Sm41 2.386 . S
O62 C49 1.271 . S
O63 Sm40 2.464 . S
O63 C49 1.251 . S
O64 Sm40 2.396 . S
O64 C50 1.252 . S
O65 Sm41 2.408 . S
O65 C50 1.272 . S
O66 Sm41 2.543 . S
O66 C51 1.261 . S
O67 Sm41 2.450 . S
O67 C51 1.242 . S
O68 Sm40 2.386 . S
O68 Sm41 2.681 . S
O68 C58 1.271 . S
O69 Sm41 2.464 . S
O69 C58 1.251 . S
O70 Sm41 2.396 . S
O70 C59 1.252 . S
O71 Sm40 2.408 . S
O71 C59 1.272 . S
H72 C44 0.930 . S
H73 C45 0.929 . S
H74 C47 0.930 . S
H75 C48 0.929 . S
H76 C53 0.930 . S
H77 C54 0.929 . S
H78 C56 0.930 . S
H79 C57 0.929 . S
Sm80 C82 2.846 . S
Sm80 O100 2.543 . S
Sm80 O101 2.450 . S
Sm80 O102 2.681 . S
Sm80 O103 2.464 . S
Sm80 O104 2.396 . S
Sm80 O108 2.386 . S
Sm80 O111 2.408 . S
Sm81 C91 2.846 . S
Sm81 O102 2.386 . S
Sm81 O105 2.408 . S
Sm81 O106 2.543 . S
Sm81 O107 2.450 . S
Sm81 O108 2.681 . S
Sm81 O109 2.464 . S
Sm81 O110 2.396 . S
C82 Sm80 2.846 . S
C82 C83 1.506 . S
C82 O100 1.261 . S
C82 O101 1.242 . S
C83 C82 1.506 . S
C83 C84 1.358 . S
C83 C88 1.382 . S
C84 C83 1.358 . S
C84 C85 1.385 . S
C84 H112 0.930 . S
C85 C84 1.385 . S
C85 C86 1.395 . S
C85 H113 0.929 . S
C86 C85 1.395 . S
C86 C87 1.335 . S
C87 C86 1.335 . S
C87 C88 1.398 . S
C87 H114 0.930 . S
C88 C83 1.382 . S
C88 C87 1.398 . S
C88 H115 0.929 . S
C89 O102 1.271 . S
C89 O103 1.251 . S
C90 O104 1.252 . S
C90 O105 1.272 . S
C91 Sm81 2.846 . S
C91 C92 1.506 . S
C91 O106 1.261 . S
C91 O107 1.242 . S
C92 C91 1.506 . S
C92 C93 1.358 . S
C92 C97 1.382 . S
C93 C92 1.358 . S
C93 C94 1.385 . S
C93 H116 0.930 . S
C94 C93 1.385 . S
C94 C95 1.395 . S
C94 H117 0.929 . S
C95 C94 1.395 . S
C95 C96 1.335 . S
C96 C95 1.335 . S
C96 C97 1.398 . S
C96 H118 0.930 . S
C97 C92 1.382 . S
C97 C96 1.398 . S
C97 H119 0.929 . S
C98 O108 1.271 . S
C98 O109 1.251 . S
C99 O110 1.252 . S
C99 O111 1.272 . S
O100 Sm80 2.543 . S
O100 C82 1.261 . S
O101 Sm80 2.450 . S
O101 C82 1.242 . S
O102 Sm80 2.681 . S
O102 Sm81 2.386 . S
O102 C89 1.271 . S
O103 Sm80 2.464 . S
O103 C89 1.251 . S
O104 Sm80 2.396 . S
O104 C90 1.252 . S
O105 Sm81 2.408 . S
O105 C90 1.272 . S
O106 Sm81 2.543 . S
O106 C91 1.261 . S
O107 Sm81 2.450 . S
O107 C91 1.242 . S
O108 Sm80 2.386 . S
O108 Sm81 2.681 . S
O108 C98 1.271 . S
O109 Sm81 2.464 . S
O109 C98 1.251 . S
O110 Sm81 2.396 . S
O110 C99 1.252 . S
O111 Sm80 2.408 . S
O111 C99 1.272 . S
H112 C84 0.930 . S
H113 C85 0.929 . S
H114 C87 0.930 . S
H115 C88 0.929 . S
H116 C93 0.930 . S
H117 C94 0.929 . S
H118 C96 0.930 . S
H119 C97 0.929 . S
Sm120 C122 2.846 . S
Sm120 O140 2.543 . S
Sm120 O141 2.450 . S
Sm120 O142 2.681 . S
Sm120 O143 2.464 . S
Sm120 O144 2.396 . S
Sm120 O148 2.386 . S
Sm120 O151 2.408 . S
Sm121 C131 2.846 . S
Sm121 O142 2.386 . S
Sm121 O145 2.408 . S
Sm121 O146 2.543 . S
Sm121 O147 2.450 . S
Sm121 O148 2.681 . S
Sm121 O149 2.464 . S
Sm121 O150 2.396 . S
C122 Sm120 2.846 . S
C122 C123 1.506 . S
C122 O140 1.261 . S
C122 O141 1.242 . S
C123 C122 1.506 . S
C123 C124 1.358 . S
C123 C128 1.382 . S
C124 C123 1.358 . S
C124 C125 1.385 . S
C124 H152 0.930 . S
C125 C124 1.385 . S
C125 C126 1.395 . S
C125 H153 0.929 . S
C126 C125 1.395 . S
C126 C127 1.335 . S
C127 C126 1.335 . S
C127 C128 1.398 . S
C127 H154 0.930 . S
C128 C123 1.382 . S
C128 C127 1.398 . S
C128 H155 0.929 . S
C129 O142 1.271 . S
C129 O143 1.251 . S
C130 O144 1.252 . S
C130 O145 1.272 . S
C131 Sm121 2.846 . S
C131 C132 1.506 . S
C131 O146 1.261 . S
C131 O147 1.242 . S
C132 C131 1.506 . S
C132 C133 1.358 . S
C132 C137 1.382 . S
C133 C132 1.358 . S
C133 C134 1.385 . S
C133 H156 0.930 . S
C134 C133 1.385 . S
C134 C135 1.395 . S
C134 H157 0.929 . S
C135 C134 1.395 . S
C135 C136 1.335 . S
C136 C135 1.335 . S
C136 C137 1.398 . S
C136 H158 0.930 . S
C137 C132 1.382 . S
C137 C136 1.398 . S
C137 H159 0.929 . S
C138 O148 1.271 . S
C138 O149 1.251 . S
C139 O150 1.252 . S
C139 O151 1.272 . S
O140 Sm120 2.543 . S
O140 C122 1.261 . S
O141 Sm120 2.450 . S
O141 C122 1.242 . S
O142 Sm120 2.681 . S
O142 Sm121 2.386 . S
O142 C129 1.271 . S
O143 Sm120 2.464 . S
O143 C129 1.251 . S
O144 Sm120 2.396 . S
O144 C130 1.252 . S
O145 Sm121 2.408 . S
O145 C130 1.272 . S
O146 Sm121 2.543 . S
O146 C131 1.261 . S
O147 Sm121 2.450 . S
O147 C131 1.242 . S
O148 Sm120 2.386 . S
O148 Sm121 2.681 . S
O148 C138 1.271 . S
O149 Sm121 2.464 . S
O149 C138 1.251 . S
O150 Sm121 2.396 . S
O150 C139 1.252 . S
O151 Sm120 2.408 . S
O151 C139 1.272 . S
H152 C124 0.930 . S
H153 C125 0.929 . S
H154 C127 0.930 . S
H155 C128 0.929 . S
H156 C133 0.930 . S
H157 C134 0.929 . S
H158 C136 0.930 . S
H159 C137 0.929 . S
Sm160 C162 2.846 . S
Sm160 O180 2.543 . S
Sm160 O181 2.450 . S
Sm160 O182 2.681 . S
Sm160 O183 2.464 . S
Sm160 O184 2.396 . S
Sm160 O188 2.386 . S
Sm160 O191 2.408 . S
Sm161 C171 2.846 . S
Sm161 O182 2.386 . S
Sm161 O185 2.408 . S
Sm161 O186 2.543 . S
Sm161 O187 2.450 . S
Sm161 O188 2.681 . S
Sm161 O189 2.464 . S
Sm161 O190 2.396 . S
C162 Sm160 2.846 . S
C162 C163 1.506 . S
C162 O180 1.261 . S
C162 O181 1.242 . S
C163 C162 1.506 . S
C163 C164 1.358 . S
C163 C168 1.382 . S
C164 C163 1.358 . S
C164 C165 1.385 . S
C164 H192 0.930 . S
C165 C164 1.385 . S
C165 C166 1.395 . S
C165 H193 0.929 . S
C166 C165 1.395 . S
C166 C167 1.335 . S
C167 C166 1.335 . S
C167 C168 1.398 . S
C167 H194 0.930 . S
C168 C163 1.382 . S
C168 C167 1.398 . S
C168 H195 0.929 . S
C169 O182 1.271 . S
C169 O183 1.251 . S
C170 O184 1.252 . S
C170 O185 1.272 . S
C171 Sm161 2.846 . S
C171 C172 1.506 . S
C171 O186 1.261 . S
C171 O187 1.242 . S
C172 C171 1.506 . S
C172 C173 1.358 . S
C172 C177 1.382 . S
C173 C172 1.358 . S
C173 C174 1.385 . S
C173 H196 0.930 . S
C174 C173 1.385 . S
C174 C175 1.395 . S
C174 H197 0.929 . S
C175 C174 1.395 . S
C175 C176 1.335 . S
C176 C175 1.335 . S
C176 C177 1.398 . S
C176 H198 0.930 . S
C177 C172 1.382 . S
C177 C176 1.398 . S
C177 H199 0.929 . S
C178 O188 1.271 . S
C178 O189 1.251 . S
C179 O190 1.252 . S
C179 O191 1.272 . S
O180 Sm160 2.543 . S
O180 C162 1.261 . S
O181 Sm160 2.450 . S
O181 C162 1.242 . S
O182 Sm160 2.681 . S
O182 Sm161 2.386 . S
O182 C169 1.271 . S
O183 Sm160 2.464 . S
O183 C169 1.251 . S
O184 Sm160 2.396 . S
O184 C170 1.252 . S
O185 Sm161 2.408 . S
O185 C170 1.272 . S
O186 Sm161 2.543 . S
O186 C171 1.261 . S
O187 Sm161 2.450 . S
O187 C171 1.242 . S
O188 Sm160 2.386 . S
O188 Sm161 2.681 . S
O188 C178 1.271 . S
O189 Sm161 2.464 . S
O189 C178 1.251 . S
O190 Sm161 2.396 . S
O190 C179 1.252 . S
O191 Sm160 2.408 . S
O191 C179 1.272 . S
H192 C164 0.930 . S
H193 C165 0.929 . S
H194 C167 0.930 . S
H195 C168 0.929 . S
H196 C173 0.930 . S
H197 C174 0.929 . S
H198 C176 0.930 . S
H199 C177 0.929 . S
Sm200 C202 2.846 . S
Sm200 O220 2.543 . S
Sm200 O221 2.450 . S
Sm200 O222 2.681 . S
Sm200 O223 2.464 . S
Sm200 O224 2.396 . S
Sm200 O228 2.386 . S
Sm200 O231 2.408 . S
Sm201 C211 2.846 . S
Sm201 O222 2.386 . S
Sm201 O225 2.408 . S
Sm201 O226 2.543 . S
Sm201 O227 2.450 . S
Sm201 O228 2.681 . S
Sm201 O229 2.464 . S
Sm201 O230 2.396 . S
C202 Sm200 2.846 . S
C202 C203 1.506 . S
C202 O220 1.261 . S
C202 O221 1.242 . S
C203 C202 1.506 . S
C203 C204 1.358 . S
C203 C208 1.382 . S
C204 C203 1.358 . S
C204 C205 1.385 . S
C204 H232 0.930 . S
C205 C204 1.385 . S
C205 C206 1.395 . S
C205 H233 0.929 . S
C206 C205 1.395 . S
C206 C207 1.335 . S
C207 C206 1.335 . S
C207 C208 1.398 . S
C207 H234 0.930 . S
C208 C203 1.382 . S
C208 C207 1.398 . S
C208 H235 0.929 . S
C209 O222 1.271 . S
C209 O223 1.251 . S
C210 O224 1.252 . S
C210 O225 1.272 . S
C211 Sm201 2.846 . S
C211 C212 1.506 . S
C211 O226 1.261 . S
C211 O227 1.242 . S
C212 C211 1.506 . S
C212 C213 1.358 . S
C212 C217 1.382 . S
C213 C212 1.358 . S
C213 C214 1.385 . S
C213 H236 0.930 . S
C214 C213 1.385 . S
C214 C215 1.395 . S
C214 H237 0.929 . S
C215 C214 1.395 . S
C215 C216 1.335 . S
C216 C215 1.335 . S
C216 C217 1.398 . S
C216 H238 0.930 . S
C217 C212 1.382 . S
C217 C216 1.398 . S
C217 H239 0.929 . S
C218 O228 1.271 . S
C218 O229 1.251 . S
C219 O230 1.252 . S
C219 O231 1.272 . S
O220 Sm200 2.543 . S
O220 C202 1.261 . S
O221 Sm200 2.450 . S
O221 C202 1.242 . S
O222 Sm200 2.681 . S
O222 Sm201 2.386 . S
O222 C209 1.271 . S
O223 Sm200 2.464 . S
O223 C209 1.251 . S
O224 Sm200 2.396 . S
O224 C210 1.252 . S
O225 Sm201 2.408 . S
O225 C210 1.272 . S
O226 Sm201 2.543 . S
O226 C211 1.261 . S
O227 Sm201 2.450 . S
O227 C211 1.242 . S
O228 Sm200 2.386 . S
O228 Sm201 2.681 . S
O228 C218 1.271 . S
O229 Sm201 2.464 . S
O229 C218 1.251 . S
O230 Sm201 2.396 . S
O230 C219 1.252 . S
O231 Sm200 2.408 . S
O231 C219 1.272 . S
H232 C204 0.930 . S
H233 C205 0.929 . S
H234 C207 0.930 . S
H235 C208 0.929 . S
H236 C213 0.930 . S
H237 C214 0.929 . S
H238 C216 0.930 . S
H239 C217 0.929 . S
Sm240 C242 2.846 . S
Sm240 O260 2.543 . S
Sm240 O261 2.450 . S
Sm240 O262 2.681 . S
Sm240 O263 2.464 . S
Sm240 O264 2.396 . S
Sm240 O268 2.386 . S
Sm240 O271 2.408 . S
Sm241 C251 2.846 . S
Sm241 O262 2.386 . S
Sm241 O265 2.408 . S
Sm241 O266 2.543 . S
Sm241 O267 2.450 . S
Sm241 O268 2.681 . S
Sm241 O269 2.464 . S
Sm241 O270 2.396 . S
C242 Sm240 2.846 . S
C242 C243 1.506 . S
C242 O260 1.261 . S
C242 O261 1.242 . S
C243 C242 1.506 . S
C243 C244 1.358 . S
C243 C248 1.382 . S
C244 C243 1.358 . S
C244 C245 1.385 . S
C244 H272 0.930 . S
C245 C244 1.385 . S
C245 C246 1.395 . S
C245 H273 0.929 . S
C246 C245 1.395 . S
C246 C247 1.335 . S
C247 C246 1.335 . S
C247 C248 1.398 . S
C247 H274 0.930 . S
C248 C243 1.382 . S
C248 C247 1.398 . S
C248 H275 0.929 . S
C249 O262 1.271 . S
C249 O263 1.251 . S
C250 O264 1.252 . S
C250 O265 1.272 . S
C251 Sm241 2.846 . S
C251 C252 1.506 . S
C251 O266 1.261 . S
C251 O267 1.242 . S
C252 C251 1.506 . S
C252 C253 1.358 . S
C252 C257 1.382 . S
C253 C252 1.358 . S
C253 C254 1.385 . S
C253 H276 0.930 . S
C254 C253 1.385 . S
C254 C255 1.395 . S
C254 H277 0.929 . S
C255 C254 1.395 . S
C255 C256 1.335 . S
C256 C255 1.335 . S
C256 C257 1.398 . S
C256 H278 0.930 . S
C257 C252 1.382 . S
C257 C256 1.398 . S
C257 H279 0.929 . S
C258 O268 1.271 . S
C258 O269 1.251 . S
C259 O270 1.252 . S
C259 O271 1.272 . S
O260 Sm240 2.543 . S
O260 C242 1.261 . S
O261 Sm240 2.450 . S
O261 C242 1.242 . S
O262 Sm240 2.681 . S
O262 Sm241 2.386 . S
O262 C249 1.271 . S
O263 Sm240 2.464 . S
O263 C249 1.251 . S
O264 Sm240 2.396 . S
O264 C250 1.252 . S
O265 Sm241 2.408 . S
O265 C250 1.272 . S
O266 Sm241 2.543 . S
O266 C251 1.261 . S
O267 Sm241 2.450 . S
O267 C251 1.242 . S
O268 Sm240 2.386 . S
O268 Sm241 2.681 . S
O268 C258 1.271 . S
O269 Sm241 2.464 . S
O269 C258 1.251 . S
O270 Sm241 2.396 . S
O270 C259 1.252 . S
O271 Sm240 2.408 . S
O271 C259 1.272 . S
H272 C244 0.930 . S
H273 C245 0.929 . S
H274 C247 0.930 . S
H275 C248 0.929 . S
H276 C253 0.930 . S
H277 C254 0.929 . S
H278 C256 0.930 . S
H279 C257 0.929 . S
Sm280 C282 2.846 1_455 S
Sm280 O300 2.543 1_455 S
Sm280 O301 2.450 1_455 S
Sm280 O302 2.681 . S
Sm280 O303 2.464 . S
Sm280 O304 2.396 . S
Sm280 O308 2.386 . S
Sm280 O311 2.408 . S
Sm281 C291 2.846 . S
Sm281 O302 2.386 . S
Sm281 O305 2.408 . S
Sm281 O306 2.543 . S
Sm281 O307 2.450 . S
Sm281 O308 2.681 . S
Sm281 O309 2.464 . S
Sm281 O310 2.396 . S
C282 Sm280 2.846 1_655 S
C282 C283 1.506 . S
C282 O300 1.261 . S
C282 O301 1.242 . S
C283 C282 1.506 . S
C283 C284 1.358 . S
C283 C288 1.382 . S
C284 C283 1.358 . S
C284 C285 1.385 . S
C284 H312 0.930 . S
C285 C284 1.385 . S
C285 C286 1.395 . S
C285 H313 0.929 . S
C286 C285 1.395 . S
C286 C287 1.335 . S
C287 C286 1.335 . S
C287 C288 1.398 . S
C287 H314 0.930 . S
C288 C283 1.382 . S
C288 C287 1.398 . S
C288 H315 0.929 . S
C289 O302 1.271 . S
C289 O303 1.251 . S
C290 O304 1.252 . S
C290 O305 1.272 . S
C291 Sm281 2.846 . S
C291 C292 1.506 . S
C291 O306 1.261 . S
C291 O307 1.242 . S
C292 C291 1.506 . S
C292 C293 1.358 . S
C292 C297 1.382 . S
C293 C292 1.358 . S
C293 C294 1.385 . S
C293 H316 0.930 . S
C294 C293 1.385 . S
C294 C295 1.395 . S
C294 H317 0.929 . S
C295 C294 1.395 . S
C295 C296 1.335 . S
C296 C295 1.335 . S
C296 C297 1.398 . S
C296 H318 0.930 . S
C297 C292 1.382 . S
C297 C296 1.398 . S
C297 H319 0.929 . S
C298 O308 1.271 . S
C298 O309 1.251 . S
C299 O310 1.252 . S
C299 O311 1.272 . S
O300 Sm280 2.543 1_655 S
O300 C282 1.261 . S
O301 Sm280 2.450 1_655 S
O301 C282 1.242 . S
O302 Sm280 2.681 . S
O302 Sm281 2.386 . S
O302 C289 1.271 . S
O303 Sm280 2.464 . S
O303 C289 1.251 . S
O304 Sm280 2.396 . S
O304 C290 1.252 . S
O305 Sm281 2.408 . S
O305 C290 1.272 . S
O306 Sm281 2.543 . S
O306 C291 1.261 . S
O307 Sm281 2.450 . S
O307 C291 1.242 . S
O308 Sm280 2.386 . S
O308 Sm281 2.681 . S
O308 C298 1.271 . S
O309 Sm281 2.464 . S
O309 C298 1.251 . S
O310 Sm281 2.396 . S
O310 C299 1.252 . S
O311 Sm280 2.408 . S
O311 C299 1.272 . S
H312 C284 0.930 . S
H313 C285 0.929 . S
H314 C287 0.930 . S
H315 C288 0.929 . S
H316 C293 0.930 . S
H317 C294 0.929 . S
H318 C296 0.930 . S
H319 C297 0.929 . S
Sm320 C322 2.846 . S
Sm320 O340 2.543 . S
Sm320 O341 2.450 . S
Sm320 O342 2.681 . S
Sm320 O343 2.464 . S
Sm320 O344 2.396 . S
Sm320 O348 2.386 . S
Sm320 O351 2.408 . S
Sm321 C331 2.846 . S
Sm321 O342 2.386 . S
Sm321 O345 2.408 . S
Sm321 O346 2.543 . S
Sm321 O347 2.450 . S
Sm321 O348 2.681 . S
Sm321 O349 2.464 . S
Sm321 O350 2.396 . S
C322 Sm320 2.846 . S
C322 C323 1.506 . S
C322 O340 1.261 . S
C322 O341 1.242 . S
C323 C322 1.506 . S
C323 C324 1.358 . S
C323 C328 1.382 . S
C324 C323 1.358 . S
C324 C325 1.385 . S
C324 H352 0.930 . S
C325 C324 1.385 . S
C325 C326 1.395 . S
C325 H353 0.929 . S
C326 C325 1.395 . S
C326 C327 1.335 . S
C327 C326 1.335 . S
C327 C328 1.398 . S
C327 H354 0.930 . S
C328 C323 1.382 . S
C328 C327 1.398 . S
C328 H355 0.929 . S
C329 O342 1.271 . S
C329 O343 1.251 . S
C330 O344 1.252 . S
C330 O345 1.272 . S
C331 Sm321 2.846 . S
C331 C332 1.506 . S
C331 O346 1.261 . S
C331 O347 1.242 . S
C332 C331 1.506 . S
C332 C333 1.358 . S
C332 C337 1.382 . S
C333 C332 1.358 . S
C333 C334 1.385 . S
C333 H356 0.930 . S
C334 C333 1.385 . S
C334 C335 1.395 . S
C334 H357 0.929 . S
C335 C334 1.395 . S
C335 C336 1.335 . S
C336 C335 1.335 . S
C336 C337 1.398 . S
C336 H358 0.930 . S
C337 C332 1.382 . S
C337 C336 1.398 . S
C337 H359 0.929 . S
C338 O348 1.271 . S
C338 O349 1.251 . S
C339 O350 1.252 . S
C339 O351 1.272 . S
O340 Sm320 2.543 . S
O340 C322 1.261 . S
O341 Sm320 2.450 . S
O341 C322 1.242 . S
O342 Sm320 2.681 . S
O342 Sm321 2.386 . S
O342 C329 1.271 . S
O343 Sm320 2.464 . S
O343 C329 1.251 . S
O344 Sm320 2.396 . S
O344 C330 1.252 . S
O345 Sm321 2.408 . S
O345 C330 1.272 . S
O346 Sm321 2.543 . S
O346 C331 1.261 . S
O347 Sm321 2.450 . S
O347 C331 1.242 . S
O348 Sm320 2.386 . S
O348 Sm321 2.681 . S
O348 C338 1.271 . S
O349 Sm321 2.464 . S
O349 C338 1.251 . S
O350 Sm321 2.396 . S
O350 C339 1.252 . S
O351 Sm320 2.408 . S
O351 C339 1.272 . S
H352 C324 0.930 . S
H353 C325 0.929 . S
H354 C327 0.930 . S
H355 C328 0.929 . S
H356 C333 0.930 . S
H357 C334 0.929 . S
H358 C336 0.930 . S
H359 C337 0.929 . S
Sm360 C362 2.846 . S
Sm360 O380 2.543 . S
Sm360 O381 2.450 . S
Sm360 O382 2.681 . S
Sm360 O383 2.464 . S
Sm360 O384 2.396 . S
Sm360 O388 2.386 . S
Sm360 O391 2.408 . S
Sm361 C371 2.846 1_655 S
Sm361 O382 2.386 . S
Sm361 O385 2.408 . S
Sm361 O386 2.543 1_655 S
Sm361 O387 2.450 1_655 S
Sm361 O388 2.681 . S
Sm361 O389 2.464 . S
Sm361 O390 2.396 . S
C362 Sm360 2.846 . S
C362 C363 1.506 . S
C362 O380 1.261 . S
C362 O381 1.242 . S
C363 C362 1.506 . S
C363 C364 1.358 . S
C363 C368 1.382 . S
C364 C363 1.358 . S
C364 C365 1.385 . S
C364 H392 0.930 . S
C365 C364 1.385 . S
C365 C366 1.395 . S
C365 H393 0.929 . S
C366 C365 1.395 . S
C366 C367 1.335 . S
C367 C366 1.335 . S
C367 C368 1.398 . S
C367 H394 0.930 . S
C368 C363 1.382 . S
C368 C367 1.398 . S
C368 H395 0.929 . S
C369 O382 1.271 . S
C369 O383 1.251 . S
C370 O384 1.252 . S
C370 O385 1.272 . S
C371 Sm361 2.846 1_455 S
C371 C372 1.506 . S
C371 O386 1.261 . S
C371 O387 1.242 . S
C372 C371 1.506 . S
C372 C373 1.358 . S
C372 C377 1.382 . S
C373 C372 1.358 . S
C373 C374 1.385 . S
C373 H396 0.930 . S
C374 C373 1.385 . S
C374 C375 1.395 . S
C374 H397 0.929 . S
C375 C374 1.395 . S
C375 C376 1.335 . S
C376 C375 1.335 . S
C376 C377 1.398 . S
C376 H398 0.930 . S
C377 C372 1.382 . S
C377 C376 1.398 . S
C377 H399 0.929 . S
C378 O388 1.271 . S
C378 O389 1.251 . S
C379 O390 1.252 . S
C379 O391 1.272 . S
O380 Sm360 2.543 . S
O380 C362 1.261 . S
O381 Sm360 2.450 . S
O381 C362 1.242 . S
O382 Sm360 2.681 . S
O382 Sm361 2.386 . S
O382 C369 1.271 . S
O383 Sm360 2.464 . S
O383 C369 1.251 . S
O384 Sm360 2.396 . S
O384 C370 1.252 . S
O385 Sm361 2.408 . S
O385 C370 1.272 . S
O386 Sm361 2.543 1_455 S
O386 C371 1.261 . S
O387 Sm361 2.450 1_455 S
O387 C371 1.242 . S
O388 Sm360 2.386 . S
O388 Sm361 2.681 . S
O388 C378 1.271 . S
O389 Sm361 2.464 . S
O389 C378 1.251 . S
O390 Sm361 2.396 . S
O390 C379 1.252 . S
O391 Sm360 2.408 . S
O391 C379 1.272 . S
H392 C364 0.930 . S
H393 C365 0.929 . S
H394 C367 0.930 . S
H395 C368 0.929 . S
H396 C373 0.930 . S
H397 C374 0.929 . S
H398 C376 0.930 . S
H399 C377 0.929 . S
Sm400 C402 2.846 . S
Sm400 O420 2.543 . S
Sm400 O421 2.450 . S
Sm400 O422 2.681 . S
Sm400 O423 2.464 . S
Sm400 O424 2.396 . S
Sm400 O428 2.386 . S
Sm400 O431 2.408 . S
Sm401 C411 2.846 . S
Sm401 O422 2.386 . S
Sm401 O425 2.408 . S
Sm401 O426 2.543 . S
Sm401 O427 2.450 . S
Sm401 O428 2.681 . S
Sm401 O429 2.464 . S
Sm401 O430 2.396 . S
C402 Sm400 2.846 . S
C402 C403 1.506 . S
C402 O420 1.261 . S
C402 O421 1.242 . S
C403 C402 1.506 . S
C403 C404 1.358 . S
C403 C408 1.382 . S
C404 C403 1.358 . S
C404 C405 1.385 . S
C404 H432 0.930 . S
C405 C404 1.385 . S
C405 C406 1.395 . S
C405 H433 0.929 . S
C406 C405 1.395 . S
C406 C407 1.335 . S
C407 C406 1.335 . S
C407 C408 1.398 . S
C407 H434 0.930 . S
C408 C403 1.382 . S
C408 C407 1.398 . S
C408 H435 0.929 . S
C409 O422 1.271 . S
C409 O423 1.251 . S
C410 O424 1.252 . S
C410 O425 1.272 . S
C411 Sm401 2.846 . S
C411 C412 1.506 . S
C411 O426 1.261 . S
C411 O427 1.242 . S
C412 C411 1.506 . S
C412 C413 1.358 . S
C412 C417 1.382 . S
C413 C412 1.358 . S
C413 C414 1.385 . S
C413 H436 0.930 . S
C414 C413 1.385 . S
C414 C415 1.395 . S
C414 H437 0.929 . S
C415 C414 1.395 . S
C415 C416 1.335 . S
C416 C415 1.335 . S
C416 C417 1.398 . S
C416 H438 0.930 . S
C417 C412 1.382 . S
C417 C416 1.398 . S
C417 H439 0.929 . S
C418 O428 1.271 . S
C418 O429 1.251 . S
C419 O430 1.252 . S
C419 O431 1.272 . S
O420 Sm400 2.543 . S
O420 C402 1.261 . S
O421 Sm400 2.450 . S
O421 C402 1.242 . S
O422 Sm400 2.681 . S
O422 Sm401 2.386 . S
O422 C409 1.271 . S
O423 Sm400 2.464 . S
O423 C409 1.251 . S
O424 Sm400 2.396 . S
O424 C410 1.252 . S
O425 Sm401 2.408 . S
O425 C410 1.272 . S
O426 Sm401 2.543 . S
O426 C411 1.261 . S
O427 Sm401 2.450 . S
O427 C411 1.242 . S
O428 Sm400 2.386 . S
O428 Sm401 2.681 . S
O428 C418 1.271 . S
O429 Sm401 2.464 . S
O429 C418 1.251 . S
O430 Sm401 2.396 . S
O430 C419 1.252 . S
O431 Sm400 2.408 . S
O431 C419 1.272 . S
H432 C404 0.930 . S
H433 C405 0.929 . S
H434 C407 0.930 . S
H435 C408 0.929 . S
H436 C413 0.930 . S
H437 C414 0.929 . S
H438 C416 0.930 . S
H439 C417 0.929 . S
Sm440 C442 2.846 . S
Sm440 O460 2.543 . S
Sm440 O461 2.450 . S
Sm440 O462 2.681 . S
Sm440 O463 2.464 . S
Sm440 O464 2.396 . S
Sm440 O468 2.386 . S
Sm440 O471 2.408 . S
Sm441 C451 2.846 . S
Sm441 O462 2.386 . S
Sm441 O465 2.408 . S
Sm441 O466 2.543 . S
Sm441 O467 2.450 . S
Sm441 O468 2.681 . S
Sm441 O469 2.464 . S
Sm441 O470 2.396 . S
C442 Sm440 2.846 . S
C442 C443 1.506 . S
C442 O460 1.261 . S
C442 O461 1.242 . S
C443 C442 1.506 . S
C443 C444 1.358 . S
C443 C448 1.382 . S
C444 C443 1.358 . S
C444 C445 1.385 . S
C444 H472 0.930 . S
C445 C444 1.385 . S
C445 C446 1.395 . S
C445 H473 0.929 . S
C446 C445 1.395 . S
C446 C447 1.335 . S
C447 C446 1.335 . S
C447 C448 1.398 . S
C447 H474 0.930 . S
C448 C443 1.382 . S
C448 C447 1.398 . S
C448 H475 0.929 . S
C449 O462 1.271 . S
C449 O463 1.251 . S
C450 O464 1.252 . S
C450 O465 1.272 . S
C451 Sm441 2.846 . S
C451 C452 1.506 . S
C451 O466 1.261 . S
C451 O467 1.242 . S
C452 C451 1.506 . S
C452 C453 1.358 . S
C452 C457 1.382 . S
C453 C452 1.358 . S
C453 C454 1.385 . S
C453 H476 0.930 . S
C454 C453 1.385 . S
C454 C455 1.395 . S
C454 H477 0.929 . S
C455 C454 1.395 . S
C455 C456 1.335 . S
C456 C455 1.335 . S
C456 C457 1.398 . S
C456 H478 0.930 . S
C457 C452 1.382 . S
C457 C456 1.398 . S
C457 H479 0.929 . S
C458 O468 1.271 . S
C458 O469 1.251 . S
C459 O470 1.252 . S
C459 O471 1.272 . S
O460 Sm440 2.543 . S
O460 C442 1.261 . S
O461 Sm440 2.450 . S
O461 C442 1.242 . S
O462 Sm440 2.681 . S
O462 Sm441 2.386 . S
O462 C449 1.271 . S
O463 Sm440 2.464 . S
O463 C449 1.251 . S
O464 Sm440 2.396 . S
O464 C450 1.252 . S
O465 Sm441 2.408 . S
O465 C450 1.272 . S
O466 Sm441 2.543 . S
O466 C451 1.261 . S
O467 Sm441 2.450 . S
O467 C451 1.242 . S
O468 Sm440 2.386 . S
O468 Sm441 2.681 . S
O468 C458 1.271 . S
O469 Sm441 2.464 . S
O469 C458 1.251 . S
O470 Sm441 2.396 . S
O470 C459 1.252 . S
O471 Sm440 2.408 . S
O471 C459 1.272 . S
H472 C444 0.930 . S
H473 C445 0.929 . S
H474 C447 0.930 . S
H475 C448 0.929 . S
H476 C453 0.930 . S
H477 C454 0.929 . S
H478 C456 0.930 . S
H479 C457 0.929 . S
Sm480 C482 2.846 . S
Sm480 O500 2.543 . S
Sm480 O501 2.450 . S
Sm480 O502 2.681 . S
Sm480 O503 2.464 . S
Sm480 O504 2.396 . S
Sm480 O508 2.386 . S
Sm480 O511 2.408 . S
Sm481 C491 2.846 . S
Sm481 O502 2.386 . S
Sm481 O505 2.408 . S
Sm481 O506 2.543 . S
Sm481 O507 2.450 . S
Sm481 O508 2.681 . S
Sm481 O509 2.464 . S
Sm481 O510 2.396 . S
C482 Sm480 2.846 . S
C482 C483 1.506 . S
C482 O500 1.261 . S
C482 O501 1.242 . S
C483 C482 1.506 . S
C483 C484 1.358 . S
C483 C488 1.382 . S
C484 C483 1.358 . S
C484 C485 1.385 . S
C484 H512 0.930 . S
C485 C484 1.385 . S
C485 C486 1.395 . S
C485 H513 0.929 . S
C486 C485 1.395 . S
C486 C487 1.335 . S
C487 C486 1.335 . S
C487 C488 1.398 . S
C487 H514 0.930 . S
C488 C483 1.382 . S
C488 C487 1.398 . S
C488 H515 0.929 . S
C489 O502 1.271 . S
C489 O503 1.251 . S
C490 O504 1.252 . S
C490 O505 1.272 . S
C491 Sm481 2.846 . S
C491 C492 1.506 . S
C491 O506 1.261 . S
C491 O507 1.242 . S
C492 C491 1.506 . S
C492 C493 1.358 . S
C492 C497 1.382 . S
C493 C492 1.358 . S
C493 C494 1.385 . S
C493 H516 0.930 . S
C494 C493 1.385 . S
C494 C495 1.395 . S
C494 H517 0.929 . S
C495 C494 1.395 . S
C495 C496 1.335 . S
C496 C495 1.335 . S
C496 C497 1.398 . S
C496 H518 0.930 . S
C497 C492 1.382 . S
C497 C496 1.398 . S
C497 H519 0.929 . S
C498 O508 1.271 . S
C498 O509 1.251 . S
C499 O510 1.252 . S
C499 O511 1.272 . S
O500 Sm480 2.543 . S
O500 C482 1.261 . S
O501 Sm480 2.450 . S
O501 C482 1.242 . S
O502 Sm480 2.681 . S
O502 Sm481 2.386 . S
O502 C489 1.271 . S
O503 Sm480 2.464 . S
O503 C489 1.251 . S
O504 Sm480 2.396 . S
O504 C490 1.252 . S
O505 Sm481 2.408 . S
O505 C490 1.272 . S
O506 Sm481 2.543 . S
O506 C491 1.261 . S
O507 Sm481 2.450 . S
O507 C491 1.242 . S
O508 Sm480 2.386 . S
O508 Sm481 2.681 . S
O508 C498 1.271 . S
O509 Sm481 2.464 . S
O509 C498 1.251 . S
O510 Sm481 2.396 . S
O510 C499 1.252 . S
O511 Sm480 2.408 . S
O511 C499 1.272 . S
H512 C484 0.930 . S
H513 C485 0.929 . S
H514 C487 0.930 . S
H515 C488 0.929 . S
H516 C493 0.930 . S
H517 C494 0.929 . S
H518 C496 0.930 . S
H519 C497 0.929 . S
Sm520 C522 2.846 . S
Sm520 O540 2.543 . S
Sm520 O541 2.450 . S
Sm520 O542 2.681 . S
Sm520 O543 2.464 . S
Sm520 O544 2.396 . S
Sm520 O548 2.386 . S
Sm520 O551 2.408 . S
Sm521 C531 2.846 . S
Sm521 O542 2.386 . S
Sm521 O545 2.408 . S
Sm521 O546 2.543 . S
Sm521 O547 2.450 . S
Sm521 O548 2.681 . S
Sm521 O549 2.464 . S
Sm521 O550 2.396 . S
C522 Sm520 2.846 . S
C522 C523 1.506 . S
C522 O540 1.261 . S
C522 O541 1.242 . S
C523 C522 1.506 . S
C523 C524 1.358 . S
C523 C528 1.382 . S
C524 C523 1.358 . S
C524 C525 1.385 . S
C524 H552 0.930 . S
C525 C524 1.385 . S
C525 C526 1.395 . S
C525 H553 0.929 . S
C526 C525 1.395 . S
C526 C527 1.335 . S
C527 C526 1.335 . S
C527 C528 1.398 . S
C527 H554 0.930 . S
C528 C523 1.382 . S
C528 C527 1.398 . S
C528 H555 0.929 . S
C529 O542 1.271 . S
C529 O543 1.251 . S
C530 O544 1.252 . S
C530 O545 1.272 . S
C531 Sm521 2.846 . S
C531 C532 1.506 . S
C531 O546 1.261 . S
C531 O547 1.242 . S
C532 C531 1.506 . S
C532 C533 1.358 . S
C532 C537 1.382 . S
C533 C532 1.358 . S
C533 C534 1.385 . S
C533 H556 0.930 . S
C534 C533 1.385 . S
C534 C535 1.395 . S
C534 H557 0.929 . S
C535 C534 1.395 . S
C535 C536 1.335 . S
C536 C535 1.335 . S
C536 C537 1.398 . S
C536 H558 0.930 . S
C537 C532 1.382 . S
C537 C536 1.398 . S
C537 H559 0.929 . S
C538 O548 1.271 . S
C538 O549 1.251 . S
C539 O550 1.252 . S
C539 O551 1.272 . S
O540 Sm520 2.543 . S
O540 C522 1.261 . S
O541 Sm520 2.450 . S
O541 C522 1.242 . S
O542 Sm520 2.681 . S
O542 Sm521 2.386 . S
O542 C529 1.271 . S
O543 Sm520 2.464 . S
O543 C529 1.251 . S
O544 Sm520 2.396 . S
O544 C530 1.252 . S
O545 Sm521 2.408 . S
O545 C530 1.272 . S
O546 Sm521 2.543 . S
O546 C531 1.261 . S
O547 Sm521 2.450 . S
O547 C531 1.242 . S
O548 Sm520 2.386 . S
O548 Sm521 2.681 . S
O548 C538 1.271 . S
O549 Sm521 2.464 . S
O549 C538 1.251 . S
O550 Sm521 2.396 . S
O550 C539 1.252 . S
O551 Sm520 2.408 . S
O551 C539 1.272 . S
H552 C524 0.930 . S
H553 C525 0.929 . S
H554 C527 0.930 . S
H555 C528 0.929 . S
H556 C533 0.930 . S
H557 C534 0.929 . S
H558 C536 0.930 . S
H559 C537 0.929 . S
Sm560 C562 2.846 . S
Sm560 O580 2.543 . S
Sm560 O581 2.450 . S
Sm560 O582 2.681 . S
Sm560 O583 2.464 . S
Sm560 O584 2.396 . S
Sm560 O588 2.386 . S
Sm560 O591 2.408 . S
Sm561 C571 2.846 . S
Sm561 O582 2.386 . S
Sm561 O585 2.408 . S
Sm561 O586 2.543 . S
Sm561 O587 2.450 . S
Sm561 O588 2.681 . S
Sm561 O589 2.464 . S
Sm561 O590 2.396 . S
C562 Sm560 2.846 . S
C562 C563 1.506 . S
C562 O580 1.261 . S
C562 O581 1.242 . S
C563 C562 1.506 . S
C563 C564 1.358 . S
C563 C568 1.382 . S
C564 C563 1.358 . S
C564 C565 1.385 . S
C564 H592 0.930 . S
C565 C564 1.385 . S
C565 C566 1.395 . S
C565 H593 0.929 . S
C566 C565 1.395 . S
C566 C567 1.335 . S
C567 C566 1.335 . S
C567 C568 1.398 . S
C567 H594 0.930 . S
C568 C563 1.382 . S
C568 C567 1.398 . S
C568 H595 0.929 . S
C569 O582 1.271 . S
C569 O583 1.251 . S
C570 O584 1.252 . S
C570 O585 1.272 . S
C571 Sm561 2.846 . S
C571 C572 1.506 . S
C571 O586 1.261 . S
C571 O587 1.242 . S
C572 C571 1.506 . S
C572 C573 1.358 . S
C572 C577 1.382 . S
C573 C572 1.358 . S
C573 C574 1.385 . S
C573 H596 0.930 . S
C574 C573 1.385 . S
C574 C575 1.395 . S
C574 H597 0.929 . S
C575 C574 1.395 . S
C575 C576 1.335 . S
C576 C575 1.335 . S
C576 C577 1.398 . S
C576 H598 0.930 . S
C577 C572 1.382 . S
C577 C576 1.398 . S
C577 H599 0.929 . S
C578 O588 1.271 . S
C578 O589 1.251 . S
C579 O590 1.252 . S
C579 O591 1.272 . S
O580 Sm560 2.543 . S
O580 C562 1.261 . S
O581 Sm560 2.450 . S
O581 C562 1.242 . S
O582 Sm560 2.681 . S
O582 Sm561 2.386 . S
O582 C569 1.271 . S
O583 Sm560 2.464 . S
O583 C569 1.251 . S
O584 Sm560 2.396 . S
O584 C570 1.252 . S
O585 Sm561 2.408 . S
O585 C570 1.272 . S
O586 Sm561 2.543 . S
O586 C571 1.261 . S
O587 Sm561 2.450 . S
O587 C571 1.242 . S
O588 Sm560 2.386 . S
O588 Sm561 2.681 . S
O588 C578 1.271 . S
O589 Sm561 2.464 . S
O589 C578 1.251 . S
O590 Sm561 2.396 . S
O590 C579 1.252 . S
O591 Sm560 2.408 . S
O591 C579 1.272 . S
H592 C564 0.930 . S
H593 C565 0.929 . S
H594 C567 0.930 . S
H595 C568 0.929 . S
H596 C573 0.930 . S
H597 C574 0.929 . S
H598 C576 0.930 . S
H599 C577 0.929 . S
Sm600 C602 2.846 . S
Sm600 O620 2.543 . S
Sm600 O621 2.450 . S
Sm600 O622 2.681 . S
Sm600 O623 2.464 . S
Sm600 O624 2.396 . S
Sm600 O628 2.386 . S
Sm600 O631 2.408 . S
Sm601 C611 2.846 1_655 S
Sm601 O622 2.386 . S
Sm601 O625 2.408 . S
Sm601 O626 2.543 1_655 S
Sm601 O627 2.450 1_655 S
Sm601 O628 2.681 . S
Sm601 O629 2.464 . S
Sm601 O630 2.396 . S
C602 Sm600 2.846 . S
C602 C603 1.506 . S
C602 O620 1.261 . S
C602 O621 1.242 . S
C603 C602 1.506 . S
C603 C604 1.358 . S
C603 C608 1.382 . S
C604 C603 1.358 . S
C604 C605 1.385 . S
C604 H632 0.930 . S
C605 C604 1.385 . S
C605 C606 1.395 . S
C605 H633 0.929 . S
C606 C605 1.395 . S
C606 C607 1.335 . S
C607 C606 1.335 . S
C607 C608 1.398 . S
C607 H634 0.930 . S
C608 C603 1.382 . S
C608 C607 1.398 . S
C608 H635 0.929 . S
C609 O622 1.271 . S
C609 O623 1.251 . S
C610 O624 1.252 . S
C610 O625 1.272 . S
C611 Sm601 2.846 1_455 S
C611 C612 1.506 . S
C611 O626 1.261 . S
C611 O627 1.242 . S
C612 C611 1.506 . S
C612 C613 1.358 . S
C612 C617 1.382 . S
C613 C612 1.358 . S
C613 C614 1.385 . S
C613 H636 0.930 . S
C614 C613 1.385 . S
C614 C615 1.395 . S
C614 H637 0.929 . S
C615 C614 1.395 . S
C615 C616 1.335 . S
C616 C615 1.335 . S
C616 C617 1.398 . S
C616 H638 0.930 . S
C617 C612 1.382 . S
C617 C616 1.398 . S
C617 H639 0.929 . S
C618 O628 1.271 . S
C618 O629 1.251 . S
C619 O630 1.252 . S
C619 O631 1.272 . S
O620 Sm600 2.543 . S
O620 C602 1.261 . S
O621 Sm600 2.450 . S
O621 C602 1.242 . S
O622 Sm600 2.681 . S
O622 Sm601 2.386 . S
O622 C609 1.271 . S
O623 Sm600 2.464 . S
O623 C609 1.251 . S
O624 Sm600 2.396 . S
O624 C610 1.252 . S
O625 Sm601 2.408 . S
O625 C610 1.272 . S
O626 Sm601 2.543 1_455 S
O626 C611 1.261 . S
O627 Sm601 2.450 1_455 S
O627 C611 1.242 . S
O628 Sm600 2.386 . S
O628 Sm601 2.681 . S
O628 C618 1.271 . S
O629 Sm601 2.464 . S
O629 C618 1.251 . S
O630 Sm601 2.396 . S
O630 C619 1.252 . S
O631 Sm600 2.408 . S
O631 C619 1.272 . S
H632 C604 0.930 . S
H633 C605 0.929 . S
H634 C607 0.930 . S
H635 C608 0.929 . S
H636 C613 0.930 . S
H637 C614 0.929 . S
H638 C616 0.930 . S
H639 C617 0.929 . S
Sm640 C642 2.846 . S
Sm640 O660 2.543 . S
Sm640 O661 2.450 . S
Sm640 O662 2.681 . S
Sm640 O663 2.464 . S
Sm640 O664 2.396 . S
Sm640 O668 2.386 . S
Sm640 O671 2.408 . S
Sm641 C651 2.846 . S
Sm641 O662 2.386 . S
Sm641 O665 2.408 . S
Sm641 O666 2.543 . S
Sm641 O667 2.450 . S
Sm641 O668 2.681 . S
Sm641 O669 2.464 . S
Sm641 O670 2.396 . S
C642 Sm640 2.846 . S
C642 C643 1.506 . S
C642 O660 1.261 . S
C642 O661 1.242 . S
C643 C642 1.506 . S
C643 C644 1.358 . S
C643 C648 1.382 . S
C644 C643 1.358 . S
C644 C645 1.385 . S
C644 H672 0.930 . S
C645 C644 1.385 . S
C645 C646 1.395 . S
C645 H673 0.929 . S
C646 C645 1.395 . S
C646 C647 1.335 . S
C647 C646 1.335 . S
C647 C648 1.398 . S
C647 H674 0.930 . S
C648 C643 1.382 . S
C648 C647 1.398 . S
C648 H675 0.929 . S
C649 O662 1.271 . S
C649 O663 1.251 . S
C650 O664 1.252 . S
C650 O665 1.272 . S
C651 Sm641 2.846 . S
C651 C652 1.506 . S
C651 O666 1.261 . S
C651 O667 1.242 . S
C652 C651 1.506 . S
C652 C653 1.358 . S
C652 C657 1.382 . S
C653 C652 1.358 . S
C653 C654 1.385 . S
C653 H676 0.930 . S
C654 C653 1.385 . S
C654 C655 1.395 . S
C654 H677 0.929 . S
C655 C654 1.395 . S
C655 C656 1.335 . S
C656 C655 1.335 . S
C656 C657 1.398 . S
C656 H678 0.930 . S
C657 C652 1.382 . S
C657 C656 1.398 . S
C657 H679 0.929 . S
C658 O668 1.271 . S
C658 O669 1.251 . S
C659 O670 1.252 . S
C659 O671 1.272 . S
O660 Sm640 2.543 . S
O660 C642 1.261 . S
O661 Sm640 2.450 . S
O661 C642 1.242 . S
O662 Sm640 2.681 . S
O662 Sm641 2.386 . S
O662 C649 1.271 . S
O663 Sm640 2.464 . S
O663 C649 1.251 . S
O664 Sm640 2.396 . S
O664 C650 1.252 . S
O665 Sm641 2.408 . S
O665 C650 1.272 . S
O666 Sm641 2.543 . S
O666 C651 1.261 . S
O667 Sm641 2.450 . S
O667 C651 1.242 . S
O668 Sm640 2.386 . S
O668 Sm641 2.681 . S
O668 C658 1.271 . S
O669 Sm641 2.464 . S
O669 C658 1.251 . S
O670 Sm641 2.396 . S
O670 C659 1.252 . S
O671 Sm640 2.408 . S
O671 C659 1.272 . S
H672 C644 0.930 . S
H673 C645 0.929 . S
H674 C647 0.930 . S
H675 C648 0.929 . S
H676 C653 0.930 . S
H677 C654 0.929 . S
H678 C656 0.930 . S
H679 C657 0.929 . S
Sm680 C682 2.846 . S
Sm680 O700 2.543 . S
Sm680 O701 2.450 . S
Sm680 O702 2.681 . S
Sm680 O703 2.464 . S
Sm680 O704 2.396 . S
Sm680 O708 2.386 . S
Sm680 O711 2.408 . S
Sm681 C691 2.846 . S
Sm681 O702 2.386 . S
Sm681 O705 2.408 . S
Sm681 O706 2.543 . S
Sm681 O707 2.450 . S
Sm681 O708 2.681 . S
Sm681 O709 2.464 . S
Sm681 O710 2.396 . S
C682 Sm680 2.846 . S
C682 C683 1.506 . S
C682 O700 1.261 . S
C682 O701 1.242 . S
C683 C682 1.506 . S
C683 C684 1.358 . S
C683 C688 1.382 . S
C684 C683 1.358 . S
C684 C685 1.385 . S
C684 H712 0.930 . S
C685 C684 1.385 . S
C685 C686 1.395 . S
C685 H713 0.929 . S
C686 C685 1.395 . S
C686 C687 1.335 . S
C687 C686 1.335 . S
C687 C688 1.398 . S
C687 H714 0.930 . S
C688 C683 1.382 . S
C688 C687 1.398 . S
C688 H715 0.929 . S
C689 O702 1.271 . S
C689 O703 1.251 . S
C690 O704 1.252 . S
C690 O705 1.272 . S
C691 Sm681 2.846 . S
C691 C692 1.506 . S
C691 O706 1.261 . S
C691 O707 1.242 . S
C692 C691 1.506 . S
C692 C693 1.358 . S
C692 C697 1.382 . S
C693 C692 1.358 . S
C693 C694 1.385 . S
C693 H716 0.930 . S
C694 C693 1.385 . S
C694 C695 1.395 . S
C694 H717 0.929 . S
C695 C694 1.395 . S
C695 C696 1.335 . S
C696 C695 1.335 . S
C696 C697 1.398 . S
C696 H718 0.930 . S
C697 C692 1.382 . S
C697 C696 1.398 . S
C697 H719 0.929 . S
C698 O708 1.271 . S
C698 O709 1.251 . S
C699 O710 1.252 . S
C699 O711 1.272 . S
O700 Sm680 2.543 . S
O700 C682 1.261 . S
O701 Sm680 2.450 . S
O701 C682 1.242 . S
O702 Sm680 2.681 . S
O702 Sm681 2.386 . S
O702 C689 1.271 . S
O703 Sm680 2.464 . S
O703 C689 1.251 . S
O704 Sm680 2.396 . S
O704 C690 1.252 . S
O705 Sm681 2.408 . S
O705 C690 1.272 . S
O706 Sm681 2.543 . S
O706 C691 1.261 . S
O707 Sm681 2.450 . S
O707 C691 1.242 . S
O708 Sm680 2.386 . S
O708 Sm681 2.681 . S
O708 C698 1.271 . S
O709 Sm681 2.464 . S
O709 C698 1.251 . S
O710 Sm681 2.396 . S
O710 C699 1.252 . S
O711 Sm680 2.408 . S
O711 C699 1.272 . S
H712 C684 0.930 . S
H713 C685 0.929 . S
H714 C687 0.930 . S
H715 C688 0.929 . S
H716 C693 0.930 . S
H717 C694 0.929 . S
H718 C696 0.930 . S
H719 C697 0.929 . S
Sm720 C722 2.846 . S
Sm720 O740 2.543 . S
Sm720 O741 2.450 . S
Sm720 O742 2.681 . S
Sm720 O743 2.464 . S
Sm720 O744 2.396 . S
Sm720 O748 2.386 . S
Sm720 O751 2.408 . S
Sm721 C731 2.846 . S
Sm721 O742 2.386 . S
Sm721 O745 2.408 . S
Sm721 O746 2.543 . S
Sm721 O747 2.450 . S
Sm721 O748 2.681 . S
Sm721 O749 2.464 . S
Sm721 O750 2.396 . S
C722 Sm720 2.846 . S
C722 C723 1.506 . S
C722 O740 1.261 . S
C722 O741 1.242 . S
C723 C722 1.506 . S
C723 C724 1.358 . S
C723 C728 1.382 . S
C724 C723 1.358 . S
C724 C725 1.385 . S
C724 H752 0.930 . S
C725 C724 1.385 . S
C725 C726 1.395 . S
C725 H753 0.929 . S
C726 C725 1.395 . S
C726 C727 1.335 . S
C727 C726 1.335 . S
C727 C728 1.398 . S
C727 H754 0.930 . S
C728 C723 1.382 . S
C728 C727 1.398 . S
C728 H755 0.929 . S
C729 O742 1.271 . S
C729 O743 1.251 . S
C730 O744 1.252 . S
C730 O745 1.272 . S
C731 Sm721 2.846 . S
C731 C732 1.506 . S
C731 O746 1.261 . S
C731 O747 1.242 . S
C732 C731 1.506 . S
C732 C733 1.358 . S
C732 C737 1.382 . S
C733 C732 1.358 . S
C733 C734 1.385 . S
C733 H756 0.930 . S
C734 C733 1.385 . S
C734 C735 1.395 . S
C734 H757 0.929 . S
C735 C734 1.395 . S
C735 C736 1.335 . S
C736 C735 1.335 . S
C736 C737 1.398 . S
C736 H758 0.930 . S
C737 C732 1.382 . S
C737 C736 1.398 . S
C737 H759 0.929 . S
C738 O748 1.271 . S
C738 O749 1.251 . S
C739 O750 1.252 . S
C739 O751 1.272 . S
O740 Sm720 2.543 . S
O740 C722 1.261 . S
O741 Sm720 2.450 . S
O741 C722 1.242 . S
O742 Sm720 2.681 . S
O742 Sm721 2.386 . S
O742 C729 1.271 . S
O743 Sm720 2.464 . S
O743 C729 1.251 . S
O744 Sm720 2.396 . S
O744 C730 1.252 . S
O745 Sm721 2.408 . S
O745 C730 1.272 . S
O746 Sm721 2.543 . S
O746 C731 1.261 . S
O747 Sm721 2.450 . S
O747 C731 1.242 . S
O748 Sm720 2.386 . S
O748 Sm721 2.681 . S
O748 C738 1.271 . S
O749 Sm721 2.464 . S
O749 C738 1.251 . S
O750 Sm721 2.396 . S
O750 C739 1.252 . S
O751 Sm720 2.408 . S
O751 C739 1.272 . S
H752 C724 0.930 . S
H753 C725 0.929 . S
H754 C727 0.930 . S
H755 C728 0.929 . S
H756 C733 0.930 . S
H757 C734 0.929 . S
H758 C736 0.930 . S
H759 C737 0.929 . S
Sm760 C762 2.846 1_655 S
Sm760 O780 2.543 1_655 S
Sm760 O781 2.450 1_655 S
Sm760 O782 2.681 . S
Sm760 O783 2.464 . S
Sm760 O784 2.396 . S
Sm760 O788 2.386 . S
Sm760 O791 2.408 . S
Sm761 C771 2.846 . S
Sm761 O782 2.386 . S
Sm761 O785 2.408 . S
Sm761 O786 2.543 . S
Sm761 O787 2.450 . S
Sm761 O788 2.681 . S
Sm761 O789 2.464 . S
Sm761 O790 2.396 . S
C762 Sm760 2.846 1_455 S
C762 C763 1.506 . S
C762 O780 1.261 . S
C762 O781 1.242 . S
C763 C762 1.506 . S
C763 C764 1.358 . S
C763 C768 1.382 . S
C764 C763 1.358 . S
C764 C765 1.385 . S
C764 H792 0.930 . S
C765 C764 1.385 . S
C765 C766 1.395 . S
C765 H793 0.929 . S
C766 C765 1.395 . S
C766 C767 1.335 . S
C767 C766 1.335 . S
C767 C768 1.398 . S
C767 H794 0.930 . S
C768 C763 1.382 . S
C768 C767 1.398 . S
C768 H795 0.929 . S
C769 O782 1.271 . S
C769 O783 1.251 . S
C770 O784 1.252 . S
C770 O785 1.272 . S
C771 Sm761 2.846 . S
C771 C772 1.506 . S
C771 O786 1.261 . S
C771 O787 1.242 . S
C772 C771 1.506 . S
C772 C773 1.358 . S
C772 C777 1.382 . S
C773 C772 1.358 . S
C773 C774 1.385 . S
C773 H796 0.930 . S
C774 C773 1.385 . S
C774 C775 1.395 . S
C774 H797 0.929 . S
C775 C774 1.395 . S
C775 C776 1.335 . S
C776 C775 1.335 . S
C776 C777 1.398 . S
C776 H798 0.930 . S
C777 C772 1.382 . S
C777 C776 1.398 . S
C777 H799 0.929 . S
C778 O788 1.271 . S
C778 O789 1.251 . S
C779 O790 1.252 . S
C779 O791 1.272 . S
O780 Sm760 2.543 1_455 S
O780 C762 1.261 . S
O781 Sm760 2.450 1_455 S
O781 C762 1.242 . S
O782 Sm760 2.681 . S
O782 Sm761 2.386 . S
O782 C769 1.271 . S
O783 Sm760 2.464 . S
O783 C769 1.251 . S
O784 Sm760 2.396 . S
O784 C770 1.252 . S
O785 Sm761 2.408 . S
O785 C770 1.272 . S
O786 Sm761 2.543 . S
O786 C771 1.261 . S
O787 Sm761 2.450 . S
O787 C771 1.242 . S
O788 Sm760 2.386 . S
O788 Sm761 2.681 . S
O788 C778 1.271 . S
O789 Sm761 2.464 . S
O789 C778 1.251 . S
O790 Sm761 2.396 . S
O790 C779 1.252 . S
O791 Sm760 2.408 . S
O791 C779 1.272 . S
H792 C764 0.930 . S
H793 C765 0.929 . S
H794 C767 0.930 . S
H795 C768 0.929 . S
H796 C773 0.930 . S
H797 C774 0.929 . S
H798 C776 0.930 . S
H799 C777 0.929 . S
Sm800 C802 2.846 . S
Sm800 O820 2.543 . S
Sm800 O821 2.450 . S
Sm800 O822 2.681 . S
Sm800 O823 2.464 . S
Sm800 O824 2.396 . S
Sm800 O828 2.386 . S
Sm800 O831 2.408 . S
Sm801 C811 2.846 . S
Sm801 O822 2.386 . S
Sm801 O825 2.408 . S
Sm801 O826 2.543 . S
Sm801 O827 2.450 . S
Sm801 O828 2.681 . S
Sm801 O829 2.464 . S
Sm801 O830 2.396 . S
C802 Sm800 2.846 . S
C802 C803 1.506 . S
C802 O820 1.261 . S
C802 O821 1.242 . S
C803 C802 1.506 . S
C803 C804 1.358 . S
C803 C808 1.382 . S
C804 C803 1.358 . S
C804 C805 1.385 . S
C804 H832 0.930 . S
C805 C804 1.385 . S
C805 C806 1.395 . S
C805 H833 0.929 . S
C806 C805 1.395 . S
C806 C807 1.335 . S
C807 C806 1.335 . S
C807 C808 1.398 . S
C807 H834 0.930 . S
C808 C803 1.382 . S
C808 C807 1.398 . S
C808 H835 0.929 . S
C809 O822 1.271 . S
C809 O823 1.251 . S
C810 O824 1.252 . S
C810 O825 1.272 . S
C811 Sm801 2.846 . S
C811 C812 1.506 . S
C811 O826 1.261 . S
C811 O827 1.242 . S
C812 C811 1.506 . S
C812 C813 1.358 . S
C812 C817 1.382 . S
C813 C812 1.358 . S
C813 C814 1.385 . S
C813 H836 0.930 . S
C814 C813 1.385 . S
C814 C815 1.395 . S
C814 H837 0.929 . S
C815 C814 1.395 . S
C815 C816 1.335 . S
C816 C815 1.335 . S
C816 C817 1.398 . S
C816 H838 0.930 . S
C817 C812 1.382 . S
C817 C816 1.398 . S
C817 H839 0.929 . S
C818 O828 1.271 . S
C818 O829 1.251 . S
C819 O830 1.252 . S
C819 O831 1.272 . S
O820 Sm800 2.543 . S
O820 C802 1.261 . S
O821 Sm800 2.450 . S
O821 C802 1.242 . S
O822 Sm800 2.681 . S
O822 Sm801 2.386 . S
O822 C809 1.271 . S
O823 Sm800 2.464 . S
O823 C809 1.251 . S
O824 Sm800 2.396 . S
O824 C810 1.252 . S
O825 Sm801 2.408 . S
O825 C810 1.272 . S
O826 Sm801 2.543 . S
O826 C811 1.261 . S
O827 Sm801 2.450 . S
O827 C811 1.242 . S
O828 Sm800 2.386 . S
O828 Sm801 2.681 . S
O828 C818 1.271 . S
O829 Sm801 2.464 . S
O829 C818 1.251 . S
O830 Sm801 2.396 . S
O830 C819 1.252 . S
O831 Sm800 2.408 . S
O831 C819 1.272 . S
H832 C804 0.930 . S
H833 C805 0.929 . S
H834 C807 0.930 . S
H835 C808 0.929 . S
H836 C813 0.930 . S
H837 C814 0.929 . S
H838 C816 0.930 . S
H839 C817 0.929 . S
Sm840 C842 2.846 1_655 S
Sm840 O860 2.543 1_655 S
Sm840 O861 2.450 1_655 S
Sm840 O862 2.681 . S
Sm840 O863 2.464 . S
Sm840 O864 2.396 . S
Sm840 O868 2.386 . S
Sm840 O871 2.408 . S
Sm841 C851 2.846 . S
Sm841 O862 2.386 . S
Sm841 O865 2.408 . S
Sm841 O866 2.543 . S
Sm841 O867 2.450 . S
Sm841 O868 2.681 . S
Sm841 O869 2.464 . S
Sm841 O870 2.396 . S
C842 Sm840 2.846 1_455 S
C842 C843 1.506 . S
C842 O860 1.261 . S
C842 O861 1.242 . S
C843 C842 1.506 . S
C843 C844 1.358 . S
C843 C848 1.382 . S
C844 C843 1.358 . S
C844 C845 1.385 . S
C844 H872 0.930 . S
C845 C844 1.385 . S
C845 C846 1.395 . S
C845 H873 0.929 . S
C846 C845 1.395 . S
C846 C847 1.335 . S
C847 C846 1.335 . S
C847 C848 1.398 . S
C847 H874 0.930 . S
C848 C843 1.382 . S
C848 C847 1.398 . S
C848 H875 0.929 . S
C849 O862 1.271 . S
C849 O863 1.251 . S
C850 O864 1.252 . S
C850 O865 1.272 . S
C851 Sm841 2.846 . S
C851 C852 1.506 . S
C851 O866 1.261 . S
C851 O867 1.242 . S
C852 C851 1.506 . S
C852 C853 1.358 . S
C852 C857 1.382 . S
C853 C852 1.358 . S
C853 C854 1.385 . S
C853 H876 0.930 . S
C854 C853 1.385 . S
C854 C855 1.395 . S
C854 H877 0.929 . S
C855 C854 1.395 . S
C855 C856 1.335 . S
C856 C855 1.335 . S
C856 C857 1.398 . S
C856 H878 0.930 . S
C857 C852 1.382 . S
C857 C856 1.398 . S
C857 H879 0.929 . S
C858 O868 1.271 . S
C858 O869 1.251 . S
C859 O870 1.252 . S
C859 O871 1.272 . S
O860 Sm840 2.543 1_455 S
O860 C842 1.261 . S
O861 Sm840 2.450 1_455 S
O861 C842 1.242 . S
O862 Sm840 2.681 . S
O862 Sm841 2.386 . S
O862 C849 1.271 . S
O863 Sm840 2.464 . S
O863 C849 1.251 . S
O864 Sm840 2.396 . S
O864 C850 1.252 . S
O865 Sm841 2.408 . S
O865 C850 1.272 . S
O866 Sm841 2.543 . S
O866 C851 1.261 . S
O867 Sm841 2.450 . S
O867 C851 1.242 . S
O868 Sm840 2.386 . S
O868 Sm841 2.681 . S
O868 C858 1.271 . S
O869 Sm841 2.464 . S
O869 C858 1.251 . S
O870 Sm841 2.396 . S
O870 C859 1.252 . S
O871 Sm840 2.408 . S
O871 C859 1.272 . S
H872 C844 0.930 . S
H873 C845 0.929 . S
H874 C847 0.930 . S
H875 C848 0.929 . S
H876 C853 0.930 . S
H877 C854 0.929 . S
H878 C856 0.930 . S
H879 C857 0.929 . S
Sm880 C882 2.846 . S
Sm880 O900 2.543 . S
Sm880 O901 2.450 . S
Sm880 O902 2.681 . S
Sm880 O903 2.464 . S
Sm880 O904 2.396 . S
Sm880 O908 2.386 . S
Sm880 O911 2.408 . S
Sm881 C891 2.846 . S
Sm881 O902 2.386 . S
Sm881 O905 2.408 . S
Sm881 O906 2.543 . S
Sm881 O907 2.450 . S
Sm881 O908 2.681 . S
Sm881 O909 2.464 . S
Sm881 O910 2.396 . S
C882 Sm880 2.846 . S
C882 C883 1.506 . S
C882 O900 1.261 . S
C882 O901 1.242 . S
C883 C882 1.506 . S
C883 C884 1.358 . S
C883 C888 1.382 . S
C884 C883 1.358 . S
C884 C885 1.385 . S
C884 H912 0.930 . S
C885 C884 1.385 . S
C885 C886 1.395 . S
C885 H913 0.929 . S
C886 C885 1.395 . S
C886 C887 1.335 . S
C887 C886 1.335 . S
C887 C888 1.398 . S
C887 H914 0.930 . S
C888 C883 1.382 . S
C888 C887 1.398 . S
C888 H915 0.929 . S
C889 O902 1.271 . S
C889 O903 1.251 . S
C890 O904 1.252 . S
C890 O905 1.272 . S
C891 Sm881 2.846 . S
C891 C892 1.506 . S
C891 O906 1.261 . S
C891 O907 1.242 . S
C892 C891 1.506 . S
C892 C893 1.358 . S
C892 C897 1.382 . S
C893 C892 1.358 . S
C893 C894 1.385 . S
C893 H916 0.930 . S
C894 C893 1.385 . S
C894 C895 1.395 . S
C894 H917 0.929 . S
C895 C894 1.395 . S
C895 C896 1.335 . S
C896 C895 1.335 . S
C896 C897 1.398 . S
C896 H918 0.930 . S
C897 C892 1.382 . S
C897 C896 1.398 . S
C897 H919 0.929 . S
C898 O908 1.271 . S
C898 O909 1.251 . S
C899 O910 1.252 . S
C899 O911 1.272 . S
O900 Sm880 2.543 . S
O900 C882 1.261 . S
O901 Sm880 2.450 . S
O901 C882 1.242 . S
O902 Sm880 2.681 . S
O902 Sm881 2.386 . S
O902 C889 1.271 . S
O903 Sm880 2.464 . S
O903 C889 1.251 . S
O904 Sm880 2.396 . S
O904 C890 1.252 . S
O905 Sm881 2.408 . S
O905 C890 1.272 . S
O906 Sm881 2.543 . S
O906 C891 1.261 . S
O907 Sm881 2.450 . S
O907 C891 1.242 . S
O908 Sm880 2.386 . S
O908 Sm881 2.681 . S
O908 C898 1.271 . S
O909 Sm881 2.464 . S
O909 C898 1.251 . S
O910 Sm881 2.396 . S
O910 C899 1.252 . S
O911 Sm880 2.408 . S
O911 C899 1.272 . S
H912 C884 0.930 . S
H913 C885 0.929 . S
H914 C887 0.930 . S
H915 C888 0.929 . S
H916 C893 0.930 . S
H917 C894 0.929 . S
H918 C896 0.930 . S
H919 C897 0.929 . S
Sm920 C922 2.846 . S
Sm920 O940 2.543 . S
Sm920 O941 2.450 . S
Sm920 O942 2.681 . S
Sm920 O943 2.464 . S
Sm920 O944 2.396 . S
Sm920 O948 2.386 . S
Sm920 O951 2.408 . S
Sm921 C931 2.846 . S
Sm921 O942 2.386 . S
Sm921 O945 2.408 . S
Sm921 O946 2.543 . S
Sm921 O947 2.450 . S
Sm921 O948 2.681 . S
Sm921 O949 2.464 . S
Sm921 O950 2.396 . S
C922 Sm920 2.846 . S
C922 C923 1.506 . S
C922 O940 1.261 . S
C922 O941 1.242 . S
C923 C922 1.506 . S
C923 C924 1.358 . S
C923 C928 1.382 . S
C924 C923 1.358 . S
C924 C925 1.385 . S
C924 H952 0.930 . S
C925 C924 1.385 . S
C925 C926 1.395 . S
C925 H953 0.929 . S
C926 C925 1.395 . S
C926 C927 1.335 . S
C927 C926 1.335 . S
C927 C928 1.398 . S
C927 H954 0.930 . S
C928 C923 1.382 . S
C928 C927 1.398 . S
C928 H955 0.929 . S
C929 O942 1.271 . S
C929 O943 1.251 . S
C930 O944 1.252 . S
C930 O945 1.272 . S
C931 Sm921 2.846 . S
C931 C932 1.506 . S
C931 O946 1.261 . S
C931 O947 1.242 . S
C932 C931 1.506 . S
C932 C933 1.358 . S
C932 C937 1.382 . S
C933 C932 1.358 . S
C933 C934 1.385 . S
C933 H956 0.930 . S
C934 C933 1.385 . S
C934 C935 1.395 . S
C934 H957 0.929 . S
C935 C934 1.395 . S
C935 C936 1.335 . S
C936 C935 1.335 . S
C936 C937 1.398 . S
C936 H958 0.930 . S
C937 C932 1.382 . S
C937 C936 1.398 . S
C937 H959 0.929 . S
C938 O948 1.271 . S
C938 O949 1.251 . S
C939 O950 1.252 . S
C939 O951 1.272 . S
O940 Sm920 2.543 . S
O940 C922 1.261 . S
O941 Sm920 2.450 . S
O941 C922 1.242 . S
O942 Sm920 2.681 . S
O942 Sm921 2.386 . S
O942 C929 1.271 . S
O943 Sm920 2.464 . S
O943 C929 1.251 . S
O944 Sm920 2.396 . S
O944 C930 1.252 . S
O945 Sm921 2.408 . S
O945 C930 1.272 . S
O946 Sm921 2.543 . S
O946 C931 1.261 . S
O947 Sm921 2.450 . S
O947 C931 1.242 . S
O948 Sm920 2.386 . S
O948 Sm921 2.681 . S
O948 C938 1.271 . S
O949 Sm921 2.464 . S
O949 C938 1.251 . S
O950 Sm921 2.396 . S
O950 C939 1.252 . S
O951 Sm920 2.408 . S
O951 C939 1.272 . S
H952 C924 0.930 . S
H953 C925 0.929 . S
H954 C927 0.930 . S
H955 C928 0.929 . S
H956 C933 0.930 . S
H957 C934 0.929 . S
H958 C936 0.930 . S
H959 C937 0.929 . S
Sm960 C962 2.846 . S
Sm960 O980 2.543 . S
Sm960 O981 2.450 . S
Sm960 O982 2.681 . S
Sm960 O983 2.464 . S
Sm960 O984 2.396 . S
Sm960 O988 2.386 . S
Sm960 O991 2.408 . S
Sm961 C971 2.846 . S
Sm961 O982 2.386 . S
Sm961 O985 2.408 . S
Sm961 O986 2.543 . S
Sm961 O987 2.450 . S
Sm961 O988 2.681 . S
Sm961 O989 2.464 . S
Sm961 O990 2.396 . S
C962 Sm960 2.846 . S
C962 C963 1.506 . S
C962 O980 1.261 . S
C962 O981 1.242 . S
C963 C962 1.506 . S
C963 C964 1.358 . S
C963 C968 1.382 . S
C964 C963 1.358 . S
C964 C965 1.385 . S
C964 H992 0.930 . S
C965 C964 1.385 . S
C965 C966 1.395 . S
C965 H993 0.929 . S
C966 C965 1.395 . S
C966 C967 1.335 . S
C967 C966 1.335 . S
C967 C968 1.398 . S
C967 H994 0.930 . S
C968 C963 1.382 . S
C968 C967 1.398 . S
C968 H995 0.929 . S
C969 O982 1.271 . S
C969 O983 1.251 . S
C970 O984 1.252 . S
C970 O985 1.272 . S
C971 Sm961 2.846 . S
C971 C972 1.506 . S
C971 O986 1.261 . S
C971 O987 1.242 . S
C972 C971 1.506 . S
C972 C973 1.358 . S
C972 C977 1.382 . S
C973 C972 1.358 . S
C973 C974 1.385 . S
C973 H996 0.930 . S
C974 C973 1.385 . S
C974 C975 1.395 . S
C974 H997 0.929 . S
C975 C974 1.395 . S
C975 C976 1.335 . S
C976 C975 1.335 . S
C976 C977 1.398 . S
C976 H998 0.930 . S
C977 C972 1.382 . S
C977 C976 1.398 . S
C977 H999 0.929 . S
C978 O988 1.271 . S
C978 O989 1.251 . S
C979 O990 1.252 . S
C979 O991 1.272 . S
O980 Sm960 2.543 . S
O980 C962 1.261 . S
O981 Sm960 2.450 . S
O981 C962 1.242 . S
O982 Sm960 2.681 . S
O982 Sm961 2.386 . S
O982 C969 1.271 . S
O983 Sm960 2.464 . S
O983 C969 1.251 . S
O984 Sm960 2.396 . S
O984 C970 1.252 . S
O985 Sm961 2.408 . S
O985 C970 1.272 . S
O986 Sm961 2.543 . S
O986 C971 1.261 . S
O987 Sm961 2.450 . S
O987 C971 1.242 . S
O988 Sm960 2.386 . S
O988 Sm961 2.681 . S
O988 C978 1.271 . S
O989 Sm961 2.464 . S
O989 C978 1.251 . S
O990 Sm961 2.396 . S
O990 C979 1.252 . S
O991 Sm960 2.408 . S
O991 C979 1.272 . S
H992 C964 0.930 . S
H993 C965 0.929 . S
H994 C967 0.930 . S
H995 C968 0.929 . S
H996 C973 0.930 . S
H997 C974 0.929 . S
H998 C976 0.930 . S
H999 C977 0.929 . S
Sm1000 C1002 2.846 . S
Sm1000 O1020 2.543 . S
Sm1000 O1021 2.450 . S
Sm1000 O1022 2.681 . S
Sm1000 O1023 2.464 . S
Sm1000 O1024 2.396 . S
Sm1000 O1028 2.386 . S
Sm1000 O1031 2.408 . S
Sm1001 C1011 2.846 . S
Sm1001 O1022 2.386 . S
Sm1001 O1025 2.408 . S
Sm1001 O1026 2.543 . S
Sm1001 O1027 2.450 . S
Sm1001 O1028 2.681 . S
Sm1001 O1029 2.464 . S
Sm1001 O1030 2.396 . S
C1002 Sm1000 2.846 . S
C1002 C1003 1.506 . S
C1002 O1020 1.261 . S
C1002 O1021 1.242 . S
C1003 C1002 1.506 . S
C1003 C1004 1.358 . S
C1003 C1008 1.382 . S
C1004 C1003 1.358 . S
C1004 C1005 1.385 . S
C1004 H1032 0.930 . S
C1005 C1004 1.385 . S
C1005 C1006 1.395 . S
C1005 H1033 0.929 . S
C1006 C1005 1.395 . S
C1006 C1007 1.335 . S
C1007 C1006 1.335 . S
C1007 C1008 1.398 . S
C1007 H1034 0.930 . S
C1008 C1003 1.382 . S
C1008 C1007 1.398 . S
C1008 H1035 0.929 . S
C1009 O1022 1.271 . S
C1009 O1023 1.251 . S
C1010 O1024 1.252 . S
C1010 O1025 1.272 . S
C1011 Sm1001 2.846 . S
C1011 C1012 1.506 . S
C1011 O1026 1.261 . S
C1011 O1027 1.242 . S
C1012 C1011 1.506 . S
C1012 C1013 1.358 . S
C1012 C1017 1.382 . S
C1013 C1012 1.358 . S
C1013 C1014 1.385 . S
C1013 H1036 0.930 . S
C1014 C1013 1.385 . S
C1014 C1015 1.395 . S
C1014 H1037 0.929 . S
C1015 C1014 1.395 . S
C1015 C1016 1.335 . S
C1016 C1015 1.335 . S
C1016 C1017 1.398 . S
C1016 H1038 0.930 . S
C1017 C1012 1.382 . S
C1017 C1016 1.398 . S
C1017 H1039 0.929 . S
C1018 O1028 1.271 . S
C1018 O1029 1.251 . S
C1019 O1030 1.252 . S
C1019 O1031 1.272 . S
O1020 Sm1000 2.543 . S
O1020 C1002 1.261 . S
O1021 Sm1000 2.450 . S
O1021 C1002 1.242 . S
O1022 Sm1000 2.681 . S
O1022 Sm1001 2.386 . S
O1022 C1009 1.271 . S
O1023 Sm1000 2.464 . S
O1023 C1009 1.251 . S
O1024 Sm1000 2.396 . S
O1024 C1010 1.252 . S
O1025 Sm1001 2.408 . S
O1025 C1010 1.272 . S
O1026 Sm1001 2.543 . S
O1026 C1011 1.261 . S
O1027 Sm1001 2.450 . S
O1027 C1011 1.242 . S
O1028 Sm1000 2.386 . S
O1028 Sm1001 2.681 . S
O1028 C1018 1.271 . S
O1029 Sm1001 2.464 . S
O1029 C1018 1.251 . S
O1030 Sm1001 2.396 . S
O1030 C1019 1.252 . S
O1031 Sm1000 2.408 . S
O1031 C1019 1.272 . S
H1032 C1004 0.930 . S
H1033 C1005 0.929 . S
H1034 C1007 0.930 . S
H1035 C1008 0.929 . S
H1036 C1013 0.930 . S
H1037 C1014 0.929 . S
H1038 C1016 0.930 . S
H1039 C1017 0.929 . S
Sm1040 C1042 2.846 . S
Sm1040 O1060 2.543 . S
Sm1040 O1061 2.450 . S
Sm1040 O1062 2.681 . S
Sm1040 O1063 2.464 . S
Sm1040 O1064 2.396 . S
Sm1040 O1068 2.386 . S
Sm1040 O1071 2.408 . S
Sm1041 C1051 2.846 . S
Sm1041 O1062 2.386 . S
Sm1041 O1065 2.408 . S
Sm1041 O1066 2.543 . S
Sm1041 O1067 2.450 . S
Sm1041 O1068 2.681 . S
Sm1041 O1069 2.464 . S
Sm1041 O1070 2.396 . S
C1042 Sm1040 2.846 . S
C1042 C1043 1.506 . S
C1042 O1060 1.261 . S
C1042 O1061 1.242 . S
C1043 C1042 1.506 . S
C1043 C1044 1.358 . S
C1043 C1048 1.382 . S
C1044 C1043 1.358 . S
C1044 C1045 1.385 . S
C1044 H1072 0.930 . S
C1045 C1044 1.385 . S
C1045 C1046 1.395 . S
C1045 H1073 0.929 . S
C1046 C1045 1.395 . S
C1046 C1047 1.335 . S
C1047 C1046 1.335 . S
C1047 C1048 1.398 . S
C1047 H1074 0.930 . S
C1048 C1043 1.382 . S
C1048 C1047 1.398 . S
C1048 H1075 0.929 . S
C1049 O1062 1.271 . S
C1049 O1063 1.251 . S
C1050 O1064 1.252 . S
C1050 O1065 1.272 . S
C1051 Sm1041 2.846 . S
C1051 C1052 1.506 . S
C1051 O1066 1.261 . S
C1051 O1067 1.242 . S
C1052 C1051 1.506 . S
C1052 C1053 1.358 . S
C1052 C1057 1.382 . S
C1053 C1052 1.358 . S
C1053 C1054 1.385 . S
C1053 H1076 0.930 . S
C1054 C1053 1.385 . S
C1054 C1055 1.395 . S
C1054 H1077 0.929 . S
C1055 C1054 1.395 . S
C1055 C1056 1.335 . S
C1056 C1055 1.335 . S
C1056 C1057 1.398 . S
C1056 H1078 0.930 . S
C1057 C1052 1.382 . S
C1057 C1056 1.398 . S
C1057 H1079 0.929 . S
C1058 O1068 1.271 . S
C1058 O1069 1.251 . S
C1059 O1070 1.252 . S
C1059 O1071 1.272 . S
O1060 Sm1040 2.543 . S
O1060 C1042 1.261 . S
O1061 Sm1040 2.450 . S
O1061 C1042 1.242 . S
O1062 Sm1040 2.681 . S
O1062 Sm1041 2.386 . S
O1062 C1049 1.271 . S
O1063 Sm1040 2.464 . S
O1063 C1049 1.251 . S
O1064 Sm1040 2.396 . S
O1064 C1050 1.252 . S
O1065 Sm1041 2.408 . S
O1065 C1050 1.272 . S
O1066 Sm1041 2.543 . S
O1066 C1051 1.261 . S
O1067 Sm1041 2.450 . S
O1067 C1051 1.242 . S
O1068 Sm1040 2.386 . S
O1068 Sm1041 2.681 . S
O1068 C1058 1.271 . S
O1069 Sm1041 2.464 . S
O1069 C1058 1.251 . S
O1070 Sm1041 2.396 . S
O1070 C1059 1.252 . S
O1071 Sm1040 2.408 . S
O1071 C1059 1.272 . S
H1072 C1044 0.930 . S
H1073 C1045 0.929 . S
H1074 C1047 0.930 . S
H1075 C1048 0.929 . S
H1076 C1053 0.930 . S
H1077 C1054 0.929 . S
H1078 C1056 0.930 . S
H1079 C1057 0.929 . S
Sm1080 C1082 2.846 . S
Sm1080 O1100 2.543 . S
Sm1080 O1101 2.450 . S
Sm1080 O1102 2.681 . S
Sm1080 O1103 2.464 . S
Sm1080 O1104 2.396 . S
Sm1080 O1108 2.386 . S
Sm1080 O1111 2.408 . S
Sm1081 C1091 2.846 1_455 S
Sm1081 O1102 2.386 . S
Sm1081 O1105 2.408 . S
Sm1081 O1106 2.543 1_455 S
Sm1081 O1107 2.450 1_455 S
Sm1081 O1108 2.681 . S
Sm1081 O1109 2.464 . S
Sm1081 O1110 2.396 . S
C1082 Sm1080 2.846 . S
C1082 C1083 1.506 . S
C1082 O1100 1.261 . S
C1082 O1101 1.242 . S
C1083 C1082 1.506 . S
C1083 C1084 1.358 . S
C1083 C1088 1.382 . S
C1084 C1083 1.358 . S
C1084 C1085 1.385 . S
C1084 H1112 0.930 . S
C1085 C1084 1.385 . S
C1085 C1086 1.395 . S
C1085 H1113 0.929 . S
C1086 C1085 1.395 . S
C1086 C1087 1.335 . S
C1087 C1086 1.335 . S
C1087 C1088 1.398 . S
C1087 H1114 0.930 . S
C1088 C1083 1.382 . S
C1088 C1087 1.398 . S
C1088 H1115 0.929 . S
C1089 O1102 1.271 . S
C1089 O1103 1.251 . S
C1090 O1104 1.252 . S
C1090 O1105 1.272 . S
C1091 Sm1081 2.846 1_655 S
C1091 C1092 1.506 . S
C1091 O1106 1.261 . S
C1091 O1107 1.242 . S
C1092 C1091 1.506 . S
C1092 C1093 1.358 . S
C1092 C1097 1.382 . S
C1093 C1092 1.358 . S
C1093 C1094 1.385 . S
C1093 H1116 0.930 . S
C1094 C1093 1.385 . S
C1094 C1095 1.395 . S
C1094 H1117 0.929 . S
C1095 C1094 1.395 . S
C1095 C1096 1.335 . S
C1096 C1095 1.335 . S
C1096 C1097 1.398 . S
C1096 H1118 0.930 . S
C1097 C1092 1.382 . S
C1097 C1096 1.398 . S
C1097 H1119 0.929 . S
C1098 O1108 1.271 . S
C1098 O1109 1.251 . S
C1099 O1110 1.252 . S
C1099 O1111 1.272 . S
O1100 Sm1080 2.543 . S
O1100 C1082 1.261 . S
O1101 Sm1080 2.450 . S
O1101 C1082 1.242 . S
O1102 Sm1080 2.681 . S
O1102 Sm1081 2.386 . S
O1102 C1089 1.271 . S
O1103 Sm1080 2.464 . S
O1103 C1089 1.251 . S
O1104 Sm1080 2.396 . S
O1104 C1090 1.252 . S
O1105 Sm1081 2.408 . S
O1105 C1090 1.272 . S
O1106 Sm1081 2.543 1_655 S
O1106 C1091 1.261 . S
O1107 Sm1081 2.450 1_655 S
O1107 C1091 1.242 . S
O1108 Sm1080 2.386 . S
O1108 Sm1081 2.681 . S
O1108 C1098 1.271 . S
O1109 Sm1081 2.464 . S
O1109 C1098 1.251 . S
O1110 Sm1081 2.396 . S
O1110 C1099 1.252 . S
O1111 Sm1080 2.408 . S
O1111 C1099 1.272 . S
H1112 C1084 0.930 . S
H1113 C1085 0.929 . S
H1114 C1087 0.930 . S
H1115 C1088 0.929 . S
H1116 C1093 0.930 . S
H1117 C1094 0.929 . S
H1118 C1096 0.930 . S
H1119 C1097 0.929 . S
Sm1120 C1122 2.846 . S
Sm1120 O1140 2.543 . S
Sm1120 O1141 2.450 . S
Sm1120 O1142 2.681 . S
Sm1120 O1143 2.464 . S
Sm1120 O1144 2.396 . S
Sm1120 O1148 2.386 . S
Sm1120 O1151 2.408 . S
Sm1121 C1131 2.846 . S
Sm1121 O1142 2.386 . S
Sm1121 O1145 2.408 . S
Sm1121 O1146 2.543 . S
Sm1121 O1147 2.450 . S
Sm1121 O1148 2.681 . S
Sm1121 O1149 2.464 . S
Sm1121 O1150 2.396 . S
C1122 Sm1120 2.846 . S
C1122 C1123 1.506 . S
C1122 O1140 1.261 . S
C1122 O1141 1.242 . S
C1123 C1122 1.506 . S
C1123 C1124 1.358 . S
C1123 C1128 1.382 . S
C1124 C1123 1.358 . S
C1124 C1125 1.385 . S
C1124 H1152 0.930 . S
C1125 C1124 1.385 . S
C1125 C1126 1.395 . S
C1125 H1153 0.929 . S
C1126 C1125 1.395 . S
C1126 C1127 1.335 . S
C1127 C1126 1.335 . S
C1127 C1128 1.398 . S
C1127 H1154 0.930 . S
C1128 C1123 1.382 . S
C1128 C1127 1.398 . S
C1128 H1155 0.929 . S
C1129 O1142 1.271 . S
C1129 O1143 1.251 . S
C1130 O1144 1.252 . S
C1130 O1145 1.272 . S
C1131 Sm1121 2.846 . S
C1131 C1132 1.506 . S
C1131 O1146 1.261 . S
C1131 O1147 1.242 . S
C1132 C1131 1.506 . S
C1132 C1133 1.358 . S
C1132 C1137 1.382 . S
C1133 C1132 1.358 . S
C1133 C1134 1.385 . S
C1133 H1156 0.930 . S
C1134 C1133 1.385 . S
C1134 C1135 1.395 . S
C1134 H1157 0.929 . S
C1135 C1134 1.395 . S
C1135 C1136 1.335 . S
C1136 C1135 1.335 . S
C1136 C1137 1.398 . S
C1136 H1158 0.930 . S
C1137 C1132 1.382 . S
C1137 C1136 1.398 . S
C1137 H1159 0.929 . S
C1138 O1148 1.271 . S
C1138 O1149 1.251 . S
C1139 O1150 1.252 . S
C1139 O1151 1.272 . S
O1140 Sm1120 2.543 . S
O1140 C1122 1.261 . S
O1141 Sm1120 2.450 . S
O1141 C1122 1.242 . S
O1142 Sm1120 2.681 . S
O1142 Sm1121 2.386 . S
O1142 C1129 1.271 . S
O1143 Sm1120 2.464 . S
O1143 C1129 1.251 . S
O1144 Sm1120 2.396 . S
O1144 C1130 1.252 . S
O1145 Sm1121 2.408 . S
O1145 C1130 1.272 . S
O1146 Sm1121 2.543 . S
O1146 C1131 1.261 . S
O1147 Sm1121 2.450 . S
O1147 C1131 1.242 . S
O1148 Sm1120 2.386 . S
O1148 Sm1121 2.681 . S
O1148 C1138 1.271 . S
O1149 Sm1121 2.464 . S
O1149 C1138 1.251 . S
O1150 Sm1121 2.396 . S
O1150 C1139 1.252 . S
O1151 Sm1120 2.408 . S
O1151 C1139 1.272 . S
H1152 C1124 0.930 . S
H1153 C1125 0.929 . S
H1154 C1127 0.930 . S
H1155 C1128 0.929 . S
H1156 C1133 0.930 . S
H1157 C1134 0.929 . S
H1158 C1136 0.930 . S
H1159 C1137 0.929 . S
Sm1160 C1162 2.846 . S
Sm1160 O1180 2.543 . S
Sm1160 O1181 2.450 . S
Sm1160 O1182 2.681 . S
Sm1160 O1183 2.464 . S
Sm1160 O1184 2.396 . S
Sm1160 O1188 2.386 . S
Sm1160 O1191 2.408 . S
Sm1161 C1171 2.846 1_455 S
Sm1161 O1182 2.386 . S
Sm1161 O1185 2.408 . S
Sm1161 O1186 2.543 1_455 S
Sm1161 O1187 2.450 1_455 S
Sm1161 O1188 2.681 . S
Sm1161 O1189 2.464 . S
Sm1161 O1190 2.396 . S
C1162 Sm1160 2.846 . S
C1162 C1163 1.506 . S
C1162 O1180 1.261 . S
C1162 O1181 1.242 . S
C1163 C1162 1.506 . S
C1163 C1164 1.358 . S
C1163 C1168 1.382 . S
C1164 C1163 1.358 . S
C1164 C1165 1.385 . S
C1164 H1192 0.930 . S
C1165 C1164 1.385 . S
C1165 C1166 1.395 . S
C1165 H1193 0.929 . S
C1166 C1165 1.395 . S
C1166 C1167 1.335 . S
C1167 C1166 1.335 . S
C1167 C1168 1.398 . S
C1167 H1194 0.930 . S
C1168 C1163 1.382 . S
C1168 C1167 1.398 . S
C1168 H1195 0.929 . S
C1169 O1182 1.271 . S
C1169 O1183 1.251 . S
C1170 O1184 1.252 . S
C1170 O1185 1.272 . S
C1171 Sm1161 2.846 1_655 S
C1171 C1172 1.506 . S
C1171 O1186 1.261 . S
C1171 O1187 1.242 . S
C1172 C1171 1.506 . S
C1172 C1173 1.358 . S
C1172 C1177 1.382 . S
C1173 C1172 1.358 . S
C1173 C1174 1.385 . S
C1173 H1196 0.930 . S
C1174 C1173 1.385 . S
C1174 C1175 1.395 . S
C1174 H1197 0.929 . S
C1175 C1174 1.395 . S
C1175 C1176 1.335 . S
C1176 C1175 1.335 . S
C1176 C1177 1.398 . S
C1176 H1198 0.930 . S
C1177 C1172 1.382 . S
C1177 C1176 1.398 . S
C1177 H1199 0.929 . S
C1178 O1188 1.271 . S
C1178 O1189 1.251 . S
C1179 O1190 1.252 . S
C1179 O1191 1.272 . S
O1180 Sm1160 2.543 . S
O1180 C1162 1.261 . S
O1181 Sm1160 2.450 . S
O1181 C1162 1.242 . S
O1182 Sm1160 2.681 . S
O1182 Sm1161 2.386 . S
O1182 C1169 1.271 . S
O1183 Sm1160 2.464 . S
O1183 C1169 1.251 . S
O1184 Sm1160 2.396 . S
O1184 C1170 1.252 . S
O1185 Sm1161 2.408 . S
O1185 C1170 1.272 . S
O1186 Sm1161 2.543 1_655 S
O1186 C1171 1.261 . S
O1187 Sm1161 2.450 1_655 S
O1187 C1171 1.242 . S
O1188 Sm1160 2.386 . S
O1188 Sm1161 2.681 . S
O1188 C1178 1.271 . S
O1189 Sm1161 2.464 . S
O1189 C1178 1.251 . S
O1190 Sm1161 2.396 . S
O1190 C1179 1.252 . S
O1191 Sm1160 2.408 . S
O1191 C1179 1.272 . S
H1192 C1164 0.930 . S
H1193 C1165 0.929 . S
H1194 C1167 0.930 . S
H1195 C1168 0.929 . S
H1196 C1173 0.930 . S
H1197 C1174 0.929 . S
H1198 C1176 0.930 . S
H1199 C1177 0.929 . S
Sm1200 C1202 2.846 . S
Sm1200 O1220 2.543 . S
Sm1200 O1221 2.450 . S
Sm1200 O1222 2.681 . S
Sm1200 O1223 2.464 . S
Sm1200 O1224 2.396 . S
Sm1200 O1228 2.386 . S
Sm1200 O1231 2.408 . S
Sm1201 C1211 2.846 . S
Sm1201 O1222 2.386 . S
Sm1201 O1225 2.408 . S
Sm1201 O1226 2.543 . S
Sm1201 O1227 2.450 . S
Sm1201 O1228 2.681 . S
Sm1201 O1229 2.464 . S
Sm1201 O1230 2.396 . S
C1202 Sm1200 2.846 . S
C1202 C1203 1.506 . S
C1202 O1220 1.261 . S
C1202 O1221 1.242 . S
C1203 C1202 1.506 . S
C1203 C1204 1.358 . S
C1203 C1208 1.382 . S
C1204 C1203 1.358 . S
C1204 C1205 1.385 . S
C1204 H1232 0.930 . S
C1205 C1204 1.385 . S
C1205 C1206 1.395 . S
C1205 H1233 0.929 . S
C1206 C1205 1.395 . S
C1206 C1207 1.335 . S
C1207 C1206 1.335 . S
C1207 C1208 1.398 . S
C1207 H1234 0.930 . S
C1208 C1203 1.382 . S
C1208 C1207 1.398 . S
C1208 H1235 0.929 . S
C1209 O1222 1.271 . S
C1209 O1223 1.251 . S
C1210 O1224 1.252 . S
C1210 O1225 1.272 . S
C1211 Sm1201 2.846 . S
C1211 C1212 1.506 . S
C1211 O1226 1.261 . S
C1211 O1227 1.242 . S
C1212 C1211 1.506 . S
C1212 C1213 1.358 . S
C1212 C1217 1.382 . S
C1213 C1212 1.358 . S
C1213 C1214 1.385 . S
C1213 H1236 0.930 . S
C1214 C1213 1.385 . S
C1214 C1215 1.395 . S
C1214 H1237 0.929 . S
C1215 C1214 1.395 . S
C1215 C1216 1.335 . S
C1216 C1215 1.335 . S
C1216 C1217 1.398 . S
C1216 H1238 0.930 . S
C1217 C1212 1.382 . S
C1217 C1216 1.398 . S
C1217 H1239 0.929 . S
C1218 O1228 1.271 . S
C1218 O1229 1.251 . S
C1219 O1230 1.252 . S
C1219 O1231 1.272 . S
O1220 Sm1200 2.543 . S
O1220 C1202 1.261 . S
O1221 Sm1200 2.450 . S
O1221 C1202 1.242 . S
O1222 Sm1200 2.681 . S
O1222 Sm1201 2.386 . S
O1222 C1209 1.271 . S
O1223 Sm1200 2.464 . S
O1223 C1209 1.251 . S
O1224 Sm1200 2.396 . S
O1224 C1210 1.252 . S
O1225 Sm1201 2.408 . S
O1225 C1210 1.272 . S
O1226 Sm1201 2.543 . S
O1226 C1211 1.261 . S
O1227 Sm1201 2.450 . S
O1227 C1211 1.242 . S
O1228 Sm1200 2.386 . S
O1228 Sm1201 2.681 . S
O1228 C1218 1.271 . S
O1229 Sm1201 2.464 . S
O1229 C1218 1.251 . S
O1230 Sm1201 2.396 . S
O1230 C1219 1.252 . S
O1231 Sm1200 2.408 . S
O1231 C1219 1.272 . S
H1232 C1204 0.930 . S
H1233 C1205 0.929 . S
H1234 C1207 0.930 . S
H1235 C1208 0.929 . S
H1236 C1213 0.930 . S
H1237 C1214 0.929 . S
H1238 C1216 0.930 . S
H1239 C1217 0.929 . S
Sm1240 C1242 2.846 . S
Sm1240 O1260 2.543 . S
Sm1240 O1261 2.450 . S
Sm1240 O1262 2.681 . S
Sm1240 O1263 2.464 . S
Sm1240 O1264 2.396 . S
Sm1240 O1268 2.386 . S
Sm1240 O1271 2.408 . S
Sm1241 C1251 2.846 . S
Sm1241 O1262 2.386 . S
Sm1241 O1265 2.408 . S
Sm1241 O1266 2.543 . S
Sm1241 O1267 2.450 . S
Sm1241 O1268 2.681 . S
Sm1241 O1269 2.464 . S
Sm1241 O1270 2.396 . S
C1242 Sm1240 2.846 . S
C1242 C1243 1.506 . S
C1242 O1260 1.261 . S
C1242 O1261 1.242 . S
C1243 C1242 1.506 . S
C1243 C1244 1.358 . S
C1243 C1248 1.382 . S
C1244 C1243 1.358 . S
C1244 C1245 1.385 . S
C1244 H1272 0.930 . S
C1245 C1244 1.385 . S
C1245 C1246 1.395 . S
C1245 H1273 0.929 . S
C1246 C1245 1.395 . S
C1246 C1247 1.335 . S
C1247 C1246 1.335 . S
C1247 C1248 1.398 . S
C1247 H1274 0.930 . S
C1248 C1243 1.382 . S
C1248 C1247 1.398 . S
C1248 H1275 0.929 . S
C1249 O1262 1.271 . S
C1249 O1263 1.251 . S
C1250 O1264 1.252 . S
C1250 O1265 1.272 . S
C1251 Sm1241 2.846 . S
C1251 C1252 1.506 . S
C1251 O1266 1.261 . S
C1251 O1267 1.242 . S
C1252 C1251 1.506 . S
C1252 C1253 1.358 . S
C1252 C1257 1.382 . S
C1253 C1252 1.358 . S
C1253 C1254 1.385 . S
C1253 H1276 0.930 . S
C1254 C1253 1.385 . S
C1254 C1255 1.395 . S
C1254 H1277 0.929 . S
C1255 C1254 1.395 . S
C1255 C1256 1.335 . S
C1256 C1255 1.335 . S
C1256 C1257 1.398 . S
C1256 H1278 0.930 . S
C1257 C1252 1.382 . S
C1257 C1256 1.398 . S
C1257 H1279 0.929 . S
C1258 O1268 1.271 . S
C1258 O1269 1.251 . S
C1259 O1270 1.252 . S
C1259 O1271 1.272 . S
O1260 Sm1240 2.543 . S
O1260 C1242 1.261 . S
O1261 Sm1240 2.450 . S
O1261 C1242 1.242 . S
O1262 Sm1240 2.681 . S
O1262 Sm1241 2.386 . S
O1262 C1249 1.271 . S
O1263 Sm1240 2.464 . S
O1263 C1249 1.251 . S
O1264 Sm1240 2.396 . S
O1264 C1250 1.252 . S
O1265 Sm1241 2.408 . S
O1265 C1250 1.272 . S
O1266 Sm1241 2.543 . S
O1266 C1251 1.261 . S
O1267 Sm1241 2.450 . S
O1267 C1251 1.242 . S
O1268 Sm1240 2.386 . S
O1268 Sm1241 2.681 . S
O1268 C1258 1.271 . S
O1269 Sm1241 2.464 . S
O1269 C1258 1.251 . S
O1270 Sm1241 2.396 . S
O1270 C1259 1.252 . S
O1271 Sm1240 2.408 . S
O1271 C1259 1.272 . S
H1272 C1244 0.930 . S
H1273 C1245 0.929 . S
H1274 C1247 0.930 . S
H1275 C1248 0.929 . S
H1276 C1253 0.930 . S
H1277 C1254 0.929 . S
H1278 C1256 0.930 . S
H1279 C1257 0.929 . S
H1280 C1288 0.929 . S
H1281 C1290 0.930 . S
H1282 C1292 0.930 . S
H1283 C1295 0.929 . S
H1284 C1298 0.930 . S
H1285 C1300 0.960 . S
H1286 C1300 0.960 . S
H1287 C1300 0.960 . S
C1288 H1280 0.929 . S
C1288 C1289 1.377 . S
C1288 C1290 1.384 . S
C1289 C1288 1.377 . S
C1289 C1295 1.390 . S
C1290 H1281 0.930 . S
C1290 C1288 1.384 . S
C1290 C1291 1.372 . S
C1291 C1290 1.372 . S
C1291 C1292 1.400 . S
C1291 C1296 1.490 . S
C1292 H1282 0.930 . S
C1292 C1291 1.400 . S
C1292 C1295 1.386 . S
H1293 C1309 0.930 . S
H1294 C1310 0.931 . S
C1295 H1283 0.929 . S
C1295 C1289 1.390 . S
C1295 C1292 1.386 . S
C1296 C1291 1.490 . S
C1296 C1298 1.395 . S
C1296 C1299 1.403 . S
H1297 C1303 0.930 . S
C1298 H1284 0.930 . S
C1298 C1296 1.395 . S
C1298 C1301 1.403 . S
C1299 C1296 1.403 . S
C1299 C1300 1.524 . S
C1299 C1303 1.400 . S
C1300 H1285 0.960 . S
C1300 H1286 0.960 . S
C1300 H1287 0.960 . S
C1300 C1299 1.524 . S
C1301 C1298 1.403 . S
C1301 C1302 1.392 . S
C1301 C1305 1.495 . S
C1302 C1301 1.392 . S
C1302 C1303 1.385 . S
C1302 C1304 1.478 . S
C1303 H1297 0.930 . S
C1303 C1299 1.400 . S
C1303 C1302 1.385 . S
C1304 C1302 1.478 . S
C1304 C1306 1.381 . S
C1304 C1310 1.383 . S
C1305 C1301 1.495 . S
C1305 H1311 0.959 . S
C1305 H1312 0.961 . S
C1305 H1313 0.960 . S
C1306 C1304 1.381 . S
C1306 C1307 1.394 . S
C1306 H1314 0.930 . S
C1307 C1306 1.394 . S
C1307 C1308 1.383 . S
C1307 H1315 0.929 . S
C1308 C1307 1.383 . S
C1308 C1309 1.377 . S
C1309 H1293 0.930 . S
C1309 C1308 1.377 . S
C1309 C1310 1.379 . S
C1310 H1294 0.931 . S
C1310 C1304 1.383 . S
C1310 C1309 1.379 . S
H1311 C1305 0.959 . S
H1312 C1305 0.961 . S
H1313 C1305 0.960 . S
H1314 C1306 0.930 . S
H1315 C1307 0.929 . S
H1316 C1324 0.929 . S
H1317 C1326 0.930 . S
H1318 C1328 0.930 . S
H1319 C1331 0.929 . S
H1320 C1334 0.930 . S
H1321 C1336 0.960 . S
H1322 C1336 0.960 . S
H1323 C1336 0.960 . S
C1324 H1316 0.929 . S
C1324 C1325 1.377 . S
C1324 C1326 1.384 . S
C1325 C1324 1.377 . S
C1325 C1331 1.390 . S
C1326 H1317 0.930 . S
C1326 C1324 1.384 . S
C1326 C1327 1.372 . S
C1327 C1326 1.372 . S
C1327 C1328 1.400 . S
C1327 C1332 1.490 . S
C1328 H1318 0.930 . S
C1328 C1327 1.400 . S
C1328 C1331 1.386 . S
H1329 C1345 0.930 . S
H1330 C1346 0.931 . S
C1331 H1319 0.929 . S
C1331 C1325 1.390 . S
C1331 C1328 1.386 . S
C1332 C1327 1.490 . S
C1332 C1334 1.395 . S
C1332 C1335 1.403 . S
H1333 C1339 0.930 . S
C1334 H1320 0.930 . S
C1334 C1332 1.395 . S
C1334 C1337 1.403 . S
C1335 C1332 1.403 . S
C1335 C1336 1.524 . S
C1335 C1339 1.400 . S
C1336 H1321 0.960 . S
C1336 H1322 0.960 . S
C1336 H1323 0.960 . S
C1336 C1335 1.524 . S
C1337 C1334 1.403 . S
C1337 C1338 1.392 . S
C1337 C1341 1.495 . S
C1338 C1337 1.392 . S
C1338 C1339 1.385 . S
C1338 C1340 1.478 . S
C1339 H1333 0.930 . S
C1339 C1335 1.400 . S
C1339 C1338 1.385 . S
C1340 C1338 1.478 . S
C1340 C1342 1.381 . S
C1340 C1346 1.383 . S
C1341 C1337 1.495 . S
C1341 H1347 0.959 . S
C1341 H1348 0.961 . S
C1341 H1349 0.960 . S
C1342 C1340 1.381 . S
C1342 C1343 1.394 . S
C1342 H1350 0.930 . S
C1343 C1342 1.394 . S
C1343 C1344 1.383 . S
C1343 H1351 0.929 . S
C1344 C1343 1.383 . S
C1344 C1345 1.377 . S
C1345 H1329 0.930 . S
C1345 C1344 1.377 . S
C1345 C1346 1.379 . S
C1346 H1330 0.931 . S
C1346 C1340 1.383 . S
C1346 C1345 1.379 . S
H1347 C1341 0.959 . S
H1348 C1341 0.961 . S
H1349 C1341 0.960 . S
H1350 C1342 0.930 . S
H1351 C1343 0.929 . S
H1352 C1360 0.929 . S
H1353 C1362 0.930 . S
H1354 C1364 0.930 . S
H1355 C1367 0.929 . S
H1356 C1370 0.930 . S
H1357 C1372 0.960 . S
H1358 C1372 0.960 . S
H1359 C1372 0.960 . S
C1360 H1352 0.929 . S
C1360 C1361 1.377 . S
C1360 C1362 1.384 . S
C1361 C1360 1.377 . S
C1361 C1367 1.390 . S
C1362 H1353 0.930 . S
C1362 C1360 1.384 . S
C1362 C1363 1.372 . S
C1363 C1362 1.372 . S
C1363 C1364 1.400 . S
C1363 C1368 1.490 . S
C1364 H1354 0.930 . S
C1364 C1363 1.400 . S
C1364 C1367 1.386 . S
H1365 C1381 0.930 . S
H1366 C1382 0.931 . S
C1367 H1355 0.929 . S
C1367 C1361 1.390 . S
C1367 C1364 1.386 . S
C1368 C1363 1.490 . S
C1368 C1370 1.395 . S
C1368 C1371 1.403 . S
H1369 C1375 0.930 . S
C1370 H1356 0.930 . S
C1370 C1368 1.395 . S
C1370 C1373 1.403 . S
C1371 C1368 1.403 . S
C1371 C1372 1.524 . S
C1371 C1375 1.400 . S
C1372 H1357 0.960 . S
C1372 H1358 0.960 . S
C1372 H1359 0.960 . S
C1372 C1371 1.524 . S
C1373 C1370 1.403 . S
C1373 C1374 1.392 . S
C1373 C1377 1.495 . S
C1374 C1373 1.392 . S
C1374 C1375 1.385 . S
C1374 C1376 1.478 . S
C1375 H1369 0.930 . S
C1375 C1371 1.400 . S
C1375 C1374 1.385 . S
C1376 C1374 1.478 . S
C1376 C1378 1.381 . S
C1376 C1382 1.383 . S
C1377 C1373 1.495 . S
C1377 H1383 0.959 . S
C1377 H1384 0.961 . S
C1377 H1385 0.960 . S
C1378 C1376 1.381 . S
C1378 C1379 1.394 . S
C1378 H1386 0.930 . S
C1379 C1378 1.394 . S
C1379 C1380 1.383 . S
C1379 H1387 0.929 . S
C1380 C1379 1.383 . S
C1380 C1381 1.377 . S
C1381 H1365 0.930 . S
C1381 C1380 1.377 . S
C1381 C1382 1.379 . S
C1382 H1366 0.931 . S
C1382 C1376 1.383 . S
C1382 C1381 1.379 . S
H1383 C1377 0.959 . S
H1384 C1377 0.961 . S
H1385 C1377 0.960 . S
H1386 C1378 0.930 . S
H1387 C1379 0.929 . S
H1388 C1396 0.929 . S
H1389 C1398 0.930 . S
H1390 C1400 0.930 . S
H1391 C1403 0.929 . S
H1392 C1406 0.930 . S
H1393 C1408 0.960 . S
H1394 C1408 0.960 . S
H1395 C1408 0.960 . S
C1396 H1388 0.929 . S
C1396 C1397 1.377 . S
C1396 C1398 1.384 . S
C1397 C1396 1.377 . S
C1397 C1403 1.390 . S
C1398 H1389 0.930 . S
C1398 C1396 1.384 . S
C1398 C1399 1.372 . S
C1399 C1398 1.372 . S
C1399 C1400 1.400 . S
C1399 C1404 1.490 . S
C1400 H1390 0.930 . S
C1400 C1399 1.400 . S
C1400 C1403 1.386 . S
H1401 C1417 0.930 . S
H1402 C1418 0.931 . S
C1403 H1391 0.929 . S
C1403 C1397 1.390 . S
C1403 C1400 1.386 . S
C1404 C1399 1.490 . S
C1404 C1406 1.395 . S
C1404 C1407 1.403 . S
H1405 C1411 0.930 . S
C1406 H1392 0.930 . S
C1406 C1404 1.395 . S
C1406 C1409 1.403 . S
C1407 C1404 1.403 . S
C1407 C1408 1.524 . S
C1407 C1411 1.400 . S
C1408 H1393 0.960 . S
C1408 H1394 0.960 . S
C1408 H1395 0.960 . S
C1408 C1407 1.524 . S
C1409 C1406 1.403 . S
C1409 C1410 1.392 . S
C1409 C1413 1.495 . S
C1410 C1409 1.392 . S
C1410 C1411 1.385 . S
C1410 C1412 1.478 . S
C1411 H1405 0.930 . S
C1411 C1407 1.400 . S
C1411 C1410 1.385 . S
C1412 C1410 1.478 . S
C1412 C1414 1.381 . S
C1412 C1418 1.383 . S
C1413 C1409 1.495 . S
C1413 H1419 0.959 . S
C1413 H1420 0.961 . S
C1413 H1421 0.960 . S
C1414 C1412 1.381 . S
C1414 C1415 1.394 . S
C1414 H1422 0.930 . S
C1415 C1414 1.394 . S
C1415 C1416 1.383 . S
C1415 H1423 0.929 . S
C1416 C1415 1.383 . S
C1416 C1417 1.377 . S
C1417 H1401 0.930 . S
C1417 C1416 1.377 . S
C1417 C1418 1.379 . S
C1418 H1402 0.931 . S
C1418 C1412 1.383 . S
C1418 C1417 1.379 . S
H1419 C1413 0.959 . S
H1420 C1413 0.961 . S
H1421 C1413 0.960 . S
H1422 C1414 0.930 . S
H1423 C1415 0.929 . S
H1424 C1432 0.929 . S
H1425 C1434 0.930 . S
H1426 C1436 0.930 . S
H1427 C1439 0.929 . S
H1428 C1442 0.930 . S
H1429 C1444 0.960 . S
H1430 C1444 0.960 . S
H1431 C1444 0.960 . S
C1432 H1424 0.929 . S
C1432 C1433 1.377 . S
C1432 C1434 1.384 . S
C1433 C1432 1.377 . S
C1433 C1439 1.390 . S
C1434 H1425 0.930 . S
C1434 C1432 1.384 . S
C1434 C1435 1.372 . S
C1435 C1434 1.372 . S
C1435 C1436 1.400 . S
C1435 C1440 1.490 . S
C1436 H1426 0.930 . S
C1436 C1435 1.400 . S
C1436 C1439 1.386 . S
H1437 C1453 0.930 . S
H1438 C1454 0.931 . S
C1439 H1427 0.929 . S
C1439 C1433 1.390 . S
C1439 C1436 1.386 . S
C1440 C1435 1.490 . S
C1440 C1442 1.395 . S
C1440 C1443 1.403 . S
H1441 C1447 0.930 . S
C1442 H1428 0.930 . S
C1442 C1440 1.395 . S
C1442 C1445 1.403 . S
C1443 C1440 1.403 . S
C1443 C1444 1.524 . S
C1443 C1447 1.400 . S
C1444 H1429 0.960 . S
C1444 H1430 0.960 . S
C1444 H1431 0.960 . S
C1444 C1443 1.524 . S
C1445 C1442 1.403 . S
C1445 C1446 1.392 . S
C1445 C1449 1.495 . S
C1446 C1445 1.392 . S
C1446 C1447 1.385 . S
C1446 C1448 1.478 . S
C1447 H1441 0.930 . S
C1447 C1443 1.400 . S
C1447 C1446 1.385 . S
C1448 C1446 1.478 . S
C1448 C1450 1.381 . S
C1448 C1454 1.383 . S
C1449 C1445 1.495 . S
C1449 H1455 0.959 . S
C1449 H1456 0.961 . S
C1449 H1457 0.960 . S
C1450 C1448 1.381 . S
C1450 C1451 1.394 . S
C1450 H1458 0.930 . S
C1451 C1450 1.394 . S
C1451 C1452 1.383 . S
C1451 H1459 0.929 . S
C1452 C1451 1.383 . S
C1452 C1453 1.377 . S
C1453 H1437 0.930 . S
C1453 C1452 1.377 . S
C1453 C1454 1.379 . S
C1454 H1438 0.931 . S
C1454 C1448 1.383 . S
C1454 C1453 1.379 . S
H1455 C1449 0.959 . S
H1456 C1449 0.961 . S
H1457 C1449 0.960 . S
H1458 C1450 0.930 . S
H1459 C1451 0.929 . S
H1460 C1468 0.929 . S
H1461 C1470 0.930 . S
H1462 C1472 0.930 . S
H1463 C1475 0.929 . S
H1464 C1478 0.930 . S
H1465 C1480 0.960 . S
H1466 C1480 0.960 . S
H1467 C1480 0.960 . S
C1468 H1460 0.929 . S
C1468 C1469 1.377 . S
C1468 C1470 1.384 . S
C1469 C1468 1.377 . S
C1469 C1475 1.390 . S
C1470 H1461 0.930 . S
C1470 C1468 1.384 . S
C1470 C1471 1.372 . S
C1471 C1470 1.372 . S
C1471 C1472 1.400 . S
C1471 C1476 1.490 . S
C1472 H1462 0.930 . S
C1472 C1471 1.400 . S
C1472 C1475 1.386 . S
H1473 C1489 0.930 . S
H1474 C1490 0.931 . S
C1475 H1463 0.929 . S
C1475 C1469 1.390 . S
C1475 C1472 1.386 . S
C1476 C1471 1.490 . S
C1476 C1478 1.395 . S
C1476 C1479 1.403 . S
H1477 C1483 0.930 . S
C1478 H1464 0.930 . S
C1478 C1476 1.395 . S
C1478 C1481 1.403 . S
C1479 C1476 1.403 . S
C1479 C1480 1.524 . S
C1479 C1483 1.400 . S
C1480 H1465 0.960 . S
C1480 H1466 0.960 . S
C1480 H1467 0.960 . S
C1480 C1479 1.524 . S
C1481 C1478 1.403 . S
C1481 C1482 1.392 . S
C1481 C1485 1.495 . S
C1482 C1481 1.392 . S
C1482 C1483 1.385 . S
C1482 C1484 1.478 . S
C1483 H1477 0.930 . S
C1483 C1479 1.400 . S
C1483 C1482 1.385 . S
C1484 C1482 1.478 . S
C1484 C1486 1.381 . S
C1484 C1490 1.383 . S
C1485 C1481 1.495 . S
C1485 H1491 0.959 . S
C1485 H1492 0.961 . S
C1485 H1493 0.960 . S
C1486 C1484 1.381 . S
C1486 C1487 1.394 . S
C1486 H1494 0.930 . S
C1487 C1486 1.394 . S
C1487 C1488 1.383 . S
C1487 H1495 0.929 . S
C1488 C1487 1.383 . S
C1488 C1489 1.377 . S
C1489 H1473 0.930 . S
C1489 C1488 1.377 . S
C1489 C1490 1.379 . S
C1490 H1474 0.931 . S
C1490 C1484 1.383 . S
C1490 C1489 1.379 . S
H1491 C1485 0.959 . S
H1492 C1485 0.961 . S
H1493 C1485 0.960 . S
H1494 C1486 0.930 . S
H1495 C1487 0.929 . S
H1496 C1504 0.929 . S
H1497 C1506 0.930 . S
H1498 C1508 0.930 . S
H1499 C1511 0.929 . S
H1500 C1514 0.930 . S
H1501 C1516 0.960 . S
H1502 C1516 0.960 . S
H1503 C1516 0.960 . S
C1504 H1496 0.929 . S
C1504 C1505 1.377 . S
C1504 C1506 1.384 . S
C1505 C1504 1.377 . S
C1505 C1511 1.390 . S
C1506 H1497 0.930 . S
C1506 C1504 1.384 . S
C1506 C1507 1.372 . S
C1507 C1506 1.372 . S
C1507 C1508 1.400 . S
C1507 C1512 1.490 . S
C1508 H1498 0.930 . S
C1508 C1507 1.400 . S
C1508 C1511 1.386 . S
H1509 C1525 0.930 . S
H1510 C1526 0.931 . S
C1511 H1499 0.929 . S
C1511 C1505 1.390 . S
C1511 C1508 1.386 . S
C1512 C1507 1.490 . S
C1512 C1514 1.395 . S
C1512 C1515 1.403 . S
H1513 C1519 0.930 . S
C1514 H1500 0.930 . S
C1514 C1512 1.395 . S
C1514 C1517 1.403 . S
C1515 C1512 1.403 . S
C1515 C1516 1.524 . S
C1515 C1519 1.400 . S
C1516 H1501 0.960 . S
C1516 H1502 0.960 . S
C1516 H1503 0.960 . S
C1516 C1515 1.524 . S
C1517 C1514 1.403 . S
C1517 C1518 1.392 . S
C1517 C1521 1.495 . S
C1518 C1517 1.392 . S
C1518 C1519 1.385 . S
C1518 C1520 1.478 . S
C1519 H1513 0.930 . S
C1519 C1515 1.400 . S
C1519 C1518 1.385 . S
C1520 C1518 1.478 . S
C1520 C1522 1.381 . S
C1520 C1526 1.383 . S
C1521 C1517 1.495 . S
C1521 H1527 0.959 . S
C1521 H1528 0.961 . S
C1521 H1529 0.960 . S
C1522 C1520 1.381 . S
C1522 C1523 1.394 . S
C1522 H1530 0.930 . S
C1523 C1522 1.394 . S
C1523 C1524 1.383 . S
C1523 H1531 0.929 . S
C1524 C1523 1.383 . S
C1524 C1525 1.377 . S
C1525 H1509 0.930 . S
C1525 C1524 1.377 . S
C1525 C1526 1.379 . S
C1526 H1510 0.931 . S
C1526 C1520 1.383 . S
C1526 C1525 1.379 . S
H1527 C1521 0.959 . S
H1528 C1521 0.961 . S
H1529 C1521 0.960 . S
H1530 C1522 0.930 . S
H1531 C1523 0.929 . S
H1532 C1540 0.929 . S
H1533 C1542 0.930 . S
H1534 C1544 0.930 . S
H1535 C1547 0.929 . S
H1536 C1550 0.930 . S
H1537 C1552 0.960 . S
H1538 C1552 0.960 . S
H1539 C1552 0.960 . S
C1540 H1532 0.929 . S
C1540 C1541 1.377 . S
C1540 C1542 1.384 . S
C1541 C1540 1.377 . S
C1541 C1547 1.390 . S
C1542 H1533 0.930 . S
C1542 C1540 1.384 . S
C1542 C1543 1.372 . S
C1543 C1542 1.372 . S
C1543 C1544 1.400 . S
C1543 C1548 1.490 . S
C1544 H1534 0.930 . S
C1544 C1543 1.400 . S
C1544 C1547 1.386 . S
H1545 C1561 0.930 . S
H1546 C1562 0.931 . S
C1547 H1535 0.929 . S
C1547 C1541 1.390 . S
C1547 C1544 1.386 . S
C1548 C1543 1.490 . S
C1548 C1550 1.395 . S
C1548 C1551 1.403 . S
H1549 C1555 0.930 . S
C1550 H1536 0.930 . S
C1550 C1548 1.395 . S
C1550 C1553 1.403 . S
C1551 C1548 1.403 . S
C1551 C1552 1.524 . S
C1551 C1555 1.400 . S
C1552 H1537 0.960 . S
C1552 H1538 0.960 . S
C1552 H1539 0.960 . S
C1552 C1551 1.524 . S
C1553 C1550 1.403 . S
C1553 C1554 1.392 . S
C1553 C1557 1.495 . S
C1554 C1553 1.392 . S
C1554 C1555 1.385 . S
C1554 C1556 1.478 . S
C1555 H1549 0.930 . S
C1555 C1551 1.400 . S
C1555 C1554 1.385 . S
C1556 C1554 1.478 . S
C1556 C1558 1.381 . S
C1556 C1562 1.383 . S
C1557 C1553 1.495 . S
C1557 H1563 0.959 . S
C1557 H1564 0.961 . S
C1557 H1565 0.960 . S
C1558 C1556 1.381 . S
C1558 C1559 1.394 . S
C1558 H1566 0.930 . S
C1559 C1558 1.394 . S
C1559 C1560 1.383 . S
C1559 H1567 0.929 . S
C1560 C1559 1.383 . S
C1560 C1561 1.377 . S
C1561 H1545 0.930 . S
C1561 C1560 1.377 . S
C1561 C1562 1.379 . S
C1562 H1546 0.931 . S
C1562 C1556 1.383 . S
C1562 C1561 1.379 . S
H1563 C1557 0.959 . S
H1564 C1557 0.961 . S
H1565 C1557 0.960 . S
H1566 C1558 0.930 . S
H1567 C1559 0.929 . S
H1568 C1576 0.929 . S
H1569 C1578 0.930 . S
H1570 C1580 0.930 . S
H1571 C1583 0.929 . S
H1572 C1586 0.930 . S
H1573 C1588 0.960 . S
H1574 C1588 0.960 . S
H1575 C1588 0.960 . S
C1576 H1568 0.929 . S
C1576 C1577 1.377 . S
C1576 C1578 1.384 . S
C1577 C1576 1.377 . S
C1577 C1583 1.390 . S
C1578 H1569 0.930 . S
C1578 C1576 1.384 . S
C1578 C1579 1.372 . S
C1579 C1578 1.372 . S
C1579 C1580 1.400 . S
C1579 C1584 1.490 . S
C1580 H1570 0.930 . S
C1580 C1579 1.400 . S
C1580 C1583 1.386 . S
H1581 C1597 0.930 . S
H1582 C1598 0.931 . S
C1583 H1571 0.929 . S
C1583 C1577 1.390 . S
C1583 C1580 1.386 . S
C1584 C1579 1.490 . S
C1584 C1586 1.395 . S
C1584 C1587 1.403 . S
H1585 C1591 0.930 . S
C1586 H1572 0.930 . S
C1586 C1584 1.395 . S
C1586 C1589 1.403 . S
C1587 C1584 1.403 . S
C1587 C1588 1.524 . S
C1587 C1591 1.400 . S
C1588 H1573 0.960 . S
C1588 H1574 0.960 . S
C1588 H1575 0.960 . S
C1588 C1587 1.524 . S
C1589 C1586 1.403 . S
C1589 C1590 1.392 . S
C1589 C1593 1.495 . S
C1590 C1589 1.392 . S
C1590 C1591 1.385 . S
C1590 C1592 1.478 . S
C1591 H1585 0.930 . S
C1591 C1587 1.400 . S
C1591 C1590 1.385 . S
C1592 C1590 1.478 . S
C1592 C1594 1.381 . S
C1592 C1598 1.383 . S
C1593 C1589 1.495 . S
C1593 H1599 0.959 . S
C1593 H1600 0.961 . S
C1593 H1601 0.960 . S
C1594 C1592 1.381 . S
C1594 C1595 1.394 . S
C1594 H1602 0.930 . S
C1595 C1594 1.394 . S
C1595 C1596 1.383 . S
C1595 H1603 0.929 . S
C1596 C1595 1.383 . S
C1596 C1597 1.377 . S
C1597 H1581 0.930 . S
C1597 C1596 1.377 . S
C1597 C1598 1.379 . S
C1598 H1582 0.931 . S
C1598 C1592 1.383 . S
C1598 C1597 1.379 . S
H1599 C1593 0.959 . S
H1600 C1593 0.961 . S
H1601 C1593 0.960 . S
H1602 C1594 0.930 . S
H1603 C1595 0.929 . S
H1604 C1612 0.929 . S
H1605 C1614 0.930 . S
H1606 C1616 0.930 . S
H1607 C1619 0.929 . S
H1608 C1622 0.930 . S
H1609 C1624 0.960 . S
H1610 C1624 0.960 . S
H1611 C1624 0.960 . S
C1612 H1604 0.929 . S
C1612 C1613 1.377 . S
C1612 C1614 1.384 . S
C1613 C1612 1.377 . S
C1613 C1619 1.390 . S
C1614 H1605 0.930 . S
C1614 C1612 1.384 . S
C1614 C1615 1.372 . S
C1615 C1614 1.372 . S
C1615 C1616 1.400 . S
C1615 C1620 1.490 . S
C1616 H1606 0.930 . S
C1616 C1615 1.400 . S
C1616 C1619 1.386 . S
H1617 C1633 0.930 . S
H1618 C1634 0.931 . S
C1619 H1607 0.929 . S
C1619 C1613 1.390 . S
C1619 C1616 1.386 . S
C1620 C1615 1.490 . S
C1620 C1622 1.395 . S
C1620 C1623 1.403 . S
H1621 C1627 0.930 . S
C1622 H1608 0.930 . S
C1622 C1620 1.395 . S
C1622 C1625 1.403 . S
C1623 C1620 1.403 . S
C1623 C1624 1.524 . S
C1623 C1627 1.400 . S
C1624 H1609 0.960 . S
C1624 H1610 0.960 . S
C1624 H1611 0.960 . S
C1624 C1623 1.524 . S
C1625 C1622 1.403 . S
C1625 C1626 1.392 . S
C1625 C1629 1.495 . S
C1626 C1625 1.392 . S
C1626 C1627 1.385 . S
C1626 C1628 1.478 . S
C1627 H1621 0.930 . S
C1627 C1623 1.400 . S
C1627 C1626 1.385 . S
C1628 C1626 1.478 . S
C1628 C1630 1.381 . S
C1628 C1634 1.383 . S
C1629 C1625 1.495 . S
C1629 H1635 0.959 . S
C1629 H1636 0.961 . S
C1629 H1637 0.960 . S
C1630 C1628 1.381 . S
C1630 C1631 1.394 . S
C1630 H1638 0.930 . S
C1631 C1630 1.394 . S
C1631 C1632 1.383 . S
C1631 H1639 0.929 . S
C1632 C1631 1.383 . S
C1632 C1633 1.377 . S
C1633 H1617 0.930 . S
C1633 C1632 1.377 . S
C1633 C1634 1.379 . S
C1634 H1618 0.931 . S
C1634 C1628 1.383 . S
C1634 C1633 1.379 . S
H1635 C1629 0.959 . S
H1636 C1629 0.961 . S
H1637 C1629 0.960 . S
H1638 C1630 0.930 . S
H1639 C1631 0.929 . S
H1640 C1648 0.929 . S
H1641 C1650 0.930 . S
H1642 C1652 0.930 . S
H1643 C1655 0.929 . S
H1644 C1658 0.930 . S
H1645 C1660 0.960 . S
H1646 C1660 0.960 . S
H1647 C1660 0.960 . S
C1648 H1640 0.929 . S
C1648 C1649 1.377 . S
C1648 C1650 1.384 . S
C1649 C1648 1.377 . S
C1649 C1655 1.390 . S
C1650 H1641 0.930 . S
C1650 C1648 1.384 . S
C1650 C1651 1.372 . S
C1651 C1650 1.372 . S
C1651 C1652 1.400 . S
C1651 C1656 1.490 . S
C1652 H1642 0.930 . S
C1652 C1651 1.400 . S
C1652 C1655 1.386 . S
H1653 C1669 0.930 . S
H1654 C1670 0.931 . S
C1655 H1643 0.929 . S
C1655 C1649 1.390 . S
C1655 C1652 1.386 . S
C1656 C1651 1.490 . S
C1656 C1658 1.395 . S
C1656 C1659 1.403 . S
H1657 C1663 0.930 . S
C1658 H1644 0.930 . S
C1658 C1656 1.395 . S
C1658 C1661 1.403 . S
C1659 C1656 1.403 . S
C1659 C1660 1.524 . S
C1659 C1663 1.400 . S
C1660 H1645 0.960 . S
C1660 H1646 0.960 . S
C1660 H1647 0.960 . S
C1660 C1659 1.524 . S
C1661 C1658 1.403 . S
C1661 C1662 1.392 . S
C1661 C1665 1.495 . S
C1662 C1661 1.392 . S
C1662 C1663 1.385 . S
C1662 C1664 1.478 . S
C1663 H1657 0.930 . S
C1663 C1659 1.400 . S
C1663 C1662 1.385 . S
C1664 C1662 1.478 . S
C1664 C1666 1.381 . S
C1664 C1670 1.383 . S
C1665 C1661 1.495 . S
C1665 H1671 0.959 . S
C1665 H1672 0.961 . S
C1665 H1673 0.960 . S
C1666 C1664 1.381 . S
C1666 C1667 1.394 . S
C1666 H1674 0.930 . S
C1667 C1666 1.394 . S
C1667 C1668 1.383 . S
C1667 H1675 0.929 . S
C1668 C1667 1.383 . S
C1668 C1669 1.377 . S
C1669 H1653 0.930 . S
C1669 C1668 1.377 . S
C1669 C1670 1.379 . S
C1670 H1654 0.931 . S
C1670 C1664 1.383 . S
C1670 C1669 1.379 . S
H1671 C1665 0.959 . S
H1672 C1665 0.961 . S
H1673 C1665 0.960 . S
H1674 C1666 0.930 . S
H1675 C1667 0.929 . S
H1676 C1684 0.929 . S
H1677 C1686 0.930 . S
H1678 C1688 0.930 . S
H1679 C1691 0.929 . S
H1680 C1694 0.930 . S
H1681 C1696 0.960 . S
H1682 C1696 0.960 . S
H1683 C1696 0.960 . S
C1684 H1676 0.929 . S
C1684 C1685 1.377 . S
C1684 C1686 1.384 . S
C1685 C1684 1.377 . S
C1685 C1691 1.390 . S
C1686 H1677 0.930 . S
C1686 C1684 1.384 . S
C1686 C1687 1.372 . S
C1687 C1686 1.372 . S
C1687 C1688 1.400 . S
C1687 C1692 1.490 . S
C1688 H1678 0.930 . S
C1688 C1687 1.400 . S
C1688 C1691 1.386 . S
H1689 C1705 0.930 . S
H1690 C1706 0.931 . S
C1691 H1679 0.929 . S
C1691 C1685 1.390 . S
C1691 C1688 1.386 . S
C1692 C1687 1.490 . S
C1692 C1694 1.395 . S
C1692 C1695 1.403 . S
H1693 C1699 0.930 . S
C1694 H1680 0.930 . S
C1694 C1692 1.395 . S
C1694 C1697 1.403 . S
C1695 C1692 1.403 . S
C1695 C1696 1.524 . S
C1695 C1699 1.400 . S
C1696 H1681 0.960 . S
C1696 H1682 0.960 . S
C1696 H1683 0.960 . S
C1696 C1695 1.524 . S
C1697 C1694 1.403 . S
C1697 C1698 1.392 . S
C1697 C1701 1.495 . S
C1698 C1697 1.392 . S
C1698 C1699 1.385 . S
C1698 C1700 1.478 . S
C1699 H1693 0.930 . S
C1699 C1695 1.400 . S
C1699 C1698 1.385 . S
C1700 C1698 1.478 . S
C1700 C1702 1.381 . S
C1700 C1706 1.383 . S
C1701 C1697 1.495 . S
C1701 H1707 0.959 . S
C1701 H1708 0.961 . S
C1701 H1709 0.960 . S
C1702 C1700 1.381 . S
C1702 C1703 1.394 . S
C1702 H1710 0.930 . S
C1703 C1702 1.394 . S
C1703 C1704 1.383 . S
C1703 H1711 0.929 . S
C1704 C1703 1.383 . S
C1704 C1705 1.377 . S
C1705 H1689 0.930 . S
C1705 C1704 1.377 . S
C1705 C1706 1.379 . S
C1706 H1690 0.931 . S
C1706 C1700 1.383 . S
C1706 C1705 1.379 . S
H1707 C1701 0.959 . S
H1708 C1701 0.961 . S
H1709 C1701 0.960 . S
H1710 C1702 0.930 . S
H1711 C1703 0.929 . S
H1712 C1720 0.929 . S
H1713 C1722 0.930 . S
H1714 C1724 0.930 . S
H1715 C1727 0.929 . S
H1716 C1730 0.930 . S
H1717 C1732 0.960 . S
H1718 C1732 0.960 . S
H1719 C1732 0.960 . S
C1720 H1712 0.929 . S
C1720 C1721 1.377 . S
C1720 C1722 1.384 . S
C1721 C1720 1.377 . S
C1721 C1727 1.390 . S
C1722 H1713 0.930 . S
C1722 C1720 1.384 . S
C1722 C1723 1.372 . S
C1723 C1722 1.372 . S
C1723 C1724 1.400 . S
C1723 C1728 1.490 . S
C1724 H1714 0.930 . S
C1724 C1723 1.400 . S
C1724 C1727 1.386 . S
H1725 C1741 0.930 . S
H1726 C1742 0.931 . S
C1727 H1715 0.929 . S
C1727 C1721 1.390 . S
C1727 C1724 1.386 . S
C1728 C1723 1.490 . S
C1728 C1730 1.395 . S
C1728 C1731 1.403 . S
H1729 C1735 0.930 . S
C1730 H1716 0.930 . S
C1730 C1728 1.395 . S
C1730 C1733 1.403 . S
C1731 C1728 1.403 . S
C1731 C1732 1.524 . S
C1731 C1735 1.400 . S
C1732 H1717 0.960 . S
C1732 H1718 0.960 . S
C1732 H1719 0.960 . S
C1732 C1731 1.524 . S
C1733 C1730 1.403 . S
C1733 C1734 1.392 . S
C1733 C1737 1.495 . S
C1734 C1733 1.392 . S
C1734 C1735 1.385 . S
C1734 C1736 1.478 . S
C1735 H1729 0.930 . S
C1735 C1731 1.400 . S
C1735 C1734 1.385 . S
C1736 C1734 1.478 . S
C1736 C1738 1.381 . S
C1736 C1742 1.383 . S
C1737 C1733 1.495 . S
C1737 H1743 0.959 . S
C1737 H1744 0.961 . S
C1737 H1745 0.960 . S
C1738 C1736 1.381 . S
C1738 C1739 1.394 . S
C1738 H1746 0.930 . S
C1739 C1738 1.394 . S
C1739 C1740 1.383 . S
C1739 H1747 0.929 . S
C1740 C1739 1.383 . S
C1740 C1741 1.377 . S
C1741 H1725 0.930 . S
C1741 C1740 1.377 . S
C1741 C1742 1.379 . S
C1742 H1726 0.931 . S
C1742 C1736 1.383 . S
C1742 C1741 1.379 . S
H1743 C1737 0.959 . S
H1744 C1737 0.961 . S
H1745 C1737 0.960 . S
H1746 C1738 0.930 . S
H1747 C1739 0.929 . S
H1748 C1756 0.929 . S
H1749 C1758 0.930 . S
H1750 C1760 0.930 . S
H1751 C1763 0.929 . S
H1752 C1766 0.930 . S
H1753 C1768 0.960 . S
H1754 C1768 0.960 . S
H1755 C1768 0.960 . S
C1756 H1748 0.929 . S
C1756 C1757 1.377 . S
C1756 C1758 1.384 . S
C1757 C1756 1.377 . S
C1757 C1763 1.390 . S
C1758 H1749 0.930 . S
C1758 C1756 1.384 . S
C1758 C1759 1.372 . S
C1759 C1758 1.372 . S
C1759 C1760 1.400 . S
C1759 C1764 1.490 . S
C1760 H1750 0.930 . S
C1760 C1759 1.400 . S
C1760 C1763 1.386 . S
H1761 C1777 0.930 . S
H1762 C1778 0.931 . S
C1763 H1751 0.929 . S
C1763 C1757 1.390 . S
C1763 C1760 1.386 . S
C1764 C1759 1.490 . S
C1764 C1766 1.395 . S
C1764 C1767 1.403 . S
H1765 C1771 0.930 . S
C1766 H1752 0.930 . S
C1766 C1764 1.395 . S
C1766 C1769 1.403 . S
C1767 C1764 1.403 . S
C1767 C1768 1.524 . S
C1767 C1771 1.400 . S
C1768 H1753 0.960 . S
C1768 H1754 0.960 . S
C1768 H1755 0.960 . S
C1768 C1767 1.524 . S
C1769 C1766 1.403 . S
C1769 C1770 1.392 . S
C1769 C1773 1.495 . S
C1770 C1769 1.392 . S
C1770 C1771 1.385 . S
C1770 C1772 1.478 . S
C1771 H1765 0.930 . S
C1771 C1767 1.400 . S
C1771 C1770 1.385 . S
C1772 C1770 1.478 . S
C1772 C1774 1.381 . S
C1772 C1778 1.383 . S
C1773 C1769 1.495 . S
C1773 H1779 0.959 . S
C1773 H1780 0.961 . S
C1773 H1781 0.960 . S
C1774 C1772 1.381 . S
C1774 C1775 1.394 . S
C1774 H1782 0.930 . S
C1775 C1774 1.394 . S
C1775 C1776 1.383 . S
C1775 H1783 0.929 . S
C1776 C1775 1.383 . S
C1776 C1777 1.377 . S
C1777 H1761 0.930 . S
C1777 C1776 1.377 . S
C1777 C1778 1.379 . S
C1778 H1762 0.931 . S
C1778 C1772 1.383 . S
C1778 C1777 1.379 . S
H1779 C1773 0.959 . S
H1780 C1773 0.961 . S
H1781 C1773 0.960 . S
H1782 C1774 0.930 . S
H1783 C1775 0.929 . S
H1784 C1792 0.929 . S
H1785 C1794 0.930 . S
H1786 C1796 0.930 . S
H1787 C1799 0.929 . S
H1788 C1802 0.930 . S
H1789 C1804 0.960 . S
H1790 C1804 0.960 . S
H1791 C1804 0.960 . S
C1792 H1784 0.929 . S
C1792 C1793 1.377 . S
C1792 C1794 1.384 . S
C1793 C1792 1.377 . S
C1793 C1799 1.390 . S
C1794 H1785 0.930 . S
C1794 C1792 1.384 . S
C1794 C1795 1.372 . S
C1795 C1794 1.372 . S
C1795 C1796 1.400 . S
C1795 C1800 1.490 . S
C1796 H1786 0.930 . S
C1796 C1795 1.400 . S
C1796 C1799 1.386 . S
H1797 C1813 0.930 . S
H1798 C1814 0.931 . S
C1799 H1787 0.929 . S
C1799 C1793 1.390 . S
C1799 C1796 1.386 . S
C1800 C1795 1.490 . S
C1800 C1802 1.395 . S
C1800 C1803 1.403 . S
H1801 C1807 0.930 . S
C1802 H1788 0.930 . S
C1802 C1800 1.395 . S
C1802 C1805 1.403 . S
C1803 C1800 1.403 . S
C1803 C1804 1.524 . S
C1803 C1807 1.400 . S
C1804 H1789 0.960 . S
C1804 H1790 0.960 . S
C1804 H1791 0.960 . S
C1804 C1803 1.524 . S
C1805 C1802 1.403 . S
C1805 C1806 1.392 . S
C1805 C1809 1.495 . S
C1806 C1805 1.392 . S
C1806 C1807 1.385 . S
C1806 C1808 1.478 . S
C1807 H1801 0.930 . S
C1807 C1803 1.400 . S
C1807 C1806 1.385 . S
C1808 C1806 1.478 . S
C1808 C1810 1.381 . S
C1808 C1814 1.383 . S
C1809 C1805 1.495 . S
C1809 H1815 0.959 . S
C1809 H1816 0.961 . S
C1809 H1817 0.960 . S
C1810 C1808 1.381 . S
C1810 C1811 1.394 . S
C1810 H1818 0.930 . S
C1811 C1810 1.394 . S
C1811 C1812 1.383 . S
C1811 H1819 0.929 . S
C1812 C1811 1.383 . S
C1812 C1813 1.377 . S
C1813 H1797 0.930 . S
C1813 C1812 1.377 . S
C1813 C1814 1.379 . S
C1814 H1798 0.931 . S
C1814 C1808 1.383 . S
C1814 C1813 1.379 . S
H1815 C1809 0.959 . S
H1816 C1809 0.961 . S
H1817 C1809 0.960 . S
H1818 C1810 0.930 . S
H1819 C1811 0.929 . S
H1820 C1828 0.929 . S
H1821 C1830 0.930 . S
H1822 C1832 0.930 . S
H1823 C1835 0.929 . S
H1824 C1838 0.930 . S
H1825 C1840 0.960 . S
H1826 C1840 0.960 . S
H1827 C1840 0.960 . S
C1828 H1820 0.929 . S
C1828 C1829 1.377 . S
C1828 C1830 1.384 . S
C1829 C1828 1.377 . S
C1829 C1835 1.390 . S
C1830 H1821 0.930 . S
C1830 C1828 1.384 . S
C1830 C1831 1.372 . S
C1831 C1830 1.372 . S
C1831 C1832 1.400 . S
C1831 C1836 1.490 . S
C1832 H1822 0.930 . S
C1832 C1831 1.400 . S
C1832 C1835 1.386 . S
H1833 C1849 0.930 . S
H1834 C1850 0.931 . S
C1835 H1823 0.929 . S
C1835 C1829 1.390 . S
C1835 C1832 1.386 . S
C1836 C1831 1.490 . S
C1836 C1838 1.395 . S
C1836 C1839 1.403 . S
H1837 C1843 0.930 . S
C1838 H1824 0.930 . S
C1838 C1836 1.395 . S
C1838 C1841 1.403 . S
C1839 C1836 1.403 . S
C1839 C1840 1.524 . S
C1839 C1843 1.400 . S
C1840 H1825 0.960 . S
C1840 H1826 0.960 . S
C1840 H1827 0.960 . S
C1840 C1839 1.524 . S
C1841 C1838 1.403 . S
C1841 C1842 1.392 . S
C1841 C1845 1.495 . S
C1842 C1841 1.392 . S
C1842 C1843 1.385 . S
C1842 C1844 1.478 . S
C1843 H1837 0.930 . S
C1843 C1839 1.400 . S
C1843 C1842 1.385 . S
C1844 C1842 1.478 . S
C1844 C1846 1.381 . S
C1844 C1850 1.383 . S
C1845 C1841 1.495 . S
C1845 H1851 0.959 . S
C1845 H1852 0.961 . S
C1845 H1853 0.960 . S
C1846 C1844 1.381 . S
C1846 C1847 1.394 . S
C1846 H1854 0.930 . S
C1847 C1846 1.394 . S
C1847 C1848 1.383 . S
C1847 H1855 0.929 . S
C1848 C1847 1.383 . S
C1848 C1849 1.377 . S
C1849 H1833 0.930 . S
C1849 C1848 1.377 . S
C1849 C1850 1.379 . S
C1850 H1834 0.931 . S
C1850 C1844 1.383 . S
C1850 C1849 1.379 . S
H1851 C1845 0.959 . S
H1852 C1845 0.961 . S
H1853 C1845 0.960 . S
H1854 C1846 0.930 . S
H1855 C1847 0.929 . S
H1856 C1864 0.929 . S
H1857 C1866 0.930 . S
H1858 C1868 0.930 . S
H1859 C1871 0.929 . S
H1860 C1874 0.930 . S
H1861 C1876 0.960 . S
H1862 C1876 0.960 . S
H1863 C1876 0.960 . S
C1864 H1856 0.929 . S
C1864 C1865 1.377 . S
C1864 C1866 1.384 . S
C1865 C1864 1.377 . S
C1865 C1871 1.390 . S
C1866 H1857 0.930 . S
C1866 C1864 1.384 . S
C1866 C1867 1.372 . S
C1867 C1866 1.372 . S
C1867 C1868 1.400 . S
C1867 C1872 1.490 . S
C1868 H1858 0.930 . S
C1868 C1867 1.400 . S
C1868 C1871 1.386 . S
H1869 C1885 0.930 . S
H1870 C1886 0.931 . S
C1871 H1859 0.929 . S
C1871 C1865 1.390 . S
C1871 C1868 1.386 . S
C1872 C1867 1.490 . S
C1872 C1874 1.395 . S
C1872 C1875 1.403 . S
H1873 C1879 0.930 . S
C1874 H1860 0.930 . S
C1874 C1872 1.395 . S
C1874 C1877 1.403 . S
C1875 C1872 1.403 . S
C1875 C1876 1.524 . S
C1875 C1879 1.400 . S
C1876 H1861 0.960 . S
C1876 H1862 0.960 . S
C1876 H1863 0.960 . S
C1876 C1875 1.524 . S
C1877 C1874 1.403 . S
C1877 C1878 1.392 . S
C1877 C1881 1.495 . S
C1878 C1877 1.392 . S
C1878 C1879 1.385 . S
C1878 C1880 1.478 . S
C1879 H1873 0.930 . S
C1879 C1875 1.400 . S
C1879 C1878 1.385 . S
C1880 C1878 1.478 . S
C1880 C1882 1.381 . S
C1880 C1886 1.383 . S
C1881 C1877 1.495 . S
C1881 H1887 0.959 . S
C1881 H1888 0.961 . S
C1881 H1889 0.960 . S
C1882 C1880 1.381 . S
C1882 C1883 1.394 . S
C1882 H1890 0.930 . S
C1883 C1882 1.394 . S
C1883 C1884 1.383 . S
C1883 H1891 0.929 . S
C1884 C1883 1.383 . S
C1884 C1885 1.377 . S
C1885 H1869 0.930 . S
C1885 C1884 1.377 . S
C1885 C1886 1.379 . S
C1886 H1870 0.931 . S
C1886 C1880 1.383 . S
C1886 C1885 1.379 . S
H1887 C1881 0.959 . S
H1888 C1881 0.961 . S
H1889 C1881 0.960 . S
H1890 C1882 0.930 . S
H1891 C1883 0.929 . S
H1892 C1900 0.929 . S
H1893 C1902 0.930 . S
H1894 C1904 0.930 . S
H1895 C1907 0.929 . S
H1896 C1910 0.930 . S
H1897 C1912 0.960 . S
H1898 C1912 0.960 . S
H1899 C1912 0.960 . S
C1900 H1892 0.929 . S
C1900 C1901 1.377 . S
C1900 C1902 1.384 . S
C1901 C1900 1.377 . S
C1901 C1907 1.390 . S
C1902 H1893 0.930 . S
C1902 C1900 1.384 . S
C1902 C1903 1.372 . S
C1903 C1902 1.372 . S
C1903 C1904 1.400 . S
C1903 C1908 1.490 . S
C1904 H1894 0.930 . S
C1904 C1903 1.400 . S
C1904 C1907 1.386 . S
H1905 C1921 0.930 . S
H1906 C1922 0.931 . S
C1907 H1895 0.929 . S
C1907 C1901 1.390 . S
C1907 C1904 1.386 . S
C1908 C1903 1.490 . S
C1908 C1910 1.395 . S
C1908 C1911 1.403 . S
H1909 C1915 0.930 . S
C1910 H1896 0.930 . S
C1910 C1908 1.395 . S
C1910 C1913 1.403 . S
C1911 C1908 1.403 . S
C1911 C1912 1.524 . S
C1911 C1915 1.400 . S
C1912 H1897 0.960 . S
C1912 H1898 0.960 . S
C1912 H1899 0.960 . S
C1912 C1911 1.524 . S
C1913 C1910 1.403 . S
C1913 C1914 1.392 . S
C1913 C1917 1.495 . S
C1914 C1913 1.392 . S
C1914 C1915 1.385 . S
C1914 C1916 1.478 . S
C1915 H1909 0.930 . S
C1915 C1911 1.400 . S
C1915 C1914 1.385 . S
C1916 C1914 1.478 . S
C1916 C1918 1.381 . S
C1916 C1922 1.383 . S
C1917 C1913 1.495 . S
C1917 H1923 0.959 . S
C1917 H1924 0.961 . S
C1917 H1925 0.960 . S
C1918 C1916 1.381 . S
C1918 C1919 1.394 . S
C1918 H1926 0.930 . S
C1919 C1918 1.394 . S
C1919 C1920 1.383 . S
C1919 H1927 0.929 . S
C1920 C1919 1.383 . S
C1920 C1921 1.377 . S
C1921 H1905 0.930 . S
C1921 C1920 1.377 . S
C1921 C1922 1.379 . S
C1922 H1906 0.931 . S
C1922 C1916 1.383 . S
C1922 C1921 1.379 . S
H1923 C1917 0.959 . S
H1924 C1917 0.961 . S
H1925 C1917 0.960 . S
H1926 C1918 0.930 . S
H1927 C1919 0.929 . S
H1928 C1936 0.929 . S
H1929 C1938 0.930 . S
H1930 C1940 0.930 . S
H1931 C1943 0.929 . S
H1932 C1946 0.930 . S
H1933 C1948 0.960 . S
H1934 C1948 0.960 . S
H1935 C1948 0.960 . S
C1936 H1928 0.929 . S
C1936 C1937 1.377 . S
C1936 C1938 1.384 . S
C1937 C1936 1.377 . S
C1937 C1943 1.390 . S
C1938 H1929 0.930 . S
C1938 C1936 1.384 . S
C1938 C1939 1.372 . S
C1939 C1938 1.372 . S
C1939 C1940 1.400 . S
C1939 C1944 1.490 . S
C1940 H1930 0.930 . S
C1940 C1939 1.400 . S
C1940 C1943 1.386 . S
H1941 C1957 0.930 . S
H1942 C1958 0.931 . S
C1943 H1931 0.929 . S
C1943 C1937 1.390 . S
C1943 C1940 1.386 . S
C1944 C1939 1.490 . S
C1944 C1946 1.395 . S
C1944 C1947 1.403 . S
H1945 C1951 0.930 . S
C1946 H1932 0.930 . S
C1946 C1944 1.395 . S
C1946 C1949 1.403 . S
C1947 C1944 1.403 . S
C1947 C1948 1.524 . S
C1947 C1951 1.400 . S
C1948 H1933 0.960 . S
C1948 H1934 0.960 . S
C1948 H1935 0.960 . S
C1948 C1947 1.524 . S
C1949 C1946 1.403 . S
C1949 C1950 1.392 . S
C1949 C1953 1.495 . S
C1950 C1949 1.392 . S
C1950 C1951 1.385 . S
C1950 C1952 1.478 . S
C1951 H1945 0.930 . S
C1951 C1947 1.400 . S
C1951 C1950 1.385 . S
C1952 C1950 1.478 . S
C1952 C1954 1.381 . S
C1952 C1958 1.383 . S
C1953 C1949 1.495 . S
C1953 H1959 0.959 . S
C1953 H1960 0.961 . S
C1953 H1961 0.960 . S
C1954 C1952 1.381 . S
C1954 C1955 1.394 . S
C1954 H1962 0.930 . S
C1955 C1954 1.394 . S
C1955 C1956 1.383 . S
C1955 H1963 0.929 . S
C1956 C1955 1.383 . S
C1956 C1957 1.377 . S
C1957 H1941 0.930 . S
C1957 C1956 1.377 . S
C1957 C1958 1.379 . S
C1958 H1942 0.931 . S
C1958 C1952 1.383 . S
C1958 C1957 1.379 . S
H1959 C1953 0.959 . S
H1960 C1953 0.961 . S
H1961 C1953 0.960 . S
H1962 C1954 0.930 . S
H1963 C1955 0.929 . S
H1964 C1972 0.929 . S
H1965 C1974 0.930 . S
H1966 C1976 0.930 . S
H1967 C1979 0.929 . S
H1968 C1982 0.930 . S
H1969 C1984 0.960 . S
H1970 C1984 0.960 . S
H1971 C1984 0.960 . S
C1972 H1964 0.929 . S
C1972 C1973 1.377 . S
C1972 C1974 1.384 . S
C1973 C1972 1.377 . S
C1973 C1979 1.390 . S
C1974 H1965 0.930 . S
C1974 C1972 1.384 . S
C1974 C1975 1.372 . S
C1975 C1974 1.372 . S
C1975 C1976 1.400 . S
C1975 C1980 1.490 . S
C1976 H1966 0.930 . S
C1976 C1975 1.400 . S
C1976 C1979 1.386 . S
H1977 C1993 0.930 . S
H1978 C1994 0.931 . S
C1979 H1967 0.929 . S
C1979 C1973 1.390 . S
C1979 C1976 1.386 . S
C1980 C1975 1.490 . S
C1980 C1982 1.395 . S
C1980 C1983 1.403 . S
H1981 C1987 0.930 . S
C1982 H1968 0.930 . S
C1982 C1980 1.395 . S
C1982 C1985 1.403 . S
C1983 C1980 1.403 . S
C1983 C1984 1.524 . S
C1983 C1987 1.400 . S
C1984 H1969 0.960 . S
C1984 H1970 0.960 . S
C1984 H1971 0.960 . S
C1984 C1983 1.524 . S
C1985 C1982 1.403 . S
C1985 C1986 1.392 . S
C1985 C1989 1.495 . S
C1986 C1985 1.392 . S
C1986 C1987 1.385 . S
C1986 C1988 1.478 . S
C1987 H1981 0.930 . S
C1987 C1983 1.400 . S
C1987 C1986 1.385 . S
C1988 C1986 1.478 . S
C1988 C1990 1.381 . S
C1988 C1994 1.383 . S
C1989 C1985 1.495 . S
C1989 H1995 0.959 . S
C1989 H1996 0.961 . S
C1989 H1997 0.960 . S
C1990 C1988 1.381 . S
C1990 C1991 1.394 . S
C1990 H1998 0.930 . S
C1991 C1990 1.394 . S
C1991 C1992 1.383 . S
C1991 H1999 0.929 . S
C1992 C1991 1.383 . S
C1992 C1993 1.377 . S
C1993 H1977 0.930 . S
C1993 C1992 1.377 . S
C1993 C1994 1.379 . S
C1994 H1978 0.931 . S
C1994 C1988 1.383 . S
C1994 C1993 1.379 . S
H1995 C1989 0.959 . S
H1996 C1989 0.961 . S
H1997 C1989 0.960 . S
H1998 C1990 0.930 . S
H1999 C1991 0.929 . S
H2000 C2008 0.929 . S
H2001 C2010 0.930 . S
H2002 C2012 0.930 . S
H2003 C2015 0.929 . S
H2004 C2018 0.930 . S
H2005 C2020 0.960 . S
H2006 C2020 0.960 . S
H2007 C2020 0.960 . S
C2008 H2000 0.929 . S
C2008 C2009 1.377 . S
C2008 C2010 1.384 . S
C2009 C2008 1.377 . S
C2009 C2015 1.390 . S
C2010 H2001 0.930 . S
C2010 C2008 1.384 . S
C2010 C2011 1.372 . S
C2011 C2010 1.372 . S
C2011 C2012 1.400 . S
C2011 C2016 1.490 . S
C2012 H2002 0.930 . S
C2012 C2011 1.400 . S
C2012 C2015 1.386 . S
H2013 C2029 0.930 . S
H2014 C2030 0.931 . S
C2015 H2003 0.929 . S
C2015 C2009 1.390 . S
C2015 C2012 1.386 . S
C2016 C2011 1.490 . S
C2016 C2018 1.395 . S
C2016 C2019 1.403 . S
H2017 C2023 0.930 . S
C2018 H2004 0.930 . S
C2018 C2016 1.395 . S
C2018 C2021 1.403 . S
C2019 C2016 1.403 . S
C2019 C2020 1.524 . S
C2019 C2023 1.400 . S
C2020 H2005 0.960 . S
C2020 H2006 0.960 . S
C2020 H2007 0.960 . S
C2020 C2019 1.524 . S
C2021 C2018 1.403 . S
C2021 C2022 1.392 . S
C2021 C2025 1.495 . S
C2022 C2021 1.392 . S
C2022 C2023 1.385 . S
C2022 C2024 1.478 . S
C2023 H2017 0.930 . S
C2023 C2019 1.400 . S
C2023 C2022 1.385 . S
C2024 C2022 1.478 . S
C2024 C2026 1.381 . S
C2024 C2030 1.383 . S
C2025 C2021 1.495 . S
C2025 H2031 0.959 . S
C2025 H2032 0.961 . S
C2025 H2033 0.960 . S
C2026 C2024 1.381 . S
C2026 C2027 1.394 . S
C2026 H2034 0.930 . S
C2027 C2026 1.394 . S
C2027 C2028 1.383 . S
C2027 H2035 0.929 . S
C2028 C2027 1.383 . S
C2028 C2029 1.377 . S
C2029 H2013 0.930 . S
C2029 C2028 1.377 . S
C2029 C2030 1.379 . S
C2030 H2014 0.931 . S
C2030 C2024 1.383 . S
C2030 C2029 1.379 . S
H2031 C2025 0.959 . S
H2032 C2025 0.961 . S
H2033 C2025 0.960 . S
H2034 C2026 0.930 . S
H2035 C2027 0.929 . S
H2036 C2044 0.929 . S
H2037 C2046 0.930 . S
H2038 C2048 0.930 . S
H2039 C2051 0.929 . S
H2040 C2054 0.930 . S
H2041 C2056 0.960 . S
H2042 C2056 0.960 . S
H2043 C2056 0.960 . S
C2044 H2036 0.929 . S
C2044 C2045 1.377 . S
C2044 C2046 1.384 . S
C2045 C2044 1.377 . S
C2045 C2051 1.390 . S
C2046 H2037 0.930 . S
C2046 C2044 1.384 . S
C2046 C2047 1.372 . S
C2047 C2046 1.372 . S
C2047 C2048 1.400 . S
C2047 C2052 1.490 . S
C2048 H2038 0.930 . S
C2048 C2047 1.400 . S
C2048 C2051 1.386 . S
H2049 C2065 0.930 . S
H2050 C2066 0.931 . S
C2051 H2039 0.929 . S
C2051 C2045 1.390 . S
C2051 C2048 1.386 . S
C2052 C2047 1.490 . S
C2052 C2054 1.395 . S
C2052 C2055 1.403 . S
H2053 C2059 0.930 . S
C2054 H2040 0.930 . S
C2054 C2052 1.395 . S
C2054 C2057 1.403 . S
C2055 C2052 1.403 . S
C2055 C2056 1.524 . S
C2055 C2059 1.400 . S
C2056 H2041 0.960 . S
C2056 H2042 0.960 . S
C2056 H2043 0.960 . S
C2056 C2055 1.524 . S
C2057 C2054 1.403 . S
C2057 C2058 1.392 . S
C2057 C2061 1.495 . S
C2058 C2057 1.392 . S
C2058 C2059 1.385 . S
C2058 C2060 1.478 . S
C2059 H2053 0.930 . S
C2059 C2055 1.400 . S
C2059 C2058 1.385 . S
C2060 C2058 1.478 . S
C2060 C2062 1.381 . S
C2060 C2066 1.383 . S
C2061 C2057 1.495 . S
C2061 H2067 0.959 . S
C2061 H2068 0.961 . S
C2061 H2069 0.960 . S
C2062 C2060 1.381 . S
C2062 C2063 1.394 . S
C2062 H2070 0.930 . S
C2063 C2062 1.394 . S
C2063 C2064 1.383 . S
C2063 H2071 0.929 . S
C2064 C2063 1.383 . S
C2064 C2065 1.377 . S
C2065 H2049 0.930 . S
C2065 C2064 1.377 . S
C2065 C2066 1.379 . S
C2066 H2050 0.931 . S
C2066 C2060 1.383 . S
C2066 C2065 1.379 . S
H2067 C2061 0.959 . S
H2068 C2061 0.961 . S
H2069 C2061 0.960 . S
H2070 C2062 0.930 . S
H2071 C2063 0.929 . S
H2072 C2080 0.929 . S
H2073 C2082 0.930 . S
H2074 C2084 0.930 . S
H2075 C2087 0.929 . S
H2076 C2090 0.930 . S
H2077 C2092 0.960 . S
H2078 C2092 0.960 . S
H2079 C2092 0.960 . S
C2080 H2072 0.929 . S
C2080 C2081 1.377 . S
C2080 C2082 1.384 . S
C2081 C2080 1.377 . S
C2081 C2087 1.390 . S
C2082 H2073 0.930 . S
C2082 C2080 1.384 . S
C2082 C2083 1.372 . S
C2083 C2082 1.372 . S
C2083 C2084 1.400 . S
C2083 C2088 1.490 . S
C2084 H2074 0.930 . S
C2084 C2083 1.400 . S
C2084 C2087 1.386 . S
H2085 C2101 0.930 . S
H2086 C2102 0.931 . S
C2087 H2075 0.929 . S
C2087 C2081 1.390 . S
C2087 C2084 1.386 . S
C2088 C2083 1.490 . S
C2088 C2090 1.395 . S
C2088 C2091 1.403 . S
H2089 C2095 0.930 . S
C2090 H2076 0.930 . S
C2090 C2088 1.395 . S
C2090 C2093 1.403 . S
C2091 C2088 1.403 . S
C2091 C2092 1.524 . S
C2091 C2095 1.400 . S
C2092 H2077 0.960 . S
C2092 H2078 0.960 . S
C2092 H2079 0.960 . S
C2092 C2091 1.524 . S
C2093 C2090 1.403 . S
C2093 C2094 1.392 . S
C2093 C2097 1.495 . S
C2094 C2093 1.392 . S
C2094 C2095 1.385 . S
C2094 C2096 1.478 . S
C2095 H2089 0.930 . S
C2095 C2091 1.400 . S
C2095 C2094 1.385 . S
C2096 C2094 1.478 . S
C2096 C2098 1.381 . S
C2096 C2102 1.383 . S
C2097 C2093 1.495 . S
C2097 H2103 0.959 . S
C2097 H2104 0.961 . S
C2097 H2105 0.960 . S
C2098 C2096 1.381 . S
C2098 C2099 1.394 . S
C2098 H2106 0.930 . S
C2099 C2098 1.394 . S
C2099 C2100 1.383 . S
C2099 H2107 0.929 . S
C2100 C2099 1.383 . S
C2100 C2101 1.377 . S
C2101 H2085 0.930 . S
C2101 C2100 1.377 . S
C2101 C2102 1.379 . S
C2102 H2086 0.931 . S
C2102 C2096 1.383 . S
C2102 C2101 1.379 . S
H2103 C2097 0.959 . S
H2104 C2097 0.961 . S
H2105 C2097 0.960 . S
H2106 C2098 0.930 . S
H2107 C2099 0.929 . S
H2108 C2116 0.929 . S
H2109 C2118 0.930 . S
H2110 C2120 0.930 . S
H2111 C2123 0.929 . S
H2112 C2126 0.930 . S
H2113 C2128 0.960 . S
H2114 C2128 0.960 . S
H2115 C2128 0.960 . S
C2116 H2108 0.929 . S
C2116 C2117 1.377 . S
C2116 C2118 1.384 . S
C2117 C2116 1.377 . S
C2117 C2123 1.390 . S
C2118 H2109 0.930 . S
C2118 C2116 1.384 . S
C2118 C2119 1.372 . S
C2119 C2118 1.372 . S
C2119 C2120 1.400 . S
C2119 C2124 1.490 . S
C2120 H2110 0.930 . S
C2120 C2119 1.400 . S
C2120 C2123 1.386 . S
H2121 C2137 0.930 . S
H2122 C2138 0.931 . S
C2123 H2111 0.929 . S
C2123 C2117 1.390 . S
C2123 C2120 1.386 . S
C2124 C2119 1.490 . S
C2124 C2126 1.395 . S
C2124 C2127 1.403 . S
H2125 C2131 0.930 . S
C2126 H2112 0.930 . S
C2126 C2124 1.395 . S
C2126 C2129 1.403 . S
C2127 C2124 1.403 . S
C2127 C2128 1.524 . S
C2127 C2131 1.400 . S
C2128 H2113 0.960 . S
C2128 H2114 0.960 . S
C2128 H2115 0.960 . S
C2128 C2127 1.524 . S
C2129 C2126 1.403 . S
C2129 C2130 1.392 . S
C2129 C2133 1.495 . S
C2130 C2129 1.392 . S
C2130 C2131 1.385 . S
C2130 C2132 1.478 . S
C2131 H2125 0.930 . S
C2131 C2127 1.400 . S
C2131 C2130 1.385 . S
C2132 C2130 1.478 . S
C2132 C2134 1.381 . S
C2132 C2138 1.383 . S
C2133 C2129 1.495 . S
C2133 H2139 0.959 . S
C2133 H2140 0.961 . S
C2133 H2141 0.960 . S
C2134 C2132 1.381 . S
C2134 C2135 1.394 . S
C2134 H2142 0.930 . S
C2135 C2134 1.394 . S
C2135 C2136 1.383 . S
C2135 H2143 0.929 . S
C2136 C2135 1.383 . S
C2136 C2137 1.377 . S
C2137 H2121 0.930 . S
C2137 C2136 1.377 . S
C2137 C2138 1.379 . S
C2138 H2122 0.931 . S
C2138 C2132 1.383 . S
C2138 C2137 1.379 . S
H2139 C2133 0.959 . S
H2140 C2133 0.961 . S
H2141 C2133 0.960 . S
H2142 C2134 0.930 . S
H2143 C2135 0.929 . S
H2144 C2152 0.929 . S
H2145 C2154 0.930 . S
H2146 C2156 0.930 . S
H2147 C2159 0.929 . S
H2148 C2162 0.930 . S
H2149 C2164 0.960 . S
H2150 C2164 0.960 . S
H2151 C2164 0.960 . S
C2152 H2144 0.929 . S
C2152 C2153 1.377 . S
C2152 C2154 1.384 . S
C2153 C2152 1.377 . S
C2153 C2159 1.390 . S
C2154 H2145 0.930 . S
C2154 C2152 1.384 . S
C2154 C2155 1.372 . S
C2155 C2154 1.372 . S
C2155 C2156 1.400 . S
C2155 C2160 1.490 . S
C2156 H2146 0.930 . S
C2156 C2155 1.400 . S
C2156 C2159 1.386 . S
H2157 C2173 0.930 . S
H2158 C2174 0.931 . S
C2159 H2147 0.929 . S
C2159 C2153 1.390 . S
C2159 C2156 1.386 . S
C2160 C2155 1.490 . S
C2160 C2162 1.395 . S
C2160 C2163 1.403 . S
H2161 C2167 0.930 . S
C2162 H2148 0.930 . S
C2162 C2160 1.395 . S
C2162 C2165 1.403 . S
C2163 C2160 1.403 . S
C2163 C2164 1.524 . S
C2163 C2167 1.400 . S
C2164 H2149 0.960 . S
C2164 H2150 0.960 . S
C2164 H2151 0.960 . S
C2164 C2163 1.524 . S
C2165 C2162 1.403 . S
C2165 C2166 1.392 . S
C2165 C2169 1.495 . S
C2166 C2165 1.392 . S
C2166 C2167 1.385 . S
C2166 C2168 1.478 . S
C2167 H2161 0.930 . S
C2167 C2163 1.400 . S
C2167 C2166 1.385 . S
C2168 C2166 1.478 . S
C2168 C2170 1.381 . S
C2168 C2174 1.383 . S
C2169 C2165 1.495 . S
C2169 H2175 0.959 . S
C2169 H2176 0.961 . S
C2169 H2177 0.960 . S
C2170 C2168 1.381 . S
C2170 C2171 1.394 . S
C2170 H2178 0.930 . S
C2171 C2170 1.394 . S
C2171 C2172 1.383 . S
C2171 H2179 0.929 . S
C2172 C2171 1.383 . S
C2172 C2173 1.377 . S
C2173 H2157 0.930 . S
C2173 C2172 1.377 . S
C2173 C2174 1.379 . S
C2174 H2158 0.931 . S
C2174 C2168 1.383 . S
C2174 C2173 1.379 . S
H2175 C2169 0.959 . S
H2176 C2169 0.961 . S
H2177 C2169 0.960 . S
H2178 C2170 0.930 . S
H2179 C2171 0.929 . S
H2180 C2188 0.929 . S
H2181 C2190 0.930 . S
H2182 C2192 0.930 . S
H2183 C2195 0.929 . S
H2184 C2198 0.930 . S
H2185 C2200 0.960 . S
H2186 C2200 0.960 . S
H2187 C2200 0.960 . S
C2188 H2180 0.929 . S
C2188 C2189 1.377 . S
C2188 C2190 1.384 . S
C2189 C2188 1.377 . S
C2189 C2195 1.390 . S
C2190 H2181 0.930 . S
C2190 C2188 1.384 . S
C2190 C2191 1.372 . S
C2191 C2190 1.372 . S
C2191 C2192 1.400 . S
C2191 C2196 1.490 . S
C2192 H2182 0.930 . S
C2192 C2191 1.400 . S
C2192 C2195 1.386 . S
H2193 C2209 0.930 . S
H2194 C2210 0.931 . S
C2195 H2183 0.929 . S
C2195 C2189 1.390 . S
C2195 C2192 1.386 . S
C2196 C2191 1.490 . S
C2196 C2198 1.395 . S
C2196 C2199 1.403 . S
H2197 C2203 0.930 . S
C2198 H2184 0.930 . S
C2198 C2196 1.395 . S
C2198 C2201 1.403 . S
C2199 C2196 1.403 . S
C2199 C2200 1.524 . S
C2199 C2203 1.400 . S
C2200 H2185 0.960 . S
C2200 H2186 0.960 . S
C2200 H2187 0.960 . S
C2200 C2199 1.524 . S
C2201 C2198 1.403 . S
C2201 C2202 1.392 . S
C2201 C2205 1.495 . S
C2202 C2201 1.392 . S
C2202 C2203 1.385 . S
C2202 C2204 1.478 . S
C2203 H2197 0.930 . S
C2203 C2199 1.400 . S
C2203 C2202 1.385 . S
C2204 C2202 1.478 . S
C2204 C2206 1.381 . S
C2204 C2210 1.383 . S
C2205 C2201 1.495 . S
C2205 H2211 0.959 . S
C2205 H2212 0.961 . S
C2205 H2213 0.960 . S
C2206 C2204 1.381 . S
C2206 C2207 1.394 . S
C2206 H2214 0.930 . S
C2207 C2206 1.394 . S
C2207 C2208 1.383 . S
C2207 H2215 0.929 . S
C2208 C2207 1.383 . S
C2208 C2209 1.377 . S
C2209 H2193 0.930 . S
C2209 C2208 1.377 . S
C2209 C2210 1.379 . S
C2210 H2194 0.931 . S
C2210 C2204 1.383 . S
C2210 C2209 1.379 . S
H2211 C2205 0.959 . S
H2212 C2205 0.961 . S
H2213 C2205 0.960 . S
H2214 C2206 0.930 . S
H2215 C2207 0.929 . S
H2216 C2224 0.929 . S
H2217 C2226 0.930 . S
H2218 C2228 0.930 . S
H2219 C2231 0.929 . S
H2220 C2234 0.930 . S
H2221 C2236 0.960 . S
H2222 C2236 0.960 . S
H2223 C2236 0.960 . S
C2224 H2216 0.929 . S
C2224 C2225 1.377 . S
C2224 C2226 1.384 . S
C2225 C2224 1.377 . S
C2225 C2231 1.390 . S
C2226 H2217 0.930 . S
C2226 C2224 1.384 . S
C2226 C2227 1.372 . S
C2227 C2226 1.372 . S
C2227 C2228 1.400 . S
C2227 C2232 1.490 . S
C2228 H2218 0.930 . S
C2228 C2227 1.400 . S
C2228 C2231 1.386 . S
H2229 C2245 0.930 . S
H2230 C2246 0.931 . S
C2231 H2219 0.929 . S
C2231 C2225 1.390 . S
C2231 C2228 1.386 . S
C2232 C2227 1.490 . S
C2232 C2234 1.395 . S
C2232 C2235 1.403 . S
H2233 C2239 0.930 . S
C2234 H2220 0.930 . S
C2234 C2232 1.395 . S
C2234 C2237 1.403 . S
C2235 C2232 1.403 . S
C2235 C2236 1.524 . S
C2235 C2239 1.400 . S
C2236 H2221 0.960 . S
C2236 H2222 0.960 . S
C2236 H2223 0.960 . S
C2236 C2235 1.524 . S
C2237 C2234 1.403 . S
C2237 C2238 1.392 . S
C2237 C2241 1.495 . S
C2238 C2237 1.392 . S
C2238 C2239 1.385 . S
C2238 C2240 1.478 . S
C2239 H2233 0.930 . S
C2239 C2235 1.400 . S
C2239 C2238 1.385 . S
C2240 C2238 1.478 . S
C2240 C2242 1.381 . S
C2240 C2246 1.383 . S
C2241 C2237 1.495 . S
C2241 H2247 0.959 . S
C2241 H2248 0.961 . S
C2241 H2249 0.960 . S
C2242 C2240 1.381 . S
C2242 C2243 1.394 . S
C2242 H2250 0.930 . S
C2243 C2242 1.394 . S
C2243 C2244 1.383 . S
C2243 H2251 0.929 . S
C2244 C2243 1.383 . S
C2244 C2245 1.377 . S
C2245 H2229 0.930 . S
C2245 C2244 1.377 . S
C2245 C2246 1.379 . S
C2246 H2230 0.931 . S
C2246 C2240 1.383 . S
C2246 C2245 1.379 . S
H2247 C2241 0.959 . S
H2248 C2241 0.961 . S
H2249 C2241 0.960 . S
H2250 C2242 0.930 . S
H2251 C2243 0.929 . S
H2252 C2260 0.929 . S
H2253 C2262 0.930 . S
H2254 C2264 0.930 . S
H2255 C2267 0.929 . S
H2256 C2270 0.930 . S
H2257 C2272 0.960 . S
H2258 C2272 0.960 . S
H2259 C2272 0.960 . S
C2260 H2252 0.929 . S
C2260 C2261 1.377 . S
C2260 C2262 1.384 . S
C2261 C2260 1.377 . S
C2261 C2267 1.390 . S
C2262 H2253 0.930 . S
C2262 C2260 1.384 . S
C2262 C2263 1.372 . S
C2263 C2262 1.372 . S
C2263 C2264 1.400 . S
C2263 C2268 1.490 . S
C2264 H2254 0.930 . S
C2264 C2263 1.400 . S
C2264 C2267 1.386 . S
H2265 C2281 0.930 . S
H2266 C2282 0.931 . S
C2267 H2255 0.929 . S
C2267 C2261 1.390 . S
C2267 C2264 1.386 . S
C2268 C2263 1.490 . S
C2268 C2270 1.395 . S
C2268 C2271 1.403 . S
H2269 C2275 0.930 . S
C2270 H2256 0.930 . S
C2270 C2268 1.395 . S
C2270 C2273 1.403 . S
C2271 C2268 1.403 . S
C2271 C2272 1.524 . S
C2271 C2275 1.400 . S
C2272 H2257 0.960 . S
C2272 H2258 0.960 . S
C2272 H2259 0.960 . S
C2272 C2271 1.524 . S
C2273 C2270 1.403 . S
C2273 C2274 1.392 . S
C2273 C2277 1.495 . S
C2274 C2273 1.392 . S
C2274 C2275 1.385 . S
C2274 C2276 1.478 . S
C2275 H2269 0.930 . S
C2275 C2271 1.400 . S
C2275 C2274 1.385 . S
C2276 C2274 1.478 . S
C2276 C2278 1.381 . S
C2276 C2282 1.383 . S
C2277 C2273 1.495 . S
C2277 H2283 0.959 . S
C2277 H2284 0.961 . S
C2277 H2285 0.960 . S
C2278 C2276 1.381 . S
C2278 C2279 1.394 . S
C2278 H2286 0.930 . S
C2279 C2278 1.394 . S
C2279 C2280 1.383 . S
C2279 H2287 0.929 . S
C2280 C2279 1.383 . S
C2280 C2281 1.377 . S
C2281 H2265 0.930 . S
C2281 C2280 1.377 . S
C2281 C2282 1.379 . S
C2282 H2266 0.931 . S
C2282 C2276 1.383 . S
C2282 C2281 1.379 . S
H2283 C2277 0.959 . S
H2284 C2277 0.961 . S
H2285 C2277 0.960 . S
H2286 C2278 0.930 . S
H2287 C2279 0.929 . S
H2288 C2296 0.929 . S
H2289 C2298 0.930 . S
H2290 C2300 0.930 . S
H2291 C2303 0.929 . S
H2292 C2306 0.930 . S
H2293 C2308 0.960 . S
H2294 C2308 0.960 . S
H2295 C2308 0.960 . S
C2296 H2288 0.929 . S
C2296 C2297 1.377 . S
C2296 C2298 1.384 . S
C2297 C2296 1.377 . S
C2297 C2303 1.390 . S
C2298 H2289 0.930 . S
C2298 C2296 1.384 . S
C2298 C2299 1.372 . S
C2299 C2298 1.372 . S
C2299 C2300 1.400 . S
C2299 C2304 1.490 . S
C2300 H2290 0.930 . S
C2300 C2299 1.400 . S
C2300 C2303 1.386 . S
H2301 C2317 0.930 . S
H2302 C2318 0.931 . S
C2303 H2291 0.929 . S
C2303 C2297 1.390 . S
C2303 C2300 1.386 . S
C2304 C2299 1.490 . S
C2304 C2306 1.395 . S
C2304 C2307 1.403 . S
H2305 C2311 0.930 . S
C2306 H2292 0.930 . S
C2306 C2304 1.395 . S
C2306 C2309 1.403 . S
C2307 C2304 1.403 . S
C2307 C2308 1.524 . S
C2307 C2311 1.400 . S
C2308 H2293 0.960 . S
C2308 H2294 0.960 . S
C2308 H2295 0.960 . S
C2308 C2307 1.524 . S
C2309 C2306 1.403 . S
C2309 C2310 1.392 . S
C2309 C2313 1.495 . S
C2310 C2309 1.392 . S
C2310 C2311 1.385 . S
C2310 C2312 1.478 . S
C2311 H2305 0.930 . S
C2311 C2307 1.400 . S
C2311 C2310 1.385 . S
C2312 C2310 1.478 . S
C2312 C2314 1.381 . S
C2312 C2318 1.383 . S
C2313 C2309 1.495 . S
C2313 H2319 0.959 . S
C2313 H2320 0.961 . S
C2313 H2321 0.960 . S
C2314 C2312 1.381 . S
C2314 C2315 1.394 . S
C2314 H2322 0.930 . S
C2315 C2314 1.394 . S
C2315 C2316 1.383 . S
C2315 H2323 0.929 . S
C2316 C2315 1.383 . S
C2316 C2317 1.377 . S
C2317 H2301 0.930 . S
C2317 C2316 1.377 . S
C2317 C2318 1.379 . S
C2318 H2302 0.931 . S
C2318 C2312 1.383 . S
C2318 C2317 1.379 . S
H2319 C2313 0.959 . S
H2320 C2313 0.961 . S
H2321 C2313 0.960 . S
H2322 C2314 0.930 . S
H2323 C2315 0.929 . S
H2324 C2332 0.929 . S
H2325 C2334 0.930 . S
H2326 C2336 0.930 . S
H2327 C2339 0.929 . S
H2328 C2342 0.930 . S
H2329 C2344 0.960 . S
H2330 C2344 0.960 . S
H2331 C2344 0.960 . S
C2332 H2324 0.929 . S
C2332 C2333 1.377 . S
C2332 C2334 1.384 . S
C2333 C2332 1.377 . S
C2333 C2339 1.390 . S
C2334 H2325 0.930 . S
C2334 C2332 1.384 . S
C2334 C2335 1.372 . S
C2335 C2334 1.372 . S
C2335 C2336 1.400 . S
C2335 C2340 1.490 . S
C2336 H2326 0.930 . S
C2336 C2335 1.400 . S
C2336 C2339 1.386 . S
H2337 C2353 0.930 . S
H2338 C2354 0.931 . S
C2339 H2327 0.929 . S
C2339 C2333 1.390 . S
C2339 C2336 1.386 . S
C2340 C2335 1.490 . S
C2340 C2342 1.395 . S
C2340 C2343 1.403 . S
H2341 C2347 0.930 . S
C2342 H2328 0.930 . S
C2342 C2340 1.395 . S
C2342 C2345 1.403 . S
C2343 C2340 1.403 . S
C2343 C2344 1.524 . S
C2343 C2347 1.400 . S
C2344 H2329 0.960 . S
C2344 H2330 0.960 . S
C2344 H2331 0.960 . S
C2344 C2343 1.524 . S
C2345 C2342 1.403 . S
C2345 C2346 1.392 . S
C2345 C2349 1.495 . S
C2346 C2345 1.392 . S
C2346 C2347 1.385 . S
C2346 C2348 1.478 . S
C2347 H2341 0.930 . S
C2347 C2343 1.400 . S
C2347 C2346 1.385 . S
C2348 C2346 1.478 . S
C2348 C2350 1.381 . S
C2348 C2354 1.383 . S
C2349 C2345 1.495 . S
C2349 H2355 0.959 . S
C2349 H2356 0.961 . S
C2349 H2357 0.960 . S
C2350 C2348 1.381 . S
C2350 C2351 1.394 . S
C2350 H2358 0.930 . S
C2351 C2350 1.394 . S
C2351 C2352 1.383 . S
C2351 H2359 0.929 . S
C2352 C2351 1.383 . S
C2352 C2353 1.377 . S
C2353 H2337 0.930 . S
C2353 C2352 1.377 . S
C2353 C2354 1.379 . S
C2354 H2338 0.931 . S
C2354 C2348 1.383 . S
C2354 C2353 1.379 . S
H2355 C2349 0.959 . S
H2356 C2349 0.961 . S
H2357 C2349 0.960 . S
H2358 C2350 0.930 . S
H2359 C2351 0.929 . S
H2360 C2368 0.929 . S
H2361 C2370 0.930 . S
H2362 C2372 0.930 . S
H2363 C2375 0.929 . S
H2364 C2378 0.930 . S
H2365 C2380 0.960 . S
H2366 C2380 0.960 . S
H2367 C2380 0.960 . S
C2368 H2360 0.929 . S
C2368 C2369 1.377 . S
C2368 C2370 1.384 . S
C2369 C2368 1.377 . S
C2369 C2375 1.390 . S
C2370 H2361 0.930 . S
C2370 C2368 1.384 . S
C2370 C2371 1.372 . S
C2371 C2370 1.372 . S
C2371 C2372 1.400 . S
C2371 C2376 1.490 . S
C2372 H2362 0.930 . S
C2372 C2371 1.400 . S
C2372 C2375 1.386 . S
H2373 C2389 0.930 . S
H2374 C2390 0.931 . S
C2375 H2363 0.929 . S
C2375 C2369 1.390 . S
C2375 C2372 1.386 . S
C2376 C2371 1.490 . S
C2376 C2378 1.395 . S
C2376 C2379 1.403 . S
H2377 C2383 0.930 . S
C2378 H2364 0.930 . S
C2378 C2376 1.395 . S
C2378 C2381 1.403 . S
C2379 C2376 1.403 . S
C2379 C2380 1.524 . S
C2379 C2383 1.400 . S
C2380 H2365 0.960 . S
C2380 H2366 0.960 . S
C2380 H2367 0.960 . S
C2380 C2379 1.524 . S
C2381 C2378 1.403 . S
C2381 C2382 1.392 . S
C2381 C2385 1.495 . S
C2382 C2381 1.392 . S
C2382 C2383 1.385 . S
C2382 C2384 1.478 . S
C2383 H2377 0.930 . S
C2383 C2379 1.400 . S
C2383 C2382 1.385 . S
C2384 C2382 1.478 . S
C2384 C2386 1.381 . S
C2384 C2390 1.383 . S
C2385 C2381 1.495 . S
C2385 H2391 0.959 . S
C2385 H2392 0.961 . S
C2385 H2393 0.960 . S
C2386 C2384 1.381 . S
C2386 C2387 1.394 . S
C2386 H2394 0.930 . S
C2387 C2386 1.394 . S
C2387 C2388 1.383 . S
C2387 H2395 0.929 . S
C2388 C2387 1.383 . S
C2388 C2389 1.377 . S
C2389 H2373 0.930 . S
C2389 C2388 1.377 . S
C2389 C2390 1.379 . S
C2390 H2374 0.931 . S
C2390 C2384 1.383 . S
C2390 C2389 1.379 . S
H2391 C2385 0.959 . S
H2392 C2385 0.961 . S
H2393 C2385 0.960 . S
H2394 C2386 0.930 . S
H2395 C2387 0.929 . S
H2396 C2404 0.929 . S
H2397 C2406 0.930 . S
H2398 C2408 0.930 . S
H2399 C2411 0.929 . S
H2400 C2414 0.930 . S
H2401 C2416 0.960 . S
H2402 C2416 0.960 . S
H2403 C2416 0.960 . S
C2404 H2396 0.929 . S
C2404 C2405 1.377 . S
C2404 C2406 1.384 . S
C2405 C2404 1.377 . S
C2405 C2411 1.390 . S
C2406 H2397 0.930 . S
C2406 C2404 1.384 . S
C2406 C2407 1.372 . S
C2407 C2406 1.372 . S
C2407 C2408 1.400 . S
C2407 C2412 1.490 . S
C2408 H2398 0.930 . S
C2408 C2407 1.400 . S
C2408 C2411 1.386 . S
H2409 C2425 0.930 . S
H2410 C2426 0.931 . S
C2411 H2399 0.929 . S
C2411 C2405 1.390 . S
C2411 C2408 1.386 . S
C2412 C2407 1.490 . S
C2412 C2414 1.395 . S
C2412 C2415 1.403 . S
H2413 C2419 0.930 . S
C2414 H2400 0.930 . S
C2414 C2412 1.395 . S
C2414 C2417 1.403 . S
C2415 C2412 1.403 . S
C2415 C2416 1.524 . S
C2415 C2419 1.400 . S
C2416 H2401 0.960 . S
C2416 H2402 0.960 . S
C2416 H2403 0.960 . S
C2416 C2415 1.524 . S
C2417 C2414 1.403 . S
C2417 C2418 1.392 . S
C2417 C2421 1.495 . S
C2418 C2417 1.392 . S
C2418 C2419 1.385 . S
C2418 C2420 1.478 . S
C2419 H2413 0.930 . S
C2419 C2415 1.400 . S
C2419 C2418 1.385 . S
C2420 C2418 1.478 . S
C2420 C2422 1.381 . S
C2420 C2426 1.383 . S
C2421 C2417 1.495 . S
C2421 H2427 0.959 . S
C2421 H2428 0.961 . S
C2421 H2429 0.960 . S
C2422 C2420 1.381 . S
C2422 C2423 1.394 . S
C2422 H2430 0.930 . S
C2423 C2422 1.394 . S
C2423 C2424 1.383 . S
C2423 H2431 0.929 . S
C2424 C2423 1.383 . S
C2424 C2425 1.377 . S
C2425 H2409 0.930 . S
C2425 C2424 1.377 . S
C2425 C2426 1.379 . S
C2426 H2410 0.931 . S
C2426 C2420 1.383 . S
C2426 C2425 1.379 . S
H2427 C2421 0.959 . S
H2428 C2421 0.961 . S
H2429 C2421 0.960 . S
H2430 C2422 0.930 . S
H2431 C2423 0.929 . S
H2432 C2440 0.929 . S
H2433 C2442 0.930 . S
H2434 C2444 0.930 . S
H2435 C2447 0.929 . S
H2436 C2450 0.930 . S
H2437 C2452 0.960 . S
H2438 C2452 0.960 . S
H2439 C2452 0.960 . S
C2440 H2432 0.929 . S
C2440 C2441 1.377 . S
C2440 C2442 1.384 . S
C2441 C2440 1.377 . S
C2441 C2447 1.390 . S
C2442 H2433 0.930 . S
C2442 C2440 1.384 . S
C2442 C2443 1.372 . S
C2443 C2442 1.372 . S
C2443 C2444 1.400 . S
C2443 C2448 1.490 . S
C2444 H2434 0.930 . S
C2444 C2443 1.400 . S
C2444 C2447 1.386 . S
H2445 C2461 0.930 . S
H2446 C2462 0.931 . S
C2447 H2435 0.929 . S
C2447 C2441 1.390 . S
C2447 C2444 1.386 . S
C2448 C2443 1.490 . S
C2448 C2450 1.395 . S
C2448 C2451 1.403 . S
H2449 C2455 0.930 . S
C2450 H2436 0.930 . S
C2450 C2448 1.395 . S
C2450 C2453 1.403 1_455 S
C2451 C2448 1.403 . S
C2451 C2452 1.524 . S
C2451 C2455 1.400 1_455 S
C2452 H2437 0.960 . S
C2452 H2438 0.960 . S
C2452 H2439 0.960 . S
C2452 C2451 1.524 . S
C2453 C2450 1.403 1_655 S
C2453 C2454 1.392 . S
C2453 C2457 1.495 . S
C2454 C2453 1.392 . S
C2454 C2455 1.385 . S
C2454 C2456 1.478 . S
C2455 H2449 0.930 . S
C2455 C2451 1.400 1_655 S
C2455 C2454 1.385 . S
C2456 C2454 1.478 . S
C2456 C2458 1.381 . S
C2456 C2462 1.383 . S
C2457 C2453 1.495 . S
C2457 H2463 0.959 . S
C2457 H2464 0.961 . S
C2457 H2465 0.960 . S
C2458 C2456 1.381 . S
C2458 C2459 1.394 . S
C2458 H2466 0.930 . S
C2459 C2458 1.394 . S
C2459 C2460 1.383 . S
C2459 H2467 0.929 . S
C2460 C2459 1.383 . S
C2460 C2461 1.377 . S
C2461 H2445 0.930 . S
C2461 C2460 1.377 . S
C2461 C2462 1.379 . S
C2462 H2446 0.931 . S
C2462 C2456 1.383 . S
C2462 C2461 1.379 . S
H2463 C2457 0.959 . S
H2464 C2457 0.961 . S
H2465 C2457 0.960 . S
H2466 C2458 0.930 . S
H2467 C2459 0.929 . S
H2468 C2476 0.929 . S
H2469 C2478 0.930 . S
H2470 C2480 0.930 . S
H2471 C2483 0.915 1_455 S
H2472 C2486 0.930 . S
H2473 C2488 0.960 . S
H2474 C2488 0.960 . S
H2475 C2488 0.960 . S
C2476 H2468 0.929 . S
C2476 C2477 1.377 . S
C2476 C2478 1.384 . S
C2477 C2476 1.377 . S
C2477 C2483 1.409 . S
C2478 H2469 0.930 . S
C2478 C2476 1.384 . S
C2478 C2479 1.372 . S
C2479 C2478 1.372 . S
C2479 C2480 1.400 1_655 S
C2479 C2484 1.490 . S
C2480 H2470 0.930 . S
C2480 C2479 1.400 1_455 S
C2480 C2483 1.381 1_455 S
H2481 C2497 0.930 . S
H2482 C2498 0.931 . S
C2483 H2471 0.915 1_655 S
C2483 C2477 1.409 . S
C2483 C2480 1.381 1_655 S
C2484 C2479 1.490 . S
C2484 C2486 1.395 . S
C2484 C2487 1.403 1_655 S
H2485 C2491 0.930 . S
C2486 H2472 0.930 . S
C2486 C2484 1.395 . S
C2486 C2489 1.403 . S
C2487 C2484 1.403 1_455 S
C2487 C2488 1.524 . S
C2487 C2491 1.400 . S
C2488 H2473 0.960 . S
C2488 H2474 0.960 . S
C2488 H2475 0.960 . S
C2488 C2487 1.524 . S
C2489 C2486 1.403 . S
C2489 C2490 1.397 . S
C2489 C2493 1.495 . S
C2490 C2489 1.397 . S
C2490 C2491 1.381 1_655 S
C2490 C2492 1.477 1_655 S
C2491 H2485 0.930 . S
C2491 C2487 1.400 . S
C2491 C2490 1.381 1_455 S
C2492 C2490 1.477 1_455 S
C2492 C2494 1.381 1_455 S
C2492 C2498 1.383 . S
C2493 C2489 1.495 . S
C2493 H2499 0.959 . S
C2493 H2500 0.961 . S
C2493 H2501 0.960 . S
C2494 C2492 1.381 1_655 S
C2494 C2495 1.394 1_655 S
C2494 H2502 0.930 . S
C2495 C2494 1.394 1_455 S
C2495 C2496 1.385 . S
C2495 H2503 0.928 1_455 S
C2496 C2495 1.385 . S
C2496 C2497 1.377 . S
C2497 H2481 0.930 . S
C2497 C2496 1.377 . S
C2497 C2498 1.379 . S
C2498 H2482 0.931 . S
C2498 C2492 1.383 . S
C2498 C2497 1.379 . S
H2499 C2493 0.959 . S
H2500 C2493 0.961 . S
H2501 C2493 0.960 . S
H2502 C2494 0.930 . S
H2503 C2495 0.928 1_655 S
H2504 C2512 0.929 . S
H2505 C2514 0.930 . S
H2506 C2516 0.930 . S
H2507 C2519 0.929 . S
H2508 C2522 0.930 . S
H2509 C2524 0.960 . S
H2510 C2524 0.960 . S
H2511 C2524 0.960 . S
C2512 H2504 0.929 . S
C2512 C2513 1.377 . S
C2512 C2514 1.384 . S
C2513 C2512 1.377 . S
C2513 C2519 1.390 . S
C2514 H2505 0.930 . S
C2514 C2512 1.384 . S
C2514 C2515 1.372 . S
C2515 C2514 1.372 . S
C2515 C2516 1.400 . S
C2515 C2520 1.490 . S
C2516 H2506 0.930 . S
C2516 C2515 1.400 . S
C2516 C2519 1.386 . S
H2517 C2533 0.930 . S
H2518 C2534 0.931 . S
C2519 H2507 0.929 . S
C2519 C2513 1.390 . S
C2519 C2516 1.386 . S
C2520 C2515 1.490 . S
C2520 C2522 1.395 . S
C2520 C2523 1.403 . S
H2521 C2527 0.930 . S
C2522 H2508 0.930 . S
C2522 C2520 1.395 . S
C2522 C2525 1.403 . S
C2523 C2520 1.403 . S
C2523 C2524 1.524 . S
C2523 C2527 1.400 . S
C2524 H2509 0.960 . S
C2524 H2510 0.960 . S
C2524 H2511 0.960 . S
C2524 C2523 1.524 . S
C2525 C2522 1.403 . S
C2525 C2526 1.392 . S
C2525 C2529 1.495 . S
C2526 C2525 1.392 . S
C2526 C2527 1.385 . S
C2526 C2528 1.478 . S
C2527 H2521 0.930 . S
C2527 C2523 1.400 . S
C2527 C2526 1.385 . S
C2528 C2526 1.478 . S
C2528 C2530 1.381 . S
C2528 C2534 1.383 . S
C2529 C2525 1.495 . S
C2529 H2535 0.959 . S
C2529 H2536 0.961 . S
C2529 H2537 0.960 . S
C2530 C2528 1.381 . S
C2530 C2531 1.394 . S
C2530 H2538 0.930 . S
C2531 C2530 1.394 . S
C2531 C2532 1.383 . S
C2531 H2539 0.929 . S
C2532 C2531 1.383 . S
C2532 C2533 1.377 . S
C2533 H2517 0.930 . S
C2533 C2532 1.377 . S
C2533 C2534 1.379 . S
C2534 H2518 0.931 . S
C2534 C2528 1.383 . S
C2534 C2533 1.379 . S
H2535 C2529 0.959 . S
H2536 C2529 0.961 . S
H2537 C2529 0.960 . S
H2538 C2530 0.930 . S
H2539 C2531 0.929 . S
H2540 C2548 0.929 . S
H2541 C2550 0.930 . S
H2542 C2552 0.930 . S
H2543 C2555 0.929 . S
H2544 C2558 0.930 . S
H2545 C2560 0.960 . S
H2546 C2560 0.960 . S
H2547 C2560 0.960 . S
C2548 H2540 0.929 . S
C2548 C2549 1.377 . S
C2548 C2550 1.384 . S
C2549 C2548 1.377 . S
C2549 C2555 1.390 . S
C2550 H2541 0.930 . S
C2550 C2548 1.384 . S
C2550 C2551 1.372 . S
C2551 C2550 1.372 . S
C2551 C2552 1.400 . S
C2551 C2556 1.490 . S
C2552 H2542 0.930 . S
C2552 C2551 1.400 . S
C2552 C2555 1.386 . S
H2553 C2569 0.930 . S
H2554 C2570 0.931 . S
C2555 H2543 0.929 . S
C2555 C2549 1.390 . S
C2555 C2552 1.386 . S
C2556 C2551 1.490 . S
C2556 C2558 1.395 . S
C2556 C2559 1.403 . S
H2557 C2563 0.930 . S
C2558 H2544 0.930 . S
C2558 C2556 1.395 . S
C2558 C2561 1.403 . S
C2559 C2556 1.403 . S
C2559 C2560 1.524 . S
C2559 C2563 1.400 . S
C2560 H2545 0.960 . S
C2560 H2546 0.960 . S
C2560 H2547 0.960 . S
C2560 C2559 1.524 . S
C2561 C2558 1.403 . S
C2561 C2562 1.392 . S
C2561 C2565 1.495 . S
C2562 C2561 1.392 . S
C2562 C2563 1.385 . S
C2562 C2564 1.478 . S
C2563 H2557 0.930 . S
C2563 C2559 1.400 . S
C2563 C2562 1.385 . S
C2564 C2562 1.478 . S
C2564 C2566 1.381 . S
C2564 C2570 1.383 . S
C2565 C2561 1.495 . S
C2565 H2571 0.959 . S
C2565 H2572 0.961 . S
C2565 H2573 0.960 . S
C2566 C2564 1.381 . S
C2566 C2567 1.394 . S
C2566 H2574 0.930 . S
C2567 C2566 1.394 . S
C2567 C2568 1.383 . S
C2567 H2575 0.929 . S
C2568 C2567 1.383 . S
C2568 C2569 1.377 . S
C2569 H2553 0.930 . S
C2569 C2568 1.377 . S
C2569 C2570 1.379 . S
C2570 H2554 0.931 . S
C2570 C2564 1.383 . S
C2570 C2569 1.379 . S
H2571 C2565 0.959 . S
H2572 C2565 0.961 . S
H2573 C2565 0.960 . S
H2574 C2566 0.930 . S
H2575 C2567 0.929 . S
H2576 C2584 0.929 . S
H2577 C2586 0.930 . S
H2578 C2588 0.930 . S
H2579 C2591 0.929 . S
H2580 C2594 0.930 . S
H2581 C2596 0.960 . S
H2582 C2596 0.960 . S
H2583 C2596 0.960 . S
C2584 H2576 0.929 . S
C2584 C2585 1.377 . S
C2584 C2586 1.384 . S
C2585 C2584 1.377 . S
C2585 C2591 1.390 . S
C2586 H2577 0.930 . S
C2586 C2584 1.384 . S
C2586 C2587 1.372 . S
C2587 C2586 1.372 . S
C2587 C2588 1.400 . S
C2587 C2592 1.490 . S
C2588 H2578 0.930 . S
C2588 C2587 1.400 . S
C2588 C2591 1.386 . S
H2589 C2605 0.930 . S
H2590 C2606 0.931 . S
C2591 H2579 0.929 . S
C2591 C2585 1.390 . S
C2591 C2588 1.386 . S
C2592 C2587 1.490 . S
C2592 C2594 1.395 . S
C2592 C2595 1.403 . S
H2593 C2599 0.930 . S
C2594 H2580 0.930 . S
C2594 C2592 1.395 . S
C2594 C2597 1.403 1_655 S
C2595 C2592 1.403 . S
C2595 C2596 1.524 . S
C2595 C2599 1.400 1_655 S
C2596 H2581 0.960 . S
C2596 H2582 0.960 . S
C2596 H2583 0.960 . S
C2596 C2595 1.524 . S
C2597 C2594 1.403 1_455 S
C2597 C2598 1.392 . S
C2597 C2601 1.495 . S
C2598 C2597 1.392 . S
C2598 C2599 1.385 . S
C2598 C2600 1.478 . S
C2599 H2593 0.930 . S
C2599 C2595 1.400 1_455 S
C2599 C2598 1.385 . S
C2600 C2598 1.478 . S
C2600 C2602 1.381 . S
C2600 C2606 1.383 . S
C2601 C2597 1.495 . S
C2601 H2607 0.959 . S
C2601 H2608 0.961 . S
C2601 H2609 0.960 . S
C2602 C2600 1.381 . S
C2602 C2603 1.394 . S
C2602 H2610 0.930 . S
C2603 C2602 1.394 . S
C2603 C2604 1.383 . S
C2603 H2611 0.929 . S
C2604 C2603 1.383 . S
C2604 C2605 1.377 . S
C2605 H2589 0.930 . S
C2605 C2604 1.377 . S
C2605 C2606 1.379 . S
C2606 H2590 0.931 . S
C2606 C2600 1.383 . S
C2606 C2605 1.379 . S
H2607 C2601 0.959 . S
H2608 C2601 0.961 . S
H2609 C2601 0.960 . S
H2610 C2602 0.930 . S
H2611 C2603 0.929 . S
H2612 C2620 0.929 . S
H2613 C2622 0.930 . S
H2614 C2624 0.930 . S
H2615 C2627 0.929 . S
H2616 C2630 0.930 . S
H2617 C2632 0.960 . S
H2618 C2632 0.960 . S
H2619 C2632 0.960 . S
C2620 H2612 0.929 . S
C2620 C2621 1.377 . S
C2620 C2622 1.384 . S
C2621 C2620 1.377 . S
C2621 C2627 1.390 . S
C2622 H2613 0.930 . S
C2622 C2620 1.384 . S
C2622 C2623 1.372 . S
C2623 C2622 1.372 . S
C2623 C2624 1.400 . S
C2623 C2628 1.490 . S
C2624 H2614 0.930 . S
C2624 C2623 1.400 . S
C2624 C2627 1.386 . S
H2625 C2641 0.930 . S
H2626 C2642 0.931 . S
C2627 H2615 0.929 . S
C2627 C2621 1.390 . S
C2627 C2624 1.386 . S
C2628 C2623 1.490 . S
C2628 C2630 1.395 . S
C2628 C2631 1.403 . S
H2629 C2635 0.930 . S
C2630 H2616 0.930 . S
C2630 C2628 1.395 . S
C2630 C2633 1.403 . S
C2631 C2628 1.403 . S
C2631 C2632 1.524 . S
C2631 C2635 1.400 . S
C2632 H2617 0.960 . S
C2632 H2618 0.960 . S
C2632 H2619 0.960 . S
C2632 C2631 1.524 . S
C2633 C2630 1.403 . S
C2633 C2634 1.392 . S
C2633 C2637 1.495 . S
C2634 C2633 1.392 . S
C2634 C2635 1.385 . S
C2634 C2636 1.478 . S
C2635 H2629 0.930 . S
C2635 C2631 1.400 . S
C2635 C2634 1.385 . S
C2636 C2634 1.478 . S
C2636 C2638 1.381 . S
C2636 C2642 1.383 . S
C2637 C2633 1.495 . S
C2637 H2643 0.959 . S
C2637 H2644 0.961 . S
C2637 H2645 0.960 . S
C2638 C2636 1.381 . S
C2638 C2639 1.394 . S
C2638 H2646 0.930 . S
C2639 C2638 1.394 . S
C2639 C2640 1.383 . S
C2639 H2647 0.929 . S
C2640 C2639 1.383 . S
C2640 C2641 1.377 . S
C2641 H2625 0.930 . S
C2641 C2640 1.377 . S
C2641 C2642 1.379 . S
C2642 H2626 0.931 . S
C2642 C2636 1.383 . S
C2642 C2641 1.379 . S
H2643 C2637 0.959 . S
H2644 C2637 0.961 . S
H2645 C2637 0.960 . S
H2646 C2638 0.930 . S
H2647 C2639 0.929 . S
H2648 C2656 0.929 . S
H2649 C2658 0.930 . S
H2650 C2660 0.930 . S
H2651 C2663 0.929 . S
H2652 C2666 0.930 . S
H2653 C2668 0.960 . S
H2654 C2668 0.960 . S
H2655 C2668 0.960 . S
C2656 H2648 0.929 . S
C2656 C2657 1.377 . S
C2656 C2658 1.384 . S
C2657 C2656 1.377 . S
C2657 C2663 1.390 . S
C2658 H2649 0.930 . S
C2658 C2656 1.384 . S
C2658 C2659 1.372 . S
C2659 C2658 1.372 . S
C2659 C2660 1.400 . S
C2659 C2664 1.490 . S
C2660 H2650 0.930 . S
C2660 C2659 1.400 . S
C2660 C2663 1.386 . S
H2661 C2677 0.930 . S
H2662 C2678 0.931 . S
C2663 H2651 0.929 . S
C2663 C2657 1.390 . S
C2663 C2660 1.386 . S
C2664 C2659 1.490 . S
C2664 C2666 1.395 . S
C2664 C2667 1.403 . S
H2665 C2671 0.930 . S
C2666 H2652 0.930 . S
C2666 C2664 1.395 . S
C2666 C2669 1.403 . S
C2667 C2664 1.403 . S
C2667 C2668 1.524 . S
C2667 C2671 1.400 . S
C2668 H2653 0.960 . S
C2668 H2654 0.960 . S
C2668 H2655 0.960 . S
C2668 C2667 1.524 . S
C2669 C2666 1.403 . S
C2669 C2670 1.392 . S
C2669 C2673 1.495 . S
C2670 C2669 1.392 . S
C2670 C2671 1.385 . S
C2670 C2672 1.478 . S
C2671 H2665 0.930 . S
C2671 C2667 1.400 . S
C2671 C2670 1.385 . S
C2672 C2670 1.478 . S
C2672 C2674 1.381 . S
C2672 C2678 1.383 . S
C2673 C2669 1.495 . S
C2673 H2679 0.959 . S
C2673 H2680 0.961 . S
C2673 H2681 0.960 . S
C2674 C2672 1.381 . S
C2674 C2675 1.394 . S
C2674 H2682 0.930 . S
C2675 C2674 1.394 . S
C2675 C2676 1.383 . S
C2675 H2683 0.929 . S
C2676 C2675 1.383 . S
C2676 C2677 1.377 . S
C2677 H2661 0.930 . S
C2677 C2676 1.377 . S
C2677 C2678 1.379 . S
C2678 H2662 0.931 . S
C2678 C2672 1.383 . S
C2678 C2677 1.379 . S
H2679 C2673 0.959 . S
H2680 C2673 0.961 . S
H2681 C2673 0.960 . S
H2682 C2674 0.930 . S
H2683 C2675 0.929 . S
H2684 C2692 0.929 . S
H2685 C2694 0.930 . S
H2686 C2696 0.930 1_655 S
H2687 C2699 0.931 . S
H2688 C2702 0.930 . S
H2689 C2704 0.960 . S
H2690 C2704 0.960 . S
H2691 C2704 0.960 . S
C2692 H2684 0.929 . S
C2692 C2693 1.377 . S
C2692 C2694 1.384 . S
C2693 C2692 1.377 . S
C2693 C2699 1.390 . S
C2694 H2685 0.930 . S
C2694 C2692 1.384 . S
C2694 C2695 1.372 . S
C2695 C2694 1.372 . S
C2695 C2696 1.400 . S
C2695 C2700 1.490 . S
C2696 H2686 0.930 1_455 S
C2696 C2695 1.400 . S
C2696 C2699 1.386 . S
H2697 C2713 0.930 . S
H2698 C2714 0.931 . S
C2699 H2687 0.931 . S
C2699 C2693 1.390 . S
C2699 C2696 1.386 . S
C2700 C2695 1.490 . S
C2700 C2702 1.395 1_455 S
C2700 C2703 1.403 . S
H2701 C2707 0.930 . S
C2702 H2688 0.930 . S
C2702 C2700 1.395 1_655 S
C2702 C2705 1.403 . S
C2703 C2700 1.403 . S
C2703 C2704 1.524 . S
C2703 C2707 1.400 . S
C2704 H2689 0.960 . S
C2704 H2690 0.960 . S
C2704 H2691 0.960 . S
C2704 C2703 1.524 . S
C2705 C2702 1.403 . S
C2705 C2706 1.392 . S
C2705 C2709 1.495 . S
C2706 C2705 1.392 . S
C2706 C2707 1.385 1_655 S
C2706 C2708 1.478 . S
C2707 H2701 0.930 . S
C2707 C2703 1.400 . S
C2707 C2706 1.385 1_455 S
C2708 C2706 1.478 . S
C2708 C2710 1.381 . S
C2708 C2714 1.383 . S
C2709 C2705 1.495 . S
C2709 H2715 0.959 . S
C2709 H2716 0.961 . S
C2709 H2717 0.960 . S
C2710 C2708 1.381 . S
C2710 C2711 1.394 . S
C2710 H2718 0.930 1_655 S
C2711 C2710 1.394 . S
C2711 C2712 1.383 . S
C2711 H2719 0.929 1_655 S
C2712 C2711 1.383 . S
C2712 C2713 1.377 . S
C2713 H2697 0.930 . S
C2713 C2712 1.377 . S
C2713 C2714 1.379 . S
C2714 H2698 0.931 . S
C2714 C2708 1.383 . S
C2714 C2713 1.379 . S
H2715 C2709 0.959 . S
H2716 C2709 0.961 . S
H2717 C2709 0.960 . S
H2718 C2710 0.930 1_455 S
H2719 C2711 0.929 1_455 S
H2720 C2728 0.929 . S
H2721 C2730 0.930 . S
H2722 C2732 0.930 . S
H2723 C2735 0.929 . S
H2724 C2738 0.930 . S
H2725 C2740 0.960 . S
H2726 C2740 0.960 . S
H2727 C2740 0.960 . S
C2728 H2720 0.929 . S
C2728 C2729 1.377 . S
C2728 C2730 1.384 . S
C2729 C2728 1.377 . S
C2729 C2735 1.390 . S
C2730 H2721 0.930 . S
C2730 C2728 1.384 . S
C2730 C2731 1.372 . S
C2731 C2730 1.372 . S
C2731 C2732 1.400 . S
C2731 C2736 1.490 . S
C2732 H2722 0.930 . S
C2732 C2731 1.400 . S
C2732 C2735 1.386 . S
H2733 C2749 0.930 . S
H2734 C2750 0.931 . S
C2735 H2723 0.929 . S
C2735 C2729 1.390 . S
C2735 C2732 1.386 . S
C2736 C2731 1.490 . S
C2736 C2738 1.395 . S
C2736 C2739 1.403 . S
H2737 C2743 0.930 . S
C2738 H2724 0.930 . S
C2738 C2736 1.395 . S
C2738 C2741 1.403 1_455 S
C2739 C2736 1.403 . S
C2739 C2740 1.524 . S
C2739 C2743 1.400 1_455 S
C2740 H2725 0.960 . S
C2740 H2726 0.960 . S
C2740 H2727 0.960 . S
C2740 C2739 1.524 . S
C2741 C2738 1.403 1_655 S
C2741 C2742 1.392 . S
C2741 C2745 1.495 . S
C2742 C2741 1.392 . S
C2742 C2743 1.385 . S
C2742 C2744 1.478 . S
C2743 H2737 0.930 . S
C2743 C2739 1.400 1_655 S
C2743 C2742 1.385 . S
C2744 C2742 1.478 . S
C2744 C2746 1.381 . S
C2744 C2750 1.383 . S
C2745 C2741 1.495 . S
C2745 H2751 0.959 . S
C2745 H2752 0.961 . S
C2745 H2753 0.960 . S
C2746 C2744 1.381 . S
C2746 C2747 1.394 . S
C2746 H2754 0.930 . S
C2747 C2746 1.394 . S
C2747 C2748 1.383 . S
C2747 H2755 0.929 . S
C2748 C2747 1.383 . S
C2748 C2749 1.377 . S
C2749 H2733 0.930 . S
C2749 C2748 1.377 . S
C2749 C2750 1.379 . S
C2750 H2734 0.931 . S
C2750 C2744 1.383 . S
C2750 C2749 1.379 . S
H2751 C2745 0.959 . S
H2752 C2745 0.961 . S
H2753 C2745 0.960 . S
H2754 C2746 0.930 . S
H2755 C2747 0.929 . S
H2756 C2764 0.929 . S
H2757 C2766 0.930 . S
H2758 C2768 0.930 . S
H2759 C2771 0.929 . S
H2760 C2774 0.930 . S
H2761 C2776 0.960 . S
H2762 C2776 0.960 . S
H2763 C2776 0.960 . S
C2764 H2756 0.929 . S
C2764 C2765 1.377 . S
C2764 C2766 1.384 . S
C2765 C2764 1.377 . S
C2765 C2771 1.390 . S
C2766 H2757 0.930 . S
C2766 C2764 1.384 . S
C2766 C2767 1.372 . S
C2767 C2766 1.372 . S
C2767 C2768 1.400 . S
C2767 C2772 1.490 . S
C2768 H2758 0.930 . S
C2768 C2767 1.400 . S
C2768 C2771 1.386 . S
H2769 C2785 0.930 . S
H2770 C2786 0.931 . S
C2771 H2759 0.929 . S
C2771 C2765 1.390 . S
C2771 C2768 1.386 . S
C2772 C2767 1.490 . S
C2772 C2774 1.395 1_655 S
C2772 C2775 1.403 . S
H2773 C2779 0.930 . S
C2774 H2760 0.930 . S
C2774 C2772 1.395 1_455 S
C2774 C2777 1.403 . S
C2775 C2772 1.403 . S
C2775 C2776 1.524 . S
C2775 C2779 1.400 . S
C2776 H2761 0.960 . S
C2776 H2762 0.960 . S
C2776 H2763 0.960 . S
C2776 C2775 1.524 . S
C2777 C2774 1.403 . S
C2777 C2778 1.392 . S
C2777 C2781 1.495 . S
C2778 C2777 1.392 . S
C2778 C2779 1.385 1_455 S
C2778 C2780 1.478 . S
C2779 H2773 0.930 . S
C2779 C2775 1.400 . S
C2779 C2778 1.385 1_655 S
C2780 C2778 1.478 . S
C2780 C2782 1.381 . S
C2780 C2786 1.383 . S
C2781 C2777 1.495 . S
C2781 H2787 0.959 . S
C2781 H2788 0.961 . S
C2781 H2789 0.960 . S
C2782 C2780 1.381 . S
C2782 C2783 1.394 . S
C2782 H2790 0.930 . S
C2783 C2782 1.394 . S
C2783 C2784 1.383 . S
C2783 H2791 0.929 . S
C2784 C2783 1.383 . S
C2784 C2785 1.377 . S
C2785 H2769 0.930 . S
C2785 C2784 1.377 . S
C2785 C2786 1.379 . S
C2786 H2770 0.931 . S
C2786 C2780 1.383 . S
C2786 C2785 1.379 . S
H2787 C2781 0.959 . S
H2788 C2781 0.961 . S
H2789 C2781 0.960 . S
H2790 C2782 0.930 . S
H2791 C2783 0.929 . S
H2792 C2800 0.929 . S
H2793 C2802 0.930 . S
H2794 C2804 0.930 . S
H2795 C2807 0.929 . S
H2796 C2810 0.930 . S
H2797 C2812 0.960 . S
H2798 C2812 0.960 . S
H2799 C2812 0.960 . S
C2800 H2792 0.929 . S
C2800 C2801 1.377 . S
C2800 C2802 1.384 . S
C2801 C2800 1.377 . S
C2801 C2807 1.390 . S
C2802 H2793 0.930 . S
C2802 C2800 1.384 . S
C2802 C2803 1.372 . S
C2803 C2802 1.372 . S
C2803 C2804 1.400 . S
C2803 C2808 1.490 . S
C2804 H2794 0.930 . S
C2804 C2803 1.400 . S
C2804 C2807 1.386 . S
H2805 C2821 0.930 . S
H2806 C2822 0.931 . S
C2807 H2795 0.929 . S
C2807 C2801 1.390 . S
C2807 C2804 1.386 . S
C2808 C2803 1.490 . S
C2808 C2810 1.395 . S
C2808 C2811 1.403 . S
H2809 C2815 0.930 . S
C2810 H2796 0.930 . S
C2810 C2808 1.395 . S
C2810 C2813 1.403 . S
C2811 C2808 1.403 . S
C2811 C2812 1.524 . S
C2811 C2815 1.400 . S
C2812 H2797 0.960 . S
C2812 H2798 0.960 . S
C2812 H2799 0.960 . S
C2812 C2811 1.524 . S
C2813 C2810 1.403 . S
C2813 C2814 1.392 . S
C2813 C2817 1.495 . S
C2814 C2813 1.392 . S
C2814 C2815 1.385 . S
C2814 C2816 1.478 . S
C2815 H2809 0.930 . S
C2815 C2811 1.400 . S
C2815 C2814 1.385 . S
C2816 C2814 1.478 . S
C2816 C2818 1.381 . S
C2816 C2822 1.383 . S
C2817 C2813 1.495 . S
C2817 H2823 0.959 . S
C2817 H2824 0.961 . S
C2817 H2825 0.960 . S
C2818 C2816 1.381 . S
C2818 C2819 1.394 . S
C2818 H2826 0.930 . S
C2819 C2818 1.394 . S
C2819 C2820 1.383 . S
C2819 H2827 0.929 . S
C2820 C2819 1.383 . S
C2820 C2821 1.377 . S
C2821 H2805 0.930 . S
C2821 C2820 1.377 . S
C2821 C2822 1.379 . S
C2822 H2806 0.931 . S
C2822 C2816 1.383 . S
C2822 C2821 1.379 . S
H2823 C2817 0.959 . S
H2824 C2817 0.961 . S
H2825 C2817 0.960 . S
H2826 C2818 0.930 . S
H2827 C2819 0.929 . S
H2828 C2836 0.929 . S
H2829 C2838 0.930 . S
H2830 C2840 0.930 . S
H2831 C2843 0.929 . S
H2832 C2846 0.930 . S
H2833 C2848 0.960 . S
H2834 C2848 0.960 . S
H2835 C2848 0.960 . S
C2836 H2828 0.929 . S
C2836 C2837 1.377 . S
C2836 C2838 1.384 . S
C2837 C2836 1.377 . S
C2837 C2843 1.390 . S
C2838 H2829 0.930 . S
C2838 C2836 1.384 . S
C2838 C2839 1.372 . S
C2839 C2838 1.372 . S
C2839 C2840 1.400 . S
C2839 C2844 1.490 . S
C2840 H2830 0.930 . S
C2840 C2839 1.400 . S
C2840 C2843 1.386 . S
H2841 C2857 0.930 . S
H2842 C2858 0.931 . S
C2843 H2831 0.929 . S
C2843 C2837 1.390 . S
C2843 C2840 1.386 . S
C2844 C2839 1.490 . S
C2844 C2846 1.395 . S
C2844 C2847 1.403 . S
H2845 C2851 0.930 . S
C2846 H2832 0.930 . S
C2846 C2844 1.395 . S
C2846 C2849 1.403 . S
C2847 C2844 1.403 . S
C2847 C2848 1.524 . S
C2847 C2851 1.400 . S
C2848 H2833 0.960 . S
C2848 H2834 0.960 . S
C2848 H2835 0.960 . S
C2848 C2847 1.524 . S
C2849 C2846 1.403 . S
C2849 C2850 1.392 . S
C2849 C2853 1.495 . S
C2850 C2849 1.392 . S
C2850 C2851 1.385 . S
C2850 C2852 1.478 . S
C2851 H2845 0.930 . S
C2851 C2847 1.400 . S
C2851 C2850 1.385 . S
C2852 C2850 1.478 . S
C2852 C2854 1.381 . S
C2852 C2858 1.383 . S
C2853 C2849 1.495 . S
C2853 H2859 0.959 . S
C2853 H2860 0.961 . S
C2853 H2861 0.960 . S
C2854 C2852 1.381 . S
C2854 C2855 1.394 . S
C2854 H2862 0.930 . S
C2855 C2854 1.394 . S
C2855 C2856 1.383 . S
C2855 H2863 0.929 . S
C2856 C2855 1.383 . S
C2856 C2857 1.377 . S
C2857 H2841 0.930 . S
C2857 C2856 1.377 . S
C2857 C2858 1.379 . S
C2858 H2842 0.931 . S
C2858 C2852 1.383 . S
C2858 C2857 1.379 . S
H2859 C2853 0.959 . S
H2860 C2853 0.961 . S
H2861 C2853 0.960 . S
H2862 C2854 0.930 . S
H2863 C2855 0.929 . S
H2864 C2872 0.929 . S
H2865 C2874 0.930 . S
H2866 C2876 0.930 . S
H2867 C2879 0.929 . S
H2868 C2882 0.930 . S
H2869 C2884 0.977 . S
H2870 C2884 0.960 . S
H2871 C2884 0.960 . S
C2872 H2864 0.929 . S
C2872 C2873 1.377 . S
C2872 C2874 1.384 . S
C2873 C2872 1.377 . S
C2873 C2879 1.390 . S
C2874 H2865 0.930 . S
C2874 C2872 1.384 . S
C2874 C2875 1.372 . S
C2875 C2874 1.372 . S
C2875 C2876 1.400 . S
C2875 C2880 1.490 . S
C2876 H2866 0.930 . S
C2876 C2875 1.400 . S
C2876 C2879 1.386 . S
H2877 C2893 0.930 . S
H2878 C2894 0.931 . S
C2879 H2867 0.929 . S
C2879 C2873 1.390 . S
C2879 C2876 1.386 . S
C2880 C2875 1.490 . S
C2880 C2882 1.395 . S
C2880 C2883 1.403 . S
H2881 C2887 0.930 . S
C2882 H2868 0.930 . S
C2882 C2880 1.395 . S
C2882 C2885 1.403 1_455 S
C2883 C2880 1.403 . S
C2883 C2884 1.524 . S
C2883 C2887 1.400 1_455 S
C2884 H2869 0.977 . S
C2884 H2870 0.960 . S
C2884 H2871 0.960 . S
C2884 C2883 1.524 . S
C2885 C2882 1.403 1_655 S
C2885 C2886 1.392 . S
C2885 C2889 1.495 . S
C2886 C2885 1.392 . S
C2886 C2887 1.385 . S
C2886 C2888 1.478 . S
C2887 H2881 0.930 . S
C2887 C2883 1.400 1_655 S
C2887 C2886 1.385 . S
C2888 C2886 1.478 . S
C2888 C2890 1.381 . S
C2888 C2894 1.383 . S
C2889 C2885 1.495 . S
C2889 H2895 0.972 . S
C2889 H2896 0.961 . S
C2889 H2897 0.960 . S
C2890 C2888 1.381 . S
C2890 C2891 1.394 . S
C2890 H2898 0.930 . S
C2891 C2890 1.394 . S
C2891 C2892 1.383 . S
C2891 H2899 0.929 . S
C2892 C2891 1.383 . S
C2892 C2893 1.377 . S
C2893 H2877 0.930 . S
C2893 C2892 1.377 . S
C2893 C2894 1.379 . S
C2894 H2878 0.931 . S
C2894 C2888 1.383 . S
C2894 C2893 1.379 . S
H2895 C2889 0.972 . S
H2896 C2889 0.961 . S
H2897 C2889 0.960 . S
H2898 C2890 0.930 . S
H2899 C2891 0.929 . S
H2900 C2908 0.929 . S
H2901 C2910 0.930 . S
H2902 C2912 0.930 . S
H2903 C2915 0.929 . S
H2904 C2918 0.930 . S
H2905 C2920 0.960 . S
H2906 C2920 0.960 . S
H2907 C2920 0.960 . S
C2908 H2900 0.929 . S
C2908 C2909 1.377 . S
C2908 C2910 1.384 . S
C2909 C2908 1.377 . S
C2909 C2915 1.390 . S
C2910 H2901 0.930 . S
C2910 C2908 1.384 . S
C2910 C2911 1.372 . S
C2911 C2910 1.372 . S
C2911 C2912 1.400 . S
C2911 C2916 1.490 . S
C2912 H2902 0.930 . S
C2912 C2911 1.400 . S
C2912 C2915 1.386 . S
H2913 C2929 0.930 . S
H2914 C2930 0.931 . S
C2915 H2903 0.929 . S
C2915 C2909 1.390 . S
C2915 C2912 1.386 . S
C2916 C2911 1.490 . S
C2916 C2918 1.395 . S
C2916 C2919 1.403 . S
H2917 C2923 0.930 . S
C2918 H2904 0.930 . S
C2918 C2916 1.395 . S
C2918 C2921 1.403 . S
C2919 C2916 1.403 . S
C2919 C2920 1.524 . S
C2919 C2923 1.400 . S
C2920 H2905 0.960 . S
C2920 H2906 0.960 . S
C2920 H2907 0.960 . S
C2920 C2919 1.524 . S
C2921 C2918 1.403 . S
C2921 C2922 1.392 . S
C2921 C2925 1.495 . S
C2922 C2921 1.392 . S
C2922 C2923 1.385 . S
C2922 C2924 1.478 . S
C2923 H2917 0.930 . S
C2923 C2919 1.400 . S
C2923 C2922 1.385 . S
C2924 C2922 1.478 . S
C2924 C2926 1.381 . S
C2924 C2930 1.383 . S
C2925 C2921 1.495 . S
C2925 H2931 0.959 . S
C2925 H2932 0.961 . S
C2925 H2933 0.960 . S
C2926 C2924 1.381 . S
C2926 C2927 1.394 . S
C2926 H2934 0.930 . S
C2927 C2926 1.394 . S
C2927 C2928 1.383 . S
C2927 H2935 0.929 . S
C2928 C2927 1.383 . S
C2928 C2929 1.377 . S
C2929 H2913 0.930 . S
C2929 C2928 1.377 . S
C2929 C2930 1.379 . S
C2930 H2914 0.931 . S
C2930 C2924 1.383 . S
C2930 C2929 1.379 . S
H2931 C2925 0.959 . S
H2932 C2925 0.961 . S
H2933 C2925 0.960 . S
H2934 C2926 0.930 . S
H2935 C2927 0.929 . S
H2936 C2944 0.929 . S
H2937 C2946 0.930 . S
H2938 C2948 0.930 . S
H2939 C2951 0.929 . S
H2940 C2954 0.930 . S
H2941 C2956 0.960 . S
H2942 C2956 0.960 . S
H2943 C2956 0.960 . S
C2944 H2936 0.929 . S
C2944 C2945 1.377 . S
C2944 C2946 1.384 . S
C2945 C2944 1.377 . S
C2945 C2951 1.390 . S
C2946 H2937 0.930 . S
C2946 C2944 1.384 . S
C2946 C2947 1.372 . S
C2947 C2946 1.372 . S
C2947 C2948 1.400 . S
C2947 C2952 1.490 . S
C2948 H2938 0.930 . S
C2948 C2947 1.400 . S
C2948 C2951 1.386 . S
H2949 C2965 0.930 . S
H2950 C2966 0.931 . S
C2951 H2939 0.929 . S
C2951 C2945 1.390 . S
C2951 C2948 1.386 . S
C2952 C2947 1.490 . S
C2952 C2954 1.395 . S
C2952 C2955 1.403 . S
H2953 C2959 0.930 . S
C2954 H2940 0.930 . S
C2954 C2952 1.395 . S
C2954 C2957 1.403 . S
C2955 C2952 1.403 . S
C2955 C2956 1.524 . S
C2955 C2959 1.400 . S
C2956 H2941 0.960 . S
C2956 H2942 0.960 . S
C2956 H2943 0.960 . S
C2956 C2955 1.524 . S
C2957 C2954 1.403 . S
C2957 C2958 1.392 . S
C2957 C2961 1.495 . S
C2958 C2957 1.392 . S
C2958 C2959 1.385 . S
C2958 C2960 1.478 . S
C2959 H2953 0.930 . S
C2959 C2955 1.400 . S
C2959 C2958 1.385 . S
C2960 C2958 1.478 . S
C2960 C2962 1.381 . S
C2960 C2966 1.383 . S
C2961 C2957 1.495 . S
C2961 H2967 0.959 . S
C2961 H2968 0.961 . S
C2961 H2969 0.960 . S
C2962 C2960 1.381 . S
C2962 C2963 1.394 . S
C2962 H2970 0.930 . S
C2963 C2962 1.394 . S
C2963 C2964 1.383 . S
C2963 H2971 0.929 . S
C2964 C2963 1.383 . S
C2964 C2965 1.377 . S
C2965 H2949 0.930 . S
C2965 C2964 1.377 . S
C2965 C2966 1.379 . S
C2966 H2950 0.931 . S
C2966 C2960 1.383 . S
C2966 C2965 1.379 . S
H2967 C2961 0.959 . S
H2968 C2961 0.961 . S
H2969 C2961 0.960 . S
H2970 C2962 0.930 . S
H2971 C2963 0.929 . S
H2972 C2980 0.929 . S
H2973 C2982 0.930 . S
H2974 C2984 0.930 . S
H2975 C2987 0.929 . S
H2976 C2990 0.930 . S
H2977 C2992 0.960 . S
H2978 C2992 0.960 . S
H2979 C2992 0.960 . S
C2980 H2972 0.929 . S
C2980 C2981 1.377 . S
C2980 C2982 1.384 . S
C2981 C2980 1.377 . S
C2981 C2987 1.390 . S
C2982 H2973 0.930 . S
C2982 C2980 1.384 . S
C2982 C2983 1.372 . S
C2983 C2982 1.372 . S
C2983 C2984 1.400 . S
C2983 C2988 1.490 . S
C2984 H2974 0.930 . S
C2984 C2983 1.400 . S
C2984 C2987 1.386 . S
H2985 C3001 0.930 . S
H2986 C3002 0.931 1_655 S
C2987 H2975 0.929 . S
C2987 C2981 1.390 . S
C2987 C2984 1.386 . S
C2988 C2983 1.490 . S
C2988 C2990 1.395 . S
C2988 C2991 1.403 1_655 S
H2989 C2995 0.930 . S
C2990 H2976 0.930 . S
C2990 C2988 1.395 . S
C2990 C2993 1.403 . S
C2991 C2988 1.403 1_455 S
C2991 C2992 1.524 . S
C2991 C2995 1.400 . S
C2992 H2977 0.960 . S
C2992 H2978 0.960 . S
C2992 H2979 0.960 . S
C2992 C2991 1.524 . S
C2993 C2990 1.403 . S
C2993 C2994 1.392 1_655 S
C2993 C2997 1.495 . S
C2994 C2993 1.392 1_455 S
C2994 C2995 1.385 . S
C2994 C2996 1.478 . S
C2995 H2989 0.930 . S
C2995 C2991 1.400 . S
C2995 C2994 1.385 . S
C2996 C2994 1.478 . S
C2996 C2998 1.381 . S
C2996 C3002 1.383 . S
C2997 C2993 1.495 . S
C2997 H3003 0.959 . S
C2997 H3004 0.961 . S
C2997 H3005 0.960 . S
C2998 C2996 1.381 . S
C2998 C2999 1.394 . S
C2998 H3006 0.930 . S
C2999 C2998 1.394 . S
C2999 C3000 1.383 . S
C2999 H3007 0.929 . S
C3000 C2999 1.383 . S
C3000 C3001 1.377 . S
C3001 H2985 0.930 . S
C3001 C3000 1.377 . S
C3001 C3002 1.379 . S
C3002 H2986 0.931 1_455 S
C3002 C2996 1.383 . S
C3002 C3001 1.379 . S
H3003 C2997 0.959 . S
H3004 C2997 0.961 . S
H3005 C2997 0.960 . S
H3006 C2998 0.930 . S
H3007 C2999 0.929 . S
H3008 C3016 0.929 . S
H3009 C3018 0.930 . S
H3010 C3020 0.930 . S
H3011 C3023 0.929 . S
H3012 C3026 0.930 . S
H3013 C3028 0.960 . S
H3014 C3028 0.960 . S
H3015 C3028 0.960 . S
C3016 H3008 0.929 . S
C3016 C3017 1.377 . S
C3016 C3018 1.384 . S
C3017 C3016 1.377 . S
C3017 C3023 1.390 . S
C3018 H3009 0.930 . S
C3018 C3016 1.384 . S
C3018 C3019 1.372 . S
C3019 C3018 1.372 . S
C3019 C3020 1.400 . S
C3019 C3024 1.490 . S
C3020 H3010 0.930 . S
C3020 C3019 1.400 . S
C3020 C3023 1.386 . S
H3021 C3037 0.930 . S
H3022 C3038 0.931 . S
C3023 H3011 0.929 . S
C3023 C3017 1.390 . S
C3023 C3020 1.386 . S
C3024 C3019 1.490 . S
C3024 C3026 1.395 . S
C3024 C3027 1.403 . S
H3025 C3031 0.930 . S
C3026 H3012 0.930 . S
C3026 C3024 1.395 . S
C3026 C3029 1.403 . S
C3027 C3024 1.403 . S
C3027 C3028 1.524 . S
C3027 C3031 1.400 . S
C3028 H3013 0.960 . S
C3028 H3014 0.960 . S
C3028 H3015 0.960 . S
C3028 C3027 1.524 . S
C3029 C3026 1.403 . S
C3029 C3030 1.392 . S
C3029 C3033 1.495 . S
C3030 C3029 1.392 . S
C3030 C3031 1.385 . S
C3030 C3032 1.478 . S
C3031 H3025 0.930 . S
C3031 C3027 1.400 . S
C3031 C3030 1.385 . S
C3032 C3030 1.478 . S
C3032 C3034 1.381 . S
C3032 C3038 1.383 . S
C3033 C3029 1.495 . S
C3033 H3039 0.959 . S
C3033 H3040 0.961 . S
C3033 H3041 0.960 . S
C3034 C3032 1.381 . S
C3034 C3035 1.394 . S
C3034 H3042 0.930 . S
C3035 C3034 1.394 . S
C3035 C3036 1.383 . S
C3035 H3043 0.929 . S
C3036 C3035 1.383 . S
C3036 C3037 1.377 . S
C3037 H3021 0.930 . S
C3037 C3036 1.377 . S
C3037 C3038 1.379 . S
C3038 H3022 0.931 . S
C3038 C3032 1.383 . S
C3038 C3037 1.379 . S
H3039 C3033 0.959 . S
H3040 C3033 0.961 . S
H3041 C3033 0.960 . S
H3042 C3034 0.930 . S
H3043 C3035 0.929 . S
H3044 C3052 0.929 . S
H3045 C3054 0.930 . S
H3046 C3056 0.930 . S
H3047 C3059 0.929 . S
H3048 C3062 0.930 . S
H3049 C3064 0.960 . S
H3050 C3064 0.960 . S
H3051 C3064 0.960 . S
C3052 H3044 0.929 . S
C3052 C3053 1.377 1_565 S
C3052 C3054 1.384 . S
C3053 C3052 1.377 1_545 S
C3053 C3059 1.390 . S
C3054 H3045 0.930 . S
C3054 C3052 1.384 . S
C3054 C3055 1.372 1_565 S
C3055 C3054 1.372 1_545 S
C3055 C3056 1.400 . S
C3055 C3060 1.490 . S
C3056 H3046 0.930 . S
C3056 C3055 1.400 . S
C3056 C3059 1.386 . S
H3057 C3073 0.930 . S
H3058 C3074 0.931 . S
C3059 H3047 0.929 . S
C3059 C3053 1.390 . S
C3059 C3056 1.386 . S
C3060 C3055 1.490 . S
C3060 C3062 1.395 1_645 S
C3060 C3063 1.403 . S
H3061 C3067 0.930 . S
C3062 H3048 0.930 . S
C3062 C3060 1.395 1_465 S
C3062 C3065 1.403 . S
C3063 C3060 1.403 . S
C3063 C3064 1.524 . S
C3063 C3067 1.400 . S
C3064 H3049 0.960 . S
C3064 H3050 0.960 . S
C3064 H3051 0.960 . S
C3064 C3063 1.524 . S
C3065 C3062 1.403 . S
C3065 C3066 1.392 . S
C3065 C3069 1.495 . S
C3066 C3065 1.392 . S
C3066 C3067 1.385 1_465 S
C3066 C3068 1.478 . S
C3067 H3061 0.930 . S
C3067 C3063 1.400 . S
C3067 C3066 1.385 1_645 S
C3068 C3066 1.478 . S
C3068 C3070 1.381 . S
C3068 C3074 1.383 1_565 S
C3069 C3065 1.495 . S
C3069 H3075 0.959 . S
C3069 H3076 0.961 . S
C3069 H3077 0.960 . S
C3070 C3068 1.381 . S
C3070 C3071 1.394 . S
C3070 H3078 0.930 . S
C3071 C3070 1.394 . S
C3071 C3072 1.383 . S
C3071 H3079 0.929 . S
C3072 C3071 1.383 . S
C3072 C3073 1.377 1_565 S
C3073 H3057 0.930 . S
C3073 C3072 1.377 1_545 S
C3073 C3074 1.379 . S
C3074 H3058 0.931 . S
C3074 C3068 1.383 1_545 S
C3074 C3073 1.379 . S
H3075 C3069 0.959 . S
H3076 C3069 0.961 . S
H3077 C3069 0.960 . S
H3078 C3070 0.930 . S
H3079 C3071 0.929 . S
H3080 C3088 0.929 . S
H3081 C3090 0.930 . S
H3082 C3092 0.930 . S
H3083 C3095 0.929 . S
H3084 C3098 0.930 . S
H3085 C3100 0.960 . S
H3086 C3100 0.960 . S
H3087 C3100 0.960 . S
C3088 H3080 0.929 . S
C3088 C3089 1.377 . S
C3088 C3090 1.384 . S
C3089 C3088 1.377 . S
C3089 C3095 1.390 . S
C3090 H3081 0.930 . S
C3090 C3088 1.384 . S
C3090 C3091 1.372 . S
C3091 C3090 1.372 . S
C3091 C3092 1.400 . S
C3091 C3096 1.490 . S
C3092 H3082 0.930 . S
C3092 C3091 1.400 . S
C3092 C3095 1.386 . S
H3093 C3109 0.930 . S
H3094 C3110 0.931 . S
C3095 H3083 0.929 . S
C3095 C3089 1.390 . S
C3095 C3092 1.386 . S
C3096 C3091 1.490 . S
C3096 C3098 1.395 . S
C3096 C3099 1.403 . S
H3097 C3103 0.930 . S
C3098 H3084 0.930 . S
C3098 C3096 1.395 . S
C3098 C3101 1.403 . S
C3099 C3096 1.403 . S
C3099 C3100 1.524 . S
C3099 C3103 1.400 . S
C3100 H3085 0.960 . S
C3100 H3086 0.960 . S
C3100 H3087 0.960 . S
C3100 C3099 1.524 . S
C3101 C3098 1.403 . S
C3101 C3102 1.392 . S
C3101 C3105 1.495 . S
C3102 C3101 1.392 . S
C3102 C3103 1.385 . S
C3102 C3104 1.478 . S
C3103 H3097 0.930 . S
C3103 C3099 1.400 . S
C3103 C3102 1.385 . S
C3104 C3102 1.478 . S
C3104 C3106 1.381 . S
C3104 C3110 1.383 . S
C3105 C3101 1.495 . S
C3105 H3111 0.959 . S
C3105 H3112 0.961 . S
C3105 H3113 0.960 . S
C3106 C3104 1.381 . S
C3106 C3107 1.394 . S
C3106 H3114 0.930 . S
C3107 C3106 1.394 . S
C3107 C3108 1.383 . S
C3107 H3115 0.929 . S
C3108 C3107 1.383 . S
C3108 C3109 1.377 . S
C3109 H3093 0.930 . S
C3109 C3108 1.377 . S
C3109 C3110 1.379 . S
C3110 H3094 0.931 . S
C3110 C3104 1.383 . S
C3110 C3109 1.379 . S
H3111 C3105 0.959 . S
H3112 C3105 0.961 . S
H3113 C3105 0.960 . S
H3114 C3106 0.930 . S
H3115 C3107 0.929 . S
H3116 C3124 0.929 . S
H3117 C3126 0.930 . S
H3118 C3128 0.930 . S
H3119 C3131 0.929 . S
H3120 C3134 0.930 . S
H3121 C3136 0.960 . S
H3122 C3136 0.960 . S
H3123 C3136 0.960 . S
C3124 H3116 0.929 . S
C3124 C3125 1.377 . S
C3124 C3126 1.384 . S
C3125 C3124 1.377 . S
C3125 C3131 1.390 . S
C3126 H3117 0.930 . S
C3126 C3124 1.384 . S
C3126 C3127 1.372 . S
C3127 C3126 1.372 . S
C3127 C3128 1.400 . S
C3127 C3132 1.490 . S
C3128 H3118 0.930 . S
C3128 C3127 1.400 . S
C3128 C3131 1.386 . S
H3129 C3145 0.930 . S
H3130 C3146 0.931 . S
C3131 H3119 0.929 . S
C3131 C3125 1.390 . S
C3131 C3128 1.386 . S
C3132 C3127 1.490 . S
C3132 C3134 1.395 . S
C3132 C3135 1.403 1_545 S
H3133 C3139 0.930 . S
C3134 H3120 0.930 . S
C3134 C3132 1.395 . S
C3134 C3137 1.403 1_554 S
C3135 C3132 1.403 1_565 S
C3135 C3136 1.524 . S
C3135 C3139 1.400 1_554 S
C3136 H3121 0.960 . S
C3136 H3122 0.960 . S
C3136 H3123 0.960 . S
C3136 C3135 1.524 . S
C3137 C3134 1.403 1_556 S
C3137 C3138 1.391 . S
C3137 C3141 1.495 . S
C3138 C3137 1.391 . S
C3138 C3139 1.387 1_545 S
C3138 C3140 1.478 1_545 S
C3139 H3133 0.930 . S
C3139 C3135 1.400 1_556 S
C3139 C3138 1.387 1_565 S
C3140 C3138 1.478 1_565 S
C3140 C3142 1.381 . S
C3140 C3146 1.383 . S
C3141 C3137 1.495 . S
C3141 H3147 0.959 . S
C3141 H3148 0.961 . S
C3141 H3149 0.960 . S
C3142 C3140 1.381 . S
C3142 C3143 1.394 . S
C3142 H3150 0.930 . S
C3143 C3142 1.394 . S
C3143 C3144 1.383 . S
C3143 H3151 0.929 . S
C3144 C3143 1.383 . S
C3144 C3145 1.377 . S
C3145 H3129 0.930 . S
C3145 C3144 1.377 . S
C3145 C3146 1.379 . S
C3146 H3130 0.931 . S
C3146 C3140 1.383 . S
C3146 C3145 1.379 . S
H3147 C3141 0.959 . S
H3148 C3141 0.961 . S
H3149 C3141 0.960 . S
H3150 C3142 0.930 . S
H3151 C3143 0.929 . S
H3152 C3160 0.929 . S
H3153 C3162 0.930 . S
H3154 C3164 0.930 . S
H3155 C3167 0.929 . S
H3156 C3170 0.930 . S
H3157 C3172 0.960 . S
H3158 C3172 0.960 . S
H3159 C3172 0.960 . S
C3160 H3152 0.929 . S
C3160 C3161 1.377 . S
C3160 C3162 1.384 . S
C3161 C3160 1.377 . S
C3161 C3167 1.390 . S
C3162 H3153 0.930 . S
C3162 C3160 1.384 . S
C3162 C3163 1.372 . S
C3163 C3162 1.372 . S
C3163 C3164 1.400 . S
C3163 C3168 1.490 . S
C3164 H3154 0.930 . S
C3164 C3163 1.400 . S
C3164 C3167 1.386 . S
H3165 C3181 0.930 . S
H3166 C3182 0.931 . S
C3167 H3155 0.929 . S
C3167 C3161 1.390 . S
C3167 C3164 1.386 . S
C3168 C3163 1.490 . S
C3168 C3170 1.395 . S
C3168 C3171 1.403 . S
H3169 C3175 0.930 . S
C3170 H3156 0.930 . S
C3170 C3168 1.395 . S
C3170 C3173 1.403 . S
C3171 C3168 1.403 . S
C3171 C3172 1.524 . S
C3171 C3175 1.400 . S
C3172 H3157 0.960 . S
C3172 H3158 0.960 . S
C3172 H3159 0.960 . S
C3172 C3171 1.524 . S
C3173 C3170 1.403 . S
C3173 C3174 1.392 . S
C3173 C3177 1.495 . S
C3174 C3173 1.392 . S
C3174 C3175 1.385 . S
C3174 C3176 1.478 . S
C3175 H3169 0.930 . S
C3175 C3171 1.400 . S
C3175 C3174 1.385 . S
C3176 C3174 1.478 . S
C3176 C3178 1.381 . S
C3176 C3182 1.383 . S
C3177 C3173 1.495 . S
C3177 H3183 0.959 . S
C3177 H3184 0.961 . S
C3177 H3185 0.960 . S
C3178 C3176 1.381 . S
C3178 C3179 1.394 . S
C3178 H3186 0.930 . S
C3179 C3178 1.394 . S
C3179 C3180 1.383 . S
C3179 H3187 0.929 . S
C3180 C3179 1.383 . S
C3180 C3181 1.377 . S
C3181 H3165 0.930 . S
C3181 C3180 1.377 . S
C3181 C3182 1.379 . S
C3182 H3166 0.931 . S
C3182 C3176 1.383 . S
C3182 C3181 1.379 . S
H3183 C3177 0.959 . S
H3184 C3177 0.961 . S
H3185 C3177 0.960 . S
H3186 C3178 0.930 . S
H3187 C3179 0.929 . S
H3188 C3196 0.929 . S
H3189 C3198 0.930 . S
H3190 C3200 0.930 . S
H3191 C3203 0.929 1_565 S
H3192 C3206 0.930 . S
H3193 C3208 0.960 . S
H3194 C3208 0.960 . S
H3195 C3208 0.960 . S
C3196 H3188 0.929 . S
C3196 C3197 1.377 . S
C3196 C3198 1.384 . S
C3197 C3196 1.377 . S
C3197 C3203 1.390 . S
C3198 H3189 0.930 . S
C3198 C3196 1.384 . S
C3198 C3199 1.372 . S
C3199 C3198 1.372 . S
C3199 C3200 1.400 1_545 S
C3199 C3204 1.490 . S
C3200 H3190 0.930 . S
C3200 C3199 1.400 1_565 S
C3200 C3203 1.386 1_565 S
H3201 C3217 0.930 . S
H3202 C3218 0.931 . S
C3203 H3191 0.929 1_545 S
C3203 C3197 1.390 . S
C3203 C3200 1.386 1_545 S
C3204 C3199 1.490 . S
C3204 C3206 1.395 . S
C3204 C3207 1.403 1_545 S
H3205 C3211 0.930 . S
C3206 H3192 0.930 . S
C3206 C3204 1.395 . S
C3206 C3209 1.403 . S
C3207 C3204 1.403 1_565 S
C3207 C3208 1.524 . S
C3207 C3211 1.400 . S
C3208 H3193 0.960 . S
C3208 H3194 0.960 . S
C3208 H3195 0.960 . S
C3208 C3207 1.524 . S
C3209 C3206 1.403 . S
C3209 C3210 1.418 . S
C3209 C3213 1.495 . S
C3210 C3209 1.418 . S
C3210 C3211 1.363 1_545 S
C3210 C3212 1.473 1_545 S
C3211 H3205 0.930 . S
C3211 C3207 1.400 . S
C3211 C3210 1.363 1_565 S
C3212 C3210 1.473 1_565 S
C3212 C3214 1.381 1_565 S
C3212 C3218 1.383 . S
C3213 C3209 1.495 . S
C3213 H3219 0.959 . S
C3213 H3220 0.961 . S
C3213 H3221 0.960 . S
C3214 C3212 1.381 1_545 S
C3214 C3215 1.394 1_545 S
C3214 H3222 0.930 . S
C3215 C3214 1.394 1_565 S
C3215 C3216 1.383 . S
C3215 H3223 0.929 1_565 S
C3216 C3215 1.383 . S
C3216 C3217 1.377 . S
C3217 H3201 0.930 . S
C3217 C3216 1.377 . S
C3217 C3218 1.379 . S
C3218 H3202 0.931 . S
C3218 C3212 1.383 . S
C3218 C3217 1.379 . S
H3219 C3213 0.959 . S
H3220 C3213 0.961 . S
H3221 C3213 0.960 . S
H3222 C3214 0.930 . S
H3223 C3215 0.929 1_545 S
H3224 C3232 0.929 . S
H3225 C3234 0.930 . S
H3226 C3236 0.930 . S
H3227 C3239 0.929 . S
H3228 C3242 0.930 . S
H3229 C3244 0.960 . S
H3230 C3244 0.960 . S
H3231 C3244 0.960 . S
C3232 H3224 0.929 . S
C3232 C3233 1.377 . S
C3232 C3234 1.384 . S
C3233 C3232 1.377 . S
C3233 C3239 1.390 . S
C3234 H3225 0.930 . S
C3234 C3232 1.384 . S
C3234 C3235 1.372 . S
C3235 C3234 1.372 . S
C3235 C3236 1.400 . S
C3235 C3240 1.490 . S
C3236 H3226 0.930 . S
C3236 C3235 1.400 . S
C3236 C3239 1.386 . S
H3237 C3253 0.930 . S
H3238 C3254 0.931 . S
C3239 H3227 0.929 . S
C3239 C3233 1.390 . S
C3239 C3236 1.386 . S
C3240 C3235 1.490 . S
C3240 C3242 1.395 . S
C3240 C3243 1.403 . S
H3241 C3247 0.930 . S
C3242 H3228 0.930 . S
C3242 C3240 1.395 . S
C3242 C3245 1.403 . S
C3243 C3240 1.403 . S
C3243 C3244 1.524 . S
C3243 C3247 1.400 . S
C3244 H3229 0.960 . S
C3244 H3230 0.960 . S
C3244 H3231 0.960 . S
C3244 C3243 1.524 . S
C3245 C3242 1.403 . S
C3245 C3246 1.392 . S
C3245 C3249 1.495 . S
C3246 C3245 1.392 . S
C3246 C3247 1.385 . S
C3246 C3248 1.478 . S
C3247 H3241 0.930 . S
C3247 C3243 1.400 . S
C3247 C3246 1.385 . S
C3248 C3246 1.478 . S
C3248 C3250 1.381 . S
C3248 C3254 1.383 . S
C3249 C3245 1.495 . S
C3249 H3255 0.959 . S
C3249 H3256 0.961 . S
C3249 H3257 0.960 . S
C3250 C3248 1.381 . S
C3250 C3251 1.394 . S
C3250 H3258 0.930 . S
C3251 C3250 1.394 . S
C3251 C3252 1.383 . S
C3251 H3259 0.929 . S
C3252 C3251 1.383 . S
C3252 C3253 1.377 . S
C3253 H3237 0.930 . S
C3253 C3252 1.377 . S
C3253 C3254 1.379 . S
C3254 H3238 0.931 . S
C3254 C3248 1.383 . S
C3254 C3253 1.379 . S
H3255 C3249 0.959 . S
H3256 C3249 0.961 . S
H3257 C3249 0.960 . S
H3258 C3250 0.930 . S
H3259 C3251 0.929 . S
H3260 C3268 0.932 1_655 S
H3261 C3270 0.930 . S
H3262 C3272 0.930 . S
H3263 C3275 0.929 . S
H3264 C3278 0.930 . S
H3265 C3280 0.960 1_554 S
H3266 C3280 0.960 . S
H3267 C3280 0.960 . S
C3268 H3260 0.932 1_455 S
C3268 C3269 1.374 . S
C3268 C3270 1.385 1_455 S
C3269 C3268 1.374 . S
C3269 C3275 1.390 . S
C3270 H3261 0.930 . S
C3270 C3268 1.385 1_655 S
C3270 C3271 1.372 1_655 S
C3271 C3270 1.372 1_455 S
C3271 C3272 1.400 . S
C3271 C3276 1.490 . S
C3272 H3262 0.930 . S
C3272 C3271 1.400 . S
C3272 C3275 1.386 . S
H3273 C3289 0.930 1_455 S
H3274 C3290 0.931 . S
C3275 H3263 0.929 . S
C3275 C3269 1.390 . S
C3275 C3272 1.386 . S
C3276 C3271 1.490 . S
C3276 C3278 1.395 1_445 S
C3276 C3279 1.403 . S
H3277 C3283 0.930 . S
C3278 H3264 0.930 . S
C3278 C3276 1.395 1_665 S
C3278 C3281 1.403 1_556 S
C3279 C3276 1.403 . S
C3279 C3280 1.524 . S
C3279 C3283 1.400 1_556 S
C3280 H3265 0.960 1_556 S
C3280 H3266 0.960 . S
C3280 H3267 0.960 . S
C3280 C3279 1.524 . S
C3281 C3278 1.403 1_554 S
C3281 C3282 1.392 . S
C3281 C3285 1.495 . S
C3282 C3281 1.392 . S
C3282 C3283 1.385 1_665 S
C3282 C3284 1.478 . S
C3283 H3277 0.930 . S
C3283 C3279 1.400 1_554 S
C3283 C3282 1.385 1_445 S
C3284 C3282 1.478 . S
C3284 C3286 1.381 . S
C3284 C3290 1.383 1_655 S
C3285 C3281 1.495 . S
C3285 H3291 0.959 1_554 S
C3285 H3292 0.961 . S
C3285 H3293 0.960 . S
C3286 C3284 1.381 . S
C3286 C3287 1.394 . S
C3286 H3294 0.930 . S
C3287 C3286 1.394 . S
C3287 C3288 1.383 . S
C3287 H3295 0.929 . S
C3288 C3287 1.383 . S
C3288 C3289 1.377 . S
C3289 H3273 0.930 1_655 S
C3289 C3288 1.377 . S
C3289 C3290 1.379 1_655 S
C3290 H3274 0.931 . S
C3290 C3284 1.383 1_455 S
C3290 C3289 1.379 1_455 S
H3291 C3285 0.959 1_556 S
H3292 C3285 0.961 . S
H3293 C3285 0.960 . S
H3294 C3286 0.930 . S
H3295 C3287 0.929 . S
H3296 C3304 0.929 . S
H3297 C3306 0.930 . S
H3298 C3308 0.930 . S
H3299 C3311 0.929 . S
H3300 C3314 0.930 . S
H3301 C3316 0.960 . S
H3302 C3316 0.960 . S
H3303 C3316 0.960 . S
C3304 H3296 0.929 . S
C3304 C3305 1.377 . S
C3304 C3306 1.384 . S
C3305 C3304 1.377 . S
C3305 C3311 1.390 . S
C3306 H3297 0.930 . S
C3306 C3304 1.384 . S
C3306 C3307 1.372 . S
C3307 C3306 1.372 . S
C3307 C3308 1.400 . S
C3307 C3312 1.490 . S
C3308 H3298 0.930 . S
C3308 C3307 1.400 . S
C3308 C3311 1.386 . S
H3309 C3325 0.930 . S
H3310 C3326 0.931 . S
C3311 H3299 0.929 . S
C3311 C3305 1.390 . S
C3311 C3308 1.386 . S
C3312 C3307 1.490 . S
C3312 C3314 1.395 . S
C3312 C3315 1.403 . S
H3313 C3319 0.930 . S
C3314 H3300 0.930 . S
C3314 C3312 1.395 . S
C3314 C3317 1.403 . S
C3315 C3312 1.403 . S
C3315 C3316 1.524 . S
C3315 C3319 1.400 . S
C3316 H3301 0.960 . S
C3316 H3302 0.960 . S
C3316 H3303 0.960 . S
C3316 C3315 1.524 . S
C3317 C3314 1.403 . S
C3317 C3318 1.392 . S
C3317 C3321 1.495 . S
C3318 C3317 1.392 . S
C3318 C3319 1.385 . S
C3318 C3320 1.478 . S
C3319 H3313 0.930 . S
C3319 C3315 1.400 . S
C3319 C3318 1.385 . S
C3320 C3318 1.478 . S
C3320 C3322 1.381 . S
C3320 C3326 1.383 . S
C3321 C3317 1.495 . S
C3321 H3327 0.959 . S
C3321 H3328 0.961 . S
C3321 H3329 0.960 . S
C3322 C3320 1.381 . S
C3322 C3323 1.394 . S
C3322 H3330 0.930 . S
C3323 C3322 1.394 . S
C3323 C3324 1.383 . S
C3323 H3331 0.929 . S
C3324 C3323 1.383 . S
C3324 C3325 1.377 . S
C3325 H3309 0.930 . S
C3325 C3324 1.377 . S
C3325 C3326 1.379 . S
C3326 H3310 0.931 . S
C3326 C3320 1.383 . S
C3326 C3325 1.379 . S
H3327 C3321 0.959 . S
H3328 C3321 0.961 . S
H3329 C3321 0.960 . S
H3330 C3322 0.930 . S
H3331 C3323 0.929 . S
H3332 C3340 0.929 . S
H3333 C3342 0.930 . S
H3334 C3344 0.930 . S
H3335 C3347 0.929 . S
H3336 C3350 0.930 . S
H3337 C3352 0.960 . S
H3338 C3352 0.960 . S
H3339 C3352 0.960 . S
C3340 H3332 0.929 . S
C3340 C3341 1.377 . S
C3340 C3342 1.384 . S
C3341 C3340 1.377 . S
C3341 C3347 1.390 . S
C3342 H3333 0.930 . S
C3342 C3340 1.384 . S
C3342 C3343 1.372 . S
C3343 C3342 1.372 . S
C3343 C3344 1.400 . S
C3343 C3348 1.490 . S
C3344 H3334 0.930 . S
C3344 C3343 1.400 . S
C3344 C3347 1.386 . S
H3345 C3361 0.930 . S
H3346 C3362 0.931 . S
C3347 H3335 0.929 . S
C3347 C3341 1.390 . S
C3347 C3344 1.386 . S
C3348 C3343 1.490 . S
C3348 C3350 1.395 . S
C3348 C3351 1.403 . S
H3349 C3355 0.930 . S
C3350 H3336 0.930 . S
C3350 C3348 1.395 . S
C3350 C3353 1.403 . S
C3351 C3348 1.403 . S
C3351 C3352 1.524 . S
C3351 C3355 1.400 . S
C3352 H3337 0.960 . S
C3352 H3338 0.960 . S
C3352 H3339 0.960 . S
C3352 C3351 1.524 . S
C3353 C3350 1.403 . S
C3353 C3354 1.392 . S
C3353 C3357 1.495 . S
C3354 C3353 1.392 . S
C3354 C3355 1.385 . S
C3354 C3356 1.478 . S
C3355 H3349 0.930 . S
C3355 C3351 1.400 . S
C3355 C3354 1.385 . S
C3356 C3354 1.478 . S
C3356 C3358 1.381 . S
C3356 C3362 1.383 . S
C3357 C3353 1.495 . S
C3357 H3363 0.959 . S
C3357 H3364 0.961 . S
C3357 H3365 0.960 . S
C3358 C3356 1.381 . S
C3358 C3359 1.394 . S
C3358 H3366 0.930 . S
C3359 C3358 1.394 . S
C3359 C3360 1.383 . S
C3359 H3367 0.929 . S
C3360 C3359 1.383 . S
C3360 C3361 1.377 . S
C3361 H3345 0.930 . S
C3361 C3360 1.377 . S
C3361 C3362 1.379 . S
C3362 H3346 0.931 . S
C3362 C3356 1.383 . S
C3362 C3361 1.379 . S
H3363 C3357 0.959 . S
H3364 C3357 0.961 . S
H3365 C3357 0.960 . S
H3366 C3358 0.930 . S
H3367 C3359 0.929 . S
H3368 C3376 0.929 . S
H3369 C3378 0.930 . S
H3370 C3380 0.930 . S
H3371 C3383 0.929 . S
H3372 C3386 0.930 . S
H3373 C3388 0.960 . S
H3374 C3388 0.960 . S
H3375 C3388 0.960 . S
C3376 H3368 0.929 . S
C3376 C3377 1.377 . S
C3376 C3378 1.384 . S
C3377 C3376 1.377 . S
C3377 C3383 1.390 . S
C3378 H3369 0.930 . S
C3378 C3376 1.384 . S
C3378 C3379 1.372 . S
C3379 C3378 1.372 . S
C3379 C3380 1.400 . S
C3379 C3384 1.490 . S
C3380 H3370 0.930 . S
C3380 C3379 1.400 . S
C3380 C3383 1.386 . S
H3381 C3397 0.930 . S
H3382 C3398 0.931 . S
C3383 H3371 0.929 . S
C3383 C3377 1.390 . S
C3383 C3380 1.386 . S
C3384 C3379 1.490 . S
C3384 C3386 1.395 . S
C3384 C3387 1.403 . S
H3385 C3391 0.930 . S
C3386 H3372 0.930 . S
C3386 C3384 1.395 . S
C3386 C3389 1.403 . S
C3387 C3384 1.403 . S
C3387 C3388 1.524 . S
C3387 C3391 1.400 . S
C3388 H3373 0.960 . S
C3388 H3374 0.960 . S
C3388 H3375 0.960 . S
C3388 C3387 1.524 . S
C3389 C3386 1.403 . S
C3389 C3390 1.392 . S
C3389 C3393 1.495 . S
C3390 C3389 1.392 . S
C3390 C3391 1.385 . S
C3390 C3392 1.478 . S
C3391 H3385 0.930 . S
C3391 C3387 1.400 . S
C3391 C3390 1.385 . S
C3392 C3390 1.478 . S
C3392 C3394 1.381 . S
C3392 C3398 1.383 . S
C3393 C3389 1.495 . S
C3393 H3399 0.959 . S
C3393 H3400 0.961 . S
C3393 H3401 0.960 . S
C3394 C3392 1.381 . S
C3394 C3395 1.394 . S
C3394 H3402 0.930 . S
C3395 C3394 1.394 . S
C3395 C3396 1.383 . S
C3395 H3403 0.929 . S
C3396 C3395 1.383 . S
C3396 C3397 1.377 . S
C3397 H3381 0.930 . S
C3397 C3396 1.377 . S
C3397 C3398 1.379 . S
C3398 H3382 0.931 . S
C3398 C3392 1.383 . S
C3398 C3397 1.379 . S
H3399 C3393 0.959 . S
H3400 C3393 0.961 . S
H3401 C3393 0.960 . S
H3402 C3394 0.930 . S
H3403 C3395 0.929 . S
H3404 C3412 0.929 . S
H3405 C3414 0.930 . S
H3406 C3416 0.930 . S
H3407 C3419 0.929 . S
H3408 C3422 0.930 . S
H3409 C3424 0.960 . S
H3410 C3424 0.960 . S
H3411 C3424 0.960 . S
C3412 H3404 0.929 . S
C3412 C3413 1.377 . S
C3412 C3414 1.384 . S
C3413 C3412 1.377 . S
C3413 C3419 1.390 . S
C3414 H3405 0.930 . S
C3414 C3412 1.384 . S
C3414 C3415 1.372 . S
C3415 C3414 1.372 . S
C3415 C3416 1.400 . S
C3415 C3420 1.490 . S
C3416 H3406 0.930 . S
C3416 C3415 1.400 . S
C3416 C3419 1.386 . S
H3417 C3433 0.930 . S
H3418 C3434 0.931 . S
C3419 H3407 0.929 . S
C3419 C3413 1.390 . S
C3419 C3416 1.386 . S
C3420 C3415 1.490 . S
C3420 C3422 1.395 . S
C3420 C3423 1.403 . S
H3421 C3427 0.930 . S
C3422 H3408 0.930 . S
C3422 C3420 1.395 . S
C3422 C3425 1.403 . S
C3423 C3420 1.403 . S
C3423 C3424 1.524 . S
C3423 C3427 1.400 . S
C3424 H3409 0.960 . S
C3424 H3410 0.960 . S
C3424 H3411 0.960 . S
C3424 C3423 1.524 . S
C3425 C3422 1.403 . S
C3425 C3426 1.392 . S
C3425 C3429 1.495 . S
C3426 C3425 1.392 . S
C3426 C3427 1.385 . S
C3426 C3428 1.478 . S
C3427 H3421 0.930 . S
C3427 C3423 1.400 . S
C3427 C3426 1.385 . S
C3428 C3426 1.478 . S
C3428 C3430 1.381 . S
C3428 C3434 1.383 . S
C3429 C3425 1.495 . S
C3429 H3435 0.959 . S
C3429 H3436 0.961 . S
C3429 H3437 0.960 . S
C3430 C3428 1.381 . S
C3430 C3431 1.394 . S
C3430 H3438 0.930 . S
C3431 C3430 1.394 . S
C3431 C3432 1.383 . S
C3431 H3439 0.929 . S
C3432 C3431 1.383 . S
C3432 C3433 1.377 . S
C3433 H3417 0.930 . S
C3433 C3432 1.377 . S
C3433 C3434 1.379 . S
C3434 H3418 0.931 . S
C3434 C3428 1.383 . S
C3434 C3433 1.379 . S
H3435 C3429 0.959 . S
H3436 C3429 0.961 . S
H3437 C3429 0.960 . S
H3438 C3430 0.930 . S
H3439 C3431 0.929 . S
H3440 C3448 0.929 . S
H3441 C3450 0.930 . S
H3442 C3452 0.930 . S
H3443 C3455 0.929 . S
H3444 C3458 0.930 . S
H3445 C3460 0.960 . S
H3446 C3460 0.960 . S
H3447 C3460 0.960 . S
C3448 H3440 0.929 . S
C3448 C3449 1.377 . S
C3448 C3450 1.384 . S
C3449 C3448 1.377 . S
C3449 C3455 1.390 . S
C3450 H3441 0.930 . S
C3450 C3448 1.384 . S
C3450 C3451 1.372 . S
C3451 C3450 1.372 . S
C3451 C3452 1.400 . S
C3451 C3456 1.490 . S
C3452 H3442 0.930 . S
C3452 C3451 1.400 . S
C3452 C3455 1.386 . S
H3453 C3469 0.930 . S
H3454 C3470 0.931 . S
C3455 H3443 0.929 . S
C3455 C3449 1.390 . S
C3455 C3452 1.386 . S
C3456 C3451 1.490 . S
C3456 C3458 1.395 . S
C3456 C3459 1.403 . S
H3457 C3463 0.930 . S
C3458 H3444 0.930 . S
C3458 C3456 1.395 . S
C3458 C3461 1.403 1_554 S
C3459 C3456 1.403 . S
C3459 C3460 1.524 . S
C3459 C3463 1.400 1_554 S
C3460 H3445 0.960 . S
C3460 H3446 0.960 . S
C3460 H3447 0.960 . S
C3460 C3459 1.524 . S
C3461 C3458 1.403 1_556 S
C3461 C3462 1.392 . S
C3461 C3465 1.495 . S
C3462 C3461 1.392 . S
C3462 C3463 1.385 . S
C3462 C3464 1.478 . S
C3463 H3457 0.930 . S
C3463 C3459 1.400 1_556 S
C3463 C3462 1.385 . S
C3464 C3462 1.478 . S
C3464 C3466 1.381 . S
C3464 C3470 1.383 . S
C3465 C3461 1.495 . S
C3465 H3471 0.959 . S
C3465 H3472 0.961 . S
C3465 H3473 0.960 . S
C3466 C3464 1.381 . S
C3466 C3467 1.394 . S
C3466 H3474 0.930 . S
C3467 C3466 1.394 . S
C3467 C3468 1.383 . S
C3467 H3475 0.929 . S
C3468 C3467 1.383 . S
C3468 C3469 1.377 . S
C3469 H3453 0.930 . S
C3469 C3468 1.377 . S
C3469 C3470 1.379 . S
C3470 H3454 0.931 . S
C3470 C3464 1.383 . S
C3470 C3469 1.379 . S
H3471 C3465 0.959 . S
H3472 C3465 0.961 . S
H3473 C3465 0.960 . S
H3474 C3466 0.930 . S
H3475 C3467 0.929 . S
H3476 C3484 0.929 . S
H3477 C3486 0.930 1_455 S
H3478 C3488 0.930 . S
H3479 C3491 0.929 . S
H3480 C3494 0.930 . S
H3481 C3496 0.960 . S
H3482 C3496 0.960 . S
H3483 C3496 0.960 . S
C3484 H3476 0.929 . S
C3484 C3485 1.377 . S
C3484 C3486 1.384 . S
C3485 C3484 1.377 . S
C3485 C3491 1.390 . S
C3486 H3477 0.930 1_655 S
C3486 C3484 1.384 . S
C3486 C3487 1.372 . S
C3487 C3486 1.372 . S
C3487 C3488 1.400 . S
C3487 C3492 1.490 . S
C3488 H3478 0.930 . S
C3488 C3487 1.400 . S
C3488 C3491 1.386 . S
H3489 C3505 0.930 . S
H3490 C3506 0.931 . S
C3491 H3479 0.929 . S
C3491 C3485 1.390 . S
C3491 C3488 1.386 . S
C3492 C3487 1.490 . S
C3492 C3494 1.395 1_655 S
C3492 C3495 1.403 . S
H3493 C3499 0.930 . S
C3494 H3480 0.930 . S
C3494 C3492 1.395 1_455 S
C3494 C3497 1.403 . S
C3495 C3492 1.403 . S
C3495 C3496 1.524 . S
C3495 C3499 1.400 . S
C3496 H3481 0.960 . S
C3496 H3482 0.960 . S
C3496 H3483 0.960 . S
C3496 C3495 1.524 . S
C3497 C3494 1.403 . S
C3497 C3498 1.392 . S
C3497 C3501 1.495 . S
C3498 C3497 1.392 . S
C3498 C3499 1.385 1_455 S
C3498 C3500 1.478 . S
C3499 H3493 0.930 . S
C3499 C3495 1.400 . S
C3499 C3498 1.385 1_655 S
C3500 C3498 1.478 . S
C3500 C3502 1.381 . S
C3500 C3506 1.383 . S
C3501 C3497 1.495 . S
C3501 H3507 0.959 . S
C3501 H3508 0.961 . S
C3501 H3509 0.960 . S
C3502 C3500 1.381 . S
C3502 C3503 1.394 . S
C3502 H3510 0.930 . S
C3503 C3502 1.394 . S
C3503 C3504 1.383 . S
C3503 H3511 0.929 . S
C3504 C3503 1.383 . S
C3504 C3505 1.377 . S
C3505 H3489 0.930 . S
C3505 C3504 1.377 . S
C3505 C3506 1.379 . S
C3506 H3490 0.931 . S
C3506 C3500 1.383 . S
C3506 C3505 1.379 . S
H3507 C3501 0.959 . S
H3508 C3501 0.961 . S
H3509 C3501 0.960 . S
H3510 C3502 0.930 . S
H3511 C3503 0.929 . S
H3512 C3520 0.929 . S
H3513 C3522 0.930 1_655 S
H3514 C3524 0.930 . S
H3515 C3527 0.929 . S
H3516 C3530 0.930 . S
H3517 C3532 0.898 1_556 S
H3518 C3532 0.960 . S
H3519 C3532 0.960 . S
C3520 H3512 0.929 . S
C3520 C3521 1.377 . S
C3520 C3522 1.384 . S
C3521 C3520 1.377 . S
C3521 C3527 1.390 . S
C3522 H3513 0.930 1_455 S
C3522 C3520 1.384 . S
C3522 C3523 1.372 . S
C3523 C3522 1.372 . S
C3523 C3524 1.400 . S
C3523 C3528 1.490 . S
C3524 H3514 0.930 . S
C3524 C3523 1.400 . S
C3524 C3527 1.386 . S
H3525 C3541 0.930 . S
H3526 C3542 0.931 1_455 S
C3527 H3515 0.929 . S
C3527 C3521 1.390 . S
C3527 C3524 1.386 . S
C3528 C3523 1.490 . S
C3528 C3530 1.395 1_455 S
C3528 C3531 1.403 . S
H3529 C3535 0.930 . S
C3530 H3516 0.930 . S
C3530 C3528 1.395 1_655 S
C3530 C3533 1.403 1_554 S
C3531 C3528 1.403 . S
C3531 C3532 1.524 . S
C3531 C3535 1.400 1_554 S
C3532 H3517 0.898 1_554 S
C3532 H3518 0.960 . S
C3532 H3519 0.960 . S
C3532 C3531 1.524 . S
C3533 C3530 1.403 1_556 S
C3533 C3534 1.392 . S
C3533 C3537 1.495 . S
C3534 C3533 1.392 . S
C3534 C3535 1.385 1_655 S
C3534 C3536 1.478 . S
C3535 H3529 0.930 . S
C3535 C3531 1.400 1_556 S
C3535 C3534 1.385 1_455 S
C3536 C3534 1.478 . S
C3536 C3538 1.381 . S
C3536 C3542 1.383 . S
C3537 C3533 1.495 . S
C3537 H3543 0.866 1_556 S
C3537 H3544 0.961 . S
C3537 H3545 0.960 . S
C3538 C3536 1.381 . S
C3538 C3539 1.394 . S
C3538 H3546 0.930 . S
C3539 C3538 1.394 . S
C3539 C3540 1.383 . S
C3539 H3547 0.929 . S
C3540 C3539 1.383 . S
C3540 C3541 1.377 . S
C3541 H3525 0.930 . S
C3541 C3540 1.377 . S
C3541 C3542 1.379 . S
C3542 H3526 0.931 1_655 S
C3542 C3536 1.383 . S
C3542 C3541 1.379 . S
H3543 C3537 0.866 1_554 S
H3544 C3537 0.961 . S
H3545 C3537 0.960 . S
H3546 C3538 0.930 . S
H3547 C3539 0.929 . S
H3548 C3556 0.929 . S
H3549 C3558 0.930 . S
H3550 C3560 0.930 . S
H3551 C3563 0.929 . S
H3552 C3566 0.930 . S
H3553 C3568 0.960 . S
H3554 C3568 0.960 . S
H3555 C3568 0.960 . S
C3556 H3548 0.929 . S
C3556 C3557 1.377 . S
C3556 C3558 1.384 . S
C3557 C3556 1.377 . S
C3557 C3563 1.390 . S
C3558 H3549 0.930 . S
C3558 C3556 1.384 . S
C3558 C3559 1.372 . S
C3559 C3558 1.372 . S
C3559 C3560 1.400 . S
C3559 C3564 1.490 . S
C3560 H3550 0.930 . S
C3560 C3559 1.400 . S
C3560 C3563 1.386 . S
H3561 C3577 0.930 . S
H3562 C3578 0.931 . S
C3563 H3551 0.929 . S
C3563 C3557 1.390 . S
C3563 C3560 1.386 . S
C3564 C3559 1.490 . S
C3564 C3566 1.395 . S
C3564 C3567 1.403 . S
H3565 C3571 0.930 . S
C3566 H3552 0.930 . S
C3566 C3564 1.395 . S
C3566 C3569 1.403 . S
C3567 C3564 1.403 . S
C3567 C3568 1.524 . S
C3567 C3571 1.400 . S
C3568 H3553 0.960 . S
C3568 H3554 0.960 . S
C3568 H3555 0.960 . S
C3568 C3567 1.524 . S
C3569 C3566 1.403 . S
C3569 C3570 1.392 . S
C3569 C3573 1.495 . S
C3570 C3569 1.392 . S
C3570 C3571 1.385 . S
C3570 C3572 1.478 . S
C3571 H3565 0.930 . S
C3571 C3567 1.400 . S
C3571 C3570 1.385 . S
C3572 C3570 1.478 . S
C3572 C3574 1.381 . S
C3572 C3578 1.383 . S
C3573 C3569 1.495 . S
C3573 H3579 0.959 . S
C3573 H3580 0.961 . S
C3573 H3581 0.960 . S
C3574 C3572 1.381 . S
C3574 C3575 1.394 . S
C3574 H3582 0.930 . S
C3575 C3574 1.394 . S
C3575 C3576 1.383 . S
C3575 H3583 0.929 . S
C3576 C3575 1.383 . S
C3576 C3577 1.377 . S
C3577 H3561 0.930 . S
C3577 C3576 1.377 . S
C3577 C3578 1.379 . S
C3578 H3562 0.931 . S
C3578 C3572 1.383 . S
C3578 C3577 1.379 . S
H3579 C3573 0.959 . S
H3580 C3573 0.961 . S
H3581 C3573 0.960 . S
H3582 C3574 0.930 . S
H3583 C3575 0.929 . S
H3584 C3592 0.929 . S
H3585 C3594 0.930 . S
H3586 C3596 0.930 . S
H3587 C3599 0.929 . S
H3588 C3602 0.930 . S
H3589 C3604 0.960 . S
H3590 C3604 0.960 . S
H3591 C3604 0.960 . S
C3592 H3584 0.929 . S
C3592 C3593 1.377 . S
C3592 C3594 1.384 . S
C3593 C3592 1.377 . S
C3593 C3599 1.390 . S
C3594 H3585 0.930 . S
C3594 C3592 1.384 . S
C3594 C3595 1.372 . S
C3595 C3594 1.372 . S
C3595 C3596 1.400 . S
C3595 C3600 1.490 . S
C3596 H3586 0.930 . S
C3596 C3595 1.400 . S
C3596 C3599 1.386 . S
H3597 C3613 0.930 . S
H3598 C3614 0.931 . S
C3599 H3587 0.929 . S
C3599 C3593 1.390 . S
C3599 C3596 1.386 . S
C3600 C3595 1.490 . S
C3600 C3602 1.395 . S
C3600 C3603 1.403 . S
H3601 C3607 0.930 . S
C3602 H3588 0.930 . S
C3602 C3600 1.395 . S
C3602 C3605 1.403 . S
C3603 C3600 1.403 . S
C3603 C3604 1.524 . S
C3603 C3607 1.400 . S
C3604 H3589 0.960 . S
C3604 H3590 0.960 . S
C3604 H3591 0.960 . S
C3604 C3603 1.524 . S
C3605 C3602 1.403 . S
C3605 C3606 1.392 . S
C3605 C3609 1.495 . S
C3606 C3605 1.392 . S
C3606 C3607 1.385 . S
C3606 C3608 1.478 . S
C3607 H3601 0.930 . S
C3607 C3603 1.400 . S
C3607 C3606 1.385 . S
C3608 C3606 1.478 . S
C3608 C3610 1.381 . S
C3608 C3614 1.383 . S
C3609 C3605 1.495 . S
C3609 H3615 0.959 . S
C3609 H3616 0.961 . S
C3609 H3617 0.960 . S
C3610 C3608 1.381 . S
C3610 C3611 1.394 . S
C3610 H3618 0.930 . S
C3611 C3610 1.394 . S
C3611 C3612 1.383 . S
C3611 H3619 0.929 . S
C3612 C3611 1.383 . S
C3612 C3613 1.377 . S
C3613 H3597 0.930 . S
C3613 C3612 1.377 . S
C3613 C3614 1.379 . S
C3614 H3598 0.931 . S
C3614 C3608 1.383 . S
C3614 C3613 1.379 . S
H3615 C3609 0.959 . S
H3616 C3609 0.961 . S
H3617 C3609 0.960 . S
H3618 C3610 0.930 . S
H3619 C3611 0.929 . S
H3620 C3628 0.929 . S
H3621 C3630 0.930 . S
H3622 C3632 0.930 . S
H3623 C3635 0.929 . S
H3624 C3638 0.930 . S
H3625 C3640 0.960 . S
H3626 C3640 0.960 . S
H3627 C3640 0.960 . S
C3628 H3620 0.929 . S
C3628 C3629 1.377 . S
C3628 C3630 1.384 . S
C3629 C3628 1.377 . S
C3629 C3635 1.390 . S
C3630 H3621 0.930 . S
C3630 C3628 1.384 . S
C3630 C3631 1.372 . S
C3631 C3630 1.372 . S
C3631 C3632 1.400 . S
C3631 C3636 1.490 . S
C3632 H3622 0.930 . S
C3632 C3631 1.400 . S
C3632 C3635 1.386 . S
H3633 C3649 0.930 . S
H3634 C3650 0.931 . S
C3635 H3623 0.929 . S
C3635 C3629 1.390 . S
C3635 C3632 1.386 . S
C3636 C3631 1.490 . S
C3636 C3638 1.395 . S
C3636 C3639 1.403 . S
H3637 C3643 0.930 . S
C3638 H3624 0.930 . S
C3638 C3636 1.395 . S
C3638 C3641 1.403 . S
C3639 C3636 1.403 . S
C3639 C3640 1.524 . S
C3639 C3643 1.400 . S
C3640 H3625 0.960 . S
C3640 H3626 0.960 . S
C3640 H3627 0.960 . S
C3640 C3639 1.524 . S
C3641 C3638 1.403 . S
C3641 C3642 1.392 . S
C3641 C3645 1.495 . S
C3642 C3641 1.392 . S
C3642 C3643 1.385 . S
C3642 C3644 1.478 . S
C3643 H3637 0.930 . S
C3643 C3639 1.400 . S
C3643 C3642 1.385 . S
C3644 C3642 1.478 . S
C3644 C3646 1.381 . S
C3644 C3650 1.383 . S
C3645 C3641 1.495 . S
C3645 H3651 0.959 . S
C3645 H3652 0.961 . S
C3645 H3653 0.960 . S
C3646 C3644 1.381 . S
C3646 C3647 1.394 . S
C3646 H3654 0.930 . S
C3647 C3646 1.394 . S
C3647 C3648 1.383 . S
C3647 H3655 0.929 . S
C3648 C3647 1.383 . S
C3648 C3649 1.377 . S
C3649 H3633 0.930 . S
C3649 C3648 1.377 . S
C3649 C3650 1.379 . S
C3650 H3634 0.931 . S
C3650 C3644 1.383 . S
C3650 C3649 1.379 . S
H3651 C3645 0.959 . S
H3652 C3645 0.961 . S
H3653 C3645 0.960 . S
H3654 C3646 0.930 . S
H3655 C3647 0.929 . S
H3656 C3664 0.929 . S
H3657 C3666 0.930 . S
H3658 C3668 0.930 . S
H3659 C3671 0.929 . S
H3660 C3674 0.930 . S
H3661 C3676 0.960 . S
H3662 C3676 0.960 . S
H3663 C3676 0.960 . S
C3664 H3656 0.929 . S
C3664 C3665 1.377 . S
C3664 C3666 1.384 . S
C3665 C3664 1.377 . S
C3665 C3671 1.390 . S
C3666 H3657 0.930 . S
C3666 C3664 1.384 . S
C3666 C3667 1.372 . S
C3667 C3666 1.372 . S
C3667 C3668 1.400 . S
C3667 C3672 1.490 . S
C3668 H3658 0.930 . S
C3668 C3667 1.400 . S
C3668 C3671 1.386 . S
H3669 C3685 0.930 . S
H3670 C3686 0.931 . S
C3671 H3659 0.929 . S
C3671 C3665 1.390 . S
C3671 C3668 1.386 . S
C3672 C3667 1.490 . S
C3672 C3674 1.395 . S
C3672 C3675 1.403 . S
H3673 C3679 0.930 . S
C3674 H3660 0.930 . S
C3674 C3672 1.395 . S
C3674 C3677 1.403 . S
C3675 C3672 1.403 . S
C3675 C3676 1.524 . S
C3675 C3679 1.400 . S
C3676 H3661 0.960 . S
C3676 H3662 0.960 . S
C3676 H3663 0.960 . S
C3676 C3675 1.524 . S
C3677 C3674 1.403 . S
C3677 C3678 1.392 . S
C3677 C3681 1.495 . S
C3678 C3677 1.392 . S
C3678 C3679 1.385 . S
C3678 C3680 1.478 . S
C3679 H3673 0.930 . S
C3679 C3675 1.400 . S
C3679 C3678 1.385 . S
C3680 C3678 1.478 . S
C3680 C3682 1.381 . S
C3680 C3686 1.383 . S
C3681 C3677 1.495 . S
C3681 H3687 0.959 . S
C3681 H3688 0.961 . S
C3681 H3689 0.960 . S
C3682 C3680 1.381 . S
C3682 C3683 1.394 . S
C3682 H3690 0.930 . S
C3683 C3682 1.394 . S
C3683 C3684 1.383 . S
C3683 H3691 0.929 . S
C3684 C3683 1.383 . S
C3684 C3685 1.377 . S
C3685 H3669 0.930 . S
C3685 C3684 1.377 . S
C3685 C3686 1.379 . S
C3686 H3670 0.931 . S
C3686 C3680 1.383 . S
C3686 C3685 1.379 . S
H3687 C3681 0.959 . S
H3688 C3681 0.961 . S
H3689 C3681 0.960 . S
H3690 C3682 0.930 . S
H3691 C3683 0.929 . S
H3692 C3700 0.929 . S
H3693 C3702 0.930 . S
H3694 C3704 0.930 . S
H3695 C3707 0.929 . S
H3696 C3710 0.930 . S
H3697 C3712 0.960 . S
H3698 C3712 0.960 . S
H3699 C3712 0.960 . S
C3700 H3692 0.929 . S
C3700 C3701 1.377 . S
C3700 C3702 1.384 . S
C3701 C3700 1.377 . S
C3701 C3707 1.390 . S
C3702 H3693 0.930 . S
C3702 C3700 1.384 . S
C3702 C3703 1.372 . S
C3703 C3702 1.372 . S
C3703 C3704 1.400 . S
C3703 C3708 1.490 . S
C3704 H3694 0.930 . S
C3704 C3703 1.400 . S
C3704 C3707 1.386 . S
H3705 C3721 0.930 . S
H3706 C3722 0.931 . S
C3707 H3695 0.929 . S
C3707 C3701 1.390 . S
C3707 C3704 1.386 . S
C3708 C3703 1.490 . S
C3708 C3710 1.395 . S
C3708 C3711 1.403 . S
H3709 C3715 0.930 . S
C3710 H3696 0.930 . S
C3710 C3708 1.395 . S
C3710 C3713 1.403 . S
C3711 C3708 1.403 . S
C3711 C3712 1.524 . S
C3711 C3715 1.400 . S
C3712 H3697 0.960 . S
C3712 H3698 0.960 . S
C3712 H3699 0.960 . S
C3712 C3711 1.524 . S
C3713 C3710 1.403 . S
C3713 C3714 1.392 . S
C3713 C3717 1.495 . S
C3714 C3713 1.392 . S
C3714 C3715 1.385 . S
C3714 C3716 1.478 . S
C3715 H3709 0.930 . S
C3715 C3711 1.400 . S
C3715 C3714 1.385 . S
C3716 C3714 1.478 . S
C3716 C3718 1.381 . S
C3716 C3722 1.383 . S
C3717 C3713 1.495 . S
C3717 H3723 0.959 . S
C3717 H3724 0.961 . S
C3717 H3725 0.960 . S
C3718 C3716 1.381 . S
C3718 C3719 1.394 . S
C3718 H3726 0.930 . S
C3719 C3718 1.394 . S
C3719 C3720 1.383 . S
C3719 H3727 0.929 . S
C3720 C3719 1.383 . S
C3720 C3721 1.377 . S
C3721 H3705 0.930 . S
C3721 C3720 1.377 . S
C3721 C3722 1.379 . S
C3722 H3706 0.931 . S
C3722 C3716 1.383 . S
C3722 C3721 1.379 . S
H3723 C3717 0.959 . S
H3724 C3717 0.961 . S
H3725 C3717 0.960 . S
H3726 C3718 0.930 . S
H3727 C3719 0.929 . S
H3728 C3736 0.929 . S
H3729 C3738 0.930 . S
H3730 C3740 0.930 . S
H3731 C3743 0.929 . S
H3732 C3746 0.930 . S
H3733 C3748 0.960 . S
H3734 C3748 0.960 . S
H3735 C3748 0.960 . S
C3736 H3728 0.929 . S
C3736 C3737 1.377 . S
C3736 C3738 1.384 . S
C3737 C3736 1.377 . S
C3737 C3743 1.390 . S
C3738 H3729 0.930 . S
C3738 C3736 1.384 . S
C3738 C3739 1.372 . S
C3739 C3738 1.372 . S
C3739 C3740 1.400 . S
C3739 C3744 1.490 . S
C3740 H3730 0.930 . S
C3740 C3739 1.400 . S
C3740 C3743 1.386 . S
H3741 C3757 0.930 . S
H3742 C3758 0.931 . S
C3743 H3731 0.929 . S
C3743 C3737 1.390 . S
C3743 C3740 1.386 . S
C3744 C3739 1.490 . S
C3744 C3746 1.395 . S
C3744 C3747 1.403 . S
H3745 C3751 0.930 . S
C3746 H3732 0.930 . S
C3746 C3744 1.395 . S
C3746 C3749 1.403 . S
C3747 C3744 1.403 . S
C3747 C3748 1.524 . S
C3747 C3751 1.400 . S
C3748 H3733 0.960 . S
C3748 H3734 0.960 . S
C3748 H3735 0.960 . S
C3748 C3747 1.524 . S
C3749 C3746 1.403 . S
C3749 C3750 1.392 . S
C3749 C3753 1.495 . S
C3750 C3749 1.392 . S
C3750 C3751 1.385 . S
C3750 C3752 1.478 . S
C3751 H3745 0.930 . S
C3751 C3747 1.400 . S
C3751 C3750 1.385 . S
C3752 C3750 1.478 . S
C3752 C3754 1.381 . S
C3752 C3758 1.383 . S
C3753 C3749 1.495 . S
C3753 H3759 0.959 . S
C3753 H3760 0.961 . S
C3753 H3761 0.960 . S
C3754 C3752 1.381 . S
C3754 C3755 1.394 . S
C3754 H3762 0.930 . S
C3755 C3754 1.394 . S
C3755 C3756 1.383 . S
C3755 H3763 0.929 . S
C3756 C3755 1.383 . S
C3756 C3757 1.377 . S
C3757 H3741 0.930 . S
C3757 C3756 1.377 . S
C3757 C3758 1.379 . S
C3758 H3742 0.931 . S
C3758 C3752 1.383 . S
C3758 C3757 1.379 . S
H3759 C3753 0.959 . S
H3760 C3753 0.961 . S
H3761 C3753 0.960 . S
H3762 C3754 0.930 . S
H3763 C3755 0.929 . S
H3764 C3772 0.929 . S
H3765 C3774 0.930 . S
H3766 C3776 0.930 . S
H3767 C3779 0.929 . S
H3768 C3782 0.930 . S
H3769 C3784 0.960 . S
H3770 C3784 0.960 . S
H3771 C3784 0.960 . S
C3772 H3764 0.929 . S
C3772 C3773 1.377 . S
C3772 C3774 1.384 . S
C3773 C3772 1.377 . S
C3773 C3779 1.390 . S
C3774 H3765 0.930 . S
C3774 C3772 1.384 . S
C3774 C3775 1.372 . S
C3775 C3774 1.372 . S
C3775 C3776 1.400 . S
C3775 C3780 1.490 . S
C3776 H3766 0.930 . S
C3776 C3775 1.400 . S
C3776 C3779 1.386 . S
H3777 C3793 0.930 . S
H3778 C3794 0.931 . S
C3779 H3767 0.929 . S
C3779 C3773 1.390 . S
C3779 C3776 1.386 . S
C3780 C3775 1.490 . S
C3780 C3782 1.395 . S
C3780 C3783 1.403 . S
H3781 C3787 0.930 . S
C3782 H3768 0.930 . S
C3782 C3780 1.395 . S
C3782 C3785 1.403 . S
C3783 C3780 1.403 . S
C3783 C3784 1.524 . S
C3783 C3787 1.400 . S
C3784 H3769 0.960 . S
C3784 H3770 0.960 . S
C3784 H3771 0.960 . S
C3784 C3783 1.524 . S
C3785 C3782 1.403 . S
C3785 C3786 1.392 . S
C3785 C3789 1.495 . S
C3786 C3785 1.392 . S
C3786 C3787 1.385 . S
C3786 C3788 1.478 . S
C3787 H3781 0.930 . S
C3787 C3783 1.400 . S
C3787 C3786 1.385 . S
C3788 C3786 1.478 . S
C3788 C3790 1.381 . S
C3788 C3794 1.383 . S
C3789 C3785 1.495 . S
C3789 H3795 0.959 . S
C3789 H3796 0.961 . S
C3789 H3797 0.960 . S
C3790 C3788 1.381 . S
C3790 C3791 1.394 . S
C3790 H3798 0.930 . S
C3791 C3790 1.394 . S
C3791 C3792 1.383 . S
C3791 H3799 0.929 . S
C3792 C3791 1.383 . S
C3792 C3793 1.377 . S
C3793 H3777 0.930 . S
C3793 C3792 1.377 . S
C3793 C3794 1.379 . S
C3794 H3778 0.931 . S
C3794 C3788 1.383 . S
C3794 C3793 1.379 . S
H3795 C3789 0.959 . S
H3796 C3789 0.961 . S
H3797 C3789 0.960 . S
H3798 C3790 0.930 . S
H3799 C3791 0.929 . S
H3800 C3808 0.929 . S
H3801 C3810 0.930 . S
H3802 C3812 0.930 . S
H3803 C3815 0.929 . S
H3804 C3818 0.930 . S
H3805 C3820 0.960 . S
H3806 C3820 0.960 . S
H3807 C3820 0.960 . S
C3808 H3800 0.929 . S
C3808 C3809 1.377 . S
C3808 C3810 1.384 . S
C3809 C3808 1.377 . S
C3809 C3815 1.390 . S
C3810 H3801 0.930 . S
C3810 C3808 1.384 . S
C3810 C3811 1.372 . S
C3811 C3810 1.372 . S
C3811 C3812 1.400 . S
C3811 C3816 1.490 . S
C3812 H3802 0.930 . S
C3812 C3811 1.400 . S
C3812 C3815 1.386 . S
H3813 C3829 0.930 . S
H3814 C3830 0.931 . S
C3815 H3803 0.929 . S
C3815 C3809 1.390 . S
C3815 C3812 1.386 . S
C3816 C3811 1.490 . S
C3816 C3818 1.395 . S
C3816 C3819 1.403 . S
H3817 C3823 0.930 . S
C3818 H3804 0.930 . S
C3818 C3816 1.395 . S
C3818 C3821 1.403 . S
C3819 C3816 1.403 . S
C3819 C3820 1.524 . S
C3819 C3823 1.400 . S
C3820 H3805 0.960 . S
C3820 H3806 0.960 . S
C3820 H3807 0.960 . S
C3820 C3819 1.524 . S
C3821 C3818 1.403 . S
C3821 C3822 1.392 . S
C3821 C3825 1.495 . S
C3822 C3821 1.392 . S
C3822 C3823 1.385 . S
C3822 C3824 1.478 . S
C3823 H3817 0.930 . S
C3823 C3819 1.400 . S
C3823 C3822 1.385 . S
C3824 C3822 1.478 . S
C3824 C3826 1.381 . S
C3824 C3830 1.383 . S
C3825 C3821 1.495 . S
C3825 H3831 0.959 . S
C3825 H3832 0.961 . S
C3825 H3833 0.960 . S
C3826 C3824 1.381 . S
C3826 C3827 1.394 . S
C3826 H3834 0.930 . S
C3827 C3826 1.394 . S
C3827 C3828 1.383 . S
C3827 H3835 0.929 . S
C3828 C3827 1.383 . S
C3828 C3829 1.377 . S
C3829 H3813 0.930 . S
C3829 C3828 1.377 . S
C3829 C3830 1.379 . S
C3830 H3814 0.931 . S
C3830 C3824 1.383 . S
C3830 C3829 1.379 . S
H3831 C3825 0.959 . S
H3832 C3825 0.961 . S
H3833 C3825 0.960 . S
H3834 C3826 0.930 . S
H3835 C3827 0.929 . S
H3836 C3844 0.929 . S
H3837 C3846 0.930 . S
H3838 C3848 0.930 . S
H3839 C3851 0.929 . S
H3840 C3854 0.930 . S
H3841 C3856 0.960 . S
H3842 C3856 0.960 . S
H3843 C3856 0.960 . S
C3844 H3836 0.929 . S
C3844 C3845 1.377 . S
C3844 C3846 1.384 . S
C3845 C3844 1.377 . S
C3845 C3851 1.390 . S
C3846 H3837 0.930 . S
C3846 C3844 1.384 . S
C3846 C3847 1.372 . S
C3847 C3846 1.372 . S
C3847 C3848 1.400 . S
C3847 C3852 1.490 . S
C3848 H3838 0.930 . S
C3848 C3847 1.400 . S
C3848 C3851 1.386 . S
H3849 C3865 0.930 . S
H3850 C3866 0.931 . S
C3851 H3839 0.929 . S
C3851 C3845 1.390 . S
C3851 C3848 1.386 . S
C3852 C3847 1.490 . S
C3852 C3854 1.395 . S
C3852 C3855 1.403 . S
H3853 C3859 0.930 . S
C3854 H3840 0.930 . S
C3854 C3852 1.395 . S
C3854 C3857 1.403 . S
C3855 C3852 1.403 . S
C3855 C3856 1.524 . S
C3855 C3859 1.400 . S
C3856 H3841 0.960 . S
C3856 H3842 0.960 . S
C3856 H3843 0.960 . S
C3856 C3855 1.524 . S
C3857 C3854 1.403 . S
C3857 C3858 1.392 . S
C3857 C3861 1.495 . S
C3858 C3857 1.392 . S
C3858 C3859 1.385 . S
C3858 C3860 1.478 . S
C3859 H3853 0.930 . S
C3859 C3855 1.400 . S
C3859 C3858 1.385 . S
C3860 C3858 1.478 . S
C3860 C3862 1.381 . S
C3860 C3866 1.383 . S
C3861 C3857 1.495 . S
C3861 H3867 0.959 . S
C3861 H3868 0.961 . S
C3861 H3869 0.960 . S
C3862 C3860 1.381 . S
C3862 C3863 1.394 . S
C3862 H3870 0.930 . S
C3863 C3862 1.394 . S
C3863 C3864 1.383 . S
C3863 H3871 0.929 . S
C3864 C3863 1.383 . S
C3864 C3865 1.377 . S
C3865 H3849 0.930 . S
C3865 C3864 1.377 . S
C3865 C3866 1.379 . S
C3866 H3850 0.931 . S
C3866 C3860 1.383 . S
C3866 C3865 1.379 . S
H3867 C3861 0.959 . S
H3868 C3861 0.961 . S
H3869 C3861 0.960 . S
H3870 C3862 0.930 . S
H3871 C3863 0.929 . S
H3872 C3880 0.929 . S
H3873 C3882 0.930 . S
H3874 C3884 0.930 . S
H3875 C3887 0.929 . S
H3876 C3890 0.930 . S
H3877 C3892 0.960 . S
H3878 C3892 0.960 . S
H3879 C3892 0.960 . S
C3880 H3872 0.929 . S
C3880 C3881 1.377 . S
C3880 C3882 1.384 . S
C3881 C3880 1.377 . S
C3881 C3887 1.390 . S
C3882 H3873 0.930 . S
C3882 C3880 1.384 . S
C3882 C3883 1.372 . S
C3883 C3882 1.372 . S
C3883 C3884 1.400 . S
C3883 C3888 1.490 . S
C3884 H3874 0.930 . S
C3884 C3883 1.400 . S
C3884 C3887 1.386 . S
H3885 C3901 0.930 . S
H3886 C3902 0.931 . S
C3887 H3875 0.929 . S
C3887 C3881 1.390 . S
C3887 C3884 1.386 . S
C3888 C3883 1.490 . S
C3888 C3890 1.395 . S
C3888 C3891 1.403 . S
H3889 C3895 0.930 . S
C3890 H3876 0.930 . S
C3890 C3888 1.395 . S
C3890 C3893 1.403 . S
C3891 C3888 1.403 . S
C3891 C3892 1.524 . S
C3891 C3895 1.400 . S
C3892 H3877 0.960 . S
C3892 H3878 0.960 . S
C3892 H3879 0.960 . S
C3892 C3891 1.524 . S
C3893 C3890 1.403 . S
C3893 C3894 1.392 . S
C3893 C3897 1.495 . S
C3894 C3893 1.392 . S
C3894 C3895 1.385 . S
C3894 C3896 1.478 . S
C3895 H3889 0.930 . S
C3895 C3891 1.400 . S
C3895 C3894 1.385 . S
C3896 C3894 1.478 . S
C3896 C3898 1.381 . S
C3896 C3902 1.383 . S
C3897 C3893 1.495 . S
C3897 H3903 0.959 . S
C3897 H3904 0.961 . S
C3897 H3905 0.960 . S
C3898 C3896 1.381 . S
C3898 C3899 1.394 . S
C3898 H3906 0.930 . S
C3899 C3898 1.394 . S
C3899 C3900 1.383 . S
C3899 H3907 0.929 . S
C3900 C3899 1.383 . S
C3900 C3901 1.377 . S
C3901 H3885 0.930 . S
C3901 C3900 1.377 . S
C3901 C3902 1.379 . S
C3902 H3886 0.931 . S
C3902 C3896 1.383 . S
C3902 C3901 1.379 . S
H3903 C3897 0.959 . S
H3904 C3897 0.961 . S
H3905 C3897 0.960 . S
H3906 C3898 0.930 . S
H3907 C3899 0.929 . S
H3908 C3916 0.929 . S
H3909 C3918 0.930 . S
H3910 C3920 0.930 . S
H3911 C3923 0.929 . S
H3912 C3926 0.930 . S
H3913 C3928 0.960 . S
H3914 C3928 0.960 . S
H3915 C3928 0.960 . S
C3916 H3908 0.929 . S
C3916 C3917 1.377 . S
C3916 C3918 1.384 . S
C3917 C3916 1.377 . S
C3917 C3923 1.390 . S
C3918 H3909 0.930 . S
C3918 C3916 1.384 . S
C3918 C3919 1.372 . S
C3919 C3918 1.372 . S
C3919 C3920 1.400 . S
C3919 C3924 1.490 . S
C3920 H3910 0.930 . S
C3920 C3919 1.400 . S
C3920 C3923 1.386 . S
H3921 C3937 0.930 . S
H3922 C3938 0.931 . S
C3923 H3911 0.929 . S
C3923 C3917 1.390 . S
C3923 C3920 1.386 . S
C3924 C3919 1.490 . S
C3924 C3926 1.395 . S
C3924 C3927 1.403 . S
H3925 C3931 0.930 . S
C3926 H3912 0.930 . S
C3926 C3924 1.395 . S
C3926 C3929 1.403 . S
C3927 C3924 1.403 . S
C3927 C3928 1.524 . S
C3927 C3931 1.400 . S
C3928 H3913 0.960 . S
C3928 H3914 0.960 . S
C3928 H3915 0.960 . S
C3928 C3927 1.524 . S
C3929 C3926 1.403 . S
C3929 C3930 1.392 . S
C3929 C3933 1.495 . S
C3930 C3929 1.392 . S
C3930 C3931 1.385 . S
C3930 C3932 1.478 . S
C3931 H3925 0.930 . S
C3931 C3927 1.400 . S
C3931 C3930 1.385 . S
C3932 C3930 1.478 . S
C3932 C3934 1.381 . S
C3932 C3938 1.383 . S
C3933 C3929 1.495 . S
C3933 H3939 0.959 . S
C3933 H3940 0.961 . S
C3933 H3941 0.960 . S
C3934 C3932 1.381 . S
C3934 C3935 1.394 . S
C3934 H3942 0.930 . S
C3935 C3934 1.394 . S
C3935 C3936 1.383 . S
C3935 H3943 0.929 . S
C3936 C3935 1.383 . S
C3936 C3937 1.377 . S
C3937 H3921 0.930 . S
C3937 C3936 1.377 . S
C3937 C3938 1.379 . S
C3938 H3922 0.931 . S
C3938 C3932 1.383 . S
C3938 C3937 1.379 . S
H3939 C3933 0.959 . S
H3940 C3933 0.961 . S
H3941 C3933 0.960 . S
H3942 C3934 0.930 . S
H3943 C3935 0.929 . S
H3944 C3952 0.929 . S
H3945 C3954 0.930 . S
H3946 C3956 0.930 . S
H3947 C3959 0.929 . S
H3948 C3962 0.930 . S
H3949 C3964 0.960 . S
H3950 C3964 0.960 . S
H3951 C3964 0.960 . S
C3952 H3944 0.929 . S
C3952 C3953 1.377 . S
C3952 C3954 1.384 . S
C3953 C3952 1.377 . S
C3953 C3959 1.390 . S
C3954 H3945 0.930 . S
C3954 C3952 1.384 . S
C3954 C3955 1.372 . S
C3955 C3954 1.372 . S
C3955 C3956 1.400 . S
C3955 C3960 1.490 . S
C3956 H3946 0.930 . S
C3956 C3955 1.400 . S
C3956 C3959 1.386 . S
H3957 C3973 0.930 . S
H3958 C3974 0.931 . S
C3959 H3947 0.929 . S
C3959 C3953 1.390 . S
C3959 C3956 1.386 . S
C3960 C3955 1.490 . S
C3960 C3962 1.395 . S
C3960 C3963 1.403 . S
H3961 C3967 0.930 . S
C3962 H3948 0.930 . S
C3962 C3960 1.395 . S
C3962 C3965 1.403 . S
C3963 C3960 1.403 . S
C3963 C3964 1.524 . S
C3963 C3967 1.400 . S
C3964 H3949 0.960 . S
C3964 H3950 0.960 . S
C3964 H3951 0.960 . S
C3964 C3963 1.524 . S
C3965 C3962 1.403 . S
C3965 C3966 1.392 . S
C3965 C3969 1.495 . S
C3966 C3965 1.392 . S
C3966 C3967 1.385 . S
C3966 C3968 1.478 . S
C3967 H3961 0.930 . S
C3967 C3963 1.400 . S
C3967 C3966 1.385 . S
C3968 C3966 1.478 . S
C3968 C3970 1.381 . S
C3968 C3974 1.383 . S
C3969 C3965 1.495 . S
C3969 H3975 0.959 . S
C3969 H3976 0.961 . S
C3969 H3977 0.960 . S
C3970 C3968 1.381 . S
C3970 C3971 1.394 . S
C3970 H3978 0.930 . S
C3971 C3970 1.394 . S
C3971 C3972 1.383 . S
C3971 H3979 0.929 . S
C3972 C3971 1.383 . S
C3972 C3973 1.377 . S
C3973 H3957 0.930 . S
C3973 C3972 1.377 . S
C3973 C3974 1.379 . S
C3974 H3958 0.931 . S
C3974 C3968 1.383 . S
C3974 C3973 1.379 . S
H3975 C3969 0.959 . S
H3976 C3969 0.961 . S
H3977 C3969 0.960 . S
H3978 C3970 0.930 . S
H3979 C3971 0.929 . S
H3980 C3988 0.929 . S
H3981 C3990 0.930 . S
H3982 C3992 0.930 . S
H3983 C3995 0.929 . S
H3984 C3998 0.930 . S
H3985 C4000 0.960 . S
H3986 C4000 0.960 . S
H3987 C4000 0.960 . S
C3988 H3980 0.929 . S
C3988 C3989 1.377 . S
C3988 C3990 1.384 . S
C3989 C3988 1.377 . S
C3989 C3995 1.390 . S
C3990 H3981 0.930 . S
C3990 C3988 1.384 . S
C3990 C3991 1.372 . S
C3991 C3990 1.372 . S
C3991 C3992 1.400 . S
C3991 C3996 1.490 . S
C3992 H3982 0.930 . S
C3992 C3991 1.400 . S
C3992 C3995 1.386 . S
H3993 C4009 0.930 . S
H3994 C4010 0.931 . S
C3995 H3983 0.929 . S
C3995 C3989 1.390 . S
C3995 C3992 1.386 . S
C3996 C3991 1.490 . S
C3996 C3998 1.395 . S
C3996 C3999 1.403 . S
H3997 C4003 0.930 . S
C3998 H3984 0.930 . S
C3998 C3996 1.395 . S
C3998 C4001 1.403 . S
C3999 C3996 1.403 . S
C3999 C4000 1.524 . S
C3999 C4003 1.400 . S
C4000 H3985 0.960 . S
C4000 H3986 0.960 . S
C4000 H3987 0.960 . S
C4000 C3999 1.524 . S
C4001 C3998 1.403 . S
C4001 C4002 1.392 . S
C4001 C4005 1.495 . S
C4002 C4001 1.392 . S
C4002 C4003 1.385 . S
C4002 C4004 1.478 . S
C4003 H3997 0.930 . S
C4003 C3999 1.400 . S
C4003 C4002 1.385 . S
C4004 C4002 1.478 . S
C4004 C4006 1.381 . S
C4004 C4010 1.383 . S
C4005 C4001 1.495 . S
C4005 H4011 0.959 . S
C4005 H4012 0.961 . S
C4005 H4013 0.960 . S
C4006 C4004 1.381 . S
C4006 C4007 1.394 . S
C4006 H4014 0.930 . S
C4007 C4006 1.394 . S
C4007 C4008 1.383 . S
C4007 H4015 0.929 . S
C4008 C4007 1.383 . S
C4008 C4009 1.377 . S
C4009 H3993 0.930 . S
C4009 C4008 1.377 . S
C4009 C4010 1.379 . S
C4010 H3994 0.931 . S
C4010 C4004 1.383 . S
C4010 C4009 1.379 . S
H4011 C4005 0.959 . S
H4012 C4005 0.961 . S
H4013 C4005 0.960 . S
H4014 C4006 0.930 . S
H4015 C4007 0.929 . S
H4016 C4024 0.929 . S
H4017 C4026 0.930 . S
H4018 C4028 0.930 . S
H4019 C4031 0.929 . S
H4020 C4034 0.930 . S
H4021 C4036 0.960 . S
H4022 C4036 0.960 . S
H4023 C4036 0.960 . S
C4024 H4016 0.929 . S
C4024 C4025 1.377 . S
C4024 C4026 1.384 . S
C4025 C4024 1.377 . S
C4025 C4031 1.390 . S
C4026 H4017 0.930 . S
C4026 C4024 1.384 . S
C4026 C4027 1.372 . S
C4027 C4026 1.372 . S
C4027 C4028 1.400 . S
C4027 C4032 1.490 . S
C4028 H4018 0.930 . S
C4028 C4027 1.400 . S
C4028 C4031 1.386 . S
H4029 C4045 0.930 . S
H4030 C4046 0.931 . S
C4031 H4019 0.929 . S
C4031 C4025 1.390 . S
C4031 C4028 1.386 . S
C4032 C4027 1.490 . S
C4032 C4034 1.395 . S
C4032 C4035 1.403 . S
H4033 C4039 0.930 . S
C4034 H4020 0.930 . S
C4034 C4032 1.395 . S
C4034 C4037 1.403 . S
C4035 C4032 1.403 . S
C4035 C4036 1.524 . S
C4035 C4039 1.400 . S
C4036 H4021 0.960 . S
C4036 H4022 0.960 . S
C4036 H4023 0.960 . S
C4036 C4035 1.524 . S
C4037 C4034 1.403 . S
C4037 C4038 1.392 . S
C4037 C4041 1.495 . S
C4038 C4037 1.392 . S
C4038 C4039 1.385 . S
C4038 C4040 1.478 . S
C4039 H4033 0.930 . S
C4039 C4035 1.400 . S
C4039 C4038 1.385 . S
C4040 C4038 1.478 . S
C4040 C4042 1.381 . S
C4040 C4046 1.383 . S
C4041 C4037 1.495 . S
C4041 H4047 0.959 . S
C4041 H4048 0.961 . S
C4041 H4049 0.960 . S
C4042 C4040 1.381 . S
C4042 C4043 1.394 . S
C4042 H4050 0.930 . S
C4043 C4042 1.394 . S
C4043 C4044 1.383 . S
C4043 H4051 0.929 . S
C4044 C4043 1.383 . S
C4044 C4045 1.377 . S
C4045 H4029 0.930 . S
C4045 C4044 1.377 . S
C4045 C4046 1.379 . S
C4046 H4030 0.931 . S
C4046 C4040 1.383 . S
C4046 C4045 1.379 . S
H4047 C4041 0.959 . S
H4048 C4041 0.961 . S
H4049 C4041 0.960 . S
H4050 C4042 0.930 . S
H4051 C4043 0.929 . S
H4052 C4060 0.929 . S
H4053 C4062 0.930 . S
H4054 C4064 0.930 . S
H4055 C4067 0.929 . S
H4056 C4070 0.930 . S
H4057 C4072 0.960 . S
H4058 C4072 0.960 . S
H4059 C4072 0.960 . S
C4060 H4052 0.929 . S
C4060 C4061 1.377 . S
C4060 C4062 1.384 . S
C4061 C4060 1.377 . S
C4061 C4067 1.390 . S
C4062 H4053 0.930 . S
C4062 C4060 1.384 . S
C4062 C4063 1.372 . S
C4063 C4062 1.372 . S
C4063 C4064 1.400 . S
C4063 C4068 1.490 . S
C4064 H4054 0.930 . S
C4064 C4063 1.400 . S
C4064 C4067 1.386 . S
H4065 C4081 0.930 . S
H4066 C4082 0.931 . S
C4067 H4055 0.929 . S
C4067 C4061 1.390 . S
C4067 C4064 1.386 . S
C4068 C4063 1.490 . S
C4068 C4070 1.395 . S
C4068 C4071 1.403 . S
H4069 C4075 0.930 . S
C4070 H4056 0.930 . S
C4070 C4068 1.395 . S
C4070 C4073 1.403 . S
C4071 C4068 1.403 . S
C4071 C4072 1.524 . S
C4071 C4075 1.400 . S
C4072 H4057 0.960 . S
C4072 H4058 0.960 . S
C4072 H4059 0.960 . S
C4072 C4071 1.524 . S
C4073 C4070 1.403 . S
C4073 C4074 1.392 . S
C4073 C4077 1.495 . S
C4074 C4073 1.392 . S
C4074 C4075 1.385 . S
C4074 C4076 1.478 . S
C4075 H4069 0.930 . S
C4075 C4071 1.400 . S
C4075 C4074 1.385 . S
C4076 C4074 1.478 . S
C4076 C4078 1.381 . S
C4076 C4082 1.383 . S
C4077 C4073 1.495 . S
C4077 H4083 0.959 . S
C4077 H4084 0.961 . S
C4077 H4085 0.960 . S
C4078 C4076 1.381 . S
C4078 C4079 1.394 . S
C4078 H4086 0.930 . S
C4079 C4078 1.394 . S
C4079 C4080 1.383 . S
C4079 H4087 0.929 . S
C4080 C4079 1.383 . S
C4080 C4081 1.377 . S
C4081 H4065 0.930 . S
C4081 C4080 1.377 . S
C4081 C4082 1.379 . S
C4082 H4066 0.931 . S
C4082 C4076 1.383 . S
C4082 C4081 1.379 . S
H4083 C4077 0.959 . S
H4084 C4077 0.961 . S
H4085 C4077 0.960 . S
H4086 C4078 0.930 . S
H4087 C4079 0.929 . S
H4088 C4096 0.929 . S
H4089 C4098 0.930 . S
H4090 C4100 0.930 . S
H4091 C4103 0.929 . S
H4092 C4106 0.930 . S
H4093 C4108 0.960 . S
H4094 C4108 0.960 . S
H4095 C4108 0.960 . S
C4096 H4088 0.929 . S
C4096 C4097 1.377 . S
C4096 C4098 1.384 . S
C4097 C4096 1.377 . S
C4097 C4103 1.390 . S
C4098 H4089 0.930 . S
C4098 C4096 1.384 . S
C4098 C4099 1.372 . S
C4099 C4098 1.372 . S
C4099 C4100 1.400 . S
C4099 C4104 1.490 . S
C4100 H4090 0.930 . S
C4100 C4099 1.400 . S
C4100 C4103 1.386 . S
H4101 C4117 0.930 . S
H4102 C4118 0.931 . S
C4103 H4091 0.929 . S
C4103 C4097 1.390 . S
C4103 C4100 1.386 . S
C4104 C4099 1.490 . S
C4104 C4106 1.395 . S
C4104 C4107 1.403 . S
H4105 C4111 0.930 . S
C4106 H4092 0.930 . S
C4106 C4104 1.395 . S
C4106 C4109 1.403 . S
C4107 C4104 1.403 . S
C4107 C4108 1.524 . S
C4107 C4111 1.400 . S
C4108 H4093 0.960 . S
C4108 H4094 0.960 . S
C4108 H4095 0.960 . S
C4108 C4107 1.524 . S
C4109 C4106 1.403 . S
C4109 C4110 1.392 . S
C4109 C4113 1.495 . S
C4110 C4109 1.392 . S
C4110 C4111 1.385 . S
C4110 C4112 1.478 . S
C4111 H4105 0.930 . S
C4111 C4107 1.400 . S
C4111 C4110 1.385 . S
C4112 C4110 1.478 . S
C4112 C4114 1.381 . S
C4112 C4118 1.383 . S
C4113 C4109 1.495 . S
C4113 H4119 0.959 . S
C4113 H4120 0.961 . S
C4113 H4121 0.960 . S
C4114 C4112 1.381 . S
C4114 C4115 1.394 . S
C4114 H4122 0.930 . S
C4115 C4114 1.394 . S
C4115 C4116 1.383 . S
C4115 H4123 0.929 . S
C4116 C4115 1.383 . S
C4116 C4117 1.377 . S
C4117 H4101 0.930 . S
C4117 C4116 1.377 . S
C4117 C4118 1.379 . S
C4118 H4102 0.931 . S
C4118 C4112 1.383 . S
C4118 C4117 1.379 . S
H4119 C4113 0.959 . S
H4120 C4113 0.961 . S
H4121 C4113 0.960 . S
H4122 C4114 0.930 . S
H4123 C4115 0.929 . S
H4124 C4132 0.929 . S
H4125 C4134 0.930 . S
H4126 C4136 0.930 . S
H4127 C4139 0.929 . S
H4128 C4142 0.930 . S
H4129 C4144 0.960 . S
H4130 C4144 0.960 . S
H4131 C4144 0.960 . S
C4132 H4124 0.929 . S
C4132 C4133 1.377 . S
C4132 C4134 1.384 . S
C4133 C4132 1.377 . S
C4133 C4139 1.390 . S
C4134 H4125 0.930 . S
C4134 C4132 1.384 . S
C4134 C4135 1.372 . S
C4135 C4134 1.372 . S
C4135 C4136 1.400 . S
C4135 C4140 1.490 . S
C4136 H4126 0.930 . S
C4136 C4135 1.400 . S
C4136 C4139 1.386 . S
H4137 C4153 0.930 . S
H4138 C4154 0.931 . S
C4139 H4127 0.929 . S
C4139 C4133 1.390 . S
C4139 C4136 1.386 . S
C4140 C4135 1.490 . S
C4140 C4142 1.395 . S
C4140 C4143 1.403 . S
H4141 C4147 0.930 . S
C4142 H4128 0.930 . S
C4142 C4140 1.395 . S
C4142 C4145 1.403 . S
C4143 C4140 1.403 . S
C4143 C4144 1.524 . S
C4143 C4147 1.400 . S
C4144 H4129 0.960 . S
C4144 H4130 0.960 . S
C4144 H4131 0.960 . S
C4144 C4143 1.524 . S
C4145 C4142 1.403 . S
C4145 C4146 1.392 . S
C4145 C4149 1.495 . S
C4146 C4145 1.392 . S
C4146 C4147 1.385 . S
C4146 C4148 1.478 . S
C4147 H4141 0.930 . S
C4147 C4143 1.400 . S
C4147 C4146 1.385 . S
C4148 C4146 1.478 . S
C4148 C4150 1.381 . S
C4148 C4154 1.383 . S
C4149 C4145 1.495 . S
C4149 H4155 0.959 . S
C4149 H4156 0.961 . S
C4149 H4157 0.960 . S
C4150 C4148 1.381 . S
C4150 C4151 1.394 . S
C4150 H4158 0.930 . S
C4151 C4150 1.394 . S
C4151 C4152 1.383 . S
C4151 H4159 0.929 . S
C4152 C4151 1.383 . S
C4152 C4153 1.377 . S
C4153 H4137 0.930 . S
C4153 C4152 1.377 . S
C4153 C4154 1.379 . S
C4154 H4138 0.931 . S
C4154 C4148 1.383 . S
C4154 C4153 1.379 . S
H4155 C4149 0.959 . S
H4156 C4149 0.961 . S
H4157 C4149 0.960 . S
H4158 C4150 0.930 . S
H4159 C4151 0.929 . S
H4160 C4168 0.929 . S
H4161 C4170 0.930 . S
H4162 C4172 0.930 . S
H4163 C4175 0.929 . S
H4164 C4178 0.930 . S
H4165 C4180 0.960 . S
H4166 C4180 0.960 . S
H4167 C4180 0.960 . S
C4168 H4160 0.929 . S
C4168 C4169 1.377 . S
C4168 C4170 1.384 . S
C4169 C4168 1.377 . S
C4169 C4175 1.390 . S
C4170 H4161 0.930 . S
C4170 C4168 1.384 . S
C4170 C4171 1.372 . S
C4171 C4170 1.372 . S
C4171 C4172 1.400 . S
C4171 C4176 1.490 . S
C4172 H4162 0.930 . S
C4172 C4171 1.400 . S
C4172 C4175 1.386 . S
H4173 C4189 0.930 . S
H4174 C4190 0.931 . S
C4175 H4163 0.929 . S
C4175 C4169 1.390 . S
C4175 C4172 1.386 . S
C4176 C4171 1.490 . S
C4176 C4178 1.395 . S
C4176 C4179 1.403 . S
H4177 C4183 0.930 . S
C4178 H4164 0.930 . S
C4178 C4176 1.395 . S
C4178 C4181 1.403 1_545 S
C4179 C4176 1.403 . S
C4179 C4180 1.524 . S
C4179 C4183 1.400 1_545 S
C4180 H4165 0.960 . S
C4180 H4166 0.960 . S
C4180 H4167 0.960 . S
C4180 C4179 1.524 . S
C4181 C4178 1.403 1_565 S
C4181 C4182 1.392 . S
C4181 C4185 1.495 . S
C4182 C4181 1.392 . S
C4182 C4183 1.385 . S
C4182 C4184 1.478 . S
C4183 H4177 0.930 . S
C4183 C4179 1.400 1_565 S
C4183 C4182 1.385 . S
C4184 C4182 1.478 . S
C4184 C4186 1.381 . S
C4184 C4190 1.383 . S
C4185 C4181 1.495 . S
C4185 H4191 0.959 . S
C4185 H4192 0.961 . S
C4185 H4193 0.960 . S
C4186 C4184 1.381 . S
C4186 C4187 1.394 . S
C4186 H4194 0.930 . S
C4187 C4186 1.394 . S
C4187 C4188 1.383 . S
C4187 H4195 0.929 . S
C4188 C4187 1.383 . S
C4188 C4189 1.377 . S
C4189 H4173 0.930 . S
C4189 C4188 1.377 . S
C4189 C4190 1.379 . S
C4190 H4174 0.931 . S
C4190 C4184 1.383 . S
C4190 C4189 1.379 . S
H4191 C4185 0.959 . S
H4192 C4185 0.961 . S
H4193 C4185 0.960 . S
H4194 C4186 0.930 . S
H4195 C4187 0.929 . S
H4196 C4204 0.929 . S
H4197 C4206 0.930 . S
H4198 C4208 0.930 . S
H4199 C4211 0.929 . S
H4200 C4214 0.930 . S
H4201 C4216 0.960 . S
H4202 C4216 0.960 1_545 S
H4203 C4216 0.960 . S
C4204 H4196 0.929 . S
C4204 C4205 1.377 . S
C4204 C4206 1.384 . S
C4205 C4204 1.377 . S
C4205 C4211 1.390 . S
C4206 H4197 0.930 . S
C4206 C4204 1.384 . S
C4206 C4207 1.372 . S
C4207 C4206 1.372 . S
C4207 C4208 1.400 . S
C4207 C4212 1.490 . S
C4208 H4198 0.930 . S
C4208 C4207 1.400 . S
C4208 C4211 1.386 . S
H4209 C4225 0.930 . S
H4210 C4226 0.931 . S
C4211 H4199 0.929 . S
C4211 C4205 1.390 . S
C4211 C4208 1.386 . S
C4212 C4207 1.490 . S
C4212 C4214 1.395 . S
C4212 C4215 1.403 . S
H4213 C4219 0.930 . S
C4214 H4200 0.930 . S
C4214 C4212 1.395 . S
C4214 C4217 1.403 . S
C4215 C4212 1.403 . S
C4215 C4216 1.524 . S
C4215 C4219 1.400 . S
C4216 H4201 0.960 . S
C4216 H4202 0.960 1_565 S
C4216 H4203 0.960 . S
C4216 C4215 1.524 . S
C4217 C4214 1.403 . S
C4217 C4218 1.392 . S
C4217 C4221 1.495 . S
C4218 C4217 1.392 . S
C4218 C4219 1.385 . S
C4218 C4220 1.478 . S
C4219 H4213 0.930 . S
C4219 C4215 1.400 . S
C4219 C4218 1.385 . S
C4220 C4218 1.478 . S
C4220 C4222 1.381 . S
C4220 C4226 1.383 . S
C4221 C4217 1.495 . S
C4221 H4227 0.959 . S
C4221 H4228 0.961 . S
C4221 H4229 0.960 . S
C4222 C4220 1.381 . S
C4222 C4223 1.394 . S
C4222 H4230 0.930 . S
C4223 C4222 1.394 . S
C4223 C4224 1.383 . S
C4223 H4231 0.929 . S
C4224 C4223 1.383 . S
C4224 C4225 1.377 . S
C4225 H4209 0.930 . S
C4225 C4224 1.377 . S
C4225 C4226 1.379 . S
C4226 H4210 0.931 . S
C4226 C4220 1.383 . S
C4226 C4225 1.379 . S
H4227 C4221 0.959 . S
H4228 C4221 0.961 . S
H4229 C4221 0.960 . S
H4230 C4222 0.930 . S
H4231 C4223 0.929 . S
H4232 C4240 0.929 . S
H4233 C4242 0.930 . S
H4234 C4244 0.930 . S
H4235 C4247 0.929 . S
H4236 C4250 0.930 . S
H4237 C4252 0.960 . S
H4238 C4252 0.960 1_545 S
H4239 C4252 0.960 . S
C4240 H4232 0.929 . S
C4240 C4241 1.377 . S
C4240 C4242 1.384 . S
C4241 C4240 1.377 . S
C4241 C4247 1.390 . S
C4242 H4233 0.930 . S
C4242 C4240 1.384 . S
C4242 C4243 1.372 . S
C4243 C4242 1.372 . S
C4243 C4244 1.400 . S
C4243 C4248 1.490 . S
C4244 H4234 0.930 . S
C4244 C4243 1.400 . S
C4244 C4247 1.386 . S
H4245 C4261 0.930 . S
H4246 C4262 0.931 . S
C4247 H4235 0.929 . S
C4247 C4241 1.390 . S
C4247 C4244 1.386 . S
C4248 C4243 1.490 . S
C4248 C4250 1.395 . S
C4248 C4251 1.368 1_545 S
H4249 C4255 0.930 . S
C4250 H4236 0.930 . S
C4250 C4248 1.395 . S
C4250 C4253 1.403 . S
C4251 C4248 1.368 1_565 S
C4251 C4252 1.529 . S
C4251 C4255 1.431 . S
C4252 H4237 0.960 . S
C4252 H4238 0.960 1_565 S
C4252 H4239 0.960 . S
C4252 C4251 1.529 . S
C4253 C4250 1.403 . S
C4253 C4254 1.392 1_545 S
C4253 C4257 1.495 . S
C4254 C4253 1.392 1_565 S
C4254 C4255 1.385 . S
C4254 C4256 1.478 . S
C4255 H4249 0.930 . S
C4255 C4251 1.431 . S
C4255 C4254 1.385 . S
C4256 C4254 1.478 . S
C4256 C4258 1.381 . S
C4256 C4262 1.383 . S
C4257 C4253 1.495 . S
C4257 H4263 0.959 . S
C4257 H4264 0.961 1_545 S
C4257 H4265 0.960 . S
C4258 C4256 1.381 . S
C4258 C4259 1.394 . S
C4258 H4266 0.930 . S
C4259 C4258 1.394 . S
C4259 C4260 1.383 . S
C4259 H4267 0.929 . S
C4260 C4259 1.383 . S
C4260 C4261 1.377 . S
C4261 H4245 0.930 . S
C4261 C4260 1.377 . S
C4261 C4262 1.379 . S
C4262 H4246 0.931 . S
C4262 C4256 1.383 . S
C4262 C4261 1.379 . S
H4263 C4257 0.959 . S
H4264 C4257 0.961 1_565 S
H4265 C4257 0.960 . S
H4266 C4258 0.930 . S
H4267 C4259 0.929 . S
H4268 C4276 0.929 1_565 S
H4269 C4278 0.930 1_565 S
H4270 C4280 0.930 . S
H4271 C4283 0.929 . S
H4272 C4286 0.930 . S
H4273 C4288 0.960 . S
H4274 C4288 0.960 . S
H4275 C4288 0.960 . S
C4276 H4268 0.929 1_545 S
C4276 C4277 1.377 . S
C4276 C4278 1.384 . S
C4277 C4276 1.377 . S
C4277 C4283 1.390 . S
C4278 H4269 0.930 1_545 S
C4278 C4276 1.384 . S
C4278 C4279 1.372 . S
C4279 C4278 1.372 . S
C4279 C4280 1.400 . S
C4279 C4284 1.490 . S
C4280 H4270 0.930 . S
C4280 C4279 1.400 . S
C4280 C4283 1.386 . S
H4281 C4297 0.930 . S
H4282 C4298 0.931 . S
C4283 H4271 0.929 . S
C4283 C4277 1.390 . S
C4283 C4280 1.386 . S
C4284 C4279 1.490 . S
C4284 C4286 1.395 . S
C4284 C4287 1.403 1_556 S
H4285 C4291 0.930 . S
C4286 H4272 0.930 . S
C4286 C4284 1.395 . S
C4286 C4289 1.403 . S
C4287 C4284 1.403 1_554 S
C4287 C4288 1.524 . S
C4287 C4291 1.400 . S
C4288 H4273 0.960 . S
C4288 H4274 0.960 . S
C4288 H4275 0.960 . S
C4288 C4287 1.524 . S
C4289 C4286 1.403 . S
C4289 C4290 1.392 1_556 S
C4289 C4293 1.495 . S
C4290 C4289 1.392 1_554 S
C4290 C4291 1.385 . S
C4290 C4292 1.478 . S
C4291 H4285 0.930 . S
C4291 C4287 1.400 . S
C4291 C4290 1.385 . S
C4292 C4290 1.478 . S
C4292 C4294 1.381 . S
C4292 C4298 1.383 . S
C4293 C4289 1.495 . S
C4293 H4299 0.959 1_545 S
C4293 H4300 0.961 . S
C4293 H4301 0.960 1_545 S
C4294 C4292 1.381 . S
C4294 C4295 1.394 . S
C4294 H4302 0.930 1_545 S
C4295 C4294 1.394 . S
C4295 C4296 1.383 . S
C4295 H4303 0.929 1_545 S
C4296 C4295 1.383 . S
C4296 C4297 1.377 . S
C4297 H4281 0.930 . S
C4297 C4296 1.377 . S
C4297 C4298 1.379 . S
C4298 H4282 0.931 . S
C4298 C4292 1.383 . S
C4298 C4297 1.379 . S
H4299 C4293 0.959 1_565 S
H4300 C4293 0.961 . S
H4301 C4293 0.960 1_565 S
H4302 C4294 0.930 1_565 S
H4303 C4295 0.929 1_565 S
H4304 C4312 0.929 . S
H4305 C4314 0.930 . S
H4306 C4316 0.930 . S
H4307 C4319 0.929 . S
H4308 C4322 0.930 . S
H4309 C4324 0.960 . S
H4310 C4324 0.960 . S
H4311 C4324 0.960 . S
C4312 H4304 0.929 . S
C4312 C4313 1.377 . S
C4312 C4314 1.384 . S
C4313 C4312 1.377 . S
C4313 C4319 1.390 . S
C4314 H4305 0.930 . S
C4314 C4312 1.384 . S
C4314 C4315 1.372 . S
C4315 C4314 1.372 . S
C4315 C4316 1.400 . S
C4315 C4320 1.490 . S
C4316 H4306 0.930 . S
C4316 C4315 1.400 . S
C4316 C4319 1.386 . S
H4317 C4333 0.930 . S
H4318 C4334 0.931 . S
C4319 H4307 0.929 . S
C4319 C4313 1.390 . S
C4319 C4316 1.386 . S
C4320 C4315 1.490 . S
C4320 C4322 1.395 . S
C4320 C4323 1.403 . S
H4321 C4327 0.930 . S
C4322 H4308 0.930 . S
C4322 C4320 1.395 . S
C4322 C4325 1.403 1_565 S
C4323 C4320 1.403 . S
C4323 C4324 1.524 . S
C4323 C4327 1.400 1_565 S
C4324 H4309 0.960 . S
C4324 H4310 0.960 . S
C4324 H4311 0.960 . S
C4324 C4323 1.524 . S
C4325 C4322 1.403 1_545 S
C4325 C4326 1.392 . S
C4325 C4329 1.495 . S
C4326 C4325 1.392 . S
C4326 C4327 1.385 . S
C4326 C4328 1.478 . S
C4327 H4321 0.930 . S
C4327 C4323 1.400 1_545 S
C4327 C4326 1.385 . S
C4328 C4326 1.478 . S
C4328 C4330 1.381 . S
C4328 C4334 1.383 . S
C4329 C4325 1.495 . S
C4329 H4335 0.959 . S
C4329 H4336 0.961 . S
C4329 H4337 0.960 . S
C4330 C4328 1.381 . S
C4330 C4331 1.394 . S
C4330 H4338 0.930 . S
C4331 C4330 1.394 . S
C4331 C4332 1.383 . S
C4331 H4339 0.929 . S
C4332 C4331 1.383 . S
C4332 C4333 1.377 . S
C4333 H4317 0.930 . S
C4333 C4332 1.377 . S
C4333 C4334 1.379 . S
C4334 H4318 0.931 . S
C4334 C4328 1.383 . S
C4334 C4333 1.379 . S
H4335 C4329 0.959 . S
H4336 C4329 0.961 . S
H4337 C4329 0.960 . S
H4338 C4330 0.930 . S
H4339 C4331 0.929 . S
H4340 C4348 0.929 . S
H4341 C4350 0.930 . S
H4342 C4352 0.930 . S
H4343 C4355 0.929 . S
H4344 C4358 0.930 . S
H4345 C4360 0.960 . S
H4346 C4360 0.960 1_565 S
H4347 C4360 0.960 . S
C4348 H4340 0.929 . S
C4348 C4349 1.377 . S
C4348 C4350 1.384 . S
C4349 C4348 1.377 . S
C4349 C4355 1.390 . S
C4350 H4341 0.930 . S
C4350 C4348 1.384 . S
C4350 C4351 1.372 . S
C4351 C4350 1.372 . S
C4351 C4352 1.400 . S
C4351 C4356 1.490 . S
C4352 H4342 0.930 . S
C4352 C4351 1.400 . S
C4352 C4355 1.386 . S
H4353 C4369 0.930 . S
H4354 C4370 0.931 . S
C4355 H4343 0.929 . S
C4355 C4349 1.390 . S
C4355 C4352 1.386 . S
C4356 C4351 1.490 . S
C4356 C4358 1.395 . S
C4356 C4359 1.403 . S
H4357 C4363 0.930 . S
C4358 H4344 0.930 . S
C4358 C4356 1.395 . S
C4358 C4361 1.403 . S
C4359 C4356 1.403 . S
C4359 C4360 1.524 . S
C4359 C4363 1.400 . S
C4360 H4345 0.960 . S
C4360 H4346 0.960 1_545 S
C4360 H4347 0.960 . S
C4360 C4359 1.524 . S
C4361 C4358 1.403 . S
C4361 C4362 1.392 . S
C4361 C4365 1.495 . S
C4362 C4361 1.392 . S
C4362 C4363 1.385 . S
C4362 C4364 1.478 . S
C4363 H4357 0.930 . S
C4363 C4359 1.400 . S
C4363 C4362 1.385 . S
C4364 C4362 1.478 . S
C4364 C4366 1.381 . S
C4364 C4370 1.383 . S
C4365 C4361 1.495 . S
C4365 H4371 0.959 . S
C4365 H4372 0.961 . S
C4365 H4373 0.960 . S
C4366 C4364 1.381 . S
C4366 C4367 1.394 . S
C4366 H4374 0.930 . S
C4367 C4366 1.394 . S
C4367 C4368 1.383 . S
C4367 H4375 0.929 . S
C4368 C4367 1.383 . S
C4368 C4369 1.377 . S
C4369 H4353 0.930 . S
C4369 C4368 1.377 . S
C4369 C4370 1.379 . S
C4370 H4354 0.931 . S
C4370 C4364 1.383 . S
C4370 C4369 1.379 . S
H4371 C4365 0.959 . S
H4372 C4365 0.961 . S
H4373 C4365 0.960 . S
H4374 C4366 0.930 . S
H4375 C4367 0.929 . S
H4376 C4384 0.929 . S
H4377 C4386 0.930 . S
H4378 C4388 0.930 . S
H4379 C4391 0.929 . S
H4380 C4394 0.930 . S
H4381 C4396 0.960 . S
H4382 C4396 0.960 . S
H4383 C4396 0.960 . S
C4384 H4376 0.929 . S
C4384 C4385 1.377 . S
C4384 C4386 1.384 . S
C4385 C4384 1.377 . S
C4385 C4391 1.390 . S
C4386 H4377 0.930 . S
C4386 C4384 1.384 . S
C4386 C4387 1.372 . S
C4387 C4386 1.372 . S
C4387 C4388 1.400 . S
C4387 C4392 1.490 . S
C4388 H4378 0.930 . S
C4388 C4387 1.400 . S
C4388 C4391 1.386 . S
H4389 C4405 0.930 . S
H4390 C4406 0.931 . S
C4391 H4379 0.929 . S
C4391 C4385 1.390 . S
C4391 C4388 1.386 . S
C4392 C4387 1.490 . S
C4392 C4394 1.395 1_565 S
C4392 C4395 1.403 . S
H4393 C4399 0.930 . S
C4394 H4380 0.930 . S
C4394 C4392 1.395 1_545 S
C4394 C4397 1.403 . S
C4395 C4392 1.403 . S
C4395 C4396 1.524 . S
C4395 C4399 1.400 1_565 S
C4396 H4381 0.960 . S
C4396 H4382 0.960 . S
C4396 H4383 0.960 . S
C4396 C4395 1.524 . S
C4397 C4394 1.403 . S
C4397 C4398 1.392 . S
C4397 C4401 1.495 . S
C4398 C4397 1.392 . S
C4398 C4399 1.385 . S
C4398 C4400 1.478 . S
C4399 H4393 0.930 . S
C4399 C4395 1.400 1_545 S
C4399 C4398 1.385 . S
C4400 C4398 1.478 . S
C4400 C4402 1.381 . S
C4400 C4406 1.383 . S
C4401 C4397 1.495 . S
C4401 H4407 0.959 . S
C4401 H4408 0.961 . S
C4401 H4409 0.960 . S
C4402 C4400 1.381 . S
C4402 C4403 1.394 . S
C4402 H4410 0.930 . S
C4403 C4402 1.394 . S
C4403 C4404 1.383 . S
C4403 H4411 0.929 . S
C4404 C4403 1.383 . S
C4404 C4405 1.377 . S
C4405 H4389 0.930 . S
C4405 C4404 1.377 . S
C4405 C4406 1.379 . S
C4406 H4390 0.931 . S
C4406 C4400 1.383 . S
C4406 C4405 1.379 . S
H4407 C4401 0.959 . S
H4408 C4401 0.961 . S
H4409 C4401 0.960 . S
H4410 C4402 0.930 . S
H4411 C4403 0.929 . S
H4412 C4420 0.929 . S
H4413 C4422 0.930 . S
H4414 C4424 0.930 . S
H4415 C4427 0.929 . S
H4416 C4430 0.930 . S
H4417 C4432 0.960 . S
H4418 C4432 0.960 . S
H4419 C4432 0.960 . S
C4420 H4412 0.929 . S
C4420 C4421 1.377 . S
C4420 C4422 1.384 . S
C4421 C4420 1.377 . S
C4421 C4427 1.390 . S
C4422 H4413 0.930 . S
C4422 C4420 1.384 . S
C4422 C4423 1.372 . S
C4423 C4422 1.372 . S
C4423 C4424 1.400 . S
C4423 C4428 1.490 . S
C4424 H4414 0.930 . S
C4424 C4423 1.400 . S
C4424 C4427 1.386 . S
H4425 C4441 0.930 . S
H4426 C4442 0.931 . S
C4427 H4415 0.929 . S
C4427 C4421 1.390 . S
C4427 C4424 1.386 . S
C4428 C4423 1.490 . S
C4428 C4430 1.395 . S
C4428 C4431 1.403 1_554 S
H4429 C4435 0.930 . S
C4430 H4416 0.930 . S
C4430 C4428 1.395 . S
C4430 C4433 1.403 . S
C4431 C4428 1.403 1_556 S
C4431 C4432 1.524 . S
C4431 C4435 1.400 . S
C4432 H4417 0.960 . S
C4432 H4418 0.960 . S
C4432 H4419 0.960 . S
C4432 C4431 1.524 . S
C4433 C4430 1.403 . S
C4433 C4434 1.392 1_554 S
C4433 C4437 1.495 . S
C4434 C4433 1.392 1_556 S
C4434 C4435 1.385 . S
C4434 C4436 1.478 . S
C4435 H4429 0.930 . S
C4435 C4431 1.400 . S
C4435 C4434 1.385 . S
C4436 C4434 1.478 . S
C4436 C4438 1.381 . S
C4436 C4442 1.383 . S
C4437 C4433 1.495 . S
C4437 H4443 0.959 . S
C4437 H4444 0.961 . S
C4437 H4445 0.960 . S
C4438 C4436 1.381 . S
C4438 C4439 1.394 . S
C4438 H4446 0.930 . S
C4439 C4438 1.394 . S
C4439 C4440 1.383 . S
C4439 H4447 0.929 . S
C4440 C4439 1.383 . S
C4440 C4441 1.377 . S
C4441 H4425 0.930 . S
C4441 C4440 1.377 . S
C4441 C4442 1.379 . S
C4442 H4426 0.931 . S
C4442 C4436 1.383 . S
C4442 C4441 1.379 . S
H4443 C4437 0.959 . S
H4444 C4437 0.961 . S
H4445 C4437 0.960 . S
H4446 C4438 0.930 . S
H4447 C4439 0.929 . S
H4448 C4456 0.929 . S
H4449 C4458 0.930 . S
H4450 C4460 0.930 . S
H4451 C4463 0.929 . S
H4452 C4466 0.930 . S
H4453 C4468 0.960 . S
H4454 C4468 0.960 . S
H4455 C4468 0.960 . S
C4456 H4448 0.929 . S
C4456 C4457 1.377 . S
C4456 C4458 1.384 . S
C4457 C4456 1.377 . S
C4457 C4463 1.390 . S
C4458 H4449 0.930 . S
C4458 C4456 1.384 . S
C4458 C4459 1.372 . S
C4459 C4458 1.372 . S
C4459 C4460 1.400 . S
C4459 C4464 1.490 . S
C4460 H4450 0.930 . S
C4460 C4459 1.400 . S
C4460 C4463 1.386 . S
H4461 C4477 0.930 . S
H4462 C4478 0.931 . S
C4463 H4451 0.929 . S
C4463 C4457 1.390 . S
C4463 C4460 1.386 . S
C4464 C4459 1.490 . S
C4464 C4466 1.395 . S
C4464 C4467 1.403 . S
H4465 C4471 0.930 . S
C4466 H4452 0.930 . S
C4466 C4464 1.395 . S
C4466 C4469 1.403 . S
C4467 C4464 1.403 . S
C4467 C4468 1.524 . S
C4467 C4471 1.400 . S
C4468 H4453 0.960 . S
C4468 H4454 0.960 . S
C4468 H4455 0.960 . S
C4468 C4467 1.524 . S
C4469 C4466 1.403 . S
C4469 C4470 1.392 . S
C4469 C4473 1.495 . S
C4470 C4469 1.392 . S
C4470 C4471 1.385 . S
C4470 C4472 1.478 . S
C4471 H4465 0.930 . S
C4471 C4467 1.400 . S
C4471 C4470 1.385 . S
C4472 C4470 1.478 . S
C4472 C4474 1.381 . S
C4472 C4478 1.383 . S
C4473 C4469 1.495 . S
C4473 H4479 0.959 . S
C4473 H4480 0.961 . S
C4473 H4481 0.960 . S
C4474 C4472 1.381 . S
C4474 C4475 1.394 . S
C4474 H4482 0.930 . S
C4475 C4474 1.394 . S
C4475 C4476 1.383 . S
C4475 H4483 0.929 . S
C4476 C4475 1.383 . S
C4476 C4477 1.377 . S
C4477 H4461 0.930 . S
C4477 C4476 1.377 . S
C4477 C4478 1.379 . S
C4478 H4462 0.931 . S
C4478 C4472 1.383 . S
C4478 C4477 1.379 . S
H4479 C4473 0.959 . S
H4480 C4473 0.961 . S
H4481 C4473 0.960 . S
H4482 C4474 0.930 . S
H4483 C4475 0.929 . S
H4484 C4492 0.929 . S
H4485 C4494 0.930 . S
H4486 C4496 0.930 . S
H4487 C4499 0.929 . S
H4488 C4502 0.930 . S
H4489 C4504 0.960 . S
H4490 C4504 0.960 . S
H4491 C4504 0.960 . S
C4492 H4484 0.929 . S
C4492 C4493 1.377 . S
C4492 C4494 1.384 . S
C4493 C4492 1.377 . S
C4493 C4499 1.390 . S
C4494 H4485 0.930 . S
C4494 C4492 1.384 . S
C4494 C4495 1.372 . S
C4495 C4494 1.372 . S
C4495 C4496 1.400 . S
C4495 C4500 1.490 . S
C4496 H4486 0.930 . S
C4496 C4495 1.400 . S
C4496 C4499 1.386 . S
H4497 C4513 0.930 . S
H4498 C4514 0.931 . S
C4499 H4487 0.929 . S
C4499 C4493 1.390 . S
C4499 C4496 1.386 . S
C4500 C4495 1.490 . S
C4500 C4502 1.395 . S
C4500 C4503 1.403 1_556 S
H4501 C4507 0.930 . S
C4502 H4488 0.930 . S
C4502 C4500 1.395 . S
C4502 C4505 1.403 . S
C4503 C4500 1.403 1_554 S
C4503 C4504 1.524 . S
C4503 C4507 1.400 . S
C4504 H4489 0.960 . S
C4504 H4490 0.960 . S
C4504 H4491 0.960 . S
C4504 C4503 1.524 . S
C4505 C4502 1.403 . S
C4505 C4506 1.392 1_556 S
C4505 C4509 1.495 . S
C4506 C4505 1.392 1_554 S
C4506 C4507 1.385 . S
C4506 C4508 1.478 . S
C4507 H4501 0.930 . S
C4507 C4503 1.400 . S
C4507 C4506 1.385 . S
C4508 C4506 1.478 . S
C4508 C4510 1.381 . S
C4508 C4514 1.383 . S
C4509 C4505 1.495 . S
C4509 H4515 0.959 . S
C4509 H4516 0.961 . S
C4509 H4517 0.960 . S
C4510 C4508 1.381 . S
C4510 C4511 1.394 . S
C4510 H4518 0.930 . S
C4511 C4510 1.394 . S
C4511 C4512 1.383 . S
C4511 H4519 0.929 . S
C4512 C4511 1.383 . S
C4512 C4513 1.377 . S
C4513 H4497 0.930 . S
C4513 C4512 1.377 . S
C4513 C4514 1.379 . S
C4514 H4498 0.931 . S
C4514 C4508 1.383 . S
C4514 C4513 1.379 . S
H4515 C4509 0.959 . S
H4516 C4509 0.961 . S
H4517 C4509 0.960 . S
H4518 C4510 0.930 . S
H4519 C4511 0.929 . S
H4520 C4528 0.929 . S
H4521 C4530 0.930 . S
H4522 C4532 0.930 . S
H4523 C4535 0.929 . S
H4524 C4538 0.930 . S
H4525 C4540 0.960 . S
H4526 C4540 0.960 . S
H4527 C4540 0.960 . S
C4528 H4520 0.929 . S
C4528 C4529 1.377 . S
C4528 C4530 1.384 . S
C4529 C4528 1.377 . S
C4529 C4535 1.390 . S
C4530 H4521 0.930 . S
C4530 C4528 1.384 . S
C4530 C4531 1.372 . S
C4531 C4530 1.372 . S
C4531 C4532 1.400 . S
C4531 C4536 1.490 . S
C4532 H4522 0.930 . S
C4532 C4531 1.400 . S
C4532 C4535 1.386 . S
H4533 C4549 0.930 . S
H4534 C4550 0.931 . S
C4535 H4523 0.929 . S
C4535 C4529 1.390 . S
C4535 C4532 1.386 . S
C4536 C4531 1.490 . S
C4536 C4538 1.395 . S
C4536 C4539 1.403 . S
H4537 C4543 0.930 . S
C4538 H4524 0.930 . S
C4538 C4536 1.395 . S
C4538 C4541 1.403 . S
C4539 C4536 1.403 . S
C4539 C4540 1.524 . S
C4539 C4543 1.400 . S
C4540 H4525 0.960 . S
C4540 H4526 0.960 . S
C4540 H4527 0.960 . S
C4540 C4539 1.524 . S
C4541 C4538 1.403 . S
C4541 C4542 1.392 . S
C4541 C4545 1.495 . S
C4542 C4541 1.392 . S
C4542 C4543 1.385 . S
C4542 C4544 1.478 . S
C4543 H4537 0.930 . S
C4543 C4539 1.400 . S
C4543 C4542 1.385 . S
C4544 C4542 1.478 . S
C4544 C4546 1.381 . S
C4544 C4550 1.383 . S
C4545 C4541 1.495 . S
C4545 H4551 0.959 . S
C4545 H4552 0.961 . S
C4545 H4553 0.960 . S
C4546 C4544 1.381 . S
C4546 C4547 1.394 . S
C4546 H4554 0.930 . S
C4547 C4546 1.394 . S
C4547 C4548 1.383 . S
C4547 H4555 0.929 . S
C4548 C4547 1.383 . S
C4548 C4549 1.377 . S
C4549 H4533 0.930 . S
C4549 C4548 1.377 . S
C4549 C4550 1.379 . S
C4550 H4534 0.931 . S
C4550 C4544 1.383 . S
C4550 C4549 1.379 . S
H4551 C4545 0.959 . S
H4552 C4545 0.961 . S
H4553 C4545 0.960 . S
H4554 C4546 0.930 . S
H4555 C4547 0.929 . S
H4556 C4564 0.929 . S
H4557 C4566 0.930 . S
H4558 C4568 0.930 . S
H4559 C4571 0.929 . S
H4560 C4574 0.930 . S
H4561 C4576 0.960 . S
H4562 C4576 0.960 . S
H4563 C4576 0.960 . S
C4564 H4556 0.929 . S
C4564 C4565 1.377 . S
C4564 C4566 1.384 . S
C4565 C4564 1.377 . S
C4565 C4571 1.390 . S
C4566 H4557 0.930 . S
C4566 C4564 1.384 . S
C4566 C4567 1.372 . S
C4567 C4566 1.372 . S
C4567 C4568 1.400 . S
C4567 C4572 1.490 . S
C4568 H4558 0.930 . S
C4568 C4567 1.400 . S
C4568 C4571 1.386 . S
H4569 C4585 0.930 . S
H4570 C4586 0.931 . S
C4571 H4559 0.929 . S
C4571 C4565 1.390 . S
C4571 C4568 1.386 . S
C4572 C4567 1.490 . S
C4572 C4574 1.395 . S
C4572 C4575 1.403 . S
H4573 C4579 0.930 . S
C4574 H4560 0.930 . S
C4574 C4572 1.395 . S
C4574 C4577 1.403 . S
C4575 C4572 1.403 . S
C4575 C4576 1.524 . S
C4575 C4579 1.400 . S
C4576 H4561 0.960 . S
C4576 H4562 0.960 . S
C4576 H4563 0.960 . S
C4576 C4575 1.524 . S
C4577 C4574 1.403 . S
C4577 C4578 1.392 . S
C4577 C4581 1.495 . S
C4578 C4577 1.392 . S
C4578 C4579 1.385 . S
C4578 C4580 1.478 . S
C4579 H4573 0.930 . S
C4579 C4575 1.400 . S
C4579 C4578 1.385 . S
C4580 C4578 1.478 . S
C4580 C4582 1.381 . S
C4580 C4586 1.383 . S
C4581 C4577 1.495 . S
C4581 H4587 0.959 . S
C4581 H4588 0.961 . S
C4581 H4589 0.960 . S
C4582 C4580 1.381 . S
C4582 C4583 1.394 . S
C4582 H4590 0.930 . S
C4583 C4582 1.394 . S
C4583 C4584 1.383 . S
C4583 H4591 0.929 . S
C4584 C4583 1.383 . S
C4584 C4585 1.377 . S
C4585 H4569 0.930 . S
C4585 C4584 1.377 . S
C4585 C4586 1.379 . S
C4586 H4570 0.931 . S
C4586 C4580 1.383 . S
C4586 C4585 1.379 . S
H4587 C4581 0.959 . S
H4588 C4581 0.961 . S
H4589 C4581 0.960 . S
H4590 C4582 0.930 . S
H4591 C4583 0.929 . S
H4592 C4600 0.929 . S
H4593 C4602 0.930 . S
H4594 C4604 0.930 . S
H4595 C4607 0.929 . S
H4596 C4610 0.930 . S
H4597 C4612 0.960 . S
H4598 C4612 0.960 . S
H4599 C4612 0.960 . S
C4600 H4592 0.929 . S
C4600 C4601 1.377 . S
C4600 C4602 1.384 . S
C4601 C4600 1.377 . S
C4601 C4607 1.390 . S
C4602 H4593 0.930 . S
C4602 C4600 1.384 . S
C4602 C4603 1.372 . S
C4603 C4602 1.372 . S
C4603 C4604 1.400 . S
C4603 C4608 1.490 . S
C4604 H4594 0.930 . S
C4604 C4603 1.400 . S
C4604 C4607 1.386 . S
H4605 C4621 0.930 . S
H4606 C4622 0.931 . S
C4607 H4595 0.929 . S
C4607 C4601 1.390 . S
C4607 C4604 1.386 . S
C4608 C4603 1.490 . S
C4608 C4610 1.395 . S
C4608 C4611 1.403 . S
H4609 C4615 0.930 . S
C4610 H4596 0.930 . S
C4610 C4608 1.395 . S
C4610 C4613 1.403 . S
C4611 C4608 1.403 . S
C4611 C4612 1.524 . S
C4611 C4615 1.400 . S
C4612 H4597 0.960 . S
C4612 H4598 0.960 . S
C4612 H4599 0.960 . S
C4612 C4611 1.524 . S
C4613 C4610 1.403 . S
C4613 C4614 1.392 . S
C4613 C4617 1.495 . S
C4614 C4613 1.392 . S
C4614 C4615 1.385 . S
C4614 C4616 1.478 . S
C4615 H4609 0.930 . S
C4615 C4611 1.400 . S
C4615 C4614 1.385 . S
C4616 C4614 1.478 . S
C4616 C4618 1.381 . S
C4616 C4622 1.383 . S
C4617 C4613 1.495 . S
C4617 H4623 0.959 . S
C4617 H4624 0.961 . S
C4617 H4625 0.960 . S
C4618 C4616 1.381 . S
C4618 C4619 1.394 . S
C4618 H4626 0.930 . S
C4619 C4618 1.394 . S
C4619 C4620 1.383 . S
C4619 H4627 0.929 . S
C4620 C4619 1.383 . S
C4620 C4621 1.377 . S
C4621 H4605 0.930 . S
C4621 C4620 1.377 . S
C4621 C4622 1.379 . S
C4622 H4606 0.931 . S
C4622 C4616 1.383 . S
C4622 C4621 1.379 . S
H4623 C4617 0.959 . S
H4624 C4617 0.961 . S
H4625 C4617 0.960 . S
H4626 C4618 0.930 . S
H4627 C4619 0.929 . S
H4628 C4636 0.929 . S
H4629 C4638 0.930 . S
H4630 C4640 0.930 . S
H4631 C4643 0.929 . S
H4632 C4646 0.930 . S
H4633 C4648 0.960 . S
H4634 C4648 0.960 . S
H4635 C4648 0.960 . S
C4636 H4628 0.929 . S
C4636 C4637 1.377 . S
C4636 C4638 1.384 . S
C4637 C4636 1.377 . S
C4637 C4643 1.390 . S
C4638 H4629 0.930 . S
C4638 C4636 1.384 . S
C4638 C4639 1.372 . S
C4639 C4638 1.372 . S
C4639 C4640 1.400 . S
C4639 C4644 1.490 . S
C4640 H4630 0.930 . S
C4640 C4639 1.400 . S
C4640 C4643 1.386 . S
H4641 C4657 0.930 . S
H4642 C4658 0.931 . S
C4643 H4631 0.929 . S
C4643 C4637 1.390 . S
C4643 C4640 1.386 . S
C4644 C4639 1.490 . S
C4644 C4646 1.395 . S
C4644 C4647 1.403 1_556 S
H4645 C4651 0.930 . S
C4646 H4632 0.930 . S
C4646 C4644 1.395 . S
C4646 C4649 1.403 . S
C4647 C4644 1.403 1_554 S
C4647 C4648 1.524 . S
C4647 C4651 1.400 . S
C4648 H4633 0.960 . S
C4648 H4634 0.960 . S
C4648 H4635 0.960 . S
C4648 C4647 1.524 . S
C4649 C4646 1.403 . S
C4649 C4650 1.392 1_556 S
C4649 C4653 1.495 . S
C4650 C4649 1.392 1_554 S
C4650 C4651 1.385 . S
C4650 C4652 1.478 . S
C4651 H4645 0.930 . S
C4651 C4647 1.400 . S
C4651 C4650 1.385 . S
C4652 C4650 1.478 . S
C4652 C4654 1.381 . S
C4652 C4658 1.383 . S
C4653 C4649 1.495 . S
C4653 H4659 0.959 . S
C4653 H4660 0.961 . S
C4653 H4661 0.960 . S
C4654 C4652 1.381 . S
C4654 C4655 1.394 . S
C4654 H4662 0.930 . S
C4655 C4654 1.394 . S
C4655 C4656 1.383 . S
C4655 H4663 0.929 . S
C4656 C4655 1.383 . S
C4656 C4657 1.377 . S
C4657 H4641 0.930 . S
C4657 C4656 1.377 . S
C4657 C4658 1.379 . S
C4658 H4642 0.931 . S
C4658 C4652 1.383 . S
C4658 C4657 1.379 . S
H4659 C4653 0.959 . S
H4660 C4653 0.961 . S
H4661 C4653 0.960 . S
H4662 C4654 0.930 . S
H4663 C4655 0.929 . S
H4664 C4672 0.929 . S
H4665 C4674 0.930 . S
H4666 C4676 0.930 . S
H4667 C4679 0.929 . S
H4668 C4682 0.930 . S
H4669 C4684 0.960 . S
H4670 C4684 0.960 . S
H4671 C4684 0.960 . S
C4672 H4664 0.929 . S
C4672 C4673 1.377 . S
C4672 C4674 1.384 . S
C4673 C4672 1.377 . S
C4673 C4679 1.390 . S
C4674 H4665 0.930 . S
C4674 C4672 1.384 . S
C4674 C4675 1.372 . S
C4675 C4674 1.372 . S
C4675 C4676 1.400 . S
C4675 C4680 1.490 . S
C4676 H4666 0.930 . S
C4676 C4675 1.400 . S
C4676 C4679 1.386 . S
H4677 C4693 0.930 . S
H4678 C4694 0.931 . S
C4679 H4667 0.929 . S
C4679 C4673 1.390 . S
C4679 C4676 1.386 . S
C4680 C4675 1.490 . S
C4680 C4682 1.395 . S
C4680 C4683 1.403 . S
H4681 C4687 0.930 . S
C4682 H4668 0.930 . S
C4682 C4680 1.395 . S
C4682 C4685 1.403 . S
C4683 C4680 1.403 . S
C4683 C4684 1.524 . S
C4683 C4687 1.400 . S
C4684 H4669 0.960 . S
C4684 H4670 0.960 . S
C4684 H4671 0.960 . S
C4684 C4683 1.524 . S
C4685 C4682 1.403 . S
C4685 C4686 1.392 . S
C4685 C4689 1.495 . S
C4686 C4685 1.392 . S
C4686 C4687 1.385 . S
C4686 C4688 1.478 . S
C4687 H4681 0.930 . S
C4687 C4683 1.400 . S
C4687 C4686 1.385 . S
C4688 C4686 1.478 . S
C4688 C4690 1.381 . S
C4688 C4694 1.383 . S
C4689 C4685 1.495 . S
C4689 H4695 0.959 . S
C4689 H4696 0.961 . S
C4689 H4697 0.960 . S
C4690 C4688 1.381 . S
C4690 C4691 1.394 . S
C4690 H4698 0.930 . S
C4691 C4690 1.394 . S
C4691 C4692 1.383 . S
C4691 H4699 0.929 . S
C4692 C4691 1.383 . S
C4692 C4693 1.377 . S
C4693 H4677 0.930 . S
C4693 C4692 1.377 . S
C4693 C4694 1.379 . S
C4694 H4678 0.931 . S
C4694 C4688 1.383 . S
C4694 C4693 1.379 . S
H4695 C4689 0.959 . S
H4696 C4689 0.961 . S
H4697 C4689 0.960 . S
H4698 C4690 0.930 . S
H4699 C4691 0.929 . S
H4700 C4708 0.929 . S
H4701 C4710 0.930 . S
H4702 C4712 0.930 . S
H4703 C4715 0.929 . S
H4704 C4718 0.930 . S
H4705 C4720 0.960 . S
H4706 C4720 0.960 . S
H4707 C4720 0.960 . S
C4708 H4700 0.929 . S
C4708 C4709 1.377 . S
C4708 C4710 1.384 . S
C4709 C4708 1.377 . S
C4709 C4715 1.390 . S
C4710 H4701 0.930 . S
C4710 C4708 1.384 . S
C4710 C4711 1.372 . S
C4711 C4710 1.372 . S
C4711 C4712 1.400 . S
C4711 C4716 1.490 . S
C4712 H4702 0.930 . S
C4712 C4711 1.400 . S
C4712 C4715 1.386 . S
H4713 C4729 0.930 . S
H4714 C4730 0.931 . S
C4715 H4703 0.929 . S
C4715 C4709 1.390 . S
C4715 C4712 1.386 . S
C4716 C4711 1.490 . S
C4716 C4718 1.395 . S
C4716 C4719 1.403 . S
H4717 C4723 0.930 . S
C4718 H4704 0.930 . S
C4718 C4716 1.395 . S
C4718 C4721 1.403 . S
C4719 C4716 1.403 . S
C4719 C4720 1.524 . S
C4719 C4723 1.400 . S
C4720 H4705 0.960 . S
C4720 H4706 0.960 . S
C4720 H4707 0.960 . S
C4720 C4719 1.524 . S
C4721 C4718 1.403 . S
C4721 C4722 1.392 . S
C4721 C4725 1.495 . S
C4722 C4721 1.392 . S
C4722 C4723 1.385 . S
C4722 C4724 1.478 . S
C4723 H4717 0.930 . S
C4723 C4719 1.400 . S
C4723 C4722 1.385 . S
C4724 C4722 1.478 . S
C4724 C4726 1.381 . S
C4724 C4730 1.383 . S
C4725 C4721 1.495 . S
C4725 H4731 0.959 . S
C4725 H4732 0.961 . S
C4725 H4733 0.960 . S
C4726 C4724 1.381 . S
C4726 C4727 1.394 . S
C4726 H4734 0.930 . S
C4727 C4726 1.394 . S
C4727 C4728 1.383 . S
C4727 H4735 0.929 . S
C4728 C4727 1.383 . S
C4728 C4729 1.377 . S
C4729 H4713 0.930 . S
C4729 C4728 1.377 . S
C4729 C4730 1.379 . S
C4730 H4714 0.931 . S
C4730 C4724 1.383 . S
C4730 C4729 1.379 . S
H4731 C4725 0.959 . S
H4732 C4725 0.961 . S
H4733 C4725 0.960 . S
H4734 C4726 0.930 . S
H4735 C4727 0.929 . S
C1289 C6 0.382 . S
C1308 C1099 0.564 . S
C1325 C46 0.384 . S
C1344 C339 0.561 . S
C1361 C86 0.389 . S
C1380 C1019 0.480 . S
C1397 C419 0.460 . S
C1416 C126 0.309 . S
C1433 C166 0.355 . S
C1452 C1179 0.449 . S
C1469 C579 0.491 . S
C1488 C206 0.391 . S
C1505 C1259 0.484 . S
C1524 C246 0.463 . S
C1541 C286 0.361 . S
C1560 C499 0.529 . S
C1577 C335 0.384 . S
C1596 C770 0.469 . S
C1613 C375 0.359 . S
C1632 C10 0.492 . S
C1649 C690 0.480 . S
C1668 C415 0.461 . S
C1685 C90 0.461 . S
C1704 C455 0.297 . S
C1721 C495 0.385 . S
C1740 C850 0.477 . S
C1757 C535 0.390 . S
C1776 C250 0.530 . S
C1793 C575 0.390 . S
C1812 C930 0.515 . S
C1829 C170 0.463 . S
C1848 C615 0.295 . S
C1865 C459 0.467 . S
C1884 C646 0.296 . S
C1901 C979 0.476 . S
C1920 C686 0.306 . S
C1937 C379 0.483 . S
C1956 C726 0.331 . S
C1973 C766 0.357 . S
C1992 C1059 0.503 . S
C2009 C539 0.474 . S
C2028 C806 0.459 . S
C2045 C1219 0.456 . S
C2064 C846 0.345 . S
C2081 C619 0.475 . S
C2100 C886 0.460 . S
C2117 C926 0.367 . S
C2136 C1139 0.551 . S
C2153 C975 0.378 . S
C2172 C130 0.434 . S
C2189 C1015 0.354 . S
C2208 C650 0.433 . S
C2225 C1055 0.381 . S
C2244 C50 0.564 . S
C2261 C1095 0.363 . S
C2280 C730 0.516 . S
C2297 C210 0.491 . S
C2316 C1135 0.451 . S
C2333 C890 0.464 . S
C2352 C1175 0.418 . S
C2369 C1215 0.356 . S
C2388 C290 0.407 . S
C2405 C1255 0.364 . S
C2424 C810 0.522 . S
C2441 C18 2.307 . S
C2460 C738 2.321 . S
C2477 C778 2.305 . S
C2496 C58 2.317 . S
C2513 C98 2.303 . S
C2532 C658 2.283 . S
C2549 C138 2.304 . S
C2568 C698 2.313 . S
C2585 C898 2.306 . S
C2604 C178 2.319 . S
C2621 C218 2.299 . S
C2640 C938 2.281 . S
C2657 C818 2.300 . S
C2676 C258 2.278 . S
C2693 C298 2.299 . S
C2712 C858 2.284 . S
C2729 C1049 2.305 . S
C2748 C329 2.321 . S
C2765 C369 2.301 . S
C2784 C1089 2.279 . S
C2801 C409 2.305 . S
C2820 C969 2.321 . S
C2837 C449 2.302 . S
C2856 C1009 2.279 . S
C2873 C1209 2.305 . S
C2892 C489 2.280 . S
C2909 C1249 2.308 . S
C2928 C529 2.299 . S
C2945 C569 2.301 . S
C2964 C1129 2.279 . S
C2981 C609 2.307 . S
C3000 C1169 2.314 . S
C3017 C19 3.119 . S
C3036 C970 3.115 . S
C3053 C370 3.124 . S
C3072 C59 3.113 . S
C3089 C99 3.120 . S
C3108 C1050 3.119 . S
C3125 C139 3.124 . S
C3144 C450 3.128 . S
C3161 C1130 3.119 . S
C3180 C179 3.110 . S
C3197 C530 3.122 . S
C3216 C219 3.128 . S
C3233 C259 3.120 . S
C3252 C1210 3.104 . S
C3269 C299 3.119 . S
C3288 C610 3.109 . S
C3305 C659 3.123 . S
C3324 C330 3.129 . S
C3341 C739 3.123 . S
C3360 C410 3.129 . S
C3377 C819 3.119 . S
C3396 C490 3.117 . S
C3413 C570 3.119 . S
C3432 C899 3.114 . S
C3449 C699 3.122 . S
C3468 C1010 3.128 . S
C3485 C779 3.120 . S
C3504 C1090 3.120 . S
C3521 C1170 3.124 . S
C3540 C859 3.124 . S
C3557 C1250 3.122 . S
C3576 C939 3.108 . S
C3593 C9 4.632 . S
C3612 C209 4.632 1_545 S
C3629 C249 4.631 . S
C3648 C49 4.615 1_545 S
C3665 C289 4.632 1_565 S
C3684 C89 4.627 . S
C3701 C169 4.632 . S
C3720 C129 4.627 1_565 S
C3737 C338 4.629 . S
C3756 C538 4.626 1_565 S
C3773 C378 4.630 1_565 S
C3792 C578 4.633 . S
C3809 C618 4.632 1_545 S
C3828 C418 4.628 . S
C3845 C458 4.632 1_545 S
C3864 C498 4.631 . S
C3881 C649 4.628 . S
C3900 C849 4.629 . S
C3917 C689 4.632 . S
C3936 C889 4.625 . S
C3953 C729 4.632 . S
C3972 C929 4.629 . S
C3989 C809 4.630 . S
C4008 C769 4.635 . S
C4025 C978 4.632 . S
C4044 C1178 4.635 . S
C4061 C1018 4.628 . S
C4080 C1218 4.614 . S
C4097 C1258 4.630 . S
C4116 C1058 4.632 . S
C4133 C1098 4.632 . S
C4152 C1138 4.635 . S
C4169 C15 0.856 . S
C4188 C175 0.849 . S
C4205 C55 0.861 . S
C4224 C215 0.870 . S
C4241 C255 0.855 . S
C4260 C95 0.845 . S
C4277 C295 0.865 . S
C4296 C135 0.888 . S
C4313 C326 0.863 . S
C4332 C486 0.858 . S
C4349 C526 0.862 . S
C4368 C366 0.826 . S
C4385 C566 0.858 . S
C4404 C406 0.882 . S
C4421 C606 0.856 . S
C4440 C446 0.887 . S
C4457 C655 0.858 . S
C4476 C815 0.856 . S
C4493 C855 0.863 . S
C4512 C695 0.879 . S
C4529 C735 0.851 . S
C4548 C895 0.826 . S
C4565 C935 0.862 . S
C4584 C775 0.877 . S
C4601 C1126 0.851 . S
C4620 C966 0.873 . S
C4637 C1006 0.859 . S
C4656 C1166 0.880 . S
C4673 C1046 0.863 . S
C4692 C1206 0.860 . S
C4709 C1086 0.863 . S
C4728 C1246 0.859 . S
