# Generated by pormake.
# Topology uol, (4)-cn, num edge types: 1
# Building blocks:
#     Node 0, Type 0, BuildingBlock: TATPOV_clean_sbu_0, # of connection points: 4
#     Node 1, Type 0, BuildingBlock: TATPOV_clean_sbu_0, # of connection points: 4
#     Node 2, Type 0, BuildingBlock: TATPOV_clean_sbu_0, # of connection points: 4
#     Node 3, Type 0, BuildingBlock: TATPOV_clean_sbu_0, # of connection points: 4
#     Node 4, Type 0, BuildingBlock: TATPOV_clean_sbu_0, # of connection points: 4
#     Node 5, Type 0, BuildingBlock: TATPOV_clean_sbu_0, # of connection points: 4
#     Node 6, Type 0, BuildingBlock: TATPOV_clean_sbu_0, # of connection points: 4
#     Node 7, Type 0, BuildingBlock: TATPOV_clean_sbu_0, # of connection points: 4
#     Node 8, Type 0, BuildingBlock: TATPOV_clean_sbu_0, # of connection points: 4
#     Node 9, Type 0, BuildingBlock: TATPOV_clean_sbu_0, # of connection points: 4
#     Node 10, Type 0, BuildingBlock: TATPOV_clean_sbu_0, # of connection points: 4
#     Node 11, Type 0, BuildingBlock: TATPOV_clean_sbu_0, # of connection points: 4
#     Edge 12, Type (0, 0), BuildingBlock: UVAHIK_clean_linker_0, # of connection points: 2
#     Edge 13, Type (0, 0), BuildingBlock: UVAHIK_clean_linker_0, # of connection points: 2
#     Edge 14, Type (0, 0), BuildingBlock: UVAHIK_clean_linker_0, # of connection points: 2
#     Edge 15, Type (0, 0), BuildingBlock: UVAHIK_clean_linker_0, # of connection points: 2
#     Edge 16, Type (0, 0), BuildingBlock: UVAHIK_clean_linker_0, # of connection points: 2
#     Edge 17, Type (0, 0), BuildingBlock: UVAHIK_clean_linker_0, # of connection points: 2
#     Edge 18, Type (0, 0), BuildingBlock: UVAHIK_clean_linker_0, # of connection points: 2
#     Edge 19, Type (0, 0), BuildingBlock: UVAHIK_clean_linker_0, # of connection points: 2
#     Edge 20, Type (0, 0), BuildingBlock: UVAHIK_clean_linker_0, # of connection points: 2
#     Edge 21, Type (0, 0), BuildingBlock: UVAHIK_clean_linker_0, # of connection points: 2
#     Edge 22, Type (0, 0), BuildingBlock: UVAHIK_clean_linker_0, # of connection points: 2
#     Edge 23, Type (0, 0), BuildingBlock: UVAHIK_clean_linker_0, # of connection points: 2
#     Edge 24, Type (0, 0), BuildingBlock: UVAHIK_clean_linker_0, # of connection points: 2
#     Edge 25, Type (0, 0), BuildingBlock: UVAHIK_clean_linker_0, # of connection points: 2
#     Edge 26, Type (0, 0), BuildingBlock: UVAHIK_clean_linker_0, # of connection points: 2
#     Edge 27, Type (0, 0), BuildingBlock: UVAHIK_clean_linker_0, # of connection points: 2
#     Edge 28, Type (0, 0), BuildingBlock: UVAHIK_clean_linker_0, # of connection points: 2
#     Edge 29, Type (0, 0), BuildingBlock: UVAHIK_clean_linker_0, # of connection points: 2
#     Edge 30, Type (0, 0), BuildingBlock: UVAHIK_clean_linker_0, # of connection points: 2
#     Edge 31, Type (0, 0), BuildingBlock: UVAHIK_clean_linker_0, # of connection points: 2
#     Edge 32, Type (0, 0), BuildingBlock: UVAHIK_clean_linker_0, # of connection points: 2
#     Edge 33, Type (0, 0), BuildingBlock: UVAHIK_clean_linker_0, # of connection points: 2
#     Edge 34, Type (0, 0), BuildingBlock: UVAHIK_clean_linker_0, # of connection points: 2
#     Edge 35, Type (0, 0), BuildingBlock: UVAHIK_clean_linker_0, # of connection points: 2
# Relax obj value: 0.217
# Max RMSD: 0.260
# Mean RMSD: 0.260
data_MOF--net-uol--node1-TATPOV_clean_sbu_0--edge1-UVAHIK_clean_linker_0
_symmetry_space_group_name_H-M    P1
_symmetry_Int_Tables_number       1
_symmetry_cell_setting            triclinic
loop_
_symmetry_equiv_pos_as_xyz
'x, y, z'
_cell_length_a     42.736633
_cell_length_b     42.700336
_cell_length_c     80.545165
_cell_angle_alpha  90.047473
_cell_angle_beta   89.890445
_cell_angle_gamma 120.14417
loop_
_atom_site_label
_atom_site_type_symbol
_atom_site_fract_x
_atom_site_fract_y
_atom_site_fract_z
_atom_type_partial_charge
Zn0 Zn 0.13162 0.28638 0.06127 0.0
Zn1 Zn 0.15967 0.35727 0.06806 0.0
O2 O 0.17519 0.35629 0.04368 0.0
O3 O 0.1474 0.29811 0.03753 0.0
O4 O 0.17617 0.40989 0.07235 0.0
O5 O 0.0815 0.27551 0.06772 0.0
O6 O 0.10524 0.3334 0.07361 0.0
C7 C 0.16724 0.33084 0.0333 0.0
C8 C 0.18648 0.31449 0.08745 0.0
O9 O 0.18653 0.34402 0.08511 0.0
O10 O 0.1665 0.2868 0.07871 0.0
C11 C 0.20362 0.43661 0.06573 0.0
O12 O 0.22429 0.43063 0.05567 0.0
C13 C 0.07791 0.30151 0.07291 0.0
Zn14 Zn 0.84407 0.13851 0.2311 0.0
Zn15 Zn 0.79859 0.1642 0.23255 0.0
O16 O 0.81563 0.17111 0.20786 0.0
O17 O 0.85053 0.14696 0.20669 0.0
O18 O 0.76099 0.17978 0.23231 0.0
O19 O 0.80583 0.08998 0.23979 0.0
O20 O 0.76934 0.11219 0.24205 0.0
C21 C 0.83576 0.1626 0.19957 0.0
C22 C 0.86813 0.20082 0.2528 0.0
O23 O 0.83825 0.19855 0.24874 0.0
O24 O 0.87697 0.17889 0.24681 0.0
C25 C 0.75723 0.19858 0.24356 0.0
O26 O 0.77954 0.21001 0.25624 0.0
C27 C 0.77556 0.08617 0.24397 0.0
Zn28 Zn 0.71315 0.84971 0.40976 0.0
Zn29 Zn 0.64154 0.81018 0.41032 0.0
O30 O 0.65215 0.83325 0.38676 0.0
O31 O 0.71153 0.86679 0.38679 0.0
O32 O 0.58744 0.77561 0.41106 0.0
O33 O 0.7195 0.80684 0.41319 0.0
O34 O 0.66037 0.77492 0.41583 0.0
C35 C 0.68158 0.85549 0.37945 0.0
C36 C 0.68051 0.871 0.43556 0.0
O37 O 0.65087 0.84695 0.42909 0.0
O38 O 0.7105 0.87656 0.42983 0.0
C39 C 0.56884 0.75972 0.39824 0.0
O40 O 0.58466 0.76748 0.38362 0.0
C41 C 0.6912 0.777 0.41627 0.0
Zn42 Zn 0.84604 0.69911 0.56572 0.0
Zn43 Zn 0.81358 0.62925 0.57351 0.0
O44 O 0.80125 0.63021 0.54868 0.0
O45 O 0.83263 0.68777 0.5417 0.0
O46 O 0.79416 0.57612 0.57815 0.0
O47 O 0.89431 0.70859 0.57387 0.0
O48 O 0.86743 0.65083 0.58034 0.0
C49 C 0.81132 0.65509 0.53777 0.0
C50 C 0.78829 0.67603 0.59046 0.0
O51 O 0.7856 0.64503 0.58898 0.0
O52 O 0.81129 0.7025 0.58183 0.0
C53 C 0.76806 0.55034 0.57037 0.0
O54 O 0.75052 0.55783 0.55914 0.0
C55 C 0.89584 0.68207 0.57992 0.0
Zn56 Zn 0.13687 0.85083 0.73279 0.0
Zn57 Zn 0.18225 0.82577 0.73778 0.0
O58 O 0.16273 0.80902 0.71388 0.0
O59 O 0.1311 0.83579 0.70886 0.0
O60 O 0.21946 0.81027 0.74091 0.0
O61 O 0.17526 0.90122 0.73939 0.0
O62 O 0.21299 0.88076 0.74229 0.0
C63 C 0.14382 0.8162 0.70405 0.0
C64 C 0.11412 0.79689 0.75892 0.0
O65 O 0.14442 0.79891 0.75603 0.0
O66 O 0.10405 0.81507 0.7503 0.0
C67 C 0.21949 0.78414 0.73334 0.0
O68 O 0.19313 0.76438 0.72297 0.0
C69 C 0.20658 0.90687 0.7428 0.0
Zn70 Zn 0.27798 0.15147 0.88869 0.0
Zn71 Zn 0.34768 0.18802 0.89665 0.0
O72 O 0.34699 0.17603 0.8716 0.0
O73 O 0.28944 0.14934 0.86474 0.0
O74 O 0.40073 0.22066 0.90172 0.0
O75 O 0.26947 0.19097 0.89673 0.0
O76 O 0.32663 0.22031 0.90422 0.0
C77 C 0.32211 0.16117 0.86072 0.0
C78 C 0.29986 0.11524 0.91299 0.0
O79 O 0.33115 0.1432 0.91143 0.0
O80 O 0.27344 0.11263 0.9047 0.0
C81 C 0.42638 0.21982 0.89408 0.0
O82 O 0.41869 0.19525 0.88254 0.0
C83 C 0.29584 0.21825 0.9034 0.0
Zn84 Zn 0.70629 0.86594 0.74713 0.0
Zn85 Zn 0.63492 0.83254 0.7468 0.0
O86 O 0.64676 0.82115 0.77029 0.0
O87 O 0.70601 0.84616 0.76965 0.0
O88 O 0.58091 0.81299 0.74781 0.0
O89 O 0.71192 0.91527 0.74503 0.0
O90 O 0.65326 0.8862 0.74043 0.0
C91 C 0.67629 0.82786 0.77726 0.0
C92 C 0.67317 0.81183 0.7211 0.0
O93 O 0.64358 0.80467 0.72815 0.0
O94 O 0.70302 0.8375 0.72639 0.0
C95 C 0.55721 0.79014 0.73795 0.0
O96 O 0.56718 0.77585 0.72608 0.0
C97 C 0.68357 0.91568 0.74098 0.0
Zn98 Zn 0.84089 0.69641 0.92082 0.0
Zn99 Zn 0.79947 0.62645 0.91223 0.0
O100 O 0.81227 0.62554 0.93702 0.0
O101 O 0.84124 0.68282 0.94461 0.0
O102 O 0.76436 0.57399 0.90691 0.0
O103 O 0.80277 0.70767 0.91298 0.0
O104 O 0.76959 0.65039 0.90581 0.0
C105 C 0.82794 0.64968 0.94817 0.0
C106 C 0.87223 0.67129 0.89538 0.0
O107 O 0.8423 0.64158 0.89645 0.0
O108 O 0.87849 0.69786 0.90464 0.0
C109 C 0.76392 0.54728 0.91411 0.0
O110 O 0.78864 0.55332 0.92531 0.0
C111 C 0.77408 0.68219 0.90673 0.0
Zn112 Zn 0.12307 0.84252 0.06985 0.0
Zn113 Zn 0.15503 0.80299 0.06878 0.0
O114 O 0.17082 0.82815 0.09173 0.0
O115 O 0.1479 0.86421 0.09146 0.0
O116 O 0.1748 0.7688 0.06762 0.0
O117 O 0.07329 0.7988 0.06913 0.0
O118 O 0.1003 0.76714 0.06517 0.0
C119 C 0.16667 0.85279 0.09855 0.0
C120 C 0.17201 0.86027 0.04218 0.0
O121 O 0.1795 0.83795 0.04906 0.0
O122 O 0.14778 0.8657 0.04825 0.0
C123 C 0.19634 0.76689 0.0779 0.0
O124 O 0.20875 0.78957 0.09045 0.0
C125 C 0.07139 0.76885 0.06601 0.0
Zn126 Zn 0.27421 0.13045 0.24721 0.0
Zn127 Zn 0.34556 0.16091 0.24224 0.0
O128 O 0.34035 0.17262 0.2668 0.0
O129 O 0.28173 0.14122 0.2716 0.0
O130 O 0.39896 0.17896 0.23929 0.0
O131 O 0.26498 0.08239 0.23825 0.0
O132 O 0.32384 0.10759 0.2351 0.0
C133 C 0.3136 0.16205 0.27671 0.0
C134 C 0.30425 0.18987 0.22329 0.0
O135 O 0.33363 0.18958 0.22551 0.0
O136 O 0.27604 0.16865 0.23146 0.0
C137 C 0.42425 0.20292 0.24816 0.0
O138 O 0.41635 0.21918 0.25991 0.0
C139 C 0.29219 0.08009 0.23381 0.0
Zn140 Zn 0.12507 0.28697 0.40924 0.0
Zn141 Zn 0.17322 0.35707 0.40681 0.0
O142 O 0.15538 0.35052 0.43138 0.0
O143 O 0.12061 0.29143 0.43369 0.0
O144 O 0.21178 0.40993 0.40516 0.0
O145 O 0.16093 0.27373 0.40027 0.0
O146 O 0.20157 0.33174 0.39962 0.0
C147 C 0.13538 0.32261 0.44018 0.0
C148 C 0.10347 0.32468 0.38656 0.0
O149 O 0.1349 0.3513 0.38962 0.0
O150 O 0.0922 0.29462 0.39384 0.0
C151 C 0.23423 0.42561 0.41688 0.0
O152 O 0.23134 0.40734 0.43047 0.0
C153 C 0.19294 0.29881 0.39731 0.0
Zn154 Zn 0.86466 0.15776 0.58817 0.0
Zn155 Zn 0.82934 0.19315 0.5836 0.0
O156 O 0.8209 0.17739 0.60838 0.0
O157 O 0.85186 0.14963 0.61226 0.0
O158 O 0.80855 0.22636 0.58267 0.0
O159 O 0.91223 0.19981 0.5809 0.0
O160 O 0.8815 0.22694 0.5748 0.0
C161 C 0.83135 0.16055 0.61788 0.0
C162 C 0.80437 0.12394 0.56445 0.0
O163 O 0.79961 0.15045 0.56781 0.0
O164 O 0.82993 0.12176 0.57129 0.0
C165 C 0.78464 0.22522 0.57293 0.0
O166 O 0.76992 0.19941 0.56175 0.0
C167 C 0.91117 0.22659 0.57487 0.0
C168 C 0.22609 0.73285 0.08843 0.0
C169 C 0.20512 0.73755 0.07634 0.0
C170 C 0.23215 0.70358 0.08751 0.0
C171 C 0.2274 0.63305 0.05889 0.0
H172 H 0.21419 0.57868 0.09938 0.0
C173 C 0.23817 0.50339 0.05977 0.0
C174 C 0.21042 0.47387 0.06842 0.0
C175 C 0.24274 0.53807 0.06145 0.0
C176 C 0.21795 0.59356 0.08797 0.0
H177 H 0.17493 0.71569 0.05352 0.0
H178 H 0.1852 0.66467 0.052 0.0
H179 H 0.21253 0.63489 0.1004 0.0
H180 H 0.1664 0.45791 0.08599 0.0
H181 H 0.17416 0.51811 0.08879 0.0
H182 H 0.23137 0.59098 0.04635 0.0
C183 C 0.19731 0.68375 0.06212 0.0
C184 C 0.21742 0.62601 0.08858 0.0
C185 C 0.19121 0.71292 0.06306 0.0
C186 C 0.18805 0.48001 0.07913 0.0
C187 C 0.19265 0.51463 0.08083 0.0
C188 C 0.22799 0.60063 0.05828 0.0
C189 C 0.21746 0.67845 0.07443 0.0
C190 C 0.22149 0.64582 0.074 0.0
C191 C 0.21974 0.54401 0.07185 0.0
C192 C 0.22262 0.58016 0.07277 0.0
H193 H 0.23733 0.7514 0.0988 0.0
H194 H 0.24815 0.70051 0.09709 0.0
H195 H 0.23108 0.64789 0.04747 0.0
H196 H 0.25597 0.49964 0.05146 0.0
H197 H 0.26414 0.56022 0.05451 0.0
C198 C 0.70019 0.1897 0.23039 0.0
C199 C 0.72667 0.20568 0.24282 0.0
C200 C 0.67024 0.19463 0.23023 0.0
C201 C 0.61609 0.21785 0.25805 0.0
H202 H 0.57325 0.22475 0.21681 0.0
C203 C 0.48917 0.23293 0.25722 0.0
C204 C 0.46174 0.20995 0.24616 0.0
C205 C 0.52374 0.23709 0.25615 0.0
C206 C 0.58482 0.2227 0.22843 0.0
H207 H 0.74297 0.24037 0.26454 0.0
H208 H 0.69101 0.24945 0.26412 0.0
H209 H 0.62982 0.22373 0.21617 0.0
H210 H 0.44957 0.17429 0.22495 0.0
H211 H 0.5097 0.18145 0.22316 0.0
H212 H 0.57089 0.21639 0.27028 0.0
C213 C 0.69305 0.23251 0.25466 0.0
C214 C 0.61721 0.22205 0.22807 0.0
C215 C 0.72296 0.22746 0.25486 0.0
C216 C 0.47003 0.19219 0.23368 0.0
C217 C 0.5046 0.19645 0.23259 0.0
C218 C 0.58378 0.21862 0.2584 0.0
C219 C 0.66608 0.2158 0.24247 0.0
C220 C 0.63301 0.21912 0.24286 0.0
C221 C 0.53172 0.21851 0.24396 0.0
C222 C 0.56751 0.22057 0.24359 0.0
H223 H 0.70215 0.17268 0.22095 0.0
H224 H 0.64981 0.18093 0.22079 0.0
H225 H 0.62713 0.21501 0.26967 0.0
H226 H 0.48376 0.24712 0.26694 0.0
H227 H 0.54418 0.25465 0.26497 0.0
C228 C 0.51636 0.71561 0.41564 0.0
C229 C 0.53078 0.73012 0.39995 0.0
C230 C 0.48167 0.6854 0.41712 0.0
C231 C 0.41376 0.60749 0.39254 0.0
H232 H 0.35225 0.59311 0.4306 0.0
C233 C 0.27193 0.48068 0.39938 0.0
C234 C 0.26465 0.46321 0.41488 0.0
C235 C 0.30211 0.51523 0.39727 0.0
C236 C 0.36921 0.59673 0.41993 0.0
H237 H 0.51935 0.72529 0.37356 0.0
H238 H 0.4585 0.67326 0.37615 0.0
H239 H 0.40874 0.65048 0.42729 0.0
H240 H 0.28275 0.46885 0.44042 0.0
H241 H 0.33525 0.52914 0.43672 0.0
H242 H 0.37419 0.5537 0.38522 0.0
C243 C 0.47435 0.68456 0.38731 0.0
C244 C 0.40164 0.62956 0.41804 0.0
C245 C 0.50917 0.71459 0.38582 0.0
C246 C 0.28761 0.48149 0.42831 0.0
C247 C 0.31759 0.51615 0.42622 0.0
C248 C 0.38121 0.57482 0.39437 0.0
C249 C 0.46038 0.66912 0.40295 0.0
C250 C 0.42459 0.63522 0.40443 0.0
C251 C 0.32546 0.5332 0.41063 0.0
C252 C 0.35879 0.56889 0.40818 0.0
H253 H 0.53233 0.72683 0.42678 0.0
H254 H 0.4721 0.67407 0.42935 0.0
H255 H 0.43095 0.6105 0.38206 0.0
H256 H 0.25477 0.46739 0.38878 0.0
H257 H 0.30728 0.52784 0.38514 0.0
C258 C 0.73554 0.48467 0.56228 0.0
C259 C 0.76037 0.51267 0.57263 0.0
C260 C 0.73116 0.44997 0.56329 0.0
C261 C 0.7499 0.39029 0.58986 0.0
H262 H 0.75312 0.34686 0.54806 0.0
C263 C 0.79172 0.28195 0.58561 0.0
C264 C 0.77492 0.25399 0.57386 0.0
C265 C 0.78413 0.31014 0.58612 0.0
C266 C 0.75151 0.35819 0.55985 0.0
H267 H 0.79893 0.52571 0.59264 0.0
H268 H 0.79138 0.4654 0.59434 0.0
H269 H 0.74963 0.40207 0.54801 0.0
H270 H 0.73621 0.23332 0.55366 0.0
H271 H 0.7227 0.28255 0.55463 0.0
H272 H 0.75252 0.34682 0.6017 0.0
C273 C 0.77512 0.47013 0.5855 0.0
C274 C 0.74951 0.3899 0.55982 0.0
C275 C 0.7796 0.50481 0.58446 0.0
C276 C 0.74974 0.25451 0.56282 0.0
C277 C 0.74212 0.28281 0.56333 0.0
C278 C 0.75181 0.35856 0.58989 0.0
C279 C 0.75134 0.44247 0.57473 0.0
C280 C 0.74943 0.40671 0.57482 0.0
C281 C 0.75947 0.31112 0.57491 0.0
C282 C 0.75342 0.34254 0.57488 0.0
H283 H 0.72019 0.48976 0.55307 0.0
H284 H 0.71229 0.42912 0.55496 0.0
H285 H 0.74925 0.40223 0.60163 0.0
H286 H 0.81129 0.28248 0.5943 0.0
H287 H 0.79844 0.33174 0.59501 0.0
C288 C 0.49276 0.75753 0.72806 0.0
C289 C 0.51924 0.7821 0.73907 0.0
C290 C 0.4576 0.75201 0.7284 0.0
C291 C 0.39414 0.76758 0.75414 0.0
H292 H 0.35014 0.76492 0.71171 0.0
C293 C 0.27788 0.79817 0.74688 0.0
C294 C 0.25029 0.77773 0.73539 0.0
C295 C 0.30809 0.79382 0.74813 0.0
C296 C 0.36175 0.76504 0.72367 0.0
H297 H 0.52918 0.81944 0.75935 0.0
H298 H 0.46828 0.8103 0.75976 0.0
H299 H 0.40758 0.76588 0.71247 0.0
H300 H 0.23243 0.736 0.7165 0.0
H301 H 0.28526 0.72844 0.7187 0.0
H302 H 0.34868 0.76774 0.7653 0.0
C303 C 0.47441 0.79484 0.75101 0.0
C304 C 0.39471 0.76555 0.72411 0.0
C305 C 0.50948 0.80027 0.7507 0.0
C306 C 0.25323 0.75225 0.72544 0.0
C307 C 0.28358 0.74804 0.72664 0.0
C308 C 0.36125 0.76722 0.75369 0.0
C309 C 0.44812 0.77098 0.73974 0.0
C310 C 0.41159 0.76735 0.73935 0.0
C311 C 0.31153 0.76904 0.73788 0.0
C312 C 0.34493 0.76646 0.73844 0.0
H313 H 0.4993 0.74293 0.719 0.0
H314 H 0.43788 0.73304 0.71971 0.0
H315 H 0.40602 0.76829 0.7661 0.0
H316 H 0.27649 0.81802 0.75474 0.0
H317 H 0.32931 0.81072 0.75678 0.0
C318 C 0.49256 0.25119 0.88708 0.0
C319 C 0.46436 0.24835 0.89717 0.0
C320 C 0.52792 0.28003 0.88911 0.0
C321 C 0.58808 0.35264 0.91829 0.0
H322 H 0.6387 0.4035 0.8783 0.0
C323 C 0.72989 0.48078 0.92058 0.0
C324 C 0.7339 0.50999 0.91092 0.0
C325 C 0.6998 0.44616 0.91848 0.0
C326 C 0.62493 0.38957 0.88958 0.0
H327 H 0.45148 0.2729 0.9177 0.0
H328 H 0.51296 0.32311 0.92118 0.0
H329 H 0.58056 0.34755 0.8761 0.0
H330 H 0.71008 0.52543 0.89106 0.0
H331 H 0.65772 0.46523 0.88746 0.0
H332 H 0.63182 0.39536 0.93178 0.0
C333 C 0.50786 0.30297 0.91176 0.0
C334 C 0.5918 0.3573 0.88832 0.0
C335 C 0.47253 0.27427 0.9097 0.0
C336 C 0.70783 0.50356 0.89873 0.0
C337 C 0.67788 0.46896 0.89659 0.0
C338 C 0.62128 0.38483 0.91955 0.0
C339 C 0.53586 0.30652 0.90133 0.0
C340 C 0.57268 0.33881 0.90267 0.0
C341 C 0.67322 0.43997 0.90661 0.0
C342 C 0.63978 0.40401 0.90521 0.0
H343 H 0.48723 0.23163 0.87734 0.0
H344 H 0.54899 0.28179 0.881 0.0
H345 H 0.5742 0.33883 0.92958 0.0
H346 H 0.74952 0.48477 0.93004 0.0
H347 H 0.69719 0.42429 0.92626 0.0
C348 C 0.28062 0.2293 0.21345 0.0
C349 C 0.30195 0.21341 0.21057 0.0
C350 C 0.27482 0.24818 0.20081 0.0
C351 C 0.24411 0.26286 0.17038 0.0
H352 H 0.30862 0.30627 0.13281 0.0
C353 C 0.21956 0.28596 0.10005 0.0
C354 C 0.2081 0.31154 0.10101 0.0
C355 C 0.237 0.28064 0.11349 0.0
C356 C 0.29057 0.29445 0.14332 0.0
H357 H 0.33467 0.2053 0.19247 0.0
H358 H 0.32283 0.23616 0.17004 0.0
H359 H 0.32896 0.28651 0.15691 0.0
H360 H 0.20656 0.35215 0.11661 0.0
H361 H 0.23583 0.34165 0.14043 0.0
H362 H 0.2062 0.2718 0.1568 0.0
C363 C 0.31162 0.23555 0.18217 0.0
C364 C 0.30196 0.28275 0.15708 0.0
C365 C 0.31832 0.21761 0.195 0.0
C366 C 0.21528 0.3324 0.1155 0.0
C367 C 0.23191 0.32641 0.12911 0.0
C368 C 0.23318 0.27539 0.15684 0.0
C369 C 0.28913 0.25049 0.18479 0.0
C370 C 0.27863 0.26614 0.17071 0.0
C371 C 0.24253 0.30023 0.12823 0.0
C372 C 0.25605 0.29071 0.14312 0.0
H373 H 0.26805 0.22675 0.22545 0.0
H374 H 0.25845 0.2603 0.2036 0.0
H375 H 0.2248 0.24945 0.1803 0.0
H376 H 0.21447 0.26961 0.089 0.0
H377 H 0.24475 0.26012 0.11264 0.0
C378 C 0.9293 0.2402 0.26499 0.0
C379 C 0.89194 0.22748 0.26527 0.0
C380 C 0.95143 0.2615 0.27794 0.0
C381 C 0.94796 0.2675 0.32169 0.0
H382 H 0.04154 0.355 0.31805 0.0
C383 C 0.04347 0.31399 0.37734 0.0
C384 C 0.08023 0.32756 0.37394 0.0
C385 C 0.01981 0.31107 0.36472 0.0
C386 C 0.01565 0.33038 0.3193 0.0
H387 H 0.84859 0.22823 0.27894 0.0
H388 H 0.8873 0.26449 0.30203 0.0
H389 H 0.00141 0.33296 0.29398 0.0
H390 H 0.12165 0.34992 0.35498 0.0
H391 H 0.08023 0.34273 0.33261 0.0
H392 H 0.96268 0.26253 0.34633 0.0
C393 C 0.89939 0.25842 0.29158 0.0
C394 C -0.00743 0.31805 0.30554 0.0
C395 C 0.87734 0.2378 0.2784 0.0
C396 C 0.09337 0.33966 0.35788 0.0
C397 C 0.0695 0.33564 0.34508 0.0
C398 C 0.97126 0.27925 0.3353 0.0
C399 C 0.93648 0.26984 0.29159 0.0
C400 C 0.95877 0.28621 0.30658 0.0
C401 C 0.03212 0.32027 0.34823 0.0
C402 C 0.00579 0.31053 0.33426 0.0
H403 H 0.94126 0.23277 0.25497 0.0
H404 H 0.97989 0.2697 0.27775 0.0
H405 H 0.92225 0.24252 0.32271 0.0
H406 H 0.03287 0.3048 0.38972 0.0
H407 H -0.00839 0.30039 0.36785 0.0
C408 C 0.78471 0.06497 0.5503 0.0
C409 C 0.78044 0.09524 0.5526 0.0
C410 C 0.76328 0.03799 0.53899 0.0
C411 C 0.71094 0.02172 0.50087 0.0
H412 H 0.68598 0.92268 0.51019 0.0
C413 C 0.65475 0.90272 0.45225 0.0
C414 C 0.68074 0.89204 0.45015 0.0
C415 C 0.65737 0.92497 0.46565 0.0
C416 C 0.69221 0.95009 0.5075 0.0
H417 H 0.74978 0.12061 0.54489 0.0
H418 H 0.71205 0.07303 0.52492 0.0
H419 H 0.7074 0.96711 0.5326 0.0
H420 H 0.72881 0.89492 0.46063 0.0
H421 H 0.73251 0.93241 0.4842 0.0
H422 H 0.69665 0.00447 0.47557 0.0
C423 C 0.73224 0.07047 0.53194 0.0
C424 C 0.70474 0.97561 0.52027 0.0
C425 C 0.75376 0.09763 0.54339 0.0
C426 C 0.70851 0.90288 0.4619 0.0
C427 C 0.71055 0.92417 0.47542 0.0
C428 C 0.69794 -0.00405 0.48809 0.0
C429 C 0.73682 0.04033 0.52963 0.0
C430 C 0.71594 0.0121 0.51695 0.0
C431 C 0.68532 0.93575 0.47733 0.0
C432 C 0.68996 0.96034 0.49122 0.0
H433 H 0.80495 0.06214 0.55713 0.0
H434 H 0.7682 0.01567 0.53728 0.0
H435 H 0.71941 0.04959 0.49788 0.0
H436 H 0.6332 0.89483 0.4433 0.0
H437 H 0.63771 0.93376 0.4669 0.0
C438 C 0.76959 0.71676 0.60393 0.0
C439 C 0.76546 0.68208 0.60245 0.0
C440 C 0.74966 0.72362 0.61558 0.0
C441 C 0.70188 0.69096 0.65538 0.0
H442 H 0.67701 0.76503 0.64627 0.0
C443 C 0.64778 0.75411 0.7046 0.0
C444 C 0.67338 0.79109 0.70647 0.0
C445 C 0.65021 0.73452 0.69115 0.0
C446 C 0.68331 0.74393 0.64892 0.0
H447 H 0.73635 0.6271 0.61191 0.0
H448 H 0.70103 0.63911 0.63231 0.0
H449 H 0.69631 0.74072 0.62359 0.0
H450 H 0.72054 0.83685 0.6955 0.0
H451 H 0.7239 0.80306 0.67183 0.0
H452 H 0.68935 0.69499 0.68086 0.0
C453 C 0.72012 0.66106 0.62448 0.0
C454 C 0.69467 0.7302 0.63599 0.0
C455 C 0.74025 0.65416 0.61276 0.0
C456 C 0.70057 0.80835 0.69442 0.0
C457 C 0.7024 0.7891 0.68084 0.0
C458 C 0.68996 0.70439 0.66831 0.0
C459 C 0.72476 0.69599 0.62608 0.0
C460 C 0.70568 0.70476 0.63917 0.0
C461 C 0.67757 0.75199 0.67918 0.0
C462 C 0.68196 0.73197 0.66525 0.0
H463 H 0.78878 0.739 0.59627 0.0
H464 H 0.75468 0.75105 0.61667 0.0
H465 H 0.71026 0.67153 0.65831 0.0
H466 H 0.62665 0.74018 0.71377 0.0
H467 H 0.63086 0.70585 0.69008 0.0
C468 C 0.93624 0.699 0.88574 0.0
C469 C 0.89924 0.67586 0.88273 0.0
C470 C 0.96172 0.70606 0.87327 0.0
C471 C 0.97213 0.67859 0.83005 0.0
H472 H 0.05387 0.77661 0.82906 0.0
C473 C 0.05343 0.75987 0.7721 0.0
C474 C 0.09114 0.77488 0.77287 0.0
C475 C 0.03176 0.74216 0.78585 0.0
C476 C 0.03142 0.74901 0.82932 0.0
H477 H 0.85975 0.64137 0.86449 0.0
H478 H 0.9037 0.65524 0.8424 0.0
H479 H 0.0126 0.75696 0.85255 0.0
H480 H 0.13573 0.78253 0.78845 0.0
H481 H 0.09772 0.75273 0.81284 0.0
H482 H 0.99003 0.67219 0.80599 0.0
C483 C 0.91357 0.66699 0.85451 0.0
C484 C 0.00775 0.73751 0.84285 0.0
C485 C 0.8882 0.65914 0.86716 0.0
C486 C 0.10671 0.77101 0.78751 0.0
C487 C 0.08509 0.7541 0.80143 0.0
C488 C -0.00463 0.69048 0.81631 0.0
C489 C 0.95073 0.69106 0.85729 0.0
C490 C 0.97748 0.70221 0.84338 0.0
C491 C 0.04752 0.73991 0.80073 0.0
C492 C 0.02501 0.72585 0.81582 0.0
H493 H 0.94549 0.71189 0.89773 0.0
H494 H 0.99002 0.72377 0.87616 0.0
H495 H 0.94975 0.651 0.83007 0.0
H496 H 0.04074 0.7624 0.76094 0.0
H497 H 0.00286 0.73164 0.78511 0.0
C498 C 0.17228 0.88879 0.0153 0.0
C499 C 0.19098 0.88005 0.027 0.0
C500 C 0.19014 0.90977 0.00145 0.0
C501 C 0.27464 0.98347 0.9883 0.0
H502 H 0.23306 0.95662 0.94424 0.0
C503 C 0.32198 0.08693 0.93396 0.0
C504 C 0.29363 0.08569 0.92459 0.0
C505 C 0.3152 0.05912 0.94518 0.0
C506 C 0.24502 0.96462 0.95646 0.0
H507 H 0.24291 0.88598 0.03338 0.0
H508 H 0.27479 0.92425 0.00922 0.0
H509 H 0.21034 0.91162 0.96641 0.0
H510 H 0.23599 0.05401 0.91962 0.0
H511 H 0.22417 0.00644 0.93922 0.0
H512 H 0.30757 0.03713 0.97872 0.0
C513 C 0.24609 0.91412 0.01074 0.0
C514 C 0.23219 0.93875 0.96909 0.0
C515 C 0.2279 0.89222 0.02446 0.0
C516 C 0.25855 0.05589 0.92655 0.0
C517 C 0.25181 0.0283 0.93772 0.0
C518 C 0.28722 0.00957 0.97569 0.0
C519 C 0.22728 0.92313 -0.00083 0.0
C520 C 0.24606 0.94823 0.98523 0.0
C521 C 0.27994 0.02951 0.94723 0.0
C522 C 0.27158 0.00074 0.95978 0.0
H523 H 0.14379 0.87966 0.01693 0.0
H524 H 0.17513 0.91665 -0.0072 0.0
H525 H 0.28556 0.99145 0.00071 0.0
H526 H 0.34936 0.10948 0.93271 0.0
H527 H 0.33752 0.0608 0.95225 0.0
C528 C 0.1608 0.32296 0.0028 0.0
C529 C 0.18329 0.33834 0.01661 0.0
C530 C 0.17539 0.32149 0.98751 0.0
C531 C 0.262 0.34661 0.96492 0.0
H532 H 0.20175 0.25151 0.94566 0.0
C533 C 0.31271 0.26807 0.92425 0.0
C534 C 0.2893 0.24535 0.91177 0.0
C535 C 0.30251 0.28819 0.93436 0.0
C536 C 0.21875 0.27848 0.95063 0.0
H537 H 0.23862 0.36603 0.02528 0.0
H538 H 0.26425 0.36198 -0.00124 0.0
H539 H 0.17836 0.27121 0.96813 0.0
H540 H 0.23868 0.22883 0.89902 0.0
H541 H 0.22124 0.2641 0.91646 0.0
H542 H 0.30319 0.35246 0.94774 0.0
C543 C 0.23548 0.35208 -0.00054 0.0
C544 C 0.20523 0.28996 0.96355 0.0
C545 C 0.22087 0.35443 0.01468 0.0
C546 C 0.25706 0.24557 0.9087 0.0
C547 C 0.247 0.26573 0.91872 0.0
C548 C 0.27574 0.33485 0.95201 0.0
C549 C 0.21268 0.33407 0.98588 0.0
C550 C 0.22665 0.32407 0.97099 0.0
C551 C 0.26883 0.28599 0.93211 0.0
C552 C 0.25424 0.30052 0.94482 0.0
H553 H 0.1317 0.31044 0.00406 0.0
H554 H 0.15709 0.30858 0.97721 0.0
H555 H 0.27922 0.37315 0.97023 0.0
H556 H 0.33778 0.26854 0.9269 0.0
H557 H 0.31987 0.3035 0.9446 0.0
C558 C 0.86247 0.15876 0.1727 0.0
C559 C 0.84483 0.17327 0.18195 0.0
C560 C 0.87657 0.17235 0.15704 0.0
C561 C 0.89782 0.19769 0.12215 0.0
H562 H 0.95295 0.3024 0.11972 0.0
C563 C 0.01045 0.26441 0.07407 0.0
C564 C 0.04281 0.29372 0.07997 0.0
C565 C 0.97797 0.25288 0.08262 0.0
C566 C 0.93786 0.27311 0.12018 0.0
H567 H 0.82614 0.21198 0.18153 0.0
H568 H 0.85053 0.23561 0.15385 0.0
H569 H 0.90992 0.27324 0.14223 0.0
H570 H 0.06641 0.33532 0.09885 0.0
H571 H 0.0106 0.31415 0.11434 0.0
H572 H 0.92794 0.19714 0.10123 0.0
C573 C 0.85389 0.21401 0.15892 0.0
C574 C 0.91261 0.25633 0.13298 0.0
C575 C 0.83967 0.20029 0.17471 0.0
C576 C 0.04178 0.3127 0.09399 0.0
C577 C 0.00952 0.30056 0.10282 0.0
C578 C 0.9235 0.21438 0.1096 0.0
C579 C 0.87331 0.20076 0.15008 0.0
C580 C 0.89346 0.21839 0.13454 0.0
C581 C 0.97734 0.26964 0.09761 0.0
C582 C 0.94501 0.25238 0.1088 0.0
H583 H 0.86677 0.13778 0.17783 0.0
H584 H 0.8918 0.16176 0.15084 0.0
H585 H 0.88281 0.16838 0.12267 0.0
H586 H 0.01046 0.24962 0.06314 0.0
H587 H 0.95367 0.22982 0.07782 0.0
C588 C 0.73022 0.05466 0.26652 0.0
C589 C 0.74948 0.05284 0.25279 0.0
C590 C 0.71217 0.02493 0.27719 0.0
C591 C 0.71946 0.94548 0.28964 0.0
H592 H 0.64473 0.9319 0.32099 0.0
C593 C 0.64931 0.86203 0.35459 0.0
C594 C 0.68156 0.86942 0.36259 0.0
C595 C 0.65043 0.87742 0.33904 0.0
C596 C 0.66515 0.9348 0.31216 0.0
H597 H 0.76184 0.01765 0.23834 0.0
H598 H 0.72851 0.96511 0.25623 0.0
H599 H 0.65612 0.97022 0.29664 0.0
H600 H 0.74014 0.89825 0.36035 0.0
H601 H 0.74202 0.92503 0.33371 0.0
H602 H 0.72842 0.91007 0.30504 0.0
C603 C 0.72875 0.98987 0.25938 0.0
C604 C 0.67206 0.95719 0.29829 0.0
C605 C 0.74757 0.01986 0.249 0.0
C606 C 0.71471 0.89184 0.35459 0.0
C607 C 0.7158 0.90703 0.33917 0.0
C608 C 0.71228 0.92289 0.30332 0.0
C609 C 0.71242 0.99255 0.27412 0.0
C610 C 0.70022 0.96387 0.28716 0.0
C611 C 0.68378 0.9002 0.33119 0.0
C612 C 0.68611 0.91844 0.31512 0.0
H613 H 0.73143 0.07988 0.26975 0.0
H614 H 0.70023 0.02836 0.28841 0.0
H615 H 0.74163 0.94999 0.28158 0.0
H616 H 0.62332 0.84488 0.36043 0.0
H617 H 0.62527 0.87154 0.33318 0.0
C618 C 0.75903 0.61993 0.51862 0.0
C619 C 0.79525 0.64707 0.52101 0.0
C620 C 0.74142 0.61806 0.50368 0.0
C621 C 0.71015 0.65057 0.47936 0.0
H622 H 0.75455 0.67064 0.43574 0.0
C623 C 0.72917 0.74919 0.42252 0.0
C624 C 0.69488 0.74618 0.42227 0.0
C625 C 0.73462 0.72384 0.43097 0.0
C626 C 0.74165 0.66496 0.44782 0.0
H627 H 0.84238 0.69125 0.50925 0.0
H628 H 0.81208 0.68744 0.48313 0.0
H629 H 0.77816 0.64921 0.45784 0.0
H630 H 0.63869 0.71228 0.42946 0.0
H631 H 0.6481 0.66749 0.44403 0.0
H632 H 0.67567 0.66914 0.46993 0.0
C633 C 0.79708 0.66781 0.49275 0.0
C634 C 0.75507 0.65246 0.46043 0.0
C635 C 0.81441 0.67015 0.50775 0.0
C636 C 0.66552 0.71557 0.42954 0.0
C637 C 0.67098 0.69002 0.43799 0.0
C638 C 0.69701 0.66349 0.46683 0.0
C639 C 0.76005 0.64276 0.4908 0.0
C640 C 0.74042 0.64663 0.4765 0.0
C641 C 0.7059 0.6946 0.43933 0.0
C642 C 0.7137 0.67246 0.45111 0.0
H643 H 0.74359 0.60189 0.52868 0.0
H644 H 0.71288 0.59845 0.50247 0.0
H645 H 0.69848 0.6466 0.49167 0.0
H646 H 0.75238 0.77226 0.41695 0.0
H647 H 0.76198 0.72868 0.43182 0.0
C648 C 0.12455 0.76318 0.68506 0.0
C649 C 0.13342 0.79931 0.68748 0.0
C650 C 0.10718 0.74493 0.67044 0.0
C651 C 0.04114 0.7122 0.64704 0.0
H652 H 0.06403 0.75462 0.60302 0.0
C653 C 0.96012 0.72366 0.58817 0.0
C654 C 0.9299 0.6885 0.58783 0.0
C655 C -0.00943 0.73134 0.59754 0.0
C656 C 0.05716 0.74235 0.61523 0.0
H657 H 0.13395 0.84557 0.67616 0.0
H658 H 0.10481 0.81419 0.65052 0.0
H659 H 0.10955 0.78011 0.62491 0.0
H660 H 0.90906 0.63324 0.59619 0.0
H661 H 0.9627 0.64655 0.61235 0.0
H662 H 0.98796 0.67636 0.6379 0.0
C663 C 0.11081 0.79977 0.65989 0.0
C664 C 0.08337 0.75681 0.6277 0.0
C665 C 0.12734 0.81769 0.67459 0.0
C666 C 0.93177 0.66069 0.59629 0.0
C667 C 0.96245 0.66838 0.60564 0.0
C668 C 0.01474 0.69804 0.63463 0.0
C669 C 0.09935 0.76287 0.65791 0.0
C670 C 0.07516 0.74269 0.64388 0.0
C671 C -0.00815 0.70404 0.60675 0.0
C672 C 0.02196 0.71388 0.61874 0.0
H673 H 0.12875 0.74836 0.69488 0.0
H674 H 0.0986 0.71648 0.66919 0.0
H675 H 0.03396 0.701 0.65945 0.0
H676 H 0.95976 0.74577 0.58177 0.0
H677 H 0.01227 0.75923 0.59824 0.0
C678 C 0.30588 0.14749 0.83089 0.0
C679 C 0.33002 0.15321 0.84388 0.0
C680 C 0.30785 0.13179 0.81602 0.0
C681 C 0.329 0.0638 0.80327 0.0
H682 H 0.29922 0.07953 0.76012 0.0
C683 C 0.22689 0.97148 0.74954 0.0
C684 C 0.23449 0.94308 0.74886 0.0
C685 C 0.25053 0.00397 0.75747 0.0
C686 C 0.30768 0.07479 0.77206 0.0
H687 H 0.37696 0.14963 0.85108 0.0
H688 H 0.38006 0.12148 0.82506 0.0
H689 H 0.32092 0.12728 0.78106 0.0
H690 H 0.27431 0.9276 0.75494 0.0
H691 H 0.31588 0.98463 0.76868 0.0
H692 H 0.3134 0.01051 0.79482 0.0
C693 C 0.35968 0.12929 0.82641 0.0
C694 C 0.32026 0.10221 0.78402 0.0
C695 C 0.35803 0.14558 0.84125 0.0
C696 C 0.26749 0.94882 0.75536 0.0
C697 C 0.29124 0.98146 0.76331 0.0
C698 C 0.31619 0.0363 0.79136 0.0
C699 C 0.33373 0.12102 0.8139 0.0
C700 C 0.32958 0.09641 0.79998 0.0
C701 C 0.2825 0.00901 0.7649 0.0
C702 C 0.30385 0.04087 0.77587 0.0
H703 H 0.28412 0.15328 0.83255 0.0
H704 H 0.28727 0.12555 0.80671 0.0
H705 H 0.33564 0.05833 0.81549 0.0
H706 H 0.20184 0.96812 0.74459 0.0
H707 H 0.24257 0.02428 0.7586 0.0
C708 C 0.70986 0.82456 0.80183 0.0
C709 C 0.67658 0.81365 0.79401 0.0
C710 C 0.71122 0.80987 0.81704 0.0
C711 C 0.70841 0.78774 0.85245 0.0
H712 H 0.65282 0.68341 0.85733 0.0
C713 C 0.74611 0.7211 0.90371 0.0
C714 C 0.74815 0.69068 0.89871 0.0
C715 C 0.72691 0.73322 0.89425 0.0
C716 C 0.66859 0.7126 0.85618 0.0
H717 H 0.61841 0.77924 0.79632 0.0
H718 H 0.62083 0.75348 0.82319 0.0
H719 H 0.64055 0.71224 0.83408 0.0
H720 H 0.72978 0.64766 0.88051 0.0
H721 H 0.69787 0.66964 0.86354 0.0
H722 H 0.73849 0.78833 0.87357 0.0
C723 C 0.64587 0.77334 0.81735 0.0
C724 C 0.66118 0.72917 0.84296 0.0
C725 C 0.64448 0.78821 0.80203 0.0
C726 C 0.72861 0.67117 0.88469 0.0
C727 C 0.71009 0.68376 0.87499 0.0
C728 C 0.71611 0.77124 0.8655 0.0
C729 C 0.67935 0.7839 0.82497 0.0
C730 C 0.68198 0.76683 0.8406 0.0
C731 C 0.71014 0.71578 0.8793 0.0
C732 C 0.69715 0.73331 0.86725 0.0
H733 H 0.73516 0.84408 0.79606 0.0
H734 H 0.73754 0.81813 0.82232 0.0
H735 H 0.72442 0.81691 0.85122 0.0
H736 H 0.7605 0.73634 0.91463 0.0
H737 H 0.7266 0.75725 0.8983 0.0
C738 C 0.83876 0.66269 0.97838 0.0
C739 C 0.83462 0.64012 0.96488 0.0
C740 C 0.85298 0.65912 -0.00664 0.0
C741 C 0.87939 0.64268 0.02538 0.0
H742 H 0.97456 0.65753 0.01516 0.0
C743 C 0.0339 0.70612 0.05428 0.0
C744 C 0.03606 0.73742 0.06117 0.0
C745 C 0.00201 0.67994 0.04659 0.0
C746 C 0.94782 0.65236 0.01848 0.0
H747 H 0.83966 0.59446 0.95676 0.0
H748 H 0.8656 0.58882 0.98296 0.0
H749 H 0.92841 0.63517 -0.00621 0.0
H750 H 0.00534 0.76401 0.06675 0.0
H751 H 0.95059 0.71933 0.05313 0.0
H752 H 0.89927 0.66136 0.04989 0.0
C753 C 0.85743 0.609 0.98195 0.0
C754 C 0.92128 0.63952 0.00615 0.0
C755 C 0.84246 0.61212 0.96701 0.0
C756 C 0.00479 0.74043 0.06144 0.0
C757 C 0.97309 0.71445 0.05372 0.0
C758 C 0.9058 0.65512 0.03778 0.0
C759 C 0.86397 0.63332 -0.00494 0.0
C760 C 0.88745 0.63636 0.00923 0.0
C761 C 0.9717 0.68459 0.0456 0.0
C762 C 0.94099 0.66205 0.03422 0.0
H763 H 0.83279 0.68441 0.97706 0.0
H764 H 0.858 0.6785 0.00315 0.0
H765 H 0.85334 0.64001 0.02814 0.0
H766 H 0.05739 0.70276 0.05401 0.0
H767 H 0.00168 0.65692 0.04076 0.0
C768 C 0.19078 0.90439 0.11838 0.0
C769 C 0.18522 0.86997 0.11428 0.0
C770 C 0.20882 0.92169 0.13289 0.0
C771 C 0.22574 0.90829 0.17485 0.0
H772 H 0.30162 0.00892 0.17163 0.0
C773 C 0.31558 0.04702 0.21674 0.0
C774 C 0.2867 0.04712 0.22509 0.0
C775 C 0.30908 0.01913 0.20567 0.0
C776 C 0.28109 0.98064 0.17285 0.0
H777 H 0.19393 0.82648 0.12232 0.0
H778 H 0.22481 0.8567 0.14827 0.0
H779 H 0.27953 0.97232 0.14659 0.0
H780 H 0.22883 0.01617 0.2296 0.0
H781 H 0.21753 0.96787 0.21026 0.0
H782 H 0.22588 0.91729 0.20107 0.0
C783 C 0.21545 0.8702 0.13996 0.0
C784 C 0.26829 0.95979 0.15847 0.0
C785 C 0.19789 0.85303 0.12516 0.0
C786 C 0.25167 0.01713 0.22325 0.0
C787 C 0.2452 0.98923 0.21224 0.0
C788 C 0.23833 0.92932 0.18928 0.0
C789 C 0.22133 0.90485 0.14382 0.0
C790 C 0.23968 0.92386 0.15928 0.0
C791 C 0.2736 0.99071 0.20279 0.0
C792 C 0.26534 0.96609 0.18835 0.0
H793 H 0.18155 0.91831 0.11026 0.0
H794 H 0.21263 0.94821 0.13569 0.0
H795 H 0.20355 0.88065 0.17575 0.0
H796 H 0.34296 0.06952 0.21797 0.0
H797 H 0.33159 0.02074 0.19874 0.0
C798 C 0.29215 0.15802 0.30582 0.0
C799 C 0.31852 0.17716 0.29364 0.0
C800 C 0.29193 0.1748 0.32065 0.0
C801 C 0.3129 0.26346 0.33459 0.0
H802 H 0.2787 0.2146 0.3769 0.0
C803 C 0.25281 0.31655 0.38383 0.0
C804 C 0.21923 0.28956 0.39008 0.0
C805 C 0.27543 0.30709 0.37525 0.0
C806 C 0.28834 0.2287 0.36518 0.0
H807 H 0.36677 0.22814 0.28787 0.0
H808 H 0.36602 0.25784 0.31381 0.0
H809 H 0.30099 0.1893 0.35589 0.0
H810 H 0.18411 0.23154 0.39303 0.0
H811 H 0.22297 0.21519 0.378 0.0
H812 H 0.29811 0.30153 0.34337 0.0
C813 C 0.34563 0.22976 0.31185 0.0
C814 C 0.30124 0.21428 0.35319 0.0
C815 C 0.34619 0.2127 0.29707 0.0
C816 C 0.20968 0.25307 0.38832 0.0
C817 C 0.23223 0.24366 0.37981 0.0
C818 C 0.29977 0.27777 0.34654 0.0
C819 C 0.3178 0.21129 0.32355 0.0
C820 C 0.31234 0.23075 0.33753 0.0
C821 C 0.26501 0.27047 0.37283 0.0
C822 C 0.28595 0.25974 0.36172 0.0
H823 H 0.27056 0.13055 0.30353 0.0
H824 H 0.26994 0.1599 0.32932 0.0
H825 H 0.32094 0.27661 0.32259 0.0
H826 H 0.26107 0.34493 0.38504 0.0
H827 H 0.30069 0.32843 0.37018 0.0
C828 C 0.13082 0.35831 0.46409 0.0
C829 C 0.12677 0.32582 0.4577 0.0
C830 C 0.11735 0.35906 0.47991 0.0
C831 C 0.06008 0.34257 0.50684 0.0
H832 H 0.05584 0.27696 0.54112 0.0
C833 C 0.9395 0.27006 0.55136 0.0
C834 C 0.94339 0.25484 0.56609 0.0
C835 C 0.96934 0.29015 0.54098 0.0
C836 C 0.05719 0.29619 0.532 0.0
H837 H 0.10746 0.26929 0.46328 0.0
H838 H 0.084 0.27046 0.49043 0.0
H839 H 0.09747 0.29166 0.51821 0.0
H840 H 0.9819 0.25186 0.58248 0.0
H841 H 0.03432 0.28875 0.56499 0.0
H842 H 0.01981 0.34719 0.52071 0.0
C843 C 0.09768 0.29553 0.48347 0.0
C844 C 0.08085 0.30419 0.51864 0.0
C845 C 0.11089 0.29475 0.46776 0.0
C846 C 0.97812 0.2629 0.57105 0.0
C847 C 0.0081 0.28376 0.56091 0.0
C848 C 0.03669 0.33496 0.52037 0.0
C849 C 0.09999 0.32742 0.48965 0.0
C850 C 0.08135 0.32606 0.5055 0.0
C851 C 0.00386 0.29606 0.54531 0.0
C852 C 0.03376 0.31038 0.53278 0.0
H853 H 0.14294 0.3827 0.45661 0.0
H854 H 0.11982 0.38414 0.48436 0.0
H855 H 0.05979 0.3596 0.49696 0.0
H856 H 0.91297 0.2641 0.5472 0.0
H857 H 0.96466 0.29876 0.52907 0.0
C858 C 0.66988 0.94936 0.71973 0.0
C859 C 0.68729 0.94966 0.73451 0.0
C860 C 0.68084 0.98157 0.71102 0.0
C861 C 0.76441 0.07085 0.70685 0.0
H862 H 0.71011 0.07966 0.6705 0.0
C863 C 0.83115 0.13418 0.6455 0.0
C864 C 0.81711 0.15037 0.63501 0.0
C865 C 0.81467 0.11924 0.66065 0.0
C866 C 0.72565 0.07828 0.68078 0.0
H867 H 0.72656 0.98384 0.75287 0.0
H868 H 0.74382 0.04035 0.73842 0.0
H869 H 0.67823 0.03608 0.69252 0.0
H870 H 0.7759 0.16556 0.63271 0.0
H871 H 0.74722 0.13977 0.65947 0.0
H872 H 0.8117 0.11328 0.69526 0.0
C873 C 0.72321 0.01527 0.73294 0.0
C874 C 0.70737 0.05277 0.69332 0.0
C875 C 0.71303 0.98295 0.74136 0.0
C876 C 0.78734 0.15317 0.6405 0.0
C877 C 0.77074 0.13815 0.65577 0.0
C878 C 0.78252 0.09673 0.69453 0.0
C879 C 0.70889 0.01486 0.71714 0.0
C880 C 0.72668 0.0474 0.70609 0.0
C881 C 0.78373 0.12023 0.66585 0.0
C882 C 0.76364 0.09943 0.68086 0.0
H883 H 0.6501 0.92395 0.71413 0.0
H884 H 0.66915 0.97971 0.6989 0.0
H885 H 0.78064 0.06783 0.71631 0.0
H886 H 0.85412 0.13163 0.64172 0.0
H887 H 0.8252 0.10519 0.66786 0.0
loop_
_geom_bond_atom_site_label_1
_geom_bond_atom_site_label_2
_geom_bond_distance
_geom_bond_site_symmetry_2
_ccdc_geom_bond_type
Zn0 O3 2.031 . S
Zn0 O5 2.049 . S
Zn0 O10 2.067 . S
Zn1 O2 1.962 . S
Zn1 O4 1.986 . S
Zn1 O6 1.996 . S
Zn1 O9 1.943 . S
O2 Zn1 1.962 . S
O2 C7 1.254 . S
O3 Zn0 2.031 . S
O3 C7 1.269 . S
O4 Zn1 1.986 . S
O4 C11 1.262 . S
O5 Zn0 2.049 . S
O5 C13 1.260 . S
O6 Zn1 1.996 . S
O6 C13 1.257 . S
C7 O2 1.254 . S
C7 O3 1.269 . S
C8 O9 1.249 . S
C8 O10 1.270 . S
O9 Zn1 1.943 . S
O9 C8 1.249 . S
O10 Zn0 2.067 . S
O10 C8 1.270 . S
C11 O4 1.262 . S
C11 O12 1.232 . S
O12 C11 1.232 . S
C13 O5 1.260 . S
C13 O6 1.257 . S
Zn14 O17 2.031 . S
Zn14 O19 2.049 . S
Zn14 O24 2.067 . S
Zn15 O16 1.962 . S
Zn15 O18 1.986 . S
Zn15 O20 1.996 . S
Zn15 O23 1.943 . S
O16 Zn15 1.962 . S
O16 C21 1.254 . S
O17 Zn14 2.031 . S
O17 C21 1.269 . S
O18 Zn15 1.986 . S
O18 C25 1.262 . S
O19 Zn14 2.049 . S
O19 C27 1.260 . S
O20 Zn15 1.996 . S
O20 C27 1.257 . S
C21 O16 1.254 . S
C21 O17 1.269 . S
C22 O23 1.249 . S
C22 O24 1.270 . S
O23 Zn15 1.943 . S
O23 C22 1.249 . S
O24 Zn14 2.067 . S
O24 C22 1.270 . S
C25 O18 1.262 . S
C25 O26 1.232 . S
O26 C25 1.232 . S
C27 O19 1.260 . S
C27 O20 1.257 . S
Zn28 O31 2.031 . S
Zn28 O33 2.049 . S
Zn28 O38 2.067 . S
Zn29 O30 1.962 . S
Zn29 O32 1.986 . S
Zn29 O34 1.996 . S
Zn29 O37 1.943 . S
O30 Zn29 1.962 . S
O30 C35 1.254 . S
O31 Zn28 2.031 . S
O31 C35 1.269 . S
O32 Zn29 1.986 . S
O32 C39 1.262 . S
O33 Zn28 2.049 . S
O33 C41 1.260 . S
O34 Zn29 1.996 . S
O34 C41 1.257 . S
C35 O30 1.254 . S
C35 O31 1.269 . S
C36 O37 1.249 . S
C36 O38 1.270 . S
O37 Zn29 1.943 . S
O37 C36 1.249 . S
O38 Zn28 2.067 . S
O38 C36 1.270 . S
C39 O32 1.262 . S
C39 O40 1.232 . S
O40 C39 1.232 . S
C41 O33 1.260 . S
C41 O34 1.257 . S
Zn42 O45 2.031 . S
Zn42 O47 2.049 . S
Zn42 O52 2.067 . S
Zn43 O44 1.962 . S
Zn43 O46 1.986 . S
Zn43 O48 1.996 . S
Zn43 O51 1.943 . S
O44 Zn43 1.962 . S
O44 C49 1.254 . S
O45 Zn42 2.031 . S
O45 C49 1.269 . S
O46 Zn43 1.986 . S
O46 C53 1.262 . S
O47 Zn42 2.049 . S
O47 C55 1.260 . S
O48 Zn43 1.996 . S
O48 C55 1.257 . S
C49 O44 1.254 . S
C49 O45 1.269 . S
C50 O51 1.249 . S
C50 O52 1.270 . S
O51 Zn43 1.943 . S
O51 C50 1.249 . S
O52 Zn42 2.067 . S
O52 C50 1.270 . S
C53 O46 1.262 . S
C53 O54 1.232 . S
O54 C53 1.232 . S
C55 O47 1.260 . S
C55 O48 1.257 . S
Zn56 O59 2.031 . S
Zn56 O61 2.049 . S
Zn56 O66 2.067 . S
Zn57 O58 1.962 . S
Zn57 O60 1.986 . S
Zn57 O62 1.996 . S
Zn57 O65 1.943 . S
O58 Zn57 1.962 . S
O58 C63 1.254 . S
O59 Zn56 2.031 . S
O59 C63 1.269 . S
O60 Zn57 1.986 . S
O60 C67 1.262 . S
O61 Zn56 2.049 . S
O61 C69 1.260 . S
O62 Zn57 1.996 . S
O62 C69 1.257 . S
C63 O58 1.254 . S
C63 O59 1.269 . S
C64 O65 1.249 . S
C64 O66 1.270 . S
O65 Zn57 1.943 . S
O65 C64 1.249 . S
O66 Zn56 2.067 . S
O66 C64 1.270 . S
C67 O60 1.262 . S
C67 O68 1.232 . S
O68 C67 1.232 . S
C69 O61 1.260 . S
C69 O62 1.257 . S
Zn70 O73 2.031 . S
Zn70 O75 2.049 . S
Zn70 O80 2.067 . S
Zn71 O72 1.962 . S
Zn71 O74 1.986 . S
Zn71 O76 1.996 . S
Zn71 O79 1.943 . S
O72 Zn71 1.962 . S
O72 C77 1.254 . S
O73 Zn70 2.031 . S
O73 C77 1.269 . S
O74 Zn71 1.986 . S
O74 C81 1.262 . S
O75 Zn70 2.049 . S
O75 C83 1.260 . S
O76 Zn71 1.996 . S
O76 C83 1.257 . S
C77 O72 1.254 . S
C77 O73 1.269 . S
C78 O79 1.249 . S
C78 O80 1.270 . S
O79 Zn71 1.943 . S
O79 C78 1.249 . S
O80 Zn70 2.067 . S
O80 C78 1.270 . S
C81 O74 1.262 . S
C81 O82 1.232 . S
O82 C81 1.232 . S
C83 O75 1.260 . S
C83 O76 1.257 . S
Zn84 O87 2.031 . S
Zn84 O89 2.049 . S
Zn84 O94 2.067 . S
Zn85 O86 1.962 . S
Zn85 O88 1.986 . S
Zn85 O90 1.996 . S
Zn85 O93 1.943 . S
O86 Zn85 1.962 . S
O86 C91 1.254 . S
O87 Zn84 2.031 . S
O87 C91 1.269 . S
O88 Zn85 1.986 . S
O88 C95 1.262 . S
O89 Zn84 2.049 . S
O89 C97 1.260 . S
O90 Zn85 1.996 . S
O90 C97 1.257 . S
C91 O86 1.254 . S
C91 O87 1.269 . S
C92 O93 1.249 . S
C92 O94 1.270 . S
O93 Zn85 1.943 . S
O93 C92 1.249 . S
O94 Zn84 2.067 . S
O94 C92 1.270 . S
C95 O88 1.262 . S
C95 O96 1.232 . S
O96 C95 1.232 . S
C97 O89 1.260 . S
C97 O90 1.257 . S
Zn98 O101 2.031 . S
Zn98 O103 2.049 . S
Zn98 O108 2.067 . S
Zn99 O100 1.962 . S
Zn99 O102 1.986 . S
Zn99 O104 1.996 . S
Zn99 O107 1.943 . S
O100 Zn99 1.962 . S
O100 C105 1.254 . S
O101 Zn98 2.031 . S
O101 C105 1.269 . S
O102 Zn99 1.986 . S
O102 C109 1.262 . S
O103 Zn98 2.049 . S
O103 C111 1.260 . S
O104 Zn99 1.996 . S
O104 C111 1.257 . S
C105 O100 1.254 . S
C105 O101 1.269 . S
C106 O107 1.249 . S
C106 O108 1.270 . S
O107 Zn99 1.943 . S
O107 C106 1.249 . S
O108 Zn98 2.067 . S
O108 C106 1.270 . S
C109 O102 1.262 . S
C109 O110 1.232 . S
O110 C109 1.232 . S
C111 O103 1.260 . S
C111 O104 1.257 . S
Zn112 O115 2.031 . S
Zn112 O117 2.049 . S
Zn112 O122 2.067 . S
Zn113 O114 1.962 . S
Zn113 O116 1.986 . S
Zn113 O118 1.996 . S
Zn113 O121 1.943 . S
O114 Zn113 1.962 . S
O114 C119 1.254 . S
O115 Zn112 2.031 . S
O115 C119 1.269 . S
O116 Zn113 1.986 . S
O116 C123 1.262 . S
O117 Zn112 2.049 . S
O117 C125 1.260 . S
O118 Zn113 1.996 . S
O118 C125 1.257 . S
C119 O114 1.254 . S
C119 O115 1.269 . S
C120 O121 1.249 . S
C120 O122 1.270 . S
O121 Zn113 1.943 . S
O121 C120 1.249 . S
O122 Zn112 2.067 . S
O122 C120 1.270 . S
C123 O116 1.262 . S
C123 O124 1.232 . S
O124 C123 1.232 . S
C125 O117 1.260 . S
C125 O118 1.257 . S
Zn126 O129 2.031 . S
Zn126 O131 2.049 . S
Zn126 O136 2.067 . S
Zn127 O128 1.962 . S
Zn127 O130 1.986 . S
Zn127 O132 1.996 . S
Zn127 O135 1.943 . S
O128 Zn127 1.962 . S
O128 C133 1.254 . S
O129 Zn126 2.031 . S
O129 C133 1.269 . S
O130 Zn127 1.986 . S
O130 C137 1.262 . S
O131 Zn126 2.049 . S
O131 C139 1.260 . S
O132 Zn127 1.996 . S
O132 C139 1.257 . S
C133 O128 1.254 . S
C133 O129 1.269 . S
C134 O135 1.249 . S
C134 O136 1.270 . S
O135 Zn127 1.943 . S
O135 C134 1.249 . S
O136 Zn126 2.067 . S
O136 C134 1.270 . S
C137 O130 1.262 . S
C137 O138 1.232 . S
O138 C137 1.232 . S
C139 O131 1.260 . S
C139 O132 1.257 . S
Zn140 O143 2.031 . S
Zn140 O145 2.049 . S
Zn140 O150 2.067 . S
Zn141 O142 1.962 . S
Zn141 O144 1.986 . S
Zn141 O146 1.996 . S
Zn141 O149 1.943 . S
O142 Zn141 1.962 . S
O142 C147 1.254 . S
O143 Zn140 2.031 . S
O143 C147 1.269 . S
O144 Zn141 1.986 . S
O144 C151 1.262 . S
O145 Zn140 2.049 . S
O145 C153 1.260 . S
O146 Zn141 1.996 . S
O146 C153 1.257 . S
C147 O142 1.254 . S
C147 O143 1.269 . S
C148 O149 1.249 . S
C148 O150 1.270 . S
O149 Zn141 1.943 . S
O149 C148 1.249 . S
O150 Zn140 2.067 . S
O150 C148 1.270 . S
C151 O144 1.262 . S
C151 O152 1.232 . S
O152 C151 1.232 . S
C153 O145 1.260 . S
C153 O146 1.257 . S
Zn154 O157 2.031 . S
Zn154 O159 2.049 . S
Zn154 O164 2.067 . S
Zn155 O156 1.962 . S
Zn155 O158 1.986 . S
Zn155 O160 1.996 . S
Zn155 O163 1.943 . S
O156 Zn155 1.962 . S
O156 C161 1.254 . S
O157 Zn154 2.031 . S
O157 C161 1.269 . S
O158 Zn155 1.986 . S
O158 C165 1.262 . S
O159 Zn154 2.049 . S
O159 C167 1.260 . S
O160 Zn155 1.996 . S
O160 C167 1.257 . S
C161 O156 1.254 . S
C161 O157 1.269 . S
C162 O163 1.249 . S
C162 O164 1.270 . S
O163 Zn155 1.943 . S
O163 C162 1.249 . S
O164 Zn154 2.067 . S
O164 C162 1.270 . S
C165 O158 1.262 . S
C165 O166 1.232 . S
O166 C165 1.232 . S
C167 O159 1.260 . S
C167 O160 1.257 . S
C168 C169 1.349 . S
C168 C170 1.327 . S
C168 H193 0.950 . S
C169 C168 1.349 . S
C169 C185 1.349 . S
C170 C168 1.327 . S
C170 C189 1.429 . S
C170 H194 0.950 . S
C171 C188 1.574 . S
C171 C190 1.368 . S
C171 H195 0.949 . S
H172 C176 0.949 . S
C173 C174 1.349 . S
C173 C175 1.327 . S
C173 H196 0.950 . S
C174 C173 1.349 . S
C174 C186 1.349 . S
C175 C173 1.327 . S
C175 C191 1.429 . S
C175 H197 0.950 . S
C176 H172 0.949 . S
C176 C184 1.574 . S
C176 C192 1.368 . S
H177 C185 0.950 . S
H178 C183 0.950 . S
H179 C184 0.949 . S
H180 C186 0.950 . S
H181 C187 0.950 . S
H182 C188 0.949 . S
C183 H178 0.950 . S
C183 C185 1.327 . S
C183 C189 1.429 . S
C184 C176 1.574 . S
C184 H179 0.949 . S
C184 C190 1.368 . S
C185 C169 1.349 . S
C185 H177 0.950 . S
C185 C183 1.327 . S
C186 C174 1.349 . S
C186 H180 0.950 . S
C186 C187 1.327 . S
C187 H181 0.950 . S
C187 C186 1.327 . S
C187 C191 1.429 . S
C188 C171 1.574 . S
C188 H182 0.949 . S
C188 C192 1.368 . S
C189 C170 1.429 . S
C189 C183 1.429 . S
C189 C190 1.523 . S
C190 C171 1.368 . S
C190 C184 1.368 . S
C190 C189 1.523 . S
C191 C175 1.429 . S
C191 C187 1.429 . S
C191 C192 1.523 . S
C192 C176 1.368 . S
C192 C188 1.368 . S
C192 C191 1.523 . S
H193 C168 0.950 . S
H194 C170 0.950 . S
H195 C171 0.949 . S
H196 C173 0.950 . S
H197 C175 0.950 . S
C198 C199 1.349 . S
C198 C200 1.327 . S
C198 H223 0.950 . S
C199 C198 1.349 . S
C199 C215 1.349 . S
C200 C198 1.327 . S
C200 C219 1.429 . S
C200 H224 0.950 . S
C201 C218 1.574 . S
C201 C220 1.368 . S
C201 H225 0.949 . S
H202 C206 0.949 . S
C203 C204 1.349 . S
C203 C205 1.327 . S
C203 H226 0.950 . S
C204 C203 1.349 . S
C204 C216 1.349 . S
C205 C203 1.327 . S
C205 C221 1.429 . S
C205 H227 0.950 . S
C206 H202 0.949 . S
C206 C214 1.574 . S
C206 C222 1.368 . S
H207 C215 0.950 . S
H208 C213 0.950 . S
H209 C214 0.949 . S
H210 C216 0.950 . S
H211 C217 0.950 . S
H212 C218 0.949 . S
C213 H208 0.950 . S
C213 C215 1.327 . S
C213 C219 1.429 . S
C214 C206 1.574 . S
C214 H209 0.949 . S
C214 C220 1.368 . S
C215 C199 1.349 . S
C215 H207 0.950 . S
C215 C213 1.327 . S
C216 C204 1.349 . S
C216 H210 0.950 . S
C216 C217 1.327 . S
C217 H211 0.950 . S
C217 C216 1.327 . S
C217 C221 1.429 . S
C218 C201 1.574 . S
C218 H212 0.949 . S
C218 C222 1.368 . S
C219 C200 1.429 . S
C219 C213 1.429 . S
C219 C220 1.523 . S
C220 C201 1.368 . S
C220 C214 1.368 . S
C220 C219 1.523 . S
C221 C205 1.429 . S
C221 C217 1.429 . S
C221 C222 1.523 . S
C222 C206 1.368 . S
C222 C218 1.368 . S
C222 C221 1.523 . S
H223 C198 0.950 . S
H224 C200 0.950 . S
H225 C201 0.949 . S
H226 C203 0.950 . S
H227 C205 0.950 . S
C228 C229 1.349 . S
C228 C230 1.327 . S
C228 H253 0.950 . S
C229 C228 1.349 . S
C229 C245 1.349 . S
C230 C228 1.327 . S
C230 C249 1.429 . S
C230 H254 0.950 . S
C231 C248 1.574 . S
C231 C250 1.368 . S
C231 H255 0.949 . S
H232 C236 0.949 . S
C233 C234 1.349 . S
C233 C235 1.327 . S
C233 H256 0.950 . S
C234 C233 1.349 . S
C234 C246 1.349 . S
C235 C233 1.327 . S
C235 C251 1.429 . S
C235 H257 0.950 . S
C236 H232 0.949 . S
C236 C244 1.574 . S
C236 C252 1.368 . S
H237 C245 0.950 . S
H238 C243 0.950 . S
H239 C244 0.949 . S
H240 C246 0.950 . S
H241 C247 0.950 . S
H242 C248 0.949 . S
C243 H238 0.950 . S
C243 C245 1.327 . S
C243 C249 1.429 . S
C244 C236 1.574 . S
C244 H239 0.949 . S
C244 C250 1.368 . S
C245 C229 1.349 . S
C245 H237 0.950 . S
C245 C243 1.327 . S
C246 C234 1.349 . S
C246 H240 0.950 . S
C246 C247 1.327 . S
C247 H241 0.950 . S
C247 C246 1.327 . S
C247 C251 1.429 . S
C248 C231 1.574 . S
C248 H242 0.949 . S
C248 C252 1.368 . S
C249 C230 1.429 . S
C249 C243 1.429 . S
C249 C250 1.523 . S
C250 C231 1.368 . S
C250 C244 1.368 . S
C250 C249 1.523 . S
C251 C235 1.429 . S
C251 C247 1.429 . S
C251 C252 1.523 . S
C252 C236 1.368 . S
C252 C248 1.368 . S
C252 C251 1.523 . S
H253 C228 0.950 . S
H254 C230 0.950 . S
H255 C231 0.949 . S
H256 C233 0.950 . S
H257 C235 0.950 . S
C258 C259 1.349 . S
C258 C260 1.327 . S
C258 H283 0.950 . S
C259 C258 1.349 . S
C259 C275 1.349 . S
C260 C258 1.327 . S
C260 C279 1.429 . S
C260 H284 0.950 . S
C261 C278 1.574 . S
C261 C280 1.368 . S
C261 H285 0.949 . S
H262 C266 0.949 . S
C263 C264 1.349 . S
C263 C265 1.327 . S
C263 H286 0.950 . S
C264 C263 1.349 . S
C264 C276 1.349 . S
C265 C263 1.327 . S
C265 C281 1.429 . S
C265 H287 0.950 . S
C266 H262 0.949 . S
C266 C274 1.574 . S
C266 C282 1.368 . S
H267 C275 0.950 . S
H268 C273 0.950 . S
H269 C274 0.949 . S
H270 C276 0.950 . S
H271 C277 0.950 . S
H272 C278 0.949 . S
C273 H268 0.950 . S
C273 C275 1.327 . S
C273 C279 1.429 . S
C274 C266 1.574 . S
C274 H269 0.949 . S
C274 C280 1.368 . S
C275 C259 1.349 . S
C275 H267 0.950 . S
C275 C273 1.327 . S
C276 C264 1.349 . S
C276 H270 0.950 . S
C276 C277 1.327 . S
C277 H271 0.950 . S
C277 C276 1.327 . S
C277 C281 1.429 . S
C278 C261 1.574 . S
C278 H272 0.949 . S
C278 C282 1.368 . S
C279 C260 1.429 . S
C279 C273 1.429 . S
C279 C280 1.523 . S
C280 C261 1.368 . S
C280 C274 1.368 . S
C280 C279 1.523 . S
C281 C265 1.429 . S
C281 C277 1.429 . S
C281 C282 1.523 . S
C282 C266 1.368 . S
C282 C278 1.368 . S
C282 C281 1.523 . S
H283 C258 0.950 . S
H284 C260 0.950 . S
H285 C261 0.949 . S
H286 C263 0.950 . S
H287 C265 0.950 . S
C288 C289 1.349 . S
C288 C290 1.327 . S
C288 H313 0.950 . S
C289 C288 1.349 . S
C289 C305 1.349 . S
C290 C288 1.327 . S
C290 C309 1.429 . S
C290 H314 0.950 . S
C291 C308 1.574 . S
C291 C310 1.368 . S
C291 H315 0.949 . S
H292 C296 0.949 . S
C293 C294 1.349 . S
C293 C295 1.327 . S
C293 H316 0.950 . S
C294 C293 1.349 . S
C294 C306 1.349 . S
C295 C293 1.327 . S
C295 C311 1.429 . S
C295 H317 0.950 . S
C296 H292 0.949 . S
C296 C304 1.574 . S
C296 C312 1.368 . S
H297 C305 0.950 . S
H298 C303 0.950 . S
H299 C304 0.949 . S
H300 C306 0.950 . S
H301 C307 0.950 . S
H302 C308 0.949 . S
C303 H298 0.950 . S
C303 C305 1.327 . S
C303 C309 1.429 . S
C304 C296 1.574 . S
C304 H299 0.949 . S
C304 C310 1.368 . S
C305 C289 1.349 . S
C305 H297 0.950 . S
C305 C303 1.327 . S
C306 C294 1.349 . S
C306 H300 0.950 . S
C306 C307 1.327 . S
C307 H301 0.950 . S
C307 C306 1.327 . S
C307 C311 1.429 . S
C308 C291 1.574 . S
C308 H302 0.949 . S
C308 C312 1.368 . S
C309 C290 1.429 . S
C309 C303 1.429 . S
C309 C310 1.523 . S
C310 C291 1.368 . S
C310 C304 1.368 . S
C310 C309 1.523 . S
C311 C295 1.429 . S
C311 C307 1.429 . S
C311 C312 1.523 . S
C312 C296 1.368 . S
C312 C308 1.368 . S
C312 C311 1.523 . S
H313 C288 0.950 . S
H314 C290 0.950 . S
H315 C291 0.949 . S
H316 C293 0.950 . S
H317 C295 0.950 . S
C318 C319 1.349 . S
C318 C320 1.327 . S
C318 H343 0.950 . S
C319 C318 1.349 . S
C319 C335 1.349 . S
C320 C318 1.327 . S
C320 C339 1.429 . S
C320 H344 0.950 . S
C321 C338 1.574 . S
C321 C340 1.368 . S
C321 H345 0.949 . S
H322 C326 0.949 . S
C323 C324 1.349 . S
C323 C325 1.327 . S
C323 H346 0.950 . S
C324 C323 1.349 . S
C324 C336 1.349 . S
C325 C323 1.327 . S
C325 C341 1.429 . S
C325 H347 0.950 . S
C326 H322 0.949 . S
C326 C334 1.574 . S
C326 C342 1.368 . S
H327 C335 0.950 . S
H328 C333 0.950 . S
H329 C334 0.949 . S
H330 C336 0.950 . S
H331 C337 0.950 . S
H332 C338 0.949 . S
C333 H328 0.950 . S
C333 C335 1.327 . S
C333 C339 1.429 . S
C334 C326 1.574 . S
C334 H329 0.949 . S
C334 C340 1.368 . S
C335 C319 1.349 . S
C335 H327 0.950 . S
C335 C333 1.327 . S
C336 C324 1.349 . S
C336 H330 0.950 . S
C336 C337 1.327 . S
C337 H331 0.950 . S
C337 C336 1.327 . S
C337 C341 1.429 . S
C338 C321 1.574 . S
C338 H332 0.949 . S
C338 C342 1.368 . S
C339 C320 1.429 . S
C339 C333 1.429 . S
C339 C340 1.523 . S
C340 C321 1.368 . S
C340 C334 1.368 . S
C340 C339 1.523 . S
C341 C325 1.429 . S
C341 C337 1.429 . S
C341 C342 1.523 . S
C342 C326 1.368 . S
C342 C338 1.368 . S
C342 C341 1.523 . S
H343 C318 0.950 . S
H344 C320 0.950 . S
H345 C321 0.949 . S
H346 C323 0.950 . S
H347 C325 0.950 . S
C348 C349 1.349 . S
C348 C350 1.327 . S
C348 H373 0.950 . S
C349 C348 1.349 . S
C349 C365 1.349 . S
C350 C348 1.327 . S
C350 C369 1.429 . S
C350 H374 0.950 . S
C351 C368 1.574 . S
C351 C370 1.368 . S
C351 H375 0.949 . S
H352 C356 0.949 . S
C353 C354 1.349 . S
C353 C355 1.327 . S
C353 H376 0.950 . S
C354 C353 1.349 . S
C354 C366 1.349 . S
C355 C353 1.327 . S
C355 C371 1.429 . S
C355 H377 0.950 . S
C356 H352 0.949 . S
C356 C364 1.574 . S
C356 C372 1.368 . S
H357 C365 0.950 . S
H358 C363 0.950 . S
H359 C364 0.949 . S
H360 C366 0.950 . S
H361 C367 0.950 . S
H362 C368 0.949 . S
C363 H358 0.950 . S
C363 C365 1.327 . S
C363 C369 1.429 . S
C364 C356 1.574 . S
C364 H359 0.949 . S
C364 C370 1.368 . S
C365 C349 1.349 . S
C365 H357 0.950 . S
C365 C363 1.327 . S
C366 C354 1.349 . S
C366 H360 0.950 . S
C366 C367 1.327 . S
C367 H361 0.950 . S
C367 C366 1.327 . S
C367 C371 1.429 . S
C368 C351 1.574 . S
C368 H362 0.949 . S
C368 C372 1.368 . S
C369 C350 1.429 . S
C369 C363 1.429 . S
C369 C370 1.523 . S
C370 C351 1.368 . S
C370 C364 1.368 . S
C370 C369 1.523 . S
C371 C355 1.429 . S
C371 C367 1.429 . S
C371 C372 1.523 . S
C372 C356 1.368 . S
C372 C368 1.368 . S
C372 C371 1.523 . S
H373 C348 0.950 . S
H374 C350 0.950 . S
H375 C351 0.949 . S
H376 C353 0.950 . S
H377 C355 0.950 . S
C378 C379 1.349 . S
C378 C380 1.327 . S
C378 H403 0.950 . S
C379 C378 1.349 . S
C379 C395 1.349 . S
C380 C378 1.327 . S
C380 C399 1.429 . S
C380 H404 0.950 . S
C381 C398 1.574 1_655 S
C381 C400 1.368 . S
C381 H405 0.949 . S
H382 C386 0.949 . S
C383 C384 1.349 . S
C383 C385 1.327 . S
C383 H406 0.950 . S
C384 C383 1.349 . S
C384 C396 1.349 . S
C385 C383 1.327 . S
C385 C401 1.429 . S
C385 H407 0.950 . S
C386 H382 0.949 . S
C386 C394 1.574 1_455 S
C386 C402 1.368 . S
H387 C395 0.950 . S
H388 C393 0.950 . S
H389 C394 0.949 . S
H390 C396 0.950 . S
H391 C397 0.950 . S
H392 C398 0.949 . S
C393 H388 0.950 . S
C393 C395 1.327 . S
C393 C399 1.429 . S
C394 C386 1.574 1_655 S
C394 H389 0.949 . S
C394 C400 1.368 . S
C395 C379 1.349 . S
C395 H387 0.950 . S
C395 C393 1.327 . S
C396 C384 1.349 . S
C396 H390 0.950 . S
C396 C397 1.327 . S
C397 H391 0.950 . S
C397 C396 1.327 . S
C397 C401 1.429 . S
C398 C381 1.574 1_455 S
C398 H392 0.949 . S
C398 C402 1.368 . S
C399 C380 1.429 . S
C399 C393 1.429 . S
C399 C400 1.523 . S
C400 C381 1.368 . S
C400 C394 1.368 . S
C400 C399 1.523 . S
C401 C385 1.429 . S
C401 C397 1.429 . S
C401 C402 1.523 . S
C402 C386 1.368 . S
C402 C398 1.368 . S
C402 C401 1.523 . S
H403 C378 0.950 . S
H404 C380 0.950 . S
H405 C381 0.949 . S
H406 C383 0.950 . S
H407 C385 0.950 . S
C408 C409 1.349 . S
C408 C410 1.327 . S
C408 H433 0.950 . S
C409 C408 1.349 . S
C409 C425 1.349 . S
C410 C408 1.327 . S
C410 C429 1.429 . S
C410 H434 0.950 . S
C411 C428 1.574 1_545 S
C411 C430 1.368 . S
C411 H435 0.949 . S
H412 C416 0.949 . S
C413 C414 1.349 . S
C413 C415 1.327 . S
C413 H436 0.950 . S
C414 C413 1.349 . S
C414 C426 1.349 . S
C415 C413 1.327 . S
C415 C431 1.429 . S
C415 H437 0.950 . S
C416 H412 0.949 . S
C416 C424 1.574 1_565 S
C416 C432 1.368 . S
H417 C425 0.950 . S
H418 C423 0.950 . S
H419 C424 0.949 . S
H420 C426 0.950 . S
H421 C427 0.950 . S
H422 C428 0.949 . S
C423 H418 0.950 . S
C423 C425 1.327 . S
C423 C429 1.429 . S
C424 C416 1.574 1_545 S
C424 H419 0.949 . S
C424 C430 1.368 . S
C425 C409 1.349 . S
C425 H417 0.950 . S
C425 C423 1.327 . S
C426 C414 1.349 . S
C426 H420 0.950 . S
C426 C427 1.327 . S
C427 H421 0.950 . S
C427 C426 1.327 . S
C427 C431 1.429 . S
C428 C411 1.574 1_565 S
C428 H422 0.949 . S
C428 C432 1.368 . S
C429 C410 1.429 . S
C429 C423 1.429 . S
C429 C430 1.523 . S
C430 C411 1.368 . S
C430 C424 1.368 . S
C430 C429 1.523 . S
C431 C415 1.429 . S
C431 C427 1.429 . S
C431 C432 1.523 . S
C432 C416 1.368 . S
C432 C428 1.368 . S
C432 C431 1.523 . S
H433 C408 0.950 . S
H434 C410 0.950 . S
H435 C411 0.949 . S
H436 C413 0.950 . S
H437 C415 0.950 . S
C438 C439 1.349 . S
C438 C440 1.327 . S
C438 H463 0.950 . S
C439 C438 1.349 . S
C439 C455 1.349 . S
C440 C438 1.327 . S
C440 C459 1.429 . S
C440 H464 0.950 . S
C441 C458 1.574 . S
C441 C460 1.368 . S
C441 H465 0.949 . S
H442 C446 0.949 . S
C443 C444 1.349 . S
C443 C445 1.327 . S
C443 H466 0.950 . S
C444 C443 1.349 . S
C444 C456 1.349 . S
C445 C443 1.327 . S
C445 C461 1.429 . S
C445 H467 0.950 . S
C446 H442 0.949 . S
C446 C454 1.574 . S
C446 C462 1.368 . S
H447 C455 0.950 . S
H448 C453 0.950 . S
H449 C454 0.949 . S
H450 C456 0.950 . S
H451 C457 0.950 . S
H452 C458 0.949 . S
C453 H448 0.950 . S
C453 C455 1.327 . S
C453 C459 1.429 . S
C454 C446 1.574 . S
C454 H449 0.949 . S
C454 C460 1.368 . S
C455 C439 1.349 . S
C455 H447 0.950 . S
C455 C453 1.327 . S
C456 C444 1.349 . S
C456 H450 0.950 . S
C456 C457 1.327 . S
C457 H451 0.950 . S
C457 C456 1.327 . S
C457 C461 1.429 . S
C458 C441 1.574 . S
C458 H452 0.949 . S
C458 C462 1.368 . S
C459 C440 1.429 . S
C459 C453 1.429 . S
C459 C460 1.523 . S
C460 C441 1.368 . S
C460 C454 1.368 . S
C460 C459 1.523 . S
C461 C445 1.429 . S
C461 C457 1.429 . S
C461 C462 1.523 . S
C462 C446 1.368 . S
C462 C458 1.368 . S
C462 C461 1.523 . S
H463 C438 0.950 . S
H464 C440 0.950 . S
H465 C441 0.949 . S
H466 C443 0.950 . S
H467 C445 0.950 . S
C468 C469 1.349 . S
C468 C470 1.327 . S
C468 H493 0.950 . S
C469 C468 1.349 . S
C469 C485 1.349 . S
C470 C468 1.327 . S
C470 C489 1.429 . S
C470 H494 0.950 . S
C471 C488 1.574 1_655 S
C471 C490 1.368 . S
C471 H495 0.949 . S
H472 C476 0.949 . S
C473 C474 1.349 . S
C473 C475 1.327 . S
C473 H496 0.950 . S
C474 C473 1.349 . S
C474 C486 1.349 . S
C475 C473 1.327 . S
C475 C491 1.429 . S
C475 H497 0.950 . S
C476 H472 0.949 . S
C476 C484 1.574 1_455 S
C476 C492 1.368 . S
H477 C485 0.950 . S
H478 C483 0.950 . S
H479 C484 0.949 . S
H480 C486 0.950 . S
H481 C487 0.950 . S
H482 C488 0.949 . S
C483 H478 0.950 . S
C483 C485 1.327 . S
C483 C489 1.429 . S
C484 C476 1.574 1_655 S
C484 H479 0.949 . S
C484 C490 1.368 . S
C485 C469 1.349 . S
C485 H477 0.950 . S
C485 C483 1.327 . S
C486 C474 1.349 . S
C486 H480 0.950 . S
C486 C487 1.327 . S
C487 H481 0.950 . S
C487 C486 1.327 . S
C487 C491 1.429 . S
C488 C471 1.574 1_455 S
C488 H482 0.949 . S
C488 C492 1.368 . S
C489 C470 1.429 . S
C489 C483 1.429 . S
C489 C490 1.523 . S
C490 C471 1.368 . S
C490 C484 1.368 . S
C490 C489 1.523 . S
C491 C475 1.429 . S
C491 C487 1.429 . S
C491 C492 1.523 . S
C492 C476 1.368 . S
C492 C488 1.368 . S
C492 C491 1.523 . S
H493 C468 0.950 . S
H494 C470 0.950 . S
H495 C471 0.949 . S
H496 C473 0.950 . S
H497 C475 0.950 . S
C498 C499 1.349 . S
C498 C500 1.327 . S
C498 H523 0.950 . S
C499 C498 1.349 . S
C499 C515 1.349 . S
C500 C498 1.327 . S
C500 C519 1.429 . S
C500 H524 0.950 . S
C501 C518 1.571 . S
C501 C520 1.371 1_545 S
C501 H525 0.952 1_545 S
H502 C506 0.952 1_545 S
C503 C504 1.349 . S
C503 C505 1.327 . S
C503 H526 0.950 . S
C504 C503 1.349 . S
C504 C516 1.349 . S
C505 C503 1.327 . S
C505 C521 1.429 . S
C505 H527 0.950 . S
C506 H502 0.952 1_565 S
C506 C514 1.571 . S
C506 C522 1.371 1_565 S
H507 C515 0.950 . S
H508 C513 0.950 . S
H509 C514 0.949 . S
H510 C516 0.950 . S
H511 C517 0.950 . S
H512 C518 0.949 . S
C513 H508 0.950 . S
C513 C515 1.327 . S
C513 C519 1.429 . S
C514 C506 1.571 . S
C514 H509 0.949 . S
C514 C520 1.368 1_556 S
C515 C499 1.349 . S
C515 H507 0.950 . S
C515 C513 1.327 . S
C516 C504 1.349 . S
C516 H510 0.950 . S
C516 C517 1.327 . S
C517 H511 0.950 . S
C517 C516 1.327 . S
C517 C521 1.429 . S
C518 C501 1.571 . S
C518 H512 0.949 . S
C518 C522 1.368 1_554 S
C519 C500 1.429 . S
C519 C513 1.429 . S
C519 C520 1.523 . S
C520 C501 1.371 1_565 S
C520 C514 1.368 1_554 S
C520 C519 1.523 . S
C521 C505 1.429 . S
C521 C517 1.429 . S
C521 C522 1.523 . S
C522 C506 1.371 1_545 S
C522 C518 1.368 1_556 S
C522 C521 1.523 . S
H523 C498 0.950 . S
H524 C500 0.950 . S
H525 C501 0.952 1_565 S
H526 C503 0.950 . S
H527 C505 0.950 . S
C528 C529 1.349 . S
C528 C530 1.327 . S
C528 H553 0.950 . S
C529 C528 1.349 . S
C529 C545 1.349 . S
C530 C528 1.327 . S
C530 C549 1.429 . S
C530 H554 0.950 . S
C531 C548 1.574 . S
C531 C550 1.368 . S
C531 H555 0.949 . S
H532 C536 0.949 . S
C533 C534 1.349 . S
C533 C535 1.327 . S
C533 H556 0.950 . S
C534 C533 1.349 . S
C534 C546 1.349 . S
C535 C533 1.327 . S
C535 C551 1.429 . S
C535 H557 0.950 . S
C536 H532 0.949 . S
C536 C544 1.574 . S
C536 C552 1.368 . S
H537 C545 0.950 . S
H538 C543 0.950 . S
H539 C544 0.949 . S
H540 C546 0.950 . S
H541 C547 0.950 . S
H542 C548 0.975 . S
C543 H538 0.950 . S
C543 C545 1.327 . S
C543 C549 1.429 . S
C544 C536 1.574 . S
C544 H539 0.949 . S
C544 C550 1.368 . S
C545 C529 1.349 . S
C545 H537 0.950 . S
C545 C543 1.327 . S
C546 C534 1.349 . S
C546 H540 0.950 . S
C546 C547 1.327 . S
C547 H541 0.950 . S
C547 C546 1.327 . S
C547 C551 1.429 . S
C548 C531 1.574 . S
C548 H542 0.975 . S
C548 C552 1.368 . S
C549 C530 1.429 . S
C549 C543 1.429 . S
C549 C550 1.523 . S
C550 C531 1.368 . S
C550 C544 1.368 . S
C550 C549 1.523 . S
C551 C535 1.429 . S
C551 C547 1.429 . S
C551 C552 1.523 1_556 S
C552 C536 1.368 . S
C552 C548 1.368 . S
C552 C551 1.523 1_554 S
H553 C528 0.950 . S
H554 C530 0.950 . S
H555 C531 0.949 . S
H556 C533 0.950 . S
H557 C535 0.950 . S
C558 C559 1.349 . S
C558 C560 1.327 . S
C558 H583 0.950 . S
C559 C558 1.349 . S
C559 C575 1.349 . S
C560 C558 1.327 . S
C560 C579 1.429 . S
C560 H584 0.950 . S
C561 C578 1.574 . S
C561 C580 1.368 . S
C561 H585 0.949 . S
H562 C566 0.949 . S
C563 C564 1.349 . S
C563 C565 1.327 . S
C563 H586 0.950 . S
C564 C563 1.349 . S
C564 C576 1.349 . S
C565 C563 1.327 . S
C565 C581 1.429 . S
C565 H587 0.950 1_455 S
C566 H562 0.949 . S
C566 C574 1.574 1_455 S
C566 C582 1.368 . S
H567 C575 0.950 . S
H568 C573 0.950 . S
H569 C574 0.949 . S
H570 C576 0.950 . S
H571 C577 0.950 . S
H572 C578 0.949 . S
C573 H568 0.950 . S
C573 C575 1.327 . S
C573 C579 1.429 . S
C574 C566 1.574 1_655 S
C574 H569 0.949 . S
C574 C580 1.368 . S
C575 C559 1.349 . S
C575 H567 0.950 . S
C575 C573 1.327 . S
C576 C564 1.349 . S
C576 H570 0.950 . S
C576 C577 1.327 . S
C577 H571 0.950 . S
C577 C576 1.327 . S
C577 C581 1.429 . S
C578 C561 1.574 . S
C578 H572 0.949 . S
C578 C582 1.368 1_655 S
C579 C560 1.429 . S
C579 C573 1.429 . S
C579 C580 1.523 . S
C580 C561 1.368 . S
C580 C574 1.368 . S
C580 C579 1.523 . S
C581 C565 1.429 . S
C581 C577 1.429 . S
C581 C582 1.523 . S
C582 C566 1.368 . S
C582 C578 1.368 1_455 S
C582 C581 1.523 . S
H583 C558 0.950 . S
H584 C560 0.950 . S
H585 C561 0.949 . S
H586 C563 0.950 . S
H587 C565 0.950 1_655 S
C588 C589 1.349 . S
C588 C590 1.327 . S
C588 H613 0.950 . S
C589 C588 1.349 . S
C589 C605 1.349 . S
C590 C588 1.327 . S
C590 C609 1.429 . S
C590 H614 0.950 . S
C591 C608 1.574 . S
C591 C610 1.368 1_565 S
C591 H615 0.949 . S
H592 C596 0.949 . S
C593 C594 1.349 . S
C593 C595 1.327 . S
C593 H616 0.950 . S
C594 C593 1.349 . S
C594 C606 1.349 . S
C595 C593 1.327 . S
C595 C611 1.429 . S
C595 H617 0.950 . S
C596 H592 0.949 . S
C596 C604 1.574 1_565 S
C596 C612 1.368 . S
H597 C605 0.950 . S
H598 C603 0.950 . S
H599 C604 0.949 . S
H600 C606 0.950 . S
H601 C607 0.950 . S
H602 C608 0.949 . S
C603 H598 0.950 . S
C603 C605 1.327 . S
C603 C609 1.429 . S
C604 C596 1.574 1_545 S
C604 H599 0.949 . S
C604 C610 1.368 . S
C605 C589 1.349 . S
C605 H597 0.950 . S
C605 C603 1.327 . S
C606 C594 1.349 . S
C606 H600 0.950 . S
C606 C607 1.327 . S
C607 H601 0.950 . S
C607 C606 1.327 . S
C607 C611 1.429 . S
C608 C591 1.574 . S
C608 H602 0.949 . S
C608 C612 1.368 . S
C609 C590 1.429 . S
C609 C603 1.429 . S
C609 C610 1.523 . S
C610 C591 1.368 1_545 S
C610 C604 1.368 . S
C610 C609 1.523 . S
C611 C595 1.429 . S
C611 C607 1.429 . S
C611 C612 1.523 . S
C612 C596 1.368 . S
C612 C608 1.368 . S
C612 C611 1.523 . S
H613 C588 0.950 . S
H614 C590 0.950 . S
H615 C591 0.949 . S
H616 C593 0.950 . S
H617 C595 0.950 . S
C618 C619 1.349 . S
C618 C620 1.327 . S
C618 H643 0.950 . S
C619 C618 1.349 . S
C619 C635 1.349 . S
C620 C618 1.327 . S
C620 C639 1.429 . S
C620 H644 0.950 . S
C621 C638 1.574 . S
C621 C640 1.368 . S
C621 H645 0.949 . S
H622 C626 0.949 . S
C623 C624 1.349 . S
C623 C625 1.327 . S
C623 H646 0.950 . S
C624 C623 1.349 . S
C624 C636 1.349 . S
C625 C623 1.327 . S
C625 C641 1.429 . S
C625 H647 0.950 . S
C626 H622 0.949 . S
C626 C634 1.574 . S
C626 C642 1.368 . S
H627 C635 0.950 . S
H628 C633 0.950 . S
H629 C634 0.949 . S
H630 C636 0.950 . S
H631 C637 0.950 . S
H632 C638 0.949 . S
C633 H628 0.950 . S
C633 C635 1.327 . S
C633 C639 1.429 . S
C634 C626 1.574 . S
C634 H629 0.949 . S
C634 C640 1.368 . S
C635 C619 1.349 . S
C635 H627 0.950 . S
C635 C633 1.327 . S
C636 C624 1.349 . S
C636 H630 0.950 . S
C636 C637 1.327 . S
C637 H631 0.950 . S
C637 C636 1.327 . S
C637 C641 1.429 . S
C638 C621 1.574 . S
C638 H632 0.949 . S
C638 C642 1.368 . S
C639 C620 1.429 . S
C639 C633 1.429 . S
C639 C640 1.523 . S
C640 C621 1.368 . S
C640 C634 1.368 . S
C640 C639 1.523 . S
C641 C625 1.429 . S
C641 C637 1.429 . S
C641 C642 1.523 . S
C642 C626 1.368 . S
C642 C638 1.368 . S
C642 C641 1.523 . S
H643 C618 0.950 . S
H644 C620 0.950 . S
H645 C621 0.949 . S
H646 C623 0.950 . S
H647 C625 0.950 . S
C648 C649 1.349 . S
C648 C650 1.327 . S
C648 H673 0.950 . S
C649 C648 1.349 . S
C649 C665 1.349 . S
C650 C648 1.327 . S
C650 C669 1.429 . S
C650 H674 0.950 . S
C651 C668 1.574 1_455 S
C651 C670 1.368 . S
C651 H675 0.949 . S
H652 C656 0.949 . S
C653 C654 1.349 . S
C653 C655 1.327 . S
C653 H676 0.950 . S
C654 C653 1.349 . S
C654 C666 1.349 . S
C655 C653 1.327 . S
C655 C671 1.429 . S
C655 H677 0.950 . S
C656 H652 0.949 . S
C656 C664 1.574 . S
C656 C672 1.368 1_455 S
H657 C665 0.950 . S
H658 C663 0.950 . S
H659 C664 0.949 . S
H660 C666 0.950 . S
H661 C667 0.950 1_455 S
H662 C668 0.949 . S
C663 H658 0.950 . S
C663 C665 1.327 . S
C663 C669 1.429 . S
C664 C656 1.574 . S
C664 H659 0.949 . S
C664 C670 1.368 . S
C665 C649 1.349 . S
C665 H657 0.950 . S
C665 C663 1.327 . S
C666 C654 1.349 . S
C666 H660 0.950 . S
C666 C667 1.327 . S
C667 H661 0.950 1_655 S
C667 C666 1.327 . S
C667 C671 1.429 . S
C668 C651 1.574 1_655 S
C668 H662 0.949 . S
C668 C672 1.368 . S
C669 C650 1.429 . S
C669 C663 1.429 . S
C669 C670 1.523 . S
C670 C651 1.368 . S
C670 C664 1.368 . S
C670 C669 1.523 . S
C671 C655 1.429 . S
C671 C667 1.429 . S
C671 C672 1.523 . S
C672 C656 1.368 1_655 S
C672 C668 1.368 . S
C672 C671 1.523 . S
H673 C648 0.950 . S
H674 C650 0.950 . S
H675 C651 0.949 . S
H676 C653 0.950 . S
H677 C655 0.950 . S
C678 C679 1.349 . S
C678 C680 1.327 . S
C678 H703 0.950 . S
C679 C678 1.349 . S
C679 C695 1.349 . S
C680 C678 1.327 . S
C680 C699 1.429 . S
C680 H704 0.950 . S
C681 C698 1.574 1_545 S
C681 C700 1.368 . S
C681 H705 0.949 . S
H682 C686 0.949 . S
C683 C684 1.349 . S
C683 C685 1.327 . S
C683 H706 0.950 . S
C684 C683 1.349 . S
C684 C696 1.349 . S
C685 C683 1.327 . S
C685 C701 1.429 . S
C685 H707 0.950 . S
C686 H682 0.949 . S
C686 C694 1.574 . S
C686 C702 1.368 1_545 S
H687 C695 0.950 . S
H688 C693 0.950 . S
H689 C694 0.949 . S
H690 C696 0.950 . S
H691 C697 0.950 1_545 S
H692 C698 0.949 . S
C693 H688 0.950 . S
C693 C695 1.327 . S
C693 C699 1.429 . S
C694 C686 1.574 . S
C694 H689 0.949 . S
C694 C700 1.368 . S
C695 C679 1.349 . S
C695 H687 0.950 . S
C695 C693 1.327 . S
C696 C684 1.349 . S
C696 H690 0.950 . S
C696 C697 1.327 . S
C697 H691 0.950 1_565 S
C697 C696 1.327 . S
C697 C701 1.429 . S
C698 C681 1.574 1_565 S
C698 H692 0.949 . S
C698 C702 1.368 . S
C699 C680 1.429 . S
C699 C693 1.429 . S
C699 C700 1.523 . S
C700 C681 1.368 . S
C700 C694 1.368 . S
C700 C699 1.523 . S
C701 C685 1.429 . S
C701 C697 1.429 . S
C701 C702 1.523 . S
C702 C686 1.368 1_565 S
C702 C698 1.368 . S
C702 C701 1.523 . S
H703 C678 0.950 . S
H704 C680 0.950 . S
H705 C681 0.949 . S
H706 C683 0.950 . S
H707 C685 0.950 . S
C708 C709 1.349 . S
C708 C710 1.327 . S
C708 H733 0.950 . S
C709 C708 1.349 . S
C709 C725 1.349 . S
C710 C708 1.327 . S
C710 C729 1.429 . S
C710 H734 0.950 . S
C711 C728 1.574 . S
C711 C730 1.368 . S
C711 H735 0.949 . S
H712 C716 0.949 . S
C713 C714 1.349 . S
C713 C715 1.327 . S
C713 H736 0.950 . S
C714 C713 1.349 . S
C714 C726 1.349 . S
C715 C713 1.327 . S
C715 C731 1.429 . S
C715 H737 0.950 . S
C716 H712 0.949 . S
C716 C724 1.574 . S
C716 C732 1.368 . S
H717 C725 0.950 . S
H718 C723 0.950 . S
H719 C724 0.949 . S
H720 C726 0.950 . S
H721 C727 0.950 . S
H722 C728 0.949 . S
C723 H718 0.950 . S
C723 C725 1.327 . S
C723 C729 1.429 . S
C724 C716 1.574 . S
C724 H719 0.949 . S
C724 C730 1.368 . S
C725 C709 1.349 . S
C725 H717 0.950 . S
C725 C723 1.327 . S
C726 C714 1.349 . S
C726 H720 0.950 . S
C726 C727 1.327 . S
C727 H721 0.950 . S
C727 C726 1.327 . S
C727 C731 1.429 . S
C728 C711 1.574 . S
C728 H722 0.949 . S
C728 C732 1.368 . S
C729 C710 1.429 . S
C729 C723 1.429 . S
C729 C730 1.523 . S
C730 C711 1.368 . S
C730 C724 1.368 . S
C730 C729 1.523 . S
C731 C715 1.429 . S
C731 C727 1.429 . S
C731 C732 1.523 . S
C732 C716 1.368 . S
C732 C728 1.368 . S
C732 C731 1.523 . S
H733 C708 0.950 . S
H734 C710 0.950 . S
H735 C711 0.949 . S
H736 C713 0.950 . S
H737 C715 0.950 . S
C738 C739 1.349 . S
C738 C740 1.327 . S
C738 H763 0.950 . S
C739 C738 1.349 . S
C739 C755 1.349 . S
C740 C738 1.327 . S
C740 C759 1.429 . S
C740 H764 0.950 . S
C741 C758 1.574 . S
C741 C760 1.368 . S
C741 H765 0.949 . S
H742 C746 0.949 1_455 S
C743 C744 1.349 . S
C743 C745 1.327 . S
C743 H766 0.950 . S
C744 C743 1.349 . S
C744 C756 1.349 . S
C745 C743 1.327 . S
C745 C761 1.429 . S
C745 H767 0.950 . S
C746 H742 0.949 1_655 S
C746 C754 1.574 . S
C746 C762 1.368 1_655 S
H747 C755 0.950 . S
H748 C753 0.950 . S
H749 C754 0.949 . S
H750 C756 0.950 . S
H751 C757 0.950 . S
H752 C758 0.949 . S
C753 H748 0.950 . S
C753 C755 1.327 . S
C753 C759 1.429 . S
C754 C746 1.574 . S
C754 H749 0.949 . S
C754 C760 1.368 . S
C755 C739 1.349 . S
C755 H747 0.950 . S
C755 C753 1.327 . S
C756 C744 1.349 . S
C756 H750 0.950 . S
C756 C757 1.327 . S
C757 H751 0.950 . S
C757 C756 1.327 . S
C757 C761 1.429 . S
C758 C741 1.574 . S
C758 H752 0.949 . S
C758 C762 1.368 1_655 S
C759 C740 1.429 . S
C759 C753 1.429 . S
C759 C760 1.523 . S
C760 C741 1.368 . S
C760 C754 1.368 . S
C760 C759 1.523 . S
C761 C745 1.429 . S
C761 C757 1.429 . S
C761 C762 1.523 1_554 S
C762 C746 1.368 1_455 S
C762 C758 1.368 1_455 S
C762 C761 1.523 1_556 S
H763 C738 0.950 . S
H764 C740 0.950 . S
H765 C741 0.949 . S
H766 C743 0.950 . S
H767 C745 0.950 . S
C768 C769 1.349 . S
C768 C770 1.327 . S
C768 H793 0.950 . S
C769 C768 1.349 . S
C769 C785 1.349 . S
C770 C768 1.327 . S
C770 C789 1.429 . S
C770 H794 0.950 . S
C771 C788 1.574 . S
C771 C790 1.368 . S
C771 H795 0.949 . S
H772 C776 0.949 . S
C773 C774 1.349 . S
C773 C775 1.327 . S
C773 H796 0.950 . S
C774 C773 1.349 . S
C774 C786 1.349 . S
C775 C773 1.327 . S
C775 C791 1.429 . S
C775 H797 0.950 1_545 S
C776 H772 0.949 . S
C776 C784 1.574 1_545 S
C776 C792 1.368 . S
H777 C785 0.950 . S
H778 C783 0.950 . S
H779 C784 0.949 . S
H780 C786 0.950 . S
H781 C787 0.950 . S
H782 C788 0.949 . S
C783 H778 0.950 . S
C783 C785 1.327 . S
C783 C789 1.429 . S
C784 C776 1.574 1_565 S
C784 H779 0.949 . S
C784 C790 1.368 . S
C785 C769 1.349 . S
C785 H777 0.950 . S
C785 C783 1.327 . S
C786 C774 1.349 . S
C786 H780 0.950 . S
C786 C787 1.327 . S
C787 H781 0.950 . S
C787 C786 1.327 . S
C787 C791 1.429 . S
C788 C771 1.574 . S
C788 H782 0.949 . S
C788 C792 1.368 1_565 S
C789 C770 1.429 . S
C789 C783 1.429 . S
C789 C790 1.523 . S
C790 C771 1.368 . S
C790 C784 1.368 . S
C790 C789 1.523 . S
C791 C775 1.429 . S
C791 C787 1.429 . S
C791 C792 1.523 . S
C792 C776 1.368 . S
C792 C788 1.368 1_545 S
C792 C791 1.523 . S
H793 C768 0.950 . S
H794 C770 0.950 . S
H795 C771 0.949 . S
H796 C773 0.950 . S
H797 C775 0.950 1_565 S
C798 C799 1.349 . S
C798 C800 1.327 . S
C798 H823 0.950 . S
C799 C798 1.349 . S
C799 C815 1.349 . S
C800 C798 1.327 . S
C800 C819 1.429 . S
C800 H824 0.950 . S
C801 C818 1.574 . S
C801 C820 1.368 . S
C801 H825 0.949 . S
H802 C806 0.949 . S
C803 C804 1.349 . S
C803 C805 1.327 . S
C803 H826 0.950 . S
C804 C803 1.349 . S
C804 C816 1.349 . S
C805 C803 1.327 . S
C805 C821 1.429 . S
C805 H827 0.950 . S
C806 H802 0.949 . S
C806 C814 1.574 . S
C806 C822 1.368 . S
H807 C815 0.950 . S
H808 C813 0.950 . S
H809 C814 0.949 . S
H810 C816 0.950 . S
H811 C817 0.950 . S
H812 C818 0.949 . S
C813 H808 0.950 . S
C813 C815 1.327 . S
C813 C819 1.429 . S
C814 C806 1.574 . S
C814 H809 0.949 . S
C814 C820 1.368 . S
C815 C799 1.349 . S
C815 H807 0.950 . S
C815 C813 1.327 . S
C816 C804 1.349 . S
C816 H810 0.950 . S
C816 C817 1.327 . S
C817 H811 0.950 . S
C817 C816 1.327 . S
C817 C821 1.429 . S
C818 C801 1.574 . S
C818 H812 0.949 . S
C818 C822 1.368 . S
C819 C800 1.429 . S
C819 C813 1.429 . S
C819 C820 1.523 . S
C820 C801 1.368 . S
C820 C814 1.368 . S
C820 C819 1.523 . S
C821 C805 1.429 . S
C821 C817 1.429 . S
C821 C822 1.523 . S
C822 C806 1.368 . S
C822 C818 1.368 . S
C822 C821 1.523 . S
H823 C798 0.950 . S
H824 C800 0.950 . S
H825 C801 0.949 . S
H826 C803 0.950 . S
H827 C805 0.950 . S
C828 C829 1.349 . S
C828 C830 1.327 . S
C828 H853 0.950 . S
C829 C828 1.349 . S
C829 C845 1.349 . S
C830 C828 1.327 . S
C830 C849 1.429 . S
C830 H854 0.950 . S
C831 C848 1.574 1_455 S
C831 C850 1.368 . S
C831 H855 0.949 . S
H832 C836 0.949 . S
C833 C834 1.349 . S
C833 C835 1.327 . S
C833 H856 0.950 . S
C834 C833 1.349 . S
C834 C846 1.349 . S
C835 C833 1.327 . S
C835 C851 1.429 . S
C835 H857 0.950 . S
C836 H832 0.949 . S
C836 C844 1.574 . S
C836 C852 1.368 1_455 S
H837 C845 0.950 . S
H838 C843 0.950 . S
H839 C844 0.949 . S
H840 C846 0.950 . S
H841 C847 0.950 . S
H842 C848 0.949 . S
C843 H838 0.950 . S
C843 C845 1.327 . S
C843 C849 1.429 . S
C844 C836 1.574 . S
C844 H839 0.949 . S
C844 C850 1.368 . S
C845 C829 1.349 . S
C845 H837 0.950 . S
C845 C843 1.327 . S
C846 C834 1.349 . S
C846 H840 0.950 . S
C846 C847 1.327 . S
C847 H841 0.950 . S
C847 C846 1.327 . S
C847 C851 1.429 . S
C848 C831 1.574 1_655 S
C848 H842 0.949 . S
C848 C852 1.368 . S
C849 C830 1.429 . S
C849 C843 1.429 . S
C849 C850 1.523 . S
C850 C831 1.368 . S
C850 C844 1.368 . S
C850 C849 1.523 . S
C851 C835 1.429 . S
C851 C847 1.429 . S
C851 C852 1.523 . S
C852 C836 1.368 1_655 S
C852 C848 1.368 . S
C852 C851 1.523 . S
H853 C828 0.950 . S
H854 C830 0.950 . S
H855 C831 0.949 . S
H856 C833 0.950 . S
H857 C835 0.950 . S
C858 C859 1.349 . S
C858 C860 1.327 . S
C858 H883 0.950 . S
C859 C858 1.349 . S
C859 C875 1.349 . S
C860 C858 1.327 . S
C860 C879 1.429 . S
C860 H884 0.950 . S
C861 C878 1.574 . S
C861 C880 1.368 1_545 S
C861 H885 0.949 . S
H862 C866 0.949 . S
C863 C864 1.349 . S
C863 C865 1.327 . S
C863 H886 0.950 . S
C864 C863 1.349 . S
C864 C876 1.349 . S
C865 C863 1.327 . S
C865 C881 1.429 . S
C865 H887 0.950 . S
C866 H862 0.949 . S
C866 C874 1.574 1_545 S
C866 C882 1.368 . S
H867 C875 0.950 . S
H868 C873 0.938 1_545 S
H869 C874 0.949 . S
H870 C876 0.950 . S
H871 C877 0.950 . S
H872 C878 0.949 . S
C873 H868 0.938 1_565 S
C873 C875 1.327 . S
C873 C879 1.429 . S
C874 C866 1.574 1_565 S
C874 H869 0.949 . S
C874 C880 1.368 . S
C875 C859 1.349 . S
C875 H867 0.950 . S
C875 C873 1.327 . S
C876 C864 1.349 . S
C876 H870 0.950 . S
C876 C877 1.327 . S
C877 H871 0.950 . S
C877 C876 1.327 . S
C877 C881 1.429 . S
C878 C861 1.574 . S
C878 H872 0.949 . S
C878 C882 1.368 . S
C879 C860 1.429 . S
C879 C873 1.429 . S
C879 C880 1.523 . S
C880 C861 1.368 1_565 S
C880 C874 1.368 . S
C880 C879 1.523 . S
C881 C865 1.429 . S
C881 C877 1.429 . S
C881 C882 1.523 . S
C882 C866 1.368 . S
C882 C878 1.368 . S
C882 C881 1.523 . S
H883 C858 0.950 . S
H884 C860 0.950 . S
H885 C861 0.949 . S
H886 C863 0.950 . S
H887 C865 0.950 . S
C169 C123 1.136 . S
C174 C11 1.136 . S
C199 C25 1.136 . S
C204 C137 1.136 . S
C229 C39 1.136 . S
C234 C151 1.136 . S
C259 C53 1.136 . S
C264 C165 1.136 . S
C289 C95 1.136 . S
C294 C67 1.136 . S
C319 C81 1.136 . S
C324 C109 1.136 . S
C349 C134 0.672 . S
C354 C8 0.672 . S
C379 C22 0.673 . S
C384 C148 0.673 . S
C409 C162 0.673 . S
C414 C36 0.673 . S
C439 C50 0.672 . S
C444 C92 0.672 . S
C469 C106 0.673 . S
C474 C64 0.673 . S
C499 C120 0.673 . S
C504 C78 0.673 . S
C529 C7 1.175 . S
C534 C83 1.113 . S
C559 C21 1.175 . S
C564 C13 1.113 . S
C589 C27 1.113 . S
C594 C35 1.175 . S
C619 C49 1.175 . S
C624 C41 1.113 . S
C649 C63 1.175 . S
C654 C55 1.113 . S
C679 C77 1.175 . S
C684 C69 1.113 . S
C709 C91 1.175 . S
C714 C111 1.113 . S
C739 C105 1.175 . S
C744 C125 1.113 . S
C769 C119 1.175 . S
C774 C139 1.113 . S
C799 C133 1.175 . S
C804 C153 1.113 . S
C829 C147 1.175 . S
C834 C167 1.113 . S
C859 C97 1.113 . S
C864 C161 1.175 . S
