# Generated by pormake.
# Topology mdf, (4)-cn, num edge types: 1
# Building blocks:
#     Node 0, Type 0, BuildingBlock: GALJAG_clean_sbu_0, # of connection points: 4
#     Node 1, Type 0, BuildingBlock: GALJAG_clean_sbu_0, # of connection points: 4
#     Node 2, Type 0, BuildingBlock: GALJAG_clean_sbu_0, # of connection points: 4
#     Node 3, Type 0, BuildingBlock: GALJAG_clean_sbu_0, # of connection points: 4
#     Node 4, Type 0, BuildingBlock: GALJAG_clean_sbu_0, # of connection points: 4
#     Node 5, Type 0, BuildingBlock: GALJAG_clean_sbu_0, # of connection points: 4
#     Node 6, Type 0, BuildingBlock: GALJAG_clean_sbu_0, # of connection points: 4
#     Node 7, Type 0, BuildingBlock: GALJAG_clean_sbu_0, # of connection points: 4
#     Edge 8, Type (0, 0), BuildingBlock: TEMPAE_clean_linker_10, # of connection points: 2
#     Edge 9, Type (0, 0), BuildingBlock: TEMPAE_clean_linker_10, # of connection points: 2
#     Edge 10, Type (0, 0), BuildingBlock: TEMPAE_clean_linker_10, # of connection points: 2
#     Edge 11, Type (0, 0), BuildingBlock: TEMPAE_clean_linker_10, # of connection points: 2
#     Edge 12, Type (0, 0), BuildingBlock: TEMPAE_clean_linker_10, # of connection points: 2
#     Edge 13, Type (0, 0), BuildingBlock: TEMPAE_clean_linker_10, # of connection points: 2
#     Edge 14, Type (0, 0), BuildingBlock: TEMPAE_clean_linker_10, # of connection points: 2
#     Edge 15, Type (0, 0), BuildingBlock: TEMPAE_clean_linker_10, # of connection points: 2
#     Edge 16, Type (0, 0), BuildingBlock: TEMPAE_clean_linker_10, # of connection points: 2
#     Edge 17, Type (0, 0), BuildingBlock: TEMPAE_clean_linker_10, # of connection points: 2
#     Edge 18, Type (0, 0), BuildingBlock: TEMPAE_clean_linker_10, # of connection points: 2
#     Edge 19, Type (0, 0), BuildingBlock: TEMPAE_clean_linker_10, # of connection points: 2
#     Edge 20, Type (0, 0), BuildingBlock: TEMPAE_clean_linker_10, # of connection points: 2
#     Edge 21, Type (0, 0), BuildingBlock: TEMPAE_clean_linker_10, # of connection points: 2
#     Edge 22, Type (0, 0), BuildingBlock: TEMPAE_clean_linker_10, # of connection points: 2
#     Edge 23, Type (0, 0), BuildingBlock: TEMPAE_clean_linker_10, # of connection points: 2
# Relax obj value: 0.054
# Max RMSD: 0.086
# Mean RMSD: 0.086
data_MOF--net-mdf--node1-GALJAG_clean_sbu_0--edge1-TEMPAE_clean_linker_10
_symmetry_space_group_name_H-M    P1
_symmetry_Int_Tables_number       1
_symmetry_cell_setting            triclinic
loop_
_symmetry_equiv_pos_as_xyz
'x, y, z'
_cell_length_a     39.590702
_cell_length_b     39.596678
_cell_length_c     10.902457
_cell_angle_alpha  90.219516
_cell_angle_beta   90.174748
_cell_angle_gamma 90.009834
loop_
_atom_site_label
_atom_site_type_symbol
_atom_site_fract_x
_atom_site_fract_y
_atom_site_fract_z
_atom_type_partial_charge
In0 In 0.25185 0.51665 0.38317 0.0
O1 O 0.28303 0.52484 0.2105 0.0
O2 O 0.2545 0.56624 0.27777 0.0
C3 C 0.20999 0.47101 0.27812 0.0
C4 C 0.30223 0.4837 0.49894 0.0
C5 C 0.22057 0.55294 0.55904 0.0
O6 O 0.2038 0.50227 0.27719 0.0
O7 O 0.23785 0.46324 0.32626 0.0
O8 O 0.20678 0.52868 0.50322 0.0
O9 O 0.25082 0.55841 0.52917 0.0
C10 C 0.27528 0.55556 0.19943 0.0
O11 O 0.27146 0.47745 0.51788 0.0
O12 O 0.30757 0.50793 0.42685 0.0
In13 In 0.47822 0.74661 0.63286 0.0
O14 O 0.45242 0.72971 0.81028 0.0
O15 O 0.43488 0.71009 0.63878 0.0
C16 C 0.52389 0.79531 0.67477 0.0
C17 C 0.5218 0.69648 0.58585 0.0
C18 C 0.4347 0.78582 0.51141 0.0
O19 O 0.50397 0.78536 0.75817 0.0
O20 O 0.52063 0.78058 0.57239 0.0
O21 O 0.45101 0.76256 0.45738 0.0
O22 O 0.44095 0.78917 0.62442 0.0
C23 C 0.4315 0.71095 0.75374 0.0
O24 O 0.50233 0.70804 0.50351 0.0
O25 O 0.51882 0.71002 0.69039 0.0
In26 In 0.24846 0.98094 0.88613 0.0
O27 O 0.25174 0.94726 0.05653 0.0
O28 O 0.29707 0.96034 0.96419 0.0
C29 C 0.19242 0.01359 0.96184 0.0
C30 C 0.29198 0.02862 0.80882 0.0
C31 C 0.22646 0.93636 0.71758 0.0
O32 O 0.21915 0.01288 0.02526 0.0
O33 O 0.19379 0.99721 0.86281 0.0
O34 O 0.23021 0.96733 0.69372 0.0
O35 O 0.23469 0.92791 0.82495 0.0
C36 C 0.28346 0.94434 0.0505 0.0
O37 O 0.29068 -0.00042 0.76085 0.0
O38 O 0.27064 0.03382 0.89228 0.0
In39 In 0.02208 0.74956 0.1319 0.0
O40 O -0.00051 0.71093 0.26348 0.0
O41 O 0.97773 0.71603 0.08481 0.0
C42 C 0.06754 0.78564 0.2588 0.0
C43 C 0.06546 0.70978 0.01078 0.0
C44 C 0.97988 0.79999 0.07284 0.0
O45 O 0.04413 0.76964 0.31219 0.0
O46 O 0.06732 0.78374 0.1434 0.0
O47 O 0.0009 0.7883 0.99622 0.0
O48 O 0.98056 0.78641 0.17735 0.0
C49 C 0.97719 0.70136 0.18741 0.0
O50 O 0.04693 0.73088 0.95485 0.0
O51 O 0.06122 0.70857 0.1253 0.0
In52 In 0.75126 0.0183 0.85866 0.0
O53 O 0.76943 0.04329 0.68185 0.0
O54 O 0.78566 0.06342 0.85472 0.0
C55 C 0.70246 0.97338 0.80575 0.0
C56 C 0.80344 0.97678 0.90279 0.0
C57 C 0.71314 0.06054 0.99054 0.0
O58 O 0.71144 0.99556 0.72888 0.0
O59 O 0.71801 0.9742 0.90688 0.0
O60 O 0.73136 0.03832 0.04171 0.0
O61 O 0.71394 0.06082 0.87489 0.0
C62 C 0.78626 0.06561 0.73932 0.0
O63 O 0.79197 0.99637 0.98493 0.0
O64 O 0.7887 0.97852 0.80017 0.0
In65 In 0.98141 0.24756 0.13455 0.0
O66 O 0.96541 0.2364 0.33172 0.0
O67 O 0.92948 0.22911 0.18803 0.0
C68 C 0.0316 0.29271 0.16664 0.0
C69 C 0.01466 0.18983 0.08298 0.0
C70 C 0.94054 0.28219 0.98459 0.0
O71 O 0.01025 0.28667 0.24981 0.0
O72 O 0.02789 0.27549 0.07011 0.0
O73 O 0.94772 0.2515 0.9647 0.0
O74 O 0.95403 0.29497 0.07898 0.0
C75 C 0.93594 0.22728 0.30107 0.0
O76 O 0.00587 0.21027 0.00017 0.0
O77 O 0.00619 0.19827 0.18994 0.0
In78 In 0.75121 0.47827 0.37162 0.0
O79 O 0.76339 0.44989 0.54923 0.0
O80 O 0.79104 0.43796 0.38739 0.0
C81 C 0.7022 0.52276 0.4243 0.0
C82 C 0.80113 0.52283 0.33437 0.0
C83 C 0.71524 0.43679 0.22654 0.0
O84 O 0.7114 0.50041 0.50021 0.0
O85 O 0.7178 0.52257 0.32343 0.0
O86 O 0.74026 0.45317 0.18599 0.0
O87 O 0.70862 0.44174 0.33815 0.0
C88 C 0.7862 0.43215 0.49952 0.0
O89 O 0.7895 0.50455 0.24849 0.0
O90 O 0.78754 0.51848 0.43782 0.0
In91 In 0.51854 0.24978 0.60366 0.0
O92 O 0.49494 0.21027 0.73075 0.0
O93 O 0.47621 0.21495 0.54821 0.0
C94 C 0.56425 0.2844 0.73257 0.0
C95 C 0.56157 0.21828 0.45257 0.0
C96 C 0.47583 0.30196 0.5861 0.0
O97 O 0.55046 0.25806 0.77541 0.0
O98 O 0.55506 0.2927 0.62575 0.0
O99 O 0.49055 0.28982 0.4927 0.0
O100 O 0.4824 0.28742 0.68626 0.0
C101 C 0.4741 0.20022 0.65014 0.0
O102 O 0.5374 0.23589 0.41153 0.0
O103 O 0.56371 0.21675 0.56771 0.0
C104 C 0.37967 0.67541 0.74478 0.0
C105 C 0.40501 0.69104 0.81526 0.0
C106 C 0.35521 0.65482 0.79938 0.0
C107 C 0.35643 0.64939 0.92737 0.0
C108 C 0.38133 0.66591 -0.00038 0.0
C109 C 0.40527 0.68673 0.94262 0.0
C110 C 0.32873 0.63809 0.71961 0.0
C111 C 0.38338 0.66065 0.13654 0.0
C112 C 0.28248 0.61194 0.10102 0.0
C113 C 0.29297 0.57833 0.11428 0.0
C114 C 0.30218 0.63519 0.03576 0.0
C115 C 0.33326 0.62457 0.98463 0.0
C116 C 0.34309 0.59027 0.99273 0.0
C117 C 0.32267 0.5675 0.05679 0.0
C118 C 0.29041 0.67134 0.0259 0.0
C119 C 0.37597 0.57793 0.93873 0.0
H120 H 0.37912 0.67897 0.64625 0.0
H121 H 0.42474 0.69888 0.99729 0.0
H122 H 0.33302 0.61041 0.71759 0.0
H123 H 0.30316 0.64235 0.75801 0.0
H124 H 0.32919 0.64759 0.62387 0.0
H125 H 0.40314 0.67661 0.18028 0.0
H126 H 0.35871 0.6665 0.17966 0.0
H127 H 0.38912 0.63376 0.15604 0.0
H128 H 0.25937 0.62032 0.1447 0.0
H129 H 0.33086 0.54153 0.06684 0.0
H130 H 0.29201 0.68013 0.92959 0.0
H131 H 0.30713 0.68785 0.08181 0.0
H132 H 0.26402 0.67459 0.05825 0.0
H133 H 0.37734 0.58447 0.84005 0.0
H134 H 0.37915 0.55018 0.94817 0.0
H135 H 0.39745 0.59064 0.98544 0.0
C136 C 0.39712 0.83611 0.51054 0.0
C137 C 0.40997 0.80772 0.44907 0.0
C138 C 0.37419 0.85787 0.45311 0.0
C139 C 0.36361 0.85085 0.3317 0.0
C140 C 0.37562 0.82161 0.27048 0.0
C141 C 0.39892 0.80046 0.32974 0.0
C142 C 0.36215 0.88894 0.52092 0.0
C143 C 0.36443 0.81311 0.14151 0.0
C144 C 0.28752 0.89743 0.20283 0.0
C145 C 0.30331 0.92207 0.13107 0.0
C146 C 0.30676 0.87409 0.27 0.0
C147 C 0.34249 0.87572 0.26511 0.0
C148 C 0.35843 0.9013 0.19593 0.0
C149 C 0.33863 0.92405 0.12931 0.0
C150 C 0.28886 0.8471 0.34253 0.0
C151 C 0.39645 0.90438 0.19081 0.0
H152 H 0.40551 0.84176 0.60312 0.0
H153 H 0.40854 0.77832 0.2826 0.0
H154 H 0.3712 0.91193 0.47329 0.0
H155 H 0.33414 0.88991 0.52124 0.0
H156 H 0.37131 0.88973 0.61731 0.0
H157 H 0.37391 0.78808 0.11065 0.0
H158 H 0.33644 0.81313 0.13562 0.0
H159 H 0.37379 0.83263 0.07727 0.0
H160 H 0.26018 0.89575 0.20364 0.0
H161 H 0.3509 0.94322 0.07439 0.0
H162 H 0.30005 0.84461 0.43545 0.0
H163 H 0.29189 0.82242 0.2953 0.0
H164 H 0.26144 0.85244 0.35209 0.0
H165 H 0.40695 0.9068 0.2849 0.0
H166 H 0.40478 0.92649 0.13626 0.0
H167 H 0.40742 0.88122 0.14944 0.0
C168 C 0.12475 0.8112 0.26797 0.0
C169 C 0.09356 0.80517 0.32443 0.0
C170 C 0.14953 0.8309 0.32582 0.0
C171 C 0.14256 0.84547 0.44156 0.0
C172 C 0.11118 0.83918 0.49953 0.0
C173 C 0.08715 0.81866 0.44074 0.0
C174 C 0.18314 0.83604 0.26333 0.0
C175 C 0.10264 0.85487 0.62207 0.0
C176 C 0.21102 0.87787 0.65468 0.0
C177 C 0.20933 0.91271 0.63356 0.0
C178 C 0.19063 0.85537 0.58808 0.0
C179 C 0.16755 0.86823 0.50066 0.0
C180 C 0.16693 0.90326 0.47493 0.0
C181 C 0.18815 0.92509 0.54099 0.0
C182 C 0.19273 0.81806 0.6151 0.0
C183 C 0.14255 0.91789 0.38247 0.0
H184 H 0.12984 0.80034 0.17846 0.0
H185 H 0.06296 0.81405 0.48395 0.0
H186 H 0.18869 0.86337 0.25377 0.0
H187 H 0.20354 0.825 0.32044 0.0
H188 H 0.18398 0.82412 0.17099 0.0
H189 H 0.07712 0.84749 0.65453 0.0
H190 H 0.1215 0.84718 0.69202 0.0
H191 H 0.1037 0.88281 0.61515 0.0
H192 H 0.22762 0.86828 0.72575 0.0
H193 H 0.18677 0.95206 0.52487 0.0
H194 H 0.19495 0.80338 0.5286 0.0
H195 H 0.16926 0.80971 0.66127 0.0
H196 H 0.21456 0.81184 0.6752 0.0
H197 H 0.14538 0.90501 0.29258 0.0
H198 H 0.14636 0.94543 0.36918 0.0
H199 H 0.11624 0.91361 0.41364 0.0
C200 C 0.11168 0.66724 0.01968 0.0
C201 C 0.09085 0.68837 0.94928 0.0
C202 C 0.13556 0.6461 0.96414 0.0
C203 C 0.13859 0.64601 0.83501 0.0
C204 C 0.11825 0.66791 0.76349 0.0
C205 C 0.09456 0.68889 0.82164 0.0
C206 C 0.15684 0.62315 0.04342 0.0
C207 C 0.1209 0.66852 0.62538 0.0
C208 C 0.21489 0.60615 0.68146 0.0
C209 C 0.2014 0.57518 0.64226 0.0
C210 C 0.195 0.62933 0.74704 0.0
C211 C 0.16101 0.62111 0.77403 0.0
C212 C 0.14786 0.58921 0.73959 0.0
C213 C 0.1682 0.56667 0.67383 0.0
C214 C 0.20995 0.663 0.78345 0.0
C215 C 0.11193 0.57926 0.76884 0.0
H216 H 0.10912 0.66694 0.11864 0.0
H217 H 0.07867 0.70535 0.76708 0.0
H218 H 0.15033 0.59641 0.02381 0.0
H219 H 0.18402 0.62641 0.022 0.0
H220 H 0.15306 0.628 0.14287 0.0
H221 H 0.10487 0.68849 0.58381 0.0
H222 H 0.1475 0.67277 0.59758 0.0
H223 H 0.11303 0.64371 0.58718 0.0
H224 H 0.24058 0.61277 0.65723 0.0
H225 H 0.15777 0.54265 0.64437 0.0
H226 H 0.20638 0.66759 0.88299 0.0
H227 H 0.19665 0.68353 0.73393 0.0
H228 H 0.23735 0.66459 0.76245 0.0
H229 H 0.10721 0.5819 0.86866 0.0
H230 H 0.10618 0.55286 0.74094 0.0
H231 H 0.09412 0.59638 0.72086 0.0
C232 C 0.81021 0.12358 0.73854 0.0
C233 C 0.80534 0.09261 0.67828 0.0
C234 C 0.8297 0.1492 0.68555 0.0
C235 C 0.84538 0.14324 0.57114 0.0
C236 C 0.84031 0.11202 0.50949 0.0
C237 C 0.81985 0.08721 0.56313 0.0
C238 C 0.83326 0.18265 0.7514 0.0
C239 C 0.85723 0.10448 0.38847 0.0
C240 C 0.87749 0.21201 0.36158 0.0
C241 C 0.91222 0.21111 0.38615 0.0
C242 C 0.85498 0.19168 0.42738 0.0
C243 C 0.86781 0.16917 0.51657 0.0
C244 C 0.90268 0.16954 0.54618 0.0
C245 C 0.92447 0.19095 0.48154 0.0
C246 C 0.81778 0.19305 0.39691 0.0
C247 C 0.91733 0.14572 0.64021 0.0
H248 H 0.79854 0.12786 0.82712 0.0
H249 H 0.81618 0.06316 0.51711 0.0
H250 H 0.86026 0.18966 0.76146 0.0
H251 H 0.82095 0.20271 0.69632 0.0
H252 H 0.82151 0.18233 0.84379 0.0
H253 H 0.85117 0.07876 0.35369 0.0
H254 H 0.84923 0.12317 0.31867 0.0
H255 H 0.88504 0.1067 0.39881 0.0
H256 H 0.86805 0.22788 0.28821 0.0
H257 H 0.9514 0.19016 0.49985 0.0
H258 H 0.80255 0.19433 0.48205 0.0
H259 H 0.81031 0.16973 0.34712 0.0
H260 H 0.8114 0.21512 0.33864 0.0
H261 H 0.90352 0.148 0.7282 0.0
H262 H 0.94458 0.15056 0.65763 0.0
H263 H 0.91435 0.11929 0.60765 0.0
C264 C 0.91811 0.33713 0.91278 0.0
C265 C 0.91748 0.30181 0.90635 0.0
C266 C 0.89574 0.35659 0.84313 0.0
C267 C 0.87167 0.34029 0.76712 0.0
C268 C 0.87101 0.30456 0.75954 0.0
C269 C 0.89418 0.28567 0.82896 0.0
C270 C 0.8979 0.39465 0.851 0.0
C271 C 0.84538 0.28622 0.68104 0.0
C272 C 0.79748 0.3964 0.68404 0.0
C273 C 0.80663 0.40706 0.5664 0.0
C274 C 0.81763 0.37325 0.74853 0.0
C275 C 0.84779 0.36108 0.69448 0.0
C276 C 0.85674 0.37131 0.57479 0.0
C277 C 0.83588 0.39396 0.51182 0.0
C278 C 0.80693 0.3621 0.87487 0.0
C279 C 0.88901 0.35936 0.51504 0.0
H280 H 0.9363 0.34962 0.97208 0.0
H281 H 0.89352 0.25831 0.82486 0.0
H282 H 0.90165 0.4054 0.75817 0.0
H283 H 0.87388 0.40505 0.8872 0.0
H284 H 0.91889 0.40331 0.91123 0.0
H285 H 0.8518 0.25908 0.66934 0.0
H286 H 0.8202 0.28805 0.72504 0.0
H287 H 0.84328 0.29788 0.58901 0.0
H288 H 0.7747 0.40627 0.72579 0.0
H289 H 0.84304 0.40213 0.42073 0.0
H290 H 0.82736 0.367 0.94249 0.0
H291 H 0.80221 0.33447 0.87408 0.0
H292 H 0.78373 0.37518 0.90654 0.0
H293 H 0.91105 0.36834 0.56922 0.0
H294 H 0.89159 0.36864 0.41949 0.0
H295 H 0.88999 0.33136 0.51375 0.0
C296 C 0.70756 0.40001 0.04143 0.0
C297 C 0.69491 0.41346 0.15105 0.0
C298 C 0.68827 0.37716 0.97154 0.0
C299 C 0.65554 0.36808 0.01202 0.0
C300 C 0.64268 0.3818 0.12238 0.0
C301 C 0.66267 0.40405 0.19114 0.0
C302 C 0.70313 0.3624 0.85576 0.0
C303 C 0.60747 0.37361 0.16646 0.0
C304 C 0.59109 0.3396 0.77691 0.0
C305 C 0.58842 0.30508 0.80254 0.0
C306 C 0.61314 0.36029 0.84374 0.0
C307 C 0.63371 0.34585 0.936 0.0
C308 C 0.63191 0.31074 0.95969 0.0
C309 C 0.60877 0.29077 0.89381 0.0
C310 C 0.61392 0.39772 0.81729 0.0
C311 C 0.65428 0.29436 0.05474 0.0
H312 H 0.73267 0.40699 0.01123 0.0
H313 H 0.6528 0.41456 0.27573 0.0
H314 H 0.71032 0.33573 0.87268 0.0
H315 H 0.68448 0.3625 0.77966 0.0
H316 H 0.7259 0.37639 0.82567 0.0
H317 H 0.60133 0.38643 0.25441 0.0
H318 H 0.58866 0.38141 0.09639 0.0
H319 H 0.6047 0.34598 0.17923 0.0
H320 H 0.57521 0.35065 0.70645 0.0
H321 H 0.6069 0.26396 0.91242 0.0
H322 H 0.63979 0.40548 0.79052 0.0
H323 H 0.60722 0.41213 0.90127 0.0
H324 H 0.59616 0.40491 0.74275 0.0
H325 H 0.68113 0.30055 0.03633 0.0
H326 H 0.65138 0.26645 0.05617 0.0
H327 H 0.64817 0.30442 0.14712 0.0
C328 C 0.67553 0.07563 0.16509 0.0
C329 C 0.69273 0.08514 0.05892 0.0
C330 C 0.65404 0.09851 0.22501 0.0
C331 C 0.65088 0.1319 0.17982 0.0
C332 C 0.66919 0.14186 0.07479 0.0
C333 C 0.68942 0.11809 0.01414 0.0
C334 C 0.63421 0.08677 0.33499 0.0
C335 C 0.66756 0.17759 0.02696 0.0
C336 C 0.57333 0.18262 0.26917 0.0
C337 C 0.58503 0.19941 0.37406 0.0
C338 C 0.59461 0.16062 0.20413 0.0
C339 C 0.62854 0.15644 0.24307 0.0
C340 C 0.64087 0.17492 0.34512 0.0
C341 C 0.61872 0.1957 0.41092 0.0
C342 C 0.58038 0.14072 0.09744 0.0
C343 C 0.67722 0.1722 0.3864 0.0
H344 H 0.67799 0.05 0.19864 0.0
H345 H 0.70305 0.1254 0.93227 0.0
H346 H 0.64132 0.10185 0.417 0.0
H347 H 0.60681 0.09077 0.31879 0.0
H348 H 0.63852 0.05964 0.35541 0.0
H349 H 0.68462 0.18158 0.94759 0.0
H350 H 0.64139 0.18374 0.99825 0.0
H351 H 0.6746 0.19567 0.10078 0.0
H352 H 0.54711 0.18533 0.2419 0.0
H353 H 0.62768 0.20895 0.49199 0.0
H354 H 0.58196 0.1133 0.11753 0.0
H355 H 0.59548 0.14532 0.01368 0.0
H356 H 0.55362 0.14726 0.07788 0.0
H357 H 0.68224 0.14642 0.42145 0.0
H358 H 0.68349 0.19067 0.45998 0.0
H359 H 0.69444 0.17643 0.30779 0.0
C360 C 0.36335 0.46937 0.52094 0.0
C361 C 0.3294 0.46077 0.53929 0.0
C362 C 0.38907 0.44545 0.53821 0.0
C363 C 0.38044 0.41208 0.57222 0.0
C364 C 0.34635 0.40378 0.59674 0.0
C365 C 0.32126 0.42836 0.58113 0.0
C366 C 0.42525 0.45545 0.51453 0.0
C367 C 0.3361 0.3684 0.63225 0.0
C368 C 0.43716 0.3401 0.46992 0.0
C369 C 0.45276 0.33113 0.58042 0.0
C370 C 0.41381 0.36673 0.46576 0.0
C371 C 0.40658 0.3852 0.5742 0.0
C372 C 0.42319 0.37694 0.6851 0.0
C373 C 0.44582 0.34971 0.68716 0.0
C374 C 0.39617 0.37449 0.34612 0.0
C375 C 0.41673 0.39654 0.80179 0.0
H376 H 0.36972 0.49447 0.48902 0.0
H377 H 0.29502 0.42156 0.59498 0.0
H378 H 0.44177 0.44702 0.5909 0.0
H379 H 0.43432 0.44287 0.42972 0.0
H380 H 0.42813 0.48318 0.5034 0.0
H381 H 0.30882 0.36659 0.65489 0.0
H382 H 0.34153 0.35079 0.55535 0.0
H383 H 0.35099 0.35976 0.71252 0.0
H384 H 0.44249 0.32568 0.38748 0.0
H385 H 0.45817 0.34301 0.77255 0.0
H386 H 0.40054 0.4012 0.32039 0.0
H387 H 0.36851 0.3711 0.35687 0.0
H388 H 0.40494 0.35802 0.2699 0.0
H389 H 0.42057 0.42393 0.78586 0.0
H390 H 0.43351 0.38843 0.87806 0.0
H391 H 0.39012 0.39309 0.83067 0.0
C392 C 0.65006 0.95411 0.6966 0.0
C393 C 0.67597 0.94798 0.78136 0.0
C394 C 0.62398 0.93045 0.67869 0.0
C395 C 0.62451 0.89965 0.74465 0.0
C396 C 0.65105 0.89319 0.82856 0.0
C397 C 0.67618 0.91762 0.84704 0.0
C398 C 0.5957 0.93851 0.59041 0.0
C399 C 0.65309 0.86033 0.89815 0.0
C400 C 0.54551 0.84625 0.78691 0.0
C401 C 0.5493 0.82215 0.69361 0.0
C402 C 0.56926 0.87235 0.8022 0.0
C403 C 0.59785 0.8737 0.72441 0.0
C404 C 0.60183 0.84922 0.63065 0.0
C405 C 0.57729 0.82401 0.61547 0.0
C406 C 0.5638 0.89842 0.90155 0.0
C407 C 0.63238 0.84922 0.54796 0.0
H408 H 0.64974 0.97772 0.6466 0.0
H409 H 0.69634 0.91275 0.91216 0.0
H410 H 0.59503 0.91954 0.51533 0.0
H411 H 0.57106 0.93716 0.63847 0.0
H412 H 0.5984 0.96401 0.54942 0.0
H413 H 0.67584 0.85895 0.95782 0.0
H414 H 0.63036 0.8572 0.95622 0.0
H415 H 0.65364 0.83878 0.83281 0.0
H416 H 0.52369 0.84503 0.84661 0.0
H417 H 0.58034 0.8053 0.54349 0.0
H418 H 0.56464 0.92417 0.8618 0.0
H419 H 0.58438 0.89684 0.97056 0.0
H420 H 0.53926 0.89505 0.94908 0.0
H421 H 0.63423 0.87361 0.49877 0.0
H422 H 0.6316 0.82846 0.47917 0.0
H423 H 0.6557 0.84649 0.60384 0.0
C424 C 0.05747 0.15906 0.95834 0.0
C425 C 0.03588 0.15995 0.05972 0.0
C426 C 0.0812 0.13301 0.94475 0.0
C427 C 0.08265 0.10688 0.03307 0.0
C428 C 0.05959 0.10673 0.13192 0.0
C429 C 0.03676 0.13357 0.14502 0.0
C430 C 0.10577 0.13434 0.83917 0.0
C431 C 0.0597 0.07879 0.22581 0.0
C432 C 0.13184 0.02911 0.93604 0.0
C433 C 0.16312 0.03488 0.99295 0.0
C434 C 0.10483 0.05156 0.95275 0.0
C435 C 0.1096 0.08085 0.02548 0.0
C436 C 0.14085 0.08623 0.08618 0.0
C437 C 0.16715 0.0629 0.0703 0.0
C438 C 0.07157 0.04448 0.88954 0.0
C439 C 0.14705 0.11743 0.16314 0.0
H440 H 0.05694 0.1796 0.89288 0.0
H441 H 0.01988 0.13417 0.22315 0.0
H442 H 0.13191 0.13681 0.87516 0.0
H443 H 0.10462 0.11055 0.78533 0.0
H444 H 0.10065 0.15583 0.77661 0.0
H445 H 0.03791 0.08059 0.28948 0.0
H446 H 0.05903 0.05378 0.17957 0.0
H447 H 0.08333 0.07993 0.28057 0.0
H448 H 0.12867 0.00731 0.87663 0.0
H449 H 0.19141 0.0675 0.11366 0.0
H450 H 0.06714 0.0635 0.81681 0.0
H451 H 0.05046 0.0466 0.95582 0.0
H452 H 0.0709 0.01895 0.84694 0.0
H453 H 0.14491 0.14025 0.10483 0.0
H454 H 0.17241 0.11732 0.20703 0.0
H455 H 0.12766 0.11958 0.23592 0.0
C456 C 0.91975 0.6771 0.16322 0.0
C457 C 0.95208 0.67507 0.21498 0.0
C458 C 0.89551 0.6521 0.18574 0.0
C459 C 0.90429 0.62381 0.25815 0.0
C460 C 0.93712 0.62149 0.30964 0.0
C461 C 0.96051 0.64754 0.28917 0.0
C462 C 0.86046 0.65607 0.13258 0.0
C463 C 0.94769 0.59123 0.38433 0.0
C464 C 0.83304 0.57382 0.40218 0.0
C465 C 0.82816 0.54795 0.31584 0.0
C466 C 0.85792 0.59855 0.38503 0.0
C467 C 0.87891 0.59687 0.28035 0.0
C468 C 0.87464 0.57029 0.19434 0.0
C469 C 0.84899 0.54633 0.21238 0.0
C470 C 0.86115 0.62693 0.47731 0.0
C471 C 0.89702 0.56728 0.08293 0.0
H472 H 0.91325 0.69858 0.10644 0.0
H473 H 0.98569 0.64591 0.32804 0.0
H474 H 0.85496 0.635 0.06828 0.0
H475 H 0.8414 0.65496 0.20691 0.0
H476 H 0.85734 0.68029 0.08269 0.0
H477 H 0.9744 0.5929 0.41531 0.0
H478 H 0.93129 0.5888 0.46612 0.0
H479 H 0.94449 0.56784 0.32908 0.0
H480 H 0.81685 0.5752 0.48209 0.0
H481 H 0.84541 0.52617 0.14602 0.0
H482 H 0.85655 0.65149 0.43146 0.0
H483 H 0.88714 0.6277 0.51537 0.0
H484 H 0.84307 0.62434 0.55444 0.0
H485 H 0.89304 0.5893 0.02201 0.0
H486 H 0.89195 0.54387 0.02952 0.0
H487 H 0.92398 0.56745 0.11114 0.0
C488 C 0.31563 0.0868 0.82211 0.0
C489 C 0.31819 0.05363 0.77795 0.0
C490 C 0.34138 0.11035 0.80109 0.0
C491 C 0.37057 0.10029 0.73579 0.0
C492 C 0.37321 0.06685 0.69036 0.0
C493 C 0.34682 0.04394 0.71125 0.0
C494 C 0.3374 0.14597 0.84903 0.0
C495 C 0.40409 0.05518 0.6212 0.0
C496 C 0.42256 0.16887 0.58581 0.0
C497 C 0.44837 0.17399 0.67231 0.0
C498 C 0.39722 0.14482 0.60509 0.0
C499 C 0.39795 0.12508 0.71284 0.0
C500 C 0.42426 0.12969 0.79976 0.0
C501 C 0.4491 0.15434 0.77882 0.0
C502 C 0.36935 0.14095 0.51107 0.0
C503 C 0.42602 0.10875 0.91502 0.0
H504 H 0.2935 0.09436 0.8737 0.0
H505 H 0.34897 0.0182 0.67791 0.0
H506 H 0.35815 0.15197 0.91416 0.0
H507 H 0.33915 0.16419 0.77224 0.0
H508 H 0.3129 0.14983 0.8965 0.0
H509 H 0.40238 0.02822 0.59333 0.0
H510 H 0.40756 0.07073 0.53777 0.0
H511 H 0.42695 0.05863 0.67907 0.0
H512 H 0.42182 0.1841 0.5034 0.0
H513 H 0.46911 0.15815 0.84555 0.0
H514 H 0.34457 0.14643 0.55407 0.0
H515 H 0.36844 0.11455 0.47688 0.0
H516 H 0.37269 0.15807 0.43151 0.0
H517 H 0.40332 0.11346 0.97202 0.0
H518 H 0.44885 0.11449 0.9708 0.0
H519 H 0.42613 0.08149 0.89115 0.0
C520 C 0.85391 0.95726 0.02199 0.0
C521 C 0.83123 0.95266 0.92454 0.0
C522 C 0.88013 0.93403 0.04286 0.0
C523 C 0.88301 0.90513 0.96647 0.0
C524 C 0.86019 0.90052 0.86766 0.0
C525 C 0.83486 0.92457 0.84701 0.0
C526 C 0.90449 0.94018 0.14736 0.0
C527 C 0.86181 0.86963 0.78611 0.0
C528 C 0.96326 0.85219 0.95892 0.0
C529 C 0.95544 0.82685 0.04343 0.0
C530 C 0.94028 0.87847 0.93516 0.0
C531 C 0.90843 0.87856 0.99428 0.0
C532 C 0.90032 0.85258 0.07802 0.0
C533 C 0.92416 0.82737 0.10304 0.0
C534 C 0.95014 0.90625 0.84787 0.0
C535 C 0.86626 0.85111 0.13993 0.0
H536 H 0.8513 0.97913 0.08134 0.0
H537 H 0.81724 0.92088 0.77182 0.0
H538 H 0.90135 0.92034 0.21796 0.0
H539 H 0.93089 0.93863 0.11392 0.0
H540 H 0.9006 0.96522 0.19141 0.0
H541 H 0.84259 0.87021 0.71169 0.0
H542 H 0.88718 0.86743 0.74399 0.0
H543 H 0.85773 0.8466 0.84181 0.0
H544 H 0.98761 0.8519 0.91375 0.0
H545 H 0.91805 0.80759 0.16782 0.0
H546 H 0.94793 0.93114 0.89427 0.0
H547 H 0.93269 0.90652 0.76813 0.0
H548 H 0.97638 0.90327 0.81366 0.0
H549 H 0.86224 0.87418 0.19596 0.0
H550 H 0.86368 0.82872 0.20028 0.0
H551 H 0.84591 0.85026 0.06974 0.0
C552 C 0.07754 0.32741 0.07524 0.0
C553 C 0.05803 0.31889 0.17778 0.0
C554 C 0.10226 0.3527 0.08233 0.0
C555 C 0.1078 0.36965 0.19502 0.0
C556 C 0.0882 0.36114 0.29899 0.0
C557 C 0.0634 0.33592 0.28896 0.0
C558 C 0.12249 0.36124 0.96935 0.0
C559 C 0.09361 0.37853 0.42101 0.0
C560 C 0.19261 0.41084 0.2567 0.0
C561 C 0.18498 0.44516 0.24158 0.0
C562 C 0.16787 0.38596 0.23924 0.0
C563 C 0.13475 0.39563 0.20525 0.0
C564 C 0.12724 0.43013 0.18481 0.0
C565 C 0.15249 0.45455 0.20346 0.0
C566 C 0.17689 0.34942 0.26153 0.0
C567 C 0.09227 0.44133 0.14721 0.0
H568 H 0.07334 0.31446 0.98875 0.0
H569 H 0.04832 0.32943 0.3683 0.0
H570 H 0.11986 0.38848 0.94799 0.0
H571 H 0.14969 0.35635 0.98642 0.0
H572 H 0.11441 0.34633 0.88786 0.0
H573 H 0.07605 0.3692 0.49262 0.0
H574 H 0.11993 0.37441 0.45288 0.0
H575 H 0.09002 0.40616 0.41096 0.0
H576 H 0.2177 0.40344 0.2862 0.0
H577 H 0.14648 0.48105 0.19184 0.0
H578 H 0.17038 0.33387 0.17997 0.0
H579 H 0.16198 0.33958 0.33965 0.0
H580 H 0.20415 0.34599 0.2824 0.0
H581 H 0.08384 0.42718 0.0646 0.0
H582 H 0.09113 0.4688 0.12728 0.0
H583 H 0.07412 0.43565 0.22167 0.0
C584 C 0.57543 0.66727 0.63904 0.0
C585 C 0.54709 0.66989 0.56232 0.0
C586 C 0.60032 0.6428 0.61765 0.0
C587 C 0.59629 0.61979 0.51905 0.0
C588 C 0.56731 0.62184 0.44277 0.0
C589 C 0.54324 0.64725 0.46428 0.0
C590 C 0.63127 0.64206 0.699 0.0
C591 C 0.56178 0.59723 0.33855 0.0
C592 C 0.67481 0.57837 0.3884 0.0
C593 C 0.67519 0.54739 0.45002 0.0
C594 C 0.64934 0.6022 0.41045 0.0
C595 C 0.62307 0.59441 0.4935 0.0
C596 C 0.62304 0.56288 0.55457 0.0
C597 C 0.64945 0.5399 0.53343 0.0
C598 C 0.65083 0.63591 0.34625 0.0
C599 C 0.59503 0.55337 0.64151 0.0
H600 H 0.57856 0.68493 0.71449 0.0
H601 H 0.52119 0.64913 0.40548 0.0
H602 H 0.63357 0.61708 0.74387 0.0
H603 H 0.65429 0.64575 0.64277 0.0
H604 H 0.63061 0.66189 0.77132 0.0
H605 H 0.53702 0.601 0.29239 0.0
H606 H 0.58208 0.60008 0.26948 0.0
H607 H 0.56306 0.57093 0.37315 0.0
H608 H 0.69484 0.58424 0.32429 0.0
H609 H 0.64959 0.51578 0.58018 0.0
H610 H 0.65159 0.65661 0.41509 0.0
H611 H 0.62779 0.63961 0.28979 0.0
H612 H 0.67327 0.63818 0.28593 0.0
H613 H 0.59463 0.5711 0.72051 0.0
H614 H 0.59787 0.52726 0.67697 0.0
H615 H 0.57023 0.55547 0.59443 0.0
loop_
_geom_bond_atom_site_label_1
_geom_bond_atom_site_label_2
_geom_bond_distance
_geom_bond_site_symmetry_2
_ccdc_geom_bond_type
In0 O1 2.294 . S
In0 O2 2.326 . S
In0 O6 2.266 . S
In0 O7 2.326 . S
In0 O8 2.266 . S
In0 O9 2.326 . S
In0 O11 2.294 . S
In0 O12 2.326 . S
O1 In0 2.294 . S
O1 C10 1.240 . S
O2 In0 2.326 . S
O2 C10 1.252 . S
C3 O6 1.252 . S
C3 O7 1.260 . S
C4 O11 1.240 . S
C4 O12 1.252 . S
C5 O8 1.252 . S
C5 O9 1.260 . S
O6 In0 2.266 . S
O6 C3 1.252 . S
O7 In0 2.326 . S
O7 C3 1.260 . S
O8 In0 2.266 . S
O8 C5 1.252 . S
O9 In0 2.326 . S
O9 C5 1.260 . S
C10 O1 1.240 . S
C10 O2 1.252 . S
O11 In0 2.294 . S
O11 C4 1.240 . S
O12 In0 2.326 . S
O12 C4 1.252 . S
In13 O14 2.294 . S
In13 O15 2.326 . S
In13 O19 2.266 . S
In13 O20 2.326 . S
In13 O21 2.266 . S
In13 O22 2.326 . S
In13 O24 2.294 . S
In13 O25 2.326 . S
O14 In13 2.294 . S
O14 C23 1.240 . S
O15 In13 2.326 . S
O15 C23 1.252 . S
C16 O19 1.252 . S
C16 O20 1.260 . S
C17 O24 1.240 . S
C17 O25 1.252 . S
C18 O21 1.252 . S
C18 O22 1.260 . S
O19 In13 2.266 . S
O19 C16 1.252 . S
O20 In13 2.326 . S
O20 C16 1.260 . S
O21 In13 2.266 . S
O21 C18 1.252 . S
O22 In13 2.326 . S
O22 C18 1.260 . S
C23 O14 1.240 . S
C23 O15 1.252 . S
O24 In13 2.294 . S
O24 C17 1.240 . S
O25 In13 2.326 . S
O25 C17 1.252 . S
In26 O27 2.294 1_556 S
In26 O28 2.326 . S
In26 O32 2.266 1_566 S
In26 O33 2.326 1_565 S
In26 O34 2.266 . S
In26 O35 2.326 . S
In26 O37 2.294 1_565 S
In26 O38 2.326 1_565 S
O27 In26 2.294 1_554 S
O27 C36 1.240 . S
O28 In26 2.326 . S
O28 C36 1.252 1_556 S
C29 O32 1.252 1_556 S
C29 O33 1.260 . S
C30 O37 1.240 . S
C30 O38 1.252 . S
C31 O34 1.252 . S
C31 O35 1.260 . S
O32 In26 2.266 1_544 S
O32 C29 1.252 1_554 S
O33 In26 2.326 1_545 S
O33 C29 1.260 . S
O34 In26 2.266 . S
O34 C31 1.252 . S
O35 In26 2.326 . S
O35 C31 1.260 . S
C36 O27 1.240 . S
C36 O28 1.252 1_554 S
O37 In26 2.294 1_545 S
O37 C30 1.240 . S
O38 In26 2.326 1_545 S
O38 C30 1.252 . S
In39 O40 2.294 1_455 S
In39 O41 2.326 1_455 S
In39 O45 2.266 . S
In39 O46 2.326 . S
In39 O47 2.266 1_454 S
In39 O48 2.326 1_455 S
In39 O50 2.294 1_554 S
In39 O51 2.326 . S
O40 In39 2.294 1_655 S
O40 C49 1.240 . S
O41 In39 2.326 1_655 S
O41 C49 1.252 . S
C42 O45 1.252 . S
C42 O46 1.260 . S
C43 O50 1.240 . S
C43 O51 1.252 1_556 S
C44 O47 1.252 1_554 S
C44 O48 1.260 . S
O45 In39 2.266 . S
O45 C42 1.252 . S
O46 In39 2.326 . S
O46 C42 1.260 . S
O47 In39 2.266 1_656 S
O47 C44 1.252 1_556 S
O48 In39 2.326 1_655 S
O48 C44 1.260 . S
C49 O40 1.240 . S
C49 O41 1.252 . S
O50 In39 2.294 1_556 S
O50 C43 1.240 . S
O51 In39 2.326 . S
O51 C43 1.252 1_554 S
In52 O53 2.294 . S
In52 O54 2.326 . S
In52 O58 2.266 1_545 S
In52 O59 2.326 1_545 S
In52 O60 2.266 1_556 S
In52 O61 2.326 . S
In52 O63 2.294 1_546 S
In52 O64 2.326 1_545 S
O53 In52 2.294 . S
O53 C62 1.240 . S
O54 In52 2.326 . S
O54 C62 1.252 . S
C55 O58 1.252 . S
C55 O59 1.260 . S
C56 O63 1.240 1_556 S
C56 O64 1.252 . S
C57 O60 1.252 . S
C57 O61 1.260 1_554 S
O58 In52 2.266 1_565 S
O58 C55 1.252 . S
O59 In52 2.326 1_565 S
O59 C55 1.260 . S
O60 In52 2.266 1_554 S
O60 C57 1.252 . S
O61 In52 2.326 . S
O61 C57 1.260 1_556 S
C62 O53 1.240 . S
C62 O54 1.252 . S
O63 In52 2.294 1_564 S
O63 C56 1.240 1_554 S
O64 In52 2.326 1_565 S
O64 C56 1.252 . S
In65 O66 2.294 . S
In65 O67 2.326 . S
In65 O71 2.266 1_655 S
In65 O72 2.326 1_655 S
In65 O73 2.266 1_554 S
In65 O74 2.326 . S
In65 O76 2.294 1_654 S
In65 O77 2.326 1_655 S
O66 In65 2.294 . S
O66 C75 1.240 . S
O67 In65 2.326 . S
O67 C75 1.252 . S
C68 O71 1.252 . S
C68 O72 1.260 . S
C69 O76 1.240 1_554 S
C69 O77 1.252 . S
C70 O73 1.252 . S
C70 O74 1.260 1_556 S
O71 In65 2.266 1_455 S
O71 C68 1.252 . S
O72 In65 2.326 1_455 S
O72 C68 1.260 . S
O73 In65 2.266 1_556 S
O73 C70 1.252 . S
O74 In65 2.326 . S
O74 C70 1.260 1_554 S
C75 O66 1.240 . S
C75 O67 1.252 . S
O76 In65 2.294 1_456 S
O76 C69 1.240 1_556 S
O77 In65 2.326 1_455 S
O77 C69 1.252 . S
In78 O79 2.294 . S
In78 O80 2.326 . S
In78 O84 2.266 . S
In78 O85 2.326 . S
In78 O86 2.266 . S
In78 O87 2.326 . S
In78 O89 2.294 . S
In78 O90 2.326 . S
O79 In78 2.294 . S
O79 C88 1.240 . S
O80 In78 2.326 . S
O80 C88 1.252 . S
C81 O84 1.252 . S
C81 O85 1.260 . S
C82 O89 1.240 . S
C82 O90 1.252 . S
C83 O86 1.252 . S
C83 O87 1.260 . S
O84 In78 2.266 . S
O84 C81 1.252 . S
O85 In78 2.326 . S
O85 C81 1.260 . S
O86 In78 2.266 . S
O86 C83 1.252 . S
O87 In78 2.326 . S
O87 C83 1.260 . S
C88 O79 1.240 . S
C88 O80 1.252 . S
O89 In78 2.294 . S
O89 C82 1.240 . S
O90 In78 2.326 . S
O90 C82 1.252 . S
In91 O92 2.294 . S
In91 O93 2.326 . S
In91 O97 2.266 . S
In91 O98 2.326 . S
In91 O99 2.266 . S
In91 O100 2.326 . S
In91 O102 2.294 . S
In91 O103 2.326 . S
O92 In91 2.294 . S
O92 C101 1.240 . S
O93 In91 2.326 . S
O93 C101 1.252 . S
C94 O97 1.252 . S
C94 O98 1.260 . S
C95 O102 1.240 . S
C95 O103 1.252 . S
C96 O99 1.252 . S
C96 O100 1.260 . S
O97 In91 2.266 . S
O97 C94 1.252 . S
O98 In91 2.326 . S
O98 C94 1.260 . S
O99 In91 2.266 . S
O99 C96 1.252 . S
O100 In91 2.326 . S
O100 C96 1.260 . S
C101 O92 1.240 . S
C101 O93 1.252 . S
O102 In91 2.294 . S
O102 C95 1.240 . S
O103 In91 2.326 . S
O103 C95 1.252 . S
C104 C105 1.391 . S
C104 C106 1.394 . S
C104 H120 0.931 . S
C105 C104 1.391 . S
C105 C109 1.376 . S
C106 C104 1.394 . S
C106 C107 1.369 . S
C106 C110 1.531 . S
C107 C106 1.369 . S
C107 C108 1.410 1_556 S
C107 C115 1.503 1_556 S
C108 C107 1.410 1_554 S
C108 C109 1.392 1_554 S
C108 C111 1.511 . S
C109 C105 1.376 . S
C109 C108 1.392 1_556 S
C109 H121 0.929 . S
C110 C106 1.531 . S
C110 H122 0.960 . S
C110 H123 0.962 . S
C110 H124 0.960 . S
C111 C108 1.511 . S
C111 H125 0.961 . S
C111 H126 0.961 . S
C111 H127 0.961 . S
C112 C113 1.370 . S
C112 C114 1.363 . S
C112 H128 0.931 . S
C113 C112 1.370 . S
C113 C117 1.408 . S
C114 C112 1.363 . S
C114 C115 1.370 . S
C114 C118 1.524 . S
C115 C107 1.503 1_554 S
C115 C114 1.370 . S
C115 C116 1.403 . S
C116 C115 1.403 . S
C116 C117 1.404 . S
C116 C119 1.539 . S
C117 C113 1.408 . S
C117 C116 1.404 . S
C117 H129 0.930 . S
C118 C114 1.524 . S
C118 H130 0.956 1_554 S
C118 H131 0.961 . S
C118 H132 0.961 . S
C119 C116 1.539 . S
C119 H133 0.958 1_554 S
C119 H134 0.961 . S
C119 H135 0.960 . S
H120 C104 0.931 . S
H121 C109 0.929 . S
H122 C110 0.960 . S
H123 C110 0.962 . S
H124 C110 0.960 . S
H125 C111 0.961 . S
H126 C111 0.961 . S
H127 C111 0.961 . S
H128 C112 0.931 . S
H129 C117 0.930 . S
H130 C118 0.956 1_556 S
H131 C118 0.961 . S
H132 C118 0.961 . S
H133 C119 0.958 1_556 S
H134 C119 0.961 . S
H135 C119 0.960 . S
C136 C137 1.391 . S
C136 C138 1.394 . S
C136 H152 0.931 . S
C137 C136 1.391 . S
C137 C141 1.376 . S
C138 C136 1.394 . S
C138 C139 1.369 . S
C138 C142 1.531 . S
C139 C138 1.369 . S
C139 C140 1.410 . S
C139 C147 1.503 . S
C140 C139 1.410 . S
C140 C141 1.392 . S
C140 C143 1.511 . S
C141 C137 1.376 . S
C141 C140 1.392 . S
C141 H153 0.929 . S
C142 C138 1.531 . S
C142 H154 0.960 . S
C142 H155 0.962 . S
C142 H156 0.960 . S
C143 C140 1.511 . S
C143 H157 0.961 . S
C143 H158 0.961 . S
C143 H159 0.961 . S
C144 C145 1.370 . S
C144 C146 1.363 . S
C144 H160 0.931 . S
C145 C144 1.370 . S
C145 C149 1.408 . S
C146 C144 1.363 . S
C146 C147 1.370 . S
C146 C150 1.524 . S
C147 C139 1.503 . S
C147 C146 1.370 . S
C147 C148 1.403 . S
C148 C147 1.403 . S
C148 C149 1.404 . S
C148 C151 1.539 . S
C149 C145 1.408 . S
C149 C148 1.404 . S
C149 H161 0.930 . S
C150 C146 1.524 . S
C150 H162 0.956 . S
C150 H163 0.961 . S
C150 H164 0.961 . S
C151 C148 1.539 . S
C151 H165 0.958 . S
C151 H166 0.961 . S
C151 H167 0.960 . S
H152 C136 0.931 . S
H153 C141 0.929 . S
H154 C142 0.960 . S
H155 C142 0.962 . S
H156 C142 0.960 . S
H157 C143 0.961 . S
H158 C143 0.961 . S
H159 C143 0.961 . S
H160 C144 0.931 . S
H161 C149 0.930 . S
H162 C150 0.956 . S
H163 C150 0.961 . S
H164 C150 0.961 . S
H165 C151 0.958 . S
H166 C151 0.961 . S
H167 C151 0.960 . S
C168 C169 1.391 . S
C168 C170 1.394 . S
C168 H184 0.931 . S
C169 C168 1.391 . S
C169 C173 1.376 . S
C170 C168 1.394 . S
C170 C171 1.369 . S
C170 C174 1.531 . S
C171 C170 1.369 . S
C171 C172 1.410 . S
C171 C179 1.503 . S
C172 C171 1.410 . S
C172 C173 1.392 . S
C172 C175 1.511 . S
C173 C169 1.376 . S
C173 C172 1.392 . S
C173 H185 0.929 . S
C174 C170 1.531 . S
C174 H186 0.960 . S
C174 H187 0.962 . S
C174 H188 0.960 . S
C175 C172 1.511 . S
C175 H189 0.961 . S
C175 H190 0.961 . S
C175 H191 0.961 . S
C176 C177 1.370 . S
C176 C178 1.363 . S
C176 H192 0.931 . S
C177 C176 1.370 . S
C177 C181 1.408 . S
C178 C176 1.363 . S
C178 C179 1.370 . S
C178 C182 1.524 . S
C179 C171 1.503 . S
C179 C178 1.370 . S
C179 C180 1.403 . S
C180 C179 1.403 . S
C180 C181 1.404 . S
C180 C183 1.539 . S
C181 C177 1.408 . S
C181 C180 1.404 . S
C181 H193 0.930 . S
C182 C178 1.524 . S
C182 H194 0.956 . S
C182 H195 0.961 . S
C182 H196 0.961 . S
C183 C180 1.539 . S
C183 H197 0.958 . S
C183 H198 0.961 . S
C183 H199 0.960 . S
H184 C168 0.931 . S
H185 C173 0.929 . S
H186 C174 0.960 . S
H187 C174 0.962 . S
H188 C174 0.960 . S
H189 C175 0.961 . S
H190 C175 0.961 . S
H191 C175 0.961 . S
H192 C176 0.931 . S
H193 C181 0.930 . S
H194 C182 0.956 . S
H195 C182 0.961 . S
H196 C182 0.961 . S
H197 C183 0.958 . S
H198 C183 0.961 . S
H199 C183 0.960 . S
C200 C201 1.391 . S
C200 C202 1.394 . S
C200 H216 0.931 1_556 S
C201 C200 1.391 . S
C201 C205 1.376 . S
C202 C200 1.394 . S
C202 C203 1.369 . S
C202 C206 1.531 . S
C203 C202 1.369 . S
C203 C204 1.410 . S
C203 C211 1.503 . S
C204 C203 1.410 . S
C204 C205 1.392 . S
C204 C207 1.511 . S
C205 C201 1.376 . S
C205 C204 1.392 . S
C205 H217 0.929 . S
C206 C202 1.531 . S
C206 H218 0.960 . S
C206 H219 0.962 . S
C206 H220 0.960 1_556 S
C207 C204 1.511 . S
C207 H221 0.961 . S
C207 H222 0.961 . S
C207 H223 0.961 . S
C208 C209 1.370 . S
C208 C210 1.363 . S
C208 H224 0.931 . S
C209 C208 1.370 . S
C209 C213 1.408 . S
C210 C208 1.363 . S
C210 C211 1.370 . S
C210 C214 1.524 . S
C211 C203 1.503 . S
C211 C210 1.370 . S
C211 C212 1.403 . S
C212 C211 1.403 . S
C212 C213 1.404 . S
C212 C215 1.539 . S
C213 C209 1.408 . S
C213 C212 1.404 . S
C213 H225 0.930 . S
C214 C210 1.524 . S
C214 H226 0.956 . S
C214 H227 0.961 . S
C214 H228 0.961 . S
C215 C212 1.539 . S
C215 H229 0.958 . S
C215 H230 0.961 . S
C215 H231 0.960 . S
H216 C200 0.931 1_554 S
H217 C205 0.929 . S
H218 C206 0.960 . S
H219 C206 0.962 . S
H220 C206 0.960 1_554 S
H221 C207 0.961 . S
H222 C207 0.961 . S
H223 C207 0.961 . S
H224 C208 0.931 . S
H225 C213 0.930 . S
H226 C214 0.956 . S
H227 C214 0.961 . S
H228 C214 0.961 . S
H229 C215 0.958 . S
H230 C215 0.961 . S
H231 C215 0.960 . S
C232 C233 1.391 . S
C232 C234 1.394 . S
C232 H248 0.931 . S
C233 C232 1.391 . S
C233 C237 1.376 . S
C234 C232 1.394 . S
C234 C235 1.369 . S
C234 C238 1.531 . S
C235 C234 1.369 . S
C235 C236 1.410 . S
C235 C243 1.503 . S
C236 C235 1.410 . S
C236 C237 1.392 . S
C236 C239 1.511 . S
C237 C233 1.376 . S
C237 C236 1.392 . S
C237 H249 0.929 . S
C238 C234 1.531 . S
C238 H250 0.960 . S
C238 H251 0.962 . S
C238 H252 0.960 . S
C239 C236 1.511 . S
C239 H253 0.961 . S
C239 H254 0.961 . S
C239 H255 0.961 . S
C240 C241 1.370 . S
C240 C242 1.363 . S
C240 H256 0.931 . S
C241 C240 1.370 . S
C241 C245 1.408 . S
C242 C240 1.363 . S
C242 C243 1.370 . S
C242 C246 1.524 . S
C243 C235 1.503 . S
C243 C242 1.370 . S
C243 C244 1.403 . S
C244 C243 1.403 . S
C244 C245 1.404 . S
C244 C247 1.539 . S
C245 C241 1.408 . S
C245 C244 1.404 . S
C245 H257 0.930 . S
C246 C242 1.524 . S
C246 H258 0.956 . S
C246 H259 0.961 . S
C246 H260 0.961 . S
C247 C244 1.539 . S
C247 H261 0.958 . S
C247 H262 0.961 . S
C247 H263 0.960 . S
H248 C232 0.931 . S
H249 C237 0.929 . S
H250 C238 0.960 . S
H251 C238 0.962 . S
H252 C238 0.960 . S
H253 C239 0.961 . S
H254 C239 0.961 . S
H255 C239 0.961 . S
H256 C240 0.931 . S
H257 C245 0.930 . S
H258 C246 0.956 . S
H259 C246 0.961 . S
H260 C246 0.961 . S
H261 C247 0.958 . S
H262 C247 0.961 . S
H263 C247 0.960 . S
C264 C265 1.391 . S
C264 C266 1.394 . S
C264 H280 0.931 . S
C265 C264 1.391 . S
C265 C269 1.376 . S
C266 C264 1.394 . S
C266 C267 1.369 . S
C266 C270 1.531 . S
C267 C266 1.369 . S
C267 C268 1.410 . S
C267 C275 1.503 . S
C268 C267 1.410 . S
C268 C269 1.392 . S
C268 C271 1.511 . S
C269 C265 1.376 . S
C269 C268 1.392 . S
C269 H281 0.929 . S
C270 C266 1.531 . S
C270 H282 0.960 . S
C270 H283 0.962 . S
C270 H284 0.960 . S
C271 C268 1.511 . S
C271 H285 0.961 . S
C271 H286 0.961 . S
C271 H287 0.961 . S
C272 C273 1.370 . S
C272 C274 1.363 . S
C272 H288 0.931 . S
C273 C272 1.370 . S
C273 C277 1.408 . S
C274 C272 1.363 . S
C274 C275 1.370 . S
C274 C278 1.524 . S
C275 C267 1.503 . S
C275 C274 1.370 . S
C275 C276 1.403 . S
C276 C275 1.403 . S
C276 C277 1.404 . S
C276 C279 1.539 . S
C277 C273 1.408 . S
C277 C276 1.404 . S
C277 H289 0.930 . S
C278 C274 1.524 . S
C278 H290 0.956 . S
C278 H291 0.961 . S
C278 H292 0.961 . S
C279 C276 1.539 . S
C279 H293 0.958 . S
C279 H294 0.961 . S
C279 H295 0.960 . S
H280 C264 0.931 . S
H281 C269 0.929 . S
H282 C270 0.960 . S
H283 C270 0.962 . S
H284 C270 0.960 . S
H285 C271 0.961 . S
H286 C271 0.961 . S
H287 C271 0.961 . S
H288 C272 0.931 . S
H289 C277 0.930 . S
H290 C278 0.956 . S
H291 C278 0.961 . S
H292 C278 0.961 . S
H293 C279 0.958 . S
H294 C279 0.961 . S
H295 C279 0.960 . S
C296 C297 1.391 . S
C296 C298 1.394 1_554 S
C296 H312 0.931 . S
C297 C296 1.391 . S
C297 C301 1.376 . S
C298 C296 1.394 1_556 S
C298 C299 1.369 1_556 S
C298 C302 1.531 . S
C299 C298 1.369 1_554 S
C299 C300 1.410 . S
C299 C307 1.503 1_554 S
C300 C299 1.410 . S
C300 C301 1.392 . S
C300 C303 1.511 . S
C301 C297 1.376 . S
C301 C300 1.392 . S
C301 H313 0.929 . S
C302 C298 1.531 . S
C302 H314 0.960 . S
C302 H315 0.962 . S
C302 H316 0.960 . S
C303 C300 1.511 . S
C303 H317 0.961 . S
C303 H318 0.961 . S
C303 H319 0.961 . S
C304 C305 1.370 . S
C304 C306 1.363 . S
C304 H320 0.931 . S
C305 C304 1.370 . S
C305 C309 1.408 . S
C306 C304 1.363 . S
C306 C307 1.370 . S
C306 C310 1.524 . S
C307 C299 1.503 1_556 S
C307 C306 1.370 . S
C307 C308 1.403 . S
C308 C307 1.403 . S
C308 C309 1.404 . S
C308 C311 1.539 1_556 S
C309 C305 1.408 . S
C309 C308 1.404 . S
C309 H321 0.930 . S
C310 C306 1.524 . S
C310 H322 0.956 . S
C310 H323 0.961 1_556 S
C310 H324 0.961 . S
C311 C308 1.539 1_554 S
C311 H325 0.958 1_554 S
C311 H326 0.961 . S
C311 H327 0.960 . S
H312 C296 0.931 . S
H313 C301 0.929 . S
H314 C302 0.960 . S
H315 C302 0.962 . S
H316 C302 0.960 . S
H317 C303 0.961 . S
H318 C303 0.961 . S
H319 C303 0.961 . S
H320 C304 0.931 . S
H321 C309 0.930 . S
H322 C310 0.956 . S
H323 C310 0.961 1_554 S
H324 C310 0.961 . S
H325 C311 0.958 1_556 S
H326 C311 0.961 . S
H327 C311 0.960 . S
C328 C329 1.391 . S
C328 C330 1.394 . S
C328 H344 0.931 . S
C329 C328 1.391 . S
C329 C333 1.376 . S
C330 C328 1.394 . S
C330 C331 1.369 . S
C330 C334 1.531 . S
C331 C330 1.369 . S
C331 C332 1.410 . S
C331 C339 1.503 . S
C332 C331 1.410 . S
C332 C333 1.392 . S
C332 C335 1.511 . S
C333 C329 1.376 . S
C333 C332 1.392 . S
C333 H345 0.929 . S
C334 C330 1.531 . S
C334 H346 0.960 . S
C334 H347 0.962 . S
C334 H348 0.960 . S
C335 C332 1.511 . S
C335 H349 0.961 . S
C335 H350 0.961 . S
C335 H351 0.961 . S
C336 C337 1.370 . S
C336 C338 1.363 . S
C336 H352 0.931 . S
C337 C336 1.370 . S
C337 C341 1.408 . S
C338 C336 1.363 . S
C338 C339 1.370 . S
C338 C342 1.524 . S
C339 C331 1.503 . S
C339 C338 1.370 . S
C339 C340 1.403 . S
C340 C339 1.403 . S
C340 C341 1.404 . S
C340 C343 1.539 . S
C341 C337 1.408 . S
C341 C340 1.404 . S
C341 H353 0.930 . S
C342 C338 1.524 . S
C342 H354 0.956 . S
C342 H355 0.961 . S
C342 H356 0.961 . S
C343 C340 1.539 . S
C343 H357 0.958 . S
C343 H358 0.961 . S
C343 H359 0.960 . S
H344 C328 0.931 . S
H345 C333 0.929 . S
H346 C334 0.960 . S
H347 C334 0.962 . S
H348 C334 0.960 . S
H349 C335 0.961 . S
H350 C335 0.961 . S
H351 C335 0.961 . S
H352 C336 0.931 . S
H353 C341 0.930 . S
H354 C342 0.956 . S
H355 C342 0.961 . S
H356 C342 0.961 . S
H357 C343 0.958 . S
H358 C343 0.961 . S
H359 C343 0.960 . S
C360 C361 1.391 . S
C360 C362 1.394 . S
C360 H376 0.931 . S
C361 C360 1.391 . S
C361 C365 1.376 . S
C362 C360 1.394 . S
C362 C363 1.369 . S
C362 C366 1.531 . S
C363 C362 1.369 . S
C363 C364 1.410 . S
C363 C371 1.503 . S
C364 C363 1.410 . S
C364 C365 1.392 . S
C364 C367 1.511 . S
C365 C361 1.376 . S
C365 C364 1.392 . S
C365 H377 0.929 . S
C366 C362 1.531 . S
C366 H378 0.960 . S
C366 H379 0.962 . S
C366 H380 0.960 . S
C367 C364 1.511 . S
C367 H381 0.961 . S
C367 H382 0.961 . S
C367 H383 0.961 . S
C368 C369 1.370 . S
C368 C370 1.363 . S
C368 H384 0.931 . S
C369 C368 1.370 . S
C369 C373 1.408 . S
C370 C368 1.363 . S
C370 C371 1.370 . S
C370 C374 1.524 . S
C371 C363 1.503 . S
C371 C370 1.370 . S
C371 C372 1.403 . S
C372 C371 1.403 . S
C372 C373 1.404 . S
C372 C375 1.539 . S
C373 C369 1.408 . S
C373 C372 1.404 . S
C373 H385 0.930 . S
C374 C370 1.524 . S
C374 H386 0.956 . S
C374 H387 0.961 . S
C374 H388 0.961 . S
C375 C372 1.539 . S
C375 H389 0.958 . S
C375 H390 0.961 . S
C375 H391 0.960 . S
H376 C360 0.931 . S
H377 C365 0.929 . S
H378 C366 0.960 . S
H379 C366 0.962 . S
H380 C366 0.960 . S
H381 C367 0.961 . S
H382 C367 0.961 . S
H383 C367 0.961 . S
H384 C368 0.931 . S
H385 C373 0.930 . S
H386 C374 0.956 . S
H387 C374 0.961 . S
H388 C374 0.961 . S
H389 C375 0.958 . S
H390 C375 0.961 . S
H391 C375 0.960 . S
C392 C393 1.391 . S
C392 C394 1.394 . S
C392 H408 0.931 . S
C393 C392 1.391 . S
C393 C397 1.376 . S
C394 C392 1.394 . S
C394 C395 1.369 . S
C394 C398 1.531 . S
C395 C394 1.369 . S
C395 C396 1.410 . S
C395 C403 1.503 . S
C396 C395 1.410 . S
C396 C397 1.392 . S
C396 C399 1.511 . S
C397 C393 1.376 . S
C397 C396 1.392 . S
C397 H409 0.929 . S
C398 C394 1.531 . S
C398 H410 0.960 . S
C398 H411 0.962 . S
C398 H412 0.960 . S
C399 C396 1.511 . S
C399 H413 0.961 . S
C399 H414 0.961 . S
C399 H415 0.961 . S
C400 C401 1.370 . S
C400 C402 1.363 . S
C400 H416 0.931 . S
C401 C400 1.370 . S
C401 C405 1.408 . S
C402 C400 1.363 . S
C402 C403 1.370 . S
C402 C406 1.524 . S
C403 C395 1.503 . S
C403 C402 1.370 . S
C403 C404 1.403 . S
C404 C403 1.403 . S
C404 C405 1.404 . S
C404 C407 1.539 . S
C405 C401 1.408 . S
C405 C404 1.404 . S
C405 H417 0.930 . S
C406 C402 1.524 . S
C406 H418 0.956 . S
C406 H419 0.961 . S
C406 H420 0.961 . S
C407 C404 1.539 . S
C407 H421 0.958 . S
C407 H422 0.961 . S
C407 H423 0.960 . S
H408 C392 0.931 . S
H409 C397 0.929 . S
H410 C398 0.960 . S
H411 C398 0.962 . S
H412 C398 0.960 . S
H413 C399 0.961 . S
H414 C399 0.961 . S
H415 C399 0.961 . S
H416 C400 0.931 . S
H417 C405 0.930 . S
H418 C406 0.956 . S
H419 C406 0.961 . S
H420 C406 0.961 . S
H421 C407 0.958 . S
H422 C407 0.961 . S
H423 C407 0.960 . S
C424 C425 1.391 1_556 S
C424 C426 1.394 . S
C424 H440 0.931 . S
C425 C424 1.391 1_554 S
C425 C429 1.376 . S
C426 C424 1.394 . S
C426 C427 1.369 1_556 S
C426 C430 1.531 . S
C427 C426 1.369 1_554 S
C427 C428 1.410 . S
C427 C435 1.503 . S
C428 C427 1.410 . S
C428 C429 1.392 . S
C428 C431 1.511 . S
C429 C425 1.376 . S
C429 C428 1.392 . S
C429 H441 0.929 . S
C430 C426 1.531 . S
C430 H442 0.960 . S
C430 H443 0.962 . S
C430 H444 0.960 . S
C431 C428 1.511 . S
C431 H445 0.961 . S
C431 H446 0.961 . S
C431 H447 0.961 . S
C432 C433 1.370 . S
C432 C434 1.363 . S
C432 H448 0.931 . S
C433 C432 1.370 . S
C433 C437 1.408 1_556 S
C434 C432 1.363 . S
C434 C435 1.370 1_556 S
C434 C438 1.524 . S
C435 C427 1.503 . S
C435 C434 1.370 1_554 S
C435 C436 1.403 . S
C436 C435 1.403 . S
C436 C437 1.404 . S
C436 C439 1.539 . S
C437 C433 1.408 1_554 S
C437 C436 1.404 . S
C437 H449 0.930 . S
C438 C434 1.524 . S
C438 H450 0.956 . S
C438 H451 0.961 . S
C438 H452 0.961 . S
C439 C436 1.539 . S
C439 H453 0.958 . S
C439 H454 0.961 . S
C439 H455 0.960 . S
H440 C424 0.931 . S
H441 C429 0.929 . S
H442 C430 0.960 . S
H443 C430 0.962 . S
H444 C430 0.960 . S
H445 C431 0.961 . S
H446 C431 0.961 . S
H447 C431 0.961 . S
H448 C432 0.931 . S
H449 C437 0.930 . S
H450 C438 0.956 . S
H451 C438 0.961 . S
H452 C438 0.961 . S
H453 C439 0.958 . S
H454 C439 0.961 . S
H455 C439 0.960 . S
C456 C457 1.391 . S
C456 C458 1.394 . S
C456 H472 0.931 . S
C457 C456 1.391 . S
C457 C461 1.376 . S
C458 C456 1.394 . S
C458 C459 1.369 . S
C458 C462 1.531 . S
C459 C458 1.369 . S
C459 C460 1.410 . S
C459 C467 1.503 . S
C460 C459 1.410 . S
C460 C461 1.392 . S
C460 C463 1.511 . S
C461 C457 1.376 . S
C461 C460 1.392 . S
C461 H473 0.929 . S
C462 C458 1.531 . S
C462 H474 0.960 . S
C462 H475 0.962 . S
C462 H476 0.960 . S
C463 C460 1.511 . S
C463 H477 0.961 . S
C463 H478 0.961 . S
C463 H479 0.961 . S
C464 C465 1.370 . S
C464 C466 1.363 . S
C464 H480 0.931 . S
C465 C464 1.370 . S
C465 C469 1.408 . S
C466 C464 1.363 . S
C466 C467 1.370 . S
C466 C470 1.524 . S
C467 C459 1.503 . S
C467 C466 1.370 . S
C467 C468 1.403 . S
C468 C467 1.403 . S
C468 C469 1.404 . S
C468 C471 1.539 . S
C469 C465 1.408 . S
C469 C468 1.404 . S
C469 H481 0.930 . S
C470 C466 1.524 . S
C470 H482 0.956 . S
C470 H483 0.961 . S
C470 H484 0.961 . S
C471 C468 1.539 . S
C471 H485 0.957 1_554 S
C471 H486 0.961 1_554 S
C471 H487 0.960 1_554 S
H472 C456 0.931 . S
H473 C461 0.929 . S
H474 C462 0.960 . S
H475 C462 0.962 . S
H476 C462 0.960 . S
H477 C463 0.961 . S
H478 C463 0.961 . S
H479 C463 0.961 . S
H480 C464 0.931 . S
H481 C469 0.930 . S
H482 C470 0.956 . S
H483 C470 0.961 . S
H484 C470 0.961 . S
H485 C471 0.957 1_556 S
H486 C471 0.961 1_556 S
H487 C471 0.960 1_556 S
C488 C489 1.391 . S
C488 C490 1.394 . S
C488 H504 0.931 . S
C489 C488 1.391 . S
C489 C493 1.376 . S
C490 C488 1.394 . S
C490 C491 1.369 . S
C490 C494 1.531 . S
C491 C490 1.369 . S
C491 C492 1.410 . S
C491 C499 1.503 . S
C492 C491 1.410 . S
C492 C493 1.392 . S
C492 C495 1.511 . S
C493 C489 1.376 . S
C493 C492 1.392 . S
C493 H505 0.929 . S
C494 C490 1.531 . S
C494 H506 0.960 . S
C494 H507 0.962 . S
C494 H508 0.960 . S
C495 C492 1.511 . S
C495 H509 0.961 . S
C495 H510 0.961 . S
C495 H511 0.961 . S
C496 C497 1.370 . S
C496 C498 1.363 . S
C496 H512 0.931 . S
C497 C496 1.370 . S
C497 C501 1.408 . S
C498 C496 1.363 . S
C498 C499 1.370 . S
C498 C502 1.524 . S
C499 C491 1.503 . S
C499 C498 1.370 . S
C499 C500 1.403 . S
C500 C499 1.403 . S
C500 C501 1.404 . S
C500 C503 1.539 . S
C501 C497 1.408 . S
C501 C500 1.404 . S
C501 H513 0.930 . S
C502 C498 1.524 . S
C502 H514 0.956 . S
C502 H515 0.961 . S
C502 H516 0.961 . S
C503 C500 1.539 . S
C503 H517 0.958 1_556 S
C503 H518 0.961 . S
C503 H519 0.960 . S
H504 C488 0.931 . S
H505 C493 0.929 . S
H506 C494 0.960 . S
H507 C494 0.962 . S
H508 C494 0.960 . S
H509 C495 0.961 . S
H510 C495 0.961 . S
H511 C495 0.961 . S
H512 C496 0.931 . S
H513 C501 0.930 . S
H514 C502 0.956 . S
H515 C502 0.961 . S
H516 C502 0.961 . S
H517 C503 0.958 1_554 S
H518 C503 0.961 . S
H519 C503 0.960 . S
C520 C521 1.391 1_554 S
C520 C522 1.394 . S
C520 H536 0.931 . S
C521 C520 1.391 1_556 S
C521 C525 1.376 . S
C522 C520 1.394 . S
C522 C523 1.369 1_554 S
C522 C526 1.531 . S
C523 C522 1.369 1_556 S
C523 C524 1.410 . S
C523 C531 1.503 1_556 S
C524 C523 1.410 . S
C524 C525 1.392 . S
C524 C527 1.511 . S
C525 C521 1.376 . S
C525 C524 1.392 . S
C525 H537 0.929 . S
C526 C522 1.531 . S
C526 H538 0.960 . S
C526 H539 0.962 . S
C526 H540 0.960 . S
C527 C524 1.511 . S
C527 H541 0.961 . S
C527 H542 0.961 . S
C527 H543 0.961 . S
C528 C529 1.370 . S
C528 C530 1.363 . S
C528 H544 0.931 . S
C529 C528 1.370 . S
C529 C533 1.408 . S
C530 C528 1.363 . S
C530 C531 1.370 . S
C530 C534 1.524 1_554 S
C531 C523 1.503 1_554 S
C531 C530 1.370 . S
C531 C532 1.403 . S
C532 C531 1.403 . S
C532 C533 1.404 . S
C532 C535 1.539 . S
C533 C529 1.408 . S
C533 C532 1.404 . S
C533 H545 0.930 . S
C534 C530 1.524 1_556 S
C534 H546 0.956 1_556 S
C534 H547 0.961 . S
C534 H548 0.961 . S
C535 C532 1.539 . S
C535 H549 0.958 . S
C535 H550 0.961 . S
C535 H551 0.960 . S
H536 C520 0.931 . S
H537 C525 0.929 . S
H538 C526 0.960 . S
H539 C526 0.962 . S
H540 C526 0.960 . S
H541 C527 0.961 . S
H542 C527 0.961 . S
H543 C527 0.961 . S
H544 C528 0.931 . S
H545 C533 0.930 . S
H546 C534 0.956 1_554 S
H547 C534 0.961 . S
H548 C534 0.961 . S
H549 C535 0.958 . S
H550 C535 0.961 . S
H551 C535 0.960 . S
C552 C553 1.391 . S
C552 C554 1.394 . S
C552 H568 0.931 . S
C553 C552 1.391 . S
C553 C557 1.376 . S
C554 C552 1.394 . S
C554 C555 1.369 . S
C554 C558 1.531 . S
C555 C554 1.369 . S
C555 C556 1.410 . S
C555 C563 1.503 . S
C556 C555 1.410 . S
C556 C557 1.392 . S
C556 C559 1.511 . S
C557 C553 1.376 . S
C557 C556 1.392 . S
C557 H569 0.929 . S
C558 C554 1.531 . S
C558 H570 0.960 . S
C558 H571 0.962 . S
C558 H572 0.960 1_554 S
C559 C556 1.511 . S
C559 H573 0.961 . S
C559 H574 0.961 . S
C559 H575 0.961 . S
C560 C561 1.370 . S
C560 C562 1.363 . S
C560 H576 0.931 . S
C561 C560 1.370 . S
C561 C565 1.408 . S
C562 C560 1.363 . S
C562 C563 1.370 . S
C562 C566 1.524 . S
C563 C555 1.503 . S
C563 C562 1.370 . S
C563 C564 1.403 . S
C564 C563 1.403 . S
C564 C565 1.404 . S
C564 C567 1.539 . S
C565 C561 1.408 . S
C565 C564 1.404 . S
C565 H577 0.930 . S
C566 C562 1.524 . S
C566 H578 0.956 . S
C566 H579 0.961 . S
C566 H580 0.961 . S
C567 C564 1.539 . S
C567 H581 0.958 . S
C567 H582 0.961 . S
C567 H583 0.960 . S
H568 C552 0.931 . S
H569 C557 0.929 . S
H570 C558 0.960 . S
H571 C558 0.962 . S
H572 C558 0.960 1_556 S
H573 C559 0.961 . S
H574 C559 0.961 . S
H575 C559 0.961 . S
H576 C560 0.931 . S
H577 C565 0.930 . S
H578 C566 0.956 . S
H579 C566 0.961 . S
H580 C566 0.961 . S
H581 C567 0.958 . S
H582 C567 0.961 . S
H583 C567 0.960 . S
C584 C585 1.391 . S
C584 C586 1.394 . S
C584 H600 0.931 . S
C585 C584 1.391 . S
C585 C589 1.376 . S
C586 C584 1.394 . S
C586 C587 1.369 . S
C586 C590 1.531 . S
C587 C586 1.369 . S
C587 C588 1.410 . S
C587 C595 1.503 . S
C588 C587 1.410 . S
C588 C589 1.392 . S
C588 C591 1.511 . S
C589 C585 1.376 . S
C589 C588 1.392 . S
C589 H601 0.929 . S
C590 C586 1.531 . S
C590 H602 0.960 . S
C590 H603 0.962 . S
C590 H604 0.960 . S
C591 C588 1.511 . S
C591 H605 0.961 . S
C591 H606 0.961 . S
C591 H607 0.961 . S
C592 C593 1.370 . S
C592 C594 1.363 . S
C592 H608 0.931 . S
C593 C592 1.370 . S
C593 C597 1.408 . S
C594 C592 1.363 . S
C594 C595 1.370 . S
C594 C598 1.524 . S
C595 C587 1.503 . S
C595 C594 1.370 . S
C595 C596 1.403 . S
C596 C595 1.403 . S
C596 C597 1.404 . S
C596 C599 1.539 . S
C597 C593 1.408 . S
C597 C596 1.404 . S
C597 H609 0.930 . S
C598 C594 1.524 . S
C598 H610 0.956 . S
C598 H611 0.961 . S
C598 H612 0.961 . S
C599 C596 1.539 . S
C599 H613 0.958 . S
C599 H614 0.961 . S
C599 H615 0.960 . S
H600 C584 0.931 . S
H601 C589 0.929 . S
H602 C590 0.960 . S
H603 C590 0.962 . S
H604 C590 0.960 . S
H605 C591 0.961 . S
H606 C591 0.961 . S
H607 C591 0.961 . S
H608 C592 0.931 . S
H609 C597 0.930 . S
H610 C598 0.956 . S
H611 C598 0.961 . S
H612 C598 0.961 . S
H613 C599 0.958 . S
H614 C599 0.961 . S
H615 C599 0.960 . S
C105 C23 1.466 . S
C113 C10 1.472 . S
C137 C18 1.469 . S
C145 C36 1.472 . S
C169 C42 1.467 . S
C177 C31 1.473 . S
C201 C43 1.466 . S
C209 C5 1.473 . S
C233 C62 1.467 . S
C241 C75 1.472 . S
C265 C70 1.471 . S
C273 C88 1.472 . S
C297 C83 1.468 . S
C305 C94 1.473 . S
C329 C57 1.471 . S
C337 C95 1.473 . S
C361 C4 1.515 . S
C369 C96 1.511 . S
C393 C55 1.513 . S
C401 C16 1.515 . S
C425 C69 1.503 . S
C433 C29 1.511 . S
C457 C49 1.498 . S
C465 C82 1.507 . S
C489 C30 1.502 . S
C497 C101 1.508 . S
C521 C56 1.505 . S
C529 C44 1.508 . S
C553 C68 1.522 . S
C561 C3 1.522 . S
C585 C17 1.513 . S
C593 C81 1.515 . S
