# Generated by pormake.
# Topology qtz-g, (3)-cn, num edge types: 1
# Building blocks:
#     Node 0, Type 0, BuildingBlock: OLANEW_clean_sbu_2, # of connection points: 3
#     Node 1, Type 0, BuildingBlock: OLANEW_clean_sbu_2, # of connection points: 3
#     Node 2, Type 0, BuildingBlock: OLANEW_clean_sbu_2, # of connection points: 3
#     Node 3, Type 0, BuildingBlock: OLANEW_clean_sbu_2, # of connection points: 3
#     Node 4, Type 0, BuildingBlock: OLANEW_clean_sbu_2, # of connection points: 3
#     Node 5, Type 0, BuildingBlock: OLANEW_clean_sbu_2, # of connection points: 3
#     Node 6, Type 0, BuildingBlock: OLANEW_clean_sbu_2, # of connection points: 3
#     Node 7, Type 0, BuildingBlock: OLANEW_clean_sbu_2, # of connection points: 3
#     Node 8, Type 0, BuildingBlock: OLANEW_clean_sbu_2, # of connection points: 3
#     Node 9, Type 0, BuildingBlock: OLANEW_clean_sbu_2, # of connection points: 3
#     Node 10, Type 0, BuildingBlock: OLANEW_clean_sbu_2, # of connection points: 3
#     Node 11, Type 0, BuildingBlock: OLANEW_clean_sbu_2, # of connection points: 3
#     Edge 12, Type (0, 0), BuildingBlock: EZIPEK_clean_linker_0, # of connection points: 2
#     Edge 13, Type (0, 0), BuildingBlock: EZIPEK_clean_linker_0, # of connection points: 2
#     Edge 14, Type (0, 0), BuildingBlock: EZIPEK_clean_linker_0, # of connection points: 2
#     Edge 15, Type (0, 0), BuildingBlock: EZIPEK_clean_linker_0, # of connection points: 2
#     Edge 16, Type (0, 0), BuildingBlock: EZIPEK_clean_linker_0, # of connection points: 2
#     Edge 17, Type (0, 0), BuildingBlock: EZIPEK_clean_linker_0, # of connection points: 2
#     Edge 18, Type (0, 0), BuildingBlock: EZIPEK_clean_linker_0, # of connection points: 2
#     Edge 19, Type (0, 0), BuildingBlock: EZIPEK_clean_linker_0, # of connection points: 2
#     Edge 20, Type (0, 0), BuildingBlock: EZIPEK_clean_linker_0, # of connection points: 2
#     Edge 21, Type (0, 0), BuildingBlock: EZIPEK_clean_linker_0, # of connection points: 2
#     Edge 22, Type (0, 0), BuildingBlock: EZIPEK_clean_linker_0, # of connection points: 2
#     Edge 23, Type (0, 0), BuildingBlock: EZIPEK_clean_linker_0, # of connection points: 2
#     Edge 24, Type (0, 0), BuildingBlock: EZIPEK_clean_linker_0, # of connection points: 2
#     Edge 25, Type (0, 0), BuildingBlock: EZIPEK_clean_linker_0, # of connection points: 2
#     Edge 26, Type (0, 0), BuildingBlock: EZIPEK_clean_linker_0, # of connection points: 2
#     Edge 27, Type (0, 0), BuildingBlock: EZIPEK_clean_linker_0, # of connection points: 2
#     Edge 28, Type (0, 0), BuildingBlock: EZIPEK_clean_linker_0, # of connection points: 2
#     Edge 29, Type (0, 0), BuildingBlock: EZIPEK_clean_linker_0, # of connection points: 2
# Relax obj value: 0.010
# Max RMSD: 0.015
# Mean RMSD: 0.015
data_MOF--net-qtz-g--node1-OLANEW_clean_sbu_2--edge1-EZIPEK_clean_linker_0
_symmetry_space_group_name_H-M    P1
_symmetry_Int_Tables_number       1
_symmetry_cell_setting            triclinic
loop_
_symmetry_equiv_pos_as_xyz
'x, y, z'
_cell_length_a     32.991159
_cell_length_b     33.039438
_cell_length_c     64.618328
_cell_angle_alpha  89.892422
_cell_angle_beta   90.144353
_cell_angle_gamma 120.05378
loop_
_atom_site_label
_atom_site_type_symbol
_atom_site_fract_x
_atom_site_fract_y
_atom_site_fract_z
_atom_type_partial_charge
O0 O 0.00367 0.38684 0.02359 0.0
Cd1 Cd 0.01373 0.3178 0.02279 0.0
O2 O 0.07776 0.43434 0.03071 0.0
Cd3 Cd 0.07615 0.37657 0.04775 0.0
O4 O 0.04828 0.34808 0.07835 0.0
C5 C 0.06363 0.37855 0.09265 0.0
O6 O 0.09619 0.42157 0.08828 0.0
C7 C 0.03774 0.42825 0.02589 0.0
C8 C 0.08718 0.32643 -0.00196 0.0
O9 O 0.04637 0.31196 0.99032 0.0
O10 O 0.09363 0.33737 0.01722 0.0
O11 O 0.5991 0.01484 0.32928 0.0
Cd12 Cd 0.67191 0.01339 0.32448 0.0
O13 O 0.60908 0.00749 0.36224 0.0
Cd14 Cd 0.59284 0.9991 0.39521 0.0
O15 O 0.5976 0.99064 0.42851 0.0
C16 C 0.63416 0.99208 0.43579 0.0
O17 O 0.66809 0.99848 0.42321 0.0
C18 C 0.5842 0.00983 0.34775 0.0
C19 C 0.75218 0.09841 0.31596 0.0
O20 O 0.72719 0.07135 0.30126 0.0
O21 O 0.73847 0.08625 0.33465 0.0
O22 O 0.58161 0.61198 0.69214 0.0
Cd23 Cd 0.64579 0.6881 0.70301 0.0
O24 O 0.58217 0.5771 0.7212 0.0
Cd25 Cd 0.64029 0.63763 0.73622 0.0
O26 O 0.67565 0.65932 0.7661 0.0
C27 C 0.65843 0.67355 0.77991 0.0
O28 O 0.62293 0.67935 0.77517 0.0
C29 C 0.56506 0.57561 0.70341 0.0
C30 C 0.65385 0.75894 0.67682 0.0
O31 O 0.6791 0.73997 0.67402 0.0
O32 O 0.62502 0.7446 0.69199 0.0
O33 O 0.97769 0.5931 0.02714 0.0
Cd34 Cd 0.94777 0.64282 0.03997 0.0
O35 O 0.95689 0.55212 0.05611 0.0
Cd36 Cd 0.93553 0.59409 0.07404 0.0
O37 O 0.95383 0.63361 0.10296 0.0
C38 C 0.97249 0.62076 0.11683 0.0
O39 O 0.97696 0.58398 0.1135 0.0
C40 C 0.97426 0.55942 0.03801 0.0
C41 C 0.88676 0.65205 0.01306 0.0
O42 O 0.93106 0.68009 0.012 0.0
O43 O 0.87129 0.61913 0.02653 0.0
O44 O 0.38012 0.97742 0.3328 0.0
Cd45 Cd 0.30323 0.97182 0.33062 0.0
O46 O 0.37613 0.98842 0.36592 0.0
Cd47 Cd 0.39951 0.00248 0.39806 0.0
O48 O 0.39854 0.0103 0.43159 0.0
C49 C 0.36186 0.00648 0.4399 0.0
O50 O 0.32598 0.99847 0.42819 0.0
C51 C 0.39888 0.9858 0.35064 0.0
C52 C 0.22745 0.88809 0.3168 0.0
O53 O 0.25237 0.921 0.30403 0.0
O54 O 0.2392 0.89387 0.33595 0.0
O55 O 0.395 0.39751 0.65674 0.0
Cd56 Cd 0.32062 0.32913 0.6472 0.0
O57 O 0.37468 0.37363 0.68864 0.0
Cd58 Cd 0.38268 0.38089 0.72219 0.0
O59 O 0.37828 0.3819 0.75587 0.0
C60 C 0.34565 0.34714 0.76537 0.0
O61 O 0.3149 0.31057 0.75482 0.0
C62 C 0.40341 0.40386 0.676 0.0
C63 C 0.32535 0.24896 0.63949 0.0
O64 O 0.32961 0.27685 0.62476 0.0
O65 O 0.31958 0.25912 0.65797 0.0
O66 O 0.62112 0.00255 0.60422 0.0
Cd67 Cd 0.67745 0.97708 0.59646 0.0
O68 O 0.57296 0.95282 0.58098 0.0
Cd69 Cd 0.62082 0.93382 0.56668 0.0
O70 O 0.63643 0.9358 0.53377 0.0
C71 C 0.64074 0.97154 0.52432 0.0
O72 O 0.63999 0.00495 0.53498 0.0
C73 C 0.58173 0.983 0.59504 0.0
C74 C 0.66898 0.90608 0.62258 0.0
O75 O 0.69891 0.949 0.62635 0.0
O76 O 0.6428 0.89668 0.60655 0.0
O77 O 0.61441 0.61496 0.93615 0.0
Cd78 Cd 0.69225 0.68551 0.93658 0.0
O79 O 0.64319 0.57243 0.92417 0.0
Cd80 Cd 0.6987 0.63441 0.90888 0.0
O81 O 0.70455 0.6685 0.87911 0.0
C82 C 0.69841 0.64269 0.86352 0.0
O83 O 0.69315 0.60096 0.86647 0.0
C84 C 0.60897 0.57512 0.93158 0.0
C85 C 0.75602 0.67479 0.96121 0.0
O86 O 0.72989 0.68926 0.96901 0.0
O87 O 0.75236 0.66554 0.94184 0.0
O88 O 0.97922 0.57635 0.27586 0.0
Cd89 Cd 0.96904 0.64308 0.28332 0.0
O90 O 0.00459 0.6099 0.24588 0.0
Cd91 Cd 0.04057 0.63181 0.21611 0.0
O92 O 0.08318 0.70664 0.20352 0.0
C93 C 0.07962 0.72742 0.18737 0.0
O94 O 0.08406 0.70728 0.20385 0.0
C95 C 0.99725 0.5772 0.25841 0.0
C96 C 0.05488 0.72208 0.29299 0.0
O97 O 0.02837 0.69471 0.30726 0.0
O98 O 0.04114 0.71229 0.27417 0.0
O99 O 0.39461 0.99692 0.60268 0.0
Cd100 Cd 0.32151 0.99964 0.6008 0.0
O101 O 0.43965 0.0651 0.58777 0.0
Cd102 Cd 0.38221 0.06424 0.57094 0.0
O103 O 0.36305 0.05782 0.53831 0.0
C104 C 0.35992 0.02257 0.52893 0.0
O105 O 0.36347 0.99054 0.53954 0.0
C106 C 0.435 0.02928 0.59722 0.0
C107 C 0.32449 0.07985 0.61644 0.0
O108 O 0.31596 0.04564 0.6285 0.0
O109 O 0.33201 0.07646 0.59729 0.0
O110 O 0.39272 0.39252 0.93829 0.0
Cd111 Cd 0.31218 0.33494 0.92844 0.0
O112 O 0.39822 0.43453 0.91078 0.0
Cd113 Cd 0.33085 0.38757 0.89656 0.0
O114 O 0.31136 0.36615 0.8645 0.0
C115 C 0.34186 0.36178 0.85431 0.0
O116 O 0.3793 0.36681 0.86386 0.0
C117 C 0.41615 0.42858 0.92711 0.0
C118 C 0.24132 0.33605 0.95134 0.0
O119 O 0.2579 0.30978 0.95664 0.0
O120 O 0.25879 0.36264 0.93552 0.0
O121 O 0.03058 0.4091 0.27563 0.0
Cd122 Cd 0.01818 0.33078 0.28251 0.0
O123 O 0.99273 0.38232 0.24687 0.0
Cd124 Cd 0.95612 0.36656 0.21708 0.0
O125 O 0.95956 0.35898 0.18237 0.0
C126 C 0.99551 0.35721 0.17643 0.0
O127 O 0.95796 0.35884 0.18145 0.0
C128 C 0.01766 0.41756 0.2584 0.0
C129 C 0.92906 0.26142 0.29452 0.0
O130 O 0.95983 0.28672 0.30806 0.0
O131 O 0.9396 0.26988 0.27532 0.0
C132 C 0.03297 0.53519 0.04459 0.0
C133 C 0.99748 0.53303 0.03156 0.0
C134 C 1.00057 0.47247 0.01093 0.0
C135 C 0.0286 0.46804 0.02653 0.0
N136 N 0.06431 0.49116 0.06063 0.0
N137 N 0.94596 0.49905 0.00232 0.0
C138 C 0.04361 0.49877 0.04388 0.0
C139 C 0.98119 0.50194 0.0145 0.0
N140 N 0.05642 0.57209 0.0578 0.0
N141 N 0.99317 0.44915 0.99262 0.0
H142 H 0.9317 0.5207 0.00434 0.0
H143 H 0.92898 0.47335 0.99109 0.0
H144 H 0.00801 0.42843 0.98938 0.0
H145 H 0.97643 0.45405 0.97999 0.0
H146 H 0.08569 0.57758 0.06627 0.0
H147 H 0.04986 0.59986 0.05851 0.0
H148 H 0.07084 0.50973 0.07443 0.0
H149 H 0.07003 0.46311 0.06194 0.0
C150 C 0.53134 0.04361 0.34537 0.0
C151 C 0.53841 0.00661 0.35193 0.0
C152 C 0.45597 0.96128 0.36267 0.0
C153 C 0.44753 0.99504 0.3531 0.0
N154 N 0.47643 0.06855 0.33521 0.0
N155 N 0.50706 0.92846 0.36557 0.0
C156 C 0.4851 0.0364 0.34449 0.0
C157 C 0.50083 0.96524 0.3606 0.0
N158 N 0.56917 0.08615 0.34062 0.0
N159 N 0.421 0.92516 0.37352 0.0
H160 H 0.53907 0.92959 0.3642 0.0
H161 H 0.47979 0.89547 0.36961 0.0
H162 H 0.38724 0.92007 0.37463 0.0
H163 H 0.42633 0.90241 0.38278 0.0
H164 H 0.56705 0.11601 0.33765 0.0
H165 H 0.60357 0.09283 0.34158 0.0
H166 H 0.50094 0.09629 0.3263 0.0
H167 H 0.44374 0.06629 0.33557 0.0
C168 C 0.4905 0.45766 0.67734 0.0
C169 C 0.44498 0.44715 0.68354 0.0
C170 C 0.47888 0.51912 0.70415 0.0
C171 C 0.52385 0.53165 0.69638 0.0
N172 N 0.57271 0.51621 0.6739 0.0
N173 N 0.39486 0.47135 0.69996 0.0
C174 C 0.52972 0.50194 0.68241 0.0
C175 C 0.43886 0.47867 0.69629 0.0
N176 N 0.49643 0.42448 0.6674 0.0
N177 N 0.4744 0.54579 0.71914 0.0
H178 H 0.36455 0.44267 0.6942 0.0
H179 H 0.38842 0.49572 0.70716 0.0
H180 H 0.50249 0.57701 0.72458 0.0
H181 H 0.44348 0.53537 0.72726 0.0
H182 H 0.52905 0.42807 0.66437 0.0
H183 H 0.46864 0.39134 0.66378 0.0
H184 H 0.57826 0.49862 0.66188 0.0
H185 H 0.60255 0.54762 0.67787 0.0
C186 C 0.52363 0.9948 0.61594 0.0
C187 C 0.54901 1.00104 0.59739 0.0
C188 C 0.49883 0.0238 0.57903 0.0
C189 C 0.47522 0.02101 0.5978 0.0
N190 N 0.47046 0.01196 0.63491 0.0
N191 N 0.57023 0.03553 0.56339 0.0
C192 C 0.48922 0.00892 0.61656 0.0
C193 C 0.53965 0.02018 0.57964 0.0
N194 N 0.53114 0.97392 0.63261 0.0
N195 N 0.4807 0.02657 0.56036 0.0
H196 H 0.60154 0.03493 0.56361 0.0
H197 H 0.56713 0.0537 0.55085 0.0
H198 H 0.449 0.02599 0.55875 0.0
H199 H 0.49437 0.02383 0.54624 0.0
H200 H 0.51024 0.96375 0.64579 0.0
H201 H 0.55663 0.96405 0.63268 0.0
H202 H 0.48235 0.0078 0.64927 0.0
H203 H 0.44565 0.02265 0.63585 0.0
C204 C 0.48388 0.48925 0.94841 0.0
C205 C 0.4669 0.46029 0.93067 0.0
C206 C 0.54316 0.50506 0.91394 0.0
C207 C 0.56133 0.5331 0.93201 0.0
N208 N 0.552 0.54447 0.96818 0.0
N209 N 0.48431 0.43096 0.89982 0.0
C210 C 0.53258 0.52287 0.94983 0.0
C211 C 0.49796 0.46501 0.91456 0.0
N212 N 0.45338 0.48613 0.96343 0.0
N213 N 0.56709 0.51829 0.89564 0.0
H214 H 0.45162 0.40047 0.90003 0.0
H215 H 0.5072 0.43058 0.88884 0.0
H216 H 0.59908 0.54886 0.89375 0.0
H217 H 0.55265 0.50151 0.88165 0.0
H218 H 0.46287 0.50988 0.97558 0.0
H219 H 0.41773 0.46151 0.96297 0.0
H220 H 0.53373 0.53544 0.98211 0.0
H221 H 0.58769 0.56827 0.96983 0.0
C222 C 0.04543 0.54142 0.26895 0.0
C223 C 0.0143 0.54402 0.25443 0.0
C224 C 0.00917 0.47685 0.23611 0.0
C225 C 0.02796 0.46657 0.25367 0.0
N226 N 0.09004 0.50408 0.27868 0.0
N227 N 0.96883 0.51568 0.22293 0.0
C228 C 0.05408 0.5034 0.26785 0.0
C229 C 0.99753 0.51277 0.23737 0.0
N230 N 0.06615 0.57499 0.28388 0.0
N231 N 0.00854 0.45688 0.21765 0.0
H232 H 0.95958 0.54156 0.22317 0.0
H233 H 0.952 0.49044 0.21148 0.0
H234 H 0.02511 0.43718 0.21599 0.0
H235 H 0.99847 0.46558 0.2038 0.0
H236 H 0.08386 0.57195 0.2966 0.0
H237 H 0.06463 0.60579 0.2838 0.0
H238 H 0.11258 0.53126 0.28837 0.0
H239 H 0.10147 0.48041 0.27568 0.0
C240 C 0.01046 0.39527 0.14114 0.0
C241 C 0.00942 0.36044 0.15442 0.0
C242 C 0.04387 0.33613 0.12684 0.0
C243 C 0.04094 0.36825 0.11322 0.0
N244 N 0.0091 0.41838 0.10577 0.0
N245 N 0.0188 0.29311 0.15916 0.0
C246 C 0.02024 0.39459 0.11987 0.0
C247 C 0.02424 0.32945 0.14702 0.0
N248 N 0.00582 0.43117 0.14894 0.0
N249 N 0.06717 0.31362 0.12086 0.0
H250 H 0.00524 0.28748 0.17414 0.0
H251 H 0.02417 0.26643 0.15384 0.0
H252 H 0.08149 0.31727 0.10614 0.0
H253 H 0.07523 0.29398 0.13092 0.0
H254 H 0.01077 0.45961 0.14002 0.0
H255 H 0.00292 0.43585 0.16469 0.0
H256 H 0.99008 0.43472 0.10959 0.0
H257 H 0.01411 0.41713 0.08991 0.0
C258 C 0.60328 0.94363 0.46793 0.0
C259 C 0.63787 0.98522 0.45824 0.0
C260 C 0.67933 0.01237 0.49135 0.0
C261 C 0.64147 0.9739 0.50143 0.0
N262 N 0.56335 0.90677 0.49975 0.0
N263 N 0.70574 0.06243 0.46111 0.0
C264 C 0.60242 0.94033 0.48985 0.0
C265 C 0.67534 0.02041 0.47001 0.0
N266 N 0.57206 0.90666 0.45618 0.0
N267 N 0.7195 0.04065 0.50209 0.0
H268 H 0.70358 0.07012 0.44563 0.0
H269 H 0.73052 0.09116 0.46948 0.0
H270 H 0.72371 0.03542 0.5177 0.0
H271 H 0.75007 0.06638 0.49513 0.0
H272 H 0.54927 0.87379 0.46234 0.0
H273 H 0.57209 0.90733 0.44004 0.0
H274 H 0.53198 0.88496 0.49211 0.0
H275 H 0.56061 0.90335 0.5158 0.0
C276 C 0.70991 0.70286 0.81149 0.0
C277 C 0.66793 0.6687 0.80186 0.0
C278 C 0.64277 0.62432 0.83417 0.0
C279 C 0.68733 0.65467 0.84295 0.0
N280 N 0.7649 0.72162 0.83989 0.0
N281 N 0.59726 0.59314 0.80294 0.0
C282 C 0.72129 0.694 0.83168 0.0
C283 C 0.63504 0.62845 0.81291 0.0
N284 N 0.73836 0.74391 0.80143 0.0
N285 N 0.60713 0.59262 0.84637 0.0
H286 H 0.58994 0.59448 0.78732 0.0
H287 H 0.57539 0.56069 0.80969 0.0
H288 H 0.61089 0.59006 0.86226 0.0
H289 H 0.57265 0.57269 0.84127 0.0
H290 H 0.76704 0.77226 0.80834 0.0
H291 H 0.73106 0.75095 0.78657 0.0
H292 H 0.79278 0.74781 0.83163 0.0
H293 H 0.77419 0.71633 0.85467 0.0
C294 C 0.00303 0.66026 0.17296 0.0
C295 C 0.0463 0.70226 0.17015 0.0
C296 C 0.03543 0.69534 0.13246 0.0
C297 C 0.99525 0.65046 0.13519 0.0
N298 N 0.94105 0.58883 0.15772 0.0
N299 N 0.09402 0.76809 0.14809 0.0
C300 C 0.97901 0.63259 0.15537 0.0
C301 C 0.05932 0.72242 0.15014 0.0
N302 N 0.9825 0.6496 0.19203 0.0
N303 N 0.05304 0.7106 0.11304 0.0
H304 H 0.11241 0.78916 0.16066 0.0
H305 H 0.10158 0.78667 0.13426 0.0
H306 H 0.03724 0.6919 0.09959 0.0
H307 H 0.08544 0.74009 0.11019 0.0
H308 H 0.94915 0.62149 0.19486 0.0
H309 H 0.99641 0.67239 0.20456 0.0
H310 H 0.93124 0.57139 0.17187 0.0
H311 H 0.92075 0.56877 0.14529 0.0
C312 C 0.32428 0.97463 0.47445 0.0
C313 C 0.35978 0.0116 0.46259 0.0
C314 C 0.39604 0.0554 0.49435 0.0
C315 C 0.35846 0.02024 0.50605 0.0
N316 N 0.28228 0.95082 0.507 0.0
N317 N 0.42303 0.09156 0.46079 0.0
C318 C 0.32117 0.98114 0.49601 0.0
C319 C 0.3938 0.05331 0.47241 0.0
N320 N 0.29498 0.93251 0.46536 0.0
N321 N 0.43508 0.08948 0.50411 0.0
H322 H 0.42192 0.09179 0.44466 0.0
H323 H 0.4451 0.12437 0.46718 0.0
H324 H 0.43894 0.09188 0.52015 0.0
H325 H 0.46555 0.11274 0.49626 0.0
H326 H 0.27184 0.90279 0.47367 0.0
H327 H 0.29667 0.92589 0.44971 0.0
H328 H 0.2519 0.92444 0.50015 0.0
H329 H 0.27872 0.95476 0.5228 0.0
C330 C 0.33719 0.31609 0.82265 0.0
C331 C 0.33815 0.35574 0.83157 0.0
C332 C 0.33603 0.3852 0.79699 0.0
C333 C 0.34123 0.34882 0.78811 0.0
N334 N 0.35306 0.28286 0.79248 0.0
N335 N 0.34626 0.43216 0.82733 0.0
C336 C 0.34318 0.31486 0.80092 0.0
C337 C 0.3394 0.39135 0.81879 0.0
N338 N 0.32949 0.27915 0.83491 0.0
N339 N 0.32639 0.41301 0.78466 0.0
H340 H 0.34953 0.43858 0.84321 0.0
H341 H 0.35294 0.46135 0.81857 0.0
H342 H 0.32273 0.40907 0.76863 0.0
H343 H 0.31739 0.43685 0.79047 0.0
H344 H 0.32358 0.24728 0.82908 0.0
H345 H 0.32461 0.2788 0.85088 0.0
H346 H 0.36005 0.26063 0.80129 0.0
H347 H 0.35835 0.28116 0.77668 0.0
C348 C 0.15804 0.29167 0.96344 0.0
C349 C 0.20153 0.33419 0.96278 0.0
C350 C 0.16761 0.37306 0.98276 0.0
C351 C 0.12589 0.32937 0.98531 0.0
N352 N 0.08409 0.24549 0.98109 0.0
N353 N 0.25027 0.41384 0.97421 0.0
C354 C 0.12173 0.28821 0.97641 0.0
C355 C 0.20702 0.37459 0.97303 0.0
N356 N 0.15079 0.25505 0.9511 0.0
N357 N 0.16906 0.41328 0.98902 0.0
H358 H 0.28001 0.41622 0.9674 0.0
H359 H 0.25753 0.44256 0.9834 0.0
H360 H 0.14072 0.41359 -0.00402 0.0
H361 H 0.19668 0.44657 0.98563 0.0
H362 H 0.11819 0.22509 0.94923 0.0
H363 H 0.17626 0.25631 0.94116 0.0
H364 H 0.08186 0.21397 0.97697 0.0
H365 H 0.05689 0.24122 0.9907 0.0
C366 C 0.8832 0.18226 0.31079 0.0
C367 C 0.88368 0.22089 0.30089 0.0
C368 C 0.79767 0.17901 0.30055 0.0
C369 C 0.79727 0.14141 0.31145 0.0
N370 N 0.8391 0.10901 0.32925 0.0
N371 N 0.8427 0.25974 0.28899 0.0
C372 C 0.8399 0.14378 0.31741 0.0
C373 C 0.84123 0.22024 0.29643 0.0
N374 N 0.92392 0.18105 0.31274 0.0
N375 N 0.75638 0.17517 0.29409 0.0
H376 H 0.87399 0.29051 0.28589 0.0
H377 H 0.81336 0.26349 0.28739 0.0
H378 H 0.72372 0.14704 0.29805 0.0
H379 H 0.7543 0.19857 0.28395 0.0
H380 H 0.92529 0.15164 0.31748 0.0
H381 H 0.9564 0.20821 0.30794 0.0
H382 H 0.86865 0.11175 0.33644 0.0
H383 H 0.80847 0.07825 0.33303 0.0
C384 C 0.65578 0.79046 0.64108 0.0
C385 C 0.65789 0.79661 0.66288 0.0
C386 C 0.66078 0.87162 0.65812 0.0
C387 C 0.66485 0.86823 0.63641 0.0
N388 N 0.67683 0.82856 0.60769 0.0
N389 N 0.67342 0.84845 0.69192 0.0
C390 C 0.66531 0.82879 0.62798 0.0
C391 C 0.66348 0.83872 0.67137 0.0
N392 N 0.64271 0.7476 0.63279 0.0
N393 N 0.65231 0.90494 0.66612 0.0
H394 H 0.67784 0.82637 0.70206 0.0
H395 H 0.68235 0.88075 0.69839 0.0
H396 H 0.64798 0.92849 0.65695 0.0
H397 H 0.64448 0.90581 0.68167 0.0
H398 H 0.63614 0.74033 0.61706 0.0
H399 H 0.63349 0.718 0.64178 0.0
H400 H 0.68218 0.80259 0.6014 0.0
H401 H 0.68604 0.85666 0.59771 0.0
C402 C 0.85393 0.70113 -0.00046 0.0
C403 C 0.85402 0.65819 -0.0006 0.0
C404 C 0.78707 0.62486 0.97557 0.0
C405 C 0.7899 0.6691 0.97423 0.0
N406 N 0.83235 0.75187 0.9815 0.0
N407 N 0.82698 0.58227 0.98413 0.0
C408 C 0.82513 0.708 0.98525 0.0
C409 C 0.82233 0.62085 0.98652 0.0
N410 N 0.8797 0.73463 0.01392 0.0
N411 N 0.7497 0.58623 0.96712 0.0
H412 H 0.85296 0.57842 0.99155 0.0
H413 H 0.80807 0.55622 0.97326 0.0
H414 H 0.72263 0.58743 0.95931 0.0
H415 H 0.74326 0.55233 0.96954 0.0
H416 H 0.87695 0.76438 0.01615 0.0
H417 H 0.90046 0.73071 0.02503 0.0
H418 H 0.86082 0.78209 0.98742 0.0
H419 H 0.81261 0.75859 0.97087 0.0
C420 C 0.18072 0.80116 0.31134 0.0
C421 C 0.18419 0.84564 0.30984 0.0
C422 C 0.10496 0.80944 0.29508 0.0
C423 C 0.09993 0.76459 0.29822 0.0
N424 N 0.13111 0.71667 0.31055 0.0
N425 N 0.14777 0.89211 0.3033 0.0
C426 C 0.13726 0.76015 0.30677 0.0
C427 C 0.14597 0.84986 0.30234 0.0
N428 N 0.21958 0.79838 0.31631 0.0
N429 N 0.07038 0.81347 0.28524 0.0
H430 H 0.17686 0.92255 0.30871 0.0
H431 H 0.11916 0.89651 0.30042 0.0
H432 H 0.03828 0.78484 0.28103 0.0
H433 H 0.07449 0.84517 0.28005 0.0
H434 H 0.22102 0.76767 0.31559 0.0
H435 H 0.25195 0.82772 0.31961 0.0
H436 H 0.15455 0.71083 0.31903 0.0
H437 H 0.10114 0.68588 0.30611 0.0
C438 C 0.2853 0.16924 0.62381 0.0
C439 C 0.32396 0.20442 0.63496 0.0
C440 C 0.35915 0.15433 0.637 0.0
C441 C 0.32296 0.12133 0.62398 0.0
N442 N 0.25262 0.09743 0.60401 0.0
N443 N 0.39955 0.23324 0.65094 0.0
C444 C 0.28632 0.12884 0.61711 0.0
C445 C 0.36122 0.19756 0.64144 0.0
N446 N 0.24672 0.17364 0.6204 0.0
N447 N 0.39161 0.1444 0.645 0.0
H448 H 0.40207 0.2652 0.65454 0.0
H449 H 0.43022 0.23268 0.65404 0.0
H450 H 0.39257 0.11421 0.64127 0.0
H451 H 0.41577 0.16443 0.65636 0.0
H452 H 0.2153 0.14708 0.6144 0.0
H453 H 0.24452 0.2026 0.6252 0.0
H454 H 0.22877 0.10386 0.5962 0.0
H455 H 0.24977 0.06553 0.60003 0.0
loop_
_geom_bond_atom_site_label_1
_geom_bond_atom_site_label_2
_geom_bond_distance
_geom_bond_site_symmetry_2
_ccdc_geom_bond_type
O0 Cd1 2.300 . S
O0 C7 1.275 . S
Cd1 O0 2.300 . S
Cd1 O9 2.381 . S
Cd1 O10 2.378 . S
O2 Cd3 2.385 . S
O2 C7 1.255 . S
Cd3 O2 2.385 . S
Cd3 O4 2.317 . S
O4 Cd3 2.317 . S
O4 C5 1.232 . S
C5 O4 1.232 . S
C5 O6 1.218 . S
O6 C5 1.218 . S
C7 O0 1.275 . S
C7 O2 1.255 . S
C8 O9 1.258 . S
C8 O10 1.256 . S
O9 Cd1 2.381 . S
O9 C8 1.258 . S
O10 Cd1 2.378 . S
O10 C8 1.256 . S
O11 Cd12 2.300 . S
O11 C18 1.275 . S
Cd12 O11 2.300 . S
Cd12 O20 2.381 . S
Cd12 O21 2.378 . S
O13 Cd14 2.385 . S
O13 C18 1.255 . S
Cd14 O13 2.385 . S
Cd14 O15 2.317 . S
O15 Cd14 2.317 . S
O15 C16 1.232 . S
C16 O15 1.232 . S
C16 O17 1.218 . S
O17 C16 1.218 . S
C18 O11 1.275 . S
C18 O13 1.255 . S
C19 O20 1.258 . S
C19 O21 1.256 . S
O20 Cd12 2.381 . S
O20 C19 1.258 . S
O21 Cd12 2.378 . S
O21 C19 1.256 . S
O22 Cd23 2.300 . S
O22 C29 1.275 . S
Cd23 O22 2.300 . S
Cd23 O31 2.381 . S
Cd23 O32 2.378 . S
O24 Cd25 2.385 . S
O24 C29 1.255 . S
Cd25 O24 2.385 . S
Cd25 O26 2.317 . S
O26 Cd25 2.317 . S
O26 C27 1.232 . S
C27 O26 1.232 . S
C27 O28 1.218 . S
O28 C27 1.218 . S
C29 O22 1.275 . S
C29 O24 1.255 . S
C30 O31 1.258 . S
C30 O32 1.256 . S
O31 Cd23 2.381 . S
O31 C30 1.258 . S
O32 Cd23 2.378 . S
O32 C30 1.256 . S
O33 Cd34 2.300 . S
O33 C40 1.275 . S
Cd34 O33 2.300 . S
Cd34 O42 2.381 . S
Cd34 O43 2.378 . S
O35 Cd36 2.385 . S
O35 C40 1.255 . S
Cd36 O35 2.385 . S
Cd36 O37 2.317 . S
O37 Cd36 2.317 . S
O37 C38 1.232 . S
C38 O37 1.232 . S
C38 O39 1.218 . S
O39 C38 1.218 . S
C40 O33 1.275 . S
C40 O35 1.255 . S
C41 O42 1.258 . S
C41 O43 1.256 . S
O42 Cd34 2.381 . S
O42 C41 1.258 . S
O43 Cd34 2.378 . S
O43 C41 1.256 . S
O44 Cd45 2.300 . S
O44 C51 1.275 . S
Cd45 O44 2.300 . S
Cd45 O53 2.381 . S
Cd45 O54 2.378 . S
O46 Cd47 2.385 . S
O46 C51 1.255 . S
Cd47 O46 2.385 . S
Cd47 O48 2.317 . S
O48 Cd47 2.317 . S
O48 C49 1.232 . S
C49 O48 1.232 . S
C49 O50 1.218 . S
O50 C49 1.218 . S
C51 O44 1.275 . S
C51 O46 1.255 . S
C52 O53 1.258 . S
C52 O54 1.256 . S
O53 Cd45 2.381 . S
O53 C52 1.258 . S
O54 Cd45 2.378 . S
O54 C52 1.256 . S
O55 Cd56 2.300 . S
O55 C62 1.275 . S
Cd56 O55 2.300 . S
Cd56 O64 2.381 . S
Cd56 O65 2.378 . S
O57 Cd58 2.385 . S
O57 C62 1.255 . S
Cd58 O57 2.385 . S
Cd58 O59 2.317 . S
O59 Cd58 2.317 . S
O59 C60 1.232 . S
C60 O59 1.232 . S
C60 O61 1.218 . S
O61 C60 1.218 . S
C62 O55 1.275 . S
C62 O57 1.255 . S
C63 O64 1.258 . S
C63 O65 1.256 . S
O64 Cd56 2.381 . S
O64 C63 1.258 . S
O65 Cd56 2.378 . S
O65 C63 1.256 . S
O66 Cd67 2.300 . S
O66 C73 1.275 . S
Cd67 O66 2.300 . S
Cd67 O75 2.381 . S
Cd67 O76 2.378 . S
O68 Cd69 2.385 . S
O68 C73 1.255 . S
Cd69 O68 2.385 . S
Cd69 O70 2.317 . S
O70 Cd69 2.317 . S
O70 C71 1.232 . S
C71 O70 1.232 . S
C71 O72 1.218 . S
O72 C71 1.218 . S
C73 O66 1.275 . S
C73 O68 1.255 . S
C74 O75 1.258 . S
C74 O76 1.256 . S
O75 Cd67 2.381 . S
O75 C74 1.258 . S
O76 Cd67 2.378 . S
O76 C74 1.256 . S
O77 Cd78 2.300 . S
O77 C84 1.275 . S
Cd78 O77 2.300 . S
Cd78 O86 2.381 . S
Cd78 O87 2.378 . S
O79 Cd80 2.385 . S
O79 C84 1.255 . S
Cd80 O79 2.385 . S
Cd80 O81 2.317 . S
O81 Cd80 2.317 . S
O81 C82 1.232 . S
C82 O81 1.232 . S
C82 O83 1.218 . S
O83 C82 1.218 . S
C84 O77 1.275 . S
C84 O79 1.255 . S
C85 O86 1.258 . S
C85 O87 1.256 . S
O86 Cd78 2.381 . S
O86 C85 1.258 . S
O87 Cd78 2.378 . S
O87 C85 1.256 . S
O88 Cd89 2.300 . S
O88 C95 1.275 . S
Cd89 O88 2.300 . S
Cd89 O97 2.381 . S
Cd89 O98 2.378 . S
O90 Cd91 2.385 . S
O90 C95 1.255 . S
Cd91 O90 2.385 . S
Cd91 O92 2.317 . S
O92 Cd91 2.317 . S
O92 C93 1.232 . S
C93 O92 1.232 . S
C93 O94 1.218 . S
O94 C93 1.218 . S
C95 O88 1.275 . S
C95 O90 1.255 . S
C96 O97 1.258 . S
C96 O98 1.256 . S
O97 Cd89 2.381 . S
O97 C96 1.258 . S
O98 Cd89 2.378 . S
O98 C96 1.256 . S
O99 Cd100 2.300 . S
O99 C106 1.275 . S
Cd100 O99 2.300 . S
Cd100 O108 2.381 . S
Cd100 O109 2.378 . S
O101 Cd102 2.385 . S
O101 C106 1.255 . S
Cd102 O101 2.385 . S
Cd102 O103 2.317 . S
O103 Cd102 2.317 . S
O103 C104 1.232 . S
C104 O103 1.232 . S
C104 O105 1.218 . S
O105 C104 1.218 . S
C106 O99 1.275 . S
C106 O101 1.255 . S
C107 O108 1.258 . S
C107 O109 1.256 . S
O108 Cd100 2.381 . S
O108 C107 1.258 . S
O109 Cd100 2.378 . S
O109 C107 1.256 . S
O110 Cd111 2.300 . S
O110 C117 1.275 . S
Cd111 O110 2.300 . S
Cd111 O119 2.381 . S
Cd111 O120 2.378 . S
O112 Cd113 2.385 . S
O112 C117 1.255 . S
Cd113 O112 2.385 . S
Cd113 O114 2.317 . S
O114 Cd113 2.317 . S
O114 C115 1.232 . S
C115 O114 1.232 . S
C115 O116 1.218 . S
O116 C115 1.218 . S
C117 O110 1.275 . S
C117 O112 1.255 . S
C118 O119 1.258 . S
C118 O120 1.256 . S
O119 Cd111 2.381 . S
O119 C118 1.258 . S
O120 Cd111 2.378 . S
O120 C118 1.256 . S
O121 Cd122 2.300 . S
O121 C128 1.275 . S
Cd122 O121 2.300 . S
Cd122 O130 2.381 . S
Cd122 O131 2.378 . S
O123 Cd124 2.385 . S
O123 C128 1.255 . S
Cd124 O123 2.385 . S
Cd124 O125 2.317 . S
O125 Cd124 2.317 . S
O125 C126 1.232 . S
C126 O125 1.232 . S
C126 O127 1.218 . S
O127 C126 1.218 . S
C128 O121 1.275 . S
C128 O123 1.255 . S
C129 O130 1.258 . S
C129 O131 1.256 . S
O130 Cd122 2.381 . S
O130 C129 1.258 . S
O131 Cd122 2.378 . S
O131 C129 1.256 . S
C132 C133 1.363 . S
C132 C138 1.379 . S
C132 N140 1.356 . S
C133 C132 1.363 . S
C133 C139 1.363 1_455 S
C134 C135 1.363 . S
C134 C139 1.379 . S
C134 N141 1.356 . S
C135 C134 1.363 . S
C135 C138 1.363 1_655 S
N136 C138 1.356 . S
N136 H148 0.984 . S
N136 H149 0.985 . S
N137 C139 1.356 . S
N137 H142 0.984 . S
N137 H143 0.985 . S
C138 C132 1.379 . S
C138 C135 1.363 1_455 S
C138 N136 1.356 . S
C139 C133 1.363 1_655 S
C139 C134 1.379 . S
C139 N137 1.356 . S
N140 C132 1.356 . S
N140 H146 0.984 . S
N140 H147 0.984 . S
N141 C134 1.356 . S
N141 H144 0.984 . S
N141 H145 0.985 . S
H142 N137 0.984 . S
H143 N137 0.985 . S
H144 N141 0.984 . S
H145 N141 0.985 . S
H146 N140 0.984 . S
H147 N140 0.984 . S
H148 N136 0.984 . S
H149 N136 0.985 . S
C150 C151 1.363 1_545 S
C150 C156 1.379 . S
C150 N158 1.356 . S
C151 C150 1.363 1_565 S
C151 C157 1.363 . S
C152 C153 1.363 1_565 S
C152 C157 1.379 . S
C152 N159 1.356 . S
C153 C152 1.363 1_545 S
C153 C156 1.363 . S
N154 C156 1.356 . S
N154 H166 0.984 . S
N154 H167 0.985 . S
N155 C157 1.356 . S
N155 H160 0.984 . S
N155 H161 0.985 . S
C156 C150 1.379 . S
C156 C153 1.363 . S
C156 N154 1.356 . S
C157 C151 1.363 . S
C157 C152 1.379 . S
C157 N155 1.356 . S
N158 C150 1.356 . S
N158 H164 0.984 . S
N158 H165 0.984 . S
N159 C152 1.356 . S
N159 H162 0.984 . S
N159 H163 0.985 . S
H160 N155 0.984 . S
H161 N155 0.985 . S
H162 N159 0.984 . S
H163 N159 0.985 . S
H164 N158 0.984 . S
H165 N158 0.984 . S
H166 N154 0.984 . S
H167 N154 0.985 . S
C168 C169 1.363 . S
C168 C174 1.379 . S
C168 N176 1.356 . S
C169 C168 1.363 . S
C169 C175 1.363 . S
C170 C171 1.363 . S
C170 C175 1.379 . S
C170 N177 1.356 . S
C171 C170 1.363 . S
C171 C174 1.363 . S
N172 C174 1.356 . S
N172 H184 0.984 . S
N172 H185 0.985 . S
N173 C175 1.356 . S
N173 H178 0.984 . S
N173 H179 0.985 . S
C174 C168 1.379 . S
C174 C171 1.363 . S
C174 N172 1.356 . S
C175 C169 1.363 . S
C175 C170 1.379 . S
C175 N173 1.356 . S
N176 C168 1.356 . S
N176 H182 0.984 . S
N176 H183 0.984 . S
N177 C170 1.356 . S
N177 H180 0.984 . S
N177 H181 0.985 . S
H178 N173 0.984 . S
H179 N173 0.985 . S
H180 N177 0.984 . S
H181 N177 0.985 . S
H182 N176 0.984 . S
H183 N176 0.984 . S
H184 N172 0.984 . S
H185 N172 0.985 . S
C186 C187 1.363 1_565 S
C186 C192 1.379 . S
C186 N194 1.356 . S
C187 C186 1.363 1_545 S
C187 C193 1.363 . S
C188 C189 1.363 1_545 S
C188 C193 1.379 . S
C188 N195 1.356 . S
C189 C188 1.363 1_565 S
C189 C192 1.363 . S
N190 C192 1.356 . S
N190 H202 0.984 . S
N190 H203 0.985 . S
N191 C193 1.356 . S
N191 H196 0.984 . S
N191 H197 0.985 . S
C192 C186 1.379 . S
C192 C189 1.363 . S
C192 N190 1.356 . S
C193 C187 1.363 . S
C193 C188 1.379 . S
C193 N191 1.356 . S
N194 C186 1.356 . S
N194 H200 0.984 . S
N194 H201 0.984 . S
N195 C188 1.356 . S
N195 H198 0.984 . S
N195 H199 0.985 . S
H196 N191 0.984 . S
H197 N191 0.985 . S
H198 N195 0.984 . S
H199 N195 0.985 . S
H200 N194 0.984 . S
H201 N194 0.984 . S
H202 N190 0.984 . S
H203 N190 0.985 . S
C204 C205 1.363 . S
C204 C210 1.379 . S
C204 N212 1.356 . S
C205 C204 1.363 . S
C205 C211 1.363 . S
C206 C207 1.363 . S
C206 C211 1.379 . S
C206 N213 1.356 . S
C207 C206 1.363 . S
C207 C210 1.363 . S
N208 C210 1.356 . S
N208 H220 0.984 . S
N208 H221 0.985 . S
N209 C211 1.356 . S
N209 H214 0.984 . S
N209 H215 0.985 . S
C210 C204 1.379 . S
C210 C207 1.363 . S
C210 N208 1.356 . S
C211 C205 1.363 . S
C211 C206 1.379 . S
C211 N209 1.356 . S
N212 C204 1.356 . S
N212 H218 0.984 . S
N212 H219 0.984 . S
N213 C206 1.356 . S
N213 H216 0.984 . S
N213 H217 0.985 . S
H214 N209 0.984 . S
H215 N209 0.985 . S
H216 N213 0.984 . S
H217 N213 0.985 . S
H218 N212 0.984 . S
H219 N212 0.984 . S
H220 N208 0.984 . S
H221 N208 0.985 . S
C222 C223 1.363 1_455 S
C222 C228 1.379 . S
C222 N230 1.356 . S
C223 C222 1.363 1_655 S
C223 C229 1.363 . S
C224 C225 1.363 1_655 S
C224 C229 1.379 . S
C224 N231 1.356 . S
C225 C224 1.363 1_455 S
C225 C228 1.363 . S
N226 C228 1.356 . S
N226 H238 0.984 . S
N226 H239 0.985 . S
N227 C229 1.356 . S
N227 H232 0.984 . S
N227 H233 0.985 . S
C228 C222 1.379 . S
C228 C225 1.363 . S
C228 N226 1.356 . S
C229 C223 1.363 . S
C229 C224 1.379 . S
C229 N227 1.356 . S
N230 C222 1.356 . S
N230 H236 0.984 . S
N230 H237 0.984 . S
N231 C224 1.356 . S
N231 H234 0.984 . S
N231 H235 0.985 . S
H232 N227 0.984 . S
H233 N227 0.985 . S
H234 N231 0.984 . S
H235 N231 0.985 . S
H236 N230 0.984 . S
H237 N230 0.984 . S
H238 N226 0.984 . S
H239 N226 0.985 . S
C240 C241 1.363 1_655 S
C240 C246 1.379 . S
C240 N248 1.349 . S
C241 C240 1.363 1_455 S
C241 C247 1.363 . S
C242 C243 1.363 1_455 S
C242 C247 1.379 . S
C242 N249 1.349 . S
C243 C242 1.363 1_655 S
C243 C246 1.363 . S
N244 C246 1.356 . S
N244 H256 0.984 . S
N244 H257 0.985 . S
N245 C247 1.356 . S
N245 H250 0.984 . S
N245 H251 0.985 . S
C246 C240 1.379 . S
C246 C243 1.363 . S
C246 N244 1.356 . S
C247 C241 1.363 . S
C247 C242 1.379 . S
C247 N245 1.356 . S
N248 C240 1.349 . S
N248 H254 0.998 . S
N248 H255 0.978 1_655 S
N249 C242 1.349 . S
N249 H252 0.978 1_455 S
N249 H253 1.000 . S
H250 N245 0.984 . S
H251 N245 0.985 . S
H252 N249 0.978 1_655 S
H253 N249 1.000 . S
H254 N248 0.998 . S
H255 N248 0.978 1_455 S
H256 N244 0.984 . S
H257 N244 0.985 . S
C258 C259 1.363 . S
C258 C264 1.379 . S
C258 N266 1.356 . S
C259 C258 1.363 . S
C259 C265 1.363 1_565 S
C260 C261 1.363 . S
C260 C265 1.379 . S
C260 N267 1.356 . S
C261 C260 1.363 . S
C261 C264 1.363 1_545 S
N262 C264 1.356 . S
N262 H274 0.984 . S
N262 H275 0.985 . S
N263 C265 1.356 . S
N263 H268 0.984 . S
N263 H269 0.985 . S
C264 C258 1.379 . S
C264 C261 1.363 1_565 S
C264 N262 1.356 . S
C265 C259 1.363 1_545 S
C265 C260 1.379 . S
C265 N263 1.356 . S
N266 C258 1.356 . S
N266 H272 0.984 . S
N266 H273 0.984 . S
N267 C260 1.356 . S
N267 H270 0.984 . S
N267 H271 0.985 . S
H268 N263 0.984 . S
H269 N263 0.985 . S
H270 N267 0.984 . S
H271 N267 0.985 . S
H272 N266 0.984 . S
H273 N266 0.984 . S
H274 N262 0.984 . S
H275 N262 0.985 . S
C276 C277 1.363 . S
C276 C282 1.379 . S
C276 N284 1.356 . S
C277 C276 1.363 . S
C277 C283 1.363 . S
C278 C279 1.363 . S
C278 C283 1.379 . S
C278 N285 1.356 . S
C279 C278 1.363 . S
C279 C282 1.363 . S
N280 C282 1.356 . S
N280 H292 0.984 . S
N280 H293 0.985 . S
N281 C283 1.356 . S
N281 H286 0.984 . S
N281 H287 0.985 . S
C282 C276 1.379 . S
C282 C279 1.363 . S
C282 N280 1.356 . S
C283 C277 1.363 . S
C283 C278 1.379 . S
C283 N281 1.356 . S
N284 C276 1.356 . S
N284 H290 0.984 . S
N284 H291 0.984 . S
N285 C278 1.356 . S
N285 H288 0.984 . S
N285 H289 0.985 . S
H286 N281 0.984 . S
H287 N281 0.985 . S
H288 N285 0.984 . S
H289 N285 0.985 . S
H290 N284 0.984 . S
H291 N284 0.984 . S
H292 N280 0.984 . S
H293 N280 0.985 . S
C294 C295 1.363 1_455 S
C294 C300 1.379 . S
C294 N302 1.352 . S
C295 C294 1.363 1_655 S
C295 C301 1.363 . S
C296 C297 1.363 1_655 S
C296 C301 1.379 . S
C296 N303 1.352 . S
C297 C296 1.363 1_455 S
C297 C300 1.363 . S
N298 C300 1.356 . S
N298 H310 0.984 . S
N298 H311 0.985 . S
N299 C301 1.356 . S
N299 H304 0.984 . S
N299 H305 0.985 . S
C300 C294 1.379 . S
C300 C297 1.363 . S
C300 N298 1.356 . S
C301 C295 1.363 . S
C301 C296 1.379 . S
C301 N299 1.356 . S
N302 C294 1.352 . S
N302 H308 0.993 . S
N302 H309 0.981 1_455 S
N303 C296 1.352 . S
N303 H306 0.980 1_655 S
N303 H307 0.993 . S
H304 N299 0.984 . S
H305 N299 0.985 . S
H306 N303 0.980 1_455 S
H307 N303 0.993 . S
H308 N302 0.993 . S
H309 N302 0.981 1_655 S
H310 N298 0.984 . S
H311 N298 0.985 . S
C312 C313 1.363 1_565 S
C312 C318 1.379 . S
C312 N320 1.356 . S
C313 C312 1.363 1_545 S
C313 C319 1.363 . S
C314 C315 1.363 1_545 S
C314 C319 1.379 . S
C314 N321 1.356 . S
C315 C314 1.363 1_565 S
C315 C318 1.363 . S
N316 C318 1.356 . S
N316 H328 0.984 . S
N316 H329 0.985 . S
N317 C319 1.356 . S
N317 H322 0.984 . S
N317 H323 0.985 . S
C318 C312 1.379 . S
C318 C315 1.363 . S
C318 N316 1.356 . S
C319 C313 1.363 . S
C319 C314 1.379 . S
C319 N317 1.356 . S
N320 C312 1.356 . S
N320 H326 0.984 . S
N320 H327 0.984 . S
N321 C314 1.356 . S
N321 H324 0.984 . S
N321 H325 0.985 . S
H322 N317 0.984 . S
H323 N317 0.985 . S
H324 N321 0.984 . S
H325 N321 0.985 . S
H326 N320 0.984 . S
H327 N320 0.984 . S
H328 N316 0.984 . S
H329 N316 0.985 . S
C330 C331 1.363 . S
C330 C336 1.379 . S
C330 N338 1.356 . S
C331 C330 1.363 . S
C331 C337 1.363 . S
C332 C333 1.363 . S
C332 C337 1.379 . S
C332 N339 1.356 . S
C333 C332 1.363 . S
C333 C336 1.363 . S
N334 C336 1.356 . S
N334 H346 0.984 . S
N334 H347 0.985 . S
N335 C337 1.356 . S
N335 H340 0.984 . S
N335 H341 0.985 . S
C336 C330 1.379 . S
C336 C333 1.363 . S
C336 N334 1.356 . S
C337 C331 1.363 . S
C337 C332 1.379 . S
C337 N335 1.356 . S
N338 C330 1.356 . S
N338 H344 0.984 . S
N338 H345 0.984 . S
N339 C332 1.356 . S
N339 H342 0.984 . S
N339 H343 0.985 . S
H340 N335 0.984 . S
H341 N335 0.985 . S
H342 N339 0.984 . S
H343 N339 0.985 . S
H344 N338 0.984 . S
H345 N338 0.984 . S
H346 N334 0.984 . S
H347 N334 0.985 . S
C348 C349 1.363 . S
C348 C354 1.379 . S
C348 N356 1.356 . S
C349 C348 1.363 . S
C349 C355 1.363 . S
C350 C351 1.363 . S
C350 C355 1.379 . S
C350 N357 1.356 1_556 S
C351 C350 1.363 . S
C351 C354 1.363 . S
N352 C354 1.356 . S
N352 H364 0.984 . S
N352 H365 0.985 . S
N353 C355 1.356 . S
N353 H358 0.984 . S
N353 H359 0.985 . S
C354 C348 1.379 . S
C354 C351 1.363 . S
C354 N352 1.356 . S
C355 C349 1.363 . S
C355 C350 1.379 . S
C355 N353 1.356 . S
N356 C348 1.356 . S
N356 H362 0.984 . S
N356 H363 0.984 . S
N357 C350 1.356 1_554 S
N357 H360 0.984 . S
N357 H361 0.985 . S
H358 N353 0.984 . S
H359 N353 0.985 . S
H360 N357 0.984 . S
H361 N357 0.985 . S
H362 N356 0.984 . S
H363 N356 0.984 . S
H364 N352 0.984 . S
H365 N352 0.985 . S
C366 C367 1.363 . S
C366 C372 1.379 . S
C366 N374 1.356 . S
C367 C366 1.363 . S
C367 C373 1.363 . S
C368 C369 1.363 . S
C368 C373 1.379 . S
C368 N375 1.356 . S
C369 C368 1.363 . S
C369 C372 1.363 . S
N370 C372 1.356 . S
N370 H382 0.984 . S
N370 H383 0.985 . S
N371 C373 1.356 . S
N371 H376 0.984 . S
N371 H377 0.985 . S
C372 C366 1.379 . S
C372 C369 1.363 . S
C372 N370 1.356 . S
C373 C367 1.363 . S
C373 C368 1.379 . S
C373 N371 1.356 . S
N374 C366 1.356 . S
N374 H380 0.984 . S
N374 H381 0.984 . S
N375 C368 1.356 . S
N375 H378 0.984 . S
N375 H379 0.985 . S
H376 N371 0.984 . S
H377 N371 0.985 . S
H378 N375 0.984 . S
H379 N375 0.985 . S
H380 N374 0.984 . S
H381 N374 0.984 . S
H382 N370 0.984 . S
H383 N370 0.985 . S
C384 C385 1.363 . S
C384 C390 1.379 . S
C384 N392 1.356 . S
C385 C384 1.363 . S
C385 C391 1.363 . S
C386 C387 1.363 . S
C386 C391 1.379 . S
C386 N393 1.356 . S
C387 C386 1.363 . S
C387 C390 1.363 . S
N388 C390 1.356 . S
N388 H400 0.984 . S
N388 H401 0.985 . S
N389 C391 1.356 . S
N389 H394 0.984 . S
N389 H395 0.985 . S
C390 C384 1.379 . S
C390 C387 1.363 . S
C390 N388 1.356 . S
C391 C385 1.363 . S
C391 C386 1.379 . S
C391 N389 1.356 . S
N392 C384 1.356 . S
N392 H398 0.984 . S
N392 H399 0.984 . S
N393 C386 1.356 . S
N393 H396 0.984 . S
N393 H397 0.985 . S
H394 N389 0.984 . S
H395 N389 0.985 . S
H396 N393 0.984 . S
H397 N393 0.985 . S
H398 N392 0.984 . S
H399 N392 0.984 . S
H400 N388 0.984 . S
H401 N388 0.985 . S
C402 C403 1.363 . S
C402 C408 1.379 . S
C402 N410 1.356 1_556 S
C403 C402 1.363 . S
C403 C409 1.363 . S
C404 C405 1.363 . S
C404 C409 1.379 . S
C404 N411 1.356 . S
C405 C404 1.363 . S
C405 C408 1.363 . S
N406 C408 1.356 . S
N406 H418 0.984 . S
N406 H419 0.985 . S
N407 C409 1.356 . S
N407 H412 0.984 . S
N407 H413 0.985 . S
C408 C402 1.379 . S
C408 C405 1.363 . S
C408 N406 1.356 . S
C409 C403 1.363 . S
C409 C404 1.379 . S
C409 N407 1.356 . S
N410 C402 1.356 1_554 S
N410 H416 0.984 . S
N410 H417 0.984 . S
N411 C404 1.356 . S
N411 H414 0.984 . S
N411 H415 0.985 . S
H412 N407 0.984 . S
H413 N407 0.985 . S
H414 N411 0.984 . S
H415 N411 0.985 . S
H416 N410 0.984 . S
H417 N410 0.984 . S
H418 N406 0.984 . S
H419 N406 0.985 . S
C420 C421 1.363 . S
C420 C426 1.379 . S
C420 N428 1.356 . S
C421 C420 1.363 . S
C421 C427 1.363 . S
C422 C423 1.363 . S
C422 C427 1.379 . S
C422 N429 1.356 . S
C423 C422 1.363 . S
C423 C426 1.363 . S
N424 C426 1.356 . S
N424 H436 0.984 . S
N424 H437 0.985 . S
N425 C427 1.356 . S
N425 H430 0.984 . S
N425 H431 0.985 . S
C426 C420 1.379 . S
C426 C423 1.363 . S
C426 N424 1.356 . S
C427 C421 1.363 . S
C427 C422 1.379 . S
C427 N425 1.356 . S
N428 C420 1.356 . S
N428 H434 0.984 . S
N428 H435 0.984 . S
N429 C422 1.356 . S
N429 H432 0.984 . S
N429 H433 0.985 . S
H430 N425 0.984 . S
H431 N425 0.985 . S
H432 N429 0.984 . S
H433 N429 0.985 . S
H434 N428 0.984 . S
H435 N428 0.984 . S
H436 N424 0.984 . S
H437 N424 0.985 . S
C438 C439 1.363 . S
C438 C444 1.379 . S
C438 N446 1.356 . S
C439 C438 1.363 . S
C439 C445 1.363 . S
C440 C441 1.363 . S
C440 C445 1.379 . S
C440 N447 1.356 . S
C441 C440 1.363 . S
C441 C444 1.363 . S
N442 C444 1.356 . S
N442 H454 0.984 . S
N442 H455 0.985 . S
N443 C445 1.356 . S
N443 H448 0.984 . S
N443 H449 0.985 . S
C444 C438 1.379 . S
C444 C441 1.363 . S
C444 N442 1.356 . S
C445 C439 1.363 . S
C445 C440 1.379 . S
C445 N443 1.356 . S
N446 C438 1.356 . S
N446 H452 0.984 . S
N446 H453 0.984 . S
N447 C440 1.356 . S
N447 H450 0.984 . S
N447 H451 0.985 . S
H448 N443 0.984 . S
H449 N443 0.985 . S
H450 N447 0.984 . S
H451 N447 0.985 . S
H452 N446 0.984 . S
H453 N446 0.984 . S
H454 N442 0.984 . S
H455 N442 0.985 . S
C133 C40 1.536 1_455 S
C135 C7 1.536 1_655 S
C151 C18 1.536 1_565 S
C153 C51 1.536 1_545 S
C169 C62 1.536 . S
C171 C29 1.536 . S
C187 C73 1.536 1_545 S
C189 C106 1.536 1_565 S
C205 C117 1.536 . S
C207 C84 1.536 . S
C223 C95 1.536 1_655 S
C225 C128 1.536 1_455 S
C241 C126 1.272 1_455 S
C243 C5 1.273 1_655 S
C259 C16 1.273 1_565 S
C261 C71 1.273 1_545 S
C277 C27 1.273 . S
C279 C82 1.273 . S
C295 C93 1.273 1_655 S
C297 C38 1.273 1_455 S
C313 C49 1.273 1_545 S
C315 C104 1.273 1_565 S
C331 C115 1.273 . S
C333 C60 1.273 . S
C349 C118 1.607 . S
C351 C8 1.607 1_556 S
C367 C129 1.607 . S
C369 C19 1.607 . S
C385 C30 1.607 . S
C387 C74 1.607 . S
C403 C41 1.607 1_556 S
C405 C85 1.607 . S
C421 C52 1.607 . S
C423 C96 1.607 . S
C439 C63 1.607 . S
C441 C107 1.607 . S
