# Generated by pormake.
# Topology sxg, (6)-cn, num edge types: 1
# Building blocks:
#     Node 0, Type 0, BuildingBlock: IZENUY_clean_sbu_0, # of connection points: 6
#     Node 1, Type 0, BuildingBlock: IZENUY_clean_sbu_0, # of connection points: 6
#     Node 2, Type 0, BuildingBlock: IZENUY_clean_sbu_0, # of connection points: 6
#     Node 3, Type 0, BuildingBlock: IZENUY_clean_sbu_0, # of connection points: 6
#     Node 4, Type 0, BuildingBlock: IZENUY_clean_sbu_0, # of connection points: 6
#     Node 5, Type 0, BuildingBlock: IZENUY_clean_sbu_0, # of connection points: 6
#     Node 6, Type 0, BuildingBlock: IZENUY_clean_sbu_0, # of connection points: 6
#     Node 7, Type 0, BuildingBlock: IZENUY_clean_sbu_0, # of connection points: 6
#     Node 8, Type 0, BuildingBlock: IZENUY_clean_sbu_0, # of connection points: 6
#     Node 9, Type 0, BuildingBlock: IZENUY_clean_sbu_0, # of connection points: 6
#     Node 10, Type 0, BuildingBlock: IZENUY_clean_sbu_0, # of connection points: 6
#     Node 11, Type 0, BuildingBlock: IZENUY_clean_sbu_0, # of connection points: 6
#     Node 12, Type 0, BuildingBlock: IZENUY_clean_sbu_0, # of connection points: 6
#     Node 13, Type 0, BuildingBlock: IZENUY_clean_sbu_0, # of connection points: 6
#     Node 14, Type 0, BuildingBlock: IZENUY_clean_sbu_0, # of connection points: 6
#     Node 15, Type 0, BuildingBlock: IZENUY_clean_sbu_0, # of connection points: 6
#     Node 16, Type 0, BuildingBlock: IZENUY_clean_sbu_0, # of connection points: 6
#     Node 17, Type 0, BuildingBlock: IZENUY_clean_sbu_0, # of connection points: 6
#     Node 18, Type 0, BuildingBlock: IZENUY_clean_sbu_0, # of connection points: 6
#     Node 19, Type 0, BuildingBlock: IZENUY_clean_sbu_0, # of connection points: 6
#     Node 20, Type 0, BuildingBlock: IZENUY_clean_sbu_0, # of connection points: 6
#     Node 21, Type 0, BuildingBlock: IZENUY_clean_sbu_0, # of connection points: 6
#     Node 22, Type 0, BuildingBlock: IZENUY_clean_sbu_0, # of connection points: 6
#     Node 23, Type 0, BuildingBlock: IZENUY_clean_sbu_0, # of connection points: 6
#     Edge 24, Type (0, 0), BuildingBlock: OJICUG_clean_linker_0, # of connection points: 2
#     Edge 25, Type (0, 0), BuildingBlock: OJICUG_clean_linker_0, # of connection points: 2
#     Edge 26, Type (0, 0), BuildingBlock: OJICUG_clean_linker_0, # of connection points: 2
#     Edge 27, Type (0, 0), BuildingBlock: OJICUG_clean_linker_0, # of connection points: 2
#     Edge 28, Type (0, 0), BuildingBlock: OJICUG_clean_linker_0, # of connection points: 2
#     Edge 29, Type (0, 0), BuildingBlock: OJICUG_clean_linker_0, # of connection points: 2
#     Edge 30, Type (0, 0), BuildingBlock: OJICUG_clean_linker_0, # of connection points: 2
#     Edge 31, Type (0, 0), BuildingBlock: OJICUG_clean_linker_0, # of connection points: 2
#     Edge 32, Type (0, 0), BuildingBlock: OJICUG_clean_linker_0, # of connection points: 2
#     Edge 33, Type (0, 0), BuildingBlock: OJICUG_clean_linker_0, # of connection points: 2
#     Edge 34, Type (0, 0), BuildingBlock: OJICUG_clean_linker_0, # of connection points: 2
#     Edge 35, Type (0, 0), BuildingBlock: OJICUG_clean_linker_0, # of connection points: 2
#     Edge 36, Type (0, 0), BuildingBlock: OJICUG_clean_linker_0, # of connection points: 2
#     Edge 37, Type (0, 0), BuildingBlock: OJICUG_clean_linker_0, # of connection points: 2
#     Edge 38, Type (0, 0), BuildingBlock: OJICUG_clean_linker_0, # of connection points: 2
#     Edge 39, Type (0, 0), BuildingBlock: OJICUG_clean_linker_0, # of connection points: 2
#     Edge 40, Type (0, 0), BuildingBlock: OJICUG_clean_linker_0, # of connection points: 2
#     Edge 41, Type (0, 0), BuildingBlock: OJICUG_clean_linker_0, # of connection points: 2
#     Edge 42, Type (0, 0), BuildingBlock: OJICUG_clean_linker_0, # of connection points: 2
#     Edge 43, Type (0, 0), BuildingBlock: OJICUG_clean_linker_0, # of connection points: 2
#     Edge 44, Type (0, 0), BuildingBlock: OJICUG_clean_linker_0, # of connection points: 2
#     Edge 45, Type (0, 0), BuildingBlock: OJICUG_clean_linker_0, # of connection points: 2
#     Edge 46, Type (0, 0), BuildingBlock: OJICUG_clean_linker_0, # of connection points: 2
#     Edge 47, Type (0, 0), BuildingBlock: OJICUG_clean_linker_0, # of connection points: 2
#     Edge 48, Type (0, 0), BuildingBlock: OJICUG_clean_linker_0, # of connection points: 2
#     Edge 49, Type (0, 0), BuildingBlock: OJICUG_clean_linker_0, # of connection points: 2
#     Edge 50, Type (0, 0), BuildingBlock: OJICUG_clean_linker_0, # of connection points: 2
#     Edge 51, Type (0, 0), BuildingBlock: OJICUG_clean_linker_0, # of connection points: 2
#     Edge 52, Type (0, 0), BuildingBlock: OJICUG_clean_linker_0, # of connection points: 2
#     Edge 53, Type (0, 0), BuildingBlock: OJICUG_clean_linker_0, # of connection points: 2
#     Edge 54, Type (0, 0), BuildingBlock: OJICUG_clean_linker_0, # of connection points: 2
#     Edge 55, Type (0, 0), BuildingBlock: OJICUG_clean_linker_0, # of connection points: 2
#     Edge 56, Type (0, 0), BuildingBlock: OJICUG_clean_linker_0, # of connection points: 2
#     Edge 57, Type (0, 0), BuildingBlock: OJICUG_clean_linker_0, # of connection points: 2
#     Edge 58, Type (0, 0), BuildingBlock: OJICUG_clean_linker_0, # of connection points: 2
#     Edge 59, Type (0, 0), BuildingBlock: OJICUG_clean_linker_0, # of connection points: 2
#     Edge 60, Type (0, 0), BuildingBlock: OJICUG_clean_linker_0, # of connection points: 2
#     Edge 61, Type (0, 0), BuildingBlock: OJICUG_clean_linker_0, # of connection points: 2
#     Edge 62, Type (0, 0), BuildingBlock: OJICUG_clean_linker_0, # of connection points: 2
#     Edge 63, Type (0, 0), BuildingBlock: OJICUG_clean_linker_0, # of connection points: 2
#     Edge 64, Type (0, 0), BuildingBlock: OJICUG_clean_linker_0, # of connection points: 2
#     Edge 65, Type (0, 0), BuildingBlock: OJICUG_clean_linker_0, # of connection points: 2
#     Edge 66, Type (0, 0), BuildingBlock: OJICUG_clean_linker_0, # of connection points: 2
#     Edge 67, Type (0, 0), BuildingBlock: OJICUG_clean_linker_0, # of connection points: 2
#     Edge 68, Type (0, 0), BuildingBlock: OJICUG_clean_linker_0, # of connection points: 2
#     Edge 69, Type (0, 0), BuildingBlock: OJICUG_clean_linker_0, # of connection points: 2
#     Edge 70, Type (0, 0), BuildingBlock: OJICUG_clean_linker_0, # of connection points: 2
#     Edge 71, Type (0, 0), BuildingBlock: OJICUG_clean_linker_0, # of connection points: 2
#     Edge 72, Type (0, 0), BuildingBlock: OJICUG_clean_linker_0, # of connection points: 2
#     Edge 73, Type (0, 0), BuildingBlock: OJICUG_clean_linker_0, # of connection points: 2
#     Edge 74, Type (0, 0), BuildingBlock: OJICUG_clean_linker_0, # of connection points: 2
#     Edge 75, Type (0, 0), BuildingBlock: OJICUG_clean_linker_0, # of connection points: 2
#     Edge 76, Type (0, 0), BuildingBlock: OJICUG_clean_linker_0, # of connection points: 2
#     Edge 77, Type (0, 0), BuildingBlock: OJICUG_clean_linker_0, # of connection points: 2
#     Edge 78, Type (0, 0), BuildingBlock: OJICUG_clean_linker_0, # of connection points: 2
#     Edge 79, Type (0, 0), BuildingBlock: OJICUG_clean_linker_0, # of connection points: 2
#     Edge 80, Type (0, 0), BuildingBlock: OJICUG_clean_linker_0, # of connection points: 2
#     Edge 81, Type (0, 0), BuildingBlock: OJICUG_clean_linker_0, # of connection points: 2
#     Edge 82, Type (0, 0), BuildingBlock: OJICUG_clean_linker_0, # of connection points: 2
#     Edge 83, Type (0, 0), BuildingBlock: OJICUG_clean_linker_0, # of connection points: 2
#     Edge 84, Type (0, 0), BuildingBlock: OJICUG_clean_linker_0, # of connection points: 2
#     Edge 85, Type (0, 0), BuildingBlock: OJICUG_clean_linker_0, # of connection points: 2
#     Edge 86, Type (0, 0), BuildingBlock: OJICUG_clean_linker_0, # of connection points: 2
#     Edge 87, Type (0, 0), BuildingBlock: OJICUG_clean_linker_0, # of connection points: 2
#     Edge 88, Type (0, 0), BuildingBlock: OJICUG_clean_linker_0, # of connection points: 2
#     Edge 89, Type (0, 0), BuildingBlock: OJICUG_clean_linker_0, # of connection points: 2
#     Edge 90, Type (0, 0), BuildingBlock: OJICUG_clean_linker_0, # of connection points: 2
#     Edge 91, Type (0, 0), BuildingBlock: OJICUG_clean_linker_0, # of connection points: 2
#     Edge 92, Type (0, 0), BuildingBlock: OJICUG_clean_linker_0, # of connection points: 2
#     Edge 93, Type (0, 0), BuildingBlock: OJICUG_clean_linker_0, # of connection points: 2
#     Edge 94, Type (0, 0), BuildingBlock: OJICUG_clean_linker_0, # of connection points: 2
#     Edge 95, Type (0, 0), BuildingBlock: OJICUG_clean_linker_0, # of connection points: 2
# Relax obj value: 0.224
# Max RMSD: 0.256
# Mean RMSD: 0.255
data_MOF--net-sxg--node1-IZENUY_clean_sbu_0--edge1-OJICUG_clean_linker_0
_symmetry_space_group_name_H-M    P1
_symmetry_Int_Tables_number       1
_symmetry_cell_setting            triclinic
loop_
_symmetry_equiv_pos_as_xyz
'x, y, z'
_cell_length_a     32.979116
_cell_length_b     33.020814
_cell_length_c     32.940998
_cell_angle_alpha  89.877682
_cell_angle_beta   89.998787
_cell_angle_gamma 90.026585
loop_
_atom_site_label
_atom_site_type_symbol
_atom_site_fract_x
_atom_site_fract_y
_atom_site_fract_z
_atom_type_partial_charge
Fe0 Fe 0.09521 0.39742 0.18052 0.0
Fe1 Fe 0.07171 0.37515 0.26846 0.0
O2 O 0.08186 0.36091 0.21778 0.0
Fe3 Fe 0.07993 0.30929 0.20425 0.0
O4 O 0.03905 0.31836 0.16911 0.0
O5 O 0.07 0.36929 0.13854 0.0
O6 O 0.0481 0.42357 0.18695 0.0
C7 C 0.03362 0.43645 0.21977 0.0
C8 C 0.14815 0.3376 0.16202 0.0
O9 O 0.04679 0.42377 0.25395 0.0
C10 C 0.11907 0.30276 0.27563 0.0
O11 O 0.12235 0.43144 0.21611 0.0
O12 O 0.1211 0.39807 0.27384 0.0
O13 O 0.11839 0.3134 0.16396 0.0
O14 O 0.14385 0.37395 0.17188 0.0
C15 C 0.0168 0.315 0.26388 0.0
O16 O 0.09465 0.32837 0.29118 0.0
O17 O 0.121 0.29858 0.23785 0.0
C18 C 0.13733 0.42392 0.25088 0.0
O19 O 0.02169 0.35266 0.26697 0.0
O20 O 0.04184 0.29439 0.24321 0.0
C21 C 0.04281 0.34167 0.13893 0.0
Fe22 Fe 0.43816 0.63615 0.67995 0.0
Fe23 Fe 0.46411 0.65682 0.76729 0.0
O24 O 0.45146 0.67233 0.71741 0.0
Fe25 Fe 0.45119 0.72449 0.70529 0.0
O26 O 0.49003 0.71801 0.66733 0.0
O27 O 0.46102 0.66574 0.63746 0.0
O28 O 0.4863 0.61139 0.6843 0.0
C29 C 0.50134 0.59727 0.71635 0.0
C30 C 0.38207 0.69432 0.6649 0.0
O31 O 0.48839 0.60852 0.75101 0.0
C32 C 0.41688 0.72843 0.77931 0.0
O33 O 0.41294 0.60082 0.71615 0.0
O34 O 0.41494 0.63343 0.77425 0.0
O35 O 0.40991 0.72069 0.66766 0.0
O36 O 0.38879 0.65794 0.67307 0.0
C37 C 0.51843 0.71755 0.76054 0.0
O38 O 0.4427 0.70289 0.79236 0.0
O39 O 0.41202 0.73345 0.74192 0.0
C40 C 0.39848 0.60764 0.75136 0.0
O41 O 0.51376 0.67978 0.76355 0.0
O42 O 0.49192 0.73857 0.74193 0.0
C43 C 0.48685 0.69461 0.6373 0.0
Fe44 Fe 0.56977 0.15495 0.76916 0.0
Fe45 Fe 0.58306 0.22391 0.82933 0.0
O46 O 0.58279 0.17159 0.81851 0.0
Fe47 Fe 0.59656 0.13646 0.85687 0.0
O48 O 0.54825 0.11187 0.85375 0.0
O49 O 0.54498 0.10747 0.78719 0.0
O50 O 0.5203 0.17857 0.7721 0.0
C51 C 0.51646 0.21651 0.77345 0.0
C52 C 0.63559 0.10624 0.78626 0.0
O53 O 0.54293 0.23752 0.79193 0.0
C54 C 0.65237 0.19519 0.87 0.0
O55 O 0.59184 0.20006 0.74286 0.0
O56 O 0.6224 0.23171 0.7927 0.0
O57 O 0.62138 0.10014 0.82169 0.0
O58 O 0.61862 0.13105 0.76266 0.0
C59 C 0.54756 0.19525 0.89789 0.0
O60 O 0.62396 0.22091 0.86735 0.0
O61 O 0.64607 0.15858 0.86256 0.0
C62 C 0.61765 0.22588 0.75538 0.0
O63 O 0.54395 0.21805 0.86729 0.0
O64 O 0.5741 0.16709 0.8985 0.0
C65 C 0.53186 0.09788 0.82236 0.0
Fe66 Fe 0.9628 0.87696 0.26643 0.0
Fe67 Fe 0.95479 0.81144 0.33123 0.0
O68 O 0.95307 0.863 0.31736 0.0
Fe69 Fe 0.94023 0.89967 0.35445 0.0
O70 O 0.98723 0.92565 0.34724 0.0
O71 O 0.98799 0.92559 0.28023 0.0
O72 O 1.01277 0.85429 0.2676 0.0
C73 C 0.01738 0.81658 0.27069 0.0
C74 C 0.89725 0.92564 0.28434 0.0
O75 O 0.9924 0.79617 0.29182 0.0
C76 C 0.88727 0.84026 0.37433 0.0
O77 O 0.93951 0.83012 0.24442 0.0
O78 O 0.91318 0.80111 0.29826 0.0
O79 O 0.91262 0.93348 0.31886 0.0
O80 O 0.91343 0.89989 0.26138 0.0
C81 C 0.99302 0.84387 0.39572 0.0
O82 O 0.9168 0.81582 0.37203 0.0
O83 O 0.89166 0.87646 0.36396 0.0
C84 C 0.91506 0.80473 0.26043 0.0
O85 O 0.99613 0.82032 0.36576 0.0
O86 O 0.966 0.87165 0.39631 0.0
C87 C 1.00139 0.93842 0.31421 0.0
Fe88 Fe 0.20633 0.08087 0.30984 0.0
Fe89 Fe 0.18084 0.09295 0.39836 0.0
O90 O 0.21839 0.07998 0.36207 0.0
Fe91 Fe 0.26831 0.06746 0.37735 0.0
O92 O 0.26517 0.01818 0.35343 0.0
O93 O 0.2436 0.04127 0.29501 0.0
O94 O 0.16894 0.04148 0.31603 0.0
C95 C 0.13882 0.04451 0.33946 0.0
C96 C 0.27985 0.11575 0.30598 0.0
O97 O 0.13879 0.07006 0.36853 0.0
C98 C 0.25161 0.13283 0.42671 0.0
O99 O 0.16801 0.12122 0.31396 0.0
O100 O 0.17372 0.14252 0.37656 0.0
O101 O 0.29317 0.08995 0.33149 0.0
O102 O 0.24239 0.12065 0.30165 0.0
C103 C 0.21746 0.02944 0.43708 0.0
O104 O 0.21664 0.11809 0.43377 0.0
O105 O 0.27485 0.11623 0.40134 0.0
C106 C 0.16533 0.14916 0.34011 0.0
O107 O 0.18538 0.04473 0.42328 0.0
O108 O 0.25209 0.04225 0.42545 0.0
C109 C 0.26268 1.01469 0.31539 0.0
Fe110 Fe 0.26445 0.95461 0.87898 0.0
Fe111 Fe 0.32664 0.95468 0.80968 0.0
O112 O 0.31513 0.94862 0.86202 0.0
Fe113 Fe 0.35419 0.93523 0.89716 0.0
O114 O 0.33282 0.96465 0.93912 0.0
O115 O 0.28014 0.99589 0.91267 0.0
O116 O 0.25135 0.99319 0.84151 0.0
C117 C 0.27144 0.01591 0.81803 0.0
C118 C 0.29121 0.8869 0.92435 0.0
O119 O 0.30763 1.00703 0.80794 0.0
C120 C 0.36858 0.88504 0.83102 0.0
O121 O 0.2459 0.91391 0.84528 0.0
O122 O 0.27839 0.93703 0.79181 0.0
O123 O 0.32773 0.889 0.91301 0.0
O124 O 0.26775 0.91684 0.91968 0.0
C125 C 0.39509 0.98938 0.8482 0.0
O126 O 0.34364 0.90219 0.8075 0.0
O127 O 0.38246 0.90347 0.8615 0.0
C128 C 0.25308 0.91336 0.80742 0.0
O129 O 0.37803 0.97385 0.81765 0.0
O130 O 0.38391 0.98003 0.88377 0.0
C131 C 0.30893 0.99462 0.93822 0.0
Fe132 Fe 0.76467 0.45725 0.65619 0.0
Fe133 Fe 0.70035 0.44717 0.72183 0.0
O134 O 0.71378 0.44723 0.6701 0.0
Fe135 Fe 0.67671 0.43545 0.63301 0.0
O136 O 0.68382 0.48317 0.60845 0.0
O137 O 0.75067 0.48275 0.6075 0.0
O138 O 0.76312 0.50688 0.67929 0.0
C139 C 0.75995 0.51103 0.71716 0.0
C140 C 0.74658 0.39257 0.60657 0.0
O141 O 0.73918 0.48551 0.73744 0.0
C142 C 0.65748 0.38022 0.69079 0.0
O143 O 0.78739 0.43421 0.70322 0.0
O144 O 0.73409 0.40594 0.73032 0.0
O145 O 0.71248 0.40879 0.5985 0.0
O146 O 0.76958 0.40799 0.6329 0.0
C147 C 0.63526 0.48613 0.69057 0.0
O148 O 0.66042 0.40817 0.71698 0.0
O149 O 0.66732 0.38639 0.65468 0.0
C150 C 0.77175 0.40984 0.72892 0.0
O151 O 0.66491 0.48803 0.71469 0.0
O152 O 0.63477 0.46026 0.66171 0.0
C153 C 0.71677 0.49706 0.59541 0.0
Fe154 Fe 0.83013 0.5811 0.2263 0.0
Fe155 Fe 0.85597 0.59555 0.13814 0.0
O156 O 0.81819 0.58197 0.17405 0.0
Fe157 Fe 0.76816 0.57052 0.15831 0.0
O158 O 0.77065 0.52053 0.18078 0.0
O159 O 0.79225 0.54144 0.2399 0.0
O160 O 0.86712 0.54152 0.21911 0.0
C161 C 0.89731 0.54483 0.19578 0.0
C162 C 0.75703 0.61707 0.23052 0.0
O163 O 0.89772 0.57125 0.16738 0.0
C164 C 0.78594 0.63757 0.11134 0.0
O165 O 0.86888 0.62126 0.22327 0.0
O166 O 0.86364 0.64419 0.16108 0.0
O167 O 0.74343 0.59199 0.20456 0.0
O168 O 0.79452 0.62095 0.23562 0.0
C169 C 0.81871 0.53333 0.09832 0.0
O170 O 0.82049 0.62231 0.10343 0.0
O171 O 0.76231 0.62011 0.1358 0.0
C172 C 0.87198 0.64979 0.19765 0.0
O173 O 0.8509 0.54818 0.11219 0.0
O174 O 0.7842 0.5465 0.10973 0.0
C175 C 0.77283 0.5158 0.21868 0.0
Fe176 Fe 0.31112 0.19708 0.08222 0.0
Fe177 Fe 0.40022 0.17509 0.0946 0.0
O178 O 0.36252 0.21149 0.08272 0.0
Fe179 Fe 0.37543 0.26258 0.07266 0.0
O180 O 0.35277 0.26041 0.02274 0.0
O181 O 0.29501 0.23562 0.04382 0.0
O182 O 0.31943 0.16225 0.04115 0.0
C183 C 0.34365 0.13277 0.04304 0.0
C184 C 0.30258 0.26815 0.11995 0.0
O185 O 0.37245 0.13252 0.06916 0.0
C186 C 0.42517 0.24584 0.13768 0.0
O187 O 0.31646 0.1571 0.12128 0.0
O188 O 0.37844 0.16488 0.14356 0.0
O189 O 0.32795 0.28426 0.09553 0.0
O190 O 0.30135 0.23045 0.12347 0.0
C191 C 0.43762 0.21637 0.03341 0.0
O192 O 0.4337 0.21157 0.12199 0.0
O193 O 0.39834 0.26806 0.12203 0.0
C194 C 0.3425 0.15445 0.1495 0.0
O195 O 0.42509 0.18307 0.04698 0.0
O196 O 0.42452 0.24982 0.0476 0.0
C197 C 0.31508 0.25645 0.01823 0.0
Fe198 Fe 0.90064 0.35532 0.938 0.0
Fe199 Fe 0.8788 0.26728 0.96099 0.0
O200 O 0.86427 0.31792 0.95127 0.0
Fe201 Fe 0.8125 0.33125 0.95352 0.0
O202 O 0.82156 0.366 0.99472 0.0
O203 O 0.87248 0.39693 0.964 0.0
O204 O 0.92704 0.34851 0.98484 0.0
C205 C 0.93984 0.31571 0.99931 0.0
C206 C 0.84047 0.37409 0.88543 0.0
O207 O 0.92734 0.28165 0.98601 0.0
C208 C 0.80622 0.26037 0.91378 0.0
O209 O 0.93476 0.32016 0.91013 0.0
O210 O 0.90168 0.26244 0.91145 0.0
O211 O 0.8163 0.37186 0.91527 0.0
O212 O 0.8769 0.36437 0.88961 0.0
C213 C 0.81859 0.27072 1.01608 0.0
O214 O 0.8321 0.24475 0.93795 0.0
O215 O 0.80175 0.29806 0.91216 0.0
C216 C 0.92737 0.28546 0.89507 0.0
O217 O 0.85633 0.26807 1.01114 0.0
O218 O 0.79782 0.29184 0.99141 0.0
C219 C 0.84495 0.39612 0.99139 0.0
Fe220 Fe 0.63456 0.67851 0.43994 0.0
Fe221 Fe 0.65845 0.76589 0.46257 0.0
O222 O 0.67189 0.71503 0.45231 0.0
Fe223 Fe 0.7234 0.70108 0.45265 0.0
O224 O 0.71564 0.66529 0.49324 0.0
O225 O 0.6628 0.63603 0.46438 0.0
O226 O 0.60981 0.68531 0.48777 0.0
C227 C 0.59678 0.71824 0.50162 0.0
C228 C 0.69241 0.65923 0.38486 0.0
O229 O 0.60941 0.7521 0.4876 0.0
C230 C 0.7315 0.7726 0.41559 0.0
O231 O 0.60053 0.71485 0.41344 0.0
O232 O 0.63553 0.77152 0.41307 0.0
O233 O 0.71841 0.66168 0.41314 0.0
O234 O 0.6564 0.66947 0.39077 0.0
C235 C 0.71879 0.75993 0.5171 0.0
O236 O 0.70592 0.78838 0.43996 0.0
O237 O 0.73252 0.73501 0.41166 0.0
C238 C 0.60887 0.74903 0.39751 0.0
O239 O 0.68107 0.76357 0.51251 0.0
O240 O 0.73909 0.73933 0.49153 0.0
C241 C 0.69163 0.63569 0.49036 0.0
Fe242 Fe 0.15585 0.76581 0.57379 0.0
Fe243 Fe 0.22261 0.82834 0.58668 0.0
O244 O 0.17064 0.81582 0.58576 0.0
Fe245 Fe 0.13412 0.85313 0.5984 0.0
O246 O 0.11022 0.84845 0.54997 0.0
O247 O 0.10815 0.78172 0.54795 0.0
O248 O 0.17991 0.76864 0.52453 0.0
C249 C 0.21784 0.77117 0.52097 0.0
C250 C 0.1055 0.78249 0.63839 0.0
O251 O 0.23811 0.79061 0.54743 0.0
C252 C 0.19165 0.86716 0.65547 0.0
O253 O 0.20161 0.74156 0.59714 0.0
O254 O 0.23074 0.7931 0.62701 0.0
O255 O 0.09839 0.81724 0.62319 0.0
O256 O 0.13153 0.75958 0.6225 0.0
C257 C 0.1926 0.89513 0.5492 0.0
O258 O 0.21743 0.86679 0.62688 0.0
O259 O 0.15519 0.85969 0.6483 0.0
C260 C 0.22652 0.75563 0.62314 0.0
O261 O 0.21626 0.8652 0.54664 0.0
O262 O 0.164 0.89545 0.57545 0.0
C263 C 0.09701 0.81628 0.53461 0.0
Fe264 Fe 0.93649 0.63015 0.85511 0.0
Fe265 Fe 0.96009 0.65274 0.7674 0.0
O266 O 0.94884 0.66696 0.81783 0.0
Fe267 Fe 0.94826 0.71871 0.83085 0.0
O268 O 0.98873 0.71191 0.86706 0.0
O269 O 0.96004 0.65961 0.89749 0.0
O270 O 0.98471 0.60618 0.84959 0.0
C271 C 0.99971 0.5933 0.81706 0.0
C272 C 0.88003 0.68762 0.87036 0.0
O273 O 0.98609 0.60486 0.78263 0.0
C274 C 0.91109 0.72392 0.75859 0.0
O275 O 0.91111 0.59484 0.81917 0.0
O276 O 0.91126 0.62853 0.76161 0.0
O277 O 0.90878 0.71313 0.87001 0.0
O278 O 0.88683 0.65127 0.86244 0.0
C279 C 1.01307 0.71451 0.77264 0.0
O280 O 0.93657 0.6989 0.74383 0.0
O281 O 0.90749 0.72729 0.79626 0.0
C282 C 0.89557 0.60227 0.78455 0.0
O283 O 1.00938 0.67667 0.76972 0.0
O284 O 0.98692 0.73458 0.79261 0.0
C285 C 0.9862 0.68831 0.89713 0.0
Fe286 Fe 0.58033 0.31159 0.33096 0.0
Fe287 Fe 0.59378 0.39981 0.35464 0.0
O288 O 0.58072 0.36321 0.31759 0.0
Fe289 Fe 0.57006 0.37734 0.26679 0.0
O290 O 0.52011 0.3544 0.26888 0.0
O291 O 0.54157 0.29635 0.29259 0.0
O292 O 0.53982 0.31902 0.36676 0.0
C293 C 0.54268 0.34282 0.39656 0.0
C294 C 0.61634 0.30432 0.259 0.0
O295 O 0.56899 0.3713 0.39677 0.0
C296 C 0.63578 0.42605 0.28408 0.0
O297 O 0.61921 0.31594 0.3708 0.0
O298 O 0.64283 0.3773 0.36343 0.0
O299 O 0.59227 0.33042 0.24379 0.0
O300 O 0.62145 0.30312 0.29662 0.0
C301 C 0.53186 0.4383 0.31546 0.0
O302 O 0.62046 0.43394 0.31862 0.0
O303 O 0.61947 0.40029 0.26111 0.0
C304 C 0.64809 0.34108 0.37328 0.0
O305 O 0.54632 0.42522 0.34824 0.0
O306 O 0.54523 0.42599 0.28127 0.0
C307 C 0.5159 0.31657 0.27207 0.0
Fe308 Fe 0.46274 0.87576 0.26498 0.0
Fe309 Fe 0.45543 0.8097 0.20108 0.0
O310 O 0.45326 0.86136 0.21421 0.0
Fe311 Fe 0.4406 0.89769 0.17649 0.0
O312 O 0.48735 0.92416 0.18383 0.0
O313 O 0.48759 0.92449 0.25082 0.0
O314 O 0.51288 0.8535 0.2642 0.0
C315 C 0.51777 0.81582 0.26159 0.0
C316 C 0.39701 0.9239 0.24636 0.0
O317 O 0.49289 0.79503 0.24085 0.0
C318 C 0.38808 0.8378 0.15692 0.0
O319 O 0.43964 0.82895 0.28754 0.0
O320 O 0.41373 0.79912 0.23403 0.0
O321 O 0.41224 0.93149 0.21162 0.0
O322 O 0.4133 0.89836 0.26957 0.0
C323 C 0.49449 0.84197 0.13655 0.0
O324 O 0.41766 0.81346 0.15992 0.0
O325 O 0.3923 0.87412 0.16673 0.0
C326 C 0.41541 0.8032 0.27185 0.0
O327 O 0.49704 0.81878 0.16694 0.0
O328 O 0.46717 0.86949 0.13502 0.0
C329 C 0.50111 0.93728 0.21683 0.0
Fe330 Fe 0.09533 0.13115 0.67931 0.0
Fe331 Fe 0.07334 0.15557 0.76701 0.0
O332 O 0.08322 0.16862 0.71576 0.0
Fe333 Fe 0.08295 0.22001 0.70141 0.0
O334 O 0.04197 0.21223 0.66632 0.0
O335 O 0.06983 0.15894 0.63695 0.0
O336 O 0.04784 0.106 0.68712 0.0
C337 C 0.03383 0.09362 0.72037 0.0
C338 C 0.14997 0.18904 0.65863 0.0
O339 O 0.04803 0.10654 0.75404 0.0
C340 C 0.12055 0.22834 0.77252 0.0
O341 O 0.12289 0.09783 0.71569 0.0
O342 O 0.12288 0.1328 0.7724 0.0
O343 O 0.12173 0.21491 0.66129 0.0
O344 O 0.14419 0.15314 0.66916 0.0
C345 C 0.01912 0.21607 0.76106 0.0
O346 O 0.0962 0.20301 0.78877 0.0
O347 O 0.12434 0.22901 0.73481 0.0
C348 C 0.13917 0.10691 0.74957 0.0
O349 O 0.02347 0.17837 0.76504 0.0
O350 O 0.04468 0.23603 0.74007 0.0
C351 C 0.044 0.18789 0.63695 0.0
Fe352 Fe 0.85483 0.9361 0.63871 0.0
Fe353 Fe 0.7668 0.9598 0.65889 0.0
O354 O 0.81687 0.94867 0.67473 0.0
Fe355 Fe 0.8287 0.94888 0.72706 0.0
O356 O 0.86588 0.98873 0.72047 0.0
O357 O 0.89652 0.95986 0.66848 0.0
O358 O 0.8495 0.98404 0.6136 0.0
C359 C 0.81715 0.99829 0.59939 0.0
C360 C 0.87063 0.88058 0.69746 0.0
O361 O 0.78279 0.98451 0.61059 0.0
C362 C 0.7557 0.91221 0.73051 0.0
O363 O 0.81965 0.91004 0.60313 0.0
O364 O 0.7615 0.9105 0.63565 0.0
O365 O 0.86739 0.9086 0.72359 0.0
O366 O 0.86259 0.88699 0.6609 0.0
C367 C 0.7709 1.01403 0.71978 0.0
O368 O 0.74205 0.9376 0.70484 0.0
O369 O 0.79314 0.90878 0.73606 0.0
C370 C 0.78498 0.89451 0.6101 0.0
O371 O 0.7687 1.00951 0.68185 0.0
O372 O 0.79064 0.98842 0.74094 0.0
C373 C 0.89618 0.98582 0.6972 0.0
Fe374 Fe 0.67936 0.0957 0.13576 0.0
Fe375 Fe 0.7665 0.069 0.15592 0.0
O376 O 0.71682 0.0816 0.17151 0.0
Fe377 Fe 0.70455 0.0812 0.22362 0.0
O378 O 0.66777 0.04147 0.21644 0.0
O379 O 0.63717 0.07237 0.16543 0.0
O380 O 0.68309 0.04793 0.11067 0.0
C381 C 0.71468 0.03126 0.09761 0.0
C382 C 0.66312 0.14997 0.19478 0.0
O383 O 0.74968 0.04403 0.10807 0.0
C384 C 0.7777 0.11695 0.22732 0.0
O385 O 0.71505 0.121 0.10018 0.0
O386 O 0.77348 0.11779 0.13194 0.0
O387 O 0.66543 0.12089 0.21984 0.0
O388 O 0.67327 0.1449 0.15853 0.0
C389 C 0.76129 1.01567 0.21756 0.0
O390 O 0.79127 0.09142 0.20171 0.0
O391 O 0.74017 0.12114 0.23237 0.0
C392 C 0.75044 0.13489 0.1067 0.0
O393 O 0.76326 0.01955 0.17957 0.0
O394 O 0.74233 0.04198 0.23822 0.0
C395 C 0.6375 0.04533 0.19331 0.0
Fe396 Fe 0.32807 0.58216 0.31145 0.0
Fe397 Fe 0.3541 0.59556 0.3996 0.0
O398 O 0.31616 0.58255 0.36371 0.0
Fe399 Fe 0.2661 0.5712 0.37941 0.0
O400 O 0.2681 0.5215 0.35637 0.0
O401 O 0.29006 0.54296 0.29748 0.0
O402 O 0.36476 0.54224 0.31836 0.0
C403 C 0.39513 0.5454 0.34144 0.0
C404 C 0.25523 0.61856 0.30738 0.0
O405 O 0.39572 0.57163 0.36991 0.0
C406 C 0.28406 0.63669 0.42817 0.0
O407 O 0.3671 0.62187 0.31479 0.0
O408 O 0.36171 0.64473 0.37686 0.0
O409 O 0.24147 0.59349 0.3334 0.0
O410 O 0.29275 0.62236 0.30246 0.0
C411 C 0.31657 0.53277 0.4388 0.0
O412 O 0.31891 0.62161 0.43501 0.0
O413 O 0.26059 0.62041 0.40279 0.0
C414 C 0.36986 0.65051 0.34016 0.0
O415 O 0.3489 0.54772 0.42514 0.0
O416 O 0.28213 0.54632 0.42759 0.0
C417 C 0.27065 0.51709 0.31847 0.0
Fe418 Fe 0.26741 0.45782 0.87923 0.0
Fe419 Fe 0.17898 0.43575 0.90052 0.0
O420 O 0.21665 0.449 0.8644 0.0
Fe421 Fe 0.20349 0.45191 0.81261 0.0
O422 O 0.23625 0.41044 0.80172 0.0
O423 O 0.28991 0.43525 0.83215 0.0
O424 O 0.27149 0.40794 0.90147 0.0
C425 C 0.24815 0.39177 0.92705 0.0
C426 C 0.26459 0.51377 0.8196 0.0
O427 O 0.21379 0.40748 0.9347 0.0
C428 C 0.13862 0.48958 0.84487 0.0
O429 O 0.25296 0.48221 0.9282 0.0
O430 O 0.18599 0.48215 0.92718 0.0
O431 O 0.24328 0.48961 0.79848 0.0
O432 O 0.26738 0.5082 0.85732 0.0
C433 C 0.15991 0.38408 0.84002 0.0
O434 O 0.13762 0.46205 0.87224 0.0
O435 O 0.16903 0.49321 0.82187 0.0
C436 C 0.21887 0.49561 0.9408 0.0
O437 O 0.16974 0.38781 0.87648 0.0
O438 O 0.16257 0.41397 0.81593 0.0
C439 C 0.27398 0.41162 0.80601 0.0
Fe440 Fe 0.63996 0.8513 0.93875 0.0
Fe441 Fe 0.658 0.76184 0.95894 0.0
O442 O 0.67495 0.81238 0.95243 0.0
Fe443 Fe 0.72722 0.82386 0.95817 0.0
O444 O 0.71946 0.87549 0.97645 0.0
O445 O 0.65348 0.88123 0.9833 0.0
O446 O 0.59809 0.83017 0.96852 0.0
C447 C 0.59898 0.8064 0.99868 0.0
C448 C 0.70567 0.86465 0.88787 0.0
O449 O 0.6245 0.77773 1.00021 0.0
C450 C 0.72928 0.75023 0.91756 0.0
O451 O 0.62409 0.82461 0.89279 0.0
O452 O 0.61731 0.7649 0.92126 0.0
O453 O 0.72931 0.84002 0.90526 0.0
O454 O 0.67566 0.87911 0.9066 0.0
C455 C 0.71856 0.76968 0.02035 0.0
O456 O 0.69148 0.74311 0.91817 0.0
O457 O 0.74488 0.77533 0.94136 0.0
C458 C 0.61268 0.78816 0.89107 0.0
O459 O 0.69546 0.7492 0.99765 0.0
O460 O 0.72876 0.80569 1.01093 0.0
C461 C 0.68905 0.89261 0.99212 0.0
Fe462 Fe 0.13431 0.67576 0.09548 0.0
Fe463 Fe 0.15828 0.76265 0.07067 0.0
O464 O 0.17166 0.71208 0.08247 0.0
Fe465 Fe 0.22319 0.69834 0.08309 0.0
O466 O 0.21602 0.66178 0.04352 0.0
O467 O 0.16287 0.63284 0.07228 0.0
O468 O 0.10988 0.68146 0.04726 0.0
C469 C 0.09684 0.71401 0.03241 0.0
C470 C 0.19172 0.65794 0.15166 0.0
O471 O 0.10932 0.7482 0.04568 0.0
C472 C 0.23121 0.77062 0.11782 0.0
O473 O 0.10007 0.71269 0.12083 0.0
O474 O 0.13503 0.76943 0.11988 0.0
O475 O 0.21799 0.65988 0.1236 0.0
O476 O 0.15572 0.66779 0.14507 0.0
C477 C 0.21896 0.75521 1.01662 0.0
O478 O 0.20577 0.7858 0.09283 0.0
O479 O 0.2316 0.73323 0.12325 0.0
C480 C 0.1083 0.74725 0.13591 0.0
O481 O 0.18122 0.75903 0.021 0.0
O482 O 0.23913 0.7355 0.04308 0.0
C483 C 0.19209 0.63221 0.04671 0.0
Fe484 Fe 0.30901 0.32726 0.58194 0.0
Fe485 Fe 0.39708 0.35277 0.59645 0.0
O486 O 0.36115 0.31516 0.58284 0.0
Fe487 Fe 0.37682 0.26525 0.57122 0.0
O488 O 0.35434 0.26795 0.52118 0.0
O489 O 0.2953 0.28963 0.54205 0.0
O490 O 0.31644 0.36457 0.54237 0.0
C491 C 0.33986 0.39463 0.54591 0.0
C492 C 0.30451 0.25402 0.61779 0.0
O493 O 0.36791 0.39477 0.57263 0.0
C494 C 0.42492 0.2823 0.63743 0.0
O495 O 0.31222 0.36564 0.62245 0.0
O496 O 0.3743 0.35993 0.64543 0.0
O497 O 0.33064 0.24049 0.59282 0.0
O498 O 0.29943 0.29145 0.62172 0.0
C499 C 0.43653 0.31596 0.53394 0.0
O500 O 0.43207 0.31718 0.62255 0.0
O501 O 0.39962 0.25909 0.62073 0.0
C502 C 0.33776 0.36831 0.65112 0.0
O503 O 0.42263 0.34805 0.5488 0.0
O504 O 0.42522 0.28141 0.54707 0.0
C505 C 0.3165 0.27006 0.51648 0.0
Fe506 Fe 0.87413 0.26279 0.46264 0.0
Fe507 Fe 0.80835 0.19899 0.45048 0.0
O508 O 0.86012 0.21238 0.45098 0.0
Fe509 Fe 0.89728 0.17562 0.43863 0.0
O510 O 0.92148 0.18135 0.48678 0.0
O511 O 0.92256 0.24803 0.48809 0.0
O512 O 0.85059 0.25967 0.51213 0.0
C513 C 0.81272 0.25663 0.51591 0.0
C514 C 0.92428 0.24664 0.39785 0.0
O515 O 0.79261 0.23666 0.48974 0.0
C516 C 0.84009 0.15748 0.38262 0.0
O517 O 0.82758 0.28627 0.43968 0.0
O518 O 0.79943 0.23407 0.41016 0.0
O519 O 0.93195 0.21199 0.41304 0.0
O520 O 0.8979 0.26921 0.4137 0.0
C521 C 0.83972 0.133 0.4882 0.0
O522 O 0.81351 0.16024 0.41034 0.0
O523 O 0.87606 0.16738 0.38917 0.0
C524 C 0.80214 0.27167 0.41447 0.0
O525 O 0.81545 0.16242 0.49058 0.0
O526 O 0.86852 0.13312 0.46225 0.0
C527 C 0.9347 0.21379 0.50144 0.0
C528 C 0.19386 0.47554 0.24271 0.0
C529 C 0.17356 0.4463 0.26632 0.0
H530 H 0.24114 0.52025 0.24018 0.0
C531 C 0.18857 0.43788 0.30551 0.0
H532 H 0.18351 0.48256 0.2123 0.0
C533 C 0.2216 0.45919 0.32134 0.0
C534 C 0.24097 0.48949 0.29848 0.0
H535 H 0.17428 0.41523 0.32456 0.0
H536 H 0.23121 0.45271 0.35213 0.0
C537 C 0.22727 0.49681 0.25857 0.0
C538 C 0.30833 0.53439 0.7596 0.0
C539 C 0.29511 0.54098 0.7998 0.0
H540 H 0.35142 0.54953 0.71283 0.0
C541 C 0.31538 0.57043 0.82294 0.0
H542 H 0.29391 0.51152 0.74101 0.0
C543 C 0.34839 0.59189 0.80696 0.0
C544 C 0.36263 0.58453 0.76728 0.0
H545 H 0.30631 0.5763 0.85399 0.0
H546 H 0.36318 0.61397 0.82621 0.0
C547 C 0.3417 0.55584 0.74357 0.0
C548 C 0.69452 0.05717 0.79571 0.0
C549 C 0.67203 0.08381 0.77098 0.0
H550 H 0.74423 1.01514 0.79959 0.0
C551 C 0.68547 0.0902 0.73085 0.0
H552 H 0.68558 0.05189 0.82692 0.0
C553 C 0.71902 0.06946 0.71535 0.0
C554 C 0.74061 0.04156 0.73935 0.0
H555 H 0.6696 0.11088 0.71085 0.0
H556 H 0.72728 0.07443 0.68388 0.0
C557 C 0.72852 0.03645 0.78014 0.0
C558 C 0.84488 0.93814 0.23045 0.0
C559 C 0.8604 0.94728 0.26924 0.0
H560 H 0.80121 0.95157 0.18435 0.0
C561 C 0.83989 0.97629 0.2928 0.0
H562 H 0.85927 0.91558 0.21146 0.0
C563 C 0.80579 0.99669 0.2772 0.0
C564 C 0.79161 0.98873 0.2376 0.0
H565 H 0.85059 0.9838 0.32294 0.0
H566 H 0.79173 0.02001 0.29549 0.0
C567 C 0.81117 0.95856 0.21488 0.0
C568 C 0.25734 0.22517 0.49685 0.0
C569 C 0.29708 0.23926 0.48956 0.0
H570 H 0.21192 0.18027 0.48358 0.0
C571 C 0.32056 0.21904 0.46032 0.0
H572 H 0.23847 0.23963 0.51949 0.0
C573 C 0.30554 0.18496 0.44012 0.0
C574 C 0.26652 0.16967 0.44853 0.0
H575 H 0.35126 0.22883 0.45387 0.0
H576 H 0.32506 0.17017 0.41826 0.0
C577 C 0.24228 0.19073 0.47666 0.0
C578 C 0.29927 0.82377 0.9681 0.0
C579 C 0.27489 0.84983 0.94461 0.0
H580 H 0.30095 0.77322 1.00951 0.0
C581 C 0.23331 0.84107 0.9413 0.0
H582 H 0.33146 0.82953 0.9711 0.0
C583 C 0.21609 0.80849 0.96228 0.0
C584 C 0.23968 0.78383 0.988 0.0
H585 H 0.21372 0.85996 0.92287 0.0
H586 H 0.18368 0.80378 0.95963 0.0
C587 C 0.28179 0.79131 0.98989 0.0
C588 C 0.75393 0.30313 0.53265 0.0
C589 C 0.79218 0.28677 0.54269 0.0
H590 H 0.70959 0.34957 0.54428 0.0
C591 C 0.8138 0.30433 0.5749 0.0
H592 H 0.73669 0.29084 0.50754 0.0
C593 C 0.79856 0.33804 0.59553 0.0
C594 C 0.76118 0.35566 0.58457 0.0
H595 H 0.84335 0.29276 0.58342 0.0
H596 H 0.81673 0.35075 0.61975 0.0
C597 C 0.73862 0.3372 0.55335 0.0
C598 C 0.79547 0.69715 0.06301 0.0
C599 C 0.77159 0.67575 0.09131 0.0
H600 H 0.79772 0.74557 0.01915 0.0
C601 C 0.73303 0.69148 0.10104 0.0
H602 H 0.82542 0.68633 0.05503 0.0
C603 C 0.71766 0.72565 0.08112 0.0
C604 C 0.74051 0.74571 0.05134 0.0
H605 H 0.71378 0.67643 0.12303 0.0
H606 H 0.68668 0.73485 0.08709 0.0
C607 C 0.78001 0.73171 0.04315 0.0
C608 C 0.43791 0.30088 0.18882 0.0
C609 C 0.4474 0.26196 0.17396 0.0
H610 H 0.45112 0.34797 0.23141 0.0
C611 C 0.47732 0.23947 0.19456 0.0
H612 H 0.4148 0.3192 0.17436 0.0
C613 C 0.49797 0.2561 0.22813 0.0
C614 C 0.48934 0.29569 0.24181 0.0
H615 H 0.48523 0.20933 0.18439 0.0
H616 H 0.52185 0.23855 0.24228 0.0
C617 C 0.45857 0.31746 0.22197 0.0
C618 C 0.9803 0.29241 0.83901 0.0
C619 C 0.94956 0.27001 0.85852 0.0
H620 H 0.02604 0.2934 0.79238 0.0
C621 C 0.93948 0.23171 0.84251 0.0
H622 H 0.98873 0.32207 0.85014 0.0
C623 C 0.96047 0.21553 0.8094 0.0
C624 C 0.99217 0.23708 0.7908 0.0
H625 H 0.91569 0.21356 0.85608 0.0
H626 H 0.95259 0.1854 0.79909 0.0
C627 C 1.00135 0.27614 0.80552 0.0
C628 C 0.536 0.7567 0.30714 0.0
C629 C 0.54445 0.79592 0.29233 0.0
H630 H 0.54902 0.71119 0.35218 0.0
C631 C 0.57512 0.81844 0.31143 0.0
H632 H 0.51211 0.7387 0.2936 0.0
C633 C 0.59592 0.80288 0.34503 0.0
C634 C 0.58661 0.76432 0.36096 0.0
H635 H 0.58239 0.84874 0.30105 0.0
H636 H 0.61898 0.82165 0.35895 0.0
C637 C 0.55678 0.74111 0.34111 0.0
C638 C 0.05241 0.78999 0.69399 0.0
C639 C 0.08291 0.76719 0.67473 0.0
H640 H 1.00682 0.79172 0.74068 0.0
C641 C 0.09273 0.72896 0.6911 0.0
H642 H 0.04428 0.81968 0.68259 0.0
C643 C 0.0717 0.71321 0.72443 0.0
C644 C 0.04018 0.73514 0.74278 0.0
H645 H 0.1164 0.71057 0.67774 0.0
H646 H 0.07938 0.68311 0.73509 0.0
C647 C 0.03129 0.77416 0.72768 0.0
C648 C 0.8397 0.54927 0.79225 0.0
C649 C 0.85902 0.57982 0.76939 0.0
H650 H 0.79275 0.50395 0.7942 0.0
C651 C 0.84245 0.58986 0.7312 0.0
H652 H 0.85123 0.54091 0.82188 0.0
C653 C 0.80887 0.56913 0.71563 0.0
C654 C 0.79035 0.53769 0.73767 0.0
H655 H 0.85583 0.6135 0.71271 0.0
H656 H 0.79808 0.57705 0.68557 0.0
C657 C 0.80576 0.52846 0.77658 0.0
C658 C 0.69369 0.47598 0.29317 0.0
C659 C 0.67277 0.44764 0.26912 0.0
H660 H 0.74244 0.51903 0.29668 0.0
C661 C 0.68814 0.43903 0.23015 0.0
H662 H 0.68314 0.48306 0.32347 0.0
C663 C 0.72216 0.45932 0.21496 0.0
C664 C 0.74218 0.4888 0.23824 0.0
H665 H 0.67341 0.41701 0.21079 0.0
H666 H 0.73201 0.45278 0.18429 0.0
C667 C 0.72808 0.49622 0.27796 0.0
C668 C 0.33977 0.97508 0.23866 0.0
C669 C 0.36036 0.94569 0.2618 0.0
H670 H 0.29196 0.01928 0.2369 0.0
C671 C 0.34527 0.93642 0.3008 0.0
H672 H 0.35012 0.98273 0.2084 0.0
C673 C 0.31203 0.95706 0.31699 0.0
C674 C 0.29244 0.98761 0.29473 0.0
H675 H 0.35968 0.91359 0.31953 0.0
H676 H 0.30249 0.94993 0.34766 0.0
C677 C 0.30608 0.99569 0.25489 0.0
C678 C 0.23254 0.03771 0.75653 0.0
C679 C 0.24699 0.04643 0.79582 0.0
H680 H 0.18699 0.04929 0.71106 0.0
C681 C 0.22726 0.07658 0.81828 0.0
H682 H 0.24608 1.01341 0.73914 0.0
C683 C 0.19321 0.09659 0.80266 0.0
C684 C 0.17715 0.08654 0.76425 0.0
H685 H 0.23672 0.08296 0.84913 0.0
H686 H 0.17851 0.11896 0.82162 0.0
C687 C 0.19806 0.05761 0.74085 0.0
C688 C 0.79336 0.83917 0.55684 0.0
C689 C 0.77032 0.85789 0.58757 0.0
H690 H 0.79565 0.79299 0.51082 0.0
C691 C 0.73235 0.84086 0.59742 0.0
H692 H 0.82284 0.85108 0.54861 0.0
C693 C 0.71707 0.80751 0.57621 0.0
C694 C 0.73921 0.7897 0.54447 0.0
H695 H 0.71378 0.85378 0.62121 0.0
H696 H 0.68711 0.7964 0.58391 0.0
C697 C 0.77798 0.80545 0.53554 0.0
C698 C 0.75865 0.22641 0.03512 0.0
C699 C 0.79857 0.23985 0.04265 0.0
H700 H 0.71217 0.18261 0.04873 0.0
C701 C 0.82146 0.21931 0.0722 0.0
H702 H 0.74028 0.24105 1.01212 0.0
C703 C 0.80556 0.18573 0.09275 0.0
C704 C 0.76622 0.17124 0.0844 0.0
H705 H 0.85228 0.22856 0.07878 0.0
H706 H 0.82463 0.17073 0.11494 0.0
C707 C 0.74267 0.1925 0.05573 0.0
C708 C 0.21588 0.72332 0.46207 0.0
C709 C 0.23813 0.74135 0.49362 0.0
H710 H 0.21254 0.67684 0.41728 0.0
C711 C 0.27706 0.7259 0.50233 0.0
H712 H 0.18584 0.73423 0.45448 0.0
C713 C 0.29245 0.69221 0.4811 0.0
C714 C 0.26929 0.67323 0.45062 0.0
H715 H 0.29488 0.73861 0.52681 0.0
H716 H 0.32205 0.68053 0.48917 0.0
C717 C 0.23118 0.68997 0.44092 0.0
C718 C 0.25574 0.30196 1.00078 0.0
C719 C 0.29432 0.28624 0.99117 0.0
H720 H 0.21089 0.34784 0.98868 0.0
C721 C 0.31599 0.30411 0.95909 0.0
H722 H 0.23845 0.28938 0.02577 0.0
C723 C 0.30048 0.33763 0.93825 0.0
C724 C 0.26279 0.35472 0.94887 0.0
H725 H 0.34579 0.29297 0.9509 0.0
H726 H 0.31872 0.35068 0.91421 0.0
C727 C 0.24014 0.33585 0.97987 0.0
C728 C 0.57231 0.71319 0.81408 0.0
C729 C 0.54776 0.73738 0.78884 0.0
H730 H 0.61128 0.71018 0.86585 0.0
C731 C 0.54763 0.7796 0.79536 0.0
H732 H 0.57359 0.68067 0.81007 0.0
C733 C 0.56983 0.79673 0.8276 0.0
C734 C 0.59206 0.7719 0.85431 0.0
H735 H 0.529 0.79921 0.77671 0.0
H736 H 0.56813 0.82907 0.83266 0.0
C737 C 0.59378 0.73013 0.84642 0.0
C738 C 0.0355 0.75664 0.22629 0.0
C739 C 0.04391 0.79616 0.24017 0.0
H740 H 0.0485 0.71027 0.1823 0.0
C741 C 0.07444 0.81836 0.22036 0.0
H742 H 1.01173 0.73884 0.24036 0.0
C743 C 0.09517 0.80219 0.18705 0.0
C744 C 0.08594 0.76328 0.17208 0.0
H745 H 0.08169 0.84888 0.22998 0.0
H746 H 0.11813 0.82073 0.1726 0.0
C747 C 0.05621 0.74042 0.1926 0.0
C748 C 0.49615 0.27587 0.72909 0.0
C749 C 0.48911 0.23604 0.743 0.0
H750 H 0.48222 0.32162 0.68461 0.0
C751 C 0.4595 0.21279 0.72307 0.0
H752 H 0.51899 0.29461 0.74338 0.0
C753 C 0.43874 0.22812 0.68934 0.0
C754 C 0.44696 0.26722 0.67417 0.0
H755 H 0.45319 0.18205 0.73276 0.0
H756 H 0.41664 0.20877 0.67469 0.0
C757 C 0.47542 0.29123 0.69501 0.0
C758 C 0.93791 0.30119 0.34635 0.0
C759 C 0.9469 0.26235 0.36175 0.0
H760 H 0.95203 0.34764 0.3032 0.0
C761 C 0.97671 0.23927 0.34177 0.0
H762 H 0.91486 0.31985 0.36038 0.0
C763 C 0.99784 0.25527 0.30823 0.0
C764 C 0.98972 0.29477 0.29399 0.0
H765 H 0.98421 0.20914 0.35244 0.0
H766 H 0.02172 0.23736 0.29459 0.0
C767 C 0.95903 0.31714 0.31317 0.0
C768 C 0.17589 0.20683 0.29368 0.0
C769 C 0.15559 0.19064 0.32722 0.0
H770 H 0.18292 0.25691 0.25365 0.0
C771 C 0.12789 0.21492 0.34869 0.0
H772 H 0.19804 0.18905 0.2773 0.0
C773 C 0.118 0.25378 0.33432 0.0
C774 C 0.13682 0.269 0.29916 0.0
H775 H 0.11246 0.20308 0.37521 0.0
H776 H 0.09402 0.27065 0.34908 0.0
C777 C 0.16741 0.24587 0.28047 0.0
C778 C 0.35141 0.81534 0.80789 0.0
C779 C 0.3801 0.8423 0.82395 0.0
H780 H 0.34035 0.75668 0.78274 0.0
C781 C 0.41885 0.82755 0.834 0.0
H782 H 0.32065 0.82504 0.80228 0.0
C783 C 0.4298 0.78765 0.82418 0.0
C784 C 0.402 0.76203 0.80452 0.0
H785 H 0.44129 0.84744 0.84736 0.0
H786 H 0.46088 0.77807 0.82875 0.0
C787 C 0.36228 0.77577 0.79802 0.0
C788 C 0.61456 0.31759 0.68814 0.0
C789 C 0.64835 0.33858 0.70336 0.0
H790 H 0.57842 0.26352 0.69215 0.0
C791 C 0.67589 0.31835 0.7285 0.0
H792 H 0.59365 0.33242 0.66756 0.0
C793 C 0.66826 0.27885 0.74105 0.0
C794 C 0.63246 0.259 0.72935 0.0
H795 H 0.70316 0.33321 0.73884 0.0
H796 H 0.68904 0.26476 0.76228 0.0
C797 C 0.60641 0.27798 0.70137 0.0
C798 C 0.90832 0.71598 0.18892 0.0
C799 C 0.88168 0.69099 0.21104 0.0
H800 H 0.94026 0.77277 0.18724 0.0
C801 C 0.86136 0.70668 0.24469 0.0
H802 H 0.9236 0.70452 0.16219 0.0
C803 C 0.86864 0.74614 0.2572 0.0
C804 C 0.89814 0.77016 0.23771 0.0
H805 H 0.83989 0.68836 0.26148 0.0
H806 H 0.85303 0.75694 0.284 0.0
C807 C 0.91709 0.75523 0.2026 0.0
C808 C 0.3333 0.10468 0.253 0.0
C809 C 0.30463 0.13016 0.27158 0.0
H810 H 0.36745 0.09205 0.1987 0.0
C811 C 0.29165 0.16502 0.2508 0.0
H812 H 0.34363 0.07744 0.26816 0.0
C813 C 0.30381 0.17223 0.21101 0.0
C814 C 0.32984 0.14528 0.19128 0.0
H815 H 0.27 0.18549 0.26453 0.0
H816 H 0.29265 0.19887 0.19562 0.0
C817 C 0.34615 0.11246 0.21307 0.0
C818 C 0.25642 0.86841 0.74928 0.0
C819 C 0.23156 0.8883 0.77767 0.0
H820 H 0.26419 0.84845 0.68819 0.0
C821 C 0.19152 0.89765 0.76679 0.0
H822 H 0.28795 0.86259 0.75598 0.0
C823 C 0.17782 0.8898 0.72717 0.0
C824 C 0.20446 0.87367 0.69786 0.0
H825 H 0.17222 0.91432 0.78745 0.0
H826 H 0.14729 0.89856 0.71881 0.0
C827 C 0.24331 0.86172 0.70979 0.0
C828 C 0.83295 0.40908 0.77554 0.0
C829 C 0.79339 0.39637 0.76604 0.0
H830 H 0.87941 0.41177 0.82144 0.0
C831 C 0.7708 0.37563 0.79598 0.0
H832 H 0.85096 0.42549 0.75349 0.0
C833 C 0.78587 0.37014 0.8348 0.0
C834 C 0.82481 0.38331 0.84465 0.0
H835 H 0.74021 0.36523 0.79034 0.0
H836 H 0.76693 0.35516 0.85712 0.0
C837 C 0.84886 0.40188 0.81452 0.0
C838 C 0.70244 0.60771 0.28262 0.0
C839 C 0.73185 0.63245 0.26407 0.0
H840 H 0.6671 0.59657 0.33652 0.0
C841 C 0.74489 0.66758 0.2842 0.0
H842 H 0.69214 0.58025 0.26795 0.0
C843 C 0.73195 0.6758 0.3235 0.0
C844 C 0.70515 0.64957 0.3433 0.0
H845 H 0.76713 0.68744 0.27041 0.0
H846 H 0.74321 0.70255 0.33855 0.0
C847 C 0.68885 0.61649 0.32204 0.0
C848 C 0.25695 0.32991 0.12405 0.0
C849 C 0.26606 0.28972 0.13489 0.0
H850 H 0.2119 0.37716 0.12442 0.0
C851 C 0.23641 0.26689 0.15572 0.0
H852 H 0.27882 0.34817 0.10767 0.0
C853 C 0.19825 0.28251 0.1633 0.0
C854 C 0.18868 0.32204 0.15181 0.0
H855 H 0.24168 0.23581 0.16464 0.0
H856 H 0.17615 0.26343 0.17841 0.0
C857 C 0.21859 0.34622 0.13309 0.0
C858 C 0.74861 0.25536 0.86616 0.0
C859 C 0.77237 0.23683 0.89645 0.0
H860 H 0.6912 0.25818 0.83633 0.0
C861 C 0.75767 0.20171 0.91565 0.0
H862 H 0.75932 0.28208 0.85033 0.0
C863 C 0.71872 0.18724 0.90648 0.0
C864 C 0.69382 0.20853 0.8791 0.0
H865 H 0.77504 0.18707 0.93941 0.0
H866 H 0.70731 0.16074 0.92219 0.0
C867 C 0.70945 0.24201 0.85835 0.0
C868 C 0.79795 0.77085 0.38041 0.0
C869 C 0.76852 0.79392 0.40121 0.0
H870 H 0.85828 0.76656 0.3581 0.0
C871 C 0.77831 0.83378 0.41249 0.0
H872 H 0.79225 0.73999 0.37116 0.0
C873 C 0.81704 0.84955 0.4037 0.0
C874 C 0.84663 0.82509 0.38491 0.0
H875 H 0.75668 0.8522 0.4289 0.0
H876 H 0.82421 0.88031 0.41251 0.0
C877 C 0.83645 0.78585 0.37322 0.0
C878 C 0.31746 0.68704 0.62553 0.0
C879 C 0.34032 0.70653 0.65579 0.0
H880 H 0.26201 0.68718 0.59116 0.0
C881 C 0.32204 0.7361 0.67989 0.0
H882 H 0.33092 0.6633 0.60731 0.0
C883 C 0.28226 0.74784 0.67245 0.0
C884 C 0.26047 0.73158 0.63952 0.0
H885 H 0.33865 0.75047 0.7043 0.0
H886 H 0.26953 0.77198 0.69066 0.0
C887 C 0.27782 0.69993 0.61698 0.0
C888 C 0.9087 0.81522 0.68964 0.0
C889 C 0.87982 0.83892 0.7102 0.0
H890 H 0.94161 0.75896 0.68873 0.0
C891 C 0.85675 0.82141 0.74118 0.0
H892 H 0.92611 0.82802 0.66485 0.0
C893 C 0.86364 0.78154 0.75291 0.0
C894 C 0.89517 0.75876 0.7353 0.0
H895 H 0.8334 0.83863 0.75651 0.0
H896 H 0.84603 0.7694 0.77789 0.0
C897 C 0.91685 0.77547 0.70256 0.0
C898 C 0.65348 0.22501 0.18467 0.0
C899 C 0.64706 0.18951 0.20782 0.0
H900 H 0.6486 0.29017 0.18264 0.0
C901 C 0.627 0.19233 0.24507 0.0
H902 H 0.66883 0.22358 0.15563 0.0
C903 C 0.6155 0.22979 0.26 0.0
C904 C 0.62404 0.26561 0.23833 0.0
H905 H 0.62095 0.16564 0.26328 0.0
H906 H 0.60078 0.23077 0.2894 0.0
C907 C 0.64194 0.26301 0.19989 0.0
C908 C 0.41513 0.75603 0.33217 0.0
C909 C 0.39791 0.76925 0.2954 0.0
H910 H 0.41956 0.70735 0.37558 0.0
C911 C 0.36909 0.74443 0.27607 0.0
H912 H 0.43771 0.77423 0.34755 0.0
C913 C 0.36079 0.70579 0.29057 0.0
C914 C 0.37945 0.69165 0.32595 0.0
H915 H 0.35473 0.75385 0.24803 0.0
H916 H 0.34 0.68676 0.27378 0.0
C917 C 0.40538 0.71757 0.34773 0.0
C918 C 0.12345 0.27499 0.83351 0.0
C919 C 0.13428 0.26566 0.79336 0.0
H920 H 0.12323 0.32047 0.88025 0.0
C921 C 0.15387 0.29563 0.76979 0.0
H922 H 0.10795 0.25291 0.85228 0.0
C923 C 0.16053 0.33415 0.7848 0.0
C924 C 0.14936 0.34377 0.82443 0.0
H925 H 0.16265 0.29025 0.73865 0.0
H926 H 0.17496 0.35636 0.76531 0.0
C927 C 0.13159 0.31372 0.84919 0.0
C928 C 0.72985 0.84696 0.81848 0.0
C929 C 0.71209 0.87531 0.84469 0.0
H930 H 0.75606 0.83607 0.76013 0.0
C931 C 0.69951 0.91281 0.82873 0.0
H932 H 0.73718 0.81689 0.82899 0.0
C933 C 0.7087 0.92324 0.78845 0.0
C934 C 0.73061 0.89632 0.76382 0.0
H935 H 0.68456 0.93483 0.84792 0.0
H936 H 0.70186 0.95349 0.7778 0.0
C937 C 0.7393 0.85742 0.77859 0.0
C938 C 0.78939 0.16698 0.28133 0.0
C939 C 0.80275 0.13214 0.26097 0.0
H940 H 0.79043 0.20108 0.33616 0.0
C941 C 0.83194 0.10721 0.27961 0.0
H942 H 0.76704 0.18684 0.26764 0.0
C943 C 0.84486 0.11544 0.31937 0.0
C944 C 0.82813 0.14818 0.34079 0.0
H945 H 0.84246 0.07994 0.26475 0.0
H946 H 0.86638 0.09536 0.33395 0.0
C947 C 0.80177 0.17464 0.32088 0.0
C948 C 0.23143 0.6754 0.21264 0.0
C949 C 0.20411 0.64922 0.19359 0.0
H950 H 0.26665 0.68777 0.26546 0.0
C951 C 0.18713 0.61703 0.21581 0.0
H952 H 0.24338 0.70145 0.19677 0.0
C953 C 0.2005 0.60897 0.25549 0.0
C954 C 0.23031 0.63362 0.2734 0.0
H955 H 0.16504 0.59714 0.20187 0.0
H956 H 0.18971 0.58202 0.27089 0.0
C957 C 0.24404 0.66799 0.25225 0.0
C958 C 0.27748 0.36526 0.74743 0.0
C959 C 0.29697 0.39453 0.77162 0.0
H960 H 0.27348 0.33666 0.68951 0.0
C961 C 0.33239 0.41313 0.75691 0.0
H962 H 0.2504 0.34997 0.75803 0.0
C963 C 0.34639 0.40425 0.71767 0.0
C964 C 0.32428 0.37787 0.69246 0.0
H965 H 0.34774 0.43613 0.77457 0.0
H966 H 0.37332 0.4193 0.70636 0.0
C967 C 0.29032 0.35789 0.70799 0.0
C968 C 0.82693 0.7402 0.86617 0.0
C969 C 0.83793 0.70082 0.87701 0.0
H970 H 0.78195 0.7857 0.86847 0.0
C971 C 0.80805 0.67423 0.89222 0.0
H972 H 0.849 0.7611 0.85367 0.0
C973 C 0.76873 0.68843 0.90036 0.0
C974 C 0.75886 0.72894 0.89223 0.0
H975 H 0.81575 0.64331 0.90009 0.0
H976 H 0.74756 0.66903 0.91636 0.0
C977 C 0.78781 0.75385 0.87316 0.0
C978 C 0.27886 0.83139 0.11915 0.0
C979 C 0.26887 0.7917 0.13099 0.0
H980 H 0.32499 0.8777 0.11837 0.0
C981 C 0.29848 0.76853 0.1516 0.0
H982 H 0.25712 0.8499 0.1029 0.0
C983 C 0.33717 0.78334 0.15829 0.0
C984 C 0.34745 0.8225 0.14625 0.0
H985 H 0.29267 0.73778 0.16133 0.0
H986 H 0.359 0.76403 0.17347 0.0
C987 C 0.31778 0.84698 0.12743 0.0
C988 C 0.25019 0.24192 0.66777 0.0
C989 C 0.27085 0.22882 0.63291 0.0
H990 H 0.19544 0.2403 0.70211 0.0
C991 C 0.25276 0.19928 0.60808 0.0
H992 H 0.2636 0.26425 0.68772 0.0
C993 C 0.2133 0.18561 0.61648 0.0
C994 C 0.19153 0.20197 0.64924 0.0
H995 H 0.26786 0.18891 0.58082 0.0
H996 H 0.19921 0.16371 0.59651 0.0
C997 C 0.21085 0.22895 0.67557 0.0
C998 C 0.70195 0.29064 0.36432 0.0
C999 C 0.68917 0.32653 0.38249 0.0
H1000 H 0.74809 0.24712 0.35798 0.0
C1001 C 0.71639 0.34829 0.40718 0.0
H1002 H 0.68205 0.27382 0.34432 0.0
C1003 C 0.755 0.3323 0.41594 0.0
C1004 C 0.76699 0.29511 0.39898 0.0
H1005 H 0.70719 0.37659 0.42095 0.0
H1006 H 0.77444 0.34791 0.4373 0.0
C1007 C 0.7404 0.27563 0.37182 0.0
C1008 C 0.99491 0.2977 0.09875 0.0
C1009 C 0.01845 0.33329 0.10194 0.0
H1010 H 0.95218 0.26355 0.06324 0.0
C1011 C 0.01853 0.36068 0.06936 0.0
H1012 H 0.99442 0.27568 0.12316 0.0
C1013 C 0.99447 0.3536 0.03523 0.0
C1014 C 0.96996 0.31874 0.03253 0.0
H1015 H 0.03643 0.38817 0.07059 0.0
H1016 H 0.99433 0.37607 1.01121 0.0
C1017 C 0.97107 0.29038 0.06425 0.0
C1018 C 0.54107 0.68033 0.53659 0.0
C1019 C 0.56518 0.71554 0.53378 0.0
H1020 H 0.49759 0.64623 0.57082 0.0
C1021 C 0.56138 0.74507 0.5641 0.0
H1022 H 0.54306 0.65695 0.51365 0.0
C1023 C 0.53544 0.73859 0.59736 0.0
C1024 C 0.51234 0.70267 0.60075 0.0
H1025 H 0.57969 0.7723 0.56303 0.0
H1026 H 0.53406 0.76149 0.6208 0.0
C1027 C 0.5149 0.67408 0.56943 0.0
C1028 C 0.47169 0.24398 0.9705 0.0
C1029 C 0.46919 0.21464 1.00129 0.0
H1030 H 0.49806 0.2607 0.91331 0.0
C1031 C 0.49452 0.18037 0.99897 0.0
H1032 H 0.45235 0.27047 0.97125 0.0
C1033 C 0.52066 0.17474 0.9661 0.0
C1034 C 0.52197 0.20303 0.9343 0.0
H1035 H 0.4935 0.1572 0.0223 0.0
H1036 H 0.53895 0.14752 0.96509 0.0
C1037 C 0.49764 0.2381 0.93718 0.0
C1038 C 0.0643 0.79154 0.47022 0.0
C1039 C 0.06731 0.82053 0.5011 0.0
H1040 H 0.03899 0.77643 0.41231 0.0
C1041 C 0.04446 0.85646 0.49779 0.0
H1042 H 0.0818 0.76382 0.47173 0.0
C1043 C 0.01996 0.86375 0.46398 0.0
C1044 C 0.01799 0.83552 0.43232 0.0
H1045 H 0.04602 0.87944 0.52116 0.0
H1046 H 1.00326 0.89195 0.46228 0.0
C1047 C 0.04009 0.79908 0.43602 0.0
C1048 C 0.0698 0.01891 0.35857 0.0
C1049 C 0.10205 0.01985 0.33084 0.0
H1050 H 1.01263 0.99303 0.37455 0.0
C1051 C 0.09907 0.99639 0.29515 0.0
H1052 H 0.07083 0.03665 0.38617 0.0
C1053 C 0.06522 0.97154 0.28815 0.0
C1054 C 0.03394 0.96933 0.31692 0.0
H1055 H 0.12324 0.99661 0.2729 0.0
H1056 H 0.06443 0.95274 0.26125 0.0
C1057 C 0.03633 0.99389 0.35179 0.0
C1058 C 0.4767 0.05209 0.79517 0.0
C1059 C 0.49749 0.06912 0.82816 0.0
H1060 H 0.42817 1.01371 0.77555 0.0
C1061 C 0.48429 0.05948 0.86781 0.0
H1062 H 0.48579 0.05894 0.76434 0.0
C1063 C 0.45127 0.03372 0.87437 0.0
C1064 C 0.43039 0.01674 0.84146 0.0
H1065 H 0.49932 0.07211 0.89418 0.0
H1066 H 0.44207 0.02727 0.90526 0.0
C1067 C 0.44357 0.0262 0.80176 0.0
C1068 C 0.56961 0.51799 0.6686 0.0
C1069 C 0.59951 0.51253 0.69838 0.0
H1070 H 0.51534 0.54873 0.65107 0.0
C1071 C 0.59541 0.53335 0.73556 0.0
H1072 H 0.5717 0.5025 0.63972 0.0
C1073 C 0.56266 0.55962 0.7424 0.0
C1074 C 0.53361 0.56612 0.71197 0.0
H1075 H 0.61777 0.52968 0.75937 0.0
H1076 H 0.56087 0.57585 0.77089 0.0
C1077 C 0.53728 0.5446 0.67519 0.0
C1078 C 0.99815 0.4914 0.18137 0.0
C1079 C 1.00109 0.46746 0.21674 0.0
H1080 H 0.96362 0.53445 0.14714 0.0
C1081 C 0.97063 0.4708 0.24628 0.0
H1082 H 0.02118 0.48969 0.15798 0.0
C1083 C 0.93715 0.49627 0.23972 0.0
C1084 C 0.93371 0.51933 0.20372 0.0
H1085 H 0.97183 0.45255 0.27362 0.0
H1086 H 0.91366 0.49743 0.26266 0.0
C1087 C 0.96508 0.51712 0.17506 0.0
C1088 C 0.30192 0.0977 0.9895 0.0
C1089 C 0.33482 0.09678 0.01695 0.0
H1090 H 0.26769 0.06663 0.9438 0.0
C1091 C 0.35808 0.06122 0.01927 0.0
H1092 H 0.28313 0.12445 0.9867 0.0
C1093 C 0.34892 0.02777 0.99458 0.0
C1094 C 0.31622 0.02891 0.96689 0.0
H1095 H 0.38349 0.05923 0.04 0.0
H1096 H 0.36796 1.00115 0.99686 0.0
C1097 C 0.29278 0.06433 0.96489 0.0
C1098 C 0.86585 0.46352 0.02 0.0
C1099 C 0.83698 0.43246 0.01696 0.0
H1100 H 0.88248 0.51963 0.04769 0.0
C1101 C 0.80036 0.43635 0.03885 0.0
H1102 H 0.89424 0.46168 1.00358 0.0
C1103 C 0.79323 0.47007 0.06379 0.0
C1104 C 0.82282 0.50034 0.06789 0.0
H1105 H 0.77722 0.41314 0.03701 0.0
H1106 H 0.76529 0.47164 0.08101 0.0
C1107 C 0.85899 0.49681 0.04532 0.0
C1108 C 0.67192 0.56682 0.516 0.0
C1109 C 0.69989 0.59879 0.51505 0.0
H1110 H 0.65585 0.50952 0.54151 0.0
C1111 C 0.73581 0.59524 0.53819 0.0
H1112 H 0.64417 0.56828 0.49848 0.0
C1113 C 0.74287 0.56107 0.56266 0.0
C1114 C 0.71394 0.53001 0.56482 0.0
H1115 H 0.75827 0.61917 0.53793 0.0
H1116 H 0.76998 0.55983 0.58118 0.0
C1117 C 0.67877 0.53303 0.54065 0.0
C1118 C 0.17039 0.96083 0.51726 0.0
C1119 C 0.20028 0.93109 0.52272 0.0
H1120 H 0.15243 1.01489 0.48623 0.0
C1121 C 0.23724 0.93533 0.50145 0.0
H1122 H 0.14163 0.95864 0.53299 0.0
C1123 C 0.24377 0.96805 0.47485 0.0
C1124 C 0.21324 0.99697 0.46837 0.0
H1125 H 0.26111 0.91309 0.50501 0.0
H1126 H 0.27214 0.96992 0.45838 0.0
C1127 C 0.17666 0.9931 0.49028 0.0
C1128 C 1.01561 0.66801 0.96477 0.0
C1129 C 1.0122 0.69656 0.93337 0.0
H1130 H 0.04445 0.65142 0.02046 0.0
C1131 C 0.03478 0.73286 0.93646 0.0
H1132 H 0.99875 0.63988 0.96362 0.0
C1133 C 0.06084 0.73984 0.96954 0.0
C1134 C 0.06537 0.71045 1.00004 0.0
H1135 H 0.03278 0.75576 0.91297 0.0
H1136 H 0.07858 0.76744 0.97039 0.0
C1137 C 0.04193 0.67475 0.99743 0.0
C1138 C 0.51438 0.36347 0.46407 0.0
C1139 C 0.51759 0.33458 0.43311 0.0
H1140 H 0.48663 0.37995 0.52024 0.0
C1141 C 0.49616 0.29777 0.43719 0.0
H1142 H 0.5305 0.392 0.46204 0.0
C1143 C 0.47131 0.29053 0.47098 0.0
C1144 C 0.46695 0.32018 0.50107 0.0
H1145 H 0.4982 0.27463 0.41402 0.0
H1146 H 0.45433 0.26249 0.47272 0.0
C1147 C 0.48922 0.35646 0.49747 0.0
C1148 C 0.54208 0.84576 0.0311 0.0
C1149 C 0.57041 0.81376 0.03295 0.0
H1150 H 0.4962 0.88001 0.06203 0.0
C1151 C 0.5732 0.79124 0.06902 0.0
H1152 H 0.53921 0.86403 1.00393 0.0
C1153 C 0.54872 0.80066 0.10242 0.0
C1154 C 0.52063 0.83286 0.10076 0.0
H1155 H 0.59485 0.76671 0.07181 0.0
H1156 H 0.55206 0.78265 0.12972 0.0
C1157 C 0.51751 0.85515 0.06454 0.0
C1158 C 0.98882 0.17413 0.5368 0.0
C1159 C 0.96583 0.21006 0.53384 0.0
H1160 H 0.03134 0.13899 0.57117 0.0
C1161 C 0.97037 0.23956 0.56403 0.0
H1162 H 0.98622 0.15075 0.51392 0.0
C1163 C 0.99606 0.23248 0.59728 0.0
C1164 C 0.01815 0.19595 0.60077 0.0
H1165 H 0.95293 0.26733 0.56281 0.0
H1166 H 0.99818 0.25551 0.62054 0.0
C1167 C 1.01474 0.16726 0.56968 0.0
C1168 C 0.96487 1.01235 0.6773 0.0
C1169 C 0.9328 1.01127 0.7053 0.0
H1170 H 0.02174 0.0385 0.66054 0.0
C1171 C 0.93596 0.03526 0.74066 0.0
H1172 H 0.96378 0.99432 0.64989 0.0
C1173 C 0.9698 0.06048 0.74714 0.0
C1174 C 1.00097 0.06265 0.71816 0.0
H1175 H 0.91197 0.03505 0.7631 0.0
H1176 H 0.9707 0.07951 0.77387 0.0
C1177 C 0.99825 0.03775 0.68353 0.0
C1178 C 0.59751 0.99688 0.23714 0.0
C1179 C 0.60089 0.02021 0.2013 0.0
H1180 H 0.56286 0.95293 0.27077 0.0
C1181 C 0.56934 0.01849 0.17282 0.0
H1182 H 0.62115 0.99769 0.25994 0.0
C1183 C 0.53619 0.99285 0.17908 0.0
C1184 C 0.53339 0.96853 0.21419 0.0
H1185 H 0.57078 0.03605 0.14504 0.0
H1186 H 0.51304 0.9914 0.15579 0.0
C1187 C 0.56396 0.9715 0.24364 0.0
C1188 C 0.4969 0.49327 0.3539 0.0
C1189 C 0.4993 0.4692 0.31868 0.0
H1190 H 0.46265 0.536 0.38861 0.0
C1191 C 0.46817 0.47207 0.28981 0.0
H1192 H 0.52047 0.4919 0.37678 0.0
C1193 C 0.43453 0.49716 0.29695 0.0
C1194 C 0.43161 0.52027 0.33287 0.0
H1195 H 0.46895 0.45368 0.26262 0.0
H1196 H 0.41051 0.49794 0.27455 0.0
C1197 C 0.46367 0.51858 0.3608 0.0
C1198 C 0.09907 0.53769 0.80028 0.0
C1199 C 0.10203 0.51446 0.83623 0.0
H1200 H 0.06392 0.58021 0.76535 0.0
C1201 C 0.06954 0.51512 0.86368 0.0
H1202 H 0.12341 0.53762 0.77822 0.0
C1203 C 0.03569 0.53943 0.85621 0.0
C1204 C 0.03312 0.56346 0.82087 0.0
H1205 H 0.07059 0.49753 0.89145 0.0
H1206 H 1.0117 0.54 0.87867 0.0
C1207 C 0.06482 0.56174 0.79255 0.0
C1208 C 0.73558 0.94117 0.02848 0.0
C1209 C 0.69588 0.92836 0.01868 0.0
H1210 H 0.77295 0.98362 0.06085 0.0
C1211 C 0.66303 0.95016 0.0344 0.0
H1212 H 0.7617 0.92505 0.01694 0.0
C1213 C 0.66954 0.98372 0.05928 0.0
C1214 C 0.70916 0.99654 0.06936 0.0
H1215 H 0.63212 0.94128 0.02759 0.0
H1216 H 0.64319 0.9994 0.07093 0.0
C1217 C 0.74213 0.97484 0.05358 0.0
C1218 C 0.24462 0.55853 0.97511 0.0
C1219 C 0.21579 0.52751 0.97219 0.0
H1220 H 0.25952 0.61622 1.00055 0.0
C1221 C 0.18041 0.52986 0.99615 0.0
H1222 H 0.2719 0.55775 0.9568 0.0
C1223 C 0.17313 0.56322 0.0211 0.0
C1224 C 0.2009 0.59531 0.02253 0.0
H1225 H 0.1576 0.50627 0.99471 0.0
H1226 H 0.14516 0.56438 0.0383 0.0
C1227 C 0.23716 0.5922 0.99987 0.0
C1228 C 0.29592 0.43614 0.4987 0.0
C1229 C 0.33251 0.43124 0.5204 0.0
H1230 H 0.26167 0.47242 0.45658 0.0
C1231 C 0.36233 0.46139 0.51685 0.0
H1232 H 0.27213 0.41362 0.50088 0.0
C1233 C 0.35638 0.49478 0.49132 0.0
C1234 C 0.32019 0.49937 0.46901 0.0
H1235 H 0.3908 0.45871 0.53304 0.0
H1236 H 0.38055 0.51686 0.48864 0.0
C1237 C 0.2897 0.47 0.47355 0.0
C1238 C 0.86302 0.06772 0.51971 0.0
C1239 C 0.83261 0.09695 0.51446 0.0
H1240 H 0.88184 1.01382 0.55037 0.0
C1241 C 0.79565 0.09199 0.53554 0.0
H1242 H 0.89177 0.0705 0.50404 0.0
C1243 C 0.78966 0.05904 0.56187 0.0
C1244 C 0.82072 0.03069 0.56817 0.0
H1245 H 0.77141 0.11384 0.53204 0.0
H1246 H 0.76132 0.05658 0.57832 0.0
C1247 C 0.85726 0.03522 0.54639 0.0
loop_
_geom_bond_atom_site_label_1
_geom_bond_atom_site_label_2
_geom_bond_distance
_geom_bond_site_symmetry_2
_ccdc_geom_bond_type
Fe0 O2 1.918 . S
Fe0 O5 1.997 . S
Fe0 O6 2.002 . S
Fe0 O11 1.976 . S
Fe0 O14 1.996 . S
Fe1 O2 1.918 . S
Fe1 O9 1.997 . S
Fe1 O12 1.996 . S
Fe1 O16 1.976 . S
Fe1 O19 1.986 1_455 S
O2 Fe0 1.918 . S
O2 Fe1 1.918 . S
O2 Fe3 1.918 . S
Fe3 O2 1.918 . S
Fe3 O4 2.002 . S
Fe3 O13 1.976 . S
Fe3 O17 1.996 . S
Fe3 O20 1.997 1_455 S
O4 Fe3 2.002 . S
O4 C21 1.295 1_455 S
O5 Fe0 1.997 . S
O5 C21 1.235 1_455 S
O6 Fe0 2.002 . S
O6 C7 1.295 . S
C7 O6 1.295 . S
C7 O9 1.235 . S
C8 O13 1.287 . S
C8 O14 1.255 . S
O9 Fe1 1.997 . S
O9 C7 1.235 . S
C10 O16 1.287 . S
C10 O17 1.255 . S
O11 Fe0 1.976 . S
O11 C18 1.287 . S
O12 Fe1 1.996 . S
O12 C18 1.255 . S
O13 Fe3 1.976 . S
O13 C8 1.287 . S
O14 Fe0 1.996 . S
O14 C8 1.255 . S
C15 O19 1.304 . S
C15 O20 1.235 . S
O16 Fe1 1.976 . S
O16 C10 1.287 . S
O17 Fe3 1.996 . S
O17 C10 1.255 . S
C18 O11 1.287 . S
C18 O12 1.255 . S
O19 Fe1 1.986 1_655 S
O19 C15 1.304 . S
O20 Fe3 1.997 1_655 S
O20 C15 1.235 . S
C21 O4 1.295 1_655 S
C21 O5 1.235 1_655 S
Fe22 O24 1.918 . S
Fe22 O27 1.997 . S
Fe22 O28 2.002 . S
Fe22 O33 1.976 . S
Fe22 O36 1.996 . S
Fe23 O24 1.918 . S
Fe23 O31 1.997 . S
Fe23 O34 1.996 . S
Fe23 O38 1.976 . S
Fe23 O41 2.002 . S
O24 Fe22 1.918 . S
O24 Fe23 1.918 . S
O24 Fe25 1.918 . S
Fe25 O24 1.918 . S
Fe25 O26 2.002 . S
Fe25 O35 1.976 . S
Fe25 O39 1.996 . S
Fe25 O42 1.997 . S
O26 Fe25 2.002 . S
O26 C43 1.295 . S
O27 Fe22 1.997 . S
O27 C43 1.235 . S
O28 Fe22 2.002 . S
O28 C29 1.295 . S
C29 O28 1.295 . S
C29 O31 1.235 . S
C30 O35 1.287 . S
C30 O36 1.255 . S
O31 Fe23 1.997 . S
O31 C29 1.235 . S
C32 O38 1.287 . S
C32 O39 1.255 . S
O33 Fe22 1.976 . S
O33 C40 1.287 . S
O34 Fe23 1.996 . S
O34 C40 1.255 . S
O35 Fe25 1.976 . S
O35 C30 1.287 . S
O36 Fe22 1.996 . S
O36 C30 1.255 . S
C37 O41 1.295 . S
C37 O42 1.235 . S
O38 Fe23 1.976 . S
O38 C32 1.287 . S
O39 Fe25 1.996 . S
O39 C32 1.255 . S
C40 O33 1.287 . S
C40 O34 1.255 . S
O41 Fe23 2.002 . S
O41 C37 1.295 . S
O42 Fe25 1.997 . S
O42 C37 1.235 . S
C43 O26 1.295 . S
C43 O27 1.235 . S
Fe44 O46 1.918 . S
Fe44 O49 1.997 . S
Fe44 O50 2.002 . S
Fe44 O55 1.976 . S
Fe44 O58 1.996 . S
Fe45 O46 1.918 . S
Fe45 O53 1.997 . S
Fe45 O56 1.996 . S
Fe45 O60 1.976 . S
Fe45 O63 2.002 . S
O46 Fe44 1.918 . S
O46 Fe45 1.918 . S
O46 Fe47 1.918 . S
Fe47 O46 1.918 . S
Fe47 O48 2.002 . S
Fe47 O57 1.976 . S
Fe47 O61 1.996 . S
Fe47 O64 1.997 . S
O48 Fe47 2.002 . S
O48 C65 1.295 . S
O49 Fe44 1.997 . S
O49 C65 1.235 . S
O50 Fe44 2.002 . S
O50 C51 1.295 . S
C51 O50 1.295 . S
C51 O53 1.235 . S
C52 O57 1.287 . S
C52 O58 1.255 . S
O53 Fe45 1.997 . S
O53 C51 1.235 . S
C54 O60 1.287 . S
C54 O61 1.255 . S
O55 Fe44 1.976 . S
O55 C62 1.287 . S
O56 Fe45 1.996 . S
O56 C62 1.255 . S
O57 Fe47 1.976 . S
O57 C52 1.287 . S
O58 Fe44 1.996 . S
O58 C52 1.255 . S
C59 O63 1.295 . S
C59 O64 1.235 . S
O60 Fe45 1.976 . S
O60 C54 1.287 . S
O61 Fe47 1.996 . S
O61 C54 1.255 . S
C62 O55 1.287 . S
C62 O56 1.255 . S
O63 Fe45 2.002 . S
O63 C59 1.295 . S
O64 Fe47 1.997 . S
O64 C59 1.235 . S
C65 O48 1.295 . S
C65 O49 1.235 . S
Fe66 O68 1.918 . S
Fe66 O71 1.997 . S
Fe66 O72 1.984 1_655 S
Fe66 O77 1.976 . S
Fe66 O80 1.996 . S
Fe67 O68 1.918 . S
Fe67 O75 1.997 1_655 S
Fe67 O78 1.996 . S
Fe67 O82 1.976 . S
Fe67 O85 2.002 . S
O68 Fe66 1.918 . S
O68 Fe67 1.918 . S
O68 Fe69 1.918 . S
Fe69 O68 1.918 . S
Fe69 O70 2.002 . S
Fe69 O79 1.976 . S
Fe69 O83 1.996 . S
Fe69 O86 1.997 . S
O70 Fe69 2.002 . S
O70 C87 1.295 . S
O71 Fe66 1.997 . S
O71 C87 1.235 . S
O72 Fe66 1.984 1_455 S
O72 C73 1.305 . S
C73 O72 1.305 . S
C73 O75 1.235 . S
C74 O79 1.287 . S
C74 O80 1.255 . S
O75 Fe67 1.997 1_455 S
O75 C73 1.235 . S
C76 O82 1.287 . S
C76 O83 1.255 . S
O77 Fe66 1.976 . S
O77 C84 1.287 . S
O78 Fe67 1.996 . S
O78 C84 1.255 . S
O79 Fe69 1.976 . S
O79 C74 1.287 . S
O80 Fe66 1.996 . S
O80 C74 1.255 . S
C81 O85 1.295 1_455 S
C81 O86 1.235 1_455 S
O82 Fe67 1.976 . S
O82 C76 1.287 . S
O83 Fe69 1.996 . S
O83 C76 1.255 . S
C84 O77 1.287 . S
C84 O78 1.255 . S
O85 Fe67 2.002 . S
O85 C81 1.295 1_655 S
O86 Fe69 1.997 . S
O86 C81 1.235 1_655 S
C87 O70 1.295 . S
C87 O71 1.235 . S
Fe88 O90 1.918 . S
Fe88 O93 1.997 1_545 S
Fe88 O94 2.002 . S
Fe88 O99 1.976 . S
Fe88 O102 1.996 . S
Fe89 O90 1.918 . S
Fe89 O97 1.997 . S
Fe89 O100 1.996 . S
Fe89 O104 1.976 . S
Fe89 O107 2.002 . S
O90 Fe88 1.918 . S
O90 Fe89 1.918 . S
O90 Fe91 1.918 . S
Fe91 O90 1.918 . S
Fe91 O92 2.002 1_545 S
Fe91 O101 1.976 . S
Fe91 O105 1.996 . S
Fe91 O108 1.997 . S
O92 Fe91 2.002 1_565 S
O92 C109 1.295 . S
O93 Fe88 1.997 1_565 S
O93 C109 1.235 . S
O94 Fe88 2.002 . S
O94 C95 1.295 1_545 S
C95 O94 1.295 1_565 S
C95 O97 1.235 1_565 S
C96 O101 1.287 . S
C96 O102 1.255 . S
O97 Fe89 1.997 . S
O97 C95 1.235 1_545 S
C98 O104 1.287 . S
C98 O105 1.255 . S
O99 Fe88 1.976 . S
O99 C106 1.287 . S
O100 Fe89 1.996 . S
O100 C106 1.255 . S
O101 Fe91 1.976 . S
O101 C96 1.287 . S
O102 Fe88 1.996 . S
O102 C96 1.255 . S
C103 O107 1.295 . S
C103 O108 1.235 . S
O104 Fe89 1.976 . S
O104 C98 1.287 . S
O105 Fe91 1.996 . S
O105 C98 1.255 . S
C106 O99 1.287 . S
C106 O100 1.255 . S
O107 Fe89 2.002 . S
O107 C103 1.295 . S
O108 Fe91 1.997 . S
O108 C103 1.235 . S
C109 O92 1.295 . S
C109 O93 1.235 . S
Fe110 O112 1.918 . S
Fe110 O115 1.997 . S
Fe110 O116 2.015 . S
Fe110 O121 1.976 . S
Fe110 O124 1.996 . S
Fe111 O112 1.918 . S
Fe111 O119 1.982 1_565 S
Fe111 O122 1.996 . S
Fe111 O126 1.976 . S
Fe111 O129 2.002 . S
O112 Fe110 1.918 . S
O112 Fe111 1.918 . S
O112 Fe113 1.918 . S
Fe113 O112 1.918 . S
Fe113 O114 2.002 . S
Fe113 O123 1.976 . S
Fe113 O127 1.996 . S
Fe113 O130 1.997 . S
O114 Fe113 2.002 . S
O114 C131 1.295 . S
O115 Fe110 1.997 . S
O115 C131 1.235 . S
O116 Fe110 2.015 . S
O116 C117 1.289 1_565 S
C117 O116 1.289 1_545 S
C117 O119 1.243 . S
C118 O123 1.287 . S
C118 O124 1.255 . S
O119 Fe111 1.982 1_545 S
O119 C117 1.243 . S
C120 O126 1.287 . S
C120 O127 1.255 . S
O121 Fe110 1.976 . S
O121 C128 1.287 . S
O122 Fe111 1.996 . S
O122 C128 1.255 . S
O123 Fe113 1.976 . S
O123 C118 1.287 . S
O124 Fe110 1.996 . S
O124 C118 1.255 . S
C125 O129 1.292 1_545 S
C125 O130 1.229 1_545 S
O126 Fe111 1.976 . S
O126 C120 1.287 . S
O127 Fe113 1.996 . S
O127 C120 1.255 . S
C128 O121 1.287 . S
C128 O122 1.255 . S
O129 Fe111 2.002 . S
O129 C125 1.292 1_565 S
O130 Fe113 1.997 . S
O130 C125 1.229 1_565 S
C131 O114 1.295 . S
C131 O115 1.235 . S
Fe132 O134 1.918 . S
Fe132 O137 1.997 . S
Fe132 O138 2.002 . S
Fe132 O143 1.976 . S
Fe132 O146 1.996 . S
Fe133 O134 1.918 . S
Fe133 O141 1.997 . S
Fe133 O144 1.996 . S
Fe133 O148 1.976 . S
Fe133 O151 2.002 . S
O134 Fe132 1.918 . S
O134 Fe133 1.918 . S
O134 Fe135 1.918 . S
Fe135 O134 1.918 . S
Fe135 O136 2.002 . S
Fe135 O145 1.976 . S
Fe135 O149 1.996 . S
Fe135 O152 1.997 . S
O136 Fe135 2.002 . S
O136 C153 1.295 . S
O137 Fe132 1.997 . S
O137 C153 1.235 . S
O138 Fe132 2.002 . S
O138 C139 1.295 . S
C139 O138 1.295 . S
C139 O141 1.235 . S
C140 O145 1.287 . S
C140 O146 1.255 . S
O141 Fe133 1.997 . S
O141 C139 1.235 . S
C142 O148 1.287 . S
C142 O149 1.255 . S
O143 Fe132 1.976 . S
O143 C150 1.287 . S
O144 Fe133 1.996 . S
O144 C150 1.255 . S
O145 Fe135 1.976 . S
O145 C140 1.287 . S
O146 Fe132 1.996 . S
O146 C140 1.255 . S
C147 O151 1.295 . S
C147 O152 1.235 . S
O148 Fe133 1.976 . S
O148 C142 1.287 . S
O149 Fe135 1.996 . S
O149 C142 1.255 . S
C150 O143 1.287 . S
C150 O144 1.255 . S
O151 Fe133 2.002 . S
O151 C147 1.295 . S
O152 Fe135 1.997 . S
O152 C147 1.235 . S
C153 O136 1.295 . S
C153 O137 1.235 . S
Fe154 O156 1.918 . S
Fe154 O159 1.997 . S
Fe154 O160 2.002 . S
Fe154 O165 1.976 . S
Fe154 O168 1.996 . S
Fe155 O156 1.918 . S
Fe155 O163 1.997 . S
Fe155 O166 1.996 . S
Fe155 O170 1.976 . S
Fe155 O173 2.002 . S
O156 Fe154 1.918 . S
O156 Fe155 1.918 . S
O156 Fe157 1.918 . S
Fe157 O156 1.918 . S
Fe157 O158 2.002 . S
Fe157 O167 1.976 . S
Fe157 O171 1.996 . S
Fe157 O174 1.997 . S
O158 Fe157 2.002 . S
O158 C175 1.295 . S
O159 Fe154 1.997 . S
O159 C175 1.235 . S
O160 Fe154 2.002 . S
O160 C161 1.295 . S
C161 O160 1.295 . S
C161 O163 1.235 . S
C162 O167 1.287 . S
C162 O168 1.255 . S
O163 Fe155 1.997 . S
O163 C161 1.235 . S
C164 O170 1.287 . S
C164 O171 1.255 . S
O165 Fe154 1.976 . S
O165 C172 1.287 . S
O166 Fe155 1.996 . S
O166 C172 1.255 . S
O167 Fe157 1.976 . S
O167 C162 1.287 . S
O168 Fe154 1.996 . S
O168 C162 1.255 . S
C169 O173 1.295 . S
C169 O174 1.235 . S
O170 Fe155 1.976 . S
O170 C164 1.287 . S
O171 Fe157 1.996 . S
O171 C164 1.255 . S
C172 O165 1.287 . S
C172 O166 1.255 . S
O173 Fe155 2.002 . S
O173 C169 1.295 . S
O174 Fe157 1.997 . S
O174 C169 1.235 . S
C175 O158 1.295 . S
C175 O159 1.235 . S
Fe176 O178 1.918 . S
Fe176 O181 1.997 1_554 S
Fe176 O182 2.002 . S
Fe176 O187 1.976 . S
Fe176 O190 1.996 . S
Fe177 O178 1.918 . S
Fe177 O185 1.997 . S
Fe177 O188 1.996 . S
Fe177 O192 1.976 . S
Fe177 O195 2.002 . S
O178 Fe176 1.918 . S
O178 Fe177 1.918 . S
O178 Fe179 1.918 . S
Fe179 O178 1.918 . S
Fe179 O180 2.002 1_554 S
Fe179 O189 1.976 . S
Fe179 O193 1.996 . S
Fe179 O196 1.997 . S
O180 Fe179 2.002 1_556 S
O180 C197 1.295 . S
O181 Fe176 1.997 1_556 S
O181 C197 1.235 . S
O182 Fe176 2.002 . S
O182 C183 1.295 1_554 S
C183 O182 1.295 1_556 S
C183 O185 1.235 1_556 S
C184 O189 1.287 . S
C184 O190 1.255 . S
O185 Fe177 1.997 . S
O185 C183 1.235 1_554 S
C186 O192 1.287 . S
C186 O193 1.255 . S
O187 Fe176 1.976 . S
O187 C194 1.287 . S
O188 Fe177 1.996 . S
O188 C194 1.255 . S
O189 Fe179 1.976 . S
O189 C184 1.287 . S
O190 Fe176 1.996 . S
O190 C184 1.255 . S
C191 O195 1.295 . S
C191 O196 1.235 . S
O192 Fe177 1.976 . S
O192 C186 1.287 . S
O193 Fe179 1.996 . S
O193 C186 1.255 . S
C194 O187 1.287 . S
C194 O188 1.255 . S
O195 Fe177 2.002 . S
O195 C191 1.295 . S
O196 Fe179 1.997 . S
O196 C191 1.235 . S
C197 O180 1.295 . S
C197 O181 1.235 . S
Fe198 O200 1.918 . S
Fe198 O203 1.997 . S
Fe198 O204 2.002 . S
Fe198 O209 1.976 . S
Fe198 O212 1.996 . S
Fe199 O200 1.918 . S
Fe199 O207 1.997 . S
Fe199 O210 1.996 . S
Fe199 O214 1.976 . S
Fe199 O217 2.002 1_556 S
O200 Fe198 1.918 . S
O200 Fe199 1.918 . S
O200 Fe201 1.918 . S
Fe201 O200 1.918 . S
Fe201 O202 2.002 . S
Fe201 O211 1.976 . S
Fe201 O215 1.996 . S
Fe201 O218 1.997 1_556 S
O202 Fe201 2.002 . S
O202 C219 1.295 1_556 S
O203 Fe198 1.997 . S
O203 C219 1.235 1_556 S
O204 Fe198 2.002 . S
O204 C205 1.295 . S
C205 O204 1.295 . S
C205 O207 1.235 . S
C206 O211 1.287 . S
C206 O212 1.255 . S
O207 Fe199 1.997 . S
O207 C205 1.235 . S
C208 O214 1.287 . S
C208 O215 1.255 . S
O209 Fe198 1.976 . S
O209 C216 1.287 . S
O210 Fe199 1.996 . S
O210 C216 1.255 . S
O211 Fe201 1.976 . S
O211 C206 1.287 . S
O212 Fe198 1.996 . S
O212 C206 1.255 . S
C213 O217 1.295 . S
C213 O218 1.235 . S
O214 Fe199 1.976 . S
O214 C208 1.287 . S
O215 Fe201 1.996 . S
O215 C208 1.255 . S
C216 O209 1.287 . S
C216 O210 1.255 . S
O217 Fe199 2.002 1_554 S
O217 C213 1.295 . S
O218 Fe201 1.997 1_554 S
O218 C213 1.235 . S
C219 O202 1.295 1_554 S
C219 O203 1.235 1_554 S
Fe220 O222 1.918 . S
Fe220 O225 1.997 . S
Fe220 O226 2.002 . S
Fe220 O231 1.976 . S
Fe220 O234 1.996 . S
Fe221 O222 1.918 . S
Fe221 O229 1.997 . S
Fe221 O232 1.996 . S
Fe221 O236 1.976 . S
Fe221 O239 2.002 . S
O222 Fe220 1.918 . S
O222 Fe221 1.918 . S
O222 Fe223 1.918 . S
Fe223 O222 1.918 . S
Fe223 O224 2.002 . S
Fe223 O233 1.976 . S
Fe223 O237 1.996 . S
Fe223 O240 1.997 . S
O224 Fe223 2.002 . S
O224 C241 1.295 . S
O225 Fe220 1.997 . S
O225 C241 1.235 . S
O226 Fe220 2.002 . S
O226 C227 1.295 . S
C227 O226 1.295 . S
C227 O229 1.235 . S
C228 O233 1.287 . S
C228 O234 1.255 . S
O229 Fe221 1.997 . S
O229 C227 1.235 . S
C230 O236 1.287 . S
C230 O237 1.255 . S
O231 Fe220 1.976 . S
O231 C238 1.287 . S
O232 Fe221 1.996 . S
O232 C238 1.255 . S
O233 Fe223 1.976 . S
O233 C228 1.287 . S
O234 Fe220 1.996 . S
O234 C228 1.255 . S
C235 O239 1.295 . S
C235 O240 1.235 . S
O236 Fe221 1.976 . S
O236 C230 1.287 . S
O237 Fe223 1.996 . S
O237 C230 1.255 . S
C238 O231 1.287 . S
C238 O232 1.255 . S
O239 Fe221 2.002 . S
O239 C235 1.295 . S
O240 Fe223 1.997 . S
O240 C235 1.235 . S
C241 O224 1.295 . S
C241 O225 1.235 . S
Fe242 O244 1.918 . S
Fe242 O247 1.997 . S
Fe242 O248 2.002 . S
Fe242 O253 1.976 . S
Fe242 O256 1.996 . S
Fe243 O244 1.918 . S
Fe243 O251 1.997 . S
Fe243 O254 1.996 . S
Fe243 O258 1.976 . S
Fe243 O261 2.002 . S
O244 Fe242 1.918 . S
O244 Fe243 1.918 . S
O244 Fe245 1.918 . S
Fe245 O244 1.918 . S
Fe245 O246 2.002 . S
Fe245 O255 1.976 . S
Fe245 O259 1.996 . S
Fe245 O262 1.997 . S
O246 Fe245 2.002 . S
O246 C263 1.295 . S
O247 Fe242 1.997 . S
O247 C263 1.235 . S
O248 Fe242 2.002 . S
O248 C249 1.295 . S
C249 O248 1.295 . S
C249 O251 1.235 . S
C250 O255 1.287 . S
C250 O256 1.255 . S
O251 Fe243 1.997 . S
O251 C249 1.235 . S
C252 O258 1.287 . S
C252 O259 1.255 . S
O253 Fe242 1.976 . S
O253 C260 1.287 . S
O254 Fe243 1.996 . S
O254 C260 1.255 . S
O255 Fe245 1.976 . S
O255 C250 1.287 . S
O256 Fe242 1.996 . S
O256 C250 1.255 . S
C257 O261 1.295 . S
C257 O262 1.235 . S
O258 Fe243 1.976 . S
O258 C252 1.287 . S
O259 Fe245 1.996 . S
O259 C252 1.255 . S
C260 O253 1.287 . S
C260 O254 1.255 . S
O261 Fe243 2.002 . S
O261 C257 1.295 . S
O262 Fe245 1.997 . S
O262 C257 1.235 . S
C263 O246 1.295 . S
C263 O247 1.235 . S
Fe264 O266 1.918 . S
Fe264 O269 1.997 . S
Fe264 O270 2.002 . S
Fe264 O275 1.976 . S
Fe264 O278 1.996 . S
Fe265 O266 1.918 . S
Fe265 O273 1.997 . S
Fe265 O276 1.996 . S
Fe265 O280 1.976 . S
Fe265 O283 2.001 1_655 S
O266 Fe264 1.918 . S
O266 Fe265 1.918 . S
O266 Fe267 1.918 . S
Fe267 O266 1.918 . S
Fe267 O268 2.002 . S
Fe267 O277 1.976 . S
Fe267 O281 1.996 . S
Fe267 O284 1.997 1_655 S
O268 Fe267 2.002 . S
O268 C285 1.295 1_655 S
O269 Fe264 1.997 . S
O269 C285 1.235 1_655 S
O270 Fe264 2.002 . S
O270 C271 1.295 . S
C271 O270 1.295 . S
C271 O273 1.235 . S
C272 O277 1.287 . S
C272 O278 1.255 . S
O273 Fe265 1.997 . S
O273 C271 1.235 . S
C274 O280 1.287 . S
C274 O281 1.255 . S
O275 Fe264 1.976 . S
O275 C282 1.287 . S
O276 Fe265 1.996 . S
O276 C282 1.255 . S
O277 Fe267 1.976 . S
O277 C272 1.287 . S
O278 Fe264 1.996 . S
O278 C272 1.255 . S
C279 O283 1.296 . S
C279 O284 1.235 . S
O280 Fe265 1.976 . S
O280 C274 1.287 . S
O281 Fe267 1.996 . S
O281 C274 1.255 . S
C282 O275 1.287 . S
C282 O276 1.255 . S
O283 Fe265 2.001 1_455 S
O283 C279 1.296 . S
O284 Fe267 1.997 1_455 S
O284 C279 1.235 . S
C285 O268 1.295 1_455 S
C285 O269 1.235 1_455 S
Fe286 O288 1.918 . S
Fe286 O291 1.997 . S
Fe286 O292 2.002 . S
Fe286 O297 1.976 . S
Fe286 O300 1.996 . S
Fe287 O288 1.918 . S
Fe287 O295 1.997 . S
Fe287 O298 1.996 . S
Fe287 O302 1.976 . S
Fe287 O305 2.002 . S
O288 Fe286 1.918 . S
O288 Fe287 1.918 . S
O288 Fe289 1.918 . S
Fe289 O288 1.918 . S
Fe289 O290 2.002 . S
Fe289 O299 1.976 . S
Fe289 O303 1.996 . S
Fe289 O306 1.997 . S
O290 Fe289 2.002 . S
O290 C307 1.295 . S
O291 Fe286 1.997 . S
O291 C307 1.235 . S
O292 Fe286 2.002 . S
O292 C293 1.295 . S
C293 O292 1.295 . S
C293 O295 1.235 . S
C294 O299 1.287 . S
C294 O300 1.255 . S
O295 Fe287 1.997 . S
O295 C293 1.235 . S
C296 O302 1.287 . S
C296 O303 1.255 . S
O297 Fe286 1.976 . S
O297 C304 1.287 . S
O298 Fe287 1.996 . S
O298 C304 1.255 . S
O299 Fe289 1.976 . S
O299 C294 1.287 . S
O300 Fe286 1.996 . S
O300 C294 1.255 . S
C301 O305 1.295 . S
C301 O306 1.235 . S
O302 Fe287 1.976 . S
O302 C296 1.287 . S
O303 Fe289 1.996 . S
O303 C296 1.255 . S
C304 O297 1.287 . S
C304 O298 1.255 . S
O305 Fe287 2.002 . S
O305 C301 1.295 . S
O306 Fe289 1.997 . S
O306 C301 1.235 . S
C307 O290 1.295 . S
C307 O291 1.235 . S
Fe308 O310 1.918 . S
Fe308 O313 1.997 . S
Fe308 O314 2.002 . S
Fe308 O319 1.976 . S
Fe308 O322 1.996 . S
Fe309 O310 1.918 . S
Fe309 O317 1.997 . S
Fe309 O320 1.996 . S
Fe309 O324 1.976 . S
Fe309 O327 2.002 . S
O310 Fe308 1.918 . S
O310 Fe309 1.918 . S
O310 Fe311 1.918 . S
Fe311 O310 1.918 . S
Fe311 O312 2.002 . S
Fe311 O321 1.976 . S
Fe311 O325 1.996 . S
Fe311 O328 1.997 . S
O312 Fe311 2.002 . S
O312 C329 1.295 . S
O313 Fe308 1.997 . S
O313 C329 1.235 . S
O314 Fe308 2.002 . S
O314 C315 1.295 . S
C315 O314 1.295 . S
C315 O317 1.235 . S
C316 O321 1.287 . S
C316 O322 1.255 . S
O317 Fe309 1.997 . S
O317 C315 1.235 . S
C318 O324 1.287 . S
C318 O325 1.255 . S
O319 Fe308 1.976 . S
O319 C326 1.287 . S
O320 Fe309 1.996 . S
O320 C326 1.255 . S
O321 Fe311 1.976 . S
O321 C316 1.287 . S
O322 Fe308 1.996 . S
O322 C316 1.255 . S
C323 O327 1.295 . S
C323 O328 1.235 . S
O324 Fe309 1.976 . S
O324 C318 1.287 . S
O325 Fe311 1.996 . S
O325 C318 1.255 . S
C326 O319 1.287 . S
C326 O320 1.255 . S
O327 Fe309 2.002 . S
O327 C323 1.295 . S
O328 Fe311 1.997 . S
O328 C323 1.235 . S
C329 O312 1.295 . S
C329 O313 1.235 . S
Fe330 O332 1.918 . S
Fe330 O335 1.997 . S
Fe330 O336 2.002 . S
Fe330 O341 1.976 . S
Fe330 O344 1.996 . S
Fe331 O332 1.918 . S
Fe331 O339 1.997 . S
Fe331 O342 1.996 . S
Fe331 O346 1.976 . S
Fe331 O349 2.002 1_455 S
O332 Fe330 1.918 . S
O332 Fe331 1.918 . S
O332 Fe333 1.918 . S
Fe333 O332 1.918 . S
Fe333 O334 2.002 . S
Fe333 O343 1.976 . S
Fe333 O347 1.996 . S
Fe333 O350 1.997 1_455 S
O334 Fe333 2.002 . S
O334 C351 1.295 1_455 S
O335 Fe330 1.997 . S
O335 C351 1.235 1_455 S
O336 Fe330 2.002 . S
O336 C337 1.295 . S
C337 O336 1.295 . S
C337 O339 1.235 . S
C338 O343 1.287 . S
C338 O344 1.255 . S
O339 Fe331 1.997 . S
O339 C337 1.235 . S
C340 O346 1.287 . S
C340 O347 1.255 . S
O341 Fe330 1.976 . S
O341 C348 1.287 . S
O342 Fe331 1.996 . S
O342 C348 1.255 . S
O343 Fe333 1.976 . S
O343 C338 1.287 . S
O344 Fe330 1.996 . S
O344 C338 1.255 . S
C345 O349 1.295 . S
C345 O350 1.235 . S
O346 Fe331 1.976 . S
O346 C340 1.287 . S
O347 Fe333 1.996 . S
O347 C340 1.255 . S
C348 O341 1.287 . S
C348 O342 1.255 . S
O349 Fe331 2.002 1_655 S
O349 C345 1.295 . S
O350 Fe333 1.997 1_655 S
O350 C345 1.235 . S
C351 O334 1.295 1_655 S
C351 O335 1.235 1_655 S
Fe352 O354 1.918 . S
Fe352 O357 1.997 . S
Fe352 O358 2.002 . S
Fe352 O363 1.976 . S
Fe352 O366 1.996 . S
Fe353 O354 1.918 . S
Fe353 O361 1.997 . S
Fe353 O364 1.996 . S
Fe353 O368 1.976 . S
Fe353 O371 2.005 1_565 S
O354 Fe352 1.918 . S
O354 Fe353 1.918 . S
O354 Fe355 1.918 . S
Fe355 O354 1.918 . S
Fe355 O356 2.002 . S
Fe355 O365 1.976 . S
Fe355 O369 1.996 . S
Fe355 O372 1.997 1_565 S
O356 Fe355 2.002 . S
O356 C373 1.290 1_565 S
O357 Fe352 1.997 . S
O357 C373 1.222 1_565 S
O358 Fe352 2.002 . S
O358 C359 1.295 . S
C359 O358 1.295 . S
C359 O361 1.235 . S
C360 O365 1.287 . S
C360 O366 1.255 . S
O361 Fe353 1.997 . S
O361 C359 1.235 . S
C362 O368 1.287 . S
C362 O369 1.255 . S
O363 Fe352 1.976 . S
O363 C370 1.287 . S
O364 Fe353 1.996 . S
O364 C370 1.255 . S
O365 Fe355 1.976 . S
O365 C360 1.287 . S
O366 Fe352 1.996 . S
O366 C360 1.255 . S
C367 O371 1.294 . S
C367 O372 1.235 . S
O368 Fe353 1.976 . S
O368 C362 1.287 . S
O369 Fe355 1.996 . S
O369 C362 1.255 . S
C370 O363 1.287 . S
C370 O364 1.255 . S
O371 Fe353 2.005 1_545 S
O371 C367 1.294 . S
O372 Fe355 1.997 1_545 S
O372 C367 1.235 . S
C373 O356 1.290 1_545 S
C373 O357 1.222 1_545 S
Fe374 O376 1.918 . S
Fe374 O379 1.997 . S
Fe374 O380 2.002 . S
Fe374 O385 1.976 . S
Fe374 O388 1.996 . S
Fe375 O376 1.918 . S
Fe375 O383 1.997 . S
Fe375 O386 1.996 . S
Fe375 O390 1.976 . S
Fe375 O393 2.002 1_545 S
O376 Fe374 1.918 . S
O376 Fe375 1.918 . S
O376 Fe377 1.918 . S
Fe377 O376 1.918 . S
Fe377 O378 2.002 . S
Fe377 O387 1.976 . S
Fe377 O391 1.996 . S
Fe377 O394 1.997 1_545 S
O378 Fe377 2.002 . S
O378 C395 1.295 1_545 S
O379 Fe374 1.997 . S
O379 C395 1.235 1_545 S
O380 Fe374 2.002 . S
O380 C381 1.295 . S
C381 O380 1.295 . S
C381 O383 1.235 . S
C382 O387 1.287 . S
C382 O388 1.255 . S
O383 Fe375 1.997 . S
O383 C381 1.235 . S
C384 O390 1.287 . S
C384 O391 1.255 . S
O385 Fe374 1.976 . S
O385 C392 1.287 . S
O386 Fe375 1.996 . S
O386 C392 1.255 . S
O387 Fe377 1.976 . S
O387 C382 1.287 . S
O388 Fe374 1.996 . S
O388 C382 1.255 . S
C389 O393 1.295 . S
C389 O394 1.235 . S
O390 Fe375 1.976 . S
O390 C384 1.287 . S
O391 Fe377 1.996 . S
O391 C384 1.255 . S
C392 O385 1.287 . S
C392 O386 1.255 . S
O393 Fe375 2.002 1_565 S
O393 C389 1.295 . S
O394 Fe377 1.997 1_565 S
O394 C389 1.235 . S
C395 O378 1.295 1_565 S
C395 O379 1.235 1_565 S
Fe396 O398 1.918 . S
Fe396 O401 1.997 . S
Fe396 O402 2.002 . S
Fe396 O407 1.976 . S
Fe396 O410 1.996 . S
Fe397 O398 1.918 . S
Fe397 O405 1.997 . S
Fe397 O408 1.996 . S
Fe397 O412 1.976 . S
Fe397 O415 2.002 . S
O398 Fe396 1.918 . S
O398 Fe397 1.918 . S
O398 Fe399 1.918 . S
Fe399 O398 1.918 . S
Fe399 O400 2.002 . S
Fe399 O409 1.976 . S
Fe399 O413 1.996 . S
Fe399 O416 1.997 . S
O400 Fe399 2.002 . S
O400 C417 1.295 . S
O401 Fe396 1.997 . S
O401 C417 1.235 . S
O402 Fe396 2.002 . S
O402 C403 1.295 . S
C403 O402 1.295 . S
C403 O405 1.235 . S
C404 O409 1.287 . S
C404 O410 1.255 . S
O405 Fe397 1.997 . S
O405 C403 1.235 . S
C406 O412 1.287 . S
C406 O413 1.255 . S
O407 Fe396 1.976 . S
O407 C414 1.287 . S
O408 Fe397 1.996 . S
O408 C414 1.255 . S
O409 Fe399 1.976 . S
O409 C404 1.287 . S
O410 Fe396 1.996 . S
O410 C404 1.255 . S
C411 O415 1.295 . S
C411 O416 1.235 . S
O412 Fe397 1.976 . S
O412 C406 1.287 . S
O413 Fe399 1.996 . S
O413 C406 1.255 . S
C414 O407 1.287 . S
C414 O408 1.255 . S
O415 Fe397 2.002 . S
O415 C411 1.295 . S
O416 Fe399 1.997 . S
O416 C411 1.235 . S
C417 O400 1.295 . S
C417 O401 1.235 . S
Fe418 O420 1.918 . S
Fe418 O423 1.997 . S
Fe418 O424 2.002 . S
Fe418 O429 1.976 . S
Fe418 O432 1.996 . S
Fe419 O420 1.918 . S
Fe419 O427 1.997 . S
Fe419 O430 1.996 . S
Fe419 O434 1.976 . S
Fe419 O437 2.002 . S
O420 Fe418 1.918 . S
O420 Fe419 1.918 . S
O420 Fe421 1.918 . S
Fe421 O420 1.918 . S
Fe421 O422 2.002 . S
Fe421 O431 1.976 . S
Fe421 O435 1.996 . S
Fe421 O438 1.997 . S
O422 Fe421 2.002 . S
O422 C439 1.295 . S
O423 Fe418 1.997 . S
O423 C439 1.235 . S
O424 Fe418 2.002 . S
O424 C425 1.295 . S
C425 O424 1.295 . S
C425 O427 1.235 . S
C426 O431 1.287 . S
C426 O432 1.255 . S
O427 Fe419 1.997 . S
O427 C425 1.235 . S
C428 O434 1.287 . S
C428 O435 1.255 . S
O429 Fe418 1.976 . S
O429 C436 1.287 . S
O430 Fe419 1.996 . S
O430 C436 1.255 . S
O431 Fe421 1.976 . S
O431 C426 1.287 . S
O432 Fe418 1.996 . S
O432 C426 1.255 . S
C433 O437 1.295 . S
C433 O438 1.235 . S
O434 Fe419 1.976 . S
O434 C428 1.287 . S
O435 Fe421 1.996 . S
O435 C428 1.255 . S
C436 O429 1.287 . S
C436 O430 1.255 . S
O437 Fe419 2.002 . S
O437 C433 1.295 . S
O438 Fe421 1.997 . S
O438 C433 1.235 . S
C439 O422 1.295 . S
C439 O423 1.235 . S
Fe440 O442 1.918 . S
Fe440 O445 1.997 . S
Fe440 O446 2.002 . S
Fe440 O451 1.976 . S
Fe440 O454 1.996 . S
Fe441 O442 1.918 . S
Fe441 O449 1.997 . S
Fe441 O452 1.996 . S
Fe441 O456 1.976 . S
Fe441 O459 2.002 1_556 S
O442 Fe440 1.918 . S
O442 Fe441 1.918 . S
O442 Fe443 1.918 . S
Fe443 O442 1.918 . S
Fe443 O444 2.002 . S
Fe443 O453 1.976 . S
Fe443 O457 1.996 . S
Fe443 O460 1.997 1_556 S
O444 Fe443 2.002 . S
O444 C461 1.295 1_556 S
O445 Fe440 1.997 . S
O445 C461 1.235 1_556 S
O446 Fe440 2.002 . S
O446 C447 1.295 . S
C447 O446 1.295 . S
C447 O449 1.235 . S
C448 O453 1.287 . S
C448 O454 1.255 . S
O449 Fe441 1.997 . S
O449 C447 1.235 . S
C450 O456 1.287 . S
C450 O457 1.255 . S
O451 Fe440 1.976 . S
O451 C458 1.287 . S
O452 Fe441 1.996 . S
O452 C458 1.255 . S
O453 Fe443 1.976 . S
O453 C448 1.287 . S
O454 Fe440 1.996 . S
O454 C448 1.255 . S
C455 O459 1.295 . S
C455 O460 1.235 . S
O456 Fe441 1.976 . S
O456 C450 1.287 . S
O457 Fe443 1.996 . S
O457 C450 1.255 . S
C458 O451 1.287 . S
C458 O452 1.255 . S
O459 Fe441 2.002 1_554 S
O459 C455 1.295 . S
O460 Fe443 1.997 1_554 S
O460 C455 1.235 . S
C461 O444 1.295 1_554 S
C461 O445 1.235 1_554 S
Fe462 O464 1.918 . S
Fe462 O467 1.997 . S
Fe462 O468 2.002 . S
Fe462 O473 1.976 . S
Fe462 O476 1.996 . S
Fe463 O464 1.918 . S
Fe463 O471 1.997 . S
Fe463 O474 1.996 . S
Fe463 O478 1.976 . S
Fe463 O481 2.009 . S
O464 Fe462 1.918 . S
O464 Fe463 1.918 . S
O464 Fe465 1.918 . S
Fe465 O464 1.918 . S
Fe465 O466 2.002 . S
Fe465 O475 1.976 . S
Fe465 O479 1.996 . S
Fe465 O482 1.978 1_554 S
O466 Fe465 2.002 . S
O466 C483 1.292 1_554 S
O467 Fe462 1.997 . S
O467 C483 1.228 1_554 S
O468 Fe462 2.002 . S
O468 C469 1.295 . S
C469 O468 1.295 . S
C469 O471 1.235 . S
C470 O475 1.287 . S
C470 O476 1.255 . S
O471 Fe463 1.997 . S
O471 C469 1.235 . S
C472 O478 1.287 . S
C472 O479 1.255 . S
O473 Fe462 1.976 . S
O473 C480 1.287 . S
O474 Fe463 1.996 . S
O474 C480 1.255 . S
O475 Fe465 1.976 . S
O475 C470 1.287 . S
O476 Fe462 1.996 . S
O476 C470 1.255 . S
C477 O481 1.292 1_556 S
C477 O482 1.245 . S
O478 Fe463 1.976 . S
O478 C472 1.287 . S
O479 Fe465 1.996 . S
O479 C472 1.255 . S
C480 O473 1.287 . S
C480 O474 1.255 . S
O481 Fe463 2.009 . S
O481 C477 1.292 1_554 S
O482 Fe465 1.978 1_556 S
O482 C477 1.245 . S
C483 O466 1.292 1_556 S
C483 O467 1.228 1_556 S
Fe484 O486 1.918 . S
Fe484 O489 1.997 . S
Fe484 O490 2.002 . S
Fe484 O495 1.976 . S
Fe484 O498 1.996 . S
Fe485 O486 1.918 . S
Fe485 O493 1.997 . S
Fe485 O496 1.996 . S
Fe485 O500 1.976 . S
Fe485 O503 2.002 . S
O486 Fe484 1.918 . S
O486 Fe485 1.918 . S
O486 Fe487 1.918 . S
Fe487 O486 1.918 . S
Fe487 O488 2.002 . S
Fe487 O497 1.976 . S
Fe487 O501 1.996 . S
Fe487 O504 1.997 . S
O488 Fe487 2.002 . S
O488 C505 1.295 . S
O489 Fe484 1.997 . S
O489 C505 1.235 . S
O490 Fe484 2.002 . S
O490 C491 1.295 . S
C491 O490 1.295 . S
C491 O493 1.235 . S
C492 O497 1.287 . S
C492 O498 1.255 . S
O493 Fe485 1.997 . S
O493 C491 1.235 . S
C494 O500 1.287 . S
C494 O501 1.255 . S
O495 Fe484 1.976 . S
O495 C502 1.287 . S
O496 Fe485 1.996 . S
O496 C502 1.255 . S
O497 Fe487 1.976 . S
O497 C492 1.287 . S
O498 Fe484 1.996 . S
O498 C492 1.255 . S
C499 O503 1.295 . S
C499 O504 1.235 . S
O500 Fe485 1.976 . S
O500 C494 1.287 . S
O501 Fe487 1.996 . S
O501 C494 1.255 . S
C502 O495 1.287 . S
C502 O496 1.255 . S
O503 Fe485 2.002 . S
O503 C499 1.295 . S
O504 Fe487 1.997 . S
O504 C499 1.235 . S
C505 O488 1.295 . S
C505 O489 1.235 . S
Fe506 O508 1.918 . S
Fe506 O511 1.997 . S
Fe506 O512 2.002 . S
Fe506 O517 1.976 . S
Fe506 O520 1.996 . S
Fe507 O508 1.918 . S
Fe507 O515 1.997 . S
Fe507 O518 1.996 . S
Fe507 O522 1.976 . S
Fe507 O525 2.002 . S
O508 Fe506 1.918 . S
O508 Fe507 1.918 . S
O508 Fe509 1.918 . S
Fe509 O508 1.918 . S
Fe509 O510 2.002 . S
Fe509 O519 1.976 . S
Fe509 O523 1.996 . S
Fe509 O526 1.997 . S
O510 Fe509 2.002 . S
O510 C527 1.295 . S
O511 Fe506 1.997 . S
O511 C527 1.235 . S
O512 Fe506 2.002 . S
O512 C513 1.295 . S
C513 O512 1.295 . S
C513 O515 1.235 . S
C514 O519 1.287 . S
C514 O520 1.255 . S
O515 Fe507 1.997 . S
O515 C513 1.235 . S
C516 O522 1.287 . S
C516 O523 1.255 . S
O517 Fe506 1.976 . S
O517 C524 1.287 . S
O518 Fe507 1.996 . S
O518 C524 1.255 . S
O519 Fe509 1.976 . S
O519 C514 1.287 . S
O520 Fe506 1.996 . S
O520 C514 1.255 . S
C521 O525 1.295 . S
C521 O526 1.235 . S
O522 Fe507 1.976 . S
O522 C516 1.287 . S
O523 Fe509 1.996 . S
O523 C516 1.255 . S
C524 O517 1.287 . S
C524 O518 1.255 . S
O525 Fe507 2.002 . S
O525 C521 1.295 . S
O526 Fe509 1.997 . S
O526 C521 1.235 . S
C527 O510 1.295 . S
C527 O511 1.235 . S
C528 C529 1.387 . S
C528 H532 0.950 . S
C528 C537 1.390 . S
C529 C528 1.387 . S
C529 C531 1.387 . S
H530 C537 0.950 . S
C531 C529 1.387 . S
C531 C533 1.390 . S
C531 H535 0.950 . S
H532 C528 0.950 . S
C533 C531 1.390 . S
C533 C534 1.387 . S
C533 H536 0.950 . S
C534 C533 1.387 . S
C534 C537 1.387 . S
H535 C531 0.950 . S
H536 C533 0.950 . S
C537 C528 1.390 . S
C537 H530 0.950 . S
C537 C534 1.387 . S
C538 C539 1.387 . S
C538 H542 0.950 . S
C538 C547 1.390 . S
C539 C538 1.387 . S
C539 C541 1.387 . S
H540 C547 0.950 . S
C541 C539 1.387 . S
C541 C543 1.390 . S
C541 H545 0.950 . S
H542 C538 0.950 . S
C543 C541 1.390 . S
C543 C544 1.387 . S
C543 H546 0.950 . S
C544 C543 1.387 . S
C544 C547 1.387 . S
H545 C541 0.950 . S
H546 C543 0.950 . S
C547 C538 1.390 . S
C547 H540 0.950 . S
C547 C544 1.387 . S
C548 C549 1.387 . S
C548 H552 0.950 . S
C548 C557 1.390 . S
C549 C548 1.387 . S
C549 C551 1.387 . S
H550 C557 0.950 . S
C551 C549 1.387 . S
C551 C553 1.390 . S
C551 H555 0.950 . S
H552 C548 0.950 . S
C553 C551 1.390 . S
C553 C554 1.387 . S
C553 H556 0.950 . S
C554 C553 1.387 . S
C554 C557 1.387 . S
H555 C551 0.950 . S
H556 C553 0.950 . S
C557 C548 1.390 . S
C557 H550 0.950 . S
C557 C554 1.387 . S
C558 C559 1.387 . S
C558 H562 0.950 . S
C558 C567 1.390 . S
C559 C558 1.387 . S
C559 C561 1.387 . S
H560 C567 0.950 . S
C561 C559 1.387 . S
C561 C563 1.390 . S
C561 H565 0.950 . S
H562 C558 0.950 . S
C563 C561 1.390 . S
C563 C564 1.387 . S
C563 H566 0.950 . S
C564 C563 1.387 . S
C564 C567 1.387 . S
H565 C561 0.950 . S
H566 C563 0.950 . S
C567 C558 1.390 . S
C567 H560 0.950 . S
C567 C564 1.387 . S
C568 C569 1.387 . S
C568 H572 0.950 . S
C568 C577 1.390 . S
C569 C568 1.387 . S
C569 C571 1.387 . S
H570 C577 0.950 . S
C571 C569 1.387 . S
C571 C573 1.390 . S
C571 H575 0.950 . S
H572 C568 0.950 . S
C573 C571 1.390 . S
C573 C574 1.387 . S
C573 H576 0.950 . S
C574 C573 1.387 . S
C574 C577 1.387 . S
H575 C571 0.950 . S
H576 C573 0.950 . S
C577 C568 1.390 . S
C577 H570 0.950 . S
C577 C574 1.387 . S
C578 C579 1.387 . S
C578 H582 0.950 . S
C578 C587 1.390 . S
C579 C578 1.387 . S
C579 C581 1.387 . S
H580 C587 0.950 . S
C581 C579 1.387 . S
C581 C583 1.390 . S
C581 H585 0.950 . S
H582 C578 0.950 . S
C583 C581 1.390 . S
C583 C584 1.387 . S
C583 H586 0.950 . S
C584 C583 1.387 . S
C584 C587 1.387 . S
H585 C581 0.950 . S
H586 C583 0.950 . S
C587 C578 1.390 . S
C587 H580 0.950 . S
C587 C584 1.387 . S
C588 C589 1.387 . S
C588 H592 0.950 . S
C588 C597 1.390 . S
C589 C588 1.387 . S
C589 C591 1.387 . S
H590 C597 0.950 . S
C591 C589 1.387 . S
C591 C593 1.390 . S
C591 H595 0.950 . S
H592 C588 0.950 . S
C593 C591 1.390 . S
C593 C594 1.387 . S
C593 H596 0.950 . S
C594 C593 1.387 . S
C594 C597 1.387 . S
H595 C591 0.950 . S
H596 C593 0.950 . S
C597 C588 1.390 . S
C597 H590 0.950 . S
C597 C594 1.387 . S
C598 C599 1.387 . S
C598 H602 0.950 . S
C598 C607 1.390 . S
C599 C598 1.387 . S
C599 C601 1.387 . S
H600 C607 0.950 . S
C601 C599 1.387 . S
C601 C603 1.390 . S
C601 H605 0.950 . S
H602 C598 0.950 . S
C603 C601 1.390 . S
C603 C604 1.387 . S
C603 H606 0.950 . S
C604 C603 1.387 . S
C604 C607 1.387 . S
H605 C601 0.950 . S
H606 C603 0.950 . S
C607 C598 1.390 . S
C607 H600 0.950 . S
C607 C604 1.387 . S
C608 C609 1.387 . S
C608 H612 0.950 . S
C608 C617 1.390 . S
C609 C608 1.387 . S
C609 C611 1.387 . S
H610 C617 0.950 . S
C611 C609 1.387 . S
C611 C613 1.390 . S
C611 H615 0.950 . S
H612 C608 0.950 . S
C613 C611 1.390 . S
C613 C614 1.387 . S
C613 H616 0.950 . S
C614 C613 1.387 . S
C614 C617 1.387 . S
H615 C611 0.950 . S
H616 C613 0.950 . S
C617 C608 1.390 . S
C617 H610 0.950 . S
C617 C614 1.387 . S
C618 C619 1.387 . S
C618 H622 0.950 . S
C618 C627 1.390 . S
C619 C618 1.387 . S
C619 C621 1.387 . S
H620 C627 0.950 . S
C621 C619 1.387 . S
C621 C623 1.390 . S
C621 H625 0.950 . S
H622 C618 0.950 . S
C623 C621 1.390 . S
C623 C624 1.387 . S
C623 H626 0.950 . S
C624 C623 1.387 . S
C624 C627 1.387 . S
H625 C621 0.950 . S
H626 C623 0.950 . S
C627 C618 1.390 . S
C627 H620 0.950 . S
C627 C624 1.387 . S
C628 C629 1.387 . S
C628 H632 0.950 . S
C628 C637 1.390 . S
C629 C628 1.387 . S
C629 C631 1.387 . S
H630 C637 0.950 . S
C631 C629 1.387 . S
C631 C633 1.390 . S
C631 H635 0.950 . S
H632 C628 0.950 . S
C633 C631 1.390 . S
C633 C634 1.387 . S
C633 H636 0.950 . S
C634 C633 1.387 . S
C634 C637 1.387 . S
H635 C631 0.950 . S
H636 C633 0.950 . S
C637 C628 1.390 . S
C637 H630 0.950 . S
C637 C634 1.387 . S
C638 C639 1.387 . S
C638 H642 0.950 . S
C638 C647 1.390 . S
C639 C638 1.387 . S
C639 C641 1.387 . S
H640 C647 0.950 . S
C641 C639 1.387 . S
C641 C643 1.390 . S
C641 H645 0.950 . S
H642 C638 0.950 . S
C643 C641 1.390 . S
C643 C644 1.387 . S
C643 H646 0.950 . S
C644 C643 1.387 . S
C644 C647 1.387 . S
H645 C641 0.950 . S
H646 C643 0.950 . S
C647 C638 1.390 . S
C647 H640 0.950 . S
C647 C644 1.387 . S
C648 C649 1.387 . S
C648 H652 0.950 . S
C648 C657 1.390 . S
C649 C648 1.387 . S
C649 C651 1.387 . S
H650 C657 0.950 . S
C651 C649 1.387 . S
C651 C653 1.390 . S
C651 H655 0.950 . S
H652 C648 0.950 . S
C653 C651 1.390 . S
C653 C654 1.387 . S
C653 H656 0.950 . S
C654 C653 1.387 . S
C654 C657 1.387 . S
H655 C651 0.950 . S
H656 C653 0.950 . S
C657 C648 1.390 . S
C657 H650 0.950 . S
C657 C654 1.387 . S
C658 C659 1.387 . S
C658 H662 0.950 . S
C658 C667 1.390 . S
C659 C658 1.387 . S
C659 C661 1.387 . S
H660 C667 0.950 . S
C661 C659 1.387 . S
C661 C663 1.390 . S
C661 H665 0.950 . S
H662 C658 0.950 . S
C663 C661 1.390 . S
C663 C664 1.387 . S
C663 H666 0.950 . S
C664 C663 1.387 . S
C664 C667 1.387 . S
H665 C661 0.950 . S
H666 C663 0.950 . S
C667 C658 1.390 . S
C667 H660 0.950 . S
C667 C664 1.387 . S
C668 C669 1.387 . S
C668 H672 0.950 . S
C668 C677 1.390 . S
C669 C668 1.387 . S
C669 C671 1.387 . S
H670 C677 0.950 . S
C671 C669 1.387 . S
C671 C673 1.390 . S
C671 H675 0.950 . S
H672 C668 0.950 . S
C673 C671 1.390 . S
C673 C674 1.387 . S
C673 H676 0.950 . S
C674 C673 1.387 . S
C674 C677 1.387 . S
H675 C671 0.950 . S
H676 C673 0.950 . S
C677 C668 1.390 . S
C677 H670 0.950 . S
C677 C674 1.387 . S
C678 C679 1.387 . S
C678 H682 0.950 . S
C678 C687 1.390 . S
C679 C678 1.387 . S
C679 C681 1.387 . S
H680 C687 0.950 . S
C681 C679 1.387 . S
C681 C683 1.390 . S
C681 H685 0.950 . S
H682 C678 0.950 . S
C683 C681 1.390 . S
C683 C684 1.387 . S
C683 H686 0.950 . S
C684 C683 1.387 . S
C684 C687 1.387 . S
H685 C681 0.950 . S
H686 C683 0.950 . S
C687 C678 1.390 . S
C687 H680 0.950 . S
C687 C684 1.387 . S
C688 C689 1.387 . S
C688 H692 0.950 . S
C688 C697 1.390 . S
C689 C688 1.387 . S
C689 C691 1.387 . S
H690 C697 0.950 . S
C691 C689 1.387 . S
C691 C693 1.390 . S
C691 H695 0.950 . S
H692 C688 0.950 . S
C693 C691 1.390 . S
C693 C694 1.387 . S
C693 H696 0.950 . S
C694 C693 1.387 . S
C694 C697 1.387 . S
H695 C691 0.950 . S
H696 C693 0.950 . S
C697 C688 1.390 . S
C697 H690 0.950 . S
C697 C694 1.387 . S
C698 C699 1.387 . S
C698 H702 0.950 . S
C698 C707 1.390 . S
C699 C698 1.387 . S
C699 C701 1.387 . S
H700 C707 0.950 . S
C701 C699 1.387 . S
C701 C703 1.390 . S
C701 H705 0.950 . S
H702 C698 0.950 . S
C703 C701 1.390 . S
C703 C704 1.387 . S
C703 H706 0.950 . S
C704 C703 1.387 . S
C704 C707 1.387 . S
H705 C701 0.950 . S
H706 C703 0.950 . S
C707 C698 1.390 . S
C707 H700 0.950 . S
C707 C704 1.387 . S
C708 C709 1.387 . S
C708 H712 0.950 . S
C708 C717 1.390 . S
C709 C708 1.387 . S
C709 C711 1.387 . S
H710 C717 0.950 . S
C711 C709 1.387 . S
C711 C713 1.390 . S
C711 H715 0.950 . S
H712 C708 0.950 . S
C713 C711 1.390 . S
C713 C714 1.387 . S
C713 H716 0.950 . S
C714 C713 1.387 . S
C714 C717 1.387 . S
H715 C711 0.950 . S
H716 C713 0.950 . S
C717 C708 1.390 . S
C717 H710 0.950 . S
C717 C714 1.387 . S
C718 C719 1.387 . S
C718 H722 0.950 . S
C718 C727 1.390 . S
C719 C718 1.387 . S
C719 C721 1.387 . S
H720 C727 0.950 . S
C721 C719 1.387 . S
C721 C723 1.390 . S
C721 H725 0.950 . S
H722 C718 0.950 . S
C723 C721 1.390 . S
C723 C724 1.387 . S
C723 H726 0.950 . S
C724 C723 1.387 . S
C724 C727 1.387 . S
H725 C721 0.950 . S
H726 C723 0.950 . S
C727 C718 1.390 . S
C727 H720 0.950 . S
C727 C724 1.387 . S
C728 C729 1.387 . S
C728 H732 0.950 . S
C728 C737 1.390 . S
C729 C728 1.387 . S
C729 C731 1.387 . S
H730 C737 0.950 . S
C731 C729 1.387 . S
C731 C733 1.390 . S
C731 H735 0.950 . S
H732 C728 0.950 . S
C733 C731 1.390 . S
C733 C734 1.387 . S
C733 H736 0.950 . S
C734 C733 1.387 . S
C734 C737 1.387 . S
H735 C731 0.950 . S
H736 C733 0.950 . S
C737 C728 1.390 . S
C737 H730 0.950 . S
C737 C734 1.387 . S
C738 C739 1.387 . S
C738 H742 0.950 . S
C738 C747 1.390 . S
C739 C738 1.387 . S
C739 C741 1.387 . S
H740 C747 0.950 . S
C741 C739 1.387 . S
C741 C743 1.390 . S
C741 H745 0.950 . S
H742 C738 0.950 . S
C743 C741 1.390 . S
C743 C744 1.387 . S
C743 H746 0.950 . S
C744 C743 1.387 . S
C744 C747 1.387 . S
H745 C741 0.950 . S
H746 C743 0.950 . S
C747 C738 1.390 . S
C747 H740 0.950 . S
C747 C744 1.387 . S
C748 C749 1.387 . S
C748 H752 0.950 . S
C748 C757 1.390 . S
C749 C748 1.387 . S
C749 C751 1.387 . S
H750 C757 0.950 . S
C751 C749 1.387 . S
C751 C753 1.390 . S
C751 H755 0.950 . S
H752 C748 0.950 . S
C753 C751 1.390 . S
C753 C754 1.387 . S
C753 H756 0.950 . S
C754 C753 1.387 . S
C754 C757 1.387 . S
H755 C751 0.950 . S
H756 C753 0.950 . S
C757 C748 1.390 . S
C757 H750 0.950 . S
C757 C754 1.387 . S
C758 C759 1.387 . S
C758 H762 0.950 . S
C758 C767 1.390 . S
C759 C758 1.387 . S
C759 C761 1.387 . S
H760 C767 0.950 . S
C761 C759 1.387 . S
C761 C763 1.390 . S
C761 H765 0.950 . S
H762 C758 0.950 . S
C763 C761 1.390 . S
C763 C764 1.387 . S
C763 H766 0.950 . S
C764 C763 1.387 . S
C764 C767 1.387 . S
H765 C761 0.950 . S
H766 C763 0.950 . S
C767 C758 1.390 . S
C767 H760 0.950 . S
C767 C764 1.387 . S
C768 C769 1.387 . S
C768 H772 0.950 . S
C768 C777 1.390 . S
C769 C768 1.387 . S
C769 C771 1.387 . S
H770 C777 0.950 . S
C771 C769 1.387 . S
C771 C773 1.390 . S
C771 H775 0.950 . S
H772 C768 0.950 . S
C773 C771 1.390 . S
C773 C774 1.387 . S
C773 H776 0.950 . S
C774 C773 1.387 . S
C774 C777 1.387 . S
H775 C771 0.950 . S
H776 C773 0.950 . S
C777 C768 1.390 . S
C777 H770 0.950 . S
C777 C774 1.387 . S
C778 C779 1.387 . S
C778 H782 0.950 . S
C778 C787 1.390 . S
C779 C778 1.387 . S
C779 C781 1.387 . S
H780 C787 0.950 . S
C781 C779 1.387 . S
C781 C783 1.390 . S
C781 H785 0.950 . S
H782 C778 0.950 . S
C783 C781 1.390 . S
C783 C784 1.387 . S
C783 H786 0.950 . S
C784 C783 1.387 . S
C784 C787 1.387 . S
H785 C781 0.950 . S
H786 C783 0.950 . S
C787 C778 1.390 . S
C787 H780 0.950 . S
C787 C784 1.387 . S
C788 C789 1.387 . S
C788 H792 0.950 . S
C788 C797 1.390 . S
C789 C788 1.387 . S
C789 C791 1.387 . S
H790 C797 0.950 . S
C791 C789 1.387 . S
C791 C793 1.390 . S
C791 H795 0.950 . S
H792 C788 0.950 . S
C793 C791 1.390 . S
C793 C794 1.387 . S
C793 H796 0.950 . S
C794 C793 1.387 . S
C794 C797 1.387 . S
H795 C791 0.950 . S
H796 C793 0.950 . S
C797 C788 1.390 . S
C797 H790 0.950 . S
C797 C794 1.387 . S
C798 C799 1.387 . S
C798 H802 0.950 . S
C798 C807 1.390 . S
C799 C798 1.387 . S
C799 C801 1.387 . S
H800 C807 0.950 . S
C801 C799 1.387 . S
C801 C803 1.390 . S
C801 H805 0.950 . S
H802 C798 0.950 . S
C803 C801 1.390 . S
C803 C804 1.387 . S
C803 H806 0.950 . S
C804 C803 1.387 . S
C804 C807 1.387 . S
H805 C801 0.950 . S
H806 C803 0.950 . S
C807 C798 1.390 . S
C807 H800 0.950 . S
C807 C804 1.387 . S
C808 C809 1.387 . S
C808 H812 0.950 . S
C808 C817 1.390 . S
C809 C808 1.387 . S
C809 C811 1.387 . S
H810 C817 0.950 . S
C811 C809 1.387 . S
C811 C813 1.390 . S
C811 H815 0.950 . S
H812 C808 0.950 . S
C813 C811 1.390 . S
C813 C814 1.387 . S
C813 H816 0.950 . S
C814 C813 1.387 . S
C814 C817 1.387 . S
H815 C811 0.950 . S
H816 C813 0.950 . S
C817 C808 1.390 . S
C817 H810 0.950 . S
C817 C814 1.387 . S
C818 C819 1.387 . S
C818 H822 0.950 . S
C818 C827 1.390 . S
C819 C818 1.387 . S
C819 C821 1.387 . S
H820 C827 0.950 . S
C821 C819 1.387 . S
C821 C823 1.390 . S
C821 H825 0.950 . S
H822 C818 0.950 . S
C823 C821 1.390 . S
C823 C824 1.387 . S
C823 H826 0.950 . S
C824 C823 1.387 . S
C824 C827 1.387 . S
H825 C821 0.950 . S
H826 C823 0.950 . S
C827 C818 1.390 . S
C827 H820 0.950 . S
C827 C824 1.387 . S
C828 C829 1.387 . S
C828 H832 0.950 . S
C828 C837 1.390 . S
C829 C828 1.387 . S
C829 C831 1.387 . S
H830 C837 0.950 . S
C831 C829 1.387 . S
C831 C833 1.390 . S
C831 H835 0.950 . S
H832 C828 0.950 . S
C833 C831 1.390 . S
C833 C834 1.387 . S
C833 H836 0.950 . S
C834 C833 1.387 . S
C834 C837 1.387 . S
H835 C831 0.950 . S
H836 C833 0.950 . S
C837 C828 1.390 . S
C837 H830 0.950 . S
C837 C834 1.387 . S
C838 C839 1.387 . S
C838 H842 0.950 . S
C838 C847 1.390 . S
C839 C838 1.387 . S
C839 C841 1.387 . S
H840 C847 0.950 . S
C841 C839 1.387 . S
C841 C843 1.390 . S
C841 H845 0.950 . S
H842 C838 0.950 . S
C843 C841 1.390 . S
C843 C844 1.387 . S
C843 H846 0.950 . S
C844 C843 1.387 . S
C844 C847 1.387 . S
H845 C841 0.950 . S
H846 C843 0.950 . S
C847 C838 1.390 . S
C847 H840 0.950 . S
C847 C844 1.387 . S
C848 C849 1.387 . S
C848 H852 0.950 . S
C848 C857 1.390 . S
C849 C848 1.387 . S
C849 C851 1.387 . S
H850 C857 0.950 . S
C851 C849 1.387 . S
C851 C853 1.390 . S
C851 H855 0.950 . S
H852 C848 0.950 . S
C853 C851 1.390 . S
C853 C854 1.387 . S
C853 H856 0.950 . S
C854 C853 1.387 . S
C854 C857 1.387 . S
H855 C851 0.950 . S
H856 C853 0.950 . S
C857 C848 1.390 . S
C857 H850 0.950 . S
C857 C854 1.387 . S
C858 C859 1.387 . S
C858 H862 0.950 . S
C858 C867 1.390 . S
C859 C858 1.387 . S
C859 C861 1.387 . S
H860 C867 0.950 . S
C861 C859 1.387 . S
C861 C863 1.390 . S
C861 H865 0.950 . S
H862 C858 0.950 . S
C863 C861 1.390 . S
C863 C864 1.387 . S
C863 H866 0.950 . S
C864 C863 1.387 . S
C864 C867 1.387 . S
H865 C861 0.950 . S
H866 C863 0.950 . S
C867 C858 1.390 . S
C867 H860 0.950 . S
C867 C864 1.387 . S
C868 C869 1.387 . S
C868 H872 0.950 . S
C868 C877 1.390 . S
C869 C868 1.387 . S
C869 C871 1.387 . S
H870 C877 0.950 . S
C871 C869 1.387 . S
C871 C873 1.390 . S
C871 H875 0.950 . S
H872 C868 0.950 . S
C873 C871 1.390 . S
C873 C874 1.387 . S
C873 H876 0.950 . S
C874 C873 1.387 . S
C874 C877 1.387 . S
H875 C871 0.950 . S
H876 C873 0.950 . S
C877 C868 1.390 . S
C877 H870 0.950 . S
C877 C874 1.387 . S
C878 C879 1.387 . S
C878 H882 0.950 . S
C878 C887 1.390 . S
C879 C878 1.387 . S
C879 C881 1.387 . S
H880 C887 0.950 . S
C881 C879 1.387 . S
C881 C883 1.390 . S
C881 H885 0.950 . S
H882 C878 0.950 . S
C883 C881 1.390 . S
C883 C884 1.387 . S
C883 H886 0.950 . S
C884 C883 1.387 . S
C884 C887 1.387 . S
H885 C881 0.950 . S
H886 C883 0.950 . S
C887 C878 1.390 . S
C887 H880 0.950 . S
C887 C884 1.387 . S
C888 C889 1.387 . S
C888 H892 0.950 . S
C888 C897 1.390 . S
C889 C888 1.387 . S
C889 C891 1.387 . S
H890 C897 0.950 . S
C891 C889 1.387 . S
C891 C893 1.390 . S
C891 H895 0.950 . S
H892 C888 0.950 . S
C893 C891 1.390 . S
C893 C894 1.387 . S
C893 H896 0.950 . S
C894 C893 1.387 . S
C894 C897 1.387 . S
H895 C891 0.950 . S
H896 C893 0.950 . S
C897 C888 1.390 . S
C897 H890 0.950 . S
C897 C894 1.387 . S
C898 C899 1.387 . S
C898 H902 0.950 . S
C898 C907 1.390 . S
C899 C898 1.387 . S
C899 C901 1.387 . S
H900 C907 0.950 . S
C901 C899 1.387 . S
C901 C903 1.390 . S
C901 H905 0.950 . S
H902 C898 0.950 . S
C903 C901 1.390 . S
C903 C904 1.387 . S
C903 H906 0.950 . S
C904 C903 1.387 . S
C904 C907 1.387 . S
H905 C901 0.950 . S
H906 C903 0.950 . S
C907 C898 1.390 . S
C907 H900 0.950 . S
C907 C904 1.387 . S
C908 C909 1.387 . S
C908 H912 0.950 . S
C908 C917 1.390 . S
C909 C908 1.387 . S
C909 C911 1.387 . S
H910 C917 0.950 . S
C911 C909 1.387 . S
C911 C913 1.390 . S
C911 H915 0.950 . S
H912 C908 0.950 . S
C913 C911 1.390 . S
C913 C914 1.387 . S
C913 H916 0.950 . S
C914 C913 1.387 . S
C914 C917 1.387 . S
H915 C911 0.950 . S
H916 C913 0.950 . S
C917 C908 1.390 . S
C917 H910 0.950 . S
C917 C914 1.387 . S
C918 C919 1.387 . S
C918 H922 0.950 . S
C918 C927 1.390 . S
C919 C918 1.387 . S
C919 C921 1.387 . S
H920 C927 0.950 . S
C921 C919 1.387 . S
C921 C923 1.390 . S
C921 H925 0.950 . S
H922 C918 0.950 . S
C923 C921 1.390 . S
C923 C924 1.387 . S
C923 H926 0.950 . S
C924 C923 1.387 . S
C924 C927 1.387 . S
H925 C921 0.950 . S
H926 C923 0.950 . S
C927 C918 1.390 . S
C927 H920 0.950 . S
C927 C924 1.387 . S
C928 C929 1.387 . S
C928 H932 0.950 . S
C928 C937 1.390 . S
C929 C928 1.387 . S
C929 C931 1.387 . S
H930 C937 0.950 . S
C931 C929 1.387 . S
C931 C933 1.390 . S
C931 H935 0.950 . S
H932 C928 0.950 . S
C933 C931 1.390 . S
C933 C934 1.387 . S
C933 H936 0.950 . S
C934 C933 1.387 . S
C934 C937 1.387 . S
H935 C931 0.950 . S
H936 C933 0.950 . S
C937 C928 1.390 . S
C937 H930 0.950 . S
C937 C934 1.387 . S
C938 C939 1.387 . S
C938 H942 0.950 . S
C938 C947 1.390 . S
C939 C938 1.387 . S
C939 C941 1.387 . S
H940 C947 0.950 . S
C941 C939 1.387 . S
C941 C943 1.390 . S
C941 H945 0.950 . S
H942 C938 0.950 . S
C943 C941 1.390 . S
C943 C944 1.387 . S
C943 H946 0.950 . S
C944 C943 1.387 . S
C944 C947 1.387 . S
H945 C941 0.950 . S
H946 C943 0.950 . S
C947 C938 1.390 . S
C947 H940 0.950 . S
C947 C944 1.387 . S
C948 C949 1.387 . S
C948 H952 0.950 . S
C948 C957 1.390 . S
C949 C948 1.387 . S
C949 C951 1.387 . S
H950 C957 0.950 . S
C951 C949 1.387 . S
C951 C953 1.390 . S
C951 H955 0.950 . S
H952 C948 0.950 . S
C953 C951 1.390 . S
C953 C954 1.387 . S
C953 H956 0.950 . S
C954 C953 1.387 . S
C954 C957 1.387 . S
H955 C951 0.950 . S
H956 C953 0.950 . S
C957 C948 1.390 . S
C957 H950 0.950 . S
C957 C954 1.387 . S
C958 C959 1.387 . S
C958 H962 0.950 . S
C958 C967 1.390 . S
C959 C958 1.387 . S
C959 C961 1.387 . S
H960 C967 0.950 . S
C961 C959 1.387 . S
C961 C963 1.390 . S
C961 H965 0.950 . S
H962 C958 0.950 . S
C963 C961 1.390 . S
C963 C964 1.387 . S
C963 H966 0.950 . S
C964 C963 1.387 . S
C964 C967 1.387 . S
H965 C961 0.950 . S
H966 C963 0.950 . S
C967 C958 1.390 . S
C967 H960 0.950 . S
C967 C964 1.387 . S
C968 C969 1.387 . S
C968 H972 0.950 . S
C968 C977 1.390 . S
C969 C968 1.387 . S
C969 C971 1.387 . S
H970 C977 0.950 . S
C971 C969 1.387 . S
C971 C973 1.390 . S
C971 H975 0.950 . S
H972 C968 0.950 . S
C973 C971 1.390 . S
C973 C974 1.387 . S
C973 H976 0.950 . S
C974 C973 1.387 . S
C974 C977 1.387 . S
H975 C971 0.950 . S
H976 C973 0.950 . S
C977 C968 1.390 . S
C977 H970 0.950 . S
C977 C974 1.387 . S
C978 C979 1.387 . S
C978 H982 0.950 . S
C978 C987 1.390 . S
C979 C978 1.387 . S
C979 C981 1.387 . S
H980 C987 0.950 . S
C981 C979 1.387 . S
C981 C983 1.390 . S
C981 H985 0.950 . S
H982 C978 0.950 . S
C983 C981 1.390 . S
C983 C984 1.387 . S
C983 H986 0.950 . S
C984 C983 1.387 . S
C984 C987 1.387 . S
H985 C981 0.950 . S
H986 C983 0.950 . S
C987 C978 1.390 . S
C987 H980 0.950 . S
C987 C984 1.387 . S
C988 C989 1.387 . S
C988 H992 0.950 . S
C988 C997 1.390 . S
C989 C988 1.387 . S
C989 C991 1.387 . S
H990 C997 0.950 . S
C991 C989 1.387 . S
C991 C993 1.390 . S
C991 H995 0.950 . S
H992 C988 0.950 . S
C993 C991 1.390 . S
C993 C994 1.387 . S
C993 H996 0.950 . S
C994 C993 1.387 . S
C994 C997 1.387 . S
H995 C991 0.950 . S
H996 C993 0.950 . S
C997 C988 1.390 . S
C997 H990 0.950 . S
C997 C994 1.387 . S
C998 C999 1.387 . S
C998 H1002 0.950 . S
C998 C1007 1.390 . S
C999 C998 1.387 . S
C999 C1001 1.387 . S
H1000 C1007 0.950 . S
C1001 C999 1.387 . S
C1001 C1003 1.390 . S
C1001 H1005 0.950 . S
H1002 C998 0.950 . S
C1003 C1001 1.390 . S
C1003 C1004 1.387 . S
C1003 H1006 0.950 . S
C1004 C1003 1.387 . S
C1004 C1007 1.387 . S
H1005 C1001 0.950 . S
H1006 C1003 0.950 . S
C1007 C998 1.390 . S
C1007 H1000 0.950 . S
C1007 C1004 1.387 . S
C1008 C1009 1.387 . S
C1008 H1012 0.950 . S
C1008 C1017 1.390 . S
C1009 C1008 1.387 . S
C1009 C1011 1.387 . S
H1010 C1017 0.950 . S
C1011 C1009 1.387 . S
C1011 C1013 1.390 . S
C1011 H1015 0.950 . S
H1012 C1008 0.950 . S
C1013 C1011 1.390 . S
C1013 C1014 1.387 . S
C1013 H1016 0.950 . S
C1014 C1013 1.387 . S
C1014 C1017 1.387 . S
H1015 C1011 0.950 . S
H1016 C1013 0.950 . S
C1017 C1008 1.390 . S
C1017 H1010 0.950 . S
C1017 C1014 1.387 . S
C1018 C1019 1.387 . S
C1018 H1022 0.950 . S
C1018 C1027 1.390 . S
C1019 C1018 1.387 . S
C1019 C1021 1.387 . S
H1020 C1027 0.950 . S
C1021 C1019 1.387 . S
C1021 C1023 1.390 . S
C1021 H1025 0.950 . S
H1022 C1018 0.950 . S
C1023 C1021 1.390 . S
C1023 C1024 1.387 . S
C1023 H1026 0.950 . S
C1024 C1023 1.387 . S
C1024 C1027 1.387 . S
H1025 C1021 0.950 . S
H1026 C1023 0.950 . S
C1027 C1018 1.390 . S
C1027 H1020 0.950 . S
C1027 C1024 1.387 . S
C1028 C1029 1.387 . S
C1028 H1032 0.950 . S
C1028 C1037 1.390 . S
C1029 C1028 1.387 . S
C1029 C1031 1.387 . S
H1030 C1037 0.950 . S
C1031 C1029 1.387 . S
C1031 C1033 1.390 . S
C1031 H1035 0.950 . S
H1032 C1028 0.950 . S
C1033 C1031 1.390 . S
C1033 C1034 1.387 . S
C1033 H1036 0.950 . S
C1034 C1033 1.387 . S
C1034 C1037 1.387 . S
H1035 C1031 0.950 . S
H1036 C1033 0.950 . S
C1037 C1028 1.390 . S
C1037 H1030 0.950 . S
C1037 C1034 1.387 . S
C1038 C1039 1.387 . S
C1038 H1042 0.950 . S
C1038 C1047 1.390 . S
C1039 C1038 1.387 . S
C1039 C1041 1.387 . S
H1040 C1047 0.950 . S
C1041 C1039 1.387 . S
C1041 C1043 1.390 . S
C1041 H1045 0.950 . S
H1042 C1038 0.950 . S
C1043 C1041 1.390 . S
C1043 C1044 1.387 . S
C1043 H1046 0.950 . S
C1044 C1043 1.387 . S
C1044 C1047 1.387 . S
H1045 C1041 0.950 . S
H1046 C1043 0.950 . S
C1047 C1038 1.390 . S
C1047 H1040 0.950 . S
C1047 C1044 1.387 . S
C1048 C1049 1.387 . S
C1048 H1052 0.950 . S
C1048 C1057 1.390 . S
C1049 C1048 1.387 . S
C1049 C1051 1.387 . S
H1050 C1057 0.950 . S
C1051 C1049 1.387 . S
C1051 C1053 1.390 . S
C1051 H1055 0.950 . S
H1052 C1048 0.950 . S
C1053 C1051 1.390 . S
C1053 C1054 1.387 . S
C1053 H1056 0.950 . S
C1054 C1053 1.387 . S
C1054 C1057 1.387 . S
H1055 C1051 0.950 . S
H1056 C1053 0.950 . S
C1057 C1048 1.390 . S
C1057 H1050 0.950 . S
C1057 C1054 1.387 . S
C1058 C1059 1.387 . S
C1058 H1062 0.950 . S
C1058 C1067 1.390 . S
C1059 C1058 1.387 . S
C1059 C1061 1.387 . S
H1060 C1067 0.950 . S
C1061 C1059 1.387 . S
C1061 C1063 1.390 . S
C1061 H1065 0.950 . S
H1062 C1058 0.950 . S
C1063 C1061 1.390 . S
C1063 C1064 1.387 . S
C1063 H1066 0.950 . S
C1064 C1063 1.387 . S
C1064 C1067 1.387 . S
H1065 C1061 0.950 . S
H1066 C1063 0.950 . S
C1067 C1058 1.390 . S
C1067 H1060 0.950 . S
C1067 C1064 1.387 . S
C1068 C1069 1.387 . S
C1068 H1072 0.950 . S
C1068 C1077 1.390 . S
C1069 C1068 1.387 . S
C1069 C1071 1.387 . S
H1070 C1077 0.950 . S
C1071 C1069 1.387 . S
C1071 C1073 1.390 . S
C1071 H1075 0.950 . S
H1072 C1068 0.950 . S
C1073 C1071 1.390 . S
C1073 C1074 1.387 . S
C1073 H1076 0.950 . S
C1074 C1073 1.387 . S
C1074 C1077 1.387 . S
H1075 C1071 0.950 . S
H1076 C1073 0.950 . S
C1077 C1068 1.390 . S
C1077 H1070 0.950 . S
C1077 C1074 1.387 . S
C1078 C1079 1.387 . S
C1078 H1082 0.950 . S
C1078 C1087 1.390 . S
C1079 C1078 1.387 . S
C1079 C1081 1.387 . S
H1080 C1087 0.950 . S
C1081 C1079 1.387 . S
C1081 C1083 1.390 . S
C1081 H1085 0.950 . S
H1082 C1078 0.950 . S
C1083 C1081 1.390 . S
C1083 C1084 1.387 . S
C1083 H1086 0.950 . S
C1084 C1083 1.387 . S
C1084 C1087 1.387 . S
H1085 C1081 0.950 . S
H1086 C1083 0.950 . S
C1087 C1078 1.390 . S
C1087 H1080 0.950 . S
C1087 C1084 1.387 . S
C1088 C1089 1.387 . S
C1088 H1092 0.950 . S
C1088 C1097 1.390 . S
C1089 C1088 1.387 . S
C1089 C1091 1.387 . S
H1090 C1097 0.950 . S
C1091 C1089 1.387 . S
C1091 C1093 1.390 . S
C1091 H1095 0.950 . S
H1092 C1088 0.950 . S
C1093 C1091 1.390 . S
C1093 C1094 1.387 . S
C1093 H1096 0.950 . S
C1094 C1093 1.387 . S
C1094 C1097 1.387 . S
H1095 C1091 0.950 . S
H1096 C1093 0.950 . S
C1097 C1088 1.390 . S
C1097 H1090 0.950 . S
C1097 C1094 1.387 . S
C1098 C1099 1.387 . S
C1098 H1102 0.950 1_554 S
C1098 C1107 1.390 . S
C1099 C1098 1.387 . S
C1099 C1101 1.387 . S
H1100 C1107 0.950 . S
C1101 C1099 1.387 . S
C1101 C1103 1.390 . S
C1101 H1105 0.950 . S
H1102 C1098 0.950 1_556 S
C1103 C1101 1.390 . S
C1103 C1104 1.387 . S
C1103 H1106 0.950 . S
C1104 C1103 1.387 . S
C1104 C1107 1.387 . S
H1105 C1101 0.950 . S
H1106 C1103 0.950 . S
C1107 C1098 1.390 . S
C1107 H1100 0.950 . S
C1107 C1104 1.387 . S
C1108 C1109 1.387 . S
C1108 H1112 0.950 . S
C1108 C1117 1.390 . S
C1109 C1108 1.387 . S
C1109 C1111 1.387 . S
H1110 C1117 0.950 . S
C1111 C1109 1.387 . S
C1111 C1113 1.390 . S
C1111 H1115 0.950 . S
H1112 C1108 0.950 . S
C1113 C1111 1.390 . S
C1113 C1114 1.387 . S
C1113 H1116 0.950 . S
C1114 C1113 1.387 . S
C1114 C1117 1.387 . S
H1115 C1111 0.950 . S
H1116 C1113 0.950 . S
C1117 C1108 1.390 . S
C1117 H1110 0.950 . S
C1117 C1114 1.387 . S
C1118 C1119 1.387 . S
C1118 H1122 0.950 . S
C1118 C1127 1.390 . S
C1119 C1118 1.387 . S
C1119 C1121 1.387 . S
H1120 C1127 0.950 . S
C1121 C1119 1.387 . S
C1121 C1123 1.390 . S
C1121 H1125 0.950 . S
H1122 C1118 0.950 . S
C1123 C1121 1.390 . S
C1123 C1124 1.387 . S
C1123 H1126 0.950 . S
C1124 C1123 1.387 . S
C1124 C1127 1.387 . S
H1125 C1121 0.950 . S
H1126 C1123 0.950 . S
C1127 C1118 1.390 . S
C1127 H1120 0.950 . S
C1127 C1124 1.387 . S
C1128 C1129 1.387 . S
C1128 H1132 0.950 1_455 S
C1128 C1137 1.390 . S
C1129 C1128 1.387 . S
C1129 C1131 1.387 . S
H1130 C1137 0.950 1_554 S
C1131 C1129 1.387 . S
C1131 C1133 1.390 . S
C1131 H1135 0.950 . S
H1132 C1128 0.950 1_655 S
C1133 C1131 1.390 . S
C1133 C1134 1.387 . S
C1133 H1136 0.950 . S
C1134 C1133 1.387 . S
C1134 C1137 1.387 . S
H1135 C1131 0.950 . S
H1136 C1133 0.950 . S
C1137 C1128 1.390 . S
C1137 H1130 0.950 1_556 S
C1137 C1134 1.387 . S
C1138 C1139 1.387 . S
C1138 H1142 0.950 . S
C1138 C1147 1.390 . S
C1139 C1138 1.387 . S
C1139 C1141 1.387 . S
H1140 C1147 0.950 . S
C1141 C1139 1.387 . S
C1141 C1143 1.390 . S
C1141 H1145 0.950 . S
H1142 C1138 0.950 . S
C1143 C1141 1.390 . S
C1143 C1144 1.387 . S
C1143 H1146 0.950 . S
C1144 C1143 1.387 . S
C1144 C1147 1.387 . S
H1145 C1141 0.950 . S
H1146 C1143 0.950 . S
C1147 C1138 1.390 . S
C1147 H1140 0.950 . S
C1147 C1144 1.387 . S
C1148 C1149 1.387 . S
C1148 H1152 0.950 . S
C1148 C1157 1.390 . S
C1149 C1148 1.387 . S
C1149 C1151 1.387 . S
H1150 C1157 0.950 . S
C1151 C1149 1.387 . S
C1151 C1153 1.390 . S
C1151 H1155 0.950 . S
H1152 C1148 0.950 . S
C1153 C1151 1.390 . S
C1153 C1154 1.387 . S
C1153 H1156 0.950 . S
C1154 C1153 1.387 . S
C1154 C1157 1.387 . S
H1155 C1151 0.950 . S
H1156 C1153 0.950 . S
C1157 C1148 1.390 . S
C1157 H1150 0.950 . S
C1157 C1154 1.387 . S
C1158 C1159 1.387 . S
C1158 H1162 0.950 . S
C1158 C1167 1.390 . S
C1159 C1158 1.387 . S
C1159 C1161 1.387 . S
H1160 C1167 0.950 . S
C1161 C1159 1.387 . S
C1161 C1163 1.390 . S
C1161 H1165 0.950 . S
H1162 C1158 0.950 . S
C1163 C1161 1.390 . S
C1163 C1164 1.387 . S
C1163 H1166 0.950 . S
C1164 C1163 1.387 . S
C1164 C1167 1.387 . S
H1165 C1161 0.950 . S
H1166 C1163 0.950 . S
C1167 C1158 1.390 . S
C1167 H1160 0.950 . S
C1167 C1164 1.387 . S
C1168 C1169 1.387 . S
C1168 H1172 0.950 . S
C1168 C1177 1.390 . S
C1169 C1168 1.387 . S
C1169 C1171 1.387 . S
H1170 C1177 0.950 . S
C1171 C1169 1.387 . S
C1171 C1173 1.390 . S
C1171 H1175 0.950 1_545 S
H1172 C1168 0.950 . S
C1173 C1171 1.390 . S
C1173 C1174 1.387 . S
C1173 H1176 0.950 . S
C1174 C1173 1.387 . S
C1174 C1177 1.387 . S
H1175 C1171 0.950 1_565 S
H1176 C1173 0.950 . S
C1177 C1168 1.390 . S
C1177 H1170 0.950 . S
C1177 C1174 1.387 . S
C1178 C1179 1.387 . S
C1178 H1182 0.950 . S
C1178 C1187 1.390 . S
C1179 C1178 1.387 . S
C1179 C1181 1.387 . S
H1180 C1187 0.950 . S
C1181 C1179 1.387 . S
C1181 C1183 1.390 . S
C1181 H1185 0.950 . S
H1182 C1178 0.950 . S
C1183 C1181 1.390 . S
C1183 C1184 1.387 . S
C1183 H1186 0.950 . S
C1184 C1183 1.387 . S
C1184 C1187 1.387 . S
H1185 C1181 0.950 . S
H1186 C1183 0.950 . S
C1187 C1178 1.390 . S
C1187 H1180 0.950 . S
C1187 C1184 1.387 . S
C1188 C1189 1.387 . S
C1188 H1192 0.950 . S
C1188 C1197 1.390 . S
C1189 C1188 1.387 . S
C1189 C1191 1.387 . S
H1190 C1197 0.950 . S
C1191 C1189 1.387 . S
C1191 C1193 1.390 . S
C1191 H1195 0.950 . S
H1192 C1188 0.950 . S
C1193 C1191 1.390 . S
C1193 C1194 1.387 . S
C1193 H1196 0.950 . S
C1194 C1193 1.387 . S
C1194 C1197 1.387 . S
H1195 C1191 0.950 . S
H1196 C1193 0.950 . S
C1197 C1188 1.390 . S
C1197 H1190 0.950 . S
C1197 C1194 1.387 . S
C1198 C1199 1.387 . S
C1198 H1202 0.950 . S
C1198 C1207 1.390 . S
C1199 C1198 1.387 . S
C1199 C1201 1.387 . S
H1200 C1207 0.950 . S
C1201 C1199 1.387 . S
C1201 C1203 1.390 . S
C1201 H1205 0.950 . S
H1202 C1198 0.950 . S
C1203 C1201 1.390 . S
C1203 C1204 1.387 . S
C1203 H1206 0.950 . S
C1204 C1203 1.387 . S
C1204 C1207 1.387 . S
H1205 C1201 0.950 . S
H1206 C1203 0.950 . S
C1207 C1198 1.390 . S
C1207 H1200 0.950 . S
C1207 C1204 1.387 . S
C1208 C1209 1.387 . S
C1208 H1212 0.950 . S
C1208 C1217 1.390 . S
C1209 C1208 1.387 . S
C1209 C1211 1.387 . S
H1210 C1217 0.950 . S
C1211 C1209 1.387 . S
C1211 C1213 1.390 . S
C1211 H1215 0.950 . S
H1212 C1208 0.950 . S
C1213 C1211 1.390 . S
C1213 C1214 1.387 . S
C1213 H1216 0.950 . S
C1214 C1213 1.387 . S
C1214 C1217 1.387 . S
H1215 C1211 0.950 . S
H1216 C1213 0.950 . S
C1217 C1208 1.390 . S
C1217 H1210 0.950 . S
C1217 C1214 1.387 . S
C1218 C1219 1.387 . S
C1218 H1222 0.950 . S
C1218 C1227 1.390 . S
C1219 C1218 1.387 . S
C1219 C1221 1.387 . S
H1220 C1227 0.950 . S
C1221 C1219 1.387 . S
C1221 C1223 1.390 . S
C1221 H1225 0.950 . S
H1222 C1218 0.950 . S
C1223 C1221 1.390 . S
C1223 C1224 1.387 . S
C1223 H1226 0.950 1_556 S
C1224 C1223 1.387 . S
C1224 C1227 1.387 . S
H1225 C1221 0.950 . S
H1226 C1223 0.950 1_554 S
C1227 C1218 1.390 . S
C1227 H1220 0.950 . S
C1227 C1224 1.387 . S
C1228 C1229 1.387 . S
C1228 H1232 0.950 . S
C1228 C1237 1.390 . S
C1229 C1228 1.387 . S
C1229 C1231 1.387 . S
H1230 C1237 0.950 . S
C1231 C1229 1.387 . S
C1231 C1233 1.390 . S
C1231 H1235 0.950 . S
H1232 C1228 0.950 . S
C1233 C1231 1.390 . S
C1233 C1234 1.387 . S
C1233 H1236 0.950 . S
C1234 C1233 1.387 . S
C1234 C1237 1.387 . S
H1235 C1231 0.950 . S
H1236 C1233 0.950 . S
C1237 C1228 1.390 . S
C1237 H1230 0.950 . S
C1237 C1234 1.387 . S
C1238 C1239 1.387 . S
C1238 H1242 0.950 . S
C1238 C1247 1.390 . S
C1239 C1238 1.387 . S
C1239 C1241 1.387 . S
H1240 C1247 0.950 1_565 S
C1241 C1239 1.387 . S
C1241 C1243 1.390 . S
C1241 H1245 0.950 . S
H1242 C1238 0.950 . S
C1243 C1241 1.390 . S
C1243 C1244 1.387 . S
C1243 H1246 0.950 . S
C1244 C1243 1.387 . S
C1244 C1247 1.387 . S
H1245 C1241 0.950 . S
H1246 C1243 0.950 . S
C1247 C1238 1.390 . S
C1247 H1240 0.950 1_545 S
C1247 C1244 1.387 . S
C529 C18 1.675 . S
C534 C417 1.595 . S
C539 C426 1.577 . S
C544 C40 1.632 . S
C549 C52 1.675 . S
C554 C367 1.595 . S
C559 C74 1.676 . S
C564 C389 1.599 . S
C569 C505 1.597 . S
C574 C98 1.675 . S
C579 C118 1.679 . S
C584 C477 1.600 . S
C589 C513 1.594 . S
C594 C140 1.672 . S
C599 C164 1.675 . S
C604 C455 1.595 . S
C609 C186 1.688 . S
C614 C307 1.610 . S
C619 C216 1.677 . S
C624 C345 1.599 . S
C629 C315 1.594 . S
C634 C238 1.673 . S
C639 C250 1.680 . S
C644 C279 1.601 . S
C649 C282 1.667 . S
C654 C139 1.590 . S
C659 C296 1.679 . S
C664 C175 1.602 . S
C669 C316 1.678 . S
C674 C109 1.601 . S
C679 C117 1.595 . S
C684 C348 1.672 . S
C689 C370 1.677 . S
C694 C235 1.599 . S
C699 C213 1.597 . S
C704 C392 1.674 . S
C709 C249 1.595 . S
C714 C406 1.674 . S
C719 C197 1.631 . S
C724 C425 1.708 . S
C729 C37 1.593 . S
C734 C458 1.673 . S
C739 C73 1.593 . S
C744 C480 1.669 . S
C749 C51 1.590 . S
C754 C494 1.665 . S
C759 C514 1.674 . S
C764 C15 1.595 . S
C769 C106 1.320 . S
C774 C10 1.271 . S
C779 C120 1.320 . S
C784 C32 1.272 . S
C789 C142 1.324 . S
C794 C62 1.276 . S
C799 C172 1.324 . S
C804 C84 1.277 . S
C809 C96 1.286 . S
C814 C194 1.334 . S
C819 C128 1.270 . S
C824 C252 1.318 . S
C829 C150 1.272 . S
C834 C206 1.321 . S
C839 C162 1.274 . S
C844 C228 1.321 . S
C849 C184 1.274 . S
C854 C8 1.322 . S
C859 C208 1.272 . S
C864 C54 1.321 . S
C869 C230 1.268 . S
C874 C76 1.316 . S
C879 C30 1.334 . S
C884 C260 1.286 . S
C889 C360 1.320 . S
C894 C274 1.272 . S
C899 C382 1.322 . S
C904 C294 1.274 . S
C909 C326 1.275 . S
C914 C414 1.324 . S
C919 C340 1.283 . S
C924 C433 1.360 . S
C929 C448 1.320 . S
C934 C362 1.273 . S
C939 C384 1.275 . S
C944 C516 1.323 . S
C949 C470 1.315 . S
C954 C404 1.268 . S
C959 C439 1.290 . S
C964 C502 1.359 . S
C969 C272 1.317 . S
C974 C450 1.269 . S
C979 C472 1.272 . S
C984 C318 1.321 . S
C989 C492 1.267 . S
C994 C338 1.314 . S
C999 C304 1.330 . S
C1004 C524 1.282 . S
C1009 C21 1.393 . S
C1014 C205 1.389 1_554 S
C1019 C227 1.383 . S
C1024 C43 1.388 . S
C1029 C191 1.388 1_556 S
C1034 C59 1.393 . S
C1039 C263 1.391 . S
C1044 C81 1.395 . S
C1049 C95 1.398 . S
C1054 C87 1.393 1_455 S
C1059 C65 1.395 . S
C1064 C125 1.408 . S
C1069 C147 1.391 . S
C1074 C29 1.386 . S
C1079 C7 1.396 1_655 S
C1084 C161 1.402 . S
C1089 C183 1.391 . S
C1094 C131 1.386 1_545 S
C1099 C219 1.400 . S
C1104 C169 1.395 . S
C1109 C241 1.400 . S
C1114 C153 1.396 . S
C1119 C257 1.401 . S
C1124 C103 1.396 1_565 S
C1129 C285 1.409 . S
C1134 C469 1.404 1_556 S
C1139 C293 1.408 . S
C1144 C499 1.403 . S
C1149 C447 1.397 1_554 S
C1154 C323 1.402 . S
C1159 C527 1.401 . S
C1164 C351 1.405 . S
C1169 C373 1.421 . S
C1174 C337 1.399 1_655 S
C1179 C395 1.400 . S
C1184 C329 1.395 . S
C1189 C301 1.392 . S
C1194 C403 1.396 . S
C1199 C428 1.367 . S
C1204 C271 1.357 1_455 S
C1209 C461 1.399 . S
C1214 C381 1.394 1_565 S
C1219 C436 1.361 . S
C1224 C483 1.391 . S
C1229 C491 1.403 . S
C1234 C411 1.398 . S
C1239 C521 1.396 . S
C1244 C359 1.390 1_545 S
