# Generated by pormake.
# Topology snl, (6)-cn, num edge types: 1
# Building blocks:
#     Node 0, Type 0, BuildingBlock: BETFAJ_clean_sbu_0, # of connection points: 6
#     Node 1, Type 0, BuildingBlock: BETFAJ_clean_sbu_0, # of connection points: 6
#     Node 2, Type 0, BuildingBlock: BETFAJ_clean_sbu_0, # of connection points: 6
#     Node 3, Type 0, BuildingBlock: BETFAJ_clean_sbu_0, # of connection points: 6
#     Node 4, Type 0, BuildingBlock: BETFAJ_clean_sbu_0, # of connection points: 6
#     Node 5, Type 0, BuildingBlock: BETFAJ_clean_sbu_0, # of connection points: 6
#     Node 6, Type 0, BuildingBlock: BETFAJ_clean_sbu_0, # of connection points: 6
#     Node 7, Type 0, BuildingBlock: BETFAJ_clean_sbu_0, # of connection points: 6
#     Node 8, Type 0, BuildingBlock: BETFAJ_clean_sbu_0, # of connection points: 6
#     Node 9, Type 0, BuildingBlock: BETFAJ_clean_sbu_0, # of connection points: 6
#     Node 10, Type 0, BuildingBlock: BETFAJ_clean_sbu_0, # of connection points: 6
#     Node 11, Type 0, BuildingBlock: BETFAJ_clean_sbu_0, # of connection points: 6
#     Node 12, Type 0, BuildingBlock: BETFAJ_clean_sbu_0, # of connection points: 6
#     Node 13, Type 0, BuildingBlock: BETFAJ_clean_sbu_0, # of connection points: 6
#     Node 14, Type 0, BuildingBlock: BETFAJ_clean_sbu_0, # of connection points: 6
#     Node 15, Type 0, BuildingBlock: BETFAJ_clean_sbu_0, # of connection points: 6
#     Edge 16, Type (0, 0), BuildingBlock: ZUJKAS_clean_linker_0, # of connection points: 2
#     Edge 17, Type (0, 0), BuildingBlock: ZUJKAS_clean_linker_0, # of connection points: 2
#     Edge 18, Type (0, 0), BuildingBlock: ZUJKAS_clean_linker_0, # of connection points: 2
#     Edge 19, Type (0, 0), BuildingBlock: ZUJKAS_clean_linker_0, # of connection points: 2
#     Edge 20, Type (0, 0), BuildingBlock: ZUJKAS_clean_linker_0, # of connection points: 2
#     Edge 21, Type (0, 0), BuildingBlock: ZUJKAS_clean_linker_0, # of connection points: 2
#     Edge 22, Type (0, 0), BuildingBlock: ZUJKAS_clean_linker_0, # of connection points: 2
#     Edge 23, Type (0, 0), BuildingBlock: ZUJKAS_clean_linker_0, # of connection points: 2
#     Edge 24, Type (0, 0), BuildingBlock: ZUJKAS_clean_linker_0, # of connection points: 2
#     Edge 25, Type (0, 0), BuildingBlock: ZUJKAS_clean_linker_0, # of connection points: 2
#     Edge 26, Type (0, 0), BuildingBlock: ZUJKAS_clean_linker_0, # of connection points: 2
#     Edge 27, Type (0, 0), BuildingBlock: ZUJKAS_clean_linker_0, # of connection points: 2
#     Edge 28, Type (0, 0), BuildingBlock: ZUJKAS_clean_linker_0, # of connection points: 2
#     Edge 29, Type (0, 0), BuildingBlock: ZUJKAS_clean_linker_0, # of connection points: 2
#     Edge 30, Type (0, 0), BuildingBlock: ZUJKAS_clean_linker_0, # of connection points: 2
#     Edge 31, Type (0, 0), BuildingBlock: ZUJKAS_clean_linker_0, # of connection points: 2
#     Edge 32, Type (0, 0), BuildingBlock: ZUJKAS_clean_linker_0, # of connection points: 2
#     Edge 33, Type (0, 0), BuildingBlock: ZUJKAS_clean_linker_0, # of connection points: 2
#     Edge 34, Type (0, 0), BuildingBlock: ZUJKAS_clean_linker_0, # of connection points: 2
#     Edge 35, Type (0, 0), BuildingBlock: ZUJKAS_clean_linker_0, # of connection points: 2
#     Edge 36, Type (0, 0), BuildingBlock: ZUJKAS_clean_linker_0, # of connection points: 2
#     Edge 37, Type (0, 0), BuildingBlock: ZUJKAS_clean_linker_0, # of connection points: 2
#     Edge 38, Type (0, 0), BuildingBlock: ZUJKAS_clean_linker_0, # of connection points: 2
#     Edge 39, Type (0, 0), BuildingBlock: ZUJKAS_clean_linker_0, # of connection points: 2
#     Edge 40, Type (0, 0), BuildingBlock: ZUJKAS_clean_linker_0, # of connection points: 2
#     Edge 41, Type (0, 0), BuildingBlock: ZUJKAS_clean_linker_0, # of connection points: 2
#     Edge 42, Type (0, 0), BuildingBlock: ZUJKAS_clean_linker_0, # of connection points: 2
#     Edge 43, Type (0, 0), BuildingBlock: ZUJKAS_clean_linker_0, # of connection points: 2
#     Edge 44, Type (0, 0), BuildingBlock: ZUJKAS_clean_linker_0, # of connection points: 2
#     Edge 45, Type (0, 0), BuildingBlock: ZUJKAS_clean_linker_0, # of connection points: 2
#     Edge 46, Type (0, 0), BuildingBlock: ZUJKAS_clean_linker_0, # of connection points: 2
#     Edge 47, Type (0, 0), BuildingBlock: ZUJKAS_clean_linker_0, # of connection points: 2
#     Edge 48, Type (0, 0), BuildingBlock: ZUJKAS_clean_linker_0, # of connection points: 2
#     Edge 49, Type (0, 0), BuildingBlock: ZUJKAS_clean_linker_0, # of connection points: 2
#     Edge 50, Type (0, 0), BuildingBlock: ZUJKAS_clean_linker_0, # of connection points: 2
#     Edge 51, Type (0, 0), BuildingBlock: ZUJKAS_clean_linker_0, # of connection points: 2
#     Edge 52, Type (0, 0), BuildingBlock: ZUJKAS_clean_linker_0, # of connection points: 2
#     Edge 53, Type (0, 0), BuildingBlock: ZUJKAS_clean_linker_0, # of connection points: 2
#     Edge 54, Type (0, 0), BuildingBlock: ZUJKAS_clean_linker_0, # of connection points: 2
#     Edge 55, Type (0, 0), BuildingBlock: ZUJKAS_clean_linker_0, # of connection points: 2
#     Edge 56, Type (0, 0), BuildingBlock: ZUJKAS_clean_linker_0, # of connection points: 2
#     Edge 57, Type (0, 0), BuildingBlock: ZUJKAS_clean_linker_0, # of connection points: 2
#     Edge 58, Type (0, 0), BuildingBlock: ZUJKAS_clean_linker_0, # of connection points: 2
#     Edge 59, Type (0, 0), BuildingBlock: ZUJKAS_clean_linker_0, # of connection points: 2
#     Edge 60, Type (0, 0), BuildingBlock: ZUJKAS_clean_linker_0, # of connection points: 2
#     Edge 61, Type (0, 0), BuildingBlock: ZUJKAS_clean_linker_0, # of connection points: 2
#     Edge 62, Type (0, 0), BuildingBlock: ZUJKAS_clean_linker_0, # of connection points: 2
#     Edge 63, Type (0, 0), BuildingBlock: ZUJKAS_clean_linker_0, # of connection points: 2
# Relax obj value: 0.186
# Max RMSD: 0.248
# Mean RMSD: 0.216
data_MOF--net-snl--node1-BETFAJ_clean_sbu_0--edge1-ZUJKAS_clean_linker_0
_symmetry_space_group_name_H-M    P1
_symmetry_Int_Tables_number       1
_symmetry_cell_setting            triclinic
loop_
_symmetry_equiv_pos_as_xyz
'x, y, z'
_cell_length_a     74.695584
_cell_length_b     74.840436
_cell_length_c     30.477661
_cell_angle_alpha  102.66311
_cell_angle_beta   89.988206
_cell_angle_gamma 90.087154
loop_
_atom_site_label
_atom_site_type_symbol
_atom_site_fract_x
_atom_site_fract_y
_atom_site_fract_z
_atom_type_partial_charge
Sm0 Sm 0.14803 0.63157 0.11539 0.0
Sm1 Sm 0.13378 0.63668 0.20839 0.0
C2 C 0.15538 0.6207 0.02831 0.0
C3 C 0.151 0.6239 0.98337 0.0
C4 C 0.14587 0.609 0.94914 0.0
C5 C 0.14319 0.61122 0.90525 0.0
C6 C 0.14571 0.6284 0.89457 0.0
C7 C 0.15046 0.64343 0.92915 0.0
C8 C 0.15306 0.64122 0.97314 0.0
C9 C 0.14692 0.668 0.15935 0.0
C10 C 0.10438 0.63719 0.13325 0.0
C11 C 0.12579 0.6468 0.29511 0.0
C12 C 0.13042 0.64371 0.34005 0.0
C13 C 0.13562 0.65867 0.37406 0.0
C14 C 0.13846 0.65654 0.41797 0.0
C15 C 0.13603 0.63939 0.4289 0.0
C16 C 0.13123 0.62431 0.39454 0.0
C17 C 0.12847 0.62643 0.35054 0.0
C18 C 0.13516 0.60051 0.16138 0.0
C19 C 0.17727 0.63173 0.19398 0.0
O20 O 0.14317 0.61294 0.04859 0.0
O21 O 0.16438 0.6334 0.05584 0.0
O22 O 0.13479 0.65637 0.16107 0.0
O23 O 0.15968 0.66058 0.13283 0.0
O24 O 0.11689 0.62932 0.10463 0.0
O25 O 0.1086 0.64461 0.17517 0.0
O26 O 0.13748 0.65547 0.27539 0.0
O27 O 0.1175 0.63365 0.2671 0.0
O28 O 0.14708 0.61243 0.16201 0.0
O29 O 0.12222 0.60713 0.18841 0.0
O30 O 0.16421 0.6384 0.2219 0.0
O31 O 0.1741 0.62553 0.15062 0.0
H32 H 0.14434 0.59549 0.95614 0.0
H33 H 0.13974 0.59932 0.87937 0.0
H34 H 0.15228 0.65689 0.92215 0.0
H35 H 0.15697 0.65299 0.99887 0.0
H36 H 0.13706 0.67216 0.36692 0.0
H37 H 0.14195 0.66848 0.44368 0.0
H38 H 0.12948 0.61087 0.40174 0.0
H39 H 0.12449 0.61461 0.32503 0.0
Sm40 Sm 0.64826 0.88927 0.41429 0.0
Sm41 Sm 0.63437 0.88212 0.32099 0.0
C42 C 0.65542 0.90163 0.50115 0.0
C43 C 0.65103 0.89905 0.54668 0.0
C44 C 0.64893 0.91449 0.58186 0.0
C45 C 0.64638 0.91255 0.62608 0.0
C46 C 0.64593 0.89508 0.63616 0.0
C47 C 0.64759 0.87958 0.60058 0.0
C48 C 0.65009 0.88154 0.5563 0.0
C49 C 0.64767 0.85232 0.37423 0.0
C50 C 0.60479 0.88251 0.39568 0.0
C51 C 0.62669 0.87127 0.23399 0.0
C52 C 0.63111 0.87424 0.18879 0.0
C53 C 0.63339 0.85899 0.15315 0.0
C54 C 0.63602 0.86124 0.10922 0.0
C55 C 0.63636 0.87884 0.09985 0.0
C56 C 0.63448 0.89414 0.13585 0.0
C57 C 0.63191 0.89187 0.17987 0.0
C58 C 0.63522 0.91883 0.36467 0.0
C59 C 0.67761 0.88733 0.336 0.0
O60 O 0.64319 0.90887 0.47975 0.0
O61 O 0.66451 0.88868 0.47477 0.0
O62 O 0.63538 0.86354 0.37091 0.0
O63 O 0.66035 0.86043 0.40012 0.0
O64 O 0.61705 0.89138 0.4237 0.0
O65 O 0.60938 0.87403 0.35474 0.0
O66 O 0.63866 0.8632 0.25423 0.0
O67 O 0.61809 0.88428 0.26153 0.0
O68 O 0.64737 0.9073 0.36497 0.0
O69 O 0.62221 0.91142 0.33891 0.0
O70 O 0.66483 0.87888 0.30951 0.0
O71 O 0.67392 0.89574 0.37787 0.0
H72 H 0.6497 0.92813 0.57528 0.0
H73 H 0.64534 0.92479 0.65258 0.0
H74 H 0.64704 0.86592 0.60699 0.0
H75 H 0.65159 0.86938 0.52975 0.0
H76 H 0.6327 0.84526 0.15914 0.0
H77 H 0.6372 0.84914 0.08238 0.0
H78 H 0.63493 0.90789 0.12998 0.0
H79 H 0.63025 0.9039 0.20675 0.0
Sm80 Sm 0.37916 0.40129 0.67721 0.0
Sm81 Sm 0.38177 0.38073 0.57289 0.0
C82 C 0.36577 0.41265 0.7592 0.0
C83 C 0.36812 0.41016 0.80571 0.0
C84 C 0.35323 0.41189 0.83434 0.0
C85 C 0.35497 0.4096 0.87853 0.0
C86 C 0.3717 0.4055 0.89524 0.0
C87 C 0.38663 0.40373 0.86629 0.0
C88 C 0.38485 0.40599 0.82195 0.0
C89 C 0.41479 0.39503 0.65341 0.0
C90 C 0.38609 0.35621 0.64671 0.0
C91 C 0.38866 0.36956 0.48556 0.0
C92 C 0.38742 0.37529 0.44195 0.0
C93 C 0.40255 0.37374 0.41401 0.0
C94 C 0.40147 0.37764 0.37116 0.0
C95 C 0.38517 0.38311 0.35499 0.0
C96 C 0.37009 0.38501 0.38343 0.0
C97 C 0.3712 0.38118 0.42641 0.0
C98 C 0.34871 0.38245 0.61407 0.0
C99 C 0.37811 0.42621 0.60009 0.0
O100 O 0.35935 0.39862 0.72988 0.0
O101 O 0.37837 0.42148 0.74258 0.0
O102 O 0.40128 0.39074 0.62849 0.0
O103 O 0.4095 0.40323 0.69337 0.0
O104 O 0.37894 0.37004 0.67645 0.0
O105 O 0.39125 0.35793 0.60631 0.0
O106 O 0.40055 0.37777 0.51472 0.0
O107 O 0.37372 0.36596 0.50442 0.0
O108 O 0.36011 0.39515 0.61894 0.0
O109 O 0.3543 0.36813 0.58504 0.0
O110 O 0.38076 0.41106 0.56899 0.0
O111 O 0.37616 0.42612 0.64342 0.0
H112 H 0.34018 0.41508 0.82251 0.0
H113 H 0.34321 0.41131 0.89983 0.0
H114 H 0.39967 0.40036 0.87768 0.0
H115 H 0.39653 0.40443 0.80035 0.0
H116 H 0.41518 0.36911 0.425 0.0
H117 H 0.41331 0.37582 0.35016 0.0
H118 H 0.35739 0.38944 0.37244 0.0
H119 H 0.3593 0.38258 0.44716 0.0
Sm120 Sm 0.8794 0.11767 0.84693 0.0
Sm121 Sm 0.88176 0.13852 0.95082 0.0
C122 C 0.86627 0.10624 0.76469 0.0
C123 C 0.8688 0.10857 0.71801 0.0
C124 C 0.8537 0.11066 0.69223 0.0
C125 C 0.85554 0.11267 0.64784 0.0
C126 C 0.87257 0.11259 0.62794 0.0
C127 C 0.88773 0.11063 0.65408 0.0
C128 C 0.88586 0.10866 0.69863 0.0
C129 C 0.91503 0.12376 0.87112 0.0
C130 C 0.88663 0.16274 0.87675 0.0
C131 C 0.88834 0.1498 0.0383 0.0
C132 C 0.88692 0.14406 0.08198 0.0
C133 C 0.90254 0.14085 0.10476 0.0
C134 C 0.9016 0.13697 0.14768 0.0
C135 C 0.885 0.13631 0.16918 0.0
C136 C 0.86934 0.13921 0.14595 0.0
C137 C 0.87028 0.14306 0.10298 0.0
C138 C 0.84881 0.1369 0.90891 0.0
C139 C 0.87783 0.09309 0.92467 0.0
O140 O 0.85987 0.12035 0.79371 0.0
O141 O 0.8786 0.09729 0.78182 0.0
O142 O 0.90151 0.12825 0.89589 0.0
O143 O 0.90975 0.11548 0.83121 0.0
O144 O 0.87944 0.14888 0.8471 0.0
O145 O 0.89167 0.1611 0.91727 0.0
O146 O 0.90031 0.14165 1.00934 0.0
O147 O 0.87352 0.15344 0.01904 0.0
O148 O 0.86009 0.12412 0.90455 0.0
O149 O 0.85447 0.15123 0.93787 0.0
O150 O 0.88046 0.10834 0.95544 0.0
O151 O 0.87609 0.09296 0.88118 0.0
H152 H 0.8404 0.11073 0.7065 0.0
H153 H 0.84357 0.11449 0.62928 0.0
H154 H 0.90105 0.11031 0.63992 0.0
H155 H 0.89776 0.10713 0.71778 0.0
H156 H 0.91557 0.14163 0.08967 0.0
H157 H 0.91394 0.13455 0.16406 0.0
H158 H 0.85632 0.13907 0.16149 0.0
H159 H 0.85796 0.14561 0.0867 0.0
Sm160 Sm 0.14782 0.389 0.91608 0.0
Sm161 Sm 0.13394 0.38339 0.82226 0.0
C162 C 0.15499 0.40041 1.00313 0.0
C163 C 0.15049 0.39764 0.04831 0.0
C164 C 0.14892 0.41299 0.08392 0.0
C165 C 0.14623 0.41086 0.12787 0.0
C166 C 0.14512 0.39329 0.13717 0.0
C167 C 0.14626 0.3779 0.10117 0.0
C168 C 0.14889 0.38005 0.05712 0.0
C169 C 0.14699 0.35254 0.87256 0.0
C170 C 0.10428 0.3831 0.89702 0.0
C171 C 0.12616 0.37265 0.73552 0.0
C172 C 0.13078 0.3753 0.6903 0.0
C173 C 0.13225 0.3599 0.65479 0.0
C174 C 0.13503 0.36193 0.61079 0.0
C175 C 0.13632 0.37946 0.60132 0.0
C176 C 0.13529 0.3949 0.63719 0.0
C177 C 0.13258 0.39285 0.6813 0.0
C178 C 0.13525 0.41967 0.86845 0.0
C179 C 0.17736 0.38847 0.83793 0.0
O180 O 0.1429 0.40806 0.98228 0.0
O181 O 0.16383 0.3874 0.97628 0.0
O182 O 0.13482 0.36403 0.87032 0.0
O183 O 0.15955 0.36005 0.89967 0.0
O184 O 0.11665 0.3911 0.92592 0.0
O185 O 0.10868 0.37553 0.85532 0.0
O186 O 0.13783 0.36423 0.75581 0.0
O187 O 0.11793 0.38604 0.76285 0.0
O188 O 0.1471 0.40779 0.86857 0.0
O189 O 0.12246 0.41297 0.84097 0.0
O190 O 0.16441 0.38171 0.80971 0.0
O191 O 0.17404 0.39485 0.88116 0.0
H192 H 0.15021 0.42667 0.07787 0.0
H193 H 0.14563 0.42299 0.15477 0.0
H194 H 0.14522 0.36419 0.10709 0.0
H195 H 0.14998 0.36798 0.03014 0.0
H196 H 0.13081 0.34625 0.66094 0.0
H197 H 0.13555 0.34976 0.58397 0.0
H198 H 0.13646 0.40858 0.63113 0.0
H199 H 0.13157 0.40497 0.70816 0.0
Sm200 Sm 0.87951 0.90222 0.17328 0.0
Sm201 Sm 0.88117 0.88183 0.06862 0.0
C202 C 0.86683 0.91387 0.2559 0.0
C203 C 0.86972 0.91188 0.30255 0.0
C204 C 0.8556 0.91581 0.33346 0.0
C205 C 0.8578 0.91388 0.3778 0.0
C206 C 0.87421 0.90792 0.3923 0.0
C207 C 0.88833 0.90388 0.36099 0.0
C208 C 0.8861 0.90583 0.31653 0.0
C209 C 0.91492 0.896 0.14744 0.0
C210 C 0.8852 0.85688 0.14177 0.0
C211 C 0.88772 0.87053 0.98121 0.0
C212 C 0.88763 0.8765 0.93788 0.0
C213 C 0.90249 0.87263 0.90924 0.0
C214 C 0.90222 0.87656 0.86638 0.0
C215 C 0.88699 0.88441 0.85091 0.0
C216 C 0.87227 0.88875 0.88024 0.0
C217 C 0.87258 0.88485 0.92323 0.0
C218 C 0.84823 0.88428 0.11093 0.0
C219 C 0.8783 0.92724 0.0962 0.0
O220 O 0.86057 0.89945 0.22759 0.0
O221 O 0.87904 0.92276 0.23815 0.0
O222 O 0.9012 0.89161 0.12331 0.0
O223 O 0.90996 0.90424 0.18765 0.0
O224 O 0.87911 0.87097 0.17263 0.0
O225 O 0.88969 0.85843 0.10081 0.0
O226 O 0.90013 0.87726 1.0106 0.0
O227 O 0.87226 0.86853 0.99979 0.0
O228 O 0.86005 0.8966 0.11597 0.0
O229 O 0.85325 0.87006 0.08072 0.0
O230 O 0.88104 0.91213 0.06508 0.0
O231 O 0.87617 0.92708 0.13947 0.0
H232 H 0.84279 0.92032 0.32322 0.0
H233 H 0.84652 0.91679 0.40054 0.0
H234 H 0.90119 0.89941 0.37094 0.0
H235 H 0.89715 0.90263 0.29311 0.0
H236 H 0.91426 0.86621 0.91972 0.0
H237 H 0.91395 0.87335 0.84527 0.0
H238 H 0.86024 0.89464 0.86954 0.0
H239 H 0.86089 0.88801 0.94454 0.0
Sm240 Sm 0.3797 0.61811 0.35533 0.0
Sm241 Sm 0.38211 0.63843 0.45917 0.0
C242 C 0.36668 0.60673 0.273 0.0
C243 C 0.36936 0.6091 0.22643 0.0
C244 C 0.35436 0.61131 0.20046 0.0
C245 C 0.35635 0.61333 0.15612 0.0
C246 C 0.37344 0.61314 0.1365 0.0
C247 C 0.3885 0.61106 0.16282 0.0
C248 C 0.38649 0.60908 0.20731 0.0
C249 C 0.41538 0.62434 0.37905 0.0
C250 C 0.38648 0.66317 0.38621 0.0
C251 C 0.38871 0.64963 0.54664 0.0
C252 C 0.38753 0.64379 0.59019 0.0
C253 C 0.40327 0.6405 0.6124 0.0
C254 C 0.40256 0.63654 0.65524 0.0
C255 C 0.38606 0.63588 0.67722 0.0
C256 C 0.37028 0.63885 0.65457 0.0
C257 C 0.371 0.64278 0.61168 0.0
C258 C 0.34906 0.6368 0.41772 0.0
C259 C 0.37848 0.59302 0.43203 0.0
O260 O 0.36024 0.62084 0.30199 0.0
O261 O 0.37894 0.59775 0.29024 0.0
O262 O 0.40192 0.62861 0.40412 0.0
O263 O 0.41003 0.61626 0.33908 0.0
O264 O 0.37917 0.64942 0.35648 0.0
O265 O 0.39185 0.66126 0.42625 0.0
O266 O 0.40075 0.64175 0.51753 0.0
O267 O 0.37377 0.65304 0.52756 0.0
O268 O 0.36037 0.62403 0.41302 0.0
O269 O 0.35478 0.65114 0.44654 0.0
O270 O 0.38118 0.60815 0.46316 0.0
O271 O 0.37653 0.59317 0.38875 0.0
H272 H 0.34102 0.61147 0.21454 0.0
H273 H 0.34446 0.61524 0.13739 0.0
H274 H 0.40186 0.61066 0.14886 0.0
H275 H 0.39831 0.60746 0.22663 0.0
H276 H 0.41623 0.6413 0.59693 0.0
H277 H 0.41498 0.63407 0.6712 0.0
H278 H 0.35734 0.6387 0.67052 0.0
H279 H 0.35859 0.6454 0.59585 0.0
Sm280 Sm 0.64774 0.12795 0.60221 0.0
Sm281 Sm 0.6339 0.13555 0.703 0.0
C282 C 0.65541 0.11105 0.5185 0.0
C283 C 0.65291 0.11349 0.47214 0.0
C284 C 0.65226 0.09805 0.43651 0.0
C285 C 0.65051 0.10005 0.3921 0.0
C286 C 0.64939 0.11756 0.38237 0.0
C287 C 0.64981 0.13301 0.41836 0.0
C288 C 0.65151 0.13099 0.4628 0.0
C289 C 0.64321 0.16534 0.63174 0.0
C290 C 0.60498 0.1362 0.62626 0.0
C291 C 0.62685 0.14727 0.78992 0.0
C292 C 0.63129 0.14401 0.83479 0.0
C293 C 0.63267 0.15902 0.87137 0.0
C294 C 0.63558 0.15637 0.91485 0.0
C295 C 0.63713 0.1386 0.92277 0.0
C296 C 0.6361 0.12357 0.88581 0.0
C297 C 0.63325 0.12624 0.84223 0.0
C298 C 0.6339 0.0995 0.65544 0.0
C299 C 0.67748 0.13037 0.68413 0.0
O300 O 0.64105 0.1074 0.53969 0.0
O301 O 0.66635 0.12251 0.54421 0.0
O302 O 0.64025 0.15335 0.65431 0.0
O303 O 0.64886 0.15751 0.59194 0.0
O304 O 0.6165 0.12632 0.59769 0.0
O305 O 0.61 0.14473 0.66697 0.0
O306 O 0.63926 0.15456 0.769 0.0
O307 O 0.61743 0.13468 0.76299 0.0
O308 O 0.64575 0.11133 0.65464 0.0
O309 O 0.62163 0.10619 0.68461 0.0
O310 O 0.66428 0.13389 0.7137 0.0
O311 O 0.67469 0.1271 0.64004 0.0
H312 H 0.65332 0.08443 0.44302 0.0
H313 H 0.65043 0.08786 0.36529 0.0
H314 H 0.64871 0.14668 0.41221 0.0
H315 H 0.65183 0.1431 0.48984 0.0
H316 H 0.63112 0.17284 0.86644 0.0
H317 H 0.63609 0.16826 0.94247 0.0
H318 H 0.63748 0.10971 0.89056 0.0
H319 H 0.63233 0.11442 0.81451 0.0
Sm320 Sm 0.88403 0.38227 0.82775 0.0
Sm321 Sm 0.87038 0.39038 0.92943 0.0
C322 C 0.89103 0.36966 0.74113 0.0
C323 C 0.88684 0.37268 0.69593 0.0
C324 C 0.88488 0.35748 0.66005 0.0
C325 C 0.88218 0.35984 0.61626 0.0
C326 C 0.88142 0.37749 0.6073 0.0
C327 C 0.88295 0.39274 0.64361 0.0
C328 C 0.88562 0.39036 0.6875 0.0
C329 C 0.88329 0.41863 0.87318 0.0
C330 C 0.84049 0.38703 0.84727 0.0
C331 C 0.86272 0.40702 1.0133 0.0
C332 C 0.86475 0.40426 0.0595 0.0
C333 C 0.86573 0.41954 0.09542 0.0
C334 C 0.86727 0.4173 0.13966 0.0
C335 C 0.86783 0.39969 0.14894 0.0
C336 C 0.86702 0.38437 0.11263 0.0
C337 C 0.86552 0.38663 0.06834 0.0
C338 C 0.87529 0.35297 0.89998 0.0
C339 C 0.91314 0.38302 0.90471 0.0
O340 O 0.87829 0.36299 0.7624 0.0
O341 O 0.90077 0.38209 0.76761 0.0
O342 O 0.87194 0.40652 0.87584 0.0
O343 O 0.89512 0.41213 0.84265 0.0
O344 O 0.85359 0.38248 0.81772 0.0
O345 O 0.8435 0.39168 0.89133 0.0
O346 O 0.87741 0.41025 0.99277 0.0
O347 O 0.85154 0.3961 0.98695 0.0
O348 O 0.878 0.36507 0.87773 0.0
O349 O 0.86954 0.3607 0.93975 0.0
O350 O 0.90157 0.393 0.93293 0.0
O351 O 0.90807 0.37388 0.86459 0.0
H352 H 0.88572 0.34372 0.66581 0.0
H353 H 0.88072 0.34778 0.58937 0.0
H354 H 0.88258 0.40653 0.638 0.0
H355 H 0.88707 0.40232 0.71465 0.0
H356 H 0.86526 0.43325 0.08925 0.0
H357 H 0.86818 0.42941 0.16658 0.0
H358 H 0.86722 0.37061 0.11844 0.0
H359 H 0.86482 0.37463 0.04106 0.0
Sm360 Sm 0.3848 0.13652 0.70341 0.0
Sm361 Sm 0.37088 0.12871 0.60268 0.0
C362 C 0.39189 0.14851 0.79024 0.0
C363 C 0.38753 0.14544 0.83536 0.0
C364 C 0.38566 0.1606 0.87138 0.0
C365 C 0.38295 0.15818 0.91514 0.0
C366 C 0.38211 0.14051 0.92397 0.0
C367 C 0.38352 0.1253 0.88752 0.0
C368 C 0.3862 0.12774 0.84366 0.0
C369 C 0.38474 0.10041 0.65651 0.0
C370 C 0.3412 0.13116 0.68479 0.0
C371 C 0.36314 0.11177 0.51903 0.0
C372 C 0.3656 0.11423 0.47264 0.0
C373 C 0.36673 0.09879 0.43714 0.0
C374 C 0.36849 0.10077 0.39272 0.0
C375 C 0.36914 0.11829 0.38281 0.0
C376 C 0.36825 0.13375 0.41871 0.0
C377 C 0.36652 0.13174 0.46316 0.0
C378 C 0.3755 0.16613 0.63173 0.0
C379 C 0.41371 0.13681 0.62647 0.0
O380 O 0.37946 0.15569 0.7692 0.0
O381 O 0.4013 0.13591 0.76346 0.0
O382 O 0.37289 0.11218 0.6553 0.0
O383 O 0.39699 0.1072 0.68568 0.0
O384 O 0.35444 0.13477 0.71427 0.0
O385 O 0.34396 0.12784 0.64067 0.0
O386 O 0.37751 0.10816 0.54016 0.0
O387 O 0.3522 0.12316 0.54481 0.0
O388 O 0.37846 0.15421 0.65447 0.0
O389 O 0.36978 0.15822 0.59205 0.0
O390 O 0.4021 0.12694 0.59807 0.0
O391 O 0.40875 0.1455 0.66708 0.0
H392 H 0.3866 0.17438 0.86576 0.0
H393 H 0.38159 0.17021 0.94213 0.0
H394 H 0.38309 0.11149 0.89299 0.0
H395 H 0.38759 0.1158 0.81644 0.0
H396 H 0.36616 0.08515 0.44378 0.0
H397 H 0.36946 0.08856 0.36614 0.0
H398 H 0.36851 0.14744 0.41244 0.0
H399 H 0.36572 0.14387 0.49006 0.0
Sm400 Sm 0.63786 0.63783 0.46174 0.0
Sm401 Sm 0.64034 0.61743 0.35769 0.0
C402 C 0.63107 0.64905 0.54911 0.0
C403 C 0.63225 0.64335 0.59274 0.0
C404 C 0.61726 0.6455 0.62122 0.0
C405 C 0.61832 0.64159 0.66406 0.0
C406 C 0.63445 0.63551 0.67966 0.0
C407 C 0.64938 0.63302 0.65068 0.0
C408 C 0.64829 0.63686 0.6077 0.0
C409 C 0.67091 0.63628 0.42041 0.0
C410 C 0.6415 0.59242 0.43471 0.0
C411 C 0.65365 0.60608 0.27557 0.0
C412 C 0.65129 0.60852 0.22903 0.0
C413 C 0.66609 0.60627 0.20002 0.0
C414 C 0.66435 0.60854 0.15581 0.0
C415 C 0.64774 0.61316 0.13948 0.0
C416 C 0.6329 0.61544 0.16881 0.0
C417 C 0.63467 0.61319 0.21316 0.0
C418 C 0.60467 0.62361 0.38131 0.0
C419 C 0.63345 0.66247 0.3886 0.0
O420 O 0.61913 0.64089 0.52001 0.0
O421 O 0.64603 0.65253 0.53018 0.0
O422 O 0.65958 0.6235 0.41551 0.0
O423 O 0.66521 0.65059 0.44933 0.0
O424 O 0.63891 0.60758 0.46577 0.0
O425 O 0.64335 0.5925 0.39133 0.0
O426 O 0.66003 0.62016 0.30482 0.0
O427 O 0.64108 0.59724 0.29225 0.0
O428 O 0.61813 0.62792 0.40643 0.0
O429 O 0.61003 0.6155 0.34137 0.0
O430 O 0.6408 0.64875 0.35888 0.0
O431 O 0.62808 0.66055 0.42864 0.0
H432 H 0.60478 0.65059 0.61065 0.0
H433 H 0.6066 0.64388 0.68548 0.0
H434 H 0.66195 0.62811 0.66124 0.0
H435 H 0.66008 0.63498 0.58649 0.0
H436 H 0.67905 0.60268 0.21157 0.0
H437 H 0.67602 0.60641 0.13423 0.0
H438 H 0.61996 0.61922 0.15771 0.0
H439 H 0.62308 0.61516 0.23508 0.0
Sm440 Sm 0.13705 0.88097 0.06881 0.0
Sm441 Sm 0.13901 0.90187 0.17251 0.0
C442 C 0.13089 0.86904 0.98137 0.0
C443 C 0.13282 0.87401 0.93708 0.0
C444 C 0.12682 0.89086 0.92938 0.0
C445 C 0.12786 0.89457 0.88623 0.0
C446 C 0.13492 0.88151 0.84984 0.0
C447 C 0.14125 0.86485 0.85813 0.0
C448 C 0.14017 0.86115 0.90112 0.0
C449 C 0.16987 0.88271 0.11125 0.0
C450 C 0.14086 0.92638 0.09474 0.0
C451 C 0.15136 0.91332 0.25552 0.0
C452 C 0.14844 0.91055 0.30192 0.0
C453 C 0.15394 0.89436 0.31432 0.0
C454 C 0.15208 0.89235 0.35874 0.0
C455 C 0.1447 0.90646 0.39209 0.0
C456 C 0.13907 0.92259 0.37951 0.0
C457 C 0.14097 0.92461 0.33507 0.0
C458 C 0.10345 0.8959 0.14714 0.0
C459 C 0.13172 0.85692 0.14292 0.0
O460 O 0.11901 0.87786 1.00961 0.0
O461 O 0.14555 0.86537 1.00116 0.0
O462 O 0.15862 0.89551 0.11543 0.0
O463 O 0.16421 0.86829 0.08262 0.0
O464 O 0.13825 0.91114 0.06389 0.0
O465 O 0.14262 0.92648 0.13821 0.0
O466 O 0.15843 0.89973 0.22604 0.0
O467 O 0.13899 0.92213 0.23816 0.0
O468 O 0.1171 0.89127 0.12301 0.0
O469 O 0.10855 0.90427 0.18713 0.0
O470 O 0.1391 0.87068 0.17245 0.0
O471 O 0.12661 0.85866 0.10255 0.0
H472 H 0.12108 0.90106 0.95649 0.0
H473 H 0.12273 0.90749 0.88119 0.0
H474 H 0.14711 0.85459 0.83135 0.0
H475 H 0.14492 0.84808 0.90617 0.0
H476 H 0.15994 0.88328 0.28988 0.0
H477 H 0.15684 0.87985 0.36712 0.0
H478 H 0.13312 0.93368 0.40399 0.0
H479 H 0.13673 0.9373 0.32673 0.0
Sm480 Sm 0.88458 0.63708 0.20646 0.0
Sm481 Sm 0.87063 0.63116 0.11221 0.0
C482 C 0.89232 0.64801 0.29319 0.0
C483 C 0.88767 0.64528 0.33834 0.0
C484 C 0.88647 0.66059 0.37416 0.0
C485 C 0.88359 0.65844 0.41803 0.0
C486 C 0.8819 0.64086 0.42706 0.0
C487 C 0.88267 0.62552 0.39088 0.0
C488 C 0.88549 0.6277 0.3469 0.0
C489 C 0.88334 0.60074 0.16074 0.0
C490 C 0.84114 0.63181 0.19093 0.0
C491 C 0.86355 0.61934 0.0252 0.0
C492 C 0.8679 0.62215 0.97997 0.0
C493 C 0.86928 0.60684 0.94419 0.0
C494 C 0.87194 0.60903 0.90026 0.0
C495 C 0.87323 0.62662 0.89114 0.0
C496 C 0.87225 0.64196 0.9273 0.0
C497 C 0.86964 0.63976 0.97133 0.0
C498 C 0.87152 0.66773 0.15483 0.0
C499 C 0.9142 0.63725 0.13135 0.0
O500 O 0.88058 0.65632 0.27278 0.0
O501 O 0.90066 0.63468 0.26594 0.0
O502 O 0.8715 0.6126 0.1602 0.0
O503 O 0.89606 0.60751 0.18835 0.0
O504 O 0.85412 0.63864 0.21903 0.0
O505 O 0.84442 0.62545 0.14764 0.0
O506 O 0.87588 0.61208 0.04621 0.0
O507 O 0.85443 0.63217 0.05189 0.0
O508 O 0.88361 0.65622 0.15781 0.0
O509 O 0.85912 0.66015 0.12726 0.0
O510 O 0.90182 0.62918 0.10252 0.0
O511 O 0.90984 0.64484 0.17308 0.0
H512 H 0.88821 0.67427 0.36834 0.0
H513 H 0.88328 0.67054 0.44508 0.0
H514 H 0.88119 0.61181 0.39659 0.0
H515 H 0.88627 0.61565 0.31979 0.0
H516 H 0.86789 0.59315 0.95011 0.0
H517 H 0.87241 0.59692 0.87326 0.0
H518 H 0.87343 0.65569 0.92153 0.0
H519 H 0.8687 0.6518 0.99844 0.0
Sm520 Sm 0.13717 0.13778 0.95195 0.0
Sm521 Sm 0.13989 0.11755 0.84761 0.0
C522 C 0.12999 0.1488 0.03914 0.0
C523 C 0.1314 0.14321 0.08284 0.0
C524 C 0.11634 0.14478 0.11099 0.0
C525 C 0.11754 0.14092 0.15384 0.0
C526 C 0.13388 0.13546 0.16978 0.0
C527 C 0.1489 0.13356 0.14115 0.0
C528 C 0.14767 0.13735 0.09815 0.0
C529 C 0.1703 0.13644 0.91114 0.0
C530 C 0.14126 0.09243 0.92432 0.0
C531 C 0.15335 0.10636 0.76565 0.0
C532 C 0.151 0.10879 0.71912 0.0
C533 C 0.16591 0.10706 0.69054 0.0
C534 C 0.16418 0.10932 0.64633 0.0
C535 C 0.14746 0.1134 0.62957 0.0
C536 C 0.13251 0.11516 0.65847 0.0
C537 C 0.13427 0.11293 0.70283 0.0
C538 C 0.10418 0.12359 0.87113 0.0
C539 C 0.13274 0.16248 0.87893 0.0
O540 O 0.11838 0.14013 1.00987 0.0
O541 O 0.1448 0.15287 0.02048 0.0
O542 O 0.15897 0.12364 0.90577 0.0
O543 O 0.1646 0.15061 0.9405 0.0
O544 O 0.13856 0.1075 0.95559 0.0
O545 O 0.14306 0.09261 0.88101 0.0
O546 O 0.15958 0.1205 0.79496 0.0
O547 O 0.14085 0.09739 0.78219 0.0
O548 O 0.11764 0.12786 0.89625 0.0
O549 O 0.10957 0.11556 0.83113 0.0
O550 O 0.14024 0.14887 0.84922 0.0
O551 O 0.12728 0.16044 0.91881 0.0
H552 H 0.10367 0.14938 0.10014 0.0
H553 H 0.10574 0.14274 0.17501 0.0
H554 H 0.16164 0.12914 0.15198 0.0
H555 H 0.15952 0.13593 0.07718 0.0
H556 H 0.17895 0.1039 0.70243 0.0
H557 H 0.17595 0.10761 0.62507 0.0
H558 H 0.11947 0.11853 0.64703 0.0
H559 H 0.12259 0.11449 0.72441 0.0
Sm560 Sm 0.63705 0.38103 0.57938 0.0
Sm561 Sm 0.63869 0.40149 0.6839 0.0
C562 C 0.63052 0.36971 0.49192 0.0
C563 C 0.63134 0.37556 0.44845 0.0
C564 C 0.61633 0.37291 0.42002 0.0
C565 C 0.61709 0.37694 0.37728 0.0
C566 C 0.63295 0.38365 0.36175 0.0
C567 C 0.64789 0.38665 0.39069 0.0
C568 C 0.64709 0.38269 0.43357 0.0
C569 C 0.66996 0.38356 0.62166 0.0
C570 C 0.63981 0.42651 0.60678 0.0
C571 C 0.65129 0.41325 0.76658 0.0
C572 C 0.64861 0.41096 0.8131 0.0
C573 C 0.66309 0.41396 0.8431 0.0
C574 C 0.66115 0.4116 0.88715 0.0
C575 C 0.64464 0.40613 0.90234 0.0
C576 C 0.63009 0.40319 0.87211 0.0
C577 C 0.63207 0.40553 0.82787 0.0
C578 C 0.60331 0.39449 0.65847 0.0
C579 C 0.63291 0.35622 0.6527 0.0
O580 O 0.61833 0.37725 0.52098 0.0
O581 O 0.64567 0.36688 0.5109 0.0
O582 O 0.6582 0.39591 0.62667 0.0
O583 O 0.66488 0.36929 0.59167 0.0
O584 O 0.63738 0.41134 0.57561 0.0
O585 O 0.64168 0.42641 0.65016 0.0
O586 O 0.6579 0.39914 0.73796 0.0
O587 O 0.6388 0.42187 0.74906 0.0
O588 O 0.61701 0.39053 0.6341 0.0
O589 O 0.60825 0.40271 0.69871 0.0
O590 O 0.63955 0.37022 0.68298 0.0
O591 O 0.628 0.35788 0.61209 0.0
H592 H 0.60407 0.36732 0.43054 0.0
H593 H 0.60539 0.37425 0.35587 0.0
H594 H 0.66024 0.39205 0.38016 0.0
H595 H 0.65888 0.38497 0.45475 0.0
H596 H 0.67597 0.41814 0.83238 0.0
H597 H 0.67258 0.41425 0.9095 0.0
H598 H 0.61724 0.39878 0.88239 0.0
H599 H 0.62074 0.40298 0.80516 0.0
Sm600 Sm 0.38489 0.88331 0.32035 0.0
Sm601 Sm 0.37061 0.88919 0.41375 0.0
C602 C 0.39293 0.87284 0.23364 0.0
C603 C 0.38839 0.8757 0.18848 0.0
C604 C 0.38687 0.86042 0.1526 0.0
C605 C 0.38412 0.86266 0.10873 0.0
C606 C 0.38288 0.88027 0.09972 0.0
C607 C 0.384 0.89558 0.13594 0.0
C608 C 0.38669 0.89332 0.17991 0.0
C609 C 0.38427 0.91956 0.36666 0.0
C610 C 0.34141 0.88878 0.33502 0.0
C611 C 0.36324 0.90065 0.50072 0.0
C612 C 0.36814 0.8983 0.54609 0.0
C613 C 0.36966 0.91384 0.58126 0.0
C614 C 0.37255 0.91203 0.62543 0.0
C615 C 0.3739 0.89459 0.63543 0.0
C616 C 0.37286 0.87903 0.59987 0.0
C617 C 0.37004 0.88086 0.55563 0.0
C618 C 0.37125 0.85263 0.37052 0.0
C619 C 0.41416 0.88275 0.39567 0.0
O620 O 0.38121 0.86428 0.25356 0.0
O621 O 0.4011 0.88617 0.26137 0.0
O622 O 0.37201 0.908 0.36628 0.0
O623 O 0.3972 0.91246 0.34021 0.0
O624 O 0.35444 0.88197 0.30713 0.0
O625 O 0.34457 0.89508 0.37834 0.0
O626 O 0.37471 0.90892 0.47949 0.0
O627 O 0.35497 0.88707 0.47417 0.0
O628 O 0.38357 0.86405 0.36863 0.0
O629 O 0.35851 0.86034 0.39671 0.0
O630 O 0.40178 0.89102 0.42418 0.0
O631 O 0.40979 0.87503 0.35401 0.0
H632 H 0.38825 0.84671 0.15838 0.0
H633 H 0.38353 0.85057 0.08168 0.0
H634 H 0.38287 0.90932 0.13028 0.0
H635 H 0.38774 0.90535 0.20701 0.0
H636 H 0.36815 0.92742 0.57472 0.0
H637 H 0.37309 0.9243 0.65196 0.0
H638 H 0.37411 0.86542 0.60628 0.0
H639 H 0.369 0.86864 0.52908 0.0
H640 H 0.16769 0.64751 0.84938 0.0
H641 H 0.16573 0.64979 0.77062 0.0
H642 H 0.11862 0.61559 0.75334 0.0
H643 H 0.12024 0.61358 0.83233 0.0
H644 H 0.1668 0.62057 0.69429 0.0
H645 H 0.10335 0.6597 0.70203 0.0
H646 H 0.11595 0.65823 0.75167 0.0
H647 H 0.10196 0.63948 0.72456 0.0
C648 C 0.15673 0.64073 0.82905 0.0
C649 C 0.14407 0.63043 0.84723 0.0
C650 C 0.15571 0.64194 0.78397 0.0
C651 C 0.14193 0.63303 0.75627 0.0
C652 C 0.12921 0.62281 0.7743 0.0
H653 H 0.11418 0.62038 0.47459 0.0
H654 H 0.11629 0.61826 0.55342 0.0
C655 C 0.13025 0.62154 0.81934 0.0
C656 C 0.14124 0.63388 0.7081 0.0
H657 H 0.11527 0.64764 0.62942 0.0
C658 C 0.15558 0.62657 0.68011 0.0
C659 C 0.12657 0.64167 0.68971 0.0
C660 C 0.11113 0.65037 0.71854 0.0
C661 C 0.1555 0.62655 0.634 0.0
C662 C 0.14082 0.63432 0.6156 0.0
C663 C 0.12649 0.64165 0.6436 0.0
C664 C 0.14007 0.63507 0.56737 0.0
C665 C 0.17094 0.61785 0.60516 0.0
C666 C 0.15274 0.64525 0.54907 0.0
C667 C 0.15162 0.64642 0.50397 0.0
C668 C 0.13778 0.63746 0.47629 0.0
C669 C 0.12517 0.6272 0.49474 0.0
C670 C 0.12627 0.62608 0.53987 0.0
H671 H 0.17878 0.60858 0.62175 0.0
H672 H 0.16611 0.60993 0.57212 0.0
H673 H 0.18006 0.62875 0.59895 0.0
H674 H 0.16335 0.65252 0.56987 0.0
H675 H 0.16159 0.65436 0.49076 0.0
H676 H 0.61836 0.90284 0.05939 0.0
H677 H 0.62009 0.90551 0.9809 0.0
H678 H 0.65972 0.86268 0.95448 0.0
H679 H 0.65813 0.85995 0.03293 0.0
H680 H 0.64883 0.91359 0.93044 0.0
H681 H 0.62231 0.84412 0.85761 0.0
H682 H 0.62075 0.85451 0.91681 0.0
H683 H 0.64141 0.84434 0.89347 0.0
C684 C 0.62759 0.8941 0.03704 0.0
C685 C 0.63804 0.8811 0.05253 0.0
C686 C 0.62848 0.89558 0.99207 0.0
C687 C 0.63978 0.88406 0.96153 0.0
C688 C 0.65056 0.8714 0.9771 0.0
H689 H 0.6639 0.87123 0.67711 0.0
H690 H 0.66222 0.86883 0.75578 0.0
C691 C 0.64966 0.86988 0.02203 0.0
C692 C 0.64036 0.88542 0.91352 0.0
H693 H 0.63357 0.86097 0.80611 0.0
C694 C 0.64542 0.90211 0.90326 0.0
C695 C 0.63592 0.87043 0.87802 0.0
C696 C 0.62963 0.85238 0.88689 0.0
C697 C 0.64649 0.90413 0.85851 0.0
C698 C 0.64206 0.88914 0.82301 0.0
C699 C 0.63698 0.87245 0.83329 0.0
C700 C 0.6427 0.89045 0.77497 0.0
C701 C 0.6528 0.92218 0.84965 0.0
C702 C 0.63201 0.90315 0.75924 0.0
C703 C 0.63289 0.90453 0.71419 0.0
C704 C 0.64438 0.89311 0.68372 0.0
C705 C 0.65476 0.88011 0.69942 0.0
C706 C 0.6539 0.87878 0.74449 0.0
H707 H 0.66014 0.93042 0.87892 0.0
H708 H 0.66167 0.92004 0.81971 0.0
H709 H 0.64103 0.93024 0.84312 0.0
H710 H 0.62291 0.91198 0.7818 0.0
H711 H 0.62447 0.91446 0.70315 0.0
H712 H 0.35794 0.37312 0.29389 0.0
H713 H 0.35623 0.37736 0.21664 0.0
H714 H 0.40752 0.40449 0.23263 0.0
H715 H 0.40935 0.40028 0.30989 0.0
H716 H 0.35625 0.4084 0.18286 0.0
H717 H 0.41536 0.36591 0.1183 0.0
H718 H 0.40534 0.36579 0.17211 0.0
H719 H 0.42012 0.38408 0.16599 0.0
C720 C 0.36881 0.38012 0.28117 0.0
C721 C 0.38384 0.38627 0.30825 0.0
C722 C 0.36785 0.38245 0.23681 0.0
C723 C 0.38189 0.39093 0.21832 0.0
C724 C 0.39672 0.39745 0.24556 0.0
H725 H 0.39903 0.41717 0.95542 0.0
H726 H 0.40143 0.41387 0.03341 0.0
C727 C 0.39773 0.39507 0.28987 0.0
C728 C 0.38085 0.39315 0.17083 0.0
H729 H 0.40222 0.3827 0.06906 0.0
C730 C 0.36628 0.40271 0.15797 0.0
C731 C 0.39393 0.38579 0.13819 0.0
C732 C 0.40948 0.37467 0.14911 0.0
C733 C 0.36456 0.40532 0.11378 0.0
C734 C 0.3776 0.39789 0.08112 0.0
C735 C 0.39223 0.38842 0.09401 0.0
C736 C 0.37621 0.39963 0.03334 0.0
C737 C 0.34896 0.41634 0.10274 0.0
C738 C 0.36141 0.39241 1.00684 0.0
C739 C 0.36002 0.39421 0.96215 0.0
C740 C 0.37347 0.40317 0.94264 0.0
C741 C 0.38847 0.41005 0.96903 0.0
C742 C 0.38984 0.40826 0.01379 0.0
H743 H 0.34314 0.4252 0.13347 0.0
H744 H 0.35304 0.4251 0.07939 0.0
H745 H 0.33832 0.40686 0.08619 0.0
H746 H 0.35094 0.38526 0.02065 0.0
H747 H 0.34846 0.38837 0.94272 0.0
H748 H 0.85107 0.09803 0.5556 0.0
H749 H 0.85371 0.10168 0.47812 0.0
H750 H 0.90089 0.1349 0.51378 0.0
H751 H 0.89823 0.13156 0.5916 0.0
H752 H 0.85326 0.1338 0.44563 0.0
H753 H 0.91749 0.09689 0.4033 0.0
H754 H 0.90443 0.09518 0.45205 0.0
H755 H 0.91826 0.11493 0.45302 0.0
C756 C 0.86197 0.10622 0.5472 0.0
C757 C 0.87444 0.11448 0.58019 0.0
C758 C 0.86351 0.1082 0.50268 0.0
C759 C 0.87764 0.11835 0.48982 0.0
C760 C 0.8901 0.12666 0.52256 0.0
H761 H 0.90762 0.14933 0.24027 0.0
H762 H 0.90568 0.14475 0.31713 0.0
C763 C 0.88855 0.12472 0.56715 0.0
C764 C 0.87897 0.12066 0.4425 0.0
H765 H 0.90612 0.1127 0.34981 0.0
C766 C 0.86478 0.1291 0.42461 0.0
C767 C 0.89402 0.11458 0.41502 0.0
C768 C 0.90937 0.10474 0.43156 0.0
C769 C 0.86535 0.13193 0.38045 0.0
C770 C 0.88039 0.12582 0.35293 0.0
C771 C 0.89459 0.11739 0.37082 0.0
C772 C 0.88167 0.12819 0.30564 0.0
C773 C 0.85003 0.14185 0.36405 0.0
C774 C 0.86902 0.12014 0.27314 0.0
C775 C 0.87015 0.12263 0.22894 0.0
C776 C 0.88404 0.13317 0.21603 0.0
C777 C 0.89686 0.14095 0.24859 0.0
C778 C 0.89572 0.13843 0.29276 0.0
H779 H 0.84198 0.14977 0.3924 0.0
H780 H 0.85497 0.15137 0.34346 0.0
H781 H 0.84104 0.1317 0.34277 0.0
H782 H 0.85829 0.11181 0.28189 0.0
H783 H 0.86022 0.11613 0.20475 0.0
H784 H 0.12417 0.41296 0.20464 0.0
H785 H 0.12308 0.41061 0.28347 0.0
H786 H 0.16098 0.36617 0.25539 0.0
H787 H 0.16253 0.36874 0.17683 0.0
H788 H 0.11371 0.38058 0.32087 0.0
H789 H 0.18398 0.4025 0.36122 0.0
H790 H 0.17276 0.40577 0.31113 0.0
H791 H 0.1815 0.38366 0.31366 0.0
C792 C 0.13236 0.40276 0.21529 0.0
C793 C 0.14353 0.39111 0.18444 0.0
C794 C 0.13165 0.40137 0.26029 0.0
C795 C 0.14217 0.38842 0.27545 0.0
C796 C 0.15299 0.37648 0.24458 0.0
H797 H 0.1572 0.35957 0.53401 0.0
H798 H 0.15835 0.36178 0.45506 0.0
C799 C 0.15369 0.37783 0.19955 0.0
C800 C 0.14176 0.38738 0.32352 0.0
H801 H 0.16785 0.39181 0.4174 0.0
C802 C 0.12552 0.3831 0.34205 0.0
C803 C 0.15719 0.39067 0.35106 0.0
C804 C 0.17483 0.39607 0.33349 0.0
C805 C 0.12437 0.38172 0.3872 0.0
C806 C 0.1398 0.38502 0.41474 0.0
C807 C 0.15604 0.38928 0.39621 0.0
C808 C 0.13937 0.38405 0.46286 0.0
C809 C 0.10674 0.37634 0.40479 0.0
C810 C 0.1286 0.39609 0.49363 0.0
C811 C 0.12787 0.39484 0.53872 0.0
C812 C 0.13796 0.38154 0.55399 0.0
C813 C 0.14907 0.36979 0.52324 0.0
C814 C 0.14982 0.37109 0.47817 0.0
H815 H 0.09758 0.36991 0.37707 0.0
H816 H 0.1088 0.36664 0.42717 0.0
H817 H 0.10008 0.38875 0.42461 0.0
H818 H 0.12066 0.40641 0.48269 0.0
H819 H 0.11907 0.404 0.56137 0.0
H820 H 0.90036 0.86244 0.77366 0.0
H821 H 0.89915 0.86728 0.69704 0.0
H822 H 0.86999 0.91749 0.74404 0.0
H823 H 0.87178 0.91317 0.82119 0.0
H824 H 0.87009 0.86959 0.64462 0.0
H825 H 0.90901 0.9342 0.6698 0.0
H826 H 0.90856 0.92015 0.71094 0.0
H827 H 0.89026 0.93533 0.70715 0.0
C828 C 0.89397 0.87472 0.768 0.0
C829 C 0.88631 0.88749 0.80399 0.0
C830 C 0.89316 0.87738 0.72396 0.0
C831 C 0.88473 0.89289 0.71466 0.0
C832 C 0.87692 0.9056 0.75035 0.0
H833 H 0.86148 0.93035 0.46969 0.0
H834 H 0.86404 0.92631 0.54692 0.0
C835 C 0.87775 0.90298 0.79449 0.0
C836 C 0.88362 0.89538 0.66743 0.0
H837 H 0.89422 0.92469 0.5995 0.0
C838 C 0.87546 0.8816 0.63474 0.0
C839 C 0.89059 0.91105 0.6544 0.0
C840 C 0.90025 0.92596 0.68727 0.0
C841 C 0.87379 0.8832 0.58976 0.0
C842 C 0.88073 0.89888 0.57675 0.0
C843 C 0.88889 0.91267 0.60941 0.0
C844 C 0.87947 0.90133 0.52956 0.0
C845 C 0.86419 0.86827 0.5568 0.0
C846 C 0.88754 0.8888 0.49395 0.0
C847 C 0.886 0.891 0.44957 0.0
C848 C 0.87642 0.90585 0.43976 0.0
C849 C 0.86868 0.91858 0.47572 0.0
C850 C 0.87024 0.91637 0.52004 0.0
H851 H 0.85572 0.85974 0.57418 0.0
H852 H 0.8556 0.87411 0.53373 0.0
H853 H 0.87422 0.85917 0.53626 0.0
H854 H 0.89503 0.87728 0.50045 0.0
H855 H 0.89205 0.88087 0.42287 0.0
H856 H 0.4089 0.649 0.74766 0.0
H857 H 0.40753 0.64415 0.82433 0.0
H858 H 0.35985 0.61151 0.79069 0.0
H859 H 0.36147 0.61572 0.71344 0.0
H860 H 0.38094 0.65391 0.88739 0.0
H861 H 0.39037 0.57861 0.85007 0.0
H862 H 0.39487 0.59223 0.8092 0.0
H863 H 0.37226 0.58596 0.81958 0.0
C864 C 0.39829 0.6405 0.75621 0.0
C865 C 0.38537 0.63266 0.724 0.0
C866 C 0.39745 0.63786 0.80028 0.0
C867 C 0.38374 0.62724 0.81328 0.0
C868 C 0.37077 0.61946 0.78136 0.0
H869 H 0.35217 0.59857 0.0638 0.0
H870 H 0.35488 0.6025 0.98657 0.0
C871 C 0.3716 0.62208 0.73724 0.0
C872 C 0.3827 0.62487 0.86059 0.0
H873 H 0.38188 0.59268 0.9248 0.0
C874 C 0.38126 0.64053 0.89558 0.0
C875 C 0.38308 0.6074 0.87138 0.0
C876 C 0.3854 0.59009 0.83566 0.0
C877 C 0.37978 0.6392 0.9408 0.0
C878 C 0.38011 0.62173 0.95161 0.0
C879 C 0.38162 0.60607 0.91662 0.0
C880 C 0.37866 0.61938 0.99887 0.0
C881 C 0.37739 0.65652 0.97647 0.0
C882 C 0.39126 0.62734 0.03163 0.0
C883 C 0.38965 0.62527 0.0761 0.0
C884 C 0.37546 0.61507 0.08885 0.0
C885 C 0.36307 0.60682 0.05564 0.0
C886 C 0.36468 0.60893 1.01125 0.0
H887 H 0.3726 0.66803 0.96194 0.0
H888 H 0.36773 0.65442 1.00258 0.0
H889 H 0.39045 0.66058 0.99302 0.0
H890 H 0.40239 0.63515 0.02282 0.0
H891 H 0.39939 0.63192 0.10063 0.0
H892 H 0.62098 0.11276 0.961 0.0
H893 H 0.62342 0.10916 0.03869 0.0
H894 H 0.66039 0.15451 0.06828 0.0
H895 H 0.65807 0.15818 0.99067 0.0
H896 H 0.65292 0.10231 0.08814 0.0
H897 H 0.62256 0.16942 0.16588 0.0
H898 H 0.62129 0.15966 0.10631 0.0
H899 H 0.64141 0.17093 0.13032 0.0
C900 C 0.62977 0.12187 0.98388 0.0
C901 C 0.63924 0.13584 0.96955 0.0
C902 C 0.63108 0.11985 0.02838 0.0
C903 C 0.64182 0.13178 0.0596 0.0
C904 C 0.65165 0.14543 0.04515 0.0
H905 H 0.66628 0.14279 0.34351 0.0
H906 H 0.66449 0.14588 0.26534 0.0
C907 C 0.65033 0.1475 1.0007 0.0
C908 C 0.64282 0.12985 0.10714 0.0
H909 H 0.6352 0.15258 0.21566 0.0
C910 C 0.64898 0.11327 0.11602 0.0
C911 C 0.63768 0.14416 0.14355 0.0
C912 C 0.6302 0.16199 0.13618 0.0
C913 C 0.65046 0.11074 0.16027 0.0
C914 C 0.64532 0.12505 0.19668 0.0
C915 C 0.63916 0.14162 0.18779 0.0
C916 C 0.64625 0.12314 0.24425 0.0
C917 C 0.65791 0.0929 0.16766 0.0
C918 C 0.63636 0.10952 0.2587 0.0
C919 C 0.63732 0.10775 0.30344 0.0
C920 C 0.64807 0.11967 0.33488 0.0
C921 C 0.65773 0.13349 0.32041 0.0
C922 C 0.65679 0.13523 0.27564 0.0
H923 H 0.66561 0.0855 0.13803 0.0
H924 H 0.66677 0.09523 0.19764 0.0
H925 H 0.64669 0.08394 0.17334 0.0
H926 H 0.62777 0.10033 0.23543 0.0
H927 H 0.62944 0.09717 0.31353 0.0
H928 H 0.8511 0.41971 0.22396 0.0
H929 H 0.85368 0.41627 0.30165 0.0
H930 H 0.88931 0.37049 0.25891 0.0
H931 H 0.88737 0.37426 0.18136 0.0
H932 H 0.84495 0.38676 0.33833 0.0
H933 H 0.91738 0.40262 0.36096 0.0
H934 H 0.90469 0.40733 0.31439 0.0
H935 H 0.91239 0.38448 0.31335 0.0
C936 C 0.85971 0.40907 0.23109 0.0
C937 C 0.86914 0.39736 0.19627 0.0
C938 C 0.86105 0.40703 0.27554 0.0
C939 C 0.87191 0.39331 0.28629 0.0
C940 C 0.88113 0.38142 0.25162 0.0
H941 H 0.89728 0.35749 0.53111 0.0
H942 H 0.89419 0.3613 0.45389 0.0
C943 C 0.87982 0.38346 0.20714 0.0
C944 C 0.87329 0.39126 0.33365 0.0
H945 H 0.90304 0.39129 0.41888 0.0
C946 C 0.85763 0.38784 0.35603 0.0
C947 C 0.88985 0.39267 0.35677 0.0
C948 C 0.90702 0.39715 0.33535 0.0
C949 C 0.85813 0.38542 0.4005 0.0
C950 C 0.8747 0.38676 0.42353 0.0
C951 C 0.89034 0.39023 0.4012 0.0
C952 C 0.87617 0.38439 0.47061 0.0
C953 C 0.84097 0.38099 0.42201 0.0
C954 C 0.86719 0.3962 0.50591 0.0
C955 C 0.8688 0.39396 0.55019 0.0
C956 C 0.87952 0.37991 0.56017 0.0
C957 C 0.88864 0.36823 0.52469 0.0
C958 C 0.88701 0.37048 0.48049 0.0
H959 H 0.83048 0.37581 0.39652 0.0
H960 H 0.84326 0.37059 0.44239 0.0
H961 H 0.8358 0.3936 0.44464 0.0
H962 H 0.85902 0.40726 0.49927 0.0
H963 H 0.86152 0.40315 0.57654 0.0
H964 H 0.35257 0.09789 0.30787 0.0
H965 H 0.35509 0.10118 0.23002 0.0
H966 H 0.39065 0.14716 0.2721 0.0
H967 H 0.38876 0.14357 0.3498 0.0
H968 H 0.34617 0.13058 0.19318 0.0
H969 H 0.4186 0.1152 0.16975 0.0
H970 H 0.40605 0.11044 0.21651 0.0
H971 H 0.41367 0.13333 0.21739 0.0
C972 C 0.36116 0.10854 0.30056 0.0
C973 C 0.37057 0.12038 0.33527 0.0
C974 C 0.36247 0.11049 0.25601 0.0
C975 C 0.37327 0.12424 0.24501 0.0
C976 C 0.38251 0.13622 0.27956 0.0
H977 H 0.39809 0.16044 1.0002 0.0
H978 H 0.39516 0.15648 0.07733 0.0
C979 C 0.38123 0.13428 0.32413 0.0
C980 C 0.37454 0.12627 0.19757 0.0
H981 H 0.40411 0.12654 0.11208 0.0
C982 C 0.35882 0.12959 0.17535 0.0
C983 C 0.39105 0.125 0.17428 0.0
C984 C 0.40829 0.12063 0.19549 0.0
C985 C 0.35921 0.13208 0.13091 0.0
C986 C 0.37574 0.13089 0.1077 0.0
C987 C 0.39144 0.12749 0.12987 0.0
C988 C 0.37711 0.13336 0.06063 0.0
C989 C 0.34198 0.13643 0.10964 0.0
C990 C 0.36805 0.12158 0.02533 0.0
C991 C 0.36958 0.12391 0.98108 0.0
C992 C 0.38028 0.13801 0.97111 0.0
C993 C 0.38946 0.14965 1.00659 0.0
C994 C 0.38792 0.14732 0.05076 0.0
H995 H 0.33154 0.14154 0.13527 0.0
H996 H 0.34419 0.14687 0.0893 0.0
H997 H 0.33681 0.12381 0.08702 0.0
H998 H 0.35991 0.11048 0.03192 0.0
H999 H 0.36224 0.11474 0.95475 0.0
H1000 H 0.61996 0.60242 0.08004 0.0
H1001 H 0.61758 0.60572 1.00204 0.0
H1002 H 0.66902 0.63249 1.01331 0.0
H1003 H 0.67147 0.62939 0.09125 0.0
H1004 H 0.61788 0.63692 0.9662 0.0
H1005 H 0.67529 0.5921 0.9005 0.0
H1006 H 0.66543 0.59262 0.95484 0.0
H1007 H 0.6808 0.61027 0.94761 0.0
C1008 C 0.63073 0.60913 0.0661 0.0
C1009 C 0.64599 0.6155 0.09208 0.0
C1010 C 0.62938 0.61092 0.02134 0.0
C1011 C 0.64327 0.61903 1.00137 0.0
C1012 C 0.65833 0.62574 0.02745 0.0
H1013 H 0.66216 0.64445 0.73982 0.0
H1014 H 0.66385 0.64024 0.81711 0.0
C1015 C 0.65971 0.62395 0.07214 0.0
C1016 C 0.64189 0.62077 0.95358 0.0
H1017 H 0.66273 0.6093 0.85128 0.0
C1018 C 0.62762 0.63078 0.941 0.0
C1019 C 0.65462 0.61279 0.92061 0.0
C1020 C 0.66981 0.60119 0.93134 0.0
C1021 C 0.62597 0.63342 0.89681 0.0
C1022 C 0.63874 0.6255 0.86385 0.0
C1023 C 0.65295 0.6154 0.87641 0.0
C1024 C 0.63771 0.62768 0.81633 0.0
C1025 C 0.61084 0.64513 0.88622 0.0
C1026 C 0.62261 0.62171 0.78959 0.0
C1027 C 0.62161 0.62408 0.74527 0.0
C1028 C 0.63578 0.63232 0.72638 0.0
C1029 C 0.65106 0.63789 0.75295 0.0
C1030 C 0.65202 0.63558 0.79732 0.0
H1031 H 0.60534 0.65416 0.91714 0.0
H1032 H 0.61529 0.6538 0.863 0.0
H1033 H 0.59984 0.63613 0.86973 0.0
H1034 H 0.61159 0.61512 0.80291 0.0
H1035 H 0.60977 0.61931 0.72564 0.0
H1036 H 0.15023 0.93265 0.4698 0.0
H1037 H 0.14835 0.9291 0.5476 0.0
H1038 H 0.13405 0.87231 0.50082 0.0
H1039 H 0.13564 0.87575 0.42298 0.0
H1040 H 0.11971 0.91813 0.59542 0.0
H1041 H 0.17665 0.86983 0.58384 0.0
H1042 H 0.17253 0.88307 0.54198 0.0
H1043 H 0.15973 0.86268 0.54177 0.0
C1044 C 0.14651 0.91942 0.47594 0.0
C1045 C 0.14319 0.90446 0.4398 0.0
C1046 C 0.14554 0.91741 0.52055 0.0
C1047 C 0.14136 0.90037 0.53016 0.0
C1048 C 0.13772 0.88549 0.4943 0.0
H1049 H 0.12834 0.85717 0.76993 0.0
H1050 H 0.12985 0.86251 0.6938 0.0
C1051 C 0.13865 0.88749 0.44971 0.0
C1052 C 0.14068 0.89817 0.57762 0.0
H1053 H 0.15896 0.87421 0.65007 0.0
C1054 C 0.12836 0.90861 0.60746 0.0
C1055 C 0.15199 0.88577 0.59343 0.0
C1056 C 0.1661 0.87481 0.56377 0.0
C1057 C 0.12673 0.90664 0.65221 0.0
C1058 C 0.13792 0.8941 0.66786 0.0
C1059 C 0.15034 0.88378 0.63811 0.0
C1060 C 0.13678 0.89118 0.71467 0.0
C1061 C 0.11267 0.91761 0.68198 0.0
C1062 C 0.1403 0.90549 0.752 0.0
C1063 C 0.13958 0.90245 0.79581 0.0
C1064 C 0.13542 0.88499 0.80328 0.0
C1065 C 0.13188 0.87072 0.76567 0.0
C1066 C 0.13263 0.87377 0.72199 0.0
H1067 H 0.10239 0.92311 0.66212 0.0
H1068 H 0.10588 0.90915 0.70274 0.0
H1069 H 0.11915 0.92937 0.70503 0.0
H1070 H 0.1439 0.91896 0.74726 0.0
H1071 H 0.14265 0.91371 0.82375 0.0
H1072 H 0.89387 0.60666 0.82334 0.0
H1073 H 0.89533 0.60937 0.74483 0.0
H1074 H 0.85774 0.65409 0.77325 0.0
H1075 H 0.85613 0.65143 0.85171 0.0
H1076 H 0.86745 0.60569 0.68293 0.0
H1077 H 0.89795 0.67487 0.70858 0.0
H1078 H 0.89783 0.6618 0.75181 0.0
H1079 H 0.8781 0.67392 0.74119 0.0
C1080 C 0.88592 0.61709 0.81292 0.0
C1081 C 0.87492 0.62887 0.84393 0.0
C1082 C 0.88682 0.61866 0.76806 0.0
C1083 C 0.87683 0.63208 0.75327 0.0
C1084 C 0.86588 0.6439 0.7841 0.0
H1085 H 0.86135 0.66105 0.49469 0.0
H1086 H 0.85968 0.65835 0.57319 0.0
C1087 C 0.865 0.64237 0.829 0.0
C1088 C 0.87733 0.63323 0.70522 0.0
H1089 H 0.88722 0.66184 0.63525 0.0
C1090 C 0.87185 0.61793 0.67245 0.0
C1091 C 0.88301 0.64924 0.69162 0.0
C1092 C 0.88971 0.66585 0.72505 0.0
C1093 C 0.87163 0.6183 0.62655 0.0
C1094 C 0.87734 0.6343 0.61294 0.0
C1095 C 0.8828 0.6496 0.64572 0.0
C1096 C 0.87792 0.63542 0.56487 0.0
C1097 C 0.8649 0.6017 0.59315 0.0
C1098 C 0.88878 0.62348 0.53409 0.0
C1099 C 0.88977 0.625 0.4892 0.0
C1100 C 0.88005 0.63861 0.47423 0.0
C1101 C 0.86914 0.65052 0.50516 0.0
C1102 C 0.86812 0.64896 0.55002 0.0
H1103 H 0.85653 0.59277 0.60962 0.0
H1104 H 0.8569 0.60574 0.5662 0.0
H1105 H 0.8765 0.59352 0.57728 0.0
H1106 H 0.8968 0.61321 0.54499 0.0
H1107 H 0.89857 0.61583 0.46653 0.0
H1108 H 0.12017 0.10168 0.56935 0.0
H1109 H 0.11779 0.10494 0.49133 0.0
H1110 H 0.16827 0.1336 0.50419 0.0
H1111 H 0.1707 0.13053 0.58216 0.0
H1112 H 0.11708 0.1362 0.45574 0.0
H1113 H 0.17607 0.0935 0.39146 0.0
H1114 H 0.16611 0.09362 0.4455 0.0
H1115 H 0.18088 0.11183 0.43878 0.0
C1116 C 0.13072 0.1088 0.55575 0.0
C1117 C 0.14571 0.11571 0.58218 0.0
C1118 C 0.12938 0.11057 0.51099 0.0
C1119 C 0.14301 0.1192 0.49147 0.0
C1120 C 0.1578 0.12644 0.51799 0.0
H1121 H 0.1612 0.14547 0.2306 0.0
H1122 H 0.163 0.14131 0.30791 0.0
C1123 C 0.15916 0.12467 0.56269 0.0
C1124 C 0.14164 0.12092 0.4437 0.0
H1125 H 0.16296 0.11025 0.34195 0.0
C1126 C 0.12705 0.13043 0.43079 0.0
C1127 C 0.15467 0.11343 0.41106 0.0
C1128 C 0.17023 0.10237 0.42217 0.0
C1129 C 0.12536 0.13302 0.38658 0.0
C1130 C 0.13842 0.12557 0.35396 0.0
C1131 C 0.15296 0.11599 0.36684 0.0
C1132 C 0.13735 0.12772 0.30644 0.0
C1133 C 0.10984 0.14417 0.37561 0.0
C1134 C 0.1225 0.12115 0.27932 0.0
C1135 C 0.12145 0.12349 0.23499 0.0
C1136 C 0.13531 0.1323 0.21649 0.0
C1137 C 0.15035 0.13847 0.24344 0.0
C1138 C 0.15136 0.13618 0.28782 0.0
H1139 H 0.104 0.15298 0.4064 0.0
H1140 H 0.11402 0.15301 0.35254 0.0
H1141 H 0.09918 0.13479 0.35879 0.0
H1142 H 0.11173 0.11413 0.29236 0.0
H1143 H 0.10981 0.11826 0.21505 0.0
H1144 H 0.66066 0.37555 0.30147 0.0
H1145 H 0.66204 0.38003 0.22435 0.0
H1146 H 0.6089 0.40295 0.23832 0.0
H1147 H 0.60756 0.39892 0.31583 0.0
H1148 H 0.63923 0.36512 0.15223 0.0
H1149 H 0.63746 0.44111 0.18895 0.0
H1150 H 0.64241 0.42841 0.23148 0.0
H1151 H 0.61968 0.43065 0.21416 0.0
C1152 C 0.64936 0.38183 0.28846 0.0
C1153 C 0.63403 0.38695 0.31512 0.0
C1154 C 0.65013 0.38426 0.24418 0.0
C1155 C 0.63567 0.39203 0.22558 0.0
C1156 C 0.62036 0.3972 0.25207 0.0
H1157 H 0.61637 0.41573 0.96072 0.0
H1158 H 0.61366 0.41169 0.03812 0.0
C1159 C 0.61954 0.39471 0.29631 0.0
C1160 C 0.63641 0.39413 0.17805 0.0
H1161 H 0.63518 0.42579 0.11238 0.0
C1162 C 0.6384 0.37839 0.14354 0.0
C1163 C 0.63523 0.41144 0.16661 0.0
C1164 C 0.63373 0.42891 0.20219 0.0
C1165 C 0.63905 0.37945 0.09802 0.0
C1166 C 0.63805 0.39678 0.08657 0.0
C1167 C 0.63593 0.41251 0.12107 0.0
C1168 C 0.63956 0.39888 0.03913 0.0
C1169 C 0.64044 0.36194 0.06252 0.0
C1170 C 0.65506 0.39317 0.01388 0.0
C1171 C 0.65661 0.39537 0.96957 0.0
C1172 C 0.64274 0.40347 0.94939 0.0
C1173 C 0.62723 0.40923 0.97483 0.0
C1174 C 0.6257 0.40704 0.01926 0.0
H1175 H 0.63596 0.3499 0.07546 0.0
H1176 H 0.63233 0.36269 0.03245 0.0
H1177 H 0.65462 0.35969 0.05193 0.0
H1178 H 0.66608 0.38714 0.02861 0.0
H1179 H 0.66869 0.39061 0.95101 0.0
H1180 H 0.4 0.90509 0.06015 0.0
H1181 H 0.39803 0.90801 0.98184 0.0
H1182 H 0.36048 0.86314 0.95364 0.0
H1183 H 0.362 0.86044 0.03211 0.0
H1184 H 0.40651 0.88135 0.90472 0.0
H1185 H 0.33544 0.90258 0.90179 0.0
H1186 H 0.34756 0.90348 0.95348 0.0
H1187 H 0.33882 0.88207 0.92216 0.0
C1188 C 0.39107 0.89605 0.03751 0.0
C1189 C 0.38109 0.88258 0.05254 0.0
C1190 C 0.39007 0.89765 0.99266 0.0
C1191 C 0.37896 0.88593 0.96197 0.0
C1192 C 0.36892 0.87253 0.97686 0.0
H1193 H 0.3569 0.87008 0.67616 0.0
H1194 H 0.35891 0.86769 0.75481 0.0
C1195 C 0.36994 0.87089 0.02166 0.0
C1196 C 0.3784 0.88728 0.91404 0.0
H1197 H 0.35035 0.89477 0.83135 0.0
C1198 C 0.39426 0.88439 0.88872 0.0
C1199 C 0.36239 0.8912 0.89317 0.0
C1200 C 0.3451 0.89518 0.91907 0.0
C1201 C 0.39447 0.88495 0.84291 0.0
C1202 C 0.37846 0.88882 0.82203 0.0
C1203 C 0.3626 0.89176 0.84737 0.0
C1204 C 0.37784 0.88994 0.77394 0.0
C1205 C 0.41175 0.88097 0.81699 0.0
C1206 C 0.38778 0.90327 0.75853 0.0
C1207 C 0.38674 0.90462 0.7135 0.0
C1208 C 0.37567 0.89268 0.68294 0.0
C1209 C 0.36578 0.8793 0.69853 0.0
C1210 C 0.3668 0.878 0.74358 0.0
H1211 H 0.4215 0.87375 0.8345 0.0
H1212 H 0.4093 0.87249 0.78278 0.0
H1213 H 0.41792 0.89407 0.81339 0.0
H1214 H 0.39617 0.91282 0.78149 0.0
H1215 H 0.39461 0.91501 0.70262 0.0
H1216 H 0.11573 0.68733 0.18295 0.0
H1217 H 0.11115 0.72031 0.18845 0.0
H1218 H 0.16748 0.72685 0.16531 0.0
H1219 H 0.17207 0.69408 0.15915 0.0
H1220 H 0.1268 0.75343 0.24205 0.0
H1221 H 0.14284 0.74392 0.06069 0.0
H1222 H 0.13813 0.72495 0.08665 0.0
H1223 H 0.15986 0.73557 0.09261 0.0
C1224 C 0.12715 0.69588 0.17979 0.0
C1225 C 0.14422 0.6881 0.17004 0.0
C1226 C 0.12453 0.7147 0.1829 0.0
C1227 C 0.13892 0.72598 0.17637 0.0
C1228 C 0.15612 0.71837 0.16955 0.0
H1229 H 0.1481 0.84443 0.21125 0.0
H1230 H 0.14834 0.81302 0.22262 0.0
C1231 C 0.15873 0.69964 0.1662 0.0
C1232 C 0.13596 0.74536 0.17361 0.0
H1233 H 0.14073 0.77453 0.10248 0.0
C1234 C 0.12974 0.75806 0.21151 0.0
C1235 C 0.13954 0.75135 0.13353 0.0
C1236 C 0.1453 0.73823 0.0909 0.0
C1237 C 0.12745 0.77669 0.21068 0.0
C1238 C 0.13173 0.78279 0.17107 0.0
C1239 C 0.13757 0.76995 0.13298 0.0
C1240 C 0.1302 0.80231 0.1677 0.0
C1241 C 0.12025 0.78958 0.25197 0.0
C1242 C 0.12 0.80685 0.133 0.0
C1243 C 0.12003 0.82471 0.12607 0.0
C1244 C 0.13024 0.83854 0.15374 0.0
C1245 C 0.13997 0.83416 0.18952 0.0
C1246 C 0.14004 0.8162 0.19622 0.0
H1247 H 0.1129 0.7821 0.27411 0.0
H1248 H 0.13158 0.79696 0.27154 0.0
H1249 H 0.11113 0.79988 0.24273 0.0
H1250 H 0.1123 0.79642 0.1105 0.0
H1251 H 0.1123 0.82756 0.09834 0.0
H1252 H 0.58782 0.90306 0.47066 0.0
H1253 H 0.55536 0.9052 0.4852 0.0
H1254 H 0.54589 0.86452 0.36351 0.0
H1255 H 0.57792 0.86227 0.34881 0.0
H1256 H 0.52666 0.89919 0.37254 0.0
H1257 H 0.51844 0.86747 0.52057 0.0
H1258 H 0.53593 0.88419 0.52156 0.0
H1259 H 0.53745 0.86236 0.48324 0.0
C1260 C 0.57882 0.89435 0.44747 0.0
C1261 C 0.58553 0.88256 0.40845 0.0
C1262 C 0.56028 0.89557 0.45585 0.0
C1263 C 0.54818 0.88498 0.42545 0.0
C1264 C 0.55494 0.87282 0.38742 0.0
H1265 H 0.44072 0.86166 0.35021 0.0
H1266 H 0.47281 0.86395 0.36437 0.0
C1267 C 0.57333 0.87158 0.37908 0.0
C1268 C 0.52843 0.8873 0.43058 0.0
H1269 H 0.49213 0.87608 0.48775 0.0
C1270 C 0.51915 0.89438 0.39814 0.0
C1271 C 0.51862 0.88111 0.46412 0.0
C1272 C 0.528 0.87327 0.49942 0.0
C1273 C 0.50036 0.89484 0.39733 0.0
C1274 C 0.49048 0.88776 0.42935 0.0
C1275 C 0.49972 0.88146 0.46318 0.0
C1276 C 0.47074 0.88522 0.42486 0.0
C1277 C 0.49116 0.90248 0.36136 0.0
C1278 C 0.45876 0.89597 0.45519 0.0
C1279 C 0.44019 0.89469 0.44718 0.0
C1280 C 0.43336 0.88261 0.40873 0.0
C1281 C 0.44544 0.87126 0.37989 0.0
C1282 C 0.46385 0.87254 0.38791 0.0
H1283 H 0.50021 0.91152 0.347 0.0
H1284 H 0.48692 0.891 0.33367 0.0
H1285 H 0.47903 0.91036 0.37491 0.0
H1286 H 0.46381 0.90582 0.48402 0.0
H1287 H 0.43128 0.90364 0.47002 0.0
H1288 H 0.37373 0.34534 0.72195 0.0
H1289 H 0.37415 0.31442 0.73668 0.0
H1290 H 0.40142 0.29447 0.61084 0.0
H1291 H 0.40132 0.32518 0.59617 0.0
H1292 H 0.35813 0.28412 0.68734 0.0
H1293 H 0.43066 0.27082 0.69419 0.0
H1294 H 0.42175 0.29354 0.69821 0.0
H1295 H 0.42482 0.27834 0.6441 0.0
C1296 C 0.38008 0.33444 0.69773 0.0
C1297 C 0.3875 0.33783 0.65784 0.0
C1298 C 0.38029 0.31674 0.70621 0.0
C1299 C 0.38809 0.3021 0.67527 0.0
C1300 C 0.39574 0.30555 0.63585 0.0
H1301 H 0.36442 0.19118 0.58643 0.0
H1302 H 0.36753 0.2243 0.60672 0.0
C1303 C 0.39552 0.32317 0.62731 0.0
C1304 C 0.38688 0.28295 0.68184 0.0
H1305 H 0.41151 0.24399 0.67622 0.0
C1306 C 0.36986 0.27548 0.68586 0.0
C1307 C 0.40215 0.27162 0.68065 0.0
C1308 C 0.42088 0.27905 0.67955 0.0
C1309 C 0.36762 0.25679 0.6855 0.0
C1310 C 0.38276 0.24517 0.6805 0.0
C1311 C 0.39988 0.25285 0.67965 0.0
C1312 C 0.38082 0.22488 0.67002 0.0
C1313 C 0.34896 0.24949 0.68895 0.0
C1314 C 0.38755 0.21402 0.69859 0.0
C1315 C 0.38571 0.19481 0.68705 0.0
C1316 C 0.37737 0.18629 0.64645 0.0
C1317 C 0.37085 0.19727 0.61803 0.0
C1318 C 0.37254 0.21627 0.62966 0.0
H1319 H 0.33974 0.26045 0.70619 0.0
H1320 H 0.34366 0.244 0.65462 0.0
H1321 H 0.34895 0.23824 0.70743 0.0
H1322 H 0.39414 0.22039 0.72977 0.0
H1323 H 0.39095 0.18667 0.70944 0.0
H1324 H 0.94337 0.11598 0.81543 0.0
H1325 H 0.97507 0.12069 0.83278 0.0
H1326 H 0.96226 0.14363 0.9716 0.0
H1327 H 0.93007 0.13895 0.95418 0.0
H1328 H 0.99232 0.15586 0.87358 0.0
H1329 H 1.00086 0.10191 0.97228 0.0
H1330 H 0.98238 0.10129 0.93374 0.0
H1331 H 0.98269 0.11801 0.98575 0.0
C1332 C 0.94721 0.12203 0.84976 0.0
C1333 C 0.93418 0.12705 0.88348 0.0
C1334 C 0.96538 0.12473 0.85959 0.0
C1335 C 0.97109 0.1324 0.90348 0.0
C1336 C 0.95817 0.13752 0.93753 0.0
H1337 H 0.08895 0.13796 0.95436 0.0
H1338 H 0.05675 0.14291 0.97123 0.0
C1339 C 0.9398 0.1349 0.92757 0.0
C1340 C 0.99065 0.13504 0.91219 0.0
H1341 H 0.02701 0.11512 0.95019 0.0
C1342 C 0.99988 0.14724 0.89123 0.0
C1343 C 1.00053 0.12385 0.93532 0.0
C1344 C 0.99124 0.11044 0.95808 0.0
C1345 C 0.01868 0.14786 0.89072 0.0
C1346 C 0.0286 0.13575 0.91104 0.0
C1347 C 0.01941 0.12439 0.93459 0.0
C1348 C 0.04813 0.13292 0.9024 0.0
C1349 C 0.02782 0.16099 0.8668 0.0
C1350 C 0.05393 0.12546 0.85846 0.0
C1351 C 0.0721 0.12256 0.84896 0.0
C1352 C 0.08503 0.12702 0.88314 0.0
C1353 C 0.0793 0.13443 0.92736 0.0
C1354 C 0.06094 0.13724 0.93699 0.0
H1355 H 0.01904 0.17277 0.86495 0.0
H1356 H 0.0405 0.16626 0.88391 0.0
H1357 H 0.03107 0.15373 0.8319 0.0
H1358 H 0.04432 0.12178 0.83134 0.0
H1359 H 0.07601 0.11678 0.81455 0.0
H1360 H 0.1727 0.32697 0.87048 0.0
H1361 H 0.16894 0.29393 0.86097 0.0
H1362 H 0.11228 0.29945 0.84005 0.0
H1363 H 0.1161 0.33266 0.84852 0.0
H1364 H 0.14963 0.27833 0.91637 0.0
H1365 H 0.12415 0.25465 0.74233 0.0
H1366 H 0.13432 0.27688 0.76192 0.0
H1367 H 0.11146 0.27303 0.77593 0.0
C1368 C 0.15948 0.32111 0.86297 0.0
C1369 C 0.14468 0.3324 0.86039 0.0
C1370 C 0.15734 0.30221 0.85759 0.0
C1371 C 0.14035 0.29411 0.8496 0.0
C1372 C 0.12559 0.30528 0.84534 0.0
H1373 H 0.11381 0.1919 0.92493 0.0
H1374 H 0.11457 0.22332 0.9147 0.0
C1375 C 0.12776 0.32427 0.85037 0.0
C1376 C 0.13806 0.27437 0.85021 0.0
H1377 H 0.1233 0.23301 0.78927 0.0
C1378 C 0.14391 0.26845 0.88846 0.0
C1379 C 0.13074 0.26139 0.8137 0.0
C1380 C 0.12495 0.26672 0.77094 0.0
C1381 C 0.14257 0.25004 0.8914 0.0
C1382 C 0.13478 0.23714 0.8555 0.0
C1383 C 0.1291 0.24295 0.81694 0.0
C1384 C 0.13261 0.21759 0.85782 0.0
C1385 C 0.14985 0.24452 0.93271 0.0
C1386 C 0.14183 0.20369 0.8279 0.0
C1387 C 0.14132 0.18557 0.83346 0.0
C1388 C 0.13158 0.18105 0.86908 0.0
C1389 C 0.12165 0.19488 0.8975 0.0
C1390 C 0.12209 0.2129 0.89177 0.0
H1391 H 0.15945 0.25481 0.95127 0.0
H1392 H 0.13862 0.24335 0.95575 0.0
H1393 H 0.1567 0.23106 0.92368 0.0
H1394 H 0.14997 0.20698 0.80132 0.0
H1395 H 0.14911 0.17527 0.81091 0.0
H1396 H 0.07476 0.90919 0.19744 0.0
H1397 H 0.04317 0.90592 0.17764 0.0
H1398 H 0.05684 0.87374 0.04661 0.0
H1399 H 0.08894 0.87702 0.06646 0.0
H1400 H 0.02654 0.91675 0.09831 0.0
H1401 H 0.01783 0.84317 0.10302 0.0
H1402 H 0.0359 0.85663 0.133 0.0
H1403 H 0.03644 0.85011 0.07284 0.0
C1404 C 0.07114 0.90137 0.16435 0.0
C1405 C 0.08438 0.89339 0.13346 0.0
C1406 C 0.05303 0.89954 0.15309 0.0
C1407 C 0.0476 0.88955 0.11076 0.0
C1408 C 0.06073 0.88142 0.07961 0.0
H1409 H 0.92944 0.87686 0.06696 0.0
H1410 H 0.96156 0.87385 0.04696 0.0
C1411 C 0.07904 0.88335 0.09087 0.0
C1412 C 0.02812 0.88822 0.10022 0.0
H1413 H 0.99169 0.86053 0.10115 0.0
C1414 C 0.01895 0.90433 0.09776 0.0
C1415 C 0.01821 0.87202 0.09944 0.0
C1416 C 0.02746 0.85443 0.10228 0.0
C1417 C 1.00015 0.90493 0.09715 0.0
C1418 C 0.9902 0.8891 0.09974 0.0
C1419 C 0.99933 0.87265 0.0991 0.0
C1420 C 0.97073 0.8903 0.11047 0.0
C1421 C 0.99104 0.92279 0.09593 0.0
C1422 C 0.9653 0.90027 0.15279 0.0
C1423 C 0.94721 0.9019 0.16418 0.0
C1424 C 0.93398 0.89365 0.13352 0.0
C1425 C 0.93933 0.88348 0.0911 0.0
C1426 C 0.95764 0.88172 0.07974 0.0
H1427 H 0.9999 0.93193 0.08139 0.0
H1428 H 0.97847 0.92039 0.07602 0.0
H1429 H 0.98757 0.92996 0.13075 0.0
H1430 H 0.97515 0.90682 0.17723 0.0
H1431 H 0.94359 0.90977 0.1972 0.0
H1432 H 0.36985 0.67579 0.31834 0.0
H1433 H 0.36924 0.70729 0.30763 0.0
H1434 H 0.40498 0.72401 0.42029 0.0
H1435 H 0.40538 0.69277 0.43176 0.0
H1436 H 0.37644 0.74579 0.42805 0.0
H1437 H 0.40463 0.73848 0.25684 0.0
H1438 H 0.38601 0.72352 0.25916 0.0
H1439 H 0.40642 0.72069 0.28817 0.0
C1440 C 0.37783 0.6861 0.34036 0.0
C1441 C 0.38762 0.6817 0.37602 0.0
C1442 C 0.37754 0.70413 0.33404 0.0
C1443 C 0.38721 0.71807 0.36285 0.0
C1444 C 0.39741 0.71354 0.39756 0.0
H1445 H 0.40217 0.83285 0.34671 0.0
H1446 H 0.40641 0.79986 0.34171 0.0
C1447 C 0.39762 0.69562 0.40408 0.0
C1448 C 0.3856 0.73762 0.35958 0.0
H1449 H 0.39074 0.76711 0.28898 0.0
C1450 C 0.37967 0.75042 0.39765 0.0
C1451 C 0.38997 0.74379 0.32012 0.0
C1452 C 0.39728 0.73095 0.27887 0.0
C1453 C 0.37773 0.76904 0.39723 0.0
C1454 C 0.38142 0.7751 0.3573 0.0
C1455 C 0.38771 0.76243 0.31941 0.0
C1456 C 0.37864 0.79456 0.35469 0.0
C1457 C 0.37193 0.78211 0.43991 0.0
C1458 C 0.36154 0.80239 0.36188 0.0
C1459 C 0.35912 0.82115 0.36494 0.0
C1460 C 0.37372 0.83248 0.36042 0.0
C1461 C 0.39067 0.82447 0.35041 0.0
C1462 C 0.39311 0.80563 0.34759 0.0
H1463 H 0.37437 0.77638 0.47005 0.0
H1464 H 0.37909 0.7954 0.44431 0.0
H1465 H 0.35736 0.78475 0.43814 0.0
H1466 H 0.3501 0.79408 0.36648 0.0
H1467 H 0.34586 0.82688 0.3722 0.0
H1468 H 0.5866 0.11474 0.55516 0.0
H1469 H 0.55418 0.11457 0.54091 0.0
H1470 H 0.54729 0.15867 0.65712 0.0
H1471 H 0.57938 0.15907 0.67126 0.0
H1472 H 0.5268 0.10811 0.59829 0.0
H1473 H 0.51864 0.17688 0.56224 0.0
H1474 H 0.54019 0.16586 0.56103 0.0
H1475 H 0.53059 0.17761 0.61365 0.0
C1476 C 0.57821 0.12461 0.5772 0.0
C1477 C 0.58567 0.13695 0.6143 0.0
C1478 C 0.55966 0.12444 0.56912 0.0
C1479 C 0.54826 0.13678 0.59756 0.0
C1480 C 0.55577 0.14927 0.63409 0.0
H1481 H 0.4398 0.15887 0.6723 0.0
H1482 H 0.47192 0.15786 0.6581 0.0
C1483 C 0.5742 0.14938 0.6423 0.0
C1484 C 0.52841 0.13606 0.59128 0.0
H1485 H 0.49204 0.16304 0.58461 0.0
C1486 C 0.51919 0.12 0.59441 0.0
C1487 C 0.51844 0.15156 0.58619 0.0
C1488 C 0.52748 0.16889 0.58012 0.0
C1489 C 0.50033 0.11938 0.59528 0.0
C1490 C 0.49037 0.13516 0.59221 0.0
C1491 C 0.49961 0.15096 0.58714 0.0
C1492 C 0.47052 0.13614 0.59831 0.0
C1493 C 0.49124 0.10216 0.60196 0.0
C1494 C 0.45883 0.12454 0.5688 0.0
C1495 C 0.44027 0.12509 0.57683 0.0
C1496 C 0.43306 0.13725 0.61456 0.0
C1497 C 0.4448 0.14923 0.64306 0.0
C1498 C 0.46324 0.14871 0.63495 0.0
H1499 H 0.50083 0.09249 0.6122 0.0
H1500 H 0.4806 0.10548 0.62792 0.0
H1501 H 0.48486 0.0951 0.56995 0.0
H1502 H 0.46406 0.11494 0.5398 0.0
H1503 H 0.43166 0.11568 0.55415 0.0
H1504 H 0.87357 0.17383 0.80251 0.0
H1505 H 0.8738 0.20486 0.78846 0.0
H1506 H 0.90257 0.22431 0.91239 0.0
H1507 H 0.90264 0.19351 0.92636 0.0
H1508 H 0.85823 0.23493 0.84013 0.0
H1509 H 0.9305 0.24857 0.82776 0.0
H1510 H 0.92171 0.22576 0.82357 0.0
H1511 H 0.92547 0.24066 0.87781 0.0
C1512 C 0.88023 0.18464 0.82638 0.0
C1513 C 0.88809 0.1811 0.8656 0.0
C1514 C 0.88033 0.2024 0.81831 0.0
C1515 C 0.88846 0.21693 0.84897 0.0
C1516 C 0.89661 0.21331 0.8876 0.0
H1517 H 0.86517 0.32742 0.94499 0.0
H1518 H 0.86831 0.29433 0.92288 0.0
C1519 C 0.89649 0.19564 0.89574 0.0
C1520 C 0.88703 0.23616 0.84321 0.0
H1521 H 0.91144 0.27533 0.8489 0.0
C1522 C 0.8699 0.24364 0.84106 0.0
C1523 C 0.90222 0.24758 0.84371 0.0
C1524 C 0.92101 0.24017 0.84284 0.0
C1525 C 0.86753 0.2624 0.84267 0.0
C1526 C 0.88265 0.27408 0.84707 0.0
C1527 C 0.89983 0.26642 0.84597 0.0
C1528 C 0.88072 0.29435 0.85879 0.0
C1529 C 0.84878 0.26971 0.84124 0.0
C1530 C 0.88697 0.30553 0.8304 0.0
C1531 C 0.88513 0.3247 0.84302 0.0
C1532 C 0.87725 0.33287 0.88447 0.0
C1533 C 0.87123 0.32158 0.91275 0.0
C1534 C 0.87293 0.30261 0.90008 0.0
H1535 H 0.83941 0.25883 0.82425 0.0
H1536 H 0.84393 0.27488 0.87613 0.0
H1537 H 0.84843 0.28119 0.82353 0.0
H1538 H 0.89318 0.29942 0.79853 0.0
H1539 H 0.88997 0.33308 0.82071 0.0
H1540 H 0.61715 0.83202 0.34848 0.0
H1541 H 0.61313 0.799 0.34355 0.0
H1542 H 0.66907 0.79419 0.37372 0.0
H1543 H 0.67308 0.82702 0.37939 0.0
H1544 H 0.62959 0.76664 0.29233 0.0
H1545 H 0.64364 0.77579 0.47453 0.0
H1546 H 0.63921 0.79482 0.44865 0.0
H1547 H 0.66104 0.78447 0.44427 0.0
C1548 C 0.62861 0.82385 0.35348 0.0
C1549 C 0.64538 0.83215 0.3649 0.0
C1550 C 0.62631 0.80499 0.35068 0.0
C1551 C 0.64072 0.79417 0.35921 0.0
C1552 C 0.65767 0.8023 0.368 0.0
H1553 H 0.65062 0.67544 0.32194 0.0
H1554 H 0.65115 0.70701 0.31164 0.0
C1555 C 0.65995 0.82108 0.37105 0.0
C1556 C 0.63803 0.77465 0.36138 0.0
H1557 H 0.64238 0.74522 0.43201 0.0
C1558 C 0.63229 0.76194 0.32289 0.0
C1559 C 0.64129 0.76854 0.40146 0.0
C1560 C 0.64647 0.78163 0.44472 0.0
C1561 C 0.63015 0.74323 0.32317 0.0
C1562 C 0.6341 0.73704 0.36282 0.0
C1563 C 0.63948 0.74986 0.40146 0.0
C1564 C 0.63257 0.71743 0.36572 0.0
C1565 C 0.6234 0.73036 0.28124 0.0
C1566 C 0.62205 0.71267 0.39963 0.0
C1567 C 0.6219 0.69472 0.40594 0.0
C1568 C 0.63226 0.681 0.37843 0.0
C1569 C 0.64236 0.68561 0.34349 0.0
C1570 C 0.64261 0.70368 0.33741 0.0
H1571 H 0.61623 0.73783 0.25883 0.0
H1572 H 0.63495 0.72319 0.26228 0.0
H1573 H 0.61426 0.71989 0.28966 0.0
H1574 H 0.61419 0.72298 0.42195 0.0
H1575 H 0.61389 0.69169 0.43304 0.0
H1576 H 0.84916 0.69327 0.13463 0.0
H1577 H 0.85413 0.72606 0.1449 0.0
H1578 H 0.90413 0.72112 0.21207 0.0
H1579 H 0.8995 0.68784 0.20012 0.0
H1580 H 0.85764 0.75351 0.21495 0.0
H1581 H 0.92085 0.74648 0.1165 0.0
H1582 H 0.90675 0.72714 0.11866 0.0
H1583 H 0.92136 0.73651 0.16493 0.0
C1584 C 0.86123 0.69911 0.15172 0.0
C1585 C 0.87405 0.68789 0.16605 0.0
C1586 C 0.86403 0.71794 0.15771 0.0
C1587 C 0.87967 0.72614 0.17848 0.0
C1588 C 0.89217 0.7151 0.19484 0.0
H1589 H 0.88246 0.84756 0.22423 0.0
H1590 H 0.88286 0.81673 0.23956 0.0
C1591 C 0.88945 0.69611 0.18838 0.0
C1592 C 0.88277 0.74609 0.18138 0.0
H1593 H 0.91042 0.77634 0.1451 0.0
C1594 C 0.86927 0.75853 0.20001 0.0
C1595 C 0.89787 0.75268 0.16155 0.0
C1596 C 0.91247 0.74003 0.13891 0.0
C1597 C 0.87005 0.77711 0.19782 0.0
C1598 C 0.88509 0.78367 0.17771 0.0
C1599 C 0.89893 0.77138 0.16068 0.0
C1600 C 0.88596 0.80268 0.16986 0.0
C1601 C 0.85426 0.78923 0.21483 0.0
C1602 C 0.88831 0.80523 0.12593 0.0
C1603 C 0.88845 0.8228 0.11723 0.0
C1604 C 0.88612 0.83837 0.15221 0.0
C1605 C 0.88412 0.83589 0.19642 0.0
C1606 C 0.88422 0.81822 0.2052 0.0
H1607 H 0.84214 0.78113 0.21891 0.0
H1608 H 0.85759 0.79798 0.24818 0.0
H1609 H 0.85099 0.79829 0.19158 0.0
H1610 H 0.88969 0.79354 0.09801 0.0
H1611 H 0.88999 0.8241 0.08273 0.0
H1612 H 0.6292 0.18576 0.71144 0.0
H1613 H 0.62607 0.21945 0.73244 0.0
H1614 H 0.64973 0.22359 0.60599 0.0
H1615 H 0.65286 0.1905 0.58516 0.0
H1616 H 0.66429 0.24833 0.68312 0.0
H1617 H 0.58984 0.25061 0.67466 0.0
H1618 H 0.60001 0.23649 0.70861 0.0
H1619 H 0.60232 0.23042 0.64864 0.0
C1620 C 0.63372 0.19394 0.68834 0.0
C1621 C 0.64125 0.18548 0.64665 0.0
C1622 C 0.63188 0.21313 0.70023 0.0
C1623 C 0.6376 0.22404 0.67063 0.0
C1624 C 0.64525 0.21552 0.6294 0.0
H1625 H 0.61863 0.32497 0.60073 0.0
H1626 H 0.61914 0.29409 0.61433 0.0
C1627 C 0.64699 0.19653 0.61751 0.0
C1628 C 0.63576 0.24435 0.68129 0.0
H1629 H 0.60526 0.27849 0.68267 0.0
C1630 C 0.65138 0.25501 0.68402 0.0
C1631 C 0.61891 0.253 0.68191 0.0
C1632 C 0.60174 0.24214 0.67812 0.0
C1633 C 0.65066 0.2739 0.68526 0.0
C1634 C 0.63382 0.28247 0.68436 0.0
C1635 C 0.61816 0.27195 0.68359 0.0
C1636 C 0.63227 0.30175 0.67898 0.0
C1637 C 0.66798 0.28428 0.68469 0.0
C1638 C 0.63914 0.31653 0.71128 0.0
C1639 C 0.63894 0.33435 0.70351 0.0
C1640 C 0.63182 0.33773 0.66332 0.0
C1641 C 0.62434 0.32296 0.63194 0.0
C1642 C 0.62455 0.30523 0.63973 0.0
H1643 H 0.67969 0.27498 0.67717 0.0
H1644 H 0.66742 0.29287 0.65927 0.0
H1645 H 0.67014 0.29348 0.71813 0.0
H1646 H 0.6449 0.31426 0.74218 0.0
H1647 H 0.64472 0.34538 0.72855 0.0
H1648 H 0.93133 0.40496 0.97564 0.0
H1649 H 0.96398 0.40697 0.98707 0.0
H1650 H 0.97143 0.36334 0.8702 0.0
H1651 H 0.93919 0.36119 0.85855 0.0
H1652 H 0.99193 0.37722 0.99234 0.0
H1653 H 0.9992 0.40964 0.84606 0.0
H1654 H 0.97824 0.40931 0.87547 0.0
H1655 H 0.98567 0.38927 0.83575 0.0
C1656 C 0.93991 0.39561 0.9528 0.0
C1657 C 0.93257 0.38304 0.9159 0.0
C1658 C 0.95857 0.39679 0.95937 0.0
C1659 C 0.97014 0.38546 0.92912 0.0
C1660 C 0.96278 0.37237 0.89365 0.0
H1661 H 0.07747 0.363 0.84957 0.0
H1662 H 0.04546 0.36497 0.86441 0.0
C1663 C 0.94427 0.37117 0.88708 0.0
C1664 C 0.98994 0.38775 0.93227 0.0
H1665 H 0.02577 0.39806 0.87263 0.0
C1666 C 0.99938 0.38207 0.96669 0.0
C1667 C 0.99962 0.39414 0.89885 0.0
C1668 C 0.99021 0.4011 0.8621 0.0
C1669 C 0.01828 0.38167 0.96703 0.0
C1670 C 0.02791 0.38726 0.93231 0.0
C1671 C 0.01841 0.39369 0.89914 0.0
C1672 C 0.04769 0.38509 0.927 0.0
C1673 C 0.02781 0.37444 1.00311 0.0
C1674 C 0.05977 0.39554 0.95772 0.0
C1675 C 0.07832 0.39443 0.9493 0.0
C1676 C 0.08504 0.38295 0.90987 0.0
C1677 C 0.07286 0.3721 0.88015 0.0
C1678 C 0.05448 0.37319 0.88856 0.0
H1679 H 0.0184 0.3683 0.02392 0.0
H1680 H 0.03783 0.36395 0.98783 0.0
H1681 H 0.0351 0.38582 0.02551 0.0
H1682 H 0.05484 0.40499 0.98737 0.0
H1683 H 0.08729 0.40305 0.97276 0.0
H1684 H 0.43064 0.63824 0.46257 0.0
H1685 H 0.46286 0.643 0.47961 0.0
H1686 H 0.47526 0.62276 0.33938 0.0
H1687 H 0.44355 0.61794 0.32242 0.0
H1688 H 0.4923 0.61528 0.45808 0.0
H1689 H 0.5011 0.67334 0.37454 0.0
H1690 H 0.47951 0.66682 0.39286 0.0
H1691 H 0.48902 0.65447 0.3408 0.0
C1692 C 0.44028 0.63488 0.43552 0.0
C1693 C 0.43454 0.62777 0.39115 0.0
C1694 C 0.45866 0.63758 0.44526 0.0
C1695 C 0.47147 0.63345 0.41064 0.0
C1696 C 0.46565 0.6263 0.36654 0.0
H1697 H 0.57648 0.61635 0.32489 0.0
H1698 H 0.54477 0.62116 0.34165 0.0
C1699 C 0.44747 0.6235 0.35694 0.0
C1700 C 0.49103 0.6361 0.41944 0.0
H1701 H 0.52762 0.65615 0.38291 0.0
C1702 C 0.50004 0.62457 0.44278 0.0
C1703 C 0.50113 0.64824 0.39952 0.0
C1704 C 0.4922 0.66156 0.37588 0.0
C1705 C 0.51891 0.6239 0.44371 0.0
C1706 C 0.52898 0.63514 0.42101 0.0
C1707 C 0.51993 0.64749 0.40023 0.0
C1708 C 0.54855 0.63245 0.41263 0.0
C1709 C 0.528 0.61032 0.46624 0.0
C1710 C 0.56139 0.63731 0.44703 0.0
C1711 C 0.57977 0.63463 0.43741 0.0
C1712 C 0.5855 0.62698 0.39332 0.0
C1713 C 0.57256 0.62223 0.35924 0.0
C1714 C 0.55437 0.62499 0.36873 0.0
H1715 H 0.51824 0.60171 0.47986 0.0
H1716 H 0.53691 0.60125 0.44194 0.0
H1717 H 0.53646 0.61776 0.49431 0.0
H1718 H 0.55721 0.64326 0.48112 0.0
H1719 H 0.58943 0.63847 0.4643 0.0
H1720 H 0.44313 0.40235 0.7093 0.0
H1721 H 0.47479 0.39729 0.69195 0.0
H1722 H 0.46186 0.37491 0.5529 0.0
H1723 H 0.42972 0.3799 0.57033 0.0
H1724 H 0.49139 0.36136 0.64864 0.0
H1725 H 0.50117 0.41696 0.5554 0.0
H1726 H 0.48287 0.41767 0.59449 0.0
H1727 H 0.4825 0.40142 0.54172 0.0
C1728 C 0.44694 0.39635 0.67493 0.0
C1729 C 0.4339 0.39157 0.64113 0.0
C1730 C 0.46508 0.39345 0.6651 0.0
C1731 C 0.47073 0.38582 0.62115 0.0
C1732 C 0.45779 0.38095 0.58703 0.0
H1733 H 0.58874 0.38108 0.57394 0.0
H1734 H 0.55668 0.37596 0.55531 0.0
C1735 C 0.43946 0.38377 0.59699 0.0
C1736 C 0.49023 0.38299 0.61242 0.0
H1737 H 0.52704 0.40336 0.57764 0.0
C1738 C 0.49916 0.37024 0.63214 0.0
C1739 C 0.50037 0.39453 0.59078 0.0
C1740 C 0.49137 0.40849 0.56934 0.0
C1741 C 0.51794 0.36943 0.63301 0.0
C1742 C 0.52813 0.3819 0.61439 0.0
C1743 C 0.51923 0.39381 0.59192 0.0
C1744 C 0.5476 0.3846 0.62414 0.0
C1745 C 0.52678 0.35571 0.65561 0.0
C1746 C 0.55307 0.39133 0.66869 0.0
C1747 C 0.57115 0.39435 0.67919 0.0
C1748 C 0.58431 0.3907 0.64543 0.0
C1749 C 0.57891 0.38394 0.60063 0.0
C1750 C 0.56063 0.38105 0.59 0.0
H1751 H 0.51788 0.3438 0.65563 0.0
H1752 H 0.53956 0.3507 0.63874 0.0
H1753 H 0.52976 0.36237 0.69111 0.0
H1754 H 0.54327 0.39444 0.6955 0.0
H1755 H 0.57481 0.39961 0.71403 0.0
H1756 H 0.07751 0.6577 0.17918 0.0
H1757 H 0.04566 0.65656 0.16194 0.0
H1758 H 0.05549 0.6164 0.03952 0.0
H1759 H 0.08772 0.61734 0.05688 0.0
H1760 H 0.02686 0.66343 0.08712 0.0
H1761 H 0.01758 0.59152 0.10516 0.0
H1762 H 0.03743 0.60458 0.12507 0.0
H1763 H 0.03431 0.59556 0.06598 0.0
C1764 C 0.07301 0.64864 0.1484 0.0
C1765 C 0.08525 0.6375 0.11957 0.0
C1766 C 0.05472 0.64805 0.13855 0.0
C1767 C 0.04807 0.63622 0.09978 0.0
C1768 C 0.06025 0.62543 0.07004 0.0
H1769 H 0.93133 0.61671 0.0567 0.0
H1770 H 0.96363 0.61612 0.04006 0.0
C1771 C 0.07869 0.62609 0.07981 0.0
C1772 C 0.02833 0.63519 0.09187 0.0
H1773 H 0.99172 0.60791 0.09485 0.0
C1774 C 0.01921 0.65119 0.08814 0.0
C1775 C 0.01828 0.61922 0.09295 0.0
C1776 C 0.02729 0.60173 0.09777 0.0
C1777 C 1.00039 0.65186 0.08715 0.0
C1778 C 0.99032 0.63621 0.09083 0.0
C1779 C 0.99942 0.61991 0.09211 0.0
C1780 C 0.97056 0.63712 0.09853 0.0
C1781 C 0.99146 0.66948 0.08303 0.0
C1782 C 0.96369 0.64904 0.13685 0.0
C1783 C 0.94538 0.64937 0.14642 0.0
C1784 C 0.93336 0.63773 0.11799 0.0
C1785 C 0.94017 0.62596 0.0791 0.0
C1786 C 0.95863 0.62555 0.06966 0.0
H1787 H 1.0003 0.67774 0.06579 0.0
H1788 H 0.97865 0.66682 0.06422 0.0
H1789 H 0.98856 0.67778 0.11716 0.0
H1790 H 0.97259 0.65784 0.16017 0.0
H1791 H 0.94071 0.6586 0.17672 0.0
H1792 H 0.15659 0.58809 0.08876 0.0
H1793 H 0.15577 0.55825 0.03672 0.0
H1794 H 0.1155 0.54015 0.11904 0.0
H1795 H 0.11499 0.57073 0.16837 0.0
H1796 H 0.16391 0.52692 0.03938 0.0
H1797 H 0.09138 0.5226 1.00491 0.0
H1798 H 0.10163 0.5432 0.0366 0.0
H1799 H 0.09529 0.52499 0.06382 0.0
C1800 C 0.14729 0.57785 0.0952 0.0
C1801 C 0.13554 0.58189 0.132 0.0
C1802 C 0.14692 0.56067 0.06558 0.0
C1803 C 0.13519 0.54685 0.07281 0.0
C1804 C 0.12409 0.55066 0.11111 0.0
H1805 H 0.15632 0.43262 0.94148 0.0
H1806 H 0.15588 0.46297 0.99114 0.0
C1807 C 0.12398 0.5681 0.13979 0.0
C1808 C 0.13509 0.52843 0.04106 0.0
H1809 H 0.10768 0.49455 0.98397 0.0
C1810 C 0.15156 0.52001 0.02692 0.0
C1811 C 0.11909 0.51932 0.02359 0.0
C1812 C 0.10089 0.52812 0.03262 0.0
C1813 C 0.15251 0.50292 0.9965 0.0
C1814 C 0.1365 0.4932 0.98177 0.0
C1815 C 0.12002 0.50169 0.99552 0.0
C1816 C 0.13646 0.47436 0.952 0.0
C1817 C 0.17074 0.49595 0.97944 0.0
C1818 C 0.12496 0.47 0.9145 0.0
C1819 C 0.12449 0.45224 0.88741 0.0
C1820 C 0.1358 0.43854 0.89655 0.0
C1821 C 0.14743 0.44288 0.93359 0.0
C1822 C 0.14741 0.46041 0.96164 0.0
H1823 H 0.1802 0.50745 0.97981 0.0
H1824 H 0.17636 0.48752 1.00186 0.0
H1825 H 0.17008 0.48755 0.94462 0.0
H1826 H 0.11632 0.48036 0.90605 0.0
H1827 H 0.1154 0.44929 0.85905 0.0
H1828 H 0.70638 0.90923 0.37053 0.0
H1829 H 0.73586 0.91061 0.33544 0.0
H1830 H 0.71994 0.86725 0.2243 0.0
H1831 H 0.69056 0.86617 0.25818 0.0
H1832 H 0.76275 0.88611 0.31103 0.0
H1833 H 0.73635 0.90492 0.15788 0.0
H1834 H 0.72262 0.90535 0.20678 0.0
H1835 H 0.72638 0.88417 0.16647 0.0
C1836 C 0.70918 0.90001 0.33861 0.0
C1837 C 0.69597 0.88776 0.31697 0.0
C1838 C 0.72605 0.90081 0.31854 0.0
C1839 C 0.73004 0.88937 0.27651 0.0
C1840 C 0.71708 0.87667 0.2559 0.0
H1841 H 0.82212 0.85829 0.10553 0.0
H1842 H 0.79393 0.86053 0.14782 0.0
C1843 C 0.70025 0.87599 0.27559 0.0
C1844 C 0.7477 0.89046 0.254 0.0
H1845 H 0.76659 0.89393 0.15377 0.0
C1846 C 0.76358 0.88805 0.27686 0.0
C1847 C 0.74892 0.89315 0.20942 0.0
C1848 C 0.73267 0.89724 0.18391 0.0
C1849 C 0.78044 0.88753 0.25577 0.0
C1850 C 0.78148 0.8894 0.21067 0.0
C1851 C 0.76573 0.89227 0.18819 0.0
C1852 C 0.79878 0.88806 0.1859 0.0
C1853 C 0.79706 0.88452 0.28124 0.0
C1854 C 0.81079 0.90287 0.19298 0.0
C1855 C 0.82681 0.9017 0.16847 0.0
C1856 C 0.83122 0.88563 0.13674 0.0
C1857 C 0.81915 0.87083 0.12978 0.0
C1858 C 0.80306 0.87208 0.15396 0.0
H1859 H 0.79394 0.88209 0.31509 0.0
H1860 H 0.80464 0.87262 0.26189 0.0
H1861 H 0.8059 0.89672 0.28525 0.0
H1862 H 0.80768 0.91539 0.21718 0.0
H1863 H 0.83576 0.91339 0.17434 0.0
H1864 H 0.37794 0.43057 0.51335 0.0
H1865 H 0.37728 0.45886 0.48641 0.0
H1866 H 0.37518 0.49017 0.62302 0.0
H1867 H 0.37599 0.46171 0.6507 0.0
H1868 H 0.35168 0.48673 0.49902 0.0
H1869 H 0.41764 0.51313 0.56906 0.0
H1870 H 0.41074 0.48969 0.56494 0.0
H1871 H 0.40214 0.50755 0.60915 0.0
C1872 C 0.37737 0.44342 0.53798 0.0
C1873 C 0.37714 0.44376 0.58444 0.0
C1874 C 0.37694 0.45964 0.52232 0.0
C1875 C 0.37641 0.4767 0.55255 0.0
C1876 C 0.3759 0.47718 0.59898 0.0
H1877 H 0.37842 0.58866 0.51872 0.0
H1878 H 0.37729 0.56046 0.54576 0.0
C1879 C 0.37626 0.46088 0.61479 0.0
C1880 C 0.37639 0.49383 0.53498 0.0
H1881 H 0.40068 0.53244 0.5333 0.0
C1882 C 0.36239 0.49674 0.5065 0.0
C1883 C 0.39041 0.50685 0.54449 0.0
C1884 C 0.40619 0.50416 0.57325 0.0
C1885 C 0.36186 0.51243 0.48805 0.0
C1886 C 0.37591 0.52544 0.49746 0.0
C1887 C 0.38991 0.52249 0.52592 0.0
C1888 C 0.37609 0.54255 0.4797 0.0
C1889 C 0.34598 0.51514 0.45961 0.0
C1890 C 0.37584 0.54205 0.43322 0.0
C1891 C 0.3764 0.55834 0.41735 0.0
C1892 C 0.3774 0.57547 0.44766 0.0
C1893 C 0.37768 0.57582 0.49411 0.0
C1894 C 0.37706 0.55963 0.50982 0.0
H1895 H 0.33435 0.50666 0.46533 0.0
H1896 H 0.34181 0.52972 0.46676 0.0
H1897 H 0.34971 0.51102 0.42357 0.0
H1898 H 0.37549 0.52905 0.40915 0.0
H1899 H 0.37628 0.5575 0.38143 0.0
H1900 H 0.83161 0.10668 0.8603 0.0
H1901 H 0.80363 0.10563 0.81789 0.0
H1902 H 0.8009 0.16465 0.85254 0.0
H1903 H 0.82837 0.16562 0.89679 0.0
H1904 H 0.76987 0.15224 0.86252 0.0
H1905 H 0.79341 0.11398 0.69683 0.0
H1906 H 0.79715 0.10114 0.73914 0.0
H1907 H 0.80861 0.12262 0.74254 0.0
C1908 C 0.82504 0.11942 0.85868 0.0
C1909 C 0.83217 0.13624 0.88194 0.0
C1910 C 0.80912 0.11883 0.83395 0.0
C1911 C 0.80018 0.13507 0.83093 0.0
C1912 C 0.80744 0.15188 0.85402 0.0
H1913 H 0.70957 0.13697 0.6456 0.0
H1914 H 0.73952 0.13864 0.6798 0.0
C1915 C 0.82318 0.15245 0.87938 0.0
C1916 C 0.78278 0.13458 0.8061 0.0
H1917 H 0.76151 0.11596 0.707 0.0
C1918 C 0.76816 0.14442 0.82835 0.0
C1919 C 0.78042 0.12472 0.76106 0.0
C1920 C 0.7958 0.1152 0.73336 0.0
C1921 C 0.75134 0.14434 0.80757 0.0
C1922 C 0.74863 0.13345 0.76371 0.0
C1923 C 0.76336 0.12403 0.74087 0.0
C1924 C 0.73061 0.13157 0.74151 0.0
C1925 C 0.73677 0.15634 0.83278 0.0
C1926 C 0.71562 0.12647 0.76385 0.0
C1927 C 0.69854 0.12587 0.74478 0.0
C1928 C 0.69597 0.1298 0.70213 0.0
C1929 C 0.71107 0.13391 0.67852 0.0
C1930 C 0.7282 0.13487 0.69811 0.0
H1931 H 0.74249 0.16819 0.85726 0.0
H1932 H 0.72779 0.16164 0.80956 0.0
H1933 H 0.72868 0.14826 0.85208 0.0
H1934 H 0.71708 0.12311 0.79645 0.0
H1935 H 0.68728 0.12232 0.76362 0.0
H1936 H 0.90352 0.57121 0.16939 0.0
H1937 H 0.90321 0.54041 0.12113 0.0
H1938 H 0.86323 0.55764 0.03683 0.0
H1939 H 0.86223 0.58773 0.08776 0.0
H1940 H 0.85503 0.52643 0.04091 0.0
H1941 H 0.92766 0.52211 1.00775 0.0
H1942 H 0.92356 0.52493 0.06671 0.0
H1943 H 0.91734 0.54283 0.03841 0.0
C1944 C 0.89465 0.56835 0.14059 0.0
C1945 C 0.88311 0.58198 0.13194 0.0
C1946 C 0.89464 0.55078 0.11252 0.0
C1947 C 0.88367 0.54665 0.074 0.0
C1948 C 0.87198 0.56031 0.06588 0.0
H1949 H 0.90346 0.44807 0.86317 0.0
H1950 H 0.90276 0.47927 0.90953 0.0
C1951 C 0.8715 0.57763 0.09487 0.0
C1952 C 0.88385 0.52805 0.04297 0.0
H1953 H 0.91136 0.49398 0.98751 0.0
C1954 C 0.8674 0.51949 0.0289 0.0
C1955 C 0.89988 0.5189 0.0261 0.0
C1956 C 0.91806 0.52778 0.03513 0.0
C1957 C 0.86651 0.50225 0.99912 0.0
C1958 C 0.88255 0.49251 0.98497 0.0
C1959 C 0.899 0.50114 0.99864 0.0
C1960 C 0.88262 0.47353 0.95588 0.0
C1961 C 0.84831 0.49511 0.98206 0.0
C1962 C 0.87165 0.45968 0.96604 0.0
C1963 C 0.87152 0.44207 0.9384 0.0
C1964 C 0.88308 0.43753 0.90128 0.0
C1965 C 0.89444 0.45114 0.89165 0.0
C1966 C 0.89408 0.46899 0.91836 0.0
H1967 H 0.83885 0.50653 0.98186 0.0
H1968 H 0.84904 0.48651 0.94745 0.0
H1969 H 0.84266 0.48683 1.00481 0.0
H1970 H 0.86317 0.46239 0.99554 0.0
H1971 H 0.86249 0.43194 0.94646 0.0
H1972 H 0.19069 0.16543 0.8999 0.0
H1973 H 0.21807 0.16479 0.85539 0.0
H1974 H 0.21544 0.10578 0.81921 0.0
H1975 H 0.18756 0.1065 0.86183 0.0
H1976 H 0.24917 0.15252 0.86429 0.0
H1977 H 0.22523 0.11467 0.69854 0.0
H1978 H 0.21014 0.123 0.74463 0.0
H1979 H 0.22171 0.10156 0.74041 0.0
C1980 C 0.19589 0.15233 0.88212 0.0
C1981 C 0.18696 0.13602 0.88428 0.0
C1982 C 0.21157 0.15196 0.8566 0.0
C1983 C 0.21882 0.13525 0.83296 0.0
C1984 C 0.20995 0.11891 0.83566 0.0
H1985 H 0.33153 0.12297 0.76421 0.0
H1986 H 0.30178 0.12367 0.79731 0.0
C1987 C 0.19409 0.11931 0.86054 0.0
C1988 C 0.23614 0.13494 0.80785 0.0
H1989 H 0.25718 0.11662 0.7083 0.0
C1990 C 0.25079 0.14478 0.83001 0.0
C1991 C 0.23839 0.12521 0.76267 0.0
C1992 C 0.22296 0.1157 0.73505 0.0
C1993 C 0.26757 0.14481 0.80902 0.0
C1994 C 0.27018 0.13402 0.76503 0.0
C1995 C 0.25541 0.12462 0.74227 0.0
C1996 C 0.28817 0.1322 0.74263 0.0
C1997 C 0.28218 0.1568 0.83418 0.0
C1998 C 0.29051 0.13557 0.69927 0.0
C1999 C 0.30761 0.13465 0.67951 0.0
C2000 C 0.32274 0.13053 0.70292 0.0
C2001 C 0.32024 0.12653 0.74552 0.0
C2002 C 0.30319 0.12708 0.76476 0.0
H2003 H 0.2765 0.16862 0.85881 0.0
H2004 H 0.2903 0.14871 0.85331 0.0
H2005 H 0.29112 0.16217 0.81095 0.0
H2006 H 0.27917 0.13935 0.68112 0.0
H2007 H 0.30906 0.13777 0.64663 0.0
H2008 H 0.64316 0.58843 0.52153 0.0
H2009 H 0.6439 0.5604 0.54932 0.0
H2010 H 0.64245 0.52843 0.41324 0.0
H2011 H 0.64204 0.5567 0.38471 0.0
H2012 H 0.61942 0.53348 0.54068 0.0
H2013 H 0.68354 0.5045 0.46522 0.0
H2014 H 0.67694 0.52781 0.4667 0.0
H2015 H 0.66766 0.50929 0.42512 0.0
C2016 C 0.6431 0.57549 0.49717 0.0
C2017 C 0.64256 0.57494 0.45063 0.0
C2018 C 0.64351 0.5594 0.51332 0.0
C2019 C 0.64342 0.54221 0.48357 0.0
C2020 C 0.64291 0.5415 0.43699 0.0
H2021 H 0.63868 0.43082 0.52007 0.0
H2022 H 0.63969 0.45897 0.49276 0.0
C2023 C 0.64258 0.5577 0.42067 0.0
C2024 C 0.64328 0.52523 0.50191 0.0
H2025 H 0.66609 0.48559 0.50179 0.0
C2026 C 0.62968 0.52306 0.53228 0.0
C2027 C 0.65668 0.51159 0.4912 0.0
C2028 C 0.67213 0.51343 0.46062 0.0
C2029 C 0.62892 0.50758 0.55148 0.0
C2030 C 0.64227 0.49393 0.54065 0.0
C2031 C 0.65588 0.49607 0.5103 0.0
C2032 C 0.64189 0.47688 0.5586 0.0
C2033 C 0.61353 0.50575 0.58229 0.0
C2034 C 0.64297 0.47742 0.60501 0.0
C2035 C 0.64238 0.46117 0.62108 0.0
C2036 C 0.64074 0.44405 0.591 0.0
C2037 C 0.63988 0.44366 0.54455 0.0
C2038 C 0.6405 0.45981 0.52865 0.0
H2039 H 0.60235 0.51515 0.57908 0.0
H2040 H 0.60835 0.49149 0.57509 0.0
H2041 H 0.61827 0.50918 0.61765 0.0
H2042 H 0.64436 0.4904 0.62883 0.0
H2043 H 0.64317 0.46204 0.65696 0.0
H2044 H 0.30893 0.88696 0.37646 0.0
H2045 H 0.27905 0.88548 0.34207 0.0
H2046 H 0.30284 0.89218 0.21766 0.0
H2047 H 0.33256 0.89252 0.25094 0.0
H2048 H 0.2587 0.90667 0.30822 0.0
H2049 H 0.27429 0.84814 0.16906 0.0
H2050 H 0.28954 0.8558 0.21511 0.0
H2051 H 0.28924 0.86674 0.16789 0.0
C2052 C 0.30773 0.8881 0.34176 0.0
C2053 C 0.32313 0.88958 0.31624 0.0
C2054 C 0.29064 0.88724 0.32205 0.0
C2055 C 0.28858 0.88812 0.27661 0.0
C2056 C 0.30396 0.89065 0.25205 0.0
H2057 H 0.18828 0.91311 0.15419 0.0
H2058 H 0.21647 0.91434 0.19574 0.0
C2059 C 0.321 0.89104 0.27132 0.0
C2060 C 0.27047 0.88645 0.25477 0.0
H2061 H 0.24802 0.86521 0.15978 0.0
C2062 C 0.25634 0.89746 0.27595 0.0
C2063 C 0.26705 0.87412 0.21311 0.0
C2064 C 0.28079 0.8604 0.1903 0.0
C2065 C 0.2392 0.89686 0.25623 0.0
C2066 C 0.23619 0.8855 0.21302 0.0
C2067 C 0.25021 0.87417 0.19247 0.0
C2068 C 0.21872 0.88495 0.18845 0.0
C2069 C 0.22444 0.90809 0.28269 0.0
C2070 C 0.21072 0.86805 0.16863 0.0
C2071 C 0.19492 0.86734 0.14346 0.0
C2072 C 0.18656 0.88351 0.13803 0.0
C2073 C 0.19436 0.90042 0.15813 0.0
C2074 C 0.21041 0.90112 0.18241 0.0
H2075 H 0.22696 0.91047 0.31945 0.0
H2076 H 0.22391 0.92168 0.27378 0.0
H2077 H 0.2112 0.90132 0.27546 0.0
H2078 H 0.21674 0.85533 0.1725 0.0
H2079 H 0.18917 0.85411 0.12854 0.0
H2080 H 0.66054 0.93496 0.42528 0.0
H2081 H 0.65983 0.96563 0.4744 0.0
H2082 H 0.60887 0.97585 0.41821 0.0
H2083 H 0.60956 0.94517 0.3688 0.0
H2084 H 0.63331 1.00519 0.42586 0.0
H2085 H 0.62791 0.98179 0.58604 0.0
H2086 H 0.64638 0.97212 0.55106 0.0
H2087 H 0.62384 0.96678 0.53194 0.0
C2088 C 0.6492 0.94376 0.42333 0.0
C2089 C 0.63508 0.93764 0.39323 0.0
C2090 C 0.64875 0.96125 0.45164 0.0
C2091 C 0.63417 0.97298 0.45052 0.0
C2092 C 0.62022 0.96702 0.41985 0.0
H2093 H 0.60845 0.07273 0.65021 0.0
H2094 H 0.60813 0.04222 0.59986 0.0
C2095 C 0.62062 0.94949 0.39164 0.0
C2096 C 0.63354 0.99151 0.48103 0.0
H2097 H 0.63295 0.01358 0.59191 0.0
C2098 C 0.63319 1.00702 0.46216 0.0
C2099 C 0.63315 0.99392 0.52843 0.0
C2100 C 0.63267 0.97779 0.55071 0.0
C2101 C 0.63283 0.02485 0.48933 0.0
C2102 C 0.633 0.02728 0.53675 0.0
C2103 C 0.63297 0.01175 0.55561 0.0
C2104 C 0.63322 0.0458 0.56732 0.0
C2105 C 0.63204 0.04096 0.46701 0.0
C2106 C 0.64755 0.05789 0.56631 0.0
C2107 C 0.64777 0.07527 0.5951 0.0
C2108 C 0.63369 0.08094 0.6256 0.0
C2109 C 0.61946 0.06877 0.627 0.0
C2110 C 0.61927 0.05134 0.59826 0.0
H2111 H 0.6273 0.03683 0.43167 0.0
H2112 H 0.62305 0.0518 0.48571 0.0
H2113 H 0.64565 0.0469 0.46662 0.0
H2114 H 0.65864 0.05384 0.54343 0.0
H2115 H 0.65899 0.08429 0.59344 0.0
H2116 H 0.18647 0.39289 0.75464 0.0
H2117 H 0.21626 0.39249 0.72172 0.0
H2118 H 0.23964 0.38444 0.84537 0.0
H2119 H 0.20969 0.386 0.87948 0.0
H2120 H 0.26048 0.40567 0.81262 0.0
H2121 H 0.24406 0.34817 0.67154 0.0
H2122 H 0.2294 0.36702 0.67113 0.0
H2123 H 0.22887 0.35574 0.71775 0.0
C2124 C 0.19796 0.3911 0.77493 0.0
C2125 C 0.1957 0.38929 0.81954 0.0
C2126 C 0.21504 0.39069 0.75587 0.0
C2127 C 0.23031 0.38774 0.78028 0.0
C2128 C 0.22813 0.38652 0.82547 0.0
H2129 H 0.32915 0.35372 0.63001 0.0
H2130 H 0.3017 0.3548 0.67439 0.0
C2131 C 0.211 0.38742 0.84501 0.0
C2132 C 0.24841 0.38596 0.75849 0.0
H2133 H 0.27053 0.36512 0.66271 0.0
C2134 C 0.26271 0.39665 0.78003 0.0
C2135 C 0.25165 0.37385 0.71643 0.0
C2136 C 0.23772 0.36041 0.6932 0.0
C2137 C 0.27983 0.396 0.76021 0.0
C2138 C 0.28264 0.38494 0.71659 0.0
C2139 C 0.26847 0.37388 0.69572 0.0
C2140 C 0.30006 0.38444 0.69184 0.0
C2141 C 0.29477 0.40687 0.78696 0.0
C2142 C 0.30851 0.40066 0.6865 0.0
C2143 C 0.32447 0.40003 0.66195 0.0
C2144 C 0.33206 0.38315 0.64092 0.0
C2145 C 0.32355 0.36693 0.64565 0.0
C2146 C 0.30783 0.36756 0.67107 0.0
H2147 H 0.29232 0.40893 0.8237 0.0
H2148 H 0.30791 0.39998 0.77919 0.0
H2149 H 0.29547 0.4206 0.77888 0.0
H2150 H 0.30261 0.41387 0.70059 0.0
H2151 H 0.33067 0.41275 0.65857 0.0
H2152 H 0.87519 0.96278 0.14641 0.0
H2153 H 0.87386 0.99114 0.11811 0.0
H2154 H 0.87801 0.95958 0.98208 0.0
H2155 H 0.8792 0.93149 1.00948 0.0
H2156 H 0.89947 1.00478 0.06417 0.0
H2157 H 0.83438 0.99186 0.97545 0.0
H2158 H 0.84147 0.97941 0.01688 0.0
H2159 H 0.84999 0.97332 0.96039 0.0
C2160 C 0.8757 0.96188 0.11049 0.0
C2161 C 0.87724 0.94475 0.08041 0.0
C2162 C 0.87496 0.97811 0.09433 0.0
C2163 C 0.87552 0.97749 0.04785 0.0
C2164 C 0.87715 0.96044 0.01797 0.0
H2165 H 0.87713 0.05725 0.87545 0.0
H2166 H 0.87673 0.02914 0.90486 0.0
C2167 C 0.87795 0.94433 0.03393 0.0
C2168 C 0.87508 0.99457 0.03015 0.0
H2169 H 0.85214 0.01607 0.95928 0.0
C2170 C 0.88903 1.00733 0.04158 0.0
C2171 C 0.86158 0.99783 1.00018 0.0
C2172 C 0.84591 0.98497 0.98775 0.0
C2173 C 0.89005 0.02301 0.02325 0.0
C2174 C 0.87653 0.02631 0.99333 0.0
C2175 C 0.86256 0.01355 0.98196 0.0
C2176 C 0.87634 0.04324 0.97493 0.0
C2177 C 0.90591 0.03567 0.03525 0.0
C2178 C 0.8758 0.0605 1.00431 0.0
C2179 C 0.87608 0.07648 0.9877 0.0
C2180 C 0.87672 0.07572 0.94107 0.0
C2181 C 0.8767 0.05839 0.91147 0.0
C2182 C 0.87648 0.04231 0.92828 0.0
H2183 H 0.91746 0.02857 0.04683 0.0
H2184 H 0.91024 0.0413 1.00614 0.0
H2185 H 0.90211 0.04727 0.06307 0.0
H2186 H 0.87516 0.06165 0.04032 0.0
H2187 H 0.87584 0.08949 1.01176 0.0
H2188 H 0.20989 0.63399 0.15354 0.0
H2189 H 0.23965 0.63465 0.18796 0.0
H2190 H 0.21545 0.62682 0.31101 0.0
H2191 H 0.18584 0.62738 0.27771 0.0
H2192 H 0.23887 0.651 0.33266 0.0
H2193 H 0.27165 0.59577 0.2086 0.0
H2194 H 0.26394 0.61374 0.18307 0.0
H2195 H 0.24802 0.60031 0.2066 0.0
C2196 C 0.211 0.63225 0.18779 0.0
C2197 C 0.19551 0.63063 0.21286 0.0
C2198 C 0.22806 0.63247 0.20744 0.0
C2199 C 0.23004 0.63045 0.25211 0.0
C2200 C 0.21449 0.62846 0.27664 0.0
H2201 H 0.33083 0.60637 0.37393 0.0
H2202 H 0.3022 0.60513 0.33398 0.0
C2203 C 0.19749 0.62873 0.25748 0.0
C2204 C 0.24805 0.63132 0.27447 0.0
H2205 H 0.29073 0.61427 0.26294 0.0
C2206 C 0.25013 0.64283 0.31736 0.0
C2207 C 0.26288 0.62055 0.25521 0.0
C2208 C 0.26148 0.60676 0.21108 0.0
C2209 C 0.26632 0.64383 0.34141 0.0
C2210 C 0.2814 0.63375 0.32128 0.0
C2211 C 0.27936 0.62222 0.27839 0.0
C2212 C 0.29918 0.63457 0.34463 0.0
C2213 C 0.26674 0.6552 0.38891 0.0
C2214 C 0.3074 0.65145 0.36337 0.0
C2215 C 0.32352 0.65216 0.38729 0.0
C2216 C 0.33214 0.63599 0.39176 0.0
C2217 C 0.32442 0.61907 0.37131 0.0
C2218 C 0.30806 0.61837 0.34829 0.0
H2219 H 0.25314 0.65676 0.40405 0.0
H2220 H 0.27557 0.649 0.41082 0.0
H2221 H 0.27179 0.66911 0.38854 0.0
H2222 H 0.30135 0.66417 0.35964 0.0
H2223 H 0.32934 0.66539 0.40193 0.0
H2224 H 0.40989 0.94604 0.37149 0.0
H2225 H 0.4104 0.9767 0.42094 0.0
H2226 H 0.35935 0.96611 0.47636 0.0
H2227 H 0.35882 0.93544 0.42716 0.0
H2228 H 0.38589 1.00579 0.4279 0.0
H2229 H 0.39089 0.9827 0.58854 0.0
H2230 H 0.39513 0.96764 0.53462 0.0
H2231 H 0.37254 0.97287 0.55327 0.0
C2232 C 0.39877 0.95027 0.39419 0.0
C2233 C 0.38434 0.93832 0.39552 0.0
C2234 C 0.39907 0.96779 0.42243 0.0
C2235 C 0.38504 0.97365 0.45286 0.0
C2236 C 0.37049 0.9618 0.45378 0.0
H2237 H 0.35977 0.08498 0.59433 0.0
H2238 H 0.36022 0.05445 0.54468 0.0
C2239 C 0.37015 0.94431 0.42544 0.0
C2240 C 0.38553 0.9922 0.48325 0.0
H2241 H 0.38581 0.01444 0.59402 0.0
C2242 C 0.38591 1.00768 0.46422 0.0
C2243 C 0.38579 0.99469 0.53067 0.0
C2244 C 0.38623 0.97862 0.55313 0.0
C2245 C 0.38618 0.02554 0.49124 0.0
C2246 C 0.38589 0.02803 0.53867 0.0
C2247 C 0.38588 0.01255 0.5577 0.0
C2248 C 0.38559 0.04659 0.56907 0.0
C2249 C 0.38702 0.04159 0.46876 0.0
C2250 C 0.39947 0.05224 0.60017 0.0
C2251 C 0.39922 0.06971 0.62871 0.0
C2252 C 0.385 0.08181 0.62694 0.0
C2253 C 0.37098 0.07602 0.59628 0.0
C2254 C 0.37127 0.0586 0.56769 0.0
H2255 H 0.39185 0.03744 0.43351 0.0
H2256 H 0.37342 0.04746 0.46809 0.0
H2257 H 0.39596 0.0525 0.48751 0.0
H2258 H 0.41061 0.04319 0.60205 0.0
H2259 H 0.41018 0.07377 0.65204 0.0
H2260 H 0.80852 0.63408 0.15024 0.0
H2261 H 0.77872 0.63538 0.1852 0.0
H2262 H 0.80285 0.62739 0.30805 0.0
H2263 H 0.83245 0.62722 0.27431 0.0
H2264 H 0.75817 0.61402 0.21864 0.0
H2265 H 0.77494 0.6715 0.35939 0.0
H2266 H 0.78991 0.66406 0.31265 0.0
H2267 H 0.78979 0.65274 0.35921 0.0
C2268 C 0.8074 0.63261 0.18471 0.0
C2269 C 0.82286 0.63084 0.20971 0.0
C2270 C 0.79036 0.63337 0.20475 0.0
C2271 C 0.78842 0.6321 0.24999 0.0
C2272 C 0.80386 0.62923 0.2739 0.0
H2273 H 0.68905 0.60617 0.37508 0.0
H2274 H 0.71685 0.60532 0.33211 0.0
C2275 C 0.82084 0.62895 0.25435 0.0
C2276 C 0.77042 0.63375 0.27241 0.0
H2277 H 0.74872 0.65432 0.36914 0.0
C2278 C 0.75608 0.62298 0.25136 0.0
C2279 C 0.76733 0.64579 0.31467 0.0
C2280 C 0.78126 0.65931 0.33747 0.0
C2281 C 0.73908 0.62346 0.27185 0.0
C2282 C 0.73644 0.63446 0.31565 0.0
C2283 C 0.75064 0.64561 0.33602 0.0
C2284 C 0.71918 0.63479 0.3411 0.0
C2285 C 0.72408 0.61251 0.24561 0.0
C2286 C 0.71136 0.65158 0.36236 0.0
C2287 C 0.69579 0.65205 0.3883 0.0
C2288 C 0.68746 0.63575 0.39314 0.0
C2289 C 0.69511 0.61896 0.37167 0.0
C2290 C 0.71092 0.61848 0.34656 0.0
H2291 H 0.72629 0.6105 0.2088 0.0
H2292 H 0.72359 0.59875 0.2536 0.0
H2293 H 0.71092 0.61928 0.25393 0.0
H2294 H 0.71734 0.6644 0.35898 0.0
H2295 H 0.69016 0.66521 0.40424 0.0
H2296 H 0.14294 0.08819 1.01093 0.0
H2297 H 0.14401 0.06002 0.03808 0.0
H2298 H 0.14297 0.02845 0.90157 0.0
H2299 H 0.14222 0.05686 0.87369 0.0
H2300 H 0.11968 0.03278 0.0281 0.0
H2301 H 0.1844 1.00493 0.9538 0.0
H2302 H 0.17754 0.02821 0.95581 0.0
H2303 H 0.16856 0.00974 0.91361 0.0
C2304 C 0.14304 0.07532 0.98636 0.0
C2305 C 0.1425 0.0749 0.93989 0.0
C2306 C 0.14364 0.05915 1.00213 0.0
C2307 C 0.14376 0.04204 0.97204 0.0
C2308 C 0.14327 0.04147 0.92555 0.0
H2309 H 0.14013 0.93045 1.00778 0.0
H2310 H 0.14101 0.95856 0.98021 0.0
C2311 C 0.14274 0.05774 0.90961 0.0
C2312 C 0.14379 0.02499 0.98996 0.0
H2313 H 0.16715 0.98569 0.98982 0.0
C2314 C 0.13011 0.02252 0.01983 0.0
C2315 C 0.1574 0.01158 0.97935 0.0
C2316 C 0.17291 0.01376 0.94923 0.0
C2317 C 0.12951 1.00698 0.03873 0.0
C2318 C 0.14311 0.99357 0.0281 0.0
C2319 C 0.15676 0.996 0.99817 0.0
C2320 C 0.14296 0.97655 0.04602 0.0
C2321 C 0.11407 1.00482 0.06906 0.0
C2322 C 0.14399 0.97717 0.09245 0.0
C2323 C 0.14348 0.96096 0.10864 0.0
C2324 C 0.14196 0.94381 0.07865 0.0
C2325 C 0.14122 0.94333 0.03215 0.0
C2326 C 0.14177 0.95945 0.01612 0.0
H2327 H 0.10274 0.01401 0.06561 0.0
H2328 H 0.10913 0.99046 0.06162 0.0
H2329 H 0.11863 1.00829 0.10457 0.0
H2330 H 0.14524 0.99019 0.1162 0.0
H2331 H 0.14417 0.9619 0.14456 0.0
H2332 H 0.68336 0.41325 0.68165 0.0
H2333 H 0.71098 0.41507 0.72593 0.0
H2334 H 0.72215 0.35845 0.66623 0.0
H2335 H 0.69439 0.35649 0.62245 0.0
H2336 H 0.72799 0.36741 0.75959 0.0
H2337 H 0.76161 0.41723 0.67589 0.0
H2338 H 0.74012 0.42434 0.69985 0.0
H2339 H 0.74167 0.40491 0.65343 0.0
C2340 C 0.6917 0.40119 0.67799 0.0
C2341 C 0.68672 0.38473 0.64841 0.0
C2342 C 0.70754 0.40227 0.70318 0.0
C2343 C 0.71882 0.38697 0.69907 0.0
C2344 C 0.71372 0.37046 0.66996 0.0
H2345 H 0.83023 0.37928 0.75909 0.0
H2346 H 0.80038 0.37989 0.72782 0.0
C2347 C 0.69789 0.36937 0.64479 0.0
C2348 C 0.73602 0.38815 0.72457 0.0
H2349 H 0.777 0.40912 0.73626 0.0
C2350 C 0.73868 0.37659 0.75468 0.0
C2351 C 0.75005 0.40003 0.71795 0.0
C2352 C 0.74837 0.41224 0.68478 0.0
C2353 C 0.75497 0.37652 0.77801 0.0
C2354 C 0.76897 0.38844 0.77146 0.0
C2355 C 0.76624 0.4001 0.74165 0.0
C2356 C 0.78707 0.38801 0.79208 0.0
C2357 C 0.7573 0.36322 0.80827 0.0
C2358 C 0.7897 0.39245 0.83896 0.0
C2359 C 0.80697 0.39213 0.8573 0.0
C2360 C 0.82194 0.38738 0.82907 0.0
C2361 C 0.81914 0.383 0.78217 0.0
C2362 C 0.802 0.38336 0.76403 0.0
H2363 H 0.74667 0.35256 0.80286 0.0
H2364 H 0.77054 0.35637 0.80264 0.0
H2365 H 0.75668 0.37079 0.84388 0.0
H2366 H 0.77844 0.39637 0.86136 0.0
H2367 H 0.80857 0.39566 0.89349 0.0
loop_
_geom_bond_atom_site_label_1
_geom_bond_atom_site_label_2
_geom_bond_distance
_geom_bond_site_symmetry_2
_ccdc_geom_bond_type
Sm0 C2 2.846 1_554 S
Sm0 O20 2.542 1_554 S
Sm0 O21 2.450 . S
Sm0 O22 2.681 . S
Sm0 O23 2.464 . S
Sm0 O24 2.396 . S
Sm0 O28 2.386 . S
Sm0 O31 2.408 . S
Sm1 C11 2.846 . S
Sm1 O22 2.386 . S
Sm1 O25 2.408 . S
Sm1 O26 2.543 . S
Sm1 O27 2.450 . S
Sm1 O28 2.681 . S
Sm1 O29 2.464 . S
Sm1 O30 2.396 . S
C2 Sm0 2.846 1_556 S
C2 C3 1.506 . S
C2 O20 1.262 . S
C2 O21 1.242 1_556 S
C3 C2 1.506 . S
C3 C4 1.358 . S
C3 C8 1.382 . S
C4 C3 1.358 . S
C4 C5 1.385 . S
C4 H32 0.930 . S
C5 C4 1.385 . S
C5 C6 1.395 . S
C5 H33 0.929 . S
C6 C5 1.395 . S
C6 C7 1.335 . S
C7 C6 1.335 . S
C7 C8 1.398 . S
C7 H34 0.930 . S
C8 C3 1.382 . S
C8 C7 1.398 . S
C8 H35 0.929 . S
C9 O22 1.271 . S
C9 O23 1.251 . S
C10 O24 1.252 . S
C10 O25 1.272 . S
C11 Sm1 2.846 . S
C11 C12 1.506 . S
C11 O26 1.261 . S
C11 O27 1.242 . S
C12 C11 1.506 . S
C12 C13 1.358 . S
C12 C17 1.382 . S
C13 C12 1.358 . S
C13 C14 1.385 . S
C13 H36 0.930 . S
C14 C13 1.385 . S
C14 C15 1.395 . S
C14 H37 0.929 . S
C15 C14 1.395 . S
C15 C16 1.335 . S
C16 C15 1.335 . S
C16 C17 1.398 . S
C16 H38 0.930 . S
C17 C12 1.382 . S
C17 C16 1.398 . S
C17 H39 0.929 . S
C18 O28 1.271 . S
C18 O29 1.251 . S
C19 O30 1.252 . S
C19 O31 1.272 . S
O20 Sm0 2.542 1_556 S
O20 C2 1.262 . S
O21 Sm0 2.450 . S
O21 C2 1.242 1_554 S
O22 Sm0 2.681 . S
O22 Sm1 2.386 . S
O22 C9 1.271 . S
O23 Sm0 2.464 . S
O23 C9 1.251 . S
O24 Sm0 2.396 . S
O24 C10 1.252 . S
O25 Sm1 2.408 . S
O25 C10 1.272 . S
O26 Sm1 2.543 . S
O26 C11 1.261 . S
O27 Sm1 2.450 . S
O27 C11 1.242 . S
O28 Sm0 2.386 . S
O28 Sm1 2.681 . S
O28 C18 1.271 . S
O29 Sm1 2.464 . S
O29 C18 1.251 . S
O30 Sm1 2.396 . S
O30 C19 1.252 . S
O31 Sm0 2.408 . S
O31 C19 1.272 . S
H32 C4 0.930 . S
H33 C5 0.929 . S
H34 C7 0.930 . S
H35 C8 0.929 . S
H36 C13 0.930 . S
H37 C14 0.929 . S
H38 C16 0.930 . S
H39 C17 0.929 . S
Sm40 C42 2.846 . S
Sm40 O60 2.543 . S
Sm40 O61 2.450 . S
Sm40 O62 2.681 . S
Sm40 O63 2.464 . S
Sm40 O64 2.396 . S
Sm40 O68 2.386 . S
Sm40 O71 2.408 . S
Sm41 C51 2.846 . S
Sm41 O62 2.386 . S
Sm41 O65 2.408 . S
Sm41 O66 2.543 . S
Sm41 O67 2.450 . S
Sm41 O68 2.681 . S
Sm41 O69 2.464 . S
Sm41 O70 2.396 . S
C42 Sm40 2.846 . S
C42 C43 1.506 . S
C42 O60 1.261 . S
C42 O61 1.242 . S
C43 C42 1.506 . S
C43 C44 1.358 . S
C43 C48 1.382 . S
C44 C43 1.358 . S
C44 C45 1.385 . S
C44 H72 0.930 . S
C45 C44 1.385 . S
C45 C46 1.395 . S
C45 H73 0.929 . S
C46 C45 1.395 . S
C46 C47 1.335 . S
C47 C46 1.335 . S
C47 C48 1.398 . S
C47 H74 0.930 . S
C48 C43 1.382 . S
C48 C47 1.398 . S
C48 H75 0.929 . S
C49 O62 1.271 . S
C49 O63 1.251 . S
C50 O64 1.252 . S
C50 O65 1.272 . S
C51 Sm41 2.846 . S
C51 C52 1.506 . S
C51 O66 1.261 . S
C51 O67 1.242 . S
C52 C51 1.506 . S
C52 C53 1.358 . S
C52 C57 1.382 . S
C53 C52 1.358 . S
C53 C54 1.385 . S
C53 H76 0.930 . S
C54 C53 1.385 . S
C54 C55 1.395 . S
C54 H77 0.929 . S
C55 C54 1.395 . S
C55 C56 1.335 . S
C56 C55 1.335 . S
C56 C57 1.398 . S
C56 H78 0.930 . S
C57 C52 1.382 . S
C57 C56 1.398 . S
C57 H79 0.929 . S
C58 O68 1.271 . S
C58 O69 1.251 . S
C59 O70 1.252 . S
C59 O71 1.272 . S
O60 Sm40 2.543 . S
O60 C42 1.261 . S
O61 Sm40 2.450 . S
O61 C42 1.242 . S
O62 Sm40 2.681 . S
O62 Sm41 2.386 . S
O62 C49 1.271 . S
O63 Sm40 2.464 . S
O63 C49 1.251 . S
O64 Sm40 2.396 . S
O64 C50 1.252 . S
O65 Sm41 2.408 . S
O65 C50 1.272 . S
O66 Sm41 2.543 . S
O66 C51 1.261 . S
O67 Sm41 2.450 . S
O67 C51 1.242 . S
O68 Sm40 2.386 . S
O68 Sm41 2.681 . S
O68 C58 1.271 . S
O69 Sm41 2.464 . S
O69 C58 1.251 . S
O70 Sm41 2.396 . S
O70 C59 1.252 . S
O71 Sm40 2.408 . S
O71 C59 1.272 . S
H72 C44 0.930 . S
H73 C45 0.929 . S
H74 C47 0.930 . S
H75 C48 0.929 . S
H76 C53 0.930 . S
H77 C54 0.929 . S
H78 C56 0.930 . S
H79 C57 0.929 . S
Sm80 C82 2.846 . S
Sm80 O100 2.543 . S
Sm80 O101 2.450 . S
Sm80 O102 2.681 . S
Sm80 O103 2.464 . S
Sm80 O104 2.396 . S
Sm80 O108 2.386 . S
Sm80 O111 2.408 . S
Sm81 C91 2.846 . S
Sm81 O102 2.386 . S
Sm81 O105 2.408 . S
Sm81 O106 2.543 . S
Sm81 O107 2.450 . S
Sm81 O108 2.681 . S
Sm81 O109 2.464 . S
Sm81 O110 2.396 . S
C82 Sm80 2.846 . S
C82 C83 1.506 . S
C82 O100 1.261 . S
C82 O101 1.242 . S
C83 C82 1.506 . S
C83 C84 1.358 . S
C83 C88 1.382 . S
C84 C83 1.358 . S
C84 C85 1.385 . S
C84 H112 0.930 . S
C85 C84 1.385 . S
C85 C86 1.395 . S
C85 H113 0.929 . S
C86 C85 1.395 . S
C86 C87 1.335 . S
C87 C86 1.335 . S
C87 C88 1.398 . S
C87 H114 0.930 . S
C88 C83 1.382 . S
C88 C87 1.398 . S
C88 H115 0.929 . S
C89 O102 1.271 . S
C89 O103 1.251 . S
C90 O104 1.252 . S
C90 O105 1.272 . S
C91 Sm81 2.846 . S
C91 C92 1.506 . S
C91 O106 1.261 . S
C91 O107 1.242 . S
C92 C91 1.506 . S
C92 C93 1.358 . S
C92 C97 1.382 . S
C93 C92 1.358 . S
C93 C94 1.385 . S
C93 H116 0.930 . S
C94 C93 1.385 . S
C94 C95 1.395 . S
C94 H117 0.929 . S
C95 C94 1.395 . S
C95 C96 1.335 . S
C96 C95 1.335 . S
C96 C97 1.398 . S
C96 H118 0.930 . S
C97 C92 1.382 . S
C97 C96 1.398 . S
C97 H119 0.929 . S
C98 O108 1.271 . S
C98 O109 1.251 . S
C99 O110 1.252 . S
C99 O111 1.272 . S
O100 Sm80 2.543 . S
O100 C82 1.261 . S
O101 Sm80 2.450 . S
O101 C82 1.242 . S
O102 Sm80 2.681 . S
O102 Sm81 2.386 . S
O102 C89 1.271 . S
O103 Sm80 2.464 . S
O103 C89 1.251 . S
O104 Sm80 2.396 . S
O104 C90 1.252 . S
O105 Sm81 2.408 . S
O105 C90 1.272 . S
O106 Sm81 2.543 . S
O106 C91 1.261 . S
O107 Sm81 2.450 . S
O107 C91 1.242 . S
O108 Sm80 2.386 . S
O108 Sm81 2.681 . S
O108 C98 1.271 . S
O109 Sm81 2.464 . S
O109 C98 1.251 . S
O110 Sm81 2.396 . S
O110 C99 1.252 . S
O111 Sm80 2.408 . S
O111 C99 1.272 . S
H112 C84 0.930 . S
H113 C85 0.929 . S
H114 C87 0.930 . S
H115 C88 0.929 . S
H116 C93 0.930 . S
H117 C94 0.929 . S
H118 C96 0.930 . S
H119 C97 0.929 . S
Sm120 C122 2.846 . S
Sm120 O140 2.543 . S
Sm120 O141 2.450 . S
Sm120 O142 2.681 . S
Sm120 O143 2.464 . S
Sm120 O144 2.396 . S
Sm120 O148 2.386 . S
Sm120 O151 2.408 . S
Sm121 C131 2.846 1_556 S
Sm121 O142 2.386 . S
Sm121 O145 2.408 . S
Sm121 O146 2.543 . S
Sm121 O147 2.450 1_556 S
Sm121 O148 2.681 . S
Sm121 O149 2.464 . S
Sm121 O150 2.396 . S
C122 Sm120 2.846 . S
C122 C123 1.506 . S
C122 O140 1.261 . S
C122 O141 1.242 . S
C123 C122 1.506 . S
C123 C124 1.358 . S
C123 C128 1.382 . S
C124 C123 1.358 . S
C124 C125 1.385 . S
C124 H152 0.930 . S
C125 C124 1.385 . S
C125 C126 1.395 . S
C125 H153 0.929 . S
C126 C125 1.395 . S
C126 C127 1.335 . S
C127 C126 1.335 . S
C127 C128 1.398 . S
C127 H154 0.930 . S
C128 C123 1.382 . S
C128 C127 1.398 . S
C128 H155 0.929 . S
C129 O142 1.271 . S
C129 O143 1.251 . S
C130 O144 1.252 . S
C130 O145 1.272 . S
C131 Sm121 2.846 1_554 S
C131 C132 1.506 . S
C131 O146 1.261 1_554 S
C131 O147 1.242 . S
C132 C131 1.506 . S
C132 C133 1.358 . S
C132 C137 1.382 . S
C133 C132 1.358 . S
C133 C134 1.385 . S
C133 H156 0.930 . S
C134 C133 1.385 . S
C134 C135 1.395 . S
C134 H157 0.929 . S
C135 C134 1.395 . S
C135 C136 1.335 . S
C136 C135 1.335 . S
C136 C137 1.398 . S
C136 H158 0.930 . S
C137 C132 1.382 . S
C137 C136 1.398 . S
C137 H159 0.929 . S
C138 O148 1.271 . S
C138 O149 1.251 . S
C139 O150 1.252 . S
C139 O151 1.272 . S
O140 Sm120 2.543 . S
O140 C122 1.261 . S
O141 Sm120 2.450 . S
O141 C122 1.242 . S
O142 Sm120 2.681 . S
O142 Sm121 2.386 . S
O142 C129 1.271 . S
O143 Sm120 2.464 . S
O143 C129 1.251 . S
O144 Sm120 2.396 . S
O144 C130 1.252 . S
O145 Sm121 2.408 . S
O145 C130 1.272 . S
O146 Sm121 2.543 . S
O146 C131 1.261 1_556 S
O147 Sm121 2.450 1_554 S
O147 C131 1.242 . S
O148 Sm120 2.386 . S
O148 Sm121 2.681 . S
O148 C138 1.271 . S
O149 Sm121 2.464 . S
O149 C138 1.251 . S
O150 Sm121 2.396 . S
O150 C139 1.252 . S
O151 Sm120 2.408 . S
O151 C139 1.272 . S
H152 C124 0.930 . S
H153 C125 0.929 . S
H154 C127 0.930 . S
H155 C128 0.929 . S
H156 C133 0.930 . S
H157 C134 0.929 . S
H158 C136 0.930 . S
H159 C137 0.929 . S
Sm160 C162 2.846 1_556 S
Sm160 O180 2.542 1_556 S
Sm160 O181 2.450 . S
Sm160 O182 2.681 . S
Sm160 O183 2.464 . S
Sm160 O184 2.396 . S
Sm160 O188 2.386 . S
Sm160 O191 2.408 . S
Sm161 C171 2.846 . S
Sm161 O182 2.386 . S
Sm161 O185 2.408 . S
Sm161 O186 2.543 . S
Sm161 O187 2.450 . S
Sm161 O188 2.681 . S
Sm161 O189 2.464 . S
Sm161 O190 2.396 . S
C162 Sm160 2.846 1_554 S
C162 C163 1.506 . S
C162 O180 1.262 . S
C162 O181 1.242 1_554 S
C163 C162 1.506 . S
C163 C164 1.358 . S
C163 C168 1.382 . S
C164 C163 1.358 . S
C164 C165 1.385 . S
C164 H192 0.930 . S
C165 C164 1.385 . S
C165 C166 1.395 . S
C165 H193 0.929 . S
C166 C165 1.395 . S
C166 C167 1.335 . S
C167 C166 1.335 . S
C167 C168 1.398 . S
C167 H194 0.930 . S
C168 C163 1.382 . S
C168 C167 1.398 . S
C168 H195 0.929 . S
C169 O182 1.271 . S
C169 O183 1.251 . S
C170 O184 1.252 . S
C170 O185 1.272 . S
C171 Sm161 2.846 . S
C171 C172 1.506 . S
C171 O186 1.261 . S
C171 O187 1.242 . S
C172 C171 1.506 . S
C172 C173 1.358 . S
C172 C177 1.382 . S
C173 C172 1.358 . S
C173 C174 1.385 . S
C173 H196 0.930 . S
C174 C173 1.385 . S
C174 C175 1.395 . S
C174 H197 0.929 . S
C175 C174 1.395 . S
C175 C176 1.335 . S
C176 C175 1.335 . S
C176 C177 1.398 . S
C176 H198 0.930 . S
C177 C172 1.382 . S
C177 C176 1.398 . S
C177 H199 0.929 . S
C178 O188 1.271 . S
C178 O189 1.251 . S
C179 O190 1.252 . S
C179 O191 1.272 . S
O180 Sm160 2.542 1_554 S
O180 C162 1.262 . S
O181 Sm160 2.450 . S
O181 C162 1.242 1_556 S
O182 Sm160 2.681 . S
O182 Sm161 2.386 . S
O182 C169 1.271 . S
O183 Sm160 2.464 . S
O183 C169 1.251 . S
O184 Sm160 2.396 . S
O184 C170 1.252 . S
O185 Sm161 2.408 . S
O185 C170 1.272 . S
O186 Sm161 2.543 . S
O186 C171 1.261 . S
O187 Sm161 2.450 . S
O187 C171 1.242 . S
O188 Sm160 2.386 . S
O188 Sm161 2.681 . S
O188 C178 1.271 . S
O189 Sm161 2.464 . S
O189 C178 1.251 . S
O190 Sm161 2.396 . S
O190 C179 1.252 . S
O191 Sm160 2.408 . S
O191 C179 1.272 . S
H192 C164 0.930 . S
H193 C165 0.929 . S
H194 C167 0.930 . S
H195 C168 0.929 . S
H196 C173 0.930 . S
H197 C174 0.929 . S
H198 C176 0.930 . S
H199 C177 0.929 . S
Sm200 C202 2.846 . S
Sm200 O220 2.543 . S
Sm200 O221 2.450 . S
Sm200 O222 2.681 . S
Sm200 O223 2.464 . S
Sm200 O224 2.396 . S
Sm200 O228 2.386 . S
Sm200 O231 2.408 . S
Sm201 C211 2.846 1_554 S
Sm201 O222 2.386 . S
Sm201 O225 2.408 . S
Sm201 O226 2.543 . S
Sm201 O227 2.450 1_554 S
Sm201 O228 2.681 . S
Sm201 O229 2.464 . S
Sm201 O230 2.396 . S
C202 Sm200 2.846 . S
C202 C203 1.506 . S
C202 O220 1.261 . S
C202 O221 1.242 . S
C203 C202 1.506 . S
C203 C204 1.358 . S
C203 C208 1.382 . S
C204 C203 1.358 . S
C204 C205 1.385 . S
C204 H232 0.930 . S
C205 C204 1.385 . S
C205 C206 1.395 . S
C205 H233 0.929 . S
C206 C205 1.395 . S
C206 C207 1.335 . S
C207 C206 1.335 . S
C207 C208 1.398 . S
C207 H234 0.930 . S
C208 C203 1.382 . S
C208 C207 1.398 . S
C208 H235 0.929 . S
C209 O222 1.271 . S
C209 O223 1.251 . S
C210 O224 1.252 . S
C210 O225 1.272 . S
C211 Sm201 2.846 1_556 S
C211 C212 1.506 . S
C211 O226 1.261 1_556 S
C211 O227 1.242 . S
C212 C211 1.506 . S
C212 C213 1.358 . S
C212 C217 1.382 . S
C213 C212 1.358 . S
C213 C214 1.385 . S
C213 H236 0.930 . S
C214 C213 1.385 . S
C214 C215 1.395 . S
C214 H237 0.929 . S
C215 C214 1.395 . S
C215 C216 1.335 . S
C216 C215 1.335 . S
C216 C217 1.398 . S
C216 H238 0.930 . S
C217 C212 1.382 . S
C217 C216 1.398 . S
C217 H239 0.929 . S
C218 O228 1.271 . S
C218 O229 1.251 . S
C219 O230 1.252 . S
C219 O231 1.272 . S
O220 Sm200 2.543 . S
O220 C202 1.261 . S
O221 Sm200 2.450 . S
O221 C202 1.242 . S
O222 Sm200 2.681 . S
O222 Sm201 2.386 . S
O222 C209 1.271 . S
O223 Sm200 2.464 . S
O223 C209 1.251 . S
O224 Sm200 2.396 . S
O224 C210 1.252 . S
O225 Sm201 2.408 . S
O225 C210 1.272 . S
O226 Sm201 2.543 . S
O226 C211 1.261 1_554 S
O227 Sm201 2.450 1_556 S
O227 C211 1.242 . S
O228 Sm200 2.386 . S
O228 Sm201 2.681 . S
O228 C218 1.271 . S
O229 Sm201 2.464 . S
O229 C218 1.251 . S
O230 Sm201 2.396 . S
O230 C219 1.252 . S
O231 Sm200 2.408 . S
O231 C219 1.272 . S
H232 C204 0.930 . S
H233 C205 0.929 . S
H234 C207 0.930 . S
H235 C208 0.929 . S
H236 C213 0.930 . S
H237 C214 0.929 . S
H238 C216 0.930 . S
H239 C217 0.929 . S
Sm240 C242 2.846 . S
Sm240 O260 2.543 . S
Sm240 O261 2.450 . S
Sm240 O262 2.681 . S
Sm240 O263 2.464 . S
Sm240 O264 2.396 . S
Sm240 O268 2.386 . S
Sm240 O271 2.408 . S
Sm241 C251 2.846 . S
Sm241 O262 2.386 . S
Sm241 O265 2.408 . S
Sm241 O266 2.543 . S
Sm241 O267 2.450 . S
Sm241 O268 2.681 . S
Sm241 O269 2.464 . S
Sm241 O270 2.396 . S
C242 Sm240 2.846 . S
C242 C243 1.506 . S
C242 O260 1.261 . S
C242 O261 1.242 . S
C243 C242 1.506 . S
C243 C244 1.358 . S
C243 C248 1.382 . S
C244 C243 1.358 . S
C244 C245 1.385 . S
C244 H272 0.930 . S
C245 C244 1.385 . S
C245 C246 1.395 . S
C245 H273 0.929 . S
C246 C245 1.395 . S
C246 C247 1.335 . S
C247 C246 1.335 . S
C247 C248 1.398 . S
C247 H274 0.930 . S
C248 C243 1.382 . S
C248 C247 1.398 . S
C248 H275 0.929 . S
C249 O262 1.271 . S
C249 O263 1.251 . S
C250 O264 1.252 . S
C250 O265 1.272 . S
C251 Sm241 2.846 . S
C251 C252 1.506 . S
C251 O266 1.261 . S
C251 O267 1.242 . S
C252 C251 1.506 . S
C252 C253 1.358 . S
C252 C257 1.382 . S
C253 C252 1.358 . S
C253 C254 1.385 . S
C253 H276 0.930 . S
C254 C253 1.385 . S
C254 C255 1.395 . S
C254 H277 0.929 . S
C255 C254 1.395 . S
C255 C256 1.335 . S
C256 C255 1.335 . S
C256 C257 1.398 . S
C256 H278 0.930 . S
C257 C252 1.382 . S
C257 C256 1.398 . S
C257 H279 0.929 . S
C258 O268 1.271 . S
C258 O269 1.251 . S
C259 O270 1.252 . S
C259 O271 1.272 . S
O260 Sm240 2.543 . S
O260 C242 1.261 . S
O261 Sm240 2.450 . S
O261 C242 1.242 . S
O262 Sm240 2.681 . S
O262 Sm241 2.386 . S
O262 C249 1.271 . S
O263 Sm240 2.464 . S
O263 C249 1.251 . S
O264 Sm240 2.396 . S
O264 C250 1.252 . S
O265 Sm241 2.408 . S
O265 C250 1.272 . S
O266 Sm241 2.543 . S
O266 C251 1.261 . S
O267 Sm241 2.450 . S
O267 C251 1.242 . S
O268 Sm240 2.386 . S
O268 Sm241 2.681 . S
O268 C258 1.271 . S
O269 Sm241 2.464 . S
O269 C258 1.251 . S
O270 Sm241 2.396 . S
O270 C259 1.252 . S
O271 Sm240 2.408 . S
O271 C259 1.272 . S
H272 C244 0.930 . S
H273 C245 0.929 . S
H274 C247 0.930 . S
H275 C248 0.929 . S
H276 C253 0.930 . S
H277 C254 0.929 . S
H278 C256 0.930 . S
H279 C257 0.929 . S
Sm280 C282 2.846 . S
Sm280 O300 2.543 . S
Sm280 O301 2.450 . S
Sm280 O302 2.681 . S
Sm280 O303 2.464 . S
Sm280 O304 2.396 . S
Sm280 O308 2.386 . S
Sm280 O311 2.408 . S
Sm281 C291 2.846 . S
Sm281 O302 2.386 . S
Sm281 O305 2.408 . S
Sm281 O306 2.543 . S
Sm281 O307 2.450 . S
Sm281 O308 2.681 . S
Sm281 O309 2.464 . S
Sm281 O310 2.396 . S
C282 Sm280 2.846 . S
C282 C283 1.506 . S
C282 O300 1.261 . S
C282 O301 1.242 . S
C283 C282 1.506 . S
C283 C284 1.358 . S
C283 C288 1.382 . S
C284 C283 1.358 . S
C284 C285 1.385 . S
C284 H312 0.930 . S
C285 C284 1.385 . S
C285 C286 1.395 . S
C285 H313 0.929 . S
C286 C285 1.395 . S
C286 C287 1.335 . S
C287 C286 1.335 . S
C287 C288 1.398 . S
C287 H314 0.930 . S
C288 C283 1.382 . S
C288 C287 1.398 . S
C288 H315 0.929 . S
C289 O302 1.271 . S
C289 O303 1.251 . S
C290 O304 1.252 . S
C290 O305 1.272 . S
C291 Sm281 2.846 . S
C291 C292 1.506 . S
C291 O306 1.261 . S
C291 O307 1.242 . S
C292 C291 1.506 . S
C292 C293 1.358 . S
C292 C297 1.382 . S
C293 C292 1.358 . S
C293 C294 1.385 . S
C293 H316 0.930 . S
C294 C293 1.385 . S
C294 C295 1.395 . S
C294 H317 0.929 . S
C295 C294 1.395 . S
C295 C296 1.335 . S
C296 C295 1.335 . S
C296 C297 1.398 . S
C296 H318 0.930 . S
C297 C292 1.382 . S
C297 C296 1.398 . S
C297 H319 0.929 . S
C298 O308 1.271 . S
C298 O309 1.251 . S
C299 O310 1.252 . S
C299 O311 1.272 . S
O300 Sm280 2.543 . S
O300 C282 1.261 . S
O301 Sm280 2.450 . S
O301 C282 1.242 . S
O302 Sm280 2.681 . S
O302 Sm281 2.386 . S
O302 C289 1.271 . S
O303 Sm280 2.464 . S
O303 C289 1.251 . S
O304 Sm280 2.396 . S
O304 C290 1.252 . S
O305 Sm281 2.408 . S
O305 C290 1.272 . S
O306 Sm281 2.543 . S
O306 C291 1.261 . S
O307 Sm281 2.450 . S
O307 C291 1.242 . S
O308 Sm280 2.386 . S
O308 Sm281 2.681 . S
O308 C298 1.271 . S
O309 Sm281 2.464 . S
O309 C298 1.251 . S
O310 Sm281 2.396 . S
O310 C299 1.252 . S
O311 Sm280 2.408 . S
O311 C299 1.272 . S
H312 C284 0.930 . S
H313 C285 0.929 . S
H314 C287 0.930 . S
H315 C288 0.929 . S
H316 C293 0.930 . S
H317 C294 0.929 . S
H318 C296 0.930 . S
H319 C297 0.929 . S
Sm320 C322 2.846 . S
Sm320 O340 2.543 . S
Sm320 O341 2.450 . S
Sm320 O342 2.681 . S
Sm320 O343 2.464 . S
Sm320 O344 2.396 . S
Sm320 O348 2.386 . S
Sm320 O351 2.408 . S
Sm321 C331 2.846 1_556 S
Sm321 O342 2.386 . S
Sm321 O345 2.408 . S
Sm321 O346 2.542 1_556 S
Sm321 O347 2.450 . S
Sm321 O348 2.681 . S
Sm321 O349 2.464 . S
Sm321 O350 2.396 . S
C322 Sm320 2.846 . S
C322 C323 1.506 . S
C322 O340 1.261 . S
C322 O341 1.242 . S
C323 C322 1.506 . S
C323 C324 1.358 . S
C323 C328 1.382 . S
C324 C323 1.358 . S
C324 C325 1.385 . S
C324 H352 0.930 . S
C325 C324 1.385 . S
C325 C326 1.395 . S
C325 H353 0.929 . S
C326 C325 1.395 . S
C326 C327 1.335 . S
C327 C326 1.335 . S
C327 C328 1.398 . S
C327 H354 0.930 . S
C328 C323 1.382 . S
C328 C327 1.398 . S
C328 H355 0.929 . S
C329 O342 1.271 . S
C329 O343 1.251 . S
C330 O344 1.252 . S
C330 O345 1.272 . S
C331 Sm321 2.846 1_554 S
C331 C332 1.506 . S
C331 O346 1.262 . S
C331 O347 1.242 1_554 S
C332 C331 1.506 . S
C332 C333 1.358 . S
C332 C337 1.382 . S
C333 C332 1.358 . S
C333 C334 1.385 . S
C333 H356 0.930 . S
C334 C333 1.385 . S
C334 C335 1.395 . S
C334 H357 0.929 . S
C335 C334 1.395 . S
C335 C336 1.335 . S
C336 C335 1.335 . S
C336 C337 1.398 . S
C336 H358 0.930 . S
C337 C332 1.382 . S
C337 C336 1.398 . S
C337 H359 0.929 . S
C338 O348 1.271 . S
C338 O349 1.251 . S
C339 O350 1.252 . S
C339 O351 1.272 . S
O340 Sm320 2.543 . S
O340 C322 1.261 . S
O341 Sm320 2.450 . S
O341 C322 1.242 . S
O342 Sm320 2.681 . S
O342 Sm321 2.386 . S
O342 C329 1.271 . S
O343 Sm320 2.464 . S
O343 C329 1.251 . S
O344 Sm320 2.396 . S
O344 C330 1.252 . S
O345 Sm321 2.408 . S
O345 C330 1.272 . S
O346 Sm321 2.542 1_554 S
O346 C331 1.262 . S
O347 Sm321 2.450 . S
O347 C331 1.242 1_556 S
O348 Sm320 2.386 . S
O348 Sm321 2.681 . S
O348 C338 1.271 . S
O349 Sm321 2.464 . S
O349 C338 1.251 . S
O350 Sm321 2.396 . S
O350 C339 1.252 . S
O351 Sm320 2.408 . S
O351 C339 1.272 . S
H352 C324 0.930 . S
H353 C325 0.929 . S
H354 C327 0.930 . S
H355 C328 0.929 . S
H356 C333 0.930 . S
H357 C334 0.929 . S
H358 C336 0.930 . S
H359 C337 0.929 . S
Sm360 C362 2.846 . S
Sm360 O380 2.543 . S
Sm360 O381 2.450 . S
Sm360 O382 2.681 . S
Sm360 O383 2.464 . S
Sm360 O384 2.396 . S
Sm360 O388 2.386 . S
Sm360 O391 2.408 . S
Sm361 C371 2.846 . S
Sm361 O382 2.386 . S
Sm361 O385 2.408 . S
Sm361 O386 2.543 . S
Sm361 O387 2.450 . S
Sm361 O388 2.681 . S
Sm361 O389 2.464 . S
Sm361 O390 2.396 . S
C362 Sm360 2.846 . S
C362 C363 1.506 . S
C362 O380 1.261 . S
C362 O381 1.242 . S
C363 C362 1.506 . S
C363 C364 1.358 . S
C363 C368 1.382 . S
C364 C363 1.358 . S
C364 C365 1.385 . S
C364 H392 0.930 . S
C365 C364 1.385 . S
C365 C366 1.395 . S
C365 H393 0.929 . S
C366 C365 1.395 . S
C366 C367 1.335 . S
C367 C366 1.335 . S
C367 C368 1.398 . S
C367 H394 0.930 . S
C368 C363 1.382 . S
C368 C367 1.398 . S
C368 H395 0.929 . S
C369 O382 1.271 . S
C369 O383 1.251 . S
C370 O384 1.252 . S
C370 O385 1.272 . S
C371 Sm361 2.846 . S
C371 C372 1.506 . S
C371 O386 1.261 . S
C371 O387 1.242 . S
C372 C371 1.506 . S
C372 C373 1.358 . S
C372 C377 1.382 . S
C373 C372 1.358 . S
C373 C374 1.385 . S
C373 H396 0.930 . S
C374 C373 1.385 . S
C374 C375 1.395 . S
C374 H397 0.929 . S
C375 C374 1.395 . S
C375 C376 1.335 . S
C376 C375 1.335 . S
C376 C377 1.398 . S
C376 H398 0.930 . S
C377 C372 1.382 . S
C377 C376 1.398 . S
C377 H399 0.929 . S
C378 O388 1.271 . S
C378 O389 1.251 . S
C379 O390 1.252 . S
C379 O391 1.272 . S
O380 Sm360 2.543 . S
O380 C362 1.261 . S
O381 Sm360 2.450 . S
O381 C362 1.242 . S
O382 Sm360 2.681 . S
O382 Sm361 2.386 . S
O382 C369 1.271 . S
O383 Sm360 2.464 . S
O383 C369 1.251 . S
O384 Sm360 2.396 . S
O384 C370 1.252 . S
O385 Sm361 2.408 . S
O385 C370 1.272 . S
O386 Sm361 2.543 . S
O386 C371 1.261 . S
O387 Sm361 2.450 . S
O387 C371 1.242 . S
O388 Sm360 2.386 . S
O388 Sm361 2.681 . S
O388 C378 1.271 . S
O389 Sm361 2.464 . S
O389 C378 1.251 . S
O390 Sm361 2.396 . S
O390 C379 1.252 . S
O391 Sm360 2.408 . S
O391 C379 1.272 . S
H392 C364 0.930 . S
H393 C365 0.929 . S
H394 C367 0.930 . S
H395 C368 0.929 . S
H396 C373 0.930 . S
H397 C374 0.929 . S
H398 C376 0.930 . S
H399 C377 0.929 . S
Sm400 C402 2.846 . S
Sm400 O420 2.543 . S
Sm400 O421 2.450 . S
Sm400 O422 2.681 . S
Sm400 O423 2.464 . S
Sm400 O424 2.396 . S
Sm400 O428 2.386 . S
Sm400 O431 2.408 . S
Sm401 C411 2.846 . S
Sm401 O422 2.386 . S
Sm401 O425 2.408 . S
Sm401 O426 2.543 . S
Sm401 O427 2.450 . S
Sm401 O428 2.681 . S
Sm401 O429 2.464 . S
Sm401 O430 2.396 . S
C402 Sm400 2.846 . S
C402 C403 1.506 . S
C402 O420 1.261 . S
C402 O421 1.242 . S
C403 C402 1.506 . S
C403 C404 1.358 . S
C403 C408 1.382 . S
C404 C403 1.358 . S
C404 C405 1.385 . S
C404 H432 0.930 . S
C405 C404 1.385 . S
C405 C406 1.395 . S
C405 H433 0.929 . S
C406 C405 1.395 . S
C406 C407 1.335 . S
C407 C406 1.335 . S
C407 C408 1.398 . S
C407 H434 0.930 . S
C408 C403 1.382 . S
C408 C407 1.398 . S
C408 H435 0.929 . S
C409 O422 1.271 . S
C409 O423 1.251 . S
C410 O424 1.252 . S
C410 O425 1.272 . S
C411 Sm401 2.846 . S
C411 C412 1.506 . S
C411 O426 1.261 . S
C411 O427 1.242 . S
C412 C411 1.506 . S
C412 C413 1.358 . S
C412 C417 1.382 . S
C413 C412 1.358 . S
C413 C414 1.385 . S
C413 H436 0.930 . S
C414 C413 1.385 . S
C414 C415 1.395 . S
C414 H437 0.929 . S
C415 C414 1.395 . S
C415 C416 1.335 . S
C416 C415 1.335 . S
C416 C417 1.398 . S
C416 H438 0.930 . S
C417 C412 1.382 . S
C417 C416 1.398 . S
C417 H439 0.929 . S
C418 O428 1.271 . S
C418 O429 1.251 . S
C419 O430 1.252 . S
C419 O431 1.272 . S
O420 Sm400 2.543 . S
O420 C402 1.261 . S
O421 Sm400 2.450 . S
O421 C402 1.242 . S
O422 Sm400 2.681 . S
O422 Sm401 2.386 . S
O422 C409 1.271 . S
O423 Sm400 2.464 . S
O423 C409 1.251 . S
O424 Sm400 2.396 . S
O424 C410 1.252 . S
O425 Sm401 2.408 . S
O425 C410 1.272 . S
O426 Sm401 2.543 . S
O426 C411 1.261 . S
O427 Sm401 2.450 . S
O427 C411 1.242 . S
O428 Sm400 2.386 . S
O428 Sm401 2.681 . S
O428 C418 1.271 . S
O429 Sm401 2.464 . S
O429 C418 1.251 . S
O430 Sm401 2.396 . S
O430 C419 1.252 . S
O431 Sm400 2.408 . S
O431 C419 1.272 . S
H432 C404 0.930 . S
H433 C405 0.929 . S
H434 C407 0.930 . S
H435 C408 0.929 . S
H436 C413 0.930 . S
H437 C414 0.929 . S
H438 C416 0.930 . S
H439 C417 0.929 . S
Sm440 C442 2.846 1_554 S
Sm440 O460 2.543 . S
Sm440 O461 2.450 1_554 S
Sm440 O462 2.681 . S
Sm440 O463 2.464 . S
Sm440 O464 2.396 . S
Sm440 O468 2.386 . S
Sm440 O471 2.408 . S
Sm441 C451 2.846 . S
Sm441 O462 2.386 . S
Sm441 O465 2.408 . S
Sm441 O466 2.543 . S
Sm441 O467 2.450 . S
Sm441 O468 2.681 . S
Sm441 O469 2.464 . S
Sm441 O470 2.396 . S
C442 Sm440 2.846 1_556 S
C442 C443 1.506 . S
C442 O460 1.261 1_556 S
C442 O461 1.242 . S
C443 C442 1.506 . S
C443 C444 1.358 . S
C443 C448 1.382 . S
C444 C443 1.358 . S
C444 C445 1.385 . S
C444 H472 0.930 . S
C445 C444 1.385 . S
C445 C446 1.395 . S
C445 H473 0.929 . S
C446 C445 1.395 . S
C446 C447 1.335 . S
C447 C446 1.335 . S
C447 C448 1.398 . S
C447 H474 0.930 . S
C448 C443 1.382 . S
C448 C447 1.398 . S
C448 H475 0.929 . S
C449 O462 1.271 . S
C449 O463 1.251 . S
C450 O464 1.252 . S
C450 O465 1.272 . S
C451 Sm441 2.846 . S
C451 C452 1.506 . S
C451 O466 1.261 . S
C451 O467 1.242 . S
C452 C451 1.506 . S
C452 C453 1.358 . S
C452 C457 1.382 . S
C453 C452 1.358 . S
C453 C454 1.385 . S
C453 H476 0.930 . S
C454 C453 1.385 . S
C454 C455 1.395 . S
C454 H477 0.929 . S
C455 C454 1.395 . S
C455 C456 1.335 . S
C456 C455 1.335 . S
C456 C457 1.398 . S
C456 H478 0.930 . S
C457 C452 1.382 . S
C457 C456 1.398 . S
C457 H479 0.929 . S
C458 O468 1.271 . S
C458 O469 1.251 . S
C459 O470 1.252 . S
C459 O471 1.272 . S
O460 Sm440 2.543 . S
O460 C442 1.261 1_554 S
O461 Sm440 2.450 1_556 S
O461 C442 1.242 . S
O462 Sm440 2.681 . S
O462 Sm441 2.386 . S
O462 C449 1.271 . S
O463 Sm440 2.464 . S
O463 C449 1.251 . S
O464 Sm440 2.396 . S
O464 C450 1.252 . S
O465 Sm441 2.408 . S
O465 C450 1.272 . S
O466 Sm441 2.543 . S
O466 C451 1.261 . S
O467 Sm441 2.450 . S
O467 C451 1.242 . S
O468 Sm440 2.386 . S
O468 Sm441 2.681 . S
O468 C458 1.271 . S
O469 Sm441 2.464 . S
O469 C458 1.251 . S
O470 Sm441 2.396 . S
O470 C459 1.252 . S
O471 Sm440 2.408 . S
O471 C459 1.272 . S
H472 C444 0.930 . S
H473 C445 0.929 . S
H474 C447 0.930 . S
H475 C448 0.929 . S
H476 C453 0.930 . S
H477 C454 0.929 . S
H478 C456 0.930 . S
H479 C457 0.929 . S
Sm480 C482 2.846 . S
Sm480 O500 2.543 . S
Sm480 O501 2.450 . S
Sm480 O502 2.681 . S
Sm480 O503 2.464 . S
Sm480 O504 2.396 . S
Sm480 O508 2.386 . S
Sm480 O511 2.408 . S
Sm481 C491 2.846 1_554 S
Sm481 O502 2.386 . S
Sm481 O505 2.408 . S
Sm481 O506 2.542 1_554 S
Sm481 O507 2.450 . S
Sm481 O508 2.681 . S
Sm481 O509 2.464 . S
Sm481 O510 2.396 . S
C482 Sm480 2.846 . S
C482 C483 1.506 . S
C482 O500 1.261 . S
C482 O501 1.242 . S
C483 C482 1.506 . S
C483 C484 1.358 . S
C483 C488 1.382 . S
C484 C483 1.358 . S
C484 C485 1.385 . S
C484 H512 0.930 . S
C485 C484 1.385 . S
C485 C486 1.395 . S
C485 H513 0.929 . S
C486 C485 1.395 . S
C486 C487 1.335 . S
C487 C486 1.335 . S
C487 C488 1.398 . S
C487 H514 0.930 . S
C488 C483 1.382 . S
C488 C487 1.398 . S
C488 H515 0.929 . S
C489 O502 1.271 . S
C489 O503 1.251 . S
C490 O504 1.252 . S
C490 O505 1.272 . S
C491 Sm481 2.846 1_556 S
C491 C492 1.506 . S
C491 O506 1.262 . S
C491 O507 1.242 1_556 S
C492 C491 1.506 . S
C492 C493 1.358 . S
C492 C497 1.382 . S
C493 C492 1.358 . S
C493 C494 1.385 . S
C493 H516 0.930 . S
C494 C493 1.385 . S
C494 C495 1.395 . S
C494 H517 0.929 . S
C495 C494 1.395 . S
C495 C496 1.335 . S
C496 C495 1.335 . S
C496 C497 1.398 . S
C496 H518 0.930 . S
C497 C492 1.382 . S
C497 C496 1.398 . S
C497 H519 0.929 . S
C498 O508 1.271 . S
C498 O509 1.251 . S
C499 O510 1.252 . S
C499 O511 1.272 . S
O500 Sm480 2.543 . S
O500 C482 1.261 . S
O501 Sm480 2.450 . S
O501 C482 1.242 . S
O502 Sm480 2.681 . S
O502 Sm481 2.386 . S
O502 C489 1.271 . S
O503 Sm480 2.464 . S
O503 C489 1.251 . S
O504 Sm480 2.396 . S
O504 C490 1.252 . S
O505 Sm481 2.408 . S
O505 C490 1.272 . S
O506 Sm481 2.542 1_556 S
O506 C491 1.262 . S
O507 Sm481 2.450 . S
O507 C491 1.242 1_554 S
O508 Sm480 2.386 . S
O508 Sm481 2.681 . S
O508 C498 1.271 . S
O509 Sm481 2.464 . S
O509 C498 1.251 . S
O510 Sm481 2.396 . S
O510 C499 1.252 . S
O511 Sm480 2.408 . S
O511 C499 1.272 . S
H512 C484 0.930 . S
H513 C485 0.929 . S
H514 C487 0.930 . S
H515 C488 0.929 . S
H516 C493 0.930 . S
H517 C494 0.929 . S
H518 C496 0.930 . S
H519 C497 0.929 . S
Sm520 C522 2.846 1_556 S
Sm520 O540 2.543 . S
Sm520 O541 2.450 1_556 S
Sm520 O542 2.681 . S
Sm520 O543 2.464 . S
Sm520 O544 2.396 . S
Sm520 O548 2.386 . S
Sm520 O551 2.408 . S
Sm521 C531 2.846 . S
Sm521 O542 2.386 . S
Sm521 O545 2.408 . S
Sm521 O546 2.543 . S
Sm521 O547 2.450 . S
Sm521 O548 2.681 . S
Sm521 O549 2.464 . S
Sm521 O550 2.396 . S
C522 Sm520 2.846 1_554 S
C522 C523 1.506 . S
C522 O540 1.261 1_554 S
C522 O541 1.242 . S
C523 C522 1.506 . S
C523 C524 1.358 . S
C523 C528 1.382 . S
C524 C523 1.358 . S
C524 C525 1.385 . S
C524 H552 0.930 . S
C525 C524 1.385 . S
C525 C526 1.395 . S
C525 H553 0.929 . S
C526 C525 1.395 . S
C526 C527 1.335 . S
C527 C526 1.335 . S
C527 C528 1.398 . S
C527 H554 0.930 . S
C528 C523 1.382 . S
C528 C527 1.398 . S
C528 H555 0.929 . S
C529 O542 1.271 . S
C529 O543 1.251 . S
C530 O544 1.252 . S
C530 O545 1.272 . S
C531 Sm521 2.846 . S
C531 C532 1.506 . S
C531 O546 1.261 . S
C531 O547 1.242 . S
C532 C531 1.506 . S
C532 C533 1.358 . S
C532 C537 1.382 . S
C533 C532 1.358 . S
C533 C534 1.385 . S
C533 H556 0.930 . S
C534 C533 1.385 . S
C534 C535 1.395 . S
C534 H557 0.929 . S
C535 C534 1.395 . S
C535 C536 1.335 . S
C536 C535 1.335 . S
C536 C537 1.398 . S
C536 H558 0.930 . S
C537 C532 1.382 . S
C537 C536 1.398 . S
C537 H559 0.929 . S
C538 O548 1.271 . S
C538 O549 1.251 . S
C539 O550 1.252 . S
C539 O551 1.272 . S
O540 Sm520 2.543 . S
O540 C522 1.261 1_556 S
O541 Sm520 2.450 1_554 S
O541 C522 1.242 . S
O542 Sm520 2.681 . S
O542 Sm521 2.386 . S
O542 C529 1.271 . S
O543 Sm520 2.464 . S
O543 C529 1.251 . S
O544 Sm520 2.396 . S
O544 C530 1.252 . S
O545 Sm521 2.408 . S
O545 C530 1.272 . S
O546 Sm521 2.543 . S
O546 C531 1.261 . S
O547 Sm521 2.450 . S
O547 C531 1.242 . S
O548 Sm520 2.386 . S
O548 Sm521 2.681 . S
O548 C538 1.271 . S
O549 Sm521 2.464 . S
O549 C538 1.251 . S
O550 Sm521 2.396 . S
O550 C539 1.252 . S
O551 Sm520 2.408 . S
O551 C539 1.272 . S
H552 C524 0.930 . S
H553 C525 0.929 . S
H554 C527 0.930 . S
H555 C528 0.929 . S
H556 C533 0.930 . S
H557 C534 0.929 . S
H558 C536 0.930 . S
H559 C537 0.929 . S
Sm560 C562 2.846 . S
Sm560 O580 2.543 . S
Sm560 O581 2.450 . S
Sm560 O582 2.681 . S
Sm560 O583 2.464 . S
Sm560 O584 2.396 . S
Sm560 O588 2.386 . S
Sm560 O591 2.408 . S
Sm561 C571 2.846 . S
Sm561 O582 2.386 . S
Sm561 O585 2.408 . S
Sm561 O586 2.543 . S
Sm561 O587 2.450 . S
Sm561 O588 2.681 . S
Sm561 O589 2.464 . S
Sm561 O590 2.396 . S
C562 Sm560 2.846 . S
C562 C563 1.506 . S
C562 O580 1.261 . S
C562 O581 1.242 . S
C563 C562 1.506 . S
C563 C564 1.358 . S
C563 C568 1.382 . S
C564 C563 1.358 . S
C564 C565 1.385 . S
C564 H592 0.930 . S
C565 C564 1.385 . S
C565 C566 1.395 . S
C565 H593 0.929 . S
C566 C565 1.395 . S
C566 C567 1.335 . S
C567 C566 1.335 . S
C567 C568 1.398 . S
C567 H594 0.930 . S
C568 C563 1.382 . S
C568 C567 1.398 . S
C568 H595 0.929 . S
C569 O582 1.271 . S
C569 O583 1.251 . S
C570 O584 1.252 . S
C570 O585 1.272 . S
C571 Sm561 2.846 . S
C571 C572 1.506 . S
C571 O586 1.261 . S
C571 O587 1.242 . S
C572 C571 1.506 . S
C572 C573 1.358 . S
C572 C577 1.382 . S
C573 C572 1.358 . S
C573 C574 1.385 . S
C573 H596 0.930 . S
C574 C573 1.385 . S
C574 C575 1.395 . S
C574 H597 0.929 . S
C575 C574 1.395 . S
C575 C576 1.335 . S
C576 C575 1.335 . S
C576 C577 1.398 . S
C576 H598 0.930 . S
C577 C572 1.382 . S
C577 C576 1.398 . S
C577 H599 0.929 . S
C578 O588 1.271 . S
C578 O589 1.251 . S
C579 O590 1.252 . S
C579 O591 1.272 . S
O580 Sm560 2.543 . S
O580 C562 1.261 . S
O581 Sm560 2.450 . S
O581 C562 1.242 . S
O582 Sm560 2.681 . S
O582 Sm561 2.386 . S
O582 C569 1.271 . S
O583 Sm560 2.464 . S
O583 C569 1.251 . S
O584 Sm560 2.396 . S
O584 C570 1.252 . S
O585 Sm561 2.408 . S
O585 C570 1.272 . S
O586 Sm561 2.543 . S
O586 C571 1.261 . S
O587 Sm561 2.450 . S
O587 C571 1.242 . S
O588 Sm560 2.386 . S
O588 Sm561 2.681 . S
O588 C578 1.271 . S
O589 Sm561 2.464 . S
O589 C578 1.251 . S
O590 Sm561 2.396 . S
O590 C579 1.252 . S
O591 Sm560 2.408 . S
O591 C579 1.272 . S
H592 C564 0.930 . S
H593 C565 0.929 . S
H594 C567 0.930 . S
H595 C568 0.929 . S
H596 C573 0.930 . S
H597 C574 0.929 . S
H598 C576 0.930 . S
H599 C577 0.929 . S
Sm600 C602 2.846 . S
Sm600 O620 2.543 . S
Sm600 O621 2.450 . S
Sm600 O622 2.681 . S
Sm600 O623 2.464 . S
Sm600 O624 2.396 . S
Sm600 O628 2.386 . S
Sm600 O631 2.408 . S
Sm601 C611 2.846 . S
Sm601 O622 2.386 . S
Sm601 O625 2.408 . S
Sm601 O626 2.543 . S
Sm601 O627 2.450 . S
Sm601 O628 2.681 . S
Sm601 O629 2.464 . S
Sm601 O630 2.396 . S
C602 Sm600 2.846 . S
C602 C603 1.506 . S
C602 O620 1.261 . S
C602 O621 1.242 . S
C603 C602 1.506 . S
C603 C604 1.358 . S
C603 C608 1.382 . S
C604 C603 1.358 . S
C604 C605 1.385 . S
C604 H632 0.930 . S
C605 C604 1.385 . S
C605 C606 1.395 . S
C605 H633 0.929 . S
C606 C605 1.395 . S
C606 C607 1.335 . S
C607 C606 1.335 . S
C607 C608 1.398 . S
C607 H634 0.930 . S
C608 C603 1.382 . S
C608 C607 1.398 . S
C608 H635 0.929 . S
C609 O622 1.271 . S
C609 O623 1.251 . S
C610 O624 1.252 . S
C610 O625 1.272 . S
C611 Sm601 2.846 . S
C611 C612 1.506 . S
C611 O626 1.261 . S
C611 O627 1.242 . S
C612 C611 1.506 . S
C612 C613 1.358 . S
C612 C617 1.382 . S
C613 C612 1.358 . S
C613 C614 1.385 . S
C613 H636 0.930 . S
C614 C613 1.385 . S
C614 C615 1.395 . S
C614 H637 0.929 . S
C615 C614 1.395 . S
C615 C616 1.335 . S
C616 C615 1.335 . S
C616 C617 1.398 . S
C616 H638 0.930 . S
C617 C612 1.382 . S
C617 C616 1.398 . S
C617 H639 0.929 . S
C618 O628 1.271 . S
C618 O629 1.251 . S
C619 O630 1.252 . S
C619 O631 1.272 . S
O620 Sm600 2.543 . S
O620 C602 1.261 . S
O621 Sm600 2.450 . S
O621 C602 1.242 . S
O622 Sm600 2.681 . S
O622 Sm601 2.386 . S
O622 C609 1.271 . S
O623 Sm600 2.464 . S
O623 C609 1.251 . S
O624 Sm600 2.396 . S
O624 C610 1.252 . S
O625 Sm601 2.408 . S
O625 C610 1.272 . S
O626 Sm601 2.543 . S
O626 C611 1.261 . S
O627 Sm601 2.450 . S
O627 C611 1.242 . S
O628 Sm600 2.386 . S
O628 Sm601 2.681 . S
O628 C618 1.271 . S
O629 Sm601 2.464 . S
O629 C618 1.251 . S
O630 Sm601 2.396 . S
O630 C619 1.252 . S
O631 Sm600 2.408 . S
O631 C619 1.272 . S
H632 C604 0.930 . S
H633 C605 0.929 . S
H634 C607 0.930 . S
H635 C608 0.929 . S
H636 C613 0.930 . S
H637 C614 0.929 . S
H638 C616 0.930 . S
H639 C617 0.929 . S
H640 C648 0.929 . S
H641 C650 0.930 . S
H642 C652 0.930 . S
H643 C655 0.929 . S
H644 C658 0.930 . S
H645 C660 0.960 . S
H646 C660 0.960 . S
H647 C660 0.960 . S
C648 H640 0.929 . S
C648 C649 1.377 . S
C648 C650 1.384 . S
C649 C648 1.377 . S
C649 C655 1.390 . S
C650 H641 0.930 . S
C650 C648 1.384 . S
C650 C651 1.372 . S
C651 C650 1.372 . S
C651 C652 1.400 . S
C651 C656 1.490 . S
C652 H642 0.930 . S
C652 C651 1.400 . S
C652 C655 1.386 . S
H653 C669 0.930 . S
H654 C670 0.931 . S
C655 H643 0.929 . S
C655 C649 1.390 . S
C655 C652 1.386 . S
C656 C651 1.490 . S
C656 C658 1.395 . S
C656 C659 1.403 . S
H657 C663 0.930 . S
C658 H644 0.930 . S
C658 C656 1.395 . S
C658 C661 1.403 . S
C659 C656 1.403 . S
C659 C660 1.524 . S
C659 C663 1.400 . S
C660 H645 0.960 . S
C660 H646 0.960 . S
C660 H647 0.960 . S
C660 C659 1.524 . S
C661 C658 1.403 . S
C661 C662 1.392 . S
C661 C665 1.495 . S
C662 C661 1.392 . S
C662 C663 1.385 . S
C662 C664 1.478 . S
C663 H657 0.930 . S
C663 C659 1.400 . S
C663 C662 1.385 . S
C664 C662 1.478 . S
C664 C666 1.381 . S
C664 C670 1.383 . S
C665 C661 1.495 . S
C665 H671 0.959 . S
C665 H672 0.961 . S
C665 H673 0.960 . S
C666 C664 1.381 . S
C666 C667 1.394 . S
C666 H674 0.930 . S
C667 C666 1.394 . S
C667 C668 1.383 . S
C667 H675 0.929 . S
C668 C667 1.383 . S
C668 C669 1.377 . S
C669 H653 0.930 . S
C669 C668 1.377 . S
C669 C670 1.379 . S
C670 H654 0.931 . S
C670 C664 1.383 . S
C670 C669 1.379 . S
H671 C665 0.959 . S
H672 C665 0.961 . S
H673 C665 0.960 . S
H674 C666 0.930 . S
H675 C667 0.929 . S
H676 C684 0.929 . S
H677 C686 0.930 . S
H678 C688 0.930 . S
H679 C691 0.929 . S
H680 C694 0.930 . S
H681 C696 0.960 . S
H682 C696 0.960 . S
H683 C696 0.960 . S
C684 H676 0.929 . S
C684 C685 1.377 . S
C684 C686 1.384 1_554 S
C685 C684 1.377 . S
C685 C691 1.390 . S
C686 H677 0.930 . S
C686 C684 1.384 1_556 S
C686 C687 1.372 . S
C687 C686 1.372 . S
C687 C688 1.400 . S
C687 C692 1.490 . S
C688 H678 0.930 . S
C688 C687 1.400 . S
C688 C691 1.386 1_556 S
H689 C705 0.930 . S
H690 C706 0.931 . S
C691 H679 0.929 . S
C691 C685 1.390 . S
C691 C688 1.386 1_554 S
C692 C687 1.490 . S
C692 C694 1.395 . S
C692 C695 1.403 . S
H693 C699 0.930 . S
C694 H680 0.930 . S
C694 C692 1.395 . S
C694 C697 1.403 . S
C695 C692 1.403 . S
C695 C696 1.524 . S
C695 C699 1.400 . S
C696 H681 0.960 . S
C696 H682 0.960 . S
C696 H683 0.960 . S
C696 C695 1.524 . S
C697 C694 1.403 . S
C697 C698 1.392 . S
C697 C701 1.495 . S
C698 C697 1.392 . S
C698 C699 1.385 . S
C698 C700 1.478 . S
C699 H693 0.930 . S
C699 C695 1.400 . S
C699 C698 1.385 . S
C700 C698 1.478 . S
C700 C702 1.381 . S
C700 C706 1.383 . S
C701 C697 1.495 . S
C701 H707 0.959 . S
C701 H708 0.961 . S
C701 H709 0.960 . S
C702 C700 1.381 . S
C702 C703 1.394 . S
C702 H710 0.930 . S
C703 C702 1.394 . S
C703 C704 1.383 . S
C703 H711 0.929 . S
C704 C703 1.383 . S
C704 C705 1.377 . S
C705 H689 0.930 . S
C705 C704 1.377 . S
C705 C706 1.379 . S
C706 H690 0.931 . S
C706 C700 1.383 . S
C706 C705 1.379 . S
H707 C701 0.959 . S
H708 C701 0.961 . S
H709 C701 0.960 . S
H710 C702 0.930 . S
H711 C703 0.929 . S
H712 C720 0.929 . S
H713 C722 0.930 . S
H714 C724 0.930 . S
H715 C727 0.929 . S
H716 C730 0.930 . S
H717 C732 0.960 . S
H718 C732 0.960 . S
H719 C732 0.960 . S
C720 H712 0.929 . S
C720 C721 1.377 . S
C720 C722 1.384 . S
C721 C720 1.377 . S
C721 C727 1.390 . S
C722 H713 0.930 . S
C722 C720 1.384 . S
C722 C723 1.372 . S
C723 C722 1.372 . S
C723 C724 1.400 . S
C723 C728 1.490 . S
C724 H714 0.930 . S
C724 C723 1.400 . S
C724 C727 1.386 . S
H725 C741 0.930 . S
H726 C742 0.931 . S
C727 H715 0.929 . S
C727 C721 1.390 . S
C727 C724 1.386 . S
C728 C723 1.490 . S
C728 C730 1.395 . S
C728 C731 1.403 . S
H729 C735 0.930 . S
C730 H716 0.930 . S
C730 C728 1.395 . S
C730 C733 1.403 . S
C731 C728 1.403 . S
C731 C732 1.524 . S
C731 C735 1.400 . S
C732 H717 0.960 . S
C732 H718 0.960 . S
C732 H719 0.960 . S
C732 C731 1.524 . S
C733 C730 1.403 . S
C733 C734 1.392 . S
C733 C737 1.495 . S
C734 C733 1.392 . S
C734 C735 1.385 . S
C734 C736 1.478 . S
C735 H729 0.930 . S
C735 C731 1.400 . S
C735 C734 1.385 . S
C736 C734 1.478 . S
C736 C738 1.381 . S
C736 C742 1.383 . S
C737 C733 1.495 . S
C737 H743 0.959 . S
C737 H744 0.961 . S
C737 H745 0.960 . S
C738 C736 1.381 . S
C738 C739 1.394 1_554 S
C738 H746 0.930 . S
C739 C738 1.394 1_556 S
C739 C740 1.383 . S
C739 H747 0.929 . S
C740 C739 1.383 . S
C740 C741 1.377 . S
C741 H725 0.930 . S
C741 C740 1.377 . S
C741 C742 1.379 1_556 S
C742 H726 0.931 . S
C742 C736 1.383 . S
C742 C741 1.379 1_554 S
H743 C737 0.959 . S
H744 C737 0.961 . S
H745 C737 0.960 . S
H746 C738 0.930 . S
H747 C739 0.929 . S
H748 C756 0.929 . S
H749 C758 0.930 . S
H750 C760 0.930 . S
H751 C763 0.929 . S
H752 C766 0.930 . S
H753 C768 0.960 . S
H754 C768 0.960 . S
H755 C768 0.960 . S
C756 H748 0.929 . S
C756 C757 1.377 . S
C756 C758 1.384 . S
C757 C756 1.377 . S
C757 C763 1.390 . S
C758 H749 0.930 . S
C758 C756 1.384 . S
C758 C759 1.372 . S
C759 C758 1.372 . S
C759 C760 1.400 . S
C759 C764 1.490 . S
C760 H750 0.930 . S
C760 C759 1.400 . S
C760 C763 1.386 . S
H761 C777 0.930 . S
H762 C778 0.931 . S
C763 H751 0.929 . S
C763 C757 1.390 . S
C763 C760 1.386 . S
C764 C759 1.490 . S
C764 C766 1.395 . S
C764 C767 1.403 . S
H765 C771 0.930 . S
C766 H752 0.930 . S
C766 C764 1.395 . S
C766 C769 1.403 . S
C767 C764 1.403 . S
C767 C768 1.524 . S
C767 C771 1.400 . S
C768 H753 0.960 . S
C768 H754 0.960 . S
C768 H755 0.960 . S
C768 C767 1.524 . S
C769 C766 1.403 . S
C769 C770 1.392 . S
C769 C773 1.495 . S
C770 C769 1.392 . S
C770 C771 1.385 . S
C770 C772 1.478 . S
C771 H765 0.930 . S
C771 C767 1.400 . S
C771 C770 1.385 . S
C772 C770 1.478 . S
C772 C774 1.381 . S
C772 C778 1.383 . S
C773 C769 1.495 . S
C773 H779 0.959 . S
C773 H780 0.961 . S
C773 H781 0.960 . S
C774 C772 1.381 . S
C774 C775 1.394 . S
C774 H782 0.930 . S
C775 C774 1.394 . S
C775 C776 1.383 . S
C775 H783 0.929 . S
C776 C775 1.383 . S
C776 C777 1.377 . S
C777 H761 0.930 . S
C777 C776 1.377 . S
C777 C778 1.379 . S
C778 H762 0.931 . S
C778 C772 1.383 . S
C778 C777 1.379 . S
H779 C773 0.959 . S
H780 C773 0.961 . S
H781 C773 0.960 . S
H782 C774 0.930 . S
H783 C775 0.929 . S
H784 C792 0.929 . S
H785 C794 0.930 . S
H786 C796 0.930 . S
H787 C799 0.929 . S
H788 C802 0.930 . S
H789 C804 0.960 . S
H790 C804 0.960 . S
H791 C804 0.960 . S
C792 H784 0.929 . S
C792 C793 1.377 . S
C792 C794 1.384 . S
C793 C792 1.377 . S
C793 C799 1.390 . S
C794 H785 0.930 . S
C794 C792 1.384 . S
C794 C795 1.372 . S
C795 C794 1.372 . S
C795 C796 1.400 . S
C795 C800 1.490 . S
C796 H786 0.930 . S
C796 C795 1.400 . S
C796 C799 1.386 . S
H797 C813 0.930 . S
H798 C814 0.931 . S
C799 H787 0.929 . S
C799 C793 1.390 . S
C799 C796 1.386 . S
C800 C795 1.490 . S
C800 C802 1.395 . S
C800 C803 1.403 . S
H801 C807 0.930 . S
C802 H788 0.930 . S
C802 C800 1.395 . S
C802 C805 1.403 . S
C803 C800 1.403 . S
C803 C804 1.524 . S
C803 C807 1.400 . S
C804 H789 0.960 . S
C804 H790 0.960 . S
C804 H791 0.960 . S
C804 C803 1.524 . S
C805 C802 1.403 . S
C805 C806 1.392 . S
C805 C809 1.495 . S
C806 C805 1.392 . S
C806 C807 1.385 . S
C806 C808 1.478 . S
C807 H801 0.930 . S
C807 C803 1.400 . S
C807 C806 1.385 . S
C808 C806 1.478 . S
C808 C810 1.381 . S
C808 C814 1.383 . S
C809 C805 1.495 . S
C809 H815 0.959 . S
C809 H816 0.961 . S
C809 H817 0.960 . S
C810 C808 1.381 . S
C810 C811 1.394 . S
C810 H818 0.930 . S
C811 C810 1.394 . S
C811 C812 1.383 . S
C811 H819 0.929 . S
C812 C811 1.383 . S
C812 C813 1.377 . S
C813 H797 0.930 . S
C813 C812 1.377 . S
C813 C814 1.379 . S
C814 H798 0.931 . S
C814 C808 1.383 . S
C814 C813 1.379 . S
H815 C809 0.959 . S
H816 C809 0.961 . S
H817 C809 0.960 . S
H818 C810 0.930 . S
H819 C811 0.929 . S
H820 C828 0.929 . S
H821 C830 0.930 . S
H822 C832 0.930 . S
H823 C835 0.929 . S
H824 C838 0.930 . S
H825 C840 0.960 . S
H826 C840 0.960 . S
H827 C840 0.960 . S
C828 H820 0.929 . S
C828 C829 1.377 . S
C828 C830 1.384 . S
C829 C828 1.377 . S
C829 C835 1.390 . S
C830 H821 0.930 . S
C830 C828 1.384 . S
C830 C831 1.372 . S
C831 C830 1.372 . S
C831 C832 1.400 . S
C831 C836 1.490 . S
C832 H822 0.930 . S
C832 C831 1.400 . S
C832 C835 1.386 . S
H833 C849 0.930 . S
H834 C850 0.931 . S
C835 H823 0.929 . S
C835 C829 1.390 . S
C835 C832 1.386 . S
C836 C831 1.490 . S
C836 C838 1.395 . S
C836 C839 1.403 . S
H837 C843 0.930 . S
C838 H824 0.930 . S
C838 C836 1.395 . S
C838 C841 1.403 . S
C839 C836 1.403 . S
C839 C840 1.524 . S
C839 C843 1.400 . S
C840 H825 0.960 . S
C840 H826 0.960 . S
C840 H827 0.960 . S
C840 C839 1.524 . S
C841 C838 1.403 . S
C841 C842 1.392 . S
C841 C845 1.495 . S
C842 C841 1.392 . S
C842 C843 1.385 . S
C842 C844 1.478 . S
C843 H837 0.930 . S
C843 C839 1.400 . S
C843 C842 1.385 . S
C844 C842 1.478 . S
C844 C846 1.381 . S
C844 C850 1.383 . S
C845 C841 1.495 . S
C845 H851 0.959 . S
C845 H852 0.961 . S
C845 H853 0.960 . S
C846 C844 1.381 . S
C846 C847 1.394 . S
C846 H854 0.930 . S
C847 C846 1.394 . S
C847 C848 1.383 . S
C847 H855 0.929 . S
C848 C847 1.383 . S
C848 C849 1.377 . S
C849 H833 0.930 . S
C849 C848 1.377 . S
C849 C850 1.379 . S
C850 H834 0.931 . S
C850 C844 1.383 . S
C850 C849 1.379 . S
H851 C845 0.959 . S
H852 C845 0.961 . S
H853 C845 0.960 . S
H854 C846 0.930 . S
H855 C847 0.929 . S
H856 C864 0.929 . S
H857 C866 0.930 . S
H858 C868 0.930 . S
H859 C871 0.929 . S
H860 C874 0.930 . S
H861 C876 0.960 . S
H862 C876 0.960 . S
H863 C876 0.960 . S
C864 H856 0.929 . S
C864 C865 1.377 . S
C864 C866 1.384 . S
C865 C864 1.377 . S
C865 C871 1.390 . S
C866 H857 0.930 . S
C866 C864 1.384 . S
C866 C867 1.372 . S
C867 C866 1.372 . S
C867 C868 1.400 . S
C867 C872 1.490 . S
C868 H858 0.930 . S
C868 C867 1.400 . S
C868 C871 1.386 . S
H869 C885 0.930 . S
H870 C886 0.931 . S
C871 H859 0.929 . S
C871 C865 1.390 . S
C871 C868 1.386 . S
C872 C867 1.490 . S
C872 C874 1.395 . S
C872 C875 1.403 . S
H873 C879 0.930 . S
C874 H860 0.930 . S
C874 C872 1.395 . S
C874 C877 1.403 . S
C875 C872 1.403 . S
C875 C876 1.524 . S
C875 C879 1.400 . S
C876 H861 0.960 . S
C876 H862 0.960 . S
C876 H863 0.960 . S
C876 C875 1.524 . S
C877 C874 1.403 . S
C877 C878 1.392 . S
C877 C881 1.495 . S
C878 C877 1.392 . S
C878 C879 1.385 . S
C878 C880 1.478 . S
C879 H873 0.930 . S
C879 C875 1.400 . S
C879 C878 1.385 . S
C880 C878 1.478 . S
C880 C882 1.381 . S
C880 C886 1.383 . S
C881 C877 1.495 . S
C881 H887 0.959 . S
C881 H888 0.961 . S
C881 H889 0.960 . S
C882 C880 1.381 . S
C882 C883 1.394 1_556 S
C882 H890 0.930 . S
C883 C882 1.394 1_554 S
C883 C884 1.383 . S
C883 H891 0.929 . S
C884 C883 1.383 . S
C884 C885 1.377 . S
C885 H869 0.930 . S
C885 C884 1.377 . S
C885 C886 1.379 1_554 S
C886 H870 0.931 . S
C886 C880 1.383 . S
C886 C885 1.379 1_556 S
H887 C881 0.959 . S
H888 C881 0.961 . S
H889 C881 0.960 . S
H890 C882 0.930 . S
H891 C883 0.929 . S
H892 C900 0.929 . S
H893 C902 0.930 . S
H894 C904 0.930 . S
H895 C907 0.929 . S
H896 C910 0.930 . S
H897 C912 0.960 . S
H898 C912 0.960 . S
H899 C912 0.960 . S
C900 H892 0.929 . S
C900 C901 1.377 . S
C900 C902 1.384 1_556 S
C901 C900 1.377 . S
C901 C907 1.390 . S
C902 H893 0.930 . S
C902 C900 1.384 1_554 S
C902 C903 1.372 . S
C903 C902 1.372 . S
C903 C904 1.400 . S
C903 C908 1.490 . S
C904 H894 0.930 . S
C904 C903 1.400 . S
C904 C907 1.386 1_554 S
H905 C921 0.930 . S
H906 C922 0.931 . S
C907 H895 0.929 . S
C907 C901 1.390 . S
C907 C904 1.386 1_556 S
C908 C903 1.490 . S
C908 C910 1.395 . S
C908 C911 1.403 . S
H909 C915 0.930 . S
C910 H896 0.930 . S
C910 C908 1.395 . S
C910 C913 1.403 . S
C911 C908 1.403 . S
C911 C912 1.524 . S
C911 C915 1.400 . S
C912 H897 0.960 . S
C912 H898 0.960 . S
C912 H899 0.960 . S
C912 C911 1.524 . S
C913 C910 1.403 . S
C913 C914 1.392 . S
C913 C917 1.495 . S
C914 C913 1.392 . S
C914 C915 1.385 . S
C914 C916 1.478 . S
C915 H909 0.930 . S
C915 C911 1.400 . S
C915 C914 1.385 . S
C916 C914 1.478 . S
C916 C918 1.381 . S
C916 C922 1.383 . S
C917 C913 1.495 . S
C917 H923 0.959 . S
C917 H924 0.961 . S
C917 H925 0.960 . S
C918 C916 1.381 . S
C918 C919 1.394 . S
C918 H926 0.930 . S
C919 C918 1.394 . S
C919 C920 1.383 . S
C919 H927 0.929 . S
C920 C919 1.383 . S
C920 C921 1.377 . S
C921 H905 0.930 . S
C921 C920 1.377 . S
C921 C922 1.379 . S
C922 H906 0.931 . S
C922 C916 1.383 . S
C922 C921 1.379 . S
H923 C917 0.959 . S
H924 C917 0.961 . S
H925 C917 0.960 . S
H926 C918 0.930 . S
H927 C919 0.929 . S
H928 C936 0.929 . S
H929 C938 0.930 . S
H930 C940 0.930 . S
H931 C943 0.929 . S
H932 C946 0.930 . S
H933 C948 0.960 . S
H934 C948 0.960 . S
H935 C948 0.960 . S
C936 H928 0.929 . S
C936 C937 1.377 . S
C936 C938 1.384 . S
C937 C936 1.377 . S
C937 C943 1.390 . S
C938 H929 0.930 . S
C938 C936 1.384 . S
C938 C939 1.372 . S
C939 C938 1.372 . S
C939 C940 1.400 . S
C939 C944 1.490 . S
C940 H930 0.930 . S
C940 C939 1.400 . S
C940 C943 1.386 . S
H941 C957 0.930 . S
H942 C958 0.931 . S
C943 H931 0.929 . S
C943 C937 1.390 . S
C943 C940 1.386 . S
C944 C939 1.490 . S
C944 C946 1.395 . S
C944 C947 1.403 . S
H945 C951 0.930 . S
C946 H932 0.930 . S
C946 C944 1.395 . S
C946 C949 1.403 . S
C947 C944 1.403 . S
C947 C948 1.524 . S
C947 C951 1.400 . S
C948 H933 0.960 . S
C948 H934 0.960 . S
C948 H935 0.960 . S
C948 C947 1.524 . S
C949 C946 1.403 . S
C949 C950 1.392 . S
C949 C953 1.495 . S
C950 C949 1.392 . S
C950 C951 1.385 . S
C950 C952 1.478 . S
C951 H945 0.930 . S
C951 C947 1.400 . S
C951 C950 1.385 . S
C952 C950 1.478 . S
C952 C954 1.381 . S
C952 C958 1.383 . S
C953 C949 1.495 . S
C953 H959 0.959 . S
C953 H960 0.961 . S
C953 H961 0.960 . S
C954 C952 1.381 . S
C954 C955 1.394 . S
C954 H962 0.930 . S
C955 C954 1.394 . S
C955 C956 1.383 . S
C955 H963 0.929 . S
C956 C955 1.383 . S
C956 C957 1.377 . S
C957 H941 0.930 . S
C957 C956 1.377 . S
C957 C958 1.379 . S
C958 H942 0.931 . S
C958 C952 1.383 . S
C958 C957 1.379 . S
H959 C953 0.959 . S
H960 C953 0.961 . S
H961 C953 0.960 . S
H962 C954 0.930 . S
H963 C955 0.929 . S
H964 C972 0.929 . S
H965 C974 0.930 . S
H966 C976 0.930 . S
H967 C979 0.929 . S
H968 C982 0.930 . S
H969 C984 0.960 . S
H970 C984 0.960 . S
H971 C984 0.960 . S
C972 H964 0.929 . S
C972 C973 1.377 . S
C972 C974 1.384 . S
C973 C972 1.377 . S
C973 C979 1.390 . S
C974 H965 0.930 . S
C974 C972 1.384 . S
C974 C975 1.372 . S
C975 C974 1.372 . S
C975 C976 1.400 . S
C975 C980 1.490 . S
C976 H966 0.930 . S
C976 C975 1.400 . S
C976 C979 1.386 . S
H977 C993 0.930 . S
H978 C994 0.931 . S
C979 H967 0.929 . S
C979 C973 1.390 . S
C979 C976 1.386 . S
C980 C975 1.490 . S
C980 C982 1.395 . S
C980 C983 1.403 . S
H981 C987 0.930 . S
C982 H968 0.930 . S
C982 C980 1.395 . S
C982 C985 1.403 . S
C983 C980 1.403 . S
C983 C984 1.524 . S
C983 C987 1.400 . S
C984 H969 0.960 . S
C984 H970 0.960 . S
C984 H971 0.960 . S
C984 C983 1.524 . S
C985 C982 1.403 . S
C985 C986 1.392 . S
C985 C989 1.495 . S
C986 C985 1.392 . S
C986 C987 1.385 . S
C986 C988 1.478 . S
C987 H981 0.930 . S
C987 C983 1.400 . S
C987 C986 1.385 . S
C988 C986 1.478 . S
C988 C990 1.381 . S
C988 C994 1.383 . S
C989 C985 1.495 . S
C989 H995 0.959 . S
C989 H996 0.961 . S
C989 H997 0.960 . S
C990 C988 1.381 . S
C990 C991 1.394 1_554 S
C990 H998 0.930 . S
C991 C990 1.394 1_556 S
C991 C992 1.383 . S
C991 H999 0.929 . S
C992 C991 1.383 . S
C992 C993 1.377 . S
C993 H977 0.930 . S
C993 C992 1.377 . S
C993 C994 1.379 1_556 S
C994 H978 0.931 . S
C994 C988 1.383 . S
C994 C993 1.379 1_554 S
H995 C989 0.959 . S
H996 C989 0.961 . S
H997 C989 0.960 . S
H998 C990 0.930 . S
H999 C991 0.929 . S
H1000 C1008 0.929 . S
H1001 C1010 0.930 . S
H1002 C1012 0.930 . S
H1003 C1015 0.929 . S
H1004 C1018 0.930 . S
H1005 C1020 0.960 . S
H1006 C1020 0.960 . S
H1007 C1020 0.960 . S
C1008 H1000 0.929 . S
C1008 C1009 1.377 . S
C1008 C1010 1.384 1_554 S
C1009 C1008 1.377 . S
C1009 C1015 1.390 . S
C1010 H1001 0.930 . S
C1010 C1008 1.384 1_556 S
C1010 C1011 1.372 . S
C1011 C1010 1.372 . S
C1011 C1012 1.400 . S
C1011 C1016 1.490 . S
C1012 H1002 0.930 . S
C1012 C1011 1.400 . S
C1012 C1015 1.386 1_556 S
H1013 C1029 0.930 . S
H1014 C1030 0.931 . S
C1015 H1003 0.929 . S
C1015 C1009 1.390 . S
C1015 C1012 1.386 1_554 S
C1016 C1011 1.490 . S
C1016 C1018 1.395 . S
C1016 C1019 1.403 . S
H1017 C1023 0.930 . S
C1018 H1004 0.930 . S
C1018 C1016 1.395 . S
C1018 C1021 1.403 . S
C1019 C1016 1.403 . S
C1019 C1020 1.524 . S
C1019 C1023 1.400 . S
C1020 H1005 0.960 . S
C1020 H1006 0.960 . S
C1020 H1007 0.960 . S
C1020 C1019 1.524 . S
C1021 C1018 1.403 . S
C1021 C1022 1.392 . S
C1021 C1025 1.495 . S
C1022 C1021 1.392 . S
C1022 C1023 1.385 . S
C1022 C1024 1.478 . S
C1023 H1017 0.930 . S
C1023 C1019 1.400 . S
C1023 C1022 1.385 . S
C1024 C1022 1.478 . S
C1024 C1026 1.381 . S
C1024 C1030 1.383 . S
C1025 C1021 1.495 . S
C1025 H1031 0.959 . S
C1025 H1032 0.961 . S
C1025 H1033 0.960 . S
C1026 C1024 1.381 . S
C1026 C1027 1.394 . S
C1026 H1034 0.930 . S
C1027 C1026 1.394 . S
C1027 C1028 1.383 . S
C1027 H1035 0.929 . S
C1028 C1027 1.383 . S
C1028 C1029 1.377 . S
C1029 H1013 0.930 . S
C1029 C1028 1.377 . S
C1029 C1030 1.379 . S
C1030 H1014 0.931 . S
C1030 C1024 1.383 . S
C1030 C1029 1.379 . S
H1031 C1025 0.959 . S
H1032 C1025 0.961 . S
H1033 C1025 0.960 . S
H1034 C1026 0.930 . S
H1035 C1027 0.929 . S
H1036 C1044 0.929 . S
H1037 C1046 0.930 . S
H1038 C1048 0.930 . S
H1039 C1051 0.929 . S
H1040 C1054 0.930 . S
H1041 C1056 0.960 . S
H1042 C1056 0.960 . S
H1043 C1056 0.960 . S
C1044 H1036 0.929 . S
C1044 C1045 1.377 . S
C1044 C1046 1.384 . S
C1045 C1044 1.377 . S
C1045 C1051 1.390 . S
C1046 H1037 0.930 . S
C1046 C1044 1.384 . S
C1046 C1047 1.372 . S
C1047 C1046 1.372 . S
C1047 C1048 1.400 . S
C1047 C1052 1.490 . S
C1048 H1038 0.930 . S
C1048 C1047 1.400 . S
C1048 C1051 1.386 . S
H1049 C1065 0.930 . S
H1050 C1066 0.931 . S
C1051 H1039 0.929 . S
C1051 C1045 1.390 . S
C1051 C1048 1.386 . S
C1052 C1047 1.490 . S
C1052 C1054 1.395 . S
C1052 C1055 1.403 . S
H1053 C1059 0.930 . S
C1054 H1040 0.930 . S
C1054 C1052 1.395 . S
C1054 C1057 1.403 . S
C1055 C1052 1.403 . S
C1055 C1056 1.524 . S
C1055 C1059 1.400 . S
C1056 H1041 0.960 . S
C1056 H1042 0.960 . S
C1056 H1043 0.960 . S
C1056 C1055 1.524 . S
C1057 C1054 1.403 . S
C1057 C1058 1.392 . S
C1057 C1061 1.495 . S
C1058 C1057 1.392 . S
C1058 C1059 1.385 . S
C1058 C1060 1.478 . S
C1059 H1053 0.930 . S
C1059 C1055 1.400 . S
C1059 C1058 1.385 . S
C1060 C1058 1.478 . S
C1060 C1062 1.381 . S
C1060 C1066 1.383 . S
C1061 C1057 1.495 . S
C1061 H1067 0.959 . S
C1061 H1068 0.961 . S
C1061 H1069 0.960 . S
C1062 C1060 1.381 . S
C1062 C1063 1.394 . S
C1062 H1070 0.930 . S
C1063 C1062 1.394 . S
C1063 C1064 1.383 . S
C1063 H1071 0.929 . S
C1064 C1063 1.383 . S
C1064 C1065 1.377 . S
C1065 H1049 0.930 . S
C1065 C1064 1.377 . S
C1065 C1066 1.379 . S
C1066 H1050 0.931 . S
C1066 C1060 1.383 . S
C1066 C1065 1.379 . S
H1067 C1061 0.959 . S
H1068 C1061 0.961 . S
H1069 C1061 0.960 . S
H1070 C1062 0.930 . S
H1071 C1063 0.929 . S
H1072 C1080 0.929 . S
H1073 C1082 0.930 . S
H1074 C1084 0.930 . S
H1075 C1087 0.929 . S
H1076 C1090 0.930 . S
H1077 C1092 0.960 . S
H1078 C1092 0.960 . S
H1079 C1092 0.960 . S
C1080 H1072 0.929 . S
C1080 C1081 1.377 . S
C1080 C1082 1.384 . S
C1081 C1080 1.377 . S
C1081 C1087 1.390 . S
C1082 H1073 0.930 . S
C1082 C1080 1.384 . S
C1082 C1083 1.372 . S
C1083 C1082 1.372 . S
C1083 C1084 1.400 . S
C1083 C1088 1.490 . S
C1084 H1074 0.930 . S
C1084 C1083 1.400 . S
C1084 C1087 1.386 . S
H1085 C1101 0.930 . S
H1086 C1102 0.931 . S
C1087 H1075 0.929 . S
C1087 C1081 1.390 . S
C1087 C1084 1.386 . S
C1088 C1083 1.490 . S
C1088 C1090 1.395 . S
C1088 C1091 1.403 . S
H1089 C1095 0.930 . S
C1090 H1076 0.930 . S
C1090 C1088 1.395 . S
C1090 C1093 1.403 . S
C1091 C1088 1.403 . S
C1091 C1092 1.524 . S
C1091 C1095 1.400 . S
C1092 H1077 0.960 . S
C1092 H1078 0.960 . S
C1092 H1079 0.960 . S
C1092 C1091 1.524 . S
C1093 C1090 1.403 . S
C1093 C1094 1.392 . S
C1093 C1097 1.495 . S
C1094 C1093 1.392 . S
C1094 C1095 1.385 . S
C1094 C1096 1.478 . S
C1095 H1089 0.930 . S
C1095 C1091 1.400 . S
C1095 C1094 1.385 . S
C1096 C1094 1.478 . S
C1096 C1098 1.381 . S
C1096 C1102 1.383 . S
C1097 C1093 1.495 . S
C1097 H1103 0.959 . S
C1097 H1104 0.961 . S
C1097 H1105 0.960 . S
C1098 C1096 1.381 . S
C1098 C1099 1.394 . S
C1098 H1106 0.930 . S
C1099 C1098 1.394 . S
C1099 C1100 1.383 . S
C1099 H1107 0.929 . S
C1100 C1099 1.383 . S
C1100 C1101 1.377 . S
C1101 H1085 0.930 . S
C1101 C1100 1.377 . S
C1101 C1102 1.379 . S
C1102 H1086 0.931 . S
C1102 C1096 1.383 . S
C1102 C1101 1.379 . S
H1103 C1097 0.959 . S
H1104 C1097 0.961 . S
H1105 C1097 0.960 . S
H1106 C1098 0.930 . S
H1107 C1099 0.929 . S
H1108 C1116 0.929 . S
H1109 C1118 0.930 . S
H1110 C1120 0.930 . S
H1111 C1123 0.929 . S
H1112 C1126 0.930 . S
H1113 C1128 0.960 . S
H1114 C1128 0.960 . S
H1115 C1128 0.960 . S
C1116 H1108 0.929 . S
C1116 C1117 1.377 . S
C1116 C1118 1.384 . S
C1117 C1116 1.377 . S
C1117 C1123 1.390 . S
C1118 H1109 0.930 . S
C1118 C1116 1.384 . S
C1118 C1119 1.372 . S
C1119 C1118 1.372 . S
C1119 C1120 1.400 . S
C1119 C1124 1.490 . S
C1120 H1110 0.930 . S
C1120 C1119 1.400 . S
C1120 C1123 1.386 . S
H1121 C1137 0.930 . S
H1122 C1138 0.931 . S
C1123 H1111 0.929 . S
C1123 C1117 1.390 . S
C1123 C1120 1.386 . S
C1124 C1119 1.490 . S
C1124 C1126 1.395 . S
C1124 C1127 1.403 . S
H1125 C1131 0.930 . S
C1126 H1112 0.930 . S
C1126 C1124 1.395 . S
C1126 C1129 1.403 . S
C1127 C1124 1.403 . S
C1127 C1128 1.524 . S
C1127 C1131 1.400 . S
C1128 H1113 0.960 . S
C1128 H1114 0.960 . S
C1128 H1115 0.960 . S
C1128 C1127 1.524 . S
C1129 C1126 1.403 . S
C1129 C1130 1.392 . S
C1129 C1133 1.495 . S
C1130 C1129 1.392 . S
C1130 C1131 1.385 . S
C1130 C1132 1.478 . S
C1131 H1125 0.930 . S
C1131 C1127 1.400 . S
C1131 C1130 1.385 . S
C1132 C1130 1.478 . S
C1132 C1134 1.381 . S
C1132 C1138 1.383 . S
C1133 C1129 1.495 . S
C1133 H1139 0.959 . S
C1133 H1140 0.961 . S
C1133 H1141 0.960 . S
C1134 C1132 1.381 . S
C1134 C1135 1.394 . S
C1134 H1142 0.930 . S
C1135 C1134 1.394 . S
C1135 C1136 1.383 . S
C1135 H1143 0.929 . S
C1136 C1135 1.383 . S
C1136 C1137 1.377 . S
C1137 H1121 0.930 . S
C1137 C1136 1.377 . S
C1137 C1138 1.379 . S
C1138 H1122 0.931 . S
C1138 C1132 1.383 . S
C1138 C1137 1.379 . S
H1139 C1133 0.959 . S
H1140 C1133 0.961 . S
H1141 C1133 0.960 . S
H1142 C1134 0.930 . S
H1143 C1135 0.929 . S
H1144 C1152 0.929 . S
H1145 C1154 0.930 . S
H1146 C1156 0.930 . S
H1147 C1159 0.929 . S
H1148 C1162 0.930 . S
H1149 C1164 0.960 . S
H1150 C1164 0.960 . S
H1151 C1164 0.960 . S
C1152 H1144 0.929 . S
C1152 C1153 1.377 . S
C1152 C1154 1.384 . S
C1153 C1152 1.377 . S
C1153 C1159 1.390 . S
C1154 H1145 0.930 . S
C1154 C1152 1.384 . S
C1154 C1155 1.372 . S
C1155 C1154 1.372 . S
C1155 C1156 1.400 . S
C1155 C1160 1.490 . S
C1156 H1146 0.930 . S
C1156 C1155 1.400 . S
C1156 C1159 1.386 . S
H1157 C1173 0.930 . S
H1158 C1174 0.931 . S
C1159 H1147 0.929 . S
C1159 C1153 1.390 . S
C1159 C1156 1.386 . S
C1160 C1155 1.490 . S
C1160 C1162 1.395 . S
C1160 C1163 1.403 . S
H1161 C1167 0.930 . S
C1162 H1148 0.930 . S
C1162 C1160 1.395 . S
C1162 C1165 1.403 . S
C1163 C1160 1.403 . S
C1163 C1164 1.524 . S
C1163 C1167 1.400 . S
C1164 H1149 0.960 . S
C1164 H1150 0.960 . S
C1164 H1151 0.960 . S
C1164 C1163 1.524 . S
C1165 C1162 1.403 . S
C1165 C1166 1.392 . S
C1165 C1169 1.495 . S
C1166 C1165 1.392 . S
C1166 C1167 1.385 . S
C1166 C1168 1.478 . S
C1167 H1161 0.930 . S
C1167 C1163 1.400 . S
C1167 C1166 1.385 . S
C1168 C1166 1.478 . S
C1168 C1170 1.381 . S
C1168 C1174 1.383 . S
C1169 C1165 1.495 . S
C1169 H1175 0.959 . S
C1169 H1176 0.961 . S
C1169 H1177 0.960 . S
C1170 C1168 1.381 . S
C1170 C1171 1.394 1_554 S
C1170 H1178 0.930 . S
C1171 C1170 1.394 1_556 S
C1171 C1172 1.383 . S
C1171 H1179 0.929 . S
C1172 C1171 1.383 . S
C1172 C1173 1.377 . S
C1173 H1157 0.930 . S
C1173 C1172 1.377 . S
C1173 C1174 1.379 1_556 S
C1174 H1158 0.931 . S
C1174 C1168 1.383 . S
C1174 C1173 1.379 1_554 S
H1175 C1169 0.959 . S
H1176 C1169 0.961 . S
H1177 C1169 0.960 . S
H1178 C1170 0.930 . S
H1179 C1171 0.929 . S
H1180 C1188 0.929 . S
H1181 C1190 0.930 . S
H1182 C1192 0.930 . S
H1183 C1195 0.929 . S
H1184 C1198 0.930 . S
H1185 C1200 0.960 . S
H1186 C1200 0.960 . S
H1187 C1200 0.960 . S
C1188 H1180 0.929 . S
C1188 C1189 1.377 . S
C1188 C1190 1.384 1_554 S
C1189 C1188 1.377 . S
C1189 C1195 1.390 . S
C1190 H1181 0.930 . S
C1190 C1188 1.384 1_556 S
C1190 C1191 1.372 . S
C1191 C1190 1.372 . S
C1191 C1192 1.400 . S
C1191 C1196 1.490 . S
C1192 H1182 0.930 . S
C1192 C1191 1.400 . S
C1192 C1195 1.386 1_556 S
H1193 C1209 0.930 . S
H1194 C1210 0.931 . S
C1195 H1183 0.929 . S
C1195 C1189 1.390 . S
C1195 C1192 1.386 1_554 S
C1196 C1191 1.490 . S
C1196 C1198 1.395 . S
C1196 C1199 1.403 . S
H1197 C1203 0.930 . S
C1198 H1184 0.930 . S
C1198 C1196 1.395 . S
C1198 C1201 1.403 . S
C1199 C1196 1.403 . S
C1199 C1200 1.524 . S
C1199 C1203 1.400 . S
C1200 H1185 0.960 . S
C1200 H1186 0.960 . S
C1200 H1187 0.960 . S
C1200 C1199 1.524 . S
C1201 C1198 1.403 . S
C1201 C1202 1.392 . S
C1201 C1205 1.495 . S
C1202 C1201 1.392 . S
C1202 C1203 1.385 . S
C1202 C1204 1.478 . S
C1203 H1197 0.930 . S
C1203 C1199 1.400 . S
C1203 C1202 1.385 . S
C1204 C1202 1.478 . S
C1204 C1206 1.381 . S
C1204 C1210 1.383 . S
C1205 C1201 1.495 . S
C1205 H1211 0.959 . S
C1205 H1212 0.961 . S
C1205 H1213 0.960 . S
C1206 C1204 1.381 . S
C1206 C1207 1.394 . S
C1206 H1214 0.930 . S
C1207 C1206 1.394 . S
C1207 C1208 1.383 . S
C1207 H1215 0.929 . S
C1208 C1207 1.383 . S
C1208 C1209 1.377 . S
C1209 H1193 0.930 . S
C1209 C1208 1.377 . S
C1209 C1210 1.379 . S
C1210 H1194 0.931 . S
C1210 C1204 1.383 . S
C1210 C1209 1.379 . S
H1211 C1205 0.959 . S
H1212 C1205 0.961 . S
H1213 C1205 0.960 . S
H1214 C1206 0.930 . S
H1215 C1207 0.929 . S
H1216 C1224 0.929 . S
H1217 C1226 0.930 . S
H1218 C1228 0.930 . S
H1219 C1231 0.929 . S
H1220 C1234 0.930 . S
H1221 C1236 0.960 . S
H1222 C1236 0.960 . S
H1223 C1236 0.960 . S
C1224 H1216 0.929 . S
C1224 C1225 1.377 . S
C1224 C1226 1.384 . S
C1225 C1224 1.377 . S
C1225 C1231 1.390 . S
C1226 H1217 0.930 . S
C1226 C1224 1.384 . S
C1226 C1227 1.372 . S
C1227 C1226 1.372 . S
C1227 C1228 1.400 . S
C1227 C1232 1.490 . S
C1228 H1218 0.930 . S
C1228 C1227 1.400 . S
C1228 C1231 1.386 . S
H1229 C1245 0.930 . S
H1230 C1246 0.931 . S
C1231 H1219 0.929 . S
C1231 C1225 1.390 . S
C1231 C1228 1.386 . S
C1232 C1227 1.490 . S
C1232 C1234 1.395 . S
C1232 C1235 1.403 . S
H1233 C1239 0.930 . S
C1234 H1220 0.930 . S
C1234 C1232 1.395 . S
C1234 C1237 1.403 . S
C1235 C1232 1.403 . S
C1235 C1236 1.524 . S
C1235 C1239 1.400 . S
C1236 H1221 0.960 . S
C1236 H1222 0.960 . S
C1236 H1223 0.960 . S
C1236 C1235 1.524 . S
C1237 C1234 1.403 . S
C1237 C1238 1.392 . S
C1237 C1241 1.495 . S
C1238 C1237 1.392 . S
C1238 C1239 1.385 . S
C1238 C1240 1.478 . S
C1239 H1233 0.930 . S
C1239 C1235 1.400 . S
C1239 C1238 1.385 . S
C1240 C1238 1.478 . S
C1240 C1242 1.381 . S
C1240 C1246 1.383 . S
C1241 C1237 1.495 . S
C1241 H1247 0.959 . S
C1241 H1248 0.961 . S
C1241 H1249 0.960 . S
C1242 C1240 1.381 . S
C1242 C1243 1.394 . S
C1242 H1250 0.930 . S
C1243 C1242 1.394 . S
C1243 C1244 1.383 . S
C1243 H1251 0.929 . S
C1244 C1243 1.383 . S
C1244 C1245 1.377 . S
C1245 H1229 0.930 . S
C1245 C1244 1.377 . S
C1245 C1246 1.379 . S
C1246 H1230 0.931 . S
C1246 C1240 1.383 . S
C1246 C1245 1.379 . S
H1247 C1241 0.959 . S
H1248 C1241 0.961 . S
H1249 C1241 0.960 . S
H1250 C1242 0.930 . S
H1251 C1243 0.929 . S
H1252 C1260 0.929 . S
H1253 C1262 0.930 . S
H1254 C1264 0.930 . S
H1255 C1267 0.929 . S
H1256 C1270 0.930 . S
H1257 C1272 0.960 . S
H1258 C1272 0.960 . S
H1259 C1272 0.960 . S
C1260 H1252 0.929 . S
C1260 C1261 1.377 . S
C1260 C1262 1.384 . S
C1261 C1260 1.377 . S
C1261 C1267 1.390 . S
C1262 H1253 0.930 . S
C1262 C1260 1.384 . S
C1262 C1263 1.372 . S
C1263 C1262 1.372 . S
C1263 C1264 1.400 . S
C1263 C1268 1.490 . S
C1264 H1254 0.930 . S
C1264 C1263 1.400 . S
C1264 C1267 1.386 . S
H1265 C1281 0.930 . S
H1266 C1282 0.931 . S
C1267 H1255 0.929 . S
C1267 C1261 1.390 . S
C1267 C1264 1.386 . S
C1268 C1263 1.490 . S
C1268 C1270 1.395 . S
C1268 C1271 1.403 . S
H1269 C1275 0.930 . S
C1270 H1256 0.930 . S
C1270 C1268 1.395 . S
C1270 C1273 1.403 . S
C1271 C1268 1.403 . S
C1271 C1272 1.524 . S
C1271 C1275 1.400 . S
C1272 H1257 0.960 . S
C1272 H1258 0.960 . S
C1272 H1259 0.960 . S
C1272 C1271 1.524 . S
C1273 C1270 1.403 . S
C1273 C1274 1.392 . S
C1273 C1277 1.495 . S
C1274 C1273 1.392 . S
C1274 C1275 1.385 . S
C1274 C1276 1.478 . S
C1275 H1269 0.930 . S
C1275 C1271 1.400 . S
C1275 C1274 1.385 . S
C1276 C1274 1.478 . S
C1276 C1278 1.381 . S
C1276 C1282 1.383 . S
C1277 C1273 1.495 . S
C1277 H1283 0.959 . S
C1277 H1284 0.961 . S
C1277 H1285 0.960 . S
C1278 C1276 1.381 . S
C1278 C1279 1.394 . S
C1278 H1286 0.930 . S
C1279 C1278 1.394 . S
C1279 C1280 1.383 . S
C1279 H1287 0.929 . S
C1280 C1279 1.383 . S
C1280 C1281 1.377 . S
C1281 H1265 0.930 . S
C1281 C1280 1.377 . S
C1281 C1282 1.379 . S
C1282 H1266 0.931 . S
C1282 C1276 1.383 . S
C1282 C1281 1.379 . S
H1283 C1277 0.959 . S
H1284 C1277 0.961 . S
H1285 C1277 0.960 . S
H1286 C1278 0.930 . S
H1287 C1279 0.929 . S
H1288 C1296 0.929 . S
H1289 C1298 0.930 . S
H1290 C1300 0.930 . S
H1291 C1303 0.929 . S
H1292 C1306 0.930 . S
H1293 C1308 0.960 . S
H1294 C1308 0.960 . S
H1295 C1308 0.960 . S
C1296 H1288 0.929 . S
C1296 C1297 1.377 . S
C1296 C1298 1.384 . S
C1297 C1296 1.377 . S
C1297 C1303 1.390 . S
C1298 H1289 0.930 . S
C1298 C1296 1.384 . S
C1298 C1299 1.372 . S
C1299 C1298 1.372 . S
C1299 C1300 1.400 . S
C1299 C1304 1.490 . S
C1300 H1290 0.930 . S
C1300 C1299 1.400 . S
C1300 C1303 1.386 . S
H1301 C1317 0.930 . S
H1302 C1318 0.931 . S
C1303 H1291 0.929 . S
C1303 C1297 1.390 . S
C1303 C1300 1.386 . S
C1304 C1299 1.490 . S
C1304 C1306 1.395 . S
C1304 C1307 1.403 . S
H1305 C1311 0.930 . S
C1306 H1292 0.930 . S
C1306 C1304 1.395 . S
C1306 C1309 1.403 . S
C1307 C1304 1.403 . S
C1307 C1308 1.524 . S
C1307 C1311 1.400 . S
C1308 H1293 0.960 . S
C1308 H1294 0.960 . S
C1308 H1295 0.960 . S
C1308 C1307 1.524 . S
C1309 C1306 1.403 . S
C1309 C1310 1.392 . S
C1309 C1313 1.495 . S
C1310 C1309 1.392 . S
C1310 C1311 1.385 . S
C1310 C1312 1.478 . S
C1311 H1305 0.930 . S
C1311 C1307 1.400 . S
C1311 C1310 1.385 . S
C1312 C1310 1.478 . S
C1312 C1314 1.381 . S
C1312 C1318 1.383 . S
C1313 C1309 1.495 . S
C1313 H1319 0.959 . S
C1313 H1320 0.961 . S
C1313 H1321 0.960 . S
C1314 C1312 1.381 . S
C1314 C1315 1.394 . S
C1314 H1322 0.930 . S
C1315 C1314 1.394 . S
C1315 C1316 1.383 . S
C1315 H1323 0.929 . S
C1316 C1315 1.383 . S
C1316 C1317 1.377 . S
C1317 H1301 0.930 . S
C1317 C1316 1.377 . S
C1317 C1318 1.379 . S
C1318 H1302 0.931 . S
C1318 C1312 1.383 . S
C1318 C1317 1.379 . S
H1319 C1313 0.959 . S
H1320 C1313 0.961 . S
H1321 C1313 0.960 . S
H1322 C1314 0.930 . S
H1323 C1315 0.929 . S
H1324 C1332 0.929 . S
H1325 C1334 0.930 . S
H1326 C1336 0.930 . S
H1327 C1339 0.929 . S
H1328 C1342 0.930 . S
H1329 C1344 0.960 . S
H1330 C1344 0.960 . S
H1331 C1344 0.960 . S
C1332 H1324 0.929 . S
C1332 C1333 1.377 . S
C1332 C1334 1.384 . S
C1333 C1332 1.377 . S
C1333 C1339 1.390 . S
C1334 H1325 0.930 . S
C1334 C1332 1.384 . S
C1334 C1335 1.372 . S
C1335 C1334 1.372 . S
C1335 C1336 1.400 . S
C1335 C1340 1.490 . S
C1336 H1326 0.930 . S
C1336 C1335 1.400 . S
C1336 C1339 1.386 . S
H1337 C1353 0.930 . S
H1338 C1354 0.931 . S
C1339 H1327 0.929 . S
C1339 C1333 1.390 . S
C1339 C1336 1.386 . S
C1340 C1335 1.490 . S
C1340 C1342 1.395 . S
C1340 C1343 1.403 . S
H1341 C1347 0.930 . S
C1342 H1328 0.930 . S
C1342 C1340 1.395 . S
C1342 C1345 1.403 1_655 S
C1343 C1340 1.403 . S
C1343 C1344 1.524 . S
C1343 C1347 1.400 1_655 S
C1344 H1329 0.960 . S
C1344 H1330 0.960 . S
C1344 H1331 0.960 . S
C1344 C1343 1.524 . S
C1345 C1342 1.403 1_455 S
C1345 C1346 1.392 . S
C1345 C1349 1.495 . S
C1346 C1345 1.392 . S
C1346 C1347 1.385 . S
C1346 C1348 1.478 . S
C1347 H1341 0.930 . S
C1347 C1343 1.400 1_455 S
C1347 C1346 1.385 . S
C1348 C1346 1.478 . S
C1348 C1350 1.381 . S
C1348 C1354 1.383 . S
C1349 C1345 1.495 . S
C1349 H1355 0.959 . S
C1349 H1356 0.961 . S
C1349 H1357 0.960 . S
C1350 C1348 1.381 . S
C1350 C1351 1.394 . S
C1350 H1358 0.930 . S
C1351 C1350 1.394 . S
C1351 C1352 1.383 . S
C1351 H1359 0.929 . S
C1352 C1351 1.383 . S
C1352 C1353 1.377 . S
C1353 H1337 0.930 . S
C1353 C1352 1.377 . S
C1353 C1354 1.379 . S
C1354 H1338 0.931 . S
C1354 C1348 1.383 . S
C1354 C1353 1.379 . S
H1355 C1349 0.959 . S
H1356 C1349 0.961 . S
H1357 C1349 0.960 . S
H1358 C1350 0.930 . S
H1359 C1351 0.929 . S
H1360 C1368 0.929 . S
H1361 C1370 0.930 . S
H1362 C1372 0.930 . S
H1363 C1375 0.929 . S
H1364 C1378 0.930 . S
H1365 C1380 0.960 . S
H1366 C1380 0.960 . S
H1367 C1380 0.960 . S
C1368 H1360 0.929 . S
C1368 C1369 1.377 . S
C1368 C1370 1.384 . S
C1369 C1368 1.377 . S
C1369 C1375 1.390 . S
C1370 H1361 0.930 . S
C1370 C1368 1.384 . S
C1370 C1371 1.372 . S
C1371 C1370 1.372 . S
C1371 C1372 1.400 . S
C1371 C1376 1.490 . S
C1372 H1362 0.930 . S
C1372 C1371 1.400 . S
C1372 C1375 1.386 . S
H1373 C1389 0.930 . S
H1374 C1390 0.931 . S
C1375 H1363 0.929 . S
C1375 C1369 1.390 . S
C1375 C1372 1.386 . S
C1376 C1371 1.490 . S
C1376 C1378 1.395 . S
C1376 C1379 1.403 . S
H1377 C1383 0.930 . S
C1378 H1364 0.930 . S
C1378 C1376 1.395 . S
C1378 C1381 1.403 . S
C1379 C1376 1.403 . S
C1379 C1380 1.524 . S
C1379 C1383 1.400 . S
C1380 H1365 0.960 . S
C1380 H1366 0.960 . S
C1380 H1367 0.960 . S
C1380 C1379 1.524 . S
C1381 C1378 1.403 . S
C1381 C1382 1.392 . S
C1381 C1385 1.495 . S
C1382 C1381 1.392 . S
C1382 C1383 1.385 . S
C1382 C1384 1.478 . S
C1383 H1377 0.930 . S
C1383 C1379 1.400 . S
C1383 C1382 1.385 . S
C1384 C1382 1.478 . S
C1384 C1386 1.381 . S
C1384 C1390 1.383 . S
C1385 C1381 1.495 . S
C1385 H1391 0.959 . S
C1385 H1392 0.961 . S
C1385 H1393 0.960 . S
C1386 C1384 1.381 . S
C1386 C1387 1.394 . S
C1386 H1394 0.930 . S
C1387 C1386 1.394 . S
C1387 C1388 1.383 . S
C1387 H1395 0.929 . S
C1388 C1387 1.383 . S
C1388 C1389 1.377 . S
C1389 H1373 0.930 . S
C1389 C1388 1.377 . S
C1389 C1390 1.379 . S
C1390 H1374 0.931 . S
C1390 C1384 1.383 . S
C1390 C1389 1.379 . S
H1391 C1385 0.959 . S
H1392 C1385 0.961 . S
H1393 C1385 0.960 . S
H1394 C1386 0.930 . S
H1395 C1387 0.929 . S
H1396 C1404 0.929 . S
H1397 C1406 0.930 . S
H1398 C1408 0.930 . S
H1399 C1411 0.929 . S
H1400 C1414 0.930 . S
H1401 C1416 0.960 . S
H1402 C1416 0.960 . S
H1403 C1416 0.960 . S
C1404 H1396 0.929 . S
C1404 C1405 1.377 . S
C1404 C1406 1.384 . S
C1405 C1404 1.377 . S
C1405 C1411 1.390 . S
C1406 H1397 0.930 . S
C1406 C1404 1.384 . S
C1406 C1407 1.372 . S
C1407 C1406 1.372 . S
C1407 C1408 1.400 . S
C1407 C1412 1.490 . S
C1408 H1398 0.930 . S
C1408 C1407 1.400 . S
C1408 C1411 1.386 . S
H1409 C1425 0.930 . S
H1410 C1426 0.931 . S
C1411 H1399 0.929 . S
C1411 C1405 1.390 . S
C1411 C1408 1.386 . S
C1412 C1407 1.490 . S
C1412 C1414 1.395 . S
C1412 C1415 1.403 . S
H1413 C1419 0.930 . S
C1414 H1400 0.930 . S
C1414 C1412 1.395 . S
C1414 C1417 1.403 1_455 S
C1415 C1412 1.403 . S
C1415 C1416 1.524 . S
C1415 C1419 1.400 1_455 S
C1416 H1401 0.960 . S
C1416 H1402 0.960 . S
C1416 H1403 0.960 . S
C1416 C1415 1.524 . S
C1417 C1414 1.403 1_655 S
C1417 C1418 1.392 . S
C1417 C1421 1.495 . S
C1418 C1417 1.392 . S
C1418 C1419 1.385 . S
C1418 C1420 1.478 . S
C1419 H1413 0.930 . S
C1419 C1415 1.400 1_655 S
C1419 C1418 1.385 . S
C1420 C1418 1.478 . S
C1420 C1422 1.381 . S
C1420 C1426 1.383 . S
C1421 C1417 1.495 . S
C1421 H1427 0.959 . S
C1421 H1428 0.961 . S
C1421 H1429 0.960 . S
C1422 C1420 1.381 . S
C1422 C1423 1.394 . S
C1422 H1430 0.930 . S
C1423 C1422 1.394 . S
C1423 C1424 1.383 . S
C1423 H1431 0.929 . S
C1424 C1423 1.383 . S
C1424 C1425 1.377 . S
C1425 H1409 0.930 . S
C1425 C1424 1.377 . S
C1425 C1426 1.379 . S
C1426 H1410 0.931 . S
C1426 C1420 1.383 . S
C1426 C1425 1.379 . S
H1427 C1421 0.959 . S
H1428 C1421 0.961 . S
H1429 C1421 0.960 . S
H1430 C1422 0.930 . S
H1431 C1423 0.929 . S
H1432 C1440 0.929 . S
H1433 C1442 0.930 . S
H1434 C1444 0.930 . S
H1435 C1447 0.929 . S
H1436 C1450 0.930 . S
H1437 C1452 0.960 . S
H1438 C1452 0.960 . S
H1439 C1452 0.960 . S
C1440 H1432 0.929 . S
C1440 C1441 1.377 . S
C1440 C1442 1.384 . S
C1441 C1440 1.377 . S
C1441 C1447 1.390 . S
C1442 H1433 0.930 . S
C1442 C1440 1.384 . S
C1442 C1443 1.372 . S
C1443 C1442 1.372 . S
C1443 C1444 1.400 . S
C1443 C1448 1.490 . S
C1444 H1434 0.930 . S
C1444 C1443 1.400 . S
C1444 C1447 1.386 . S
H1445 C1461 0.930 . S
H1446 C1462 0.931 . S
C1447 H1435 0.929 . S
C1447 C1441 1.390 . S
C1447 C1444 1.386 . S
C1448 C1443 1.490 . S
C1448 C1450 1.395 . S
C1448 C1451 1.403 . S
H1449 C1455 0.930 . S
C1450 H1436 0.930 . S
C1450 C1448 1.395 . S
C1450 C1453 1.403 . S
C1451 C1448 1.403 . S
C1451 C1452 1.524 . S
C1451 C1455 1.400 . S
C1452 H1437 0.960 . S
C1452 H1438 0.960 . S
C1452 H1439 0.960 . S
C1452 C1451 1.524 . S
C1453 C1450 1.403 . S
C1453 C1454 1.392 . S
C1453 C1457 1.495 . S
C1454 C1453 1.392 . S
C1454 C1455 1.385 . S
C1454 C1456 1.478 . S
C1455 H1449 0.930 . S
C1455 C1451 1.400 . S
C1455 C1454 1.385 . S
C1456 C1454 1.478 . S
C1456 C1458 1.381 . S
C1456 C1462 1.383 . S
C1457 C1453 1.495 . S
C1457 H1463 0.959 . S
C1457 H1464 0.961 . S
C1457 H1465 0.960 . S
C1458 C1456 1.381 . S
C1458 C1459 1.394 . S
C1458 H1466 0.930 . S
C1459 C1458 1.394 . S
C1459 C1460 1.383 . S
C1459 H1467 0.929 . S
C1460 C1459 1.383 . S
C1460 C1461 1.377 . S
C1461 H1445 0.930 . S
C1461 C1460 1.377 . S
C1461 C1462 1.379 . S
C1462 H1446 0.931 . S
C1462 C1456 1.383 . S
C1462 C1461 1.379 . S
H1463 C1457 0.959 . S
H1464 C1457 0.961 . S
H1465 C1457 0.960 . S
H1466 C1458 0.930 . S
H1467 C1459 0.929 . S
H1468 C1476 0.929 . S
H1469 C1478 0.930 . S
H1470 C1480 0.930 . S
H1471 C1483 0.929 . S
H1472 C1486 0.930 . S
H1473 C1488 0.960 . S
H1474 C1488 0.960 . S
H1475 C1488 0.960 . S
C1476 H1468 0.929 . S
C1476 C1477 1.377 . S
C1476 C1478 1.384 . S
C1477 C1476 1.377 . S
C1477 C1483 1.390 . S
C1478 H1469 0.930 . S
C1478 C1476 1.384 . S
C1478 C1479 1.372 . S
C1479 C1478 1.372 . S
C1479 C1480 1.400 . S
C1479 C1484 1.490 . S
C1480 H1470 0.930 . S
C1480 C1479 1.400 . S
C1480 C1483 1.386 . S
H1481 C1497 0.930 . S
H1482 C1498 0.931 . S
C1483 H1471 0.929 . S
C1483 C1477 1.390 . S
C1483 C1480 1.386 . S
C1484 C1479 1.490 . S
C1484 C1486 1.395 . S
C1484 C1487 1.403 . S
H1485 C1491 0.930 . S
C1486 H1472 0.930 . S
C1486 C1484 1.395 . S
C1486 C1489 1.403 . S
C1487 C1484 1.403 . S
C1487 C1488 1.524 . S
C1487 C1491 1.400 . S
C1488 H1473 0.960 . S
C1488 H1474 0.960 . S
C1488 H1475 0.960 . S
C1488 C1487 1.524 . S
C1489 C1486 1.403 . S
C1489 C1490 1.392 . S
C1489 C1493 1.495 . S
C1490 C1489 1.392 . S
C1490 C1491 1.385 . S
C1490 C1492 1.478 . S
C1491 H1485 0.930 . S
C1491 C1487 1.400 . S
C1491 C1490 1.385 . S
C1492 C1490 1.478 . S
C1492 C1494 1.381 . S
C1492 C1498 1.383 . S
C1493 C1489 1.495 . S
C1493 H1499 0.959 . S
C1493 H1500 0.961 . S
C1493 H1501 0.960 . S
C1494 C1492 1.381 . S
C1494 C1495 1.394 . S
C1494 H1502 0.930 . S
C1495 C1494 1.394 . S
C1495 C1496 1.383 . S
C1495 H1503 0.929 . S
C1496 C1495 1.383 . S
C1496 C1497 1.377 . S
C1497 H1481 0.930 . S
C1497 C1496 1.377 . S
C1497 C1498 1.379 . S
C1498 H1482 0.931 . S
C1498 C1492 1.383 . S
C1498 C1497 1.379 . S
H1499 C1493 0.959 . S
H1500 C1493 0.961 . S
H1501 C1493 0.960 . S
H1502 C1494 0.930 . S
H1503 C1495 0.929 . S
H1504 C1512 0.929 . S
H1505 C1514 0.930 . S
H1506 C1516 0.930 . S
H1507 C1519 0.929 . S
H1508 C1522 0.930 . S
H1509 C1524 0.960 . S
H1510 C1524 0.960 . S
H1511 C1524 0.960 . S
C1512 H1504 0.929 . S
C1512 C1513 1.377 . S
C1512 C1514 1.384 . S
C1513 C1512 1.377 . S
C1513 C1519 1.390 . S
C1514 H1505 0.930 . S
C1514 C1512 1.384 . S
C1514 C1515 1.372 . S
C1515 C1514 1.372 . S
C1515 C1516 1.400 . S
C1515 C1520 1.490 . S
C1516 H1506 0.930 . S
C1516 C1515 1.400 . S
C1516 C1519 1.386 . S
H1517 C1533 0.930 . S
H1518 C1534 0.931 . S
C1519 H1507 0.929 . S
C1519 C1513 1.390 . S
C1519 C1516 1.386 . S
C1520 C1515 1.490 . S
C1520 C1522 1.395 . S
C1520 C1523 1.403 . S
H1521 C1527 0.930 . S
C1522 H1508 0.930 . S
C1522 C1520 1.395 . S
C1522 C1525 1.403 . S
C1523 C1520 1.403 . S
C1523 C1524 1.524 . S
C1523 C1527 1.400 . S
C1524 H1509 0.960 . S
C1524 H1510 0.960 . S
C1524 H1511 0.960 . S
C1524 C1523 1.524 . S
C1525 C1522 1.403 . S
C1525 C1526 1.392 . S
C1525 C1529 1.495 . S
C1526 C1525 1.392 . S
C1526 C1527 1.385 . S
C1526 C1528 1.478 . S
C1527 H1521 0.930 . S
C1527 C1523 1.400 . S
C1527 C1526 1.385 . S
C1528 C1526 1.478 . S
C1528 C1530 1.381 . S
C1528 C1534 1.383 . S
C1529 C1525 1.495 . S
C1529 H1535 0.959 . S
C1529 H1536 0.961 . S
C1529 H1537 0.960 . S
C1530 C1528 1.381 . S
C1530 C1531 1.394 . S
C1530 H1538 0.930 . S
C1531 C1530 1.394 . S
C1531 C1532 1.383 . S
C1531 H1539 0.929 . S
C1532 C1531 1.383 . S
C1532 C1533 1.377 . S
C1533 H1517 0.930 . S
C1533 C1532 1.377 . S
C1533 C1534 1.379 . S
C1534 H1518 0.931 . S
C1534 C1528 1.383 . S
C1534 C1533 1.379 . S
H1535 C1529 0.959 . S
H1536 C1529 0.961 . S
H1537 C1529 0.960 . S
H1538 C1530 0.930 . S
H1539 C1531 0.929 . S
H1540 C1548 0.929 . S
H1541 C1550 0.930 . S
H1542 C1552 0.930 . S
H1543 C1555 0.929 . S
H1544 C1558 0.930 . S
H1545 C1560 0.960 . S
H1546 C1560 0.960 . S
H1547 C1560 0.960 . S
C1548 H1540 0.929 . S
C1548 C1549 1.377 . S
C1548 C1550 1.384 . S
C1549 C1548 1.377 . S
C1549 C1555 1.390 . S
C1550 H1541 0.930 . S
C1550 C1548 1.384 . S
C1550 C1551 1.372 . S
C1551 C1550 1.372 . S
C1551 C1552 1.400 . S
C1551 C1556 1.490 . S
C1552 H1542 0.930 . S
C1552 C1551 1.400 . S
C1552 C1555 1.386 . S
H1553 C1569 0.930 . S
H1554 C1570 0.931 . S
C1555 H1543 0.929 . S
C1555 C1549 1.390 . S
C1555 C1552 1.386 . S
C1556 C1551 1.490 . S
C1556 C1558 1.395 . S
C1556 C1559 1.403 . S
H1557 C1563 0.930 . S
C1558 H1544 0.930 . S
C1558 C1556 1.395 . S
C1558 C1561 1.403 . S
C1559 C1556 1.403 . S
C1559 C1560 1.524 . S
C1559 C1563 1.400 . S
C1560 H1545 0.960 . S
C1560 H1546 0.960 . S
C1560 H1547 0.960 . S
C1560 C1559 1.524 . S
C1561 C1558 1.403 . S
C1561 C1562 1.392 . S
C1561 C1565 1.495 . S
C1562 C1561 1.392 . S
C1562 C1563 1.385 . S
C1562 C1564 1.478 . S
C1563 H1557 0.930 . S
C1563 C1559 1.400 . S
C1563 C1562 1.385 . S
C1564 C1562 1.478 . S
C1564 C1566 1.381 . S
C1564 C1570 1.383 . S
C1565 C1561 1.495 . S
C1565 H1571 0.959 . S
C1565 H1572 0.961 . S
C1565 H1573 0.960 . S
C1566 C1564 1.381 . S
C1566 C1567 1.394 . S
C1566 H1574 0.930 . S
C1567 C1566 1.394 . S
C1567 C1568 1.383 . S
C1567 H1575 0.929 . S
C1568 C1567 1.383 . S
C1568 C1569 1.377 . S
C1569 H1553 0.930 . S
C1569 C1568 1.377 . S
C1569 C1570 1.379 . S
C1570 H1554 0.931 . S
C1570 C1564 1.383 . S
C1570 C1569 1.379 . S
H1571 C1565 0.959 . S
H1572 C1565 0.961 . S
H1573 C1565 0.960 . S
H1574 C1566 0.930 . S
H1575 C1567 0.929 . S
H1576 C1584 0.929 . S
H1577 C1586 0.930 . S
H1578 C1588 0.930 . S
H1579 C1591 0.929 . S
H1580 C1594 0.930 . S
H1581 C1596 0.960 . S
H1582 C1596 0.960 . S
H1583 C1596 0.960 . S
C1584 H1576 0.929 . S
C1584 C1585 1.377 . S
C1584 C1586 1.384 . S
C1585 C1584 1.377 . S
C1585 C1591 1.390 . S
C1586 H1577 0.930 . S
C1586 C1584 1.384 . S
C1586 C1587 1.372 . S
C1587 C1586 1.372 . S
C1587 C1588 1.400 . S
C1587 C1592 1.490 . S
C1588 H1578 0.930 . S
C1588 C1587 1.400 . S
C1588 C1591 1.386 . S
H1589 C1605 0.930 . S
H1590 C1606 0.931 . S
C1591 H1579 0.929 . S
C1591 C1585 1.390 . S
C1591 C1588 1.386 . S
C1592 C1587 1.490 . S
C1592 C1594 1.395 . S
C1592 C1595 1.403 . S
H1593 C1599 0.930 . S
C1594 H1580 0.930 . S
C1594 C1592 1.395 . S
C1594 C1597 1.403 . S
C1595 C1592 1.403 . S
C1595 C1596 1.524 . S
C1595 C1599 1.400 . S
C1596 H1581 0.960 . S
C1596 H1582 0.960 . S
C1596 H1583 0.960 . S
C1596 C1595 1.524 . S
C1597 C1594 1.403 . S
C1597 C1598 1.392 . S
C1597 C1601 1.495 . S
C1598 C1597 1.392 . S
C1598 C1599 1.385 . S
C1598 C1600 1.478 . S
C1599 H1593 0.930 . S
C1599 C1595 1.400 . S
C1599 C1598 1.385 . S
C1600 C1598 1.478 . S
C1600 C1602 1.381 . S
C1600 C1606 1.383 . S
C1601 C1597 1.495 . S
C1601 H1607 0.959 . S
C1601 H1608 0.961 . S
C1601 H1609 0.960 . S
C1602 C1600 1.381 . S
C1602 C1603 1.394 . S
C1602 H1610 0.930 . S
C1603 C1602 1.394 . S
C1603 C1604 1.383 . S
C1603 H1611 0.929 . S
C1604 C1603 1.383 . S
C1604 C1605 1.377 . S
C1605 H1589 0.930 . S
C1605 C1604 1.377 . S
C1605 C1606 1.379 . S
C1606 H1590 0.931 . S
C1606 C1600 1.383 . S
C1606 C1605 1.379 . S
H1607 C1601 0.959 . S
H1608 C1601 0.961 . S
H1609 C1601 0.960 . S
H1610 C1602 0.930 . S
H1611 C1603 0.929 . S
H1612 C1620 0.929 . S
H1613 C1622 0.930 . S
H1614 C1624 0.930 . S
H1615 C1627 0.929 . S
H1616 C1630 0.930 . S
H1617 C1632 0.960 . S
H1618 C1632 0.960 . S
H1619 C1632 0.960 . S
C1620 H1612 0.929 . S
C1620 C1621 1.377 . S
C1620 C1622 1.384 . S
C1621 C1620 1.377 . S
C1621 C1627 1.390 . S
C1622 H1613 0.930 . S
C1622 C1620 1.384 . S
C1622 C1623 1.372 . S
C1623 C1622 1.372 . S
C1623 C1624 1.400 . S
C1623 C1628 1.490 . S
C1624 H1614 0.930 . S
C1624 C1623 1.400 . S
C1624 C1627 1.386 . S
H1625 C1641 0.930 . S
H1626 C1642 0.931 . S
C1627 H1615 0.929 . S
C1627 C1621 1.390 . S
C1627 C1624 1.386 . S
C1628 C1623 1.490 . S
C1628 C1630 1.395 . S
C1628 C1631 1.403 . S
H1629 C1635 0.930 . S
C1630 H1616 0.930 . S
C1630 C1628 1.395 . S
C1630 C1633 1.403 . S
C1631 C1628 1.403 . S
C1631 C1632 1.524 . S
C1631 C1635 1.400 . S
C1632 H1617 0.960 . S
C1632 H1618 0.960 . S
C1632 H1619 0.960 . S
C1632 C1631 1.524 . S
C1633 C1630 1.403 . S
C1633 C1634 1.392 . S
C1633 C1637 1.495 . S
C1634 C1633 1.392 . S
C1634 C1635 1.385 . S
C1634 C1636 1.478 . S
C1635 H1629 0.930 . S
C1635 C1631 1.400 . S
C1635 C1634 1.385 . S
C1636 C1634 1.478 . S
C1636 C1638 1.381 . S
C1636 C1642 1.383 . S
C1637 C1633 1.495 . S
C1637 H1643 0.959 . S
C1637 H1644 0.961 . S
C1637 H1645 0.960 . S
C1638 C1636 1.381 . S
C1638 C1639 1.394 . S
C1638 H1646 0.930 . S
C1639 C1638 1.394 . S
C1639 C1640 1.383 . S
C1639 H1647 0.929 . S
C1640 C1639 1.383 . S
C1640 C1641 1.377 . S
C1641 H1625 0.930 . S
C1641 C1640 1.377 . S
C1641 C1642 1.379 . S
C1642 H1626 0.931 . S
C1642 C1636 1.383 . S
C1642 C1641 1.379 . S
H1643 C1637 0.959 . S
H1644 C1637 0.961 . S
H1645 C1637 0.960 . S
H1646 C1638 0.930 . S
H1647 C1639 0.929 . S
H1648 C1656 0.929 . S
H1649 C1658 0.930 . S
H1650 C1660 0.930 . S
H1651 C1663 0.929 . S
H1652 C1666 0.930 . S
H1653 C1668 0.960 . S
H1654 C1668 0.960 . S
H1655 C1668 0.960 . S
C1656 H1648 0.929 . S
C1656 C1657 1.377 . S
C1656 C1658 1.384 . S
C1657 C1656 1.377 . S
C1657 C1663 1.390 . S
C1658 H1649 0.930 . S
C1658 C1656 1.384 . S
C1658 C1659 1.372 . S
C1659 C1658 1.372 . S
C1659 C1660 1.400 . S
C1659 C1664 1.490 . S
C1660 H1650 0.930 . S
C1660 C1659 1.400 . S
C1660 C1663 1.386 . S
H1661 C1677 0.930 . S
H1662 C1678 0.931 . S
C1663 H1651 0.929 . S
C1663 C1657 1.390 . S
C1663 C1660 1.386 . S
C1664 C1659 1.490 . S
C1664 C1666 1.395 . S
C1664 C1667 1.403 . S
H1665 C1671 0.930 . S
C1666 H1652 0.930 . S
C1666 C1664 1.395 . S
C1666 C1669 1.403 1_655 S
C1667 C1664 1.403 . S
C1667 C1668 1.524 . S
C1667 C1671 1.400 1_655 S
C1668 H1653 0.960 . S
C1668 H1654 0.960 . S
C1668 H1655 0.960 . S
C1668 C1667 1.524 . S
C1669 C1666 1.403 1_455 S
C1669 C1670 1.392 . S
C1669 C1673 1.495 1_556 S
C1670 C1669 1.392 . S
C1670 C1671 1.385 . S
C1670 C1672 1.478 . S
C1671 H1665 0.930 . S
C1671 C1667 1.400 1_455 S
C1671 C1670 1.385 . S
C1672 C1670 1.478 . S
C1672 C1674 1.381 . S
C1672 C1678 1.383 . S
C1673 C1669 1.495 1_554 S
C1673 H1679 0.959 . S
C1673 H1680 0.961 . S
C1673 H1681 0.960 . S
C1674 C1672 1.381 . S
C1674 C1675 1.394 . S
C1674 H1682 0.930 . S
C1675 C1674 1.394 . S
C1675 C1676 1.383 . S
C1675 H1683 0.929 . S
C1676 C1675 1.383 . S
C1676 C1677 1.377 . S
C1677 H1661 0.930 . S
C1677 C1676 1.377 . S
C1677 C1678 1.379 . S
C1678 H1662 0.931 . S
C1678 C1672 1.383 . S
C1678 C1677 1.379 . S
H1679 C1673 0.959 . S
H1680 C1673 0.961 . S
H1681 C1673 0.960 . S
H1682 C1674 0.930 . S
H1683 C1675 0.929 . S
H1684 C1692 0.929 . S
H1685 C1694 0.930 . S
H1686 C1696 0.930 . S
H1687 C1699 0.929 . S
H1688 C1702 0.930 . S
H1689 C1704 0.960 . S
H1690 C1704 0.960 . S
H1691 C1704 0.960 . S
C1692 H1684 0.929 . S
C1692 C1693 1.377 . S
C1692 C1694 1.384 . S
C1693 C1692 1.377 . S
C1693 C1699 1.390 . S
C1694 H1685 0.930 . S
C1694 C1692 1.384 . S
C1694 C1695 1.372 . S
C1695 C1694 1.372 . S
C1695 C1696 1.400 . S
C1695 C1700 1.490 . S
C1696 H1686 0.930 . S
C1696 C1695 1.400 . S
C1696 C1699 1.386 . S
H1697 C1713 0.930 . S
H1698 C1714 0.931 . S
C1699 H1687 0.929 . S
C1699 C1693 1.390 . S
C1699 C1696 1.386 . S
C1700 C1695 1.490 . S
C1700 C1702 1.395 . S
C1700 C1703 1.403 . S
H1701 C1707 0.930 . S
C1702 H1688 0.930 . S
C1702 C1700 1.395 . S
C1702 C1705 1.403 . S
C1703 C1700 1.403 . S
C1703 C1704 1.524 . S
C1703 C1707 1.400 . S
C1704 H1689 0.960 . S
C1704 H1690 0.960 . S
C1704 H1691 0.960 . S
C1704 C1703 1.524 . S
C1705 C1702 1.403 . S
C1705 C1706 1.392 . S
C1705 C1709 1.495 . S
C1706 C1705 1.392 . S
C1706 C1707 1.385 . S
C1706 C1708 1.478 . S
C1707 H1701 0.930 . S
C1707 C1703 1.400 . S
C1707 C1706 1.385 . S
C1708 C1706 1.478 . S
C1708 C1710 1.381 . S
C1708 C1714 1.383 . S
C1709 C1705 1.495 . S
C1709 H1715 0.959 . S
C1709 H1716 0.961 . S
C1709 H1717 0.960 . S
C1710 C1708 1.381 . S
C1710 C1711 1.394 . S
C1710 H1718 0.930 . S
C1711 C1710 1.394 . S
C1711 C1712 1.383 . S
C1711 H1719 0.929 . S
C1712 C1711 1.383 . S
C1712 C1713 1.377 . S
C1713 H1697 0.930 . S
C1713 C1712 1.377 . S
C1713 C1714 1.379 . S
C1714 H1698 0.931 . S
C1714 C1708 1.383 . S
C1714 C1713 1.379 . S
H1715 C1709 0.959 . S
H1716 C1709 0.961 . S
H1717 C1709 0.960 . S
H1718 C1710 0.930 . S
H1719 C1711 0.929 . S
H1720 C1728 0.929 . S
H1721 C1730 0.930 . S
H1722 C1732 0.930 . S
H1723 C1735 0.929 . S
H1724 C1738 0.930 . S
H1725 C1740 0.960 . S
H1726 C1740 0.960 . S
H1727 C1740 0.960 . S
C1728 H1720 0.929 . S
C1728 C1729 1.377 . S
C1728 C1730 1.384 . S
C1729 C1728 1.377 . S
C1729 C1735 1.390 . S
C1730 H1721 0.930 . S
C1730 C1728 1.384 . S
C1730 C1731 1.372 . S
C1731 C1730 1.372 . S
C1731 C1732 1.400 . S
C1731 C1736 1.490 . S
C1732 H1722 0.930 . S
C1732 C1731 1.400 . S
C1732 C1735 1.386 . S
H1733 C1749 0.930 . S
H1734 C1750 0.931 . S
C1735 H1723 0.929 . S
C1735 C1729 1.390 . S
C1735 C1732 1.386 . S
C1736 C1731 1.490 . S
C1736 C1738 1.395 . S
C1736 C1739 1.403 . S
H1737 C1743 0.930 . S
C1738 H1724 0.930 . S
C1738 C1736 1.395 . S
C1738 C1741 1.403 . S
C1739 C1736 1.403 . S
C1739 C1740 1.524 . S
C1739 C1743 1.400 . S
C1740 H1725 0.960 . S
C1740 H1726 0.960 . S
C1740 H1727 0.960 . S
C1740 C1739 1.524 . S
C1741 C1738 1.403 . S
C1741 C1742 1.392 . S
C1741 C1745 1.495 . S
C1742 C1741 1.392 . S
C1742 C1743 1.385 . S
C1742 C1744 1.478 . S
C1743 H1737 0.930 . S
C1743 C1739 1.400 . S
C1743 C1742 1.385 . S
C1744 C1742 1.478 . S
C1744 C1746 1.381 . S
C1744 C1750 1.383 . S
C1745 C1741 1.495 . S
C1745 H1751 0.959 . S
C1745 H1752 0.961 . S
C1745 H1753 0.960 . S
C1746 C1744 1.381 . S
C1746 C1747 1.394 . S
C1746 H1754 0.930 . S
C1747 C1746 1.394 . S
C1747 C1748 1.383 . S
C1747 H1755 0.929 . S
C1748 C1747 1.383 . S
C1748 C1749 1.377 . S
C1749 H1733 0.930 . S
C1749 C1748 1.377 . S
C1749 C1750 1.379 . S
C1750 H1734 0.931 . S
C1750 C1744 1.383 . S
C1750 C1749 1.379 . S
H1751 C1745 0.959 . S
H1752 C1745 0.961 . S
H1753 C1745 0.960 . S
H1754 C1746 0.930 . S
H1755 C1747 0.929 . S
H1756 C1764 0.929 . S
H1757 C1766 0.930 . S
H1758 C1768 0.930 . S
H1759 C1771 0.929 . S
H1760 C1774 0.930 . S
H1761 C1776 0.960 . S
H1762 C1776 0.960 . S
H1763 C1776 0.960 . S
C1764 H1756 0.929 . S
C1764 C1765 1.377 . S
C1764 C1766 1.384 . S
C1765 C1764 1.377 . S
C1765 C1771 1.390 . S
C1766 H1757 0.930 . S
C1766 C1764 1.384 . S
C1766 C1767 1.372 . S
C1767 C1766 1.372 . S
C1767 C1768 1.400 . S
C1767 C1772 1.490 . S
C1768 H1758 0.930 . S
C1768 C1767 1.400 . S
C1768 C1771 1.386 . S
H1769 C1785 0.930 . S
H1770 C1786 0.931 . S
C1771 H1759 0.929 . S
C1771 C1765 1.390 . S
C1771 C1768 1.386 . S
C1772 C1767 1.490 . S
C1772 C1774 1.395 . S
C1772 C1775 1.403 . S
H1773 C1779 0.930 . S
C1774 H1760 0.930 . S
C1774 C1772 1.395 . S
C1774 C1777 1.403 1_455 S
C1775 C1772 1.403 . S
C1775 C1776 1.524 . S
C1775 C1779 1.400 1_455 S
C1776 H1761 0.960 . S
C1776 H1762 0.960 . S
C1776 H1763 0.960 . S
C1776 C1775 1.524 . S
C1777 C1774 1.403 1_655 S
C1777 C1778 1.392 . S
C1777 C1781 1.495 . S
C1778 C1777 1.392 . S
C1778 C1779 1.385 . S
C1778 C1780 1.478 . S
C1779 H1773 0.930 . S
C1779 C1775 1.400 1_655 S
C1779 C1778 1.385 . S
C1780 C1778 1.478 . S
C1780 C1782 1.381 . S
C1780 C1786 1.383 . S
C1781 C1777 1.495 . S
C1781 H1787 0.959 . S
C1781 H1788 0.961 . S
C1781 H1789 0.960 . S
C1782 C1780 1.381 . S
C1782 C1783 1.394 . S
C1782 H1790 0.930 . S
C1783 C1782 1.394 . S
C1783 C1784 1.383 . S
C1783 H1791 0.929 . S
C1784 C1783 1.383 . S
C1784 C1785 1.377 . S
C1785 H1769 0.930 . S
C1785 C1784 1.377 . S
C1785 C1786 1.379 . S
C1786 H1770 0.931 . S
C1786 C1780 1.383 . S
C1786 C1785 1.379 . S
H1787 C1781 0.959 . S
H1788 C1781 0.961 . S
H1789 C1781 0.960 . S
H1790 C1782 0.930 . S
H1791 C1783 0.929 . S
H1792 C1800 0.929 . S
H1793 C1802 0.930 1_556 S
H1794 C1804 0.930 . S
H1795 C1807 0.929 . S
H1796 C1810 0.930 . S
H1797 C1812 0.960 . S
H1798 C1812 0.960 . S
H1799 C1812 0.960 . S
C1800 H1792 0.929 . S
C1800 C1801 1.377 . S
C1800 C1802 1.384 . S
C1801 C1800 1.377 . S
C1801 C1807 1.390 . S
C1802 H1793 0.930 1_554 S
C1802 C1800 1.384 . S
C1802 C1803 1.372 . S
C1803 C1802 1.372 . S
C1803 C1804 1.400 . S
C1803 C1808 1.490 . S
C1804 H1794 0.930 . S
C1804 C1803 1.400 . S
C1804 C1807 1.386 . S
H1805 C1821 0.930 . S
H1806 C1822 0.931 1_554 S
C1807 H1795 0.929 . S
C1807 C1801 1.390 . S
C1807 C1804 1.386 . S
C1808 C1803 1.490 . S
C1808 C1810 1.395 1_554 S
C1808 C1811 1.403 . S
H1809 C1815 0.926 1_554 S
C1810 H1796 0.930 . S
C1810 C1808 1.395 1_556 S
C1810 C1813 1.403 . S
C1811 C1808 1.403 . S
C1811 C1812 1.524 . S
C1811 C1815 1.395 1_554 S
C1812 H1797 0.960 . S
C1812 H1798 0.960 . S
C1812 H1799 0.960 . S
C1812 C1811 1.524 . S
C1813 C1810 1.403 . S
C1813 C1814 1.392 . S
C1813 C1817 1.495 . S
C1814 C1813 1.392 . S
C1814 C1815 1.395 . S
C1814 C1816 1.478 . S
C1815 H1809 0.926 1_556 S
C1815 C1811 1.395 1_556 S
C1815 C1814 1.395 . S
C1816 C1814 1.478 . S
C1816 C1818 1.381 . S
C1816 C1822 1.383 . S
C1817 C1813 1.495 . S
C1817 H1823 0.959 . S
C1817 H1824 0.961 . S
C1817 H1825 0.960 . S
C1818 C1816 1.381 . S
C1818 C1819 1.394 . S
C1818 H1826 0.930 . S
C1819 C1818 1.394 . S
C1819 C1820 1.383 . S
C1819 H1827 0.929 . S
C1820 C1819 1.383 . S
C1820 C1821 1.377 . S
C1821 H1805 0.930 . S
C1821 C1820 1.377 . S
C1821 C1822 1.379 . S
C1822 H1806 0.931 1_556 S
C1822 C1816 1.383 . S
C1822 C1821 1.379 . S
H1823 C1817 0.959 . S
H1824 C1817 0.961 . S
H1825 C1817 0.960 . S
H1826 C1818 0.930 . S
H1827 C1819 0.929 . S
H1828 C1836 0.929 . S
H1829 C1838 0.930 . S
H1830 C1840 0.930 . S
H1831 C1843 0.929 . S
H1832 C1846 0.930 . S
H1833 C1848 0.960 . S
H1834 C1848 0.960 . S
H1835 C1848 0.960 . S
C1836 H1828 0.929 . S
C1836 C1837 1.377 . S
C1836 C1838 1.384 . S
C1837 C1836 1.377 . S
C1837 C1843 1.390 . S
C1838 H1829 0.930 . S
C1838 C1836 1.384 . S
C1838 C1839 1.372 . S
C1839 C1838 1.372 . S
C1839 C1840 1.400 . S
C1839 C1844 1.490 . S
C1840 H1830 0.930 . S
C1840 C1839 1.400 . S
C1840 C1843 1.386 . S
H1841 C1857 0.930 . S
H1842 C1858 0.931 . S
C1843 H1831 0.929 . S
C1843 C1837 1.390 . S
C1843 C1840 1.386 . S
C1844 C1839 1.490 . S
C1844 C1846 1.395 . S
C1844 C1847 1.403 . S
H1845 C1851 0.930 . S
C1846 H1832 0.930 . S
C1846 C1844 1.395 . S
C1846 C1849 1.403 . S
C1847 C1844 1.403 . S
C1847 C1848 1.524 . S
C1847 C1851 1.400 . S
C1848 H1833 0.960 . S
C1848 H1834 0.960 . S
C1848 H1835 0.960 . S
C1848 C1847 1.524 . S
C1849 C1846 1.403 . S
C1849 C1850 1.392 . S
C1849 C1853 1.495 . S
C1850 C1849 1.392 . S
C1850 C1851 1.385 . S
C1850 C1852 1.478 . S
C1851 H1845 0.930 . S
C1851 C1847 1.400 . S
C1851 C1850 1.385 . S
C1852 C1850 1.478 . S
C1852 C1854 1.381 . S
C1852 C1858 1.383 . S
C1853 C1849 1.495 . S
C1853 H1859 0.959 . S
C1853 H1860 0.961 . S
C1853 H1861 0.960 . S
C1854 C1852 1.381 . S
C1854 C1855 1.394 . S
C1854 H1862 0.930 . S
C1855 C1854 1.394 . S
C1855 C1856 1.383 . S
C1855 H1863 0.929 . S
C1856 C1855 1.383 . S
C1856 C1857 1.377 . S
C1857 H1841 0.930 . S
C1857 C1856 1.377 . S
C1857 C1858 1.379 . S
C1858 H1842 0.931 . S
C1858 C1852 1.383 . S
C1858 C1857 1.379 . S
H1859 C1853 0.959 . S
H1860 C1853 0.961 . S
H1861 C1853 0.960 . S
H1862 C1854 0.930 . S
H1863 C1855 0.929 . S
H1864 C1872 0.929 . S
H1865 C1874 0.930 . S
H1866 C1876 0.930 . S
H1867 C1879 0.929 . S
H1868 C1882 0.930 . S
H1869 C1884 0.960 . S
H1870 C1884 0.960 . S
H1871 C1884 0.960 . S
C1872 H1864 0.929 . S
C1872 C1873 1.377 . S
C1872 C1874 1.384 . S
C1873 C1872 1.377 . S
C1873 C1879 1.390 . S
C1874 H1865 0.930 . S
C1874 C1872 1.384 . S
C1874 C1875 1.372 . S
C1875 C1874 1.372 . S
C1875 C1876 1.400 . S
C1875 C1880 1.490 . S
C1876 H1866 0.930 . S
C1876 C1875 1.400 . S
C1876 C1879 1.386 . S
H1877 C1893 0.930 . S
H1878 C1894 0.931 . S
C1879 H1867 0.929 . S
C1879 C1873 1.390 . S
C1879 C1876 1.386 . S
C1880 C1875 1.490 . S
C1880 C1882 1.395 . S
C1880 C1883 1.403 . S
H1881 C1887 0.930 . S
C1882 H1868 0.930 . S
C1882 C1880 1.395 . S
C1882 C1885 1.403 . S
C1883 C1880 1.403 . S
C1883 C1884 1.524 . S
C1883 C1887 1.400 . S
C1884 H1869 0.960 . S
C1884 H1870 0.960 . S
C1884 H1871 0.960 . S
C1884 C1883 1.524 . S
C1885 C1882 1.403 . S
C1885 C1886 1.392 . S
C1885 C1889 1.495 . S
C1886 C1885 1.392 . S
C1886 C1887 1.385 . S
C1886 C1888 1.478 . S
C1887 H1881 0.930 . S
C1887 C1883 1.400 . S
C1887 C1886 1.385 . S
C1888 C1886 1.478 . S
C1888 C1890 1.381 . S
C1888 C1894 1.383 . S
C1889 C1885 1.495 . S
C1889 H1895 0.959 . S
C1889 H1896 0.961 . S
C1889 H1897 0.960 . S
C1890 C1888 1.381 . S
C1890 C1891 1.394 . S
C1890 H1898 0.930 . S
C1891 C1890 1.394 . S
C1891 C1892 1.383 . S
C1891 H1899 0.929 . S
C1892 C1891 1.383 . S
C1892 C1893 1.377 . S
C1893 H1877 0.930 . S
C1893 C1892 1.377 . S
C1893 C1894 1.379 . S
C1894 H1878 0.931 . S
C1894 C1888 1.383 . S
C1894 C1893 1.379 . S
H1895 C1889 0.959 . S
H1896 C1889 0.961 . S
H1897 C1889 0.960 . S
H1898 C1890 0.930 . S
H1899 C1891 0.929 . S
H1900 C1908 0.929 . S
H1901 C1910 0.930 . S
H1902 C1912 0.930 . S
H1903 C1915 0.929 . S
H1904 C1918 0.930 . S
H1905 C1920 0.960 . S
H1906 C1920 0.960 . S
H1907 C1920 0.960 . S
C1908 H1900 0.929 . S
C1908 C1909 1.377 . S
C1908 C1910 1.384 . S
C1909 C1908 1.377 . S
C1909 C1915 1.390 . S
C1910 H1901 0.930 . S
C1910 C1908 1.384 . S
C1910 C1911 1.372 . S
C1911 C1910 1.372 . S
C1911 C1912 1.400 . S
C1911 C1916 1.490 . S
C1912 H1902 0.930 . S
C1912 C1911 1.400 . S
C1912 C1915 1.386 . S
H1913 C1929 0.930 . S
H1914 C1930 0.931 . S
C1915 H1903 0.929 . S
C1915 C1909 1.390 . S
C1915 C1912 1.386 . S
C1916 C1911 1.490 . S
C1916 C1918 1.395 . S
C1916 C1919 1.403 . S
H1917 C1923 0.930 . S
C1918 H1904 0.930 . S
C1918 C1916 1.395 . S
C1918 C1921 1.403 . S
C1919 C1916 1.403 . S
C1919 C1920 1.524 . S
C1919 C1923 1.400 . S
C1920 H1905 0.960 . S
C1920 H1906 0.960 . S
C1920 H1907 0.960 . S
C1920 C1919 1.524 . S
C1921 C1918 1.403 . S
C1921 C1922 1.392 . S
C1921 C1925 1.495 . S
C1922 C1921 1.392 . S
C1922 C1923 1.385 . S
C1922 C1924 1.478 . S
C1923 H1917 0.930 . S
C1923 C1919 1.400 . S
C1923 C1922 1.385 . S
C1924 C1922 1.478 . S
C1924 C1926 1.381 . S
C1924 C1930 1.383 . S
C1925 C1921 1.495 . S
C1925 H1931 0.959 . S
C1925 H1932 0.961 . S
C1925 H1933 0.960 . S
C1926 C1924 1.381 . S
C1926 C1927 1.394 . S
C1926 H1934 0.930 . S
C1927 C1926 1.394 . S
C1927 C1928 1.383 . S
C1927 H1935 0.929 . S
C1928 C1927 1.383 . S
C1928 C1929 1.377 . S
C1929 H1913 0.930 . S
C1929 C1928 1.377 . S
C1929 C1930 1.379 . S
C1930 H1914 0.931 . S
C1930 C1924 1.383 . S
C1930 C1929 1.379 . S
H1931 C1925 0.959 . S
H1932 C1925 0.961 . S
H1933 C1925 0.960 . S
H1934 C1926 0.930 . S
H1935 C1927 0.929 . S
H1936 C1944 0.929 . S
H1937 C1946 0.930 . S
H1938 C1948 0.930 1_556 S
H1939 C1951 0.929 . S
H1940 C1954 0.930 . S
H1941 C1956 0.968 . S
H1942 C1956 0.943 1_554 S
H1943 C1956 0.972 . S
C1944 H1936 0.929 . S
C1944 C1945 1.377 . S
C1944 C1946 1.384 . S
C1945 C1944 1.377 . S
C1945 C1951 1.390 . S
C1946 H1937 0.930 . S
C1946 C1944 1.384 . S
C1946 C1947 1.372 . S
C1947 C1946 1.372 . S
C1947 C1948 1.400 . S
C1947 C1952 1.490 . S
C1948 H1938 0.930 1_554 S
C1948 C1947 1.400 . S
C1948 C1951 1.386 . S
H1949 C1965 0.930 . S
H1950 C1966 0.931 . S
C1951 H1939 0.929 . S
C1951 C1945 1.390 . S
C1951 C1948 1.386 . S
C1952 C1947 1.490 . S
C1952 C1954 1.395 . S
C1952 C1955 1.403 . S
H1953 C1959 0.930 . S
C1954 H1940 0.930 . S
C1954 C1952 1.395 . S
C1954 C1957 1.403 . S
C1955 C1952 1.403 . S
C1955 C1956 1.521 1_554 S
C1955 C1959 1.400 1_554 S
C1956 H1941 0.968 . S
C1956 H1942 0.943 1_556 S
C1956 H1943 0.972 . S
C1956 C1955 1.521 1_556 S
C1957 C1954 1.403 . S
C1957 C1958 1.392 1_554 S
C1957 C1961 1.495 . S
C1958 C1957 1.392 1_556 S
C1958 C1959 1.385 . S
C1958 C1960 1.478 . S
C1959 H1953 0.930 . S
C1959 C1955 1.400 1_556 S
C1959 C1958 1.385 . S
C1960 C1958 1.478 . S
C1960 C1962 1.381 . S
C1960 C1966 1.383 . S
C1961 C1957 1.495 . S
C1961 H1967 0.959 . S
C1961 H1968 0.961 1_554 S
C1961 H1969 0.960 . S
C1962 C1960 1.381 . S
C1962 C1963 1.394 . S
C1962 H1970 0.930 1_556 S
C1963 C1962 1.394 . S
C1963 C1964 1.383 . S
C1963 H1971 0.929 . S
C1964 C1963 1.383 . S
C1964 C1965 1.377 . S
C1965 H1949 0.930 . S
C1965 C1964 1.377 . S
C1965 C1966 1.379 . S
C1966 H1950 0.931 . S
C1966 C1960 1.383 . S
C1966 C1965 1.379 . S
H1967 C1961 0.959 . S
H1968 C1961 0.961 1_556 S
H1969 C1961 0.960 . S
H1970 C1962 0.930 1_554 S
H1971 C1963 0.929 . S
H1972 C1980 0.929 . S
H1973 C1982 0.930 . S
H1974 C1984 0.930 . S
H1975 C1987 0.929 . S
H1976 C1990 0.930 . S
H1977 C1992 0.960 . S
H1978 C1992 0.960 . S
H1979 C1992 0.960 . S
C1980 H1972 0.929 . S
C1980 C1981 1.377 . S
C1980 C1982 1.384 . S
C1981 C1980 1.377 . S
C1981 C1987 1.390 . S
C1982 H1973 0.930 . S
C1982 C1980 1.384 . S
C1982 C1983 1.372 . S
C1983 C1982 1.372 . S
C1983 C1984 1.400 . S
C1983 C1988 1.490 . S
C1984 H1974 0.930 . S
C1984 C1983 1.400 . S
C1984 C1987 1.386 . S
H1985 C2001 0.930 . S
H1986 C2002 0.931 . S
C1987 H1975 0.929 . S
C1987 C1981 1.390 . S
C1987 C1984 1.386 . S
C1988 C1983 1.490 . S
C1988 C1990 1.395 . S
C1988 C1991 1.403 . S
H1989 C1995 0.930 . S
C1990 H1976 0.930 . S
C1990 C1988 1.395 . S
C1990 C1993 1.403 . S
C1991 C1988 1.403 . S
C1991 C1992 1.524 . S
C1991 C1995 1.400 . S
C1992 H1977 0.960 . S
C1992 H1978 0.960 . S
C1992 H1979 0.960 . S
C1992 C1991 1.524 . S
C1993 C1990 1.403 . S
C1993 C1994 1.392 . S
C1993 C1997 1.495 . S
C1994 C1993 1.392 . S
C1994 C1995 1.385 . S
C1994 C1996 1.478 . S
C1995 H1989 0.930 . S
C1995 C1991 1.400 . S
C1995 C1994 1.385 . S
C1996 C1994 1.478 . S
C1996 C1998 1.381 . S
C1996 C2002 1.383 . S
C1997 C1993 1.495 . S
C1997 H2003 0.959 . S
C1997 H2004 0.961 . S
C1997 H2005 0.960 . S
C1998 C1996 1.381 . S
C1998 C1999 1.394 . S
C1998 H2006 0.930 . S
C1999 C1998 1.394 . S
C1999 C2000 1.383 . S
C1999 H2007 0.929 . S
C2000 C1999 1.383 . S
C2000 C2001 1.377 . S
C2001 H1985 0.930 . S
C2001 C2000 1.377 . S
C2001 C2002 1.379 . S
C2002 H1986 0.931 . S
C2002 C1996 1.383 . S
C2002 C2001 1.379 . S
H2003 C1997 0.959 . S
H2004 C1997 0.961 . S
H2005 C1997 0.960 . S
H2006 C1998 0.930 . S
H2007 C1999 0.929 . S
H2008 C2016 0.929 . S
H2009 C2018 0.930 . S
H2010 C2020 0.930 . S
H2011 C2023 0.929 . S
H2012 C2026 0.930 . S
H2013 C2028 0.960 . S
H2014 C2028 0.960 . S
H2015 C2028 0.960 . S
C2016 H2008 0.929 . S
C2016 C2017 1.377 . S
C2016 C2018 1.384 . S
C2017 C2016 1.377 . S
C2017 C2023 1.390 . S
C2018 H2009 0.930 . S
C2018 C2016 1.384 . S
C2018 C2019 1.372 . S
C2019 C2018 1.372 . S
C2019 C2020 1.400 . S
C2019 C2024 1.490 . S
C2020 H2010 0.930 . S
C2020 C2019 1.400 . S
C2020 C2023 1.386 . S
H2021 C2037 0.930 . S
H2022 C2038 0.931 . S
C2023 H2011 0.929 . S
C2023 C2017 1.390 . S
C2023 C2020 1.386 . S
C2024 C2019 1.490 . S
C2024 C2026 1.395 . S
C2024 C2027 1.403 . S
H2025 C2031 0.930 . S
C2026 H2012 0.930 . S
C2026 C2024 1.395 . S
C2026 C2029 1.403 . S
C2027 C2024 1.403 . S
C2027 C2028 1.524 . S
C2027 C2031 1.400 . S
C2028 H2013 0.960 . S
C2028 H2014 0.960 . S
C2028 H2015 0.960 . S
C2028 C2027 1.524 . S
C2029 C2026 1.403 . S
C2029 C2030 1.392 . S
C2029 C2033 1.495 . S
C2030 C2029 1.392 . S
C2030 C2031 1.385 . S
C2030 C2032 1.478 . S
C2031 H2025 0.930 . S
C2031 C2027 1.400 . S
C2031 C2030 1.385 . S
C2032 C2030 1.478 . S
C2032 C2034 1.381 . S
C2032 C2038 1.383 . S
C2033 C2029 1.495 . S
C2033 H2039 0.959 . S
C2033 H2040 0.961 . S
C2033 H2041 0.960 . S
C2034 C2032 1.381 . S
C2034 C2035 1.394 . S
C2034 H2042 0.930 . S
C2035 C2034 1.394 . S
C2035 C2036 1.383 . S
C2035 H2043 0.929 . S
C2036 C2035 1.383 . S
C2036 C2037 1.377 . S
C2037 H2021 0.930 . S
C2037 C2036 1.377 . S
C2037 C2038 1.379 . S
C2038 H2022 0.931 . S
C2038 C2032 1.383 . S
C2038 C2037 1.379 . S
H2039 C2033 0.959 . S
H2040 C2033 0.961 . S
H2041 C2033 0.960 . S
H2042 C2034 0.930 . S
H2043 C2035 0.929 . S
H2044 C2052 0.929 . S
H2045 C2054 0.930 . S
H2046 C2056 0.930 . S
H2047 C2059 0.929 . S
H2048 C2062 0.930 . S
H2049 C2064 0.960 . S
H2050 C2064 0.960 . S
H2051 C2064 0.960 . S
C2052 H2044 0.929 . S
C2052 C2053 1.377 . S
C2052 C2054 1.384 . S
C2053 C2052 1.377 . S
C2053 C2059 1.390 . S
C2054 H2045 0.930 . S
C2054 C2052 1.384 . S
C2054 C2055 1.372 . S
C2055 C2054 1.372 . S
C2055 C2056 1.400 . S
C2055 C2060 1.490 . S
C2056 H2046 0.930 . S
C2056 C2055 1.400 . S
C2056 C2059 1.386 . S
H2057 C2073 0.930 . S
H2058 C2074 0.931 . S
C2059 H2047 0.929 . S
C2059 C2053 1.390 . S
C2059 C2056 1.386 . S
C2060 C2055 1.490 . S
C2060 C2062 1.395 . S
C2060 C2063 1.403 . S
H2061 C2067 0.930 . S
C2062 H2048 0.930 . S
C2062 C2060 1.395 . S
C2062 C2065 1.403 . S
C2063 C2060 1.403 . S
C2063 C2064 1.524 . S
C2063 C2067 1.400 . S
C2064 H2049 0.960 . S
C2064 H2050 0.960 . S
C2064 H2051 0.960 . S
C2064 C2063 1.524 . S
C2065 C2062 1.403 . S
C2065 C2066 1.392 . S
C2065 C2069 1.495 . S
C2066 C2065 1.392 . S
C2066 C2067 1.385 . S
C2066 C2068 1.478 . S
C2067 H2061 0.930 . S
C2067 C2063 1.400 . S
C2067 C2066 1.385 . S
C2068 C2066 1.478 . S
C2068 C2070 1.381 . S
C2068 C2074 1.383 . S
C2069 C2065 1.495 . S
C2069 H2075 0.959 . S
C2069 H2076 0.961 . S
C2069 H2077 0.960 . S
C2070 C2068 1.381 . S
C2070 C2071 1.394 . S
C2070 H2078 0.930 . S
C2071 C2070 1.394 . S
C2071 C2072 1.383 . S
C2071 H2079 0.929 . S
C2072 C2071 1.383 . S
C2072 C2073 1.377 . S
C2073 H2057 0.930 . S
C2073 C2072 1.377 . S
C2073 C2074 1.379 . S
C2074 H2058 0.931 . S
C2074 C2068 1.383 . S
C2074 C2073 1.379 . S
H2075 C2069 0.959 . S
H2076 C2069 0.961 . S
H2077 C2069 0.960 . S
H2078 C2070 0.930 . S
H2079 C2071 0.929 . S
H2080 C2088 0.929 . S
H2081 C2090 0.930 . S
H2082 C2092 0.930 . S
H2083 C2095 0.929 . S
H2084 C2098 0.930 . S
H2085 C2100 0.960 . S
H2086 C2100 0.960 . S
H2087 C2100 0.960 . S
C2088 H2080 0.929 . S
C2088 C2089 1.377 . S
C2088 C2090 1.384 . S
C2089 C2088 1.377 . S
C2089 C2095 1.390 . S
C2090 H2081 0.930 . S
C2090 C2088 1.384 . S
C2090 C2091 1.372 . S
C2091 C2090 1.372 . S
C2091 C2092 1.400 . S
C2091 C2096 1.490 . S
C2092 H2082 0.930 . S
C2092 C2091 1.400 . S
C2092 C2095 1.386 . S
H2093 C2109 0.930 . S
H2094 C2110 0.931 . S
C2095 H2083 0.929 . S
C2095 C2089 1.390 . S
C2095 C2092 1.386 . S
C2096 C2091 1.490 . S
C2096 C2098 1.395 . S
C2096 C2099 1.403 . S
H2097 C2103 0.930 . S
C2098 H2084 0.930 . S
C2098 C2096 1.395 . S
C2098 C2101 1.403 1_565 S
C2099 C2096 1.403 . S
C2099 C2100 1.524 . S
C2099 C2103 1.400 1_565 S
C2100 H2085 0.960 . S
C2100 H2086 0.960 . S
C2100 H2087 0.960 . S
C2100 C2099 1.524 . S
C2101 C2098 1.403 1_545 S
C2101 C2102 1.392 . S
C2101 C2105 1.495 . S
C2102 C2101 1.392 . S
C2102 C2103 1.385 . S
C2102 C2104 1.478 . S
C2103 H2097 0.930 . S
C2103 C2099 1.400 1_545 S
C2103 C2102 1.385 . S
C2104 C2102 1.478 . S
C2104 C2106 1.381 . S
C2104 C2110 1.383 . S
C2105 C2101 1.495 . S
C2105 H2111 0.959 . S
C2105 H2112 0.961 . S
C2105 H2113 0.960 . S
C2106 C2104 1.381 . S
C2106 C2107 1.394 . S
C2106 H2114 0.930 . S
C2107 C2106 1.394 . S
C2107 C2108 1.383 . S
C2107 H2115 0.929 . S
C2108 C2107 1.383 . S
C2108 C2109 1.377 . S
C2109 H2093 0.930 . S
C2109 C2108 1.377 . S
C2109 C2110 1.379 . S
C2110 H2094 0.931 . S
C2110 C2104 1.383 . S
C2110 C2109 1.379 . S
H2111 C2105 0.959 . S
H2112 C2105 0.961 . S
H2113 C2105 0.960 . S
H2114 C2106 0.930 . S
H2115 C2107 0.929 . S
H2116 C2124 0.929 . S
H2117 C2126 0.930 . S
H2118 C2128 0.930 . S
H2119 C2131 0.929 . S
H2120 C2134 0.930 . S
H2121 C2136 0.960 . S
H2122 C2136 0.960 . S
H2123 C2136 0.960 . S
C2124 H2116 0.929 . S
C2124 C2125 1.377 . S
C2124 C2126 1.384 . S
C2125 C2124 1.377 . S
C2125 C2131 1.390 . S
C2126 H2117 0.930 . S
C2126 C2124 1.384 . S
C2126 C2127 1.372 . S
C2127 C2126 1.372 . S
C2127 C2128 1.400 . S
C2127 C2132 1.490 . S
C2128 H2118 0.930 . S
C2128 C2127 1.400 . S
C2128 C2131 1.386 . S
H2129 C2145 0.930 . S
H2130 C2146 0.931 . S
C2131 H2119 0.929 . S
C2131 C2125 1.390 . S
C2131 C2128 1.386 . S
C2132 C2127 1.490 . S
C2132 C2134 1.395 . S
C2132 C2135 1.403 . S
H2133 C2139 0.930 . S
C2134 H2120 0.930 . S
C2134 C2132 1.395 . S
C2134 C2137 1.403 . S
C2135 C2132 1.403 . S
C2135 C2136 1.524 . S
C2135 C2139 1.400 . S
C2136 H2121 0.960 . S
C2136 H2122 0.960 . S
C2136 H2123 0.960 . S
C2136 C2135 1.524 . S
C2137 C2134 1.403 . S
C2137 C2138 1.392 . S
C2137 C2141 1.495 . S
C2138 C2137 1.392 . S
C2138 C2139 1.385 . S
C2138 C2140 1.478 . S
C2139 H2133 0.930 . S
C2139 C2135 1.400 . S
C2139 C2138 1.385 . S
C2140 C2138 1.478 . S
C2140 C2142 1.381 . S
C2140 C2146 1.383 . S
C2141 C2137 1.495 . S
C2141 H2147 0.959 . S
C2141 H2148 0.961 . S
C2141 H2149 0.960 . S
C2142 C2140 1.381 . S
C2142 C2143 1.394 . S
C2142 H2150 0.930 . S
C2143 C2142 1.394 . S
C2143 C2144 1.383 . S
C2143 H2151 0.929 . S
C2144 C2143 1.383 . S
C2144 C2145 1.377 . S
C2145 H2129 0.930 . S
C2145 C2144 1.377 . S
C2145 C2146 1.379 . S
C2146 H2130 0.931 . S
C2146 C2140 1.383 . S
C2146 C2145 1.379 . S
H2147 C2141 0.959 . S
H2148 C2141 0.961 . S
H2149 C2141 0.960 . S
H2150 C2142 0.930 . S
H2151 C2143 0.929 . S
H2152 C2160 0.929 . S
H2153 C2162 0.930 . S
H2154 C2164 0.930 . S
H2155 C2167 0.929 . S
H2156 C2170 0.930 . S
H2157 C2172 0.960 . S
H2158 C2172 0.960 . S
H2159 C2172 0.960 . S
C2160 H2152 0.929 . S
C2160 C2161 1.377 . S
C2160 C2162 1.384 . S
C2161 C2160 1.377 . S
C2161 C2167 1.390 . S
C2162 H2153 0.930 . S
C2162 C2160 1.384 . S
C2162 C2163 1.372 . S
C2163 C2162 1.372 . S
C2163 C2164 1.400 . S
C2163 C2168 1.490 . S
C2164 H2154 0.930 . S
C2164 C2163 1.400 . S
C2164 C2167 1.386 . S
H2165 C2181 0.930 . S
H2166 C2182 0.931 . S
C2167 H2155 0.929 . S
C2167 C2161 1.390 . S
C2167 C2164 1.386 . S
C2168 C2163 1.490 . S
C2168 C2170 1.395 1_565 S
C2168 C2171 1.403 1_554 S
H2169 C2175 0.942 1_565 S
C2170 H2156 0.930 . S
C2170 C2168 1.395 1_545 S
C2170 C2173 1.403 . S
C2171 C2168 1.403 1_556 S
C2171 C2172 1.524 . S
C2171 C2175 1.404 1_565 S
C2172 H2157 0.960 . S
C2172 H2158 0.960 . S
C2172 H2159 0.960 . S
C2172 C2171 1.524 . S
C2173 C2170 1.403 . S
C2173 C2174 1.392 1_554 S
C2173 C2177 1.495 . S
C2174 C2173 1.392 1_556 S
C2174 C2175 1.382 . S
C2174 C2176 1.478 . S
C2175 H2169 0.942 1_545 S
C2175 C2171 1.404 1_545 S
C2175 C2174 1.382 . S
C2176 C2174 1.478 . S
C2176 C2178 1.381 . S
C2176 C2182 1.383 . S
C2177 C2173 1.495 . S
C2177 H2183 0.959 . S
C2177 H2184 0.961 . S
C2177 H2185 0.960 . S
C2178 C2176 1.381 . S
C2178 C2179 1.394 . S
C2178 H2186 0.930 . S
C2179 C2178 1.394 . S
C2179 C2180 1.383 . S
C2179 H2187 0.929 . S
C2180 C2179 1.383 . S
C2180 C2181 1.377 . S
C2181 H2165 0.930 . S
C2181 C2180 1.377 . S
C2181 C2182 1.379 . S
C2182 H2166 0.931 . S
C2182 C2176 1.383 . S
C2182 C2181 1.379 . S
H2183 C2177 0.959 . S
H2184 C2177 0.961 . S
H2185 C2177 0.960 . S
H2186 C2178 0.930 . S
H2187 C2179 0.929 . S
H2188 C2196 0.929 . S
H2189 C2198 0.930 . S
H2190 C2200 0.930 . S
H2191 C2203 0.929 . S
H2192 C2206 0.930 . S
H2193 C2208 0.960 . S
H2194 C2208 0.960 . S
H2195 C2208 0.960 . S
C2196 H2188 0.929 . S
C2196 C2197 1.377 . S
C2196 C2198 1.384 . S
C2197 C2196 1.377 . S
C2197 C2203 1.390 . S
C2198 H2189 0.930 . S
C2198 C2196 1.384 . S
C2198 C2199 1.372 . S
C2199 C2198 1.372 . S
C2199 C2200 1.400 . S
C2199 C2204 1.490 . S
C2200 H2190 0.930 . S
C2200 C2199 1.400 . S
C2200 C2203 1.386 . S
H2201 C2217 0.930 . S
H2202 C2218 0.931 . S
C2203 H2191 0.929 . S
C2203 C2197 1.390 . S
C2203 C2200 1.386 . S
C2204 C2199 1.490 . S
C2204 C2206 1.395 . S
C2204 C2207 1.403 . S
H2205 C2211 0.930 . S
C2206 H2192 0.930 . S
C2206 C2204 1.395 . S
C2206 C2209 1.403 . S
C2207 C2204 1.403 . S
C2207 C2208 1.524 . S
C2207 C2211 1.400 . S
C2208 H2193 0.960 . S
C2208 H2194 0.960 . S
C2208 H2195 0.960 . S
C2208 C2207 1.524 . S
C2209 C2206 1.403 . S
C2209 C2210 1.392 . S
C2209 C2213 1.495 . S
C2210 C2209 1.392 . S
C2210 C2211 1.385 . S
C2210 C2212 1.478 . S
C2211 H2205 0.930 . S
C2211 C2207 1.400 . S
C2211 C2210 1.385 . S
C2212 C2210 1.478 . S
C2212 C2214 1.381 . S
C2212 C2218 1.383 . S
C2213 C2209 1.495 . S
C2213 H2219 0.959 . S
C2213 H2220 0.961 . S
C2213 H2221 0.960 . S
C2214 C2212 1.381 . S
C2214 C2215 1.394 . S
C2214 H2222 0.930 . S
C2215 C2214 1.394 . S
C2215 C2216 1.383 . S
C2215 H2223 0.929 . S
C2216 C2215 1.383 . S
C2216 C2217 1.377 . S
C2217 H2201 0.930 . S
C2217 C2216 1.377 . S
C2217 C2218 1.379 . S
C2218 H2202 0.931 . S
C2218 C2212 1.383 . S
C2218 C2217 1.379 . S
H2219 C2213 0.959 . S
H2220 C2213 0.961 . S
H2221 C2213 0.960 . S
H2222 C2214 0.930 . S
H2223 C2215 0.929 . S
H2224 C2232 0.929 . S
H2225 C2234 0.930 . S
H2226 C2236 0.930 . S
H2227 C2239 0.929 . S
H2228 C2242 0.930 . S
H2229 C2244 0.960 . S
H2230 C2244 0.960 . S
H2231 C2244 0.960 . S
C2232 H2224 0.929 . S
C2232 C2233 1.377 . S
C2232 C2234 1.384 . S
C2233 C2232 1.377 . S
C2233 C2239 1.390 . S
C2234 H2225 0.930 . S
C2234 C2232 1.384 . S
C2234 C2235 1.372 . S
C2235 C2234 1.372 . S
C2235 C2236 1.400 . S
C2235 C2240 1.490 . S
C2236 H2226 0.930 . S
C2236 C2235 1.400 . S
C2236 C2239 1.386 . S
H2237 C2253 0.930 . S
H2238 C2254 0.931 . S
C2239 H2227 0.929 . S
C2239 C2233 1.390 . S
C2239 C2236 1.386 . S
C2240 C2235 1.490 . S
C2240 C2242 1.395 . S
C2240 C2243 1.403 . S
H2241 C2247 0.930 . S
C2242 H2228 0.930 . S
C2242 C2240 1.395 . S
C2242 C2245 1.403 1_565 S
C2243 C2240 1.403 . S
C2243 C2244 1.524 . S
C2243 C2247 1.400 1_565 S
C2244 H2229 0.960 . S
C2244 H2230 0.960 . S
C2244 H2231 0.960 . S
C2244 C2243 1.524 . S
C2245 C2242 1.403 1_545 S
C2245 C2246 1.392 . S
C2245 C2249 1.495 . S
C2246 C2245 1.392 . S
C2246 C2247 1.385 . S
C2246 C2248 1.478 . S
C2247 H2241 0.930 . S
C2247 C2243 1.400 1_545 S
C2247 C2246 1.385 . S
C2248 C2246 1.478 . S
C2248 C2250 1.381 . S
C2248 C2254 1.383 . S
C2249 C2245 1.495 . S
C2249 H2255 0.959 . S
C2249 H2256 0.961 . S
C2249 H2257 0.960 . S
C2250 C2248 1.381 . S
C2250 C2251 1.394 . S
C2250 H2258 0.930 . S
C2251 C2250 1.394 . S
C2251 C2252 1.383 . S
C2251 H2259 0.929 . S
C2252 C2251 1.383 . S
C2252 C2253 1.377 . S
C2253 H2237 0.930 . S
C2253 C2252 1.377 . S
C2253 C2254 1.379 . S
C2254 H2238 0.931 . S
C2254 C2248 1.383 . S
C2254 C2253 1.379 . S
H2255 C2249 0.959 . S
H2256 C2249 0.961 . S
H2257 C2249 0.960 . S
H2258 C2250 0.930 . S
H2259 C2251 0.929 . S
H2260 C2268 0.929 . S
H2261 C2270 0.930 . S
H2262 C2272 0.930 . S
H2263 C2275 0.929 . S
H2264 C2278 0.930 . S
H2265 C2280 0.960 . S
H2266 C2280 0.960 . S
H2267 C2280 0.960 . S
C2268 H2260 0.929 . S
C2268 C2269 1.377 . S
C2268 C2270 1.384 . S
C2269 C2268 1.377 . S
C2269 C2275 1.390 . S
C2270 H2261 0.930 . S
C2270 C2268 1.384 . S
C2270 C2271 1.372 . S
C2271 C2270 1.372 . S
C2271 C2272 1.400 . S
C2271 C2276 1.490 . S
C2272 H2262 0.930 . S
C2272 C2271 1.400 . S
C2272 C2275 1.386 . S
H2273 C2289 0.930 . S
H2274 C2290 0.931 . S
C2275 H2263 0.929 . S
C2275 C2269 1.390 . S
C2275 C2272 1.386 . S
C2276 C2271 1.490 . S
C2276 C2278 1.395 . S
C2276 C2279 1.403 . S
H2277 C2283 0.930 . S
C2278 H2264 0.930 . S
C2278 C2276 1.395 . S
C2278 C2281 1.403 . S
C2279 C2276 1.403 . S
C2279 C2280 1.524 . S
C2279 C2283 1.400 . S
C2280 H2265 0.960 . S
C2280 H2266 0.960 . S
C2280 H2267 0.960 . S
C2280 C2279 1.524 . S
C2281 C2278 1.403 . S
C2281 C2282 1.392 . S
C2281 C2285 1.495 . S
C2282 C2281 1.392 . S
C2282 C2283 1.385 . S
C2282 C2284 1.478 . S
C2283 H2277 0.930 . S
C2283 C2279 1.400 . S
C2283 C2282 1.385 . S
C2284 C2282 1.478 . S
C2284 C2286 1.381 . S
C2284 C2290 1.383 . S
C2285 C2281 1.495 . S
C2285 H2291 0.959 . S
C2285 H2292 0.961 . S
C2285 H2293 0.960 . S
C2286 C2284 1.381 . S
C2286 C2287 1.394 . S
C2286 H2294 0.930 . S
C2287 C2286 1.394 . S
C2287 C2288 1.383 . S
C2287 H2295 0.929 . S
C2288 C2287 1.383 . S
C2288 C2289 1.377 . S
C2289 H2273 0.930 . S
C2289 C2288 1.377 . S
C2289 C2290 1.379 . S
C2290 H2274 0.931 . S
C2290 C2284 1.383 . S
C2290 C2289 1.379 . S
H2291 C2285 0.959 . S
H2292 C2285 0.961 . S
H2293 C2285 0.960 . S
H2294 C2286 0.930 . S
H2295 C2287 0.929 . S
H2296 C2304 0.929 . S
H2297 C2306 0.930 . S
H2298 C2308 0.930 . S
H2299 C2311 0.929 . S
H2300 C2314 0.930 . S
H2301 C2316 0.960 . S
H2302 C2316 0.960 . S
H2303 C2316 0.960 . S
C2304 H2296 0.929 . S
C2304 C2305 1.377 . S
C2304 C2306 1.384 . S
C2305 C2304 1.377 . S
C2305 C2311 1.390 . S
C2306 H2297 0.930 . S
C2306 C2304 1.384 . S
C2306 C2307 1.372 . S
C2307 C2306 1.372 . S
C2307 C2308 1.400 . S
C2307 C2312 1.490 . S
C2308 H2298 0.930 . S
C2308 C2307 1.400 . S
C2308 C2311 1.386 . S
H2309 C2325 0.930 . S
H2310 C2326 0.931 . S
C2311 H2299 0.929 . S
C2311 C2305 1.390 . S
C2311 C2308 1.386 . S
C2312 C2307 1.490 . S
C2312 C2314 1.395 1_556 S
C2312 C2315 1.403 1_545 S
H2313 C2319 0.930 . S
C2314 H2300 0.930 . S
C2314 C2312 1.395 1_554 S
C2314 C2317 1.403 . S
C2315 C2312 1.403 1_565 S
C2315 C2316 1.524 . S
C2315 C2319 1.400 . S
C2316 H2301 0.960 . S
C2316 H2302 0.960 . S
C2316 H2303 0.960 . S
C2316 C2315 1.524 . S
C2317 C2314 1.403 . S
C2317 C2318 1.392 1_545 S
C2317 C2321 1.495 . S
C2318 C2317 1.392 1_565 S
C2318 C2319 1.385 1_554 S
C2318 C2320 1.478 . S
C2319 H2313 0.930 . S
C2319 C2315 1.400 . S
C2319 C2318 1.385 1_556 S
C2320 C2318 1.478 . S
C2320 C2322 1.381 . S
C2320 C2326 1.383 . S
C2321 C2317 1.495 . S
C2321 H2327 0.959 . S
C2321 H2328 0.961 . S
C2321 H2329 0.960 . S
C2322 C2320 1.381 . S
C2322 C2323 1.394 . S
C2322 H2330 0.930 . S
C2323 C2322 1.394 . S
C2323 C2324 1.383 . S
C2323 H2331 0.929 . S
C2324 C2323 1.383 . S
C2324 C2325 1.377 . S
C2325 H2309 0.930 . S
C2325 C2324 1.377 . S
C2325 C2326 1.379 . S
C2326 H2310 0.931 . S
C2326 C2320 1.383 . S
C2326 C2325 1.379 . S
H2327 C2321 0.959 . S
H2328 C2321 0.961 . S
H2329 C2321 0.960 . S
H2330 C2322 0.930 . S
H2331 C2323 0.929 . S
H2332 C2340 0.929 . S
H2333 C2342 0.930 . S
H2334 C2344 0.930 . S
H2335 C2347 0.929 . S
H2336 C2350 0.930 . S
H2337 C2352 0.960 . S
H2338 C2352 0.960 . S
H2339 C2352 0.960 . S
C2340 H2332 0.929 . S
C2340 C2341 1.377 . S
C2340 C2342 1.384 . S
C2341 C2340 1.377 . S
C2341 C2347 1.390 . S
C2342 H2333 0.930 . S
C2342 C2340 1.384 . S
C2342 C2343 1.372 . S
C2343 C2342 1.372 . S
C2343 C2344 1.400 . S
C2343 C2348 1.490 . S
C2344 H2334 0.930 . S
C2344 C2343 1.400 . S
C2344 C2347 1.386 . S
H2345 C2361 0.930 . S
H2346 C2362 0.931 . S
C2347 H2335 0.929 . S
C2347 C2341 1.390 . S
C2347 C2344 1.386 . S
C2348 C2343 1.490 . S
C2348 C2350 1.395 . S
C2348 C2351 1.403 . S
H2349 C2355 0.930 . S
C2350 H2336 0.930 . S
C2350 C2348 1.395 . S
C2350 C2353 1.403 . S
C2351 C2348 1.403 . S
C2351 C2352 1.524 . S
C2351 C2355 1.400 . S
C2352 H2337 0.960 . S
C2352 H2338 0.960 . S
C2352 H2339 0.960 . S
C2352 C2351 1.524 . S
C2353 C2350 1.403 . S
C2353 C2354 1.392 . S
C2353 C2357 1.495 . S
C2354 C2353 1.392 . S
C2354 C2355 1.385 . S
C2354 C2356 1.478 . S
C2355 H2349 0.930 . S
C2355 C2351 1.400 . S
C2355 C2354 1.385 . S
C2356 C2354 1.478 . S
C2356 C2358 1.381 . S
C2356 C2362 1.383 . S
C2357 C2353 1.495 . S
C2357 H2363 0.959 . S
C2357 H2364 0.961 . S
C2357 H2365 0.960 . S
C2358 C2356 1.381 . S
C2358 C2359 1.394 . S
C2358 H2366 0.930 . S
C2359 C2358 1.394 . S
C2359 C2360 1.383 . S
C2359 H2367 0.929 . S
C2360 C2359 1.383 . S
C2360 C2361 1.377 . S
C2361 H2345 0.930 . S
C2361 C2360 1.377 . S
C2361 C2362 1.379 . S
C2362 H2346 0.931 . S
C2362 C2356 1.383 . S
C2362 C2361 1.379 . S
H2363 C2357 0.959 . S
H2364 C2357 0.961 . S
H2365 C2357 0.960 . S
H2366 C2358 0.930 . S
H2367 C2359 0.929 . S
C649 C6 1.851 . S
C668 C15 1.849 . S
C685 C55 1.851 . S
C704 C46 1.851 . S
C721 C95 1.521 . S
C740 C86 1.508 . S
C757 C126 1.521 . S
C776 C135 1.513 . S
C793 C166 1.858 . S
C812 C175 1.839 . S
C829 C215 1.523 . S
C848 C206 1.531 . S
C865 C255 1.525 . S
C884 C246 1.536 . S
C901 C295 1.851 . S
C920 C286 1.851 . S
C937 C335 1.857 . S
C956 C326 1.874 . S
C973 C375 1.857 . S
C992 C366 1.874 . S
C1009 C415 1.521 . S
C1028 C406 1.508 . S
C1045 C455 1.522 . S
C1064 C446 1.526 . S
C1081 C495 1.859 . S
C1100 C486 1.848 . S
C1117 C535 1.521 . S
C1136 C526 1.508 . S
C1153 C566 1.526 . S
C1172 C575 1.537 . S
C1189 C606 1.853 . S
C1208 C615 1.860 . S
C1225 C9 1.636 . S
C1244 C459 1.720 . S
C1261 C50 1.661 . S
C1280 C619 1.632 . S
C1297 C90 1.708 . S
C1316 C378 1.667 . S
C1333 C129 1.770 . S
C1352 C538 1.749 . S
C1369 C169 1.646 . S
C1388 C539 1.704 . S
C1405 C458 1.766 . S
C1424 C209 1.775 . S
C1441 C250 1.714 . S
C1460 C618 1.631 . S
C1477 C290 1.659 . S
C1496 C379 1.666 . S
C1513 C130 1.712 . S
C1532 C338 1.649 . S
C1549 C49 1.633 . S
C1568 C419 1.702 . S
C1585 C498 1.637 . S
C1604 C210 1.710 . S
C1621 C289 1.644 . S
C1640 C579 1.725 . S
C1657 C339 1.655 . S
C1676 C170 1.677 . S
C1693 C249 1.773 . S
C1712 C418 1.784 . S
C1729 C89 1.766 . S
C1748 C578 1.777 . S
C1765 C10 1.655 . S
C1784 C499 1.639 . S
C1801 C18 1.212 . S
C1820 C178 1.213 . S
C1837 C59 1.702 . S
C1856 C218 1.709 . S
C1873 C99 2.128 . S
C1892 C259 2.118 . S
C1909 C138 1.703 . S
C1928 C299 1.710 . S
C1945 C489 1.208 . S
C1964 C329 1.222 . S
C1981 C529 1.703 . S
C2000 C370 1.712 . S
C2017 C410 2.127 . S
C2036 C570 2.130 . S
C2053 C610 1.706 . S
C2072 C449 1.711 . S
C2089 C58 1.214 . S
C2108 C298 1.221 . S
C2125 C179 1.705 . S
C2144 C98 1.710 . S
C2161 C219 2.127 . S
C2180 C139 2.124 . S
C2197 C19 1.702 . S
C2216 C258 1.685 . S
C2233 C609 1.209 . S
C2252 C369 1.226 . S
C2269 C490 1.706 . S
C2288 C409 1.708 . S
C2305 C530 2.127 . S
C2324 C450 2.125 . S
C2341 C569 1.703 . S
C2360 C330 1.701 . S
