# Generated by pormake.
# Topology wlc, (5)-cn, num edge types: 1
# Building blocks:
#     Node 0, Type 0, BuildingBlock: BEQFEK_clean_sbu_0, # of connection points: 5
#     Node 1, Type 0, BuildingBlock: BEQFEK_clean_sbu_0, # of connection points: 5
#     Node 2, Type 0, BuildingBlock: BEQFEK_clean_sbu_0, # of connection points: 5
#     Node 3, Type 0, BuildingBlock: BEQFEK_clean_sbu_0, # of connection points: 5
#     Node 4, Type 0, BuildingBlock: BEQFEK_clean_sbu_0, # of connection points: 5
#     Node 5, Type 0, BuildingBlock: BEQFEK_clean_sbu_0, # of connection points: 5
#     Node 6, Type 0, BuildingBlock: BEQFEK_clean_sbu_0, # of connection points: 5
#     Node 7, Type 0, BuildingBlock: BEQFEK_clean_sbu_0, # of connection points: 5
#     Node 8, Type 0, BuildingBlock: BEQFEK_clean_sbu_0, # of connection points: 5
#     Node 9, Type 0, BuildingBlock: BEQFEK_clean_sbu_0, # of connection points: 5
#     Node 10, Type 0, BuildingBlock: BEQFEK_clean_sbu_0, # of connection points: 5
#     Node 11, Type 0, BuildingBlock: BEQFEK_clean_sbu_0, # of connection points: 5
#     Edge 12, Type (0, 0), BuildingBlock: XIVTED_clean_linker_0, # of connection points: 2
#     Edge 13, Type (0, 0), BuildingBlock: XIVTED_clean_linker_0, # of connection points: 2
#     Edge 14, Type (0, 0), BuildingBlock: XIVTED_clean_linker_0, # of connection points: 2
#     Edge 15, Type (0, 0), BuildingBlock: XIVTED_clean_linker_0, # of connection points: 2
#     Edge 16, Type (0, 0), BuildingBlock: XIVTED_clean_linker_0, # of connection points: 2
#     Edge 17, Type (0, 0), BuildingBlock: XIVTED_clean_linker_0, # of connection points: 2
#     Edge 18, Type (0, 0), BuildingBlock: XIVTED_clean_linker_0, # of connection points: 2
#     Edge 19, Type (0, 0), BuildingBlock: XIVTED_clean_linker_0, # of connection points: 2
#     Edge 20, Type (0, 0), BuildingBlock: XIVTED_clean_linker_0, # of connection points: 2
#     Edge 21, Type (0, 0), BuildingBlock: XIVTED_clean_linker_0, # of connection points: 2
#     Edge 22, Type (0, 0), BuildingBlock: XIVTED_clean_linker_0, # of connection points: 2
#     Edge 23, Type (0, 0), BuildingBlock: XIVTED_clean_linker_0, # of connection points: 2
#     Edge 24, Type (0, 0), BuildingBlock: XIVTED_clean_linker_0, # of connection points: 2
#     Edge 25, Type (0, 0), BuildingBlock: XIVTED_clean_linker_0, # of connection points: 2
#     Edge 26, Type (0, 0), BuildingBlock: XIVTED_clean_linker_0, # of connection points: 2
#     Edge 27, Type (0, 0), BuildingBlock: XIVTED_clean_linker_0, # of connection points: 2
#     Edge 28, Type (0, 0), BuildingBlock: XIVTED_clean_linker_0, # of connection points: 2
#     Edge 29, Type (0, 0), BuildingBlock: XIVTED_clean_linker_0, # of connection points: 2
#     Edge 30, Type (0, 0), BuildingBlock: XIVTED_clean_linker_0, # of connection points: 2
#     Edge 31, Type (0, 0), BuildingBlock: XIVTED_clean_linker_0, # of connection points: 2
#     Edge 32, Type (0, 0), BuildingBlock: XIVTED_clean_linker_0, # of connection points: 2
#     Edge 33, Type (0, 0), BuildingBlock: XIVTED_clean_linker_0, # of connection points: 2
#     Edge 34, Type (0, 0), BuildingBlock: XIVTED_clean_linker_0, # of connection points: 2
#     Edge 35, Type (0, 0), BuildingBlock: XIVTED_clean_linker_0, # of connection points: 2
#     Edge 36, Type (0, 0), BuildingBlock: XIVTED_clean_linker_0, # of connection points: 2
#     Edge 37, Type (0, 0), BuildingBlock: XIVTED_clean_linker_0, # of connection points: 2
#     Edge 38, Type (0, 0), BuildingBlock: XIVTED_clean_linker_0, # of connection points: 2
#     Edge 39, Type (0, 0), BuildingBlock: XIVTED_clean_linker_0, # of connection points: 2
#     Edge 40, Type (0, 0), BuildingBlock: XIVTED_clean_linker_0, # of connection points: 2
#     Edge 41, Type (0, 0), BuildingBlock: XIVTED_clean_linker_0, # of connection points: 2
# Relax obj value: 0.787
# Max RMSD: 0.281
# Mean RMSD: 0.281
data_MOF--net-wlc--node1-BEQFEK_clean_sbu_0--edge1-XIVTED_clean_linker_0
_symmetry_space_group_name_H-M    P1
_symmetry_Int_Tables_number       1
_symmetry_cell_setting            triclinic
loop_
_symmetry_equiv_pos_as_xyz
'x, y, z'
_cell_length_a     46.928317
_cell_length_b     46.962666
_cell_length_c     30.414542
_cell_angle_alpha  89.93113
_cell_angle_beta   90.100583
_cell_angle_gamma 119.94146
loop_
_atom_site_label
_atom_site_type_symbol
_atom_site_fract_x
_atom_site_fract_y
_atom_site_fract_z
_atom_type_partial_charge
Co0 Co 0.04347 0.38465 0.17173 0.0
Co1 Co 0.03266 0.3353 0.09604 0.0
C2 C 0.08991 0.35937 0.15503 0.0
O3 O 0.07931 0.37567 0.1752 0.0
O4 O 0.07498 0.34207 0.12166 0.0
C5 C 0.08772 0.44644 0.19521 0.0
O6 O 0.10112 0.44074 0.1609 0.0
C7 C 0.04733 0.31846 0.01073 0.0
C8 C -0.00043 0.27733 0.98898 0.0
C9 C 0.0316 0.29812 0.97514 0.0
N10 N 0.02546 0.31064 0.04345 0.0
N11 N -0.0029 0.28555 0.03067 0.0
C12 C 0.08263 0.34499 0.01414 0.0
H13 H 0.08414 0.36923 0.01743 0.0
H14 H 0.09722 0.34511 0.98543 0.0
H15 H 0.09366 0.34106 0.04411 0.0
C16 C 0.03145 0.41965 0.10175 0.0
N17 N 0.03628 0.39511 0.1152 0.0
N18 N 0.0319 0.37529 0.08217 0.0
C19 C 0.02416 0.38711 0.04607 0.0
C20 C 0.02435 0.416 0.05739 0.0
C21 C 0.02869 0.44337 0.13195 0.0
H22 H 0.01978 0.43216 0.16474 0.0
H23 H 0.05316 0.46573 0.13538 0.0
H24 H 0.01144 0.45093 0.11858 0.0
O25 O 0.00407 0.34543 0.19287 0.0
O26 O -0.0015 0.30886 0.1416 0.0
H27 H -0.00373 0.34413 0.00671 0.0
H28 H 0.00552 0.38218 0.97967 0.0
C29 C 0.01507 0.37036 0.00232 0.0
H30 H 0.0371 0.3716 0.98721 0.0
H31 H 0.97571 0.27508 0.04958 0.0
O32 O 0.05986 0.42388 0.20882 0.0
C33 C 0.98975 0.31617 0.17776 0.0
Co34 Co 0.5992 0.67238 0.14567 0.0
Co35 Co 0.65132 0.70627 0.07198 0.0
C36 C 0.62716 0.7426 0.12875 0.0
O37 O 0.60697 0.71631 0.14804 0.0
O38 O 0.64653 0.74303 0.0991 0.0
C39 C 0.54068 0.65135 0.19628 0.0
O40 O 0.54013 0.67666 0.17878 0.0
C41 C 0.66199 0.72876 0.98197 0.0
C42 C 0.70962 0.73282 0.96533 0.0
C43 C 0.68354 0.73494 0.9473 0.0
N44 N 0.67437 0.72255 0.01817 0.0
N45 N 0.70317 0.72563 0.00834 0.0
C46 C 0.6301 0.7288 0.9814 0.0
H47 H 0.60948 0.70344 0.97628 0.0
H48 H 0.62983 0.74476 0.95463 0.0
H49 H 0.62611 0.73741 0.01353 0.0
C50 C 0.5617 0.6264 0.0764 0.0
N51 N 0.58745 0.65502 0.0895 0.0
N52 N 0.61038 0.66632 0.05913 0.0
C53 C 0.60038 0.64381 0.02637 0.0
C54 C 0.56887 0.61818 0.03596 0.0
C55 C 0.53316 0.60462 0.10529 0.0
H56 H 0.54206 0.59664 0.13397 0.0
H57 H 0.52144 0.61857 0.1173 0.0
H58 H 0.51438 0.58248 0.08768 0.0
O59 O 0.63884 0.67163 0.16501 0.0
O60 O 0.67785 0.69676 0.11438 0.0
H61 H 0.64814 0.65728 0.00068 0.0
H62 H 0.61484 0.61902 0.97931 0.0
C63 C 0.62206 0.64433 0.98999 0.0
H64 H 0.61951 0.65749 0.96134 0.0
H65 H 0.71768 0.72136 0.03042 0.0
O66 O 0.5641 0.64616 0.18713 0.0
C67 C 0.66791 0.68179 0.151 0.0
Co68 Co 0.31601 0.89889 0.15798 0.0
Co69 Co 0.30362 0.95229 0.11766 0.0
C70 C 0.25182 0.88003 0.12511 0.0
O71 O 0.27289 0.87121 0.13244 0.0
O72 O 0.26068 0.91022 0.11994 0.0
C73 C 0.32779 0.84476 0.16462 0.0
O74 O 0.3164 0.83821 0.12421 0.0
C75 C 0.2921 0.97534 0.03621 0.0
C76 C 0.3056 0.02664 0.05043 0.0
C77 C 0.29711 0.00409 0.01645 0.0
N78 N 0.29787 0.98084 0.07941 0.0
N79 N 0.305 0.01124 0.0881 0.0
C80 C 0.28739 0.94483 0.01394 0.0
H81 H 0.29106 0.92886 0.03742 0.0
H82 H 0.30474 0.95124 0.98602 0.0
H83 H 0.26199 0.93094 0.00071 0.0
C84 C 0.37583 0.93146 0.10338 0.0
N85 N 0.34644 0.92692 0.11643 0.0
N86 N 0.34165 0.94992 0.09935 0.0
C87 C 0.36832 0.97025 0.07513 0.0
C88 C 0.39059 0.95891 0.07654 0.0
C89 C 0.39131 0.9125 0.12078 0.0
H90 H 0.38766 0.90932 0.15682 0.0
H91 H 0.37942 0.8879 0.10517 0.0
H92 H 0.41806 0.92504 0.11384 0.0
O93 O 0.31152 0.92479 0.20623 0.0
O94 O 0.30932 0.96761 0.1788 0.0
H95 H 0.36528 0.01433 0.07505 0.0
H96 H 0.39898 0.01715 0.0429 0.0
C97 C 0.37311 0.0008 0.05288 0.0
H98 H 0.35781 0.99393 0.02276 0.0
H99 H 0.31181 0.02214 0.11908 0.0
O100 O 0.32978 0.86947 0.18447 0.0
C101 C 0.30977 0.95084 0.21151 0.0
Co102 Co 0.5713 0.8976 0.33267 0.0
Co103 Co 0.63239 0.94432 0.38594 0.0
C104 C 0.6116 0.87368 0.36217 0.0
O105 O 0.5818 0.86614 0.35814 0.0
O106 O 0.63323 0.903 0.37182 0.0
C107 C 0.50732 0.84542 0.31154 0.0
O108 O 0.50943 0.83427 0.35033 0.0
C109 C 0.65912 0.95647 0.47332 0.0
C110 C 0.69978 0.00774 0.46957 0.0
C111 C 0.68179 0.98227 0.49881 0.0
N112 N 0.66318 0.96636 0.4313 0.0
N113 N 0.68822 0.99668 0.4289 0.0
C114 C 0.63064 0.92491 0.48928 0.0
H115 H 0.61424 0.91075 0.4616 0.0
H116 H 0.61653 0.92994 0.51429 0.0
H117 H 0.64002 0.90997 0.50533 0.0
C118 C 0.53943 0.92485 0.38912 0.0
N119 N 0.56509 0.92122 0.37735 0.0
N120 N 0.59106 0.94114 0.40071 0.0
C121 C 0.58291 0.95894 0.42743 0.0
C122 C 0.54979 0.94878 0.4214 0.0
C123 C 0.50671 0.90838 0.36648 0.0
H124 H 0.51027 0.9098 0.33036 0.0
H125 H 0.49309 0.8821 0.37611 0.0
H126 H 0.49173 0.91979 0.37532 0.0
O127 O 0.60776 0.92751 0.29206 0.0
O128 O 0.64764 0.96833 0.33065 0.0
H129 H 0.59731 0.00306 0.46566 0.0
H130 H 0.61123 0.97641 0.48636 0.0
C131 C 0.60681 0.98661 0.45593 0.0
H132 H 0.63054 0.00104 0.43849 0.0
H133 H 0.69566 0.01064 0.40013 0.0
O134 O 0.53104 0.87238 0.29765 0.0
C135 C 0.63514 0.95448 0.2941 0.0
Co136 Co 0.04618 0.65817 0.31643 0.0
Co137 Co 0.0311 0.69478 0.39053 0.0
C138 C 0.08799 0.73042 0.33108 0.0
O139 O 0.07966 0.70343 0.31233 0.0
O140 O 0.07177 0.7321 0.36339 0.0
C141 C 0.09251 0.64337 0.28977 0.0
O142 O 0.10704 0.66319 0.32312 0.0
C143 C 0.0446 0.72524 0.47661 0.0
C144 C -0.00379 0.71705 0.49811 0.0
C145 C 0.02822 0.72856 0.51249 0.0
N146 N 0.0231 0.71156 0.44331 0.0
N147 N 0.99436 0.7074 0.45598 0.0
C148 C 0.08011 0.73464 0.47361 0.0
H149 H 0.09049 0.74728 0.44201 0.0
H150 H 0.08233 0.71222 0.47431 0.0
H151 H 0.09472 0.75128 0.50083 0.0
C152 C 0.03843 0.61342 0.38729 0.0
N153 N 0.04083 0.64165 0.37317 0.0
N154 N 0.03413 0.65598 0.40546 0.0
C155 C 0.02711 0.63668 0.4417 0.0
C156 C 0.03051 0.6096 0.43133 0.0
C157 C 0.03819 0.58774 0.35777 0.0
H158 H 0.02831 0.58844 0.32495 0.0
H159 H 0.06363 0.59231 0.35433 0.0
H160 H 0.0229 0.56272 0.37163 0.0
O161 O 0.00505 0.65439 0.29579 0.0
O162 O 0.99514 0.68328 0.34576 0.0
H163 H -0.00404 0.64945 0.4779 0.0
H164 H 0.00434 0.62023 0.50551 0.0
C165 C 0.01487 0.64239 0.48429 0.0
H166 H 0.03557 0.66271 0.50219 0.0
H167 H 0.97312 0.69642 0.43671 0.0
O168 O 0.06368 0.63677 0.27873 0.0
C169 C 0.98794 0.66662 0.31009 0.0
Co170 Co 0.32259 0.38489 0.339 0.0
Co171 Co 0.28789 0.33059 0.40994 0.0
C172 C 0.25252 0.3585 0.35854 0.0
O173 O 0.27879 0.37825 0.3388 0.0
O174 O 0.25181 0.33829 0.38715 0.0
C175 C 0.34402 0.44569 0.29419 0.0
O176 O 0.31842 0.44505 0.31266 0.0
C177 C 0.26837 0.31434 0.5009 0.0
C178 C 0.26781 0.2674 0.50845 0.0
C179 C 0.26625 0.29185 0.53209 0.0
N180 N 0.27186 0.30411 0.46111 0.0
N181 N 0.27023 0.27536 0.46558 0.0
C182 C 0.27187 0.34733 0.50944 0.0
H183 H 0.27738 0.3618 0.47861 0.0
H184 H 0.29144 0.36105 0.53413 0.0
H185 H 0.24853 0.34384 0.52347 0.0
C186 C 0.36971 0.41887 0.40907 0.0
N187 N 0.34086 0.39384 0.3951 0.0
N188 N 0.32919 0.36997 0.42423 0.0
C189 C 0.35171 0.37868 0.45698 0.0
C190 C 0.37756 0.4103 0.44882 0.0
C191 C 0.39168 0.44838 0.38179 0.0
H192 H 0.3783 0.46141 0.37275 0.0
H193 H 0.41456 0.46577 0.39933 0.0
H194 H 0.39852 0.44035 0.35127 0.0
O195 O 0.32182 0.34564 0.315 0.0
O196 O 0.29517 0.30531 0.36349 0.0
H197 H 0.37624 0.36099 0.4996 0.0
H198 H 0.34095 0.36027 0.52273 0.0
C199 C 0.35102 0.35601 0.49212 0.0
H200 H 0.33566 0.33004 0.48187 0.0
H201 H 0.27377 0.2627 0.43996 0.0
O202 O 0.34914 0.42183 0.30007 0.0
C203 C 0.31008 0.31589 0.32703 0.0
Co204 Co 0.93914 0.60233 0.81632 0.0
Co205 Co 0.95416 0.65389 0.89051 0.0
C206 C 0.8963 0.63145 0.83162 0.0
O207 O 0.90429 0.61249 0.81286 0.0
O208 O 0.9132 0.64983 0.86324 0.0
C209 C 0.89477 0.54069 0.78784 0.0
O210 O 0.87929 0.54421 0.82151 0.0
C211 C 0.93989 0.6701 0.97661 0.0
C212 C 0.98763 0.71138 -0.00192 0.0
C213 C 0.95581 0.6902 0.01239 0.0
N214 N 0.96149 0.67839 0.94342 0.0
N215 N 0.98983 0.70358 0.95607 0.0
C216 C 0.90473 0.64318 0.97364 0.0
H217 H 0.89416 0.64447 0.94165 0.0
H218 H 0.90343 0.61897 0.9754 0.0
H219 H 0.88969 0.64508 0.00035 0.0
C220 C 0.94944 0.56639 0.88666 0.0
N221 N 0.94566 0.59151 0.87286 0.0
N222 N 0.95241 0.61262 0.90505 0.0
C223 C 0.96084 0.60116 0.9409 0.0
C224 C 0.95849 0.57112 0.93042 0.0
C225 C 0.94995 0.54126 0.8568 0.0
H226 H 0.95952 0.55203 0.824 0.0
H227 H 0.92462 0.52023 0.85331 0.0
H228 H 0.96566 0.53181 0.87021 0.0
O229 O 0.97946 0.64058 0.79539 0.0
O230 O 0.98978 0.67907 0.84598 0.0
H231 H 0.99194 0.64541 0.97645 0.0
H232 H 0.98381 0.60819 0.00488 0.0
C233 C 0.97316 0.61951 0.98325 0.0
H234 H 0.95247 0.61929 0.00097 0.0
H235 H 0.01106 0.71437 0.93683 0.0
O236 O 0.92321 0.56403 0.77777 0.0
C237 C -0.00345 0.66987 0.8098 0.0
Co238 Co 0.4167 0.32957 0.86493 0.0
Co239 Co 0.35048 0.30136 0.91358 0.0
C240 C 0.37491 0.26012 0.866 0.0
O241 O 0.40402 0.28393 0.86267 0.0
O242 O 0.35241 0.26407 0.8833 0.0
C243 C 0.47223 0.34433 0.80895 0.0
O244 O 0.45368 0.31554 0.79051 0.0
C245 C 0.32307 0.2686 0.99412 0.0
C246 C 0.28014 0.27489 0.00541 0.0
C247 C 0.29958 0.2639 0.02526 0.0
N248 N 0.31833 0.28241 0.95836 0.0
N249 N 0.29219 0.28554 0.96471 0.0
C250 C 0.35075 0.26153 -0.00165 0.0
H251 H 0.37369 0.28451 0.0069 0.0
H252 H 0.34546 0.24273 0.02404 0.0
H253 H 0.35494 0.25278 0.96651 0.0
C254 C 0.44226 0.3699 0.9427 0.0
N255 N 0.41812 0.34363 0.9221 0.0
N256 N 0.38988 0.33487 0.94104 0.0
C257 C 0.39502 0.35671 0.9733 0.0
C258 C 0.42854 0.37967 0.97551 0.0
C259 C 0.47664 0.38902 0.92548 0.0
H260 H 0.4852 0.37175 0.91595 0.0
H261 H 0.49388 0.40641 0.95018 0.0
H262 H 0.47691 0.40315 0.89606 0.0
O263 O 0.38488 0.33655 0.82908 0.0
O264 O 0.3383 0.32119 0.86568 0.0
H265 H 0.377 0.38192 0.01448 0.0
H266 H 0.35738 0.3381 0.022 0.0
C267 C 0.36794 0.35812 -0.00274 0.0
H268 H 0.34807 0.35402 0.97387 0.0
H269 H 0.28385 0.29673 0.94252 0.0
O270 O 0.46054 0.35428 0.83896 0.0
C271 C 0.3562 0.33334 0.8316 0.0
Co272 Co 0.66949 0.10036 0.84385 0.0
Co273 Co 0.69484 0.05823 0.89047 0.0
C274 C 0.7402 0.12481 0.85097 0.0
O275 O 0.71651 0.12984 0.8433 0.0
O276 O 0.73537 0.09817 0.86862 0.0
C277 C 0.65459 0.15248 0.82805 0.0
O278 O 0.67249 0.16724 0.86286 0.0
C279 C 0.72177 0.04753 0.96972 0.0
C280 C 0.70493 0.99454 0.96656 0.0
C281 C 0.7191 0.02144 0.99472 0.0
N282 N 0.70832 0.03605 0.93012 0.0
N283 N 0.6993 0.00461 0.92776 0.0
C284 C 0.73557 0.08273 0.9828 0.0
H285 H 0.74723 0.09893 0.95402 0.0
H286 H 0.71537 0.08677 0.99398 0.0
H287 H 0.75408 0.08957 0.00941 0.0
C288 C 0.62653 0.08216 0.92077 0.0
N289 N 0.65293 0.08459 0.89989 0.0
N290 N 0.66237 0.06561 0.91929 0.0
C291 C 0.64161 0.04996 0.95305 0.0
C292 C 0.61856 0.0603 0.95538 0.0
C293 C 0.60557 0.09523 0.90268 0.0
H294 H 0.60111 0.08945 0.86715 0.0
H295 H 0.61868 0.12229 0.9067 0.0
H296 H 0.58152 0.08478 0.91961 0.0
O297 O 0.65958 0.06311 0.80461 0.0
O298 O 0.67525 0.03089 0.83761 0.0
H299 H 0.64397 0.00558 0.95681 0.0
H300 H 0.61805 0.00873 -0.0018 0.0
C301 C 0.64107 0.02262 0.97908 0.0
H302 H 0.66173 0.03307 0.00279 0.0
H303 H 0.68703 0.98953 0.90099 0.0
O304 O 0.64996 0.1245 0.81651 0.0
C305 C 0.6625 0.03755 0.80501 0.0
Co306 Co 0.41275 0.10082 0.64039 0.0
Co307 Co 0.34281 0.04978 0.60948 0.0
C308 C 0.36618 0.12227 0.62507 0.0
O309 O 0.39628 0.13024 0.62657 0.0
O310 O 0.34395 0.09247 0.61932 0.0
C311 C 0.46725 0.14703 0.69117 0.0
O312 O 0.44464 0.14952 0.71349 0.0
C313 C 0.30069 0.02774 0.53431 0.0
C314 C 0.26195 0.97783 0.55287 0.0
C315 C 0.27419 -0.00058 0.51752 0.0
N316 N 0.3043 0.02273 0.57682 0.0
N317 N 0.28044 0.9933 0.58832 0.0
C318 C 0.32558 0.05717 0.50919 0.0
H319 H 0.34644 0.07382 0.53064 0.0
H320 H 0.33491 0.04946 0.48075 0.0
H321 H 0.31378 0.07089 0.49631 0.0
C322 C 0.43245 0.0702 0.57241 0.0
N323 N 0.40943 0.07441 0.59278 0.0
N324 N 0.38001 0.05148 0.58041 0.0
C325 C 0.38341 0.03103 0.55237 0.0
C326 C 0.41682 0.04252 0.54597 0.0
C327 C 0.46831 0.08946 0.58352 0.0
H328 H 0.47181 0.08485 0.61837 0.0
H329 H 0.47708 0.11609 0.57992 0.0
H330 H 0.48336 0.0828 0.56252 0.0
O331 O 0.38776 0.07357 0.69193 0.0
O332 O 0.33942 0.03278 0.66928 0.0
H333 H 0.33596 0.98793 0.56016 0.0
H334 H 0.36334 0.98241 0.52379 0.0
C335 C 0.35533 -0.0002 0.53477 0.0
H336 H 0.34464 0.00552 0.50591 0.0
H337 H 0.2784 0.98283 0.61927 0.0
O338 O 0.4588 0.12781 0.65835 0.0
C339 C 0.36023 0.04781 0.69981 0.0
Co340 Co 0.9514 0.33715 0.66208 0.0
Co341 Co 0.97042 0.30253 0.58986 0.0
C342 C 0.90893 0.26608 0.6409 0.0
O343 O 0.91644 0.29217 0.66159 0.0
O344 O 0.92728 0.2654 0.61082 0.0
C345 C 0.90476 0.35273 0.68471 0.0
O346 O 0.89194 0.33459 0.64944 0.0
C347 C 0.96026 0.27366 0.50378 0.0
C348 C 0.0044 0.26943 0.49232 0.0
C349 C 0.97503 0.26331 0.47281 0.0
N350 N 0.97997 0.28523 0.53913 0.0
N351 N 0.00614 0.28225 0.53248 0.0
C352 C 0.92888 0.27454 0.5 0.0
H353 H 0.92679 0.28927 0.52695 0.0
H354 H 0.92765 0.28518 0.46795 0.0
H355 H 0.90772 0.24917 0.50249 0.0
C356 C 0.96496 0.38486 0.59254 0.0
N357 N 0.96128 0.35602 0.60628 0.0
N358 N 0.97007 0.34269 0.57494 0.0
C359 C 0.97984 0.36326 0.53978 0.0
C360 C 0.97606 0.39019 0.54972 0.0
C361 C 0.9627 0.40935 0.62177 0.0
H362 H 0.97064 0.4079 0.6556 0.0
H363 H 0.93691 0.40411 0.6224 0.0
H364 H 0.97837 0.43483 0.60956 0.0
O365 O 0.99046 0.33874 0.68738 0.0
O366 O 0.00294 0.31116 0.63841 0.0
H367 H 0.00974 0.38206 0.48141 0.0
H368 H 0.97409 0.34211 0.47606 0.0
C369 C 0.99426 0.3584 0.4986 0.0
H370 H 0.00916 0.3467 0.50629 0.0
H371 H 0.02535 0.28946 0.55496 0.0
O372 O 0.93269 0.35821 0.69836 0.0
C373 C 0.00804 0.32655 0.67486 0.0
Co374 Co 0.66667 0.59399 0.64434 0.0
Co375 Co 0.69394 0.64783 0.5716 0.0
C376 C 0.73754 0.63082 0.62351 0.0
O377 O 0.71282 0.60849 0.6433 0.0
O378 O 0.7347 0.64898 0.59489 0.0
C379 C 0.65555 0.53378 0.67689 0.0
O380 O 0.67341 0.5359 0.64249 0.0
C381 C 0.71808 0.66537 0.48271 0.0
C382 C 0.71264 0.70848 0.46835 0.0
C383 C 0.72164 0.68721 0.44952 0.0
N384 N 0.7069 0.67295 0.5189 0.0
N385 N 0.70417 0.69908 0.51043 0.0
C386 C 0.72543 0.63779 0.48077 0.0
H387 H 0.73415 0.63444 0.51318 0.0
H388 H 0.70265 0.61455 0.47272 0.0
H389 H 0.74429 0.64259 0.4554 0.0
C390 C 0.61922 0.55513 0.57649 0.0
N391 N 0.64738 0.58186 0.58892 0.0
N392 N 0.65714 0.6046 0.55828 0.0
C393 C 0.6346 0.59299 0.52541 0.0
C394 C 0.6103 0.561 0.53559 0.0
C395 C 0.59803 0.52713 0.60657 0.0
H396 H 0.60863 0.51076 0.60959 0.0
H397 H 0.57248 0.51232 0.5942 0.0
H398 H 0.5972 0.53663 0.63959 0.0
O399 O 0.6601 0.62935 0.66792 0.0
O400 O 0.68066 0.66926 0.61751 0.0
H401 H 0.60928 0.6021 0.47242 0.0
H402 H 0.65178 0.61539 0.46256 0.0
C403 C 0.63395 0.61336 0.48793 0.0
H404 H 0.64118 0.63844 0.49959 0.0
H405 H 0.69556 0.70982 0.53287 0.0
O406 O 0.64877 0.55637 0.68425 0.0
C407 C 0.66693 0.65782 0.65459 0.0
H408 H 0.05273 0.37699 0.72469 0.0
H409 H 0.01816 0.25065 0.91373 0.0
H410 H 0.01191 0.27333 0.70165 0.0
H411 H 0.06768 0.35583 0.93042 0.0
H412 H 0.02733 0.25872 0.83424 0.0
H413 H 0.0725 0.37089 0.79626 0.0
C414 C 0.04908 0.35314 0.73416 0.0
C415 C 0.03046 0.32557 0.70771 0.0
C416 C 0.03711 0.28004 0.85549 0.0
C417 C 0.05128 0.3179 0.79043 0.0
C418 C 0.0318 0.27541 0.9008 0.0
C419 C 0.04254 0.30256 0.92883 0.0
C420 C 0.05265 0.31206 0.83813 0.0
C421 C 0.05977 0.33414 0.91044 0.0
C422 C 0.06006 0.34953 0.77522 0.0
C423 C 0.0262 0.29516 0.72133 0.0
N424 N 0.06389 0.33797 0.8663 0.0
N425 N 0.03564 0.2919 0.76246 0.0
H426 H 0.72852 0.76815 0.88292 0.0
H427 H 0.61442 0.64111 0.70734 0.0
H428 H 0.62515 0.7004 0.90257 0.0
H429 H 0.71047 0.72164 0.6752 0.0
H430 H 0.6144 0.66977 0.77408 0.0
H431 H 0.72025 0.75885 0.80355 0.0
C432 C 0.70394 0.75208 0.87049 0.0
C433 C 0.67751 0.73522 0.89956 0.0
C434 C 0.63521 0.68171 0.75203 0.0
C435 C 0.66791 0.72397 0.80903 0.0
C436 C 0.6351 0.66536 0.71382 0.0
C437 C 0.66259 0.67899 0.68619 0.0
C438 C 0.66352 0.71137 0.76337 0.0
C439 C 0.68881 0.7104 0.69586 0.0
C440 C 0.6992 0.74682 0.82519 0.0
C441 C 0.6462 0.71455 0.88174 0.0
N442 N 0.68906 0.72521 0.7344 0.0
N443 N 0.64241 0.70913 0.83778 0.0
H444 H 0.30232 -0.00305 0.73188 0.0
H445 H 0.34791 0.05867 0.98042 0.0
H446 H 0.39636 0.07724 0.77344 0.0
H447 H 0.2609 0.96785 0.94551 0.0
H448 H 0.36314 0.06832 0.90297 0.0
H449 H 0.28495 0.98675 0.80888 0.0
C450 C 0.31946 0.01215 0.75714 0.0
C451 C 0.35083 0.03806 0.74609 0.0
C452 C 0.34065 0.04629 0.91215 0.0
C453 C 0.33086 0.02691 0.83397 0.0
C454 C 0.33175 0.04098 0.95631 0.0
C455 C 0.30334 0.01221 0.96932 0.0
C456 C 0.32087 0.02275 0.88072 0.0
C457 C 0.28338 0.99 0.93681 0.0
C458 C 0.30944 0.00643 0.80104 0.0
C459 C 0.37194 0.05703 0.78025 0.0
N460 N 0.29261 0.99564 0.8939 0.0
N461 N 0.36147 0.05121 0.82254 0.0
H462 H 0.6808 0.94398 0.5678 0.0
H463 H 0.62677 0.03848 0.7351 0.0
H464 H 0.67285 0.02924 0.53589 0.0
H465 H 0.68326 0.99444 0.78043 0.0
H466 H 0.62798 0.01972 0.66094 0.0
H467 H 0.66942 0.94985 0.64554 0.0
C468 C 0.67688 0.96398 0.57733 0.0
C469 C 0.67819 0.98649 0.54593 0.0
C470 C 0.6397 0.01376 0.68728 0.0
C471 C 0.66408 0.99247 0.63317 0.0
C472 C 0.63887 0.02427 0.72966 0.0
C473 C 0.65563 0.0187 0.76379 0.0
C474 C 0.65731 -0.00251 0.6789 0.0
C475 C 0.67036 -0.00041 0.7549 0.0
C476 C 0.67028 0.96719 0.62133 0.0
C477 C 0.67265 0.01179 0.55938 0.0
N478 N 0.67135 0.99006 0.71295 0.0
N479 N 0.66561 0.01396 0.60196 0.0
H480 H 0.06748 0.70973 0.55606 0.0
H481 H 0.00321 0.72912 0.78788 0.0
H482 H 0.0106 0.75781 0.57613 0.0
H483 H 0.04101 0.66438 0.75887 0.0
H484 H 0.02421 0.75655 0.717 0.0
H485 H 0.07574 0.71005 0.63476 0.0
C486 C 0.05778 0.7216 0.57672 0.0
C487 C 0.03864 0.73421 0.55919 0.0
C488 C 0.02892 0.7371 0.72684 0.0
C489 C 0.04669 0.73305 0.65021 0.0
C490 C 0.01734 0.72175 0.76753 0.0
C491 C 0.0201 0.69425 0.77875 0.0
C492 C 0.04339 0.72481 0.69767 0.0
C493 C 0.03817 0.68534 0.75106 0.0
C494 C 0.06218 0.72135 0.62199 0.0
C495 C 0.02549 0.74781 0.58831 0.0
N496 N 0.04861 0.70017 0.71141 0.0
N497 N 0.02935 0.74645 0.63247 0.0
H498 H 0.32121 0.29708 0.56727 0.0
H499 H 0.29123 0.31324 0.8137 0.0
H500 H 0.23703 0.30671 0.59992 0.0
H501 H 0.38828 0.36363 0.75619 0.0
H502 H 0.26751 0.30751 0.73996 0.0
H503 H 0.34285 0.31518 0.64108 0.0
C504 C 0.30707 0.3026 0.59037 0.0
C505 C 0.27716 0.30005 0.578 0.0
C506 C 0.29398 0.32055 0.7439 0.0
C507 C 0.3019 0.32109 0.66227 0.0
C508 C 0.30758 0.32396 0.78589 0.0
C509 C 0.34181 0.33823 0.79099 0.0
C510 C 0.31483 0.3311 0.70722 0.0
C511 C 0.36176 0.35177 0.75379 0.0
C512 C 0.31964 0.31338 0.63219 0.0
C513 C 0.26008 0.30817 0.60872 0.0
N514 N 0.34796 0.34717 0.71339 0.0
N515 N 0.27253 0.31801 0.64999 0.0
H516 H 0.98029 0.71847 0.28713 0.0
H517 H 0.91785 0.63225 0.05654 0.0
H518 H 0.94325 0.61579 0.26051 0.0
H519 H 0.97182 0.73734 0.07523 0.0
H520 H 0.90919 0.62485 0.1352 0.0
H521 H 0.95882 0.72374 0.21591 0.0
C522 C 0.96621 0.69669 0.26724 0.0
C523 C 0.96387 0.66674 0.2792 0.0
C524 C 0.92219 0.6496 0.12212 0.0
C525 C 0.94009 0.67272 0.1977 0.0
C526 C 0.9268 0.65392 0.07686 0.0
C527 C 0.94523 0.68557 0.05897 0.0
C528 C 0.93682 0.67705 0.15001 0.0
C529 C 0.9575 0.71252 0.08769 0.0
C530 C 0.95437 0.6998 0.22634 0.0
C531 C 0.94581 0.63938 0.25211 0.0
N532 N 0.9535 0.70765 0.13188 0.0
N533 N 0.93517 0.64315 0.2122 0.0
H534 H 0.3624 0.32079 0.28318 0.0
H535 H 0.2476 0.23157 0.08149 0.0
H536 H 0.2572 0.26098 0.29487 0.0
H537 H 0.35366 0.28587 0.07831 0.0
H538 H 0.25005 0.23088 0.16213 0.0
H539 H 0.35982 0.29523 0.21252 0.0
C540 C 0.33887 0.30135 0.27137 0.0
C541 C 0.30998 0.293 0.29436 0.0
C542 C 0.27275 0.24197 0.14357 0.0
C543 C 0.30639 0.265 0.21254 0.0
C544 C 0.27134 0.24245 0.09763 0.0
C545 C 0.30042 0.25821 0.07296 0.0
C546 C 0.3035 0.2579 0.16478 0.0
C547 C 0.33055 0.27231 0.09544 0.0
C548 C 0.33727 0.28693 0.23085 0.0
C549 C 0.28 0.26791 0.27784 0.0
N550 N 0.33125 0.27208 0.13992 0.0
N551 N 0.27881 0.25539 0.23715 0.0
H552 H 0.67668 0.01902 0.27247 0.0
H553 H 0.72475 0.97488 0.04104 0.0
H554 H 0.63751 0.92001 0.22429 0.0
H555 H 0.71178 0.05894 0.05972 0.0
H556 H 0.71119 0.96091 0.11865 0.0
H557 H 0.70723 0.03981 0.2031 0.0
C558 C 0.67469 0.00175 0.2474 0.0
C559 C 0.65409 0.96787 0.25344 0.0
C560 C 0.71237 0.98297 0.10567 0.0
C561 C 0.68957 0.99119 0.17562 0.0
C562 C 0.72019 0.99106 0.0615 0.0
C563 C 0.7197 0.01831 0.04327 0.0
C564 C 0.70438 0.00249 0.13191 0.0
C565 C 0.71351 0.03828 0.07161 0.0
C566 C 0.69213 0.01356 0.20814 0.0
C567 C 0.65255 0.94637 0.22035 0.0
N568 N 0.70583 0.02979 0.11441 0.0
N569 N 0.67009 0.9584 0.1828 0.0
H570 H 0.30714 0.91888 0.28747 0.0
H571 H 0.27343 0.03412 0.44486 0.0
H572 H 0.29908 0.00087 0.23793 0.0
H573 H 0.26579 0.94227 0.48417 0.0
H574 H 0.28066 0.02237 0.36843 0.0
H575 H 0.29228 0.92832 0.36 0.0
C576 C 0.30251 0.93911 0.29185 0.0
C577 C 0.30441 0.95914 0.25642 0.0
C578 C 0.27693 0.00462 0.39376 0.0
C579 C 0.2869 0.96987 0.33988 0.0
C580 C 0.27282 0.01131 0.43729 0.0
C581 C 0.26981 0.98949 0.4709 0.0
C582 C 0.27807 0.97597 0.38413 0.0
C583 C 0.26822 0.95987 0.45933 0.0
C584 C 0.29371 0.9443 0.33336 0.0
C585 C 0.29803 0.9849 0.26433 0.0
N586 N 0.27288 0.95423 0.41701 0.0
N587 N 0.28956 0.98957 0.30535 0.0
H588 H 0.91335 0.23514 0.43168 0.0
H589 H 0.94156 0.31289 0.23108 0.0
H590 H 0.01555 0.26753 0.40595 0.0
H591 H 0.99352 0.26194 0.19726 0.0
H592 H 0.92552 0.28317 0.30097 0.0
H593 H 0.9037 0.23397 0.35265 0.0
C594 C 0.93391 0.24237 0.40985 0.0
C595 C 0.96599 0.25406 0.42593 0.0
C596 C 0.9391 0.27731 0.27738 0.0
C597 C 0.95426 0.24998 0.33546 0.0
C598 C 0.94819 0.29424 0.2375 0.0
C599 C 0.96895 0.28988 0.20865 0.0
C600 C 0.95196 0.25697 0.28884 0.0
C601 C 0.97738 0.26585 0.21868 0.0
C602 C 0.92807 0.24091 0.36464 0.0
C603 C 0.99066 0.25963 0.39537 0.0
N604 N 0.97002 0.25126 0.25886 0.0
N605 N 0.9844 0.25802 0.35159 0.0
H606 H 0.72714 0.7317 0.1784 0.0
H607 H 0.70129 0.63201 0.39874 0.0
H608 H 0.65925 0.62836 0.19608 0.0
H609 H 0.75236 0.73789 0.3913 0.0
H610 H 0.70241 0.62934 0.31923 0.0
H611 H 0.75288 0.73251 0.24908 0.0
C612 C 0.71872 0.70889 0.19621 0.0
C613 C 0.69096 0.67997 0.18192 0.0
C614 C 0.71415 0.65322 0.33494 0.0
C615 C 0.71953 0.68081 0.26262 0.0
C616 C 0.71392 0.65481 0.38064 0.0
C617 C 0.72713 0.6853 0.40196 0.0
C618 C 0.72699 0.68225 0.31016 0.0
C619 C 0.74178 0.71388 0.37613 0.0
C620 C 0.7331 0.70943 0.23674 0.0
C621 C 0.68053 0.65116 0.20633 0.0
N622 N 0.74092 0.71168 0.33151 0.0
N623 N 0.69447 0.65241 0.24589 0.0
H624 H 0.01811 0.58766 0.96746 0.0
H625 H 0.96637 0.39955 0.01551 0.0
H626 H 0.92024 0.50618 0.94767 0.0
H627 H 0.0624 0.48146 0.04397 0.0
H628 H 0.94971 0.43801 0.98687 0.0
H629 H 0.03506 0.54936 -0.00427 0.0
C630 C 0.0 0.56181 0.97033 0.0
C631 C 0.96763 0.55004 0.95606 0.0
C632 C 0.97458 0.44758 -0.00115 0.0
C633 C 0.98699 0.50591 0.98647 0.0
C634 C 0.98418 0.42557 0.0145 0.0
C635 C 0.01591 0.43742 0.03136 0.0
C636 C -0.00314 0.48164 0.00036 0.0
C637 C 0.03781 0.47143 0.03069 0.0
C638 C 0.00975 0.53987 0.98578 0.0
C639 C 0.94535 0.51618 0.95895 0.0
N640 N 0.02787 0.49235 0.01567 0.0
N641 N 0.95545 0.49529 0.97357 0.0
H642 H 0.51275 0.59058 0.98741 0.0
H643 H 0.4788 0.40831 0.03436 0.0
H644 H 0.58309 0.56945 0.04802 0.0
H645 H 0.41621 0.42832 0.95183 0.0
H646 H 0.51461 0.46751 0.04586 0.0
H647 H 0.47571 0.53148 0.97591 0.0
C648 C 0.52077 0.57344 -0.00315 0.0
C649 C 0.55119 0.58467 0.01763 0.0
C650 C 0.49279 0.459 0.02574 0.0
C651 C 0.50856 0.51725 0.00683 0.0
C652 C 0.47212 0.42525 0.01984 0.0
C653 C 0.44446 0.41363 0.99259 0.0
C654 C 0.48568 0.48123 0.00415 0.0
C655 C 0.43711 0.43644 0.97364 0.0
C656 C 0.4995 0.53976 0.99098 0.0
C657 C 0.56011 0.56162 0.03088 0.0
N658 N 0.45774 0.46921 0.97951 0.0
N659 N 0.53877 0.52895 0.02561 0.0
H660 H 0.59599 0.08859 0.01323 0.0
H661 H 0.41491 0.93093 0.0214 0.0
H662 H 0.56887 -0.00298 0.94841 0.0
H663 H 0.44241 0.02049 0.09197 0.0
H664 H 0.47152 0.95468 -0.00511 0.0
H665 H 0.54036 0.06397 0.04415 0.0
C666 C 0.57838 0.06309 0.00631 0.0
C667 C 0.58691 0.04453 0.97902 0.0
C668 C 0.46522 0.96928 0.01596 0.0
C669 C 0.52332 0.01646 0.01307 0.0
C670 C 0.43294 0.95578 0.03085 0.0
C671 C 0.42409 0.97409 0.05811 0.0
C672 C 0.48883 0.00132 0.02863 0.0
C673 C 0.44824 0.00595 0.0701 0.0
C674 C 0.54666 0.0491 0.02363 0.0
C675 C 0.56327 0.01184 0.97009 0.0
N676 N 0.47957 0.01862 0.05522 0.0
N677 N 0.53248 -0.00114 0.98694 0.0
H678 H 0.5606 0.01112 0.41175 0.0
H679 H 0.40907 0.98197 0.56319 0.0
H680 H 0.49464 0.91783 0.47155 0.0
H681 H 0.46202 0.0669 0.48022 0.0
H682 H 0.44071 0.95826 0.53182 0.0
H683 H 0.52636 0.03305 0.43962 0.0
C684 C 0.53907 0.99546 0.43129 0.0
C685 C 0.53056 0.9629 0.44015 0.0
C686 C 0.44516 0.9819 0.52005 0.0
C687 C 0.49103 0.9874 0.47141 0.0
C688 C 0.42691 0.99525 0.53764 0.0
C689 C 0.43274 0.02615 0.5237 0.0
C690 C 0.46975 -0.00014 0.4888 0.0
C691 C 0.45675 0.04287 0.49151 0.0
C692 C 0.51938 0.00781 0.44681 0.0
C693 C 0.50207 0.94322 0.46457 0.0
N694 N 0.47455 0.02963 0.47533 0.0
N695 N 0.48335 0.9558 0.47957 0.0
H696 H 0.9717 0.56343 0.46639 0.0
H697 H 0.03634 0.43759 0.51968 0.0
H698 H 0.07254 0.58771 0.45075 0.0
H699 H 0.93459 0.41183 0.52626 0.0
H700 H 0.05047 0.49274 0.49406 0.0
H701 H 0.9581 0.50855 0.4924 0.0
C702 C 0.99112 0.55749 0.46987 0.0
C703 C 0.02335 0.58015 0.45734 0.0
C704 C 0.02496 0.47487 0.50044 0.0
C705 C 0.00795 0.51722 0.48511 0.0
C706 C 0.0169 0.44328 0.51429 0.0
C707 C 0.98422 0.4201 0.52416 0.0
C708 C 0.00016 0.48332 0.49697 0.0
C709 C 0.96002 0.42898 0.51828 0.0
C710 C 0.98333 0.52603 0.48393 0.0
C711 C 0.04749 0.57096 0.46087 0.0
N712 N 0.96847 0.45991 0.50537 0.0
N713 N 0.0393 0.54017 0.4742 0.0
H714 H 0.58603 0.50031 0.50001 0.0
H715 H 0.40113 0.46723 0.49417 0.0
H716 H 0.55991 0.57395 0.52997 0.0
H717 H 0.42785 0.397 0.44845 0.0
H718 H 0.45878 0.50508 0.51305 0.0
H719 H 0.52827 0.46137 0.48267 0.0
C720 C 0.56814 0.50846 0.50164 0.0
C721 C 0.57763 0.54045 0.51537 0.0
C722 C 0.45206 0.48121 0.49954 0.0
C723 C 0.51149 0.49588 0.49753 0.0
C724 C 0.41913 0.45947 0.48946 0.0
C725 C 0.40987 0.42887 0.47062 0.0
C726 C 0.47593 0.47233 0.49035 0.0
C727 C 0.43406 0.42017 0.46385 0.0
C728 C 0.53518 0.48618 0.49235 0.0
C729 C 0.55356 0.54968 0.51842 0.0
N730 N 0.46608 0.44189 0.47347 0.0
N731 N 0.52153 0.52743 0.50984 0.0
H732 H 0.12307 0.50243 0.14823 0.0
H733 H 0.12897 0.62268 0.33448 0.0
H734 H 0.08229 0.46691 0.27712 0.0
H735 H 0.08486 0.61721 0.20784 0.0
H736 H 0.13944 0.57864 0.31178 0.0
H737 H 0.1365 0.55792 0.17033 0.0
C738 C 0.11786 0.50651 0.18159 0.0
C739 C 0.10118 0.4802 0.2109 0.0
C740 C 0.12843 0.58794 0.2887 0.0
C741 C 0.11724 0.54315 0.2362 0.0
C742 C 0.12254 0.61299 0.30139 0.0
C743 C 0.10562 0.62303 0.27303 0.0
C744 C 0.11826 0.57389 0.24703 0.0
C745 C 0.09759 0.60968 0.23069 0.0
C746 C 0.1255 0.53803 0.19396 0.0
C747 C 0.09478 0.48662 0.25356 0.0
N748 N 0.10382 0.58549 0.21893 0.0
N749 N 0.10269 0.51763 0.26499 0.0
H750 H 0.47899 0.64428 0.20309 0.0
H751 H 0.40153 0.45556 0.25942 0.0
H752 H 0.53542 0.59767 0.23747 0.0
H753 H 0.34732 0.50567 0.28655 0.0
H754 H 0.44886 0.50765 0.23914 0.0
H755 H 0.42876 0.59431 0.22629 0.0
C756 C 0.48091 0.62386 0.21623 0.0
C757 C 0.51132 0.62488 0.21778 0.0
C758 C 0.4266 0.50728 0.24945 0.0
C759 C 0.45438 0.56802 0.24312 0.0
C760 C 0.39942 0.47749 0.26067 0.0
C761 C 0.37054 0.47633 0.2752 0.0
C762 C 0.42492 0.53619 0.25235 0.0
C763 C 0.36923 0.50557 0.27575 0.0
C764 C 0.45229 0.5954 0.22917 0.0
C765 C 0.51246 0.5978 0.23507 0.0
N766 N 0.39623 0.53453 0.26461 0.0
N767 N 0.48435 0.57034 0.24649 0.0
H768 H 0.3629 0.82131 0.12183 0.0
H769 H 0.44542 0.80971 0.34541 0.0
H770 H 0.33197 0.83253 0.25097 0.0
H771 H 0.49793 0.84744 0.22351 0.0
H772 H 0.39389 0.79508 0.30707 0.0
H773 H 0.40197 0.80762 0.15601 0.0
C774 C 0.36356 0.81978 0.15733 0.0
C775 C 0.34471 0.8285 0.1838 0.0
C776 C 0.41664 0.80579 0.28861 0.0
C777 C 0.38884 0.81284 0.22271 0.0
C778 C 0.44597 0.81405 0.31036 0.0
C779 C 0.47589 0.83032 0.28761 0.0
C780 C 0.4174 0.81347 0.24387 0.0
C781 C 0.47533 0.83543 0.24228 0.0
C782 C 0.38591 0.81216 0.17673 0.0
C783 C 0.34653 0.82639 0.22957 0.0
N784 N 0.44653 0.82735 0.2219 0.0
N785 N 0.36856 0.8191 0.24768 0.0
H786 H 0.90862 0.3749 0.76844 0.0
H787 H 0.90419 0.52594 0.70457 0.0
H788 H 0.86959 0.37487 0.63983 0.0
H789 H 0.85967 0.48175 0.82877 0.0
H790 H 0.89385 0.47217 0.67865 0.0
H791 H 0.89309 0.41506 0.79289 0.0
C792 C 0.89621 0.3829 0.74572 0.0
C793 C 0.89058 0.37199 0.7021 0.0
C794 C 0.88558 0.4742 0.71113 0.0
C795 C 0.87363 0.41791 0.72928 0.0
C796 C 0.89161 0.50474 0.72592 0.0
C797 C 0.883 0.50808 0.76884 0.0
C798 C 0.872 0.44741 0.74012 0.0
C799 C 0.86668 0.48003 0.79541 0.0
C800 C 0.8872 0.40552 0.75968 0.0
C801 C 0.87435 0.38285 0.67377 0.0
N802 N 0.86257 0.45087 0.78108 0.0
N803 N 0.86725 0.40607 0.68749 0.0
H804 H 0.50084 0.34292 0.73075 0.0
H805 H 0.63791 0.52713 0.7626 0.0
H806 H 0.52089 0.39573 0.85335 0.0
H807 H 0.63419 0.47127 0.64812 0.0
H808 H 0.60059 0.47621 0.80031 0.0
H809 H 0.55429 0.38584 0.70303 0.0
C810 C 0.51671 0.36319 0.75208 0.0
C811 C 0.50608 0.36635 0.79391 0.0
C812 C 0.6083 0.47487 0.76721 0.0
C813 C 0.56683 0.41516 0.76273 0.0
C814 C 0.62957 0.50397 0.74575 0.0
C815 C 0.63857 0.50321 0.70217 0.0
C816 C 0.59521 0.44491 0.7444 0.0
C817 C 0.62754 0.47271 0.68177 0.0
C818 C 0.54718 0.38761 0.73632 0.0
C819 C 0.52765 0.3928 0.82044 0.0
N820 N 0.6057 0.44465 0.70275 0.0
N821 N 0.55676 0.41639 0.80419 0.0
H822 H 0.64374 0.15014 0.74062 0.0
H823 H 0.49138 0.17527 0.77171 0.0
H824 H 0.62436 0.18458 0.86206 0.0
H825 H 0.52072 0.15316 0.64777 0.0
H826 H 0.54519 0.1896 0.80233 0.0
H827 H 0.60512 0.16211 0.70297 0.0
C828 C 0.63166 0.16081 0.75912 0.0
C829 C 0.63673 0.16601 0.80443 0.0
C830 C 0.54007 0.18227 0.76818 0.0
C831 C 0.59175 0.1789 0.76204 0.0
C832 C 0.50937 0.1741 0.75068 0.0
C833 C 0.50132 0.16219 0.70751 0.0
C834 C 0.56262 0.17833 0.74226 0.0
C835 C 0.52562 0.16147 0.68157 0.0
C836 C 0.60961 0.16767 0.73769 0.0
C837 C 0.62088 0.18016 0.82701 0.0
N838 N 0.55495 0.16889 0.69956 0.0
N839 N 0.5984 0.18543 0.80573 0.0
H840 H 0.19628 0.30305 0.33365 0.0
H841 H 0.14658 0.41108 0.18263 0.0
H842 H 0.24216 0.40858 0.33863 0.0
H843 H 0.09404 0.30526 0.17816 0.0
H844 H 0.18344 0.40962 0.23778 0.0
H845 H 0.15686 0.30183 0.27927 0.0
C846 C 0.19713 0.32579 0.32468 0.0
C847 C 0.22227 0.35596 0.34069 0.0
C848 C 0.16421 0.38661 0.22444 0.0
C849 C 0.17859 0.35495 0.27747 0.0
C850 C 0.14358 0.38752 0.19236 0.0
C851 C 0.11762 0.35828 0.1756 0.0
C852 C 0.15864 0.35618 0.24043 0.0
C853 C 0.11424 0.32833 0.18982 0.0
C854 C 0.17513 0.32517 0.29299 0.0
C855 C 0.22299 0.38483 0.32717 0.0
N856 N 0.13434 0.32799 0.22196 0.0
N857 N 0.20177 0.38363 0.296 0.0
H858 H 0.67203 0.89179 0.32594 0.0
H859 H 0.57938 0.75703 0.14417 0.0
H860 H 0.57353 0.80937 0.33924 0.0
H861 H 0.68305 0.7939 0.16266 0.0
H862 H 0.58001 0.79026 0.20614 0.0
H863 H 0.68012 0.86517 0.26157 0.0
C864 C 0.65253 0.8676 0.31647 0.0
C865 C 0.62173 0.85306 0.33758 0.0
C866 C 0.60282 0.79169 0.19601 0.0
C867 C 0.63052 0.82361 0.26325 0.0
C868 C 0.60262 0.7734 0.16005 0.0
C869 C 0.63118 0.77281 0.1485 0.0
C870 C 0.6318 0.80954 0.22048 0.0
C871 C 0.66061 0.79402 0.17049 0.0
C872 C 0.65706 0.85277 0.2793 0.0
C873 C 0.59745 0.82175 0.32363 0.0
N874 N 0.66012 0.81124 0.20624 0.0
N875 N 0.60206 0.80848 0.28669 0.0
H876 H 0.22027 0.81317 0.12415 0.0
H877 H 0.08888 0.78731 0.30731 0.0
H878 H 0.20732 0.89457 0.16186 0.0
H879 H 0.14522 0.73772 0.30216 0.0
H880 H 0.12335 0.8241 0.2477 0.0
H881 H 0.17832 0.77861 0.17731 0.0
C882 C 0.20769 0.82345 0.14238 0.0
C883 C 0.21789 0.85697 0.13936 0.0
C884 C 0.12839 0.8055 0.26037 0.0
C885 C 0.17078 0.81795 0.20123 0.0
C886 C 0.10929 0.78506 0.29488 0.0
C887 C 0.11445 0.75966 0.3096 0.0
C888 C 0.15206 0.79976 0.24048 0.0
C889 C 0.14056 0.75709 0.2917 0.0
C890 C 0.18422 0.80391 0.17331 0.0
C891 C 0.20047 0.8689 0.16354 0.0
N892 N 0.15799 0.77646 0.25762 0.0
N893 N 0.17822 0.84957 0.19443 0.0
H894 H 0.89517 0.68791 0.81162 0.0
H895 H 0.76028 0.58851 0.62782 0.0
H896 H 0.83944 0.58241 0.79963 0.0
H897 H 0.78472 0.68712 0.66203 0.0
H898 H 0.79971 0.59114 0.68216 0.0
H899 H 0.86069 0.69219 0.75361 0.0
C900 C 0.8749 0.6657 0.798 0.0
C901 C 0.86997 0.63474 0.81033 0.0
C902 C 0.79702 0.61253 0.67733 0.0
C903 C 0.832 0.63948 0.74313 0.0
C904 C 0.77508 0.61125 0.6456 0.0
C905 C 0.7696 0.63771 0.64036 0.0
C906 C 0.81328 0.64033 0.70444 0.0
C907 C 0.78877 0.66642 0.66483 0.0
C908 C 0.85573 0.66816 0.76441 0.0
C909 C 0.84399 0.60672 0.79101 0.0
N910 N 0.80952 0.66685 0.69655 0.0
N911 N 0.82634 0.60978 0.758 0.0
H912 H 0.30797 0.1079 0.66501 0.0
H913 H 0.41589 0.23894 0.83745 0.0
H914 H 0.4052 0.18836 0.63647 0.0
H915 H 0.31518 0.2173 0.82838 0.0
H916 H 0.40782 0.20672 0.77118 0.0
H917 H 0.30485 0.13897 0.72779 0.0
C918 C 0.32809 0.13261 0.67063 0.0
C919 C 0.35741 0.14515 0.64624 0.0
C920 C 0.38737 0.2087 0.7841 0.0
C921 C 0.35423 0.17977 0.71847 0.0
C922 C 0.39175 0.22657 0.8223 0.0
C923 C 0.36635 0.23129 0.83804 0.0
C924 C 0.35725 0.19496 0.7618 0.0
C925 C 0.33546 0.21437 0.81721 0.0
C926 C 0.32638 0.15004 0.70686 0.0
C927 C 0.38249 0.17736 0.65502 0.0
N928 N 0.33179 0.19713 0.77959 0.0
N929 N 0.38081 0.19311 0.69135 0.0
H930 H 0.84744 0.25551 0.64851 0.0
H931 H 0.7873 0.11057 0.82243 0.0
H932 H 0.90729 0.21168 0.67554 0.0
H933 H 0.76301 0.18792 0.82535 0.0
H934 H 0.82754 0.14041 0.76404 0.0
H935 H 0.80791 0.21965 0.70329 0.0
C936 C 0.85146 0.23724 0.66476 0.0
C937 C 0.88037 0.23625 0.65749 0.0
C938 C 0.8137 0.15095 0.77812 0.0
C939 C 0.83634 0.19647 0.72181 0.0
C940 C 0.79116 0.13428 0.81189 0.0
C941 C 0.7715 0.14664 0.82843 0.0
C942 C 0.81608 0.17977 0.7608 0.0
C943 C 0.77731 0.17728 0.81321 0.0
C944 C 0.82934 0.21733 0.6967 0.0
C945 C 0.88492 0.2127 0.67995 0.0
N946 N 0.79861 0.19245 0.77977 0.0
N947 N 0.8633 0.19393 0.71186 0.0
loop_
_geom_bond_atom_site_label_1
_geom_bond_atom_site_label_2
_geom_bond_distance
_geom_bond_site_symmetry_2
_ccdc_geom_bond_type
Co0 O3 1.970 . S
Co0 N17 1.989 . S
Co0 O25 1.967 . S
Co0 O32 1.920 . S
Co1 O4 1.966 . S
Co1 N10 2.022 . S
Co1 N18 1.993 . S
Co1 O26 1.941 . S
C2 O3 1.258 . S
C2 O4 1.263 . S
O3 Co0 1.970 . S
O3 C2 1.258 . S
O4 Co1 1.966 . S
O4 C2 1.263 . S
C5 O6 1.235 . S
C5 O32 1.289 . S
O6 C5 1.235 . S
C7 C9 1.400 1_554 S
C7 N10 1.351 . S
C7 C12 1.501 . S
C8 C9 1.387 . S
C8 N11 1.341 1_556 S
C9 C7 1.400 1_556 S
C9 C8 1.387 . S
N10 Co1 2.022 . S
N10 C7 1.351 . S
N10 N11 1.365 . S
N11 C8 1.341 1_554 S
N11 N10 1.365 . S
N11 H31 0.862 1_455 S
C12 C7 1.501 . S
C12 H13 0.961 . S
C12 H14 0.961 1_554 S
C12 H15 0.960 . S
H13 C12 0.961 . S
H14 C12 0.961 1_556 S
H15 C12 0.960 . S
C16 N17 1.342 . S
C16 C20 1.401 . S
C16 C21 1.499 . S
N17 Co0 1.989 . S
N17 C16 1.342 . S
N17 N18 1.388 . S
N18 Co1 1.993 . S
N18 N17 1.388 . S
N18 C19 1.346 . S
C19 N18 1.346 . S
C19 C20 1.396 . S
C19 C29 1.510 1_554 S
C20 C16 1.401 . S
C20 C19 1.396 . S
C21 C16 1.499 . S
C21 H22 0.959 . S
C21 H23 0.960 . S
C21 H24 0.961 . S
H22 C21 0.959 . S
H23 C21 0.960 . S
H24 C21 0.961 . S
O25 Co0 1.967 . S
O25 C33 1.258 . S
O26 Co1 1.941 . S
O26 C33 1.266 . S
H27 C29 0.959 . S
H28 C29 0.961 . S
C29 C19 1.510 1_556 S
C29 H27 0.959 . S
C29 H28 0.961 . S
C29 H30 0.960 . S
H30 C29 0.960 . S
H31 N11 0.862 1_655 S
O32 Co0 1.920 . S
O32 C5 1.289 . S
C33 O25 1.258 . S
C33 O26 1.266 . S
Co34 O37 1.970 . S
Co34 N51 1.989 . S
Co34 O59 1.967 . S
Co34 O66 1.920 . S
Co35 O38 1.966 . S
Co35 N44 2.022 . S
Co35 N52 1.993 . S
Co35 O60 1.941 . S
C36 O37 1.258 . S
C36 O38 1.263 . S
O37 Co34 1.970 . S
O37 C36 1.258 . S
O38 Co35 1.966 . S
O38 C36 1.263 . S
C39 O40 1.235 . S
C39 O66 1.289 . S
O40 C39 1.235 . S
C41 C43 1.400 1_554 S
C41 N44 1.351 . S
C41 C46 1.501 . S
C42 C43 1.387 . S
C42 N45 1.341 1_556 S
C43 C41 1.400 1_556 S
C43 C42 1.387 . S
N44 Co35 2.022 . S
N44 C41 1.351 . S
N44 N45 1.365 . S
N45 C42 1.341 1_554 S
N45 N44 1.365 . S
N45 H65 0.862 . S
C46 C41 1.501 . S
C46 H47 0.961 . S
C46 H48 0.961 1_554 S
C46 H49 0.960 . S
H47 C46 0.961 . S
H48 C46 0.961 1_556 S
H49 C46 0.960 . S
C50 N51 1.342 . S
C50 C54 1.401 . S
C50 C55 1.499 . S
N51 Co34 1.989 . S
N51 C50 1.342 . S
N51 N52 1.388 . S
N52 Co35 1.993 . S
N52 N51 1.388 . S
N52 C53 1.346 . S
C53 N52 1.346 . S
C53 C54 1.396 . S
C53 C63 1.510 1_554 S
C54 C50 1.401 . S
C54 C53 1.396 . S
C55 C50 1.499 . S
C55 H56 0.959 . S
C55 H57 0.960 . S
C55 H58 0.961 . S
H56 C55 0.959 . S
H57 C55 0.960 . S
H58 C55 0.961 . S
O59 Co34 1.967 . S
O59 C67 1.258 . S
O60 Co35 1.941 . S
O60 C67 1.266 . S
H61 C63 0.959 . S
H62 C63 0.961 . S
C63 C53 1.510 1_556 S
C63 H61 0.959 . S
C63 H62 0.961 . S
C63 H64 0.960 . S
H64 C63 0.960 . S
H65 N45 0.862 . S
O66 Co34 1.920 . S
O66 C39 1.289 . S
C67 O59 1.258 . S
C67 O60 1.266 . S
Co68 O71 1.970 . S
Co68 N85 1.989 . S
Co68 O93 1.967 . S
Co68 O100 1.920 . S
Co69 O72 1.966 . S
Co69 N78 2.022 . S
Co69 N86 1.993 . S
Co69 O94 1.941 . S
C70 O71 1.258 . S
C70 O72 1.263 . S
O71 Co68 1.970 . S
O71 C70 1.258 . S
O72 Co69 1.966 . S
O72 C70 1.263 . S
C73 O74 1.235 . S
C73 O100 1.289 . S
O74 C73 1.235 . S
C75 C77 1.400 1_554 S
C75 N78 1.351 . S
C75 C80 1.501 . S
C76 C77 1.387 . S
C76 N79 1.341 1_556 S
C77 C75 1.400 1_556 S
C77 C76 1.387 . S
N78 Co69 2.022 . S
N78 C75 1.351 . S
N78 N79 1.365 . S
N79 C76 1.341 1_554 S
N79 N78 1.365 . S
N79 H99 0.862 1_565 S
C80 C75 1.501 . S
C80 H81 0.961 . S
C80 H82 0.961 1_554 S
C80 H83 0.960 . S
H81 C80 0.961 . S
H82 C80 0.961 1_556 S
H83 C80 0.960 . S
C84 N85 1.342 . S
C84 C88 1.401 . S
C84 C89 1.499 . S
N85 Co68 1.989 . S
N85 C84 1.342 . S
N85 N86 1.388 . S
N86 Co69 1.993 . S
N86 N85 1.388 . S
N86 C87 1.346 . S
C87 N86 1.346 . S
C87 C88 1.396 . S
C87 C97 1.510 1_554 S
C88 C84 1.401 . S
C88 C87 1.396 . S
C89 C84 1.499 . S
C89 H90 0.959 . S
C89 H91 0.960 . S
C89 H92 0.961 . S
H90 C89 0.959 . S
H91 C89 0.960 . S
H92 C89 0.961 . S
O93 Co68 1.967 . S
O93 C101 1.258 . S
O94 Co69 1.941 . S
O94 C101 1.266 . S
H95 C97 0.959 . S
H96 C97 0.961 . S
C97 C87 1.510 1_556 S
C97 H95 0.959 . S
C97 H96 0.961 . S
C97 H98 0.960 . S
H98 C97 0.960 . S
H99 N79 0.862 1_545 S
O100 Co68 1.920 . S
O100 C73 1.289 . S
C101 O93 1.258 . S
C101 O94 1.266 . S
Co102 O105 1.970 . S
Co102 N119 1.989 . S
Co102 O127 1.967 . S
Co102 O134 1.920 . S
Co103 O106 1.966 . S
Co103 N112 2.022 . S
Co103 N120 1.993 . S
Co103 O128 1.941 . S
C104 O105 1.258 . S
C104 O106 1.263 . S
O105 Co102 1.970 . S
O105 C104 1.258 . S
O106 Co103 1.966 . S
O106 C104 1.263 . S
C107 O108 1.235 . S
C107 O134 1.289 . S
O108 C107 1.235 . S
C109 C111 1.400 . S
C109 N112 1.351 . S
C109 C114 1.501 . S
C110 C111 1.387 . S
C110 N113 1.341 . S
C111 C109 1.400 . S
C111 C110 1.387 . S
N112 Co103 2.022 . S
N112 C109 1.351 . S
N112 N113 1.365 . S
N113 C110 1.341 . S
N113 N112 1.365 . S
N113 H133 0.862 1_565 S
C114 C109 1.501 . S
C114 H115 0.961 . S
C114 H116 0.961 . S
C114 H117 0.960 . S
H115 C114 0.961 . S
H116 C114 0.961 . S
H117 C114 0.960 . S
C118 N119 1.342 . S
C118 C122 1.401 . S
C118 C123 1.499 . S
N119 Co102 1.989 . S
N119 C118 1.342 . S
N119 N120 1.388 . S
N120 Co103 1.993 . S
N120 N119 1.388 . S
N120 C121 1.346 . S
C121 N120 1.346 . S
C121 C122 1.396 . S
C121 C131 1.510 . S
C122 C118 1.401 . S
C122 C121 1.396 . S
C123 C118 1.499 . S
C123 H124 0.959 . S
C123 H125 0.960 . S
C123 H126 0.961 . S
H124 C123 0.959 . S
H125 C123 0.960 . S
H126 C123 0.961 . S
O127 Co102 1.967 . S
O127 C135 1.258 . S
O128 Co103 1.941 . S
O128 C135 1.266 . S
H129 C131 0.959 . S
H130 C131 0.961 . S
C131 C121 1.510 . S
C131 H129 0.959 . S
C131 H130 0.961 . S
C131 H132 0.960 . S
H132 C131 0.960 . S
H133 N113 0.862 1_545 S
O134 Co102 1.920 . S
O134 C107 1.289 . S
C135 O127 1.258 . S
C135 O128 1.266 . S
Co136 O139 1.970 . S
Co136 N153 1.989 . S
Co136 O161 1.967 . S
Co136 O168 1.920 . S
Co137 O140 1.966 . S
Co137 N146 2.022 . S
Co137 N154 1.993 . S
Co137 O162 1.941 . S
C138 O139 1.258 . S
C138 O140 1.263 . S
O139 Co136 1.970 . S
O139 C138 1.258 . S
O140 Co137 1.966 . S
O140 C138 1.263 . S
C141 O142 1.235 . S
C141 O168 1.289 . S
O142 C141 1.235 . S
C143 C145 1.400 . S
C143 N146 1.351 . S
C143 C148 1.501 . S
C144 C145 1.387 . S
C144 N147 1.341 . S
C145 C143 1.400 . S
C145 C144 1.387 . S
N146 Co137 2.022 . S
N146 C143 1.351 . S
N146 N147 1.365 . S
N147 C144 1.341 . S
N147 N146 1.365 . S
N147 H167 0.862 1_455 S
C148 C143 1.501 . S
C148 H149 0.961 . S
C148 H150 0.961 . S
C148 H151 0.960 . S
H149 C148 0.961 . S
H150 C148 0.961 . S
H151 C148 0.960 . S
C152 N153 1.342 . S
C152 C156 1.401 . S
C152 C157 1.499 . S
N153 Co136 1.989 . S
N153 C152 1.342 . S
N153 N154 1.388 . S
N154 Co137 1.993 . S
N154 N153 1.388 . S
N154 C155 1.346 . S
C155 N154 1.346 . S
C155 C156 1.396 . S
C155 C165 1.510 . S
C156 C152 1.401 . S
C156 C155 1.396 . S
C157 C152 1.499 . S
C157 H158 0.959 . S
C157 H159 0.960 . S
C157 H160 0.961 . S
H158 C157 0.959 . S
H159 C157 0.960 . S
H160 C157 0.961 . S
O161 Co136 1.967 . S
O161 C169 1.258 . S
O162 Co137 1.941 . S
O162 C169 1.266 . S
H163 C165 0.959 . S
H164 C165 0.961 . S
C165 C155 1.510 . S
C165 H163 0.959 . S
C165 H164 0.961 . S
C165 H166 0.960 . S
H166 C165 0.960 . S
H167 N147 0.862 1_655 S
O168 Co136 1.920 . S
O168 C141 1.289 . S
C169 O161 1.258 . S
C169 O162 1.266 . S
Co170 O173 1.970 . S
Co170 N187 1.989 . S
Co170 O195 1.967 . S
Co170 O202 1.920 . S
Co171 O174 1.966 . S
Co171 N180 2.022 . S
Co171 N188 1.993 . S
Co171 O196 1.941 . S
C172 O173 1.258 . S
C172 O174 1.263 . S
O173 Co170 1.970 . S
O173 C172 1.258 . S
O174 Co171 1.966 . S
O174 C172 1.263 . S
C175 O176 1.235 . S
C175 O202 1.289 . S
O176 C175 1.235 . S
C177 C179 1.400 . S
C177 N180 1.351 . S
C177 C182 1.501 . S
C178 C179 1.387 . S
C178 N181 1.341 . S
C179 C177 1.400 . S
C179 C178 1.387 . S
N180 Co171 2.022 . S
N180 C177 1.351 . S
N180 N181 1.365 . S
N181 C178 1.341 . S
N181 N180 1.365 . S
N181 H201 0.862 . S
C182 C177 1.501 . S
C182 H183 0.961 . S
C182 H184 0.961 . S
C182 H185 0.960 . S
H183 C182 0.961 . S
H184 C182 0.961 . S
H185 C182 0.960 . S
C186 N187 1.342 . S
C186 C190 1.401 . S
C186 C191 1.499 . S
N187 Co170 1.989 . S
N187 C186 1.342 . S
N187 N188 1.388 . S
N188 Co171 1.993 . S
N188 N187 1.388 . S
N188 C189 1.346 . S
C189 N188 1.346 . S
C189 C190 1.396 . S
C189 C199 1.510 . S
C190 C186 1.401 . S
C190 C189 1.396 . S
C191 C186 1.499 . S
C191 H192 0.959 . S
C191 H193 0.960 . S
C191 H194 0.961 . S
H192 C191 0.959 . S
H193 C191 0.960 . S
H194 C191 0.961 . S
O195 Co170 1.967 . S
O195 C203 1.258 . S
O196 Co171 1.941 . S
O196 C203 1.266 . S
H197 C199 0.959 . S
H198 C199 0.961 . S
C199 C189 1.510 . S
C199 H197 0.959 . S
C199 H198 0.961 . S
C199 H200 0.960 . S
H200 C199 0.960 . S
H201 N181 0.862 . S
O202 Co170 1.920 . S
O202 C175 1.289 . S
C203 O195 1.258 . S
C203 O196 1.266 . S
Co204 O207 1.970 . S
Co204 N221 1.989 . S
Co204 O229 1.967 . S
Co204 O236 1.920 . S
Co205 O208 1.966 . S
Co205 N214 2.022 . S
Co205 N222 1.993 . S
Co205 O230 1.941 . S
C206 O207 1.258 . S
C206 O208 1.263 . S
O207 Co204 1.970 . S
O207 C206 1.258 . S
O208 Co205 1.966 . S
O208 C206 1.263 . S
C209 O210 1.235 . S
C209 O236 1.289 . S
O210 C209 1.235 . S
C211 C213 1.400 1_556 S
C211 N214 1.351 . S
C211 C216 1.501 . S
C212 C213 1.387 . S
C212 N215 1.341 1_554 S
C213 C211 1.400 1_554 S
C213 C212 1.387 . S
N214 Co205 2.022 . S
N214 C211 1.351 . S
N214 N215 1.365 . S
N215 C212 1.341 1_556 S
N215 N214 1.365 . S
N215 H235 0.862 1_655 S
C216 C211 1.501 . S
C216 H217 0.961 . S
C216 H218 0.961 1_556 S
C216 H219 0.960 . S
H217 C216 0.961 . S
H218 C216 0.961 1_554 S
H219 C216 0.960 . S
C220 N221 1.342 . S
C220 C224 1.401 . S
C220 C225 1.499 . S
N221 Co204 1.989 . S
N221 C220 1.342 . S
N221 N222 1.388 . S
N222 Co205 1.993 . S
N222 N221 1.388 . S
N222 C223 1.346 . S
C223 N222 1.346 . S
C223 C224 1.396 . S
C223 C233 1.510 1_556 S
C224 C220 1.401 . S
C224 C223 1.396 . S
C225 C220 1.499 . S
C225 H226 0.959 . S
C225 H227 0.960 . S
C225 H228 0.961 . S
H226 C225 0.959 . S
H227 C225 0.960 . S
H228 C225 0.961 . S
O229 Co204 1.967 . S
O229 C237 1.258 . S
O230 Co205 1.941 . S
O230 C237 1.266 . S
H231 C233 0.959 . S
H232 C233 0.961 . S
C233 C223 1.510 1_554 S
C233 H231 0.959 . S
C233 H232 0.961 . S
C233 H234 0.960 . S
H234 C233 0.960 . S
H235 N215 0.862 1_455 S
O236 Co204 1.920 . S
O236 C209 1.289 . S
C237 O229 1.258 . S
C237 O230 1.266 . S
Co238 O241 1.970 . S
Co238 N255 1.989 . S
Co238 O263 1.967 . S
Co238 O270 1.920 . S
Co239 O242 1.966 . S
Co239 N248 2.022 . S
Co239 N256 1.993 . S
Co239 O264 1.941 . S
C240 O241 1.258 . S
C240 O242 1.263 . S
O241 Co238 1.970 . S
O241 C240 1.258 . S
O242 Co239 1.966 . S
O242 C240 1.263 . S
C243 O244 1.235 . S
C243 O270 1.289 . S
O244 C243 1.235 . S
C245 C247 1.400 1_556 S
C245 N248 1.351 . S
C245 C250 1.501 . S
C246 C247 1.387 . S
C246 N249 1.341 1_554 S
C247 C245 1.400 1_554 S
C247 C246 1.387 . S
N248 Co239 2.022 . S
N248 C245 1.351 . S
N248 N249 1.365 . S
N249 C246 1.341 1_556 S
N249 N248 1.365 . S
N249 H269 0.862 . S
C250 C245 1.501 . S
C250 H251 0.961 . S
C250 H252 0.961 1_556 S
C250 H253 0.960 . S
H251 C250 0.961 . S
H252 C250 0.961 1_554 S
H253 C250 0.960 . S
C254 N255 1.342 . S
C254 C258 1.401 . S
C254 C259 1.499 . S
N255 Co238 1.989 . S
N255 C254 1.342 . S
N255 N256 1.388 . S
N256 Co239 1.993 . S
N256 N255 1.388 . S
N256 C257 1.346 . S
C257 N256 1.346 . S
C257 C258 1.396 . S
C257 C267 1.510 1_556 S
C258 C254 1.401 . S
C258 C257 1.396 . S
C259 C254 1.499 . S
C259 H260 0.959 . S
C259 H261 0.960 . S
C259 H262 0.961 . S
H260 C259 0.959 . S
H261 C259 0.960 . S
H262 C259 0.961 . S
O263 Co238 1.967 . S
O263 C271 1.258 . S
O264 Co239 1.941 . S
O264 C271 1.266 . S
H265 C267 0.959 . S
H266 C267 0.961 . S
C267 C257 1.510 1_554 S
C267 H265 0.959 . S
C267 H266 0.961 . S
C267 H268 0.960 . S
H268 C267 0.960 . S
H269 N249 0.862 . S
O270 Co238 1.920 . S
O270 C243 1.289 . S
C271 O263 1.258 . S
C271 O264 1.266 . S
Co272 O275 1.970 . S
Co272 N289 1.989 . S
Co272 O297 1.967 . S
Co272 O304 1.920 . S
Co273 O276 1.966 . S
Co273 N282 2.022 . S
Co273 N290 1.993 . S
Co273 O298 1.941 . S
C274 O275 1.258 . S
C274 O276 1.263 . S
O275 Co272 1.970 . S
O275 C274 1.258 . S
O276 Co273 1.966 . S
O276 C274 1.263 . S
C277 O278 1.235 . S
C277 O304 1.289 . S
O278 C277 1.235 . S
C279 C281 1.400 1_556 S
C279 N282 1.351 . S
C279 C284 1.501 . S
C280 C281 1.387 . S
C280 N283 1.341 1_554 S
C281 C279 1.400 1_554 S
C281 C280 1.387 . S
N282 Co273 2.022 . S
N282 C279 1.351 . S
N282 N283 1.365 . S
N283 C280 1.341 1_556 S
N283 N282 1.365 . S
N283 H303 0.862 1_545 S
C284 C279 1.501 . S
C284 H285 0.961 . S
C284 H286 0.961 1_556 S
C284 H287 0.960 . S
H285 C284 0.961 . S
H286 C284 0.961 1_554 S
H287 C284 0.960 . S
C288 N289 1.342 . S
C288 C292 1.401 . S
C288 C293 1.499 . S
N289 Co272 1.989 . S
N289 C288 1.342 . S
N289 N290 1.388 . S
N290 Co273 1.993 . S
N290 N289 1.388 . S
N290 C291 1.346 . S
C291 N290 1.346 . S
C291 C292 1.396 . S
C291 C301 1.510 1_556 S
C292 C288 1.401 . S
C292 C291 1.396 . S
C293 C288 1.499 . S
C293 H294 0.959 . S
C293 H295 0.960 . S
C293 H296 0.961 . S
H294 C293 0.959 . S
H295 C293 0.960 . S
H296 C293 0.961 . S
O297 Co272 1.967 . S
O297 C305 1.258 . S
O298 Co273 1.941 . S
O298 C305 1.266 . S
H299 C301 0.959 . S
H300 C301 0.961 . S
C301 C291 1.510 1_554 S
C301 H299 0.959 . S
C301 H300 0.961 . S
C301 H302 0.960 . S
H302 C301 0.960 . S
H303 N283 0.862 1_565 S
O304 Co272 1.920 . S
O304 C277 1.289 . S
C305 O297 1.258 . S
C305 O298 1.266 . S
Co306 O309 1.970 . S
Co306 N323 1.989 . S
Co306 O331 1.967 . S
Co306 O338 1.920 . S
Co307 O310 1.966 . S
Co307 N316 2.022 . S
Co307 N324 1.993 . S
Co307 O332 1.941 . S
C308 O309 1.258 . S
C308 O310 1.263 . S
O309 Co306 1.970 . S
O309 C308 1.258 . S
O310 Co307 1.966 . S
O310 C308 1.263 . S
C311 O312 1.235 . S
C311 O338 1.289 . S
O312 C311 1.235 . S
C313 C315 1.400 . S
C313 N316 1.351 . S
C313 C318 1.501 . S
C314 C315 1.387 . S
C314 N317 1.341 . S
C315 C313 1.400 . S
C315 C314 1.387 . S
N316 Co307 2.022 . S
N316 C313 1.351 . S
N316 N317 1.365 . S
N317 C314 1.341 . S
N317 N316 1.365 . S
N317 H337 0.862 1_545 S
C318 C313 1.501 . S
C318 H319 0.961 . S
C318 H320 0.961 . S
C318 H321 0.960 . S
H319 C318 0.961 . S
H320 C318 0.961 . S
H321 C318 0.960 . S
C322 N323 1.342 . S
C322 C326 1.401 . S
C322 C327 1.499 . S
N323 Co306 1.989 . S
N323 C322 1.342 . S
N323 N324 1.388 . S
N324 Co307 1.993 . S
N324 N323 1.388 . S
N324 C325 1.346 . S
C325 N324 1.346 . S
C325 C326 1.396 . S
C325 C335 1.510 . S
C326 C322 1.401 . S
C326 C325 1.396 . S
C327 C322 1.499 . S
C327 H328 0.959 . S
C327 H329 0.960 . S
C327 H330 0.961 . S
H328 C327 0.959 . S
H329 C327 0.960 . S
H330 C327 0.961 . S
O331 Co306 1.967 . S
O331 C339 1.258 . S
O332 Co307 1.941 . S
O332 C339 1.266 . S
H333 C335 0.959 . S
H334 C335 0.961 . S
C335 C325 1.510 . S
C335 H333 0.959 . S
C335 H334 0.961 . S
C335 H336 0.960 . S
H336 C335 0.960 . S
H337 N317 0.862 1_565 S
O338 Co306 1.920 . S
O338 C311 1.289 . S
C339 O331 1.258 . S
C339 O332 1.266 . S
Co340 O343 1.970 . S
Co340 N357 1.989 . S
Co340 O365 1.967 . S
Co340 O372 1.920 . S
Co341 O344 1.966 . S
Co341 N350 2.022 . S
Co341 N358 1.993 . S
Co341 O366 1.941 . S
C342 O343 1.258 . S
C342 O344 1.263 . S
O343 Co340 1.970 . S
O343 C342 1.258 . S
O344 Co341 1.966 . S
O344 C342 1.263 . S
C345 O346 1.235 . S
C345 O372 1.289 . S
O346 C345 1.235 . S
C347 C349 1.400 . S
C347 N350 1.351 . S
C347 C352 1.501 . S
C348 C349 1.387 . S
C348 N351 1.341 . S
C349 C347 1.400 . S
C349 C348 1.387 . S
N350 Co341 2.022 . S
N350 C347 1.351 . S
N350 N351 1.365 . S
N351 C348 1.341 . S
N351 N350 1.365 . S
N351 H371 0.862 1_655 S
C352 C347 1.501 . S
C352 H353 0.961 . S
C352 H354 0.961 . S
C352 H355 0.960 . S
H353 C352 0.961 . S
H354 C352 0.961 . S
H355 C352 0.960 . S
C356 N357 1.342 . S
C356 C360 1.401 . S
C356 C361 1.499 . S
N357 Co340 1.989 . S
N357 C356 1.342 . S
N357 N358 1.388 . S
N358 Co341 1.993 . S
N358 N357 1.388 . S
N358 C359 1.346 . S
C359 N358 1.346 . S
C359 C360 1.396 . S
C359 C369 1.510 . S
C360 C356 1.401 . S
C360 C359 1.396 . S
C361 C356 1.499 . S
C361 H362 0.959 . S
C361 H363 0.960 . S
C361 H364 0.961 . S
H362 C361 0.959 . S
H363 C361 0.960 . S
H364 C361 0.961 . S
O365 Co340 1.967 . S
O365 C373 1.258 . S
O366 Co341 1.941 . S
O366 C373 1.266 . S
H367 C369 0.959 . S
H368 C369 0.961 . S
C369 C359 1.510 . S
C369 H367 0.959 . S
C369 H368 0.961 . S
C369 H370 0.960 . S
H370 C369 0.960 . S
H371 N351 0.862 1_455 S
O372 Co340 1.920 . S
O372 C345 1.289 . S
C373 O365 1.258 . S
C373 O366 1.266 . S
Co374 O377 1.970 . S
Co374 N391 1.989 . S
Co374 O399 1.967 . S
Co374 O406 1.920 . S
Co375 O378 1.966 . S
Co375 N384 2.022 . S
Co375 N392 1.993 . S
Co375 O400 1.941 . S
C376 O377 1.258 . S
C376 O378 1.263 . S
O377 Co374 1.970 . S
O377 C376 1.258 . S
O378 Co375 1.966 . S
O378 C376 1.263 . S
C379 O380 1.235 . S
C379 O406 1.289 . S
O380 C379 1.235 . S
C381 C383 1.400 . S
C381 N384 1.351 . S
C381 C386 1.501 . S
C382 C383 1.387 . S
C382 N385 1.341 . S
C383 C381 1.400 . S
C383 C382 1.387 . S
N384 Co375 2.022 . S
N384 C381 1.351 . S
N384 N385 1.365 . S
N385 C382 1.341 . S
N385 N384 1.365 . S
N385 H405 0.862 . S
C386 C381 1.501 . S
C386 H387 0.961 . S
C386 H388 0.961 . S
C386 H389 0.960 . S
H387 C386 0.961 . S
H388 C386 0.961 . S
H389 C386 0.960 . S
C390 N391 1.342 . S
C390 C394 1.401 . S
C390 C395 1.499 . S
N391 Co374 1.989 . S
N391 C390 1.342 . S
N391 N392 1.388 . S
N392 Co375 1.993 . S
N392 N391 1.388 . S
N392 C393 1.346 . S
C393 N392 1.346 . S
C393 C394 1.396 . S
C393 C403 1.510 . S
C394 C390 1.401 . S
C394 C393 1.396 . S
C395 C390 1.499 . S
C395 H396 0.959 . S
C395 H397 0.960 . S
C395 H398 0.961 . S
H396 C395 0.959 . S
H397 C395 0.960 . S
H398 C395 0.961 . S
O399 Co374 1.967 . S
O399 C407 1.258 . S
O400 Co375 1.941 . S
O400 C407 1.266 . S
H401 C403 0.959 . S
H402 C403 0.961 . S
C403 C393 1.510 . S
C403 H401 0.959 . S
C403 H402 0.961 . S
C403 H404 0.960 . S
H404 C403 0.960 . S
H405 N385 0.862 . S
O406 Co374 1.920 . S
O406 C379 1.289 . S
C407 O399 1.258 . S
C407 O400 1.266 . S
H408 C414 0.930 . S
H409 C418 0.930 . S
H410 C423 0.929 . S
H411 C421 0.929 . S
H412 C416 0.929 . S
H413 C422 0.929 . S
C414 H408 0.930 . S
C414 C415 1.367 . S
C414 C422 1.378 1_655 S
C415 C414 1.367 . S
C415 C423 1.433 . S
C416 H412 0.929 . S
C416 C418 1.378 . S
C416 C420 1.350 . S
C417 C420 1.463 . S
C417 C422 1.350 . S
C417 N425 1.427 1_455 S
C418 H409 0.930 . S
C418 C416 1.378 . S
C418 C419 1.367 . S
C419 C418 1.367 . S
C419 C421 1.433 . S
C420 C416 1.350 . S
C420 C417 1.463 . S
C420 N424 1.427 . S
C421 H411 0.929 . S
C421 C419 1.433 . S
C421 N424 1.384 . S
C422 H413 0.929 . S
C422 C414 1.378 1_455 S
C422 C417 1.350 . S
C423 H410 0.929 . S
C423 C415 1.433 . S
C423 N425 1.384 . S
N424 C420 1.427 . S
N424 C421 1.384 . S
N425 C417 1.427 1_655 S
N425 C423 1.384 . S
H426 C432 0.930 . S
H427 C436 0.930 . S
H428 C441 0.929 . S
H429 C439 0.929 . S
H430 C434 0.929 . S
H431 C440 0.929 . S
C432 H426 0.930 . S
C432 C433 1.367 . S
C432 C440 1.378 . S
C433 C432 1.367 . S
C433 C441 1.433 . S
C434 H430 0.929 . S
C434 C436 1.378 . S
C434 C438 1.350 . S
C435 C438 1.463 . S
C435 C440 1.350 . S
C435 N443 1.427 . S
C436 H427 0.930 . S
C436 C434 1.378 . S
C436 C437 1.367 . S
C437 C436 1.367 . S
C437 C439 1.433 . S
C438 C434 1.350 . S
C438 C435 1.463 . S
C438 N442 1.427 . S
C439 H429 0.929 . S
C439 C437 1.433 . S
C439 N442 1.384 . S
C440 H431 0.929 . S
C440 C432 1.378 . S
C440 C435 1.350 . S
C441 H428 0.929 . S
C441 C433 1.433 . S
C441 N443 1.384 . S
N442 C438 1.427 . S
N442 C439 1.384 . S
N443 C435 1.427 . S
N443 C441 1.384 . S
H444 C450 0.930 . S
H445 C454 0.930 . S
H446 C459 0.929 . S
H447 C457 0.929 . S
H448 C452 0.929 1_545 S
H449 C458 0.929 . S
C450 H444 0.930 . S
C450 C451 1.367 1_565 S
C450 C458 1.378 . S
C451 C450 1.367 1_545 S
C451 C459 1.433 . S
C452 H448 0.929 1_565 S
C452 C454 1.378 . S
C452 C456 1.350 . S
C453 C456 1.463 . S
C453 C458 1.350 . S
C453 N461 1.427 1_565 S
C454 H445 0.930 . S
C454 C452 1.378 . S
C454 C455 1.367 . S
C455 C454 1.367 . S
C455 C457 1.433 . S
C456 C452 1.350 . S
C456 C453 1.463 . S
C456 N460 1.427 . S
C457 H447 0.929 . S
C457 C455 1.433 . S
C457 N460 1.384 . S
C458 H449 0.929 . S
C458 C450 1.378 . S
C458 C453 1.350 . S
C459 H446 0.929 . S
C459 C451 1.433 . S
C459 N461 1.384 . S
N460 C456 1.427 . S
N460 C457 1.384 . S
N461 C453 1.427 1_545 S
N461 C459 1.384 . S
H462 C468 0.930 . S
H463 C472 0.930 . S
H464 C477 0.929 1_545 S
H465 C475 0.929 . S
H466 C470 0.929 . S
H467 C476 0.929 . S
C468 H462 0.930 . S
C468 C469 1.367 . S
C468 C476 1.378 . S
C469 C468 1.367 . S
C469 C477 1.433 . S
C470 H466 0.929 . S
C470 C472 1.378 . S
C470 C474 1.350 1_545 S
C471 C474 1.463 . S
C471 C476 1.350 . S
C471 N479 1.435 . S
C472 H463 0.930 . S
C472 C470 1.378 . S
C472 C473 1.367 . S
C473 C472 1.367 . S
C473 C475 1.433 1_545 S
C474 C470 1.350 1_565 S
C474 C471 1.463 . S
C474 N478 1.427 . S
C475 H465 0.929 . S
C475 C473 1.433 1_565 S
C475 N478 1.384 . S
C476 H467 0.929 . S
C476 C468 1.378 . S
C476 C471 1.350 . S
C477 H464 0.929 1_565 S
C477 C469 1.433 . S
C477 N479 1.389 . S
N478 C474 1.427 . S
N478 C475 1.384 . S
N479 C471 1.435 . S
N479 C477 1.389 . S
H480 C486 0.930 . S
H481 C490 0.930 . S
H482 C495 0.929 1_655 S
H483 C493 0.929 . S
H484 C488 0.929 . S
H485 C494 0.929 . S
C486 H480 0.930 . S
C486 C487 1.367 . S
C486 C494 1.378 . S
C487 C486 1.367 . S
C487 C495 1.433 . S
C488 H484 0.929 . S
C488 C490 1.378 . S
C488 C492 1.350 1_655 S
C489 C492 1.463 . S
C489 C494 1.350 . S
C489 N497 1.427 1_455 S
C490 H481 0.930 . S
C490 C488 1.378 . S
C490 C491 1.367 . S
C491 C490 1.367 . S
C491 C493 1.433 1_655 S
C492 C488 1.350 1_455 S
C492 C489 1.463 . S
C492 N496 1.427 . S
C493 H483 0.929 . S
C493 C491 1.433 1_455 S
C493 N496 1.384 . S
C494 H485 0.929 . S
C494 C486 1.378 . S
C494 C489 1.350 . S
C495 H482 0.929 1_455 S
C495 C487 1.433 . S
C495 N497 1.384 1_455 S
N496 C492 1.427 . S
N496 C493 1.384 . S
N497 C489 1.427 1_655 S
N497 C495 1.384 1_655 S
H498 C504 0.930 . S
H499 C508 0.930 . S
H500 C513 0.929 . S
H501 C511 0.929 . S
H502 C506 0.929 . S
H503 C512 0.929 . S
C504 H498 0.930 . S
C504 C505 1.367 . S
C504 C512 1.378 . S
C505 C504 1.367 . S
C505 C513 1.433 . S
C506 H502 0.929 . S
C506 C508 1.378 . S
C506 C510 1.350 . S
C507 C510 1.463 . S
C507 C512 1.350 . S
C507 N515 1.427 . S
C508 H499 0.930 . S
C508 C506 1.378 . S
C508 C509 1.367 . S
C509 C508 1.367 . S
C509 C511 1.433 . S
C510 C506 1.350 . S
C510 C507 1.463 . S
C510 N514 1.427 . S
C511 H501 0.929 . S
C511 C509 1.433 . S
C511 N514 1.384 . S
C512 H503 0.929 . S
C512 C504 1.378 . S
C512 C507 1.350 . S
C513 H500 0.929 . S
C513 C505 1.433 . S
C513 N515 1.384 . S
N514 C510 1.427 . S
N514 C511 1.384 . S
N515 C507 1.427 . S
N515 C513 1.384 . S
H516 C522 0.930 . S
H517 C526 0.930 . S
H518 C531 0.929 . S
H519 C529 0.929 1_455 S
H520 C524 0.929 . S
H521 C530 0.929 . S
C522 H516 0.930 . S
C522 C523 1.367 . S
C522 C530 1.378 . S
C523 C522 1.367 . S
C523 C531 1.433 1_455 S
C524 H520 0.929 . S
C524 C526 1.378 . S
C524 C528 1.350 . S
C525 C528 1.463 . S
C525 C530 1.350 1_655 S
C525 N533 1.427 . S
C526 H517 0.930 . S
C526 C524 1.378 . S
C526 C527 1.367 . S
C527 C526 1.367 . S
C527 C529 1.433 . S
C528 C524 1.350 . S
C528 C525 1.463 . S
C528 N532 1.427 1_655 S
C529 H519 0.929 1_655 S
C529 C527 1.433 . S
C529 N532 1.384 1_655 S
C530 H521 0.929 . S
C530 C522 1.378 . S
C530 C525 1.350 1_455 S
C531 H518 0.929 . S
C531 C523 1.433 1_655 S
C531 N533 1.384 . S
N532 C528 1.427 1_455 S
N532 C529 1.384 1_455 S
N533 C525 1.427 . S
N533 C531 1.384 . S
H534 C540 0.930 . S
H535 C544 0.930 . S
H536 C549 0.929 . S
H537 C547 0.929 . S
H538 C542 0.929 . S
H539 C548 0.929 . S
C540 H534 0.930 . S
C540 C541 1.367 . S
C540 C548 1.378 . S
C541 C540 1.367 . S
C541 C549 1.433 . S
C542 H538 0.929 . S
C542 C544 1.378 . S
C542 C546 1.350 . S
C543 C546 1.463 . S
C543 C548 1.350 . S
C543 N551 1.427 . S
C544 H535 0.930 . S
C544 C542 1.378 . S
C544 C545 1.367 . S
C545 C544 1.367 . S
C545 C547 1.433 . S
C546 C542 1.350 . S
C546 C543 1.463 . S
C546 N550 1.427 . S
C547 H537 0.929 . S
C547 C545 1.433 . S
C547 N550 1.384 . S
C548 H539 0.929 . S
C548 C540 1.378 . S
C548 C543 1.350 . S
C549 H536 0.929 . S
C549 C541 1.433 . S
C549 N551 1.384 . S
N550 C546 1.427 . S
N550 C547 1.384 . S
N551 C543 1.427 . S
N551 C549 1.384 . S
H552 C558 0.930 . S
H553 C562 0.930 1_565 S
H554 C567 0.929 . S
H555 C565 0.929 . S
H556 C560 0.929 . S
H557 C566 0.929 . S
C558 H552 0.930 . S
C558 C559 1.367 1_545 S
C558 C566 1.378 . S
C559 C558 1.367 1_565 S
C559 C567 1.433 . S
C560 H556 0.929 . S
C560 C562 1.378 1_565 S
C560 C564 1.350 1_565 S
C561 C564 1.463 . S
C561 C566 1.350 . S
C561 N569 1.427 1_545 S
C562 H553 0.930 1_545 S
C562 C560 1.378 1_545 S
C562 C563 1.367 . S
C563 C562 1.367 . S
C563 C565 1.433 . S
C564 C560 1.350 1_545 S
C564 C561 1.463 . S
C564 N568 1.427 . S
C565 H555 0.929 . S
C565 C563 1.433 . S
C565 N568 1.384 . S
C566 H557 0.929 . S
C566 C558 1.378 . S
C566 C561 1.350 . S
C567 H554 0.929 . S
C567 C559 1.433 . S
C567 N569 1.384 . S
N568 C564 1.427 . S
N568 C565 1.384 . S
N569 C561 1.427 1_565 S
N569 C567 1.384 . S
H570 C576 0.930 . S
H571 C580 0.930 . S
H572 C585 0.929 . S
H573 C583 0.929 1_565 S
H574 C578 0.929 . S
H575 C584 0.929 . S
C576 H570 0.930 . S
C576 C577 1.367 . S
C576 C584 1.378 . S
C577 C576 1.367 . S
C577 C585 1.433 1_565 S
C578 H574 0.929 . S
C578 C580 1.378 . S
C578 C582 1.350 . S
C579 C582 1.463 . S
C579 C584 1.350 1_545 S
C579 N587 1.427 . S
C580 H571 0.930 . S
C580 C578 1.378 . S
C580 C581 1.367 . S
C581 C580 1.367 . S
C581 C583 1.433 . S
C582 C578 1.350 . S
C582 C579 1.463 . S
C582 N586 1.433 . S
C583 H573 0.929 1_545 S
C583 C581 1.433 . S
C583 N586 1.387 . S
C584 H575 0.929 . S
C584 C576 1.378 . S
C584 C579 1.350 1_565 S
C585 H572 0.929 . S
C585 C577 1.433 1_545 S
C585 N587 1.384 . S
N586 C582 1.433 . S
N586 C583 1.387 . S
N587 C579 1.427 . S
N587 C585 1.384 . S
H588 C594 0.930 . S
H589 C598 0.930 . S
H590 C603 0.929 1_455 S
H591 C601 0.929 . S
H592 C596 0.929 . S
H593 C602 0.929 . S
C594 H588 0.930 . S
C594 C595 1.367 . S
C594 C602 1.378 . S
C595 C594 1.367 . S
C595 C603 1.433 . S
C596 H592 0.929 . S
C596 C598 1.378 . S
C596 C600 1.350 1_455 S
C597 C600 1.463 . S
C597 C602 1.350 . S
C597 N605 1.427 1_655 S
C598 H589 0.930 . S
C598 C596 1.378 . S
C598 C599 1.367 . S
C599 C598 1.367 . S
C599 C601 1.433 1_455 S
C600 C596 1.350 1_655 S
C600 C597 1.463 . S
C600 N604 1.427 . S
C601 H591 0.929 . S
C601 C599 1.433 1_655 S
C601 N604 1.384 . S
C602 H593 0.929 . S
C602 C594 1.378 . S
C602 C597 1.350 . S
C603 H590 0.929 1_655 S
C603 C595 1.433 . S
C603 N605 1.384 1_655 S
N604 C600 1.427 . S
N604 C601 1.384 . S
N605 C597 1.427 1_455 S
N605 C603 1.384 1_455 S
H606 C612 0.930 . S
H607 C616 0.930 . S
H608 C621 0.929 . S
H609 C619 0.929 . S
H610 C614 0.929 . S
H611 C620 0.929 . S
C612 H606 0.930 . S
C612 C613 1.367 . S
C612 C620 1.378 . S
C613 C612 1.367 . S
C613 C621 1.433 . S
C614 H610 0.929 . S
C614 C616 1.378 . S
C614 C618 1.350 . S
C615 C618 1.463 . S
C615 C620 1.350 . S
C615 N623 1.427 . S
C616 H607 0.930 . S
C616 C614 1.378 . S
C616 C617 1.367 . S
C617 C616 1.367 . S
C617 C619 1.433 . S
C618 C614 1.350 . S
C618 C615 1.463 . S
C618 N622 1.427 . S
C619 H609 0.929 . S
C619 C617 1.433 . S
C619 N622 1.384 . S
C620 H611 0.929 . S
C620 C612 1.378 . S
C620 C615 1.350 . S
C621 H608 0.929 . S
C621 C613 1.433 . S
C621 N623 1.384 . S
N622 C618 1.427 . S
N622 C619 1.384 . S
N623 C615 1.427 . S
N623 C621 1.384 . S
H624 C630 0.930 . S
H625 C634 0.930 . S
H626 C639 0.929 . S
H627 C637 0.929 . S
H628 C632 0.929 . S
H629 C638 0.929 . S
C630 H624 0.930 . S
C630 C631 1.367 1_455 S
C630 C638 1.378 . S
C631 C630 1.367 1_655 S
C631 C639 1.433 1_556 S
C632 H628 0.929 . S
C632 C634 1.378 . S
C632 C636 1.350 1_655 S
C633 C636 1.463 1_656 S
C633 C638 1.350 1_655 S
C633 N641 1.427 1_556 S
C634 H625 0.930 . S
C634 C632 1.378 . S
C634 C635 1.367 1_655 S
C635 C634 1.367 1_455 S
C635 C637 1.433 1_554 S
C636 C632 1.350 1_455 S
C636 C633 1.463 1_454 S
C636 N640 1.427 1_554 S
C637 H627 0.929 . S
C637 C635 1.433 1_556 S
C637 N640 1.384 . S
C638 H629 0.929 . S
C638 C630 1.378 . S
C638 C633 1.350 1_455 S
C639 H626 0.929 . S
C639 C631 1.433 1_554 S
C639 N641 1.384 . S
N640 C636 1.427 1_556 S
N640 C637 1.384 . S
N641 C633 1.427 1_554 S
N641 C639 1.384 . S
H642 C648 0.930 . S
H643 C652 0.930 . S
H644 C657 0.929 . S
H645 C655 0.929 . S
H646 C650 0.929 . S
H647 C656 0.929 . S
C648 H642 0.930 . S
C648 C649 1.367 . S
C648 C656 1.378 . S
C649 C648 1.367 . S
C649 C657 1.433 . S
C650 H646 0.929 . S
C650 C652 1.378 . S
C650 C654 1.350 . S
C651 C654 1.463 1_554 S
C651 C656 1.350 . S
C651 N659 1.427 . S
C652 H643 0.930 . S
C652 C650 1.378 . S
C652 C653 1.367 . S
C653 C652 1.367 . S
C653 C655 1.433 . S
C654 C650 1.350 . S
C654 C651 1.463 1_556 S
C654 N658 1.427 . S
C655 H645 0.929 . S
C655 C653 1.433 . S
C655 N658 1.384 . S
C656 H647 0.929 . S
C656 C648 1.378 . S
C656 C651 1.350 . S
C657 H644 0.929 . S
C657 C649 1.433 . S
C657 N659 1.384 . S
N658 C654 1.427 . S
N658 C655 1.384 . S
N659 C651 1.427 . S
N659 C657 1.384 . S
H660 C666 0.930 . S
H661 C670 0.930 . S
H662 C675 0.929 . S
H663 C673 0.929 . S
H664 C668 0.929 . S
H665 C674 0.929 . S
C666 H660 0.930 . S
C666 C667 1.367 . S
C666 C674 1.378 . S
C667 C666 1.367 . S
C667 C675 1.433 1_556 S
C668 H664 0.929 . S
C668 C670 1.378 . S
C668 C672 1.350 . S
C669 C672 1.463 1_546 S
C669 C674 1.350 . S
C669 N677 1.427 1_546 S
C670 H661 0.930 . S
C670 C668 1.378 . S
C670 C671 1.367 . S
C671 C670 1.367 . S
C671 C673 1.433 1_554 S
C672 C668 1.350 . S
C672 C669 1.463 1_564 S
C672 N676 1.427 1_564 S
C673 H663 0.929 . S
C673 C671 1.433 1_556 S
C673 N676 1.384 1_565 S
C674 H665 0.929 . S
C674 C666 1.378 . S
C674 C669 1.350 . S
C675 H662 0.929 . S
C675 C667 1.433 1_554 S
C675 N677 1.384 1_545 S
N676 C672 1.427 1_546 S
N676 C673 1.384 1_545 S
N677 C669 1.427 1_564 S
N677 C675 1.384 1_565 S
H678 C684 0.930 . S
H679 C688 0.930 . S
H680 C693 0.929 . S
H681 C691 0.929 . S
H682 C686 0.929 . S
H683 C692 0.929 . S
C684 H678 0.930 . S
C684 C685 1.368 1_545 S
C684 C692 1.377 . S
C685 C684 1.368 1_565 S
C685 C693 1.433 . S
C686 H682 0.929 . S
C686 C688 1.377 . S
C686 C690 1.350 1_565 S
C687 C690 1.463 1_565 S
C687 C692 1.350 1_565 S
C687 N695 1.427 . S
C688 H679 0.930 . S
C688 C686 1.377 . S
C688 C689 1.368 1_565 S
C689 C688 1.368 1_545 S
C689 C691 1.433 . S
C690 C686 1.350 1_545 S
C690 C687 1.463 1_545 S
C690 N694 1.427 . S
C691 H681 0.929 . S
C691 C689 1.433 . S
C691 N694 1.384 . S
C692 H683 0.929 . S
C692 C684 1.377 . S
C692 C687 1.350 1_545 S
C693 H680 0.929 . S
C693 C685 1.433 . S
C693 N695 1.384 . S
N694 C690 1.427 . S
N694 C691 1.384 . S
N695 C687 1.427 . S
N695 C693 1.384 . S
H696 C702 0.930 . S
H697 C706 0.930 . S
H698 C711 0.929 . S
H699 C709 0.929 . S
H700 C704 0.929 . S
H701 C710 0.929 . S
C702 H696 0.930 . S
C702 C703 1.367 1_655 S
C702 C710 1.378 . S
C703 C702 1.367 1_455 S
C703 C711 1.433 . S
C704 H700 0.929 . S
C704 C706 1.378 . S
C704 C708 1.350 1_455 S
C705 C708 1.463 1_455 S
C705 C710 1.350 1_455 S
C705 N713 1.427 . S
C706 H697 0.930 . S
C706 C704 1.378 . S
C706 C707 1.367 1_455 S
C707 C706 1.367 1_655 S
C707 C709 1.433 . S
C708 C704 1.350 1_655 S
C708 C705 1.463 1_655 S
C708 N712 1.427 . S
C709 H699 0.929 . S
C709 C707 1.433 . S
C709 N712 1.384 . S
C710 H701 0.929 . S
C710 C702 1.378 . S
C710 C705 1.350 1_655 S
C711 H698 0.929 . S
C711 C703 1.433 . S
C711 N713 1.384 . S
N712 C708 1.427 . S
N712 C709 1.384 . S
N713 C705 1.427 . S
N713 C711 1.384 . S
H714 C720 0.930 . S
H715 C724 0.930 . S
H716 C729 0.929 . S
H717 C727 0.929 . S
H718 C722 0.929 . S
H719 C728 0.929 . S
C720 H714 0.930 . S
C720 C721 1.367 . S
C720 C728 1.378 . S
C721 C720 1.367 . S
C721 C729 1.433 . S
C722 H718 0.929 . S
C722 C724 1.378 . S
C722 C726 1.350 . S
C723 C726 1.463 . S
C723 C728 1.350 . S
C723 N731 1.427 . S
C724 H715 0.930 . S
C724 C722 1.378 . S
C724 C725 1.367 . S
C725 C724 1.367 . S
C725 C727 1.433 . S
C726 C722 1.350 . S
C726 C723 1.463 . S
C726 N730 1.427 . S
C727 H717 0.929 . S
C727 C725 1.433 . S
C727 N730 1.384 . S
C728 H719 0.929 . S
C728 C720 1.378 . S
C728 C723 1.350 . S
C729 H716 0.929 . S
C729 C721 1.433 . S
C729 N731 1.384 . S
N730 C726 1.427 . S
N730 C727 1.384 . S
N731 C723 1.427 . S
N731 C729 1.384 . S
H732 C738 0.930 . S
H733 C742 0.930 . S
H734 C747 0.929 . S
H735 C745 0.929 . S
H736 C740 0.929 . S
H737 C746 0.929 . S
C738 H732 0.930 . S
C738 C739 1.367 . S
C738 C746 1.378 . S
C739 C738 1.367 . S
C739 C747 1.433 . S
C740 H736 0.929 . S
C740 C742 1.378 . S
C740 C744 1.350 . S
C741 C744 1.463 . S
C741 C746 1.350 . S
C741 N749 1.427 . S
C742 H733 0.930 . S
C742 C740 1.378 . S
C742 C743 1.367 . S
C743 C742 1.367 . S
C743 C745 1.433 . S
C744 C740 1.350 . S
C744 C741 1.463 . S
C744 N748 1.427 . S
C745 H735 0.929 . S
C745 C743 1.433 . S
C745 N748 1.384 . S
C746 H737 0.929 . S
C746 C738 1.378 . S
C746 C741 1.350 . S
C747 H734 0.929 . S
C747 C739 1.433 . S
C747 N749 1.384 . S
N748 C744 1.427 . S
N748 C745 1.384 . S
N749 C741 1.427 . S
N749 C747 1.384 . S
H750 C756 0.930 . S
H751 C760 0.930 . S
H752 C765 0.929 . S
H753 C763 0.929 . S
H754 C758 0.929 . S
H755 C764 0.929 . S
C756 H750 0.930 . S
C756 C757 1.367 . S
C756 C764 1.378 . S
C757 C756 1.367 . S
C757 C765 1.433 . S
C758 H754 0.929 . S
C758 C760 1.378 . S
C758 C762 1.350 . S
C759 C762 1.463 . S
C759 C764 1.350 . S
C759 N767 1.427 . S
C760 H751 0.930 . S
C760 C758 1.378 . S
C760 C761 1.367 . S
C761 C760 1.367 . S
C761 C763 1.433 . S
C762 C758 1.350 . S
C762 C759 1.463 . S
C762 N766 1.427 . S
C763 H753 0.929 . S
C763 C761 1.433 . S
C763 N766 1.384 . S
C764 H755 0.929 . S
C764 C756 1.378 . S
C764 C759 1.350 . S
C765 H752 0.929 . S
C765 C757 1.433 . S
C765 N767 1.384 . S
N766 C762 1.427 . S
N766 C763 1.384 . S
N767 C759 1.427 . S
N767 C765 1.384 . S
H768 C774 0.930 . S
H769 C778 0.930 . S
H770 C783 0.929 . S
H771 C781 0.929 . S
H772 C776 0.929 . S
H773 C782 0.929 . S
C774 H768 0.930 . S
C774 C775 1.367 . S
C774 C782 1.378 . S
C775 C774 1.367 . S
C775 C783 1.433 . S
C776 H772 0.929 . S
C776 C778 1.378 . S
C776 C780 1.350 . S
C777 C780 1.463 . S
C777 C782 1.350 . S
C777 N785 1.427 . S
C778 H769 0.930 . S
C778 C776 1.378 . S
C778 C779 1.367 . S
C779 C778 1.367 . S
C779 C781 1.433 . S
C780 C776 1.350 . S
C780 C777 1.463 . S
C780 N784 1.427 . S
C781 H771 0.929 . S
C781 C779 1.433 . S
C781 N784 1.384 . S
C782 H773 0.929 . S
C782 C774 1.378 . S
C782 C777 1.350 . S
C783 H770 0.929 . S
C783 C775 1.433 . S
C783 N785 1.384 . S
N784 C780 1.427 . S
N784 C781 1.384 . S
N785 C777 1.427 . S
N785 C783 1.384 . S
H786 C792 0.930 . S
H787 C796 0.930 . S
H788 C801 0.929 . S
H789 C799 0.929 . S
H790 C794 0.929 . S
H791 C800 0.929 . S
C792 H786 0.930 . S
C792 C793 1.367 . S
C792 C800 1.378 . S
C793 C792 1.367 . S
C793 C801 1.433 . S
C794 H790 0.929 . S
C794 C796 1.378 . S
C794 C798 1.350 . S
C795 C798 1.463 . S
C795 C800 1.350 . S
C795 N803 1.427 . S
C796 H787 0.930 . S
C796 C794 1.378 . S
C796 C797 1.367 . S
C797 C796 1.367 . S
C797 C799 1.433 . S
C798 C794 1.350 . S
C798 C795 1.463 . S
C798 N802 1.427 . S
C799 H789 0.929 . S
C799 C797 1.433 . S
C799 N802 1.384 . S
C800 H791 0.929 . S
C800 C792 1.378 . S
C800 C795 1.350 . S
C801 H788 0.929 . S
C801 C793 1.433 . S
C801 N803 1.384 . S
N802 C798 1.427 . S
N802 C799 1.384 . S
N803 C795 1.427 . S
N803 C801 1.384 . S
H804 C810 0.930 . S
H805 C814 0.930 . S
H806 C819 0.929 . S
H807 C817 0.929 . S
H808 C812 0.929 . S
H809 C818 0.929 . S
C810 H804 0.930 . S
C810 C811 1.367 . S
C810 C818 1.378 . S
C811 C810 1.367 . S
C811 C819 1.433 . S
C812 H808 0.929 . S
C812 C814 1.378 . S
C812 C816 1.350 . S
C813 C816 1.463 . S
C813 C818 1.350 . S
C813 N821 1.427 . S
C814 H805 0.930 . S
C814 C812 1.378 . S
C814 C815 1.367 . S
C815 C814 1.367 . S
C815 C817 1.433 . S
C816 C812 1.350 . S
C816 C813 1.463 . S
C816 N820 1.427 . S
C817 H807 0.929 . S
C817 C815 1.433 . S
C817 N820 1.384 . S
C818 H809 0.929 . S
C818 C810 1.378 . S
C818 C813 1.350 . S
C819 H806 0.929 . S
C819 C811 1.433 . S
C819 N821 1.384 . S
N820 C816 1.427 . S
N820 C817 1.384 . S
N821 C813 1.427 . S
N821 C819 1.384 . S
H822 C828 0.930 . S
H823 C832 0.930 . S
H824 C837 0.929 . S
H825 C835 0.929 . S
H826 C830 0.929 . S
H827 C836 0.929 . S
C828 H822 0.930 . S
C828 C829 1.367 . S
C828 C836 1.378 . S
C829 C828 1.367 . S
C829 C837 1.433 . S
C830 H826 0.929 . S
C830 C832 1.378 . S
C830 C834 1.350 . S
C831 C834 1.463 . S
C831 C836 1.350 . S
C831 N839 1.427 . S
C832 H823 0.930 . S
C832 C830 1.378 . S
C832 C833 1.367 . S
C833 C832 1.367 . S
C833 C835 1.433 . S
C834 C830 1.350 . S
C834 C831 1.463 . S
C834 N838 1.427 . S
C835 H825 0.929 . S
C835 C833 1.433 . S
C835 N838 1.384 . S
C836 H827 0.929 . S
C836 C828 1.378 . S
C836 C831 1.350 . S
C837 H824 0.929 . S
C837 C829 1.433 . S
C837 N839 1.384 . S
N838 C834 1.427 . S
N838 C835 1.384 . S
N839 C831 1.427 . S
N839 C837 1.384 . S
H840 C846 0.930 . S
H841 C850 0.930 . S
H842 C855 0.929 . S
H843 C853 0.929 . S
H844 C848 0.929 . S
H845 C854 0.929 . S
C846 H840 0.930 . S
C846 C847 1.367 . S
C846 C854 1.378 . S
C847 C846 1.367 . S
C847 C855 1.433 . S
C848 H844 0.929 . S
C848 C850 1.378 . S
C848 C852 1.350 . S
C849 C852 1.463 . S
C849 C854 1.350 . S
C849 N857 1.427 . S
C850 H841 0.930 . S
C850 C848 1.378 . S
C850 C851 1.367 . S
C851 C850 1.367 . S
C851 C853 1.433 . S
C852 C848 1.350 . S
C852 C849 1.463 . S
C852 N856 1.427 . S
C853 H843 0.929 . S
C853 C851 1.433 . S
C853 N856 1.384 . S
C854 H845 0.929 . S
C854 C846 1.378 . S
C854 C849 1.350 . S
C855 H842 0.929 . S
C855 C847 1.433 . S
C855 N857 1.384 . S
N856 C852 1.427 . S
N856 C853 1.384 . S
N857 C849 1.427 . S
N857 C855 1.384 . S
H858 C864 0.930 . S
H859 C868 0.930 . S
H860 C873 0.929 . S
H861 C871 0.929 . S
H862 C866 0.929 . S
H863 C872 0.929 . S
C864 H858 0.930 . S
C864 C865 1.367 . S
C864 C872 1.378 . S
C865 C864 1.367 . S
C865 C873 1.433 . S
C866 H862 0.929 . S
C866 C868 1.378 . S
C866 C870 1.350 . S
C867 C870 1.463 . S
C867 C872 1.350 . S
C867 N875 1.427 . S
C868 H859 0.930 . S
C868 C866 1.378 . S
C868 C869 1.367 . S
C869 C868 1.367 . S
C869 C871 1.433 . S
C870 C866 1.350 . S
C870 C867 1.463 . S
C870 N874 1.427 . S
C871 H861 0.929 . S
C871 C869 1.433 . S
C871 N874 1.384 . S
C872 H863 0.929 . S
C872 C864 1.378 . S
C872 C867 1.350 . S
C873 H860 0.929 . S
C873 C865 1.433 . S
C873 N875 1.384 . S
N874 C870 1.427 . S
N874 C871 1.384 . S
N875 C867 1.427 . S
N875 C873 1.384 . S
H876 C882 0.930 . S
H877 C886 0.930 . S
H878 C891 0.929 . S
H879 C889 0.929 . S
H880 C884 0.929 . S
H881 C890 0.929 . S
C882 H876 0.930 . S
C882 C883 1.367 . S
C882 C890 1.378 . S
C883 C882 1.367 . S
C883 C891 1.433 . S
C884 H880 0.929 . S
C884 C886 1.378 . S
C884 C888 1.350 . S
C885 C888 1.463 . S
C885 C890 1.350 . S
C885 N893 1.427 . S
C886 H877 0.930 . S
C886 C884 1.378 . S
C886 C887 1.367 . S
C887 C886 1.367 . S
C887 C889 1.433 . S
C888 C884 1.350 . S
C888 C885 1.463 . S
C888 N892 1.427 . S
C889 H879 0.929 . S
C889 C887 1.433 . S
C889 N892 1.384 . S
C890 H881 0.929 . S
C890 C882 1.378 . S
C890 C885 1.350 . S
C891 H878 0.929 . S
C891 C883 1.433 . S
C891 N893 1.384 . S
N892 C888 1.427 . S
N892 C889 1.384 . S
N893 C885 1.427 . S
N893 C891 1.384 . S
H894 C900 0.930 . S
H895 C904 0.930 . S
H896 C909 0.929 . S
H897 C907 0.929 . S
H898 C902 0.929 . S
H899 C908 0.929 . S
C900 H894 0.930 . S
C900 C901 1.367 . S
C900 C908 1.378 . S
C901 C900 1.367 . S
C901 C909 1.433 . S
C902 H898 0.929 . S
C902 C904 1.378 . S
C902 C906 1.350 . S
C903 C906 1.463 . S
C903 C908 1.350 . S
C903 N911 1.427 . S
C904 H895 0.930 . S
C904 C902 1.378 . S
C904 C905 1.367 . S
C905 C904 1.367 . S
C905 C907 1.433 . S
C906 C902 1.350 . S
C906 C903 1.463 . S
C906 N910 1.427 . S
C907 H897 0.929 . S
C907 C905 1.433 . S
C907 N910 1.384 . S
C908 H899 0.929 . S
C908 C900 1.378 . S
C908 C903 1.350 . S
C909 H896 0.929 . S
C909 C901 1.433 . S
C909 N911 1.384 . S
N910 C906 1.427 . S
N910 C907 1.384 . S
N911 C903 1.427 . S
N911 C909 1.384 . S
H912 C918 0.930 . S
H913 C922 0.930 . S
H914 C927 0.929 . S
H915 C925 0.929 . S
H916 C920 0.929 . S
H917 C926 0.929 . S
C918 H912 0.930 . S
C918 C919 1.367 . S
C918 C926 1.378 . S
C919 C918 1.367 . S
C919 C927 1.433 . S
C920 H916 0.929 . S
C920 C922 1.378 . S
C920 C924 1.350 . S
C921 C924 1.463 . S
C921 C926 1.350 . S
C921 N929 1.427 . S
C922 H913 0.930 . S
C922 C920 1.378 . S
C922 C923 1.367 . S
C923 C922 1.367 . S
C923 C925 1.433 . S
C924 C920 1.350 . S
C924 C921 1.463 . S
C924 N928 1.427 . S
C925 H915 0.929 . S
C925 C923 1.433 . S
C925 N928 1.384 . S
C926 H917 0.929 . S
C926 C918 1.378 . S
C926 C921 1.350 . S
C927 H914 0.929 . S
C927 C919 1.433 . S
C927 N929 1.384 . S
N928 C924 1.427 . S
N928 C925 1.384 . S
N929 C921 1.427 . S
N929 C927 1.384 . S
H930 C936 0.930 . S
H931 C940 0.930 . S
H932 C945 0.929 . S
H933 C943 0.929 . S
H934 C938 0.929 . S
H935 C944 0.929 . S
C936 H930 0.930 . S
C936 C937 1.367 . S
C936 C944 1.378 . S
C937 C936 1.367 . S
C937 C945 1.433 . S
C938 H934 0.929 . S
C938 C940 1.378 . S
C938 C942 1.350 . S
C939 C942 1.463 . S
C939 C944 1.350 . S
C939 N947 1.427 . S
C940 H931 0.930 . S
C940 C938 1.378 . S
C940 C941 1.367 . S
C941 C940 1.367 . S
C941 C943 1.433 . S
C942 C938 1.350 . S
C942 C939 1.463 . S
C942 N946 1.427 . S
C943 H933 0.929 . S
C943 C941 1.433 . S
C943 N946 1.384 . S
C944 H935 0.929 . S
C944 C936 1.378 . S
C944 C939 1.350 . S
C945 H932 0.929 . S
C945 C937 1.433 . S
C945 N947 1.384 . S
N946 C942 1.427 . S
N946 C943 1.384 . S
N947 C939 1.427 . S
N947 C945 1.384 . S
C415 C373 1.471 . S
C419 C9 1.318 . S
C433 C43 1.319 . S
C437 C407 1.471 . S
C451 C339 1.476 . S
C455 C77 1.296 . S
C469 C111 1.322 . S
C473 C305 1.468 . S
C487 C145 1.316 . S
C491 C237 1.468 . S
C505 C179 1.296 . S
C509 C271 1.476 . S
C523 C169 1.468 . S
C527 C213 1.317 . S
C541 C203 1.471 . S
C545 C247 1.318 . S
C559 C135 1.476 . S
C563 C281 1.304 . S
C577 C101 1.468 . S
C581 C315 1.322 . S
C595 C349 1.322 . S
C599 C33 1.467 . S
C613 C67 1.468 . S
C617 C383 1.316 . S
C631 C224 1.256 . S
C635 C20 1.256 . S
C649 C54 1.254 . S
C653 C258 1.254 . S
C667 C292 1.251 . S
C671 C88 1.251 . S
C685 C122 1.264 . S
C689 C326 1.264 . S
C703 C156 1.260 . S
C707 C360 1.260 . S
C721 C394 1.264 . S
C725 C190 1.264 . S
C739 C5 0.651 . S
C743 C141 0.652 . S
C757 C39 0.661 . S
C761 C175 0.655 . S
C775 C73 0.655 . S
C779 C107 0.652 . S
C793 C345 0.686 . S
C797 C209 0.687 . S
C811 C243 0.682 . S
C815 C379 0.675 . S
C829 C277 0.663 . S
C833 C311 0.670 . S
C847 C172 1.438 . S
C851 C2 1.438 . S
C865 C104 1.438 . S
C869 C36 1.437 . S
C883 C70 1.419 . S
C887 C138 1.419 . S
C901 C206 1.421 . S
C905 C376 1.419 . S
C919 C308 1.421 . S
C923 C240 1.419 . S
C937 C342 1.424 . S
C941 C274 1.426 . S
