# Generated by pormake.
# Topology uos, (4)-cn, num edge types: 1
# Building blocks:
#     Node 0, Type 0, BuildingBlock: NAHDIM_clean_sbu_0, # of connection points: 4
#     Node 1, Type 0, BuildingBlock: NAHDIM_clean_sbu_0, # of connection points: 4
#     Node 2, Type 0, BuildingBlock: NAHDIM_clean_sbu_0, # of connection points: 4
#     Node 3, Type 0, BuildingBlock: NAHDIM_clean_sbu_0, # of connection points: 4
#     Node 4, Type 0, BuildingBlock: NAHDIM_clean_sbu_0, # of connection points: 4
#     Node 5, Type 0, BuildingBlock: NAHDIM_clean_sbu_0, # of connection points: 4
#     Node 6, Type 0, BuildingBlock: NAHDIM_clean_sbu_0, # of connection points: 4
#     Node 7, Type 0, BuildingBlock: NAHDIM_clean_sbu_0, # of connection points: 4
#     Node 8, Type 0, BuildingBlock: NAHDIM_clean_sbu_0, # of connection points: 4
#     Node 9, Type 0, BuildingBlock: NAHDIM_clean_sbu_0, # of connection points: 4
#     Node 10, Type 0, BuildingBlock: NAHDIM_clean_sbu_0, # of connection points: 4
#     Node 11, Type 0, BuildingBlock: NAHDIM_clean_sbu_0, # of connection points: 4
#     Node 12, Type 0, BuildingBlock: NAHDIM_clean_sbu_0, # of connection points: 4
#     Node 13, Type 0, BuildingBlock: NAHDIM_clean_sbu_0, # of connection points: 4
#     Node 14, Type 0, BuildingBlock: NAHDIM_clean_sbu_0, # of connection points: 4
#     Node 15, Type 0, BuildingBlock: NAHDIM_clean_sbu_0, # of connection points: 4
#     Node 16, Type 0, BuildingBlock: NAHDIM_clean_sbu_0, # of connection points: 4
#     Node 17, Type 0, BuildingBlock: NAHDIM_clean_sbu_0, # of connection points: 4
#     Node 18, Type 0, BuildingBlock: NAHDIM_clean_sbu_0, # of connection points: 4
#     Node 19, Type 0, BuildingBlock: NAHDIM_clean_sbu_0, # of connection points: 4
#     Node 20, Type 0, BuildingBlock: NAHDIM_clean_sbu_0, # of connection points: 4
#     Node 21, Type 0, BuildingBlock: NAHDIM_clean_sbu_0, # of connection points: 4
#     Node 22, Type 0, BuildingBlock: NAHDIM_clean_sbu_0, # of connection points: 4
#     Node 23, Type 0, BuildingBlock: NAHDIM_clean_sbu_0, # of connection points: 4
#     Node 24, Type 0, BuildingBlock: NAHDIM_clean_sbu_0, # of connection points: 4
#     Node 25, Type 0, BuildingBlock: NAHDIM_clean_sbu_0, # of connection points: 4
#     Node 26, Type 0, BuildingBlock: NAHDIM_clean_sbu_0, # of connection points: 4
#     Node 27, Type 0, BuildingBlock: NAHDIM_clean_sbu_0, # of connection points: 4
#     Node 28, Type 0, BuildingBlock: NAHDIM_clean_sbu_0, # of connection points: 4
#     Node 29, Type 0, BuildingBlock: NAHDIM_clean_sbu_0, # of connection points: 4
#     Node 30, Type 0, BuildingBlock: NAHDIM_clean_sbu_0, # of connection points: 4
#     Node 31, Type 0, BuildingBlock: NAHDIM_clean_sbu_0, # of connection points: 4
#     Edge 32, Type (0, 0), BuildingBlock: XUDNAN_clean_linker_2, # of connection points: 2
#     Edge 33, Type (0, 0), BuildingBlock: XUDNAN_clean_linker_2, # of connection points: 2
#     Edge 34, Type (0, 0), BuildingBlock: XUDNAN_clean_linker_2, # of connection points: 2
#     Edge 35, Type (0, 0), BuildingBlock: XUDNAN_clean_linker_2, # of connection points: 2
#     Edge 36, Type (0, 0), BuildingBlock: XUDNAN_clean_linker_2, # of connection points: 2
#     Edge 37, Type (0, 0), BuildingBlock: XUDNAN_clean_linker_2, # of connection points: 2
#     Edge 38, Type (0, 0), BuildingBlock: XUDNAN_clean_linker_2, # of connection points: 2
#     Edge 39, Type (0, 0), BuildingBlock: XUDNAN_clean_linker_2, # of connection points: 2
#     Edge 40, Type (0, 0), BuildingBlock: XUDNAN_clean_linker_2, # of connection points: 2
#     Edge 41, Type (0, 0), BuildingBlock: XUDNAN_clean_linker_2, # of connection points: 2
#     Edge 42, Type (0, 0), BuildingBlock: XUDNAN_clean_linker_2, # of connection points: 2
#     Edge 43, Type (0, 0), BuildingBlock: XUDNAN_clean_linker_2, # of connection points: 2
#     Edge 44, Type (0, 0), BuildingBlock: XUDNAN_clean_linker_2, # of connection points: 2
#     Edge 45, Type (0, 0), BuildingBlock: XUDNAN_clean_linker_2, # of connection points: 2
#     Edge 46, Type (0, 0), BuildingBlock: XUDNAN_clean_linker_2, # of connection points: 2
#     Edge 47, Type (0, 0), BuildingBlock: XUDNAN_clean_linker_2, # of connection points: 2
#     Edge 48, Type (0, 0), BuildingBlock: XUDNAN_clean_linker_2, # of connection points: 2
#     Edge 49, Type (0, 0), BuildingBlock: XUDNAN_clean_linker_2, # of connection points: 2
#     Edge 50, Type (0, 0), BuildingBlock: XUDNAN_clean_linker_2, # of connection points: 2
#     Edge 51, Type (0, 0), BuildingBlock: XUDNAN_clean_linker_2, # of connection points: 2
#     Edge 52, Type (0, 0), BuildingBlock: XUDNAN_clean_linker_2, # of connection points: 2
#     Edge 53, Type (0, 0), BuildingBlock: XUDNAN_clean_linker_2, # of connection points: 2
#     Edge 54, Type (0, 0), BuildingBlock: XUDNAN_clean_linker_2, # of connection points: 2
#     Edge 55, Type (0, 0), BuildingBlock: XUDNAN_clean_linker_2, # of connection points: 2
#     Edge 56, Type (0, 0), BuildingBlock: XUDNAN_clean_linker_2, # of connection points: 2
#     Edge 57, Type (0, 0), BuildingBlock: XUDNAN_clean_linker_2, # of connection points: 2
#     Edge 58, Type (0, 0), BuildingBlock: XUDNAN_clean_linker_2, # of connection points: 2
#     Edge 59, Type (0, 0), BuildingBlock: XUDNAN_clean_linker_2, # of connection points: 2
#     Edge 60, Type (0, 0), BuildingBlock: XUDNAN_clean_linker_2, # of connection points: 2
#     Edge 61, Type (0, 0), BuildingBlock: XUDNAN_clean_linker_2, # of connection points: 2
#     Edge 62, Type (0, 0), BuildingBlock: XUDNAN_clean_linker_2, # of connection points: 2
#     Edge 63, Type (0, 0), BuildingBlock: XUDNAN_clean_linker_2, # of connection points: 2
#     Edge 64, Type (0, 0), BuildingBlock: XUDNAN_clean_linker_2, # of connection points: 2
#     Edge 65, Type (0, 0), BuildingBlock: XUDNAN_clean_linker_2, # of connection points: 2
#     Edge 66, Type (0, 0), BuildingBlock: XUDNAN_clean_linker_2, # of connection points: 2
#     Edge 67, Type (0, 0), BuildingBlock: XUDNAN_clean_linker_2, # of connection points: 2
#     Edge 68, Type (0, 0), BuildingBlock: XUDNAN_clean_linker_2, # of connection points: 2
#     Edge 69, Type (0, 0), BuildingBlock: XUDNAN_clean_linker_2, # of connection points: 2
#     Edge 70, Type (0, 0), BuildingBlock: XUDNAN_clean_linker_2, # of connection points: 2
#     Edge 71, Type (0, 0), BuildingBlock: XUDNAN_clean_linker_2, # of connection points: 2
#     Edge 72, Type (0, 0), BuildingBlock: XUDNAN_clean_linker_2, # of connection points: 2
#     Edge 73, Type (0, 0), BuildingBlock: XUDNAN_clean_linker_2, # of connection points: 2
#     Edge 74, Type (0, 0), BuildingBlock: XUDNAN_clean_linker_2, # of connection points: 2
#     Edge 75, Type (0, 0), BuildingBlock: XUDNAN_clean_linker_2, # of connection points: 2
#     Edge 76, Type (0, 0), BuildingBlock: XUDNAN_clean_linker_2, # of connection points: 2
#     Edge 77, Type (0, 0), BuildingBlock: XUDNAN_clean_linker_2, # of connection points: 2
#     Edge 78, Type (0, 0), BuildingBlock: XUDNAN_clean_linker_2, # of connection points: 2
#     Edge 79, Type (0, 0), BuildingBlock: XUDNAN_clean_linker_2, # of connection points: 2
#     Edge 80, Type (0, 0), BuildingBlock: XUDNAN_clean_linker_2, # of connection points: 2
#     Edge 81, Type (0, 0), BuildingBlock: XUDNAN_clean_linker_2, # of connection points: 2
#     Edge 82, Type (0, 0), BuildingBlock: XUDNAN_clean_linker_2, # of connection points: 2
#     Edge 83, Type (0, 0), BuildingBlock: XUDNAN_clean_linker_2, # of connection points: 2
#     Edge 84, Type (0, 0), BuildingBlock: XUDNAN_clean_linker_2, # of connection points: 2
#     Edge 85, Type (0, 0), BuildingBlock: XUDNAN_clean_linker_2, # of connection points: 2
#     Edge 86, Type (0, 0), BuildingBlock: XUDNAN_clean_linker_2, # of connection points: 2
#     Edge 87, Type (0, 0), BuildingBlock: XUDNAN_clean_linker_2, # of connection points: 2
#     Edge 88, Type (0, 0), BuildingBlock: XUDNAN_clean_linker_2, # of connection points: 2
#     Edge 89, Type (0, 0), BuildingBlock: XUDNAN_clean_linker_2, # of connection points: 2
#     Edge 90, Type (0, 0), BuildingBlock: XUDNAN_clean_linker_2, # of connection points: 2
#     Edge 91, Type (0, 0), BuildingBlock: XUDNAN_clean_linker_2, # of connection points: 2
#     Edge 92, Type (0, 0), BuildingBlock: XUDNAN_clean_linker_2, # of connection points: 2
#     Edge 93, Type (0, 0), BuildingBlock: XUDNAN_clean_linker_2, # of connection points: 2
#     Edge 94, Type (0, 0), BuildingBlock: XUDNAN_clean_linker_2, # of connection points: 2
#     Edge 95, Type (0, 0), BuildingBlock: XUDNAN_clean_linker_2, # of connection points: 2
# Relax obj value: 0.053
# Max RMSD: 0.085
# Mean RMSD: 0.085
data_MOF--net-uos--node1-NAHDIM_clean_sbu_0--edge1-XUDNAN_clean_linker_2
_symmetry_space_group_name_H-M    P1
_symmetry_Int_Tables_number       1
_symmetry_cell_setting            triclinic
loop_
_symmetry_equiv_pos_as_xyz
'x, y, z'
_cell_length_a     84.61345
_cell_length_b     84.584597
_cell_length_c     23.68171
_cell_angle_alpha  90.018393
_cell_angle_beta   89.998257
_cell_angle_gamma 89.989544
loop_
_atom_site_label
_atom_site_type_symbol
_atom_site_fract_x
_atom_site_fract_y
_atom_site_fract_z
_atom_type_partial_charge
C0 C 0.16494 0.15821 0.97029 0.0
O1 O 0.17397 0.17082 0.97316 0.0
O2 O 0.16346 0.18597 0.08399 0.0
Zn3 Zn 0.16357 0.16218 0.09143 0.0
O4 O 0.14639 0.15464 0.14364 0.0
C5 C 0.18775 0.14346 0.15005 0.0
O6 O 0.17628 0.13326 0.15852 0.0
O7 O 0.15954 0.15228 0.01559 0.0
C8 C 0.14759 0.15525 0.19705 0.0
O9 O 0.16027 0.16156 0.21979 0.0
C10 C 0.15354 0.19522 0.10712 0.0
O11 O 0.14201 0.18928 0.13755 0.0
O12 O 0.18499 0.15595 0.12183 0.0
C13 C 0.09063 0.91789 0.24926 0.0
O14 O 0.07667 0.92454 0.25438 0.0
O15 O 0.06634 0.91314 0.36899 0.0
Zn16 Zn 0.08958 0.91801 0.37118 0.0
O17 O 0.10045 0.90228 0.42117 0.0
C18 C 0.10394 0.94425 0.43231 0.0
O19 O 0.11477 0.93371 0.44509 0.0
O20 O 0.09859 0.91488 0.29344 0.0
C21 C 0.09718 0.90048 0.47307 0.0
O22 O 0.08624 0.90938 0.49633 0.0
C23 C 0.06147 0.89972 0.35229 0.0
O24 O 0.07184 0.88893 0.33742 0.0
O25 O 0.09254 0.94029 0.40032 0.0
C26 C 0.35062 0.85703 0.58304 0.0
O27 O 0.35859 0.8448 0.60195 0.0
O28 O 0.33225 0.82378 0.64767 0.0
Zn29 Zn 0.33065 0.84669 0.67133 0.0
O30 O 0.34438 0.85212 0.73768 0.0
C31 C 0.30039 0.83996 0.71812 0.0
O32 O 0.30724 0.82614 0.72467 0.0
O33 O 0.3375 0.86049 0.60618 0.0
C34 C 0.34594 0.84395 0.78231 0.0
O35 O 0.33875 0.83024 0.78657 0.0
C36 C 0.34313 0.81383 0.65815 0.0
O37 O 0.35555 0.81821 0.68751 0.0
O38 O 0.30806 0.85108 0.69453 0.0
C39 C 0.39323 0.10291 0.80186 0.0
O40 O 0.40141 0.11229 0.83503 0.0
O41 O 0.4309 0.08249 0.85011 0.0
Zn42 Zn 0.40819 0.08157 0.87471 0.0
O43 O 0.40443 0.09698 0.93857 0.0
C44 C 0.40653 0.05716 0.95649 0.0
O45 O 0.41154 0.069 0.98753 0.0
O46 O 0.39414 0.08803 0.80931 0.0
C47 C 0.39066 0.09782 0.95975 0.0
O48 O 0.37934 0.08906 0.93821 0.0
C49 C 0.44178 0.086 0.88488 0.0
O50 O 0.43801 0.08954 0.93719 0.0
O51 O 0.40396 0.05937 0.90411 0.0
C52 C 0.13428 0.85705 0.93304 0.0
O53 O 0.12742 0.8534 0.88505 0.0
O54 O 0.15546 0.81485 0.8953 0.0
Zn55 Zn 0.15864 0.83827 0.88286 0.0
O56 O 0.14885 0.84424 0.80879 0.0
C57 C 0.19187 0.83314 0.86246 0.0
O58 O 0.18724 0.81838 0.8575 0.0
O59 O 0.14796 0.8515 0.94362 0.0
C60 C 0.15263 0.83857 0.76105 0.0
O61 O 0.1637 0.8277 0.758 0.0
C62 C 0.14194 0.80874 0.88675 0.0
O63 O 0.13011 0.81799 0.87267 0.0
O64 O 0.1818 0.84365 0.87584 0.0
C65 C 0.40823 0.90254 0.26198 0.0
O66 O 0.41672 0.89129 0.23871 0.0
O67 O 0.44195 0.9163 0.16748 0.0
Zn68 Zn 0.4183 0.91997 0.16338 0.0
O69 O 0.40879 0.90467 0.1076 0.0
C70 C 0.41723 0.94845 0.09286 0.0
O71 O 0.42403 0.93958 0.05431 0.0
O72 O 0.40762 0.91601 0.23831 0.0
C73 C 0.39791 0.90809 0.07275 0.0
O74 O 0.39226 0.92254 0.07115 0.0
C75 C 0.44751 0.90274 0.15543 0.0
O76 O 0.43771 0.89131 0.14189 0.0
O77 O 0.41394 0.94253 0.14079 0.0
C78 C 0.33621 0.13549 0.45993 0.0
O79 O 0.33711 0.12442 0.42111 0.0
O80 O 0.32372 0.17894 0.36261 0.0
Zn81 Zn 0.32296 0.15517 0.36957 0.0
O82 O 0.33683 0.14578 0.30957 0.0
C83 C 0.29435 0.15347 0.30956 0.0
O84 O 0.30255 0.1633 0.27813 0.0
O85 O 0.33039 0.14888 0.44719 0.0
C86 C 0.35114 0.14983 0.30232 0.0
O87 O 0.35754 0.16023 0.33662 0.0
C88 C 0.33277 0.18765 0.39209 0.0
O89 O 0.34218 0.18109 0.42947 0.0
O90 O 0.30064 0.14797 0.3542 0.0
C91 C 0.11204 0.10898 0.64607 0.0
O92 O 0.1106 0.11465 0.59475 0.0
O93 O 0.06775 0.08896 0.61674 0.0
Zn94 Zn 0.09089 0.08557 0.60005 0.0
O95 O 0.09613 0.0952 0.52468 0.0
C96 C 0.08816 0.05358 0.56202 0.0
O97 O 0.07632 0.05982 0.53387 0.0
O98 O 0.10451 0.09648 0.65943 0.0
C99 C 0.08695 0.09759 0.48313 0.0
O100 O 0.07215 0.09295 0.48594 0.0
C101 C 0.06252 0.10304 0.61864 0.0
O102 O 0.07243 0.11481 0.61092 0.0
O103 O 0.09608 0.06231 0.59536 0.0
C104 C 0.85865 0.85471 0.95279 0.0
O105 O 0.86942 0.85144 0.91459 0.0
O106 O 0.84093 0.81268 0.89686 0.0
Zn107 Zn 0.83936 0.83586 0.87843 0.0
O108 O 0.85482 0.84052 0.81611 0.0
C109 C 0.80956 0.83037 0.82378 0.0
O110 O 0.81586 0.81636 0.81565 0.0
O111 O 0.84475 0.84923 0.94668 0.0
C112 C 0.85194 0.85079 0.77837 0.0
O113 O 0.83841 0.8584 0.7794 0.0
C114 C 0.85414 0.80644 0.90926 0.0
O115 O 0.86673 0.81547 0.91266 0.0
O116 O 0.81734 0.84077 0.85083 0.0
C117 C 0.90991 0.09725 0.75447 0.0
O118 O 0.92295 0.10549 0.74836 0.0
O119 O 0.94152 0.08857 0.65257 0.0
Zn120 Zn 0.91827 0.08347 0.64474 0.0
O121 O 0.90865 0.09776 0.58597 0.0
C122 C 0.91933 0.0542 0.57735 0.0
O123 O 0.92419 0.0632 0.53564 0.0
O124 O 0.90613 0.0872 0.71693 0.0
C125 C 0.89774 0.09384 0.5519 0.0
O126 O 0.89234 0.07929 0.55224 0.0
C127 C 0.94663 0.10252 0.64459 0.0
O128 O 0.93651 0.11387 0.63329 0.0
O129 O 0.91611 0.06041 0.62487 0.0
C130 C 0.63689 0.1504 0.40117 0.0
O131 O 0.62975 0.15987 0.36531 0.0
O132 O 0.65372 0.18435 0.34646 0.0
Zn133 Zn 0.66007 0.16165 0.33178 0.0
O134 O 0.64939 0.15448 0.2604 0.0
C135 C 0.68765 0.17027 0.2791 0.0
O136 O 0.67663 0.17882 0.25463 0.0
O137 O 0.65175 0.14852 0.39662 0.0
C138 C 0.64649 0.13992 0.2521 0.0
O139 O 0.65047 0.12957 0.29092 0.0
C140 C 0.6628 0.1942 0.37077 0.0
O141 O 0.6769 0.18963 0.38728 0.0
O142 O 0.68364 0.16067 0.31789 0.0
C143 C 0.60641 0.90483 0.22911 0.0
O144 O 0.60354 0.89257 0.19663 0.0
O145 O 0.56908 0.9178 0.1388 0.0
Zn146 Zn 0.59281 0.92082 0.13449 0.0
O147 O 0.60244 0.90406 0.08481 0.0
C148 C 0.59011 0.94946 0.06674 0.0
O149 O 0.57614 0.94374 0.05374 0.0
O150 O 0.60252 0.91854 0.212 0.0
C151 C 0.6013 0.90416 0.03135 0.0
O152 O 0.59327 0.91549 0.00654 0.0
C153 C 0.56369 0.90377 0.1369 0.0
O154 O 0.57366 0.89195 0.13203 0.0
O155 O 0.59879 0.94198 0.10145 0.0
C156 C 0.8501 0.14056 0.07394 0.0
O157 O 0.85937 0.15019 0.10217 0.0
O158 O 0.8359 0.17689 0.12207 0.0
Zn159 Zn 0.82958 0.15509 0.14931 0.0
O160 O 0.84118 0.14833 0.21952 0.0
C161 C 0.80049 0.16897 0.18081 0.0
O162 O 0.81019 0.18099 0.18602 0.0
O163 O 0.83552 0.13997 0.08698 0.0
C164 C 0.84214 0.15632 0.26483 0.0
O165 O 0.83538 0.17028 0.2678 0.0
C166 C 0.84686 0.18593 0.13951 0.0
O167 O 0.85642 0.18109 0.17962 0.0
O168 O 0.80597 0.15562 0.16545 0.0
C169 C 0.59135 0.09483 0.72695 0.0
O170 O 0.58021 0.10073 0.75933 0.0
O171 O 0.566 0.07516 0.81323 0.0
Zn172 Zn 0.58984 0.07426 0.81714 0.0
O173 O 0.59788 0.08877 0.87825 0.0
C174 C 0.60883 0.04747 0.85601 0.0
O175 O 0.62027 0.0579 0.86041 0.0
O176 O 0.59836 0.08227 0.74265 0.0
C177 C 0.59905 0.08463 0.92966 0.0
O178 O 0.59459 0.07036 0.9447 0.0
C179 C 0.55726 0.08062 0.85228 0.0
O180 O 0.56378 0.08597 0.89882 0.0
O181 O 0.59562 0.05174 0.83554 0.0
C182 C 0.66136 0.86772 0.56946 0.0
O183 O 0.66515 0.87509 0.61639 0.0
O184 O 0.66511 0.81767 0.62653 0.0
Zn185 Zn 0.67026 0.84079 0.63531 0.0
O186 O 0.65826 0.84902 0.70216 0.0
C187 C 0.70255 0.83275 0.66379 0.0
O188 O 0.69698 0.81826 0.66316 0.0
O189 O 0.66305 0.8528 0.56675 0.0
C190 C 0.65951 0.84229 0.74988 0.0
O191 O 0.66872 0.82986 0.75481 0.0
C192 C 0.65079 0.81344 0.63202 0.0
O193 O 0.63996 0.82432 0.64069 0.0
O194 O 0.69343 0.84417 0.65119 0.0
C195 C 0.90888 0.91198 0.26476 0.0
O196 O 0.92399 0.91394 0.25413 0.0
O197 O 0.94053 0.91301 0.36742 0.0
Zn198 Zn 0.91759 0.91775 0.3832 0.0
O199 O 0.90939 0.90329 0.44447 0.0
C200 C 0.91895 0.94249 0.46322 0.0
O201 O 0.92329 0.93034 0.49405 0.0
O202 O 0.90385 0.91375 0.31494 0.0
C203 C 0.91787 0.89463 0.47618 0.0
O204 O 0.93329 0.89462 0.46984 0.0
C205 C 0.94538 0.89965 0.34989 0.0
O206 O 0.93506 0.88838 0.33997 0.0
O207 O 0.91577 0.94031 0.41129 0.0
C208 C 0.63343 0.65958 0.55784 0.0
O209 O 0.62661 0.66831 0.59669 0.0
O210 O 0.65566 0.69094 0.62638 0.0
Zn211 Zn 0.65837 0.6671 0.63041 0.0
O212 O 0.64686 0.65924 0.6991 0.0
C213 C 0.69235 0.6717 0.64116 0.0
O214 O 0.68883 0.68649 0.62995 0.0
O215 O 0.64818 0.6569 0.56183 0.0
C216 C 0.65067 0.6466 0.72464 0.0
O217 O 0.66257 0.63815 0.70568 0.0
C218 C 0.64453 0.69775 0.65315 0.0
O219 O 0.63485 0.68923 0.684 0.0
O220 O 0.68143 0.66136 0.64046 0.0
C221 C 0.61922 0.40994 0.82033 0.0
O222 O 0.62615 0.41096 0.86986 0.0
O223 O 0.5687 0.41845 0.86333 0.0
Zn224 Zn 0.59174 0.41901 0.88475 0.0
O225 O 0.5962 0.4027 0.94507 0.0
C226 C 0.58716 0.44677 0.94953 0.0
O227 O 0.57465 0.43853 0.96411 0.0
O228 O 0.60465 0.41341 0.81619 0.0
C229 C 0.60356 0.40593 0.99043 0.0
O230 O 0.60843 0.42046 -0.00067 0.0
C231 C 0.55972 0.40686 0.87509 0.0
O232 O 0.5656 0.39455 0.90157 0.0
O233 O 0.5968 0.44087 0.91406 0.0
C234 C 0.8498 0.3439 0.00103 0.0
O235 O 0.85945 0.33324 0.02205 0.0
O236 O 0.8344 0.30948 0.07593 0.0
Zn237 Zn 0.83111 0.33271 0.0919 0.0
O238 O 0.84521 0.33988 0.15492 0.0
C239 C 0.80351 0.3289 0.1589 0.0
O240 O 0.81282 0.31864 0.184 0.0
O241 O 0.8363 0.34575 0.02351 0.0
C242 C 0.84243 0.35312 0.17814 0.0
O243 O 0.83055 0.36172 0.1598 0.0
C244 C 0.84292 0.30083 0.1076 0.0
O245 O 0.85 0.30719 0.15143 0.0
O246 O 0.80866 0.33642 0.11624 0.0
C247 C 0.88989 0.60626 0.304 0.0
O248 O 0.88946 0.61341 0.35316 0.0
O249 O 0.93625 0.59064 0.34208 0.0
Zn250 Zn 0.91324 0.58697 0.36135 0.0
O251 O 0.90763 0.59863 0.43301 0.0
C252 C 0.92018 0.55346 0.38075 0.0
O253 O 0.93484 0.55748 0.36944 0.0
O254 O 0.89925 0.59463 0.297 0.0
C255 C 0.89531 0.59444 0.45986 0.0
O256 O 0.88674 0.58273 0.44007 0.0
C257 C 0.94609 0.59445 0.3803 0.0
O258 O 0.94108 0.59619 0.43244 0.0
O259 O 0.90933 0.56382 0.37737 0.0
C260 C 0.65328 0.3567 0.47284 0.0
O261 O 0.6411 0.35538 0.43876 0.0
O262 O 0.6652 0.31538 0.39585 0.0
Zn263 Zn 0.66844 0.33878 0.38468 0.0
O264 O 0.65282 0.34717 0.32795 0.0
C265 C 0.70143 0.33301 0.35595 0.0
O266 O 0.69982 0.32042 0.38789 0.0
O267 O 0.66636 0.35045 0.4587 0.0
C268 C 0.64874 0.33897 0.2854 0.0
O269 O 0.65432 0.32456 0.27975 0.0
C270 C 0.65157 0.30927 0.4015 0.0
O271 O 0.6391 0.31852 0.402 0.0
O272 O 0.68987 0.34248 0.35052 0.0
C273 C 0.9026 0.3978 0.68617 0.0
O274 O 0.91428 0.38881 0.66875 0.0
O275 O 0.9359 0.41158 0.60505 0.0
Zn276 Zn 0.91275 0.41623 0.59153 0.0
O277 O 0.90521 0.40289 0.52699 0.0
C278 C 0.91941 0.44593 0.53765 0.0
O279 O 0.93192 0.43813 0.52017 0.0
O280 O 0.89974 0.41063 0.66016 0.0
C281 C 0.89282 0.40633 0.49938 0.0
O282 O 0.88468 0.41897 0.51339 0.0
C283 C 0.94174 0.39849 0.58873 0.0
O284 O 0.93255 0.38812 0.56371 0.0
O285 O 0.90963 0.43909 0.57022 0.0
C286 C 0.8419 0.64262 0.95038 0.0
O287 O 0.85068 0.63785 0.90794 0.0
O288 O 0.83169 0.68678 0.87702 0.0
Zn289 Zn 0.82755 0.66353 0.86641 0.0
O290 O 0.84282 0.65538 0.80813 0.0
C291 C 0.79902 0.6694 0.80365 0.0
O292 O 0.80707 0.68185 0.78716 0.0
O293 O 0.8312 0.65291 0.94175 0.0
C294 C 0.83961 0.64322 0.77882 0.0
O295 O 0.82618 0.63579 0.78742 0.0
C296 C 0.84532 0.69077 0.89448 0.0
O297 O 0.85584 0.67967 0.90439 0.0
O298 O 0.80527 0.65989 0.83876 0.0
C299 C 0.58324 0.60563 0.23619 0.0
O300 O 0.57153 0.61085 0.20487 0.0
O301 O 0.55958 0.58439 0.14008 0.0
Zn302 Zn 0.58343 0.58427 0.14582 0.0
O303 O 0.59156 0.59855 0.08454 0.0
C304 C 0.58276 0.5501 0.13642 0.0
O305 O 0.56863 0.55181 0.15862 0.0
O306 O 0.59063 0.59331 0.22047 0.0
C307 C 0.60434 0.59568 0.0583 0.0
O308 O 0.61273 0.58322 0.07235 0.0
C309 C 0.55376 0.5825 0.09105 0.0
O310 O 0.56341 0.58032 0.04826 0.0
O311 O 0.59149 0.56221 0.13031 0.0
C312 C 0.33745 0.33749 0.51356 0.0
O313 O 0.32745 0.32564 0.51047 0.0
O314 O 0.33426 0.31378 0.38186 0.0
Zn315 Zn 0.3345 0.33745 0.39142 0.0
O316 O 0.34831 0.3472 0.33231 0.0
C317 C 0.30702 0.34044 0.32804 0.0
O318 O 0.3162 0.33205 0.29477 0.0
O319 O 0.34193 0.34425 0.46842 0.0
C320 C 0.36279 0.34386 0.32486 0.0
O321 O 0.36963 0.33341 0.35785 0.0
C322 C 0.34279 0.3034 0.40577 0.0
O323 O 0.35366 0.30778 0.44213 0.0
O324 O 0.31235 0.34483 0.37575 0.0
C325 C 0.3943 0.60857 0.13535 0.0
O326 O 0.39992 0.61645 0.09196 0.0
O327 O 0.42777 0.58544 0.05912 0.0
Zn328 Zn 0.40404 0.5838 0.0639 0.0
O329 O 0.39519 0.59573 0.99778 0.0
C330 C 0.40674 0.5497 0.06751 0.0
O331 O 0.42005 0.55291 0.09368 0.0
O332 O 0.39518 0.59356 0.13506 0.0
C333 C 0.39994 0.59237 0.94834 0.0
O334 O 0.41045 0.58109 0.94173 0.0
C335 C 0.43755 0.58649 0.09971 0.0
O336 O 0.43228 0.58695 0.15187 0.0
O337 O 0.39763 0.561 0.05362 0.0
C338 C 0.15927 0.65823 0.98417 0.0
O339 O 0.14999 0.67022 0.97239 0.0
O340 O 0.16384 0.68842 0.8802 0.0
Zn341 Zn 0.17035 0.66538 0.87287 0.0
O342 O 0.15474 0.65343 0.82451 0.0
C343 C 0.19532 0.67411 0.79804 0.0
O344 O 0.18541 0.68577 0.78859 0.0
O345 O 0.16989 0.65431 0.94877 0.0
C346 C 0.15291 0.65546 0.77175 0.0
O347 O 0.16125 0.66631 0.74568 0.0
C348 C 0.14972 0.6929 0.87097 0.0
O349 O 0.13902 0.68231 0.8574 0.0
O350 O 0.19185 0.66383 0.83525 0.0
C351 C 0.09183 0.40566 0.7522 0.0
O352 O 0.08261 0.3948 0.73018 0.0
O353 O 0.0612 0.41183 0.65152 0.0
Zn354 Zn 0.08373 0.41955 0.64852 0.0
O355 O 0.0964 0.4054 0.59798 0.0
C356 C 0.09285 0.44954 0.59076 0.0
O357 O 0.10713 0.44373 0.58429 0.0
O358 O 0.0939 0.41851 0.72541 0.0
C359 C 0.09447 0.40431 0.54497 0.0
O360 O 0.08384 0.41323 0.52003 0.0
C361 C 0.05677 0.39821 0.63526 0.0
O362 O 0.06737 0.38796 0.61796 0.0
O363 O 0.08245 0.44157 0.61703 0.0
C364 C 0.33913 0.64745 0.47356 0.0
O365 O 0.33933 0.63652 0.51298 0.0
O366 O 0.33074 0.69098 0.57095 0.0
Zn367 Zn 0.32797 0.66743 0.56482 0.0
O368 O 0.34203 0.6555 0.61842 0.0
C369 C 0.29872 0.6564 0.62137 0.0
O370 O 0.30801 0.64893 0.65684 0.0
O371 O 0.33413 0.66122 0.48568 0.0
C372 C 0.34349 0.65767 0.67123 0.0
O373 O 0.33518 0.66879 0.69616 0.0
C374 C 0.34169 0.69913 0.59331 0.0
O375 O 0.35374 0.692 0.61732 0.0
O376 O 0.30473 0.66371 0.57961 0.0
C377 C 0.10853 0.60262 0.29806 0.0
O378 O 0.09895 0.61249 0.32394 0.0
O379 O 0.07114 0.58963 0.35176 0.0
Zn380 Zn 0.09321 0.58285 0.37545 0.0
O381 O 0.10025 0.59487 0.44461 0.0
C382 C 0.07999 0.55266 0.40423 0.0
O383 O 0.06694 0.56083 0.39774 0.0
O384 O 0.10841 0.58815 0.31259 0.0
C385 C 0.09698 0.59013 0.49419 0.0
O386 O 0.08848 0.57726 0.50067 0.0
C387 C 0.06164 0.5967 0.38489 0.0
O388 O 0.0665 0.60073 0.43554 0.0
O389 O 0.09319 0.55936 0.39474 0.0
C390 C 0.14641 0.35518 0.06912 0.0
O391 O 0.13775 0.34344 0.08821 0.0
O392 O 0.16626 0.32072 0.13247 0.0
Zn393 Zn 0.16632 0.34371 0.15574 0.0
O394 O 0.15135 0.34783 0.2196 0.0
C395 C 0.2005 0.34324 0.16621 0.0
O396 O 0.19965 0.3328 0.12521 0.0
O397 O 0.15989 0.35764 0.09104 0.0
C398 C 0.15461 0.34281 0.26877 0.0
O399 O 0.16724 0.334 0.27601 0.0
C400 C 0.15586 0.31077 0.14794 0.0
O401 O 0.14414 0.31546 0.18024 0.0
O402 O 0.1879 0.34966 0.18415 0.0
C403 C 0.39405 0.3845 0.83449 0.0
O404 O 0.39904 0.3775 0.88063 0.0
O405 O 0.43424 0.4114 0.8558 0.0
Zn406 Zn 0.41168 0.41033 0.88229 0.0
O407 O 0.41084 0.39905 0.95707 0.0
C408 C 0.41208 0.44023 0.93273 0.0
O409 O 0.42426 0.43327 0.95655 0.0
O410 O 0.39803 0.39878 0.82516 0.0
C411 C 0.39826 0.40008 0.98606 0.0
O412 O 0.38644 0.40852 0.96644 0.0
C413 C 0.44425 0.40086 0.86918 0.0
O414 O 0.43958 0.38858 0.89875 0.0
O415 O 0.40414 0.43261 0.89612 0.0
H416 H 0.27646 0.16653 0.22561 0.0
H417 H 0.27553 0.13025 0.35518 0.0
H418 H 0.2485 0.12277 0.32554 0.0
H419 H 0.23649 0.17881 0.2419 0.0
H420 H 0.2335 0.1824 0.16764 0.0
H421 H 0.25294 0.18432 0.19773 0.0
H422 H 0.2638 0.16421 0.12475 0.0
H423 H 0.24437 0.16218 0.09455 0.0
H424 H 0.25483 0.14495 0.11921 0.0
H425 H 0.22134 0.11948 0.2815 0.0
H426 H 0.19589 0.12165 0.23077 0.0
H427 H 0.21477 0.16054 0.13199 0.0
C428 C 0.27064 0.15695 0.24766 0.0
C429 C 0.27814 0.14892 0.2926 0.0
C430 C 0.27001 0.13656 0.32063 0.0
C431 C 0.25468 0.1322 0.30396 0.0
C432 C 0.24765 0.14036 0.25937 0.0
C433 C 0.25535 0.15253 0.23187 0.0
C434 C 0.24505 0.15982 0.18661 0.0
C435 C 0.2418 0.17737 0.19926 0.0
C436 C 0.25246 0.15765 0.1278 0.0
C437 C 0.23027 0.14994 0.19313 0.0
C438 C 0.23203 0.13867 0.2349 0.0
C439 C 0.21986 0.12825 0.24868 0.0
C440 C 0.20546 0.12955 0.2195 0.0
C441 C 0.20332 0.14127 0.17742 0.0
C442 C 0.216 0.15146 0.16392 0.0
H443 H 0.08314 0.96874 0.41573 0.0
H444 H 0.1259 0.95601 0.50635 0.0
H445 H 0.12627 0.9824 0.551 0.0
H446 H 0.09375 0.00921 0.38853 0.0
H447 H 0.07391 0.01651 0.39807 0.0
H448 H 0.07709 0.99663 0.37339 0.0
H449 H 0.06009 0.98588 0.45595 0.0
H450 H 0.05693 0.00573 0.48107 0.0
H451 H 0.06521 0.99102 0.52753 0.0
H452 H 0.1218 0.0102 0.58652 0.0
H453 H 0.11335 0.03755 0.60742 0.0
H454 H 0.07359 0.03196 0.49323 0.0
C455 C 0.09263 0.97149 0.4448 0.0
C456 C 0.1045 0.96028 0.45748 0.0
C457 C 0.11668 0.9644 0.49586 0.0
C458 C 0.11698 0.97935 0.52156 0.0
C459 C 0.10502 0.99006 0.50843 0.0
C460 C 0.09311 0.98635 0.47078 0.0
C461 C 0.0817 -0.0 0.46366 0.0
C462 C 0.08162 0.00594 0.40227 0.0
C463 C 0.065 0.99538 0.48323 0.0
C464 C 0.08908 0.012 0.50307 0.0
C465 C 0.10248 0.00604 0.52868 0.0
C466 C 0.11132 0.01499 0.56669 0.0
C467 C 0.10641 0.03051 0.57838 0.0
C468 C 0.0928 0.03693 0.552 0.0
C469 C 0.08402 0.02744 0.51417 0.0
H470 H 0.21676 0.81344 0.83991 0.0
H471 H 0.20376 0.86304 0.84766 0.0
H472 H 0.23027 0.87036 0.81251 0.0
H473 H 0.2577 0.81863 0.88438 0.0
H474 H 0.26486 0.80338 0.83777 0.0
H475 H 0.24511 0.80223 0.86587 0.0
H476 H 0.23395 0.80021 0.7642 0.0
H477 H 0.25363 0.8015 0.73576 0.0
H478 H 0.23871 0.81536 0.71343 0.0
H479 H 0.25775 0.87209 0.77037 0.0
H480 H 0.2846 0.86812 0.73135 0.0
H481 H 0.27951 0.81744 0.75376 0.0
C482 C 0.21952 0.82586 0.83483 0.0
C483 C 0.20818 0.83766 0.84651 0.0
C484 C 0.21228 0.85378 0.83922 0.0
C485 C 0.22729 0.85806 0.81909 0.0
C486 C 0.23809 0.84609 0.80696 0.0
C487 C 0.23445 0.83033 0.8152 0.0
C488 C 0.24806 0.81972 0.79845 0.0
C489 C 0.2543 0.81045 0.84967 0.0
C490 C 0.2433 0.80854 0.75008 0.0
C491 C 0.25988 0.83195 0.7788 0.0
C492 C 0.25393 0.8471 0.78383 0.0
C493 C 0.26258 0.86028 0.76671 0.0
C494 C 0.27779 0.85791 0.74438 0.0
C495 C 0.28417 0.84249 0.73972 0.0
C496 C 0.27502 0.8294 0.75714 0.0
H497 H 0.41176 0.02784 0.90973 0.0
H498 H 0.39748 0.05146 0.0641 0.0
H499 H 0.39686 0.02584 0.1137 0.0
H500 H 0.38925 0.99065 0.93217 0.0
H501 H 0.40488 0.97851 0.90402 0.0
H502 H 0.40221 0.9984 0.87846 0.0
H503 H 0.43131 0.00479 0.90357 0.0
H504 H 0.43404 0.98499 0.92962 0.0
H505 H 0.43819 0.00165 0.97475 0.0
H506 H 0.39957 0.99834 0.14841 0.0
H507 H 0.40582 0.97039 0.16702 0.0
H508 H 0.41953 0.96432 0.99154 0.0
C509 C 0.4081 0.0275 0.95353 0.0
C510 C 0.40448 0.04155 0.98308 0.0
C511 C 0.40021 0.04079 0.04079 0.0
C512 C 0.39979 0.0263 0.06925 0.0
C513 C 0.4038 0.01269 0.03949 0.0
C514 C 0.40788 0.0131 0.98295 0.0
C515 C 0.41294 0.99688 0.96243 0.0
C516 C 0.40164 0.99075 0.91655 0.0
C517 C 0.43014 0.9971 0.94137 0.0
C518 C 0.41134 0.98741 0.01651 0.0
C519 C 0.40585 0.99675 0.06016 0.0
C520 C 0.40376 0.99085 0.11451 0.0
C521 C 0.40739 0.97496 0.12466 0.0
C522 C 0.41319 0.96514 0.0808 0.0
C523 C 0.41512 0.9715 0.02597 0.0
H524 H 0.78781 0.80963 0.7809 0.0
H525 H 0.7957 0.85952 0.8135 0.0
H526 H 0.76958 0.86571 0.77237 0.0
H527 H 0.76736 0.81408 0.64839 0.0
H528 H 0.75365 0.79825 0.66231 0.0
H529 H 0.77314 0.7978 0.69292 0.0
H530 H 0.76091 0.79516 0.79284 0.0
H531 H 0.7414 0.79553 0.76253 0.0
H532 H 0.7467 0.80961 0.81646 0.0
H533 H 0.7426 0.86641 0.72728 0.0
H534 H 0.71611 0.86145 0.68724 0.0
H535 H 0.72573 0.81102 0.68653 0.0
C536 C 0.78408 0.82187 0.77923 0.0
C537 C 0.79381 0.8341 0.80023 0.0
C538 C 0.78843 0.84995 0.79775 0.0
C539 C 0.77364 0.85359 0.77427 0.0
C540 C 0.76437 0.84124 0.75377 0.0
C541 C 0.76933 0.82569 0.75642 0.0
C542 C 0.75692 0.81456 0.73317 0.0
C543 C 0.76314 0.80565 0.6811 0.0
C544 C 0.75114 0.80304 0.77899 0.0
C545 C 0.74417 0.82628 0.71713 0.0
C546 C 0.74874 0.84161 0.72889 0.0
C547 C 0.73889 0.85445 0.71791 0.0
C548 C 0.72388 0.85151 0.69501 0.0
C549 C 0.71883 0.83585 0.68378 0.0
C550 C 0.72922 0.82313 0.69462 0.0
H551 H 0.9192 0.97165 0.41113 0.0
H552 H 0.91612 0.94893 0.57514 0.0
H553 H 0.91485 0.97501 0.62114 0.0
H554 H 0.94453 0.00303 0.45552 0.0
H555 H 0.93549 0.01782 0.41124 0.0
H556 H 0.93511 0.99736 0.39028 0.0
H557 H 0.90459 0.99845 0.38263 0.0
H558 H 0.90487 0.01894 0.4035 0.0
H559 H 0.89313 0.00492 0.44253 0.0
H560 H 0.91424 0.00321 0.64986 0.0
H561 H 0.9156 0.03214 0.66027 0.0
H562 H 0.9202 0.03704 0.47841 0.0
C563 C 0.91808 0.9722 0.45665 0.0
C564 C 0.91768 0.95827 0.48958 0.0
C565 C 0.91647 0.95944 0.54909 0.0
C566 C 0.91568 0.9742 0.57563 0.0
C567 C 0.91624 0.9877 0.54214 0.0
C568 C 0.91749 0.9869 0.48402 0.0
C569 C 0.91862 0.0033 0.45842 0.0
C570 C 0.93438 0.0055 0.42702 0.0
C571 C 0.90446 0.00659 0.41947 0.0
C572 C 0.91791 0.01339 0.51132 0.0
C573 C 0.91637 0.00411 0.559 0.0
C574 C 0.91545 0.01062 0.61288 0.0
C575 C 0.91621 0.02708 0.61831 0.0
C576 C 0.91804 0.03687 0.57019 0.0
C577 C 0.91886 0.02988 0.516 0.0
H578 H 0.71234 0.14893 0.28391 0.0
H579 H 0.70045 0.19713 0.23746 0.0
H580 H 0.7279 0.20169 0.20719 0.0
H581 H 0.75198 0.15684 0.33519 0.0
H582 H 0.76031 0.139 0.30611 0.0
H583 H 0.7398 0.13953 0.32638 0.0
H584 H 0.73177 0.13067 0.22567 0.0
H585 H 0.75226 0.13019 0.20501 0.0
H586 H 0.73836 0.14199 0.16563 0.0
H587 H 0.75628 0.20149 0.18407 0.0
H588 H 0.78439 0.1962 0.16497 0.0
H589 H 0.7783 0.1476 0.21971 0.0
C590 C 0.71561 0.16045 0.26779 0.0
C591 C 0.70432 0.17271 0.2632 0.0
C592 C 0.70891 0.18757 0.24115 0.0
C593 C 0.72447 0.19029 0.22395 0.0
C594 C 0.73529 0.17797 0.22837 0.0
C595 C 0.73112 0.1633 0.24933 0.0
C596 C 0.74508 0.15202 0.24759 0.0
C597 C 0.74955 0.14653 0.30738 0.0
C598 C 0.74166 0.13788 0.20865 0.0
C599 C 0.7577 0.16271 0.22272 0.0
C600 C 0.75174 0.17765 0.2125 0.0
C601 C 0.7611 0.18982 0.1915 0.0
C602 C 0.77704 0.1867 0.18089 0.0
C603 C 0.78345 0.17148 0.19053 0.0
C604 C 0.77362 0.15928 0.21125 0.0
H605 H 0.58614 0.02445 0.86344 0.0
H606 H 0.63423 0.03545 0.91396 0.0
H607 H 0.635 0.01105 0.97124 0.0
H608 H 0.57334 0.01058 0.99462 0.0
H609 H 0.561 0.99506 0.96679 0.0
H610 H 0.5647 0.0125 0.92536 0.0
H611 H 0.57534 0.99525 0.84326 0.0
H612 H 0.57147 0.97771 0.88416 0.0
H613 H 0.59101 0.98129 0.85663 0.0
H614 H 0.62971 0.98656 0.02899 0.0
H615 H 0.61933 0.96308 0.07856 0.0
H616 H 0.57465 0.96832 0.99025 0.0
C617 C 0.59697 0.0216 0.8856 0.0
C618 C 0.61015 0.03187 0.88402 0.0
C619 C 0.62401 0.02775 0.91423 0.0
C620 C 0.62454 0.01393 0.94701 0.0
C621 C 0.61116 0.00433 0.94889 0.0
C622 C 0.59769 0.00791 0.9185 0.0
C623 C 0.58468 0.99601 0.9295 0.0
C624 C 0.57007 0.00402 0.95563 0.0
C625 C 0.58038 0.98703 0.87515 0.0
C626 C 0.59283 0.98531 0.9716 0.0
C627 C 0.60811 0.99027 0.98212 0.0
C628 C 0.61781 0.98249 0.02069 0.0
C629 C 0.61177 0.9692 0.04883 0.0
C630 C 0.59617 0.96383 0.03831 0.0
C631 C 0.58663 0.97207 -0.00081 0.0
H632 H 0.71856 0.69075 0.64563 0.0
H633 H 0.70228 0.64327 0.68415 0.0
H634 H 0.72814 0.63721 0.72734 0.0
H635 H 0.75956 0.67984 0.61284 0.0
H636 H 0.76743 0.69758 0.6443 0.0
H637 H 0.74801 0.69776 0.61309 0.0
H638 H 0.7363 0.70805 0.7073 0.0
H639 H 0.75563 0.70776 0.73895 0.0
H640 H 0.73963 0.69702 0.77135 0.0
H641 H 0.75501 0.63704 0.77324 0.0
H642 H 0.78155 0.64223 0.81272 0.0
H643 H 0.78039 0.6896 0.74234 0.0
C644 C 0.72049 0.67899 0.66236 0.0
C645 C 0.70837 0.66749 0.66143 0.0
C646 C 0.71139 0.65227 0.68409 0.0
C647 C 0.72603 0.64872 0.70886 0.0
C648 C 0.73758 0.66045 0.71019 0.0
C649 C 0.73505 0.67522 0.68694 0.0
C650 C 0.74926 0.68586 0.69511 0.0
C651 C 0.75649 0.69053 0.63793 0.0
C652 C 0.74494 0.70054 0.73028 0.0
C653 C 0.76008 0.67487 0.72752 0.0
C654 C 0.75314 0.66027 0.7358 0.0
C655 C 0.76064 0.64837 0.76649 0.0
C656 C 0.77567 0.65146 0.78897 0.0
C657 C 0.78307 0.6663 0.78047 0.0
C658 C 0.77512 0.6781 0.7492 0.0
H659 H 0.5678 0.46303 0.02152 0.0
H660 H 0.61315 0.4659 0.93641 0.0
H661 H 0.61785 0.49201 0.98036 0.0
H662 H 0.55735 0.50334 0.00493 0.0
H663 H 0.54785 0.50486 0.07283 0.0
H664 H 0.54855 0.48612 0.03691 0.0
H665 H 0.56187 0.47345 0.12449 0.0
H666 H 0.56129 0.49219 0.1606 0.0
H667 H 0.57981 0.48194 0.15215 0.0
H668 H 0.6171 0.51828 0.0314 0.0
H669 H 0.61049 0.54298 0.08188 0.0
H670 H 0.56561 0.52264 0.13311 0.0
C671 C 0.57878 0.46907 0.01231 0.0
C672 C 0.59013 0.4624 0.97558 0.0
C673 C 0.60428 0.47078 0.9644 0.0
C674 C 0.60708 0.48559 0.98933 0.0
C675 C 0.59562 0.49182 0.02536 0.0
C676 C 0.58174 0.48383 0.03667 0.0
C677 C 0.57104 0.49333 0.07506 0.0
C678 C 0.55527 0.49714 0.04566 0.0
C679 C 0.56835 0.48471 0.13142 0.0
C680 C 0.58097 0.50802 0.08306 0.0
C681 C 0.59517 0.50689 0.05447 0.0
C682 C 0.60606 0.51925 0.05422 0.0
C683 C 0.60221 0.53323 0.08311 0.0
C684 C 0.58755 0.53475 0.11164 0.0
C685 C 0.57696 0.52184 0.11216 0.0
H686 H 0.72876 0.31549 0.35882 0.0
H687 H 0.70717 0.35623 0.27811 0.0
H688 H 0.73096 0.35966 0.21919 0.0
H689 H 0.76873 0.33114 0.36176 0.0
H690 H 0.7777 0.31222 0.34762 0.0
H691 H 0.7591 0.31322 0.38444 0.0
H692 H 0.74653 0.29466 0.30982 0.0
H693 H 0.76506 0.29367 0.27259 0.0
H694 H 0.74745 0.29996 0.23616 0.0
H695 H 0.75662 0.35804 0.16631 0.0
H696 H 0.78297 0.35224 0.12651 0.0
H697 H 0.78797 0.31286 0.24275 0.0
C698 C 0.72907 0.32521 0.32906 0.0
C699 C 0.71609 0.33559 0.32311 0.0
C700 C 0.71697 0.34814 0.28357 0.0
C701 C 0.73042 0.35017 0.24979 0.0
C702 C 0.74292 0.33962 0.25625 0.0
C703 C 0.74243 0.32746 0.29517 0.0
C704 C 0.75744 0.31772 0.29352 0.0
C705 C 0.76626 0.31864 0.3502 0.0
C706 C 0.7539 0.30048 0.27702 0.0
C707 C 0.76639 0.32623 0.24727 0.0
C708 C 0.75779 0.33881 0.22623 0.0
C709 C 0.7635 0.34827 0.18262 0.0
C710 C 0.77846 0.34485 0.16018 0.0
C711 C 0.78755 0.33212 0.18156 0.0
C712 C 0.78135 0.32271 0.22562 0.0
H713 H 0.93979 0.4655 0.48084 0.0
H714 H 0.89217 0.46316 0.54861 0.0
H715 H 0.88685 0.49001 0.51238 0.0
H716 H 0.9465 0.50631 0.51456 0.0
H717 H 0.95774 0.5102 0.45142 0.0
H718 H 0.95761 0.49066 0.48147 0.0
H719 H 0.94803 0.4792 0.38589 0.0
H720 H 0.94804 0.49874 0.35563 0.0
H721 H 0.93031 0.48693 0.35388 0.0
H722 H 0.88665 0.51703 0.4681 0.0
H723 H 0.89213 0.54296 0.4246 0.0
H724 H 0.9401 0.52789 0.38772 0.0
C725 C 0.92823 0.47061 0.48801 0.0
C726 C 0.91638 0.46221 0.51745 0.0
C727 C 0.90145 0.46938 0.52629 0.0
C728 C 0.89829 0.4846 0.50567 0.0
C729 C 0.91021 0.49252 0.47656 0.0
C730 C 0.92492 0.48583 0.46812 0.0
C731 C 0.93582 0.49703 0.43691 0.0
C732 C 0.95027 0.5013 0.47327 0.0
C733 C 0.94084 0.49005 0.37968 0.0
C734 C 0.92494 0.51109 0.42925 0.0
C735 C 0.91019 0.50819 0.45198 0.0
C736 C 0.89817 0.51944 0.45017 0.0
C737 C 0.90138 0.53412 0.4252 0.0
C738 C 0.91655 0.53748 0.40273 0.0
C739 C 0.92839 0.5257 0.40446 0.0
H740 H 0.2915 0.32947 0.23487 0.0
H741 H 0.28551 0.3596 0.38179 0.0
H742 H 0.25793 0.36498 0.35294 0.0
H743 H 0.26736 0.35251 0.13791 0.0
H744 H 0.25937 0.33521 0.10379 0.0
H745 H 0.27889 0.33461 0.13417 0.0
H746 H 0.27079 0.31044 0.19496 0.0
H747 H 0.25129 0.31096 0.16477 0.0
H748 H 0.25374 0.31184 0.24032 0.0
H749 H 0.23069 0.36616 0.30974 0.0
H750 H 0.20571 0.36239 0.2577 0.0
H751 H 0.22967 0.33115 0.13999 0.0
C752 C 0.28447 0.33734 0.26076 0.0
C753 C 0.29067 0.34417 0.31049 0.0
C754 C 0.28101 0.35426 0.34347 0.0
C755 C 0.26535 0.35741 0.32734 0.0
C756 C 0.25959 0.35039 0.2782 0.0
C757 C 0.26885 0.34054 0.24548 0.0
C758 C 0.25967 0.33386 0.19611 0.0
C759 C 0.26675 0.33938 0.13966 0.0
C760 C 0.25882 0.3157 0.19927 0.0
C761 C 0.24368 0.34131 0.20653 0.0
C762 C 0.24391 0.35091 0.25375 0.0
C763 C 0.23041 0.35874 0.27252 0.0
C764 C 0.21627 0.35652 0.24262 0.0
C765 C 0.21572 0.34648 0.19468 0.0
C766 C 0.22969 0.33895 0.17626 0.0
H767 H 0.42475 0.52322 0.08456 0.0
H768 H 0.38141 0.53936 0.00513 0.0
H769 H 0.37739 0.51274 0.96462 0.0
H770 H 0.43802 0.49986 0.97186 0.0
H771 H 0.44618 0.48442 0.01547 0.0
H772 H 0.44495 0.50431 0.04208 0.0
H773 H 0.42891 0.49448 0.12847 0.0
H774 H 0.43021 0.47451 0.10237 0.0
H775 H 0.41117 0.4831 0.11734 0.0
H776 H 0.37921 0.48477 0.92699 0.0
H777 H 0.38618 0.45745 0.89892 0.0
H778 H 0.42823 0.45995 0.00364 0.0
C779 C 0.41427 0.52112 0.05943 0.0
C780 C 0.40338 0.53339 0.04816 0.0
C781 C 0.38989 0.53014 0.01459 0.0
C782 C 0.38751 0.51506 0.9913 0.0
C783 C 0.39868 0.50334 0.00224 0.0
C784 C 0.41171 0.50618 0.03594 0.0
C785 C 0.42227 0.49177 0.03958 0.0
C786 C 0.43883 0.49531 0.01582 0.0
C787 C 0.42319 0.4856 0.10057 0.0
C788 C 0.41329 0.48047 0.00192 0.0
C789 C 0.39969 0.48731 0.98086 0.0
C790 C 0.38977 0.47924 0.94365 0.0
C791 C 0.39385 0.46376 0.9278 0.0
C792 C 0.40772 0.45654 0.94915 0.0
C793 C 0.41749 0.46507 0.98676 0.0
H794 H 0.2822 0.6452 0.71333 0.0
H795 H 0.27682 0.67277 0.55976 0.0
H796 H 0.24952 0.67931 0.58704 0.0
H797 H 0.2412 0.62992 0.71688 0.0
H798 H 0.24007 0.63117 0.79276 0.0
H799 H 0.25879 0.62751 0.75892 0.0
H800 H 0.27073 0.65175 0.81039 0.0
H801 H 0.25202 0.65561 0.84386 0.0
H802 H 0.26146 0.67083 0.80265 0.0
H803 H 0.22402 0.68519 0.63485 0.0
H804 H 0.20078 0.68816 0.69656 0.0
H805 H 0.22195 0.65615 0.81829 0.0
C806 C 0.27518 0.65235 0.68486 0.0
C807 C 0.2817 0.65847 0.63435 0.0
C808 C 0.27213 0.6679 0.59859 0.0
C809 C 0.25659 0.67171 0.61375 0.0
C810 C 0.2507 0.66588 0.66452 0.0
C811 C 0.25958 0.65621 0.69921 0.0
C812 C 0.25052 0.65198 0.75241 0.0
C813 C 0.24746 0.63408 0.75539 0.0
C814 C 0.2592 0.6579 0.80545 0.0
C815 C 0.23532 0.66107 0.74268 0.0
C816 C 0.23572 0.66901 0.69171 0.0
C817 C 0.22346 0.67886 0.6745 0.0
C818 C 0.21035 0.68055 0.71008 0.0
C819 C 0.20952 0.67235 0.76216 0.0
C820 C 0.22219 0.66244 0.77848 0.0
H821 H 0.11211 0.47218 0.54219 0.0
H822 H 0.06299 0.46098 0.57778 0.0
H823 H 0.05468 0.48543 0.53033 0.0
H824 H 0.10842 0.51416 0.5663 0.0
H825 H 0.12185 0.51959 0.51052 0.0
H826 H 0.12411 0.5009 0.54602 0.0
H827 H 0.12255 0.48639 0.44981 0.0
H828 H 0.12018 0.50504 0.41405 0.0
H829 H 0.10572 0.48962 0.40453 0.0
H830 H 0.0514 0.51059 0.47908 0.0
H831 H 0.05337 0.53643 0.43229 0.0
H832 H 0.10458 0.5324 0.43112 0.0
C833 C 0.09962 0.47489 0.53993 0.0
C834 C 0.08821 0.46461 0.56367 0.0
C835 C 0.07197 0.46864 0.56014 0.0
C836 C 0.0671 0.48248 0.53301 0.0
C837 C 0.07859 0.49228 0.50984 0.0
C838 C 0.09451 0.48881 0.51335 0.0
C839 C 0.10436 0.50175 0.48625 0.0
C840 C 0.11533 0.50956 0.52988 0.0
C841 C 0.11376 0.49531 0.43565 0.0
C842 C 0.09144 0.51301 0.46721 0.0
C843 C 0.07669 0.50717 0.48091 0.0
C844 C 0.06288 0.51533 0.46816 0.0
C845 C 0.06414 0.53001 0.44144 0.0
C846 C 0.07913 0.53649 0.42803 0.0
C847 C 0.09295 0.52776 0.44064 0.0
H848 H 0.14543 0.13289 0.94987 0.0
H849 H 0.17319 0.16902 0.8654 0.0
H850 H 0.16358 0.15942 0.7732 0.0
H851 H 0.15097 0.10197 0.84305 0.0
H852 H 0.13112 0.09456 0.85086 0.0
H853 H 0.141 0.1036 0.91006 0.0
H854 H 0.1178 0.12337 0.92103 0.0
H855 H 0.10789 0.11446 0.86176 0.0
H856 H 0.11202 0.13537 0.8616 0.0
H857 H 0.14968 0.1472 0.69116 0.0
H858 H 0.13296 0.13266 0.62377 0.0
H859 H 0.11434 0.10413 0.76099 0.0
C860 C 0.14966 0.13866 0.91198 0.0
C861 C 0.16009 0.15171 0.91489 0.0
C862 C 0.16524 0.15899 0.86428 0.0
C863 C 0.15986 0.15362 0.81169 0.0
C864 C 0.1494 0.1409 0.81041 0.0
C865 C 0.14443 0.13344 0.85913 0.0
C866 C 0.13272 0.12036 0.84608 0.0
C867 C 0.13935 0.10416 0.86355 0.0
C868 C 0.11666 0.12359 0.87429 0.0
C869 C 0.13166 0.12185 0.78246 0.0
C870 C 0.14144 0.13373 0.76283 0.0
C871 C 0.14209 0.13777 0.70593 0.0
C872 C 0.13249 0.12945 0.66802 0.0
C873 C 0.12236 0.11722 0.68706 0.0
C874 C 0.12206 0.11332 0.74508 0.0
H875 H 0.14252 0.86433 0.04274 0.0
H876 H 0.10778 0.87445 0.91265 0.0
H877 H 0.09405 0.89263 0.97733 0.0
H878 H 0.11531 0.86379 0.15726 0.0
H879 H 0.12863 0.87289 0.20696 0.0
H880 H 0.13637 0.86139 0.14928 0.0
H881 H 0.15334 0.8853 0.11753 0.0
H882 H 0.14557 0.8969 0.17503 0.0
H883 H 0.14388 0.90399 0.10352 0.0
H884 H 0.08345 0.90895 0.05649 0.0
H885 H 0.07597 0.92134 0.14698 0.0
H886 H 0.11734 0.90057 0.22632 0.0
C887 C 0.1321 0.87047 0.02776 0.0
C888 C 0.12626 0.86798 0.97256 0.0
C889 C 0.11249 0.87613 0.95475 0.0
C890 C 0.10462 0.88655 0.99108 0.0
C891 C 0.11065 0.88872 0.04519 0.0
C892 C 0.12402 0.88088 0.06366 0.0
C893 C 0.12754 0.88478 0.12485 0.0
C894 C 0.12692 0.86982 0.16175 0.0
C895 C 0.14353 0.89325 0.13054 0.0
C896 C 0.11393 0.89585 0.13793 0.0
C897 C 0.10443 0.89808 0.09121 0.0
C898 C 0.09085 0.90739 0.09334 0.0
C899 C 0.08671 0.91439 0.14493 0.0
C900 C 0.09607 0.91197 0.19374 0.0
C901 C 0.10999 0.90277 0.18971 0.0
H902 H 0.40923 0.87618 0.32894 0.0
H903 H 0.38509 0.92112 0.30885 0.0
H904 H 0.36768 0.91453 0.38929 0.0
H905 H 0.3755 0.85327 0.36333 0.0
H906 H 0.38557 0.84118 0.41467 0.0
H907 H 0.39642 0.84967 0.35674 0.0
H908 H 0.41576 0.86296 0.42712 0.0
H909 H 0.40503 0.85442 0.48528 0.0
H910 H 0.40805 0.8755 0.48218 0.0
H911 H 0.35197 0.90228 0.46926 0.0
H912 H 0.34045 0.8861 0.54601 0.0
H913 H 0.37549 0.84967 0.51438 0.0
C914 C 0.40036 0.8847 0.34164 0.0
C915 C 0.39851 0.89916 0.31253 0.0
C916 C 0.38677 0.90999 0.33062 0.0
C917 C 0.37679 0.90633 0.37616 0.0
C918 C 0.3788 0.89187 0.40343 0.0
C919 C 0.39041 0.88131 0.38717 0.0
C920 C 0.39014 0.86656 0.42328 0.0
C921 C 0.38669 0.8518 0.38735 0.0
C922 C 0.40567 0.86476 0.45644 0.0
C923 C 0.37646 0.87039 0.46208 0.0
C924 C 0.37001 0.88501 0.44992 0.0
C925 C 0.357 0.89086 0.47941 0.0
C926 C 0.3505 0.88158 0.52277 0.0
C927 C 0.35711 0.86666 0.53635 0.0
C928 C 0.37024 0.86107 0.50536 0.0
H929 H 0.38206 0.08881 0.70456 0.0
H930 H 0.38172 0.13285 0.79877 0.0
H931 H 0.36577 0.14531 0.72406 0.0
H932 H 0.38676 0.10654 0.56959 0.0
H933 H 0.37431 0.09266 0.53277 0.0
H934 H 0.3846 0.08664 0.59573 0.0
H935 H 0.35806 0.0781 0.64104 0.0
H936 H 0.34769 0.08409 0.57812 0.0
H937 H 0.34207 0.09213 0.6457 0.0
H938 H 0.35082 0.1534 0.63877 0.0
H939 H 0.33853 0.15703 0.54546 0.0
H940 H 0.34905 0.10812 0.50364 0.0
C941 C 0.37842 0.101 0.70971 0.0
C942 C 0.38306 0.10985 0.75758 0.0
C943 C 0.37832 0.12585 0.76243 0.0
C944 C 0.36921 0.13303 0.72033 0.0
C945 C 0.36498 0.12408 0.6734 0.0
C946 C 0.36945 0.10845 0.66757 0.0
C947 C 0.36407 0.10186 0.61116 0.0
C948 C 0.37828 0.09662 0.5752 0.0
C949 C 0.35227 0.08824 0.61953 0.0
C950 C 0.35605 0.11629 0.58615 0.0
C951 C 0.35658 0.1289 0.62314 0.0
C952 C 0.35026 0.1436 0.60946 0.0
C953 C 0.34329 0.14553 0.55629 0.0
C954 C 0.3428 0.13287 0.51712 0.0
C955 C 0.34919 0.11802 0.53262 0.0
H956 H 0.88761 0.8671 0.97932 0.0
H957 H 0.83912 0.86453 0.03857 0.0
H958 H 0.84633 0.88055 0.12198 0.0
H959 H 0.90573 0.86314 0.11318 0.0
H960 H 0.92166 0.87663 0.09793 0.0
H961 H 0.91241 0.86578 0.04151 0.0
H962 H 0.90633 0.89206 0.98961 0.0
H963 H 0.91552 0.90301 0.04605 0.0
H964 H 0.89546 0.90736 0.02569 0.0
H965 H 0.85918 0.89578 0.20114 0.0
H966 H 0.87673 0.90847 0.271 0.0
H967 H 0.91675 0.90116 0.15921 0.0
C968 C 0.87845 0.87 0.00953 0.0
C969 C 0.86278 0.86457 0.00231 0.0
C970 C 0.8512 0.86855 0.04314 0.0
C971 C 0.85517 0.87769 0.09057 0.0
C972 C 0.87076 0.88278 0.09643 0.0
C973 C 0.88221 0.87907 0.057 0.0
C974 C 0.89822 0.88545 0.07422 0.0
C975 C 0.9102 0.87194 0.0822 0.0
C976 C 0.90423 0.8977 0.03134 0.0
C977 C 0.89405 0.89315 0.12995 0.0
C978 C 0.87814 0.89157 0.14186 0.0
C979 C 0.87164 0.89719 0.19205 0.0
C980 C 0.88171 0.90439 0.23147 0.0
C981 C 0.89812 0.90588 0.22052 0.0
C982 C 0.90425 0.90038 0.16863 0.0
H983 H 0.87949 0.14302 0.02734 0.0
H984 H 0.83538 0.11712 0.01284 0.0
H985 H 0.84639 0.10213 0.93206 0.0
H986 H 0.88627 0.14715 0.88054 0.0
H987 H 0.90741 0.14501 0.88595 0.0
H988 H 0.89634 0.15292 0.94439 0.0
H989 H 0.90792 0.1313 0.01001 0.0
H990 H 0.91903 0.12331 0.95171 0.0
H991 H 0.90578 0.11077 0.99102 0.0
H992 H 0.86215 0.09054 0.85106 0.0
H993 H 0.88088 0.08395 0.7746 0.0
H994 H 0.91435 0.11795 0.8422 0.0
C995 C 0.87215 0.13409 0.00763 0.0
C996 C 0.85659 0.13117 0.02658 0.0
C997 C 0.84735 0.11952 -0.00092 0.0
C998 C 0.85352 0.11093 0.9533 0.0
C999 C 0.8689 0.11419 0.93557 0.0
C1000 C 0.87807 0.12552 0.96186 0.0
C1001 C 0.89398 0.12729 0.93338 0.0
C1002 C 0.89612 0.14409 0.90965 0.0
C1003 C 0.90747 0.1229 0.97395 0.0
C1004 C 0.89234 0.11524 0.88656 0.0
C1005 C 0.87784 0.10772 0.88872 0.0
C1006 C 0.87355 0.09632 0.84911 0.0
C1007 C 0.88428 0.09265 0.80585 0.0
C1008 C 0.8991 0.10042 0.80236 0.0
C1009 C 0.90316 0.11175 0.8437 0.0
H1010 H 0.61958 0.0944 0.66814 0.0
H1011 H 0.57205 0.11375 0.666 0.0
H1012 H 0.57844 0.12889 0.58032 0.0
H1013 H 0.63876 0.12996 0.62739 0.0
H1014 H 0.65352 0.12061 0.58379 0.0
H1015 H 0.64502 0.11002 0.64233 0.0
H1016 H 0.63663 0.08736 0.57509 0.0
H1017 H 0.64518 0.09786 0.51633 0.0
H1018 H 0.62476 0.09182 0.5139 0.0
H1019 H 0.58979 0.14266 0.49857 0.0
H1020 H 0.60581 0.15506 0.42445 0.0
H1021 H 0.64669 0.12792 0.47887 0.0
C1022 C 0.61048 0.10162 0.64893 0.0
C1023 C 0.59529 0.10285 0.67344 0.0
C1024 C 0.58376 0.11265 0.64792 0.0
C1025 C 0.58725 0.12126 0.59915 0.0
C1026 C 0.60237 0.12004 0.57652 0.0
C1027 C 0.61385 0.11052 0.60036 0.0
C1028 C 0.62941 0.11217 0.56888 0.0
C1029 C 0.64244 0.11857 0.60794 0.0
C1030 C 0.63428 0.09636 0.54195 0.0
C1031 C 0.62485 0.12422 0.52422 0.0
C1032 C 0.60914 0.12841 0.52934 0.0
C1033 C 0.6021 0.13944 0.49386 0.0
C1034 C 0.61134 0.14643 0.45186 0.0
C1035 C 0.62753 0.14248 0.44576 0.0
C1036 C 0.63436 0.13118 0.48247 0.0
H1037 H 0.64969 0.85558 0.47053 0.0
H1038 H 0.65653 0.89969 0.56116 0.0
H1039 H 0.64331 0.91414 0.48379 0.0
H1040 H 0.65614 0.87119 0.33024 0.0
H1041 H 0.64118 0.85886 0.29864 0.0
H1042 H 0.65162 0.85216 0.36045 0.0
H1043 H 0.62494 0.84809 0.41228 0.0
H1044 H 0.61443 0.85486 0.35076 0.0
H1045 H 0.61129 0.86438 0.41793 0.0
H1046 H 0.62874 0.92368 0.397 0.0
H1047 H 0.61443 0.92755 0.30699 0.0
H1048 H 0.61708 0.87709 0.27457 0.0
C1049 C 0.64854 0.8683 0.474 0.0
C1050 C 0.65419 0.8765 0.52189 0.0
C1051 C 0.65233 0.89314 0.52485 0.0
C1052 C 0.64482 0.90145 0.48114 0.0
C1053 C 0.63924 0.89296 0.43482 0.0
C1054 C 0.64106 0.87676 0.43094 0.0
C1055 C 0.6338 0.87037 0.3772 0.0
C1056 C 0.64644 0.8627 0.3394 0.0
C1057 C 0.62031 0.85874 0.39036 0.0
C1058 C 0.62757 0.88551 0.35148 0.0
C1059 C 0.63082 0.89842 0.38525 0.0
C1060 C 0.62615 0.91365 0.37016 0.0
C1061 C 0.61801 0.91573 0.31902 0.0
C1062 C 0.61463 0.90263 0.28371 0.0
C1063 C 0.61946 0.88736 0.30054 0.0
H1064 H 0.64121 0.63605 0.48139 0.0
H1065 H 0.60372 0.66857 0.52862 0.0
H1066 H 0.58693 0.65787 0.45304 0.0
H1067 H 0.6346 0.63765 0.3306 0.0
H1068 H 0.63853 0.61694 0.31943 0.0
H1069 H 0.64787 0.62723 0.37707 0.0
H1070 H 0.63659 0.60665 0.44731 0.0
H1071 H 0.62714 0.59634 0.3899 0.0
H1072 H 0.61559 0.60308 0.44916 0.0
H1073 H 0.57421 0.64423 0.37267 0.0
H1074 H 0.56614 0.6281 0.29107 0.0
H1075 H 0.61123 0.60358 0.2958 0.0
C1076 C 0.6295 0.64095 0.47557 0.0
C1077 C 0.6238 0.65316 0.51096 0.0
C1078 C 0.60835 0.65918 0.50226 0.0
C1079 C 0.5987 0.65319 0.45938 0.0
C1080 C 0.60458 0.6411 0.42561 0.0
C1081 C 0.61958 0.63499 0.43305 0.0
C1082 C 0.62283 0.62187 0.39085 0.0
C1083 C 0.63678 0.62619 0.3522 0.0
C1084 C 0.62571 0.60605 0.42113 0.0
C1085 C 0.60734 0.62168 0.3585 0.0
C1086 C 0.59703 0.63292 0.37937 0.0
C1087 C 0.58214 0.63534 0.356 0.0
C1088 C 0.57767 0.62611 0.30962 0.0
C1089 C 0.58801 0.61454 0.28719 0.0
C1090 C 0.603 0.61222 0.31239 0.0
H1091 H 0.60737 0.4032 0.71526 0.0
H1092 H 0.65049 0.40157 0.81447 0.0
H1093 H 0.66431 0.38878 0.73471 0.0
H1094 H 0.61157 0.36578 0.6523 0.0
H1095 H 0.60367 0.37161 0.58477 0.0
H1096 H 0.59752 0.38175 0.64786 0.0
H1097 H 0.60619 0.4085 0.60444 0.0
H1098 H 0.61229 0.39844 0.541 0.0
H1099 H 0.62611 0.41077 0.57865 0.0
H1100 H 0.67299 0.37479 0.64581 0.0
H1101 H 0.67593 0.36099 0.55442 0.0
H1102 H 0.627 0.37167 0.51431 0.0
C1103 C 0.61978 0.40038 0.72004 0.0
C1104 C 0.62786 0.40344 0.77112 0.0
C1105 C 0.64406 0.39939 0.77572 0.0
C1106 C 0.65201 0.39212 0.73063 0.0
C1107 C 0.64361 0.38903 0.68123 0.0
C1108 C 0.62787 0.3931 0.6756 0.0
C1109 C 0.62136 0.38791 0.619 0.0
C1110 C 0.60773 0.37606 0.62646 0.0
C1111 C 0.61619 0.40227 0.58369 0.0
C1112 C 0.63583 0.38006 0.59398 0.0
C1113 C 0.64857 0.38091 0.63032 0.0
C1114 C 0.66312 0.37415 0.61685 0.0
C1115 C 0.66466 0.36632 0.56488 0.0
C1116 C 0.6517 0.36525 0.52714 0.0
C1117 C 0.63715 0.3723 0.54207 0.0
H1118 H 0.90747 0.37249 0.75577 0.0
H1119 H 0.87498 0.41121 0.72391 0.0
H1120 H 0.85773 0.40159 0.80091 0.0
H1121 H 0.87847 0.34315 0.78569 0.0
H1122 H 0.8899 0.33383 0.84062 0.0
H1123 H 0.89975 0.34394 0.78374 0.0
H1124 H 0.91468 0.36149 0.85591 0.0
H1125 H 0.90493 0.35139 0.91305 0.0
H1126 H 0.90361 0.3726 0.90748 0.0
H1127 H 0.84365 0.38713 0.8798 0.0
H1128 H 0.83455 0.36978 0.95723 0.0
H1129 H 0.87666 0.34095 0.9375 0.0
C1130 C 0.89676 0.37901 0.765 0.0
C1131 C 0.89255 0.39259 0.73375 0.0
C1132 C 0.87845 0.40079 0.74738 0.0
C1133 C 0.86856 0.3954 0.79093 0.0
C1134 C 0.87301 0.38186 0.82053 0.0
C1135 C 0.88683 0.37386 0.80837 0.0
C1136 C 0.88898 0.35967 0.84647 0.0
C1137 C 0.88929 0.34424 0.81206 0.0
C1138 C 0.90394 0.3614 0.88289 0.0
C1139 C 0.87416 0.36087 0.88188 0.0
C1140 C 0.86506 0.37371 0.86621 0.0
C1141 C 0.85072 0.37708 0.89256 0.0
C1142 C 0.84563 0.36713 0.93637 0.0
C1143 C 0.8549 0.35402 0.95349 0.0
C1144 C 0.86932 0.3509 0.92559 0.0
H1145 H 0.89209 0.5994 0.19053 0.0
H1146 H 0.86473 0.62624 0.31254 0.0
H1147 H 0.84821 0.63683 0.23566 0.0
H1148 H 0.89306 0.62912 0.086 0.0
H1149 H 0.89141 0.61575 0.02699 0.0
H1150 H 0.90023 0.60911 0.09195 0.0
H1151 H 0.88014 0.58603 0.09689 0.0
H1152 H 0.87125 0.59262 0.03187 0.0
H1153 H 0.85927 0.59024 0.09423 0.0
H1154 H 0.83546 0.64552 0.14591 0.0
H1155 H 0.82805 0.65266 0.04852 0.0
H1156 H 0.86396 0.62071 0.98401 0.0
C1157 C 0.88248 0.60732 0.2011 0.0
C1158 C 0.87965 0.61193 0.25759 0.0
C1159 C 0.86712 0.62253 0.26961 0.0
C1160 C 0.85762 0.62857 0.22625 0.0
C1161 C 0.8608 0.62392 0.17102 0.0
C1162 C 0.87293 0.61358 0.15821 0.0
C1163 C 0.87442 0.61128 0.09495 0.0
C1164 C 0.89075 0.61664 0.07375 0.0
C1165 C 0.87107 0.59401 0.07853 0.0
C1166 C 0.86143 0.62218 0.07429 0.0
C1167 C 0.85359 0.62919 0.11893 0.0
C1168 C 0.84144 0.64004 0.11056 0.0
C1169 C 0.8373 0.64401 0.05504 0.0
C1170 C 0.84541 0.63725 0.00855 0.0
C1171 C 0.85749 0.62604 0.01857 0.0
H1172 H 0.35513 0.36395 0.53616 0.0
H1173 H 0.3345 0.32253 0.61552 0.0
H1174 H 0.34618 0.33049 0.70677 0.0
H1175 H 0.39149 0.36358 0.61126 0.0
H1176 H 0.39281 0.38478 0.61746 0.0
H1177 H 0.38245 0.37609 0.55875 0.0
H1178 H 0.35736 0.3921 0.58463 0.0
H1179 H 0.36765 0.40087 0.64341 0.0
H1180 H 0.34927 0.39059 0.65485 0.0
H1181 H 0.36122 0.34216 0.78789 0.0
H1182 H 0.37765 0.35734 0.8547 0.0
H1183 H 0.38776 0.39171 0.72344 0.0
C1184 C 0.353 0.35658 0.57277 0.0
C1185 C 0.34392 0.34259 0.56869 0.0
C1186 C 0.34138 0.33331 0.61763 0.0
C1187 C 0.34798 0.33773 0.66963 0.0
C1188 C 0.35695 0.35152 0.67206 0.0
C1189 C 0.35937 0.36088 0.62506 0.0
C1190 C 0.36958 0.37508 0.639 0.0
C1191 C 0.38499 0.37486 0.60458 0.0
C1192 C 0.36041 0.39057 0.62994 0.0
C1193 C 0.37269 0.37213 0.70108 0.0
C1194 C 0.36533 0.35846 0.71923 0.0
C1195 C 0.36693 0.35296 0.77432 0.0
C1196 C 0.37633 0.36164 0.81188 0.0
C1197 C 0.38393 0.37574 0.79434 0.0
C1198 C 0.38197 0.38107 0.73824 0.0
H1199 H 0.35066 0.61925 0.43279 0.0
H1200 H 0.34356 0.66849 0.38726 0.0
H1201 H 0.35686 0.66376 0.29621 0.0
H1202 H 0.38898 0.61511 0.37287 0.0
H1203 H 0.38585 0.59525 0.34762 0.0
H1204 H 0.37527 0.60225 0.4087 0.0
H1205 H 0.34865 0.59525 0.36077 0.0
H1206 H 0.35915 0.58812 0.2997 0.0
H1207 H 0.34423 0.60317 0.29188 0.0
H1208 H 0.37201 0.65416 0.21252 0.0
H1209 H 0.38655 0.63987 0.13826 0.0
H1210 H 0.38342 0.59662 0.23651 0.0
C1211 C 0.35177 0.62901 0.40349 0.0
C1212 C 0.34606 0.64425 0.41727 0.0
C1213 C 0.34779 0.6567 0.37771 0.0
C1214 C 0.35537 0.65415 0.32589 0.0
C1215 C 0.36107 0.63907 0.31404 0.0
C1216 C 0.35924 0.62666 0.35138 0.0
C1217 C 0.36653 0.61161 0.32824 0.0
C1218 C 0.37996 0.60572 0.36665 0.0
C1219 C 0.35388 0.59878 0.31963 0.0
C1220 C 0.37287 0.61755 0.27228 0.0
C1221 C 0.36962 0.63344 0.26513 0.0
C1222 C 0.37454 0.64169 0.21743 0.0
C1223 C 0.38285 0.63346 0.17557 0.0
C1224 C 0.38611 0.61711 0.18144 0.0
C1225 C 0.38107 0.6091 0.23065 0.0
H1226 H 0.13842 0.66447 0.06928 0.0
H1227 H 0.17202 0.62926 0.01118 0.0
H1228 H 0.16367 0.61142 0.08843 0.0
H1229 H 0.14276 0.6565 0.22108 0.0
H1230 H 0.12205 0.65981 0.2344 0.0
H1231 H 0.13179 0.67017 0.17776 0.0
H1232 H 0.11095 0.65944 0.10727 0.0
H1233 H 0.10124 0.64893 0.16348 0.0
H1234 H 0.10788 0.6384 0.1017 0.0
H1235 H 0.14965 0.5965 0.1672 0.0
H1236 H 0.13236 0.58651 0.24368 0.0
H1237 H 0.10844 0.63188 0.24946 0.0
C1238 C 0.14425 0.65312 0.07326 0.0
C1239 C 0.15589 0.64827 0.03418 0.0
C1240 C 0.16314 0.63328 0.04082 0.0
C1241 C 0.15844 0.62305 0.08448 0.0
C1242 C 0.1466 0.62806 0.12138 0.0
C1243 C 0.13976 0.64284 0.11653 0.0
C1244 C 0.12687 0.64524 0.15993 0.0
C1245 C 0.13113 0.65873 0.20072 0.0
C1246 C 0.11079 0.64817 0.13137 0.0
C1247 C 0.12727 0.62938 0.18932 0.0
C1248 C 0.13873 0.61961 0.16671 0.0
C1249 C 0.14077 0.60413 0.18564 0.0
C1250 C 0.13086 0.59854 0.22892 0.0
C1251 C 0.1191 0.60843 0.25274 0.0
C1252 C 0.1174 0.62405 0.23258 0.0
H1253 H 0.08786 0.38047 0.82264 0.0
H1254 H 0.11656 0.42243 0.79791 0.0
H1255 H 0.13338 0.41454 0.87862 0.0
H1256 H 0.08987 0.38006 0.97698 0.0
H1257 H 0.09067 0.35878 0.97993 0.0
H1258 H 0.08039 0.36843 0.92291 0.0
H1259 H 0.09758 0.35311 0.85062 0.0
H1260 H 0.10801 0.34354 0.90733 0.0
H1261 H 0.11881 0.3545 0.8547 0.0
H1262 H 0.14828 0.40076 0.95739 0.0
H1263 H 0.15896 0.38322 0.03173 0.0
H1264 H 0.12001 0.35069 0.00464 0.0
C1265 C 0.09754 0.38814 0.83458 0.0
C1266 C 0.10091 0.40207 0.80398 0.0
C1267 C 0.11371 0.41175 0.82095 0.0
C1268 C 0.12335 0.40734 0.86661 0.0
C1269 C 0.11991 0.39331 0.89501 0.0
C1270 C 0.10718 0.38397 0.88001 0.0
C1271 C 0.1062 0.36927 0.91618 0.0
C1272 C 0.09087 0.36914 0.95108 0.0
C1273 C 0.10775 0.35422 0.88004 0.0
C1274 C 0.12053 0.37163 0.95333 0.0
C1275 C 0.1283 0.38555 0.94058 0.0
C1276 C 0.14219 0.38992 0.96811 0.0
C1277 C 0.1482 0.37985 0.01007 0.0
C1278 C 0.14028 0.36562 0.02411 0.0
C1279 C 0.12628 0.36154 0.99522 0.0
H1280 H 0.13728 0.28585 0.18152 0.0
H1281 H 0.17781 0.29759 0.07709 0.0
H1282 H 0.18082 0.26945 0.05186 0.0
H1283 H 0.15275 0.25007 0.23659 0.0
H1284 H 0.1341 0.23979 0.23635 0.0
H1285 H 0.13454 0.26096 0.24365 0.0
H1286 H 0.11601 0.26378 0.15711 0.0
H1287 H 0.1155 0.24259 0.14955 0.0
H1288 H 0.12152 0.25478 0.09096 0.0
H1289 H 0.1801 0.23996 0.04089 0.0
H1290 H 0.17587 0.21114 0.04571 0.0
H1291 H 0.13588 0.21856 0.15766 0.0
C1292 C 0.1467 0.28254 0.15291 0.0
C1293 C 0.15728 0.29396 0.13116 0.0
C1294 C 0.16953 0.28908 0.09424 0.0
C1295 C 0.17133 0.27312 0.07957 0.0
C1296 C 0.16078 0.26217 0.10209 0.0
C1297 C 0.14869 0.26666 0.13792 0.0
C1298 C 0.1393 0.25247 0.15785 0.0
C1299 C 0.14024 0.25072 0.22243 0.0
C1300 C 0.12206 0.25347 0.13764 0.0
C1301 C 0.14812 0.23928 0.12816 0.0
C1302 C 0.1604 0.24515 0.09595 0.0
C1303 C 0.17046 0.23523 0.06572 0.0
C1304 C 0.16796 0.21887 0.06879 0.0
C1305 C 0.15553 0.21256 0.10201 0.0
C1306 C 0.14544 0.22298 0.13166 0.0
H1307 H 0.96968 0.92005 0.37292 0.0
H1308 H 0.95989 0.87239 0.31438 0.0
H1309 H 0.98858 0.86716 0.3082 0.0
H1310 H 0.00381 0.92698 0.28496 0.0
H1311 H 0.01416 0.93799 0.3386 0.0
H1312 H 0.99288 0.93799 0.33717 0.0
H1313 H 0.99231 0.9281 0.44075 0.0
H1314 H 0.01359 0.92801 0.44244 0.0
H1315 H 0.00277 0.91027 0.45926 0.0
H1316 H 0.01845 0.86708 0.30999 0.0
H1317 H 0.04709 0.87225 0.31842 0.0
H1318 H 0.03704 0.91993 0.37626 0.0
C1319 C 0.97353 0.90853 0.35847 0.0
C1320 C 0.96253 0.89663 0.34405 0.0
C1321 C 0.9681 0.8817 0.32558 0.0
C1322 C 0.98437 0.87861 0.32197 0.0
C1323 C 0.99489 0.89058 0.33695 0.0
C1324 C 0.98968 0.90525 0.3547 0.0
C1325 C 0.00338 0.91604 0.36895 0.0
C1326 C 0.00356 0.93061 0.33009 0.0
C1327 C 0.00299 0.92088 0.43157 0.0
C1328 C 0.01712 0.90514 0.35662 0.0
C1329 C 0.012 0.89052 0.33816 0.0
C1330 C 0.02259 0.8785 0.32433 0.0
C1331 C 0.03884 0.88155 0.32931 0.0
C1332 C 0.04432 0.89648 0.34802 0.0
C1333 C 0.03325 0.90838 0.36189 0.0
H1334 H 0.36145 0.78802 0.68583 0.0
H1335 H 0.32074 0.80228 0.58627 0.0
H1336 H 0.31691 0.77472 0.5559 0.0
H1337 H 0.37592 0.75774 0.58828 0.0
H1338 H 0.3818 0.74448 0.64402 0.0
H1339 H 0.38201 0.76553 0.65572 0.0
H1340 H 0.36379 0.76197 0.74273 0.0
H1341 H 0.3635 0.74093 0.73126 0.0
H1342 H 0.3452 0.7518 0.73471 0.0
H1343 H 0.31661 0.74581 0.53945 0.0
H1344 H 0.31974 0.71691 0.53792 0.0
H1345 H 0.3606 0.72086 0.64824 0.0
C1346 C 0.35184 0.78536 0.65714 0.0
C1347 C 0.34142 0.79733 0.63832 0.0
C1348 C 0.32889 0.79334 0.60129 0.0
C1349 C 0.32662 0.77771 0.58366 0.0
C1350 C 0.33698 0.76619 0.60337 0.0
C1351 C 0.34936 0.76977 0.63921 0.0
C1352 C 0.35837 0.75497 0.65573 0.0
C1353 C 0.37554 0.75573 0.63466 0.0
C1354 C 0.35767 0.75226 0.71992 0.0
C1355 C 0.34899 0.74253 0.62406 0.0
C1356 C 0.33677 0.74933 0.59395 0.0
C1357 C 0.32619 0.74033 0.56256 0.0
C1358 C 0.32807 0.7239 0.5621 0.0
C1359 C 0.34043 0.71658 0.59292 0.0
C1360 C 0.35109 0.72609 0.62396 0.0
H1361 H 0.46786 0.09303 0.94875 0.0
H1362 H 0.45364 0.07718 0.78187 0.0
H1363 H 0.48168 0.07472 0.75451 0.0
H1364 H 0.50197 0.1159 0.90314 0.0
H1365 H 0.51361 0.11048 0.96385 0.0
H1366 H 0.49241 0.11159 0.96941 0.0
H1367 H 0.49164 0.0827 0.00578 0.0
H1368 H 0.51282 0.08147 0.00012 0.0
H1369 H 0.50057 0.06724 0.96413 0.0
H1370 H 0.51124 0.07288 0.74673 0.0
H1371 H 0.54023 0.07242 0.75834 0.0
H1372 H 0.53504 0.08967 0.9301 0.0
C1373 C 0.47062 0.08916 0.90629 0.0
C1374 C 0.45855 0.0853 0.86745 0.0
C1375 C 0.46268 0.08023 0.81234 0.0
C1376 C 0.47858 0.07879 0.79639 0.0
C1377 C 0.49017 0.08253 0.83593 0.0
C1378 C 0.4864 0.08769 0.88963 0.0
C1379 C 0.5011 0.09068 0.92446 0.0
C1380 C 0.50234 0.1082 0.94118 0.0
C1381 C 0.50155 0.07987 0.97669 0.0
C1382 C 0.51373 0.08618 0.88219 0.0
C1383 C 0.50719 0.08156 0.83134 0.0
C1384 C 0.51651 0.07656 0.78624 0.0
C1385 C 0.53296 0.07631 0.79331 0.0
C1386 C 0.53991 0.08102 0.84511 0.0
C1387 C 0.53011 0.08605 0.88992 0.0
H1388 H 0.16471 0.78584 0.90072 0.0
H1389 H 0.11428 0.79233 0.87562 0.0
H1390 H 0.11072 0.7634 0.87243 0.0
H1391 H 0.16908 0.75354 0.80693 0.0
H1392 H 0.1834 0.74324 0.84958 0.0
H1393 H 0.18193 0.76444 0.85356 0.0
H1394 H 0.1776 0.76269 0.9617 0.0
H1395 H 0.17913 0.74147 0.9581 0.0
H1396 H 0.16189 0.75051 0.98905 0.0
H1397 H 0.11276 0.7339 0.86717 0.0
H1398 H 0.12019 0.70575 0.86162 0.0
H1399 H 0.16931 0.71833 0.89014 0.0
C1400 C 0.15289 0.78119 0.89528 0.0
C1401 C 0.13976 0.79138 0.88858 0.0
C1402 C 0.12451 0.78478 0.88093 0.0
C1403 C 0.12237 0.76836 0.8791 0.0
C1404 C 0.13557 0.75867 0.88507 0.0
C1405 C 0.15053 0.76481 0.89323 0.0
C1406 C 0.16279 0.75178 0.89659 0.0
C1407 C 0.17502 0.75335 0.84881 0.0
C1408 C 0.17082 0.75161 0.95483 0.0
C1409 C 0.15241 0.73737 0.88836 0.0
C1410 C 0.13674 0.74161 0.88201 0.0
C1411 C 0.12497 0.73042 0.87246 0.0
C1412 C 0.12933 0.71445 0.86926 0.0
C1413 C 0.14532 0.7098 0.87557 0.0
C1414 C 0.15697 0.72147 0.88547 0.0
H1415 H 0.4716 0.92458 0.16347 0.0
H1416 H 0.46246 0.87432 0.14498 0.0
H1417 H 0.49109 0.86925 0.14007 0.0
H1418 H 0.50398 0.9262 0.06671 0.0
H1419 H 0.51514 0.94038 0.10716 0.0
H1420 H 0.4939 0.94014 0.11169 0.0
H1421 H 0.49563 0.93693 0.22031 0.0
H1422 H 0.51689 0.93722 0.21615 0.0
H1423 H 0.50697 0.92086 0.24963 0.0
H1424 H 0.52048 0.86952 0.13518 0.0
H1425 H 0.549 0.87511 0.13032 0.0
H1426 H 0.53943 0.92526 0.15065 0.0
C1427 C 0.47563 0.9125 0.15888 0.0
C1428 C 0.46476 0.89984 0.15475 0.0
C1429 C 0.47052 0.88421 0.14821 0.0
C1430 C 0.48678 0.8812 0.14544 0.0
C1431 C 0.49715 0.89393 0.14913 0.0
C1432 C 0.49185 0.90927 0.15571 0.0
C1433 C 0.50556 0.92082 0.15714 0.0
C1434 C 0.50458 0.93257 0.10773 0.0
C1435 C 0.50631 0.92946 0.21421 0.0
C1436 C 0.51937 0.90955 0.15009 0.0
C1437 C 0.51421 0.8941 0.14576 0.0
C1438 C 0.52468 0.88157 0.13864 0.0
C1439 C 0.54088 0.88488 0.1359 0.0
C1440 C 0.54649 0.90063 0.1401 0.0
C1441 C 0.53553 0.9131 0.14731 0.0
H1442 H 0.35013 0.20993 0.44963 0.0
H1443 H 0.31504 0.20469 0.31704 0.0
H1444 H 0.31447 0.23362 0.3046 0.0
H1445 H 0.33384 0.2449 0.51111 0.0
H1446 H 0.35275 0.2537 0.5267 0.0
H1447 H 0.3508 0.23251 0.52419 0.0
H1448 H 0.37316 0.23107 0.4496 0.0
H1449 H 0.37517 0.25227 0.45186 0.0
H1450 H 0.3715 0.24247 0.38555 0.0
H1451 H 0.31713 0.26298 0.30788 0.0
H1452 H 0.32277 0.29104 0.32682 0.0
H1453 H 0.35624 0.27743 0.45716 0.0
C1454 C 0.34237 0.21485 0.41781 0.0
C1455 C 0.33263 0.20502 0.38429 0.0
C1456 C 0.32261 0.21195 0.34324 0.0
C1457 C 0.32221 0.22838 0.33578 0.0
C1458 C 0.33192 0.23772 0.36959 0.0
C1459 C 0.34182 0.23124 0.40977 0.0
C1460 C 0.35084 0.24399 0.44121 0.0
C1461 C 0.34681 0.24376 0.50455 0.0
C1462 C 0.36873 0.24235 0.43145 0.0
C1463 C 0.34435 0.25865 0.41271 0.0
C1464 C 0.33349 0.25473 0.37143 0.0
C1465 C 0.32566 0.2662 0.33995 0.0
C1466 C 0.32894 0.28212 0.35112 0.0
C1467 C 0.33997 0.28647 0.39347 0.0
C1468 C 0.34782 0.27451 0.42435 0.0
H1469 H 0.97107 0.08113 0.64901 0.0
H1470 H 0.96107 0.13144 0.64114 0.0
H1471 H 0.98968 0.13704 0.63794 0.0
H1472 H 0.00658 0.08392 0.7359 0.0
H1473 H 0.01657 0.06825 0.69861 0.0
H1474 H 0.99532 0.06823 0.70369 0.0
H1475 H 0.99325 0.06678 0.59463 0.0
H1476 H 0.01447 0.06684 0.58921 0.0
H1477 H 0.00303 0.08154 0.55229 0.0
H1478 H 0.01927 0.13717 0.63184 0.0
H1479 H 0.0478 0.13182 0.6222 0.0
H1480 H 0.03857 0.08139 0.63281 0.0
C1481 C 0.97489 0.09334 0.64731 0.0
C1482 C 0.96381 0.10586 0.64555 0.0
C1483 C 0.96932 0.12165 0.6426 0.0
C1484 C 0.98555 0.12496 0.64087 0.0
C1485 C 0.99613 0.11235 0.64206 0.0
C1486 C 0.99104 0.09685 0.64524 0.0
C1487 C 0.00486 0.08545 0.64365 0.0
C1488 C 0.00589 0.0759 0.69875 0.0
C1489 C 0.00383 0.07451 0.59186 0.0
C1490 C 0.0185 0.09696 0.63847 0.0
C1491 C 0.01321 0.11242 0.638 0.0
C1492 C 0.02356 0.12512 0.63245 0.0
C1493 C 0.03976 0.12195 0.62696 0.0
C1494 C 0.04545 0.10619 0.62682 0.0
C1495 C 0.03462 0.09357 0.63299 0.0
H1496 H 0.82626 0.71674 0.87913 0.0
H1497 H 0.87367 0.7029 0.92915 0.0
H1498 H 0.88074 0.73096 0.94219 0.0
H1499 H 0.83737 0.75086 0.80064 0.0
H1500 H 0.82057 0.76246 0.82245 0.0
H1501 H 0.81906 0.74125 0.81901 0.0
H1502 H 0.81019 0.74051 0.92373 0.0
H1503 H 0.8117 0.76173 0.92751 0.0
H1504 H 0.82243 0.7496 0.97694 0.0
H1505 H 0.88298 0.76052 0.94661 0.0
H1506 H 0.8802 0.78954 0.94168 0.0
H1507 H 0.83128 0.78407 0.88983 0.0
C1508 C 0.83811 0.71959 0.8931 0.0
C1509 C 0.84941 0.7076 0.90315 0.0
C1510 C 0.8648 0.71186 0.92123 0.0
C1511 C 0.86893 0.72777 0.92885 0.0
C1512 C 0.85753 0.73928 0.91843 0.0
C1513 C 0.84243 0.7354 0.90104 0.0
C1514 C 0.83251 0.75007 0.89161 0.0
C1515 C 0.82706 0.75122 0.82975 0.0
C1516 C 0.81837 0.7505 0.93239 0.0
C1517 C 0.84445 0.76279 0.90578 0.0
C1518 C 0.8588 0.75632 0.92134 0.0
C1519 C 0.87177 0.76573 0.93483 0.0
C1520 C 0.87008 0.7822 0.93188 0.0
C1521 C 0.85552 0.78909 0.91558 0.0
C1522 C 0.84253 0.77919 0.9029 0.0
H1523 H 0.68149 0.21994 0.39208 0.0
H1524 H 0.63269 0.20593 0.36619 0.0
H1525 H 0.62428 0.23375 0.37697 0.0
H1526 H 0.67417 0.25099 0.49521 0.0
H1527 H 0.68924 0.26379 0.46687 0.0
H1528 H 0.69127 0.24265 0.46089 0.0
H1529 H 0.69427 0.24527 0.35236 0.0
H1530 H 0.69227 0.26639 0.35803 0.0
H1531 H 0.67921 0.2554 0.3125 0.0
H1532 H 0.6213 0.26321 0.38843 0.0
H1533 H 0.62411 0.29223 0.39427 0.0
H1534 H 0.67498 0.28696 0.40948 0.0
C1535 C 0.66902 0.22269 0.38937 0.0
C1536 C 0.65772 0.21077 0.3787 0.0
C1537 C 0.64153 0.21489 0.3744 0.0
C1538 C 0.63665 0.23064 0.38068 0.0
C1539 C 0.6481 0.24213 0.39086 0.0
C1540 C 0.66396 0.23836 0.39485 0.0
C1541 C 0.67398 0.25302 0.40287 0.0
C1542 C 0.68267 0.25258 0.45986 0.0
C1543 C 0.68561 0.25514 0.35349 0.0
C1544 C 0.66129 0.26564 0.40236 0.0
C1545 C 0.64643 0.25911 0.39601 0.0
C1546 C 0.63288 0.26845 0.39357 0.0
C1547 C 0.63459 0.28493 0.39702 0.0
C1548 C 0.64975 0.29188 0.4023 0.0
C1549 C 0.66322 0.28203 0.40551 0.0
H1550 H 0.85805 0.27868 0.17258 0.0
H1551 H 0.83016 0.284 0.01984 0.0
H1552 H 0.83054 0.25508 0.00632 0.0
H1553 H 0.88229 0.24503 0.12349 0.0
H1554 H 0.88214 0.23573 0.19195 0.0
H1555 H 0.8811 0.25696 0.18646 0.0
H1556 H 0.8553 0.25694 0.24551 0.0
H1557 H 0.85627 0.23575 0.25117 0.0
H1558 H 0.83882 0.24503 0.22269 0.0
H1559 H 0.83169 0.22564 0.01437 0.0
H1560 H 0.8335 0.1977 0.04344 0.0
H1561 H 0.861 0.21144 0.19018 0.0
C1562 C 0.85225 0.27381 0.13573 0.0
C1563 C 0.8441 0.28362 0.09718 0.0
C1564 C 0.8365 0.27673 0.04989 0.0
C1565 C 0.8367 0.26032 0.04173 0.0
C1566 C 0.84463 0.25097 0.08101 0.0
C1567 C 0.85233 0.25745 0.12694 0.0
C1568 C 0.8591 0.24472 0.1649 0.0
C1569 C 0.87724 0.24567 0.16679 0.0
C1570 C 0.85194 0.24567 0.22457 0.0
C1571 C 0.85362 0.23005 0.13395 0.0
C1572 C 0.84542 0.23392 0.0854 0.0
C1573 C 0.83829 0.22245 0.05181 0.0
C1574 C 0.83936 0.20661 0.06875 0.0
C1575 C 0.84749 0.20239 0.11882 0.0
C1576 C 0.85496 0.21427 0.15115 0.0
H1577 H 0.66613 0.72024 0.62037 0.0
H1578 H 0.61779 0.71426 0.67803 0.0
H1579 H 0.6138 0.74311 0.67384 0.0
H1580 H 0.6739 0.75494 0.70103 0.0
H1581 H 0.68601 0.76418 0.64781 0.0
H1582 H 0.68481 0.74295 0.65156 0.0
H1583 H 0.67589 0.74194 0.54694 0.0
H1584 H 0.67705 0.76318 0.54288 0.0
H1585 H 0.6589 0.75323 0.52486 0.0
H1586 H 0.61509 0.77246 0.66522 0.0
H1587 H 0.62203 0.80069 0.6578 0.0
H1588 H 0.66983 0.78788 0.60903 0.0
C1589 C 0.65466 0.72501 0.63151 0.0
C1590 C 0.64223 0.71502 0.64923 0.0
C1591 C 0.62748 0.7217 0.66438 0.0
C1592 C 0.62507 0.73807 0.66191 0.0
C1593 C 0.63757 0.7476 0.64461 0.0
C1594 C 0.65211 0.74137 0.62999 0.0
C1595 C 0.6638 0.75434 0.61573 0.0
C1596 C 0.67796 0.75408 0.65647 0.0
C1597 C 0.66923 0.75309 0.55392 0.0
C1598 C 0.65357 0.76882 0.625 0.0
C1599 C 0.63845 0.76463 0.64105 0.0
C1600 C 0.62689 0.77591 0.65258 0.0
C1601 C 0.63095 0.79191 0.64817 0.0
C1602 C 0.64647 0.79651 0.63286 0.0
C1603 C 0.65787 0.78475 0.62076 0.0
H1604 H 0.53653 0.38599 0.90651 0.0
H1605 H 0.5443 0.4296 0.81386 0.0
H1606 H 0.51566 0.43164 0.79571 0.0
H1607 H 0.50409 0.37094 0.81849 0.0
H1608 H 0.49358 0.36293 0.87817 0.0
H1609 H 0.51484 0.36416 0.87961 0.0
H1610 H 0.51345 0.38027 0.97261 0.0
H1611 H 0.49223 0.3791 0.97145 0.0
H1612 H 0.50181 0.39811 0.97494 0.0
H1613 H 0.48608 0.42991 0.79315 0.0
H1614 H 0.45766 0.42479 0.80776 0.0
H1615 H 0.46921 0.38236 0.90238 0.0
C1616 C 0.53226 0.39585 0.88167 0.0
C1617 C 0.54268 0.4076 0.86144 0.0
C1618 C 0.53656 0.42043 0.82973 0.0
C1619 C 0.52031 0.42167 0.81903 0.0
C1620 C 0.51034 0.40997 0.84019 0.0
C1621 C 0.51608 0.3973 0.87076 0.0
C1622 C 0.50277 0.38683 0.89155 0.0
C1623 C 0.50389 0.37023 0.86538 0.0
C1624 C 0.50256 0.38605 0.95648 0.0
C1625 C 0.48865 0.39579 0.86892 0.0
C1626 C 0.49327 0.40902 0.83894 0.0
C1627 C 0.48231 0.41951 0.81606 0.0
C1628 C 0.4662 0.4165 0.82466 0.0
C1629 C 0.46119 0.40315 0.85609 0.0
C1630 C 0.47262 0.39259 0.87774 0.0
H1631 H 0.96993 0.60285 0.4525 0.0
H1632 H 0.96082 0.58951 0.27848 0.0
H1633 H 0.98945 0.59077 0.25837 0.0
H1634 H 0.00269 0.63006 0.42339 0.0
H1635 H 0.0134 0.62418 0.48573 0.0
H1636 H 0.99212 0.62342 0.48508 0.0
H1637 H 0.99305 0.59379 0.51294 0.0
H1638 H 0.01429 0.59447 0.51372 0.0
H1639 H 0.00425 0.58018 0.47013 0.0
H1640 H 0.0193 0.59142 0.25946 0.0
H1641 H 0.04784 0.59149 0.28166 0.0
H1642 H 0.03715 0.60489 0.45446 0.0
C1643 C 0.9739 0.60039 0.40994 0.0
C1644 C 0.96311 0.5961 0.36704 0.0
C1645 C 0.96885 0.59287 0.31201 0.0
C1646 C 0.98509 0.59358 0.30015 0.0
C1647 C 0.99542 0.59766 0.34364 0.0
C1648 C 0.99003 0.60109 0.39735 0.0
C1649 C 0.00358 0.60443 0.43732 0.0
C1650 C 0.0029 0.62154 0.45915 0.0
C1651 C 0.0038 0.5925 0.4864 0.0
C1652 C 0.01747 0.60201 0.39804 0.0
C1653 C 0.01254 0.59821 0.34409 0.0
C1654 C 0.02329 0.59458 0.30138 0.0
C1655 C 0.03948 0.59464 0.3144 0.0
C1656 C 0.04475 0.59829 0.36968 0.0
C1657 C 0.03355 0.60227 0.41159 0.0
H1658 H 0.96484 0.41828 0.62932 0.0
H1659 H 0.95697 0.37064 0.56687 0.0
H1660 H 0.98536 0.36482 0.57791 0.0
H1661 H 0.00119 0.42447 0.55946 0.0
H1662 H 0.01002 0.43559 0.61622 0.0
H1663 H 0.98891 0.43566 0.60718 0.0
H1664 H 0.98535 0.42594 0.71021 0.0
H1665 H 0.00649 0.42583 0.71956 0.0
H1666 H 0.99521 0.40815 0.73293 0.0
H1667 H 0.01477 0.36459 0.59099 0.0
H1668 H 0.04319 0.37016 0.60375 0.0
H1669 H 0.03181 0.4179 0.65766 0.0
C1670 C 0.96904 0.40657 0.61855 0.0
C1671 C 0.95867 0.39491 0.59736 0.0
C1672 C 0.96468 0.37977 0.58321 0.0
C1673 C 0.98079 0.37633 0.58948 0.0
C1674 C 0.99071 0.38812 0.61006 0.0
C1675 C 0.98509 0.40293 0.62442 0.0
C1676 C 0.99836 0.41372 0.64317 0.0
C1677 C -0.0003 0.42821 0.60417 0.0
C1678 C 0.99622 0.4187 0.70516 0.0
C1679 C 0.01235 0.40274 0.63624 0.0
C1680 C 0.00768 0.38799 0.61751 0.0
C1681 C 0.01857 0.37605 0.60609 0.0
C1682 C 0.03469 0.37933 0.61343 0.0
C1683 C 0.03974 0.39444 0.63183 0.0
C1684 C 0.02835 0.40619 0.64397 0.0
H1685 H 0.46226 0.5879 0.17557 0.0
H1686 H 0.45175 0.58452 0.99638 0.0
H1687 H 0.48021 0.58327 0.97537 0.0
H1688 H 0.49718 0.61244 0.16099 0.0
H1689 H 0.50771 0.60277 0.21742 0.0
H1690 H 0.48644 0.60365 0.21874 0.0
H1691 H 0.4852 0.57313 0.22737 0.0
H1692 H 0.50646 0.57216 0.2259 0.0
H1693 H 0.49502 0.56106 0.17535 0.0
H1694 H 0.50958 0.58173 0.97329 0.0
H1695 H 0.53828 0.58071 0.99018 0.0
H1696 H 0.53011 0.58532 0.17055 0.0
C1697 C 0.46594 0.58698 0.13191 0.0
C1698 C 0.45473 0.58631 0.08766 0.0
C1699 C 0.46007 0.58507 0.03107 0.0
C1700 C 0.47623 0.58433 0.01864 0.0
C1701 C 0.48694 0.5849 0.06316 0.0
C1702 C 0.48207 0.58626 0.11864 0.0
C1703 C 0.49611 0.58654 0.15846 0.0
C1704 C 0.4969 0.60229 0.1908 0.0
C1705 C 0.49566 0.57238 0.19916 0.0
C1706 C 0.50959 0.58506 0.11662 0.0
C1707 C 0.504 0.58411 0.06192 0.0
C1708 C 0.51412 0.58251 0.01592 0.0
C1709 C 0.53042 0.58192 0.026 0.0
C1710 C 0.53647 0.58296 0.08166 0.0
C1711 C 0.52586 0.58454 0.1275 0.0
H1712 H 0.14988 0.14763 0.30899 0.0
H1713 H 0.11806 0.14536 0.16545 0.0
H1714 H 0.09851 0.13105 0.22375 0.0
H1715 H 0.14218 0.10913 0.35919 0.0
H1716 H 0.14344 0.11437 0.43283 0.0
H1717 H 0.15436 0.1255 0.38114 0.0
H1718 H 0.14106 0.15137 0.41564 0.0
H1719 H 0.13017 0.14032 0.4677 0.0
H1720 H 0.1198 0.15263 0.41782 0.0
H1721 H 0.08277 0.11617 0.2975 0.0
H1722 H 0.07238 0.10166 0.38036 0.0
H1723 H 0.1151 0.11311 0.47334 0.0
C1724 C 0.13871 0.14435 0.29001 0.0
C1725 C 0.13544 0.14769 0.23281 0.0
C1726 C 0.12079 0.14295 0.20929 0.0
C1727 C 0.10961 0.13483 0.24205 0.0
C1728 C 0.1133 0.13151 0.29813 0.0
C1729 C 0.1275 0.13613 0.32188 0.0
C1730 C 0.12893 0.13049 0.38224 0.0
C1731 C 0.14306 0.1192 0.38922 0.0
C1732 C 0.13005 0.14454 0.42326 0.0
C1733 C 0.11339 0.12185 0.38858 0.0
C1734 C 0.10445 0.12267 0.33988 0.0
C1735 C 0.08966 0.11548 0.33593 0.0
C1736 C 0.08386 0.10726 0.38312 0.0
C1737 C 0.09293 0.1062 0.43322 0.0
C1738 C 0.10787 0.11363 0.43564 0.0
H1739 H 0.0965 0.89642 0.58796 0.0
H1740 H 0.11805 0.87821 0.43475 0.0
H1741 H 0.1336 0.8593 0.49135 0.0
H1742 H 0.13103 0.89495 0.67195 0.0
H1743 H 0.1209 0.88916 0.73563 0.0
H1744 H 0.11069 0.90053 0.68276 0.0
H1745 H 0.08884 0.87908 0.67742 0.0
H1746 H 0.09901 0.86765 0.73034 0.0
H1747 H 0.09426 0.85886 0.66311 0.0
H1748 H 0.14763 0.84308 0.56504 0.0
H1749 H 0.15944 0.83124 0.65069 0.0
H1750 H 0.12881 0.86032 0.75501 0.0
C1751 C 0.10436 0.88835 0.56623 0.0
C1752 C 0.10603 0.88877 0.50695 0.0
C1753 C 0.11657 0.87811 0.48018 0.0
C1754 C 0.12543 0.86729 0.51191 0.0
C1755 C 0.1236 0.86727 0.57033 0.0
C1756 C 0.11333 0.87752 0.59724 0.0
C1757 C 0.11407 0.87558 0.66068 0.0
C1758 C 0.1195 0.89097 0.68942 0.0
C1759 C 0.09809 0.86995 0.68426 0.0
C1760 C 0.12649 0.86278 0.66522 0.0
C1761 C 0.13177 0.85805 0.6127 0.0
C1762 C 0.14353 0.84663 0.60644 0.0
C1763 C 0.15016 0.83997 0.65528 0.0
C1764 C 0.14506 0.84485 0.70951 0.0
C1765 C 0.13297 0.8563 0.7142 0.0
H1766 H 0.38186 0.91239 0.97375 0.0
H1767 H 0.39968 0.87603 0.08625 0.0
H1768 H 0.38852 0.85543 0.02379 0.0
H1769 H 0.34563 0.89347 0.93656 0.0
H1770 H 0.34623 0.89979 0.86391 0.0
H1771 H 0.35555 0.91158 0.91772 0.0
H1772 H 0.38206 0.9103 0.86302 0.0
H1773 H 0.37282 0.89849 0.80902 0.0
H1774 H 0.39025 0.89132 0.84445 0.0
H1775 H 0.37418 0.83888 0.95104 0.0
H1776 H 0.3594 0.82766 0.87009 0.0
H1777 H 0.35259 0.87492 0.80315 0.0
C1778 C 0.38339 0.9001 0.98528 0.0
C1779 C 0.39153 0.89578 0.03492 0.0
C1780 C 0.39348 0.87957 0.04828 0.0
C1781 C 0.38716 0.8678 0.01318 0.0
C1782 C 0.37915 0.87245 0.96456 0.0
C1783 C 0.37741 0.88821 0.95029 0.0
C1784 C 0.36859 0.89009 0.89518 0.0
C1785 C 0.35308 0.89927 0.9039 0.0
C1786 C 0.37906 0.89802 0.85027 0.0
C1787 C 0.36548 0.87294 0.88096 0.0
C1788 C 0.37154 0.86293 0.92164 0.0
C1789 C 0.36952 0.84659 0.91861 0.0
C1790 C 0.3611 0.84033 0.87266 0.0
C1791 C 0.35501 0.85041 0.83021 0.0
C1792 C 0.35732 0.8669 0.83452 0.0
H1793 H 0.36318 0.10012 0.02003 0.0
H1794 H 0.4115 0.11732 0.01479 0.0
H1795 H 0.40675 0.13258 0.10219 0.0
H1796 H 0.34537 0.13608 0.07184 0.0
H1797 H 0.33138 0.12581 0.11596 0.0
H1798 H 0.33857 0.11664 0.05233 0.0
H1799 H 0.34781 0.09234 0.11033 0.0
H1800 H 0.34073 0.10148 0.17418 0.0
H1801 H 0.36103 0.09517 0.16917 0.0
H1802 H 0.39672 0.14563 0.1914 0.0
H1803 H 0.38207 0.15575 0.27423 0.0
H1804 H 0.34054 0.1296 0.22047 0.0
C1805 C 0.37275 0.10717 0.03695 0.0
C1806 C 0.3877 0.10755 0.01051 0.0
C1807 C 0.39993 0.11687 0.03428 0.0
C1808 C 0.39736 0.12556 0.08393 0.0
C1809 C 0.38251 0.12479 0.10921 0.0
C1810 C 0.37041 0.11586 0.08641 0.0
C1811 C 0.35561 0.11684 0.12204 0.0
C1812 C 0.34193 0.12429 0.08854 0.0
C1813 C 0.35103 0.10048 0.14531 0.0
C1814 C 0.36126 0.12769 0.16857 0.0
C1815 C 0.3768 0.13218 0.16049 0.0
C1816 C 0.38454 0.14221 0.19813 0.0
C1817 C 0.37613 0.14787 0.24508 0.0
C1818 C 0.36017 0.14345 0.25391 0.0
C1819 C 0.35274 0.13318 0.21509 0.0
H1820 H 0.88704 0.89571 0.51096 0.0
H1821 H 0.93198 0.87289 0.54568 0.0
H1822 H 0.9197 0.85827 0.62465 0.0
H1823 H 0.87581 0.90121 0.65354 0.0
H1824 H 0.85511 0.8975 0.64131 0.0
H1825 H 0.8672 0.90539 0.58551 0.0
H1826 H 0.859 0.88216 0.52039 0.0
H1827 H 0.84685 0.8742 0.57601 0.0
H1828 H 0.86194 0.86211 0.54398 0.0
H1829 H 0.90265 0.84677 0.70155 0.0
H1830 H 0.88231 0.83968 0.77188 0.0
H1831 H 0.84876 0.87048 0.68725 0.0
C1832 C 0.89428 0.88752 0.53473 0.0
C1833 C 0.91046 0.88538 0.52202 0.0
C1834 C 0.91955 0.87469 0.55462 0.0
C1835 C 0.91268 0.86632 0.59946 0.0
C1836 C 0.89673 0.8688 0.61111 0.0
C1837 C 0.88766 0.87915 0.5797 0.0
C1838 C 0.87095 0.88017 0.60218 0.0
C1839 C 0.86705 0.89707 0.62181 0.0
C1840 C 0.85898 0.8743 0.55801 0.0
C1841 C 0.87207 0.8689 0.65156 0.0
C1842 C 0.88699 0.86236 0.65577 0.0
C1843 C 0.89091 0.85177 0.69856 0.0
C1844 C 0.87927 0.84781 0.73827 0.0
C1845 C 0.86394 0.85453 0.73507 0.0
C1846 C 0.86035 0.86514 0.69088 0.0
H1847 H 0.84879 0.12534 0.28704 0.0
H1848 H 0.8554 0.17284 0.35216 0.0
H1849 H 0.87084 0.16204 0.43209 0.0
H1850 H 0.8434 0.10684 0.42262 0.0
H1851 H 0.85346 0.08891 0.40257 0.0
H1852 H 0.84334 0.10047 0.34996 0.0
H1853 H 0.86915 0.10224 0.29135 0.0
H1854 H 0.87937 0.09073 0.34387 0.0
H1855 H 0.88683 0.10989 0.32388 0.0
H1856 H 0.88637 0.14606 0.5027 0.0
H1857 H 0.8989 0.12595 0.56367 0.0
H1858 H 0.8807 0.08882 0.45513 0.0
C1859 C 0.85353 0.13348 0.31804 0.0
C1860 C 0.85102 0.14993 0.31335 0.0
C1861 C 0.85719 0.16019 0.35511 0.0
C1862 C 0.86602 0.15417 0.40046 0.0
C1863 C 0.86833 0.13788 0.40369 0.0
C1864 C 0.8621 0.12766 0.36398 0.0
C1865 C 0.86583 0.11061 0.37815 0.0
C1866 C 0.8506 0.10116 0.38898 0.0
C1867 C 0.8759 0.10292 0.33154 0.0
C1868 C 0.87524 0.11282 0.43189 0.0
C1869 C 0.87669 0.12864 0.44559 0.0
C1870 C 0.88522 0.13363 0.49262 0.0
C1871 C 0.89233 0.12213 0.52685 0.0
C1872 C 0.89069 0.10583 0.51424 0.0
C1873 C 0.88204 0.10118 0.46608 0.0
H1874 H 0.63574 0.11025 0.22589 0.0
H1875 H 0.64012 0.15778 0.15839 0.0
H1876 H 0.62797 0.14891 0.06907 0.0
H1877 H 0.64484 0.08967 0.09855 0.0
H1878 H 0.63075 0.07405 0.11061 0.0
H1879 H 0.6395 0.08421 0.16963 0.0
H1880 H 0.61162 0.09125 0.20739 0.0
H1881 H 0.60277 0.08109 0.14847 0.0
H1882 H 0.59788 0.10148 0.1621 0.0
H1883 H 0.61622 0.13467 0.98609 0.0
H1884 H 0.605 0.1162 0.91601 0.0
H1885 H 0.60779 0.07814 0.03864 0.0
C1886 C 0.63412 0.11881 0.19241 0.0
C1887 C 0.63891 0.1347 0.19907 0.0
C1888 C 0.63653 0.14555 0.15427 0.0
C1889 C 0.62964 0.14062 0.10337 0.0
C1890 C 0.62513 0.12486 0.09813 0.0
C1891 C 0.62719 0.11413 0.1415 0.0
C1892 C 0.62136 0.09785 0.12498 0.0
C1893 C 0.63492 0.08574 0.126 0.0
C1894 C 0.60759 0.09261 0.16299 0.0
C1895 C 0.61584 0.10107 0.06532 0.0
C1896 C 0.61812 0.11671 0.05063 0.0
C1897 C 0.61428 0.12241 0.99719 0.0
C1898 C 0.60795 0.11182 0.95767 0.0
C1899 C 0.60547 0.09574 0.97193 0.0
C1900 C 0.60942 0.09038 0.0266 0.0
H1901 H 0.63931 0.86759 0.75294 0.0
H1902 H 0.66035 0.83131 0.85871 0.0
H1903 H 0.64665 0.84245 0.94179 0.0
H1904 H 0.64253 0.89892 0.85108 0.0
H1905 H 0.62396 0.90792 0.83222 0.0
H1906 H 0.63474 0.89657 0.78072 0.0
H1907 H 0.61022 0.87875 0.76487 0.0
H1908 H 0.59935 0.89005 0.81636 0.0
H1909 H 0.60123 0.86894 0.82435 0.0
H1910 H 0.63173 0.85834 0.01393 0.0
H1911 H 0.61657 0.87775 0.06991 0.0
H1912 H 0.60513 0.90341 0.91644 0.0
C1913 C 0.64096 0.86189 0.79346 0.0
C1914 C 0.65091 0.84857 0.79934 0.0
C1915 C 0.65278 0.84152 0.85317 0.0
C1916 C 0.64503 0.84774 0.90059 0.0
C1917 C 0.63541 0.86095 0.89334 0.0
C1918 C 0.63331 0.86791 0.8411 0.0
C1919 C 0.62271 0.88229 0.84492 0.0
C1920 C 0.63151 0.89731 0.82614 0.0
C1921 C 0.60747 0.87985 0.81059 0.0
C1922 C 0.61936 0.88248 0.90766 0.0
C1923 C 0.62673 0.87004 0.93481 0.0
C1924 C 0.6258 0.86806 0.99309 0.0
C1925 C 0.61719 0.87916 0.0245 0.0
C1926 C 0.60964 0.89207 0.99753 0.0
C1927 C 0.61065 0.89361 0.93827 0.0
H1928 H 0.62967 0.59149 0.98753 0.0
H1929 H 0.59022 0.62294 0.02171 0.0
H1930 H 0.59806 0.63959 0.94092 0.0
H1931 H 0.65748 0.62176 0.94502 0.0
H1932 H 0.66623 0.60973 0.89048 0.0
H1933 H 0.65778 0.60054 0.95207 0.0
H1934 H 0.63971 0.58348 0.88803 0.0
H1935 H 0.64807 0.59266 0.82627 0.0
H1936 H 0.627 0.59306 0.83739 0.0
H1937 H 0.60984 0.65253 0.85561 0.0
H1938 H 0.62478 0.66092 0.77138 0.0
H1939 H 0.65642 0.62089 0.79236 0.0
C1940 C 0.62273 0.60193 0.97831 0.0
C1941 C 0.60935 0.60593 0.01104 0.0
C1942 C 0.60053 0.61964 0.99729 0.0
C1943 C 0.60489 0.62919 0.9515 0.0
C1944 C 0.61807 0.62485 0.91991 0.0
C1945 C 0.62688 0.61156 0.93269 0.0
C1946 C 0.64035 0.60937 0.89135 0.0
C1947 C 0.65641 0.61042 0.92154 0.0
C1948 C 0.63867 0.59371 0.85884 0.0
C1949 C 0.63769 0.62346 0.85313 0.0
C1950 C 0.62481 0.63226 0.87046 0.0
C1951 C 0.61997 0.64577 0.84167 0.0
C1952 C 0.62854 0.65042 0.79386 0.0
C1953 C 0.64177 0.64156 0.77524 0.0
C1954 C 0.64636 0.62791 0.80545 0.0
H1955 H 0.64238 0.37032 0.26847 0.0
H1956 H 0.63349 0.32362 0.19949 0.0
H1957 H 0.61899 0.33566 0.11975 0.0
H1958 H 0.60485 0.38866 0.22507 0.0
H1959 H 0.61421 0.40721 0.20824 0.0
H1960 H 0.62228 0.3948 0.26296 0.0
H1961 H 0.64939 0.39482 0.21199 0.0
H1962 H 0.64141 0.40714 0.15706 0.0
H1963 H 0.65051 0.38852 0.13936 0.0
H1964 H 0.60697 0.3529 0.04452 0.0
H1965 H 0.5991 0.374 0.97813 0.0
H1966 H 0.6167 0.40934 0.09534 0.0
C1967 C 0.63711 0.36259 0.23724 0.0
C1968 C 0.63895 0.34602 0.24033 0.0
C1969 C 0.63217 0.33634 0.19798 0.0
C1970 C 0.62387 0.34307 0.15266 0.0
C1971 C 0.62253 0.35948 0.15032 0.0
C1972 C 0.62896 0.36911 0.1915 0.0
C1973 C 0.6269 0.38641 0.17702 0.0
C1974 C 0.61643 0.39476 0.22093 0.0
C1975 C 0.64301 0.3947 0.17099 0.0
C1976 C 0.61858 0.38502 0.12072 0.0
C1977 C 0.61596 0.3694 0.10638 0.0
C1978 C 0.60886 0.36518 0.05548 0.0
C1979 C 0.60444 0.37725 0.01805 0.0
C1980 C 0.6073 0.39332 0.03151 0.0
C1981 C 0.61433 0.39718 0.08382 0.0
H1982 H 0.86758 0.41088 0.42856 0.0
H1983 H 0.90645 0.37877 0.46331 0.0
H1984 H 0.89786 0.36172 0.38457 0.0
H1985 H 0.839 0.38118 0.39281 0.0
H1986 H 0.83003 0.39274 0.33749 0.0
H1987 H 0.83928 0.40247 0.39652 0.0
H1988 H 0.85719 0.41823 0.32784 0.0
H1989 H 0.848 0.40855 0.2686 0.0
H1990 H 0.86915 0.40771 0.27723 0.0
H1991 H 0.88494 0.34804 0.30271 0.0
H1992 H 0.86865 0.3388 0.22274 0.0
H1993 H 0.83841 0.37998 0.24118 0.0
C1994 C 0.87429 0.40026 0.41967 0.0
C1995 C 0.88768 0.39616 0.45212 0.0
C1996 C 0.89615 0.38217 0.43901 0.0
C1997 C 0.89137 0.3724 0.39439 0.0
C1998 C 0.87813 0.37679 0.36326 0.0
C1999 C 0.86971 0.3904 0.37523 0.0
C2000 C 0.85591 0.39243 0.33525 0.0
C2001 C 0.84013 0.39218 0.36745 0.0
C2002 C 0.85768 0.40763 0.30015 0.0
C2003 C 0.85787 0.37783 0.29899 0.0
C2004 C 0.87074 0.36896 0.31586 0.0
C2005 C 0.87484 0.35489 0.28901 0.0
C2006 C 0.86552 0.34975 0.24366 0.0
C2007 C 0.85228 0.35868 0.22565 0.0
C2008 C 0.84847 0.37291 0.25379 0.0
H2009 H 0.83559 0.61857 0.70512 0.0
H2010 H 0.86881 0.6553 0.75333 0.0
H2011 H 0.88713 0.64632 0.67874 0.0
H2012 H 0.86461 0.58846 0.67268 0.0
H2013 H 0.8536 0.58086 0.61345 0.0
H2014 H 0.84335 0.58989 0.67179 0.0
H2015 H 0.82979 0.60949 0.60295 0.0
H2016 H 0.83999 0.60052 0.54444 0.0
H2017 H 0.84179 0.62147 0.55686 0.0
H2018 H 0.90148 0.63378 0.59687 0.0
H2019 H 0.91072 0.61863 0.51394 0.0
H2020 H 0.86806 0.59015 0.52017 0.0
C2021 C 0.84675 0.62468 0.7003 0.0
C2022 C 0.85077 0.63763 0.73511 0.0
C2023 C 0.86547 0.64534 0.72716 0.0
C2024 C 0.87597 0.64032 0.68496 0.0
C2025 C 0.87159 0.62757 0.65118 0.0
C2026 C 0.85734 0.61984 0.65844 0.0
C2027 C 0.8553 0.60668 0.61576 0.0
C2028 C 0.85415 0.59052 0.64519 0.0
C2029 C 0.84087 0.60973 0.57776 0.0
C2030 C 0.87059 0.60827 0.58313 0.0
C2031 C 0.87985 0.62035 0.60423 0.0
C2032 C 0.89436 0.62424 0.58013 0.0
C2033 C 0.8995 0.61558 0.53304 0.0
C2034 C 0.89014 0.60319 0.51064 0.0
C2035 C 0.87555 0.59949 0.53641 0.0
H2036 H 0.35168 0.36583 0.25028 0.0
H2037 H 0.39372 0.339 0.29366 0.0
H2038 H 0.40789 0.35125 0.21344 0.0
H2039 H 0.35546 0.36252 0.10207 0.0
H2040 H 0.3483 0.38219 0.08795 0.0
H2041 H 0.34184 0.37185 0.15021 0.0
H2042 H 0.35151 0.3951 0.21268 0.0
H2043 H 0.358 0.40553 0.15057 0.0
H2044 H 0.37172 0.40168 0.20715 0.0
H2045 H 0.41704 0.36582 0.1258 0.0
H2046 H 0.42041 0.38143 0.03838 0.0
H2047 H 0.37224 0.39856 0.05418 0.0
C2048 C 0.36391 0.36257 0.24331 0.0
C2049 C 0.3716 0.35146 0.27829 0.0
C2050 C 0.38759 0.34751 0.26745 0.0
C2051 C 0.39574 0.35441 0.22204 0.0
C2052 C 0.38772 0.36526 0.18817 0.0
C2053 C 0.37217 0.36933 0.19844 0.0
C2054 C 0.36607 0.38096 0.15515 0.0
C2055 C 0.3521 0.37395 0.12188 0.0
C2056 C 0.36156 0.39675 0.18307 0.0
C2057 C 0.38056 0.38269 0.11841 0.0
C2058 C 0.39296 0.3736 0.13815 0.0
C2059 C 0.40744 0.37304 0.11016 0.0
C2060 C 0.40923 0.38194 0.06055 0.0
C2061 C 0.3966 0.39123 0.03951 0.0
C2062 C 0.38215 0.39164 0.06924 0.0
H2063 H 0.37878 0.61699 0.94801 0.0
H2064 H 0.40681 0.58724 0.83693 0.0
H2065 H 0.39601 0.60134 0.75429 0.0
H2066 H 0.34446 0.61869 0.86095 0.0
H2067 H 0.34004 0.63903 0.87739 0.0
H2068 H 0.35034 0.62693 0.92798 0.0
H2069 H 0.37313 0.64736 0.9315 0.0
H2070 H 0.36291 0.65953 0.88087 0.0
H2071 H 0.38285 0.6531 0.86691 0.0
H2072 H 0.3816 0.61797 0.68388 0.0
H2073 H 0.36462 0.63618 0.62991 0.0
H2074 H 0.34615 0.65539 0.78673 0.0
C2075 C 0.3827 0.61346 0.90633 0.0
C2076 C 0.39364 0.601 0.89892 0.0
C2077 C 0.39845 0.59676 0.84366 0.0
C2078 C 0.3924 0.6047 0.79645 0.0
C2079 C 0.3816 0.61689 0.80526 0.0
C2080 C 0.37681 0.62129 0.85876 0.0
C2081 C 0.36488 0.63463 0.85649 0.0
C2082 C 0.34899 0.62951 0.88222 0.0
C2083 C 0.37134 0.64954 0.88567 0.0
C2084 C 0.36359 0.63694 0.79327 0.0
C2085 C 0.37337 0.62659 0.76456 0.0
C2086 C 0.37396 0.62619 0.70586 0.0
C2087 C 0.36424 0.63657 0.67561 0.0
C2088 C 0.35407 0.64725 0.70409 0.0
C2089 C 0.35387 0.64747 0.76374 0.0
H2090 H 0.14864 0.65437 0.65703 0.0
H2091 H 0.13282 0.63297 0.81383 0.0
H2092 H 0.11581 0.6147 0.75991 0.0
H2093 H 0.11104 0.65146 0.58203 0.0
H2094 H 0.12035 0.64692 0.51551 0.0
H2095 H 0.13052 0.65896 0.56668 0.0
H2096 H 0.1543 0.63965 0.56442 0.0
H2097 H 0.1442 0.62753 0.51343 0.0
H2098 H 0.15108 0.61895 0.57861 0.0
H2099 H 0.10161 0.59786 0.68883 0.0
H2100 H 0.09109 0.58378 0.60561 0.0
H2101 H 0.11625 0.6162 0.49544 0.0
C2102 C 0.14146 0.64598 0.68013 0.0
C2103 C 0.14204 0.64513 0.73967 0.0
C2104 C 0.13256 0.63386 0.76822 0.0
C2105 C 0.12285 0.62344 0.73798 0.0
C2106 C 0.12271 0.62447 0.67929 0.0
C2107 C 0.13173 0.63548 0.65065 0.0
C2108 C 0.1299 0.63373 0.58737 0.0
C2109 C 0.12251 0.64865 0.56138 0.0
C2110 C 0.14582 0.62972 0.55934 0.0
C2111 C 0.11861 0.61987 0.58489 0.0
C2112 C 0.11455 0.61475 0.63834 0.0
C2113 C 0.10462 0.60183 0.64674 0.0
C2114 C 0.09873 0.59389 0.5992 0.0
C2115 C 0.10282 0.59889 0.54401 0.0
C2116 C 0.11282 0.61212 0.53703 0.0
H2117 H 0.13 0.36387 0.26892 0.0
H2118 H 0.1587 0.33474 0.37977 0.0
H2119 H 0.14526 0.34631 0.46256 0.0
H2120 H 0.13117 0.39803 0.35125 0.0
H2121 H 0.11113 0.40405 0.33699 0.0
H2122 H 0.12172 0.39232 0.28613 0.0
H2123 H 0.09953 0.37121 0.28809 0.0
H2124 H 0.08877 0.38296 0.33862 0.0
H2125 H 0.09361 0.3627 0.35458 0.0
H2126 H 0.13048 0.36265 0.53301 0.0
H2127 H 0.11462 0.38192 0.5867 0.0
H2128 H 0.09552 0.40043 0.42984 0.0
C2129 C 0.13326 0.35968 0.31053 0.0
C2130 C 0.14539 0.34837 0.31789 0.0
C2131 C 0.14942 0.34336 0.37309 0.0
C2132 C 0.14185 0.34985 0.42037 0.0
C2133 C 0.13024 0.36127 0.41164 0.0
C2134 C 0.12586 0.36605 0.35811 0.0
C2135 C 0.11362 0.37911 0.36037 0.0
C2136 C 0.11979 0.39427 0.33202 0.0
C2137 C 0.09795 0.37366 0.33385 0.0
C2138 C 0.11207 0.38117 0.42359 0.0
C2139 C 0.12168 0.37071 0.45236 0.0
C2140 C 0.12277 0.37078 0.511 0.0
C2141 C 0.11376 0.38183 0.54107 0.0
C2142 C 0.1038 0.39268 0.51246 0.0
C2143 C 0.10293 0.39224 0.45294 0.0
loop_
_geom_bond_atom_site_label_1
_geom_bond_atom_site_label_2
_geom_bond_distance
_geom_bond_site_symmetry_2
_ccdc_geom_bond_type
C0 O1 1.160 . S
C0 O7 1.185 . S
O1 C0 1.160 . S
O2 Zn3 1.899 . S
O2 C10 1.284 . S
Zn3 O2 1.899 . S
Zn3 O4 2.032 . S
Zn3 O7 2.086 . S
Zn3 O12 1.977 . S
O4 Zn3 2.032 . S
O4 C8 1.278 . S
C5 O6 1.203 . S
C5 O12 1.267 . S
O6 C5 1.203 . S
O7 C0 1.185 . S
O7 Zn3 2.086 . S
C8 O4 1.278 . S
C8 O9 1.211 . S
O9 C8 1.211 . S
C10 O2 1.284 . S
C10 O11 1.273 . S
O11 C10 1.273 . S
O12 Zn3 1.977 . S
O12 C5 1.267 . S
C13 O14 1.160 . S
C13 O20 1.185 . S
O14 C13 1.160 . S
O15 Zn16 1.899 . S
O15 C23 1.284 . S
Zn16 O15 1.899 . S
Zn16 O17 2.032 . S
Zn16 O20 2.086 . S
Zn16 O25 1.977 . S
O17 Zn16 2.032 . S
O17 C21 1.278 . S
C18 O19 1.203 . S
C18 O25 1.267 . S
O19 C18 1.203 . S
O20 C13 1.185 . S
O20 Zn16 2.086 . S
C21 O17 1.278 . S
C21 O22 1.211 . S
O22 C21 1.211 . S
C23 O15 1.284 . S
C23 O24 1.273 . S
O24 C23 1.273 . S
O25 Zn16 1.977 . S
O25 C18 1.267 . S
C26 O27 1.160 . S
C26 O33 1.185 . S
O27 C26 1.160 . S
O28 Zn29 1.899 . S
O28 C36 1.284 . S
Zn29 O28 1.899 . S
Zn29 O30 2.032 . S
Zn29 O33 2.086 . S
Zn29 O38 1.977 . S
O30 Zn29 2.032 . S
O30 C34 1.278 . S
C31 O32 1.203 . S
C31 O38 1.267 . S
O32 C31 1.203 . S
O33 C26 1.185 . S
O33 Zn29 2.086 . S
C34 O30 1.278 . S
C34 O35 1.211 . S
O35 C34 1.211 . S
C36 O28 1.284 . S
C36 O37 1.273 . S
O37 C36 1.273 . S
O38 Zn29 1.977 . S
O38 C31 1.267 . S
C39 O40 1.160 . S
C39 O46 1.185 . S
O40 C39 1.160 . S
O41 Zn42 1.899 . S
O41 C49 1.284 . S
Zn42 O41 1.899 . S
Zn42 O43 2.032 . S
Zn42 O46 2.086 . S
Zn42 O51 1.977 . S
O43 Zn42 2.032 . S
O43 C47 1.278 . S
C44 O45 1.203 . S
C44 O51 1.267 . S
O45 C44 1.203 . S
O46 C39 1.185 . S
O46 Zn42 2.086 . S
C47 O43 1.278 . S
C47 O48 1.211 1_556 S
O48 C47 1.211 1_554 S
C49 O41 1.284 . S
C49 O50 1.273 . S
O50 C49 1.273 . S
O51 Zn42 1.977 . S
O51 C44 1.267 . S
C52 O53 1.160 . S
C52 O59 1.185 . S
O53 C52 1.160 . S
O54 Zn55 1.899 . S
O54 C62 1.284 . S
Zn55 O54 1.899 . S
Zn55 O56 2.032 . S
Zn55 O59 2.086 . S
Zn55 O64 1.977 . S
O56 Zn55 2.032 . S
O56 C60 1.278 . S
C57 O58 1.203 . S
C57 O64 1.267 . S
O58 C57 1.203 . S
O59 C52 1.185 . S
O59 Zn55 2.086 . S
C60 O56 1.278 . S
C60 O61 1.211 . S
O61 C60 1.211 . S
C62 O54 1.284 . S
C62 O63 1.273 . S
O63 C62 1.273 . S
O64 Zn55 1.977 . S
O64 C57 1.267 . S
C65 O66 1.160 . S
C65 O72 1.185 . S
O66 C65 1.160 . S
O67 Zn68 1.899 . S
O67 C75 1.284 . S
Zn68 O67 1.899 . S
Zn68 O69 2.032 . S
Zn68 O72 2.086 . S
Zn68 O77 1.977 . S
O69 Zn68 2.032 . S
O69 C73 1.278 . S
C70 O71 1.203 . S
C70 O77 1.267 . S
O71 C70 1.203 . S
O72 C65 1.185 . S
O72 Zn68 2.086 . S
C73 O69 1.278 . S
C73 O74 1.211 1_554 S
O74 C73 1.211 1_556 S
C75 O67 1.284 . S
C75 O76 1.273 . S
O76 C75 1.273 . S
O77 Zn68 1.977 . S
O77 C70 1.267 . S
C78 O79 1.160 . S
C78 O85 1.185 . S
O79 C78 1.160 . S
O80 Zn81 1.899 . S
O80 C88 1.284 . S
Zn81 O80 1.899 . S
Zn81 O82 2.032 . S
Zn81 O85 2.086 . S
Zn81 O90 1.977 . S
O82 Zn81 2.032 . S
O82 C86 1.278 . S
C83 O84 1.203 . S
C83 O90 1.267 . S
O84 C83 1.203 . S
O85 C78 1.185 . S
O85 Zn81 2.086 . S
C86 O82 1.278 . S
C86 O87 1.211 . S
O87 C86 1.211 . S
C88 O80 1.284 . S
C88 O89 1.273 . S
O89 C88 1.273 . S
O90 Zn81 1.977 . S
O90 C83 1.267 . S
C91 O92 1.160 . S
C91 O98 1.185 . S
O92 C91 1.160 . S
O93 Zn94 1.899 . S
O93 C101 1.284 . S
Zn94 O93 1.899 . S
Zn94 O95 2.032 . S
Zn94 O98 2.086 . S
Zn94 O103 1.977 . S
O95 Zn94 2.032 . S
O95 C99 1.278 . S
C96 O97 1.203 . S
C96 O103 1.267 . S
O97 C96 1.203 . S
O98 C91 1.185 . S
O98 Zn94 2.086 . S
C99 O95 1.278 . S
C99 O100 1.211 . S
O100 C99 1.211 . S
C101 O93 1.284 . S
C101 O102 1.273 . S
O102 C101 1.273 . S
O103 Zn94 1.977 . S
O103 C96 1.267 . S
C104 O105 1.160 . S
C104 O111 1.185 . S
O105 C104 1.160 . S
O106 Zn107 1.899 . S
O106 C114 1.284 . S
Zn107 O106 1.899 . S
Zn107 O108 2.032 . S
Zn107 O111 2.086 . S
Zn107 O116 1.977 . S
O108 Zn107 2.032 . S
O108 C112 1.278 . S
C109 O110 1.203 . S
C109 O116 1.267 . S
O110 C109 1.203 . S
O111 C104 1.185 . S
O111 Zn107 2.086 . S
C112 O108 1.278 . S
C112 O113 1.211 . S
O113 C112 1.211 . S
C114 O106 1.284 . S
C114 O115 1.273 . S
O115 C114 1.273 . S
O116 Zn107 1.977 . S
O116 C109 1.267 . S
C117 O118 1.160 . S
C117 O124 1.185 . S
O118 C117 1.160 . S
O119 Zn120 1.899 . S
O119 C127 1.284 . S
Zn120 O119 1.899 . S
Zn120 O121 2.032 . S
Zn120 O124 2.086 . S
Zn120 O129 1.977 . S
O121 Zn120 2.032 . S
O121 C125 1.278 . S
C122 O123 1.203 . S
C122 O129 1.267 . S
O123 C122 1.203 . S
O124 C117 1.185 . S
O124 Zn120 2.086 . S
C125 O121 1.278 . S
C125 O126 1.211 . S
O126 C125 1.211 . S
C127 O119 1.284 . S
C127 O128 1.273 . S
O128 C127 1.273 . S
O129 Zn120 1.977 . S
O129 C122 1.267 . S
C130 O131 1.160 . S
C130 O137 1.185 . S
O131 C130 1.160 . S
O132 Zn133 1.899 . S
O132 C140 1.284 . S
Zn133 O132 1.899 . S
Zn133 O134 2.032 . S
Zn133 O137 2.086 . S
Zn133 O142 1.977 . S
O134 Zn133 2.032 . S
O134 C138 1.278 . S
C135 O136 1.203 . S
C135 O142 1.267 . S
O136 C135 1.203 . S
O137 C130 1.185 . S
O137 Zn133 2.086 . S
C138 O134 1.278 . S
C138 O139 1.211 . S
O139 C138 1.211 . S
C140 O132 1.284 . S
C140 O141 1.273 . S
O141 C140 1.273 . S
O142 Zn133 1.977 . S
O142 C135 1.267 . S
C143 O144 1.160 . S
C143 O150 1.185 . S
O144 C143 1.160 . S
O145 Zn146 1.899 . S
O145 C153 1.284 . S
Zn146 O145 1.899 . S
Zn146 O147 2.032 . S
Zn146 O150 2.086 . S
Zn146 O155 1.977 . S
O147 Zn146 2.032 . S
O147 C151 1.278 . S
C148 O149 1.203 . S
C148 O155 1.267 . S
O149 C148 1.203 . S
O150 C143 1.185 . S
O150 Zn146 2.086 . S
C151 O147 1.278 . S
C151 O152 1.211 1_554 S
O152 C151 1.211 1_556 S
C153 O145 1.284 . S
C153 O154 1.273 . S
O154 C153 1.273 . S
O155 Zn146 1.977 . S
O155 C148 1.267 . S
C156 O157 1.160 . S
C156 O163 1.185 . S
O157 C156 1.160 . S
O158 Zn159 1.899 . S
O158 C166 1.284 . S
Zn159 O158 1.899 . S
Zn159 O160 2.032 . S
Zn159 O163 2.086 . S
Zn159 O168 1.977 . S
O160 Zn159 2.032 . S
O160 C164 1.278 . S
C161 O162 1.203 . S
C161 O168 1.267 . S
O162 C161 1.203 . S
O163 C156 1.185 . S
O163 Zn159 2.086 . S
C164 O160 1.278 . S
C164 O165 1.211 . S
O165 C164 1.211 . S
C166 O158 1.284 . S
C166 O167 1.273 . S
O167 C166 1.273 . S
O168 Zn159 1.977 . S
O168 C161 1.267 . S
C169 O170 1.160 . S
C169 O176 1.185 . S
O170 C169 1.160 . S
O171 Zn172 1.899 . S
O171 C179 1.284 . S
Zn172 O171 1.899 . S
Zn172 O173 2.032 . S
Zn172 O176 2.086 . S
Zn172 O181 1.977 . S
O173 Zn172 2.032 . S
O173 C177 1.278 . S
C174 O175 1.203 . S
C174 O181 1.267 . S
O175 C174 1.203 . S
O176 C169 1.185 . S
O176 Zn172 2.086 . S
C177 O173 1.278 . S
C177 O178 1.211 1_556 S
O178 C177 1.211 1_554 S
C179 O171 1.284 . S
C179 O180 1.273 . S
O180 C179 1.273 . S
O181 Zn172 1.977 . S
O181 C174 1.267 . S
C182 O183 1.160 . S
C182 O189 1.185 . S
O183 C182 1.160 . S
O184 Zn185 1.899 . S
O184 C192 1.284 . S
Zn185 O184 1.899 . S
Zn185 O186 2.032 . S
Zn185 O189 2.086 . S
Zn185 O194 1.977 . S
O186 Zn185 2.032 . S
O186 C190 1.278 . S
C187 O188 1.203 . S
C187 O194 1.267 . S
O188 C187 1.203 . S
O189 C182 1.185 . S
O189 Zn185 2.086 . S
C190 O186 1.278 . S
C190 O191 1.211 . S
O191 C190 1.211 . S
C192 O184 1.284 . S
C192 O193 1.273 . S
O193 C192 1.273 . S
O194 Zn185 1.977 . S
O194 C187 1.267 . S
C195 O196 1.160 . S
C195 O202 1.185 . S
O196 C195 1.160 . S
O197 Zn198 1.899 . S
O197 C205 1.284 . S
Zn198 O197 1.899 . S
Zn198 O199 2.032 . S
Zn198 O202 2.086 . S
Zn198 O207 1.977 . S
O199 Zn198 2.032 . S
O199 C203 1.278 . S
C200 O201 1.203 . S
C200 O207 1.267 . S
O201 C200 1.203 . S
O202 C195 1.185 . S
O202 Zn198 2.086 . S
C203 O199 1.278 . S
C203 O204 1.211 . S
O204 C203 1.211 . S
C205 O197 1.284 . S
C205 O206 1.273 . S
O206 C205 1.273 . S
O207 Zn198 1.977 . S
O207 C200 1.267 . S
C208 O209 1.160 . S
C208 O215 1.185 . S
O209 C208 1.160 . S
O210 Zn211 1.899 . S
O210 C218 1.284 . S
Zn211 O210 1.899 . S
Zn211 O212 2.032 . S
Zn211 O215 2.086 . S
Zn211 O220 1.977 . S
O212 Zn211 2.032 . S
O212 C216 1.278 . S
C213 O214 1.203 . S
C213 O220 1.267 . S
O214 C213 1.203 . S
O215 C208 1.185 . S
O215 Zn211 2.086 . S
C216 O212 1.278 . S
C216 O217 1.211 . S
O217 C216 1.211 . S
C218 O210 1.284 . S
C218 O219 1.273 . S
O219 C218 1.273 . S
O220 Zn211 1.977 . S
O220 C213 1.267 . S
C221 O222 1.160 . S
C221 O228 1.185 . S
O222 C221 1.160 . S
O223 Zn224 1.899 . S
O223 C231 1.284 . S
Zn224 O223 1.899 . S
Zn224 O225 2.032 . S
Zn224 O228 2.086 . S
Zn224 O233 1.977 . S
O225 Zn224 2.032 . S
O225 C229 1.278 . S
C226 O227 1.203 . S
C226 O233 1.267 . S
O227 C226 1.203 . S
O228 C221 1.185 . S
O228 Zn224 2.086 . S
C229 O225 1.278 . S
C229 O230 1.211 1_556 S
O230 C229 1.211 1_554 S
C231 O223 1.284 . S
C231 O232 1.273 . S
O232 C231 1.273 . S
O233 Zn224 1.977 . S
O233 C226 1.267 . S
C234 O235 1.160 . S
C234 O241 1.185 . S
O235 C234 1.160 . S
O236 Zn237 1.899 . S
O236 C244 1.284 . S
Zn237 O236 1.899 . S
Zn237 O238 2.032 . S
Zn237 O241 2.086 . S
Zn237 O246 1.977 . S
O238 Zn237 2.032 . S
O238 C242 1.278 . S
C239 O240 1.203 . S
C239 O246 1.267 . S
O240 C239 1.203 . S
O241 C234 1.185 . S
O241 Zn237 2.086 . S
C242 O238 1.278 . S
C242 O243 1.211 . S
O243 C242 1.211 . S
C244 O236 1.284 . S
C244 O245 1.273 . S
O245 C244 1.273 . S
O246 Zn237 1.977 . S
O246 C239 1.267 . S
C247 O248 1.160 . S
C247 O254 1.185 . S
O248 C247 1.160 . S
O249 Zn250 1.899 . S
O249 C257 1.284 . S
Zn250 O249 1.899 . S
Zn250 O251 2.032 . S
Zn250 O254 2.086 . S
Zn250 O259 1.977 . S
O251 Zn250 2.032 . S
O251 C255 1.278 . S
C252 O253 1.203 . S
C252 O259 1.267 . S
O253 C252 1.203 . S
O254 C247 1.185 . S
O254 Zn250 2.086 . S
C255 O251 1.278 . S
C255 O256 1.211 . S
O256 C255 1.211 . S
C257 O249 1.284 . S
C257 O258 1.273 . S
O258 C257 1.273 . S
O259 Zn250 1.977 . S
O259 C252 1.267 . S
C260 O261 1.160 . S
C260 O267 1.185 . S
O261 C260 1.160 . S
O262 Zn263 1.899 . S
O262 C270 1.284 . S
Zn263 O262 1.899 . S
Zn263 O264 2.032 . S
Zn263 O267 2.086 . S
Zn263 O272 1.977 . S
O264 Zn263 2.032 . S
O264 C268 1.278 . S
C265 O266 1.203 . S
C265 O272 1.267 . S
O266 C265 1.203 . S
O267 C260 1.185 . S
O267 Zn263 2.086 . S
C268 O264 1.278 . S
C268 O269 1.211 . S
O269 C268 1.211 . S
C270 O262 1.284 . S
C270 O271 1.273 . S
O271 C270 1.273 . S
O272 Zn263 1.977 . S
O272 C265 1.267 . S
C273 O274 1.160 . S
C273 O280 1.185 . S
O274 C273 1.160 . S
O275 Zn276 1.899 . S
O275 C283 1.284 . S
Zn276 O275 1.899 . S
Zn276 O277 2.032 . S
Zn276 O280 2.086 . S
Zn276 O285 1.977 . S
O277 Zn276 2.032 . S
O277 C281 1.278 . S
C278 O279 1.203 . S
C278 O285 1.267 . S
O279 C278 1.203 . S
O280 C273 1.185 . S
O280 Zn276 2.086 . S
C281 O277 1.278 . S
C281 O282 1.211 . S
O282 C281 1.211 . S
C283 O275 1.284 . S
C283 O284 1.273 . S
O284 C283 1.273 . S
O285 Zn276 1.977 . S
O285 C278 1.267 . S
C286 O287 1.160 . S
C286 O293 1.185 . S
O287 C286 1.160 . S
O288 Zn289 1.899 . S
O288 C296 1.284 . S
Zn289 O288 1.899 . S
Zn289 O290 2.032 . S
Zn289 O293 2.086 . S
Zn289 O298 1.977 . S
O290 Zn289 2.032 . S
O290 C294 1.278 . S
C291 O292 1.203 . S
C291 O298 1.267 . S
O292 C291 1.203 . S
O293 C286 1.185 . S
O293 Zn289 2.086 . S
C294 O290 1.278 . S
C294 O295 1.211 . S
O295 C294 1.211 . S
C296 O288 1.284 . S
C296 O297 1.273 . S
O297 C296 1.273 . S
O298 Zn289 1.977 . S
O298 C291 1.267 . S
C299 O300 1.160 . S
C299 O306 1.185 . S
O300 C299 1.160 . S
O301 Zn302 1.899 . S
O301 C309 1.284 . S
Zn302 O301 1.899 . S
Zn302 O303 2.032 . S
Zn302 O306 2.086 . S
Zn302 O311 1.977 . S
O303 Zn302 2.032 . S
O303 C307 1.278 . S
C304 O305 1.203 . S
C304 O311 1.267 . S
O305 C304 1.203 . S
O306 C299 1.185 . S
O306 Zn302 2.086 . S
C307 O303 1.278 . S
C307 O308 1.211 1_554 S
O308 C307 1.211 1_556 S
C309 O301 1.284 . S
C309 O310 1.273 . S
O310 C309 1.273 . S
O311 Zn302 1.977 . S
O311 C304 1.267 . S
C312 O313 1.160 . S
C312 O319 1.185 . S
O313 C312 1.160 . S
O314 Zn315 1.899 . S
O314 C322 1.284 . S
Zn315 O314 1.899 . S
Zn315 O316 2.032 . S
Zn315 O319 2.086 . S
Zn315 O324 1.977 . S
O316 Zn315 2.032 . S
O316 C320 1.278 . S
C317 O318 1.203 . S
C317 O324 1.267 . S
O318 C317 1.203 . S
O319 C312 1.185 . S
O319 Zn315 2.086 . S
C320 O316 1.278 . S
C320 O321 1.211 . S
O321 C320 1.211 . S
C322 O314 1.284 . S
C322 O323 1.273 . S
O323 C322 1.273 . S
O324 Zn315 1.977 . S
O324 C317 1.267 . S
C325 O326 1.160 . S
C325 O332 1.185 . S
O326 C325 1.160 . S
O327 Zn328 1.899 . S
O327 C335 1.284 . S
Zn328 O327 1.899 . S
Zn328 O329 2.032 . S
Zn328 O332 2.086 . S
Zn328 O337 1.977 . S
O329 Zn328 2.032 . S
O329 C333 1.278 . S
C330 O331 1.203 . S
C330 O337 1.267 . S
O331 C330 1.203 . S
O332 C325 1.185 . S
O332 Zn328 2.086 . S
C333 O329 1.278 . S
C333 O334 1.211 1_554 S
O334 C333 1.211 1_556 S
C335 O327 1.284 . S
C335 O336 1.273 . S
O336 C335 1.273 . S
O337 Zn328 1.977 . S
O337 C330 1.267 . S
C338 O339 1.160 . S
C338 O345 1.185 . S
O339 C338 1.160 . S
O340 Zn341 1.899 . S
O340 C348 1.284 . S
Zn341 O340 1.899 . S
Zn341 O342 2.032 . S
Zn341 O345 2.086 . S
Zn341 O350 1.977 . S
O342 Zn341 2.032 . S
O342 C346 1.278 . S
C343 O344 1.203 . S
C343 O350 1.267 . S
O344 C343 1.203 . S
O345 C338 1.185 . S
O345 Zn341 2.086 . S
C346 O342 1.278 . S
C346 O347 1.211 . S
O347 C346 1.211 . S
C348 O340 1.284 . S
C348 O349 1.273 . S
O349 C348 1.273 . S
O350 Zn341 1.977 . S
O350 C343 1.267 . S
C351 O352 1.160 . S
C351 O358 1.185 . S
O352 C351 1.160 . S
O353 Zn354 1.899 . S
O353 C361 1.284 . S
Zn354 O353 1.899 . S
Zn354 O355 2.032 . S
Zn354 O358 2.086 . S
Zn354 O363 1.977 . S
O355 Zn354 2.032 . S
O355 C359 1.278 . S
C356 O357 1.203 . S
C356 O363 1.267 . S
O357 C356 1.203 . S
O358 C351 1.185 . S
O358 Zn354 2.086 . S
C359 O355 1.278 . S
C359 O360 1.211 . S
O360 C359 1.211 . S
C361 O353 1.284 . S
C361 O362 1.273 . S
O362 C361 1.273 . S
O363 Zn354 1.977 . S
O363 C356 1.267 . S
C364 O365 1.160 . S
C364 O371 1.185 . S
O365 C364 1.160 . S
O366 Zn367 1.899 . S
O366 C374 1.284 . S
Zn367 O366 1.899 . S
Zn367 O368 2.032 . S
Zn367 O371 2.086 . S
Zn367 O376 1.977 . S
O368 Zn367 2.032 . S
O368 C372 1.278 . S
C369 O370 1.203 . S
C369 O376 1.267 . S
O370 C369 1.203 . S
O371 C364 1.185 . S
O371 Zn367 2.086 . S
C372 O368 1.278 . S
C372 O373 1.211 . S
O373 C372 1.211 . S
C374 O366 1.284 . S
C374 O375 1.273 . S
O375 C374 1.273 . S
O376 Zn367 1.977 . S
O376 C369 1.267 . S
C377 O378 1.160 . S
C377 O384 1.185 . S
O378 C377 1.160 . S
O379 Zn380 1.899 . S
O379 C387 1.284 . S
Zn380 O379 1.899 . S
Zn380 O381 2.032 . S
Zn380 O384 2.086 . S
Zn380 O389 1.977 . S
O381 Zn380 2.032 . S
O381 C385 1.278 . S
C382 O383 1.203 . S
C382 O389 1.267 . S
O383 C382 1.203 . S
O384 C377 1.185 . S
O384 Zn380 2.086 . S
C385 O381 1.278 . S
C385 O386 1.211 . S
O386 C385 1.211 . S
C387 O379 1.284 . S
C387 O388 1.273 . S
O388 C387 1.273 . S
O389 Zn380 1.977 . S
O389 C382 1.267 . S
C390 O391 1.160 . S
C390 O397 1.185 . S
O391 C390 1.160 . S
O392 Zn393 1.899 . S
O392 C400 1.284 . S
Zn393 O392 1.899 . S
Zn393 O394 2.032 . S
Zn393 O397 2.086 . S
Zn393 O402 1.977 . S
O394 Zn393 2.032 . S
O394 C398 1.278 . S
C395 O396 1.203 . S
C395 O402 1.267 . S
O396 C395 1.203 . S
O397 C390 1.185 . S
O397 Zn393 2.086 . S
C398 O394 1.278 . S
C398 O399 1.211 . S
O399 C398 1.211 . S
C400 O392 1.284 . S
C400 O401 1.273 . S
O401 C400 1.273 . S
O402 Zn393 1.977 . S
O402 C395 1.267 . S
C403 O404 1.160 . S
C403 O410 1.185 . S
O404 C403 1.160 . S
O405 Zn406 1.899 . S
O405 C413 1.284 . S
Zn406 O405 1.899 . S
Zn406 O407 2.032 . S
Zn406 O410 2.086 . S
Zn406 O415 1.977 . S
O407 Zn406 2.032 . S
O407 C411 1.278 . S
C408 O409 1.203 . S
C408 O415 1.267 . S
O409 C408 1.203 . S
O410 C403 1.185 . S
O410 Zn406 2.086 . S
C411 O407 1.278 . S
C411 O412 1.211 1_556 S
O412 C411 1.211 1_554 S
C413 O405 1.284 . S
C413 O414 1.273 . S
O414 C413 1.273 . S
O415 Zn406 1.977 . S
O415 C408 1.267 . S
H416 C428 0.930 . S
H417 C430 0.930 . S
H418 C431 0.930 . S
H419 C435 0.959 . S
H420 C435 0.959 . S
H421 C435 0.961 . S
H422 C436 0.960 . S
H423 C436 0.961 . S
H424 C436 0.959 . S
H425 C439 0.929 . S
H426 C440 0.931 . S
H427 C442 0.930 . S
C428 H416 0.930 . S
C428 C429 1.399 . S
C428 C433 1.399 . S
C429 C428 1.399 . S
C429 C430 1.376 . S
C430 H417 0.930 . S
C430 C429 1.376 . S
C430 C431 1.388 . S
C431 H418 0.930 . S
C431 C430 1.388 . S
C431 C432 1.390 . S
C432 C431 1.390 . S
C432 C433 1.394 . S
C432 C438 1.465 . S
C433 C428 1.399 . S
C433 C432 1.394 . S
C433 C434 1.516 . S
C434 C433 1.516 . S
C434 C435 1.502 . S
C434 C436 1.561 . S
C434 C437 1.526 . S
C435 H419 0.959 . S
C435 H420 0.959 . S
C435 H421 0.961 . S
C435 C434 1.502 . S
C436 H422 0.960 . S
C436 H423 0.961 . S
C436 H424 0.959 . S
C436 C434 1.561 . S
C437 C434 1.526 . S
C437 C438 1.396 . S
C437 C442 1.390 . S
C438 C432 1.465 . S
C438 C437 1.396 . S
C438 C439 1.399 . S
C439 H425 0.929 . S
C439 C438 1.399 . S
C439 C440 1.385 . S
C440 H426 0.931 . S
C440 C439 1.385 . S
C440 C441 1.389 . S
C441 C440 1.389 . S
C441 C442 1.387 . S
C442 H427 0.930 . S
C442 C437 1.390 . S
C442 C441 1.387 . S
H443 C455 0.930 . S
H444 C457 0.930 . S
H445 C458 0.930 . S
H446 C462 0.959 . S
H447 C462 0.959 . S
H448 C462 0.961 . S
H449 C463 0.960 . S
H450 C463 0.961 . S
H451 C463 0.959 . S
H452 C466 0.929 . S
H453 C467 0.931 . S
H454 C469 0.930 . S
C455 H443 0.930 . S
C455 C456 1.399 . S
C455 C460 1.399 . S
C456 C455 1.399 . S
C456 C457 1.376 . S
C457 H444 0.930 . S
C457 C456 1.376 . S
C457 C458 1.388 . S
C458 H445 0.930 . S
C458 C457 1.388 . S
C458 C459 1.390 . S
C459 C458 1.390 . S
C459 C460 1.394 . S
C459 C465 1.465 1_565 S
C460 C455 1.399 . S
C460 C459 1.394 . S
C460 C461 1.516 1_565 S
C461 C460 1.516 1_545 S
C461 C462 1.502 . S
C461 C463 1.561 . S
C461 C464 1.526 . S
C462 H446 0.959 . S
C462 H447 0.959 . S
C462 H448 0.961 . S
C462 C461 1.502 . S
C463 H449 0.960 . S
C463 H450 0.961 . S
C463 H451 0.959 . S
C463 C461 1.561 . S
C464 C461 1.526 . S
C464 C465 1.396 . S
C464 C469 1.390 . S
C465 C459 1.465 1_545 S
C465 C464 1.396 . S
C465 C466 1.399 . S
C466 H452 0.929 . S
C466 C465 1.399 . S
C466 C467 1.385 . S
C467 H453 0.931 . S
C467 C466 1.385 . S
C467 C468 1.389 . S
C468 C467 1.389 . S
C468 C469 1.387 . S
C469 H454 0.930 . S
C469 C464 1.390 . S
C469 C468 1.387 . S
H470 C482 0.930 . S
H471 C484 0.930 . S
H472 C485 0.930 . S
H473 C489 0.959 . S
H474 C489 0.959 . S
H475 C489 0.961 . S
H476 C490 0.960 . S
H477 C490 0.961 . S
H478 C490 0.959 . S
H479 C493 0.929 . S
H480 C494 0.931 . S
H481 C496 0.930 . S
C482 H470 0.930 . S
C482 C483 1.399 . S
C482 C487 1.399 . S
C483 C482 1.399 . S
C483 C484 1.376 . S
C484 H471 0.930 . S
C484 C483 1.376 . S
C484 C485 1.388 . S
C485 H472 0.930 . S
C485 C484 1.388 . S
C485 C486 1.390 . S
C486 C485 1.390 . S
C486 C487 1.394 . S
C486 C492 1.465 . S
C487 C482 1.399 . S
C487 C486 1.394 . S
C487 C488 1.516 . S
C488 C487 1.516 . S
C488 C489 1.502 . S
C488 C490 1.561 . S
C488 C491 1.526 . S
C489 H473 0.959 . S
C489 H474 0.959 . S
C489 H475 0.961 . S
C489 C488 1.502 . S
C490 H476 0.960 . S
C490 H477 0.961 . S
C490 H478 0.959 . S
C490 C488 1.561 . S
C491 C488 1.526 . S
C491 C492 1.396 . S
C491 C496 1.390 . S
C492 C486 1.465 . S
C492 C491 1.396 . S
C492 C493 1.399 . S
C493 H479 0.929 . S
C493 C492 1.399 . S
C493 C494 1.385 . S
C494 H480 0.931 . S
C494 C493 1.385 . S
C494 C495 1.389 . S
C495 C494 1.389 . S
C495 C496 1.387 . S
C496 H481 0.930 . S
C496 C491 1.390 . S
C496 C495 1.387 . S
H497 C509 0.930 . S
H498 C511 0.930 . S
H499 C512 0.930 . S
H500 C516 0.959 . S
H501 C516 0.959 . S
H502 C516 0.961 . S
H503 C517 0.960 . S
H504 C517 0.961 . S
H505 C517 0.959 . S
H506 C520 0.929 . S
H507 C521 0.931 . S
H508 C523 0.930 1_556 S
C509 H497 0.930 . S
C509 C510 1.399 . S
C509 C514 1.399 . S
C510 C509 1.399 . S
C510 C511 1.376 1_556 S
C511 H498 0.930 . S
C511 C510 1.376 1_554 S
C511 C512 1.388 . S
C512 H499 0.930 . S
C512 C511 1.388 . S
C512 C513 1.390 . S
C513 C512 1.390 . S
C513 C514 1.394 1_554 S
C513 C519 1.465 1_545 S
C514 C509 1.399 . S
C514 C513 1.394 1_556 S
C514 C515 1.516 1_545 S
C515 C514 1.516 1_565 S
C515 C516 1.502 . S
C515 C517 1.561 . S
C515 C518 1.526 . S
C516 H500 0.959 . S
C516 H501 0.959 . S
C516 H502 0.961 . S
C516 C515 1.502 . S
C517 H503 0.960 . S
C517 H504 0.961 . S
C517 H505 0.959 . S
C517 C515 1.561 . S
C518 C515 1.526 . S
C518 C519 1.396 1_556 S
C518 C523 1.390 1_556 S
C519 C513 1.465 1_565 S
C519 C518 1.396 1_554 S
C519 C520 1.399 . S
C520 H506 0.929 . S
C520 C519 1.399 . S
C520 C521 1.385 . S
C521 H507 0.931 . S
C521 C520 1.385 . S
C521 C522 1.389 . S
C522 C521 1.389 . S
C522 C523 1.387 . S
C523 H508 0.930 1_554 S
C523 C518 1.390 1_554 S
C523 C522 1.387 . S
H524 C536 0.930 . S
H525 C538 0.930 . S
H526 C539 0.930 . S
H527 C543 0.959 . S
H528 C543 0.959 . S
H529 C543 0.961 . S
H530 C544 0.960 . S
H531 C544 0.961 . S
H532 C544 0.959 . S
H533 C547 0.929 . S
H534 C548 0.931 . S
H535 C550 0.930 . S
C536 H524 0.930 . S
C536 C537 1.399 . S
C536 C541 1.399 . S
C537 C536 1.399 . S
C537 C538 1.376 . S
C538 H525 0.930 . S
C538 C537 1.376 . S
C538 C539 1.388 . S
C539 H526 0.930 . S
C539 C538 1.388 . S
C539 C540 1.390 . S
C540 C539 1.390 . S
C540 C541 1.394 . S
C540 C546 1.465 . S
C541 C536 1.399 . S
C541 C540 1.394 . S
C541 C542 1.516 . S
C542 C541 1.516 . S
C542 C543 1.502 . S
C542 C544 1.561 . S
C542 C545 1.526 . S
C543 H527 0.959 . S
C543 H528 0.959 . S
C543 H529 0.961 . S
C543 C542 1.502 . S
C544 H530 0.960 . S
C544 H531 0.961 . S
C544 H532 0.959 . S
C544 C542 1.561 . S
C545 C542 1.526 . S
C545 C546 1.396 . S
C545 C550 1.390 . S
C546 C540 1.465 . S
C546 C545 1.396 . S
C546 C547 1.399 . S
C547 H533 0.929 . S
C547 C546 1.399 . S
C547 C548 1.385 . S
C548 H534 0.931 . S
C548 C547 1.385 . S
C548 C549 1.389 . S
C549 C548 1.389 . S
C549 C550 1.387 . S
C550 H535 0.930 . S
C550 C545 1.390 . S
C550 C549 1.387 . S
H551 C563 0.930 . S
H552 C565 0.930 . S
H553 C566 0.930 . S
H554 C570 0.959 . S
H555 C570 0.959 . S
H556 C570 0.961 . S
H557 C571 0.960 . S
H558 C571 0.961 . S
H559 C571 0.959 . S
H560 C574 0.929 . S
H561 C575 0.931 . S
H562 C577 0.930 . S
C563 H551 0.930 . S
C563 C564 1.399 . S
C563 C568 1.399 . S
C564 C563 1.399 . S
C564 C565 1.376 . S
C565 H552 0.930 . S
C565 C564 1.376 . S
C565 C566 1.388 . S
C566 H553 0.930 . S
C566 C565 1.388 . S
C566 C567 1.390 . S
C567 C566 1.390 . S
C567 C568 1.394 . S
C567 C573 1.465 1_565 S
C568 C563 1.399 . S
C568 C567 1.394 . S
C568 C569 1.516 1_565 S
C569 C568 1.516 1_545 S
C569 C570 1.502 . S
C569 C571 1.561 . S
C569 C572 1.526 . S
C570 H554 0.959 . S
C570 H555 0.959 . S
C570 H556 0.961 . S
C570 C569 1.502 . S
C571 H557 0.960 . S
C571 H558 0.961 . S
C571 H559 0.959 . S
C571 C569 1.561 . S
C572 C569 1.526 . S
C572 C573 1.396 . S
C572 C577 1.390 . S
C573 C567 1.465 1_545 S
C573 C572 1.396 . S
C573 C574 1.399 . S
C574 H560 0.929 . S
C574 C573 1.399 . S
C574 C575 1.385 . S
C575 H561 0.931 . S
C575 C574 1.385 . S
C575 C576 1.389 . S
C576 C575 1.389 . S
C576 C577 1.387 . S
C577 H562 0.930 . S
C577 C572 1.390 . S
C577 C576 1.387 . S
H578 C590 0.930 . S
H579 C592 0.930 . S
H580 C593 0.930 . S
H581 C597 0.959 . S
H582 C597 0.959 . S
H583 C597 0.961 . S
H584 C598 0.960 . S
H585 C598 0.961 . S
H586 C598 0.959 . S
H587 C601 0.929 . S
H588 C602 0.931 . S
H589 C604 0.930 . S
C590 H578 0.930 . S
C590 C591 1.399 . S
C590 C595 1.399 . S
C591 C590 1.399 . S
C591 C592 1.376 . S
C592 H579 0.930 . S
C592 C591 1.376 . S
C592 C593 1.388 . S
C593 H580 0.930 . S
C593 C592 1.388 . S
C593 C594 1.390 . S
C594 C593 1.390 . S
C594 C595 1.394 . S
C594 C600 1.465 . S
C595 C590 1.399 . S
C595 C594 1.394 . S
C595 C596 1.516 . S
C596 C595 1.516 . S
C596 C597 1.502 . S
C596 C598 1.561 . S
C596 C599 1.526 . S
C597 H581 0.959 . S
C597 H582 0.959 . S
C597 H583 0.961 . S
C597 C596 1.502 . S
C598 H584 0.960 . S
C598 H585 0.961 . S
C598 H586 0.959 . S
C598 C596 1.561 . S
C599 C596 1.526 . S
C599 C600 1.396 . S
C599 C604 1.390 . S
C600 C594 1.465 . S
C600 C599 1.396 . S
C600 C601 1.399 . S
C601 H587 0.929 . S
C601 C600 1.399 . S
C601 C602 1.385 . S
C602 H588 0.931 . S
C602 C601 1.385 . S
C602 C603 1.389 . S
C603 C602 1.389 . S
C603 C604 1.387 . S
C604 H589 0.930 . S
C604 C599 1.390 . S
C604 C603 1.387 . S
H605 C617 0.930 . S
H606 C619 0.930 . S
H607 C620 0.930 . S
H608 C624 0.959 . S
H609 C624 0.959 . S
H610 C624 0.961 . S
H611 C625 0.960 . S
H612 C625 0.961 . S
H613 C625 0.959 . S
H614 C628 0.929 . S
H615 C629 0.931 . S
H616 C631 0.930 1_556 S
C617 H605 0.930 . S
C617 C618 1.399 . S
C617 C622 1.399 . S
C618 C617 1.399 . S
C618 C619 1.376 1_556 S
C619 H606 0.930 . S
C619 C618 1.376 1_554 S
C619 C620 1.388 . S
C620 H607 0.930 . S
C620 C619 1.388 . S
C620 C621 1.390 . S
C621 C620 1.390 . S
C621 C622 1.394 1_554 S
C621 C627 1.465 1_545 S
C622 C617 1.399 . S
C622 C621 1.394 1_556 S
C622 C623 1.516 1_545 S
C623 C622 1.516 1_565 S
C623 C624 1.502 . S
C623 C625 1.561 . S
C623 C626 1.526 . S
C624 H608 0.959 . S
C624 H609 0.959 . S
C624 H610 0.961 . S
C624 C623 1.502 . S
C625 H611 0.960 . S
C625 H612 0.961 . S
C625 H613 0.959 . S
C625 C623 1.561 . S
C626 C623 1.526 . S
C626 C627 1.396 1_556 S
C626 C631 1.390 1_556 S
C627 C621 1.465 1_565 S
C627 C626 1.396 1_554 S
C627 C628 1.399 . S
C628 H614 0.929 . S
C628 C627 1.399 . S
C628 C629 1.385 . S
C629 H615 0.931 . S
C629 C628 1.385 . S
C629 C630 1.389 . S
C630 C629 1.389 . S
C630 C631 1.387 . S
C631 H616 0.930 1_554 S
C631 C626 1.390 1_554 S
C631 C630 1.387 . S
H632 C644 0.930 . S
H633 C646 0.930 . S
H634 C647 0.930 . S
H635 C651 0.959 . S
H636 C651 0.959 . S
H637 C651 0.961 . S
H638 C652 0.960 . S
H639 C652 0.961 . S
H640 C652 0.959 . S
H641 C655 0.929 . S
H642 C656 0.931 . S
H643 C658 0.930 . S
C644 H632 0.930 . S
C644 C645 1.399 . S
C644 C649 1.399 . S
C645 C644 1.399 . S
C645 C646 1.376 . S
C646 H633 0.930 . S
C646 C645 1.376 . S
C646 C647 1.388 . S
C647 H634 0.930 . S
C647 C646 1.388 . S
C647 C648 1.390 . S
C648 C647 1.390 . S
C648 C649 1.394 . S
C648 C654 1.465 . S
C649 C644 1.399 . S
C649 C648 1.394 . S
C649 C650 1.516 . S
C650 C649 1.516 . S
C650 C651 1.502 . S
C650 C652 1.561 . S
C650 C653 1.526 . S
C651 H635 0.959 . S
C651 H636 0.959 . S
C651 H637 0.961 . S
C651 C650 1.502 . S
C652 H638 0.960 . S
C652 H639 0.961 . S
C652 H640 0.959 . S
C652 C650 1.561 . S
C653 C650 1.526 . S
C653 C654 1.396 . S
C653 C658 1.390 . S
C654 C648 1.465 . S
C654 C653 1.396 . S
C654 C655 1.399 . S
C655 H641 0.929 . S
C655 C654 1.399 . S
C655 C656 1.385 . S
C656 H642 0.931 . S
C656 C655 1.385 . S
C656 C657 1.389 . S
C657 C656 1.389 . S
C657 C658 1.387 . S
C658 H643 0.930 . S
C658 C653 1.390 . S
C658 C657 1.387 . S
H659 C671 0.930 . S
H660 C673 0.930 . S
H661 C674 0.930 . S
H662 C678 0.959 . S
H663 C678 0.959 . S
H664 C678 0.961 . S
H665 C679 0.962 . S
H666 C679 0.961 . S
H667 C679 0.955 1_554 S
H668 C682 0.929 . S
H669 C683 0.931 . S
H670 C685 0.930 . S
C671 H659 0.930 . S
C671 C672 1.399 . S
C671 C676 1.399 . S
C672 C671 1.399 . S
C672 C673 1.376 . S
C673 H660 0.930 . S
C673 C672 1.376 . S
C673 C674 1.388 1_556 S
C674 H661 0.930 . S
C674 C673 1.388 1_554 S
C674 C675 1.390 . S
C675 C674 1.390 . S
C675 C676 1.394 1_554 S
C675 C681 1.465 . S
C676 C671 1.399 . S
C676 C675 1.394 1_556 S
C676 C677 1.516 . S
C677 C676 1.516 . S
C677 C678 1.502 . S
C677 C679 1.563 . S
C677 C680 1.526 1_556 S
C678 H662 0.959 . S
C678 H663 0.959 . S
C678 H664 0.961 . S
C678 C677 1.502 . S
C679 H665 0.962 . S
C679 H666 0.961 . S
C679 H667 0.955 1_556 S
C679 C677 1.563 . S
C680 C677 1.526 1_554 S
C680 C681 1.396 . S
C680 C685 1.390 . S
C681 C675 1.465 . S
C681 C680 1.396 . S
C681 C682 1.399 . S
C682 H668 0.929 . S
C682 C681 1.399 . S
C682 C683 1.385 . S
C683 H669 0.931 . S
C683 C682 1.385 . S
C683 C684 1.389 . S
C684 C683 1.389 . S
C684 C685 1.387 . S
C685 H670 0.930 . S
C685 C680 1.390 . S
C685 C684 1.387 . S
H686 C698 0.930 . S
H687 C700 0.930 . S
H688 C701 0.930 . S
H689 C705 0.959 . S
H690 C705 0.959 . S
H691 C705 0.961 . S
H692 C706 0.960 . S
H693 C706 0.961 . S
H694 C706 0.959 . S
H695 C709 0.929 . S
H696 C710 0.931 . S
H697 C712 0.930 . S
C698 H686 0.930 . S
C698 C699 1.399 . S
C698 C703 1.399 . S
C699 C698 1.399 . S
C699 C700 1.376 . S
C700 H687 0.930 . S
C700 C699 1.376 . S
C700 C701 1.388 . S
C701 H688 0.930 . S
C701 C700 1.388 . S
C701 C702 1.390 . S
C702 C701 1.390 . S
C702 C703 1.394 . S
C702 C708 1.465 . S
C703 C698 1.399 . S
C703 C702 1.394 . S
C703 C704 1.516 . S
C704 C703 1.516 . S
C704 C705 1.502 . S
C704 C706 1.561 . S
C704 C707 1.526 . S
C705 H689 0.959 . S
C705 H690 0.959 . S
C705 H691 0.961 . S
C705 C704 1.502 . S
C706 H692 0.960 . S
C706 H693 0.961 . S
C706 H694 0.959 . S
C706 C704 1.561 . S
C707 C704 1.526 . S
C707 C708 1.396 . S
C707 C712 1.390 . S
C708 C702 1.465 . S
C708 C707 1.396 . S
C708 C709 1.399 . S
C709 H695 0.929 . S
C709 C708 1.399 . S
C709 C710 1.385 . S
C710 H696 0.931 . S
C710 C709 1.385 . S
C710 C711 1.389 . S
C711 C710 1.389 . S
C711 C712 1.387 . S
C712 H697 0.930 . S
C712 C707 1.390 . S
C712 C711 1.387 . S
H713 C725 0.930 . S
H714 C727 0.930 . S
H715 C728 0.930 . S
H716 C732 0.959 . S
H717 C732 0.959 . S
H718 C732 0.961 . S
H719 C733 0.960 . S
H720 C733 0.961 . S
H721 C733 0.959 . S
H722 C736 0.929 . S
H723 C737 0.931 . S
H724 C739 0.930 . S
C725 H713 0.930 . S
C725 C726 1.399 . S
C725 C730 1.399 . S
C726 C725 1.399 . S
C726 C727 1.376 . S
C727 H714 0.930 . S
C727 C726 1.376 . S
C727 C728 1.388 . S
C728 H715 0.930 . S
C728 C727 1.388 . S
C728 C729 1.390 . S
C729 C728 1.390 . S
C729 C730 1.394 . S
C729 C735 1.465 . S
C730 C725 1.399 . S
C730 C729 1.394 . S
C730 C731 1.516 . S
C731 C730 1.516 . S
C731 C732 1.502 . S
C731 C733 1.561 . S
C731 C734 1.526 . S
C732 H716 0.959 . S
C732 H717 0.959 . S
C732 H718 0.961 . S
C732 C731 1.502 . S
C733 H719 0.960 . S
C733 H720 0.961 . S
C733 H721 0.959 . S
C733 C731 1.561 . S
C734 C731 1.526 . S
C734 C735 1.396 . S
C734 C739 1.390 . S
C735 C729 1.465 . S
C735 C734 1.396 . S
C735 C736 1.399 . S
C736 H722 0.929 . S
C736 C735 1.399 . S
C736 C737 1.385 . S
C737 H723 0.931 . S
C737 C736 1.385 . S
C737 C738 1.389 . S
C738 C737 1.389 . S
C738 C739 1.387 . S
C739 H724 0.930 . S
C739 C734 1.390 . S
C739 C738 1.387 . S
H740 C752 0.930 . S
H741 C754 0.930 . S
H742 C755 0.930 . S
H743 C759 0.959 . S
H744 C759 0.959 . S
H745 C759 0.961 . S
H746 C760 0.960 . S
H747 C760 0.961 . S
H748 C760 0.959 . S
H749 C763 0.929 . S
H750 C764 0.931 . S
H751 C766 0.930 . S
C752 H740 0.930 . S
C752 C753 1.399 . S
C752 C757 1.399 . S
C753 C752 1.399 . S
C753 C754 1.376 . S
C754 H741 0.930 . S
C754 C753 1.376 . S
C754 C755 1.388 . S
C755 H742 0.930 . S
C755 C754 1.388 . S
C755 C756 1.390 . S
C756 C755 1.390 . S
C756 C757 1.394 . S
C756 C762 1.465 . S
C757 C752 1.399 . S
C757 C756 1.394 . S
C757 C758 1.516 . S
C758 C757 1.516 . S
C758 C759 1.502 . S
C758 C760 1.561 . S
C758 C761 1.526 . S
C759 H743 0.959 . S
C759 H744 0.959 . S
C759 H745 0.961 . S
C759 C758 1.502 . S
C760 H746 0.960 . S
C760 H747 0.961 . S
C760 H748 0.959 . S
C760 C758 1.561 . S
C761 C758 1.526 . S
C761 C762 1.396 . S
C761 C766 1.390 . S
C762 C756 1.465 . S
C762 C761 1.396 . S
C762 C763 1.399 . S
C763 H749 0.929 . S
C763 C762 1.399 . S
C763 C764 1.385 . S
C764 H750 0.931 . S
C764 C763 1.385 . S
C764 C765 1.389 . S
C765 C764 1.389 . S
C765 C766 1.387 . S
C766 H751 0.930 . S
C766 C761 1.390 . S
C766 C765 1.387 . S
H767 C779 0.930 . S
H768 C781 0.930 . S
H769 C782 0.930 . S
H770 C786 0.959 . S
H771 C786 0.959 . S
H772 C786 0.961 . S
H773 C787 0.960 . S
H774 C787 0.961 . S
H775 C787 0.959 . S
H776 C790 0.929 . S
H777 C791 0.931 . S
H778 C793 0.930 1_554 S
C779 H767 0.930 . S
C779 C780 1.399 . S
C779 C784 1.399 . S
C780 C779 1.399 . S
C780 C781 1.376 1_554 S
C781 H768 0.930 . S
C781 C780 1.376 1_556 S
C781 C782 1.388 . S
C782 H769 0.930 . S
C782 C781 1.388 . S
C782 C783 1.390 . S
C783 C782 1.390 . S
C783 C784 1.394 1_556 S
C783 C789 1.465 . S
C784 C779 1.399 . S
C784 C783 1.394 1_554 S
C784 C785 1.516 . S
C785 C784 1.516 . S
C785 C786 1.502 . S
C785 C787 1.561 . S
C785 C788 1.526 . S
C786 H770 0.959 . S
C786 H771 0.959 . S
C786 H772 0.961 . S
C786 C785 1.502 . S
C787 H773 0.960 . S
C787 H774 0.961 . S
C787 H775 0.959 . S
C787 C785 1.561 . S
C788 C785 1.526 . S
C788 C789 1.396 1_554 S
C788 C793 1.390 1_554 S
C789 C783 1.465 . S
C789 C788 1.396 1_556 S
C789 C790 1.399 . S
C790 H776 0.929 . S
C790 C789 1.399 . S
C790 C791 1.385 . S
C791 H777 0.931 . S
C791 C790 1.385 . S
C791 C792 1.389 . S
C792 C791 1.389 . S
C792 C793 1.387 . S
C793 H778 0.930 1_556 S
C793 C788 1.390 1_556 S
C793 C792 1.387 . S
H794 C806 0.930 . S
H795 C808 0.930 . S
H796 C809 0.930 . S
H797 C813 0.959 . S
H798 C813 0.959 . S
H799 C813 0.961 . S
H800 C814 0.960 . S
H801 C814 0.961 . S
H802 C814 0.959 . S
H803 C817 0.929 . S
H804 C818 0.931 . S
H805 C820 0.930 . S
C806 H794 0.930 . S
C806 C807 1.399 . S
C806 C811 1.399 . S
C807 C806 1.399 . S
C807 C808 1.376 . S
C808 H795 0.930 . S
C808 C807 1.376 . S
C808 C809 1.388 . S
C809 H796 0.930 . S
C809 C808 1.388 . S
C809 C810 1.390 . S
C810 C809 1.390 . S
C810 C811 1.394 . S
C810 C816 1.465 . S
C811 C806 1.399 . S
C811 C810 1.394 . S
C811 C812 1.516 . S
C812 C811 1.516 . S
C812 C813 1.502 . S
C812 C814 1.561 . S
C812 C815 1.526 . S
C813 H797 0.959 . S
C813 H798 0.959 . S
C813 H799 0.961 . S
C813 C812 1.502 . S
C814 H800 0.960 . S
C814 H801 0.961 . S
C814 H802 0.959 . S
C814 C812 1.561 . S
C815 C812 1.526 . S
C815 C816 1.396 . S
C815 C820 1.390 . S
C816 C810 1.465 . S
C816 C815 1.396 . S
C816 C817 1.399 . S
C817 H803 0.929 . S
C817 C816 1.399 . S
C817 C818 1.385 . S
C818 H804 0.931 . S
C818 C817 1.385 . S
C818 C819 1.389 . S
C819 C818 1.389 . S
C819 C820 1.387 . S
C820 H805 0.930 . S
C820 C815 1.390 . S
C820 C819 1.387 . S
H821 C833 0.930 . S
H822 C835 0.930 . S
H823 C836 0.930 . S
H824 C840 0.959 . S
H825 C840 0.959 . S
H826 C840 0.961 . S
H827 C841 0.960 . S
H828 C841 0.961 . S
H829 C841 0.959 . S
H830 C844 0.929 . S
H831 C845 0.931 . S
H832 C847 0.930 . S
C833 H821 0.930 . S
C833 C834 1.399 . S
C833 C838 1.399 . S
C834 C833 1.399 . S
C834 C835 1.376 . S
C835 H822 0.930 . S
C835 C834 1.376 . S
C835 C836 1.388 . S
C836 H823 0.930 . S
C836 C835 1.388 . S
C836 C837 1.390 . S
C837 C836 1.390 . S
C837 C838 1.394 . S
C837 C843 1.465 . S
C838 C833 1.399 . S
C838 C837 1.394 . S
C838 C839 1.516 . S
C839 C838 1.516 . S
C839 C840 1.502 . S
C839 C841 1.561 . S
C839 C842 1.526 . S
C840 H824 0.959 . S
C840 H825 0.959 . S
C840 H826 0.961 . S
C840 C839 1.502 . S
C841 H827 0.960 . S
C841 H828 0.961 . S
C841 H829 0.959 . S
C841 C839 1.561 . S
C842 C839 1.526 . S
C842 C843 1.396 . S
C842 C847 1.390 . S
C843 C837 1.465 . S
C843 C842 1.396 . S
C843 C844 1.399 . S
C844 H830 0.929 . S
C844 C843 1.399 . S
C844 C845 1.385 . S
C845 H831 0.931 . S
C845 C844 1.385 . S
C845 C846 1.389 . S
C846 C845 1.389 . S
C846 C847 1.387 . S
C847 H832 0.930 . S
C847 C842 1.390 . S
C847 C846 1.387 . S
H848 C860 0.930 . S
H849 C862 0.930 . S
H850 C863 0.930 . S
H851 C867 0.959 . S
H852 C867 0.959 . S
H853 C867 0.961 . S
H854 C868 0.960 . S
H855 C868 0.961 . S
H856 C868 0.959 . S
H857 C871 0.929 . S
H858 C872 0.931 . S
H859 C874 0.930 . S
C860 H848 0.930 . S
C860 C861 1.399 . S
C860 C865 1.399 . S
C861 C860 1.399 . S
C861 C862 1.376 . S
C862 H849 0.930 . S
C862 C861 1.376 . S
C862 C863 1.388 . S
C863 H850 0.930 . S
C863 C862 1.388 . S
C863 C864 1.390 . S
C864 C863 1.390 . S
C864 C865 1.394 . S
C864 C870 1.465 . S
C865 C860 1.399 . S
C865 C864 1.394 . S
C865 C866 1.516 . S
C866 C865 1.516 . S
C866 C867 1.502 . S
C866 C868 1.561 . S
C866 C869 1.526 . S
C867 H851 0.959 . S
C867 H852 0.959 . S
C867 H853 0.961 . S
C867 C866 1.502 . S
C868 H854 0.960 . S
C868 H855 0.961 . S
C868 H856 0.959 . S
C868 C866 1.561 . S
C869 C866 1.526 . S
C869 C870 1.396 . S
C869 C874 1.390 . S
C870 C864 1.465 . S
C870 C869 1.396 . S
C870 C871 1.399 . S
C871 H857 0.929 . S
C871 C870 1.399 . S
C871 C872 1.385 . S
C872 H858 0.931 . S
C872 C871 1.385 . S
C872 C873 1.389 . S
C873 C872 1.389 . S
C873 C874 1.387 . S
C874 H859 0.930 . S
C874 C869 1.390 . S
C874 C873 1.387 . S
H875 C887 0.935 . S
H876 C889 0.930 . S
H877 C890 0.930 . S
H878 C894 0.959 . S
H879 C894 0.959 . S
H880 C894 0.961 . S
H881 C895 0.960 . S
H882 C895 0.961 . S
H883 C895 0.959 . S
H884 C898 0.929 . S
H885 C899 0.931 . S
H886 C901 0.930 . S
C887 H875 0.935 . S
C887 C888 1.399 . S
C887 C892 1.399 . S
C888 C887 1.399 . S
C888 C889 1.376 . S
C889 H876 0.930 . S
C889 C888 1.376 . S
C889 C890 1.388 . S
C890 H877 0.930 . S
C890 C889 1.388 . S
C890 C891 1.390 . S
C891 C890 1.390 . S
C891 C892 1.394 . S
C891 C897 1.465 . S
C892 C887 1.399 . S
C892 C891 1.394 . S
C892 C893 1.516 . S
C893 C892 1.516 . S
C893 C894 1.502 . S
C893 C895 1.561 . S
C893 C896 1.526 . S
C894 H878 0.959 . S
C894 H879 0.959 . S
C894 H880 0.961 . S
C894 C893 1.502 . S
C895 H881 0.960 . S
C895 H882 0.961 . S
C895 H883 0.959 . S
C895 C893 1.561 . S
C896 C893 1.526 . S
C896 C897 1.396 . S
C896 C901 1.390 . S
C897 C891 1.465 . S
C897 C896 1.396 . S
C897 C898 1.399 . S
C898 H884 0.929 . S
C898 C897 1.399 . S
C898 C899 1.385 . S
C899 H885 0.931 . S
C899 C898 1.385 . S
C899 C900 1.389 . S
C900 C899 1.389 . S
C900 C901 1.387 . S
C901 H886 0.930 . S
C901 C896 1.390 . S
C901 C900 1.387 . S
H902 C914 0.930 . S
H903 C916 0.930 . S
H904 C917 0.930 . S
H905 C921 0.959 . S
H906 C921 0.959 . S
H907 C921 0.961 . S
H908 C922 0.960 . S
H909 C922 0.961 . S
H910 C922 0.959 . S
H911 C925 0.929 . S
H912 C926 0.931 . S
H913 C928 0.930 . S
C914 H902 0.930 . S
C914 C915 1.399 . S
C914 C919 1.399 . S
C915 C914 1.399 . S
C915 C916 1.376 . S
C916 H903 0.930 . S
C916 C915 1.376 . S
C916 C917 1.388 . S
C917 H904 0.930 . S
C917 C916 1.388 . S
C917 C918 1.390 . S
C918 C917 1.390 . S
C918 C919 1.394 . S
C918 C924 1.465 . S
C919 C914 1.399 . S
C919 C918 1.394 . S
C919 C920 1.516 . S
C920 C919 1.516 . S
C920 C921 1.502 . S
C920 C922 1.561 . S
C920 C923 1.526 . S
C921 H905 0.959 . S
C921 H906 0.959 . S
C921 H907 0.961 . S
C921 C920 1.502 . S
C922 H908 0.960 . S
C922 H909 0.961 . S
C922 H910 0.959 . S
C922 C920 1.561 . S
C923 C920 1.526 . S
C923 C924 1.396 . S
C923 C928 1.390 . S
C924 C918 1.465 . S
C924 C923 1.396 . S
C924 C925 1.399 . S
C925 H911 0.929 . S
C925 C924 1.399 . S
C925 C926 1.385 . S
C926 H912 0.931 . S
C926 C925 1.385 . S
C926 C927 1.389 . S
C927 C926 1.389 . S
C927 C928 1.387 . S
C928 H913 0.930 . S
C928 C923 1.390 . S
C928 C927 1.387 . S
H929 C941 0.930 . S
H930 C943 0.930 . S
H931 C944 0.930 . S
H932 C948 0.959 . S
H933 C948 0.959 . S
H934 C948 0.961 . S
H935 C949 0.960 . S
H936 C949 0.961 . S
H937 C949 0.959 . S
H938 C952 0.929 . S
H939 C953 0.931 . S
H940 C955 0.930 . S
C941 H929 0.930 . S
C941 C942 1.399 . S
C941 C946 1.399 . S
C942 C941 1.399 . S
C942 C943 1.376 . S
C943 H930 0.930 . S
C943 C942 1.376 . S
C943 C944 1.388 . S
C944 H931 0.930 . S
C944 C943 1.388 . S
C944 C945 1.390 . S
C945 C944 1.390 . S
C945 C946 1.394 . S
C945 C951 1.465 . S
C946 C941 1.399 . S
C946 C945 1.394 . S
C946 C947 1.516 . S
C947 C946 1.516 . S
C947 C948 1.502 . S
C947 C949 1.561 . S
C947 C950 1.526 . S
C948 H932 0.959 . S
C948 H933 0.959 . S
C948 H934 0.961 . S
C948 C947 1.502 . S
C949 H935 0.960 . S
C949 H936 0.961 . S
C949 H937 0.959 . S
C949 C947 1.561 . S
C950 C947 1.526 . S
C950 C951 1.396 . S
C950 C955 1.390 . S
C951 C945 1.465 . S
C951 C950 1.396 . S
C951 C952 1.399 . S
C952 H938 0.929 . S
C952 C951 1.399 . S
C952 C953 1.385 . S
C953 H939 0.931 . S
C953 C952 1.385 . S
C953 C954 1.389 . S
C954 C953 1.389 . S
C954 C955 1.387 . S
C955 H940 0.930 . S
C955 C950 1.390 . S
C955 C954 1.387 . S
H956 C968 0.930 . S
H957 C970 0.930 . S
H958 C971 0.930 . S
H959 C975 0.959 . S
H960 C975 0.959 . S
H961 C975 0.961 . S
H962 C976 0.960 . S
H963 C976 0.961 . S
H964 C976 0.959 . S
H965 C979 0.929 . S
H966 C980 0.931 . S
H967 C982 0.930 . S
C968 H956 0.930 . S
C968 C969 1.399 . S
C968 C973 1.399 . S
C969 C968 1.399 . S
C969 C970 1.376 . S
C970 H957 0.930 . S
C970 C969 1.376 . S
C970 C971 1.388 . S
C971 H958 0.930 . S
C971 C970 1.388 . S
C971 C972 1.390 . S
C972 C971 1.390 . S
C972 C973 1.394 . S
C972 C978 1.465 . S
C973 C968 1.399 . S
C973 C972 1.394 . S
C973 C974 1.516 . S
C974 C973 1.516 . S
C974 C975 1.502 . S
C974 C976 1.561 . S
C974 C977 1.526 . S
C975 H959 0.959 . S
C975 H960 0.959 . S
C975 H961 0.961 . S
C975 C974 1.502 . S
C976 H962 0.960 . S
C976 H963 0.961 . S
C976 H964 0.959 . S
C976 C974 1.561 . S
C977 C974 1.526 . S
C977 C978 1.396 . S
C977 C982 1.390 . S
C978 C972 1.465 . S
C978 C977 1.396 . S
C978 C979 1.399 . S
C979 H965 0.929 . S
C979 C978 1.399 . S
C979 C980 1.385 . S
C980 H966 0.931 . S
C980 C979 1.385 . S
C980 C981 1.389 . S
C981 C980 1.389 . S
C981 C982 1.387 . S
C982 H967 0.930 . S
C982 C977 1.390 . S
C982 C981 1.387 . S
H983 C995 0.930 . S
H984 C997 0.930 . S
H985 C998 0.930 . S
H986 C1002 0.959 . S
H987 C1002 0.959 . S
H988 C1002 0.961 . S
H989 C1003 0.960 . S
H990 C1003 0.961 . S
H991 C1003 0.959 . S
H992 C1006 0.929 . S
H993 C1007 0.931 . S
H994 C1009 0.930 . S
C995 H983 0.930 . S
C995 C996 1.399 . S
C995 C1000 1.399 . S
C996 C995 1.399 . S
C996 C997 1.376 . S
C997 H984 0.930 . S
C997 C996 1.376 . S
C997 C998 1.388 . S
C998 H985 0.930 . S
C998 C997 1.388 . S
C998 C999 1.390 . S
C999 C998 1.390 . S
C999 C1000 1.394 . S
C999 C1005 1.465 . S
C1000 C995 1.399 . S
C1000 C999 1.394 . S
C1000 C1001 1.516 . S
C1001 C1000 1.516 . S
C1001 C1002 1.502 . S
C1001 C1003 1.561 . S
C1001 C1004 1.526 . S
C1002 H986 0.959 . S
C1002 H987 0.959 . S
C1002 H988 0.961 . S
C1002 C1001 1.502 . S
C1003 H989 0.960 . S
C1003 H990 0.961 . S
C1003 H991 0.959 . S
C1003 C1001 1.561 . S
C1004 C1001 1.526 . S
C1004 C1005 1.396 . S
C1004 C1009 1.390 . S
C1005 C999 1.465 . S
C1005 C1004 1.396 . S
C1005 C1006 1.399 . S
C1006 H992 0.929 . S
C1006 C1005 1.399 . S
C1006 C1007 1.385 . S
C1007 H993 0.931 . S
C1007 C1006 1.385 . S
C1007 C1008 1.389 . S
C1008 C1007 1.389 . S
C1008 C1009 1.387 . S
C1009 H994 0.930 . S
C1009 C1004 1.390 . S
C1009 C1008 1.387 . S
H1010 C1022 0.930 . S
H1011 C1024 0.930 . S
H1012 C1025 0.930 . S
H1013 C1029 0.959 . S
H1014 C1029 0.959 . S
H1015 C1029 0.961 . S
H1016 C1030 0.960 . S
H1017 C1030 0.961 . S
H1018 C1030 0.959 . S
H1019 C1033 0.929 . S
H1020 C1034 0.931 . S
H1021 C1036 0.930 . S
C1022 H1010 0.930 . S
C1022 C1023 1.399 . S
C1022 C1027 1.399 . S
C1023 C1022 1.399 . S
C1023 C1024 1.376 . S
C1024 H1011 0.930 . S
C1024 C1023 1.376 . S
C1024 C1025 1.388 . S
C1025 H1012 0.930 . S
C1025 C1024 1.388 . S
C1025 C1026 1.390 . S
C1026 C1025 1.390 . S
C1026 C1027 1.394 . S
C1026 C1032 1.465 . S
C1027 C1022 1.399 . S
C1027 C1026 1.394 . S
C1027 C1028 1.516 . S
C1028 C1027 1.516 . S
C1028 C1029 1.502 . S
C1028 C1030 1.561 . S
C1028 C1031 1.526 . S
C1029 H1013 0.959 . S
C1029 H1014 0.959 . S
C1029 H1015 0.961 . S
C1029 C1028 1.502 . S
C1030 H1016 0.960 . S
C1030 H1017 0.961 . S
C1030 H1018 0.959 . S
C1030 C1028 1.561 . S
C1031 C1028 1.526 . S
C1031 C1032 1.396 . S
C1031 C1036 1.390 . S
C1032 C1026 1.465 . S
C1032 C1031 1.396 . S
C1032 C1033 1.399 . S
C1033 H1019 0.929 . S
C1033 C1032 1.399 . S
C1033 C1034 1.385 . S
C1034 H1020 0.931 . S
C1034 C1033 1.385 . S
C1034 C1035 1.389 . S
C1035 C1034 1.389 . S
C1035 C1036 1.387 . S
C1036 H1021 0.930 . S
C1036 C1031 1.390 . S
C1036 C1035 1.387 . S
H1037 C1049 0.930 . S
H1038 C1051 0.930 . S
H1039 C1052 0.930 . S
H1040 C1056 0.959 . S
H1041 C1056 0.959 . S
H1042 C1056 0.961 . S
H1043 C1057 0.960 . S
H1044 C1057 0.961 . S
H1045 C1057 0.959 . S
H1046 C1060 0.929 . S
H1047 C1061 0.931 . S
H1048 C1063 0.930 . S
C1049 H1037 0.930 . S
C1049 C1050 1.399 . S
C1049 C1054 1.399 . S
C1050 C1049 1.399 . S
C1050 C1051 1.376 . S
C1051 H1038 0.930 . S
C1051 C1050 1.376 . S
C1051 C1052 1.388 . S
C1052 H1039 0.930 . S
C1052 C1051 1.388 . S
C1052 C1053 1.390 . S
C1053 C1052 1.390 . S
C1053 C1054 1.394 . S
C1053 C1059 1.465 . S
C1054 C1049 1.399 . S
C1054 C1053 1.394 . S
C1054 C1055 1.516 . S
C1055 C1054 1.516 . S
C1055 C1056 1.502 . S
C1055 C1057 1.561 . S
C1055 C1058 1.526 . S
C1056 H1040 0.959 . S
C1056 H1041 0.959 . S
C1056 H1042 0.961 . S
C1056 C1055 1.502 . S
C1057 H1043 0.960 . S
C1057 H1044 0.961 . S
C1057 H1045 0.959 . S
C1057 C1055 1.561 . S
C1058 C1055 1.526 . S
C1058 C1059 1.396 . S
C1058 C1063 1.390 . S
C1059 C1053 1.465 . S
C1059 C1058 1.396 . S
C1059 C1060 1.399 . S
C1060 H1046 0.929 . S
C1060 C1059 1.399 . S
C1060 C1061 1.385 . S
C1061 H1047 0.931 . S
C1061 C1060 1.385 . S
C1061 C1062 1.389 . S
C1062 C1061 1.389 . S
C1062 C1063 1.387 . S
C1063 H1048 0.930 . S
C1063 C1058 1.390 . S
C1063 C1062 1.387 . S
H1064 C1076 0.930 . S
H1065 C1078 0.930 . S
H1066 C1079 0.930 . S
H1067 C1083 0.959 . S
H1068 C1083 0.959 . S
H1069 C1083 0.961 . S
H1070 C1084 0.960 . S
H1071 C1084 0.961 . S
H1072 C1084 0.959 . S
H1073 C1087 0.929 . S
H1074 C1088 0.931 . S
H1075 C1090 0.930 . S
C1076 H1064 0.930 . S
C1076 C1077 1.399 . S
C1076 C1081 1.399 . S
C1077 C1076 1.399 . S
C1077 C1078 1.376 . S
C1078 H1065 0.930 . S
C1078 C1077 1.376 . S
C1078 C1079 1.388 . S
C1079 H1066 0.930 . S
C1079 C1078 1.388 . S
C1079 C1080 1.390 . S
C1080 C1079 1.390 . S
C1080 C1081 1.394 . S
C1080 C1086 1.465 . S
C1081 C1076 1.399 . S
C1081 C1080 1.394 . S
C1081 C1082 1.516 . S
C1082 C1081 1.516 . S
C1082 C1083 1.502 . S
C1082 C1084 1.561 . S
C1082 C1085 1.526 . S
C1083 H1067 0.959 . S
C1083 H1068 0.959 . S
C1083 H1069 0.961 . S
C1083 C1082 1.502 . S
C1084 H1070 0.960 . S
C1084 H1071 0.961 . S
C1084 H1072 0.959 . S
C1084 C1082 1.561 . S
C1085 C1082 1.526 . S
C1085 C1086 1.396 . S
C1085 C1090 1.390 . S
C1086 C1080 1.465 . S
C1086 C1085 1.396 . S
C1086 C1087 1.399 . S
C1087 H1073 0.929 . S
C1087 C1086 1.399 . S
C1087 C1088 1.385 . S
C1088 H1074 0.931 . S
C1088 C1087 1.385 . S
C1088 C1089 1.389 . S
C1089 C1088 1.389 . S
C1089 C1090 1.387 . S
C1090 H1075 0.930 . S
C1090 C1085 1.390 . S
C1090 C1089 1.387 . S
H1091 C1103 0.930 . S
H1092 C1105 0.930 . S
H1093 C1106 0.930 . S
H1094 C1110 0.959 . S
H1095 C1110 0.959 . S
H1096 C1110 0.961 . S
H1097 C1111 0.960 . S
H1098 C1111 0.961 . S
H1099 C1111 0.959 . S
H1100 C1114 0.929 . S
H1101 C1115 0.931 . S
H1102 C1117 0.930 . S
C1103 H1091 0.930 . S
C1103 C1104 1.399 . S
C1103 C1108 1.399 . S
C1104 C1103 1.399 . S
C1104 C1105 1.376 . S
C1105 H1092 0.930 . S
C1105 C1104 1.376 . S
C1105 C1106 1.388 . S
C1106 H1093 0.930 . S
C1106 C1105 1.388 . S
C1106 C1107 1.390 . S
C1107 C1106 1.390 . S
C1107 C1108 1.394 . S
C1107 C1113 1.465 . S
C1108 C1103 1.399 . S
C1108 C1107 1.394 . S
C1108 C1109 1.516 . S
C1109 C1108 1.516 . S
C1109 C1110 1.502 . S
C1109 C1111 1.561 . S
C1109 C1112 1.526 . S
C1110 H1094 0.959 . S
C1110 H1095 0.959 . S
C1110 H1096 0.961 . S
C1110 C1109 1.502 . S
C1111 H1097 0.960 . S
C1111 H1098 0.961 . S
C1111 H1099 0.959 . S
C1111 C1109 1.561 . S
C1112 C1109 1.526 . S
C1112 C1113 1.396 . S
C1112 C1117 1.390 . S
C1113 C1107 1.465 . S
C1113 C1112 1.396 . S
C1113 C1114 1.399 . S
C1114 H1100 0.929 . S
C1114 C1113 1.399 . S
C1114 C1115 1.385 . S
C1115 H1101 0.931 . S
C1115 C1114 1.385 . S
C1115 C1116 1.389 . S
C1116 C1115 1.389 . S
C1116 C1117 1.387 . S
C1117 H1102 0.930 . S
C1117 C1112 1.390 . S
C1117 C1116 1.387 . S
H1118 C1130 0.930 . S
H1119 C1132 0.930 . S
H1120 C1133 0.930 . S
H1121 C1137 0.959 . S
H1122 C1137 0.959 . S
H1123 C1137 0.961 . S
H1124 C1138 0.960 . S
H1125 C1138 0.961 . S
H1126 C1138 0.959 . S
H1127 C1141 0.929 . S
H1128 C1142 0.931 . S
H1129 C1144 0.930 . S
C1130 H1118 0.930 . S
C1130 C1131 1.399 . S
C1130 C1135 1.399 . S
C1131 C1130 1.399 . S
C1131 C1132 1.376 . S
C1132 H1119 0.930 . S
C1132 C1131 1.376 . S
C1132 C1133 1.388 . S
C1133 H1120 0.930 . S
C1133 C1132 1.388 . S
C1133 C1134 1.390 . S
C1134 C1133 1.390 . S
C1134 C1135 1.394 . S
C1134 C1140 1.465 . S
C1135 C1130 1.399 . S
C1135 C1134 1.394 . S
C1135 C1136 1.516 . S
C1136 C1135 1.516 . S
C1136 C1137 1.502 . S
C1136 C1138 1.561 . S
C1136 C1139 1.526 . S
C1137 H1121 0.959 . S
C1137 H1122 0.959 . S
C1137 H1123 0.961 . S
C1137 C1136 1.502 . S
C1138 H1124 0.960 . S
C1138 H1125 0.961 . S
C1138 H1126 0.959 . S
C1138 C1136 1.561 . S
C1139 C1136 1.526 . S
C1139 C1140 1.396 . S
C1139 C1144 1.390 . S
C1140 C1134 1.465 . S
C1140 C1139 1.396 . S
C1140 C1141 1.399 . S
C1141 H1127 0.929 . S
C1141 C1140 1.399 . S
C1141 C1142 1.385 1_556 S
C1142 H1128 0.931 . S
C1142 C1141 1.385 1_554 S
C1142 C1143 1.389 1_554 S
C1143 C1142 1.389 1_556 S
C1143 C1144 1.387 . S
C1144 H1129 0.930 . S
C1144 C1139 1.390 . S
C1144 C1143 1.387 . S
H1145 C1157 0.930 . S
H1146 C1159 0.930 . S
H1147 C1160 0.930 . S
H1148 C1164 0.959 . S
H1149 C1164 0.959 . S
H1150 C1164 0.961 . S
H1151 C1165 0.960 . S
H1152 C1165 0.961 . S
H1153 C1165 0.959 . S
H1154 C1168 0.929 . S
H1155 C1169 0.931 . S
H1156 C1171 0.930 1_556 S
C1157 H1145 0.930 . S
C1157 C1158 1.399 . S
C1157 C1162 1.399 . S
C1158 C1157 1.399 . S
C1158 C1159 1.376 . S
C1159 H1146 0.930 . S
C1159 C1158 1.376 . S
C1159 C1160 1.388 . S
C1160 H1147 0.930 . S
C1160 C1159 1.388 . S
C1160 C1161 1.390 . S
C1161 C1160 1.390 . S
C1161 C1162 1.394 . S
C1161 C1167 1.465 . S
C1162 C1157 1.399 . S
C1162 C1161 1.394 . S
C1162 C1163 1.516 . S
C1163 C1162 1.516 . S
C1163 C1164 1.502 . S
C1163 C1165 1.561 . S
C1163 C1166 1.526 . S
C1164 H1148 0.959 . S
C1164 H1149 0.959 . S
C1164 H1150 0.961 . S
C1164 C1163 1.502 . S
C1165 H1151 0.960 . S
C1165 H1152 0.961 . S
C1165 H1153 0.959 . S
C1165 C1163 1.561 . S
C1166 C1163 1.526 . S
C1166 C1167 1.396 . S
C1166 C1171 1.390 . S
C1167 C1161 1.465 . S
C1167 C1166 1.396 . S
C1167 C1168 1.399 . S
C1168 H1154 0.929 . S
C1168 C1167 1.399 . S
C1168 C1169 1.385 . S
C1169 H1155 0.931 . S
C1169 C1168 1.385 . S
C1169 C1170 1.389 . S
C1170 C1169 1.389 . S
C1170 C1171 1.387 . S
C1171 H1156 0.930 1_554 S
C1171 C1166 1.390 . S
C1171 C1170 1.387 . S
H1172 C1184 0.930 . S
H1173 C1186 0.930 . S
H1174 C1187 0.930 . S
H1175 C1191 0.959 . S
H1176 C1191 0.959 . S
H1177 C1191 0.961 . S
H1178 C1192 0.960 . S
H1179 C1192 0.961 . S
H1180 C1192 0.959 . S
H1181 C1195 0.929 . S
H1182 C1196 0.931 . S
H1183 C1198 0.930 . S
C1184 H1172 0.930 . S
C1184 C1185 1.399 . S
C1184 C1189 1.399 . S
C1185 C1184 1.399 . S
C1185 C1186 1.376 . S
C1186 H1173 0.930 . S
C1186 C1185 1.376 . S
C1186 C1187 1.388 . S
C1187 H1174 0.930 . S
C1187 C1186 1.388 . S
C1187 C1188 1.390 . S
C1188 C1187 1.390 . S
C1188 C1189 1.394 . S
C1188 C1194 1.465 . S
C1189 C1184 1.399 . S
C1189 C1188 1.394 . S
C1189 C1190 1.516 . S
C1190 C1189 1.516 . S
C1190 C1191 1.502 . S
C1190 C1192 1.561 . S
C1190 C1193 1.526 . S
C1191 H1175 0.959 . S
C1191 H1176 0.959 . S
C1191 H1177 0.961 . S
C1191 C1190 1.502 . S
C1192 H1178 0.960 . S
C1192 H1179 0.961 . S
C1192 H1180 0.959 . S
C1192 C1190 1.561 . S
C1193 C1190 1.526 . S
C1193 C1194 1.396 . S
C1193 C1198 1.390 . S
C1194 C1188 1.465 . S
C1194 C1193 1.396 . S
C1194 C1195 1.399 . S
C1195 H1181 0.929 . S
C1195 C1194 1.399 . S
C1195 C1196 1.385 . S
C1196 H1182 0.931 . S
C1196 C1195 1.385 . S
C1196 C1197 1.389 . S
C1197 C1196 1.389 . S
C1197 C1198 1.387 . S
C1198 H1183 0.930 . S
C1198 C1193 1.390 . S
C1198 C1197 1.387 . S
H1199 C1211 0.930 . S
H1200 C1213 0.930 . S
H1201 C1214 0.930 . S
H1202 C1218 0.959 . S
H1203 C1218 0.959 . S
H1204 C1218 0.961 . S
H1205 C1219 0.960 . S
H1206 C1219 0.961 . S
H1207 C1219 0.959 . S
H1208 C1222 0.929 . S
H1209 C1223 0.931 . S
H1210 C1225 0.930 . S
C1211 H1199 0.930 . S
C1211 C1212 1.399 . S
C1211 C1216 1.399 . S
C1212 C1211 1.399 . S
C1212 C1213 1.376 . S
C1213 H1200 0.930 . S
C1213 C1212 1.376 . S
C1213 C1214 1.388 . S
C1214 H1201 0.930 . S
C1214 C1213 1.388 . S
C1214 C1215 1.390 . S
C1215 C1214 1.390 . S
C1215 C1216 1.394 . S
C1215 C1221 1.465 . S
C1216 C1211 1.399 . S
C1216 C1215 1.394 . S
C1216 C1217 1.516 . S
C1217 C1216 1.516 . S
C1217 C1218 1.502 . S
C1217 C1219 1.561 . S
C1217 C1220 1.526 . S
C1218 H1202 0.959 . S
C1218 H1203 0.959 . S
C1218 H1204 0.961 . S
C1218 C1217 1.502 . S
C1219 H1205 0.960 . S
C1219 H1206 0.961 . S
C1219 H1207 0.959 . S
C1219 C1217 1.561 . S
C1220 C1217 1.526 . S
C1220 C1221 1.396 . S
C1220 C1225 1.390 . S
C1221 C1215 1.465 . S
C1221 C1220 1.396 . S
C1221 C1222 1.399 . S
C1222 H1208 0.929 . S
C1222 C1221 1.399 . S
C1222 C1223 1.385 . S
C1223 H1209 0.931 . S
C1223 C1222 1.385 . S
C1223 C1224 1.389 . S
C1224 C1223 1.389 . S
C1224 C1225 1.387 . S
C1225 H1210 0.930 . S
C1225 C1220 1.390 . S
C1225 C1224 1.387 . S
H1226 C1238 0.930 . S
H1227 C1240 0.929 1_556 S
H1228 C1241 0.930 . S
H1229 C1245 0.959 . S
H1230 C1245 0.959 . S
H1231 C1245 0.961 . S
H1232 C1246 0.960 . S
H1233 C1246 0.961 . S
H1234 C1246 0.959 . S
H1235 C1249 0.929 . S
H1236 C1250 0.931 . S
H1237 C1252 0.930 . S
C1238 H1226 0.930 . S
C1238 C1239 1.399 . S
C1238 C1243 1.399 . S
C1239 C1238 1.399 . S
C1239 C1240 1.376 . S
C1240 H1227 0.929 1_554 S
C1240 C1239 1.376 . S
C1240 C1241 1.388 . S
C1241 H1228 0.930 . S
C1241 C1240 1.388 . S
C1241 C1242 1.390 . S
C1242 C1241 1.390 . S
C1242 C1243 1.394 . S
C1242 C1248 1.465 . S
C1243 C1238 1.399 . S
C1243 C1242 1.394 . S
C1243 C1244 1.516 . S
C1244 C1243 1.516 . S
C1244 C1245 1.502 . S
C1244 C1246 1.561 . S
C1244 C1247 1.526 . S
C1245 H1229 0.959 . S
C1245 H1230 0.959 . S
C1245 H1231 0.961 . S
C1245 C1244 1.502 . S
C1246 H1232 0.960 . S
C1246 H1233 0.961 . S
C1246 H1234 0.959 . S
C1246 C1244 1.561 . S
C1247 C1244 1.526 . S
C1247 C1248 1.396 . S
C1247 C1252 1.390 . S
C1248 C1242 1.465 . S
C1248 C1247 1.396 . S
C1248 C1249 1.399 . S
C1249 H1235 0.929 . S
C1249 C1248 1.399 . S
C1249 C1250 1.385 . S
C1250 H1236 0.931 . S
C1250 C1249 1.385 . S
C1250 C1251 1.389 . S
C1251 C1250 1.389 . S
C1251 C1252 1.387 . S
C1252 H1237 0.930 . S
C1252 C1247 1.390 . S
C1252 C1251 1.387 . S
H1253 C1265 0.930 . S
H1254 C1267 0.930 . S
H1255 C1268 0.930 . S
H1256 C1272 0.959 . S
H1257 C1272 0.959 . S
H1258 C1272 0.961 . S
H1259 C1273 0.960 . S
H1260 C1273 0.961 . S
H1261 C1273 0.959 . S
H1262 C1276 0.929 . S
H1263 C1277 0.931 . S
H1264 C1279 0.930 . S
C1265 H1253 0.930 . S
C1265 C1266 1.399 . S
C1265 C1270 1.399 . S
C1266 C1265 1.399 . S
C1266 C1267 1.376 . S
C1267 H1254 0.930 . S
C1267 C1266 1.376 . S
C1267 C1268 1.388 . S
C1268 H1255 0.930 . S
C1268 C1267 1.388 . S
C1268 C1269 1.390 . S
C1269 C1268 1.390 . S
C1269 C1270 1.394 . S
C1269 C1275 1.465 . S
C1270 C1265 1.399 . S
C1270 C1269 1.394 . S
C1270 C1271 1.516 . S
C1271 C1270 1.516 . S
C1271 C1272 1.502 . S
C1271 C1273 1.561 . S
C1271 C1274 1.526 . S
C1272 H1256 0.959 . S
C1272 H1257 0.959 . S
C1272 H1258 0.961 . S
C1272 C1271 1.502 . S
C1273 H1259 0.960 . S
C1273 H1260 0.961 . S
C1273 H1261 0.959 . S
C1273 C1271 1.561 . S
C1274 C1271 1.526 . S
C1274 C1275 1.396 . S
C1274 C1279 1.390 . S
C1275 C1269 1.465 . S
C1275 C1274 1.396 . S
C1275 C1276 1.399 . S
C1276 H1262 0.929 . S
C1276 C1275 1.399 . S
C1276 C1277 1.385 . S
C1277 H1263 0.931 . S
C1277 C1276 1.385 . S
C1277 C1278 1.389 . S
C1278 C1277 1.389 . S
C1278 C1279 1.387 . S
C1279 H1264 0.930 . S
C1279 C1274 1.390 . S
C1279 C1278 1.387 . S
H1280 C1292 0.930 . S
H1281 C1294 0.930 . S
H1282 C1295 0.930 . S
H1283 C1299 0.959 . S
H1284 C1299 0.959 . S
H1285 C1299 0.961 . S
H1286 C1300 0.960 . S
H1287 C1300 0.961 . S
H1288 C1300 0.959 . S
H1289 C1303 0.929 . S
H1290 C1304 0.931 . S
H1291 C1306 0.930 . S
C1292 H1280 0.930 . S
C1292 C1293 1.399 . S
C1292 C1297 1.399 . S
C1293 C1292 1.399 . S
C1293 C1294 1.376 . S
C1294 H1281 0.930 . S
C1294 C1293 1.376 . S
C1294 C1295 1.388 . S
C1295 H1282 0.930 . S
C1295 C1294 1.388 . S
C1295 C1296 1.390 . S
C1296 C1295 1.390 . S
C1296 C1297 1.394 . S
C1296 C1302 1.465 . S
C1297 C1292 1.399 . S
C1297 C1296 1.394 . S
C1297 C1298 1.516 . S
C1298 C1297 1.516 . S
C1298 C1299 1.502 . S
C1298 C1300 1.561 . S
C1298 C1301 1.526 . S
C1299 H1283 0.959 . S
C1299 H1284 0.959 . S
C1299 H1285 0.961 . S
C1299 C1298 1.502 . S
C1300 H1286 0.960 . S
C1300 H1287 0.961 . S
C1300 H1288 0.959 . S
C1300 C1298 1.561 . S
C1301 C1298 1.526 . S
C1301 C1302 1.396 . S
C1301 C1306 1.390 . S
C1302 C1296 1.465 . S
C1302 C1301 1.396 . S
C1302 C1303 1.399 . S
C1303 H1289 0.929 . S
C1303 C1302 1.399 . S
C1303 C1304 1.385 . S
C1304 H1290 0.931 . S
C1304 C1303 1.385 . S
C1304 C1305 1.389 . S
C1305 C1304 1.389 . S
C1305 C1306 1.387 . S
C1306 H1291 0.930 . S
C1306 C1301 1.390 . S
C1306 C1305 1.387 . S
H1307 C1319 0.930 . S
H1308 C1321 0.930 . S
H1309 C1322 0.930 . S
H1310 C1326 0.962 . S
H1311 C1326 0.977 . S
H1312 C1326 0.942 1_655 S
H1313 C1327 0.960 1_655 S
H1314 C1327 0.961 . S
H1315 C1327 0.959 . S
H1316 C1330 0.929 . S
H1317 C1331 0.931 . S
H1318 C1333 0.930 . S
C1319 H1307 0.930 . S
C1319 C1320 1.399 . S
C1319 C1324 1.399 . S
C1320 C1319 1.399 . S
C1320 C1321 1.376 . S
C1321 H1308 0.930 . S
C1321 C1320 1.376 . S
C1321 C1322 1.388 . S
C1322 H1309 0.930 . S
C1322 C1321 1.388 . S
C1322 C1323 1.390 . S
C1323 C1322 1.390 . S
C1323 C1324 1.394 . S
C1323 C1329 1.465 1_655 S
C1324 C1319 1.399 . S
C1324 C1323 1.394 . S
C1324 C1325 1.519 1_655 S
C1325 C1324 1.519 1_455 S
C1325 C1326 1.502 . S
C1325 C1327 1.561 . S
C1325 C1328 1.523 . S
C1326 H1310 0.962 . S
C1326 H1311 0.977 . S
C1326 H1312 0.942 1_455 S
C1326 C1325 1.502 . S
C1327 H1313 0.960 1_455 S
C1327 H1314 0.961 . S
C1327 H1315 0.959 . S
C1327 C1325 1.561 . S
C1328 C1325 1.523 . S
C1328 C1329 1.396 . S
C1328 C1333 1.390 . S
C1329 C1323 1.465 1_455 S
C1329 C1328 1.396 . S
C1329 C1330 1.399 . S
C1330 H1316 0.929 . S
C1330 C1329 1.399 . S
C1330 C1331 1.385 . S
C1331 H1317 0.931 . S
C1331 C1330 1.385 . S
C1331 C1332 1.389 . S
C1332 C1331 1.389 . S
C1332 C1333 1.387 . S
C1333 H1318 0.930 . S
C1333 C1328 1.390 . S
C1333 C1332 1.387 . S
H1334 C1346 0.930 . S
H1335 C1348 0.930 . S
H1336 C1349 0.930 . S
H1337 C1353 0.959 . S
H1338 C1353 0.959 . S
H1339 C1353 0.961 . S
H1340 C1354 0.960 . S
H1341 C1354 0.961 . S
H1342 C1354 0.959 . S
H1343 C1357 0.929 . S
H1344 C1358 0.931 . S
H1345 C1360 0.930 . S
C1346 H1334 0.930 . S
C1346 C1347 1.399 . S
C1346 C1351 1.399 . S
C1347 C1346 1.399 . S
C1347 C1348 1.376 . S
C1348 H1335 0.930 . S
C1348 C1347 1.376 . S
C1348 C1349 1.388 . S
C1349 H1336 0.930 . S
C1349 C1348 1.388 . S
C1349 C1350 1.390 . S
C1350 C1349 1.390 . S
C1350 C1351 1.394 . S
C1350 C1356 1.465 . S
C1351 C1346 1.399 . S
C1351 C1350 1.394 . S
C1351 C1352 1.516 . S
C1352 C1351 1.516 . S
C1352 C1353 1.502 . S
C1352 C1354 1.561 . S
C1352 C1355 1.526 . S
C1353 H1337 0.959 . S
C1353 H1338 0.959 . S
C1353 H1339 0.961 . S
C1353 C1352 1.502 . S
C1354 H1340 0.960 . S
C1354 H1341 0.961 . S
C1354 H1342 0.959 . S
C1354 C1352 1.561 . S
C1355 C1352 1.526 . S
C1355 C1356 1.396 . S
C1355 C1360 1.390 . S
C1356 C1350 1.465 . S
C1356 C1355 1.396 . S
C1356 C1357 1.399 . S
C1357 H1343 0.929 . S
C1357 C1356 1.399 . S
C1357 C1358 1.385 . S
C1358 H1344 0.931 . S
C1358 C1357 1.385 . S
C1358 C1359 1.389 . S
C1359 C1358 1.389 . S
C1359 C1360 1.387 . S
C1360 H1345 0.930 . S
C1360 C1355 1.390 . S
C1360 C1359 1.387 . S
H1361 C1373 0.930 . S
H1362 C1375 0.930 . S
H1363 C1376 0.930 . S
H1364 C1380 0.959 . S
H1365 C1380 0.959 . S
H1366 C1380 0.961 . S
H1367 C1381 0.960 1_554 S
H1368 C1381 0.961 1_554 S
H1369 C1381 0.959 1_554 S
H1370 C1384 0.929 . S
H1371 C1385 0.931 . S
H1372 C1387 0.930 . S
C1373 H1361 0.930 . S
C1373 C1374 1.399 . S
C1373 C1378 1.399 . S
C1374 C1373 1.399 . S
C1374 C1375 1.376 . S
C1375 H1362 0.930 . S
C1375 C1374 1.376 . S
C1375 C1376 1.388 . S
C1376 H1363 0.930 . S
C1376 C1375 1.388 . S
C1376 C1377 1.390 . S
C1377 C1376 1.390 . S
C1377 C1378 1.394 . S
C1377 C1383 1.465 . S
C1378 C1373 1.399 . S
C1378 C1377 1.394 . S
C1378 C1379 1.516 . S
C1379 C1378 1.516 . S
C1379 C1380 1.502 . S
C1379 C1381 1.561 . S
C1379 C1382 1.526 . S
C1380 H1364 0.959 . S
C1380 H1365 0.959 . S
C1380 H1366 0.961 . S
C1380 C1379 1.502 . S
C1381 H1367 0.960 1_556 S
C1381 H1368 0.961 1_556 S
C1381 H1369 0.959 1_556 S
C1381 C1379 1.561 . S
C1382 C1379 1.526 . S
C1382 C1383 1.396 . S
C1382 C1387 1.390 . S
C1383 C1377 1.465 . S
C1383 C1382 1.396 . S
C1383 C1384 1.399 . S
C1384 H1370 0.929 . S
C1384 C1383 1.399 . S
C1384 C1385 1.385 . S
C1385 H1371 0.931 . S
C1385 C1384 1.385 . S
C1385 C1386 1.389 . S
C1386 C1385 1.389 . S
C1386 C1387 1.387 . S
C1387 H1372 0.930 . S
C1387 C1382 1.390 . S
C1387 C1386 1.387 . S
H1388 C1400 0.930 . S
H1389 C1402 0.930 . S
H1390 C1403 0.930 . S
H1391 C1407 0.959 . S
H1392 C1407 0.959 . S
H1393 C1407 0.961 . S
H1394 C1408 0.960 . S
H1395 C1408 0.961 . S
H1396 C1408 0.959 . S
H1397 C1411 0.929 . S
H1398 C1412 0.931 . S
H1399 C1414 0.930 . S
C1400 H1388 0.930 . S
C1400 C1401 1.399 . S
C1400 C1405 1.399 . S
C1401 C1400 1.399 . S
C1401 C1402 1.376 . S
C1402 H1389 0.930 . S
C1402 C1401 1.376 . S
C1402 C1403 1.388 . S
C1403 H1390 0.930 . S
C1403 C1402 1.388 . S
C1403 C1404 1.390 . S
C1404 C1403 1.390 . S
C1404 C1405 1.394 . S
C1404 C1410 1.465 . S
C1405 C1400 1.399 . S
C1405 C1404 1.394 . S
C1405 C1406 1.516 . S
C1406 C1405 1.516 . S
C1406 C1407 1.502 . S
C1406 C1408 1.561 . S
C1406 C1409 1.526 . S
C1407 H1391 0.959 . S
C1407 H1392 0.959 . S
C1407 H1393 0.961 . S
C1407 C1406 1.502 . S
C1408 H1394 0.960 . S
C1408 H1395 0.961 . S
C1408 H1396 0.959 . S
C1408 C1406 1.561 . S
C1409 C1406 1.526 . S
C1409 C1410 1.396 . S
C1409 C1414 1.390 . S
C1410 C1404 1.465 . S
C1410 C1409 1.396 . S
C1410 C1411 1.399 . S
C1411 H1397 0.929 . S
C1411 C1410 1.399 . S
C1411 C1412 1.385 . S
C1412 H1398 0.931 . S
C1412 C1411 1.385 . S
C1412 C1413 1.389 . S
C1413 C1412 1.389 . S
C1413 C1414 1.387 . S
C1414 H1399 0.930 . S
C1414 C1409 1.390 . S
C1414 C1413 1.387 . S
H1415 C1427 0.930 . S
H1416 C1429 0.930 . S
H1417 C1430 0.930 . S
H1418 C1434 0.959 . S
H1419 C1434 0.959 . S
H1420 C1434 0.961 . S
H1421 C1435 0.960 . S
H1422 C1435 0.961 . S
H1423 C1435 0.959 . S
H1424 C1438 0.929 . S
H1425 C1439 0.931 . S
H1426 C1441 0.930 . S
C1427 H1415 0.930 . S
C1427 C1428 1.399 . S
C1427 C1432 1.399 . S
C1428 C1427 1.399 . S
C1428 C1429 1.376 . S
C1429 H1416 0.930 . S
C1429 C1428 1.376 . S
C1429 C1430 1.388 . S
C1430 H1417 0.930 . S
C1430 C1429 1.388 . S
C1430 C1431 1.390 . S
C1431 C1430 1.390 . S
C1431 C1432 1.394 . S
C1431 C1437 1.465 . S
C1432 C1427 1.399 . S
C1432 C1431 1.394 . S
C1432 C1433 1.516 . S
C1433 C1432 1.516 . S
C1433 C1434 1.502 . S
C1433 C1435 1.561 . S
C1433 C1436 1.526 . S
C1434 H1418 0.959 . S
C1434 H1419 0.959 . S
C1434 H1420 0.961 . S
C1434 C1433 1.502 . S
C1435 H1421 0.960 . S
C1435 H1422 0.961 . S
C1435 H1423 0.959 . S
C1435 C1433 1.561 . S
C1436 C1433 1.526 . S
C1436 C1437 1.396 . S
C1436 C1441 1.390 . S
C1437 C1431 1.465 . S
C1437 C1436 1.396 . S
C1437 C1438 1.399 . S
C1438 H1424 0.929 . S
C1438 C1437 1.399 . S
C1438 C1439 1.385 . S
C1439 H1425 0.931 . S
C1439 C1438 1.385 . S
C1439 C1440 1.389 . S
C1440 C1439 1.389 . S
C1440 C1441 1.387 . S
C1441 H1426 0.930 . S
C1441 C1436 1.390 . S
C1441 C1440 1.387 . S
H1442 C1454 0.930 . S
H1443 C1456 0.930 . S
H1444 C1457 0.930 . S
H1445 C1461 0.959 . S
H1446 C1461 0.959 . S
H1447 C1461 0.961 . S
H1448 C1462 0.960 . S
H1449 C1462 0.961 . S
H1450 C1462 0.959 . S
H1451 C1465 0.929 . S
H1452 C1466 0.931 . S
H1453 C1468 0.930 . S
C1454 H1442 0.930 . S
C1454 C1455 1.399 . S
C1454 C1459 1.399 . S
C1455 C1454 1.399 . S
C1455 C1456 1.376 . S
C1456 H1443 0.930 . S
C1456 C1455 1.376 . S
C1456 C1457 1.388 . S
C1457 H1444 0.930 . S
C1457 C1456 1.388 . S
C1457 C1458 1.390 . S
C1458 C1457 1.390 . S
C1458 C1459 1.394 . S
C1458 C1464 1.465 . S
C1459 C1454 1.399 . S
C1459 C1458 1.394 . S
C1459 C1460 1.516 . S
C1460 C1459 1.516 . S
C1460 C1461 1.502 . S
C1460 C1462 1.561 . S
C1460 C1463 1.526 . S
C1461 H1445 0.959 . S
C1461 H1446 0.959 . S
C1461 H1447 0.961 . S
C1461 C1460 1.502 . S
C1462 H1448 0.960 . S
C1462 H1449 0.961 . S
C1462 H1450 0.959 . S
C1462 C1460 1.561 . S
C1463 C1460 1.526 . S
C1463 C1464 1.396 . S
C1463 C1468 1.390 . S
C1464 C1458 1.465 . S
C1464 C1463 1.396 . S
C1464 C1465 1.399 . S
C1465 H1451 0.929 . S
C1465 C1464 1.399 . S
C1465 C1466 1.385 . S
C1466 H1452 0.931 . S
C1466 C1465 1.385 . S
C1466 C1467 1.389 . S
C1467 C1466 1.389 . S
C1467 C1468 1.387 . S
C1468 H1453 0.930 . S
C1468 C1463 1.390 . S
C1468 C1467 1.387 . S
H1469 C1481 0.930 . S
H1470 C1483 0.930 . S
H1471 C1484 0.930 . S
H1472 C1488 0.962 . S
H1473 C1488 0.977 . S
H1474 C1488 0.942 1_655 S
H1475 C1489 0.960 1_655 S
H1476 C1489 0.961 . S
H1477 C1489 0.959 . S
H1478 C1492 0.929 . S
H1479 C1493 0.931 . S
H1480 C1495 0.930 . S
C1481 H1469 0.930 . S
C1481 C1482 1.399 . S
C1481 C1486 1.399 . S
C1482 C1481 1.399 . S
C1482 C1483 1.376 . S
C1483 H1470 0.930 . S
C1483 C1482 1.376 . S
C1483 C1484 1.388 . S
C1484 H1471 0.930 . S
C1484 C1483 1.388 . S
C1484 C1485 1.390 . S
C1485 C1484 1.390 . S
C1485 C1486 1.394 . S
C1485 C1491 1.465 1_655 S
C1486 C1481 1.399 . S
C1486 C1485 1.394 . S
C1486 C1487 1.519 1_655 S
C1487 C1486 1.519 1_455 S
C1487 C1488 1.502 . S
C1487 C1489 1.561 . S
C1487 C1490 1.523 . S
C1488 H1472 0.962 . S
C1488 H1473 0.977 . S
C1488 H1474 0.942 1_455 S
C1488 C1487 1.502 . S
C1489 H1475 0.960 1_455 S
C1489 H1476 0.961 . S
C1489 H1477 0.959 . S
C1489 C1487 1.561 . S
C1490 C1487 1.523 . S
C1490 C1491 1.396 . S
C1490 C1495 1.390 . S
C1491 C1485 1.465 1_455 S
C1491 C1490 1.396 . S
C1491 C1492 1.399 . S
C1492 H1478 0.929 . S
C1492 C1491 1.399 . S
C1492 C1493 1.385 . S
C1493 H1479 0.931 . S
C1493 C1492 1.385 . S
C1493 C1494 1.389 . S
C1494 C1493 1.389 . S
C1494 C1495 1.387 . S
C1495 H1480 0.930 . S
C1495 C1490 1.390 . S
C1495 C1494 1.387 . S
H1496 C1508 0.930 . S
H1497 C1510 0.930 . S
H1498 C1511 0.930 . S
H1499 C1515 0.959 . S
H1500 C1515 0.959 . S
H1501 C1515 0.961 . S
H1502 C1516 0.960 . S
H1503 C1516 0.961 . S
H1504 C1516 0.959 . S
H1505 C1519 0.929 . S
H1506 C1520 0.931 . S
H1507 C1522 0.930 . S
C1508 H1496 0.930 . S
C1508 C1509 1.399 . S
C1508 C1513 1.399 . S
C1509 C1508 1.399 . S
C1509 C1510 1.376 . S
C1510 H1497 0.930 . S
C1510 C1509 1.376 . S
C1510 C1511 1.388 . S
C1511 H1498 0.930 . S
C1511 C1510 1.388 . S
C1511 C1512 1.390 . S
C1512 C1511 1.390 . S
C1512 C1513 1.394 . S
C1512 C1518 1.465 . S
C1513 C1508 1.399 . S
C1513 C1512 1.394 . S
C1513 C1514 1.516 . S
C1514 C1513 1.516 . S
C1514 C1515 1.502 . S
C1514 C1516 1.561 . S
C1514 C1517 1.526 . S
C1515 H1499 0.959 . S
C1515 H1500 0.959 . S
C1515 H1501 0.961 . S
C1515 C1514 1.502 . S
C1516 H1502 0.960 . S
C1516 H1503 0.961 . S
C1516 H1504 0.959 . S
C1516 C1514 1.561 . S
C1517 C1514 1.526 . S
C1517 C1518 1.396 . S
C1517 C1522 1.390 . S
C1518 C1512 1.465 . S
C1518 C1517 1.396 . S
C1518 C1519 1.399 . S
C1519 H1505 0.929 . S
C1519 C1518 1.399 . S
C1519 C1520 1.385 . S
C1520 H1506 0.931 . S
C1520 C1519 1.385 . S
C1520 C1521 1.389 . S
C1521 C1520 1.389 . S
C1521 C1522 1.387 . S
C1522 H1507 0.930 . S
C1522 C1517 1.390 . S
C1522 C1521 1.387 . S
H1523 C1535 0.930 . S
H1524 C1537 0.930 . S
H1525 C1538 0.930 . S
H1526 C1542 0.959 . S
H1527 C1542 0.959 . S
H1528 C1542 0.961 . S
H1529 C1543 0.960 . S
H1530 C1543 0.961 . S
H1531 C1543 0.959 . S
H1532 C1546 0.929 . S
H1533 C1547 0.931 . S
H1534 C1549 0.930 . S
C1535 H1523 0.930 . S
C1535 C1536 1.399 . S
C1535 C1540 1.399 . S
C1536 C1535 1.399 . S
C1536 C1537 1.376 . S
C1537 H1524 0.930 . S
C1537 C1536 1.376 . S
C1537 C1538 1.388 . S
C1538 H1525 0.930 . S
C1538 C1537 1.388 . S
C1538 C1539 1.390 . S
C1539 C1538 1.390 . S
C1539 C1540 1.394 . S
C1539 C1545 1.465 . S
C1540 C1535 1.399 . S
C1540 C1539 1.394 . S
C1540 C1541 1.516 . S
C1541 C1540 1.516 . S
C1541 C1542 1.502 . S
C1541 C1543 1.561 . S
C1541 C1544 1.526 . S
C1542 H1526 0.959 . S
C1542 H1527 0.959 . S
C1542 H1528 0.961 . S
C1542 C1541 1.502 . S
C1543 H1529 0.960 . S
C1543 H1530 0.961 . S
C1543 H1531 0.959 . S
C1543 C1541 1.561 . S
C1544 C1541 1.526 . S
C1544 C1545 1.396 . S
C1544 C1549 1.390 . S
C1545 C1539 1.465 . S
C1545 C1544 1.396 . S
C1545 C1546 1.399 . S
C1546 H1532 0.929 . S
C1546 C1545 1.399 . S
C1546 C1547 1.385 . S
C1547 H1533 0.931 . S
C1547 C1546 1.385 . S
C1547 C1548 1.389 . S
C1548 C1547 1.389 . S
C1548 C1549 1.387 . S
C1549 H1534 0.930 . S
C1549 C1544 1.390 . S
C1549 C1548 1.387 . S
H1550 C1562 0.930 . S
H1551 C1564 0.930 . S
H1552 C1565 0.930 . S
H1553 C1569 0.959 . S
H1554 C1569 0.959 . S
H1555 C1569 0.961 . S
H1556 C1570 0.960 . S
H1557 C1570 0.961 . S
H1558 C1570 0.959 . S
H1559 C1573 0.929 . S
H1560 C1574 0.931 . S
H1561 C1576 0.930 . S
C1562 H1550 0.930 . S
C1562 C1563 1.399 . S
C1562 C1567 1.399 . S
C1563 C1562 1.399 . S
C1563 C1564 1.376 . S
C1564 H1551 0.930 . S
C1564 C1563 1.376 . S
C1564 C1565 1.388 . S
C1565 H1552 0.930 . S
C1565 C1564 1.388 . S
C1565 C1566 1.390 . S
C1566 C1565 1.390 . S
C1566 C1567 1.394 . S
C1566 C1572 1.465 . S
C1567 C1562 1.399 . S
C1567 C1566 1.394 . S
C1567 C1568 1.516 . S
C1568 C1567 1.516 . S
C1568 C1569 1.502 . S
C1568 C1570 1.561 . S
C1568 C1571 1.526 . S
C1569 H1553 0.959 . S
C1569 H1554 0.959 . S
C1569 H1555 0.961 . S
C1569 C1568 1.502 . S
C1570 H1556 0.960 . S
C1570 H1557 0.961 . S
C1570 H1558 0.959 . S
C1570 C1568 1.561 . S
C1571 C1568 1.526 . S
C1571 C1572 1.396 . S
C1571 C1576 1.390 . S
C1572 C1566 1.465 . S
C1572 C1571 1.396 . S
C1572 C1573 1.399 . S
C1573 H1559 0.929 . S
C1573 C1572 1.399 . S
C1573 C1574 1.385 . S
C1574 H1560 0.931 . S
C1574 C1573 1.385 . S
C1574 C1575 1.389 . S
C1575 C1574 1.389 . S
C1575 C1576 1.387 . S
C1576 H1561 0.930 . S
C1576 C1571 1.390 . S
C1576 C1575 1.387 . S
H1577 C1589 0.930 . S
H1578 C1591 0.930 . S
H1579 C1592 0.930 . S
H1580 C1596 0.959 . S
H1581 C1596 0.959 . S
H1582 C1596 0.961 . S
H1583 C1597 0.960 . S
H1584 C1597 0.961 . S
H1585 C1597 0.959 . S
H1586 C1600 0.929 . S
H1587 C1601 0.931 . S
H1588 C1603 0.930 . S
C1589 H1577 0.930 . S
C1589 C1590 1.399 . S
C1589 C1594 1.399 . S
C1590 C1589 1.399 . S
C1590 C1591 1.376 . S
C1591 H1578 0.930 . S
C1591 C1590 1.376 . S
C1591 C1592 1.388 . S
C1592 H1579 0.930 . S
C1592 C1591 1.388 . S
C1592 C1593 1.390 . S
C1593 C1592 1.390 . S
C1593 C1594 1.394 . S
C1593 C1599 1.465 . S
C1594 C1589 1.399 . S
C1594 C1593 1.394 . S
C1594 C1595 1.516 . S
C1595 C1594 1.516 . S
C1595 C1596 1.502 . S
C1595 C1597 1.561 . S
C1595 C1598 1.526 . S
C1596 H1580 0.959 . S
C1596 H1581 0.959 . S
C1596 H1582 0.961 . S
C1596 C1595 1.502 . S
C1597 H1583 0.960 . S
C1597 H1584 0.961 . S
C1597 H1585 0.959 . S
C1597 C1595 1.561 . S
C1598 C1595 1.526 . S
C1598 C1599 1.396 . S
C1598 C1603 1.390 . S
C1599 C1593 1.465 . S
C1599 C1598 1.396 . S
C1599 C1600 1.399 . S
C1600 H1586 0.929 . S
C1600 C1599 1.399 . S
C1600 C1601 1.385 . S
C1601 H1587 0.931 . S
C1601 C1600 1.385 . S
C1601 C1602 1.389 . S
C1602 C1601 1.389 . S
C1602 C1603 1.387 . S
C1603 H1588 0.930 . S
C1603 C1598 1.390 . S
C1603 C1602 1.387 . S
H1604 C1616 0.930 . S
H1605 C1618 0.930 . S
H1606 C1619 0.930 . S
H1607 C1623 0.959 . S
H1608 C1623 0.959 . S
H1609 C1623 0.961 . S
H1610 C1624 0.960 . S
H1611 C1624 0.961 . S
H1612 C1624 0.959 . S
H1613 C1627 0.929 . S
H1614 C1628 0.931 . S
H1615 C1630 0.930 . S
C1616 H1604 0.930 . S
C1616 C1617 1.399 . S
C1616 C1621 1.399 . S
C1617 C1616 1.399 . S
C1617 C1618 1.376 . S
C1618 H1605 0.930 . S
C1618 C1617 1.376 . S
C1618 C1619 1.388 . S
C1619 H1606 0.930 . S
C1619 C1618 1.388 . S
C1619 C1620 1.390 . S
C1620 C1619 1.390 . S
C1620 C1621 1.394 . S
C1620 C1626 1.465 . S
C1621 C1616 1.399 . S
C1621 C1620 1.394 . S
C1621 C1622 1.516 . S
C1622 C1621 1.516 . S
C1622 C1623 1.502 . S
C1622 C1624 1.561 1_556 S
C1622 C1625 1.526 . S
C1623 H1607 0.959 . S
C1623 H1608 0.959 . S
C1623 H1609 0.961 . S
C1623 C1622 1.502 . S
C1624 H1610 0.960 . S
C1624 H1611 0.961 . S
C1624 H1612 0.959 . S
C1624 C1622 1.561 1_554 S
C1625 C1622 1.526 . S
C1625 C1626 1.396 . S
C1625 C1630 1.390 . S
C1626 C1620 1.465 . S
C1626 C1625 1.396 . S
C1626 C1627 1.399 . S
C1627 H1613 0.929 . S
C1627 C1626 1.399 . S
C1627 C1628 1.385 . S
C1628 H1614 0.931 . S
C1628 C1627 1.385 . S
C1628 C1629 1.389 . S
C1629 C1628 1.389 . S
C1629 C1630 1.387 . S
C1630 H1615 0.930 . S
C1630 C1625 1.390 . S
C1630 C1629 1.387 . S
H1631 C1643 0.930 . S
H1632 C1645 0.930 . S
H1633 C1646 0.930 . S
H1634 C1650 0.962 . S
H1635 C1650 0.977 . S
H1636 C1650 0.942 1_655 S
H1637 C1651 0.960 1_655 S
H1638 C1651 0.961 . S
H1639 C1651 0.959 . S
H1640 C1654 0.929 . S
H1641 C1655 0.931 . S
H1642 C1657 0.930 . S
C1643 H1631 0.930 . S
C1643 C1644 1.399 . S
C1643 C1648 1.399 . S
C1644 C1643 1.399 . S
C1644 C1645 1.376 . S
C1645 H1632 0.930 . S
C1645 C1644 1.376 . S
C1645 C1646 1.388 . S
C1646 H1633 0.930 . S
C1646 C1645 1.388 . S
C1646 C1647 1.390 . S
C1647 C1646 1.390 . S
C1647 C1648 1.394 . S
C1647 C1653 1.465 1_655 S
C1648 C1643 1.399 . S
C1648 C1647 1.394 . S
C1648 C1649 1.519 1_655 S
C1649 C1648 1.519 1_455 S
C1649 C1650 1.502 . S
C1649 C1651 1.561 . S
C1649 C1652 1.523 . S
C1650 H1634 0.962 . S
C1650 H1635 0.977 . S
C1650 H1636 0.942 1_455 S
C1650 C1649 1.502 . S
C1651 H1637 0.960 1_455 S
C1651 H1638 0.961 . S
C1651 H1639 0.959 . S
C1651 C1649 1.561 . S
C1652 C1649 1.523 . S
C1652 C1653 1.396 . S
C1652 C1657 1.390 . S
C1653 C1647 1.465 1_455 S
C1653 C1652 1.396 . S
C1653 C1654 1.399 . S
C1654 H1640 0.929 . S
C1654 C1653 1.399 . S
C1654 C1655 1.385 . S
C1655 H1641 0.931 . S
C1655 C1654 1.385 . S
C1655 C1656 1.389 . S
C1656 C1655 1.389 . S
C1656 C1657 1.387 . S
C1657 H1642 0.930 . S
C1657 C1652 1.390 . S
C1657 C1656 1.387 . S
H1658 C1670 0.930 . S
H1659 C1672 0.930 . S
H1660 C1673 0.930 . S
H1661 C1677 0.962 . S
H1662 C1677 0.977 . S
H1663 C1677 0.942 1_655 S
H1664 C1678 0.960 1_655 S
H1665 C1678 0.961 . S
H1666 C1678 0.959 . S
H1667 C1681 0.929 . S
H1668 C1682 0.931 . S
H1669 C1684 0.930 . S
C1670 H1658 0.930 . S
C1670 C1671 1.399 . S
C1670 C1675 1.399 . S
C1671 C1670 1.399 . S
C1671 C1672 1.376 . S
C1672 H1659 0.930 . S
C1672 C1671 1.376 . S
C1672 C1673 1.388 . S
C1673 H1660 0.930 . S
C1673 C1672 1.388 . S
C1673 C1674 1.390 . S
C1674 C1673 1.390 . S
C1674 C1675 1.394 . S
C1674 C1680 1.465 1_655 S
C1675 C1670 1.399 . S
C1675 C1674 1.394 . S
C1675 C1676 1.519 1_655 S
C1676 C1675 1.519 1_455 S
C1676 C1677 1.502 . S
C1676 C1678 1.561 . S
C1676 C1679 1.523 . S
C1677 H1661 0.962 . S
C1677 H1662 0.977 . S
C1677 H1663 0.942 1_455 S
C1677 C1676 1.502 . S
C1678 H1664 0.960 1_455 S
C1678 H1665 0.961 . S
C1678 H1666 0.959 . S
C1678 C1676 1.561 . S
C1679 C1676 1.523 . S
C1679 C1680 1.396 . S
C1679 C1684 1.390 . S
C1680 C1674 1.465 1_455 S
C1680 C1679 1.396 . S
C1680 C1681 1.399 . S
C1681 H1667 0.929 . S
C1681 C1680 1.399 . S
C1681 C1682 1.385 . S
C1682 H1668 0.931 . S
C1682 C1681 1.385 . S
C1682 C1683 1.389 . S
C1683 C1682 1.389 . S
C1683 C1684 1.387 . S
C1684 H1669 0.930 . S
C1684 C1679 1.390 . S
C1684 C1683 1.387 . S
H1685 C1697 0.930 . S
H1686 C1699 0.930 . S
H1687 C1700 0.930 . S
H1688 C1704 0.959 . S
H1689 C1704 0.959 . S
H1690 C1704 0.961 . S
H1691 C1705 0.960 . S
H1692 C1705 0.961 . S
H1693 C1705 0.959 . S
H1694 C1708 0.929 . S
H1695 C1709 0.931 . S
H1696 C1711 0.930 . S
C1697 H1685 0.930 . S
C1697 C1698 1.399 . S
C1697 C1702 1.399 . S
C1698 C1697 1.399 . S
C1698 C1699 1.376 . S
C1699 H1686 0.930 . S
C1699 C1698 1.376 . S
C1699 C1700 1.388 . S
C1700 H1687 0.930 . S
C1700 C1699 1.388 . S
C1700 C1701 1.390 . S
C1701 C1700 1.390 . S
C1701 C1702 1.394 . S
C1701 C1707 1.465 . S
C1702 C1697 1.399 . S
C1702 C1701 1.394 . S
C1702 C1703 1.516 . S
C1703 C1702 1.516 . S
C1703 C1704 1.502 . S
C1703 C1705 1.561 . S
C1703 C1706 1.526 . S
C1704 H1688 0.959 . S
C1704 H1689 0.959 . S
C1704 H1690 0.961 . S
C1704 C1703 1.502 . S
C1705 H1691 0.960 . S
C1705 H1692 0.961 . S
C1705 H1693 0.959 . S
C1705 C1703 1.561 . S
C1706 C1703 1.526 . S
C1706 C1707 1.396 . S
C1706 C1711 1.390 . S
C1707 C1701 1.465 . S
C1707 C1706 1.396 . S
C1707 C1708 1.399 . S
C1708 H1694 0.929 . S
C1708 C1707 1.399 . S
C1708 C1709 1.385 . S
C1709 H1695 0.931 . S
C1709 C1708 1.385 . S
C1709 C1710 1.389 . S
C1710 C1709 1.389 . S
C1710 C1711 1.387 . S
C1711 H1696 0.930 . S
C1711 C1706 1.390 . S
C1711 C1710 1.387 . S
H1712 C1724 0.930 . S
H1713 C1726 0.930 . S
H1714 C1727 0.930 . S
H1715 C1731 0.959 . S
H1716 C1731 0.959 . S
H1717 C1731 0.961 . S
H1718 C1732 0.960 . S
H1719 C1732 0.961 . S
H1720 C1732 0.959 . S
H1721 C1735 0.929 . S
H1722 C1736 0.931 . S
H1723 C1738 0.930 . S
C1724 H1712 0.930 . S
C1724 C1725 1.399 . S
C1724 C1729 1.399 . S
C1725 C1724 1.399 . S
C1725 C1726 1.376 . S
C1726 H1713 0.930 . S
C1726 C1725 1.376 . S
C1726 C1727 1.388 . S
C1727 H1714 0.930 . S
C1727 C1726 1.388 . S
C1727 C1728 1.390 . S
C1728 C1727 1.390 . S
C1728 C1729 1.394 . S
C1728 C1734 1.465 . S
C1729 C1724 1.399 . S
C1729 C1728 1.394 . S
C1729 C1730 1.516 . S
C1730 C1729 1.516 . S
C1730 C1731 1.502 . S
C1730 C1732 1.561 . S
C1730 C1733 1.526 . S
C1731 H1715 0.959 . S
C1731 H1716 0.959 . S
C1731 H1717 0.961 . S
C1731 C1730 1.502 . S
C1732 H1718 0.960 . S
C1732 H1719 0.961 . S
C1732 H1720 0.959 . S
C1732 C1730 1.561 . S
C1733 C1730 1.526 . S
C1733 C1734 1.396 . S
C1733 C1738 1.390 . S
C1734 C1728 1.465 . S
C1734 C1733 1.396 . S
C1734 C1735 1.399 . S
C1735 H1721 0.929 . S
C1735 C1734 1.399 . S
C1735 C1736 1.385 . S
C1736 H1722 0.931 . S
C1736 C1735 1.385 . S
C1736 C1737 1.389 . S
C1737 C1736 1.389 . S
C1737 C1738 1.387 . S
C1738 H1723 0.930 . S
C1738 C1733 1.390 . S
C1738 C1737 1.387 . S
H1739 C1751 0.930 . S
H1740 C1753 0.930 . S
H1741 C1754 0.930 . S
H1742 C1758 0.959 . S
H1743 C1758 0.959 . S
H1744 C1758 0.961 . S
H1745 C1759 0.960 . S
H1746 C1759 0.961 . S
H1747 C1759 0.959 . S
H1748 C1762 0.929 . S
H1749 C1763 0.931 . S
H1750 C1765 0.930 . S
C1751 H1739 0.930 . S
C1751 C1752 1.399 . S
C1751 C1756 1.399 . S
C1752 C1751 1.399 . S
C1752 C1753 1.376 . S
C1753 H1740 0.930 . S
C1753 C1752 1.376 . S
C1753 C1754 1.388 . S
C1754 H1741 0.930 . S
C1754 C1753 1.388 . S
C1754 C1755 1.390 . S
C1755 C1754 1.390 . S
C1755 C1756 1.394 . S
C1755 C1761 1.465 . S
C1756 C1751 1.399 . S
C1756 C1755 1.394 . S
C1756 C1757 1.516 . S
C1757 C1756 1.516 . S
C1757 C1758 1.502 . S
C1757 C1759 1.561 . S
C1757 C1760 1.526 . S
C1758 H1742 0.959 . S
C1758 H1743 0.959 . S
C1758 H1744 0.961 . S
C1758 C1757 1.502 . S
C1759 H1745 0.960 . S
C1759 H1746 0.961 . S
C1759 H1747 0.959 . S
C1759 C1757 1.561 . S
C1760 C1757 1.526 . S
C1760 C1761 1.396 . S
C1760 C1765 1.390 . S
C1761 C1755 1.465 . S
C1761 C1760 1.396 . S
C1761 C1762 1.399 . S
C1762 H1748 0.929 . S
C1762 C1761 1.399 . S
C1762 C1763 1.385 . S
C1763 H1749 0.931 . S
C1763 C1762 1.385 . S
C1763 C1764 1.389 . S
C1764 C1763 1.389 . S
C1764 C1765 1.387 . S
C1765 H1750 0.930 . S
C1765 C1760 1.390 . S
C1765 C1764 1.387 . S
H1766 C1778 0.930 . S
H1767 C1780 0.930 1_554 S
H1768 C1781 0.930 . S
H1769 C1785 0.959 . S
H1770 C1785 0.959 . S
H1771 C1785 0.961 . S
H1772 C1786 0.960 . S
H1773 C1786 0.961 . S
H1774 C1786 0.959 . S
H1775 C1789 0.929 . S
H1776 C1790 0.931 . S
H1777 C1792 0.930 . S
C1778 H1766 0.930 . S
C1778 C1779 1.399 . S
C1778 C1783 1.399 . S
C1779 C1778 1.399 . S
C1779 C1780 1.376 . S
C1780 H1767 0.930 1_556 S
C1780 C1779 1.376 . S
C1780 C1781 1.388 . S
C1781 H1768 0.930 . S
C1781 C1780 1.388 . S
C1781 C1782 1.390 . S
C1782 C1781 1.390 . S
C1782 C1783 1.394 . S
C1782 C1788 1.465 . S
C1783 C1778 1.399 . S
C1783 C1782 1.394 . S
C1783 C1784 1.516 . S
C1784 C1783 1.516 . S
C1784 C1785 1.502 . S
C1784 C1786 1.561 . S
C1784 C1787 1.526 . S
C1785 H1769 0.959 . S
C1785 H1770 0.959 . S
C1785 H1771 0.961 . S
C1785 C1784 1.502 . S
C1786 H1772 0.960 . S
C1786 H1773 0.961 . S
C1786 H1774 0.959 . S
C1786 C1784 1.561 . S
C1787 C1784 1.526 . S
C1787 C1788 1.396 . S
C1787 C1792 1.390 . S
C1788 C1782 1.465 . S
C1788 C1787 1.396 . S
C1788 C1789 1.399 . S
C1789 H1775 0.929 . S
C1789 C1788 1.399 . S
C1789 C1790 1.385 . S
C1790 H1776 0.931 . S
C1790 C1789 1.385 . S
C1790 C1791 1.389 . S
C1791 C1790 1.389 . S
C1791 C1792 1.387 . S
C1792 H1777 0.930 . S
C1792 C1787 1.390 . S
C1792 C1791 1.387 . S
H1793 C1805 0.930 . S
H1794 C1807 0.930 1_556 S
H1795 C1808 0.930 . S
H1796 C1812 0.959 . S
H1797 C1812 0.959 . S
H1798 C1812 0.961 . S
H1799 C1813 0.960 . S
H1800 C1813 0.961 . S
H1801 C1813 0.959 . S
H1802 C1816 0.929 . S
H1803 C1817 0.931 . S
H1804 C1819 0.930 . S
C1805 H1793 0.930 . S
C1805 C1806 1.399 . S
C1805 C1810 1.399 . S
C1806 C1805 1.399 . S
C1806 C1807 1.376 . S
C1807 H1794 0.930 1_554 S
C1807 C1806 1.376 . S
C1807 C1808 1.388 . S
C1808 H1795 0.930 . S
C1808 C1807 1.388 . S
C1808 C1809 1.390 . S
C1809 C1808 1.390 . S
C1809 C1810 1.394 . S
C1809 C1815 1.465 . S
C1810 C1805 1.399 . S
C1810 C1809 1.394 . S
C1810 C1811 1.516 . S
C1811 C1810 1.516 . S
C1811 C1812 1.502 . S
C1811 C1813 1.561 . S
C1811 C1814 1.526 . S
C1812 H1796 0.959 . S
C1812 H1797 0.959 . S
C1812 H1798 0.961 . S
C1812 C1811 1.502 . S
C1813 H1799 0.960 . S
C1813 H1800 0.961 . S
C1813 H1801 0.959 . S
C1813 C1811 1.561 . S
C1814 C1811 1.526 . S
C1814 C1815 1.396 . S
C1814 C1819 1.390 . S
C1815 C1809 1.465 . S
C1815 C1814 1.396 . S
C1815 C1816 1.399 . S
C1816 H1802 0.929 . S
C1816 C1815 1.399 . S
C1816 C1817 1.385 . S
C1817 H1803 0.931 . S
C1817 C1816 1.385 . S
C1817 C1818 1.389 . S
C1818 C1817 1.389 . S
C1818 C1819 1.387 . S
C1819 H1804 0.930 . S
C1819 C1814 1.390 . S
C1819 C1818 1.387 . S
H1820 C1832 0.930 . S
H1821 C1834 0.930 . S
H1822 C1835 0.930 . S
H1823 C1839 0.959 . S
H1824 C1839 0.959 . S
H1825 C1839 0.961 . S
H1826 C1840 0.960 . S
H1827 C1840 0.961 . S
H1828 C1840 0.959 . S
H1829 C1843 0.929 . S
H1830 C1844 0.931 . S
H1831 C1846 0.930 . S
C1832 H1820 0.930 . S
C1832 C1833 1.399 . S
C1832 C1837 1.399 . S
C1833 C1832 1.399 . S
C1833 C1834 1.376 . S
C1834 H1821 0.930 . S
C1834 C1833 1.376 . S
C1834 C1835 1.388 . S
C1835 H1822 0.930 . S
C1835 C1834 1.388 . S
C1835 C1836 1.390 . S
C1836 C1835 1.390 . S
C1836 C1837 1.394 . S
C1836 C1842 1.465 . S
C1837 C1832 1.399 . S
C1837 C1836 1.394 . S
C1837 C1838 1.516 . S
C1838 C1837 1.516 . S
C1838 C1839 1.502 . S
C1838 C1840 1.561 . S
C1838 C1841 1.526 . S
C1839 H1823 0.959 . S
C1839 H1824 0.959 . S
C1839 H1825 0.961 . S
C1839 C1838 1.502 . S
C1840 H1826 0.960 . S
C1840 H1827 0.961 . S
C1840 H1828 0.959 . S
C1840 C1838 1.561 . S
C1841 C1838 1.526 . S
C1841 C1842 1.396 . S
C1841 C1846 1.390 . S
C1842 C1836 1.465 . S
C1842 C1841 1.396 . S
C1842 C1843 1.399 . S
C1843 H1829 0.929 . S
C1843 C1842 1.399 . S
C1843 C1844 1.385 . S
C1844 H1830 0.931 . S
C1844 C1843 1.385 . S
C1844 C1845 1.389 . S
C1845 C1844 1.389 . S
C1845 C1846 1.387 . S
C1846 H1831 0.930 . S
C1846 C1841 1.390 . S
C1846 C1845 1.387 . S
H1847 C1859 0.930 . S
H1848 C1861 0.930 . S
H1849 C1862 0.930 . S
H1850 C1866 0.959 . S
H1851 C1866 0.959 . S
H1852 C1866 0.961 . S
H1853 C1867 0.960 . S
H1854 C1867 0.961 . S
H1855 C1867 0.959 . S
H1856 C1870 0.929 . S
H1857 C1871 0.931 . S
H1858 C1873 0.930 . S
C1859 H1847 0.930 . S
C1859 C1860 1.399 . S
C1859 C1864 1.399 . S
C1860 C1859 1.399 . S
C1860 C1861 1.376 . S
C1861 H1848 0.930 . S
C1861 C1860 1.376 . S
C1861 C1862 1.388 . S
C1862 H1849 0.930 . S
C1862 C1861 1.388 . S
C1862 C1863 1.390 . S
C1863 C1862 1.390 . S
C1863 C1864 1.394 . S
C1863 C1869 1.465 . S
C1864 C1859 1.399 . S
C1864 C1863 1.394 . S
C1864 C1865 1.516 . S
C1865 C1864 1.516 . S
C1865 C1866 1.502 . S
C1865 C1867 1.561 . S
C1865 C1868 1.526 . S
C1866 H1850 0.959 . S
C1866 H1851 0.959 . S
C1866 H1852 0.961 . S
C1866 C1865 1.502 . S
C1867 H1853 0.960 . S
C1867 H1854 0.961 . S
C1867 H1855 0.959 . S
C1867 C1865 1.561 . S
C1868 C1865 1.526 . S
C1868 C1869 1.396 . S
C1868 C1873 1.390 . S
C1869 C1863 1.465 . S
C1869 C1868 1.396 . S
C1869 C1870 1.399 . S
C1870 H1856 0.929 . S
C1870 C1869 1.399 . S
C1870 C1871 1.385 . S
C1871 H1857 0.931 . S
C1871 C1870 1.385 . S
C1871 C1872 1.389 . S
C1872 C1871 1.389 . S
C1872 C1873 1.387 . S
C1873 H1858 0.930 . S
C1873 C1868 1.390 . S
C1873 C1872 1.387 . S
H1874 C1886 0.930 . S
H1875 C1888 0.930 . S
H1876 C1889 0.930 . S
H1877 C1893 0.959 . S
H1878 C1893 0.959 . S
H1879 C1893 0.961 . S
H1880 C1894 0.960 . S
H1881 C1894 0.961 . S
H1882 C1894 0.959 . S
H1883 C1897 0.929 . S
H1884 C1898 0.931 1_556 S
H1885 C1900 0.930 . S
C1886 H1874 0.930 . S
C1886 C1887 1.399 . S
C1886 C1891 1.399 . S
C1887 C1886 1.399 . S
C1887 C1888 1.376 . S
C1888 H1875 0.930 . S
C1888 C1887 1.376 . S
C1888 C1889 1.388 . S
C1889 H1876 0.930 . S
C1889 C1888 1.388 . S
C1889 C1890 1.390 . S
C1890 C1889 1.390 . S
C1890 C1891 1.394 . S
C1890 C1896 1.465 . S
C1891 C1886 1.399 . S
C1891 C1890 1.394 . S
C1891 C1892 1.516 . S
C1892 C1891 1.516 . S
C1892 C1893 1.502 . S
C1892 C1894 1.561 . S
C1892 C1895 1.526 . S
C1893 H1877 0.959 . S
C1893 H1878 0.959 . S
C1893 H1879 0.961 . S
C1893 C1892 1.502 . S
C1894 H1880 0.960 . S
C1894 H1881 0.961 . S
C1894 H1882 0.959 . S
C1894 C1892 1.561 . S
C1895 C1892 1.526 . S
C1895 C1896 1.396 . S
C1895 C1900 1.390 . S
C1896 C1890 1.465 . S
C1896 C1895 1.396 . S
C1896 C1897 1.399 . S
C1897 H1883 0.929 . S
C1897 C1896 1.399 . S
C1897 C1898 1.385 . S
C1898 H1884 0.931 1_554 S
C1898 C1897 1.385 . S
C1898 C1899 1.389 . S
C1899 C1898 1.389 . S
C1899 C1900 1.387 . S
C1900 H1885 0.930 . S
C1900 C1895 1.390 . S
C1900 C1899 1.387 . S
H1901 C1913 0.930 . S
H1902 C1915 0.930 . S
H1903 C1916 0.930 . S
H1904 C1920 0.959 . S
H1905 C1920 0.959 . S
H1906 C1920 0.961 . S
H1907 C1921 0.960 . S
H1908 C1921 0.961 . S
H1909 C1921 0.959 . S
H1910 C1924 0.929 . S
H1911 C1925 0.931 . S
H1912 C1927 0.930 . S
C1913 H1901 0.930 . S
C1913 C1914 1.399 . S
C1913 C1918 1.399 . S
C1914 C1913 1.399 . S
C1914 C1915 1.376 . S
C1915 H1902 0.930 . S
C1915 C1914 1.376 . S
C1915 C1916 1.388 . S
C1916 H1903 0.930 . S
C1916 C1915 1.388 . S
C1916 C1917 1.390 . S
C1917 C1916 1.390 . S
C1917 C1918 1.394 . S
C1917 C1923 1.465 . S
C1918 C1913 1.399 . S
C1918 C1917 1.394 . S
C1918 C1919 1.516 . S
C1919 C1918 1.516 . S
C1919 C1920 1.502 . S
C1919 C1921 1.561 . S
C1919 C1922 1.526 . S
C1920 H1904 0.959 . S
C1920 H1905 0.959 . S
C1920 H1906 0.961 . S
C1920 C1919 1.502 . S
C1921 H1907 0.960 . S
C1921 H1908 0.961 . S
C1921 H1909 0.959 . S
C1921 C1919 1.561 . S
C1922 C1919 1.526 . S
C1922 C1923 1.396 . S
C1922 C1927 1.390 . S
C1923 C1917 1.465 . S
C1923 C1922 1.396 . S
C1923 C1924 1.399 . S
C1924 H1910 0.929 . S
C1924 C1923 1.399 . S
C1924 C1925 1.385 1_556 S
C1925 H1911 0.931 . S
C1925 C1924 1.385 1_554 S
C1925 C1926 1.389 1_554 S
C1926 C1925 1.389 1_556 S
C1926 C1927 1.387 . S
C1927 H1912 0.930 . S
C1927 C1922 1.390 . S
C1927 C1926 1.387 . S
H1928 C1940 0.930 . S
H1929 C1942 0.930 . S
H1930 C1943 0.930 . S
H1931 C1947 0.959 . S
H1932 C1947 0.959 . S
H1933 C1947 0.961 . S
H1934 C1948 0.960 . S
H1935 C1948 0.961 . S
H1936 C1948 0.959 . S
H1937 C1951 0.929 . S
H1938 C1952 0.931 . S
H1939 C1954 0.930 . S
C1940 H1928 0.930 . S
C1940 C1941 1.399 . S
C1940 C1945 1.399 . S
C1941 C1940 1.399 . S
C1941 C1942 1.376 . S
C1942 H1929 0.930 . S
C1942 C1941 1.376 . S
C1942 C1943 1.388 . S
C1943 H1930 0.930 . S
C1943 C1942 1.388 . S
C1943 C1944 1.390 . S
C1944 C1943 1.390 . S
C1944 C1945 1.394 . S
C1944 C1950 1.465 . S
C1945 C1940 1.399 . S
C1945 C1944 1.394 . S
C1945 C1946 1.516 . S
C1946 C1945 1.516 . S
C1946 C1947 1.502 . S
C1946 C1948 1.561 . S
C1946 C1949 1.526 . S
C1947 H1931 0.959 . S
C1947 H1932 0.959 . S
C1947 H1933 0.961 . S
C1947 C1946 1.502 . S
C1948 H1934 0.960 . S
C1948 H1935 0.961 . S
C1948 H1936 0.959 . S
C1948 C1946 1.561 . S
C1949 C1946 1.526 . S
C1949 C1950 1.396 . S
C1949 C1954 1.390 . S
C1950 C1944 1.465 . S
C1950 C1949 1.396 . S
C1950 C1951 1.399 . S
C1951 H1937 0.929 . S
C1951 C1950 1.399 . S
C1951 C1952 1.385 . S
C1952 H1938 0.931 . S
C1952 C1951 1.385 . S
C1952 C1953 1.389 . S
C1953 C1952 1.389 . S
C1953 C1954 1.387 . S
C1954 H1939 0.930 . S
C1954 C1949 1.390 . S
C1954 C1953 1.387 . S
H1955 C1967 0.930 . S
H1956 C1969 0.930 . S
H1957 C1970 0.930 . S
H1958 C1974 0.959 . S
H1959 C1974 0.959 . S
H1960 C1974 0.961 . S
H1961 C1975 0.960 . S
H1962 C1975 0.961 . S
H1963 C1975 0.959 . S
H1964 C1978 0.929 . S
H1965 C1979 0.931 1_556 S
H1966 C1981 0.930 . S
C1967 H1955 0.930 . S
C1967 C1968 1.399 . S
C1967 C1972 1.399 . S
C1968 C1967 1.399 . S
C1968 C1969 1.376 . S
C1969 H1956 0.930 . S
C1969 C1968 1.376 . S
C1969 C1970 1.388 . S
C1970 H1957 0.930 . S
C1970 C1969 1.388 . S
C1970 C1971 1.390 . S
C1971 C1970 1.390 . S
C1971 C1972 1.394 . S
C1971 C1977 1.465 . S
C1972 C1967 1.399 . S
C1972 C1971 1.394 . S
C1972 C1973 1.516 . S
C1973 C1972 1.516 . S
C1973 C1974 1.502 . S
C1973 C1975 1.561 . S
C1973 C1976 1.526 . S
C1974 H1958 0.959 . S
C1974 H1959 0.959 . S
C1974 H1960 0.961 . S
C1974 C1973 1.502 . S
C1975 H1961 0.960 . S
C1975 H1962 0.961 . S
C1975 H1963 0.959 . S
C1975 C1973 1.561 . S
C1976 C1973 1.526 . S
C1976 C1977 1.396 . S
C1976 C1981 1.390 . S
C1977 C1971 1.465 . S
C1977 C1976 1.396 . S
C1977 C1978 1.399 . S
C1978 H1964 0.929 . S
C1978 C1977 1.399 . S
C1978 C1979 1.385 . S
C1979 H1965 0.931 1_554 S
C1979 C1978 1.385 . S
C1979 C1980 1.389 . S
C1980 C1979 1.389 . S
C1980 C1981 1.387 . S
C1981 H1966 0.930 . S
C1981 C1976 1.390 . S
C1981 C1980 1.387 . S
H1982 C1994 0.930 . S
H1983 C1996 0.930 . S
H1984 C1997 0.930 . S
H1985 C2001 0.959 . S
H1986 C2001 0.959 . S
H1987 C2001 0.961 . S
H1988 C2002 0.960 . S
H1989 C2002 0.961 . S
H1990 C2002 0.959 . S
H1991 C2005 0.929 . S
H1992 C2006 0.931 . S
H1993 C2008 0.930 . S
C1994 H1982 0.930 . S
C1994 C1995 1.399 . S
C1994 C1999 1.399 . S
C1995 C1994 1.399 . S
C1995 C1996 1.376 . S
C1996 H1983 0.930 . S
C1996 C1995 1.376 . S
C1996 C1997 1.388 . S
C1997 H1984 0.930 . S
C1997 C1996 1.388 . S
C1997 C1998 1.390 . S
C1998 C1997 1.390 . S
C1998 C1999 1.394 . S
C1998 C2004 1.465 . S
C1999 C1994 1.399 . S
C1999 C1998 1.394 . S
C1999 C2000 1.516 . S
C2000 C1999 1.516 . S
C2000 C2001 1.502 . S
C2000 C2002 1.561 . S
C2000 C2003 1.526 . S
C2001 H1985 0.959 . S
C2001 H1986 0.959 . S
C2001 H1987 0.961 . S
C2001 C2000 1.502 . S
C2002 H1988 0.960 . S
C2002 H1989 0.961 . S
C2002 H1990 0.959 . S
C2002 C2000 1.561 . S
C2003 C2000 1.526 . S
C2003 C2004 1.396 . S
C2003 C2008 1.390 . S
C2004 C1998 1.465 . S
C2004 C2003 1.396 . S
C2004 C2005 1.399 . S
C2005 H1991 0.929 . S
C2005 C2004 1.399 . S
C2005 C2006 1.385 . S
C2006 H1992 0.931 . S
C2006 C2005 1.385 . S
C2006 C2007 1.389 . S
C2007 C2006 1.389 . S
C2007 C2008 1.387 . S
C2008 H1993 0.930 . S
C2008 C2003 1.390 . S
C2008 C2007 1.387 . S
H2009 C2021 0.930 . S
H2010 C2023 0.930 . S
H2011 C2024 0.930 . S
H2012 C2028 0.959 . S
H2013 C2028 0.959 . S
H2014 C2028 0.961 . S
H2015 C2029 0.960 . S
H2016 C2029 0.961 . S
H2017 C2029 0.959 . S
H2018 C2032 0.929 . S
H2019 C2033 0.931 . S
H2020 C2035 0.930 . S
C2021 H2009 0.930 . S
C2021 C2022 1.399 . S
C2021 C2026 1.399 . S
C2022 C2021 1.399 . S
C2022 C2023 1.376 . S
C2023 H2010 0.930 . S
C2023 C2022 1.376 . S
C2023 C2024 1.388 . S
C2024 H2011 0.930 . S
C2024 C2023 1.388 . S
C2024 C2025 1.390 . S
C2025 C2024 1.390 . S
C2025 C2026 1.394 . S
C2025 C2031 1.465 . S
C2026 C2021 1.399 . S
C2026 C2025 1.394 . S
C2026 C2027 1.516 . S
C2027 C2026 1.516 . S
C2027 C2028 1.502 . S
C2027 C2029 1.561 . S
C2027 C2030 1.526 . S
C2028 H2012 0.959 . S
C2028 H2013 0.959 . S
C2028 H2014 0.961 . S
C2028 C2027 1.502 . S
C2029 H2015 0.960 . S
C2029 H2016 0.961 . S
C2029 H2017 0.959 . S
C2029 C2027 1.561 . S
C2030 C2027 1.526 . S
C2030 C2031 1.396 . S
C2030 C2035 1.390 . S
C2031 C2025 1.465 . S
C2031 C2030 1.396 . S
C2031 C2032 1.399 . S
C2032 H2018 0.929 . S
C2032 C2031 1.399 . S
C2032 C2033 1.385 . S
C2033 H2019 0.931 . S
C2033 C2032 1.385 . S
C2033 C2034 1.389 . S
C2034 C2033 1.389 . S
C2034 C2035 1.387 . S
C2035 H2020 0.930 . S
C2035 C2030 1.390 . S
C2035 C2034 1.387 . S
H2036 C2048 0.930 . S
H2037 C2050 0.930 . S
H2038 C2051 0.930 . S
H2039 C2055 0.959 . S
H2040 C2055 0.959 . S
H2041 C2055 0.961 . S
H2042 C2056 0.960 . S
H2043 C2056 0.961 . S
H2044 C2056 0.959 . S
H2045 C2059 0.929 . S
H2046 C2060 0.931 1_556 S
H2047 C2062 0.930 . S
C2048 H2036 0.930 . S
C2048 C2049 1.399 . S
C2048 C2053 1.399 . S
C2049 C2048 1.399 . S
C2049 C2050 1.376 . S
C2050 H2037 0.930 . S
C2050 C2049 1.376 . S
C2050 C2051 1.388 . S
C2051 H2038 0.930 . S
C2051 C2050 1.388 . S
C2051 C2052 1.390 . S
C2052 C2051 1.390 . S
C2052 C2053 1.394 . S
C2052 C2058 1.465 . S
C2053 C2048 1.399 . S
C2053 C2052 1.394 . S
C2053 C2054 1.516 . S
C2054 C2053 1.516 . S
C2054 C2055 1.502 . S
C2054 C2056 1.561 . S
C2054 C2057 1.526 . S
C2055 H2039 0.959 . S
C2055 H2040 0.959 . S
C2055 H2041 0.961 . S
C2055 C2054 1.502 . S
C2056 H2042 0.960 . S
C2056 H2043 0.961 . S
C2056 H2044 0.959 . S
C2056 C2054 1.561 . S
C2057 C2054 1.526 . S
C2057 C2058 1.396 . S
C2057 C2062 1.390 . S
C2058 C2052 1.465 . S
C2058 C2057 1.396 . S
C2058 C2059 1.399 . S
C2059 H2045 0.929 . S
C2059 C2058 1.399 . S
C2059 C2060 1.385 . S
C2060 H2046 0.931 1_554 S
C2060 C2059 1.385 . S
C2060 C2061 1.389 . S
C2061 C2060 1.389 . S
C2061 C2062 1.387 . S
C2062 H2047 0.930 . S
C2062 C2057 1.390 . S
C2062 C2061 1.387 . S
H2063 C2075 0.930 . S
H2064 C2077 0.930 . S
H2065 C2078 0.930 . S
H2066 C2082 0.959 . S
H2067 C2082 0.959 . S
H2068 C2082 0.961 . S
H2069 C2083 0.960 . S
H2070 C2083 0.961 . S
H2071 C2083 0.959 . S
H2072 C2086 0.929 . S
H2073 C2087 0.931 . S
H2074 C2089 0.930 . S
C2075 H2063 0.930 . S
C2075 C2076 1.399 . S
C2075 C2080 1.399 . S
C2076 C2075 1.399 . S
C2076 C2077 1.376 . S
C2077 H2064 0.930 . S
C2077 C2076 1.376 . S
C2077 C2078 1.388 . S
C2078 H2065 0.930 . S
C2078 C2077 1.388 . S
C2078 C2079 1.390 . S
C2079 C2078 1.390 . S
C2079 C2080 1.394 . S
C2079 C2085 1.465 . S
C2080 C2075 1.399 . S
C2080 C2079 1.394 . S
C2080 C2081 1.516 . S
C2081 C2080 1.516 . S
C2081 C2082 1.502 . S
C2081 C2083 1.561 . S
C2081 C2084 1.526 . S
C2082 H2066 0.959 . S
C2082 H2067 0.959 . S
C2082 H2068 0.961 . S
C2082 C2081 1.502 . S
C2083 H2069 0.960 . S
C2083 H2070 0.961 . S
C2083 H2071 0.959 . S
C2083 C2081 1.561 . S
C2084 C2081 1.526 . S
C2084 C2085 1.396 . S
C2084 C2089 1.390 . S
C2085 C2079 1.465 . S
C2085 C2084 1.396 . S
C2085 C2086 1.399 . S
C2086 H2072 0.929 . S
C2086 C2085 1.399 . S
C2086 C2087 1.385 . S
C2087 H2073 0.931 . S
C2087 C2086 1.385 . S
C2087 C2088 1.389 . S
C2088 C2087 1.389 . S
C2088 C2089 1.387 . S
C2089 H2074 0.930 . S
C2089 C2084 1.390 . S
C2089 C2088 1.387 . S
H2090 C2102 0.930 . S
H2091 C2104 0.930 . S
H2092 C2105 0.930 . S
H2093 C2109 0.959 . S
H2094 C2109 0.959 . S
H2095 C2109 0.961 . S
H2096 C2110 0.960 . S
H2097 C2110 0.961 . S
H2098 C2110 0.959 . S
H2099 C2113 0.929 . S
H2100 C2114 0.931 . S
H2101 C2116 0.930 . S
C2102 H2090 0.930 . S
C2102 C2103 1.399 . S
C2102 C2107 1.399 . S
C2103 C2102 1.399 . S
C2103 C2104 1.376 . S
C2104 H2091 0.930 . S
C2104 C2103 1.376 . S
C2104 C2105 1.388 . S
C2105 H2092 0.930 . S
C2105 C2104 1.388 . S
C2105 C2106 1.390 . S
C2106 C2105 1.390 . S
C2106 C2107 1.394 . S
C2106 C2112 1.465 . S
C2107 C2102 1.399 . S
C2107 C2106 1.394 . S
C2107 C2108 1.516 . S
C2108 C2107 1.516 . S
C2108 C2109 1.502 . S
C2108 C2110 1.561 . S
C2108 C2111 1.526 . S
C2109 H2093 0.959 . S
C2109 H2094 0.959 . S
C2109 H2095 0.961 . S
C2109 C2108 1.502 . S
C2110 H2096 0.960 . S
C2110 H2097 0.961 . S
C2110 H2098 0.959 . S
C2110 C2108 1.561 . S
C2111 C2108 1.526 . S
C2111 C2112 1.396 . S
C2111 C2116 1.390 . S
C2112 C2106 1.465 . S
C2112 C2111 1.396 . S
C2112 C2113 1.399 . S
C2113 H2099 0.929 . S
C2113 C2112 1.399 . S
C2113 C2114 1.385 . S
C2114 H2100 0.931 . S
C2114 C2113 1.385 . S
C2114 C2115 1.389 . S
C2115 C2114 1.389 . S
C2115 C2116 1.387 . S
C2116 H2101 0.930 . S
C2116 C2111 1.390 . S
C2116 C2115 1.387 . S
H2117 C2129 0.930 . S
H2118 C2131 0.930 . S
H2119 C2132 0.930 . S
H2120 C2136 0.959 . S
H2121 C2136 0.959 . S
H2122 C2136 0.961 . S
H2123 C2137 0.960 . S
H2124 C2137 0.961 . S
H2125 C2137 0.959 . S
H2126 C2140 0.929 . S
H2127 C2141 0.931 . S
H2128 C2143 0.930 . S
C2129 H2117 0.930 . S
C2129 C2130 1.399 . S
C2129 C2134 1.399 . S
C2130 C2129 1.399 . S
C2130 C2131 1.376 . S
C2131 H2118 0.930 . S
C2131 C2130 1.376 . S
C2131 C2132 1.388 . S
C2132 H2119 0.930 . S
C2132 C2131 1.388 . S
C2132 C2133 1.390 . S
C2133 C2132 1.390 . S
C2133 C2134 1.394 . S
C2133 C2139 1.465 . S
C2134 C2129 1.399 . S
C2134 C2133 1.394 . S
C2134 C2135 1.516 . S
C2135 C2134 1.516 . S
C2135 C2136 1.502 . S
C2135 C2137 1.561 . S
C2135 C2138 1.526 . S
C2136 H2120 0.959 . S
C2136 H2121 0.959 . S
C2136 H2122 0.961 . S
C2136 C2135 1.502 . S
C2137 H2123 0.960 . S
C2137 H2124 0.961 . S
C2137 H2125 0.959 . S
C2137 C2135 1.561 . S
C2138 C2135 1.526 . S
C2138 C2139 1.396 . S
C2138 C2143 1.390 . S
C2139 C2133 1.465 . S
C2139 C2138 1.396 . S
C2139 C2140 1.399 . S
C2140 H2126 0.929 . S
C2140 C2139 1.399 . S
C2140 C2141 1.385 . S
C2141 H2127 0.931 . S
C2141 C2140 1.385 . S
C2141 C2142 1.389 . S
C2142 C2141 1.389 . S
C2142 C2143 1.387 . S
C2143 H2128 0.930 . S
C2143 C2138 1.390 . S
C2143 C2142 1.387 . S
C429 C83 1.435 . S
C441 C5 1.403 . S
C456 C18 1.409 . S
C468 C96 1.467 . S
C483 C57 1.452 . S
C495 C31 1.477 . S
C510 C44 1.401 . S
C522 C70 1.452 . S
C537 C109 1.479 . S
C549 C187 1.452 . S
C564 C200 1.423 . S
C576 C122 1.462 . S
C591 C135 1.402 . S
C603 C161 1.414 . S
C618 C174 1.447 . S
C630 C148 1.477 . S
C645 C213 1.444 . S
C657 C291 1.479 . S
C672 C226 1.435 . S
C684 C304 1.480 . S
C699 C265 1.430 . S
C711 C239 1.479 . S
C726 C278 1.480 . S
C738 C252 1.437 . S
C753 C317 1.480 . S
C765 C395 1.464 . S
C780 C330 1.442 . S
C792 C408 1.475 . S
C807 C369 1.432 . S
C819 C343 1.404 . S
C834 C356 1.428 . S
C846 C382 1.402 . S
C861 C0 1.483 1_556 S
C873 C91 1.489 . S
C888 C52 1.481 1_554 S
C900 C13 1.494 . S
C915 C65 1.532 . S
C927 C26 1.531 . S
C942 C39 1.519 . S
C954 C78 1.490 . S
C969 C104 1.535 1_554 S
C981 C195 1.535 . S
C996 C156 1.535 1_556 S
C1008 C117 1.535 . S
C1023 C169 1.481 . S
C1035 C130 1.485 . S
C1050 C182 1.517 . S
C1062 C143 1.502 . S
C1077 C208 1.490 . S
C1089 C299 1.483 . S
C1104 C221 1.519 . S
C1116 C260 1.490 . S
C1131 C273 1.506 . S
C1143 C234 1.533 1_556 S
C1158 C247 1.518 . S
C1170 C286 1.489 1_554 S
C1185 C312 1.488 . S
C1197 C403 1.501 . S
C1212 C364 1.508 . S
C1224 C325 1.522 . S
C1239 C338 1.536 1_554 S
C1251 C377 1.533 . S
C1266 C351 1.536 . S
C1278 C390 1.529 1_556 S
C1293 C400 1.434 . S
C1305 C10 1.437 . S
C1320 C205 1.407 . S
C1332 C23 1.410 . S
C1347 C36 1.437 . S
C1359 C374 1.439 . S
C1374 C49 1.422 . S
C1386 C179 1.428 . S
C1401 C62 1.410 . S
C1413 C348 1.408 . S
C1428 C75 1.424 . S
C1440 C153 1.419 . S
C1455 C88 1.412 . S
C1467 C322 1.417 . S
C1482 C127 1.418 . S
C1494 C101 1.414 . S
C1509 C296 1.409 . S
C1521 C114 1.407 . S
C1536 C140 1.413 . S
C1548 C270 1.410 . S
C1563 C244 1.436 . S
C1575 C166 1.438 . S
C1590 C218 1.414 . S
C1602 C192 1.411 . S
C1617 C231 1.432 . S
C1629 C413 1.436 . S
C1644 C257 1.440 . S
C1656 C387 1.438 . S
C1671 C283 1.406 . S
C1683 C361 1.406 . S
C1698 C335 1.417 . S
C1710 C309 1.412 . S
C1725 C8 1.039 . S
C1737 C99 0.959 . S
C1752 C21 1.022 . S
C1764 C60 0.950 . S
C1779 C73 1.033 1_556 S
C1791 C34 1.022 . S
C1806 C47 1.038 1_554 S
C1818 C86 1.014 . S
C1833 C203 0.961 . S
C1845 C112 1.019 . S
C1860 C164 1.009 . S
C1872 C125 1.047 . S
C1887 C138 0.949 . S
C1899 C177 0.996 1_554 S
C1914 C190 0.995 . S
C1926 C151 1.044 1_556 S
C1941 C307 1.021 1_556 S
C1953 C216 1.033 . S
C1968 C268 0.983 . S
C1980 C229 1.047 1_554 S
C1995 C281 1.017 . S
C2007 C242 1.036 . S
C2022 C294 0.995 . S
C2034 C255 1.046 . S
C2049 C320 1.038 . S
C2061 C411 1.038 1_554 S
C2076 C333 0.949 1_556 S
C2088 C372 0.991 . S
C2103 C346 0.996 . S
C2115 C385 0.951 . S
C2130 C398 0.951 . S
C2142 C359 0.972 . S
