# Generated by pormake.
# Topology xfz, (5)-cn, num edge types: 1
# Building blocks:
#     Node 0, Type 0, BuildingBlock: BEQFEK_clean_sbu_0, # of connection points: 5
#     Node 1, Type 0, BuildingBlock: BEQFEK_clean_sbu_0, # of connection points: 5
#     Node 2, Type 0, BuildingBlock: BEQFEK_clean_sbu_0, # of connection points: 5
#     Node 3, Type 0, BuildingBlock: BEQFEK_clean_sbu_0, # of connection points: 5
#     Node 4, Type 0, BuildingBlock: BEQFEK_clean_sbu_0, # of connection points: 5
#     Node 5, Type 0, BuildingBlock: BEQFEK_clean_sbu_0, # of connection points: 5
#     Node 6, Type 0, BuildingBlock: BEQFEK_clean_sbu_0, # of connection points: 5
#     Node 7, Type 0, BuildingBlock: BEQFEK_clean_sbu_0, # of connection points: 5
#     Node 8, Type 0, BuildingBlock: BEQFEK_clean_sbu_0, # of connection points: 5
#     Node 9, Type 0, BuildingBlock: BEQFEK_clean_sbu_0, # of connection points: 5
#     Node 10, Type 0, BuildingBlock: BEQFEK_clean_sbu_0, # of connection points: 5
#     Node 11, Type 0, BuildingBlock: BEQFEK_clean_sbu_0, # of connection points: 5
#     Node 12, Type 0, BuildingBlock: BEQFEK_clean_sbu_0, # of connection points: 5
#     Node 13, Type 0, BuildingBlock: BEQFEK_clean_sbu_0, # of connection points: 5
#     Node 14, Type 0, BuildingBlock: BEQFEK_clean_sbu_0, # of connection points: 5
#     Node 15, Type 0, BuildingBlock: BEQFEK_clean_sbu_0, # of connection points: 5
#     Edge 16, Type (0, 0), BuildingBlock: XUDNAN_clean_linker_2, # of connection points: 2
#     Edge 17, Type (0, 0), BuildingBlock: XUDNAN_clean_linker_2, # of connection points: 2
#     Edge 18, Type (0, 0), BuildingBlock: XUDNAN_clean_linker_2, # of connection points: 2
#     Edge 19, Type (0, 0), BuildingBlock: XUDNAN_clean_linker_2, # of connection points: 2
#     Edge 20, Type (0, 0), BuildingBlock: XUDNAN_clean_linker_2, # of connection points: 2
#     Edge 21, Type (0, 0), BuildingBlock: XUDNAN_clean_linker_2, # of connection points: 2
#     Edge 22, Type (0, 0), BuildingBlock: XUDNAN_clean_linker_2, # of connection points: 2
#     Edge 23, Type (0, 0), BuildingBlock: XUDNAN_clean_linker_2, # of connection points: 2
#     Edge 24, Type (0, 0), BuildingBlock: XUDNAN_clean_linker_2, # of connection points: 2
#     Edge 25, Type (0, 0), BuildingBlock: XUDNAN_clean_linker_2, # of connection points: 2
#     Edge 26, Type (0, 0), BuildingBlock: XUDNAN_clean_linker_2, # of connection points: 2
#     Edge 27, Type (0, 0), BuildingBlock: XUDNAN_clean_linker_2, # of connection points: 2
#     Edge 28, Type (0, 0), BuildingBlock: XUDNAN_clean_linker_2, # of connection points: 2
#     Edge 29, Type (0, 0), BuildingBlock: XUDNAN_clean_linker_2, # of connection points: 2
#     Edge 30, Type (0, 0), BuildingBlock: XUDNAN_clean_linker_2, # of connection points: 2
#     Edge 31, Type (0, 0), BuildingBlock: XUDNAN_clean_linker_2, # of connection points: 2
#     Edge 32, Type (0, 0), BuildingBlock: XUDNAN_clean_linker_2, # of connection points: 2
#     Edge 33, Type (0, 0), BuildingBlock: XUDNAN_clean_linker_2, # of connection points: 2
#     Edge 34, Type (0, 0), BuildingBlock: XUDNAN_clean_linker_2, # of connection points: 2
#     Edge 35, Type (0, 0), BuildingBlock: XUDNAN_clean_linker_2, # of connection points: 2
#     Edge 36, Type (0, 0), BuildingBlock: XUDNAN_clean_linker_2, # of connection points: 2
#     Edge 37, Type (0, 0), BuildingBlock: XUDNAN_clean_linker_2, # of connection points: 2
#     Edge 38, Type (0, 0), BuildingBlock: XUDNAN_clean_linker_2, # of connection points: 2
#     Edge 39, Type (0, 0), BuildingBlock: XUDNAN_clean_linker_2, # of connection points: 2
#     Edge 40, Type (0, 0), BuildingBlock: XUDNAN_clean_linker_2, # of connection points: 2
#     Edge 41, Type (0, 0), BuildingBlock: XUDNAN_clean_linker_2, # of connection points: 2
#     Edge 42, Type (0, 0), BuildingBlock: XUDNAN_clean_linker_2, # of connection points: 2
#     Edge 43, Type (0, 0), BuildingBlock: XUDNAN_clean_linker_2, # of connection points: 2
#     Edge 44, Type (0, 0), BuildingBlock: XUDNAN_clean_linker_2, # of connection points: 2
#     Edge 45, Type (0, 0), BuildingBlock: XUDNAN_clean_linker_2, # of connection points: 2
#     Edge 46, Type (0, 0), BuildingBlock: XUDNAN_clean_linker_2, # of connection points: 2
#     Edge 47, Type (0, 0), BuildingBlock: XUDNAN_clean_linker_2, # of connection points: 2
#     Edge 48, Type (0, 0), BuildingBlock: XUDNAN_clean_linker_2, # of connection points: 2
#     Edge 49, Type (0, 0), BuildingBlock: XUDNAN_clean_linker_2, # of connection points: 2
#     Edge 50, Type (0, 0), BuildingBlock: XUDNAN_clean_linker_2, # of connection points: 2
#     Edge 51, Type (0, 0), BuildingBlock: XUDNAN_clean_linker_2, # of connection points: 2
#     Edge 52, Type (0, 0), BuildingBlock: XUDNAN_clean_linker_2, # of connection points: 2
#     Edge 53, Type (0, 0), BuildingBlock: XUDNAN_clean_linker_2, # of connection points: 2
#     Edge 54, Type (0, 0), BuildingBlock: XUDNAN_clean_linker_2, # of connection points: 2
#     Edge 55, Type (0, 0), BuildingBlock: XUDNAN_clean_linker_2, # of connection points: 2
# Relax obj value: 0.382
# Max RMSD: 0.181
# Mean RMSD: 0.181
data_MOF--net-xfz--node1-BEQFEK_clean_sbu_0--edge1-XUDNAN_clean_linker_2
_symmetry_space_group_name_H-M    P1
_symmetry_Int_Tables_number       1
_symmetry_cell_setting            triclinic
loop_
_symmetry_equiv_pos_as_xyz
'x, y, z'
_cell_length_a     47.493317
_cell_length_b     47.482296
_cell_length_c     49.910973
_cell_angle_alpha  90.055052
_cell_angle_beta   89.948104
_cell_angle_gamma 89.98581
loop_
_atom_site_label
_atom_site_type_symbol
_atom_site_fract_x
_atom_site_fract_y
_atom_site_fract_z
_atom_type_partial_charge
Co0 Co 0.14232 0.46647 0.37262 0.0
Co1 Co 0.20053 0.45537 0.34637 0.0
C2 C 0.15094 0.41502 0.34081 0.0
O3 O 0.13604 0.42912 0.35713 0.0
O4 O 0.17561 0.4231 0.33418 0.0
C5 C 0.09572 0.45854 0.408 0.0
O6 O 0.1051 0.43259 0.41003 0.0
C7 C 0.2522 0.42184 0.34226 0.0
C8 C 0.28229 0.45235 0.32518 0.0
C9 C 0.28028 0.42517 0.33518 0.0
N10 N 0.23841 0.44595 0.33685 0.0
N11 N 0.25644 0.46394 0.32623 0.0
C12 C 0.23926 0.39747 0.35672 0.0
H13 H 0.21958 0.40403 0.36698 0.0
H14 H 0.25428 0.38862 0.37152 0.0
H15 H 0.2341 0.38072 0.342 0.0
C16 C 0.17692 0.47416 0.42106 0.0
N17 N 0.17408 0.46742 0.39499 0.0
N18 N 0.19903 0.46265 0.38446 0.0
C19 C 0.2187 0.46642 0.40381 0.0
C20 C 0.2052 0.47344 0.42769 0.0
C21 C 0.15329 0.48405 0.43864 0.0
H22 H 0.13971 0.49893 0.42745 0.0
H23 H 0.14047 0.46567 0.44485 0.0
H24 H 0.16111 0.49486 0.45688 0.0
O25 O 0.1453 0.49444 0.34329 0.0
O26 O 0.18827 0.49001 0.32606 0.0
H27 H 0.25594 0.47642 0.3816 0.0
H28 H 0.2618 0.47145 0.41714 0.0
C29 C 0.24976 0.46402 0.39947 0.0
H30 H 0.25523 0.44167 0.39576 0.0
H31 H 0.25134 0.48455 0.32076 0.0
O32 O 0.1086 0.47599 0.39314 0.0
C33 C 0.16427 0.50218 0.32681 0.0
Co34 Co 0.49671 0.85973 0.68523 0.0
Co35 Co 0.46416 0.80494 0.69798 0.0
C36 C 0.43941 0.86017 0.71268 0.0
O37 O 0.46155 0.87178 0.7036 0.0
O38 O 0.4362 0.83359 0.7112 0.0
C39 C 0.4939 0.90721 0.6543 0.0
O40 O 0.46793 0.89792 0.65228 0.0
C41 C 0.41947 0.76243 0.69787 0.0
C42 C 0.44221 0.72358 0.70886 0.0
C43 C 0.41556 0.73385 0.70298 0.0
N44 N 0.44691 0.76863 0.70099 0.0
N45 N 0.46041 0.74529 0.70744 0.0
C46 C 0.3981 0.78345 0.68861 0.0
H47 H 0.40846 0.80057 0.67715 0.0
H48 H 0.38189 0.7732 0.67591 0.0
H49 H 0.38769 0.79303 0.70632 0.0
C50 C 0.50135 0.83403 0.63284 0.0
N51 N 0.49202 0.833 0.65812 0.0
N52 N 0.47486 0.8116 0.66109 0.0
C53 C 0.47087 0.79967 0.63659 0.0
C54 C 0.48741 0.81394 0.61769 0.0
C55 C 0.52481 0.85281 0.62354 0.0
H56 H 0.53929 0.85758 0.64037 0.0
H57 H 0.51616 0.87284 0.61572 0.0
H58 H 0.53682 0.84257 0.6071 0.0
O59 O 0.52207 0.84537 0.71157 0.0
O60 O 0.49883 0.80642 0.72323 0.0
H61 H 0.45375 0.75912 0.6457 0.0
H62 H 0.45261 0.76828 0.61044 0.0
C63 C 0.45043 0.77645 0.63116 0.0
H64 H 0.4287 0.78449 0.63398 0.0
H65 H 0.48204 0.74421 0.71108 0.0
O66 O 0.51147 0.89385 0.66862 0.0
C67 C 0.51969 0.82342 0.72582 0.0
Co68 Co 0.86295 0.52995 0.3723 0.0
Co69 Co 0.8054 0.54699 0.34723 0.0
C70 C 0.85747 0.58335 0.3413 0.0
O71 O 0.87201 0.56602 0.35492 0.0
O72 O 0.83126 0.57912 0.3372 0.0
C73 C 0.9143 0.53354 0.40228 0.0
O74 O 0.91286 0.56069 0.39744 0.0
C75 C 0.75403 0.58148 0.34442 0.0
C76 C 0.7241 0.55225 0.32514 0.0
C77 C 0.7261 0.5788 0.3366 0.0
N78 N 0.76777 0.5576 0.33798 0.0
N79 N 0.74983 0.5404 0.3261 0.0
C80 C 0.76684 0.60501 0.36019 0.0
H81 H 0.78629 0.59779 0.37042 0.0
H82 H 0.75157 0.61322 0.37514 0.0
H83 H 0.77238 0.62242 0.34635 0.0
C84 C 0.82905 0.52651 0.42134 0.0
N85 N 0.83159 0.53248 0.3951 0.0
N86 N 0.80668 0.53809 0.38497 0.0
C87 C 0.78722 0.53513 0.40467 0.0
C88 C 0.80081 0.52751 0.42836 0.0
C89 C 0.85352 0.52109 0.43954 0.0
H90 H 0.8629 0.50029 0.4347 0.0
H91 H 0.86968 0.53755 0.43636 0.0
H92 H 0.8474 0.52154 0.46097 0.0
O93 O 0.85709 0.50124 0.34416 0.0
O94 O 0.81686 0.5134 0.32471 0.0
H95 H 0.75021 0.52743 0.38123 0.0
H96 H 0.74431 0.52715 0.41704 0.0
C97 C 0.75612 0.53738 0.40051 0.0
H98 H 0.75012 0.55994 0.39974 0.0
H99 H 0.7549 0.52011 0.31958 0.0
O100 O 0.89547 0.51721 0.39314 0.0
C101 C 0.83838 0.4973 0.3263 0.0
Co102 Co 0.51549 0.14416 0.68397 0.0
Co103 Co 0.5439 0.20082 0.69765 0.0
C104 C 0.57234 0.14874 0.71298 0.0
O105 O 0.55074 0.13644 0.7036 0.0
O106 O 0.57493 0.1754 0.71108 0.0
C107 C 0.52698 0.10011 0.651 0.0
O108 O 0.5498 0.11557 0.64867 0.0
C109 C 0.57942 0.25243 0.6971 0.0
C110 C 0.54746 0.28458 0.70704 0.0
C111 C 0.57567 0.28134 0.70054 0.0
N112 N 0.55452 0.23951 0.70131 0.0
N113 N 0.53564 0.25889 0.70743 0.0
C114 C 0.60543 0.2374 0.6881 0.0
H115 H 0.60011 0.21626 0.68008 0.0
H116 H 0.61661 0.2499 0.6726 0.0
H117 H 0.61972 0.23464 0.70547 0.0
C118 C 0.50848 0.17009 0.63239 0.0
N119 N 0.51803 0.17155 0.65753 0.0
N120 N 0.53405 0.19376 0.66053 0.0
C121 C 0.53706 0.20607 0.63607 0.0
C122 C 0.52111 0.191 0.61722 0.0
C123 C 0.48599 0.14996 0.62345 0.0
H124 H 0.4725 0.1439 0.64068 0.0
H125 H 0.49558 0.13061 0.61504 0.0
H126 H 0.47279 0.15969 0.60761 0.0
O127 O 0.48779 0.15505 0.70967 0.0
O128 O 0.50922 0.1947 0.72245 0.0
H129 H 0.54997 0.24838 0.64394 0.0
H130 H 0.55479 0.23736 0.60946 0.0
C131 C 0.55594 0.23059 0.63068 0.0
H132 H 0.57794 0.22466 0.63549 0.0
H133 H 0.51447 0.2546 0.71131 0.0
O134 O 0.50715 0.1085 0.66618 0.0
C135 C 0.4892 0.17664 0.7246 0.0
Co136 Co 0.13704 0.53186 0.66676 0.0
Co137 Co 0.19412 0.54641 0.69375 0.0
C138 C 0.14193 0.58383 0.69827 0.0
O139 O 0.12791 0.56879 0.68205 0.0
O140 O 0.16693 0.57709 0.705 0.0
C141 C 0.08944 0.53692 0.63283 0.0
O142 O 0.09627 0.56373 0.63277 0.0
C143 C 0.23933 0.5868 0.69841 0.0
C144 C 0.27418 0.56318 0.71706 0.0
C145 C 0.26687 0.58954 0.70727 0.0
N146 N 0.23066 0.56031 0.70298 0.0
N147 N 0.25158 0.54622 0.71414 0.0
C148 C 0.22201 0.60822 0.68385 0.0
H149 H 0.20696 0.59763 0.67015 0.0
H150 H 0.23563 0.62277 0.67224 0.0
H151 H 0.20972 0.62066 0.69862 0.0
C152 C 0.17261 0.52677 0.61871 0.0
N153 N 0.16904 0.53308 0.64478 0.0
N154 N 0.19358 0.53846 0.65579 0.0
C155 C 0.21379 0.53538 0.63684 0.0
C156 C 0.20112 0.52764 0.61273 0.0
C157 C 0.14889 0.52096 0.5997 0.0
H158 H 0.13733 0.50187 0.60627 0.0
H159 H 0.13422 0.53905 0.59995 0.0
H160 H 0.1561 0.51815 0.57877 0.0
O161 O 0.14208 0.50409 0.69606 0.0
O162 O 0.18372 0.5118 0.71499 0.0
H163 H 0.24999 0.52617 0.66078 0.0
H164 H 0.25731 0.52935 0.62529 0.0
C165 C 0.24466 0.53778 0.64219 0.0
H166 H 0.25011 0.56026 0.6453 0.0
H167 H 0.25051 0.525 0.71959 0.0
O168 O 0.10437 0.51958 0.64597 0.0
C169 C 0.16076 0.4978 0.7134 0.0
Co170 Co 0.51735 0.86083 0.35596 0.0
Co171 Co 0.54542 0.80355 0.34376 0.0
C172 C 0.57395 0.8552 0.32689 0.0
O173 O 0.55243 0.86801 0.33582 0.0
O174 O 0.57646 0.82862 0.32966 0.0
C175 C 0.52812 0.90605 0.38785 0.0
O176 O 0.5513 0.89122 0.39056 0.0
C177 C 0.58129 0.75216 0.34557 0.0
C178 C 0.54956 0.71952 0.33661 0.0
C179 C 0.57777 0.72313 0.34289 0.0
N180 N 0.55627 0.76478 0.34115 0.0
N181 N 0.53753 0.7451 0.33563 0.0
C182 C 0.60723 0.76765 0.35399 0.0
H183 H 0.60177 0.78895 0.36154 0.0
H184 H 0.61863 0.75567 0.3697 0.0
H185 H 0.62136 0.77007 0.33644 0.0
C186 C 0.51033 0.83642 0.40827 0.0
N187 N 0.52004 0.83431 0.3832 0.0
N188 N 0.53564 0.81172 0.38067 0.0
C189 C 0.53823 0.79979 0.40533 0.0
C190 C 0.52244 0.81553 0.42385 0.0
C191 C 0.48773 0.85675 0.4166 0.0
H192 H 0.47443 0.86241 0.39914 0.0
H193 H 0.49723 0.87627 0.42469 0.0
H194 H 0.47432 0.84738 0.43251 0.0
O195 O 0.48952 0.84908 0.33086 0.0
O196 O 0.51059 0.80893 0.31894 0.0
H197 H 0.54933 0.75673 0.39883 0.0
H198 H 0.5558 0.76907 0.43265 0.0
C199 C 0.55641 0.77485 0.41114 0.0
H200 H 0.57842 0.77972 0.40537 0.0
H201 H 0.51632 0.74912 0.33172 0.0
O202 O 0.50862 0.8969 0.37274 0.0
C203 C 0.49064 0.82705 0.31652 0.0
Co204 Co 0.86078 0.47042 0.6696 0.0
Co205 Co 0.8029 0.45672 0.69571 0.0
C206 C 0.85379 0.41824 0.70157 0.0
O207 O 0.86845 0.43403 0.68649 0.0
O208 O 0.82812 0.42423 0.70678 0.0
C209 C 0.90936 0.46281 0.63645 0.0
O210 O 0.90508 0.43574 0.63999 0.0
C211 C 0.75132 0.42306 0.70018 0.0
C212 C 0.72141 0.45362 0.71759 0.0
C213 C 0.7233 0.42643 0.70754 0.0
N214 N 0.76516 0.44717 0.70548 0.0
N215 N 0.74724 0.46518 0.71628 0.0
C216 C 0.76417 0.39864 0.68566 0.0
H217 H 0.7836 0.40526 0.67503 0.0
H218 H 0.74895 0.38954 0.67117 0.0
H219 H 0.76978 0.38209 0.7004 0.0
C220 C 0.826 0.47631 0.62126 0.0
N221 N 0.82885 0.46985 0.64737 0.0
N222 N 0.804 0.46438 0.65776 0.0
C223 C 0.78436 0.46744 0.63827 0.0
C224 C 0.7978 0.47473 0.61442 0.0
C225 C 0.8495 0.48688 0.60392 0.0
H226 H 0.8643 0.46936 0.59971 0.0
H227 H 0.84182 0.49554 0.58465 0.0
H228 H 0.861 0.50378 0.61462 0.0
O229 O 0.85722 0.49862 0.69845 0.0
O230 O 0.81512 0.49124 0.71671 0.0
H231 H 0.74665 0.4761 0.66033 0.0
H232 H 0.74122 0.47119 0.6247 0.0
C233 C 0.75336 0.46403 0.6424 0.0
H234 H 0.7486 0.44149 0.6459 0.0
H235 H 0.7524 0.48579 0.72173 0.0
O236 O 0.89347 0.48065 0.64787 0.0
C237 C 0.83832 0.50485 0.71557 0.0
Co238 Co 0.49447 0.14616 0.35577 0.0
Co239 Co 0.46366 0.2019 0.34304 0.0
C240 C 0.43668 0.14836 0.32843 0.0
O241 O 0.45874 0.13644 0.33738 0.0
O242 O 0.43368 0.17502 0.3301 0.0
C243 C 0.48994 0.09812 0.38654 0.0
O244 O 0.46392 0.10731 0.38834 0.0
C245 C 0.42612 0.25239 0.34455 0.0
C246 C 0.45725 0.28561 0.33553 0.0
C247 C 0.42912 0.28148 0.34186 0.0
N248 N 0.45138 0.24022 0.34013 0.0
N249 N 0.46973 0.26025 0.33454 0.0
C250 C 0.40044 0.23653 0.35307 0.0
H251 H 0.40622 0.21528 0.36047 0.0
H252 H 0.38897 0.24833 0.36889 0.0
H253 H 0.38623 0.23402 0.33561 0.0
C254 C 0.50059 0.17168 0.40787 0.0
N255 N 0.49109 0.17307 0.38269 0.0
N256 N 0.47434 0.19479 0.37992 0.0
C257 C 0.4708 0.2067 0.40452 0.0
C258 C 0.48719 0.19198 0.42324 0.0
C259 C 0.52369 0.15226 0.41678 0.0
H260 H 0.53789 0.14732 0.39974 0.0
H261 H 0.51465 0.13233 0.42442 0.0
H262 H 0.53608 0.16203 0.43319 0.0
O263 O 0.52064 0.15882 0.32948 0.0
O264 O 0.49796 0.19788 0.3174 0.0
H265 H 0.45647 0.24869 0.39748 0.0
H266 H 0.45142 0.23661 0.43158 0.0
C267 C 0.45091 0.23035 0.41018 0.0
H268 H 0.42925 0.22375 0.40482 0.0
H269 H 0.49103 0.25663 0.33066 0.0
O270 O 0.50768 0.1115 0.37242 0.0
C271 C 0.51846 0.18046 0.31483 0.0
Co272 Co 0.64 0.97128 0.87119 0.0
Co273 Co 0.69822 0.95821 0.84594 0.0
C274 C 0.64662 0.91989 0.83909 0.0
O275 O 0.63179 0.93495 0.85463 0.0
O276 O 0.67201 0.92671 0.83378 0.0
C277 C 0.59249 0.96368 0.90433 0.0
O278 O 0.60033 0.93715 0.90348 0.0
C279 C 0.74649 0.9211 0.84821 0.0
C280 C 0.77803 0.94129 0.82203 0.0
C281 C 0.77381 0.91817 0.83859 0.0
N282 N 0.73536 0.94489 0.83817 0.0
N283 N 0.75429 0.95689 0.8225 0.0
C284 C 0.73043 0.90101 0.86562 0.0
H285 H 0.70749 0.9045 0.86385 0.0
H286 H 0.73617 0.9045 0.88688 0.0
H287 H 0.73556 0.8789 0.86025 0.0
C288 C 0.67392 0.97643 0.92048 0.0
N289 N 0.67133 0.97019 0.89426 0.0
N290 N 0.6964 0.96607 0.88381 0.0
C291 C 0.71594 0.97031 0.90318 0.0
C292 C 0.70228 0.97699 0.92706 0.0
C293 C 0.64953 0.9811 0.93904 0.0
H294 H 0.63727 0.99968 0.93233 0.0
H295 H 0.63574 0.96234 0.93852 0.0
H296 H 0.65615 0.98418 0.96011 0.0
O297 O 0.64538 0.99953 0.84235 0.0
O298 O 0.68816 0.99332 0.825 0.0
H299 H 0.75163 0.97883 0.87795 0.0
H300 H 0.75761 0.98491 0.91331 0.0
C301 C 0.74704 0.97111 0.89844 0.0
H302 H 0.75578 0.94958 0.90059 0.0
H303 H 0.751 0.97572 0.81208 0.0
O304 O 0.60663 0.98204 0.89165 0.0
C305 C 0.66471 0.00658 0.82591 0.0
Co306 Co 0.98675 0.3654 0.1773 0.0
Co307 Co 0.96206 0.30893 0.19802 0.0
C308 C 0.93208 0.36343 0.20792 0.0
O309 O 0.95085 0.37661 0.19482 0.0
O310 O 0.93349 0.33689 0.21126 0.0
C311 C 0.98083 0.41028 0.14218 0.0
O312 O 0.9549 0.4007 0.14155 0.0
C313 C 0.92081 0.26341 0.20165 0.0
C314 C 0.94682 0.22666 0.21269 0.0
C315 C 0.91959 0.23462 0.20626 0.0
N316 N 0.94758 0.27199 0.20481 0.0
N317 N 0.96299 0.24998 0.2117 0.0
C318 C 0.89699 0.2829 0.19506 0.0
H319 H 0.90315 0.29712 0.17843 0.0
H320 H 0.87745 0.27139 0.18987 0.0
H321 H 0.8926 0.29632 0.21279 0.0
C322 C 0.99201 0.33379 0.12766 0.0
N323 N 0.98304 0.33567 0.15309 0.0
N324 N 0.96986 0.31251 0.15996 0.0
C325 C 0.96823 0.2957 0.13797 0.0
C326 C 0.98213 0.30883 0.11653 0.0
C327 C 0.01359 0.35331 0.1159 0.0
H328 H 0.02737 0.36178 0.13192 0.0
H329 H 0.00292 0.37117 0.10586 0.0
H330 H 0.02698 0.34226 0.10099 0.0
O331 O 0.01457 0.35557 0.20434 0.0
O332 O 0.99783 0.31501 0.22007 0.0
H333 H 0.96661 0.25168 0.14664 0.0
H334 H 0.94768 0.26172 0.11664 0.0
C335 C 0.95312 0.26807 0.13737 0.0
H336 H 0.93342 0.26957 0.14905 0.0
H337 H 0.98467 0.25074 0.21507 0.0
O338 O 0.99894 0.39845 0.15711 0.0
C339 C 0.01636 0.33465 0.22016 0.0
Co340 Co 0.36607 0.0319 0.87358 0.0
Co341 Co 0.30873 0.04656 0.84723 0.0
C342 C 0.36142 0.08363 0.8419 0.0
O343 O 0.37561 0.06841 0.85783 0.0
O344 O 0.33607 0.07723 0.83602 0.0
C345 C 0.41357 0.03669 0.90794 0.0
O346 O 0.40906 0.06392 0.90623 0.0
C347 C 0.26109 0.08506 0.84733 0.0
C348 C 0.22915 0.06334 0.82275 0.0
C349 C 0.23365 0.08745 0.83791 0.0
N350 N 0.27201 0.06056 0.83856 0.0
N351 N 0.25284 0.04771 0.82379 0.0
C352 C 0.27725 0.10614 0.86357 0.0
H353 H 0.27207 0.10358 0.88508 0.0
H354 H 0.27171 0.12791 0.85744 0.0
H355 H 0.30018 0.10293 0.86144 0.0
C356 C 0.33079 0.02666 0.92189 0.0
N357 N 0.33408 0.0331 0.8958 0.0
N358 N 0.30939 0.03842 0.88508 0.0
C359 C 0.28938 0.03509 0.90423 0.0
C360 C 0.30245 0.02803 0.92831 0.0
C361 C 0.35396 0.01615 0.93963 0.0
H362 H 0.36562 0.99914 0.92923 0.0
H363 H 0.36869 0.03367 0.944 0.0
H364 H 0.34594 0.00759 0.95882 0.0
O365 O 0.36131 0.0047 0.84387 0.0
O366 O 0.319 0.01168 0.82584 0.0
H367 H 0.25297 0.02848 0.87958 0.0
H368 H 0.24612 0.0266 0.91524 0.0
C369 C 0.25838 0.03748 0.89942 0.0
H370 H 0.25225 0.05998 0.89961 0.0
H371 H 0.25586 0.02815 0.81456 0.0
O372 O 0.39816 0.01965 0.89498 0.0
C373 C 0.34241 0.99833 0.82679 0.0
Co374 Co 0.01495 0.64197 0.18261 0.0
Co375 Co 0.04397 0.6974 0.20062 0.0
C376 C 0.07052 0.64249 0.21288 0.0
O377 O 0.04944 0.63058 0.20208 0.0
O378 O 0.07274 0.66922 0.213 0.0
C379 C 0.02253 0.59933 0.14669 0.0
O380 O 0.04642 0.61312 0.14468 0.0
C381 C 0.08598 0.74246 0.20276 0.0
C382 C 0.06051 0.77975 0.21347 0.0
C383 C 0.08759 0.77132 0.20695 0.0
N384 N 0.05912 0.73428 0.20629 0.0
N385 N 0.04404 0.75663 0.21293 0.0
C386 C 0.10956 0.72254 0.19651 0.0
H387 H 0.10303 0.70762 0.18056 0.0
H388 H 0.12906 0.73368 0.19053 0.0
H389 H 0.11419 0.70991 0.21468 0.0
C390 C 0.00992 0.67234 0.13231 0.0
N391 N 0.01975 0.67073 0.15746 0.0
N392 N 0.03463 0.69321 0.16312 0.0
C393 C 0.03642 0.70916 0.14061 0.0
C394 C 0.02088 0.69624 0.1201 0.0
C395 C 0.9868 0.65376 0.12191 0.0
H396 H 0.97377 0.64583 0.13875 0.0
H397 H 0.99594 0.63545 0.11122 0.0
H398 H 0.97304 0.66543 0.10779 0.0
O399 O 0.98745 0.65345 0.20896 0.0
O400 O 0.00863 0.69235 0.22413 0.0
H401 H 0.04068 0.75341 0.14715 0.0
H402 H 0.05877 0.74064 0.11761 0.0
C403 C 0.05315 0.73576 0.13866 0.0
H404 H 0.07279 0.73375 0.15033 0.0
H405 H 0.02239 0.75621 0.21653 0.0
O406 O 0.00387 0.60809 0.16296 0.0
C407 C 0.98841 0.67442 0.22478 0.0
Co408 Co 0.64108 0.03302 0.16803 0.0
Co409 Co 0.69852 0.047 0.19432 0.0
C410 C 0.64634 0.08429 0.20082 0.0
O411 O 0.63207 0.06913 0.18492 0.0
O412 O 0.67172 0.07785 0.20644 0.0
C413 C 0.59611 0.04095 0.13201 0.0
O414 O 0.60602 0.06675 0.13083 0.0
C415 C 0.74624 0.08523 0.19412 0.0
C416 C 0.77823 0.06368 0.21873 0.0
C417 C 0.77365 0.08773 0.20354 0.0
N418 N 0.73539 0.06073 0.20289 0.0
N419 N 0.75458 0.04797 0.21768 0.0
C420 C 0.73001 0.10628 0.17791 0.0
H421 H 0.7071 0.10284 0.1798 0.0
H422 H 0.73541 0.10397 0.15643 0.0
H423 H 0.7353 0.12805 0.18428 0.0
C424 C 0.67606 0.02787 0.11941 0.0
N425 N 0.67279 0.03443 0.1455 0.0
N426 N 0.69752 0.03962 0.15624 0.0
C427 C 0.7175 0.03619 0.13707 0.0
C428 C 0.70439 0.02922 0.113 0.0
C429 C 0.65306 0.01689 0.1017 0.0
H430 H 0.63983 1.00171 0.1129 0.0
H431 H 0.63979 0.03471 0.09493 0.0
H432 H 0.66154 0.00601 0.08375 0.0
O433 O 0.64621 0.00445 0.19638 0.0
O434 O 0.68826 0.01147 0.21488 0.0
H435 H 0.75379 0.02883 0.16169 0.0
H436 H 0.76066 0.02711 0.12604 0.0
C437 C 0.74854 0.03806 0.14192 0.0
H438 H 0.75503 0.06045 0.14191 0.0
H439 H 0.7516 0.02845 0.22696 0.0
O440 O 0.60802 0.02296 0.14703 0.0
C441 C 0.66515 0.99766 0.21328 0.0
Co442 Co 0.01267 0.36112 0.85968 0.0
Co443 Co 0.04065 0.30499 0.84188 0.0
C444 C 0.06825 0.35993 0.83004 0.0
O445 O 0.04776 0.37278 0.84097 0.0
O446 O 0.06912 0.33316 0.82912 0.0
C447 C 0.01729 0.40673 0.8938 0.0
O448 O 0.0433 0.39737 0.89478 0.0
C449 C 0.08301 0.26026 0.8396 0.0
C450 C 0.05776 0.22268 0.82944 0.0
C451 C 0.08483 0.2314 0.83557 0.0
N452 N 0.05604 0.26818 0.83637 0.0
N453 N 0.04109 0.24566 0.83005 0.0
C454 C 0.10647 0.28041 0.84554 0.0
H455 H 0.10011 0.29501 0.86183 0.0
H456 H 0.12626 0.26946 0.85094 0.0
H457 H 0.11049 0.29334 0.82744 0.0
C458 C 0.00774 0.33117 0.91041 0.0
N459 N 0.01729 0.33249 0.88512 0.0
N460 N 0.03167 0.30968 0.87941 0.0
C461 C 0.03351 0.29385 0.90198 0.0
C462 C 0.01843 0.30711 0.92262 0.0
C463 C 0.985 0.35014 0.92098 0.0
H464 H 0.97144 0.35755 0.90433 0.0
H465 H 0.99458 0.36873 0.93084 0.0
H466 H 0.97158 0.339 0.93578 0.0
O467 O 0.98556 0.34938 0.83298 0.0
O468 O 0.00524 0.30942 0.81862 0.0
H469 H 0.03705 0.24942 0.8961 0.0
H470 H 0.05623 0.26256 0.92484 0.0
C471 C 0.04999 0.26708 0.90388 0.0
H472 H 0.06929 0.2686 0.89162 0.0
H473 H 0.01939 0.24588 0.82669 0.0
O474 O 0.99948 0.39451 0.87881 0.0
C475 C 0.98565 0.32798 0.8177 0.0
Co476 Co 0.36702 0.97276 0.16959 0.0
Co477 Co 0.30934 0.95862 0.19558 0.0
C478 C 0.36218 0.92142 0.20156 0.0
O479 O 0.37663 0.93658 0.18576 0.0
O480 O 0.33671 0.92786 0.20711 0.0
C481 C 0.41663 0.96937 0.13759 0.0
O482 O 0.41429 0.94208 0.14128 0.0
C483 C 0.26167 0.92044 0.19417 0.0
C484 C 0.23013 0.94055 0.22045 0.0
C485 C 0.23448 0.91725 0.2041 0.0
N486 N 0.27257 0.94453 0.20387 0.0
N487 N 0.25363 0.95646 0.21959 0.0
C488 C 0.27784 0.90044 0.17673 0.0
H489 H 0.30075 0.90424 0.17832 0.0
H490 H 0.27187 0.90375 0.1555 0.0
H491 H 0.27307 0.87831 0.18224 0.0
C492 C 0.33258 0.9763 0.12078 0.0
N493 N 0.3354 0.97068 0.14707 0.0
N494 N 0.31047 0.96648 0.15774 0.0
C495 C 0.29074 0.97018 0.13843 0.0
C496 C 0.30419 0.9766 0.11437 0.0
C497 C 0.3568 0.9805 0.10195 0.0
H498 H 0.36723 1.00085 0.10645 0.0
H499 H 0.37221 0.96327 0.10477 0.0
H500 H 0.35009 0.98029 0.08069 0.0
O501 O 0.36142 1.00043 0.19893 0.0
O502 O 0.31897 0.99375 0.21672 0.0
H503 H 0.25507 0.97816 0.16386 0.0
H504 H 0.24876 0.98397 0.12848 0.0
C505 C 0.25967 0.97045 0.14334 0.0
H506 H 0.25135 0.94874 0.14132 0.0
H507 H 0.25673 0.9755 0.22975 0.0
O508 O 0.399 0.98596 0.14836 0.0
C509 C 0.34231 0.00715 0.21571 0.0
Co510 Co 0.9872 0.63947 0.86489 0.0
Co511 Co 0.95986 0.69519 0.8459 0.0
C512 C 0.93197 0.64108 0.83386 0.0
O513 O 0.95273 0.62878 0.84485 0.0
O514 O 0.9303 0.66783 0.8337 0.0
C515 C 0.9782 0.59671 0.90061 0.0
O516 O 0.95455 0.61092 0.90266 0.0
C517 C 0.91939 0.74148 0.84291 0.0
C518 C 0.94599 0.77772 0.83155 0.0
C519 C 0.91867 0.77026 0.83821 0.0
N520 N 0.94597 0.7324 0.83953 0.0
N521 N 0.96173 0.75411 0.83249 0.0
C522 C 0.89521 0.72245 0.84955 0.0
H523 H 0.90144 0.70738 0.86545 0.0
H524 H 0.87622 0.73433 0.85578 0.0
H525 H 0.88984 0.70994 0.83148 0.0
C526 C 0.99223 0.67022 0.915 0.0
N527 N 0.98268 0.66852 0.88976 0.0
N528 N 0.96873 0.69142 0.88357 0.0
C529 C 0.96726 0.70787 0.90581 0.0
C530 C 0.98205 0.69477 0.9267 0.0
C531 C 0.01446 0.65093 0.92596 0.0
H532 H 0.0275 0.64232 0.90942 0.0
H533 H 0.00441 0.6331 0.93663 0.0
H534 H 0.02839 0.66224 0.94021 0.0
O535 O 0.01559 0.65006 0.83907 0.0
O536 O 0.995 0.68849 0.82252 0.0
H537 H 0.9646 0.75203 0.89814 0.0
H538 H 0.94618 0.74085 0.92807 0.0
C539 C 0.95154 0.73513 0.90714 0.0
H540 H 0.93178 0.7335 0.8956 0.0
H541 H 0.98336 0.75292 0.82889 0.0
O542 O 0.99718 0.60539 0.88465 0.0
C543 C 0.01507 0.67035 0.82246 0.0
H544 H 0.9662 0.55682 0.40839 0.0
H545 H 0.91715 0.48233 0.42674 0.0
H546 H 0.96004 0.45816 0.44214 0.0
H547 H 0.01723 0.52441 0.37768 0.0
H548 H 0.04638 0.5456 0.38902 0.0
H549 H 0.01168 0.56031 0.38827 0.0
H550 H 0.01516 0.57266 0.43875 0.0
H551 H 0.05022 0.55806 0.43964 0.0
H552 H 0.02375 0.54553 0.46263 0.0
H553 H 0.00778 0.43837 0.44416 0.0
H554 H 0.05618 0.42468 0.43177 0.0
H555 H 0.07486 0.5116 0.41189 0.0
C556 C 0.96439 0.53591 0.41685 0.0
C557 C 0.93855 0.52142 0.41646 0.0
C558 C 0.93689 0.49376 0.42688 0.0
C559 C 0.96109 0.47996 0.43592 0.0
C560 C 0.98669 0.49419 0.43459 0.0
C561 C 0.98847 0.52175 0.42561 0.0
C562 C 0.01874 0.53051 0.42131 0.0
C563 C 0.02377 0.54076 0.39237 0.0
C564 C 0.02748 0.55302 0.44182 0.0
C565 C 0.03342 0.50286 0.42678 0.0
C566 C 0.01476 0.48245 0.43544 0.0
C567 C 0.02279 0.45433 0.43819 0.0
C568 C 0.05028 0.4467 0.43098 0.0
C569 C 0.06911 0.46709 0.42075 0.0
C570 C 0.06089 0.49561 0.4198 0.0
H571 H 0.48025 0.06813 0.64327 0.0
H572 H 0.57053 0.06952 0.63049 0.0
H573 H 0.56942 0.01939 0.618 0.0
H574 H 0.47661 0.01009 0.6765 0.0
H575 H 0.44453 0.99578 0.6628 0.0
H576 H 0.45047 0.03299 0.66192 0.0
H577 H 0.44377 0.03326 0.61041 0.0
H578 H 0.43742 0.99581 0.61112 0.0
H579 H 0.46454 0.01 0.58976 0.0
H580 H 0.56141 0.96871 0.62138 0.0
H581 H 0.54613 0.92164 0.63643 0.0
H582 H 0.46052 0.95205 0.6442 0.0
C583 C 0.49955 0.05806 0.63678 0.0
C584 C 0.52545 0.07241 0.63805 0.0
C585 C 0.55042 0.0588 0.6296 0.0
C586 C 0.54996 0.03037 0.62231 0.0
C587 C 0.52428 0.0162 0.6229 0.0
C588 C 0.49934 0.02977 0.62922 0.0
C589 C 0.47538 0.00909 0.63248 0.0
C590 C 0.46096 0.01218 0.66006 0.0
C591 C 0.45402 0.01222 0.60957 0.0
C592 C 0.49139 0.9817 0.63012 0.0
C593 C 0.51942 0.98621 0.62378 0.0
C594 C 0.53935 0.9647 0.62526 0.0
C595 C 0.53059 0.93817 0.63409 0.0
C596 C 0.50218 0.93348 0.64118 0.0
C597 C 0.48221 0.95511 0.63813 0.0
H598 H 0.96067 0.43806 0.63264 0.0
H599 H 0.91309 0.51134 0.60796 0.0
H600 H 0.95654 0.53378 0.59177 0.0
H601 H 0.00991 0.4721 0.66287 0.0
H602 H 0.03978 0.45045 0.65428 0.0
H603 H 0.0052 0.43551 0.65419 0.0
H604 H 0.0115 0.41992 0.6048 0.0
H605 H 0.04652 0.43464 0.6048 0.0
H606 H 0.02138 0.44546 0.5798 0.0
H607 H 0.00385 0.55337 0.59069 0.0
H608 H 0.05105 0.5685 0.60511 0.0
H609 H 0.06924 0.48333 0.63133 0.0
C610 C 0.95939 0.45816 0.62249 0.0
C611 C 0.93377 0.47296 0.6213 0.0
C612 C 0.93266 0.49969 0.6089 0.0
C613 C 0.95721 0.51247 0.59943 0.0
C614 C 0.98264 0.49823 0.60252 0.0
C615 C 0.98391 0.47142 0.61346 0.0
C616 C 0.01394 0.46315 0.61981 0.0
C617 C 0.01737 0.45487 0.64953 0.0
C618 C 0.02392 0.43938 0.60118 0.0
C619 C 0.02883 0.49048 0.6134 0.0
C620 C 0.01065 0.51003 0.60237 0.0
C621 C 0.01855 0.53803 0.59849 0.0
C622 C 0.04534 0.5465 0.60694 0.0
C623 C 0.06366 0.52708 0.61944 0.0
C624 C 0.05571 0.49855 0.62159 0.0
H625 H 0.48033 0.93678 0.39447 0.0
H626 H 0.57018 0.93766 0.40971 0.0
H627 H 0.56719 0.98748 0.42308 0.0
H628 H 0.47613 0.99554 0.36219 0.0
H629 H 0.44318 0.00854 0.37523 0.0
H630 H 0.45025 0.97151 0.37549 0.0
H631 H 0.4418 0.96982 0.42676 0.0
H632 H 0.43436 0.00708 0.42666 0.0
H633 H 0.46115 0.99315 0.4485 0.0
H634 H 0.55777 0.03791 0.42067 0.0
H635 H 0.54172 0.0848 0.40599 0.0
H636 H 0.4573 0.05232 0.39504 0.0
C637 C 0.49913 0.94725 0.40162 0.0
C638 C 0.52548 0.93366 0.40086 0.0
C639 C 0.54975 0.9478 0.41018 0.0
C640 C 0.54822 0.97605 0.41799 0.0
C641 C 0.52215 0.98948 0.41699 0.0
C642 C 0.49784 0.97536 0.40968 0.0
C643 C 0.47339 0.99542 0.40615 0.0
C644 C 0.46001 0.99258 0.37811 0.0
C645 C 0.45138 0.99111 0.42835 0.0
C646 C 0.48848 0.02321 0.40956 0.0
C647 C 0.5164 0.01932 0.41664 0.0
C648 C 0.53575 0.04139 0.41622 0.0
C649 C 0.52656 0.06784 0.4076 0.0
C650 C 0.49829 0.0719 0.3997 0.0
C651 C 0.47882 0.04971 0.40176 0.0
H652 H 0.57264 0.01686 0.91113 0.0
H653 H 0.55465 0.92955 0.92992 0.0
H654 H 0.50791 0.9433 0.94677 0.0
H655 H 0.52494 0.04972 0.96691 0.0
H656 H 0.51514 0.07754 0.94422 0.0
H657 H 0.55017 0.06289 0.94301 0.0
H658 H 0.5437 0.05221 0.89247 0.0
H659 H 0.50891 0.06657 0.89354 0.0
H660 H 0.51422 0.03102 0.88183 0.0
H661 H 0.46071 0.9627 0.94775 0.0
H662 H 0.41724 0.98607 0.93291 0.0
H663 H 0.46436 0.06168 0.91458 0.0
C664 C 0.55925 1.00081 0.91979 0.0
C665 C 0.56705 0.97217 0.91908 0.0
C666 C 0.54902 0.95165 0.93028 0.0
C667 C 0.52252 0.95933 0.94014 0.0
C668 C 0.51466 0.98762 0.93903 0.0
C669 C 0.53273 0.00818 0.92954 0.0
C670 C 0.51765 0.03594 0.92551 0.0
C671 C 0.52756 0.05781 0.94616 0.0
C672 C 0.52132 0.04702 0.89664 0.0
C673 C 0.4877 0.02689 0.9311 0.0
C674 C 0.48659 0.99926 0.93999 0.0
C675 C 0.46126 0.9846 0.94181 0.0
C676 C 0.4367 0.99795 0.93313 0.0
C677 C 0.43772 0.02564 0.92283 0.0
C678 C 0.46316 0.04076 0.92313 0.0
H679 H 0.94799 0.45605 0.13524 0.0
H680 H 0.03111 0.42278 0.11908 0.0
H681 H 0.04692 0.46975 0.10444 0.0
H682 H 0.95036 0.51837 0.08347 0.0
H683 H 0.93246 0.54058 0.10734 0.0
H684 H 0.92423 0.50353 0.10555 0.0
H685 H 0.93487 0.49874 0.15622 0.0
H686 H 0.94336 0.53539 0.15813 0.0
H687 H 0.96883 0.50953 0.16875 0.0
H688 H 0.05733 0.51987 0.104 0.0
H689 H 0.06243 0.56841 0.12052 0.0
H690 H 0.97349 0.57056 0.14005 0.0
C691 C 0.96903 0.45855 0.1272 0.0
C692 C 0.98833 0.43611 0.12792 0.0
C693 C 0.01608 0.43993 0.11843 0.0
C694 C 0.0251 0.46645 0.10984 0.0
C695 C 0.00613 0.48884 0.11107 0.0
C696 C 0.9785 0.48514 0.11936 0.0
C697 C 0.96435 0.51308 0.12505 0.0
C698 C 0.9415 0.51925 0.10409 0.0
C699 C 0.9522 0.51422 0.15373 0.0
C700 C 0.98916 0.53269 0.12166 0.0
C701 C 0.01261 0.51854 0.11214 0.0
C702 C 0.03896 0.53137 0.11074 0.0
C703 C 0.0417 0.55891 0.12035 0.0
C704 C 0.01835 0.57297 0.13177 0.0
C705 C 0.9916 0.56017 0.13132 0.0
H706 H 0.46716 0.94471 0.12787 0.0
H707 H 0.41936 0.02101 0.11405 0.0
H708 H 0.46194 0.04444 0.09705 0.0
H709 H 0.51925 0.97381 0.15756 0.0
H710 H 0.54779 0.95283 0.14452 0.0
H711 H 0.51294 0.93862 0.1453 0.0
H712 H 0.51513 0.9291 0.09421 0.0
H713 H 0.55037 0.94323 0.09329 0.0
H714 H 0.52361 0.95739 0.07154 0.0
H715 H 0.50953 0.06338 0.0948 0.0
H716 H 0.55761 0.07616 0.10873 0.0
H717 H 0.57578 0.98824 0.12441 0.0
C718 C 0.46551 0.96588 0.11998 0.0
C719 C 0.44022 0.98111 0.12222 0.0
C720 C 0.43871 0.00904 0.11251 0.0
C721 C 0.46273 0.02241 0.10253 0.0
C722 C 0.48799 0.00749 0.10225 0.0
C723 C 0.48949 0.97962 0.11039 0.0
C724 C 0.51969 0.97017 0.11364 0.0
C725 C 0.52521 0.95821 0.14193 0.0
C726 C 0.52767 0.94871 0.09186 0.0
C727 C 0.53466 0.99786 0.10919 0.0
C728 C 0.5162 0.01883 0.10134 0.0
C729 C 0.52439 0.04702 0.10007 0.0
C730 C 0.5517 0.05414 0.10817 0.0
C731 C 0.57015 0.03315 0.11783 0.0
C732 C 0.56199 0.00463 0.117 0.0
H733 H 0.02654 0.56698 0.90753 0.0
H734 H 0.93686 0.56496 0.92356 0.0
H735 H 0.94049 0.51511 0.93639 0.0
H736 H 0.03121 0.50977 0.87426 0.0
H737 H 0.06424 0.49635 0.88665 0.0
H738 H 0.05713 0.53331 0.88828 0.0
H739 H 0.06572 0.53316 0.93951 0.0
H740 H 0.0733 0.49596 0.93803 0.0
H741 H 0.04656 0.50896 0.96052 0.0
H742 H 0.95003 0.46494 0.93207 0.0
H743 H 0.96586 0.41888 0.91485 0.0
H744 H 0.05009 0.45192 0.90433 0.0
C745 C 0.00795 0.55627 0.91488 0.0
C746 C 0.98144 0.56954 0.91433 0.0
C747 C 0.95742 0.5551 0.92387 0.0
C748 C 0.95932 0.5268 0.93137 0.0
C749 C 0.98549 0.51358 0.92986 0.0
C750 C 0.00962 0.52807 0.9226 0.0
C751 C 0.03412 0.50823 0.91819 0.0
C752 C 0.04739 0.51215 0.89019 0.0
C753 C 0.05623 0.51179 0.94039 0.0
C754 C 0.01916 0.48026 0.92072 0.0
C755 C 0.99133 0.48377 0.92839 0.0
C756 C 0.972 0.46171 0.92718 0.0
C757 C 0.98105 0.43574 0.91711 0.0
C758 C 0.00918 0.43212 0.90858 0.0
C759 C 0.02869 0.45418 0.91152 0.0
H760 H 0.28422 0.36755 0.32745 0.0
H761 H 0.33115 0.44052 0.35469 0.0
H762 H 0.37263 0.41052 0.36284 0.0
H763 H 0.31607 0.31601 0.37398 0.0
H764 H 0.3171 0.28834 0.34925 0.0
H765 H 0.28999 0.3149 0.34778 0.0
H766 H 0.30451 0.32681 0.29907 0.0
H767 H 0.33158 0.30031 0.30038 0.0
H768 H 0.34056 0.33611 0.29195 0.0
H769 H 0.40943 0.37401 0.36594 0.0
H770 H 0.44085 0.3331 0.36186 0.0
H771 H 0.37146 0.28303 0.33121 0.0
C772 C 0.30307 0.37702 0.33565 0.0
C773 C 0.30442 0.40632 0.34076 0.0
C774 C 0.32969 0.41814 0.35067 0.0
C775 C 0.35329 0.40125 0.35553 0.0
C776 C 0.35141 0.37253 0.35018 0.0
C777 C 0.32706 0.36042 0.34034 0.0
C778 C 0.33155 0.32929 0.33456 0.0
C779 C 0.31254 0.31106 0.35247 0.0
C780 C 0.32677 0.32276 0.30472 0.0
C781 C 0.36234 0.32603 0.34222 0.0
C782 C 0.37313 0.35124 0.35151 0.0
C783 C 0.40121 0.3541 0.35889 0.0
C784 C 0.41892 0.33071 0.35639 0.0
C785 C 0.40867 0.30467 0.3465 0.0
C786 C 0.37985 0.3023 0.33955 0.0
H787 H 0.32326 0.59299 0.69595 0.0
H788 H 0.25124 0.64354 0.71939 0.0
H789 H 0.28094 0.68614 0.71921 0.0
H790 H 0.37418 0.6295 0.7359 0.0
H791 H 0.40194 0.627 0.71137 0.0
H792 H 0.37483 0.60052 0.71254 0.0
H793 H 0.36337 0.60966 0.66254 0.0
H794 H 0.39045 0.63619 0.66123 0.0
H795 H 0.35488 0.64487 0.65173 0.0
H796 H 0.31884 0.72285 0.71865 0.0
H797 H 0.36202 0.7513 0.71696 0.0
H798 H 0.40956 0.67764 0.69219 0.0
C799 C 0.31379 0.61307 0.70096 0.0
C800 C 0.28482 0.61507 0.70715 0.0
C801 C 0.27317 0.64163 0.71379 0.0
C802 C 0.28994 0.66593 0.71396 0.0
C803 C 0.31835 0.66333 0.70746 0.0
C804 C 0.33021 0.63761 0.70103 0.0
C805 C 0.36138 0.64065 0.69505 0.0
C806 C 0.37912 0.6234 0.7149 0.0
C807 C 0.36789 0.63235 0.6659 0.0
C808 C 0.3652 0.67201 0.69943 0.0
C809 C 0.34011 0.68468 0.70656 0.0
C810 C 0.33852 0.71329 0.71254 0.0
C811 C 0.3632 0.72943 0.71114 0.0
C812 C 0.38914 0.71706 0.70344 0.0
C813 C 0.39001 0.68787 0.69772 0.0
H814 H 0.63567 0.72123 0.33315 0.0
H815 H 0.5652 0.67104 0.36135 0.0
H816 H 0.59631 0.62988 0.36534 0.0
H817 H 0.6673 0.66902 0.29386 0.0
H818 H 0.70317 0.67806 0.30193 0.0
H819 H 0.67615 0.70461 0.30326 0.0
H820 H 0.68911 0.7156 0.35254 0.0
H821 H 0.71634 0.68915 0.35134 0.0
H822 H 0.68948 0.68751 0.37682 0.0
H823 H 0.63312 0.59326 0.36253 0.0
H824 H 0.67475 0.56327 0.35481 0.0
H825 H 0.72272 0.63659 0.3303 0.0
C826 C 0.62694 0.7019 0.34098 0.0
C827 C 0.59793 0.6996 0.34727 0.0
C828 C 0.58728 0.67342 0.3564 0.0
C829 C 0.60482 0.64989 0.35886 0.0
C830 C 0.63312 0.65275 0.35226 0.0
C831 C 0.64428 0.67808 0.34372 0.0
C832 C 0.6753 0.67483 0.33679 0.0
C833 C 0.68079 0.68205 0.3072 0.0
C834 C 0.69364 0.69285 0.35549 0.0
C835 C 0.67949 0.64361 0.34213 0.0
C836 C 0.65482 0.63141 0.35112 0.0
C837 C 0.6527 0.6026 0.3559 0.0
C838 C 0.6764 0.58573 0.35133 0.0
C839 C 0.70199 0.59766 0.3423 0.0
C840 C 0.7036 0.62704 0.33783 0.0
H841 H 0.71987 0.36864 0.71432 0.0
H842 H 0.6717 0.44187 0.68985 0.0
H843 H 0.63016 0.41181 0.68231 0.0
H844 H 0.68717 0.31813 0.66746 0.0
H845 H 0.68709 0.28983 0.6915 0.0
H846 H 0.71398 0.31658 0.69296 0.0
H847 H 0.70071 0.3271 0.74231 0.0
H848 H 0.67384 0.3004 0.741 0.0
H849 H 0.66479 0.33588 0.75056 0.0
H850 H 0.59351 0.37503 0.67933 0.0
H851 H 0.5627 0.33359 0.68276 0.0
H852 H 0.63345 0.28353 0.71048 0.0
C853 C 0.70074 0.37818 0.70685 0.0
C854 C 0.69907 0.40756 0.70234 0.0
C855 C 0.67342 0.41943 0.6934 0.0
C856 C 0.64976 0.40251 0.68891 0.0
C857 C 0.65199 0.3737 0.69361 0.0
C858 C 0.67671 0.36154 0.70248 0.0
C859 C 0.67268 0.33025 0.70758 0.0
C860 C 0.69134 0.31266 0.68875 0.0
C861 C 0.67834 0.32299 0.73712 0.0
C862 C 0.64172 0.32693 0.70062 0.0
C863 C 0.63042 0.35227 0.69231 0.0
C864 C 0.60213 0.35501 0.68563 0.0
C865 C 0.58478 0.33132 0.68775 0.0
C866 C 0.59561 0.3051 0.69656 0.0
C867 C 0.62459 0.30292 0.70291 0.0
H868 H 0.89813 0.81011 0.80389 0.0
H869 H 0.88762 0.77582 0.88372 0.0
H870 H 0.84967 0.81026 0.89273 0.0
H871 H 0.88641 0.88261 0.82116 0.0
H872 H 0.8672 0.89074 0.79102 0.0
H873 H 0.89342 0.86332 0.79074 0.0
H874 H 0.85639 0.82774 0.77315 0.0
H875 H 0.8301 0.85508 0.77323 0.0
H876 H 0.82401 0.82288 0.79143 0.0
H877 H 0.81459 0.84967 0.8937 0.0
H878 H 0.78229 0.88924 0.88573 0.0
H879 H 0.81334 0.89658 0.80425 0.0
C880 C 0.88765 0.80985 0.82317 0.0
C881 C 0.89528 0.79009 0.84298 0.0
C882 C 0.88147 0.7904 0.8681 0.0
C883 C 0.86011 0.81 0.87345 0.0
C884 C 0.85286 0.82911 0.85343 0.0
C885 C 0.86604 0.82909 0.82872 0.0
C886 C 0.85395 0.85168 0.81063 0.0
C887 C 0.8766 0.87337 0.80294 0.0
C888 C 0.8403 0.83856 0.78563 0.0
C889 C 0.83202 0.86448 0.82906 0.0
C890 C 0.83191 0.85124 0.8537 0.0
C891 C 0.81405 0.85979 0.87429 0.0
C892 C 0.79543 0.8821 0.86942 0.0
C893 C 0.79436 0.89532 0.84399 0.0
C894 C 0.81335 0.88664 0.82377 0.0
H895 H 0.81352 0.10815 0.23817 0.0
H896 H 0.78177 0.11816 0.15726 0.0
H897 H 0.8142 0.15776 0.15004 0.0
H898 H 0.82463 0.18135 0.25283 0.0
H899 H 0.85708 0.17572 0.27074 0.0
H900 H 0.83065 0.14852 0.27002 0.0
H901 H 0.86721 0.11322 0.25101 0.0
H902 H 0.89378 0.14027 0.25178 0.0
H903 H 0.8863 0.12201 0.22092 0.0
H904 H 0.84964 0.19674 0.15159 0.0
H905 H 0.88801 0.23052 0.16098 0.0
H906 H 0.89895 0.19406 0.23988 0.0
C907 C 0.81339 0.11871 0.21895 0.0
C908 C 0.79418 0.11075 0.19869 0.0
C909 C 0.79508 0.12474 0.17363 0.0
C910 C 0.81377 0.14708 0.16918 0.0
C911 C 0.83187 0.15489 0.1898 0.0
C912 C 0.83214 0.14094 0.21408 0.0
C913 C 0.85436 0.15307 0.23259 0.0
C914 C 0.84087 0.1654 0.25805 0.0
C915 C 0.87674 0.13082 0.23947 0.0
C916 C 0.86643 0.17607 0.21494 0.0
C917 C 0.85301 0.17685 0.1904 0.0
C918 C 0.86024 0.1964 0.17077 0.0
C919 C 0.88185 0.21563 0.17634 0.0
C920 C 0.89591 0.21517 0.20132 0.0
C921 C 0.88827 0.19496 0.22073 0.0
H922 H 0.10589 0.1909 0.80213 0.0
H923 H 0.11725 0.22878 0.88042 0.0
H924 H 0.15658 0.19604 0.88962 0.0
H925 H 0.12027 0.1197 0.82168 0.0
H926 H 0.13896 0.11081 0.79138 0.0
H927 H 0.11196 0.13745 0.79076 0.0
H928 H 0.14748 0.17326 0.77094 0.0
H929 H 0.17456 0.1467 0.77138 0.0
H930 H 0.18015 0.17983 0.78821 0.0
H931 H 0.19284 0.15776 0.89113 0.0
H932 H 0.2258 0.11857 0.88396 0.0
H933 H 0.19308 0.10685 0.80357 0.0
C934 C 0.11687 0.19233 0.8211 0.0
C935 C 0.10906 0.21263 0.8404 0.0
C936 C 0.12352 0.21381 0.86514 0.0
C937 C 0.14568 0.19518 0.8706 0.0
C938 C 0.15306 0.17551 0.85108 0.0
C939 C 0.13926 0.17406 0.82675 0.0
C940 C 0.15155 0.15105 0.8092 0.0
C941 C 0.12936 0.12841 0.80289 0.0
C942 C 0.16419 0.16345 0.78341 0.0
C943 C 0.1743 0.13969 0.82753 0.0
C944 C 0.17467 0.15402 0.85163 0.0
C945 C 0.19319 0.14682 0.8721 0.0
C946 C 0.21219 0.1247 0.86766 0.0
C947 C 0.21296 0.11035 0.84276 0.0
C948 C 0.19334 0.11772 0.82266 0.0
H949 H 0.19464 0.89681 0.23869 0.0
H950 H 0.22643 0.88652 0.15773 0.0
H951 H 0.19398 0.84693 0.15063 0.0
H952 H 0.18312 0.82371 0.2535 0.0
H953 H 0.15066 0.82967 0.27137 0.0
H954 H 0.1773 0.85666 0.27062 0.0
H955 H 0.14107 0.89216 0.2515 0.0
H956 H 0.11428 0.86532 0.2523 0.0
H957 H 0.122 0.88339 0.22141 0.0
H958 H 0.15828 0.80801 0.15229 0.0
H959 H 0.11949 0.77468 0.16172 0.0
H960 H 0.10865 0.81169 0.24048 0.0
C961 C 0.19482 0.88619 0.21948 0.0
C962 C 0.21406 0.8941 0.19919 0.0
C963 C 0.21316 0.88001 0.17416 0.0
C964 C 0.19443 0.85766 0.16977 0.0
C965 C 0.17629 0.84995 0.19041 0.0
C966 C 0.17603 0.864 0.21466 0.0
C967 C 0.15367 0.85213 0.23317 0.0
C968 C 0.16699 0.83981 0.25867 0.0
C969 C 0.13144 0.87459 0.23999 0.0
C970 C 0.14148 0.82916 0.21557 0.0
C971 C 0.15499 0.82814 0.19104 0.0
C972 C 0.14762 0.80855 0.17145 0.0
C973 C 0.12577 0.78957 0.17705 0.0
C974 C 0.1116 0.79035 0.20198 0.0
C975 C 0.11941 0.81055 0.22136 0.0
H976 H 0.11334 0.51234 0.30421 0.0
H977 H 0.19907 0.54347 0.30618 0.0
H978 H 0.18521 0.58316 0.27648 0.0
H979 H 0.10088 0.52854 0.2342 0.0
H980 H 0.06446 0.53745 0.23984 0.0
H981 H 0.08158 0.512 0.26103 0.0
H982 H 0.06792 0.54132 0.30293 0.0
H983 H 0.05084 0.56688 0.28188 0.0
H984 H 0.07803 0.57786 0.30479 0.0
H985 H 0.15968 0.62206 0.24907 0.0
H986 H 0.1269 0.65253 0.22322 0.0
H987 H 0.05976 0.59242 0.23701 0.0
C988 C 0.12926 0.52746 0.29835 0.0
C989 C 0.15723 0.52503 0.30768 0.0
C990 C 0.17753 0.54498 0.29923 0.0
C991 C 0.16979 0.56761 0.28246 0.0
C992 C 0.14183 0.56957 0.27389 0.0
C993 C 0.12207 0.54963 0.28125 0.0
C994 C 0.09359 0.55577 0.26907 0.0
C995 C 0.08461 0.53203 0.24989 0.0
C996 C 0.07129 0.56076 0.29097 0.0
C997 C 0.1001 0.58259 0.25399 0.0
C998 C 0.1279 0.59055 0.25713 0.0
C999 C 0.13802 0.61569 0.24617 0.0
C1000 C 0.11928 0.63292 0.23158 0.0
C1001 C 0.09092 0.62464 0.22771 0.0
C1002 C 0.08146 0.59907 0.23906 0.0
H1003 H 0.51482 0.84438 0.77555 0.0
H1004 H 0.5723 0.80131 0.72235 0.0
H1005 H 0.61234 0.81549 0.75101 0.0
H1006 H 0.55319 0.90208 0.78144 0.0
H1007 H 0.54561 0.91021 0.81598 0.0
H1008 H 0.521 0.88992 0.79672 0.0
H1009 H 0.52298 0.84949 0.83142 0.0
H1010 H 0.54716 0.86997 0.85132 0.0
H1011 H 0.55654 0.83483 0.84091 0.0
H1012 H 0.64645 0.84361 0.7792 0.0
H1013 H 0.67093 0.88016 0.80583 0.0
H1014 H 0.59088 0.90547 0.84025 0.0
C1015 C 0.53563 0.83625 0.77114 0.0
C1016 C 0.54042 0.82064 0.74751 0.0
C1017 C 0.56814 0.81213 0.74106 0.0
C1018 C 0.59102 0.82041 0.7571 0.0
C1019 C 0.5858 0.83729 0.77949 0.0
C1020 C 0.55864 0.84469 0.78678 0.0
C1021 C 0.55876 0.86648 0.809 0.0
C1022 C 0.54377 0.89376 0.80024 0.0
C1023 C 0.54558 0.85446 0.83469 0.0
C1024 C 0.59012 0.87108 0.81233 0.0
C1025 C 0.60546 0.85387 0.79541 0.0
C1026 C 0.63466 0.85663 0.79304 0.0
C1027 C 0.64841 0.87755 0.80817 0.0
C1028 C 0.63296 0.8956 0.82538 0.0
C1029 C 0.6035 0.89176 0.82772 0.0
H1030 H 0.87298 0.45136 0.33059 0.0
H1031 H 0.81651 0.4935 0.27537 0.0
H1032 H 0.83106 0.46054 0.23944 0.0
H1033 H 0.92819 0.44088 0.28628 0.0
H1034 H 0.93808 0.40666 0.29874 0.0
H1035 H 0.92098 0.43148 0.3206 0.0
H1036 H 0.88191 0.395 0.33091 0.0
H1037 H 0.89898 0.36994 0.30914 0.0
H1038 H 0.86262 0.37918 0.30368 0.0
H1039 H 0.85754 0.42752 0.20798 0.0
H1040 H 0.89022 0.39452 0.18505 0.0
H1041 H 0.92653 0.37175 0.2615 0.0
C1042 C 0.86317 0.45331 0.3111 0.0
C1043 C 0.84353 0.47505 0.30584 0.0
C1044 C 0.83136 0.4769 0.27999 0.0
C1045 C 0.8396 0.45831 0.25942 0.0
C1046 C 0.85961 0.43761 0.26514 0.0
C1047 C 0.87083 0.43471 0.29053 0.0
C1048 C 0.89284 0.41159 0.29132 0.0
C1049 C 0.92172 0.42337 0.29972 0.0
C1050 C 0.88352 0.38749 0.30986 0.0
C1051 C 0.8929 0.40237 0.26225 0.0
C1052 C 0.87366 0.41768 0.24739 0.0
C1053 C 0.87204 0.41486 0.21957 0.0
C1054 C 0.8906 0.39609 0.2067 0.0
C1055 C 0.9101 0.38003 0.22167 0.0
C1056 C 0.911 0.38302 0.24978 0.0
H1057 H 0.41789 0.09479 0.8407 0.0
H1058 H 0.33784 0.12499 0.8103 0.0
H1059 H 0.36302 0.1601 0.78258 0.0
H1060 H 0.45667 0.16316 0.83976 0.0
H1061 H 0.48861 0.14632 0.82856 0.0
H1062 H 0.4642 0.12742 0.84958 0.0
H1063 H 0.46135 0.08742 0.81431 0.0
H1064 H 0.48584 0.10604 0.7934 0.0
H1065 H 0.45198 0.09591 0.78026 0.0
H1066 H 0.39718 0.18655 0.75299 0.0
H1067 H 0.43674 0.19962 0.72308 0.0
H1068 H 0.49414 0.15238 0.77297 0.0
C1069 C 0.40551 0.10936 0.8289 0.0
C1070 C 0.3758 0.10729 0.82796 0.0
C1071 C 0.36057 0.12628 0.81156 0.0
C1072 C 0.37472 0.14639 0.79582 0.0
C1073 C 0.4041 0.14735 0.79674 0.0
C1074 C 0.41928 0.12929 0.81294 0.0
C1075 C 0.45063 0.13192 0.80789 0.0
C1076 C 0.46592 0.14287 0.83294 0.0
C1077 C 0.46316 0.10366 0.79839 0.0
C1078 C 0.45079 0.15368 0.78573 0.0
C1079 C 0.42379 0.16273 0.77983 0.0
C1080 C 0.41845 0.18031 0.75799 0.0
C1081 C 0.44104 0.18789 0.74123 0.0
C1082 C 0.46855 0.17802 0.74651 0.0
C1083 C 0.47352 0.1614 0.76942 0.0
H1084 H 0.11424 0.46387 0.71398 0.0
H1085 H 0.19214 0.47958 0.75686 0.0
H1086 H 0.1787 0.44338 0.79031 0.0
H1087 H 0.07091 0.45668 0.7702 0.0
H1088 H 0.04928 0.42935 0.75588 0.0
H1089 H 0.06639 0.45446 0.73439 0.0
H1090 H 0.09022 0.4138 0.70818 0.0
H1091 H 0.07313 0.38849 0.72959 0.0
H1092 H 0.1109 0.38809 0.72603 0.0
H1093 H 0.15463 0.40645 0.82067 0.0
H1094 H 0.12215 0.37402 0.84478 0.0
H1095 H 0.06031 0.38449 0.78194 0.0
C1096 C 0.12878 0.45958 0.73017 0.0
C1097 C 0.15438 0.47463 0.73264 0.0
C1098 C 0.17252 0.46828 0.75436 0.0
C1099 C 0.16503 0.44773 0.77348 0.0
C1100 C 0.13938 0.43362 0.77055 0.0
C1101 C 0.12163 0.43932 0.74932 0.0
C1102 C 0.09465 0.42244 0.7511 0.0
C1103 C 0.0688 0.4419 0.75302 0.0
C1104 C 0.09209 0.40199 0.72731 0.0
C1105 C 0.09956 0.40674 0.77702 0.0
C1106 C 0.1256 0.41305 0.78788 0.0
C1107 C 0.13433 0.40127 0.81217 0.0
C1108 C 0.11587 0.38286 0.8257 0.0
C1109 C 0.08901 0.37673 0.81497 0.0
C1110 C 0.08092 0.38871 0.79034 0.0
H1111 H 0.49509 0.84997 0.26757 0.0
H1112 H 0.438 0.80472 0.31943 0.0
H1113 H 0.39797 0.81836 0.29043 0.0
H1114 H 0.45482 0.90694 0.26129 0.0
H1115 H 0.46301 0.91526 0.22693 0.0
H1116 H 0.48777 0.89578 0.24676 0.0
H1117 H 0.48797 0.85534 0.21195 0.0
H1118 H 0.4636 0.875 0.19155 0.0
H1119 H 0.45515 0.83957 0.20173 0.0
H1120 H 0.36357 0.84545 0.26159 0.0
H1121 H 0.3385 0.88101 0.23431 0.0
H1122 H 0.41842 0.90892 0.20156 0.0
C1123 C 0.47439 0.84141 0.27168 0.0
C1124 C 0.46967 0.82523 0.29494 0.0
C1125 C 0.44209 0.81603 0.30099 0.0
C1126 C 0.41924 0.82396 0.28475 0.0
C1127 C 0.42437 0.84118 0.2626 0.0
C1128 C 0.45142 0.8494 0.25581 0.0
C1129 C 0.45111 0.87115 0.2336 0.0
C1130 C 0.46498 0.8989 0.24271 0.0
C1131 C 0.46529 0.85956 0.2082 0.0
C1132 C 0.4197 0.87471 0.22962 0.0
C1133 C 0.40456 0.85708 0.24627 0.0
C1134 C 0.37524 0.85881 0.24798 0.0
C1135 C 0.36115 0.87917 0.23247 0.0
C1136 C 0.37637 0.89764 0.21553 0.0
C1137 C 0.40599 0.89482 0.21384 0.0
H1138 H 0.88851 0.51324 0.73987 0.0
H1139 H 0.80356 0.54625 0.7363 0.0
H1140 H 0.81735 0.58499 0.76729 0.0
H1141 H 0.89924 0.52773 0.8107 0.0
H1142 H 0.936 0.53587 0.80612 0.0
H1143 H 0.9189 0.5112 0.78406 0.0
H1144 H 0.93438 0.54087 0.74305 0.0
H1145 H 0.95146 0.56565 0.76495 0.0
H1146 H 0.92517 0.57768 0.74158 0.0
H1147 H 0.8431 0.62294 0.79593 0.0
H1148 H 0.876 0.6524 0.82272 0.0
H1149 H 0.942 0.59079 0.80976 0.0
C1150 C 0.87273 0.52856 0.74569 0.0
C1151 C 0.84504 0.52699 0.73553 0.0
C1152 C 0.82489 0.54714 0.7439 0.0
C1153 C 0.8326 0.56921 0.7614 0.0
C1154 C 0.86034 0.57035 0.77077 0.0
C1155 C 0.87986 0.55012 0.76352 0.0
C1156 C 0.90813 0.55537 0.77651 0.0
C1157 C 0.91602 0.5311 0.79548 0.0
C1158 C 0.93113 0.56019 0.75525 0.0
C1159 C 0.90182 0.58207 0.79189 0.0
C1160 C 0.87429 0.59072 0.78824 0.0
C1161 C 0.86451 0.616 0.79926 0.0
C1162 C 0.88332 0.63264 0.81439 0.0
C1163 C 0.9114 0.62366 0.81874 0.0
C1164 C 0.92049 0.59795 0.80738 0.0
H1165 H 0.5135 0.15704 0.2661 0.0
H1166 H 0.57073 0.20365 0.31669 0.0
H1167 H 0.61062 0.18952 0.28768 0.0
H1168 H 0.55372 0.10017 0.26086 0.0
H1169 H 0.54552 0.09086 0.22673 0.0
H1170 H 0.52075 0.11088 0.24614 0.0
H1171 H 0.52049 0.15036 0.21042 0.0
H1172 H 0.54483 0.13014 0.19041 0.0
H1173 H 0.55328 0.16583 0.19973 0.0
H1174 H 0.64495 0.16162 0.25943 0.0
H1175 H 0.67 0.12536 0.23285 0.0
H1176 H 0.59005 0.09654 0.201 0.0
C1177 C 0.53417 0.16584 0.26986 0.0
C1178 C 0.53897 0.1825 0.29282 0.0
C1179 C 0.56654 0.19198 0.29847 0.0
C1180 C 0.58934 0.18375 0.28223 0.0
C1181 C 0.58416 0.16596 0.26048 0.0
C1182 C 0.55709 0.15753 0.254 0.0
C1183 C 0.55738 0.13516 0.23232 0.0
C1184 C 0.54354 0.10767 0.24212 0.0
C1185 C 0.54316 0.14603 0.20669 0.0
C1186 C 0.58878 0.13149 0.22831 0.0
C1187 C 0.60395 0.14959 0.24449 0.0
C1188 C 0.63327 0.14789 0.24617 0.0
C1189 C 0.64734 0.12712 0.23108 0.0
C1190 C 0.63211 0.10822 0.21458 0.0
C1191 C 0.60248 0.11096 0.21295 0.0
H1192 H 0.5616 0.09901 0.73744 0.0
H1193 H 0.62896 0.15894 0.72381 0.0
H1194 H 0.66163 0.12808 0.74952 0.0
H1195 H 0.57956 0.08336 0.8047 0.0
H1196 H 0.56914 0.04696 0.80213 0.0
H1197 H 0.5524 0.07306 0.78145 0.0
H1198 H 0.56588 0.04461 0.73896 0.0
H1199 H 0.58273 0.01842 0.75951 0.0
H1200 H 0.60223 0.03551 0.73313 0.0
H1201 H 0.68704 0.08822 0.7768 0.0
H1202 H 0.70036 0.04777 0.8059 0.0
H1203 H 0.61435 0.01758 0.8029 0.0
C1204 C 0.58331 0.10567 0.73953 0.0
C1205 C 0.59282 0.13126 0.72824 0.0
C1206 C 0.62123 0.13936 0.73214 0.0
C1207 C 0.63992 0.12189 0.74664 0.0
C1208 C 0.62971 0.09664 0.7574 0.0
C1209 C 0.60186 0.08891 0.7542 0.0
C1210 C 0.59517 0.0618 0.7687 0.0
C1211 C 0.57275 0.0666 0.79054 0.0
C1212 C 0.58597 0.03873 0.74889 0.0
C1213 C 0.62357 0.05523 0.78075 0.0
C1214 C 0.64351 0.07517 0.7738 0.0
C1215 C 0.67144 0.0727 0.78242 0.0
C1216 C 0.67889 0.04962 0.79883 0.0
C1217 C 0.65834 0.02971 0.80684 0.0
C1218 C 0.63048 0.03263 0.79739 0.0
H1219 H 0.14785 0.4078 0.28699 0.0
H1220 H 0.11981 0.37238 0.36225 0.0
H1221 H 0.08723 0.34076 0.33789 0.0
H1222 H 0.08212 0.41412 0.26131 0.0
H1223 H 0.09114 0.40686 0.22691 0.0
H1224 H 0.11722 0.42103 0.24919 0.0
H1225 H 0.15039 0.37909 0.2387 0.0
H1226 H 0.12441 0.36485 0.21612 0.0
H1227 H 0.13787 0.34355 0.2431 0.0
H1228 H 0.05273 0.31816 0.30579 0.0
H1229 H 0.01788 0.30939 0.26981 0.0
H1230 H 0.06651 0.36218 0.21612 0.0
C1231 C 0.13592 0.3923 0.29815 0.0
C1232 C 0.13701 0.39171 0.32638 0.0
C1233 C 0.1198 0.37248 0.34055 0.0
C1234 C 0.10122 0.3545 0.32685 0.0
C1235 C 0.09979 0.3563 0.29898 0.0
C1236 C 0.11672 0.37479 0.28479 0.0
C1237 C 0.10797 0.37621 0.25564 0.0
C1238 C 0.09908 0.40633 0.24783 0.0
C1239 C 0.13157 0.36526 0.23731 0.0
C1240 C 0.08303 0.35632 0.25578 0.0
C1241 C 0.07898 0.34449 0.28076 0.0
C1242 C 0.05599 0.32696 0.28604 0.0
C1243 C 0.03632 0.322 0.26547 0.0
C1244 C 0.03949 0.33501 0.24015 0.0
C1245 C 0.06358 0.35176 0.23522 0.0
H1246 H 0.44895 0.91067 0.73681 0.0
H1247 H 0.38282 0.84979 0.72171 0.0
H1248 H 0.3491 0.87991 0.74689 0.0
H1249 H 0.42942 0.92482 0.80379 0.0
H1250 H 0.43908 0.9615 0.8023 0.0
H1251 H 0.45671 0.93632 0.78117 0.0
H1252 H 0.44326 0.96557 0.73923 0.0
H1253 H 0.42556 0.99085 0.76026 0.0
H1254 H 0.40682 0.97409 0.73321 0.0
H1255 H 0.32256 0.91824 0.77451 0.0
H1256 H 0.30794 0.95722 0.80493 0.0
H1257 H 0.39321 0.9896 0.80369 0.0
C1258 C 0.42728 0.90378 0.7384 0.0
C1259 C 0.41843 0.87803 0.72694 0.0
C1260 C 0.39003 0.86952 0.73018 0.0
C1261 C 0.37074 0.88655 0.74437 0.0
C1262 C 0.38028 0.91184 0.75553 0.0
C1263 C 0.40805 0.92014 0.75287 0.0
C1264 C 0.4139 0.947 0.76817 0.0
C1265 C 0.43608 0.9421 0.79016 0.0
C1266 C 0.42291 0.97078 0.74908 0.0
C1267 C 0.38515 0.95264 0.78005 0.0
C1268 C 0.36576 0.93253 0.77227 0.0
C1269 C 0.33769 0.93396 0.78076 0.0
C1270 C 0.3295 0.95619 0.79792 0.0
C1271 C 0.34948 0.97624 0.80682 0.0
C1272 C 0.3775 0.97441 0.79745 0.0
H1273 H 0.99197 0.64932 0.27291 0.0
H1274 H 0.93581 0.69711 0.22223 0.0
H1275 H 0.89571 0.68474 0.25179 0.0
H1276 H 0.94899 0.59368 0.28004 0.0
H1277 H 0.95783 0.58517 0.3142 0.0
H1278 H 0.98283 0.60341 0.29353 0.0
H1279 H 0.98586 0.64386 0.32825 0.0
H1280 H 0.96111 0.62549 0.34935 0.0
H1281 H 0.9541 0.66123 0.33919 0.0
H1282 H 0.86083 0.65966 0.28183 0.0
H1283 H 0.83482 0.6254 0.3098 0.0
H1284 H 0.91417 0.59362 0.34049 0.0
C1285 C 0.97148 0.65851 0.26906 0.0
C1286 C 0.96702 0.67515 0.24608 0.0
C1287 C 0.9397 0.68532 0.24042 0.0
C1288 C 0.91683 0.67819 0.25701 0.0
C1289 C 0.92169 0.66077 0.27907 0.0
C1290 C 0.94849 0.65134 0.28528 0.0
C1291 C 0.94774 0.62975 0.3076 0.0
C1292 C 0.96006 0.60134 0.29826 0.0
C1293 C 0.96311 0.64075 0.33258 0.0
C1294 C 0.91632 0.62772 0.31238 0.0
C1295 C 0.90159 0.64597 0.29602 0.0
C1296 C 0.87219 0.64576 0.29516 0.0
C1297 C 0.85756 0.62617 0.3111 0.0
C1298 C 0.87233 0.60689 0.32758 0.0
C1299 C 0.90209 0.60831 0.32854 0.0
H1300 H 0.61327 0.97893 0.22742 0.0
H1301 H 0.70192 0.96322 0.24171 0.0
H1302 H 0.68912 0.92316 0.2715 0.0
H1303 H 0.59032 0.9656 0.29414 0.0
H1304 H 0.5575 0.95009 0.28361 0.0
H1305 H 0.57428 0.9763 0.26304 0.0
H1306 H 0.5739 0.94171 0.2228 0.0
H1307 H 0.55722 0.91536 0.24329 0.0
H1308 H 0.58981 0.90744 0.22635 0.0
H1309 H 0.66478 0.88274 0.29914 0.0
H1310 H 0.63234 0.85113 0.32444 0.0
H1311 H 0.56101 0.89713 0.29273 0.0
C1312 C 0.63015 0.96704 0.23662 0.0
C1313 C 0.65865 0.97405 0.23194 0.0
C1314 C 0.67993 0.9582 0.24492 0.0
C1315 C 0.67282 0.93535 0.26178 0.0
C1316 C 0.64435 0.9289 0.2657 0.0
C1317 C 0.62345 0.9447 0.25363 0.0
C1318 C 0.59441 0.93476 0.26158 0.0
C1319 C 0.57819 0.95807 0.27648 0.0
C1320 C 0.57788 0.92419 0.23705 0.0
C1321 C 0.60198 0.91079 0.28009 0.0
C1322 C 0.63079 0.90723 0.28209 0.0
C1323 C 0.64222 0.88562 0.29778 0.0
C1324 C 0.62371 0.86767 0.31198 0.0
C1325 C 0.59423 0.87189 0.31075 0.0
C1326 C 0.58349 0.8936 0.29438 0.0
H1327 H 0.98841 0.35137 0.76868 0.0
H1328 H 0.93264 0.30675 0.82236 0.0
H1329 H 0.89198 0.31919 0.79359 0.0
H1330 H 0.94645 0.40783 0.76083 0.0
H1331 H 0.95456 0.41483 0.72619 0.0
H1332 H 0.97969 0.39679 0.74684 0.0
H1333 H 0.98088 0.35503 0.71346 0.0
H1334 H 0.95599 0.37317 0.69238 0.0
H1335 H 0.94846 0.338 0.70393 0.0
H1336 H 0.85678 0.34433 0.76383 0.0
H1337 H 0.83085 0.3782 0.73533 0.0
H1338 H 0.91009 0.40628 0.70121 0.0
C1339 C 0.96783 0.34285 0.77339 0.0
C1340 C 0.96366 0.3271 0.79698 0.0
C1341 C 0.93628 0.31784 0.80371 0.0
C1342 C 0.91308 0.32502 0.78758 0.0
C1343 C 0.9177 0.34156 0.76487 0.0
C1344 C 0.94454 0.35004 0.7576 0.0
C1345 C 0.94365 0.37079 0.73458 0.0
C1346 C 0.95685 0.39922 0.74261 0.0
C1347 C 0.9581 0.3585 0.7096 0.0
C1348 C 0.91216 0.37339 0.73054 0.0
C1349 C 0.89746 0.35623 0.74797 0.0
C1350 C 0.8681 0.35733 0.74965 0.0
C1351 C 0.85351 0.37668 0.7334 0.0
C1352 C 0.86829 0.39478 0.71575 0.0
C1353 C 0.89796 0.39245 0.71402 0.0
H1354 H 0.39291 0.01741 0.23856 0.0
H1355 H 0.30706 0.0482 0.2367 0.0
H1356 H 0.32089 0.08813 0.2663 0.0
H1357 H 0.40592 0.0344 0.30852 0.0
H1358 H 0.44224 0.04329 0.30237 0.0
H1359 H 0.42492 0.0175 0.28167 0.0
H1360 H 0.43804 0.04622 0.23929 0.0
H1361 H 0.45528 0.07214 0.25984 0.0
H1362 H 0.42779 0.08271 0.2371 0.0
H1363 H 0.34675 0.12755 0.29357 0.0
H1364 H 0.3799 0.15834 0.31875 0.0
H1365 H 0.4469 0.09816 0.30425 0.0
C1366 C 0.37691 0.03247 0.24447 0.0
C1367 C 0.34896 0.02989 0.23517 0.0
C1368 C 0.32859 0.04979 0.24366 0.0
C1369 C 0.33633 0.07256 0.26036 0.0
C1370 C 0.36435 0.07471 0.26882 0.0
C1371 C 0.38411 0.05475 0.26145 0.0
C1372 C 0.41271 0.06112 0.27324 0.0
C1373 C 0.42198 0.03769 0.2926 0.0
C1374 C 0.43474 0.06583 0.25105 0.0
C1375 C 0.40632 0.08814 0.28807 0.0
C1376 C 0.37845 0.09598 0.28525 0.0
C1377 C 0.36848 0.12125 0.29618 0.0
C1378 C 0.38744 0.13868 0.31039 0.0
C1379 C 0.41591 0.13053 0.31386 0.0
C1380 C 0.42517 0.10485 0.30251 0.0
H1381 H 0.06758 0.64748 0.82491 0.0
H1382 H 0.01056 0.69079 0.77112 0.0
H1383 H 0.04208 0.67956 0.73304 0.0
H1384 H 0.13508 0.66565 0.78839 0.0
H1385 H 0.14964 0.63143 0.79565 0.0
H1386 H 0.12567 0.64781 0.81898 0.0
H1387 H 0.09369 0.60367 0.81706 0.0
H1388 H 0.11729 0.5873 0.79363 0.0
H1389 H 0.08067 0.59166 0.78511 0.0
H1390 H 0.07387 0.65447 0.70026 0.0
H1391 H 0.10532 0.62147 0.67614 0.0
H1392 H 0.14334 0.59688 0.75138 0.0
C1393 C 0.06224 0.65554 0.80526 0.0
C1394 C 0.03668 0.67016 0.80098 0.0
C1395 C 0.03022 0.67996 0.77494 0.0
C1396 C 0.04798 0.67355 0.75318 0.0
C1397 C 0.07238 0.65788 0.75793 0.0
C1398 C 0.07983 0.64956 0.78349 0.0
C1399 C 0.10552 0.63061 0.7831 0.0
C1400 C 0.13046 0.64473 0.79738 0.0
C1401 C 0.09887 0.60161 0.79544 0.0
C1402 C 0.11069 0.62842 0.75324 0.0
C1403 C 0.09145 0.64441 0.73902 0.0
C1404 C 0.08964 0.64269 0.71117 0.0
C1405 C 0.10754 0.62388 0.69763 0.0
C1406 C 0.12726 0.6073 0.71187 0.0
C1407 C 0.12928 0.6102 0.73994 0.0
H1408 H 0.19273 0.47947 0.58459 0.0
H1409 H 0.23741 0.55883 0.58187 0.0
H1410 H 0.25083 0.54934 0.53462 0.0
H1411 H 0.23759 0.43841 0.53693 0.0
H1412 H 0.20719 0.42165 0.52234 0.0
H1413 H 0.20683 0.43179 0.55716 0.0
H1414 H 0.16141 0.46089 0.54911 0.0
H1415 H 0.16169 0.45096 0.51437 0.0
H1416 H 0.1613 0.48768 0.52354 0.0
H1417 H 0.25242 0.53451 0.48553 0.0
H1418 H 0.24121 0.51662 0.44004 0.0
H1419 H 0.19379 0.44809 0.47503 0.0
C1420 C 0.20612 0.4944 0.57425 0.0
C1421 C 0.21421 0.51979 0.58676 0.0
C1422 C 0.23135 0.53908 0.57266 0.0
C1423 C 0.23895 0.53386 0.54582 0.0
C1424 C 0.22932 0.50919 0.53354 0.0
C1425 C 0.21335 0.48972 0.54746 0.0
C1426 C 0.2022 0.4669 0.52912 0.0
C1427 C 0.21418 0.43797 0.53685 0.0
C1428 C 0.16974 0.46662 0.52904 0.0
C1429 C 0.21383 0.47677 0.50252 0.0
C1430 C 0.22979 0.50096 0.50542 0.0
C1431 C 0.24053 0.51523 0.48316 0.0
C1432 C 0.23423 0.50488 0.45741 0.0
C1433 C 0.21719 0.4807 0.45421 0.0
C1434 C 0.20749 0.46621 0.47707 0.0
H1435 H 0.51457 0.77194 0.46203 0.0
H1436 H 0.53234 0.86128 0.45402 0.0
H1437 H 0.51773 0.86909 0.50044 0.0
H1438 H 0.45932 0.7726 0.50892 0.0
H1439 H 0.47221 0.74544 0.53094 0.0
H1440 H 0.48215 0.74539 0.49607 0.0
H1441 H 0.53495 0.74564 0.50886 0.0
H1442 H 0.52516 0.74477 0.54376 0.0
H1443 H 0.54796 0.77224 0.53149 0.0
H1444 H 0.49026 0.86883 0.54219 0.0
H1445 H 0.47685 0.86032 0.58885 0.0
H1446 H 0.49335 0.77095 0.57868 0.0
C1447 C 0.51613 0.79296 0.4703 0.0
C1448 C 0.52267 0.81642 0.45374 0.0
C1449 C 0.52543 0.84335 0.46568 0.0
C1450 C 0.51724 0.84805 0.49208 0.0
C1451 C 0.50848 0.82517 0.50715 0.0
C1452 C 0.51009 0.7979 0.49769 0.0
C1453 C 0.50361 0.77725 0.52036 0.0
C1454 C 0.47779 0.75909 0.51366 0.0
C1455 C 0.52946 0.75888 0.52649 0.0
C1456 C 0.49725 0.79751 0.54341 0.0
C1457 C 0.49882 0.82494 0.53443 0.0
C1458 C 0.49057 0.84762 0.5501 0.0
C1459 C 0.48295 0.8425 0.57657 0.0
C1460 C 0.48572 0.81531 0.58791 0.0
C1461 C 0.49167 0.79211 0.5708 0.0
H1462 H 0.81188 0.48051 0.45754 0.0
H1463 H 0.76377 0.55794 0.45929 0.0
H1464 H 0.75076 0.5486 0.50666 0.0
H1465 H 0.76828 0.43837 0.50472 0.0
H1466 H 0.79902 0.42272 0.51978 0.0
H1467 H 0.7996 0.4328 0.48497 0.0
H1468 H 0.84377 0.46359 0.49364 0.0
H1469 H 0.84331 0.45363 0.52837 0.0
H1470 H 0.84252 0.49034 0.51926 0.0
H1471 H 0.74937 0.53409 0.55594 0.0
H1472 H 0.76049 0.51666 0.60159 0.0
H1473 H 0.81052 0.44955 0.56724 0.0
C1474 C 0.798 0.49513 0.46773 0.0
C1475 C 0.78872 0.5199 0.45485 0.0
C1476 C 0.77078 0.53867 0.46877 0.0
C1477 C 0.76339 0.53353 0.49568 0.0
C1478 C 0.774 0.50944 0.50822 0.0
C1479 C 0.79084 0.4905 0.49454 0.0
C1480 C 0.80249 0.46812 0.51305 0.0
C1481 C 0.79169 0.43876 0.50515 0.0
C1482 C 0.83493 0.46899 0.51361 0.0
C1483 C 0.79008 0.47761 0.53948 0.0
C1484 C 0.7734 0.50128 0.53636 0.0
C1485 C 0.76184 0.5152 0.55847 0.0
C1486 C 0.76808 0.5051 0.58432 0.0
C1487 C 0.78583 0.48147 0.58776 0.0
C1488 C 0.79628 0.46723 0.56502 0.0
H1489 H 0.49309 0.23513 0.46217 0.0
H1490 H 0.47712 0.14564 0.45241 0.0
H1491 H 0.49091 0.13735 0.49896 0.0
H1492 H 0.54754 0.2347 0.50934 0.0
H1493 H 0.53408 0.26123 0.53181 0.0
H1494 H 0.52431 0.26174 0.49692 0.0
H1495 H 0.47146 0.26033 0.50954 0.0
H1496 H 0.48106 0.26075 0.54448 0.0
H1497 H 0.4588 0.23312 0.53164 0.0
H1498 H 0.51846 0.13744 0.54066 0.0
H1499 H 0.53234 0.14544 0.58725 0.0
H1500 H 0.51361 0.23456 0.57898 0.0
C1501 C 0.49167 0.21398 0.47011 0.0
C1502 C 0.48589 0.19068 0.45308 0.0
C1503 C 0.48332 0.16351 0.46453 0.0
C1504 C 0.49109 0.15853 0.49097 0.0
C1505 C 0.49918 0.18132 0.50654 0.0
C1506 C 0.49728 0.20871 0.49751 0.0
C1507 C 0.50328 0.22908 0.52057 0.0
C1508 C 0.52882 0.2478 0.51427 0.0
C1509 C 0.47709 0.24687 0.52694 0.0
C1510 C 0.50988 0.20854 0.54329 0.0
C1511 C 0.50873 0.18124 0.53384 0.0
C1512 C 0.51765 0.15848 0.54899 0.0
C1513 C 0.52546 0.16329 0.57546 0.0
C1514 C 0.52217 0.19019 0.58736 0.0
C1515 C 0.51557 0.21357 0.57073 0.0
H1516 H 0.69109 0.02414 0.95617 0.0
H1517 H 0.73979 0.94711 0.95754 0.0
H1518 H 0.7527 0.95638 1.00493 0.0
H1519 H 0.73472 0.06641 1.00372 0.0
H1520 H 0.70388 0.08191 1.01879 0.0
H1521 H 0.7035 0.07203 0.98391 0.0
H1522 H 0.65933 0.04115 0.99226 0.0
H1523 H 0.65961 0.05086 0.02707 0.0
H1524 H 0.66052 0.01421 1.01767 0.0
H1525 H 0.75326 0.9702 0.05428 0.0
H1526 H 0.74155 0.98704 0.10001 0.0
H1527 H 0.69215 0.05471 0.06602 0.0
C1528 C 0.70514 0.00967 0.96628 0.0
C1529 C 0.7145 0.98493 0.95336 0.0
C1530 C 0.73265 0.9663 0.96712 0.0
C1531 C 0.73999 0.9714 0.99403 0.0
C1532 C 0.72921 0.99537 1.00668 0.0
C1533 C 0.71232 0.01431 0.99309 0.0
C1534 C 0.70053 0.03655 1.01174 0.0
C1535 C 0.71131 0.06597 1.00408 0.0
C1536 C 0.66809 0.03561 1.01221 0.0
C1537 C 0.71284 0.02692 0.03813 0.0
C1538 C 0.72959 0.00332 0.03488 0.0
C1539 C 0.74085 0.98911 0.05692 0.0
C1540 C 0.73431 0.99891 0.08283 0.0
C1541 C 0.71666 0.02262 0.0864 0.0
C1542 C 0.70641 0.03706 0.06373 0.0
H1543 H 0.01568 0.34287 0.96526 0.0
H1544 H 0.01253 0.25388 0.94587 0.0
H1545 H 0.00441 0.24311 0.99389 0.0
H1546 H 0.04262 0.34153 0.03092 0.0
H1547 H 0.01871 0.36805 0.04321 0.0
H1548 H 0.02897 0.36794 1.00848 0.0
H1549 H 0.97651 0.36597 0.99422 0.0
H1550 H 0.96608 0.36627 0.02891 0.0
H1551 H 0.95425 0.33839 1.00712 0.0
H1552 H 0.99933 0.24369 0.04673 0.0
H1553 H 0.991 0.25533 0.09459 0.0
H1554 H 0.9812 0.34323 0.073 0.0
C1555 C 0.01274 0.32105 0.97069 0.0
C1556 C 0.0149 0.29931 0.95148 0.0
C1557 C 0.01188 0.27101 0.96014 0.0
C1558 C 0.00688 0.26471 0.9874 0.0
C1559 C 0.00382 0.28698 1.00553 0.0
C1560 C 0.00588 0.3146 0.99712 0.0
C1561 C 0.99855 0.33507 1.0192 0.0
C1562 C 0.02372 0.35427 0.02583 0.0
C1563 C 0.97228 0.35244 1.01193 0.0
C1564 C 0.99257 0.31476 0.04172 0.0
C1565 C 0.99656 0.28712 0.03398 0.0
C1566 C 0.9953 0.26524 0.0527 0.0
C1567 C 0.99017 0.272 0.07985 0.0
C1568 C 0.98526 0.30027 0.08783 0.0
C1569 C 0.98551 0.3215 0.06804 0.0
H1570 H 0.31588 0.02332 0.08506 0.0
H1571 H 0.26615 0.94697 0.08406 0.0
H1572 H 0.25334 0.95612 0.03662 0.0
H1573 H 0.27252 0.06592 0.03767 0.0
H1574 H 0.30347 0.08105 0.0225 0.0
H1575 H 0.30387 0.07124 0.05738 0.0
H1576 H 0.34769 0.03986 0.0489 0.0
H1577 H 0.34739 0.0495 1.0141 0.0
H1578 H 0.34614 0.01289 0.02351 0.0
H1579 H 0.25305 0.96966 0.98713 0.0
H1580 H 0.26494 0.98622 0.94137 0.0
H1581 H 0.31472 0.05371 0.97527 0.0
C1582 C 0.30161 0.00898 0.07503 0.0
C1583 C 0.2919 0.98448 0.08809 0.0
C1584 C 0.27352 0.96601 0.0744 0.0
C1585 C 0.26624 0.97104 0.04747 0.0
C1586 C 0.27731 0.9948 0.03471 0.0
C1587 C 0.29443 0.0136 0.04823 0.0
C1588 C 0.30638 0.03567 0.02955 0.0
C1589 C 0.29593 0.06522 0.03724 0.0
C1590 C 0.33881 0.03438 0.02899 0.0
C1591 C 0.29389 0.02612 1.0032 0.0
C1592 C 0.27696 1.00266 1.00649 0.0
C1593 C 0.2656 0.98847 0.98446 0.0
C1594 C 0.27226 0.99811 0.95853 0.0
C1595 C 0.2901 0.02165 0.95493 0.0
C1596 C 0.30035 0.03615 0.97758 0.0
H1597 H 0.98298 0.66002 0.96999 0.0
H1598 H 0.9904 0.74823 0.94875 0.0
H1599 H 0.9995 0.75976 0.99648 0.0
H1600 H 0.95639 0.66454 0.03594 0.0
H1601 H 0.97892 0.63707 0.0486 0.0
H1602 H 0.96839 0.63686 1.01396 0.0
H1603 H 0.02075 0.63556 0.99924 0.0
H1604 H 0.03144 0.63558 0.03384 0.0
H1605 H 0.0446 0.6622 1.01136 0.0
H1606 H 0.00582 0.76026 0.0491 0.0
H1607 H 0.01466 0.74949 0.09702 0.0
H1608 H 0.01818 0.66055 0.07749 0.0
C1609 C 0.98697 0.68179 0.975 0.0
C1610 C 0.98583 0.70314 0.95537 0.0
C1611 C 0.99029 0.73146 0.9634 0.0
C1612 C 0.99585 0.73816 0.99048 0.0
C1613 C 0.99789 0.71622 1.00905 0.0
C1614 C 0.99426 0.68854 1.00126 0.0
C1615 C 1.00064 0.66827 0.02372 0.0
C1616 C 0.97453 0.65066 0.03097 0.0
C1617 C 0.02586 0.6493 1.01661 0.0
C1618 C 0.00793 0.68878 0.04574 0.0
C1619 C 0.00546 0.7164 0.03741 0.0
C1620 C 0.00854 0.73867 0.05553 0.0
C1621 C 0.01393 0.73238 0.08272 0.0
C1622 C 0.01722 0.70409 0.0913 0.0
C1623 C 0.01506 0.68235 0.07209 0.0
loop_
_geom_bond_atom_site_label_1
_geom_bond_atom_site_label_2
_geom_bond_distance
_geom_bond_site_symmetry_2
_ccdc_geom_bond_type
Co0 O3 1.970 . S
Co0 N17 1.989 . S
Co0 O25 1.967 . S
Co0 O32 1.920 . S
Co1 O4 1.966 . S
Co1 N10 2.022 . S
Co1 N18 1.993 . S
Co1 O26 1.941 . S
C2 O3 1.258 . S
C2 O4 1.263 . S
O3 Co0 1.970 . S
O3 C2 1.258 . S
O4 Co1 1.966 . S
O4 C2 1.263 . S
C5 O6 1.235 . S
C5 O32 1.289 . S
O6 C5 1.235 . S
C7 C9 1.400 . S
C7 N10 1.351 . S
C7 C12 1.501 . S
C8 C9 1.387 . S
C8 N11 1.341 . S
C9 C7 1.400 . S
C9 C8 1.387 . S
N10 Co1 2.022 . S
N10 C7 1.351 . S
N10 N11 1.365 . S
N11 C8 1.341 . S
N11 N10 1.365 . S
N11 H31 0.862 . S
C12 C7 1.501 . S
C12 H13 0.961 . S
C12 H14 0.961 . S
C12 H15 0.960 . S
H13 C12 0.961 . S
H14 C12 0.961 . S
H15 C12 0.960 . S
C16 N17 1.342 . S
C16 C20 1.401 . S
C16 C21 1.499 . S
N17 Co0 1.989 . S
N17 C16 1.342 . S
N17 N18 1.388 . S
N18 Co1 1.993 . S
N18 N17 1.388 . S
N18 C19 1.346 . S
C19 N18 1.346 . S
C19 C20 1.396 . S
C19 C29 1.510 . S
C20 C16 1.401 . S
C20 C19 1.396 . S
C21 C16 1.499 . S
C21 H22 0.959 . S
C21 H23 0.960 . S
C21 H24 0.961 . S
H22 C21 0.959 . S
H23 C21 0.960 . S
H24 C21 0.961 . S
O25 Co0 1.967 . S
O25 C33 1.258 . S
O26 Co1 1.941 . S
O26 C33 1.266 . S
H27 C29 0.959 . S
H28 C29 0.961 . S
C29 C19 1.510 . S
C29 H27 0.959 . S
C29 H28 0.961 . S
C29 H30 0.960 . S
H30 C29 0.960 . S
H31 N11 0.862 . S
O32 Co0 1.920 . S
O32 C5 1.289 . S
C33 O25 1.258 . S
C33 O26 1.266 . S
Co34 O37 1.970 . S
Co34 N51 1.989 . S
Co34 O59 1.967 . S
Co34 O66 1.920 . S
Co35 O38 1.966 . S
Co35 N44 2.022 . S
Co35 N52 1.993 . S
Co35 O60 1.941 . S
C36 O37 1.258 . S
C36 O38 1.263 . S
O37 Co34 1.970 . S
O37 C36 1.258 . S
O38 Co35 1.966 . S
O38 C36 1.263 . S
C39 O40 1.235 . S
C39 O66 1.289 . S
O40 C39 1.235 . S
C41 C43 1.400 . S
C41 N44 1.351 . S
C41 C46 1.501 . S
C42 C43 1.387 . S
C42 N45 1.341 . S
C43 C41 1.400 . S
C43 C42 1.387 . S
N44 Co35 2.022 . S
N44 C41 1.351 . S
N44 N45 1.365 . S
N45 C42 1.341 . S
N45 N44 1.365 . S
N45 H65 0.862 . S
C46 C41 1.501 . S
C46 H47 0.961 . S
C46 H48 0.961 . S
C46 H49 0.960 . S
H47 C46 0.961 . S
H48 C46 0.961 . S
H49 C46 0.960 . S
C50 N51 1.342 . S
C50 C54 1.401 . S
C50 C55 1.499 . S
N51 Co34 1.989 . S
N51 C50 1.342 . S
N51 N52 1.388 . S
N52 Co35 1.993 . S
N52 N51 1.388 . S
N52 C53 1.346 . S
C53 N52 1.346 . S
C53 C54 1.396 . S
C53 C63 1.510 . S
C54 C50 1.401 . S
C54 C53 1.396 . S
C55 C50 1.499 . S
C55 H56 0.959 . S
C55 H57 0.960 . S
C55 H58 0.961 . S
H56 C55 0.959 . S
H57 C55 0.960 . S
H58 C55 0.961 . S
O59 Co34 1.967 . S
O59 C67 1.258 . S
O60 Co35 1.941 . S
O60 C67 1.266 . S
H61 C63 0.959 . S
H62 C63 0.961 . S
C63 C53 1.510 . S
C63 H61 0.959 . S
C63 H62 0.961 . S
C63 H64 0.960 . S
H64 C63 0.960 . S
H65 N45 0.862 . S
O66 Co34 1.920 . S
O66 C39 1.289 . S
C67 O59 1.258 . S
C67 O60 1.266 . S
Co68 O71 1.970 . S
Co68 N85 1.989 . S
Co68 O93 1.967 . S
Co68 O100 1.920 . S
Co69 O72 1.966 . S
Co69 N78 2.022 . S
Co69 N86 1.993 . S
Co69 O94 1.941 . S
C70 O71 1.258 . S
C70 O72 1.263 . S
O71 Co68 1.970 . S
O71 C70 1.258 . S
O72 Co69 1.966 . S
O72 C70 1.263 . S
C73 O74 1.235 . S
C73 O100 1.289 . S
O74 C73 1.235 . S
C75 C77 1.400 . S
C75 N78 1.351 . S
C75 C80 1.501 . S
C76 C77 1.387 . S
C76 N79 1.341 . S
C77 C75 1.400 . S
C77 C76 1.387 . S
N78 Co69 2.022 . S
N78 C75 1.351 . S
N78 N79 1.365 . S
N79 C76 1.341 . S
N79 N78 1.365 . S
N79 H99 0.862 . S
C80 C75 1.501 . S
C80 H81 0.961 . S
C80 H82 0.961 . S
C80 H83 0.960 . S
H81 C80 0.961 . S
H82 C80 0.961 . S
H83 C80 0.960 . S
C84 N85 1.342 . S
C84 C88 1.401 . S
C84 C89 1.499 . S
N85 Co68 1.989 . S
N85 C84 1.342 . S
N85 N86 1.388 . S
N86 Co69 1.993 . S
N86 N85 1.388 . S
N86 C87 1.346 . S
C87 N86 1.346 . S
C87 C88 1.396 . S
C87 C97 1.510 . S
C88 C84 1.401 . S
C88 C87 1.396 . S
C89 C84 1.499 . S
C89 H90 0.959 . S
C89 H91 0.960 . S
C89 H92 0.961 . S
H90 C89 0.959 . S
H91 C89 0.960 . S
H92 C89 0.961 . S
O93 Co68 1.967 . S
O93 C101 1.258 . S
O94 Co69 1.941 . S
O94 C101 1.266 . S
H95 C97 0.959 . S
H96 C97 0.961 . S
C97 C87 1.510 . S
C97 H95 0.959 . S
C97 H96 0.961 . S
C97 H98 0.960 . S
H98 C97 0.960 . S
H99 N79 0.862 . S
O100 Co68 1.920 . S
O100 C73 1.289 . S
C101 O93 1.258 . S
C101 O94 1.266 . S
Co102 O105 1.970 . S
Co102 N119 1.989 . S
Co102 O127 1.967 . S
Co102 O134 1.920 . S
Co103 O106 1.966 . S
Co103 N112 2.022 . S
Co103 N120 1.993 . S
Co103 O128 1.941 . S
C104 O105 1.258 . S
C104 O106 1.263 . S
O105 Co102 1.970 . S
O105 C104 1.258 . S
O106 Co103 1.966 . S
O106 C104 1.263 . S
C107 O108 1.235 . S
C107 O134 1.289 . S
O108 C107 1.235 . S
C109 C111 1.400 . S
C109 N112 1.351 . S
C109 C114 1.501 . S
C110 C111 1.387 . S
C110 N113 1.341 . S
C111 C109 1.400 . S
C111 C110 1.387 . S
N112 Co103 2.022 . S
N112 C109 1.351 . S
N112 N113 1.365 . S
N113 C110 1.341 . S
N113 N112 1.365 . S
N113 H133 0.862 . S
C114 C109 1.501 . S
C114 H115 0.961 . S
C114 H116 0.961 . S
C114 H117 0.960 . S
H115 C114 0.961 . S
H116 C114 0.961 . S
H117 C114 0.960 . S
C118 N119 1.342 . S
C118 C122 1.401 . S
C118 C123 1.499 . S
N119 Co102 1.989 . S
N119 C118 1.342 . S
N119 N120 1.388 . S
N120 Co103 1.993 . S
N120 N119 1.388 . S
N120 C121 1.346 . S
C121 N120 1.346 . S
C121 C122 1.396 . S
C121 C131 1.510 . S
C122 C118 1.401 . S
C122 C121 1.396 . S
C123 C118 1.499 . S
C123 H124 0.959 . S
C123 H125 0.960 . S
C123 H126 0.961 . S
H124 C123 0.959 . S
H125 C123 0.960 . S
H126 C123 0.961 . S
O127 Co102 1.967 . S
O127 C135 1.258 . S
O128 Co103 1.941 . S
O128 C135 1.266 . S
H129 C131 0.959 . S
H130 C131 0.961 . S
C131 C121 1.510 . S
C131 H129 0.959 . S
C131 H130 0.961 . S
C131 H132 0.960 . S
H132 C131 0.960 . S
H133 N113 0.862 . S
O134 Co102 1.920 . S
O134 C107 1.289 . S
C135 O127 1.258 . S
C135 O128 1.266 . S
Co136 O139 1.970 . S
Co136 N153 1.989 . S
Co136 O161 1.967 . S
Co136 O168 1.920 . S
Co137 O140 1.966 . S
Co137 N146 2.022 . S
Co137 N154 1.993 . S
Co137 O162 1.941 . S
C138 O139 1.258 . S
C138 O140 1.263 . S
O139 Co136 1.970 . S
O139 C138 1.258 . S
O140 Co137 1.966 . S
O140 C138 1.263 . S
C141 O142 1.235 . S
C141 O168 1.289 . S
O142 C141 1.235 . S
C143 C145 1.400 . S
C143 N146 1.351 . S
C143 C148 1.501 . S
C144 C145 1.387 . S
C144 N147 1.341 . S
C145 C143 1.400 . S
C145 C144 1.387 . S
N146 Co137 2.022 . S
N146 C143 1.351 . S
N146 N147 1.365 . S
N147 C144 1.341 . S
N147 N146 1.365 . S
N147 H167 0.862 . S
C148 C143 1.501 . S
C148 H149 0.961 . S
C148 H150 0.961 . S
C148 H151 0.960 . S
H149 C148 0.961 . S
H150 C148 0.961 . S
H151 C148 0.960 . S
C152 N153 1.342 . S
C152 C156 1.401 . S
C152 C157 1.499 . S
N153 Co136 1.989 . S
N153 C152 1.342 . S
N153 N154 1.388 . S
N154 Co137 1.993 . S
N154 N153 1.388 . S
N154 C155 1.346 . S
C155 N154 1.346 . S
C155 C156 1.396 . S
C155 C165 1.510 . S
C156 C152 1.401 . S
C156 C155 1.396 . S
C157 C152 1.499 . S
C157 H158 0.959 . S
C157 H159 0.960 . S
C157 H160 0.961 . S
H158 C157 0.959 . S
H159 C157 0.960 . S
H160 C157 0.961 . S
O161 Co136 1.967 . S
O161 C169 1.258 . S
O162 Co137 1.941 . S
O162 C169 1.266 . S
H163 C165 0.959 . S
H164 C165 0.961 . S
C165 C155 1.510 . S
C165 H163 0.959 . S
C165 H164 0.961 . S
C165 H166 0.960 . S
H166 C165 0.960 . S
H167 N147 0.862 . S
O168 Co136 1.920 . S
O168 C141 1.289 . S
C169 O161 1.258 . S
C169 O162 1.266 . S
Co170 O173 1.970 . S
Co170 N187 1.989 . S
Co170 O195 1.967 . S
Co170 O202 1.920 . S
Co171 O174 1.966 . S
Co171 N180 2.022 . S
Co171 N188 1.993 . S
Co171 O196 1.941 . S
C172 O173 1.258 . S
C172 O174 1.263 . S
O173 Co170 1.970 . S
O173 C172 1.258 . S
O174 Co171 1.966 . S
O174 C172 1.263 . S
C175 O176 1.235 . S
C175 O202 1.289 . S
O176 C175 1.235 . S
C177 C179 1.400 . S
C177 N180 1.351 . S
C177 C182 1.501 . S
C178 C179 1.387 . S
C178 N181 1.341 . S
C179 C177 1.400 . S
C179 C178 1.387 . S
N180 Co171 2.022 . S
N180 C177 1.351 . S
N180 N181 1.365 . S
N181 C178 1.341 . S
N181 N180 1.365 . S
N181 H201 0.862 . S
C182 C177 1.501 . S
C182 H183 0.961 . S
C182 H184 0.961 . S
C182 H185 0.960 . S
H183 C182 0.961 . S
H184 C182 0.961 . S
H185 C182 0.960 . S
C186 N187 1.342 . S
C186 C190 1.401 . S
C186 C191 1.499 . S
N187 Co170 1.989 . S
N187 C186 1.342 . S
N187 N188 1.388 . S
N188 Co171 1.993 . S
N188 N187 1.388 . S
N188 C189 1.346 . S
C189 N188 1.346 . S
C189 C190 1.396 . S
C189 C199 1.510 . S
C190 C186 1.401 . S
C190 C189 1.396 . S
C191 C186 1.499 . S
C191 H192 0.959 . S
C191 H193 0.960 . S
C191 H194 0.961 . S
H192 C191 0.959 . S
H193 C191 0.960 . S
H194 C191 0.961 . S
O195 Co170 1.967 . S
O195 C203 1.258 . S
O196 Co171 1.941 . S
O196 C203 1.266 . S
H197 C199 0.959 . S
H198 C199 0.961 . S
C199 C189 1.510 . S
C199 H197 0.959 . S
C199 H198 0.961 . S
C199 H200 0.960 . S
H200 C199 0.960 . S
H201 N181 0.862 . S
O202 Co170 1.920 . S
O202 C175 1.289 . S
C203 O195 1.258 . S
C203 O196 1.266 . S
Co204 O207 1.970 . S
Co204 N221 1.989 . S
Co204 O229 1.967 . S
Co204 O236 1.920 . S
Co205 O208 1.966 . S
Co205 N214 2.022 . S
Co205 N222 1.993 . S
Co205 O230 1.941 . S
C206 O207 1.258 . S
C206 O208 1.263 . S
O207 Co204 1.970 . S
O207 C206 1.258 . S
O208 Co205 1.966 . S
O208 C206 1.263 . S
C209 O210 1.235 . S
C209 O236 1.289 . S
O210 C209 1.235 . S
C211 C213 1.400 . S
C211 N214 1.351 . S
C211 C216 1.501 . S
C212 C213 1.387 . S
C212 N215 1.341 . S
C213 C211 1.400 . S
C213 C212 1.387 . S
N214 Co205 2.022 . S
N214 C211 1.351 . S
N214 N215 1.365 . S
N215 C212 1.341 . S
N215 N214 1.365 . S
N215 H235 0.862 . S
C216 C211 1.501 . S
C216 H217 0.961 . S
C216 H218 0.961 . S
C216 H219 0.960 . S
H217 C216 0.961 . S
H218 C216 0.961 . S
H219 C216 0.960 . S
C220 N221 1.342 . S
C220 C224 1.401 . S
C220 C225 1.499 . S
N221 Co204 1.989 . S
N221 C220 1.342 . S
N221 N222 1.388 . S
N222 Co205 1.993 . S
N222 N221 1.388 . S
N222 C223 1.346 . S
C223 N222 1.346 . S
C223 C224 1.396 . S
C223 C233 1.510 . S
C224 C220 1.401 . S
C224 C223 1.396 . S
C225 C220 1.499 . S
C225 H226 0.959 . S
C225 H227 0.960 . S
C225 H228 0.961 . S
H226 C225 0.959 . S
H227 C225 0.960 . S
H228 C225 0.961 . S
O229 Co204 1.967 . S
O229 C237 1.258 . S
O230 Co205 1.941 . S
O230 C237 1.266 . S
H231 C233 0.959 . S
H232 C233 0.961 . S
C233 C223 1.510 . S
C233 H231 0.959 . S
C233 H232 0.961 . S
C233 H234 0.960 . S
H234 C233 0.960 . S
H235 N215 0.862 . S
O236 Co204 1.920 . S
O236 C209 1.289 . S
C237 O229 1.258 . S
C237 O230 1.266 . S
Co238 O241 1.970 . S
Co238 N255 1.989 . S
Co238 O263 1.967 . S
Co238 O270 1.920 . S
Co239 O242 1.966 . S
Co239 N248 2.022 . S
Co239 N256 1.993 . S
Co239 O264 1.941 . S
C240 O241 1.258 . S
C240 O242 1.263 . S
O241 Co238 1.970 . S
O241 C240 1.258 . S
O242 Co239 1.966 . S
O242 C240 1.263 . S
C243 O244 1.235 . S
C243 O270 1.289 . S
O244 C243 1.235 . S
C245 C247 1.400 . S
C245 N248 1.351 . S
C245 C250 1.501 . S
C246 C247 1.387 . S
C246 N249 1.341 . S
C247 C245 1.400 . S
C247 C246 1.387 . S
N248 Co239 2.022 . S
N248 C245 1.351 . S
N248 N249 1.365 . S
N249 C246 1.341 . S
N249 N248 1.365 . S
N249 H269 0.862 . S
C250 C245 1.501 . S
C250 H251 0.961 . S
C250 H252 0.961 . S
C250 H253 0.960 . S
H251 C250 0.961 . S
H252 C250 0.961 . S
H253 C250 0.960 . S
C254 N255 1.342 . S
C254 C258 1.401 . S
C254 C259 1.499 . S
N255 Co238 1.989 . S
N255 C254 1.342 . S
N255 N256 1.388 . S
N256 Co239 1.993 . S
N256 N255 1.388 . S
N256 C257 1.346 . S
C257 N256 1.346 . S
C257 C258 1.396 . S
C257 C267 1.510 . S
C258 C254 1.401 . S
C258 C257 1.396 . S
C259 C254 1.499 . S
C259 H260 0.959 . S
C259 H261 0.960 . S
C259 H262 0.961 . S
H260 C259 0.959 . S
H261 C259 0.960 . S
H262 C259 0.961 . S
O263 Co238 1.967 . S
O263 C271 1.258 . S
O264 Co239 1.941 . S
O264 C271 1.266 . S
H265 C267 0.959 . S
H266 C267 0.961 . S
C267 C257 1.510 . S
C267 H265 0.959 . S
C267 H266 0.961 . S
C267 H268 0.960 . S
H268 C267 0.960 . S
H269 N249 0.862 . S
O270 Co238 1.920 . S
O270 C243 1.289 . S
C271 O263 1.258 . S
C271 O264 1.266 . S
Co272 O275 1.970 . S
Co272 N289 1.989 . S
Co272 O297 1.967 1_565 S
Co272 O304 1.923 . S
Co273 O276 1.966 . S
Co273 N282 2.022 . S
Co273 N290 1.993 . S
Co273 O298 1.941 . S
C274 O275 1.258 . S
C274 O276 1.263 . S
O275 Co272 1.970 . S
O275 C274 1.258 . S
O276 Co273 1.966 . S
O276 C274 1.263 . S
C277 O278 1.235 . S
C277 O304 1.291 . S
O278 C277 1.235 . S
C279 C281 1.400 . S
C279 N282 1.351 . S
C279 C284 1.501 . S
C280 C281 1.387 . S
C280 N283 1.341 . S
C281 C279 1.400 . S
C281 C280 1.387 . S
N282 Co273 2.022 . S
N282 C279 1.351 . S
N282 N283 1.365 . S
N283 C280 1.341 . S
N283 N282 1.365 . S
N283 H303 0.862 . S
C284 C279 1.501 . S
C284 H285 0.961 . S
C284 H286 0.961 . S
C284 H287 0.960 . S
H285 C284 0.961 . S
H286 C284 0.961 . S
H287 C284 0.960 . S
C288 N289 1.342 . S
C288 C292 1.401 . S
C288 C293 1.499 . S
N289 Co272 1.989 . S
N289 C288 1.342 . S
N289 N290 1.388 . S
N290 Co273 1.993 . S
N290 N289 1.388 . S
N290 C291 1.346 . S
C291 N290 1.346 . S
C291 C292 1.396 . S
C291 C301 1.510 . S
C292 C288 1.401 . S
C292 C291 1.396 . S
C293 C288 1.499 . S
C293 H294 0.955 1_565 S
C293 H295 0.960 . S
C293 H296 0.961 1_565 S
H294 C293 0.955 1_545 S
H295 C293 0.960 . S
H296 C293 0.961 1_545 S
O297 Co272 1.967 1_545 S
O297 C305 1.258 . S
O298 Co273 1.941 . S
O298 C305 1.266 1_565 S
H299 C301 0.959 . S
H300 C301 0.961 . S
C301 C291 1.510 . S
C301 H299 0.959 . S
C301 H300 0.961 . S
C301 H302 0.960 . S
H302 C301 0.960 . S
H303 N283 0.862 . S
O304 Co272 1.923 . S
O304 C277 1.291 . S
C305 O297 1.258 . S
C305 O298 1.266 1_545 S
Co306 O309 1.970 . S
Co306 N323 1.989 . S
Co306 O331 1.967 1_655 S
Co306 O338 1.923 . S
Co307 O310 1.966 . S
Co307 N316 2.022 . S
Co307 N324 1.993 . S
Co307 O332 1.941 . S
C308 O309 1.258 . S
C308 O310 1.263 . S
O309 Co306 1.970 . S
O309 C308 1.258 . S
O310 Co307 1.966 . S
O310 C308 1.263 . S
C311 O312 1.235 . S
C311 O338 1.291 . S
O312 C311 1.235 . S
C313 C315 1.400 . S
C313 N316 1.351 . S
C313 C318 1.501 . S
C314 C315 1.387 . S
C314 N317 1.341 . S
C315 C313 1.400 . S
C315 C314 1.387 . S
N316 Co307 2.022 . S
N316 C313 1.351 . S
N316 N317 1.365 . S
N317 C314 1.341 . S
N317 N316 1.365 . S
N317 H337 0.862 . S
C318 C313 1.501 . S
C318 H319 0.961 . S
C318 H320 0.961 . S
C318 H321 0.960 . S
H319 C318 0.961 . S
H320 C318 0.961 . S
H321 C318 0.960 . S
C322 N323 1.342 . S
C322 C326 1.401 . S
C322 C327 1.499 . S
N323 Co306 1.989 . S
N323 C322 1.342 . S
N323 N324 1.388 . S
N324 Co307 1.993 . S
N324 N323 1.388 . S
N324 C325 1.346 . S
C325 N324 1.346 . S
C325 C326 1.396 . S
C325 C335 1.510 . S
C326 C322 1.401 . S
C326 C325 1.396 . S
C327 C322 1.499 . S
C327 H328 0.955 1_655 S
C327 H329 0.960 . S
C327 H330 0.961 1_655 S
H328 C327 0.955 1_455 S
H329 C327 0.960 . S
H330 C327 0.961 1_455 S
O331 Co306 1.967 1_455 S
O331 C339 1.258 . S
O332 Co307 1.941 . S
O332 C339 1.266 1_655 S
H333 C335 0.959 . S
H334 C335 0.961 . S
C335 C325 1.510 . S
C335 H333 0.959 . S
C335 H334 0.961 . S
C335 H336 0.960 . S
H336 C335 0.960 . S
H337 N317 0.862 . S
O338 Co306 1.923 . S
O338 C311 1.291 . S
C339 O331 1.258 . S
C339 O332 1.266 1_455 S
Co340 O343 1.970 . S
Co340 N357 1.989 . S
Co340 O365 1.967 1_545 S
Co340 O372 1.923 . S
Co341 O344 1.966 . S
Co341 N350 2.022 . S
Co341 N358 1.993 . S
Co341 O366 1.941 . S
C342 O343 1.258 . S
C342 O344 1.263 . S
O343 Co340 1.970 . S
O343 C342 1.258 . S
O344 Co341 1.966 . S
O344 C342 1.263 . S
C345 O346 1.235 . S
C345 O372 1.291 . S
O346 C345 1.235 . S
C347 C349 1.400 . S
C347 N350 1.351 . S
C347 C352 1.501 . S
C348 C349 1.387 . S
C348 N351 1.341 . S
C349 C347 1.400 . S
C349 C348 1.387 . S
N350 Co341 2.022 . S
N350 C347 1.351 . S
N350 N351 1.365 . S
N351 C348 1.341 . S
N351 N350 1.365 . S
N351 H371 0.862 . S
C352 C347 1.501 . S
C352 H353 0.961 . S
C352 H354 0.961 . S
C352 H355 0.960 . S
H353 C352 0.961 . S
H354 C352 0.961 . S
H355 C352 0.960 . S
C356 N357 1.342 . S
C356 C360 1.401 . S
C356 C361 1.499 . S
N357 Co340 1.989 . S
N357 C356 1.342 . S
N357 N358 1.388 . S
N358 Co341 1.993 . S
N358 N357 1.388 . S
N358 C359 1.346 . S
C359 N358 1.346 . S
C359 C360 1.396 . S
C359 C369 1.510 . S
C360 C356 1.401 . S
C360 C359 1.396 . S
C361 C356 1.499 . S
C361 H362 0.955 1_545 S
C361 H363 0.960 . S
C361 H364 0.961 1_545 S
H362 C361 0.955 1_565 S
H363 C361 0.960 . S
H364 C361 0.961 1_565 S
O365 Co340 1.967 1_565 S
O365 C373 1.258 . S
O366 Co341 1.941 . S
O366 C373 1.266 1_545 S
H367 C369 0.959 . S
H368 C369 0.961 . S
C369 C359 1.510 . S
C369 H367 0.959 . S
C369 H368 0.961 . S
C369 H370 0.960 . S
H370 C369 0.960 . S
H371 N351 0.862 . S
O372 Co340 1.923 . S
O372 C345 1.291 . S
C373 O365 1.258 . S
C373 O366 1.266 1_565 S
Co374 O377 1.970 . S
Co374 N391 1.989 . S
Co374 O399 1.967 1_455 S
Co374 O406 1.923 . S
Co375 O378 1.966 . S
Co375 N384 2.022 . S
Co375 N392 1.993 . S
Co375 O400 1.941 . S
C376 O377 1.258 . S
C376 O378 1.263 . S
O377 Co374 1.970 . S
O377 C376 1.258 . S
O378 Co375 1.966 . S
O378 C376 1.263 . S
C379 O380 1.235 . S
C379 O406 1.291 . S
O380 C379 1.235 . S
C381 C383 1.400 . S
C381 N384 1.351 . S
C381 C386 1.501 . S
C382 C383 1.387 . S
C382 N385 1.341 . S
C383 C381 1.400 . S
C383 C382 1.387 . S
N384 Co375 2.022 . S
N384 C381 1.351 . S
N384 N385 1.365 . S
N385 C382 1.341 . S
N385 N384 1.365 . S
N385 H405 0.862 . S
C386 C381 1.501 . S
C386 H387 0.961 . S
C386 H388 0.961 . S
C386 H389 0.960 . S
H387 C386 0.961 . S
H388 C386 0.961 . S
H389 C386 0.960 . S
C390 N391 1.342 . S
C390 C394 1.401 . S
C390 C395 1.499 . S
N391 Co374 1.989 . S
N391 C390 1.342 . S
N391 N392 1.388 . S
N392 Co375 1.993 . S
N392 N391 1.388 . S
N392 C393 1.346 . S
C393 N392 1.346 . S
C393 C394 1.396 . S
C393 C403 1.510 . S
C394 C390 1.401 . S
C394 C393 1.396 . S
C395 C390 1.499 . S
C395 H396 0.955 1_455 S
C395 H397 0.960 . S
C395 H398 0.961 1_455 S
H396 C395 0.955 1_655 S
H397 C395 0.960 . S
H398 C395 0.961 1_655 S
O399 Co374 1.967 1_655 S
O399 C407 1.258 . S
O400 Co375 1.941 . S
O400 C407 1.266 1_455 S
H401 C403 0.959 . S
H402 C403 0.961 . S
C403 C393 1.510 . S
C403 H401 0.959 . S
C403 H402 0.961 . S
C403 H404 0.960 . S
H404 C403 0.960 . S
H405 N385 0.862 . S
O406 Co374 1.923 . S
O406 C379 1.291 . S
C407 O399 1.258 . S
C407 O400 1.266 1_655 S
Co408 O411 1.970 . S
Co408 N425 1.989 . S
Co408 O433 1.967 1_545 S
Co408 O440 1.923 . S
Co409 O412 1.966 . S
Co409 N418 2.022 . S
Co409 N426 1.993 . S
Co409 O434 1.941 . S
C410 O411 1.258 . S
C410 O412 1.263 . S
O411 Co408 1.970 . S
O411 C410 1.258 . S
O412 Co409 1.966 . S
O412 C410 1.263 . S
C413 O414 1.235 . S
C413 O440 1.291 . S
O414 C413 1.235 . S
C415 C417 1.400 . S
C415 N418 1.351 . S
C415 C420 1.501 . S
C416 C417 1.387 . S
C416 N419 1.341 . S
C417 C415 1.400 . S
C417 C416 1.387 . S
N418 Co409 2.022 . S
N418 C415 1.351 . S
N418 N419 1.365 . S
N419 C416 1.341 . S
N419 N418 1.365 . S
N419 H439 0.862 . S
C420 C415 1.501 . S
C420 H421 0.961 . S
C420 H422 0.961 . S
C420 H423 0.960 . S
H421 C420 0.961 . S
H422 C420 0.961 . S
H423 C420 0.960 . S
C424 N425 1.342 . S
C424 C428 1.401 . S
C424 C429 1.499 . S
N425 Co408 1.989 . S
N425 C424 1.342 . S
N425 N426 1.388 . S
N426 Co409 1.993 . S
N426 N425 1.388 . S
N426 C427 1.346 . S
C427 N426 1.346 . S
C427 C428 1.396 . S
C427 C437 1.510 . S
C428 C424 1.401 . S
C428 C427 1.396 . S
C429 C424 1.499 . S
C429 H430 0.955 1_545 S
C429 H431 0.960 . S
C429 H432 0.961 1_545 S
H430 C429 0.955 1_565 S
H431 C429 0.960 . S
H432 C429 0.961 1_565 S
O433 Co408 1.967 1_565 S
O433 C441 1.258 . S
O434 Co409 1.941 . S
O434 C441 1.266 1_545 S
H435 C437 0.959 . S
H436 C437 0.961 . S
C437 C427 1.510 . S
C437 H435 0.959 . S
C437 H436 0.961 . S
C437 H438 0.960 . S
H438 C437 0.960 . S
H439 N419 0.862 . S
O440 Co408 1.923 . S
O440 C413 1.291 . S
C441 O433 1.258 . S
C441 O434 1.266 1_565 S
Co442 O445 1.970 . S
Co442 N459 1.989 . S
Co442 O467 1.967 1_455 S
Co442 O474 1.923 . S
Co443 O446 1.966 . S
Co443 N452 2.022 . S
Co443 N460 1.993 . S
Co443 O468 1.941 . S
C444 O445 1.258 . S
C444 O446 1.263 . S
O445 Co442 1.970 . S
O445 C444 1.258 . S
O446 Co443 1.966 . S
O446 C444 1.263 . S
C447 O448 1.235 . S
C447 O474 1.291 . S
O448 C447 1.235 . S
C449 C451 1.400 . S
C449 N452 1.351 . S
C449 C454 1.501 . S
C450 C451 1.387 . S
C450 N453 1.341 . S
C451 C449 1.400 . S
C451 C450 1.387 . S
N452 Co443 2.022 . S
N452 C449 1.351 . S
N452 N453 1.365 . S
N453 C450 1.341 . S
N453 N452 1.365 . S
N453 H473 0.862 . S
C454 C449 1.501 . S
C454 H455 0.961 . S
C454 H456 0.961 . S
C454 H457 0.960 . S
H455 C454 0.961 . S
H456 C454 0.961 . S
H457 C454 0.960 . S
C458 N459 1.342 . S
C458 C462 1.401 . S
C458 C463 1.499 . S
N459 Co442 1.989 . S
N459 C458 1.342 . S
N459 N460 1.388 . S
N460 Co443 1.993 . S
N460 N459 1.388 . S
N460 C461 1.346 . S
C461 N460 1.346 . S
C461 C462 1.396 . S
C461 C471 1.510 . S
C462 C458 1.401 . S
C462 C461 1.396 . S
C463 C458 1.499 . S
C463 H464 0.955 1_455 S
C463 H465 0.960 . S
C463 H466 0.961 1_455 S
H464 C463 0.955 1_655 S
H465 C463 0.960 . S
H466 C463 0.961 1_655 S
O467 Co442 1.967 1_655 S
O467 C475 1.258 . S
O468 Co443 1.941 . S
O468 C475 1.266 1_455 S
H469 C471 0.959 . S
H470 C471 0.961 . S
C471 C461 1.510 . S
C471 H469 0.959 . S
C471 H470 0.961 . S
C471 H472 0.960 . S
H472 C471 0.960 . S
H473 N453 0.862 . S
O474 Co442 1.923 . S
O474 C447 1.291 . S
C475 O467 1.258 . S
C475 O468 1.266 1_655 S
Co476 O479 1.970 . S
Co476 N493 1.989 . S
Co476 O501 1.967 1_565 S
Co476 O508 1.923 . S
Co477 O480 1.966 . S
Co477 N486 2.022 . S
Co477 N494 1.993 . S
Co477 O502 1.941 . S
C478 O479 1.258 . S
C478 O480 1.263 . S
O479 Co476 1.970 . S
O479 C478 1.258 . S
O480 Co477 1.966 . S
O480 C478 1.263 . S
C481 O482 1.235 . S
C481 O508 1.291 . S
O482 C481 1.235 . S
C483 C485 1.400 . S
C483 N486 1.351 . S
C483 C488 1.501 . S
C484 C485 1.387 . S
C484 N487 1.341 . S
C485 C483 1.400 . S
C485 C484 1.387 . S
N486 Co477 2.022 . S
N486 C483 1.351 . S
N486 N487 1.365 . S
N487 C484 1.341 . S
N487 N486 1.365 . S
N487 H507 0.862 . S
C488 C483 1.501 . S
C488 H489 0.961 . S
C488 H490 0.961 . S
C488 H491 0.960 . S
H489 C488 0.961 . S
H490 C488 0.961 . S
H491 C488 0.960 . S
C492 N493 1.342 . S
C492 C496 1.401 . S
C492 C497 1.499 . S
N493 Co476 1.989 . S
N493 C492 1.342 . S
N493 N494 1.388 . S
N494 Co477 1.993 . S
N494 N493 1.388 . S
N494 C495 1.346 . S
C495 N494 1.346 . S
C495 C496 1.396 . S
C495 C505 1.510 . S
C496 C492 1.401 . S
C496 C495 1.396 . S
C497 C492 1.499 . S
C497 H498 0.955 1_565 S
C497 H499 0.960 . S
C497 H500 0.961 1_565 S
H498 C497 0.955 1_545 S
H499 C497 0.960 . S
H500 C497 0.961 1_545 S
O501 Co476 1.967 1_545 S
O501 C509 1.258 . S
O502 Co477 1.941 . S
O502 C509 1.266 1_565 S
H503 C505 0.959 . S
H504 C505 0.961 . S
C505 C495 1.510 . S
C505 H503 0.959 . S
C505 H504 0.961 . S
C505 H506 0.960 . S
H506 C505 0.960 . S
H507 N487 0.862 . S
O508 Co476 1.923 . S
O508 C481 1.291 . S
C509 O501 1.258 . S
C509 O502 1.266 1_545 S
Co510 O513 1.970 . S
Co510 N527 1.989 . S
Co510 O535 1.967 1_655 S
Co510 O542 1.923 . S
Co511 O514 1.966 . S
Co511 N520 2.022 . S
Co511 N528 1.993 . S
Co511 O536 1.941 . S
C512 O513 1.258 . S
C512 O514 1.263 . S
O513 Co510 1.970 . S
O513 C512 1.258 . S
O514 Co511 1.966 . S
O514 C512 1.263 . S
C515 O516 1.235 . S
C515 O542 1.291 . S
O516 C515 1.235 . S
C517 C519 1.400 . S
C517 N520 1.351 . S
C517 C522 1.501 . S
C518 C519 1.387 . S
C518 N521 1.341 . S
C519 C517 1.400 . S
C519 C518 1.387 . S
N520 Co511 2.022 . S
N520 C517 1.351 . S
N520 N521 1.365 . S
N521 C518 1.341 . S
N521 N520 1.365 . S
N521 H541 0.862 . S
C522 C517 1.501 . S
C522 H523 0.961 . S
C522 H524 0.961 . S
C522 H525 0.960 . S
H523 C522 0.961 . S
H524 C522 0.961 . S
H525 C522 0.960 . S
C526 N527 1.342 . S
C526 C530 1.401 . S
C526 C531 1.499 . S
N527 Co510 1.989 . S
N527 C526 1.342 . S
N527 N528 1.388 . S
N528 Co511 1.993 . S
N528 N527 1.388 . S
N528 C529 1.346 . S
C529 N528 1.346 . S
C529 C530 1.396 . S
C529 C539 1.510 . S
C530 C526 1.401 . S
C530 C529 1.396 . S
C531 C526 1.499 . S
C531 H532 0.955 1_655 S
C531 H533 0.960 . S
C531 H534 0.961 1_655 S
H532 C531 0.955 1_455 S
H533 C531 0.960 . S
H534 C531 0.961 1_455 S
O535 Co510 1.967 1_455 S
O535 C543 1.258 . S
O536 Co511 1.941 . S
O536 C543 1.266 1_655 S
H537 C539 0.959 . S
H538 C539 0.961 . S
C539 C529 1.510 . S
C539 H537 0.959 . S
C539 H538 0.961 . S
C539 H540 0.960 . S
H540 C539 0.960 . S
H541 N521 0.862 . S
O542 Co510 1.923 . S
O542 C515 1.291 . S
C543 O535 1.258 . S
C543 O536 1.266 1_455 S
H544 C556 0.930 . S
H545 C558 0.930 . S
H546 C559 0.930 . S
H547 C563 0.959 1_455 S
H548 C563 0.942 1_455 S
H549 C563 0.980 . S
H550 C564 0.960 1_655 S
H551 C564 0.961 . S
H552 C564 0.959 . S
H553 C567 0.929 . S
H554 C568 0.931 . S
H555 C570 0.930 . S
C556 H544 0.930 . S
C556 C557 1.399 . S
C556 C561 1.399 . S
C557 C556 1.399 . S
C557 C558 1.376 . S
C558 H545 0.930 . S
C558 C557 1.376 . S
C558 C559 1.388 . S
C559 H546 0.930 . S
C559 C558 1.388 . S
C559 C560 1.390 . S
C560 C559 1.390 . S
C560 C561 1.394 . S
C560 C566 1.465 1_655 S
C561 C556 1.399 . S
C561 C560 1.394 . S
C561 C562 1.509 1_655 S
C562 C561 1.509 1_455 S
C562 C563 1.501 1_455 S
C562 C564 1.562 . S
C562 C565 1.533 . S
C563 H547 0.959 1_655 S
C563 H548 0.942 1_655 S
C563 H549 0.980 . S
C563 C562 1.501 1_655 S
C564 H550 0.960 1_455 S
C564 H551 0.961 . S
C564 H552 0.959 . S
C564 C562 1.562 . S
C565 C562 1.533 . S
C565 C566 1.396 . S
C565 C570 1.390 . S
C566 C560 1.465 1_455 S
C566 C565 1.396 . S
C566 C567 1.399 . S
C567 H553 0.929 . S
C567 C566 1.399 . S
C567 C568 1.385 . S
C568 H554 0.931 . S
C568 C567 1.385 . S
C568 C569 1.389 . S
C569 C568 1.389 . S
C569 C570 1.387 . S
C570 H555 0.930 . S
C570 C565 1.390 . S
C570 C569 1.387 . S
H571 C583 0.930 . S
H572 C585 0.930 . S
H573 C586 0.930 . S
H574 C590 0.959 . S
H575 C590 0.959 1_565 S
H576 C590 0.961 . S
H577 C591 0.943 1_545 S
H578 C591 0.976 . S
H579 C591 0.962 . S
H580 C594 0.929 . S
H581 C595 0.931 . S
H582 C597 0.930 . S
C583 H571 0.930 . S
C583 C584 1.399 . S
C583 C588 1.399 . S
C584 C583 1.399 . S
C584 C585 1.376 . S
C585 H572 0.930 . S
C585 C584 1.376 . S
C585 C586 1.388 . S
C586 H573 0.930 . S
C586 C585 1.388 . S
C586 C587 1.390 . S
C587 C586 1.390 . S
C587 C588 1.394 . S
C587 C593 1.465 1_545 S
C588 C583 1.399 . S
C588 C587 1.394 . S
C588 C589 1.538 . S
C589 C588 1.538 . S
C589 C590 1.503 . S
C589 C591 1.560 1_545 S
C589 C592 1.503 1_545 S
C590 H574 0.959 . S
C590 H575 0.959 1_545 S
C590 H576 0.961 . S
C590 C589 1.503 . S
C591 H577 0.943 1_565 S
C591 H578 0.976 . S
C591 H579 0.962 . S
C591 C589 1.560 1_565 S
C592 C589 1.503 1_565 S
C592 C593 1.396 . S
C592 C597 1.390 . S
C593 C587 1.465 1_565 S
C593 C592 1.396 . S
C593 C594 1.399 . S
C594 H580 0.929 . S
C594 C593 1.399 . S
C594 C595 1.385 . S
C595 H581 0.931 . S
C595 C594 1.385 . S
C595 C596 1.389 . S
C596 C595 1.389 . S
C596 C597 1.387 . S
C597 H582 0.930 . S
C597 C592 1.390 . S
C597 C596 1.387 . S
H598 C610 0.930 . S
H599 C612 0.930 . S
H600 C613 0.930 . S
H601 C617 0.959 . S
H602 C617 0.959 . S
H603 C617 0.961 1_655 S
H604 C618 0.960 . S
H605 C618 0.961 1_455 S
H606 C618 0.960 . S
H607 C621 0.929 . S
H608 C622 0.931 . S
H609 C624 0.930 . S
C610 H598 0.930 . S
C610 C611 1.399 . S
C610 C615 1.399 . S
C611 C610 1.399 . S
C611 C612 1.376 . S
C612 H599 0.930 . S
C612 C611 1.376 . S
C612 C613 1.388 . S
C613 H600 0.930 . S
C613 C612 1.388 . S
C613 C614 1.390 . S
C614 C613 1.390 . S
C614 C615 1.394 . S
C614 C620 1.465 1_655 S
C615 C610 1.399 . S
C615 C614 1.394 . S
C615 C616 1.514 1_655 S
C616 C615 1.514 1_455 S
C616 C617 1.502 . S
C616 C618 1.561 1_455 S
C616 C619 1.528 . S
C617 H601 0.959 . S
C617 H602 0.959 . S
C617 H603 0.961 1_455 S
C617 C616 1.502 . S
C618 H604 0.960 . S
C618 H605 0.961 1_655 S
C618 H606 0.960 . S
C618 C616 1.561 1_655 S
C619 C616 1.528 . S
C619 C620 1.396 . S
C619 C624 1.390 . S
C620 C614 1.465 1_455 S
C620 C619 1.396 . S
C620 C621 1.399 . S
C621 H607 0.929 . S
C621 C620 1.399 . S
C621 C622 1.385 . S
C622 H608 0.931 . S
C622 C621 1.385 . S
C622 C623 1.389 . S
C623 C622 1.389 . S
C623 C624 1.387 . S
C624 H609 0.930 . S
C624 C619 1.390 . S
C624 C623 1.387 . S
H625 C637 0.930 . S
H626 C639 0.930 . S
H627 C640 0.930 . S
H628 C644 0.962 . S
H629 C644 0.959 1_545 S
H630 C644 0.961 . S
H631 C645 0.931 1_565 S
H632 C645 0.987 . S
H633 C645 0.964 . S
H634 C648 0.929 . S
H635 C649 0.931 . S
H636 C651 0.930 . S
C637 H625 0.930 . S
C637 C638 1.399 . S
C637 C642 1.399 . S
C638 C637 1.399 . S
C638 C639 1.376 . S
C639 H626 0.930 . S
C639 C638 1.376 . S
C639 C640 1.388 . S
C640 H627 0.930 . S
C640 C639 1.388 . S
C640 C641 1.390 . S
C641 C640 1.390 . S
C641 C642 1.394 . S
C641 C647 1.465 1_565 S
C642 C637 1.399 . S
C642 C641 1.394 . S
C642 C643 1.532 . S
C643 C642 1.532 . S
C643 C644 1.503 . S
C643 C645 1.560 1_565 S
C643 C646 1.510 1_565 S
C644 H628 0.962 . S
C644 H629 0.959 1_565 S
C644 H630 0.961 . S
C644 C643 1.503 . S
C645 H631 0.931 1_545 S
C645 H632 0.987 . S
C645 H633 0.964 . S
C645 C643 1.560 1_545 S
C646 C643 1.510 1_545 S
C646 C647 1.396 . S
C646 C651 1.390 . S
C647 C641 1.465 1_545 S
C647 C646 1.396 . S
C647 C648 1.399 . S
C648 H634 0.929 . S
C648 C647 1.399 . S
C648 C649 1.385 . S
C649 H635 0.931 . S
C649 C648 1.385 . S
C649 C650 1.389 . S
C650 C649 1.389 . S
C650 C651 1.387 . S
C651 H636 0.930 . S
C651 C646 1.390 . S
C651 C650 1.387 . S
H652 C664 0.943 . S
H653 C666 0.930 . S
H654 C667 0.930 . S
H655 C671 0.959 . S
H656 C671 0.959 . S
H657 C671 0.961 . S
H658 C672 0.960 . S
H659 C672 0.961 . S
H660 C672 0.959 . S
H661 C675 0.929 . S
H662 C676 0.931 . S
H663 C678 0.930 . S
C664 H652 0.943 . S
C664 C665 1.389 1_545 S
C664 C669 1.398 1_545 S
C665 C664 1.389 1_565 S
C665 C666 1.376 . S
C666 H653 0.930 . S
C666 C665 1.376 . S
C666 C667 1.388 . S
C667 H654 0.930 . S
C667 C666 1.388 . S
C667 C668 1.390 . S
C668 C667 1.390 . S
C668 C669 1.394 . S
C668 C674 1.465 . S
C669 C664 1.398 1_565 S
C669 C668 1.394 . S
C669 C670 1.516 1_565 S
C670 C669 1.516 1_545 S
C670 C671 1.502 . S
C670 C672 1.561 1_545 S
C670 C673 1.526 . S
C671 H655 0.959 . S
C671 H656 0.959 . S
C671 H657 0.961 . S
C671 C670 1.502 . S
C672 H658 0.960 . S
C672 H659 0.961 . S
C672 H660 0.959 . S
C672 C670 1.561 1_565 S
C673 C670 1.526 . S
C673 C674 1.396 1_545 S
C673 C678 1.390 . S
C674 C668 1.465 . S
C674 C673 1.396 1_565 S
C674 C675 1.399 . S
C675 H661 0.929 . S
C675 C674 1.399 . S
C675 C676 1.385 . S
C676 H662 0.931 . S
C676 C675 1.385 . S
C676 C677 1.389 1_565 S
C677 C676 1.389 1_545 S
C677 C678 1.387 . S
C678 H663 0.930 . S
C678 C673 1.390 . S
C678 C677 1.387 . S
H679 C691 0.930 . S
H680 C693 0.930 . S
H681 C694 0.930 . S
H682 C698 0.959 . S
H683 C698 0.959 . S
H684 C698 0.961 . S
H685 C699 0.960 . S
H686 C699 0.961 . S
H687 C699 0.959 . S
H688 C702 0.929 . S
H689 C703 0.931 . S
H690 C705 0.930 . S
C691 H679 0.930 . S
C691 C692 1.399 . S
C691 C696 1.399 . S
C692 C691 1.399 . S
C692 C693 1.376 1_655 S
C693 H680 0.930 . S
C693 C692 1.376 1_455 S
C693 C694 1.388 . S
C694 H681 0.930 . S
C694 C693 1.388 . S
C694 C695 1.390 . S
C695 C694 1.390 . S
C695 C696 1.394 1_455 S
C695 C701 1.465 . S
C696 C691 1.399 . S
C696 C695 1.394 1_655 S
C696 C697 1.516 . S
C697 C696 1.516 . S
C697 C698 1.502 . S
C697 C699 1.561 1_655 S
C697 C700 1.527 . S
C698 H682 0.959 . S
C698 H683 0.959 . S
C698 H684 0.961 . S
C698 C697 1.502 . S
C699 H685 0.960 . S
C699 H686 0.961 . S
C699 H687 0.959 . S
C699 C697 1.561 1_455 S
C700 C697 1.527 . S
C700 C701 1.394 1_655 S
C700 C705 1.390 . S
C701 C695 1.465 . S
C701 C700 1.394 1_455 S
C701 C702 1.399 . S
C702 H688 0.929 . S
C702 C701 1.399 . S
C702 C703 1.385 . S
C703 H689 0.931 . S
C703 C702 1.385 . S
C703 C704 1.389 . S
C704 C703 1.389 . S
C704 C705 1.387 1_455 S
C705 H690 0.930 . S
C705 C700 1.390 . S
C705 C704 1.387 1_655 S
H706 C718 0.930 . S
H707 C720 0.930 . S
H708 C721 0.930 . S
H709 C725 0.959 . S
H710 C725 0.959 . S
H711 C725 0.961 . S
H712 C726 0.960 . S
H713 C726 0.961 . S
H714 C726 0.959 . S
H715 C729 0.929 . S
H716 C730 0.931 . S
H717 C732 0.930 . S
C718 H706 0.930 . S
C718 C719 1.399 . S
C718 C723 1.399 . S
C719 C718 1.399 . S
C719 C720 1.376 1_565 S
C720 H707 0.930 . S
C720 C719 1.376 1_545 S
C720 C721 1.388 . S
C721 H708 0.930 . S
C721 C720 1.388 . S
C721 C722 1.390 . S
C722 C721 1.390 . S
C722 C723 1.394 1_545 S
C722 C728 1.465 . S
C723 C718 1.399 . S
C723 C722 1.394 1_565 S
C723 C724 1.516 . S
C724 C723 1.516 . S
C724 C725 1.502 . S
C724 C726 1.561 . S
C724 C727 1.526 . S
C725 H709 0.959 . S
C725 H710 0.959 . S
C725 H711 0.961 . S
C725 C724 1.502 . S
C726 H712 0.960 . S
C726 H713 0.961 . S
C726 H714 0.959 . S
C726 C724 1.561 . S
C727 C724 1.526 . S
C727 C728 1.396 1_565 S
C727 C732 1.390 . S
C728 C722 1.465 . S
C728 C727 1.396 1_545 S
C728 C729 1.399 . S
C729 H715 0.929 . S
C729 C728 1.399 . S
C729 C730 1.385 . S
C730 H716 0.931 . S
C730 C729 1.385 . S
C730 C731 1.389 . S
C731 C730 1.389 . S
C731 C732 1.387 1_545 S
C732 H717 0.930 . S
C732 C727 1.390 . S
C732 C731 1.387 1_565 S
H733 C745 0.930 . S
H734 C747 0.930 . S
H735 C748 0.930 . S
H736 C752 0.959 . S
H737 C752 0.959 . S
H738 C752 0.961 . S
H739 C753 0.960 . S
H740 C753 0.961 . S
H741 C753 0.959 . S
H742 C756 0.929 . S
H743 C757 0.931 . S
H744 C759 0.930 . S
C745 H733 0.930 . S
C745 C746 1.399 1_455 S
C745 C750 1.399 . S
C746 C745 1.399 1_655 S
C746 C747 1.376 . S
C747 H734 0.930 . S
C747 C746 1.376 . S
C747 C748 1.388 . S
C748 H735 0.930 . S
C748 C747 1.388 . S
C748 C749 1.390 . S
C749 C748 1.390 . S
C749 C750 1.394 1_655 S
C749 C755 1.465 . S
C750 C745 1.399 . S
C750 C749 1.394 1_455 S
C750 C751 1.516 . S
C751 C750 1.516 . S
C751 C752 1.502 . S
C751 C753 1.561 . S
C751 C754 1.526 . S
C752 H736 0.959 . S
C752 H737 0.959 . S
C752 H738 0.961 . S
C752 C751 1.502 . S
C753 H739 0.960 . S
C753 H740 0.961 . S
C753 H741 0.959 . S
C753 C751 1.561 . S
C754 C751 1.526 . S
C754 C755 1.396 1_455 S
C754 C759 1.390 . S
C755 C749 1.465 . S
C755 C754 1.396 1_655 S
C755 C756 1.399 . S
C756 H742 0.929 . S
C756 C755 1.399 . S
C756 C757 1.385 . S
C757 H743 0.931 . S
C757 C756 1.385 . S
C757 C758 1.389 1_655 S
C758 C757 1.389 1_455 S
C758 C759 1.387 . S
C759 H744 0.930 . S
C759 C754 1.390 . S
C759 C758 1.387 . S
H760 C772 0.930 . S
H761 C774 0.930 . S
H762 C775 0.930 . S
H763 C779 0.959 . S
H764 C779 0.959 . S
H765 C779 0.961 . S
H766 C780 0.960 . S
H767 C780 0.961 . S
H768 C780 0.959 . S
H769 C783 0.929 . S
H770 C784 0.931 . S
H771 C786 0.930 . S
C772 H760 0.930 . S
C772 C773 1.399 . S
C772 C777 1.399 . S
C773 C772 1.399 . S
C773 C774 1.376 . S
C774 H761 0.930 . S
C774 C773 1.376 . S
C774 C775 1.388 . S
C775 H762 0.930 . S
C775 C774 1.388 . S
C775 C776 1.390 . S
C776 C775 1.390 . S
C776 C777 1.394 . S
C776 C782 1.465 . S
C777 C772 1.399 . S
C777 C776 1.394 . S
C777 C778 1.516 . S
C778 C777 1.516 . S
C778 C779 1.502 . S
C778 C780 1.561 . S
C778 C781 1.526 . S
C779 H763 0.959 . S
C779 H764 0.959 . S
C779 H765 0.961 . S
C779 C778 1.502 . S
C780 H766 0.960 . S
C780 H767 0.961 . S
C780 H768 0.959 . S
C780 C778 1.561 . S
C781 C778 1.526 . S
C781 C782 1.396 . S
C781 C786 1.390 . S
C782 C776 1.465 . S
C782 C781 1.396 . S
C782 C783 1.399 . S
C783 H769 0.929 . S
C783 C782 1.399 . S
C783 C784 1.385 . S
C784 H770 0.931 . S
C784 C783 1.385 . S
C784 C785 1.389 . S
C785 C784 1.389 . S
C785 C786 1.387 . S
C786 H771 0.930 . S
C786 C781 1.390 . S
C786 C785 1.387 . S
H787 C799 0.930 . S
H788 C801 0.930 . S
H789 C802 0.930 . S
H790 C806 0.959 . S
H791 C806 0.959 . S
H792 C806 0.961 . S
H793 C807 0.960 . S
H794 C807 0.961 . S
H795 C807 0.959 . S
H796 C810 0.929 . S
H797 C811 0.931 . S
H798 C813 0.930 . S
C799 H787 0.930 . S
C799 C800 1.399 . S
C799 C804 1.399 . S
C800 C799 1.399 . S
C800 C801 1.376 . S
C801 H788 0.930 . S
C801 C800 1.376 . S
C801 C802 1.388 . S
C802 H789 0.930 . S
C802 C801 1.388 . S
C802 C803 1.390 . S
C803 C802 1.390 . S
C803 C804 1.394 . S
C803 C809 1.465 . S
C804 C799 1.399 . S
C804 C803 1.394 . S
C804 C805 1.516 . S
C805 C804 1.516 . S
C805 C806 1.502 . S
C805 C807 1.561 . S
C805 C808 1.526 . S
C806 H790 0.959 . S
C806 H791 0.959 . S
C806 H792 0.961 . S
C806 C805 1.502 . S
C807 H793 0.960 . S
C807 H794 0.961 . S
C807 H795 0.959 . S
C807 C805 1.561 . S
C808 C805 1.526 . S
C808 C809 1.396 . S
C808 C813 1.390 . S
C809 C803 1.465 . S
C809 C808 1.396 . S
C809 C810 1.399 . S
C810 H796 0.929 . S
C810 C809 1.399 . S
C810 C811 1.385 . S
C811 H797 0.931 . S
C811 C810 1.385 . S
C811 C812 1.389 . S
C812 C811 1.389 . S
C812 C813 1.387 . S
C813 H798 0.930 . S
C813 C808 1.390 . S
C813 C812 1.387 . S
H814 C826 0.930 . S
H815 C828 0.930 . S
H816 C829 0.930 . S
H817 C833 0.959 . S
H818 C833 0.959 . S
H819 C833 0.961 . S
H820 C834 0.960 . S
H821 C834 0.961 . S
H822 C834 0.959 . S
H823 C837 0.929 . S
H824 C838 0.931 . S
H825 C840 0.930 . S
C826 H814 0.930 . S
C826 C827 1.399 . S
C826 C831 1.399 . S
C827 C826 1.399 . S
C827 C828 1.376 . S
C828 H815 0.930 . S
C828 C827 1.376 . S
C828 C829 1.388 . S
C829 H816 0.930 . S
C829 C828 1.388 . S
C829 C830 1.390 . S
C830 C829 1.390 . S
C830 C831 1.394 . S
C830 C836 1.465 . S
C831 C826 1.399 . S
C831 C830 1.394 . S
C831 C832 1.516 . S
C832 C831 1.516 . S
C832 C833 1.502 . S
C832 C834 1.561 . S
C832 C835 1.526 . S
C833 H817 0.959 . S
C833 H818 0.959 . S
C833 H819 0.961 . S
C833 C832 1.502 . S
C834 H820 0.960 . S
C834 H821 0.961 . S
C834 H822 0.959 . S
C834 C832 1.561 . S
C835 C832 1.526 . S
C835 C836 1.396 . S
C835 C840 1.390 . S
C836 C830 1.465 . S
C836 C835 1.396 . S
C836 C837 1.399 . S
C837 H823 0.929 . S
C837 C836 1.399 . S
C837 C838 1.385 . S
C838 H824 0.931 . S
C838 C837 1.385 . S
C838 C839 1.389 . S
C839 C838 1.389 . S
C839 C840 1.387 . S
C840 H825 0.930 . S
C840 C835 1.390 . S
C840 C839 1.387 . S
H841 C853 0.930 . S
H842 C855 0.930 . S
H843 C856 0.930 . S
H844 C860 0.959 . S
H845 C860 0.959 . S
H846 C860 0.961 . S
H847 C861 0.960 . S
H848 C861 0.961 . S
H849 C861 0.959 . S
H850 C864 0.929 . S
H851 C865 0.931 . S
H852 C867 0.930 . S
C853 H841 0.930 . S
C853 C854 1.399 . S
C853 C858 1.399 . S
C854 C853 1.399 . S
C854 C855 1.376 . S
C855 H842 0.930 . S
C855 C854 1.376 . S
C855 C856 1.388 . S
C856 H843 0.930 . S
C856 C855 1.388 . S
C856 C857 1.390 . S
C857 C856 1.390 . S
C857 C858 1.394 . S
C857 C863 1.465 . S
C858 C853 1.399 . S
C858 C857 1.394 . S
C858 C859 1.516 . S
C859 C858 1.516 . S
C859 C860 1.502 . S
C859 C861 1.561 . S
C859 C862 1.526 . S
C860 H844 0.959 . S
C860 H845 0.959 . S
C860 H846 0.961 . S
C860 C859 1.502 . S
C861 H847 0.960 . S
C861 H848 0.961 . S
C861 H849 0.959 . S
C861 C859 1.561 . S
C862 C859 1.526 . S
C862 C863 1.396 . S
C862 C867 1.390 . S
C863 C857 1.465 . S
C863 C862 1.396 . S
C863 C864 1.399 . S
C864 H850 0.929 . S
C864 C863 1.399 . S
C864 C865 1.385 . S
C865 H851 0.931 . S
C865 C864 1.385 . S
C865 C866 1.389 . S
C866 C865 1.389 . S
C866 C867 1.387 . S
C867 H852 0.930 . S
C867 C862 1.390 . S
C867 C866 1.387 . S
H868 C880 0.930 . S
H869 C882 0.930 . S
H870 C883 0.930 . S
H871 C887 0.959 . S
H872 C887 0.959 . S
H873 C887 0.961 . S
H874 C888 0.960 . S
H875 C888 0.961 . S
H876 C888 0.959 . S
H877 C891 0.929 . S
H878 C892 0.931 . S
H879 C894 0.930 . S
C880 H868 0.930 . S
C880 C881 1.399 . S
C880 C885 1.399 . S
C881 C880 1.399 . S
C881 C882 1.376 . S
C882 H869 0.930 . S
C882 C881 1.376 . S
C882 C883 1.388 . S
C883 H870 0.930 . S
C883 C882 1.388 . S
C883 C884 1.390 . S
C884 C883 1.390 . S
C884 C885 1.394 . S
C884 C890 1.465 . S
C885 C880 1.399 . S
C885 C884 1.394 . S
C885 C886 1.516 . S
C886 C885 1.516 . S
C886 C887 1.502 . S
C886 C888 1.561 . S
C886 C889 1.526 . S
C887 H871 0.959 . S
C887 H872 0.959 . S
C887 H873 0.961 . S
C887 C886 1.502 . S
C888 H874 0.960 . S
C888 H875 0.961 . S
C888 H876 0.959 . S
C888 C886 1.561 . S
C889 C886 1.526 . S
C889 C890 1.396 . S
C889 C894 1.390 . S
C890 C884 1.465 . S
C890 C889 1.396 . S
C890 C891 1.399 . S
C891 H877 0.929 . S
C891 C890 1.399 . S
C891 C892 1.385 . S
C892 H878 0.931 . S
C892 C891 1.385 . S
C892 C893 1.389 . S
C893 C892 1.389 . S
C893 C894 1.387 . S
C894 H879 0.930 . S
C894 C889 1.390 . S
C894 C893 1.387 . S
H895 C907 0.930 . S
H896 C909 0.930 . S
H897 C910 0.930 . S
H898 C914 0.959 . S
H899 C914 0.959 . S
H900 C914 0.961 . S
H901 C915 0.960 . S
H902 C915 0.961 . S
H903 C915 0.959 . S
H904 C918 0.929 . S
H905 C919 0.931 . S
H906 C921 0.930 . S
C907 H895 0.930 . S
C907 C908 1.399 . S
C907 C912 1.399 . S
C908 C907 1.399 . S
C908 C909 1.376 . S
C909 H896 0.930 . S
C909 C908 1.376 . S
C909 C910 1.388 . S
C910 H897 0.930 . S
C910 C909 1.388 . S
C910 C911 1.390 . S
C911 C910 1.390 . S
C911 C912 1.394 . S
C911 C917 1.465 . S
C912 C907 1.399 . S
C912 C911 1.394 . S
C912 C913 1.516 . S
C913 C912 1.516 . S
C913 C914 1.502 . S
C913 C915 1.561 . S
C913 C916 1.526 . S
C914 H898 0.959 . S
C914 H899 0.959 . S
C914 H900 0.961 . S
C914 C913 1.502 . S
C915 H901 0.960 . S
C915 H902 0.961 . S
C915 H903 0.959 . S
C915 C913 1.561 . S
C916 C913 1.526 . S
C916 C917 1.396 . S
C916 C921 1.390 . S
C917 C911 1.465 . S
C917 C916 1.396 . S
C917 C918 1.399 . S
C918 H904 0.929 . S
C918 C917 1.399 . S
C918 C919 1.385 . S
C919 H905 0.931 . S
C919 C918 1.385 . S
C919 C920 1.389 . S
C920 C919 1.389 . S
C920 C921 1.387 . S
C921 H906 0.930 . S
C921 C916 1.390 . S
C921 C920 1.387 . S
H922 C934 0.930 . S
H923 C936 0.930 . S
H924 C937 0.930 . S
H925 C941 0.959 . S
H926 C941 0.959 . S
H927 C941 0.961 . S
H928 C942 0.960 . S
H929 C942 0.961 . S
H930 C942 0.959 . S
H931 C945 0.929 . S
H932 C946 0.931 . S
H933 C948 0.930 . S
C934 H922 0.930 . S
C934 C935 1.399 . S
C934 C939 1.399 . S
C935 C934 1.399 . S
C935 C936 1.376 . S
C936 H923 0.930 . S
C936 C935 1.376 . S
C936 C937 1.388 . S
C937 H924 0.930 . S
C937 C936 1.388 . S
C937 C938 1.390 . S
C938 C937 1.390 . S
C938 C939 1.394 . S
C938 C944 1.465 . S
C939 C934 1.399 . S
C939 C938 1.394 . S
C939 C940 1.516 . S
C940 C939 1.516 . S
C940 C941 1.502 . S
C940 C942 1.561 . S
C940 C943 1.526 . S
C941 H925 0.959 . S
C941 H926 0.959 . S
C941 H927 0.961 . S
C941 C940 1.502 . S
C942 H928 0.960 . S
C942 H929 0.961 . S
C942 H930 0.959 . S
C942 C940 1.561 . S
C943 C940 1.526 . S
C943 C944 1.396 . S
C943 C948 1.390 . S
C944 C938 1.465 . S
C944 C943 1.396 . S
C944 C945 1.399 . S
C945 H931 0.929 . S
C945 C944 1.399 . S
C945 C946 1.385 . S
C946 H932 0.931 . S
C946 C945 1.385 . S
C946 C947 1.389 . S
C947 C946 1.389 . S
C947 C948 1.387 . S
C948 H933 0.930 . S
C948 C943 1.390 . S
C948 C947 1.387 . S
H949 C961 0.930 . S
H950 C963 0.930 . S
H951 C964 0.930 . S
H952 C968 0.959 . S
H953 C968 0.959 . S
H954 C968 0.961 . S
H955 C969 0.960 . S
H956 C969 0.961 . S
H957 C969 0.959 . S
H958 C972 0.929 . S
H959 C973 0.931 . S
H960 C975 0.930 . S
C961 H949 0.930 . S
C961 C962 1.399 . S
C961 C966 1.399 . S
C962 C961 1.399 . S
C962 C963 1.376 . S
C963 H950 0.930 . S
C963 C962 1.376 . S
C963 C964 1.388 . S
C964 H951 0.930 . S
C964 C963 1.388 . S
C964 C965 1.390 . S
C965 C964 1.390 . S
C965 C966 1.394 . S
C965 C971 1.465 . S
C966 C961 1.399 . S
C966 C965 1.394 . S
C966 C967 1.516 . S
C967 C966 1.516 . S
C967 C968 1.502 . S
C967 C969 1.561 . S
C967 C970 1.526 . S
C968 H952 0.959 . S
C968 H953 0.959 . S
C968 H954 0.961 . S
C968 C967 1.502 . S
C969 H955 0.960 . S
C969 H956 0.961 . S
C969 H957 0.959 . S
C969 C967 1.561 . S
C970 C967 1.526 . S
C970 C971 1.396 . S
C970 C975 1.390 . S
C971 C965 1.465 . S
C971 C970 1.396 . S
C971 C972 1.399 . S
C972 H958 0.929 . S
C972 C971 1.399 . S
C972 C973 1.385 . S
C973 H959 0.931 . S
C973 C972 1.385 . S
C973 C974 1.389 . S
C974 C973 1.389 . S
C974 C975 1.387 . S
C975 H960 0.930 . S
C975 C970 1.390 . S
C975 C974 1.387 . S
H976 C988 0.930 . S
H977 C990 0.930 . S
H978 C991 0.930 . S
H979 C995 0.959 . S
H980 C995 0.959 . S
H981 C995 0.961 . S
H982 C996 0.960 . S
H983 C996 0.961 . S
H984 C996 0.959 . S
H985 C999 0.929 . S
H986 C1000 0.931 . S
H987 C1002 0.930 . S
C988 H976 0.930 . S
C988 C989 1.399 . S
C988 C993 1.399 . S
C989 C988 1.399 . S
C989 C990 1.376 . S
C990 H977 0.930 . S
C990 C989 1.376 . S
C990 C991 1.388 . S
C991 H978 0.930 . S
C991 C990 1.388 . S
C991 C992 1.390 . S
C992 C991 1.390 . S
C992 C993 1.394 . S
C992 C998 1.465 . S
C993 C988 1.399 . S
C993 C992 1.394 . S
C993 C994 1.516 . S
C994 C993 1.516 . S
C994 C995 1.502 . S
C994 C996 1.561 . S
C994 C997 1.526 . S
C995 H979 0.959 . S
C995 H980 0.959 . S
C995 H981 0.961 . S
C995 C994 1.502 . S
C996 H982 0.960 . S
C996 H983 0.961 . S
C996 H984 0.959 . S
C996 C994 1.561 . S
C997 C994 1.526 . S
C997 C998 1.396 . S
C997 C1002 1.390 . S
C998 C992 1.465 . S
C998 C997 1.396 . S
C998 C999 1.399 . S
C999 H985 0.929 . S
C999 C998 1.399 . S
C999 C1000 1.385 . S
C1000 H986 0.931 . S
C1000 C999 1.385 . S
C1000 C1001 1.389 . S
C1001 C1000 1.389 . S
C1001 C1002 1.387 . S
C1002 H987 0.930 . S
C1002 C997 1.390 . S
C1002 C1001 1.387 . S
H1003 C1015 0.930 . S
H1004 C1017 0.930 . S
H1005 C1018 0.930 . S
H1006 C1022 0.959 . S
H1007 C1022 0.959 . S
H1008 C1022 0.961 . S
H1009 C1023 0.960 . S
H1010 C1023 0.961 . S
H1011 C1023 0.959 . S
H1012 C1026 0.929 . S
H1013 C1027 0.931 . S
H1014 C1029 0.930 . S
C1015 H1003 0.930 . S
C1015 C1016 1.399 . S
C1015 C1020 1.399 . S
C1016 C1015 1.399 . S
C1016 C1017 1.376 . S
C1017 H1004 0.930 . S
C1017 C1016 1.376 . S
C1017 C1018 1.388 . S
C1018 H1005 0.930 . S
C1018 C1017 1.388 . S
C1018 C1019 1.390 . S
C1019 C1018 1.390 . S
C1019 C1020 1.394 . S
C1019 C1025 1.465 . S
C1020 C1015 1.399 . S
C1020 C1019 1.394 . S
C1020 C1021 1.516 . S
C1021 C1020 1.516 . S
C1021 C1022 1.502 . S
C1021 C1023 1.561 . S
C1021 C1024 1.526 . S
C1022 H1006 0.959 . S
C1022 H1007 0.959 . S
C1022 H1008 0.961 . S
C1022 C1021 1.502 . S
C1023 H1009 0.960 . S
C1023 H1010 0.961 . S
C1023 H1011 0.959 . S
C1023 C1021 1.561 . S
C1024 C1021 1.526 . S
C1024 C1025 1.396 . S
C1024 C1029 1.390 . S
C1025 C1019 1.465 . S
C1025 C1024 1.396 . S
C1025 C1026 1.399 . S
C1026 H1012 0.929 . S
C1026 C1025 1.399 . S
C1026 C1027 1.385 . S
C1027 H1013 0.931 . S
C1027 C1026 1.385 . S
C1027 C1028 1.389 . S
C1028 C1027 1.389 . S
C1028 C1029 1.387 . S
C1029 H1014 0.930 . S
C1029 C1024 1.390 . S
C1029 C1028 1.387 . S
H1030 C1042 0.930 . S
H1031 C1044 0.930 . S
H1032 C1045 0.930 . S
H1033 C1049 0.959 . S
H1034 C1049 0.959 . S
H1035 C1049 0.961 . S
H1036 C1050 0.960 . S
H1037 C1050 0.961 . S
H1038 C1050 0.959 . S
H1039 C1053 0.929 . S
H1040 C1054 0.931 . S
H1041 C1056 0.930 . S
C1042 H1030 0.930 . S
C1042 C1043 1.399 . S
C1042 C1047 1.399 . S
C1043 C1042 1.399 . S
C1043 C1044 1.376 . S
C1044 H1031 0.930 . S
C1044 C1043 1.376 . S
C1044 C1045 1.388 . S
C1045 H1032 0.930 . S
C1045 C1044 1.388 . S
C1045 C1046 1.390 . S
C1046 C1045 1.390 . S
C1046 C1047 1.394 . S
C1046 C1052 1.465 . S
C1047 C1042 1.399 . S
C1047 C1046 1.394 . S
C1047 C1048 1.516 . S
C1048 C1047 1.516 . S
C1048 C1049 1.502 . S
C1048 C1050 1.561 . S
C1048 C1051 1.526 . S
C1049 H1033 0.959 . S
C1049 H1034 0.959 . S
C1049 H1035 0.961 . S
C1049 C1048 1.502 . S
C1050 H1036 0.960 . S
C1050 H1037 0.961 . S
C1050 H1038 0.959 . S
C1050 C1048 1.561 . S
C1051 C1048 1.526 . S
C1051 C1052 1.396 . S
C1051 C1056 1.390 . S
C1052 C1046 1.465 . S
C1052 C1051 1.396 . S
C1052 C1053 1.399 . S
C1053 H1039 0.929 . S
C1053 C1052 1.399 . S
C1053 C1054 1.385 . S
C1054 H1040 0.931 . S
C1054 C1053 1.385 . S
C1054 C1055 1.389 . S
C1055 C1054 1.389 . S
C1055 C1056 1.387 . S
C1056 H1041 0.930 . S
C1056 C1051 1.390 . S
C1056 C1055 1.387 . S
H1057 C1069 0.930 . S
H1058 C1071 0.930 . S
H1059 C1072 0.930 . S
H1060 C1076 0.959 . S
H1061 C1076 0.959 . S
H1062 C1076 0.961 . S
H1063 C1077 0.960 . S
H1064 C1077 0.961 . S
H1065 C1077 0.959 . S
H1066 C1080 0.929 . S
H1067 C1081 0.931 . S
H1068 C1083 0.930 . S
C1069 H1057 0.930 . S
C1069 C1070 1.399 . S
C1069 C1074 1.399 . S
C1070 C1069 1.399 . S
C1070 C1071 1.376 . S
C1071 H1058 0.930 . S
C1071 C1070 1.376 . S
C1071 C1072 1.388 . S
C1072 H1059 0.930 . S
C1072 C1071 1.388 . S
C1072 C1073 1.390 . S
C1073 C1072 1.390 . S
C1073 C1074 1.394 . S
C1073 C1079 1.465 . S
C1074 C1069 1.399 . S
C1074 C1073 1.394 . S
C1074 C1075 1.516 . S
C1075 C1074 1.516 . S
C1075 C1076 1.502 . S
C1075 C1077 1.561 . S
C1075 C1078 1.526 . S
C1076 H1060 0.959 . S
C1076 H1061 0.959 . S
C1076 H1062 0.961 . S
C1076 C1075 1.502 . S
C1077 H1063 0.960 . S
C1077 H1064 0.961 . S
C1077 H1065 0.959 . S
C1077 C1075 1.561 . S
C1078 C1075 1.526 . S
C1078 C1079 1.396 . S
C1078 C1083 1.390 . S
C1079 C1073 1.465 . S
C1079 C1078 1.396 . S
C1079 C1080 1.399 . S
C1080 H1066 0.929 . S
C1080 C1079 1.399 . S
C1080 C1081 1.385 . S
C1081 H1067 0.931 . S
C1081 C1080 1.385 . S
C1081 C1082 1.389 . S
C1082 C1081 1.389 . S
C1082 C1083 1.387 . S
C1083 H1068 0.930 . S
C1083 C1078 1.390 . S
C1083 C1082 1.387 . S
H1084 C1096 0.930 . S
H1085 C1098 0.930 . S
H1086 C1099 0.930 . S
H1087 C1103 0.959 . S
H1088 C1103 0.959 . S
H1089 C1103 0.961 . S
H1090 C1104 0.960 . S
H1091 C1104 0.961 . S
H1092 C1104 0.959 . S
H1093 C1107 0.929 . S
H1094 C1108 0.931 . S
H1095 C1110 0.930 . S
C1096 H1084 0.930 . S
C1096 C1097 1.399 . S
C1096 C1101 1.399 . S
C1097 C1096 1.399 . S
C1097 C1098 1.376 . S
C1098 H1085 0.930 . S
C1098 C1097 1.376 . S
C1098 C1099 1.388 . S
C1099 H1086 0.930 . S
C1099 C1098 1.388 . S
C1099 C1100 1.390 . S
C1100 C1099 1.390 . S
C1100 C1101 1.394 . S
C1100 C1106 1.465 . S
C1101 C1096 1.399 . S
C1101 C1100 1.394 . S
C1101 C1102 1.516 . S
C1102 C1101 1.516 . S
C1102 C1103 1.502 . S
C1102 C1104 1.561 . S
C1102 C1105 1.526 . S
C1103 H1087 0.959 . S
C1103 H1088 0.959 . S
C1103 H1089 0.961 . S
C1103 C1102 1.502 . S
C1104 H1090 0.960 . S
C1104 H1091 0.961 . S
C1104 H1092 0.959 . S
C1104 C1102 1.561 . S
C1105 C1102 1.526 . S
C1105 C1106 1.396 . S
C1105 C1110 1.390 . S
C1106 C1100 1.465 . S
C1106 C1105 1.396 . S
C1106 C1107 1.399 . S
C1107 H1093 0.929 . S
C1107 C1106 1.399 . S
C1107 C1108 1.385 . S
C1108 H1094 0.931 . S
C1108 C1107 1.385 . S
C1108 C1109 1.389 . S
C1109 C1108 1.389 . S
C1109 C1110 1.387 . S
C1110 H1095 0.930 . S
C1110 C1105 1.390 . S
C1110 C1109 1.387 . S
H1111 C1123 0.930 . S
H1112 C1125 0.930 . S
H1113 C1126 0.930 . S
H1114 C1130 0.959 . S
H1115 C1130 0.959 . S
H1116 C1130 0.961 . S
H1117 C1131 0.960 . S
H1118 C1131 0.961 . S
H1119 C1131 0.959 . S
H1120 C1134 0.929 . S
H1121 C1135 0.931 . S
H1122 C1137 0.930 . S
C1123 H1111 0.930 . S
C1123 C1124 1.399 . S
C1123 C1128 1.399 . S
C1124 C1123 1.399 . S
C1124 C1125 1.376 . S
C1125 H1112 0.930 . S
C1125 C1124 1.376 . S
C1125 C1126 1.388 . S
C1126 H1113 0.930 . S
C1126 C1125 1.388 . S
C1126 C1127 1.390 . S
C1127 C1126 1.390 . S
C1127 C1128 1.394 . S
C1127 C1133 1.465 . S
C1128 C1123 1.399 . S
C1128 C1127 1.394 . S
C1128 C1129 1.516 . S
C1129 C1128 1.516 . S
C1129 C1130 1.502 . S
C1129 C1131 1.561 . S
C1129 C1132 1.526 . S
C1130 H1114 0.959 . S
C1130 H1115 0.959 . S
C1130 H1116 0.961 . S
C1130 C1129 1.502 . S
C1131 H1117 0.960 . S
C1131 H1118 0.961 . S
C1131 H1119 0.959 . S
C1131 C1129 1.561 . S
C1132 C1129 1.526 . S
C1132 C1133 1.396 . S
C1132 C1137 1.390 . S
C1133 C1127 1.465 . S
C1133 C1132 1.396 . S
C1133 C1134 1.399 . S
C1134 H1120 0.929 . S
C1134 C1133 1.399 . S
C1134 C1135 1.385 . S
C1135 H1121 0.931 . S
C1135 C1134 1.385 . S
C1135 C1136 1.389 . S
C1136 C1135 1.389 . S
C1136 C1137 1.387 . S
C1137 H1122 0.930 . S
C1137 C1132 1.390 . S
C1137 C1136 1.387 . S
H1138 C1150 0.930 . S
H1139 C1152 0.930 . S
H1140 C1153 0.930 . S
H1141 C1157 0.959 . S
H1142 C1157 0.959 . S
H1143 C1157 0.961 . S
H1144 C1158 0.960 . S
H1145 C1158 0.961 . S
H1146 C1158 0.959 . S
H1147 C1161 0.929 . S
H1148 C1162 0.931 . S
H1149 C1164 0.930 . S
C1150 H1138 0.930 . S
C1150 C1151 1.399 . S
C1150 C1155 1.399 . S
C1151 C1150 1.399 . S
C1151 C1152 1.376 . S
C1152 H1139 0.930 . S
C1152 C1151 1.376 . S
C1152 C1153 1.388 . S
C1153 H1140 0.930 . S
C1153 C1152 1.388 . S
C1153 C1154 1.390 . S
C1154 C1153 1.390 . S
C1154 C1155 1.394 . S
C1154 C1160 1.465 . S
C1155 C1150 1.399 . S
C1155 C1154 1.394 . S
C1155 C1156 1.516 . S
C1156 C1155 1.516 . S
C1156 C1157 1.502 . S
C1156 C1158 1.561 . S
C1156 C1159 1.526 . S
C1157 H1141 0.959 . S
C1157 H1142 0.959 . S
C1157 H1143 0.961 . S
C1157 C1156 1.502 . S
C1158 H1144 0.960 . S
C1158 H1145 0.961 . S
C1158 H1146 0.959 . S
C1158 C1156 1.561 . S
C1159 C1156 1.526 . S
C1159 C1160 1.396 . S
C1159 C1164 1.390 . S
C1160 C1154 1.465 . S
C1160 C1159 1.396 . S
C1160 C1161 1.399 . S
C1161 H1147 0.929 . S
C1161 C1160 1.399 . S
C1161 C1162 1.385 . S
C1162 H1148 0.931 . S
C1162 C1161 1.385 . S
C1162 C1163 1.389 . S
C1163 C1162 1.389 . S
C1163 C1164 1.387 . S
C1164 H1149 0.930 . S
C1164 C1159 1.390 . S
C1164 C1163 1.387 . S
H1165 C1177 0.930 . S
H1166 C1179 0.930 . S
H1167 C1180 0.930 . S
H1168 C1184 0.959 . S
H1169 C1184 0.959 . S
H1170 C1184 0.961 . S
H1171 C1185 0.960 . S
H1172 C1185 0.961 . S
H1173 C1185 0.959 . S
H1174 C1188 0.929 . S
H1175 C1189 0.931 . S
H1176 C1191 0.930 . S
C1177 H1165 0.930 . S
C1177 C1178 1.399 . S
C1177 C1182 1.399 . S
C1178 C1177 1.399 . S
C1178 C1179 1.376 . S
C1179 H1166 0.930 . S
C1179 C1178 1.376 . S
C1179 C1180 1.388 . S
C1180 H1167 0.930 . S
C1180 C1179 1.388 . S
C1180 C1181 1.390 . S
C1181 C1180 1.390 . S
C1181 C1182 1.394 . S
C1181 C1187 1.465 . S
C1182 C1177 1.399 . S
C1182 C1181 1.394 . S
C1182 C1183 1.516 . S
C1183 C1182 1.516 . S
C1183 C1184 1.502 . S
C1183 C1185 1.561 . S
C1183 C1186 1.526 . S
C1184 H1168 0.959 . S
C1184 H1169 0.959 . S
C1184 H1170 0.961 . S
C1184 C1183 1.502 . S
C1185 H1171 0.960 . S
C1185 H1172 0.961 . S
C1185 H1173 0.959 . S
C1185 C1183 1.561 . S
C1186 C1183 1.526 . S
C1186 C1187 1.396 . S
C1186 C1191 1.390 . S
C1187 C1181 1.465 . S
C1187 C1186 1.396 . S
C1187 C1188 1.399 . S
C1188 H1174 0.929 . S
C1188 C1187 1.399 . S
C1188 C1189 1.385 . S
C1189 H1175 0.931 . S
C1189 C1188 1.385 . S
C1189 C1190 1.389 . S
C1190 C1189 1.389 . S
C1190 C1191 1.387 . S
C1191 H1176 0.930 . S
C1191 C1186 1.390 . S
C1191 C1190 1.387 . S
H1192 C1204 0.930 . S
H1193 C1206 0.930 . S
H1194 C1207 0.930 . S
H1195 C1211 0.959 . S
H1196 C1211 0.959 . S
H1197 C1211 0.961 . S
H1198 C1212 0.960 . S
H1199 C1212 0.961 . S
H1200 C1212 0.959 . S
H1201 C1215 0.929 . S
H1202 C1216 0.931 . S
H1203 C1218 0.930 . S
C1204 H1192 0.930 . S
C1204 C1205 1.399 . S
C1204 C1209 1.399 . S
C1205 C1204 1.399 . S
C1205 C1206 1.376 . S
C1206 H1193 0.930 . S
C1206 C1205 1.376 . S
C1206 C1207 1.388 . S
C1207 H1194 0.930 . S
C1207 C1206 1.388 . S
C1207 C1208 1.390 . S
C1208 C1207 1.390 . S
C1208 C1209 1.394 . S
C1208 C1214 1.465 . S
C1209 C1204 1.399 . S
C1209 C1208 1.394 . S
C1209 C1210 1.516 . S
C1210 C1209 1.516 . S
C1210 C1211 1.502 . S
C1210 C1212 1.561 . S
C1210 C1213 1.526 . S
C1211 H1195 0.959 . S
C1211 H1196 0.959 . S
C1211 H1197 0.961 . S
C1211 C1210 1.502 . S
C1212 H1198 0.960 . S
C1212 H1199 0.961 . S
C1212 H1200 0.959 . S
C1212 C1210 1.561 . S
C1213 C1210 1.526 . S
C1213 C1214 1.396 . S
C1213 C1218 1.390 . S
C1214 C1208 1.465 . S
C1214 C1213 1.396 . S
C1214 C1215 1.399 . S
C1215 H1201 0.929 . S
C1215 C1214 1.399 . S
C1215 C1216 1.385 . S
C1216 H1202 0.931 . S
C1216 C1215 1.385 . S
C1216 C1217 1.389 . S
C1217 C1216 1.389 . S
C1217 C1218 1.387 . S
C1218 H1203 0.930 . S
C1218 C1213 1.390 . S
C1218 C1217 1.387 . S
H1219 C1231 0.930 . S
H1220 C1233 0.930 . S
H1221 C1234 0.930 . S
H1222 C1238 0.959 . S
H1223 C1238 0.959 . S
H1224 C1238 0.961 . S
H1225 C1239 0.960 . S
H1226 C1239 0.961 . S
H1227 C1239 0.959 . S
H1228 C1242 0.929 . S
H1229 C1243 0.931 . S
H1230 C1245 0.930 . S
C1231 H1219 0.930 . S
C1231 C1232 1.399 . S
C1231 C1236 1.399 . S
C1232 C1231 1.399 . S
C1232 C1233 1.376 . S
C1233 H1220 0.930 . S
C1233 C1232 1.376 . S
C1233 C1234 1.388 . S
C1234 H1221 0.930 . S
C1234 C1233 1.388 . S
C1234 C1235 1.390 . S
C1235 C1234 1.390 . S
C1235 C1236 1.394 . S
C1235 C1241 1.465 . S
C1236 C1231 1.399 . S
C1236 C1235 1.394 . S
C1236 C1237 1.516 . S
C1237 C1236 1.516 . S
C1237 C1238 1.502 . S
C1237 C1239 1.561 . S
C1237 C1240 1.526 . S
C1238 H1222 0.959 . S
C1238 H1223 0.959 . S
C1238 H1224 0.961 . S
C1238 C1237 1.502 . S
C1239 H1225 0.960 . S
C1239 H1226 0.961 . S
C1239 H1227 0.959 . S
C1239 C1237 1.561 . S
C1240 C1237 1.526 . S
C1240 C1241 1.396 . S
C1240 C1245 1.390 . S
C1241 C1235 1.465 . S
C1241 C1240 1.396 . S
C1241 C1242 1.399 . S
C1242 H1228 0.929 . S
C1242 C1241 1.399 . S
C1242 C1243 1.385 . S
C1243 H1229 0.931 . S
C1243 C1242 1.385 . S
C1243 C1244 1.389 . S
C1244 C1243 1.389 . S
C1244 C1245 1.387 . S
C1245 H1230 0.930 . S
C1245 C1240 1.390 . S
C1245 C1244 1.387 . S
H1246 C1258 0.930 . S
H1247 C1260 0.930 . S
H1248 C1261 0.930 . S
H1249 C1265 0.959 . S
H1250 C1265 0.959 . S
H1251 C1265 0.961 . S
H1252 C1266 0.960 . S
H1253 C1266 0.961 . S
H1254 C1266 0.959 . S
H1255 C1269 0.929 . S
H1256 C1270 0.931 . S
H1257 C1272 0.930 . S
C1258 H1246 0.930 . S
C1258 C1259 1.399 . S
C1258 C1263 1.399 . S
C1259 C1258 1.399 . S
C1259 C1260 1.376 . S
C1260 H1247 0.930 . S
C1260 C1259 1.376 . S
C1260 C1261 1.388 . S
C1261 H1248 0.930 . S
C1261 C1260 1.388 . S
C1261 C1262 1.390 . S
C1262 C1261 1.390 . S
C1262 C1263 1.394 . S
C1262 C1268 1.465 . S
C1263 C1258 1.399 . S
C1263 C1262 1.394 . S
C1263 C1264 1.516 . S
C1264 C1263 1.516 . S
C1264 C1265 1.502 . S
C1264 C1266 1.561 . S
C1264 C1267 1.526 . S
C1265 H1249 0.959 . S
C1265 H1250 0.959 . S
C1265 H1251 0.961 . S
C1265 C1264 1.502 . S
C1266 H1252 0.960 . S
C1266 H1253 0.961 . S
C1266 H1254 0.959 . S
C1266 C1264 1.561 . S
C1267 C1264 1.526 . S
C1267 C1268 1.396 . S
C1267 C1272 1.390 . S
C1268 C1262 1.465 . S
C1268 C1267 1.396 . S
C1268 C1269 1.399 . S
C1269 H1255 0.929 . S
C1269 C1268 1.399 . S
C1269 C1270 1.385 . S
C1270 H1256 0.931 . S
C1270 C1269 1.385 . S
C1270 C1271 1.389 . S
C1271 C1270 1.389 . S
C1271 C1272 1.387 . S
C1272 H1257 0.930 . S
C1272 C1267 1.390 . S
C1272 C1271 1.387 . S
H1273 C1285 0.930 . S
H1274 C1287 0.930 . S
H1275 C1288 0.930 . S
H1276 C1292 0.959 . S
H1277 C1292 0.959 . S
H1278 C1292 0.961 . S
H1279 C1293 0.960 . S
H1280 C1293 0.961 . S
H1281 C1293 0.959 . S
H1282 C1296 0.929 . S
H1283 C1297 0.931 . S
H1284 C1299 0.930 . S
C1285 H1273 0.930 . S
C1285 C1286 1.399 . S
C1285 C1290 1.399 . S
C1286 C1285 1.399 . S
C1286 C1287 1.376 . S
C1287 H1274 0.930 . S
C1287 C1286 1.376 . S
C1287 C1288 1.388 . S
C1288 H1275 0.930 . S
C1288 C1287 1.388 . S
C1288 C1289 1.390 . S
C1289 C1288 1.390 . S
C1289 C1290 1.394 . S
C1289 C1295 1.465 . S
C1290 C1285 1.399 . S
C1290 C1289 1.394 . S
C1290 C1291 1.516 . S
C1291 C1290 1.516 . S
C1291 C1292 1.502 . S
C1291 C1293 1.561 . S
C1291 C1294 1.526 . S
C1292 H1276 0.959 . S
C1292 H1277 0.959 . S
C1292 H1278 0.961 . S
C1292 C1291 1.502 . S
C1293 H1279 0.960 . S
C1293 H1280 0.961 . S
C1293 H1281 0.959 . S
C1293 C1291 1.561 . S
C1294 C1291 1.526 . S
C1294 C1295 1.396 . S
C1294 C1299 1.390 . S
C1295 C1289 1.465 . S
C1295 C1294 1.396 . S
C1295 C1296 1.399 . S
C1296 H1282 0.929 . S
C1296 C1295 1.399 . S
C1296 C1297 1.385 . S
C1297 H1283 0.931 . S
C1297 C1296 1.385 . S
C1297 C1298 1.389 . S
C1298 C1297 1.389 . S
C1298 C1299 1.387 . S
C1299 H1284 0.930 . S
C1299 C1294 1.390 . S
C1299 C1298 1.387 . S
H1300 C1312 0.930 . S
H1301 C1314 0.966 . S
H1302 C1315 0.930 . S
H1303 C1319 0.959 . S
H1304 C1319 0.959 . S
H1305 C1319 0.961 . S
H1306 C1320 0.960 . S
H1307 C1320 0.961 . S
H1308 C1320 0.959 . S
H1309 C1323 0.929 . S
H1310 C1324 0.931 . S
H1311 C1326 0.930 . S
C1312 H1300 0.930 . S
C1312 C1313 1.399 . S
C1312 C1317 1.399 . S
C1313 C1312 1.399 . S
C1313 C1314 1.376 . S
C1314 H1301 0.966 . S
C1314 C1313 1.376 . S
C1314 C1315 1.388 . S
C1315 H1302 0.930 . S
C1315 C1314 1.388 . S
C1315 C1316 1.390 . S
C1316 C1315 1.390 . S
C1316 C1317 1.394 . S
C1316 C1322 1.465 . S
C1317 C1312 1.399 . S
C1317 C1316 1.394 . S
C1317 C1318 1.516 . S
C1318 C1317 1.516 . S
C1318 C1319 1.502 . S
C1318 C1320 1.561 . S
C1318 C1321 1.526 . S
C1319 H1303 0.959 . S
C1319 H1304 0.959 . S
C1319 H1305 0.961 . S
C1319 C1318 1.502 . S
C1320 H1306 0.960 . S
C1320 H1307 0.961 . S
C1320 H1308 0.959 . S
C1320 C1318 1.561 . S
C1321 C1318 1.526 . S
C1321 C1322 1.396 . S
C1321 C1326 1.390 . S
C1322 C1316 1.465 . S
C1322 C1321 1.396 . S
C1322 C1323 1.399 . S
C1323 H1309 0.929 . S
C1323 C1322 1.399 . S
C1323 C1324 1.385 . S
C1324 H1310 0.931 . S
C1324 C1323 1.385 . S
C1324 C1325 1.389 . S
C1325 C1324 1.389 . S
C1325 C1326 1.387 . S
C1326 H1311 0.930 . S
C1326 C1321 1.390 . S
C1326 C1325 1.387 . S
H1327 C1339 0.930 . S
H1328 C1341 0.930 . S
H1329 C1342 0.930 . S
H1330 C1346 0.959 . S
H1331 C1346 0.959 . S
H1332 C1346 0.961 . S
H1333 C1347 0.960 . S
H1334 C1347 0.961 . S
H1335 C1347 0.959 . S
H1336 C1350 0.929 . S
H1337 C1351 0.931 . S
H1338 C1353 0.930 . S
C1339 H1327 0.930 . S
C1339 C1340 1.399 . S
C1339 C1344 1.399 . S
C1340 C1339 1.399 . S
C1340 C1341 1.376 . S
C1341 H1328 0.930 . S
C1341 C1340 1.376 . S
C1341 C1342 1.388 . S
C1342 H1329 0.930 . S
C1342 C1341 1.388 . S
C1342 C1343 1.390 . S
C1343 C1342 1.390 . S
C1343 C1344 1.394 . S
C1343 C1349 1.465 . S
C1344 C1339 1.399 . S
C1344 C1343 1.394 . S
C1344 C1345 1.516 . S
C1345 C1344 1.516 . S
C1345 C1346 1.502 . S
C1345 C1347 1.561 . S
C1345 C1348 1.526 . S
C1346 H1330 0.959 . S
C1346 H1331 0.959 . S
C1346 H1332 0.961 . S
C1346 C1345 1.502 . S
C1347 H1333 0.960 . S
C1347 H1334 0.961 . S
C1347 H1335 0.959 . S
C1347 C1345 1.561 . S
C1348 C1345 1.526 . S
C1348 C1349 1.396 . S
C1348 C1353 1.390 . S
C1349 C1343 1.465 . S
C1349 C1348 1.396 . S
C1349 C1350 1.399 . S
C1350 H1336 0.929 . S
C1350 C1349 1.399 . S
C1350 C1351 1.385 . S
C1351 H1337 0.931 . S
C1351 C1350 1.385 . S
C1351 C1352 1.389 . S
C1352 C1351 1.389 . S
C1352 C1353 1.387 . S
C1353 H1338 0.930 . S
C1353 C1348 1.390 . S
C1353 C1352 1.387 . S
H1354 C1366 0.930 . S
H1355 C1368 0.930 . S
H1356 C1369 0.930 . S
H1357 C1373 0.959 . S
H1358 C1373 0.959 . S
H1359 C1373 0.961 . S
H1360 C1374 0.960 . S
H1361 C1374 0.961 . S
H1362 C1374 0.959 . S
H1363 C1377 0.929 . S
H1364 C1378 0.931 . S
H1365 C1380 0.930 . S
C1366 H1354 0.930 . S
C1366 C1367 1.399 . S
C1366 C1371 1.399 . S
C1367 C1366 1.399 . S
C1367 C1368 1.376 . S
C1368 H1355 0.930 . S
C1368 C1367 1.376 . S
C1368 C1369 1.388 . S
C1369 H1356 0.930 . S
C1369 C1368 1.388 . S
C1369 C1370 1.390 . S
C1370 C1369 1.390 . S
C1370 C1371 1.394 . S
C1370 C1376 1.465 . S
C1371 C1366 1.399 . S
C1371 C1370 1.394 . S
C1371 C1372 1.516 . S
C1372 C1371 1.516 . S
C1372 C1373 1.502 . S
C1372 C1374 1.561 . S
C1372 C1375 1.526 . S
C1373 H1357 0.959 . S
C1373 H1358 0.959 . S
C1373 H1359 0.961 . S
C1373 C1372 1.502 . S
C1374 H1360 0.960 . S
C1374 H1361 0.961 . S
C1374 H1362 0.959 . S
C1374 C1372 1.561 . S
C1375 C1372 1.526 . S
C1375 C1376 1.396 . S
C1375 C1380 1.390 . S
C1376 C1370 1.465 . S
C1376 C1375 1.396 . S
C1376 C1377 1.399 . S
C1377 H1363 0.929 . S
C1377 C1376 1.399 . S
C1377 C1378 1.385 . S
C1378 H1364 0.931 . S
C1378 C1377 1.385 . S
C1378 C1379 1.389 . S
C1379 C1378 1.389 . S
C1379 C1380 1.387 . S
C1380 H1365 0.930 . S
C1380 C1375 1.390 . S
C1380 C1379 1.387 . S
H1381 C1393 0.930 . S
H1382 C1395 0.930 . S
H1383 C1396 0.930 . S
H1384 C1400 0.959 . S
H1385 C1400 0.959 . S
H1386 C1400 0.961 . S
H1387 C1401 0.960 . S
H1388 C1401 0.961 . S
H1389 C1401 0.959 . S
H1390 C1404 0.929 . S
H1391 C1405 0.931 . S
H1392 C1407 0.930 . S
C1393 H1381 0.930 . S
C1393 C1394 1.399 . S
C1393 C1398 1.399 . S
C1394 C1393 1.399 . S
C1394 C1395 1.376 . S
C1395 H1382 0.930 . S
C1395 C1394 1.376 . S
C1395 C1396 1.388 . S
C1396 H1383 0.930 . S
C1396 C1395 1.388 . S
C1396 C1397 1.390 . S
C1397 C1396 1.390 . S
C1397 C1398 1.394 . S
C1397 C1403 1.465 . S
C1398 C1393 1.399 . S
C1398 C1397 1.394 . S
C1398 C1399 1.516 . S
C1399 C1398 1.516 . S
C1399 C1400 1.502 . S
C1399 C1401 1.561 . S
C1399 C1402 1.526 . S
C1400 H1384 0.959 . S
C1400 H1385 0.959 . S
C1400 H1386 0.961 . S
C1400 C1399 1.502 . S
C1401 H1387 0.960 . S
C1401 H1388 0.961 . S
C1401 H1389 0.959 . S
C1401 C1399 1.561 . S
C1402 C1399 1.526 . S
C1402 C1403 1.396 . S
C1402 C1407 1.390 . S
C1403 C1397 1.465 . S
C1403 C1402 1.396 . S
C1403 C1404 1.399 . S
C1404 H1390 0.929 . S
C1404 C1403 1.399 . S
C1404 C1405 1.385 . S
C1405 H1391 0.931 . S
C1405 C1404 1.385 . S
C1405 C1406 1.389 . S
C1406 C1405 1.389 . S
C1406 C1407 1.387 . S
C1407 H1392 0.930 . S
C1407 C1402 1.390 . S
C1407 C1406 1.387 . S
H1408 C1420 0.930 . S
H1409 C1422 0.930 . S
H1410 C1423 0.930 . S
H1411 C1427 0.959 . S
H1412 C1427 0.959 . S
H1413 C1427 0.961 . S
H1414 C1428 0.960 . S
H1415 C1428 0.961 . S
H1416 C1428 0.959 . S
H1417 C1431 0.929 . S
H1418 C1432 0.931 . S
H1419 C1434 0.930 . S
C1420 H1408 0.930 . S
C1420 C1421 1.399 . S
C1420 C1425 1.399 . S
C1421 C1420 1.399 . S
C1421 C1422 1.376 . S
C1422 H1409 0.930 . S
C1422 C1421 1.376 . S
C1422 C1423 1.388 . S
C1423 H1410 0.930 . S
C1423 C1422 1.388 . S
C1423 C1424 1.390 . S
C1424 C1423 1.390 . S
C1424 C1425 1.394 . S
C1424 C1430 1.465 . S
C1425 C1420 1.399 . S
C1425 C1424 1.394 . S
C1425 C1426 1.516 . S
C1426 C1425 1.516 . S
C1426 C1427 1.502 . S
C1426 C1428 1.561 . S
C1426 C1429 1.526 . S
C1427 H1411 0.959 . S
C1427 H1412 0.959 . S
C1427 H1413 0.961 . S
C1427 C1426 1.502 . S
C1428 H1414 0.960 . S
C1428 H1415 0.961 . S
C1428 H1416 0.959 . S
C1428 C1426 1.561 . S
C1429 C1426 1.526 . S
C1429 C1430 1.396 . S
C1429 C1434 1.390 . S
C1430 C1424 1.465 . S
C1430 C1429 1.396 . S
C1430 C1431 1.399 . S
C1431 H1417 0.929 . S
C1431 C1430 1.399 . S
C1431 C1432 1.385 . S
C1432 H1418 0.931 . S
C1432 C1431 1.385 . S
C1432 C1433 1.389 . S
C1433 C1432 1.389 . S
C1433 C1434 1.387 . S
C1434 H1419 0.930 . S
C1434 C1429 1.390 . S
C1434 C1433 1.387 . S
H1435 C1447 0.930 . S
H1436 C1449 0.930 . S
H1437 C1450 0.930 . S
H1438 C1454 0.959 . S
H1439 C1454 0.959 . S
H1440 C1454 0.961 . S
H1441 C1455 0.960 . S
H1442 C1455 0.961 . S
H1443 C1455 0.959 . S
H1444 C1458 0.929 . S
H1445 C1459 0.931 . S
H1446 C1461 0.930 . S
C1447 H1435 0.930 . S
C1447 C1448 1.399 . S
C1447 C1452 1.399 . S
C1448 C1447 1.399 . S
C1448 C1449 1.376 . S
C1449 H1436 0.930 . S
C1449 C1448 1.376 . S
C1449 C1450 1.388 . S
C1450 H1437 0.930 . S
C1450 C1449 1.388 . S
C1450 C1451 1.390 . S
C1451 C1450 1.390 . S
C1451 C1452 1.394 . S
C1451 C1457 1.465 . S
C1452 C1447 1.399 . S
C1452 C1451 1.394 . S
C1452 C1453 1.516 . S
C1453 C1452 1.516 . S
C1453 C1454 1.502 . S
C1453 C1455 1.561 . S
C1453 C1456 1.526 . S
C1454 H1438 0.959 . S
C1454 H1439 0.959 . S
C1454 H1440 0.961 . S
C1454 C1453 1.502 . S
C1455 H1441 0.960 . S
C1455 H1442 0.961 . S
C1455 H1443 0.959 . S
C1455 C1453 1.561 . S
C1456 C1453 1.526 . S
C1456 C1457 1.396 . S
C1456 C1461 1.390 . S
C1457 C1451 1.465 . S
C1457 C1456 1.396 . S
C1457 C1458 1.399 . S
C1458 H1444 0.929 . S
C1458 C1457 1.399 . S
C1458 C1459 1.385 . S
C1459 H1445 0.931 . S
C1459 C1458 1.385 . S
C1459 C1460 1.389 . S
C1460 C1459 1.389 . S
C1460 C1461 1.387 . S
C1461 H1446 0.930 . S
C1461 C1456 1.390 . S
C1461 C1460 1.387 . S
H1462 C1474 0.930 . S
H1463 C1476 0.930 . S
H1464 C1477 0.930 . S
H1465 C1481 0.959 . S
H1466 C1481 0.959 . S
H1467 C1481 0.961 . S
H1468 C1482 0.960 . S
H1469 C1482 0.961 . S
H1470 C1482 0.959 . S
H1471 C1485 0.929 . S
H1472 C1486 0.931 . S
H1473 C1488 0.930 . S
C1474 H1462 0.930 . S
C1474 C1475 1.399 . S
C1474 C1479 1.399 . S
C1475 C1474 1.399 . S
C1475 C1476 1.376 . S
C1476 H1463 0.930 . S
C1476 C1475 1.376 . S
C1476 C1477 1.388 . S
C1477 H1464 0.930 . S
C1477 C1476 1.388 . S
C1477 C1478 1.390 . S
C1478 C1477 1.390 . S
C1478 C1479 1.394 . S
C1478 C1484 1.465 . S
C1479 C1474 1.399 . S
C1479 C1478 1.394 . S
C1479 C1480 1.516 . S
C1480 C1479 1.516 . S
C1480 C1481 1.502 . S
C1480 C1482 1.561 . S
C1480 C1483 1.526 . S
C1481 H1465 0.959 . S
C1481 H1466 0.959 . S
C1481 H1467 0.961 . S
C1481 C1480 1.502 . S
C1482 H1468 0.960 . S
C1482 H1469 0.961 . S
C1482 H1470 0.959 . S
C1482 C1480 1.561 . S
C1483 C1480 1.526 . S
C1483 C1484 1.396 . S
C1483 C1488 1.390 . S
C1484 C1478 1.465 . S
C1484 C1483 1.396 . S
C1484 C1485 1.399 . S
C1485 H1471 0.929 . S
C1485 C1484 1.399 . S
C1485 C1486 1.385 . S
C1486 H1472 0.931 . S
C1486 C1485 1.385 . S
C1486 C1487 1.389 . S
C1487 C1486 1.389 . S
C1487 C1488 1.387 . S
C1488 H1473 0.930 . S
C1488 C1483 1.390 . S
C1488 C1487 1.387 . S
H1489 C1501 0.930 . S
H1490 C1503 0.930 . S
H1491 C1504 0.930 . S
H1492 C1508 0.959 . S
H1493 C1508 0.959 . S
H1494 C1508 0.961 . S
H1495 C1509 0.960 . S
H1496 C1509 0.961 . S
H1497 C1509 0.959 . S
H1498 C1512 0.929 . S
H1499 C1513 0.931 . S
H1500 C1515 0.930 . S
C1501 H1489 0.930 . S
C1501 C1502 1.399 . S
C1501 C1506 1.399 . S
C1502 C1501 1.399 . S
C1502 C1503 1.376 . S
C1503 H1490 0.930 . S
C1503 C1502 1.376 . S
C1503 C1504 1.388 . S
C1504 H1491 0.930 . S
C1504 C1503 1.388 . S
C1504 C1505 1.390 . S
C1505 C1504 1.390 . S
C1505 C1506 1.394 . S
C1505 C1511 1.465 . S
C1506 C1501 1.399 . S
C1506 C1505 1.394 . S
C1506 C1507 1.516 . S
C1507 C1506 1.516 . S
C1507 C1508 1.502 . S
C1507 C1509 1.561 . S
C1507 C1510 1.526 . S
C1508 H1492 0.959 . S
C1508 H1493 0.959 . S
C1508 H1494 0.961 . S
C1508 C1507 1.502 . S
C1509 H1495 0.960 . S
C1509 H1496 0.961 . S
C1509 H1497 0.959 . S
C1509 C1507 1.561 . S
C1510 C1507 1.526 . S
C1510 C1511 1.396 . S
C1510 C1515 1.390 . S
C1511 C1505 1.465 . S
C1511 C1510 1.396 . S
C1511 C1512 1.399 . S
C1512 H1498 0.929 . S
C1512 C1511 1.399 . S
C1512 C1513 1.385 . S
C1513 H1499 0.931 . S
C1513 C1512 1.385 . S
C1513 C1514 1.389 . S
C1514 C1513 1.389 . S
C1514 C1515 1.387 . S
C1515 H1500 0.930 . S
C1515 C1510 1.390 . S
C1515 C1514 1.387 . S
H1516 C1528 0.930 . S
H1517 C1530 0.930 . S
H1518 C1531 0.930 . S
H1519 C1535 0.959 . S
H1520 C1535 0.959 1_554 S
H1521 C1535 0.961 . S
H1522 C1536 0.960 . S
H1523 C1536 0.961 . S
H1524 C1536 0.959 . S
H1525 C1539 0.929 . S
H1526 C1540 0.931 . S
H1527 C1542 0.930 . S
C1528 H1516 0.930 . S
C1528 C1529 1.399 1_545 S
C1528 C1533 1.399 . S
C1529 C1528 1.399 1_565 S
C1529 C1530 1.376 . S
C1530 H1517 0.930 . S
C1530 C1529 1.376 . S
C1530 C1531 1.388 . S
C1531 H1518 0.930 . S
C1531 C1530 1.388 . S
C1531 C1532 1.390 . S
C1532 C1531 1.390 . S
C1532 C1533 1.394 1_565 S
C1532 C1538 1.465 1_556 S
C1533 C1528 1.399 . S
C1533 C1532 1.394 1_545 S
C1533 C1534 1.516 . S
C1534 C1533 1.516 . S
C1534 C1535 1.502 . S
C1534 C1536 1.561 . S
C1534 C1537 1.526 1_556 S
C1535 H1519 0.959 . S
C1535 H1520 0.959 1_556 S
C1535 H1521 0.961 . S
C1535 C1534 1.502 . S
C1536 H1522 0.960 . S
C1536 H1523 0.961 . S
C1536 H1524 0.959 . S
C1536 C1534 1.561 . S
C1537 C1534 1.526 1_554 S
C1537 C1538 1.396 1_545 S
C1537 C1542 1.390 . S
C1538 C1532 1.465 1_554 S
C1538 C1537 1.396 1_565 S
C1538 C1539 1.399 . S
C1539 H1525 0.929 . S
C1539 C1538 1.399 . S
C1539 C1540 1.385 . S
C1540 H1526 0.931 . S
C1540 C1539 1.385 . S
C1540 C1541 1.389 1_565 S
C1541 C1540 1.389 1_545 S
C1541 C1542 1.387 . S
C1542 H1527 0.930 . S
C1542 C1537 1.390 . S
C1542 C1541 1.387 . S
H1543 C1555 0.930 . S
H1544 C1557 0.930 1_655 S
H1545 C1558 0.930 . S
H1546 C1562 0.959 . S
H1547 C1562 0.959 . S
H1548 C1562 0.961 1_556 S
H1549 C1563 0.960 . S
H1550 C1563 0.961 1_554 S
H1551 C1563 0.959 . S
H1552 C1566 0.929 . S
H1553 C1567 0.931 . S
H1554 C1569 0.925 1_455 S
C1555 H1543 0.930 . S
C1555 C1556 1.399 . S
C1555 C1560 1.399 . S
C1556 C1555 1.399 . S
C1556 C1557 1.379 . S
C1557 H1544 0.930 1_455 S
C1557 C1556 1.379 . S
C1557 C1558 1.387 1_455 S
C1558 H1545 0.930 . S
C1558 C1557 1.387 1_655 S
C1558 C1559 1.390 . S
C1559 C1558 1.390 . S
C1559 C1560 1.394 1_655 S
C1559 C1565 1.465 1_556 S
C1560 C1555 1.399 . S
C1560 C1559 1.394 1_455 S
C1560 C1561 1.516 1_556 S
C1561 C1560 1.516 1_554 S
C1561 C1562 1.502 . S
C1561 C1563 1.561 1_454 S
C1561 C1564 1.526 1_455 S
C1562 H1546 0.959 . S
C1562 H1547 0.959 . S
C1562 H1548 0.961 1_554 S
C1562 C1561 1.502 . S
C1563 H1549 0.960 . S
C1563 H1550 0.961 1_556 S
C1563 H1551 0.959 . S
C1563 C1561 1.561 1_656 S
C1564 C1561 1.526 1_655 S
C1564 C1565 1.396 . S
C1564 C1569 1.390 . S
C1565 C1559 1.465 1_554 S
C1565 C1564 1.396 . S
C1565 C1566 1.399 . S
C1566 H1552 0.929 . S
C1566 C1565 1.399 . S
C1566 C1567 1.385 . S
C1567 H1553 0.931 . S
C1567 C1566 1.385 . S
C1567 C1568 1.389 . S
C1568 C1567 1.389 . S
C1568 C1569 1.387 . S
C1569 H1554 0.925 1_655 S
C1569 C1564 1.390 . S
C1569 C1568 1.387 . S
H1570 C1582 0.930 . S
H1571 C1584 0.930 . S
H1572 C1585 0.930 . S
H1573 C1589 0.959 . S
H1574 C1589 0.959 1_556 S
H1575 C1589 0.961 . S
H1576 C1590 0.960 . S
H1577 C1590 0.961 . S
H1578 C1590 0.959 . S
H1579 C1593 0.929 . S
H1580 C1594 0.931 . S
H1581 C1596 0.930 . S
C1582 H1570 0.930 . S
C1582 C1583 1.399 1_545 S
C1582 C1587 1.399 . S
C1583 C1582 1.399 1_565 S
C1583 C1584 1.376 . S
C1584 H1571 0.930 . S
C1584 C1583 1.376 . S
C1584 C1585 1.388 . S
C1585 H1572 0.930 . S
C1585 C1584 1.388 . S
C1585 C1586 1.390 . S
C1586 C1585 1.390 . S
C1586 C1587 1.394 1_565 S
C1586 C1592 1.465 1_554 S
C1587 C1582 1.399 . S
C1587 C1586 1.394 1_545 S
C1587 C1588 1.516 . S
C1588 C1587 1.516 . S
C1588 C1589 1.502 . S
C1588 C1590 1.561 . S
C1588 C1591 1.526 1_554 S
C1589 H1573 0.959 . S
C1589 H1574 0.959 1_554 S
C1589 H1575 0.961 . S
C1589 C1588 1.502 . S
C1590 H1576 0.960 . S
C1590 H1577 0.961 . S
C1590 H1578 0.959 . S
C1590 C1588 1.561 . S
C1591 C1588 1.526 1_556 S
C1591 C1592 1.396 1_545 S
C1591 C1596 1.390 . S
C1592 C1586 1.465 1_556 S
C1592 C1591 1.396 1_565 S
C1592 C1593 1.399 . S
C1593 H1579 0.929 . S
C1593 C1592 1.399 . S
C1593 C1594 1.385 . S
C1594 H1580 0.931 . S
C1594 C1593 1.385 . S
C1594 C1595 1.389 1_565 S
C1595 C1594 1.389 1_545 S
C1595 C1596 1.387 . S
C1596 H1581 0.930 . S
C1596 C1591 1.390 . S
C1596 C1595 1.387 . S
H1597 C1609 0.930 . S
H1598 C1611 0.932 . S
H1599 C1612 0.930 . S
H1600 C1616 0.959 . S
H1601 C1616 0.959 . S
H1602 C1616 0.961 1_556 S
H1603 C1617 0.960 . S
H1604 C1617 0.961 1_554 S
H1605 C1617 0.959 . S
H1606 C1620 0.929 . S
H1607 C1621 0.931 . S
H1608 C1623 0.930 1_655 S
C1609 H1597 0.930 . S
C1609 C1610 1.399 . S
C1609 C1614 1.399 . S
C1610 C1609 1.399 . S
C1610 C1611 1.372 1_655 S
C1611 H1598 0.932 . S
C1611 C1610 1.372 1_455 S
C1611 C1612 1.391 . S
C1612 H1599 0.930 . S
C1612 C1611 1.391 . S
C1612 C1613 1.390 . S
C1613 C1612 1.390 . S
C1613 C1614 1.394 1_455 S
C1613 C1619 1.465 1_556 S
C1614 C1609 1.399 . S
C1614 C1613 1.394 1_655 S
C1614 C1615 1.516 1_556 S
C1615 C1614 1.516 1_554 S
C1615 C1616 1.502 . S
C1615 C1617 1.561 1_654 S
C1615 C1618 1.526 1_655 S
C1616 H1600 0.959 . S
C1616 H1601 0.959 . S
C1616 H1602 0.961 1_554 S
C1616 C1615 1.502 . S
C1617 H1603 0.960 . S
C1617 H1604 0.961 1_556 S
C1617 H1605 0.959 . S
C1617 C1615 1.561 1_456 S
C1618 C1615 1.526 1_455 S
C1618 C1619 1.396 . S
C1618 C1623 1.390 . S
C1619 C1613 1.465 1_554 S
C1619 C1618 1.396 . S
C1619 C1620 1.399 . S
C1620 H1606 0.929 . S
C1620 C1619 1.399 . S
C1620 C1621 1.385 . S
C1621 H1607 0.931 . S
C1621 C1620 1.385 . S
C1621 C1622 1.389 . S
C1622 C1621 1.389 . S
C1622 C1623 1.387 . S
C1623 H1608 0.930 1_455 S
C1623 C1618 1.390 . S
C1623 C1622 1.387 . S
C557 C73 0.379 . S
C569 C5 0.456 . S
C584 C107 0.268 . S
C596 C39 0.468 . S
C611 C209 0.464 . S
C623 C141 0.352 . S
C638 C175 0.276 . S
C650 C243 0.459 . S
C665 C277 0.341 . S
C677 C345 0.483 . S
C692 C311 0.512 . S
C704 C379 0.381 . S
C719 C481 0.490 . S
C731 C413 0.335 . S
C746 C515 0.301 . S
C758 C447 0.530 . S
C773 C9 1.489 . S
C785 C247 1.495 . S
C800 C145 1.516 . S
C812 C43 1.509 . S
C827 C179 1.507 . S
C839 C77 1.501 . S
C854 C213 1.482 . S
C866 C111 1.486 . S
C881 C519 1.521 . S
C893 C281 1.516 . S
C908 C417 1.500 . S
C920 C315 1.507 . S
C935 C451 1.525 . S
C947 C349 1.521 . S
C962 C485 1.498 . S
C974 C383 1.505 . S
C989 C33 1.332 . S
C1001 C376 1.428 . S
C1016 C67 1.369 . S
C1028 C274 1.432 . S
C1043 C101 1.385 . S
C1055 C308 1.399 . S
C1070 C342 1.443 . S
C1082 C135 1.410 . S
C1097 C169 1.363 . S
C1109 C444 1.391 . S
C1124 C203 1.352 . S
C1136 C478 1.424 . S
C1151 C237 1.359 . S
C1163 C512 1.440 . S
C1178 C271 1.348 . S
C1190 C410 1.422 . S
C1205 C104 1.439 . S
C1217 C305 1.355 . S
C1232 C2 1.392 . S
C1244 C339 1.316 . S
C1259 C36 1.444 . S
C1271 C373 1.383 . S
C1286 C407 1.345 . S
C1298 C70 1.420 . S
C1313 C441 1.388 . S
C1325 C172 1.400 . S
C1340 C475 1.391 . S
C1352 C206 1.441 . S
C1367 C509 1.338 . S
C1379 C240 1.431 . S
C1394 C543 1.367 . S
C1406 C138 1.404 . S
C1421 C156 1.753 . S
C1433 C20 1.754 . S
C1448 C190 1.748 . S
C1460 C54 1.742 . S
C1475 C88 1.745 . S
C1487 C224 1.746 . S
C1502 C258 1.749 . S
C1514 C122 1.743 . S
C1529 C292 1.748 . S
C1541 C428 1.749 . S
C1556 C462 1.768 . S
C1568 C326 1.775 . S
C1583 C496 1.747 . S
C1595 C360 1.748 . S
C1610 C530 1.768 . S
C1622 C394 1.775 . S
