# Generated by pormake.
# Topology zga, (5)-cn, num edge types: 1
# Building blocks:
#     Node 0, Type 0, BuildingBlock: XOMCOT_clean_sbu_0, # of connection points: 5
#     Node 1, Type 0, BuildingBlock: XOMCOT_clean_sbu_0, # of connection points: 5
#     Node 2, Type 0, BuildingBlock: XOMCOT_clean_sbu_0, # of connection points: 5
#     Node 3, Type 0, BuildingBlock: XOMCOT_clean_sbu_0, # of connection points: 5
#     Node 4, Type 0, BuildingBlock: XOMCOT_clean_sbu_0, # of connection points: 5
#     Node 5, Type 0, BuildingBlock: XOMCOT_clean_sbu_0, # of connection points: 5
#     Node 6, Type 0, BuildingBlock: XOMCOT_clean_sbu_0, # of connection points: 5
#     Node 7, Type 0, BuildingBlock: XOMCOT_clean_sbu_0, # of connection points: 5
#     Node 8, Type 0, BuildingBlock: XOMCOT_clean_sbu_0, # of connection points: 5
#     Node 9, Type 0, BuildingBlock: XOMCOT_clean_sbu_0, # of connection points: 5
#     Node 10, Type 0, BuildingBlock: XOMCOT_clean_sbu_0, # of connection points: 5
#     Node 11, Type 0, BuildingBlock: XOMCOT_clean_sbu_0, # of connection points: 5
#     Node 12, Type 0, BuildingBlock: XOMCOT_clean_sbu_0, # of connection points: 5
#     Node 13, Type 0, BuildingBlock: XOMCOT_clean_sbu_0, # of connection points: 5
#     Node 14, Type 0, BuildingBlock: XOMCOT_clean_sbu_0, # of connection points: 5
#     Node 15, Type 0, BuildingBlock: XOMCOT_clean_sbu_0, # of connection points: 5
#     Edge 16, Type (0, 0), BuildingBlock: MIFKUJ_clean_linker_0, # of connection points: 2
#     Edge 17, Type (0, 0), BuildingBlock: MIFKUJ_clean_linker_0, # of connection points: 2
#     Edge 18, Type (0, 0), BuildingBlock: MIFKUJ_clean_linker_0, # of connection points: 2
#     Edge 19, Type (0, 0), BuildingBlock: MIFKUJ_clean_linker_0, # of connection points: 2
#     Edge 20, Type (0, 0), BuildingBlock: MIFKUJ_clean_linker_0, # of connection points: 2
#     Edge 21, Type (0, 0), BuildingBlock: MIFKUJ_clean_linker_0, # of connection points: 2
#     Edge 22, Type (0, 0), BuildingBlock: MIFKUJ_clean_linker_0, # of connection points: 2
#     Edge 23, Type (0, 0), BuildingBlock: MIFKUJ_clean_linker_0, # of connection points: 2
#     Edge 24, Type (0, 0), BuildingBlock: MIFKUJ_clean_linker_0, # of connection points: 2
#     Edge 25, Type (0, 0), BuildingBlock: MIFKUJ_clean_linker_0, # of connection points: 2
#     Edge 26, Type (0, 0), BuildingBlock: MIFKUJ_clean_linker_0, # of connection points: 2
#     Edge 27, Type (0, 0), BuildingBlock: MIFKUJ_clean_linker_0, # of connection points: 2
#     Edge 28, Type (0, 0), BuildingBlock: MIFKUJ_clean_linker_0, # of connection points: 2
#     Edge 29, Type (0, 0), BuildingBlock: MIFKUJ_clean_linker_0, # of connection points: 2
#     Edge 30, Type (0, 0), BuildingBlock: MIFKUJ_clean_linker_0, # of connection points: 2
#     Edge 31, Type (0, 0), BuildingBlock: MIFKUJ_clean_linker_0, # of connection points: 2
#     Edge 32, Type (0, 0), BuildingBlock: MIFKUJ_clean_linker_0, # of connection points: 2
#     Edge 33, Type (0, 0), BuildingBlock: MIFKUJ_clean_linker_0, # of connection points: 2
#     Edge 34, Type (0, 0), BuildingBlock: MIFKUJ_clean_linker_0, # of connection points: 2
#     Edge 35, Type (0, 0), BuildingBlock: MIFKUJ_clean_linker_0, # of connection points: 2
#     Edge 36, Type (0, 0), BuildingBlock: MIFKUJ_clean_linker_0, # of connection points: 2
#     Edge 37, Type (0, 0), BuildingBlock: MIFKUJ_clean_linker_0, # of connection points: 2
#     Edge 38, Type (0, 0), BuildingBlock: MIFKUJ_clean_linker_0, # of connection points: 2
#     Edge 39, Type (0, 0), BuildingBlock: MIFKUJ_clean_linker_0, # of connection points: 2
#     Edge 40, Type (0, 0), BuildingBlock: MIFKUJ_clean_linker_0, # of connection points: 2
#     Edge 41, Type (0, 0), BuildingBlock: MIFKUJ_clean_linker_0, # of connection points: 2
#     Edge 42, Type (0, 0), BuildingBlock: MIFKUJ_clean_linker_0, # of connection points: 2
#     Edge 43, Type (0, 0), BuildingBlock: MIFKUJ_clean_linker_0, # of connection points: 2
#     Edge 44, Type (0, 0), BuildingBlock: MIFKUJ_clean_linker_0, # of connection points: 2
#     Edge 45, Type (0, 0), BuildingBlock: MIFKUJ_clean_linker_0, # of connection points: 2
#     Edge 46, Type (0, 0), BuildingBlock: MIFKUJ_clean_linker_0, # of connection points: 2
#     Edge 47, Type (0, 0), BuildingBlock: MIFKUJ_clean_linker_0, # of connection points: 2
#     Edge 48, Type (0, 0), BuildingBlock: MIFKUJ_clean_linker_0, # of connection points: 2
#     Edge 49, Type (0, 0), BuildingBlock: MIFKUJ_clean_linker_0, # of connection points: 2
#     Edge 50, Type (0, 0), BuildingBlock: MIFKUJ_clean_linker_0, # of connection points: 2
#     Edge 51, Type (0, 0), BuildingBlock: MIFKUJ_clean_linker_0, # of connection points: 2
#     Edge 52, Type (0, 0), BuildingBlock: MIFKUJ_clean_linker_0, # of connection points: 2
#     Edge 53, Type (0, 0), BuildingBlock: MIFKUJ_clean_linker_0, # of connection points: 2
#     Edge 54, Type (0, 0), BuildingBlock: MIFKUJ_clean_linker_0, # of connection points: 2
#     Edge 55, Type (0, 0), BuildingBlock: MIFKUJ_clean_linker_0, # of connection points: 2
# Relax obj value: 0.025
# Max RMSD: 0.076
# Mean RMSD: 0.076
data_MOF--net-zga--node1-XOMCOT_clean_sbu_0--edge1-MIFKUJ_clean_linker_0
_symmetry_space_group_name_H-M    P1
_symmetry_Int_Tables_number       1
_symmetry_cell_setting            triclinic
loop_
_symmetry_equiv_pos_as_xyz
'x, y, z'
_cell_length_a     64.857791
_cell_length_b     132.74613
_cell_length_c     22.211067
_cell_angle_alpha  91.897564
_cell_angle_beta   89.993513
_cell_angle_gamma 89.951223
loop_
_atom_site_label
_atom_site_type_symbol
_atom_site_fract_x
_atom_site_fract_y
_atom_site_fract_z
_atom_type_partial_charge
Co0 Co 0.12766 0.54238 0.12292 0.0
C1 C 0.13242 0.54201 0.98793 0.0
C2 C 0.14842 0.52997 0.02957 0.0
C3 C 0.15029 0.52869 0.96817 0.0
N4 N 0.13763 0.53846 0.04247 0.0
N5 N 0.14014 0.53624 0.94172 0.0
H6 H 0.1221 0.54824 0.98158 0.0
H7 H 0.1539 0.5248 0.06259 0.0
C8 C 0.17328 0.53873 0.14087 0.0
O9 O 0.17696 0.54434 0.0944 0.0
N10 N 0.11754 0.54601 0.20283 0.0
C11 C 0.1036 0.55327 0.21611 0.0
C12 C 0.10164 0.55423 0.27774 0.0
C13 C 0.12381 0.5426 0.25658 0.0
N14 N 0.1144 0.54756 0.3033 0.0
C15 C 0.1265 0.56248 0.07805 0.0
C16 C 0.15461 0.5711 0.15753 0.0
C17 C 0.14422 0.57741 0.11786 0.0
C18 C 0.13011 0.57288 0.07751 0.0
C19 C 0.15064 0.56068 0.15626 0.0
N20 N 0.137 0.5564 0.11592 0.0
H21 H 0.11418 0.55949 0.05041 0.0
H22 H 0.15783 0.55617 0.18997 0.0
H23 H 0.09576 0.55772 0.18322 0.0
H24 H 0.13547 0.53685 0.26149 0.0
O25 O 0.09992 0.54367 0.09067 0.0
O26 O 0.11303 0.52961 0.12484 0.0
O27 O 0.15472 0.5377 0.1595 0.0
C28 C 0.09744 0.53414 0.10061 0.0
H29 H 0.1582 0.52252 0.94501 0.0
H30 H 0.0916 0.55949 0.3018 0.0
H31 H 0.16545 0.57421 0.19023 0.0
H32 H 0.12102 0.57741 0.0477 0.0
Co33 Co 0.12725 0.72212 0.14357 0.0
C34 C 0.1326 0.72195 0.27826 0.0
C35 C 0.14937 0.73381 0.23744 0.0
C36 C 0.15183 0.73477 0.29884 0.0
N37 N 0.13776 0.72562 0.224 0.0
N38 N 0.14125 0.72732 0.32465 0.0
H39 H 0.12211 0.71579 0.28442 0.0
H40 H 0.15495 0.73906 0.20498 0.0
C41 C 0.17288 0.72548 0.12226 0.0
O42 O 0.17715 0.71933 0.1657 0.0
N43 N 0.11669 0.71893 0.06361 0.0
C44 C 0.10254 0.71184 0.04958 0.0
C45 C 0.1001 0.7113 0.98801 0.0
C46 C 0.1227 0.72264 0.01038 0.0
N47 N 0.11279 0.71808 0.96315 0.0
C48 C 0.12618 0.70187 0.18602 0.0
C49 C 0.1535 0.69335 0.10372 0.0
C50 C 0.14357 0.687 0.14408 0.0
C51 C 0.12981 0.69148 0.18572 0.0
C52 C 0.14955 0.70379 0.10596 0.0
N53 N 0.13638 0.70802 0.14788 0.0
H54 H 0.1141 0.70483 0.21471 0.0
H55 H 0.15641 0.70836 0.07202 0.0
H56 H 0.09493 0.70717 0.08183 0.0
H57 H 0.13415 0.7285 0.00632 0.0
O58 O 0.09963 0.72081 0.17678 0.0
O59 O 0.11281 0.73497 0.14438 0.0
O60 O 0.15411 0.72689 0.10664 0.0
C61 C 0.09724 0.7304 0.16832 0.0
H62 H 0.15993 0.7408 0.32272 0.0
H63 H 0.09021 0.70605 0.96347 0.0
H64 H 0.164 0.69027 0.06995 0.0
H65 H 0.12104 0.68691 0.21605 0.0
Co66 Co 0.88151 0.47236 0.89327 0.0
C67 C 0.87669 0.47271 0.02826 0.0
C68 C 0.86091 0.48481 0.98666 0.0
C69 C 0.85899 0.48608 0.04808 0.0
N70 N 0.8716 0.4763 0.97374 0.0
N71 N 0.869 0.47849 0.0745 0.0
H72 H 0.88687 0.46642 0.03459 0.0
H73 H 0.85549 0.49001 0.95365 0.0
C74 C 0.83585 0.47596 0.87576 0.0
O75 O 0.83223 0.47044 0.92262 0.0
N76 N 0.89158 0.46871 0.81332 0.0
C77 C 0.90551 0.46145 0.80003 0.0
C78 C 0.90745 0.46048 0.7384 0.0
C79 C 0.88529 0.47212 0.75958 0.0
N80 N 0.89468 0.46715 0.71285 0.0
C81 C 0.88309 0.45229 0.93829 0.0
C82 C 0.85462 0.44356 0.86034 0.0
C83 C 0.86525 0.43731 0.89981 0.0
C84 C 0.87957 0.4419 0.9393 0.0
C85 C 0.85854 0.45399 0.86106 0.0
N86 N 0.87234 0.45833 0.90071 0.0
H87 H 0.8955 0.45533 0.96537 0.0
H88 H 0.85115 0.45846 0.82751 0.0
H89 H 0.91338 0.45701 0.83292 0.0
H90 H 0.87364 0.47787 0.75467 0.0
O91 O 0.9093 0.47116 0.92529 0.0
O92 O 0.89603 0.48517 0.89095 0.0
O93 O 0.85437 0.47696 0.85681 0.0
C94 C 0.91169 0.48068 0.91514 0.0
H95 H 0.85113 0.49226 0.07127 0.0
H96 H 0.91748 0.45522 0.71432 0.0
H97 H 0.84362 0.44041 0.82828 0.0
H98 H 0.88886 0.43742 0.96886 0.0
Co99 Co 0.88091 0.29249 0.86975 0.0
C100 C 0.87665 0.29278 0.73495 0.0
C101 C 0.85618 0.28223 0.77444 0.0
C102 C 0.85383 0.28155 0.7129 0.0
N103 N 0.86995 0.28955 0.78891 0.0
N104 N 0.86675 0.28816 0.68805 0.0
H105 H 0.88913 0.29802 0.72936 0.0
H106 H 0.84902 0.2773 0.80604 0.0
C107 C 0.83518 0.28979 0.89444 0.0
O108 O 0.83097 0.29638 0.85329 0.0
N109 N 0.89201 0.29516 0.94985 0.0
C110 C 0.90796 0.30129 0.96373 0.0
C111 C 0.91075 0.30156 0.02523 0.0
C112 C 0.8852 0.29181 1.00321 0.0
N113 N 0.8964 0.29563 0.05009 0.0
C114 C 0.88163 0.31284 0.82852 0.0
C115 C 0.85646 0.32138 0.91655 0.0
C116 C 0.86551 0.32774 0.87459 0.0
C117 C 0.87819 0.32326 0.83008 0.0
C118 C 0.86018 0.31093 0.91301 0.0
N119 N 0.87228 0.3067 0.8684 0.0
H120 H 0.89286 0.30986 0.79715 0.0
H121 H 0.85392 0.30631 0.94771 0.0
H122 H 0.91672 0.30547 0.93146 0.0
H123 H 0.87233 0.28672 0.00783 0.0
O124 O 0.9084 0.29374 0.83573 0.0
O125 O 0.89483 0.27951 0.86589 0.0
O126 O 0.85399 0.28782 0.90718 0.0
C127 C 0.9105 0.28409 0.84241 0.0
H128 H 0.84417 0.27621 0.68816 0.0
H129 H 0.92208 0.30603 0.0499 0.0
H130 H 0.84678 0.32445 0.95239 0.0
H131 H 0.88628 0.32783 0.7982 0.0
Co132 Co 0.12486 0.04194 0.63857 0.0
C133 C 0.12851 0.04131 0.50321 0.0
C134 C 0.14523 0.02948 0.54466 0.0
C135 C 0.14694 0.02817 0.48321 0.0
N136 N 0.13418 0.03789 0.55768 0.0
N137 N 0.13638 0.03559 0.45709 0.0
H138 H 0.11834 0.0476 0.49678 0.0
H139 H 0.15101 0.02437 0.57765 0.0
C140 C 0.17071 0.03855 0.6536 0.0
O141 O 0.17391 0.04407 0.60644 0.0
N142 N 0.11532 0.04566 0.71885 0.0
C143 C 0.1015 0.05293 0.73286 0.0
C144 C 0.0989 0.05343 0.79438 0.0
C145 C 0.12098 0.04181 0.772 0.0
N146 N 0.11113 0.04644 0.81911 0.0
C147 C 0.12227 0.06188 0.59273 0.0
C148 C 0.15136 0.07098 0.66721 0.0
C149 C 0.13968 0.07708 0.62945 0.0
C150 C 0.12518 0.07231 0.59143 0.0
C151 C 0.14785 0.0605 0.6674 0.0
N152 N 0.13368 0.056 0.62955 0.0
H153 H 0.10981 0.05869 0.56649 0.0
H154 H 0.15579 0.05616 0.70046 0.0
H155 H 0.09399 0.05763 0.70055 0.0
H156 H 0.13193 0.03572 0.77603 0.0
O157 O 0.09684 0.04302 0.60851 0.0
O158 O 0.11055 0.02909 0.64259 0.0
O159 O 0.15233 0.03749 0.67364 0.0
C160 C 0.09463 0.03352 0.61945 0.0
H161 H 0.15458 0.02196 0.45952 0.0
H162 H 0.08905 0.0587 0.81902 0.0
H163 H 0.16236 0.07432 0.69862 0.0
H164 H 0.11564 0.07665 0.56175 0.0
Co165 Co 0.12622 0.2219 0.63559 0.0
C166 C 0.13172 0.22169 0.77022 0.0
C167 C 0.14734 0.23396 0.72979 0.0
C168 C 0.14986 0.23487 0.7912 0.0
N169 N 0.1364 0.22555 0.71612 0.0
N170 N 0.13999 0.22717 0.81671 0.0
H171 H 0.12195 0.21525 0.7762 0.0
H172 H 0.15251 0.23931 0.69736 0.0
C173 C 0.17199 0.22523 0.61765 0.0
O174 O 0.17564 0.21961 0.66409 0.0
N175 N 0.11593 0.21853 0.55558 0.0
C176 C 0.10157 0.21152 0.54179 0.0
C177 C 0.09913 0.21094 0.48021 0.0
C178 C 0.12206 0.22214 0.50223 0.0
N179 N 0.11202 0.21761 0.45517 0.0
C180 C 0.12329 0.20176 0.67815 0.0
C181 C 0.15212 0.19281 0.60209 0.0
C182 C 0.14044 0.18661 0.63926 0.0
C183 C 0.12606 0.19131 0.67808 0.0
C184 C 0.14878 0.20331 0.60337 0.0
N185 N 0.13475 0.20774 0.64206 0.0
H186 H 0.11094 0.20491 0.70508 0.0
H187 H 0.15674 0.20774 0.57081 0.0
H188 H 0.09374 0.20698 0.57422 0.0
H189 H 0.13362 0.22794 0.49797 0.0
O190 O 0.09841 0.22093 0.66776 0.0
O191 O 0.1122 0.23488 0.63438 0.0
O192 O 0.15345 0.22632 0.59905 0.0
C193 C 0.09637 0.23049 0.65821 0.0
H194 H 0.15753 0.24101 0.81538 0.0
H195 H 0.08906 0.20576 0.45578 0.0
H196 H 0.16301 0.18954 0.57006 0.0
H197 H 0.11654 0.1869 0.7074 0.0
Co198 Co 0.88222 0.9724 0.3784 0.0
C199 C 0.87713 0.97061 0.51134 0.0
C200 C 0.85343 0.97963 0.47278 0.0
C201 C 0.85065 0.97966 0.534 0.0
N202 N 0.86996 0.97391 0.45822 0.0
N203 N 0.86565 0.97407 0.55887 0.0
H204 H 0.89085 0.96604 0.51495 0.0
H205 H 0.84425 0.98381 0.44164 0.0
C206 C 0.83957 0.97382 0.3159 0.0
O207 O 0.83864 0.96413 0.30254 0.0
N208 N 0.89469 0.97129 0.29775 0.0
C209 C 0.91508 0.97088 0.28488 0.0
C210 C 0.91775 0.97007 0.22357 0.0
C211 C 0.88534 0.9708 0.24309 0.0
N212 N 0.89906 0.97002 0.19723 0.0
C213 C 0.88869 0.95133 0.35155 0.0
C214 C 0.85278 0.94403 0.40056 0.0
C215 C 0.86705 0.93709 0.37554 0.0
C216 C 0.8852 0.94094 0.35097 0.0
C217 C 0.85678 0.95446 0.39953 0.0
N218 N 0.8744 0.95805 0.37388 0.0
H219 H 0.90338 0.95392 0.33556 0.0
H220 H 0.8456 0.95963 0.41928 0.0
H221 H 0.92745 0.97101 0.3174 0.0
H222 H 0.86891 0.97088 0.23636 0.0
O223 O 0.90914 0.9709 0.41566 0.0
O224 O 0.89534 0.98545 0.39122 0.0
O225 O 0.8555 0.97761 0.3421 0.0
C226 C 0.91078 0.98069 0.41477 0.0
H227 H 0.83861 0.98375 0.55787 0.0
H228 H 0.93238 0.96968 0.20016 0.0
H229 H 0.83859 0.94144 0.4205 0.0
H230 H 0.89706 0.93592 0.3331 0.0
Co231 Co 0.88116 0.79238 0.37556 0.0
C232 C 0.87559 0.7927 0.24107 0.0
C233 C 0.85996 0.78041 0.28134 0.0
C234 C 0.85741 0.77953 0.21996 0.0
N235 N 0.87094 0.7888 0.29507 0.0
N236 N 0.86727 0.78724 0.19453 0.0
H237 H 0.88535 0.79915 0.23523 0.0
H238 H 0.85483 0.77504 0.31366 0.0
C239 C 0.83543 0.78892 0.39445 0.0
O240 O 0.83136 0.79483 0.34962 0.0
N241 N 0.89143 0.79568 0.45565 0.0
C242 C 0.90561 0.80276 0.46971 0.0
C243 C 0.90793 0.80334 0.53131 0.0
C244 C 0.88528 0.79203 0.50888 0.0
N245 N 0.89514 0.7966 0.55613 0.0
C246 C 0.8835 0.81261 0.33372 0.0
C247 C 0.85442 0.82127 0.40997 0.0
C248 C 0.86548 0.8276 0.37186 0.0
C249 C 0.88021 0.82303 0.33351 0.0
C250 C 0.85832 0.81083 0.40902 0.0
N251 N 0.87233 0.80652 0.36988 0.0
H252 H 0.89601 0.80957 0.3069 0.0
H253 H 0.85062 0.80632 0.44173 0.0
H254 H 0.91337 0.80736 0.43744 0.0
H255 H 0.8738 0.78618 0.5129 0.0
O256 O 0.90894 0.7935 0.3432 0.0
O257 O 0.8954 0.77947 0.37607 0.0
O258 O 0.85408 0.78774 0.41182 0.0
C259 C 0.91114 0.78394 0.35229 0.0
H260 H 0.84973 0.7734 0.19575 0.0
H261 H 0.91785 0.80857 0.55587 0.0
H262 H 0.84304 0.82434 0.44112 0.0
H263 H 0.88994 0.8275 0.30516 0.0
Co264 Co 0.62649 0.5422 0.62581 0.0
C265 C 0.63177 0.54226 0.4911 0.0
C266 C 0.64758 0.53006 0.53177 0.0
C267 C 0.64995 0.52907 0.47033 0.0
N268 N 0.63664 0.53849 0.5453 0.0
N269 N 0.63996 0.53672 0.44469 0.0
H270 H 0.6219 0.54867 0.48498 0.0
H271 H 0.65283 0.52475 0.56432 0.0
C272 C 0.67221 0.53875 0.64393 0.0
O273 O 0.6759 0.5443 0.59724 0.0
N274 N 0.61621 0.54561 0.70579 0.0
C275 C 0.60187 0.55266 0.71951 0.0
C276 C 0.59944 0.55327 0.78109 0.0
C277 C 0.62234 0.54202 0.75919 0.0
N278 N 0.61232 0.5466 0.80619 0.0
C279 C 0.624 0.56234 0.58294 0.0
C280 C 0.65267 0.57116 0.65992 0.0
C281 C 0.64123 0.57741 0.62242 0.0
C282 C 0.62693 0.57278 0.58311 0.0
C283 C 0.64919 0.56068 0.65848 0.0
N284 N 0.63523 0.55632 0.61938 0.0
H285 H 0.61168 0.55924 0.55572 0.0
H286 H 0.65696 0.55622 0.69127 0.0
H287 H 0.59405 0.55719 0.68701 0.0
H288 H 0.63388 0.53621 0.76356 0.0
O289 O 0.59871 0.54328 0.59357 0.0
O290 O 0.61231 0.52928 0.62693 0.0
O291 O 0.65366 0.5377 0.66248 0.0
C292 C 0.59656 0.53373 0.60298 0.0
H293 H 0.6576 0.5229 0.44625 0.0
H294 H 0.58937 0.55846 0.80549 0.0
H295 H 0.66346 0.57438 0.69236 0.0
H296 H 0.61758 0.57723 0.55352 0.0
Co297 Co 0.62647 0.72213 0.64078 0.0
C298 C 0.63139 0.7221 0.7755 0.0
C299 C 0.64674 0.73445 0.73513 0.0
C300 C 0.64888 0.73548 0.79655 0.0
N301 N 0.63616 0.72594 0.72147 0.0
N302 N 0.63915 0.72773 0.8222 0.0
H303 H 0.62149 0.7157 0.78121 0.0
H304 H 0.652 0.73976 0.70264 0.0
C305 C 0.6722 0.72581 0.62465 0.0
O306 O 0.67612 0.7199 0.66956 0.0
N307 N 0.61677 0.71858 0.5603 0.0
C308 C 0.60178 0.71188 0.54664 0.0
C309 C 0.60065 0.7106 0.485 0.0
C310 C 0.62458 0.72129 0.50668 0.0
N311 N 0.61506 0.71646 0.45971 0.0
C312 C 0.62398 0.70202 0.6838 0.0
C313 C 0.6531 0.69321 0.60816 0.0
C314 C 0.6414 0.68696 0.64495 0.0
C315 C 0.6269 0.69159 0.68363 0.0
C316 C 0.64962 0.70369 0.60956 0.0
N317 N 0.63543 0.70806 0.648 0.0
H318 H 0.61149 0.70512 0.71042 0.0
H319 H 0.65759 0.70817 0.57724 0.0
H320 H 0.59264 0.708 0.57932 0.0
H321 H 0.63739 0.72642 0.50212 0.0
O322 O 0.59858 0.72099 0.67223 0.0
O323 O 0.61203 0.73498 0.63836 0.0
O324 O 0.65367 0.72684 0.60592 0.0
C325 C 0.59631 0.73053 0.6623 0.0
H326 H 0.65677 0.74159 0.82025 0.0
H327 H 0.59003 0.70566 0.46083 0.0
H328 H 0.66409 0.68998 0.57627 0.0
H329 H 0.61736 0.68714 0.71268 0.0
Co330 Co 0.38247 0.47173 0.38481 0.0
C331 C 0.37758 0.47192 0.51984 0.0
C332 C 0.36195 0.48413 0.47867 0.0
C333 C 0.35977 0.48526 0.5401 0.0
N334 N 0.37264 0.47562 0.46546 0.0
N335 N 0.36964 0.4776 0.56608 0.0
H336 H 0.3873 0.46547 0.52617 0.0
H337 H 0.35674 0.48941 0.44587 0.0
C338 C 0.33678 0.47536 0.36784 0.0
O339 O 0.33318 0.46984 0.41472 0.0
N340 N 0.39243 0.46816 0.30471 0.0
C341 C 0.40634 0.46093 0.29083 0.0
C342 C 0.4088 0.46034 0.22926 0.0
C343 C 0.38659 0.4719 0.25143 0.0
N344 N 0.39638 0.46723 0.20432 0.0
C345 C 0.38457 0.45164 0.42863 0.0
C346 C 0.35574 0.44287 0.35195 0.0
C347 C 0.36716 0.4366 0.38942 0.0
C348 C 0.38152 0.44121 0.4286 0.0
C349 C 0.35935 0.45333 0.3532 0.0
N350 N 0.3734 0.45768 0.39208 0.0
H351 H 0.39695 0.45472 0.4557 0.0
H352 H 0.35163 0.45781 0.32034 0.0
H353 H 0.41389 0.45626 0.32321 0.0
H354 H 0.37544 0.4779 0.24727 0.0
O355 O 0.4103 0.47051 0.41631 0.0
O356 O 0.39695 0.48455 0.38268 0.0
O357 O 0.35528 0.47634 0.3487 0.0
C358 C 0.41267 0.48003 0.40633 0.0
H359 H 0.35234 0.49152 0.56391 0.0
H360 H 0.4186 0.45503 0.20475 0.0
H361 H 0.34489 0.43966 0.31964 0.0
H362 H 0.39086 0.43674 0.45814 0.0
Co363 Co 0.38138 0.2919 0.37337 0.0
C364 C 0.37664 0.2915 0.23841 0.0
C365 C 0.36049 0.27953 0.28016 0.0
C366 C 0.35854 0.27826 0.21877 0.0
N367 N 0.37142 0.28797 0.29297 0.0
N368 N 0.36879 0.28576 0.19222 0.0
H369 H 0.387 0.2977 0.23206 0.0
H370 H 0.35491 0.27439 0.31323 0.0
C371 C 0.33568 0.28843 0.39131 0.0
O372 O 0.33202 0.29402 0.34475 0.0
N373 N 0.39147 0.29554 0.45324 0.0
C374 C 0.4056 0.3027 0.46644 0.0
C375 C 0.4076 0.30366 0.52806 0.0
C376 C 0.38512 0.29219 0.50702 0.0
N377 N 0.39467 0.29708 0.55371 0.0
C378 C 0.38349 0.31192 0.32853 0.0
C379 C 0.35506 0.32089 0.4058 0.0
C380 C 0.36644 0.32707 0.36774 0.0
C381 C 0.38058 0.32236 0.32823 0.0
C382 C 0.35852 0.31041 0.40484 0.0
N383 N 0.37238 0.30597 0.36569 0.0
H384 H 0.39574 0.30877 0.30124 0.0
H385 H 0.35084 0.306 0.43808 0.0
H386 H 0.41359 0.30708 0.43351 0.0
H387 H 0.37333 0.28652 0.51196 0.0
O388 O 0.40915 0.29303 0.34129 0.0
O389 O 0.39586 0.27905 0.37577 0.0
O390 O 0.35422 0.28736 0.40994 0.0
C391 C 0.41153 0.28352 0.35152 0.0
H392 H 0.35049 0.27214 0.19573 0.0
H393 H 0.41781 0.30883 0.55204 0.0
H394 H 0.34436 0.32419 0.43831 0.0
H395 H 0.38987 0.32674 0.29819 0.0
Co396 Co 0.62594 0.04221 0.11836 0.0
C397 C 0.62529 0.04104 0.98371 0.0
C398 C 0.64213 0.0289 0.02216 0.0
C399 C 0.64121 0.02722 0.96075 0.0
N400 N 0.63223 0.03757 0.03668 0.0
N401 N 0.63061 0.03484 0.9366 0.0
H402 H 0.61576 0.04766 0.9797 0.0
H403 H 0.6489 0.02392 0.0543 0.0
C404 C 0.66624 0.03919 0.18943 0.0
O405 O 0.6614 0.04631 0.22946 0.0
N406 N 0.61905 0.04672 0.20016 0.0
C407 C 0.61094 0.05575 0.21658 0.0
C408 C 0.60858 0.05626 0.27798 0.0
C409 C 0.62062 0.04167 0.252 0.0
N410 N 0.61492 0.04748 0.30053 0.0
C411 C 0.62 0.06207 0.0737 0.0
C412 C 0.65652 0.07068 0.1128 0.0
C413 C 0.64097 0.07705 0.09151 0.0
C414 C 0.62288 0.07247 0.06953 0.0
C415 C 0.65306 0.06023 0.11578 0.0
N416 N 0.6345 0.05606 0.09939 0.0
H417 H 0.60542 0.059 0.05894 0.0
H418 H 0.66531 0.05568 0.13257 0.0
H419 H 0.60695 0.06164 0.18641 0.0
H420 H 0.62684 0.03412 0.25438 0.0
O421 O 0.59692 0.04308 0.09737 0.0
O422 O 0.6119 0.02946 0.13098 0.0
O423 O 0.65484 0.0376 0.14284 0.0
C424 C 0.59522 0.03369 0.11126 0.0
H425 H 0.64772 0.02084 0.93579 0.0
H426 H 0.60268 0.06267 0.30405 0.0
H427 H 0.67097 0.07376 0.12933 0.0
H428 H 0.61066 0.07691 0.05044 0.0
Co429 Co 0.62621 0.22186 0.13 0.0
C430 C 0.63086 0.22204 0.26493 0.0
C431 C 0.64849 0.23356 0.22375 0.0
C432 C 0.65023 0.23481 0.28523 0.0
N433 N 0.63676 0.2254 0.21048 0.0
N434 N 0.63907 0.22758 0.31133 0.0
H435 H 0.6196 0.21621 0.27112 0.0
H436 H 0.65458 0.23863 0.19106 0.0
C437 C 0.67178 0.22517 0.10855 0.0
O438 O 0.67584 0.21906 0.15242 0.0
N439 N 0.61549 0.2186 0.05018 0.0
C440 C 0.6012 0.21152 0.03698 0.0
C441 C 0.59892 0.21069 0.97541 0.0
C442 C 0.62167 0.22204 0.99639 0.0
N443 N 0.61184 0.21727 0.94975 0.0
C444 C 0.62531 0.20166 0.17296 0.0
C445 C 0.65166 0.193 0.08838 0.0
C446 C 0.64138 0.18665 0.12802 0.0
C447 C 0.62834 0.19122 0.17133 0.0
C448 C 0.64824 0.20348 0.09174 0.0
N449 N 0.63538 0.20776 0.13434 0.0
H450 H 0.61371 0.20469 0.20299 0.0
H451 H 0.65507 0.20805 0.05771 0.0
H452 H 0.59336 0.20707 0.06985 0.0
H453 H 0.6336 0.22764 0.9913 0.0
O454 O 0.59868 0.22053 0.16363 0.0
O455 O 0.61173 0.2347 0.13089 0.0
O456 O 0.65305 0.2266 0.09261 0.0
C457 C 0.59625 0.23011 0.15531 0.0
H458 H 0.65866 0.24077 0.30873 0.0
H459 H 0.5886 0.20557 0.95143 0.0
H460 H 0.66145 0.18986 0.05299 0.0
H461 H 0.61996 0.18673 0.20299 0.0
Co462 Co 0.38202 0.97189 0.89052 0.0
C463 C 0.37688 0.97223 0.02542 0.0
C464 C 0.36246 0.98473 0.98378 0.0
C465 C 0.36065 0.98605 0.04519 0.0
N466 N 0.37224 0.97595 0.9709 0.0
N467 N 0.36975 0.9782 0.07158 0.0
H468 H 0.38594 0.96556 0.03182 0.0
H469 H 0.3578 0.99008 0.95072 0.0
C470 C 0.33665 0.97598 0.87365 0.0
O471 O 0.33305 0.97043 0.92041 0.0
N472 N 0.39201 0.96816 0.81067 0.0
C473 C 0.40487 0.96048 0.79698 0.0
C474 C 0.40739 0.95981 0.73548 0.0
C475 C 0.38691 0.97212 0.75734 0.0
N476 N 0.39611 0.96713 0.71022 0.0
C477 C 0.38247 0.95177 0.93508 0.0
C478 C 0.35395 0.94342 0.85589 0.0
C479 C 0.36423 0.93701 0.89518 0.0
C480 C 0.37854 0.9414 0.93542 0.0
C481 C 0.35823 0.95382 0.85739 0.0
N482 N 0.37208 0.95797 0.89759 0.0
H483 H 0.39497 0.95464 0.96248 0.0
H484 H 0.35114 0.95841 0.8239 0.0
H485 H 0.41157 0.95554 0.82944 0.0
H486 H 0.37664 0.97848 0.75331 0.0
O487 O 0.40964 0.97028 0.92285 0.0
O488 O 0.39726 0.9845 0.88864 0.0
O489 O 0.35513 0.97684 0.85407 0.0
C490 C 0.41256 0.97979 0.91319 0.0
H491 H 0.35405 0.99257 0.06852 0.0
H492 H 0.41642 0.95413 0.71142 0.0
H493 H 0.34298 0.94042 0.82326 0.0
H494 H 0.38756 0.93679 0.9649 0.0
Co495 Co 0.38071 0.79249 0.86963 0.0
C496 C 0.37581 0.79251 0.73488 0.0
C497 C 0.35974 0.7804 0.7754 0.0
C498 C 0.35759 0.77937 0.71397 0.0
N499 N 0.37074 0.78878 0.78901 0.0
N500 N 0.36776 0.78697 0.68826 0.0
H501 H 0.38621 0.79871 0.72899 0.0
H502 H 0.35424 0.77513 0.80785 0.0
C503 C 0.33513 0.78872 0.8881 0.0
O504 O 0.33089 0.79484 0.84448 0.0
N505 N 0.3907 0.79594 0.95001 0.0
C506 C 0.40563 0.80267 0.96361 0.0
C507 C 0.40687 0.80391 0.02527 0.0
C508 C 0.38304 0.79316 1.00368 0.0
N509 N 0.39258 0.79798 0.05063 0.0
C510 C 0.38159 0.81269 0.8264 0.0
C511 C 0.35358 0.82112 0.90699 0.0
C512 C 0.36372 0.82749 0.86724 0.0
C513 C 0.3778 0.82307 0.82638 0.0
C514 C 0.35767 0.8107 0.90499 0.0
N515 N 0.37122 0.80651 0.864 0.0
H516 H 0.39393 0.80978 0.7985 0.0
H517 H 0.35061 0.80611 0.93849 0.0
H518 H 0.4146 0.80663 0.9309 0.0
H519 H 0.37027 0.78801 0.00834 0.0
O520 O 0.40843 0.7939 0.8372 0.0
O521 O 0.39549 0.77975 0.87054 0.0
O522 O 0.35381 0.78755 0.90519 0.0
C523 C 0.41099 0.78435 0.84643 0.0
H524 H 0.34942 0.77334 0.69028 0.0
H525 H 0.41744 0.80888 0.04939 0.0
H526 H 0.34284 0.82417 0.94016 0.0
H527 H 0.38671 0.82767 0.79655 0.0
H528 H 0.33836 0.48796 0.27188 0.0
H529 H 0.31077 0.49854 0.23314 0.0
H530 H 0.26884 0.48702 0.36482 0.0
H531 H 0.29622 0.4763 0.40308 0.0
H532 H 0.24944 0.48858 0.26054 0.0
H533 H 0.29215 0.51057 0.38268 0.0
H534 H 0.32474 0.5186 0.41536 0.0
H535 H 0.33193 0.53119 0.241 0.0
H536 H 0.29952 0.52312 0.207 0.0
H537 H 0.17155 0.526 0.23617 0.0
H538 H 0.19909 0.51538 0.27482 0.0
H539 H 0.24119 0.52706 0.14412 0.0
H540 H 0.21387 0.53783 0.10604 0.0
H541 H 0.26052 0.52541 0.24791 0.0
H542 H 0.21785 0.50343 0.12565 0.0
H543 H 0.18531 0.49538 0.09277 0.0
H544 H 0.17805 0.48276 0.26702 0.0
H545 H 0.21043 0.49085 0.30122 0.0
C546 C 0.32324 0.48761 0.2924 0.0
C547 C 0.31964 0.48127 0.34093 0.0
C548 C 0.30746 0.49373 0.27038 0.0
C549 C 0.28768 0.49376 0.29659 0.0
C550 C 0.2839 0.4872 0.34378 0.0
C551 C 0.29965 0.48106 0.36573 0.0
C552 C 0.27105 0.5007 0.27562 0.0
C553 C 0.25182 0.49665 0.25855 0.0
C554 C 0.27411 0.51124 0.27166 0.0
C555 C 0.29352 0.51616 0.29213 0.0
C556 C 0.30076 0.515 0.35118 0.0
C557 C 0.31919 0.51956 0.36996 0.0
C558 C 0.33043 0.52538 0.33023 0.0
C559 C 0.32323 0.52667 0.27169 0.0
C560 C 0.30482 0.52211 0.25266 0.0
C561 C 0.1867 0.52638 0.21586 0.0
C562 C 0.19037 0.53278 0.16768 0.0
C563 C 0.20246 0.52023 0.23781 0.0
C564 C 0.22227 0.52024 0.21185 0.0
C565 C 0.22611 0.52685 0.16497 0.0
C566 C 0.21039 0.53302 0.14313 0.0
C567 C 0.23889 0.51329 0.23281 0.0
C568 C 0.25813 0.51734 0.24989 0.0
C569 C 0.23584 0.50275 0.23675 0.0
C570 C 0.21646 0.49782 0.21617 0.0
C571 C 0.20924 0.49899 0.15709 0.0
C572 C 0.19084 0.49442 0.1382 0.0
C573 C 0.17959 0.48858 0.17783 0.0
C574 C 0.18676 0.48729 0.2364 0.0
C575 C 0.20515 0.49186 0.25555 0.0
H576 H 0.16534 0.48505 0.16312 0.0
H577 H 0.34469 0.52891 0.34485 0.0
H578 H 0.06274 0.72273 0.22141 0.0
H579 H 0.03136 0.73171 0.25274 0.0
H580 H 0.05653 0.75936 0.18747 0.0
H581 H 0.0881 0.75043 0.15683 0.0
H582 H 0.03878 0.76282 0.29415 0.0
H583 H 0.01854 0.74589 0.10946 0.0
H584 H 0.0139 0.73134 0.03882 0.0
H585 H 0.9744 0.71718 0.16603 0.0
H586 H 0.97904 0.73159 0.23781 0.0
H587 H 0.94586 0.79142 0.29965 0.0
H588 H 0.97715 0.7823 0.26911 0.0
H589 H 0.95145 0.7548 0.33484 0.0
H590 H 0.91994 0.76387 0.3647 0.0
H591 H 0.96943 0.75119 0.22853 0.0
H592 H 0.98953 0.76814 0.41304 0.0
H593 H 0.99417 0.78267 0.48375 0.0
H594 H 0.03394 0.79678 0.35702 0.0
H595 H 0.02931 0.78238 0.28517 0.0
C596 C 0.06159 0.73072 0.2135 0.0
C597 C 0.07795 0.73584 0.1863 0.0
C598 C 0.04356 0.73585 0.23128 0.0
C599 C 0.04134 0.74623 0.22195 0.0
C600 C 0.05775 0.75137 0.19519 0.0
C601 C 0.07581 0.74623 0.17744 0.0
C602 C 0.02207 0.75174 0.24063 0.0
C603 C 0.02365 0.76034 0.27905 0.0
C604 C 1.00217 0.74843 0.22239 0.0
C605 C 0.9993 0.73977 0.17924 0.0
C606 C 0.00899 0.73964 0.12256 0.0
C607 C 0.00634 0.73142 0.08228 0.0
C608 C 0.99391 0.72333 0.09799 0.0
C609 C 0.98405 0.72345 0.15396 0.0
C610 C 0.98667 0.73164 0.19444 0.0
C611 C 0.94687 0.78343 0.30786 0.0
C612 C 0.93037 0.7784 0.33495 0.0
C613 C 0.96485 0.77822 0.29052 0.0
C614 C 0.9669 0.76785 0.30021 0.0
C615 C 0.95036 0.76279 0.32687 0.0
C616 C 0.93235 0.768 0.34418 0.0
C617 C 0.98615 0.76227 0.28197 0.0
C618 C 0.98456 0.75366 0.24364 0.0
C619 C 0.00604 0.76557 0.30031 0.0
C620 C 0.00891 0.77422 0.3435 0.0
C621 C 0.99914 0.77437 0.40006 0.0
C622 C 1.00179 0.78258 0.44038 0.0
C623 C 0.0143 0.79066 0.42483 0.0
C624 C 0.02423 0.79053 0.36897 0.0
C625 C 0.02161 0.78234 0.32845 0.0
H626 H 0.01633 0.797 0.4561 0.0
H627 H 0.99187 0.71698 0.06674 0.0
H628 H 0.29328 0.79184 0.88655 0.0
H629 H 0.26617 0.78094 0.92531 0.0
H630 H 0.31235 0.75967 0.97957 0.0
H631 H 0.33944 0.77076 0.94386 0.0
H632 H 0.25333 0.76265 0.8984 0.0
H633 H 0.29521 0.74673 0.10476 0.0
H634 H 0.32513 0.7512 0.16867 0.0
H635 H 0.31634 0.78248 0.1329 0.0
H636 H 0.28544 0.77831 0.0728 0.0
H637 H 0.2147 0.72222 0.12596 0.0
H638 H 0.24216 0.73263 0.08494 0.0
H639 H 0.19657 0.75342 0.02111 0.0
H640 H 0.16915 0.74279 0.05924 0.0
H641 H 0.25564 0.75054 0.10716 0.0
H642 H 0.21206 0.76576 0.90277 0.0
H643 H 0.18413 0.76047 0.83354 0.0
H644 H 0.19917 0.7294 0.85911 0.0
H645 H 0.22733 0.73451 0.92826 0.0
C646 C 0.29765 0.78489 0.90735 0.0
C647 C 0.31858 0.78227 0.91298 0.0
C648 C 0.28211 0.77861 0.92916 0.0
C649 C 0.28707 0.7695 0.95646 0.0
C650 C 0.30798 0.76675 0.96031 0.0
C651 C 0.32353 0.77312 0.93982 0.0
C652 C 0.27042 0.76299 0.98154 0.0
C653 C 0.25375 0.76012 0.94432 0.0
C654 C 0.27109 0.75941 0.04111 0.0
C655 C 0.28815 0.76217 0.08328 0.0
C656 C 0.29936 0.75459 0.1116 0.0
C657 C 0.31646 0.75708 0.14745 0.0
C658 C 0.32262 0.76712 0.15494 0.0
C659 C 0.31144 0.77471 0.12761 0.0
C660 C 0.294 0.7723 0.09313 0.0
C661 C 0.21052 0.72895 0.10251 0.0
C662 C 0.18965 0.73158 0.09532 0.0
C663 C 0.22628 0.73495 0.07932 0.0
C664 C 0.22163 0.7438 0.04884 0.0
C665 C 0.20076 0.74652 0.0427 0.0
C666 C 0.185 0.74042 0.06481 0.0
C667 C 0.23853 0.75021 0.02395 0.0
C668 C 0.25523 0.75307 0.06124 0.0
C669 C 0.23805 0.7537 0.96427 0.0
C670 C 0.2217 0.75053 0.92099 0.0
C671 C 0.20951 0.7578 0.89325 0.0
C672 C 0.19361 0.75483 0.85411 0.0
C673 C 0.18985 0.7446 0.84194 0.0
C674 C 0.20207 0.73732 0.86868 0.0
C675 C 0.21799 0.74025 0.9079 0.0
H676 H 0.1775 0.74231 0.81179 0.0
H677 H 0.33605 0.76902 0.1819 0.0
H678 H 0.92053 0.50074 0.90299 0.0
H679 H 0.952 0.50977 0.93332 0.0
H680 H 0.97774 0.48218 0.99799 0.0
H681 H 0.94647 0.47311 0.96709 0.0
H682 H 0.96977 0.51318 0.04046 0.0
H683 H 0.02998 0.48218 0.98187 0.0
H684 H 0.03481 0.46794 0.90896 0.0
H685 H 0.99501 0.48227 0.78312 0.0
H686 H 0.99017 0.49665 0.8549 0.0
H687 H 0.08844 0.5141 0.11244 0.0
H688 H 0.05694 0.50513 0.08179 0.0
H689 H 0.03144 0.53278 0.01726 0.0
H690 H 0.06275 0.54179 0.04849 0.0
H691 H 0.03928 0.50179 0.97447 0.0
H692 H 0.97913 0.5328 0.03289 0.0
H693 H 0.9743 0.54705 0.10575 0.0
H694 H 0.01397 0.5327 0.23182 0.0
H695 H 0.01881 0.51831 0.16009 0.0
C696 C 0.93294 0.49658 0.92333 0.0
C697 C 0.93097 0.48617 0.93224 0.0
C698 C 0.95093 0.50177 0.94092 0.0
C699 C 0.96746 0.49668 0.9675 0.0
C700 C 0.96544 0.48629 0.97669 0.0
C701 C 0.94747 0.4811 0.95914 0.0
C702 C 0.98664 0.50224 0.98629 0.0
C703 C 0.98493 0.51076 0.02526 0.0
C704 C 0.00657 0.49899 0.96787 0.0
C705 C 0.00955 0.49043 0.92407 0.0
C706 C 0.02232 0.4823 0.93856 0.0
C707 C 0.02505 0.47421 0.89744 0.0
C708 C 0.01517 0.47418 0.84153 0.0
C709 C 1.00259 0.48228 0.82653 0.0
C710 C 0.99983 0.49039 0.86746 0.0
C711 C 0.07608 0.51829 0.09206 0.0
C712 C 0.07812 0.52869 0.08328 0.0
C713 C 0.05807 0.51313 0.07428 0.0
C714 C 0.0416 0.51826 0.04765 0.0
C715 C 0.04369 0.52865 0.03859 0.0
C716 C 0.06168 0.5338 0.05633 0.0
C717 C 0.02241 0.51272 0.02866 0.0
C718 C 0.02412 0.50421 0.98965 0.0
C719 C 1.00248 0.51597 0.04703 0.0
C720 C 0.9995 0.52454 0.09081 0.0
C721 C 0.98676 0.53268 0.07624 0.0
C722 C 0.98403 0.54078 0.11733 0.0
C723 C 0.99388 0.54079 0.17329 0.0
C724 C 0.00642 0.53269 0.18837 0.0
C725 C 0.00918 0.52457 0.14748 0.0
H726 H 0.99176 0.54707 0.20502 0.0
H727 H 0.01729 0.46791 0.80979 0.0
H728 H 0.8374 0.48844 0.77924 0.0
H729 H 0.80979 0.49896 0.74002 0.0
H730 H 0.76793 0.48764 0.87255 0.0
H731 H 0.79533 0.47697 0.91121 0.0
H732 H 0.74838 0.48902 0.76904 0.0
H733 H 0.79127 0.51131 0.88837 0.0
H734 H 0.82386 0.51943 0.92013 0.0
H735 H 0.83091 0.53156 0.74449 0.0
H736 H 0.79849 0.52339 0.71141 0.0
H737 H 0.67059 0.52641 0.74106 0.0
H738 H 0.69815 0.51593 0.78091 0.0
H739 H 0.74012 0.52707 0.64809 0.0
H740 H 0.71277 0.5377 0.60879 0.0
H741 H 0.75956 0.52578 0.75215 0.0
H742 H 0.71661 0.50338 0.63295 0.0
H743 H 0.6839 0.4953 0.6018 0.0
H744 H 0.67685 0.48344 0.77814 0.0
H745 H 0.70939 0.49157 0.81059 0.0
C746 C 0.82229 0.48812 0.79985 0.0
C747 C 0.81871 0.48185 0.84869 0.0
C748 C 0.80649 0.49421 0.77756 0.0
C749 C 0.78673 0.49427 0.80385 0.0
C750 C 0.78298 0.48779 0.85142 0.0
C751 C 0.79874 0.48168 0.8736 0.0
C752 C 0.77007 0.50116 0.78247 0.0
C753 C 0.75079 0.49708 0.76613 0.0
C754 C 0.77314 0.51168 0.77737 0.0
C755 C 0.79256 0.51666 0.79725 0.0
C756 C 0.79984 0.51565 0.8564 0.0
C757 C 0.81828 0.52027 0.87465 0.0
C758 C 0.82948 0.52599 0.83431 0.0
C759 C 0.82223 0.52712 0.77566 0.0
C760 C 0.80383 0.5225 0.75715 0.0
C761 C 0.68571 0.52669 0.72052 0.0
C762 C 0.68934 0.5329 0.67139 0.0
C763 C 0.70148 0.52063 0.74318 0.0
C764 C 0.72126 0.52052 0.71698 0.0
C765 C 0.72506 0.52695 0.66915 0.0
C766 C 0.70933 0.53304 0.64661 0.0
C767 C 0.73788 0.51364 0.73865 0.0
C768 C 0.75715 0.51773 0.75506 0.0
C769 C 0.7348 0.50313 0.7439 0.0
C770 C 0.71533 0.49816 0.72434 0.0
C771 C 0.70801 0.4991 0.66519 0.0
C772 C 0.68952 0.49451 0.64729 0.0
C773 C 0.67828 0.48888 0.68801 0.0
C774 C 0.68556 0.48781 0.74667 0.0
C775 C 0.70403 0.4924 0.76483 0.0
H776 H 0.66396 0.48533 0.67407 0.0
H777 H 0.84374 0.52956 0.84852 0.0
H778 H 0.0608 0.22295 0.70539 0.0
H779 H 0.0295 0.23212 0.7351 0.0
H780 H 0.05696 0.25988 0.67948 0.0
H781 H 0.08846 0.25074 0.6501 0.0
H782 H 0.03786 0.26264 0.78637 0.0
H783 H 0.01973 0.24788 0.59408 0.0
H784 H 0.01553 0.23417 0.51745 0.0
H785 H 0.97335 0.21911 0.63323 0.0
H786 H 0.97753 0.23267 0.71095 0.0
H787 H 0.94564 0.29191 0.79392 0.0
H788 H 0.97695 0.28293 0.76203 0.0
H789 H 0.95017 0.2549 0.8159 0.0
H790 H 0.91869 0.26384 0.84733 0.0
H791 H 0.969 0.2524 0.70892 0.0
H792 H 0.98736 0.26707 0.90154 0.0
H793 H 0.99156 0.28076 0.97827 0.0
H794 H 0.0333 0.29598 0.86197 0.0
H795 H 0.02912 0.28244 0.78414 0.0
C796 C 0.06019 0.231 0.69922 0.0
C797 C 0.07716 0.23609 0.67505 0.0
C798 C 0.0422 0.23625 0.71609 0.0
C799 C 0.04066 0.24671 0.70904 0.0
C800 C 0.05768 0.25182 0.68535 0.0
C801 C 0.07567 0.24657 0.66831 0.0
C802 C 0.02144 0.25231 0.72701 0.0
C803 C 0.02285 0.26048 0.76869 0.0
C804 C 1.00169 0.2494 0.70526 0.0
C805 C 0.99911 0.24124 0.65858 0.0
C806 C 0.00969 0.2416 0.6034 0.0
C807 C 0.00729 0.23387 0.55974 0.0
C808 C 0.99422 0.22576 0.57053 0.0
C809 C 0.98349 0.22539 0.62497 0.0
C810 C 0.98586 0.2331 0.66882 0.0
C811 C 0.9464 0.28383 0.79914 0.0
C812 C 0.92963 0.27862 0.82349 0.0
C813 C 0.96439 0.2787 0.78104 0.0
C814 C 0.96613 0.26821 0.78707 0.0
C815 C 0.9493 0.26298 0.81078 0.0
C816 C 0.9313 0.26811 0.82898 0.0
C817 C 0.98541 0.26272 0.76836 0.0
C818 C 0.98401 0.25457 0.72655 0.0
C819 C 0.00516 0.26565 0.79001 0.0
C820 C 0.00776 0.27379 0.83677 0.0
C821 C 0.99731 0.27337 0.89213 0.0
C822 C 0.99971 0.2811 0.93585 0.0
C823 C 0.01265 0.28925 0.92494 0.0
C824 C 0.02326 0.28967 0.87032 0.0
C825 C 0.02089 0.28197 0.8264 0.0
H826 H 0.01449 0.29522 0.95885 0.0
H827 H 0.99238 0.21978 0.53666 0.0
H828 H 0.7135 0.22348 0.12697 0.0
H829 H 0.74097 0.23428 0.09037 0.0
H830 H 0.69608 0.25182 0.99604 0.0
H831 H 0.66858 0.24085 0.03113 0.0
H832 H 0.72887 0.24968 0.92851 0.0
H833 H 0.71815 0.25975 0.13569 0.0
H834 H 0.71524 0.25726 0.2449 0.0
H835 H 0.77766 0.2465 0.24917 0.0
H836 H 0.78085 0.24879 0.13978 0.0
H837 H 0.7934 0.29175 0.87761 0.0
H838 H 0.76585 0.28099 0.91425 0.0
H839 H 0.81071 0.26303 1.00577 0.0
H840 H 0.83832 0.27391 0.97041 0.0
H841 H 0.77787 0.26546 0.07477 0.0
H842 H 0.78844 0.25543 0.86713 0.0
H843 H 0.79124 0.25806 0.75803 0.0
H844 H 0.72888 0.26892 0.7549 0.0
H845 H 0.72581 0.2665 0.86419 0.0
C846 C 0.70944 0.22958 0.09808 0.0
C847 C 0.68872 0.23129 0.08237 0.0
C848 C 0.72521 0.23583 0.07746 0.0
C849 C 0.7207 0.24407 0.04133 0.0
C850 C 0.70008 0.24558 0.02404 0.0
C851 C 0.68431 0.23928 0.04423 0.0
C852 C 0.73736 0.25113 0.0221 0.0
C853 C 0.73938 0.25322 0.96073 0.0
C854 C 0.7515 0.25567 0.06359 0.0
C855 C 0.74967 0.25435 0.12944 0.0
C856 C 0.73121 0.25679 0.15985 0.0
C857 C 0.72952 0.25542 0.22179 0.0
C858 C 0.74624 0.2517 0.25393 0.0
C859 C 0.76471 0.24936 0.22421 0.0
C860 C 0.76647 0.2507 0.16225 0.0
C861 C 0.79745 0.28556 0.90589 0.0
C862 C 0.8182 0.2837 0.92064 0.0
C863 C 0.78162 0.27934 0.92655 0.0
C864 C 0.7861 0.27102 0.96194 0.0
C865 C 0.80674 0.26934 0.97835 0.0
C866 C 0.82257 0.27559 0.95797 0.0
C867 C 0.76937 0.26399 0.98121 0.0
C868 C 0.76735 0.26192 0.04258 0.0
C869 C 0.75521 0.25949 0.93974 0.0
C870 C 0.75697 0.26087 0.87394 0.0
C871 C 0.77537 0.25844 0.84325 0.0
C872 C 0.777 0.25989 0.78137 0.0
C873 C 0.76026 0.26368 0.74958 0.0
C874 C 0.74184 0.266 0.77959 0.0
C875 C 0.74014 0.26458 0.84149 0.0
H876 H 0.76156 0.2648 0.70168 0.0
H877 H 0.7449 0.25064 0.30188 0.0
H878 H 0.296 0.97649 0.90765 0.0
H879 H 0.26838 0.98706 0.86985 0.0
H880 H 0.31042 0.99972 0.74243 0.0
H881 H 0.33832 0.98923 0.78076 0.0
H882 H 0.2879 0.01434 0.79517 0.0
H883 H 0.27253 0.98247 0.6985 0.0
H884 H 0.26579 0.96418 0.69267 0.0
H885 H 0.21299 0.96829 0.80752 0.0
H886 H 0.21957 0.9866 0.81471 0.0
H887 H 0.21132 0.0383 0.61872 0.0
H888 H 0.23929 0.02785 0.65583 0.0
H889 H 0.19786 0.01499 0.78418 0.0
H890 H 0.16967 0.02535 0.74667 0.0
H891 H 0.2202 1.00047 0.73012 0.0
H892 H 0.23567 0.03232 0.82724 0.0
H893 H 0.24239 0.0506 0.83318 0.0
H894 H 0.29499 0.04654 0.71748 0.0
H895 H 0.28842 0.02824 0.71019 0.0
C896 C 0.29941 0.98145 0.87121 0.0
C897 C 0.31948 0.98194 0.84724 0.0
C898 C 0.2835 0.9875 0.84943 0.0
C899 C 0.28712 0.99417 0.8027 0.0
C900 C 0.30713 0.99465 0.77844 0.0
C901 C 0.32309 0.9886 0.80025 0.0
C902 C 0.27016 1.00079 0.78032 0.0
C903 C 0.27322 0.01127 0.78008 0.0
C904 C 0.2507 0.99689 0.76196 0.0
C905 C 0.24667 0.98589 0.7576 0.0
C906 C 0.25957 0.97946 0.72289 0.0
C907 C 0.25576 0.9691 0.71927 0.0
C908 C 0.239 0.96508 0.74983 0.0
C909 C 0.22598 0.97142 0.78394 0.0
C910 C 0.22973 0.98179 0.78775 0.0
C911 C 0.20813 0.03333 0.65525 0.0
C912 C 0.18814 0.03273 0.67968 0.0
C913 C 0.22423 0.02734 0.67662 0.0
C914 C 0.22087 0.02063 0.72332 0.0
C915 C 0.20095 0.02008 0.74814 0.0
C916 C 0.18482 0.02607 0.72679 0.0
C917 C 0.23794 0.01402 0.74507 0.0
C918 C 0.23489 1.00354 0.74517 0.0
C919 C 0.2574 0.01792 0.76329 0.0
C920 C 0.26143 0.02892 0.7677 0.0
C921 C 0.24857 0.03533 0.80268 0.0
C922 C 0.25237 0.0457 0.80636 0.0
C923 C 0.26908 0.04974 0.7756 0.0
C924 C 0.28205 0.04341 0.74122 0.0
C925 C 0.2783 0.03304 0.73734 0.0
H926 H 0.272 0.05776 0.77851 0.0
H927 H 0.23608 0.95705 0.74697 0.0
H928 H 0.21299 0.22532 0.64867 0.0
H929 H 0.24051 0.2359 0.61016 0.0
H930 H 0.19756 0.24933 0.48821 0.0
H931 H 0.16997 0.23863 0.52584 0.0
H932 H 0.23343 0.24612 0.43271 0.0
H933 H 0.21301 0.26149 0.62177 0.0
H934 H 0.20565 0.26208 0.73076 0.0
H935 H 0.26838 0.25399 0.76783 0.0
H936 H 0.27604 0.2532 0.65895 0.0
H937 H 0.29468 0.28833 0.36038 0.0
H938 H 0.26718 0.27773 0.39879 0.0
H939 H 0.31018 0.26425 0.52038 0.0
H940 H 0.33775 0.27496 0.48282 0.0
H941 H 0.27428 0.26748 0.57605 0.0
H942 H 0.29467 0.25215 0.38673 0.0
H943 H 0.30195 0.25159 0.2777 0.0
H944 H 0.23917 0.25967 0.24106 0.0
H945 H 0.2316 0.26043 0.34999 0.0
C946 C 0.20936 0.23046 0.61332 0.0
C947 C 0.18913 0.23112 0.5907 0.0
C948 C 0.22515 0.23658 0.59155 0.0
C949 C 0.22116 0.2436 0.54689 0.0
C950 C 0.20112 0.24404 0.52282 0.0
C951 C 0.18531 0.2379 0.5445 0.0
C952 C 0.23775 0.25055 0.52595 0.0
C953 C 0.24215 0.25089 0.46408 0.0
C954 C 0.24956 0.25666 0.56666 0.0
C955 C 0.24504 0.25719 0.63217 0.0
C956 C 0.2252 0.25977 0.65314 0.0
C957 C 0.22098 0.26015 0.7149 0.0
C958 C 0.23653 0.25805 0.75618 0.0
C959 C 0.25635 0.25559 0.73579 0.0
C960 C 0.26064 0.25519 0.67406 0.0
C961 C 0.29832 0.28317 0.39562 0.0
C962 C 0.31856 0.28251 0.41818 0.0
C963 C 0.28254 0.27704 0.41734 0.0
C964 C 0.28656 0.27001 0.46187 0.0
C965 C 0.3066 0.26956 0.48587 0.0
C966 C 0.32241 0.2757 0.46423 0.0
C967 C 0.26997 0.26305 0.4828 0.0
C968 C 0.26556 0.26272 0.54468 0.0
C969 C 0.25814 0.25695 0.44209 0.0
C970 C 0.26262 0.25644 0.37655 0.0
C971 C 0.28246 0.25388 0.35545 0.0
C972 C 0.28663 0.25352 0.29366 0.0
C973 C 0.27105 0.25561 0.25249 0.0
C974 C 0.25124 0.25806 0.27301 0.0
C975 C 0.24699 0.25845 0.33477 0.0
H976 H 0.27431 0.25533 0.20467 0.0
H977 H 0.23323 0.25835 0.80398 0.0
H978 H 0.94501 0.97262 0.46724 0.0
H979 H 0.97593 0.98143 0.50386 0.0
H980 H 0.95005 0.00972 0.45081 0.0
H981 H 0.91916 1.00093 0.41351 0.0
H982 H 0.98996 0.00858 0.41933 0.0
H983 H 0.95103 1.00301 0.59859 0.0
H984 H 0.93192 0.99302 0.67177 0.0
H985 H 0.98623 0.97552 0.7045 0.0
H986 H 0.00558 0.98529 0.63071 0.0
H987 H 0.05874 0.04129 0.57607 0.0
H988 H 0.02744 0.03224 0.5457 0.0
H989 H 0.0552 1.00422 0.59621 0.0
H990 H 0.08652 0.0133 0.62785 0.0
H991 H 0.01472 1.00501 0.62895 0.0
H992 H 0.05397 0.01123 0.45122 0.0
H993 H 0.07326 0.02231 0.38443 0.0
H994 H 0.01801 0.03896 0.34965 0.0
H995 H 0.9985 0.02822 0.41804 0.0
C996 C 0.94587 0.98072 0.46341 0.0
C997 C 0.92953 0.98606 0.43758 0.0
C998 C 0.96357 0.98577 0.4846 0.0
C999 C 0.96535 0.99629 0.48078 0.0
C1000 C 0.94913 1.00162 0.45439 0.0
C1001 C 0.9314 0.99658 0.43327 0.0
C1002 C 0.98408 1.00173 0.50423 0.0
C1003 C 0.9952 0.00788 0.46537 0.0
C1004 C 0.99129 1.0007 0.56402 0.0
C1005 C 0.97971 0.99482 0.6086 0.0
C1006 C 0.95886 0.99698 0.621 0.0
C1007 C 0.94799 0.99136 0.66265 0.0
C1008 C 0.95784 0.98362 0.69266 0.0
C1009 C 0.9786 0.9815 0.68115 0.0
C1010 C 0.98954 0.98708 0.63942 0.0
C1011 C 0.05818 0.03321 0.58112 0.0
C1012 C 0.07524 0.02802 0.60406 0.0
C1013 C 0.04025 0.02802 0.56356 0.0
C1014 C 0.03898 0.01749 0.5677 0.0
C1015 C 0.05575 0.01233 0.59237 0.0
C1016 C 0.0737 0.01753 0.61027 0.0
C1017 C 0.02051 0.01187 0.54415 0.0
C1018 C 0.00948 1.00568 0.58287 0.0
C1019 C 0.01336 0.01288 0.48426 0.0
C1020 C 0.0248 0.01898 0.44035 0.0
C1021 C 0.04593 0.01729 0.42961 0.0
C1022 C 0.05694 0.02354 0.39168 0.0
C1023 C 0.04689 0.03136 0.36306 0.0
C1024 C 0.02579 0.03292 0.37204 0.0
C1025 C 0.01475 0.02677 0.41052 0.0
H1026 H 0.05545 0.03619 0.33373 0.0
H1027 H 0.9494 0.97929 0.72493 0.0
H1028 H 0.68992 0.03829 0.29128 0.0
H1029 H 0.71949 0.0274 0.30974 0.0
H1030 H 0.71459 0.01463 0.12935 0.0
H1031 H 0.68486 0.02552 0.11047 0.0
H1032 H 0.7226 1.00695 0.30951 0.0
H1033 H 0.76422 0.00853 0.08053 0.0
H1034 H 0.76834 0.02011 0.99672 0.0
H1035 H 0.75711 0.04544 0.1175 0.0
H1036 H 0.7532 0.03403 0.20212 0.0
H1037 H 0.80014 0.96851 0.2823 0.0
H1038 H 0.7713 0.97967 0.25873 0.0
H1039 H 0.81052 1.00556 0.28783 0.0
H1040 H 0.83935 0.99448 0.31222 0.0
H1041 H 0.78589 1.00695 0.18403 0.0
H1042 H 0.77806 0.99998 0.39388 0.0
H1043 H 0.77484 0.98907 0.4811 0.0
H1044 H 0.71988 0.97586 0.40522 0.0
H1045 H 0.72295 0.98659 0.31703 0.0
C1046 C 0.69517 0.03323 0.25521 0.0
C1047 C 0.68495 0.03285 0.19919 0.0
C1048 C 0.71207 0.02694 0.26605 0.0
C1049 C 0.71943 0.02018 0.221 0.0
C1050 C 0.70938 0.01982 0.1648 0.0
C1051 C 0.69232 0.02606 0.15406 0.0
C1052 C 0.73745 0.01346 0.23331 0.0
C1053 C 0.73637 1.00694 0.2818 0.0
C1054 C 0.75563 0.01346 0.19783 0.0
C1055 C 0.75819 0.02041 0.14747 0.0
C1056 C 0.76269 0.01657 0.0892 0.0
C1057 C 0.76499 0.02311 0.04157 0.0
C1058 C 0.76291 0.0335 0.05174 0.0
C1059 C 0.75862 0.03739 0.10963 0.0
C1060 C 0.75634 0.03089 0.15742 0.0
C1061 C 0.80269 0.97658 0.28345 0.0
C1062 C 0.82214 0.98057 0.29934 0.0
C1063 C 0.78614 0.98296 0.27008 0.0
C1064 C 0.78865 0.99349 0.27162 0.0
C1065 C 0.80815 0.99748 0.28616 0.0
C1066 C 0.82463 0.99112 0.30037 0.0
C1067 C 0.77086 1.00035 0.2596 0.0
C1068 C 0.77202 1.00691 0.2113 0.0
C1069 C 0.7528 1.00044 0.29549 0.0
C1070 C 0.75086 0.99401 0.34857 0.0
C1071 C 0.76539 0.99469 0.39554 0.0
C1072 C 0.76357 0.98855 0.4452 0.0
C1073 C 0.74719 0.98176 0.44862 0.0
C1074 C 0.73257 0.98111 0.40245 0.0
C1075 C 0.73434 0.98723 0.35264 0.0
H1076 H 0.74581 0.97701 0.48711 0.0
H1077 H 0.76468 0.03855 0.0148 0.0
H1078 H 0.6682 0.74354 0.56636 0.0
H1079 H 0.69548 0.7546 0.53145 0.0
H1080 H 0.7414 0.73365 0.59151 0.0
H1081 H 0.71406 0.72281 0.62952 0.0
H1082 H 0.75392 0.75201 0.61719 0.0
H1083 H 0.72365 0.7358 0.4417 0.0
H1084 H 0.69332 0.73131 0.37991 0.0
H1085 H 0.68382 0.76246 0.3418 0.0
H1086 H 0.71321 0.76724 0.40707 0.0
H1087 H 0.83902 0.77186 0.45987 0.0
H1088 H 0.81152 0.76122 0.49747 0.0
H1089 H 0.76602 0.78158 0.42849 0.0
H1090 H 0.79359 0.79198 0.38795 0.0
H1091 H 0.75303 0.76361 0.40722 0.0
H1092 H 0.77987 0.78013 0.58679 0.0
H1093 H 0.80749 0.78546 0.65734 0.0
H1094 H 0.8226 0.75448 0.68608 0.0
H1095 H 0.79524 0.74899 0.6155 0.0
C1096 C 0.68411 0.74124 0.57183 0.0
C1097 C 0.68891 0.7322 0.60009 0.0
C1098 C 0.69976 0.7476 0.55179 0.0
C1099 C 0.72066 0.74493 0.5575 0.0
C1100 C 0.72547 0.73592 0.5862 0.0
C1101 C 0.7098 0.72967 0.60757 0.0
C1102 C 0.73746 0.75142 0.53296 0.0
C1103 C 0.75381 0.75443 0.57101 0.0
C1104 C 0.73721 0.75485 0.47303 0.0
C1105 C 0.72056 0.7519 0.42995 0.0
C1106 C 0.71506 0.74171 0.42042 0.0
C1107 C 0.69794 0.73911 0.38503 0.0
C1108 C 0.68671 0.74658 0.35667 0.0
C1109 C 0.69253 0.75668 0.36386 0.0
C1110 C 0.70933 0.75935 0.40049 0.0
C1111 C 0.82317 0.77414 0.45309 0.0
C1112 C 0.81858 0.78285 0.42124 0.0
C1113 C 0.80736 0.76804 0.4749 0.0
C1114 C 0.78648 0.77063 0.46714 0.0
C1115 C 0.7819 0.77936 0.43538 0.0
C1116 C 0.79772 0.78536 0.41246 0.0
C1117 C 0.7695 0.76421 0.49151 0.0
C1118 C 0.75313 0.7612 0.45338 0.0
C1119 C 0.76959 0.76085 0.55152 0.0
C1120 C 0.7856 0.76415 0.59557 0.0
C1121 C 0.78912 0.77446 0.60815 0.0
C1122 C 0.80473 0.77751 0.64816 0.0
C1123 C 0.81681 0.77032 0.6762 0.0
C1124 C 0.81324 0.76006 0.66452 0.0
C1125 C 0.79765 0.75697 0.62459 0.0
H1126 H 0.82893 0.7727 0.70696 0.0
H1127 H 0.67349 0.74454 0.32912 0.0
H1128 H 0.44186 0.7908 0.77284 0.0
H1129 H 0.47303 0.78165 0.7406 0.0
H1130 H 0.45504 0.75652 0.84686 0.0
H1131 H 0.42369 0.76558 0.87861 0.0
H1132 H 0.49644 0.76148 0.86149 0.0
H1133 H 0.44892 0.75518 0.70101 0.0
H1134 H 0.42448 0.7591 0.62016 0.0
H1135 H 0.47224 0.77453 0.52627 0.0
H1136 H 0.49684 0.77098 0.60753 0.0
H1137 H 0.56505 0.72427 0.73487 0.0
H1138 H 0.53403 0.73359 0.76638 0.0
H1139 H 0.55295 0.75864 0.66079 0.0
H1140 H 0.58419 0.7494 0.62972 0.0
H1141 H 0.51123 0.75382 0.64567 0.0
H1142 H 0.55881 0.75997 0.8065 0.0
H1143 H 0.58318 0.75583 0.88713 0.0
H1144 H 0.53511 0.74049 0.98029 0.0
H1145 H 0.51059 0.74426 0.89925 0.0
C1146 C 0.44455 0.78333 0.78951 0.0
C1147 C 0.43025 0.77893 0.82836 0.0
C1148 C 0.46236 0.77809 0.7708 0.0
C1149 C 0.46639 0.76835 0.79097 0.0
C1150 C 0.45231 0.76401 0.83062 0.0
C1151 C 0.43435 0.76919 0.84865 0.0
C1152 C 0.48528 0.76271 0.77081 0.0
C1153 C 0.49953 0.75969 0.81433 0.0
C1154 C 0.4896 0.76055 0.70914 0.0
C1155 C 0.47468 0.76293 0.6609 0.0
C1156 C 0.45415 0.75955 0.66365 0.0
C1157 C 0.44027 0.76169 0.61765 0.0
C1158 C 0.44678 0.76708 0.56819 0.0
C1159 C 0.46719 0.77037 0.56469 0.0
C1160 C 0.4811 0.76833 0.61081 0.0
C1161 C 0.5626 0.73175 0.71816 0.0
C1162 C 0.57713 0.73608 0.67972 0.0
C1163 C 0.54488 0.73709 0.73646 0.0
C1164 C 0.54115 0.74686 0.71632 0.0
C1165 C 0.55545 0.75113 0.67701 0.0
C1166 C 0.57334 0.74584 0.65937 0.0
C1167 C 0.52238 0.7526 0.73635 0.0
C1168 C 0.50815 0.75563 0.69281 0.0
C1169 C 0.51805 0.75475 0.79802 0.0
C1170 C 0.5329 0.75229 0.84627 0.0
C1171 C 0.55349 0.75558 0.84368 0.0
C1172 C 0.56734 0.75331 0.88954 0.0
C1173 C 0.56072 0.74787 0.93871 0.0
C1174 C 0.54024 0.74468 0.94208 0.0
C1175 C 0.52637 0.74686 0.8961 0.0
H1176 H 0.57144 0.74615 0.97427 0.0
H1177 H 0.43603 0.76869 0.53251 0.0
H1178 H 0.58926 0.51337 0.60513 0.0
H1179 H 0.55822 0.50425 0.57192 0.0
H1180 H 0.52952 0.53233 0.52699 0.0
H1181 H 0.56048 0.54149 0.5602 0.0
H1182 H 0.50242 0.52011 0.5841 0.0
H1183 H 0.54952 0.51703 0.41794 0.0
H1184 H 0.5826 0.51286 0.36837 0.0
H1185 H 0.57613 0.48196 0.41665 0.0
H1186 H 0.54314 0.48599 0.46738 0.0
H1187 H 0.42056 0.50031 0.40248 0.0
H1188 H 0.45188 0.50928 0.43485 0.0
H1189 H 0.47988 0.4811 0.48104 0.0
H1190 H 0.44864 0.47209 0.44867 0.0
H1191 H 0.50737 0.49326 0.42386 0.0
H1192 H 0.45931 0.49622 0.58606 0.0
H1193 H 0.42559 0.5003 0.63145 0.0
H1194 H 0.43389 0.5315 0.59243 0.0
H1195 H 0.46729 0.52752 0.54402 0.0
C1196 C 0.57631 0.51762 0.58845 0.0
C1197 C 0.57742 0.52817 0.58522 0.0
C1198 C 0.55857 0.51238 0.56922 0.0
C1199 C 0.54151 0.51757 0.54632 0.0
C1200 C 0.54243 0.52813 0.54439 0.0
C1201 C 0.5602 0.53336 0.56326 0.0
C1202 C 0.52288 0.512 0.52343 0.0
C1203 C 0.50349 0.51433 0.54854 0.0
C1204 C 0.52421 0.50429 0.47785 0.0
C1205 C 0.54396 0.50183 0.447 0.0
C1206 C 0.55523 0.50936 0.4184 0.0
C1207 C 0.57395 0.50702 0.39003 0.0
C1208 C 0.58149 0.49715 0.3895 0.0
C1209 C 0.57028 0.4896 0.41719 0.0
C1210 C 0.55157 0.49191 0.44573 0.0
C1211 C 0.43342 0.49601 0.41918 0.0
C1212 C 0.43202 0.48548 0.42317 0.0
C1213 C 0.45133 0.50116 0.43785 0.0
C1214 C 0.46826 0.4959 0.46098 0.0
C1215 C 0.46709 0.48535 0.46343 0.0
C1216 C 0.44915 0.48021 0.44508 0.0
C1217 C 0.4869 0.5014 0.48434 0.0
C1218 C 0.5063 0.49904 0.45941 0.0
C1219 C 0.48556 0.50908 0.53013 0.0
C1220 C 0.46574 0.51155 0.56072 0.0
C1221 C 0.45388 0.50394 0.58657 0.0
C1222 C 0.43481 0.50623 0.61284 0.0
C1223 C 0.42762 0.51616 0.61505 0.0
C1224 C 0.43948 0.52381 0.59069 0.0
C1225 C 0.45845 0.52153 0.56356 0.0
H1226 H 0.41287 0.51792 0.63565 0.0
H1227 H 0.59598 0.49536 0.36751 0.0
H1228 H 0.42104 0.26358 0.36685 0.0
H1229 H 0.45239 0.25455 0.33509 0.0
H1230 H 0.47705 0.28197 0.26524 0.0
H1231 H 0.4457 0.29099 0.29626 0.0
H1232 H 0.48318 0.26683 0.18653 0.0
H1233 H 0.49468 0.27212 0.39814 0.0
H1234 H 0.48688 0.2714 0.50657 0.0
H1235 H 0.48475 0.23908 0.49228 0.0
H1236 H 0.49223 0.23961 0.38351 0.0
H1237 H 0.58686 0.25011 0.1436 0.0
H1238 H 0.55575 0.25908 0.17771 0.0
H1239 H 0.53122 0.23146 0.24515 0.0
H1240 H 0.5624 0.22248 0.21177 0.0
H1241 H 0.52504 0.24663 0.32529 0.0
H1242 H 0.51346 0.24145 0.11309 0.0
H1243 H 0.52173 0.24229 1.005 0.0
H1244 H 0.52439 0.27459 0.02102 0.0
H1245 H 0.51642 0.27394 0.12945 0.0
C1246 C 0.43318 0.2677 0.34501 0.0
C1247 C 0.43083 0.27803 0.33431 0.0
C1248 C 0.45118 0.26253 0.32702 0.0
C1249 C 0.46729 0.26757 0.29811 0.0
C1250 C 0.46492 0.27788 0.28739 0.0
C1251 C 0.44697 0.28305 0.30541 0.0
C1252 C 0.48641 0.26208 0.27783 0.0
C1253 C 0.49246 0.26253 0.21718 0.0
C1254 C 0.4984 0.25625 0.31719 0.0
C1255 C 0.49378 0.25591 0.38251 0.0
C1256 C 0.49235 0.26486 0.41799 0.0
C1257 C 0.48803 0.26449 0.47954 0.0
C1258 C 0.48526 0.25521 0.50626 0.0
C1259 C 0.48686 0.24627 0.4715 0.0
C1260 C 0.49115 0.2466 0.4099 0.0
C1261 C 0.57482 0.24593 0.16547 0.0
C1262 C 0.57712 0.23555 0.17461 0.0
C1263 C 0.55696 0.25107 0.18484 0.0
C1264 C 0.54092 0.24595 0.21357 0.0
C1265 C 0.54329 0.2356 0.22312 0.0
C1266 C 0.56113 0.23046 0.20372 0.0
C1267 C 0.52177 0.25139 0.23404 0.0
C1268 C 0.51573 0.25093 0.29469 0.0
C1269 C 0.5098 0.25723 0.19473 0.0
C1270 C 0.51455 0.25764 0.12952 0.0
C1271 C 0.51597 0.24873 0.09367 0.0
C1272 C 0.52057 0.24917 0.03232 0.0
C1273 C 0.52363 0.25848 0.00619 0.0
C1274 C 0.52204 0.26738 0.04133 0.0
C1275 C 0.51747 0.26698 0.10273 0.0
H1276 H 0.52719 0.25881 0.95868 0.0
H1277 H 0.48193 0.25493 0.55393 0.0
H1278 H 0.44552 0.97198 0.97297 0.0
H1279 H 0.47646 0.98078 0.00932 0.0
H1280 H 0.45437 0.00832 0.93425 0.0
H1281 H 0.42338 0.99952 0.89735 0.0
H1282 H 0.4956 1.00587 0.91357 0.0
H1283 H 0.44998 1.00427 0.08328 0.0
H1284 H 0.42741 0.99581 0.15526 0.0
H1285 H 0.47868 0.97832 0.21551 0.0
H1286 H 0.50149 0.98653 0.143 0.0
H1287 H 0.55879 0.04084 0.06821 0.0
H1288 H 0.52776 0.0313 0.0413 0.0
H1289 H 0.55618 1.0041 0.10209 0.0
H1290 H 0.58742 0.01365 0.1297 0.0
H1291 H 0.51246 1.00599 0.13174 0.0
H1292 H 0.55694 1.00624 0.95658 0.0
H1293 H 0.58093 0.01574 0.89354 0.0
H1294 H 0.53234 0.03631 0.85094 0.0
H1295 H 0.50805 0.02687 0.91324 0.0
C1296 C 0.44727 0.9799 0.96381 0.0
C1297 C 0.43189 0.98504 0.93234 0.0
C1298 C 0.46497 0.98494 0.98491 0.0
C1299 C 0.46772 0.99527 0.97527 0.0
C1300 C 0.45265 1.00036 0.94242 0.0
C1301 C 0.43489 0.99532 0.92144 0.0
C1302 C 0.48607 1.00079 1.00056 0.0
C1303 C 0.49909 1.00593 0.96134 0.0
C1304 C 0.49104 1.00079 0.06286 0.0
C1305 C 0.47741 0.99595 0.10721 0.0
C1306 C 0.45642 0.99857 0.11154 0.0
C1307 C 0.44358 0.99382 0.15247 0.0
C1308 C 0.45159 0.98651 0.18983 0.0
C1309 C 0.47248 0.98396 0.18646 0.0
C1310 C 0.48538 0.98867 0.14545 0.0
C1311 C 0.55841 0.03285 0.07667 0.0
C1312 C 0.5757 0.02801 0.10077 0.0
C1313 C 0.54061 0.0274 0.06122 0.0
C1314 C 0.53965 0.01695 0.06914 0.0
C1315 C 0.55652 0.01215 0.09567 0.0
C1316 C 0.5744 0.01762 0.11118 0.0
C1317 C 0.52175 0.01102 0.04476 0.0
C1318 C 0.50891 1.00582 0.084 0.0
C1319 C 0.51693 0.01091 0.98261 0.0
C1320 C 0.53071 0.01585 0.93938 0.0
C1321 C 0.55134 0.01272 0.93304 0.0
C1322 C 0.565 0.0181 0.8976 0.0
C1323 C 0.55819 0.02663 0.86832 0.0
C1324 C 0.5376 0.02968 0.87341 0.0
C1325 C 0.52383 0.02427 0.90846 0.0
H1326 H 0.56891 0.03089 0.84185 0.0
H1327 H 0.44162 0.98284 0.22147 0.0
H1328 H 0.12687 0.53069 0.35948 0.0
H1329 H 0.13164 0.52874 0.468 0.0
H1330 H 0.11406 0.55977 0.50071 0.0
H1331 H 0.1097 0.56182 0.39267 0.0
H1332 H 0.14711 0.55499 0.56803 0.0
H1333 H 0.08026 0.54082 0.5256 0.0
H1334 H 0.05543 0.52952 0.47339 0.0
H1335 H 0.08856 0.50373 0.53393 0.0
H1336 H 0.11377 0.51489 0.58584 0.0
H1337 H 0.1303 0.55344 0.88432 0.0
H1338 H 0.12576 0.55538 0.77603 0.0
H1339 H 0.13939 0.52385 0.74444 0.0
H1340 H 0.14305 0.52175 0.85231 0.0
H1341 H 0.10848 0.52888 0.67606 0.0
H1342 H 0.17536 0.54284 0.71832 0.0
H1343 H 0.20053 0.55402 0.77012 0.0
H1344 H 0.16799 0.57998 0.70951 0.0
H1345 H 0.14245 0.56895 0.65798 0.0
C1346 C 0.12418 0.53711 0.38971 0.0
C1347 C 0.11772 0.54638 0.36716 0.0
C1348 C 0.12676 0.53597 0.45185 0.0
C1349 C 0.12298 0.54408 0.49278 0.0
C1350 C 0.11699 0.55339 0.47022 0.0
C1351 C 0.11431 0.55452 0.4083 0.0
C1352 C 0.12509 0.5429 0.5591 0.0
C1353 C 0.13848 0.54935 0.59175 0.0
C1354 C 0.11419 0.53542 0.59009 0.0
C1355 C 0.09902 0.52869 0.55906 0.0
C1356 C 0.08235 0.53274 0.52736 0.0
C1357 C 0.06819 0.52636 0.49791 0.0
C1358 C 0.07045 0.51591 0.5002 0.0
C1359 C 0.08685 0.51182 0.53211 0.0
C1360 C 0.10107 0.51817 0.56159 0.0
C1361 C 0.13214 0.54689 0.85452 0.0
C1362 C 0.13721 0.53744 0.8776 0.0
C1363 C 0.12975 0.54804 0.79234 0.0
C1364 C 0.13254 0.5398 0.75163 0.0
C1365 C 0.13725 0.53035 0.77463 0.0
C1366 C 0.13955 0.52918 0.83666 0.0
C1367 C 0.13054 0.54096 0.68517 0.0
C1368 C 0.11716 0.53451 0.65243 0.0
C1369 C 0.14152 0.54842 0.65407 0.0
C1370 C 0.15688 0.55507 0.68482 0.0
C1371 C 0.17349 0.55093 0.71642 0.0
C1372 C 0.18783 0.55724 0.74566 0.0
C1373 C 0.18583 0.5677 0.74324 0.0
C1374 C 0.1695 0.57187 0.71142 0.0
C1375 C 0.1551 0.5656 0.68215 0.0
H1376 H 0.19695 0.57257 0.76591 0.0
H1377 H 0.05947 0.51098 0.47738 0.0
H1378 H 0.14645 0.72593 0.90754 0.0
H1379 H 0.15152 0.72772 0.79919 0.0
H1380 H 0.09098 0.71544 0.76506 0.0
H1381 H 0.08566 0.71375 0.87281 0.0
H1382 H 0.11903 0.70671 0.691 0.0
H1383 H 0.10111 0.74021 0.75754 0.0
H1384 H 0.10388 0.75628 0.81573 0.0
H1385 H 0.1635 0.76148 0.73878 0.0
H1386 H 0.16149 0.74525 0.68204 0.0
H1387 H 0.10861 0.71896 0.38187 0.0
H1388 H 0.10411 0.71734 0.49049 0.0
H1389 H 0.16365 0.73098 0.52166 0.0
H1390 H 0.16819 0.73264 0.41331 0.0
H1391 H 0.13645 0.739 0.59736 0.0
H1392 H 0.15537 0.70529 0.53523 0.0
H1393 H 0.15273 0.68938 0.47521 0.0
H1394 H 0.09131 0.68494 0.54139 0.0
H1395 H 0.09348 0.7009 0.6012 0.0
C1396 C 0.13409 0.72373 0.87718 0.0
C1397 C 0.11565 0.71964 0.89938 0.0
C1398 C 0.13705 0.72474 0.81507 0.0
C1399 C 0.12162 0.72174 0.77377 0.0
C1400 C 0.10318 0.71775 0.79584 0.0
C1401 C 0.10019 0.71676 0.85772 0.0
C1402 C 0.12469 0.72255 0.7075 0.0
C1403 C 0.12263 0.7138 0.67053 0.0
C1404 C 0.12984 0.73175 0.68066 0.0
C1405 C 0.13128 0.7414 0.71619 0.0
C1406 C 0.11499 0.74468 0.75384 0.0
C1407 C 0.11642 0.75383 0.7866 0.0
C1408 C 0.13393 0.75986 0.78136 0.0
C1409 C 0.15002 0.75676 0.74324 0.0
C1410 C 0.14877 0.74757 0.71092 0.0
C1411 C 0.12086 0.72149 0.41171 0.0
C1412 C 0.13877 0.72594 0.38863 0.0
C1413 C 0.11826 0.72058 0.47398 0.0
C1414 C 0.13361 0.72397 0.51455 0.0
C1415 C 0.15153 0.72835 0.49151 0.0
C1416 C 0.15409 0.72931 0.42942 0.0
C1417 C 0.13089 0.72317 0.58101 0.0
C1418 C 0.13296 0.73191 0.61797 0.0
C1419 C 0.12583 0.71396 0.60792 0.0
C1420 C 0.12452 0.70434 0.57224 0.0
C1421 C 0.14125 0.70096 0.53664 0.0
C1422 C 0.13984 0.69192 0.50271 0.0
C1423 C 0.12184 0.68616 0.50436 0.0
C1424 C 0.10523 0.68941 0.54009 0.0
C1425 C 0.10655 0.69845 0.57405 0.0
H1426 H 0.12078 0.67917 0.47806 0.0
H1427 H 0.13498 0.76696 0.80657 0.0
H1428 H 0.89912 0.45285 0.62367 0.0
H1429 H 0.89461 0.45484 0.51579 0.0
H1430 H 0.87806 0.48603 0.54787 0.0
H1431 H 0.8824 0.48404 0.65652 0.0
H1432 H 0.85344 0.47775 0.46505 0.0
H1433 H 0.92656 0.47882 0.49385 0.0
H1434 H 0.96038 0.47288 0.52903 0.0
H1435 H 0.95408 0.44581 0.41933 0.0
H1436 H 0.92008 0.45153 0.3841 0.0
H1437 H 0.86625 0.49295 0.16409 0.0
H1438 H 0.87008 0.49081 0.27191 0.0
H1439 H 0.8826 0.45919 0.24025 0.0
H1440 H 0.87847 0.46122 0.13172 0.0
H1441 H 0.90924 0.4677 0.32243 0.0
H1442 H 0.83598 0.46692 0.29321 0.0
H1443 H 0.80242 0.47316 0.25778 0.0
H1444 H 0.80946 0.5001 0.36815 0.0
H1445 H 0.84321 0.4941 0.40361 0.0
C1446 C 0.8947 0.46017 0.60794 0.0
C1447 C 0.89138 0.46832 0.64898 0.0
C1448 C 0.89211 0.4613 0.546 0.0
C1449 C 0.88638 0.47064 0.52322 0.0
C1450 C 0.88257 0.47875 0.56413 0.0
C1451 C 0.88503 0.4776 0.62633 0.0
C1452 C 0.88433 0.4719 0.45685 0.0
C1453 C 0.86578 0.47569 0.43403 0.0
C1454 C 0.90021 0.46901 0.41586 0.0
C1455 C 0.92068 0.46556 0.43678 0.0
C1456 C 0.93232 0.47157 0.47757 0.0
C1457 C 0.95153 0.46824 0.49746 0.0
C1458 C 0.95935 0.45896 0.47655 0.0
C1459 C 0.94799 0.45299 0.43555 0.0
C1460 C 0.92876 0.45628 0.41556 0.0
C1461 C 0.86957 0.4855 0.17967 0.0
C1462 C 0.87184 0.47724 0.13862 0.0
C1463 C 0.87182 0.4843 0.24167 0.0
C1464 C 0.87636 0.47481 0.2645 0.0
C1465 C 0.87906 0.46658 0.2238 0.0
C1466 C 0.87675 0.46777 0.1616 0.0
C1467 C 0.87838 0.47354 0.33077 0.0
C1468 C 0.89693 0.46976 0.35353 0.0
C1469 C 0.86254 0.47649 0.3717 0.0
C1470 C 0.84222 0.4801 0.35062 0.0
C1471 C 0.83045 0.47421 0.30957 0.0
C1472 C 0.81138 0.4777 0.28954 0.0
C1473 C 0.80384 0.48703 0.31058 0.0
C1474 C 0.81533 0.49288 0.35183 0.0
C1475 C 0.83442 0.48944 0.37195 0.0
H1476 H 0.78907 0.48972 0.29502 0.0
H1477 H 0.97422 0.4564 0.49201 0.0
H1478 H 0.92563 0.29567 0.13709 0.0
H1479 H 0.92038 0.29419 0.2455 0.0
H1480 H 0.85496 0.2909 0.2166 0.0
H1481 H 0.86015 0.29244 0.10778 0.0
H1482 H 0.86396 0.30461 0.30956 0.0
H1483 H 0.88252 0.27087 0.25116 0.0
H1484 H 0.90357 0.25741 0.20289 0.0
H1485 H 0.95495 0.26581 0.31559 0.0
H1486 H 0.93428 0.27944 0.36397 0.0
H1487 H 0.83796 0.28706 0.60031 0.0
H1488 H 0.84337 0.2885 0.49178 0.0
H1489 H 0.90831 0.29336 0.52236 0.0
H1490 H 0.9029 0.29198 0.63133 0.0
H1491 H 0.89962 0.27887 0.42885 0.0
H1492 H 0.88084 0.31262 0.48725 0.0
H1493 H 0.85956 0.32598 0.53572 0.0
H1494 H 0.8083 0.31739 0.42301 0.0
H1495 H 0.8292 0.30386 0.37445 0.0
C1496 C 0.91012 0.29463 0.15377 0.0
C1497 C 0.89331 0.29418 0.11372 0.0
C1498 C 0.90715 0.29372 0.21577 0.0
C1499 C 0.88728 0.29239 0.23934 0.0
C1500 C 0.87044 0.29191 0.19951 0.0
C1501 C 0.87343 0.29271 0.13728 0.0
C1502 C 0.88414 0.29171 0.30562 0.0
C1503 C 0.87151 0.29888 0.33548 0.0
C1504 C 0.8944 0.28441 0.33984 0.0
C1505 C 0.90692 0.27625 0.31073 0.0
C1506 C 0.89837 0.26992 0.26526 0.0
C1507 C 0.91022 0.26224 0.23796 0.0
C1508 C 0.93061 0.26078 0.25604 0.0
C1509 C 0.93917 0.26697 0.30156 0.0
C1510 C 0.92739 0.27467 0.32897 0.0
C1511 C 0.85338 0.28845 0.58389 0.0
C1512 C 0.86999 0.28942 0.62438 0.0
C1513 C 0.85645 0.28932 0.5219 0.0
C1514 C 0.87623 0.29107 0.49886 0.0
C1515 C 0.8929 0.29202 0.53911 0.0
C1516 C 0.88978 0.29131 0.60136 0.0
C1517 C 0.87945 0.29176 0.43268 0.0
C1518 C 0.89208 0.28459 0.40288 0.0
C1519 C 0.86917 0.29905 0.3985 0.0
C1520 C 0.85652 0.30715 0.42768 0.0
C1521 C 0.86496 0.31351 0.47321 0.0
C1522 C 0.85298 0.32113 0.50061 0.0
C1523 C 0.83257 0.32251 0.48258 0.0
C1524 C 0.82411 0.31629 0.437 0.0
C1525 C 0.83602 0.30865 0.40949 0.0
H1526 H 0.82333 0.32842 0.50383 0.0
H1527 H 0.93975 0.25482 0.23488 0.0
H1528 H 0.10239 0.04261 0.40006 0.0
H1529 H 0.09757 0.04401 0.29097 0.0
H1530 H 0.15892 0.03237 0.26028 0.0
H1531 H 0.16381 0.03104 0.36889 0.0
H1532 H 0.15194 0.04846 0.19293 0.0
H1533 H 0.11724 0.01779 0.23528 0.0
H1534 H 0.09237 1.00639 0.28199 0.0
H1535 H 0.04208 0.02377 0.21448 0.0
H1536 H 0.06665 0.03541 0.1684 0.0
H1537 H 0.14458 0.03881 0.87617 0.0
H1538 H 0.14863 0.03652 0.98452 0.0
H1539 H 0.08706 0.04786 0.0151 0.0
H1540 H 0.08272 0.0499 0.90706 0.0
H1541 H 0.09418 0.03183 0.08233 0.0
H1542 H 0.12944 0.06276 0.04209 0.0
H1543 H 0.15461 0.07343 0.99077 0.0
H1544 H 0.20417 0.05494 0.05234 0.0
H1545 H 0.17925 0.04408 0.10341 0.0
C1546 C 0.11489 0.04044 0.37002 0.0
C1547 C 0.1335 0.03672 0.39313 0.0
C1548 C 0.11206 0.04115 0.30764 0.0
C1549 C 0.12784 0.03823 0.2672 0.0
C1550 C 0.1465 0.03466 0.29039 0.0
C1551 C 0.14924 0.03384 0.35251 0.0
C1552 C 0.12515 0.03901 0.20079 0.0
C1553 C 0.13942 0.04472 0.16873 0.0
C1554 C 0.10863 0.03429 0.16908 0.0
C1555 C 0.09382 0.02755 0.19892 0.0
C1556 C 0.10089 0.01927 0.23108 0.0
C1557 C 0.08684 0.01273 0.25721 0.0
C1558 C 0.06566 0.01433 0.25098 0.0
C1559 C 0.05849 0.02251 0.21901 0.0
C1560 C 0.07247 0.0291 0.19303 0.0
C1561 C 0.13182 0.04071 0.90583 0.0
C1562 C 0.11337 0.04463 0.8827 0.0
C1563 C 0.13422 0.03948 0.96793 0.0
C1564 C 0.11825 0.04216 0.00828 0.0
C1565 C 0.09965 0.04579 0.98509 0.0
C1566 C 0.09726 0.04704 0.92318 0.0
C1567 C 0.12091 0.0413 0.07467 0.0
C1568 C 0.10664 0.03558 0.10668 0.0
C1569 C 0.13745 0.04599 0.10637 0.0
C1570 C 0.15246 0.05255 0.07606 0.0
C1571 C 0.14569 0.06093 0.04432 0.0
C1572 C 0.15991 0.06702 0.01534 0.0
C1573 C 0.18097 0.06485 0.01816 0.0
C1574 C 0.18785 0.0566 0.05013 0.0
C1575 C 0.17369 0.05048 0.07914 0.0
H1576 H 0.19196 0.06957 0.99568 0.0
H1577 H 0.05481 0.00925 0.2712 0.0
H1578 H 0.08447 0.21376 0.36523 0.0
H1579 H 0.08986 0.21531 0.25732 0.0
H1580 H 0.15129 0.22653 0.29087 0.0
H1581 H 0.14608 0.22491 0.39934 0.0
H1582 H 0.13172 0.23727 0.20557 0.0
H1583 H 0.14363 0.20228 0.24125 0.0
H1584 H 0.13528 0.18552 0.27917 0.0
H1585 H 0.08163 0.18395 0.16601 0.0
H1586 H 0.0895 0.20078 0.12802 0.0
H1587 H 0.1673 0.23219 0.90476 0.0
H1588 H 0.16291 0.23051 0.0132 0.0
H1589 H 0.10294 0.21727 0.98281 0.0
H1590 H 0.10745 0.2188 0.87397 0.0
H1591 H 0.1222 0.20752 0.06719 0.0
H1592 H 0.10955 0.24244 0.03247 0.0
H1593 H 0.11722 0.2593 0.9948 0.0
H1594 H 0.1713 0.26116 0.10612 0.0
H1595 H 0.1641 0.24424 0.14387 0.0
C1596 C 0.09921 0.21649 0.34991 0.0
C1597 C 0.11491 0.2191 0.39138 0.0
C1598 C 0.10226 0.21739 0.28797 0.0
C1599 C 0.12111 0.22088 0.26568 0.0
C1600 C 0.13663 0.22379 0.30689 0.0
C1601 C 0.13359 0.22288 0.36903 0.0
C1602 C 0.12459 0.22144 0.19944 0.0
C1603 C 0.12994 0.23073 0.17542 0.0
C1604 C 0.12176 0.21298 0.15971 0.0
C1605 C 0.11706 0.20283 0.18221 0.0
C1606 C 0.12997 0.19839 0.22478 0.0
C1607 C 0.12534 0.18888 0.24624 0.0
C1608 C 0.10791 0.18368 0.22512 0.0
C1609 C 0.09511 0.18799 0.18238 0.0
C1610 C 0.09966 0.19751 0.16083 0.0
C1611 C 0.15315 0.22894 0.92115 0.0
C1612 C 0.13767 0.22569 0.8806 0.0
C1613 C 0.15062 0.228 0.98329 0.0
C1614 C 0.1324 0.22394 0.00663 0.0
C1615 C 0.11712 0.22045 0.96614 0.0
C1616 C 0.11973 0.2213 0.90381 0.0
C1617 C 0.1293 0.22337 0.07312 0.0
C1618 C 0.12401 0.21407 0.09725 0.0
C1619 C 0.13209 0.23184 0.11293 0.0
C1620 C 0.13639 0.24204 0.09055 0.0
C1621 C 0.12316 0.24642 0.0486 0.0
C1622 C 0.12741 0.25599 0.02728 0.0
C1623 C 0.14476 0.26129 0.04794 0.0
C1624 C 0.15787 0.25704 0.0901 0.0
C1625 C 0.15371 0.24746 0.11151 0.0
H1626 H 0.14802 0.26869 0.03138 0.0
H1627 H 0.10435 0.17632 0.24179 0.0
H1628 H 0.92185 0.96028 0.11134 0.0
H1629 H 0.91628 0.96002 1.0026 0.0
H1630 H 0.86167 0.97824 0.02841 0.0
H1631 H 0.86705 0.97837 0.13768 0.0
H1632 H 0.85466 0.96425 0.94506 0.0
H1633 H 0.90905 0.98808 0.98179 0.0
H1634 H 0.94265 0.9942 0.01981 0.0
H1635 H 0.97378 0.97188 0.90878 0.0
H1636 H 0.94034 0.96552 0.87078 0.0
H1637 H 0.84467 0.98293 0.65379 0.0
H1638 H 0.85074 0.981 0.75994 0.0
H1639 H 0.90079 0.96052 0.7198 0.0
H1640 H 0.89491 0.96232 0.61212 0.0
H1641 H 0.91077 0.9747 0.8087 0.0
H1642 H 0.85546 0.9515 0.76893 0.0
H1643 H 0.82151 0.94617 0.72947 0.0
H1644 H 0.79176 0.96825 0.84538 0.0
H1645 H 0.82556 0.97382 0.88494 0.0
C1646 C 0.90869 0.96426 0.09389 0.0
C1647 C 0.895 0.96943 0.13322 0.0
C1648 C 0.90553 0.96412 0.03158 0.0
C1649 C 0.88879 0.96929 0.0069 0.0
C1650 C 0.87476 0.97422 0.04618 0.0
C1651 C 0.87781 0.97428 0.1087 0.0
C1652 C 0.88597 0.96956 0.94025 0.0
C1653 C 0.86688 0.96665 0.91543 0.0
C1654 C 0.90204 0.97245 0.90103 0.0
C1655 C 0.92217 0.97624 0.92401 0.0
C1656 C 0.92305 0.98441 0.9659 0.0
C1657 C 0.94207 0.98793 0.98738 0.0
C1658 C 0.96033 0.98341 0.96688 0.0
C1659 C 0.95962 0.97537 0.92473 0.0
C1660 C 0.94064 0.9718 0.90321 0.0
C1661 C 0.85692 0.97792 0.66641 0.0
C1662 C 0.86918 0.97276 0.62282 0.0
C1663 C 0.86033 0.97683 0.72791 0.0
C1664 C 0.87603 0.97052 0.74805 0.0
C1665 C 0.88851 0.96541 0.70529 0.0
C1666 C 0.88507 0.96647 0.64341 0.0
C1667 C 0.87947 0.96945 0.81385 0.0
C1668 C 0.89864 0.97223 0.83844 0.0
C1669 C 0.86344 0.96652 0.85291 0.0
C1670 C 0.84307 0.96313 0.82957 0.0
C1671 C 0.84169 0.95527 0.78571 0.0
C1672 C 0.82247 0.9522 0.76337 0.0
C1673 C 0.80449 0.95688 0.78482 0.0
C1674 C 0.8057 0.96464 0.82878 0.0
C1675 C 0.82488 0.96774 0.85123 0.0
H1676 H 0.78962 0.95449 0.76745 0.0
H1677 H 0.97504 0.98615 0.98353 0.0
H1678 H 0.89952 0.79588 0.13719 0.0
H1679 H 0.90379 0.79756 0.02849 0.0
H1680 H 0.84438 0.78373 0.99805 0.0
H1681 H 0.84016 0.78195 0.10646 0.0
H1682 H 0.87111 0.77583 0.92194 0.0
H1683 H 0.85276 0.8096 0.98426 0.0
H1684 H 0.85567 0.82551 0.04418 0.0
H1685 H 0.91706 0.82977 0.97728 0.0
H1686 H 0.91461 0.81381 0.91755 0.0
H1687 H 0.86133 0.78889 0.6116 0.0
H1688 H 0.85615 0.78713 0.71995 0.0
H1689 H 0.91688 0.79919 0.75426 0.0
H1690 H 0.92229 0.80085 0.64653 0.0
H1691 H 0.88896 0.80805 0.82811 0.0
H1692 H 0.90623 0.7744 0.76174 0.0
H1693 H 0.90299 0.75836 0.7035 0.0
H1694 H 0.84321 0.75358 0.78039 0.0
H1695 H 0.84568 0.76979 0.83717 0.0
C1696 C 0.88725 0.79332 0.10743 0.0
C1697 C 0.86949 0.78877 0.13066 0.0
C1698 C 0.88971 0.79428 0.04515 0.0
C1699 C 0.87433 0.79085 1.00476 0.0
C1700 C 0.85652 0.7864 0.02802 0.0
C1701 C 0.85413 0.78537 0.09012 0.0
C1702 C 0.87694 0.79165 0.93826 0.0
C1703 C 0.87468 0.78292 0.90132 0.0
C1704 C 0.8821 0.80083 0.91127 0.0
C1705 C 0.88357 0.81046 0.94688 0.0
C1706 C 0.86693 0.81389 0.98266 0.0
C1707 C 0.86849 0.82292 0.01654 0.0
C1708 C 0.88656 0.82863 0.01466 0.0
C1709 C 0.90308 0.82533 0.97875 0.0
C1710 C 0.90161 0.8163 0.94483 0.0
C1711 C 0.8737 0.79105 0.64201 0.0
C1712 C 0.89222 0.79507 0.61989 0.0
C1713 C 0.87069 0.79006 0.70412 0.0
C1714 C 0.88614 0.79302 0.74546 0.0
C1715 C 0.90466 0.79693 0.72345 0.0
C1716 C 0.9077 0.7979 0.66158 0.0
C1717 C 0.88303 0.79224 0.81172 0.0
C1718 C 0.88526 0.80098 0.84864 0.0
C1719 C 0.87773 0.78306 0.8386 0.0
C1720 C 0.87602 0.77342 0.80308 0.0
C1721 C 0.89222 0.77003 0.76543 0.0
C1722 C 0.89052 0.7609 0.73264 0.0
C1723 C 0.87283 0.75499 0.73783 0.0
C1724 C 0.85682 0.7582 0.77594 0.0
C1725 C 0.85834 0.76738 0.8083 0.0
H1726 H 0.87158 0.7479 0.7126 0.0
H1727 H 0.88774 0.83562 0.04093 0.0
H1728 H 0.64659 0.53959 0.86223 0.0
H1729 H 0.65165 0.53782 0.97057 0.0
H1730 H 0.58976 0.54852 1.00374 0.0
H1731 H 0.58458 0.55027 0.89582 0.0
H1732 H 0.61608 0.55764 0.08014 0.0
H1733 H 0.60271 0.52335 0.01331 0.0
H1734 H 0.6084 0.50788 0.95087 0.0
H1735 H 0.67039 0.50591 0.01732 0.0
H1736 H 0.66515 0.52143 0.07962 0.0
H1737 H 0.60695 0.54465 0.38747 0.0
H1738 H 0.60249 0.54631 0.2788 0.0
H1739 H 0.66307 0.53369 0.24822 0.0
H1740 H 0.66736 0.53185 0.35664 0.0
H1741 H 0.63798 0.52563 0.16992 0.0
H1742 H 0.65196 0.55964 0.23672 0.0
H1743 H 0.64717 0.57527 0.29827 0.0
H1744 H 0.58542 0.57808 0.23114 0.0
H1745 H 0.58975 0.56238 0.16977 0.0
C1746 C 0.63396 0.54145 0.89243 0.0
C1747 C 0.61518 0.5451 0.86997 0.0
C1748 C 0.63689 0.54045 0.95453 0.0
C1749 C 0.62105 0.54299 0.99558 0.0
C1750 C 0.60227 0.54657 0.97321 0.0
C1751 C 0.59935 0.54758 0.91129 0.0
C1752 C 0.62403 0.54208 0.06186 0.0
C1753 C 0.62062 0.5506 0.09982 0.0
C1754 C 0.63049 0.53299 0.08767 0.0
C1755 C 0.6336 0.5236 0.05068 0.0
C1756 C 0.6176 0.51965 0.01429 0.0
C1757 C 0.62074 0.51087 0.97898 0.0
C1758 C 0.63976 0.50593 0.98001 0.0
C1759 C 0.65567 0.50975 0.01652 0.0
C1760 C 0.65262 0.51853 0.05188 0.0
C1761 C 0.6194 0.54235 0.35763 0.0
C1762 C 0.63754 0.53815 0.3808 0.0
C1763 C 0.61685 0.54329 0.29537 0.0
C1764 C 0.63254 0.54024 0.25491 0.0
C1765 C 0.65069 0.53608 0.27816 0.0
C1766 C 0.65314 0.53503 0.34025 0.0
C1767 C 0.62998 0.54119 0.18841 0.0
C1768 C 0.63346 0.53268 0.15035 0.0
C1769 C 0.62372 0.55032 0.16245 0.0
C1770 C 0.62111 0.55978 0.1991 0.0
C1771 C 0.63731 0.56355 0.23541 0.0
C1772 C 0.63469 0.57243 0.27022 0.0
C1773 C 0.61599 0.57765 0.26874 0.0
C1774 C 0.59989 0.57402 0.23231 0.0
C1775 C 0.60242 0.56514 0.19746 0.0
H1776 H 0.61399 0.58452 0.29573 0.0
H1777 H 0.64216 0.49914 0.95261 0.0
H1778 H 0.62963 0.71021 0.87674 0.0
H1779 H 0.62607 0.70767 0.9849 0.0
H1780 H 0.64005 0.739 0.02157 0.0
H1781 H 0.64311 0.7417 0.91414 0.0
H1782 H 0.66254 0.72576 0.09275 0.0
H1783 H 0.59187 0.73047 0.02607 0.0
H1784 H 0.56174 0.72588 0.96327 0.0
H1785 H 0.56005 0.69663 0.03965 0.0
H1786 H 0.59065 0.70087 0.10126 0.0
H1787 H 0.6334 0.73193 0.40205 0.0
H1788 H 0.63934 0.73309 0.29364 0.0
H1789 H 0.61324 0.70346 0.26415 0.0
H1790 H 0.60737 0.70224 0.37184 0.0
H1791 H 0.59727 0.71505 0.1874 0.0
H1792 H 0.66508 0.70818 0.24827 0.0
H1793 H 0.69906 0.70905 0.29772 0.0
H1794 H 0.70926 0.73836 0.22724 0.0
H1795 H 0.67511 0.73778 0.1785 0.0
C1796 C 0.63172 0.7166 0.9076 0.0
C1797 C 0.63674 0.72616 0.88611 0.0
C1798 C 0.62976 0.71511 0.96956 0.0
C1799 C 0.63276 0.72315 0.01137 0.0
C1800 C 0.63778 0.73268 0.99019 0.0
C1801 C 0.63961 0.73418 0.92844 0.0
C1802 C 0.63087 0.72171 0.07731 0.0
C1803 C 0.6482 0.72358 0.11382 0.0
C1804 C 0.61242 0.71838 0.10412 0.0
C1805 C 0.59371 0.71596 0.06792 0.0
C1806 C 0.5852 0.72303 0.02915 0.0
C1807 C 0.56802 0.72049 0.9938 0.0
C1808 C 0.55896 0.711 0.99761 0.0
C1809 C 0.56708 0.70399 0.03673 0.0
C1810 C 0.58438 0.70644 0.07177 0.0
C1811 C 0.62914 0.72561 0.37263 0.0
C1812 C 0.61963 0.71704 0.39602 0.0
C1813 C 0.63258 0.72628 0.31047 0.0
C1814 C 0.62673 0.71836 0.27032 0.0
C1815 C 0.61771 0.70972 0.29383 0.0
C1816 C 0.61425 0.70906 0.35571 0.0
C1817 C 0.62896 0.71925 0.20371 0.0
C1818 C 0.61167 0.71729 0.16688 0.0
C1819 C 0.64768 0.72217 0.17633 0.0
C1820 C 0.66738 0.72298 0.21022 0.0
C1821 C 0.67437 0.7149 0.24424 0.0
C1822 C 0.69374 0.71531 0.27181 0.0
C1823 C 0.70637 0.72372 0.26521 0.0
C1824 C 0.69952 0.73181 0.2319 0.0
C1825 C 0.68011 0.73147 0.20454 0.0
H1826 H 0.7214 0.724 0.28637 0.0
H1827 H 0.54564 0.70907 0.97023 0.0
H1828 H 0.36285 0.47503 0.14821 0.0
H1829 H 0.35821 0.47708 0.03995 0.0
H1830 H 0.419 0.46494 0.00691 0.0
H1831 H 0.42401 0.46319 0.11486 0.0
H1832 H 0.41266 0.48063 0.93843 0.0
H1833 H 0.37502 0.45062 0.98314 0.0
H1834 H 0.34933 0.44052 0.03639 0.0
H1835 H 0.30089 0.45981 0.97603 0.0
H1836 H 0.32634 0.47011 0.92305 0.0
H1837 H 0.40241 0.46942 0.6234 0.0
H1838 H 0.40688 0.46786 0.73234 0.0
H1839 H 0.34719 0.48142 0.76299 0.0
H1840 H 0.34257 0.48288 0.65429 0.0
H1841 H 0.35268 0.46511 0.83243 0.0
H1842 H 0.38985 0.49547 0.79232 0.0
H1843 H 0.41523 0.50611 0.74173 0.0
H1844 H 0.46402 0.48625 0.79286 0.0
H1845 H 0.43889 0.47552 0.8442 0.0
C1846 C 0.37534 0.4729 0.11807 0.0
C1847 C 0.39376 0.46886 0.14059 0.0
C1848 C 0.37258 0.47398 0.05597 0.0
C1849 C 0.38813 0.47101 0.01492 0.0
C1850 C 0.40671 0.46723 0.03743 0.0
C1851 C 0.40948 0.46615 0.09936 0.0
C1852 C 0.38511 0.47178 0.94855 0.0
C1853 C 0.39968 0.47711 0.91525 0.0
C1854 C 0.36795 0.4674 0.91809 0.0
C1855 C 0.35261 0.46119 0.94965 0.0
C1856 C 0.35891 0.45275 0.9816 0.0
C1857 C 0.34439 0.44698 0.01167 0.0
C1858 C 0.3235 0.44953 0.00973 0.0
C1859 C 0.31708 0.45785 0.97757 0.0
C1860 C 0.33154 0.46365 0.94747 0.0
C1861 C 0.39016 0.47198 0.6533 0.0
C1862 C 0.37214 0.4763 0.63008 0.0
C1863 C 0.39281 0.47117 0.71564 0.0
C1864 C 0.37745 0.47461 0.75607 0.0
C1865 C 0.35929 0.47873 0.73286 0.0
C1866 C 0.35672 0.47962 0.67068 0.0
C1867 C 0.38026 0.47392 0.82249 0.0
C1868 C 0.36567 0.46861 0.85571 0.0
C1869 C 0.39737 0.47831 0.85294 0.0
C1870 C 0.41249 0.48465 0.82152 0.0
C1871 C 0.40598 0.49333 0.79239 0.0
C1872 C 0.42032 0.4994 0.76379 0.0
C1873 C 0.44122 0.49683 0.7638 0.0
C1874 C 0.44783 0.48822 0.79279 0.0
C1875 C 0.43355 0.48216 0.82185 0.0
H1876 H 0.4523 0.50153 0.74149 0.0
H1877 H 0.31228 0.44506 0.03304 0.0
H1878 H 0.37974 0.30283 0.13498 0.0
H1879 H 0.38435 0.30476 0.02678 0.0
H1880 H 0.36835 0.27352 0.99459 0.0
H1881 H 0.36469 0.2714 0.10237 0.0
H1882 H 0.3994 0.27796 0.9259 0.0
H1883 H 0.33383 0.29337 0.96939 0.0
H1884 H 0.30976 0.30507 0.0218 0.0
H1885 H 0.34461 0.33031 0.96144 0.0
H1886 H 0.36905 0.31874 0.90929 0.0
H1887 H 0.38118 0.28037 0.60969 0.0
H1888 H 0.37636 0.27843 0.71813 0.0
H1889 H 0.39607 0.30913 0.75143 0.0
H1890 H 0.40042 0.31119 0.64346 0.0
H1891 H 0.36301 0.30496 0.81908 0.0
H1892 H 0.42851 0.28937 0.77535 0.0
H1893 H 0.45224 0.27756 0.72241 0.0
H1894 H 0.41689 0.25248 0.78277 0.0
H1895 H 0.39278 0.26416 0.83542 0.0
C1896 C 0.37739 0.29633 0.10511 0.0
C1897 C 0.37169 0.28697 0.12806 0.0
C1898 C 0.37982 0.29748 0.04294 0.0
C1899 C 0.37639 0.28933 1.00207 0.0
C1900 C 0.37101 0.27995 0.0249 0.0
C1901 C 0.3687 0.27878 0.08692 0.0
C1902 C 0.37843 0.2905 0.93562 0.0
C1903 C 0.39121 0.28379 0.90253 0.0
C1904 C 0.3681 0.29822 0.90485 0.0
C1905 C 0.35338 0.30519 0.93595 0.0
C1906 C 0.33644 0.30141 0.96766 0.0
C1907 C 0.32272 0.30802 0.99726 0.0
C1908 C 0.32569 0.31843 0.99509 0.0
C1909 C 0.34235 0.32225 0.96316 0.0
C1910 C 0.35613 0.31567 0.93353 0.0
C1911 C 0.38433 0.28673 0.64001 0.0
C1912 C 0.39137 0.29591 0.6176 0.0
C1913 C 0.38172 0.28559 0.70213 0.0
C1914 C 0.38609 0.2936 0.74322 0.0
C1915 C 0.39268 0.30282 0.72083 0.0
C1916 C 0.39535 0.30395 0.65891 0.0
C1917 C 0.38394 0.29241 0.80953 0.0
C1918 C 0.37116 0.29912 0.84253 0.0
C1919 C 0.3942 0.28467 0.84018 0.0
C1920 C 0.40873 0.27764 0.8088 0.0
C1921 C 0.42571 0.28134 0.77694 0.0
C1922 C 0.43924 0.27467 0.74706 0.0
C1923 C 0.43604 0.26428 0.74909 0.0
C1924 C 0.41933 0.26053 0.78116 0.0
C1925 C 0.40574 0.26717 0.81107 0.0
H1926 H 0.44653 0.25912 0.72592 0.0
H1927 H 0.31505 0.32353 0.01804 0.0
H1928 H 0.62186 0.06097 0.39217 0.0
H1929 H 0.62421 0.05773 0.49904 0.0
H1930 H 0.6157 0.02594 0.46073 0.0
H1931 H 0.61286 0.02921 0.35263 0.0
H1932 H 0.59167 0.0328 0.55535 0.0
H1933 H 0.66248 0.03469 0.50081 0.0
H1934 H 0.69338 0.04189 0.45406 0.0
H1935 H 0.68804 0.06838 0.5693 0.0
H1936 H 0.65689 0.06141 0.6161 0.0
H1937 H 0.62198 0.0199 0.85465 0.0
H1938 H 0.61768 0.02146 0.74588 0.0
H1939 H 0.62447 0.0537 0.7663 0.0
H1940 H 0.62879 0.05215 0.87552 0.0
H1941 H 0.65044 0.04536 0.67951 0.0
H1942 H 0.57496 0.04559 0.70731 0.0
H1943 H 0.54158 0.03949 0.74495 0.0
H1944 H 0.55642 0.00943 0.68161 0.0
H1945 H 0.58957 0.01548 0.64151 0.0
C1946 C 0.62031 0.05329 0.40622 0.0
C1947 C 0.61696 0.04536 0.36368 0.0
C1948 C 0.62191 0.05143 0.4675 0.0
C1949 C 0.62035 0.04158 0.48805 0.0
C1950 C 0.61704 0.0336 0.44588 0.0
C1951 C 0.61552 0.03547 0.38415 0.0
C1952 C 0.62161 0.03979 0.55381 0.0
C1953 C 0.60474 0.03536 0.58224 0.0
C1954 C 0.63839 0.04336 0.58936 0.0
C1955 C 0.65724 0.04755 0.56167 0.0
C1956 C 0.6678 0.04208 0.5159 0.0
C1957 C 0.68537 0.04612 0.48942 0.0
C1958 C 0.69265 0.05559 0.50863 0.0
C1959 C 0.68238 0.06104 0.55445 0.0
C1960 C 0.66477 0.05705 0.58101 0.0
C1961 C 0.62238 0.02733 0.83599 0.0
C1962 C 0.62591 0.0359 0.87355 0.0
C1963 C 0.61973 0.02822 0.77385 0.0
C1964 C 0.62069 0.0377 0.74776 0.0
C1965 C 0.62363 0.04631 0.78539 0.0
C1966 C 0.62601 0.04543 0.84777 0.0
C1967 C 0.62036 0.03851 0.681 0.0
C1968 C 0.63748 0.04273 0.65242 0.0
C1969 C 0.60387 0.03475 0.64522 0.0
C1970 C 0.58473 0.03095 0.67228 0.0
C1971 C 0.57112 0.03767 0.70189 0.0
C1972 C 0.55218 0.03425 0.72308 0.0
C1973 C 0.54693 0.02407 0.71606 0.0
C1974 C 0.56052 0.01731 0.68718 0.0
C1975 C 0.57931 0.02075 0.66477 0.0
H1976 H 0.53232 0.02142 0.73295 0.0
H1977 H 0.70626 0.05871 0.48808 0.0
H1978 H 0.60668 0.20305 0.86045 0.0
H1979 H 0.61121 0.20503 0.75247 0.0
H1980 H 0.62918 0.236 0.78463 0.0
H1981 H 0.62433 0.23411 0.89336 0.0
H1982 H 0.60133 0.23372 0.69022 0.0
H1983 H 0.6651 0.21858 0.74995 0.0
H1984 H 0.68679 0.20592 0.79843 0.0
H1985 H 0.66113 0.18261 0.68267 0.0
H1986 H 0.63906 0.19512 0.63403 0.0
H1987 H 0.64155 0.24223 0.39972 0.0
H1988 H 0.63673 0.24039 0.50753 0.0
H1989 H 0.62313 0.20883 0.47748 0.0
H1990 H 0.62859 0.21056 0.3691 0.0
H1991 H 0.64862 0.21142 0.57118 0.0
H1992 H 0.58487 0.22599 0.51157 0.0
H1993 H 0.562 0.23821 0.4635 0.0
H1994 H 0.58611 0.26203 0.57847 0.0
H1995 H 0.60934 0.24997 0.6267 0.0
C1996 C 0.61145 0.21032 0.84476 0.0
C1997 C 0.61506 0.21844 0.88583 0.0
C1998 C 0.61421 0.21141 0.78284 0.0
C1999 C 0.62068 0.22064 0.76023 0.0
C2000 C 0.62421 0.22879 0.80095 0.0
C2001 C 0.62158 0.22769 0.86315 0.0
C2002 C 0.62361 0.22173 0.6941 0.0
C2003 C 0.61192 0.22895 0.66433 0.0
C2004 C 0.63692 0.2153 0.65985 0.0
C2005 C 0.65029 0.20778 0.68872 0.0
C2006 C 0.66397 0.21075 0.73513 0.0
C2007 C 0.67635 0.2036 0.76259 0.0
C2008 C 0.67531 0.19347 0.74374 0.0
C2009 C 0.66191 0.19046 0.69727 0.0
C2010 C 0.64948 0.19758 0.66969 0.0
C2011 C 0.63769 0.23486 0.41576 0.0
C2012 C 0.63553 0.22653 0.37528 0.0
C2013 C 0.6347 0.23385 0.47767 0.0
C2014 C 0.62933 0.2245 0.50091 0.0
C2015 C 0.6272 0.21614 0.46077 0.0
C2016 C 0.63017 0.21716 0.39866 0.0
C2017 C 0.62637 0.22343 0.56713 0.0
C2018 C 0.63805 0.21621 0.59697 0.0
C2019 C 0.61291 0.22981 0.60136 0.0
C2020 C 0.599 0.23709 0.57235 0.0
C2021 C 0.58543 0.23385 0.52626 0.0
C2022 C 0.57237 0.24074 0.49905 0.0
C2023 C 0.57264 0.25089 0.51781 0.0
C2024 C 0.58594 0.25417 0.56392 0.0
C2025 C 0.59904 0.2473 0.59125 0.0
H2026 H 0.56251 0.25622 0.49672 0.0
H2027 H 0.6849 0.18794 0.76507 0.0
H2028 H 0.421 0.9602 0.61888 0.0
H2029 H 0.41634 0.96224 0.51158 0.0
H2030 H 0.36224 0.9804 0.54668 0.0
H2031 H 0.36611 0.97794 0.65457 0.0
H2032 H 0.35482 0.96777 0.45669 0.0
H2033 H 0.41041 0.9905 0.50361 0.0
H2034 H 0.44429 0.99566 0.54442 0.0
H2035 H 0.47428 0.97421 0.42479 0.0
H2036 H 0.44055 0.96882 0.38385 0.0
H2037 H 0.34585 0.98607 0.1618 0.0
H2038 H 0.35074 0.98452 0.26983 0.0
H2039 H 0.40404 0.96571 0.23643 0.0
H2040 H 0.39975 0.96758 0.12798 0.0
H2041 H 0.4118 0.97885 0.32544 0.0
H2042 H 0.35624 0.95595 0.27983 0.0
H2043 H 0.3224 0.95083 0.23855 0.0
H2044 H 0.29242 0.9727 0.35543 0.0
H2045 H 0.32612 0.97804 0.39686 0.0
C2046 C 0.40797 0.96457 0.60431 0.0
C2047 C 0.3939 0.96885 0.6463 0.0
C2048 C 0.40549 0.96585 0.54246 0.0
C2049 C 0.38911 0.97161 0.52061 0.0
C2050 C 0.37508 0.97595 0.56221 0.0
C2051 C 0.37743 0.9746 0.62423 0.0
C2052 C 0.38634 0.97284 0.4544 0.0
C2053 C 0.36721 0.97035 0.42824 0.0
C2054 C 0.40262 0.97594 0.41658 0.0
C2055 C 0.42292 0.97919 0.44109 0.0
C2056 C 0.42421 0.98683 0.48633 0.0
C2057 C 0.4434 0.9898 0.50944 0.0
C2058 C 0.46142 0.98525 0.48733 0.0
C2059 C 0.4603 0.97772 0.44194 0.0
C2060 C 0.44116 0.97471 0.41874 0.0
C2061 C 0.35871 0.98165 0.17719 0.0
C2062 C 0.37235 0.97694 0.1357 0.0
C2063 C 0.36136 0.98068 0.23924 0.0
C2064 C 0.37757 0.97486 0.26161 0.0
C2065 C 0.39132 0.97019 0.22044 0.0
C2066 C 0.38873 0.97119 0.15823 0.0
C2067 C 0.3803 0.97378 0.32789 0.0
C2068 C 0.39942 0.97628 0.354 0.0
C2069 C 0.36401 0.9707 0.36568 0.0
C2070 C 0.34373 0.96746 0.34105 0.0
C2071 C 0.34245 0.95972 0.29643 0.0
C2072 C 0.32329 0.95677 0.27305 0.0
C2073 C 0.30528 0.96145 0.29425 0.0
C2074 C 0.30639 0.96908 0.33901 0.0
C2075 C 0.32551 0.97207 0.36249 0.0
H2076 H 0.29046 0.95916 0.27609 0.0
H2077 H 0.47625 0.98756 0.50527 0.0
H2078 H 0.37443 0.78247 0.10828 0.0
H2079 H 0.36843 0.7813 0.21667 0.0
H2080 H 0.39417 0.811 0.24617 0.0
H2081 H 0.40013 0.81222 0.13852 0.0
H2082 H 0.41013 0.79952 0.32327 0.0
H2083 H 0.34228 0.80613 0.26164 0.0
H2084 H 0.30836 0.80511 0.21188 0.0
H2085 H 0.29859 0.77577 0.28226 0.0
H2086 H 0.33268 0.77649 0.33133 0.0
H2087 H 0.37754 0.80442 0.63352 0.0
H2088 H 0.38123 0.80689 0.5253 0.0
H2089 H 0.36709 0.77556 0.48917 0.0
H2090 H 0.36383 0.77294 0.59671 0.0
H2091 H 0.3449 0.78861 0.41725 0.0
H2092 H 0.4155 0.78431 0.48559 0.0
H2093 H 0.44537 0.78913 0.54887 0.0
H2094 H 0.44679 0.81824 0.4707 0.0
H2095 H 0.41641 0.81378 0.40869 0.0
C2096 C 0.37861 0.7888 0.1377 0.0
C2097 C 0.38803 0.79739 0.11432 0.0
C2098 C 0.37513 0.78813 0.19985 0.0
C2099 C 0.38085 0.79606 0.24 0.0
C2100 C 0.3898 0.80472 0.2165 0.0
C2101 C 0.3933 0.80539 0.15464 0.0
C2102 C 0.37854 0.79519 0.30661 0.0
C2103 C 0.39575 0.79724 0.34365 0.0
C2104 C 0.35983 0.79221 0.33381 0.0
C2105 C 0.34019 0.79132 0.29968 0.0
C2106 C 0.3331 0.79937 0.26559 0.0
C2107 C 0.31376 0.79888 0.23785 0.0
C2108 C 0.30126 0.79042 0.24434 0.0
C2109 C 0.30822 0.78235 0.2777 0.0
C2110 C 0.32759 0.78278 0.30524 0.0
C2111 C 0.37545 0.79802 0.60273 0.0
C2112 C 0.37032 0.78848 0.62437 0.0
C2113 C 0.37748 0.79946 0.54075 0.0
C2114 C 0.37448 0.7914 0.49907 0.0
C2115 C 0.36937 0.7819 0.52043 0.0
C2116 C 0.36742 0.78044 0.5822 0.0
C2117 C 0.37647 0.7928 0.43308 0.0
C2118 C 0.35924 0.79083 0.39635 0.0
C2119 C 0.39492 0.79619 0.40643 0.0
C2120 C 0.41352 0.79874 0.44283 0.0
C2121 C 0.42206 0.79177 0.4822 0.0
C2122 C 0.4391 0.79443 0.51782 0.0
C2123 C 0.44801 0.80396 0.51364 0.0
C2124 C 0.43987 0.81086 0.4739 0.0
C2125 C 0.4227 0.80828 0.43863 0.0
H2126 H 0.46122 0.80599 0.54122 0.0
H2127 H 0.28626 0.79007 0.22303 0.0
H2128 H 0.14874 0.59003 0.21814 0.0
H2129 H 0.1508 0.60844 0.2226 0.0
H2130 H 0.14707 0.60886 0.02894 0.0
H2131 H 0.14557 0.59043 0.024 0.0
H2132 H 0.17475 0.62252 0.06987 0.0
H2133 H 0.10483 0.61409 0.11829 0.0
H2134 H 0.07724 0.60568 0.17412 0.0
H2135 H 0.09732 0.62048 0.33862 0.0
H2136 H 0.12523 0.62888 0.28387 0.0
H2137 H 0.14664 0.67433 0.04353 0.0
H2138 H 0.14875 0.65592 0.0392 0.0
H2139 H 0.14875 0.65567 0.23329 0.0
H2140 H 0.14648 0.67406 0.23786 0.0
H2141 H 0.12347 0.64185 0.19257 0.0
H2142 H 0.19311 0.65052 0.14443 0.0
H2143 H 0.22083 0.6589 0.08893 0.0
H2144 H 0.20162 0.64369 0.92479 0.0
H2145 H 0.1736 0.63532 0.97918 0.0
C2146 C 0.14868 0.594 0.17635 0.0
C2147 C 0.14689 0.58866 0.12068 0.0
C2148 C 0.14964 0.60458 0.17902 0.0
C2149 C 0.14878 0.61013 0.12616 0.0
C2150 C 0.14767 0.60481 0.07046 0.0
C2151 C 0.14665 0.59424 0.06775 0.0
C2152 C 0.14858 0.62145 0.12889 0.0
C2153 C 0.16338 0.62674 0.09619 0.0
C2154 C 0.13406 0.62704 0.16412 0.0
C2155 C 0.11724 0.62203 0.19709 0.0
C2156 C 0.10346 0.61549 0.16645 0.0
C2157 C 0.08775 0.61074 0.19789 0.0
C2158 C 0.08556 0.61252 0.25991 0.0
C2159 C 0.09905 0.61909 0.2906 0.0
C2160 C 0.11481 0.62386 0.25938 0.0
C2161 C 0.14743 0.67039 0.08536 0.0
C2162 C 0.14641 0.67576 0.14107 0.0
C2163 C 0.14862 0.65981 0.08283 0.0
C2164 C 0.1491 0.6543 0.13593 0.0
C2165 C 0.14833 0.65966 0.19155 0.0
C2166 C 0.14702 0.67022 0.1941 0.0
C2167 C 0.14972 0.64297 0.13374 0.0
C2168 C 0.13493 0.63766 0.16642 0.0
C2169 C 0.16428 0.63737 0.09858 0.0
C2170 C 0.18114 0.64237 0.06578 0.0
C2171 C 0.1947 0.64902 0.09641 0.0
C2172 C 0.21048 0.65376 0.06517 0.0
C2173 C 0.21295 0.65185 1.00334 0.0
C2174 C 0.19967 0.64518 0.97266 0.0
C2175 C 0.18385 0.64043 1.00368 0.0
H2176 H 0.22518 0.65553 0.97924 0.0
H2177 H 0.07339 0.60884 0.28417 0.0
H2178 H 0.86472 0.42446 0.99456 0.0
H2179 H 0.86303 0.40607 0.9911 0.0
H2180 H 0.85806 0.40606 0.79756 0.0
H2181 H 0.85981 0.42449 0.80064 0.0
H2182 H 0.83271 0.39224 0.84114 0.0
H2183 H 0.90399 0.40051 0.86884 0.0
H2184 H 0.93391 0.40884 0.91753 0.0
H2185 H 0.9207 0.39404 0.08214 0.0
H2186 H 0.89052 0.38573 0.03465 0.0
H2187 H 0.86061 0.34081 0.78211 0.0
H2188 H 0.85876 0.35921 0.78791 0.0
H2189 H 0.86246 0.35872 0.98158 0.0
H2190 H 0.8648 0.34029 0.97603 0.0
H2191 H 0.88797 0.37277 0.93902 0.0
H2192 H 0.81693 0.36413 0.90921 0.0
H2193 H 0.78738 0.35575 0.85895 0.0
H2194 H 0.8006 0.37114 0.69636 0.0
H2195 H 0.83042 0.37951 0.74542 0.0
C2196 C 0.86333 0.42058 0.95112 0.0
C2197 C 0.86257 0.42605 0.89785 0.0
C2198 C 0.86236 0.41001 0.94922 0.0
C2199 C 0.86077 0.40458 0.89397 0.0
C2200 C 0.85932 0.41002 0.84084 0.0
C2201 C 0.86024 0.4206 0.8427 0.0
C2202 C 0.861 0.39326 0.89164 0.0
C2203 C 0.84494 0.388 0.86193 0.0
C2204 C 0.8767 0.38762 0.91972 0.0
C2205 C 0.89487 0.39258 0.94836 0.0
C2206 C 0.90737 0.39909 0.91556 0.0
C2207 C 0.92439 0.4038 0.94292 0.0
C2208 C 0.92917 0.40199 1.00294 0.0
C2209 C 0.91696 0.39545 0.03568 0.0
C2210 C 0.8999 0.39073 0.00855 0.0
C2211 C 0.86103 0.34459 0.82605 0.0
C2212 C 0.86285 0.33899 0.8786 0.0
C2213 C 0.8598 0.35515 0.82932 0.0
C2214 C 0.86029 0.36044 0.88524 0.0
C2215 C 0.86199 0.35487 0.93783 0.0
C2216 C 0.86313 0.34429 0.93461 0.0
C2217 C 0.85966 0.37175 0.88864 0.0
C2218 C 0.87568 0.37701 0.91843 0.0
C2219 C 0.84399 0.37737 0.86041 0.0
C2220 C 0.82603 0.37237 0.83083 0.0
C2221 C 0.81364 0.36567 0.86259 0.0
C2222 C 0.79682 0.36093 0.83434 0.0
C2223 C 0.79214 0.36289 0.77445 0.0
C2224 C 0.80425 0.36962 0.74273 0.0
C2225 C 0.82111 0.37437 0.77075 0.0
H2226 H 0.77911 0.35922 0.75266 0.0
H2227 H 0.94236 0.40564 0.02404 0.0
H2228 H 0.10849 0.09099 0.63004 0.0
H2229 H 0.11095 0.10931 0.63004 0.0
H2230 H 0.17729 0.10728 0.6343 0.0
H2231 H 0.17486 0.08881 0.63542 0.0
H2232 H 0.16547 0.12251 0.70508 0.0
H2233 H 0.14983 0.11252 0.50197 0.0
H2234 H 0.13088 0.10372 0.41966 0.0
H2235 H 0.07577 0.11995 0.46876 0.0
H2236 H 0.09432 0.12875 0.55192 0.0
H2237 H 0.17546 0.17478 0.62973 0.0
H2238 H 0.17767 0.15629 0.62605 0.0
H2239 H 0.11143 0.15441 0.63654 0.0
H2240 H 0.10911 0.17277 0.63932 0.0
H2241 H 0.12619 0.14115 0.55276 0.0
H2242 H 0.14209 0.15043 0.7595 0.0
H2243 H 0.16155 0.15924 0.84078 0.0
H2244 H 0.21719 0.14441 0.78169 0.0
H2245 H 0.19809 0.13561 0.6995 0.0
C2246 C 0.12365 0.09441 0.63053 0.0
C2247 C 0.14149 0.08836 0.63178 0.0
C2248 C 0.12504 0.10494 0.63047 0.0
C2249 C 0.14432 0.10978 0.63065 0.0
C2250 C 0.1622 0.10379 0.63372 0.0
C2251 C 0.1608 0.0932 0.63439 0.0
C2252 C 0.14563 0.12106 0.62752 0.0
C2253 C 0.15715 0.12655 0.67106 0.0
C2254 C 0.13462 0.12647 0.58373 0.0
C2255 C 0.12343 0.12124 0.53349 0.0
C2256 C 0.13364 0.11417 0.49546 0.0
C2257 C 0.12297 0.10918 0.44862 0.0
C2258 C 0.10212 0.11126 0.43906 0.0
C2259 C 0.09191 0.11834 0.47624 0.0
C2260 C 0.1025 0.12334 0.5232 0.0
C2261 C 0.16136 0.17043 0.63091 0.0
C2262 C 0.14212 0.17533 0.63545 0.0
C2263 C 0.16265 0.15983 0.62925 0.0
C2264 C 0.14472 0.15388 0.63168 0.0
C2265 C 0.12551 0.15877 0.63486 0.0
C2266 C 0.12423 0.16932 0.63696 0.0
C2267 C 0.14573 0.14258 0.63084 0.0
C2268 C 0.13464 0.13709 0.58644 0.0
C2269 C 0.15724 0.1372 0.67352 0.0
C2270 C 0.16871 0.14246 0.72296 0.0
C2271 C 0.15851 0.14911 0.76354 0.0
C2272 C 0.16946 0.15409 0.80983 0.0
C2273 C 0.1906 0.15241 0.81629 0.0
C2274 C 0.20082 0.14572 0.77656 0.0
C2275 C 0.18994 0.14073 0.73015 0.0
H2276 H 0.19906 0.15626 0.85216 0.0
H2277 H 0.09389 0.10739 0.40278 0.0
H2278 H 0.85203 0.92569 0.46754 0.0
H2279 H 0.84899 0.90727 0.46983 0.0
H2280 H 0.87171 0.9047 0.28758 0.0
H2281 H 0.87458 0.92305 0.28482 0.0
H2282 H 0.83945 0.89192 0.30435 0.0
H2283 H 0.90315 0.90033 0.40648 0.0
H2284 H 0.92458 0.909 0.48383 0.0
H2285 H 0.88948 0.89536 0.62334 0.0
H2286 H 0.86765 0.88671 0.54675 0.0
H2287 H 0.86885 0.84072 0.27853 0.0
H2288 H 0.86704 0.85903 0.28255 0.0
H2289 H 0.85273 0.85869 0.47205 0.0
H2290 H 0.85594 0.84034 0.46936 0.0
H2291 H 0.87838 0.8731 0.45654 0.0
H2292 H 0.81561 0.86401 0.35684 0.0
H2293 H 0.79348 0.85539 0.28103 0.0
H2294 H 0.82513 0.87034 0.13964 0.0
H2295 H 0.84764 0.87895 0.21455 0.0
C2296 C 0.85613 0.92122 0.42768 0.0
C2297 C 0.86366 0.9259 0.3761 0.0
C2298 C 0.85455 0.91066 0.42921 0.0
C2299 C 0.86034 0.90452 0.37909 0.0
C2300 C 0.86721 0.90921 0.32696 0.0
C2301 C 0.86895 0.91973 0.32558 0.0
C2302 C 0.85969 0.89323 0.38092 0.0
C2303 C 0.84811 0.8878 0.33734 0.0
C2304 C 0.87048 0.8878 0.42489 0.0
C2305 C 0.88363 0.89296 0.47092 0.0
C2306 C 0.8999 0.89924 0.45366 0.0
C2307 C 0.91213 0.90415 0.49736 0.0
C2308 C 0.90836 0.90276 0.55846 0.0
C2309 C 0.89237 0.89644 0.57599 0.0
C2310 C 0.88006 0.89153 0.53246 0.0
C2311 C 0.86549 0.84448 0.3214 0.0
C2312 C 0.86263 0.83889 0.37367 0.0
C2313 C 0.86413 0.85503 0.32341 0.0
C2314 C 0.85938 0.86038 0.3774 0.0
C2315 C 0.85633 0.85483 0.42961 0.0
C2316 C 0.85793 0.84426 0.42781 0.0
C2317 C 0.85824 0.87171 0.37955 0.0
C2318 C 0.86952 0.87717 0.42382 0.0
C2319 C 0.84701 0.87719 0.3365 0.0
C2320 C 0.83342 0.87206 0.29131 0.0
C2321 C 0.81794 0.86541 0.30956 0.0
C2322 C 0.80531 0.86053 0.26675 0.0
C2323 C 0.80792 0.8623 0.20555 0.0
C2324 C 0.82313 0.86897 0.18705 0.0
C2325 C 0.83582 0.87386 0.22967 0.0
H2326 H 0.79814 0.85851 0.17248 0.0
H2327 H 0.91785 0.90656 0.59223 0.0
H2328 H 0.67651 0.67518 0.63623 0.0
H2329 H 0.67887 0.65672 0.63376 0.0
H2330 H 0.61255 0.65474 0.64077 0.0
H2331 H 0.61015 0.67307 0.64406 0.0
H2332 H 0.62748 0.64203 0.7144 0.0
H2333 H 0.64235 0.64953 0.50854 0.0
H2334 H 0.66096 0.65757 0.42609 0.0
H2335 H 0.71728 0.64344 0.48011 0.0
H2336 H 0.69903 0.63541 0.56341 0.0
H2337 H 0.6101 0.59139 0.62045 0.0
H2338 H 0.61266 0.60973 0.62528 0.0
H2339 H 0.67877 0.60759 0.63997 0.0
H2340 H 0.67634 0.58909 0.63414 0.0
H2341 H 0.66689 0.62219 0.56016 0.0
H2342 H 0.65057 0.61378 0.76261 0.0
H2343 H 0.631 0.60556 0.84247 0.0
H2344 H 0.57624 0.62138 0.79188 0.0
H2345 H 0.59541 0.6296 0.7111 0.0
C2346 C 0.66243 0.6708 0.63678 0.0
C2347 C 0.64315 0.67567 0.64086 0.0
C2348 C 0.66379 0.66021 0.63527 0.0
C2349 C 0.64588 0.65422 0.63675 0.0
C2350 C 0.62665 0.6591 0.64006 0.0
C2351 C 0.6253 0.66964 0.64207 0.0
C2352 C 0.64692 0.6429 0.63609 0.0
C2353 C 0.63594 0.63773 0.68015 0.0
C2354 C 0.65839 0.63716 0.59262 0.0
C2355 C 0.66938 0.64197 0.54261 0.0
C2356 C 0.65874 0.64821 0.50313 0.0
C2357 C 0.66921 0.65275 0.45619 0.0
C2358 C 0.6903 0.65104 0.44798 0.0
C2359 C 0.70095 0.64477 0.4866 0.0
C2360 C 0.69055 0.64022 0.53366 0.0
C2361 C 0.62525 0.59478 0.62419 0.0
C2362 C 0.64303 0.58869 0.62657 0.0
C2363 C 0.62667 0.60531 0.62749 0.0
C2364 C 0.6459 0.61012 0.63347 0.0
C2365 C 0.66374 0.6041 0.63545 0.0
C2366 C 0.66232 0.59351 0.63256 0.0
C2367 C 0.64715 0.6214 0.63773 0.0
C2368 C 0.65856 0.62653 0.59452 0.0
C2369 C 0.63595 0.62713 0.68169 0.0
C2370 C 0.6244 0.62225 0.73048 0.0
C2371 C 0.63432 0.61546 0.76822 0.0
C2372 C 0.6233 0.6108 0.8137 0.0
C2373 C 0.60238 0.61293 0.82216 0.0
C2374 C 0.59244 0.61974 0.78524 0.0
C2375 C 0.60338 0.6244 0.73964 0.0
H2376 H 0.59388 0.60932 0.8574 0.0
H2377 H 0.69839 0.65457 0.41161 0.0
H2378 H 0.39821 0.42259 0.3902 0.0
H2379 H 0.39554 0.40424 0.38528 0.0
H2380 H 0.32939 0.40648 0.37318 0.0
H2381 H 0.33193 0.42498 0.37891 0.0
H2382 H 0.3418 0.39186 0.45306 0.0
H2383 H 0.35664 0.40026 0.24963 0.0
H2384 H 0.37564 0.40848 0.16861 0.0
H2385 H 0.43071 0.39259 0.21573 0.0
H2386 H 0.41211 0.38438 0.29763 0.0
H2387 H 0.33145 0.33889 0.37846 0.0
H2388 H 0.32916 0.35735 0.38061 0.0
H2389 H 0.39542 0.35925 0.36867 0.0
H2390 H 0.39772 0.34091 0.36561 0.0
H2391 H 0.37998 0.37198 0.29632 0.0
H2392 H 0.36671 0.36451 0.50311 0.0
H2393 H 0.34874 0.3565 0.58687 0.0
H2394 H 0.29203 0.37067 0.53663 0.0
H2395 H 0.30962 0.37867 0.45205 0.0
C2396 C 0.38303 0.41922 0.38699 0.0
C2397 C 0.36527 0.42533 0.38529 0.0
C2398 C 0.38155 0.40868 0.38366 0.0
C2399 C 0.36227 0.40391 0.37843 0.0
C2400 C 0.34445 0.40996 0.37713 0.0
C2401 C 0.34594 0.42054 0.37998 0.0
C2402 C 0.36094 0.39263 0.37422 0.0
C2403 C 0.34985 0.38751 0.41817 0.0
C2404 C 0.3718 0.38689 0.32957 0.0
C2405 C 0.38301 0.39177 0.2801 0.0
C2406 C 0.37284 0.39858 0.24301 0.0
C2407 C 0.38353 0.40322 0.19688 0.0
C2408 C 0.40438 0.40107 0.18711 0.0
C2409 C 0.41457 0.39425 0.22338 0.0
C2410 C 0.40395 0.38959 0.26962 0.0
C2411 C 0.34553 0.34325 0.37672 0.0
C2412 C 0.36476 0.33835 0.37137 0.0
C2413 C 0.34422 0.35384 0.37806 0.0
C2414 C 0.36213 0.35981 0.37517 0.0
C2415 C 0.38131 0.3549 0.3705 0.0
C2416 C 0.38261 0.34436 0.36863 0.0
C2417 C 0.36113 0.37114 0.37588 0.0
C2418 C 0.37178 0.37629 0.3311 0.0
C2419 C 0.35002 0.37689 0.42008 0.0
C2420 C 0.33942 0.37209 0.47085 0.0
C2421 C 0.35037 0.36585 0.50964 0.0
C2422 C 0.34026 0.36133 0.55731 0.0
C2423 C 0.31924 0.36305 0.56695 0.0
C2424 C 0.3083 0.36933 0.52903 0.0
C2425 C 0.31833 0.37386 0.48125 0.0
H2426 H 0.31145 0.35954 0.6039 0.0
H2427 H 0.41264 0.40468 0.15137 0.0
H2428 H 0.67567 0.17494 0.10047 0.0
H2429 H 0.67807 0.15649 0.09354 0.0
H2430 H 0.61338 0.15428 0.1356 0.0
H2431 H 0.61082 0.17259 0.14207 0.0
H2432 H 0.63437 0.14132 0.19955 0.0
H2433 H 0.63282 0.14996 0.9906 0.0
H2434 H 0.64478 0.15856 0.90027 0.0
H2435 H 0.70386 0.14419 0.91383 0.0
H2436 H 0.69233 0.13561 1.00477 0.0
H2437 H 0.61083 0.09105 0.11771 0.0
H2438 H 0.61344 0.10933 0.12239 0.0
H2439 H 0.6782 0.1073 0.07997 0.0
H2440 H 0.67554 0.08885 0.0728 0.0
H2441 H 0.66062 0.12233 0.01929 0.0
H2442 H 0.66145 0.11288 0.22481 0.0
H2443 H 0.6494 0.10424 0.31486 0.0
H2444 H 0.59185 0.12019 0.30836 0.0
H2445 H 0.60344 0.12882 0.21773 0.0
C2446 C 0.66191 0.17054 0.10774 0.0
C2447 C 0.64309 0.17535 0.1224 0.0
C2448 C 0.6633 0.15995 0.10379 0.0
C2449 C 0.64589 0.1539 0.11386 0.0
C2450 C 0.62712 0.1587 0.12809 0.0
C2451 C 0.62571 0.16924 0.13206 0.0
C2452 C 0.64704 0.14259 0.11055 0.0
C2453 C 0.63993 0.13719 0.15981 0.0
C2454 C 0.65487 0.13711 0.05959 0.0
C2455 C 0.66179 0.14224 1.00487 0.0
C2456 C 0.64842 0.1487 0.9746 0.0
C2457 C 0.6551 0.15356 0.92324 0.0
C2458 C 0.67509 0.15195 0.90143 0.0
C2459 C 0.6884 0.14545 0.93084 0.0
C2460 C 0.68179 0.14058 0.98227 0.0
C2461 C 0.62564 0.09442 0.10847 0.0
C2462 C 0.64295 0.08835 0.0945 0.0
C2463 C 0.62716 0.10495 0.11197 0.0
C2464 C 0.64609 0.10979 0.10242 0.0
C2465 C 0.66341 0.1038 0.08783 0.0
C2466 C 0.66189 0.09321 0.08422 0.0
C2467 C 0.64758 0.12108 0.10789 0.0
C2468 C 0.65521 0.12647 0.05918 0.0
C2469 C 0.64025 0.12657 0.15942 0.0
C2470 C 0.63326 0.12144 0.21417 0.0
C2471 C 0.64617 0.1145 0.24233 0.0
C2472 C 0.63943 0.10961 0.29352 0.0
C2473 C 0.61986 0.11165 0.31724 0.0
C2474 C 0.607 0.11861 0.28991 0.0
C2475 C 0.61366 0.12351 0.23866 0.0
H2476 H 0.61466 0.10785 0.35687 0.0
H2477 H 0.68024 0.15572 0.86166 0.0
H2478 H 0.36057 0.84039 0.77347 0.0
H2479 H 0.35857 0.85879 0.77797 0.0
H2480 H 0.35877 0.85859 0.97207 0.0
H2481 H 0.3605 0.84014 0.96778 0.0
H2482 H 0.33292 0.8725 0.93736 0.0
H2483 H 0.40286 0.86424 0.8873 0.0
H2484 H 0.43094 0.85598 0.82932 0.0
H2485 H 0.41173 0.87096 0.67036 0.0
H2486 H 0.38334 0.87921 0.72723 0.0
H2487 H 0.36259 0.92393 0.98863 0.0
H2488 H 0.36054 0.90553 0.98323 0.0
H2489 H 0.35709 0.90609 0.78955 0.0
H2490 H 0.35965 0.9245 0.79453 0.0
H2491 H 0.38413 0.89205 0.82354 0.0
H2492 H 0.31448 0.90072 0.87669 0.0
H2493 H 0.28707 0.90906 0.93701 0.0
H2494 H 0.30672 0.89345 0.09326 0.0
H2495 H 0.33444 0.8851 0.03404 0.0
C2496 C 0.36018 0.84425 0.8172 0.0
C2497 C 0.36084 0.83872 0.87025 0.0
C2498 C 0.35909 0.85481 0.81974 0.0
C2499 C 0.35895 0.86019 0.8754 0.0
C2500 C 0.35891 0.85468 0.92848 0.0
C2501 C 0.35984 0.84409 0.92597 0.0
C2502 C 0.35919 0.87152 0.87815 0.0
C2503 C 0.3443 0.87675 0.91301 0.0
C2504 C 0.37375 0.87718 0.84565 0.0
C2505 C 0.39085 0.87227 0.81139 0.0
C2506 C 0.40453 0.86572 0.83988 0.0
C2507 C 0.42052 0.86104 0.80723 0.0
C2508 C 0.42308 0.86292 0.74616 0.0
C2509 C 0.4097 0.8695 0.71765 0.0
C2510 C 0.39367 0.87419 0.75007 0.0
C2511 C 0.36137 0.92016 0.94479 0.0
C2512 C 0.36127 0.92578 0.89202 0.0
C2513 C 0.36003 0.9096 0.9418 0.0
C2514 C 0.35848 0.90434 0.88598 0.0
C2515 C 0.35821 0.90992 0.83324 0.0
C2516 C 0.35948 0.92049 0.8362 0.0
C2517 C 0.35783 0.89303 0.88256 0.0
C2518 C 0.3727 0.8878 0.84769 0.0
C2519 C 0.34336 0.88738 0.9154 0.0
C2520 C 0.32665 0.89236 0.95104 0.0
C2521 C 0.31306 0.89912 0.92402 0.0
C2522 C 0.29745 0.90384 0.958 0.0
C2523 C 0.29519 0.9018 0.01896 0.0
C2524 C 0.3085 0.89502 0.04604 0.0
C2525 C 0.32415 0.89029 0.01228 0.0
H2526 H 0.28309 0.90547 0.04519 0.0
H2527 H 0.43547 0.8593 0.72096 0.0
loop_
_geom_bond_atom_site_label_1
_geom_bond_atom_site_label_2
_geom_bond_distance
_geom_bond_site_symmetry_2
_ccdc_geom_bond_type
Co0 N4 2.148 . S
Co0 N10 2.128 . S
Co0 N20 2.194 . S
Co0 O25 2.351 . S
Co0 O26 2.155 . S
Co0 O27 2.096 . S
C1 N4 1.301 1_556 S
C1 N5 1.328 . S
C1 H6 0.930 . S
C2 C3 1.333 1_554 S
C2 N4 1.317 . S
C2 H7 0.930 . S
C3 C2 1.333 1_556 S
C3 N5 1.350 . S
C3 H29 0.931 . S
N4 Co0 2.148 . S
N4 C1 1.301 1_554 S
N4 C2 1.317 . S
N5 C1 1.328 . S
N5 C3 1.350 . S
H6 C1 0.930 . S
H7 C2 0.930 . S
C8 O9 1.224 . S
C8 O27 1.247 . S
O9 C8 1.224 . S
N10 Co0 2.128 . S
N10 C11 1.355 . S
N10 C13 1.311 . S
C11 N10 1.355 . S
C11 C12 1.363 . S
C11 H23 0.929 . S
C12 C11 1.363 . S
C12 N14 1.375 . S
C12 H30 0.931 . S
C13 N10 1.311 . S
C13 N14 1.347 . S
C13 H24 0.929 . S
N14 C12 1.375 . S
N14 C13 1.347 . S
C15 C18 1.365 . S
C15 N20 1.328 . S
C15 H21 0.929 . S
C16 C17 1.362 . S
C16 C19 1.378 . S
C16 H31 0.929 . S
C17 C16 1.362 . S
C17 C18 1.366 . S
C18 C15 1.365 . S
C18 C17 1.366 . S
C18 H32 0.930 . S
C19 C16 1.378 . S
C19 N20 1.315 . S
C19 H22 0.930 . S
N20 Co0 2.194 . S
N20 C15 1.328 . S
N20 C19 1.315 . S
H21 C15 0.929 . S
H22 C19 0.930 . S
H23 C11 0.929 . S
H24 C13 0.929 . S
O25 Co0 2.351 . S
O25 C28 1.244 . S
O26 Co0 2.155 . S
O26 C28 1.240 . S
O27 Co0 2.096 . S
O27 C8 1.247 . S
C28 O25 1.244 . S
C28 O26 1.240 . S
H29 C3 0.931 . S
H30 C12 0.931 . S
H31 C16 0.929 . S
H32 C18 0.930 . S
Co33 N37 2.148 . S
Co33 N43 2.128 . S
Co33 N53 2.194 . S
Co33 O58 2.351 . S
Co33 O59 2.155 . S
Co33 O60 2.096 . S
C34 N37 1.301 . S
C34 N38 1.328 . S
C34 H39 0.930 . S
C35 C36 1.333 . S
C35 N37 1.317 . S
C35 H40 0.930 . S
C36 C35 1.333 . S
C36 N38 1.350 . S
C36 H62 0.931 . S
N37 Co33 2.148 . S
N37 C34 1.301 . S
N37 C35 1.317 . S
N38 C34 1.328 . S
N38 C36 1.350 . S
H39 C34 0.930 . S
H40 C35 0.930 . S
C41 O42 1.224 . S
C41 O60 1.247 . S
O42 C41 1.224 . S
N43 Co33 2.128 . S
N43 C44 1.355 . S
N43 C46 1.311 1_554 S
C44 N43 1.355 . S
C44 C45 1.363 1_554 S
C44 H56 0.929 . S
C45 C44 1.363 1_556 S
C45 N47 1.375 . S
C45 H63 0.931 . S
C46 N43 1.311 1_556 S
C46 N47 1.347 . S
C46 H57 0.929 . S
N47 C45 1.375 . S
N47 C46 1.347 . S
C48 C51 1.365 . S
C48 N53 1.328 . S
C48 H54 0.929 . S
C49 C50 1.362 . S
C49 C52 1.378 . S
C49 H64 0.929 . S
C50 C49 1.362 . S
C50 C51 1.366 . S
C51 C48 1.365 . S
C51 C50 1.366 . S
C51 H65 0.930 . S
C52 C49 1.378 . S
C52 N53 1.315 . S
C52 H55 0.930 . S
N53 Co33 2.194 . S
N53 C48 1.328 . S
N53 C52 1.315 . S
H54 C48 0.929 . S
H55 C52 0.930 . S
H56 C44 0.929 . S
H57 C46 0.929 . S
O58 Co33 2.351 . S
O58 C61 1.244 . S
O59 Co33 2.155 . S
O59 C61 1.240 . S
O60 Co33 2.096 . S
O60 C41 1.247 . S
C61 O58 1.244 . S
C61 O59 1.240 . S
H62 C36 0.931 . S
H63 C45 0.931 . S
H64 C49 0.929 . S
H65 C51 0.930 . S
Co66 N70 2.148 . S
Co66 N76 2.128 . S
Co66 N86 2.194 . S
Co66 O91 2.351 . S
Co66 O92 2.155 . S
Co66 O93 2.096 . S
C67 N70 1.301 1_554 S
C67 N71 1.328 . S
C67 H72 0.930 . S
C68 C69 1.333 1_556 S
C68 N70 1.317 . S
C68 H73 0.930 . S
C69 C68 1.333 1_554 S
C69 N71 1.350 . S
C69 H95 0.931 . S
N70 Co66 2.148 . S
N70 C67 1.301 1_556 S
N70 C68 1.317 . S
N71 C67 1.328 . S
N71 C69 1.350 . S
H72 C67 0.930 . S
H73 C68 0.930 . S
C74 O75 1.224 . S
C74 O93 1.247 . S
O75 C74 1.224 . S
N76 Co66 2.128 . S
N76 C77 1.355 . S
N76 C79 1.311 . S
C77 N76 1.355 . S
C77 C78 1.363 . S
C77 H89 0.929 . S
C78 C77 1.363 . S
C78 N80 1.375 . S
C78 H96 0.931 . S
C79 N76 1.311 . S
C79 N80 1.347 . S
C79 H90 0.929 . S
N80 C78 1.375 . S
N80 C79 1.347 . S
C81 C84 1.365 . S
C81 N86 1.328 . S
C81 H87 0.929 . S
C82 C83 1.362 . S
C82 C85 1.378 . S
C82 H97 0.929 . S
C83 C82 1.362 . S
C83 C84 1.366 . S
C84 C81 1.365 . S
C84 C83 1.366 . S
C84 H98 0.930 . S
C85 C82 1.378 . S
C85 N86 1.315 . S
C85 H88 0.930 . S
N86 Co66 2.194 . S
N86 C81 1.328 . S
N86 C85 1.315 . S
H87 C81 0.929 . S
H88 C85 0.930 . S
H89 C77 0.929 . S
H90 C79 0.929 . S
O91 Co66 2.351 . S
O91 C94 1.244 . S
O92 Co66 2.155 . S
O92 C94 1.240 . S
O93 Co66 2.096 . S
O93 C74 1.247 . S
C94 O91 1.244 . S
C94 O92 1.240 . S
H95 C69 0.931 . S
H96 C78 0.931 . S
H97 C82 0.929 . S
H98 C84 0.930 . S
Co99 N103 2.148 . S
Co99 N109 2.128 . S
Co99 N119 2.194 . S
Co99 O124 2.351 . S
Co99 O125 2.155 . S
Co99 O126 2.096 . S
C100 N103 1.301 . S
C100 N104 1.328 . S
C100 H105 0.930 . S
C101 C102 1.333 . S
C101 N103 1.317 . S
C101 H106 0.930 . S
C102 C101 1.333 . S
C102 N104 1.350 . S
C102 H128 0.931 . S
N103 Co99 2.148 . S
N103 C100 1.301 . S
N103 C101 1.317 . S
N104 C100 1.328 . S
N104 C102 1.350 . S
H105 C100 0.930 . S
H106 C101 0.930 . S
C107 O108 1.224 . S
C107 O126 1.247 . S
O108 C107 1.224 . S
N109 Co99 2.128 . S
N109 C110 1.355 . S
N109 C112 1.311 1_556 S
C110 N109 1.355 . S
C110 C111 1.363 1_556 S
C110 H122 0.929 . S
C111 C110 1.363 1_554 S
C111 N113 1.375 . S
C111 H129 0.931 . S
C112 N109 1.311 1_554 S
C112 N113 1.347 . S
C112 H123 0.929 . S
N113 C111 1.375 . S
N113 C112 1.347 . S
C114 C117 1.365 . S
C114 N119 1.328 . S
C114 H120 0.929 . S
C115 C116 1.362 . S
C115 C118 1.378 . S
C115 H130 0.929 . S
C116 C115 1.362 . S
C116 C117 1.366 . S
C117 C114 1.365 . S
C117 C116 1.366 . S
C117 H131 0.930 . S
C118 C115 1.378 . S
C118 N119 1.315 . S
C118 H121 0.930 . S
N119 Co99 2.194 . S
N119 C114 1.328 . S
N119 C118 1.315 . S
H120 C114 0.929 . S
H121 C118 0.930 . S
H122 C110 0.929 . S
H123 C112 0.929 . S
O124 Co99 2.351 . S
O124 C127 1.244 . S
O125 Co99 2.155 . S
O125 C127 1.240 . S
O126 Co99 2.096 . S
O126 C107 1.247 . S
C127 O124 1.244 . S
C127 O125 1.240 . S
H128 C102 0.931 . S
H129 C111 0.931 . S
H130 C115 0.929 . S
H131 C117 0.930 . S
Co132 N136 2.148 . S
Co132 N142 2.128 . S
Co132 N152 2.194 . S
Co132 O157 2.351 . S
Co132 O158 2.155 . S
Co132 O159 2.096 . S
C133 N136 1.301 . S
C133 N137 1.328 . S
C133 H138 0.930 . S
C134 C135 1.333 . S
C134 N136 1.317 . S
C134 H139 0.930 . S
C135 C134 1.333 . S
C135 N137 1.350 . S
C135 H161 0.931 . S
N136 Co132 2.148 . S
N136 C133 1.301 . S
N136 C134 1.317 . S
N137 C133 1.328 . S
N137 C135 1.350 . S
H138 C133 0.930 . S
H139 C134 0.930 . S
C140 O141 1.224 . S
C140 O159 1.247 . S
O141 C140 1.224 . S
N142 Co132 2.128 . S
N142 C143 1.355 . S
N142 C145 1.311 . S
C143 N142 1.355 . S
C143 C144 1.363 . S
C143 H155 0.929 . S
C144 C143 1.363 . S
C144 N146 1.375 . S
C144 H162 0.931 . S
C145 N142 1.311 . S
C145 N146 1.347 . S
C145 H156 0.929 . S
N146 C144 1.375 . S
N146 C145 1.347 . S
C147 C150 1.365 . S
C147 N152 1.328 . S
C147 H153 0.929 . S
C148 C149 1.362 . S
C148 C151 1.378 . S
C148 H163 0.929 . S
C149 C148 1.362 . S
C149 C150 1.366 . S
C150 C147 1.365 . S
C150 C149 1.366 . S
C150 H164 0.930 . S
C151 C148 1.378 . S
C151 N152 1.315 . S
C151 H154 0.930 . S
N152 Co132 2.194 . S
N152 C147 1.328 . S
N152 C151 1.315 . S
H153 C147 0.929 . S
H154 C151 0.930 . S
H155 C143 0.929 . S
H156 C145 0.929 . S
O157 Co132 2.351 . S
O157 C160 1.244 . S
O158 Co132 2.155 . S
O158 C160 1.240 . S
O159 Co132 2.096 . S
O159 C140 1.247 . S
C160 O157 1.244 . S
C160 O158 1.240 . S
H161 C135 0.931 . S
H162 C144 0.931 . S
H163 C148 0.929 . S
H164 C150 0.930 . S
Co165 N169 2.148 . S
Co165 N175 2.128 . S
Co165 N185 2.194 . S
Co165 O190 2.351 . S
Co165 O191 2.155 . S
Co165 O192 2.096 . S
C166 N169 1.301 . S
C166 N170 1.328 . S
C166 H171 0.930 . S
C167 C168 1.333 . S
C167 N169 1.317 . S
C167 H172 0.930 . S
C168 C167 1.333 . S
C168 N170 1.350 . S
C168 H194 0.931 . S
N169 Co165 2.148 . S
N169 C166 1.301 . S
N169 C167 1.317 . S
N170 C166 1.328 . S
N170 C168 1.350 . S
H171 C166 0.930 . S
H172 C167 0.930 . S
C173 O174 1.224 . S
C173 O192 1.247 . S
O174 C173 1.224 . S
N175 Co165 2.128 . S
N175 C176 1.355 . S
N175 C178 1.311 . S
C176 N175 1.355 . S
C176 C177 1.363 . S
C176 H188 0.929 . S
C177 C176 1.363 . S
C177 N179 1.375 . S
C177 H195 0.931 . S
C178 N175 1.311 . S
C178 N179 1.347 . S
C178 H189 0.929 . S
N179 C177 1.375 . S
N179 C178 1.347 . S
C180 C183 1.365 . S
C180 N185 1.328 . S
C180 H186 0.929 . S
C181 C182 1.362 . S
C181 C184 1.378 . S
C181 H196 0.929 . S
C182 C181 1.362 . S
C182 C183 1.366 . S
C183 C180 1.365 . S
C183 C182 1.366 . S
C183 H197 0.930 . S
C184 C181 1.378 . S
C184 N185 1.315 . S
C184 H187 0.930 . S
N185 Co165 2.194 . S
N185 C180 1.328 . S
N185 C184 1.315 . S
H186 C180 0.929 . S
H187 C184 0.930 . S
H188 C176 0.929 . S
H189 C178 0.929 . S
O190 Co165 2.351 . S
O190 C193 1.244 . S
O191 Co165 2.155 . S
O191 C193 1.240 . S
O192 Co165 2.096 . S
O192 C173 1.247 . S
C193 O190 1.244 . S
C193 O191 1.240 . S
H194 C168 0.931 . S
H195 C177 0.931 . S
H196 C181 0.929 . S
H197 C183 0.930 . S
Co198 N202 2.148 . S
Co198 N208 2.128 . S
Co198 N218 2.194 . S
Co198 O223 2.351 . S
Co198 O224 2.155 . S
Co198 O225 2.096 . S
C199 N202 1.301 . S
C199 N203 1.328 . S
C199 H204 0.930 . S
C200 C201 1.333 . S
C200 N202 1.317 . S
C200 H205 0.930 . S
C201 C200 1.333 . S
C201 N203 1.350 . S
C201 H227 0.931 . S
N202 Co198 2.148 . S
N202 C199 1.301 . S
N202 C200 1.317 . S
N203 C199 1.328 . S
N203 C201 1.350 . S
H204 C199 0.930 . S
H205 C200 0.930 . S
C206 O207 1.224 . S
C206 O225 1.247 . S
O207 C206 1.224 . S
N208 Co198 2.128 . S
N208 C209 1.355 . S
N208 C211 1.311 . S
C209 N208 1.355 . S
C209 C210 1.363 . S
C209 H221 0.929 . S
C210 C209 1.363 . S
C210 N212 1.375 . S
C210 H228 0.931 . S
C211 N208 1.311 . S
C211 N212 1.347 . S
C211 H222 0.929 . S
N212 C210 1.375 . S
N212 C211 1.347 . S
C213 C216 1.365 . S
C213 N218 1.328 . S
C213 H219 0.929 . S
C214 C215 1.362 . S
C214 C217 1.378 . S
C214 H229 0.929 . S
C215 C214 1.362 . S
C215 C216 1.366 . S
C216 C213 1.365 . S
C216 C215 1.366 . S
C216 H230 0.930 . S
C217 C214 1.378 . S
C217 N218 1.315 . S
C217 H220 0.930 . S
N218 Co198 2.194 . S
N218 C213 1.328 . S
N218 C217 1.315 . S
H219 C213 0.929 . S
H220 C217 0.930 . S
H221 C209 0.929 . S
H222 C211 0.929 . S
O223 Co198 2.351 . S
O223 C226 1.244 . S
O224 Co198 2.155 . S
O224 C226 1.240 . S
O225 Co198 2.096 . S
O225 C206 1.247 . S
C226 O223 1.244 . S
C226 O224 1.240 . S
H227 C201 0.931 . S
H228 C210 0.931 . S
H229 C214 0.929 . S
H230 C216 0.930 . S
Co231 N235 2.148 . S
Co231 N241 2.128 . S
Co231 N251 2.194 . S
Co231 O256 2.351 . S
Co231 O257 2.155 . S
Co231 O258 2.096 . S
C232 N235 1.301 . S
C232 N236 1.328 . S
C232 H237 0.930 . S
C233 C234 1.333 . S
C233 N235 1.317 . S
C233 H238 0.930 . S
C234 C233 1.333 . S
C234 N236 1.350 . S
C234 H260 0.931 . S
N235 Co231 2.148 . S
N235 C232 1.301 . S
N235 C233 1.317 . S
N236 C232 1.328 . S
N236 C234 1.350 . S
H237 C232 0.930 . S
H238 C233 0.930 . S
C239 O240 1.224 . S
C239 O258 1.247 . S
O240 C239 1.224 . S
N241 Co231 2.128 . S
N241 C242 1.355 . S
N241 C244 1.311 . S
C242 N241 1.355 . S
C242 C243 1.363 . S
C242 H254 0.929 . S
C243 C242 1.363 . S
C243 N245 1.375 . S
C243 H261 0.931 . S
C244 N241 1.311 . S
C244 N245 1.347 . S
C244 H255 0.929 . S
N245 C243 1.375 . S
N245 C244 1.347 . S
C246 C249 1.365 . S
C246 N251 1.328 . S
C246 H252 0.929 . S
C247 C248 1.362 . S
C247 C250 1.378 . S
C247 H262 0.929 . S
C248 C247 1.362 . S
C248 C249 1.366 . S
C249 C246 1.365 . S
C249 C248 1.366 . S
C249 H263 0.930 . S
C250 C247 1.378 . S
C250 N251 1.315 . S
C250 H253 0.930 . S
N251 Co231 2.194 . S
N251 C246 1.328 . S
N251 C250 1.315 . S
H252 C246 0.929 . S
H253 C250 0.930 . S
H254 C242 0.929 . S
H255 C244 0.929 . S
O256 Co231 2.351 . S
O256 C259 1.244 . S
O257 Co231 2.155 . S
O257 C259 1.240 . S
O258 Co231 2.096 . S
O258 C239 1.247 . S
C259 O256 1.244 . S
C259 O257 1.240 . S
H260 C234 0.931 . S
H261 C243 0.931 . S
H262 C247 0.929 . S
H263 C249 0.930 . S
Co264 N268 2.148 . S
Co264 N274 2.128 . S
Co264 N284 2.194 . S
Co264 O289 2.351 . S
Co264 O290 2.155 . S
Co264 O291 2.096 . S
C265 N268 1.301 . S
C265 N269 1.328 . S
C265 H270 0.930 . S
C266 C267 1.333 . S
C266 N268 1.317 . S
C266 H271 0.930 . S
C267 C266 1.333 . S
C267 N269 1.350 . S
C267 H293 0.931 . S
N268 Co264 2.148 . S
N268 C265 1.301 . S
N268 C266 1.317 . S
N269 C265 1.328 . S
N269 C267 1.350 . S
H270 C265 0.930 . S
H271 C266 0.930 . S
C272 O273 1.224 . S
C272 O291 1.247 . S
O273 C272 1.224 . S
N274 Co264 2.128 . S
N274 C275 1.355 . S
N274 C277 1.311 . S
C275 N274 1.355 . S
C275 C276 1.363 . S
C275 H287 0.929 . S
C276 C275 1.363 . S
C276 N278 1.375 . S
C276 H294 0.931 . S
C277 N274 1.311 . S
C277 N278 1.347 . S
C277 H288 0.929 . S
N278 C276 1.375 . S
N278 C277 1.347 . S
C279 C282 1.365 . S
C279 N284 1.328 . S
C279 H285 0.929 . S
C280 C281 1.362 . S
C280 C283 1.378 . S
C280 H295 0.929 . S
C281 C280 1.362 . S
C281 C282 1.366 . S
C282 C279 1.365 . S
C282 C281 1.366 . S
C282 H296 0.930 . S
C283 C280 1.378 . S
C283 N284 1.315 . S
C283 H286 0.930 . S
N284 Co264 2.194 . S
N284 C279 1.328 . S
N284 C283 1.315 . S
H285 C279 0.929 . S
H286 C283 0.930 . S
H287 C275 0.929 . S
H288 C277 0.929 . S
O289 Co264 2.351 . S
O289 C292 1.244 . S
O290 Co264 2.155 . S
O290 C292 1.240 . S
O291 Co264 2.096 . S
O291 C272 1.247 . S
C292 O289 1.244 . S
C292 O290 1.240 . S
H293 C267 0.931 . S
H294 C276 0.931 . S
H295 C280 0.929 . S
H296 C282 0.930 . S
Co297 N301 2.148 . S
Co297 N307 2.128 . S
Co297 N317 2.194 . S
Co297 O322 2.351 . S
Co297 O323 2.155 . S
Co297 O324 2.096 . S
C298 N301 1.301 . S
C298 N302 1.328 . S
C298 H303 0.930 . S
C299 C300 1.333 . S
C299 N301 1.317 . S
C299 H304 0.930 . S
C300 C299 1.333 . S
C300 N302 1.350 . S
C300 H326 0.931 . S
N301 Co297 2.148 . S
N301 C298 1.301 . S
N301 C299 1.317 . S
N302 C298 1.328 . S
N302 C300 1.350 . S
H303 C298 0.930 . S
H304 C299 0.930 . S
C305 O306 1.224 . S
C305 O324 1.247 . S
O306 C305 1.224 . S
N307 Co297 2.128 . S
N307 C308 1.355 . S
N307 C310 1.311 . S
C308 N307 1.355 . S
C308 C309 1.363 . S
C308 H320 0.929 . S
C309 C308 1.363 . S
C309 N311 1.375 . S
C309 H327 0.931 . S
C310 N307 1.311 . S
C310 N311 1.347 . S
C310 H321 0.929 . S
N311 C309 1.375 . S
N311 C310 1.347 . S
C312 C315 1.365 . S
C312 N317 1.328 . S
C312 H318 0.929 . S
C313 C314 1.362 . S
C313 C316 1.378 . S
C313 H328 0.929 . S
C314 C313 1.362 . S
C314 C315 1.366 . S
C315 C312 1.365 . S
C315 C314 1.366 . S
C315 H329 0.930 . S
C316 C313 1.378 . S
C316 N317 1.315 . S
C316 H319 0.930 . S
N317 Co297 2.194 . S
N317 C312 1.328 . S
N317 C316 1.315 . S
H318 C312 0.929 . S
H319 C316 0.930 . S
H320 C308 0.929 . S
H321 C310 0.929 . S
O322 Co297 2.351 . S
O322 C325 1.244 . S
O323 Co297 2.155 . S
O323 C325 1.240 . S
O324 Co297 2.096 . S
O324 C305 1.247 . S
C325 O322 1.244 . S
C325 O323 1.240 . S
H326 C300 0.931 . S
H327 C309 0.931 . S
H328 C313 0.929 . S
H329 C315 0.930 . S
Co330 N334 2.148 . S
Co330 N340 2.128 . S
Co330 N350 2.194 . S
Co330 O355 2.351 . S
Co330 O356 2.155 . S
Co330 O357 2.096 . S
C331 N334 1.301 . S
C331 N335 1.328 . S
C331 H336 0.930 . S
C332 C333 1.333 . S
C332 N334 1.317 . S
C332 H337 0.930 . S
C333 C332 1.333 . S
C333 N335 1.350 . S
C333 H359 0.931 . S
N334 Co330 2.148 . S
N334 C331 1.301 . S
N334 C332 1.317 . S
N335 C331 1.328 . S
N335 C333 1.350 . S
H336 C331 0.930 . S
H337 C332 0.930 . S
C338 O339 1.224 . S
C338 O357 1.247 . S
O339 C338 1.224 . S
N340 Co330 2.128 . S
N340 C341 1.355 . S
N340 C343 1.311 . S
C341 N340 1.355 . S
C341 C342 1.363 . S
C341 H353 0.929 . S
C342 C341 1.363 . S
C342 N344 1.375 . S
C342 H360 0.931 . S
C343 N340 1.311 . S
C343 N344 1.347 . S
C343 H354 0.929 . S
N344 C342 1.375 . S
N344 C343 1.347 . S
C345 C348 1.365 . S
C345 N350 1.328 . S
C345 H351 0.929 . S
C346 C347 1.362 . S
C346 C349 1.378 . S
C346 H361 0.929 . S
C347 C346 1.362 . S
C347 C348 1.366 . S
C348 C345 1.365 . S
C348 C347 1.366 . S
C348 H362 0.930 . S
C349 C346 1.378 . S
C349 N350 1.315 . S
C349 H352 0.930 . S
N350 Co330 2.194 . S
N350 C345 1.328 . S
N350 C349 1.315 . S
H351 C345 0.929 . S
H352 C349 0.930 . S
H353 C341 0.929 . S
H354 C343 0.929 . S
O355 Co330 2.351 . S
O355 C358 1.244 . S
O356 Co330 2.155 . S
O356 C358 1.240 . S
O357 Co330 2.096 . S
O357 C338 1.247 . S
C358 O355 1.244 . S
C358 O356 1.240 . S
H359 C333 0.931 . S
H360 C342 0.931 . S
H361 C346 0.929 . S
H362 C348 0.930 . S
Co363 N367 2.148 . S
Co363 N373 2.128 . S
Co363 N383 2.194 . S
Co363 O388 2.351 . S
Co363 O389 2.155 . S
Co363 O390 2.096 . S
C364 N367 1.301 . S
C364 N368 1.328 . S
C364 H369 0.930 . S
C365 C366 1.333 . S
C365 N367 1.317 . S
C365 H370 0.930 . S
C366 C365 1.333 . S
C366 N368 1.350 . S
C366 H392 0.931 . S
N367 Co363 2.148 . S
N367 C364 1.301 . S
N367 C365 1.317 . S
N368 C364 1.328 . S
N368 C366 1.350 . S
H369 C364 0.930 . S
H370 C365 0.930 . S
C371 O372 1.224 . S
C371 O390 1.247 . S
O372 C371 1.224 . S
N373 Co363 2.128 . S
N373 C374 1.355 . S
N373 C376 1.311 . S
C374 N373 1.355 . S
C374 C375 1.363 . S
C374 H386 0.929 . S
C375 C374 1.363 . S
C375 N377 1.375 . S
C375 H393 0.931 . S
C376 N373 1.311 . S
C376 N377 1.347 . S
C376 H387 0.929 . S
N377 C375 1.375 . S
N377 C376 1.347 . S
C378 C381 1.365 . S
C378 N383 1.328 . S
C378 H384 0.929 . S
C379 C380 1.362 . S
C379 C382 1.378 . S
C379 H394 0.929 . S
C380 C379 1.362 . S
C380 C381 1.366 . S
C381 C378 1.365 . S
C381 C380 1.366 . S
C381 H395 0.930 . S
C382 C379 1.378 . S
C382 N383 1.315 . S
C382 H385 0.930 . S
N383 Co363 2.194 . S
N383 C378 1.328 . S
N383 C382 1.315 . S
H384 C378 0.929 . S
H385 C382 0.930 . S
H386 C374 0.929 . S
H387 C376 0.929 . S
O388 Co363 2.351 . S
O388 C391 1.244 . S
O389 Co363 2.155 . S
O389 C391 1.240 . S
O390 Co363 2.096 . S
O390 C371 1.247 . S
C391 O388 1.244 . S
C391 O389 1.240 . S
H392 C366 0.931 . S
H393 C375 0.931 . S
H394 C379 0.929 . S
H395 C381 0.930 . S
Co396 N400 2.148 . S
Co396 N406 2.128 . S
Co396 N416 2.194 . S
Co396 O421 2.351 . S
Co396 O422 2.155 . S
Co396 O423 2.096 . S
C397 N400 1.301 1_556 S
C397 N401 1.328 . S
C397 H402 0.930 . S
C398 C399 1.333 1_554 S
C398 N400 1.317 . S
C398 H403 0.930 . S
C399 C398 1.333 1_556 S
C399 N401 1.350 . S
C399 H425 0.931 . S
N400 Co396 2.148 . S
N400 C397 1.301 1_554 S
N400 C398 1.317 . S
N401 C397 1.328 . S
N401 C399 1.350 . S
H402 C397 0.930 . S
H403 C398 0.930 . S
C404 O405 1.224 . S
C404 O423 1.247 . S
O405 C404 1.224 . S
N406 Co396 2.128 . S
N406 C407 1.355 . S
N406 C409 1.311 . S
C407 N406 1.355 . S
C407 C408 1.363 . S
C407 H419 0.929 . S
C408 C407 1.363 . S
C408 N410 1.375 . S
C408 H426 0.931 . S
C409 N406 1.311 . S
C409 N410 1.347 . S
C409 H420 0.929 . S
N410 C408 1.375 . S
N410 C409 1.347 . S
C411 C414 1.365 . S
C411 N416 1.328 . S
C411 H417 0.929 . S
C412 C413 1.362 . S
C412 C415 1.378 . S
C412 H427 0.929 . S
C413 C412 1.362 . S
C413 C414 1.366 . S
C414 C411 1.365 . S
C414 C413 1.366 . S
C414 H428 0.930 . S
C415 C412 1.378 . S
C415 N416 1.315 . S
C415 H418 0.930 . S
N416 Co396 2.194 . S
N416 C411 1.328 . S
N416 C415 1.315 . S
H417 C411 0.929 . S
H418 C415 0.930 . S
H419 C407 0.929 . S
H420 C409 0.929 . S
O421 Co396 2.351 . S
O421 C424 1.244 . S
O422 Co396 2.155 . S
O422 C424 1.240 . S
O423 Co396 2.096 . S
O423 C404 1.247 . S
C424 O421 1.244 . S
C424 O422 1.240 . S
H425 C399 0.931 . S
H426 C408 0.931 . S
H427 C412 0.929 . S
H428 C414 0.930 . S
Co429 N433 2.148 . S
Co429 N439 2.128 . S
Co429 N449 2.194 . S
Co429 O454 2.351 . S
Co429 O455 2.155 . S
Co429 O456 2.096 . S
C430 N433 1.301 . S
C430 N434 1.328 . S
C430 H435 0.930 . S
C431 C432 1.333 . S
C431 N433 1.317 . S
C431 H436 0.930 . S
C432 C431 1.333 . S
C432 N434 1.350 . S
C432 H458 0.931 . S
N433 Co429 2.148 . S
N433 C430 1.301 . S
N433 C431 1.317 . S
N434 C430 1.328 . S
N434 C432 1.350 . S
H435 C430 0.930 . S
H436 C431 0.930 . S
C437 O438 1.224 . S
C437 O456 1.247 . S
O438 C437 1.224 . S
N439 Co429 2.128 . S
N439 C440 1.355 . S
N439 C442 1.311 1_554 S
C440 N439 1.355 . S
C440 C441 1.363 1_554 S
C440 H452 0.929 . S
C441 C440 1.363 1_556 S
C441 N443 1.375 . S
C441 H459 0.931 . S
C442 N439 1.311 1_556 S
C442 N443 1.347 . S
C442 H453 0.929 . S
N443 C441 1.375 . S
N443 C442 1.347 . S
C444 C447 1.365 . S
C444 N449 1.328 . S
C444 H450 0.929 . S
C445 C446 1.362 . S
C445 C448 1.378 . S
C445 H460 0.929 . S
C446 C445 1.362 . S
C446 C447 1.366 . S
C447 C444 1.365 . S
C447 C446 1.366 . S
C447 H461 0.930 . S
C448 C445 1.378 . S
C448 N449 1.315 . S
C448 H451 0.930 . S
N449 Co429 2.194 . S
N449 C444 1.328 . S
N449 C448 1.315 . S
H450 C444 0.929 . S
H451 C448 0.930 . S
H452 C440 0.929 . S
H453 C442 0.929 . S
O454 Co429 2.351 . S
O454 C457 1.244 . S
O455 Co429 2.155 . S
O455 C457 1.240 . S
O456 Co429 2.096 . S
O456 C437 1.247 . S
C457 O454 1.244 . S
C457 O455 1.240 . S
H458 C432 0.931 . S
H459 C441 0.931 . S
H460 C445 0.929 . S
H461 C447 0.930 . S
Co462 N466 2.148 . S
Co462 N472 2.128 . S
Co462 N482 2.194 . S
Co462 O487 2.351 . S
Co462 O488 2.155 . S
Co462 O489 2.096 . S
C463 N466 1.301 1_554 S
C463 N467 1.328 . S
C463 H468 0.930 . S
C464 C465 1.333 1_556 S
C464 N466 1.317 . S
C464 H469 0.930 . S
C465 C464 1.333 1_554 S
C465 N467 1.350 . S
C465 H491 0.931 . S
N466 Co462 2.148 . S
N466 C463 1.301 1_556 S
N466 C464 1.317 . S
N467 C463 1.328 . S
N467 C465 1.350 . S
H468 C463 0.930 . S
H469 C464 0.930 . S
C470 O471 1.224 . S
C470 O489 1.247 . S
O471 C470 1.224 . S
N472 Co462 2.128 . S
N472 C473 1.355 . S
N472 C475 1.311 . S
C473 N472 1.355 . S
C473 C474 1.363 . S
C473 H485 0.929 . S
C474 C473 1.363 . S
C474 N476 1.375 . S
C474 H492 0.931 . S
C475 N472 1.311 . S
C475 N476 1.347 . S
C475 H486 0.929 . S
N476 C474 1.375 . S
N476 C475 1.347 . S
C477 C480 1.365 . S
C477 N482 1.328 . S
C477 H483 0.929 . S
C478 C479 1.362 . S
C478 C481 1.378 . S
C478 H493 0.929 . S
C479 C478 1.362 . S
C479 C480 1.366 . S
C480 C477 1.365 . S
C480 C479 1.366 . S
C480 H494 0.930 . S
C481 C478 1.378 . S
C481 N482 1.315 . S
C481 H484 0.930 . S
N482 Co462 2.194 . S
N482 C477 1.328 . S
N482 C481 1.315 . S
H483 C477 0.929 . S
H484 C481 0.930 . S
H485 C473 0.929 . S
H486 C475 0.929 . S
O487 Co462 2.351 . S
O487 C490 1.244 . S
O488 Co462 2.155 . S
O488 C490 1.240 . S
O489 Co462 2.096 . S
O489 C470 1.247 . S
C490 O487 1.244 . S
C490 O488 1.240 . S
H491 C465 0.931 . S
H492 C474 0.931 . S
H493 C478 0.929 . S
H494 C480 0.930 . S
Co495 N499 2.148 . S
Co495 N505 2.128 . S
Co495 N515 2.194 . S
Co495 O520 2.351 . S
Co495 O521 2.155 . S
Co495 O522 2.096 . S
C496 N499 1.301 . S
C496 N500 1.328 . S
C496 H501 0.930 . S
C497 C498 1.333 . S
C497 N499 1.317 . S
C497 H502 0.930 . S
C498 C497 1.333 . S
C498 N500 1.350 . S
C498 H524 0.931 . S
N499 Co495 2.148 . S
N499 C496 1.301 . S
N499 C497 1.317 . S
N500 C496 1.328 . S
N500 C498 1.350 . S
H501 C496 0.930 . S
H502 C497 0.930 . S
C503 O504 1.224 . S
C503 O522 1.247 . S
O504 C503 1.224 . S
N505 Co495 2.128 . S
N505 C506 1.355 . S
N505 C508 1.311 1_556 S
C506 N505 1.355 . S
C506 C507 1.363 1_556 S
C506 H518 0.929 . S
C507 C506 1.363 1_554 S
C507 N509 1.375 . S
C507 H525 0.931 . S
C508 N505 1.311 1_554 S
C508 N509 1.347 . S
C508 H519 0.929 . S
N509 C507 1.375 . S
N509 C508 1.347 . S
C510 C513 1.365 . S
C510 N515 1.328 . S
C510 H516 0.929 . S
C511 C512 1.362 . S
C511 C514 1.378 . S
C511 H526 0.929 . S
C512 C511 1.362 . S
C512 C513 1.366 . S
C513 C510 1.365 . S
C513 C512 1.366 . S
C513 H527 0.930 . S
C514 C511 1.378 . S
C514 N515 1.315 . S
C514 H517 0.930 . S
N515 Co495 2.194 . S
N515 C510 1.328 . S
N515 C514 1.315 . S
H516 C510 0.929 . S
H517 C514 0.930 . S
H518 C506 0.929 . S
H519 C508 0.929 . S
O520 Co495 2.351 . S
O520 C523 1.244 . S
O521 Co495 2.155 . S
O521 C523 1.240 . S
O522 Co495 2.096 . S
O522 C503 1.247 . S
C523 O520 1.244 . S
C523 O521 1.240 . S
H524 C498 0.931 . S
H525 C507 0.931 . S
H526 C511 0.929 . S
H527 C513 0.930 . S
H528 C546 0.951 . S
H529 C548 0.951 . S
H530 C550 0.950 . S
H531 C551 0.950 . S
H532 C553 0.950 . S
H533 C556 0.950 . S
H534 C557 0.950 . S
H535 C559 0.950 . S
H536 C560 0.950 . S
H537 C561 0.951 . S
H538 C563 0.951 . S
H539 C565 0.950 . S
H540 C566 0.950 . S
H541 C568 0.950 . S
H542 C571 0.950 . S
H543 C572 0.950 . S
H544 C574 0.950 . S
H545 C575 0.950 . S
C546 H528 0.951 . S
C546 C547 1.366 . S
C546 C548 1.388 . S
C547 C546 1.366 . S
C547 C551 1.385 . S
C548 H529 0.951 . S
C548 C546 1.388 . S
C548 C549 1.366 . S
C549 C548 1.366 . S
C549 C550 1.414 . S
C549 C552 1.499 . S
C550 H530 0.950 . S
C550 C549 1.414 . S
C550 C551 1.374 . S
C551 H531 0.950 . S
C551 C547 1.385 . S
C551 C550 1.374 . S
C552 C549 1.499 . S
C552 C553 1.373 . S
C552 C554 1.389 . S
C553 H532 0.950 . S
C553 C552 1.373 . S
C553 C569 1.377 . S
C554 C552 1.389 . S
C554 C555 1.524 . S
C554 C568 1.377 . S
C555 C554 1.524 . S
C555 C556 1.397 . S
C555 C560 1.363 . S
C556 H533 0.950 . S
C556 C555 1.397 . S
C556 C557 1.334 . S
C557 H534 0.950 . S
C557 C556 1.334 . S
C557 C558 1.287 . S
C558 C557 1.287 . S
C558 C559 1.524 . S
C558 H577 0.913 . S
C559 H535 0.950 . S
C559 C558 1.524 . S
C559 C560 1.415 . S
C560 H536 0.950 . S
C560 C555 1.363 . S
C560 C559 1.415 . S
C561 H537 0.951 . S
C561 C562 1.366 . S
C561 C563 1.388 . S
C562 C561 1.366 . S
C562 C566 1.385 . S
C563 H538 0.951 . S
C563 C561 1.388 . S
C563 C564 1.366 . S
C564 C563 1.366 . S
C564 C565 1.414 . S
C564 C567 1.499 . S
C565 H539 0.950 . S
C565 C564 1.414 . S
C565 C566 1.374 . S
C566 H540 0.950 . S
C566 C562 1.385 . S
C566 C565 1.374 . S
C567 C564 1.499 . S
C567 C568 1.373 . S
C567 C569 1.389 . S
C568 H541 0.950 . S
C568 C554 1.377 . S
C568 C567 1.373 . S
C569 C553 1.377 . S
C569 C567 1.389 . S
C569 C570 1.524 . S
C570 C569 1.524 . S
C570 C571 1.397 . S
C570 C575 1.363 . S
C571 H542 0.950 . S
C571 C570 1.397 . S
C571 C572 1.334 . S
C572 H543 0.950 . S
C572 C571 1.334 . S
C572 C573 1.287 . S
C573 C572 1.287 . S
C573 C574 1.524 . S
C573 H576 0.999 . S
C574 H544 0.950 . S
C574 C573 1.524 . S
C574 C575 1.415 . S
C575 H545 0.950 . S
C575 C570 1.363 . S
C575 C574 1.415 . S
H576 C573 0.999 . S
H577 C558 0.913 . S
H578 C596 0.951 . S
H579 C598 0.951 . S
H580 C600 0.950 . S
H581 C601 0.950 . S
H582 C603 0.950 . S
H583 C606 0.950 1_455 S
H584 C607 0.950 . S
H585 C609 0.950 . S
H586 C610 0.950 . S
H587 C611 0.951 . S
H588 C613 0.951 . S
H589 C615 0.950 . S
H590 C616 0.950 . S
H591 C618 0.950 . S
H592 C621 0.950 1_655 S
H593 C622 0.950 . S
H594 C624 0.950 . S
H595 C625 0.950 . S
C596 H578 0.951 . S
C596 C597 1.366 . S
C596 C598 1.388 . S
C597 C596 1.366 . S
C597 C601 1.385 . S
C598 H579 0.951 . S
C598 C596 1.388 . S
C598 C599 1.366 . S
C599 C598 1.366 . S
C599 C600 1.414 . S
C599 C602 1.499 . S
C600 H580 0.950 . S
C600 C599 1.414 . S
C600 C601 1.374 . S
C601 H581 0.950 . S
C601 C597 1.385 . S
C601 C600 1.374 . S
C602 C599 1.499 . S
C602 C603 1.373 . S
C602 C604 1.389 1_455 S
C603 H582 0.950 . S
C603 C602 1.373 . S
C603 C619 1.377 . S
C604 C602 1.389 1_655 S
C604 C605 1.524 . S
C604 C618 1.377 . S
C605 C604 1.524 . S
C605 C606 1.397 . S
C605 C610 1.363 . S
C606 H583 0.950 1_655 S
C606 C605 1.397 . S
C606 C607 1.334 . S
C607 H584 0.950 . S
C607 C606 1.334 . S
C607 C608 1.287 . S
C608 C607 1.287 . S
C608 C609 1.524 . S
C608 H627 0.913 . S
C609 H585 0.950 . S
C609 C608 1.524 . S
C609 C610 1.415 . S
C610 H586 0.950 . S
C610 C605 1.363 . S
C610 C609 1.415 . S
C611 H587 0.951 . S
C611 C612 1.366 . S
C611 C613 1.388 . S
C612 C611 1.366 . S
C612 C616 1.385 . S
C613 H588 0.951 . S
C613 C611 1.388 . S
C613 C614 1.366 . S
C614 C613 1.366 . S
C614 C615 1.414 . S
C614 C617 1.499 . S
C615 H589 0.950 . S
C615 C614 1.414 . S
C615 C616 1.374 . S
C616 H590 0.950 . S
C616 C612 1.385 . S
C616 C615 1.374 . S
C617 C614 1.499 . S
C617 C618 1.373 . S
C617 C619 1.389 1_655 S
C618 H591 0.950 . S
C618 C604 1.377 . S
C618 C617 1.373 . S
C619 C603 1.377 . S
C619 C617 1.389 1_455 S
C619 C620 1.524 . S
C620 C619 1.524 . S
C620 C621 1.397 . S
C620 C625 1.363 . S
C621 H592 0.950 1_455 S
C621 C620 1.397 . S
C621 C622 1.334 . S
C622 H593 0.950 . S
C622 C621 1.334 . S
C622 C623 1.287 . S
C623 C622 1.287 . S
C623 C624 1.524 . S
C623 H626 0.999 . S
C624 H594 0.950 . S
C624 C623 1.524 . S
C624 C625 1.415 . S
C625 H595 0.950 . S
C625 C620 1.363 . S
C625 C624 1.415 . S
H626 C623 0.999 . S
H627 C608 0.913 . S
H628 C646 0.951 . S
H629 C648 0.951 . S
H630 C650 0.950 . S
H631 C651 0.950 . S
H632 C653 0.950 . S
H633 C656 0.950 . S
H634 C657 0.950 . S
H635 C659 0.950 . S
H636 C660 0.950 . S
H637 C661 0.951 . S
H638 C663 0.951 . S
H639 C665 0.950 . S
H640 C666 0.950 . S
H641 C668 0.950 . S
H642 C671 0.950 . S
H643 C672 0.950 . S
H644 C674 0.950 . S
H645 C675 0.950 . S
C646 H628 0.951 . S
C646 C647 1.366 . S
C646 C648 1.388 . S
C647 C646 1.366 . S
C647 C651 1.385 . S
C648 H629 0.951 . S
C648 C646 1.388 . S
C648 C649 1.366 . S
C649 C648 1.366 . S
C649 C650 1.414 . S
C649 C652 1.499 . S
C650 H630 0.950 . S
C650 C649 1.414 . S
C650 C651 1.374 . S
C651 H631 0.950 . S
C651 C647 1.385 . S
C651 C650 1.374 . S
C652 C649 1.499 . S
C652 C653 1.373 . S
C652 C654 1.389 1_556 S
C653 H632 0.950 . S
C653 C652 1.373 . S
C653 C669 1.377 . S
C654 C652 1.389 1_554 S
C654 C655 1.524 . S
C654 C668 1.377 . S
C655 C654 1.524 . S
C655 C656 1.397 . S
C655 C660 1.363 . S
C656 H633 0.950 . S
C656 C655 1.397 . S
C656 C657 1.334 . S
C657 H634 0.950 . S
C657 C656 1.334 . S
C657 C658 1.287 . S
C658 C657 1.287 . S
C658 C659 1.524 . S
C658 H677 0.913 . S
C659 H635 0.950 . S
C659 C658 1.524 . S
C659 C660 1.415 . S
C660 H636 0.950 . S
C660 C655 1.363 . S
C660 C659 1.415 . S
C661 H637 0.951 . S
C661 C662 1.366 . S
C661 C663 1.388 . S
C662 C661 1.366 . S
C662 C666 1.385 . S
C663 H638 0.951 . S
C663 C661 1.388 . S
C663 C664 1.366 . S
C664 C663 1.366 . S
C664 C665 1.414 . S
C664 C667 1.499 . S
C665 H639 0.950 . S
C665 C664 1.414 . S
C665 C666 1.374 . S
C666 H640 0.950 . S
C666 C662 1.385 . S
C666 C665 1.374 . S
C667 C664 1.499 . S
C667 C668 1.373 . S
C667 C669 1.389 1_554 S
C668 H641 0.950 . S
C668 C654 1.377 . S
C668 C667 1.373 . S
C669 C653 1.377 . S
C669 C667 1.389 1_556 S
C669 C670 1.524 . S
C670 C669 1.524 . S
C670 C671 1.397 . S
C670 C675 1.363 . S
C671 H642 0.950 . S
C671 C670 1.397 . S
C671 C672 1.334 . S
C672 H643 0.950 . S
C672 C671 1.334 . S
C672 C673 1.287 . S
C673 C672 1.287 . S
C673 C674 1.524 . S
C673 H676 0.999 . S
C674 H644 0.950 . S
C674 C673 1.524 . S
C674 C675 1.415 . S
C675 H645 0.950 . S
C675 C670 1.363 . S
C675 C674 1.415 . S
H676 C673 0.999 . S
H677 C658 0.913 . S
H678 C696 0.951 . S
H679 C698 0.951 . S
H680 C700 0.950 . S
H681 C701 0.950 1_554 S
H682 C703 0.950 . S
H683 C706 0.950 1_655 S
H684 C707 0.956 . S
H685 C709 0.950 . S
H686 C710 0.950 . S
H687 C711 0.951 . S
H688 C713 0.951 . S
H689 C715 0.950 . S
H690 C716 0.950 1_556 S
H691 C718 0.950 . S
H692 C721 0.950 1_455 S
H693 C722 0.956 . S
H694 C724 0.950 . S
H695 C725 0.950 . S
C696 H678 0.951 . S
C696 C697 1.366 . S
C696 C698 1.388 . S
C697 C696 1.366 . S
C697 C701 1.385 . S
C698 H679 0.951 . S
C698 C696 1.388 . S
C698 C699 1.366 . S
C699 C698 1.366 . S
C699 C700 1.414 1_556 S
C699 C702 1.499 . S
C700 H680 0.950 . S
C700 C699 1.414 1_554 S
C700 C701 1.374 1_554 S
C701 H681 0.950 1_556 S
C701 C697 1.385 . S
C701 C700 1.374 1_556 S
C702 C699 1.499 . S
C702 C703 1.373 1_556 S
C702 C704 1.389 1_655 S
C703 H682 0.950 . S
C703 C702 1.373 1_554 S
C703 C719 1.377 . S
C704 C702 1.389 1_455 S
C704 C705 1.524 . S
C704 C718 1.377 . S
C705 C704 1.524 . S
C705 C706 1.397 . S
C705 C710 1.363 . S
C706 H683 0.950 1_455 S
C706 C705 1.397 . S
C706 C707 1.334 . S
C707 H684 0.956 . S
C707 C706 1.334 . S
C707 C708 1.287 . S
C708 C707 1.287 . S
C708 C709 1.524 . S
C708 H727 0.913 . S
C709 H685 0.950 . S
C709 C708 1.524 . S
C709 C710 1.415 . S
C710 H686 0.950 . S
C710 C705 1.363 . S
C710 C709 1.415 . S
C711 H687 0.951 . S
C711 C712 1.366 . S
C711 C713 1.388 . S
C712 C711 1.366 . S
C712 C716 1.385 . S
C713 H688 0.951 . S
C713 C711 1.388 . S
C713 C714 1.366 . S
C714 C713 1.366 . S
C714 C715 1.414 1_554 S
C714 C717 1.499 . S
C715 H689 0.950 . S
C715 C714 1.414 1_556 S
C715 C716 1.374 1_556 S
C716 H690 0.950 1_554 S
C716 C712 1.385 . S
C716 C715 1.374 1_554 S
C717 C714 1.499 . S
C717 C718 1.373 1_554 S
C717 C719 1.389 1_455 S
C718 H691 0.950 . S
C718 C704 1.377 . S
C718 C717 1.373 1_556 S
C719 C703 1.377 . S
C719 C717 1.389 1_655 S
C719 C720 1.524 . S
C720 C719 1.524 . S
C720 C721 1.397 . S
C720 C725 1.363 . S
C721 H692 0.950 1_655 S
C721 C720 1.397 . S
C721 C722 1.334 . S
C722 H693 0.956 . S
C722 C721 1.334 . S
C722 C723 1.287 . S
C723 C722 1.287 . S
C723 C724 1.524 . S
C723 H726 0.999 . S
C724 H694 0.950 . S
C724 C723 1.524 . S
C724 C725 1.415 . S
C725 H695 0.950 . S
C725 C720 1.363 . S
C725 C724 1.415 . S
H726 C723 0.999 . S
H727 C708 0.913 . S
H728 C746 0.951 . S
H729 C748 0.951 . S
H730 C750 0.950 . S
H731 C751 0.950 . S
H732 C753 0.950 . S
H733 C756 0.950 . S
H734 C757 0.950 . S
H735 C759 0.950 . S
H736 C760 0.950 . S
H737 C761 0.951 . S
H738 C763 0.951 . S
H739 C765 0.950 . S
H740 C766 0.950 . S
H741 C768 0.950 . S
H742 C771 0.950 . S
H743 C772 0.950 . S
H744 C774 0.950 . S
H745 C775 0.950 . S
C746 H728 0.951 . S
C746 C747 1.366 . S
C746 C748 1.388 . S
C747 C746 1.366 . S
C747 C751 1.385 . S
C748 H729 0.951 . S
C748 C746 1.388 . S
C748 C749 1.366 . S
C749 C748 1.366 . S
C749 C750 1.414 . S
C749 C752 1.499 . S
C750 H730 0.950 . S
C750 C749 1.414 . S
C750 C751 1.374 . S
C751 H731 0.950 . S
C751 C747 1.385 . S
C751 C750 1.374 . S
C752 C749 1.499 . S
C752 C753 1.373 . S
C752 C754 1.389 . S
C753 H732 0.950 . S
C753 C752 1.373 . S
C753 C769 1.377 . S
C754 C752 1.389 . S
C754 C755 1.524 . S
C754 C768 1.377 . S
C755 C754 1.524 . S
C755 C756 1.397 . S
C755 C760 1.363 . S
C756 H733 0.950 . S
C756 C755 1.397 . S
C756 C757 1.334 . S
C757 H734 0.950 . S
C757 C756 1.334 . S
C757 C758 1.287 . S
C758 C757 1.287 . S
C758 C759 1.524 . S
C758 H777 0.913 . S
C759 H735 0.950 . S
C759 C758 1.524 . S
C759 C760 1.415 . S
C760 H736 0.950 . S
C760 C755 1.363 . S
C760 C759 1.415 . S
C761 H737 0.951 . S
C761 C762 1.366 . S
C761 C763 1.388 . S
C762 C761 1.366 . S
C762 C766 1.385 . S
C763 H738 0.951 . S
C763 C761 1.388 . S
C763 C764 1.366 . S
C764 C763 1.366 . S
C764 C765 1.414 . S
C764 C767 1.499 . S
C765 H739 0.950 . S
C765 C764 1.414 . S
C765 C766 1.374 . S
C766 H740 0.950 . S
C766 C762 1.385 . S
C766 C765 1.374 . S
C767 C764 1.499 . S
C767 C768 1.373 . S
C767 C769 1.389 . S
C768 H741 0.950 . S
C768 C754 1.377 . S
C768 C767 1.373 . S
C769 C753 1.377 . S
C769 C767 1.389 . S
C769 C770 1.524 . S
C770 C769 1.524 . S
C770 C771 1.397 . S
C770 C775 1.363 . S
C771 H742 0.950 . S
C771 C770 1.397 . S
C771 C772 1.334 . S
C772 H743 0.950 . S
C772 C771 1.334 . S
C772 C773 1.287 . S
C773 C772 1.287 . S
C773 C774 1.524 . S
C773 H776 0.999 . S
C774 H744 0.950 . S
C774 C773 1.524 . S
C774 C775 1.415 . S
C775 H745 0.950 . S
C775 C770 1.363 . S
C775 C774 1.415 . S
H776 C773 0.999 . S
H777 C758 0.913 . S
H778 C796 0.951 . S
H779 C798 0.951 . S
H780 C800 0.950 . S
H781 C801 0.950 . S
H782 C803 0.950 . S
H783 C806 0.950 . S
H784 C807 0.950 . S
H785 C809 0.950 . S
H786 C810 0.950 . S
H787 C811 0.951 . S
H788 C813 0.951 . S
H789 C815 0.950 . S
H790 C816 0.950 . S
H791 C818 0.950 . S
H792 C821 0.950 . S
H793 C822 0.950 . S
H794 C824 0.950 1_554 S
H795 C825 0.950 . S
C796 H778 0.951 . S
C796 C797 1.366 . S
C796 C798 1.388 . S
C797 C796 1.366 . S
C797 C801 1.385 . S
C798 H779 0.951 . S
C798 C796 1.388 . S
C798 C799 1.366 . S
C799 C798 1.366 . S
C799 C800 1.414 . S
C799 C802 1.499 . S
C800 H780 0.950 . S
C800 C799 1.414 . S
C800 C801 1.374 . S
C801 H781 0.950 . S
C801 C797 1.385 . S
C801 C800 1.374 . S
C802 C799 1.499 . S
C802 C803 1.373 . S
C802 C804 1.389 . S
C803 H782 0.950 . S
C803 C802 1.373 . S
C803 C819 1.377 1_455 S
C804 C802 1.389 . S
C804 C805 1.524 . S
C804 C818 1.377 1_455 S
C805 C804 1.524 . S
C805 C806 1.397 . S
C805 C810 1.363 1_455 S
C806 H783 0.950 . S
C806 C805 1.397 . S
C806 C807 1.334 . S
C807 H784 0.950 . S
C807 C806 1.334 . S
C807 C808 1.287 . S
C808 C807 1.287 . S
C808 C809 1.524 1_455 S
C808 H827 0.913 . S
C809 H785 0.950 . S
C809 C808 1.524 1_655 S
C809 C810 1.415 . S
C810 H786 0.950 . S
C810 C805 1.363 1_655 S
C810 C809 1.415 . S
C811 H787 0.951 . S
C811 C812 1.366 . S
C811 C813 1.388 . S
C812 C811 1.366 . S
C812 C816 1.385 . S
C813 H788 0.951 . S
C813 C811 1.388 . S
C813 C814 1.366 . S
C814 C813 1.366 . S
C814 C815 1.414 . S
C814 C817 1.499 . S
C815 H789 0.950 . S
C815 C814 1.414 . S
C815 C816 1.374 . S
C816 H790 0.950 . S
C816 C812 1.385 . S
C816 C815 1.374 . S
C817 C814 1.499 . S
C817 C818 1.373 . S
C817 C819 1.389 . S
C818 H791 0.950 . S
C818 C804 1.377 1_655 S
C818 C817 1.373 . S
C819 C803 1.377 1_655 S
C819 C817 1.389 . S
C819 C820 1.524 . S
C820 C819 1.524 . S
C820 C821 1.397 . S
C820 C825 1.363 1_655 S
C821 H792 0.950 . S
C821 C820 1.397 . S
C821 C822 1.334 . S
C822 H793 0.950 . S
C822 C821 1.334 . S
C822 C823 1.287 . S
C823 C822 1.287 . S
C823 C824 1.524 1_655 S
C823 H826 0.999 1_556 S
C824 H794 0.950 1_556 S
C824 C823 1.524 1_455 S
C824 C825 1.415 . S
C825 H795 0.950 . S
C825 C820 1.363 1_455 S
C825 C824 1.415 . S
H826 C823 0.999 1_554 S
H827 C808 0.913 . S
H828 C846 0.951 . S
H829 C848 0.951 . S
H830 C850 0.950 . S
H831 C851 0.950 . S
H832 C853 0.950 . S
H833 C856 0.950 . S
H834 C857 0.950 . S
H835 C859 0.950 . S
H836 C860 0.950 1_556 S
H837 C861 0.951 . S
H838 C863 0.951 . S
H839 C865 0.950 . S
H840 C866 0.950 . S
H841 C868 0.950 . S
H842 C871 0.950 . S
H843 C872 0.950 . S
H844 C874 0.950 . S
H845 C875 0.950 1_554 S
C846 H828 0.951 . S
C846 C847 1.366 . S
C846 C848 1.388 . S
C847 C846 1.366 . S
C847 C851 1.385 . S
C848 H829 0.951 . S
C848 C846 1.388 . S
C848 C849 1.366 . S
C849 C848 1.366 . S
C849 C850 1.414 . S
C849 C852 1.499 . S
C850 H830 0.950 . S
C850 C849 1.414 . S
C850 C851 1.374 . S
C851 H831 0.950 . S
C851 C847 1.385 . S
C851 C850 1.374 . S
C852 C849 1.499 . S
C852 C853 1.373 1_554 S
C852 C854 1.389 . S
C853 H832 0.950 . S
C853 C852 1.373 1_556 S
C853 C869 1.377 . S
C854 C852 1.389 . S
C854 C855 1.524 . S
C854 C868 1.377 . S
C855 C854 1.524 . S
C855 C856 1.397 . S
C855 C860 1.363 . S
C856 H833 0.950 . S
C856 C855 1.397 . S
C856 C857 1.334 . S
C857 H834 0.950 . S
C857 C856 1.334 . S
C857 C858 1.287 . S
C858 C857 1.287 . S
C858 C859 1.524 . S
C858 H877 0.913 . S
C859 H835 0.950 . S
C859 C858 1.524 . S
C859 C860 1.415 . S
C860 H836 0.950 1_554 S
C860 C855 1.363 . S
C860 C859 1.415 . S
C861 H837 0.951 . S
C861 C862 1.366 . S
C861 C863 1.388 . S
C862 C861 1.366 . S
C862 C866 1.385 . S
C863 H838 0.951 . S
C863 C861 1.388 . S
C863 C864 1.366 . S
C864 C863 1.366 . S
C864 C865 1.414 . S
C864 C867 1.499 . S
C865 H839 0.950 . S
C865 C864 1.414 . S
C865 C866 1.374 . S
C866 H840 0.950 . S
C866 C862 1.385 . S
C866 C865 1.374 . S
C867 C864 1.499 . S
C867 C868 1.373 1_556 S
C867 C869 1.389 . S
C868 H841 0.950 . S
C868 C854 1.377 . S
C868 C867 1.373 1_554 S
C869 C853 1.377 . S
C869 C867 1.389 . S
C869 C870 1.524 . S
C870 C869 1.524 . S
C870 C871 1.397 . S
C870 C875 1.363 . S
C871 H842 0.950 . S
C871 C870 1.397 . S
C871 C872 1.334 . S
C872 H843 0.950 . S
C872 C871 1.334 . S
C872 C873 1.287 . S
C873 C872 1.287 . S
C873 C874 1.524 . S
C873 H876 0.999 . S
C874 H844 0.950 . S
C874 C873 1.524 . S
C874 C875 1.415 . S
C875 H845 0.950 1_556 S
C875 C870 1.363 . S
C875 C874 1.415 . S
H876 C873 0.999 . S
H877 C858 0.913 . S
H878 C896 0.951 . S
H879 C898 0.951 . S
H880 C900 0.950 . S
H881 C901 0.950 . S
H882 C903 0.950 . S
H883 C906 0.950 . S
H884 C907 0.950 . S
H885 C909 0.950 . S
H886 C910 0.950 . S
H887 C911 0.951 . S
H888 C913 0.951 . S
H889 C915 0.950 . S
H890 C916 0.950 . S
H891 C918 0.950 . S
H892 C921 0.950 . S
H893 C922 0.950 . S
H894 C924 0.950 . S
H895 C925 0.950 . S
C896 H878 0.951 . S
C896 C897 1.366 . S
C896 C898 1.388 . S
C897 C896 1.366 . S
C897 C901 1.385 . S
C898 H879 0.951 . S
C898 C896 1.388 . S
C898 C899 1.366 . S
C899 C898 1.366 . S
C899 C900 1.414 . S
C899 C902 1.499 . S
C900 H880 0.950 . S
C900 C899 1.414 . S
C900 C901 1.374 . S
C901 H881 0.950 . S
C901 C897 1.385 . S
C901 C900 1.374 . S
C902 C899 1.499 . S
C902 C903 1.373 1_565 S
C902 C904 1.389 . S
C903 H882 0.950 . S
C903 C902 1.373 1_545 S
C903 C919 1.377 . S
C904 C902 1.389 . S
C904 C905 1.524 . S
C904 C918 1.377 . S
C905 C904 1.524 . S
C905 C906 1.397 . S
C905 C910 1.363 . S
C906 H883 0.950 . S
C906 C905 1.397 . S
C906 C907 1.334 . S
C907 H884 0.950 . S
C907 C906 1.334 . S
C907 C908 1.287 . S
C908 C907 1.287 . S
C908 C909 1.524 . S
C908 H927 0.913 . S
C909 H885 0.950 . S
C909 C908 1.524 . S
C909 C910 1.415 . S
C910 H886 0.950 . S
C910 C905 1.363 . S
C910 C909 1.415 . S
C911 H887 0.951 . S
C911 C912 1.366 . S
C911 C913 1.388 . S
C912 C911 1.366 . S
C912 C916 1.385 . S
C913 H888 0.951 . S
C913 C911 1.388 . S
C913 C914 1.366 . S
C914 C913 1.366 . S
C914 C915 1.414 . S
C914 C917 1.499 . S
C915 H889 0.950 . S
C915 C914 1.414 . S
C915 C916 1.374 . S
C916 H890 0.950 . S
C916 C912 1.385 . S
C916 C915 1.374 . S
C917 C914 1.499 . S
C917 C918 1.373 1_545 S
C917 C919 1.389 . S
C918 H891 0.950 . S
C918 C904 1.377 . S
C918 C917 1.373 1_565 S
C919 C903 1.377 . S
C919 C917 1.389 . S
C919 C920 1.524 . S
C920 C919 1.524 . S
C920 C921 1.397 . S
C920 C925 1.363 . S
C921 H892 0.950 . S
C921 C920 1.397 . S
C921 C922 1.334 . S
C922 H893 0.950 . S
C922 C921 1.334 . S
C922 C923 1.287 . S
C923 C922 1.287 . S
C923 C924 1.524 . S
C923 H926 0.999 . S
C924 H894 0.950 . S
C924 C923 1.524 . S
C924 C925 1.415 . S
C925 H895 0.950 . S
C925 C920 1.363 . S
C925 C924 1.415 . S
H926 C923 0.999 . S
H927 C908 0.913 . S
H928 C946 0.951 . S
H929 C948 0.951 . S
H930 C950 0.950 . S
H931 C951 0.950 . S
H932 C953 0.950 . S
H933 C956 0.950 . S
H934 C957 0.950 . S
H935 C959 0.950 . S
H936 C960 0.950 . S
H937 C961 0.951 . S
H938 C963 0.951 . S
H939 C965 0.950 . S
H940 C966 0.950 . S
H941 C968 0.950 . S
H942 C971 0.950 . S
H943 C972 0.950 . S
H944 C974 0.950 . S
H945 C975 0.950 . S
C946 H928 0.951 . S
C946 C947 1.366 . S
C946 C948 1.388 . S
C947 C946 1.366 . S
C947 C951 1.385 . S
C948 H929 0.951 . S
C948 C946 1.388 . S
C948 C949 1.366 . S
C949 C948 1.366 . S
C949 C950 1.414 . S
C949 C952 1.499 . S
C950 H930 0.950 . S
C950 C949 1.414 . S
C950 C951 1.374 . S
C951 H931 0.950 . S
C951 C947 1.385 . S
C951 C950 1.374 . S
C952 C949 1.499 . S
C952 C953 1.373 . S
C952 C954 1.389 . S
C953 H932 0.950 . S
C953 C952 1.373 . S
C953 C969 1.377 . S
C954 C952 1.389 . S
C954 C955 1.524 . S
C954 C968 1.377 . S
C955 C954 1.524 . S
C955 C956 1.397 . S
C955 C960 1.363 . S
C956 H933 0.950 . S
C956 C955 1.397 . S
C956 C957 1.334 . S
C957 H934 0.950 . S
C957 C956 1.334 . S
C957 C958 1.287 . S
C958 C957 1.287 . S
C958 C959 1.524 . S
C958 H977 0.913 . S
C959 H935 0.950 . S
C959 C958 1.524 . S
C959 C960 1.415 . S
C960 H936 0.950 . S
C960 C955 1.363 . S
C960 C959 1.415 . S
C961 H937 0.951 . S
C961 C962 1.366 . S
C961 C963 1.388 . S
C962 C961 1.366 . S
C962 C966 1.385 . S
C963 H938 0.951 . S
C963 C961 1.388 . S
C963 C964 1.366 . S
C964 C963 1.366 . S
C964 C965 1.414 . S
C964 C967 1.499 . S
C965 H939 0.950 . S
C965 C964 1.414 . S
C965 C966 1.374 . S
C966 H940 0.950 . S
C966 C962 1.385 . S
C966 C965 1.374 . S
C967 C964 1.499 . S
C967 C968 1.373 . S
C967 C969 1.389 . S
C968 H941 0.950 . S
C968 C954 1.377 . S
C968 C967 1.373 . S
C969 C953 1.377 . S
C969 C967 1.389 . S
C969 C970 1.524 . S
C970 C969 1.524 . S
C970 C971 1.397 . S
C970 C975 1.363 . S
C971 H942 0.950 . S
C971 C970 1.397 . S
C971 C972 1.334 . S
C972 H943 0.950 . S
C972 C971 1.334 . S
C972 C973 1.287 . S
C973 C972 1.287 . S
C973 C974 1.524 . S
C973 H976 0.999 . S
C974 H944 0.950 . S
C974 C973 1.524 . S
C974 C975 1.415 . S
C975 H945 0.950 . S
C975 C970 1.363 . S
C975 C974 1.415 . S
H976 C973 0.999 . S
H977 C958 0.913 . S
H978 C996 0.951 . S
H979 C998 0.951 . S
H980 C1000 0.950 . S
H981 C1001 0.950 . S
H982 C1003 0.950 . S
H983 C1006 0.950 . S
H984 C1007 0.950 . S
H985 C1009 0.950 . S
H986 C1010 0.950 . S
H987 C1011 0.951 . S
H988 C1013 0.951 . S
H989 C1015 0.950 . S
H990 C1016 0.950 . S
H991 C1018 0.950 . S
H992 C1021 0.950 . S
H993 C1022 0.950 . S
H994 C1024 0.950 . S
H995 C1025 0.950 . S
C996 H978 0.951 . S
C996 C997 1.366 . S
C996 C998 1.388 . S
C997 C996 1.366 . S
C997 C1001 1.385 . S
C998 H979 0.951 . S
C998 C996 1.388 . S
C998 C999 1.366 . S
C999 C998 1.366 . S
C999 C1000 1.414 . S
C999 C1002 1.499 . S
C1000 H980 0.950 . S
C1000 C999 1.414 . S
C1000 C1001 1.374 . S
C1001 H981 0.950 . S
C1001 C997 1.385 . S
C1001 C1000 1.374 . S
C1002 C999 1.499 . S
C1002 C1003 1.373 1_565 S
C1002 C1004 1.425 . S
C1003 H982 0.950 . S
C1003 C1002 1.373 1_545 S
C1003 C1019 1.340 1_655 S
C1004 C1002 1.425 . S
C1004 C1005 1.524 . S
C1004 C1018 1.340 1_655 S
C1005 C1004 1.524 . S
C1005 C1006 1.434 . S
C1005 C1010 1.326 1_655 S
C1006 H983 0.950 . S
C1006 C1005 1.434 . S
C1006 C1007 1.334 . S
C1007 H984 0.950 . S
C1007 C1006 1.334 . S
C1007 C1008 1.287 . S
C1008 C1007 1.287 . S
C1008 C1009 1.524 1_655 S
C1008 H1027 0.913 . S
C1009 H985 0.950 . S
C1009 C1008 1.524 1_455 S
C1009 C1010 1.415 . S
C1010 H986 0.950 . S
C1010 C1005 1.326 1_455 S
C1010 C1009 1.415 . S
C1011 H987 0.951 . S
C1011 C1012 1.366 . S
C1011 C1013 1.388 . S
C1012 C1011 1.366 . S
C1012 C1016 1.385 . S
C1013 H988 0.951 . S
C1013 C1011 1.388 . S
C1013 C1014 1.366 . S
C1014 C1013 1.366 . S
C1014 C1015 1.414 . S
C1014 C1017 1.499 . S
C1015 H989 0.950 . S
C1015 C1014 1.414 . S
C1015 C1016 1.374 . S
C1016 H990 0.950 . S
C1016 C1012 1.385 . S
C1016 C1015 1.374 . S
C1017 C1014 1.499 . S
C1017 C1018 1.373 1_545 S
C1017 C1019 1.425 . S
C1018 H991 0.950 . S
C1018 C1004 1.340 1_455 S
C1018 C1017 1.373 1_565 S
C1019 C1003 1.340 1_455 S
C1019 C1017 1.425 . S
C1019 C1020 1.524 . S
C1020 C1019 1.524 . S
C1020 C1021 1.434 . S
C1020 C1025 1.326 1_455 S
C1021 H992 0.950 . S
C1021 C1020 1.434 . S
C1021 C1022 1.334 . S
C1022 H993 0.950 . S
C1022 C1021 1.334 . S
C1022 C1023 1.287 . S
C1023 C1022 1.287 . S
C1023 C1024 1.524 1_455 S
C1023 H1026 0.999 . S
C1024 H994 0.950 . S
C1024 C1023 1.524 1_655 S
C1024 C1025 1.415 . S
C1025 H995 0.950 . S
C1025 C1020 1.326 1_655 S
C1025 C1024 1.415 . S
H1026 C1023 0.999 . S
H1027 C1008 0.913 . S
H1028 C1046 0.951 . S
H1029 C1048 0.951 . S
H1030 C1050 0.950 . S
H1031 C1051 0.950 . S
H1032 C1053 0.965 . S
H1033 C1056 0.950 1_565 S
H1034 C1057 0.950 . S
H1035 C1059 0.950 . S
H1036 C1060 0.950 . S
H1037 C1061 0.951 . S
H1038 C1063 0.951 . S
H1039 C1065 0.950 . S
H1040 C1066 0.950 . S
H1041 C1068 0.965 . S
H1042 C1071 0.950 1_545 S
H1043 C1072 0.950 . S
H1044 C1074 0.950 . S
H1045 C1075 0.950 . S
C1046 H1028 0.951 . S
C1046 C1047 1.366 . S
C1046 C1048 1.388 . S
C1047 C1046 1.366 . S
C1047 C1051 1.385 . S
C1048 H1029 0.951 . S
C1048 C1046 1.388 . S
C1048 C1049 1.366 . S
C1049 C1048 1.366 . S
C1049 C1050 1.414 . S
C1049 C1052 1.499 . S
C1050 H1030 0.950 . S
C1050 C1049 1.414 . S
C1050 C1051 1.374 . S
C1051 H1031 0.950 . S
C1051 C1047 1.385 . S
C1051 C1050 1.374 . S
C1052 C1049 1.499 . S
C1052 C1053 1.427 . S
C1052 C1054 1.389 . S
C1053 H1032 0.965 . S
C1053 C1052 1.427 . S
C1053 C1069 1.323 1_545 S
C1054 C1052 1.389 . S
C1054 C1055 1.524 . S
C1054 C1068 1.323 1_545 S
C1055 C1054 1.524 . S
C1055 C1056 1.397 . S
C1055 C1060 1.363 . S
C1056 H1033 0.950 1_545 S
C1056 C1055 1.397 . S
C1056 C1057 1.334 . S
C1057 H1034 0.950 . S
C1057 C1056 1.334 . S
C1057 C1058 1.287 . S
C1058 C1057 1.287 . S
C1058 C1059 1.524 . S
C1058 H1077 0.913 1_554 S
C1059 H1035 0.950 . S
C1059 C1058 1.524 . S
C1059 C1060 1.415 . S
C1060 H1036 0.950 . S
C1060 C1055 1.363 . S
C1060 C1059 1.415 . S
C1061 H1037 0.951 . S
C1061 C1062 1.366 . S
C1061 C1063 1.388 . S
C1062 C1061 1.366 . S
C1062 C1066 1.385 . S
C1063 H1038 0.951 . S
C1063 C1061 1.388 . S
C1063 C1064 1.366 . S
C1064 C1063 1.366 . S
C1064 C1065 1.414 . S
C1064 C1067 1.499 . S
C1065 H1039 0.950 . S
C1065 C1064 1.414 . S
C1065 C1066 1.374 . S
C1066 H1040 0.950 . S
C1066 C1062 1.385 . S
C1066 C1065 1.374 . S
C1067 C1064 1.499 . S
C1067 C1068 1.427 . S
C1067 C1069 1.389 . S
C1068 H1041 0.965 . S
C1068 C1054 1.323 1_565 S
C1068 C1067 1.427 . S
C1069 C1053 1.323 1_565 S
C1069 C1067 1.389 . S
C1069 C1070 1.524 . S
C1070 C1069 1.524 . S
C1070 C1071 1.397 . S
C1070 C1075 1.363 . S
C1071 H1042 0.950 1_565 S
C1071 C1070 1.397 . S
C1071 C1072 1.334 . S
C1072 H1043 0.950 . S
C1072 C1071 1.334 . S
C1072 C1073 1.287 . S
C1073 C1072 1.287 . S
C1073 C1074 1.524 . S
C1073 H1076 0.999 . S
C1074 H1044 0.950 . S
C1074 C1073 1.524 . S
C1074 C1075 1.415 . S
C1075 H1045 0.950 . S
C1075 C1070 1.363 . S
C1075 C1074 1.415 . S
H1076 C1073 0.999 . S
H1077 C1058 0.913 1_556 S
H1078 C1096 0.951 . S
H1079 C1098 0.951 . S
H1080 C1100 0.950 . S
H1081 C1101 0.950 . S
H1082 C1103 0.950 . S
H1083 C1106 0.950 . S
H1084 C1107 0.950 . S
H1085 C1109 0.950 . S
H1086 C1110 0.950 . S
H1087 C1111 0.951 . S
H1088 C1113 0.951 . S
H1089 C1115 0.950 . S
H1090 C1116 0.950 . S
H1091 C1118 0.950 . S
H1092 C1121 0.950 . S
H1093 C1122 0.950 . S
H1094 C1124 0.950 . S
H1095 C1125 0.950 . S
C1096 H1078 0.951 . S
C1096 C1097 1.366 . S
C1096 C1098 1.388 . S
C1097 C1096 1.366 . S
C1097 C1101 1.385 . S
C1098 H1079 0.951 . S
C1098 C1096 1.388 . S
C1098 C1099 1.366 . S
C1099 C1098 1.366 . S
C1099 C1100 1.414 . S
C1099 C1102 1.499 . S
C1100 H1080 0.950 . S
C1100 C1099 1.414 . S
C1100 C1101 1.374 . S
C1101 H1081 0.950 . S
C1101 C1097 1.385 . S
C1101 C1100 1.374 . S
C1102 C1099 1.499 . S
C1102 C1103 1.373 . S
C1102 C1104 1.389 . S
C1103 H1082 0.950 . S
C1103 C1102 1.373 . S
C1103 C1119 1.377 . S
C1104 C1102 1.389 . S
C1104 C1105 1.524 . S
C1104 C1118 1.377 . S
C1105 C1104 1.524 . S
C1105 C1106 1.397 . S
C1105 C1110 1.363 . S
C1106 H1083 0.950 . S
C1106 C1105 1.397 . S
C1106 C1107 1.334 . S
C1107 H1084 0.950 . S
C1107 C1106 1.334 . S
C1107 C1108 1.287 . S
C1108 C1107 1.287 . S
C1108 C1109 1.524 . S
C1108 H1127 0.913 . S
C1109 H1085 0.950 . S
C1109 C1108 1.524 . S
C1109 C1110 1.415 . S
C1110 H1086 0.950 . S
C1110 C1105 1.363 . S
C1110 C1109 1.415 . S
C1111 H1087 0.951 . S
C1111 C1112 1.366 . S
C1111 C1113 1.388 . S
C1112 C1111 1.366 . S
C1112 C1116 1.385 . S
C1113 H1088 0.951 . S
C1113 C1111 1.388 . S
C1113 C1114 1.366 . S
C1114 C1113 1.366 . S
C1114 C1115 1.414 . S
C1114 C1117 1.499 . S
C1115 H1089 0.950 . S
C1115 C1114 1.414 . S
C1115 C1116 1.374 . S
C1116 H1090 0.950 . S
C1116 C1112 1.385 . S
C1116 C1115 1.374 . S
C1117 C1114 1.499 . S
C1117 C1118 1.373 . S
C1117 C1119 1.389 . S
C1118 H1091 0.950 . S
C1118 C1104 1.377 . S
C1118 C1117 1.373 . S
C1119 C1103 1.377 . S
C1119 C1117 1.389 . S
C1119 C1120 1.524 . S
C1120 C1119 1.524 . S
C1120 C1121 1.397 . S
C1120 C1125 1.363 . S
C1121 H1092 0.950 . S
C1121 C1120 1.397 . S
C1121 C1122 1.334 . S
C1122 H1093 0.950 . S
C1122 C1121 1.334 . S
C1122 C1123 1.287 . S
C1123 C1122 1.287 . S
C1123 C1124 1.524 . S
C1123 H1126 0.999 . S
C1124 H1094 0.950 . S
C1124 C1123 1.524 . S
C1124 C1125 1.415 . S
C1125 H1095 0.950 . S
C1125 C1120 1.363 . S
C1125 C1124 1.415 . S
H1126 C1123 0.999 . S
H1127 C1108 0.913 . S
H1128 C1146 0.951 . S
H1129 C1148 0.951 . S
H1130 C1150 0.950 . S
H1131 C1151 0.950 . S
H1132 C1153 0.950 . S
H1133 C1156 0.950 . S
H1134 C1157 0.950 . S
H1135 C1159 0.950 . S
H1136 C1160 0.950 . S
H1137 C1161 0.951 . S
H1138 C1163 0.951 . S
H1139 C1165 0.950 . S
H1140 C1166 0.950 . S
H1141 C1168 0.950 . S
H1142 C1171 0.950 . S
H1143 C1172 0.950 . S
H1144 C1174 0.950 . S
H1145 C1175 0.950 . S
C1146 H1128 0.951 . S
C1146 C1147 1.366 . S
C1146 C1148 1.388 . S
C1147 C1146 1.366 . S
C1147 C1151 1.385 . S
C1148 H1129 0.951 . S
C1148 C1146 1.388 . S
C1148 C1149 1.366 . S
C1149 C1148 1.366 . S
C1149 C1150 1.414 . S
C1149 C1152 1.499 . S
C1150 H1130 0.950 . S
C1150 C1149 1.414 . S
C1150 C1151 1.374 . S
C1151 H1131 0.950 . S
C1151 C1147 1.385 . S
C1151 C1150 1.374 . S
C1152 C1149 1.499 . S
C1152 C1153 1.373 . S
C1152 C1154 1.389 . S
C1153 H1132 0.950 . S
C1153 C1152 1.373 . S
C1153 C1169 1.377 . S
C1154 C1152 1.389 . S
C1154 C1155 1.524 . S
C1154 C1168 1.377 . S
C1155 C1154 1.524 . S
C1155 C1156 1.397 . S
C1155 C1160 1.363 . S
C1156 H1133 0.950 . S
C1156 C1155 1.397 . S
C1156 C1157 1.334 . S
C1157 H1134 0.950 . S
C1157 C1156 1.334 . S
C1157 C1158 1.287 . S
C1158 C1157 1.287 . S
C1158 C1159 1.524 . S
C1158 H1177 0.913 . S
C1159 H1135 0.950 . S
C1159 C1158 1.524 . S
C1159 C1160 1.415 . S
C1160 H1136 0.950 . S
C1160 C1155 1.363 . S
C1160 C1159 1.415 . S
C1161 H1137 0.951 . S
C1161 C1162 1.366 . S
C1161 C1163 1.388 . S
C1162 C1161 1.366 . S
C1162 C1166 1.385 . S
C1163 H1138 0.951 . S
C1163 C1161 1.388 . S
C1163 C1164 1.366 . S
C1164 C1163 1.366 . S
C1164 C1165 1.414 . S
C1164 C1167 1.499 . S
C1165 H1139 0.950 . S
C1165 C1164 1.414 . S
C1165 C1166 1.374 . S
C1166 H1140 0.950 . S
C1166 C1162 1.385 . S
C1166 C1165 1.374 . S
C1167 C1164 1.499 . S
C1167 C1168 1.373 . S
C1167 C1169 1.389 . S
C1168 H1141 0.950 . S
C1168 C1154 1.377 . S
C1168 C1167 1.373 . S
C1169 C1153 1.377 . S
C1169 C1167 1.389 . S
C1169 C1170 1.524 . S
C1170 C1169 1.524 . S
C1170 C1171 1.397 . S
C1170 C1175 1.363 . S
C1171 H1142 0.950 . S
C1171 C1170 1.397 . S
C1171 C1172 1.334 . S
C1172 H1143 0.950 . S
C1172 C1171 1.334 . S
C1172 C1173 1.287 . S
C1173 C1172 1.287 . S
C1173 C1174 1.524 . S
C1173 H1176 0.999 . S
C1174 H1144 0.950 . S
C1174 C1173 1.524 . S
C1174 C1175 1.415 . S
C1175 H1145 0.950 . S
C1175 C1170 1.363 . S
C1175 C1174 1.415 . S
H1176 C1173 0.999 . S
H1177 C1158 0.913 . S
H1178 C1196 0.951 . S
H1179 C1198 0.951 . S
H1180 C1200 0.950 . S
H1181 C1201 0.950 . S
H1182 C1203 0.950 . S
H1183 C1206 0.950 . S
H1184 C1207 0.950 . S
H1185 C1209 0.950 . S
H1186 C1210 0.950 . S
H1187 C1211 0.951 . S
H1188 C1213 0.951 . S
H1189 C1215 0.950 . S
H1190 C1216 0.950 . S
H1191 C1218 0.950 . S
H1192 C1221 0.950 . S
H1193 C1222 0.950 . S
H1194 C1224 0.950 . S
H1195 C1225 0.950 . S
C1196 H1178 0.951 . S
C1196 C1197 1.366 . S
C1196 C1198 1.388 . S
C1197 C1196 1.366 . S
C1197 C1201 1.385 . S
C1198 H1179 0.951 . S
C1198 C1196 1.388 . S
C1198 C1199 1.366 . S
C1199 C1198 1.366 . S
C1199 C1200 1.414 . S
C1199 C1202 1.499 . S
C1200 H1180 0.950 . S
C1200 C1199 1.414 . S
C1200 C1201 1.374 . S
C1201 H1181 0.950 . S
C1201 C1197 1.385 . S
C1201 C1200 1.374 . S
C1202 C1199 1.499 . S
C1202 C1203 1.373 . S
C1202 C1204 1.389 . S
C1203 H1182 0.950 . S
C1203 C1202 1.373 . S
C1203 C1219 1.377 . S
C1204 C1202 1.389 . S
C1204 C1205 1.524 . S
C1204 C1218 1.377 . S
C1205 C1204 1.524 . S
C1205 C1206 1.397 . S
C1205 C1210 1.363 . S
C1206 H1183 0.950 . S
C1206 C1205 1.397 . S
C1206 C1207 1.334 . S
C1207 H1184 0.950 . S
C1207 C1206 1.334 . S
C1207 C1208 1.287 . S
C1208 C1207 1.287 . S
C1208 C1209 1.524 . S
C1208 H1227 0.913 . S
C1209 H1185 0.950 . S
C1209 C1208 1.524 . S
C1209 C1210 1.415 . S
C1210 H1186 0.950 . S
C1210 C1205 1.363 . S
C1210 C1209 1.415 . S
C1211 H1187 0.951 . S
C1211 C1212 1.366 . S
C1211 C1213 1.388 . S
C1212 C1211 1.366 . S
C1212 C1216 1.385 . S
C1213 H1188 0.951 . S
C1213 C1211 1.388 . S
C1213 C1214 1.366 . S
C1214 C1213 1.366 . S
C1214 C1215 1.414 . S
C1214 C1217 1.499 . S
C1215 H1189 0.950 . S
C1215 C1214 1.414 . S
C1215 C1216 1.374 . S
C1216 H1190 0.950 . S
C1216 C1212 1.385 . S
C1216 C1215 1.374 . S
C1217 C1214 1.499 . S
C1217 C1218 1.373 . S
C1217 C1219 1.389 . S
C1218 H1191 0.950 . S
C1218 C1204 1.377 . S
C1218 C1217 1.373 . S
C1219 C1203 1.377 . S
C1219 C1217 1.389 . S
C1219 C1220 1.524 . S
C1220 C1219 1.524 . S
C1220 C1221 1.397 . S
C1220 C1225 1.363 . S
C1221 H1192 0.950 . S
C1221 C1220 1.397 . S
C1221 C1222 1.334 . S
C1222 H1193 0.950 . S
C1222 C1221 1.334 . S
C1222 C1223 1.287 . S
C1223 C1222 1.287 . S
C1223 C1224 1.524 . S
C1223 H1226 0.999 . S
C1224 H1194 0.950 . S
C1224 C1223 1.524 . S
C1224 C1225 1.415 . S
C1225 H1195 0.950 . S
C1225 C1220 1.363 . S
C1225 C1224 1.415 . S
H1226 C1223 0.999 . S
H1227 C1208 0.913 . S
H1228 C1246 0.951 . S
H1229 C1248 0.951 . S
H1230 C1250 0.950 . S
H1231 C1251 0.950 . S
H1232 C1253 0.950 . S
H1233 C1256 0.950 . S
H1234 C1257 0.950 . S
H1235 C1259 0.950 . S
H1236 C1260 0.950 . S
H1237 C1261 0.951 . S
H1238 C1263 0.951 . S
H1239 C1265 0.950 . S
H1240 C1266 0.950 . S
H1241 C1268 0.950 . S
H1242 C1271 0.950 . S
H1243 C1272 0.950 . S
H1244 C1274 0.950 1_556 S
H1245 C1275 0.950 . S
C1246 H1228 0.951 . S
C1246 C1247 1.366 . S
C1246 C1248 1.388 . S
C1247 C1246 1.366 . S
C1247 C1251 1.385 . S
C1248 H1229 0.951 . S
C1248 C1246 1.388 . S
C1248 C1249 1.366 . S
C1249 C1248 1.366 . S
C1249 C1250 1.414 . S
C1249 C1252 1.499 . S
C1250 H1230 0.950 . S
C1250 C1249 1.414 . S
C1250 C1251 1.374 . S
C1251 H1231 0.950 . S
C1251 C1247 1.385 . S
C1251 C1250 1.374 . S
C1252 C1249 1.499 . S
C1252 C1253 1.373 . S
C1252 C1254 1.389 . S
C1253 H1232 0.950 . S
C1253 C1252 1.373 . S
C1253 C1269 1.377 . S
C1254 C1252 1.389 . S
C1254 C1255 1.524 . S
C1254 C1268 1.377 . S
C1255 C1254 1.524 . S
C1255 C1256 1.397 . S
C1255 C1260 1.363 . S
C1256 H1233 0.950 . S
C1256 C1255 1.397 . S
C1256 C1257 1.334 . S
C1257 H1234 0.950 . S
C1257 C1256 1.334 . S
C1257 C1258 1.287 . S
C1258 C1257 1.287 . S
C1258 C1259 1.524 . S
C1258 H1277 0.913 . S
C1259 H1235 0.950 . S
C1259 C1258 1.524 . S
C1259 C1260 1.415 . S
C1260 H1236 0.950 . S
C1260 C1255 1.363 . S
C1260 C1259 1.415 . S
C1261 H1237 0.951 . S
C1261 C1262 1.366 . S
C1261 C1263 1.388 . S
C1262 C1261 1.366 . S
C1262 C1266 1.385 . S
C1263 H1238 0.951 . S
C1263 C1261 1.388 . S
C1263 C1264 1.366 . S
C1264 C1263 1.366 . S
C1264 C1265 1.414 . S
C1264 C1267 1.499 . S
C1265 H1239 0.950 . S
C1265 C1264 1.414 . S
C1265 C1266 1.374 . S
C1266 H1240 0.950 . S
C1266 C1262 1.385 . S
C1266 C1265 1.374 . S
C1267 C1264 1.499 . S
C1267 C1268 1.373 . S
C1267 C1269 1.389 . S
C1268 H1241 0.950 . S
C1268 C1254 1.377 . S
C1268 C1267 1.373 . S
C1269 C1253 1.377 . S
C1269 C1267 1.389 . S
C1269 C1270 1.524 . S
C1270 C1269 1.524 . S
C1270 C1271 1.397 . S
C1270 C1275 1.363 . S
C1271 H1242 0.950 . S
C1271 C1270 1.397 . S
C1271 C1272 1.334 . S
C1272 H1243 0.950 . S
C1272 C1271 1.334 . S
C1272 C1273 1.287 . S
C1273 C1272 1.287 . S
C1273 C1274 1.524 . S
C1273 H1276 0.999 1_554 S
C1274 H1244 0.950 1_554 S
C1274 C1273 1.524 . S
C1274 C1275 1.415 . S
C1275 H1245 0.950 . S
C1275 C1270 1.363 . S
C1275 C1274 1.415 . S
H1276 C1273 0.999 1_556 S
H1277 C1258 0.913 . S
H1278 C1296 0.951 . S
H1279 C1298 0.951 1_554 S
H1280 C1300 1.039 . S
H1281 C1301 0.950 . S
H1282 C1303 0.950 . S
H1283 C1306 0.903 1_545 S
H1284 C1307 0.950 . S
H1285 C1309 0.950 . S
H1286 C1310 0.950 . S
H1287 C1311 0.951 . S
H1288 C1313 0.951 1_556 S
H1289 C1315 1.039 . S
H1290 C1316 0.950 . S
H1291 C1318 0.950 . S
H1292 C1321 0.903 1_565 S
H1293 C1322 0.950 . S
H1294 C1324 0.950 . S
H1295 C1325 0.950 . S
C1296 H1278 0.951 . S
C1296 C1297 1.366 . S
C1296 C1298 1.388 . S
C1297 C1296 1.366 . S
C1297 C1301 1.385 . S
C1298 H1279 0.951 1_556 S
C1298 C1296 1.388 . S
C1298 C1299 1.366 . S
C1299 C1298 1.366 . S
C1299 C1300 1.414 . S
C1299 C1302 1.499 . S
C1300 H1280 1.039 . S
C1300 C1299 1.414 . S
C1300 C1301 1.374 . S
C1301 H1281 0.950 . S
C1301 C1297 1.385 . S
C1301 C1300 1.374 . S
C1302 C1299 1.499 . S
C1302 C1303 1.373 . S
C1302 C1304 1.389 1_556 S
C1303 H1282 0.950 . S
C1303 C1302 1.373 . S
C1303 C1319 1.377 1_565 S
C1304 C1302 1.389 1_554 S
C1304 C1305 1.524 . S
C1304 C1318 1.377 1_565 S
C1305 C1304 1.524 . S
C1305 C1306 1.397 . S
C1305 C1310 1.363 . S
C1306 H1283 0.903 1_565 S
C1306 C1305 1.397 . S
C1306 C1307 1.334 . S
C1307 H1284 0.950 . S
C1307 C1306 1.334 . S
C1307 C1308 1.287 . S
C1308 C1307 1.287 . S
C1308 C1309 1.524 . S
C1308 H1327 0.913 . S
C1309 H1285 0.950 . S
C1309 C1308 1.524 . S
C1309 C1310 1.415 . S
C1310 H1286 0.950 . S
C1310 C1305 1.363 . S
C1310 C1309 1.415 . S
C1311 H1287 0.951 . S
C1311 C1312 1.366 . S
C1311 C1313 1.388 . S
C1312 C1311 1.366 . S
C1312 C1316 1.385 . S
C1313 H1288 0.951 1_554 S
C1313 C1311 1.388 . S
C1313 C1314 1.366 . S
C1314 C1313 1.366 . S
C1314 C1315 1.414 . S
C1314 C1317 1.499 . S
C1315 H1289 1.039 . S
C1315 C1314 1.414 . S
C1315 C1316 1.374 . S
C1316 H1290 0.950 . S
C1316 C1312 1.385 . S
C1316 C1315 1.374 . S
C1317 C1314 1.499 . S
C1317 C1318 1.373 . S
C1317 C1319 1.389 1_554 S
C1318 H1291 0.950 . S
C1318 C1304 1.377 1_545 S
C1318 C1317 1.373 . S
C1319 C1303 1.377 1_545 S
C1319 C1317 1.389 1_556 S
C1319 C1320 1.524 . S
C1320 C1319 1.524 . S
C1320 C1321 1.397 . S
C1320 C1325 1.363 . S
C1321 H1292 0.903 1_545 S
C1321 C1320 1.397 . S
C1321 C1322 1.334 . S
C1322 H1293 0.950 . S
C1322 C1321 1.334 . S
C1322 C1323 1.287 . S
C1323 C1322 1.287 . S
C1323 C1324 1.524 . S
C1323 H1326 0.999 . S
C1324 H1294 0.950 . S
C1324 C1323 1.524 . S
C1324 C1325 1.415 . S
C1325 H1295 0.950 . S
C1325 C1320 1.363 . S
C1325 C1324 1.415 . S
H1326 C1323 0.999 . S
H1327 C1308 0.913 . S
H1328 C1346 0.951 . S
H1329 C1348 0.951 . S
H1330 C1350 0.950 . S
H1331 C1351 0.950 . S
H1332 C1353 0.950 . S
H1333 C1356 0.950 . S
H1334 C1357 0.950 . S
H1335 C1359 0.950 . S
H1336 C1360 0.950 . S
H1337 C1361 0.951 . S
H1338 C1363 0.951 . S
H1339 C1365 0.950 . S
H1340 C1366 0.950 . S
H1341 C1368 0.950 . S
H1342 C1371 0.950 . S
H1343 C1372 0.950 . S
H1344 C1374 0.950 . S
H1345 C1375 0.950 . S
C1346 H1328 0.951 . S
C1346 C1347 1.366 . S
C1346 C1348 1.388 . S
C1347 C1346 1.366 . S
C1347 C1351 1.385 . S
C1348 H1329 0.951 . S
C1348 C1346 1.388 . S
C1348 C1349 1.366 . S
C1349 C1348 1.366 . S
C1349 C1350 1.414 . S
C1349 C1352 1.499 . S
C1350 H1330 0.950 . S
C1350 C1349 1.414 . S
C1350 C1351 1.374 . S
C1351 H1331 0.950 . S
C1351 C1347 1.385 . S
C1351 C1350 1.374 . S
C1352 C1349 1.499 . S
C1352 C1353 1.373 . S
C1352 C1354 1.389 . S
C1353 H1332 0.950 . S
C1353 C1352 1.373 . S
C1353 C1369 1.377 . S
C1354 C1352 1.389 . S
C1354 C1355 1.524 . S
C1354 C1368 1.377 . S
C1355 C1354 1.524 . S
C1355 C1356 1.397 . S
C1355 C1360 1.363 . S
C1356 H1333 0.950 . S
C1356 C1355 1.397 . S
C1356 C1357 1.334 . S
C1357 H1334 0.950 . S
C1357 C1356 1.334 . S
C1357 C1358 1.287 . S
C1358 C1357 1.287 . S
C1358 C1359 1.524 . S
C1358 H1377 0.913 . S
C1359 H1335 0.950 . S
C1359 C1358 1.524 . S
C1359 C1360 1.415 . S
C1360 H1336 0.950 . S
C1360 C1355 1.363 . S
C1360 C1359 1.415 . S
C1361 H1337 0.951 . S
C1361 C1362 1.366 . S
C1361 C1363 1.388 . S
C1362 C1361 1.366 . S
C1362 C1366 1.385 . S
C1363 H1338 0.951 . S
C1363 C1361 1.388 . S
C1363 C1364 1.366 . S
C1364 C1363 1.366 . S
C1364 C1365 1.414 . S
C1364 C1367 1.499 . S
C1365 H1339 0.950 . S
C1365 C1364 1.414 . S
C1365 C1366 1.374 . S
C1366 H1340 0.950 . S
C1366 C1362 1.385 . S
C1366 C1365 1.374 . S
C1367 C1364 1.499 . S
C1367 C1368 1.373 . S
C1367 C1369 1.389 . S
C1368 H1341 0.950 . S
C1368 C1354 1.377 . S
C1368 C1367 1.373 . S
C1369 C1353 1.377 . S
C1369 C1367 1.389 . S
C1369 C1370 1.524 . S
C1370 C1369 1.524 . S
C1370 C1371 1.397 . S
C1370 C1375 1.363 . S
C1371 H1342 0.950 . S
C1371 C1370 1.397 . S
C1371 C1372 1.334 . S
C1372 H1343 0.950 . S
C1372 C1371 1.334 . S
C1372 C1373 1.287 . S
C1373 C1372 1.287 . S
C1373 C1374 1.524 . S
C1373 H1376 0.999 . S
C1374 H1344 0.950 . S
C1374 C1373 1.524 . S
C1374 C1375 1.415 . S
C1375 H1345 0.950 . S
C1375 C1370 1.363 . S
C1375 C1374 1.415 . S
H1376 C1373 0.999 . S
H1377 C1358 0.913 . S
H1378 C1396 0.951 . S
H1379 C1398 0.951 . S
H1380 C1400 0.950 . S
H1381 C1401 0.950 . S
H1382 C1403 0.950 . S
H1383 C1406 0.950 . S
H1384 C1407 0.950 . S
H1385 C1409 0.950 . S
H1386 C1410 0.950 . S
H1387 C1411 0.951 . S
H1388 C1413 0.951 . S
H1389 C1415 0.950 . S
H1390 C1416 0.950 . S
H1391 C1418 0.950 . S
H1392 C1421 0.950 . S
H1393 C1422 0.950 . S
H1394 C1424 0.950 . S
H1395 C1425 0.950 . S
C1396 H1378 0.951 . S
C1396 C1397 1.366 . S
C1396 C1398 1.388 . S
C1397 C1396 1.366 . S
C1397 C1401 1.385 . S
C1398 H1379 0.951 . S
C1398 C1396 1.388 . S
C1398 C1399 1.366 . S
C1399 C1398 1.366 . S
C1399 C1400 1.414 . S
C1399 C1402 1.499 . S
C1400 H1380 0.950 . S
C1400 C1399 1.414 . S
C1400 C1401 1.374 . S
C1401 H1381 0.950 . S
C1401 C1397 1.385 . S
C1401 C1400 1.374 . S
C1402 C1399 1.499 . S
C1402 C1403 1.373 . S
C1402 C1404 1.389 . S
C1403 H1382 0.950 . S
C1403 C1402 1.373 . S
C1403 C1419 1.377 . S
C1404 C1402 1.389 . S
C1404 C1405 1.524 . S
C1404 C1418 1.377 . S
C1405 C1404 1.524 . S
C1405 C1406 1.397 . S
C1405 C1410 1.363 . S
C1406 H1383 0.950 . S
C1406 C1405 1.397 . S
C1406 C1407 1.334 . S
C1407 H1384 0.950 . S
C1407 C1406 1.334 . S
C1407 C1408 1.287 . S
C1408 C1407 1.287 . S
C1408 C1409 1.524 . S
C1408 H1427 0.913 . S
C1409 H1385 0.950 . S
C1409 C1408 1.524 . S
C1409 C1410 1.415 . S
C1410 H1386 0.950 . S
C1410 C1405 1.363 . S
C1410 C1409 1.415 . S
C1411 H1387 0.951 . S
C1411 C1412 1.366 . S
C1411 C1413 1.388 . S
C1412 C1411 1.366 . S
C1412 C1416 1.385 . S
C1413 H1388 0.951 . S
C1413 C1411 1.388 . S
C1413 C1414 1.366 . S
C1414 C1413 1.366 . S
C1414 C1415 1.414 . S
C1414 C1417 1.499 . S
C1415 H1389 0.950 . S
C1415 C1414 1.414 . S
C1415 C1416 1.374 . S
C1416 H1390 0.950 . S
C1416 C1412 1.385 . S
C1416 C1415 1.374 . S
C1417 C1414 1.499 . S
C1417 C1418 1.373 . S
C1417 C1419 1.389 . S
C1418 H1391 0.950 . S
C1418 C1404 1.377 . S
C1418 C1417 1.373 . S
C1419 C1403 1.377 . S
C1419 C1417 1.389 . S
C1419 C1420 1.524 . S
C1420 C1419 1.524 . S
C1420 C1421 1.397 . S
C1420 C1425 1.363 . S
C1421 H1392 0.950 . S
C1421 C1420 1.397 . S
C1421 C1422 1.334 . S
C1422 H1393 0.950 . S
C1422 C1421 1.334 . S
C1422 C1423 1.287 . S
C1423 C1422 1.287 . S
C1423 C1424 1.524 . S
C1423 H1426 0.999 . S
C1424 H1394 0.950 . S
C1424 C1423 1.524 . S
C1424 C1425 1.415 . S
C1425 H1395 0.950 . S
C1425 C1420 1.363 . S
C1425 C1424 1.415 . S
H1426 C1423 0.999 . S
H1427 C1408 0.913 . S
H1428 C1446 0.951 . S
H1429 C1448 0.951 . S
H1430 C1450 0.950 . S
H1431 C1451 0.950 . S
H1432 C1453 0.950 . S
H1433 C1456 0.950 . S
H1434 C1457 0.950 . S
H1435 C1459 0.950 . S
H1436 C1460 0.950 . S
H1437 C1461 0.951 . S
H1438 C1463 0.951 . S
H1439 C1465 0.950 . S
H1440 C1466 0.950 . S
H1441 C1468 0.950 . S
H1442 C1471 0.950 . S
H1443 C1472 0.950 . S
H1444 C1474 0.950 . S
H1445 C1475 0.950 . S
C1446 H1428 0.951 . S
C1446 C1447 1.366 . S
C1446 C1448 1.388 . S
C1447 C1446 1.366 . S
C1447 C1451 1.385 . S
C1448 H1429 0.951 . S
C1448 C1446 1.388 . S
C1448 C1449 1.366 . S
C1449 C1448 1.366 . S
C1449 C1450 1.414 . S
C1449 C1452 1.499 . S
C1450 H1430 0.950 . S
C1450 C1449 1.414 . S
C1450 C1451 1.374 . S
C1451 H1431 0.950 . S
C1451 C1447 1.385 . S
C1451 C1450 1.374 . S
C1452 C1449 1.499 . S
C1452 C1453 1.373 . S
C1452 C1454 1.389 . S
C1453 H1432 0.950 . S
C1453 C1452 1.373 . S
C1453 C1469 1.377 . S
C1454 C1452 1.389 . S
C1454 C1455 1.524 . S
C1454 C1468 1.377 . S
C1455 C1454 1.524 . S
C1455 C1456 1.397 . S
C1455 C1460 1.363 . S
C1456 H1433 0.950 . S
C1456 C1455 1.397 . S
C1456 C1457 1.334 . S
C1457 H1434 0.950 . S
C1457 C1456 1.334 . S
C1457 C1458 1.287 . S
C1458 C1457 1.287 . S
C1458 C1459 1.524 . S
C1458 H1477 0.913 . S
C1459 H1435 0.950 . S
C1459 C1458 1.524 . S
C1459 C1460 1.415 . S
C1460 H1436 0.950 . S
C1460 C1455 1.363 . S
C1460 C1459 1.415 . S
C1461 H1437 0.951 . S
C1461 C1462 1.366 . S
C1461 C1463 1.388 . S
C1462 C1461 1.366 . S
C1462 C1466 1.385 . S
C1463 H1438 0.951 . S
C1463 C1461 1.388 . S
C1463 C1464 1.366 . S
C1464 C1463 1.366 . S
C1464 C1465 1.414 . S
C1464 C1467 1.499 . S
C1465 H1439 0.950 . S
C1465 C1464 1.414 . S
C1465 C1466 1.374 . S
C1466 H1440 0.950 . S
C1466 C1462 1.385 . S
C1466 C1465 1.374 . S
C1467 C1464 1.499 . S
C1467 C1468 1.373 . S
C1467 C1469 1.389 . S
C1468 H1441 0.950 . S
C1468 C1454 1.377 . S
C1468 C1467 1.373 . S
C1469 C1453 1.377 . S
C1469 C1467 1.389 . S
C1469 C1470 1.524 . S
C1470 C1469 1.524 . S
C1470 C1471 1.397 . S
C1470 C1475 1.363 . S
C1471 H1442 0.950 . S
C1471 C1470 1.397 . S
C1471 C1472 1.334 . S
C1472 H1443 0.950 . S
C1472 C1471 1.334 . S
C1472 C1473 1.287 . S
C1473 C1472 1.287 . S
C1473 C1474 1.524 . S
C1473 H1476 0.999 . S
C1474 H1444 0.950 . S
C1474 C1473 1.524 . S
C1474 C1475 1.415 . S
C1475 H1445 0.950 . S
C1475 C1470 1.363 . S
C1475 C1474 1.415 . S
H1476 C1473 0.999 . S
H1477 C1458 0.913 . S
H1478 C1496 0.951 . S
H1479 C1498 0.951 . S
H1480 C1500 0.950 . S
H1481 C1501 0.950 . S
H1482 C1503 0.950 . S
H1483 C1506 0.950 . S
H1484 C1507 0.950 . S
H1485 C1509 0.950 . S
H1486 C1510 0.950 . S
H1487 C1511 0.951 . S
H1488 C1513 0.951 . S
H1489 C1515 0.950 . S
H1490 C1516 0.950 . S
H1491 C1518 0.950 . S
H1492 C1521 0.950 . S
H1493 C1522 0.950 . S
H1494 C1524 0.950 . S
H1495 C1525 0.950 . S
C1496 H1478 0.951 . S
C1496 C1497 1.366 . S
C1496 C1498 1.388 . S
C1497 C1496 1.366 . S
C1497 C1501 1.385 . S
C1498 H1479 0.951 . S
C1498 C1496 1.388 . S
C1498 C1499 1.366 . S
C1499 C1498 1.366 . S
C1499 C1500 1.414 . S
C1499 C1502 1.499 . S
C1500 H1480 0.950 . S
C1500 C1499 1.414 . S
C1500 C1501 1.374 . S
C1501 H1481 0.950 . S
C1501 C1497 1.385 . S
C1501 C1500 1.374 . S
C1502 C1499 1.499 . S
C1502 C1503 1.373 . S
C1502 C1504 1.389 . S
C1503 H1482 0.950 . S
C1503 C1502 1.373 . S
C1503 C1519 1.377 . S
C1504 C1502 1.389 . S
C1504 C1505 1.524 . S
C1504 C1518 1.377 . S
C1505 C1504 1.524 . S
C1505 C1506 1.397 . S
C1505 C1510 1.363 . S
C1506 H1483 0.950 . S
C1506 C1505 1.397 . S
C1506 C1507 1.334 . S
C1507 H1484 0.950 . S
C1507 C1506 1.334 . S
C1507 C1508 1.287 . S
C1508 C1507 1.287 . S
C1508 C1509 1.524 . S
C1508 H1527 0.913 . S
C1509 H1485 0.950 . S
C1509 C1508 1.524 . S
C1509 C1510 1.415 . S
C1510 H1486 0.950 . S
C1510 C1505 1.363 . S
C1510 C1509 1.415 . S
C1511 H1487 0.951 . S
C1511 C1512 1.366 . S
C1511 C1513 1.388 . S
C1512 C1511 1.366 . S
C1512 C1516 1.385 . S
C1513 H1488 0.951 . S
C1513 C1511 1.388 . S
C1513 C1514 1.366 . S
C1514 C1513 1.366 . S
C1514 C1515 1.414 . S
C1514 C1517 1.499 . S
C1515 H1489 0.950 . S
C1515 C1514 1.414 . S
C1515 C1516 1.374 . S
C1516 H1490 0.950 . S
C1516 C1512 1.385 . S
C1516 C1515 1.374 . S
C1517 C1514 1.499 . S
C1517 C1518 1.373 . S
C1517 C1519 1.389 . S
C1518 H1491 0.950 . S
C1518 C1504 1.377 . S
C1518 C1517 1.373 . S
C1519 C1503 1.377 . S
C1519 C1517 1.389 . S
C1519 C1520 1.524 . S
C1520 C1519 1.524 . S
C1520 C1521 1.397 . S
C1520 C1525 1.363 . S
C1521 H1492 0.950 . S
C1521 C1520 1.397 . S
C1521 C1522 1.334 . S
C1522 H1493 0.950 . S
C1522 C1521 1.334 . S
C1522 C1523 1.287 . S
C1523 C1522 1.287 . S
C1523 C1524 1.524 . S
C1523 H1526 0.999 . S
C1524 H1494 0.950 . S
C1524 C1523 1.524 . S
C1524 C1525 1.415 . S
C1525 H1495 0.950 . S
C1525 C1520 1.363 . S
C1525 C1524 1.415 . S
H1526 C1523 0.999 . S
H1527 C1508 0.913 . S
H1528 C1546 0.951 . S
H1529 C1548 0.951 . S
H1530 C1550 0.950 . S
H1531 C1551 0.950 . S
H1532 C1553 0.950 . S
H1533 C1556 0.950 . S
H1534 C1557 0.950 . S
H1535 C1559 0.925 1_565 S
H1536 C1560 0.950 . S
H1537 C1561 0.951 . S
H1538 C1563 0.951 . S
H1539 C1565 0.950 . S
H1540 C1566 0.950 . S
H1541 C1568 0.950 . S
H1542 C1571 0.950 . S
H1543 C1572 0.950 1_556 S
H1544 C1574 0.950 . S
H1545 C1575 0.950 . S
C1546 H1528 0.951 . S
C1546 C1547 1.366 . S
C1546 C1548 1.388 . S
C1547 C1546 1.366 . S
C1547 C1551 1.385 . S
C1548 H1529 0.951 . S
C1548 C1546 1.388 . S
C1548 C1549 1.366 . S
C1549 C1548 1.366 . S
C1549 C1550 1.414 . S
C1549 C1552 1.499 . S
C1550 H1530 0.950 . S
C1550 C1549 1.414 . S
C1550 C1551 1.374 . S
C1551 H1531 0.950 . S
C1551 C1547 1.385 . S
C1551 C1550 1.374 . S
C1552 C1549 1.499 . S
C1552 C1553 1.373 . S
C1552 C1554 1.389 . S
C1553 H1532 0.950 . S
C1553 C1552 1.373 . S
C1553 C1569 1.377 . S
C1554 C1552 1.389 . S
C1554 C1555 1.524 . S
C1554 C1568 1.377 . S
C1555 C1554 1.524 . S
C1555 C1556 1.397 . S
C1555 C1560 1.363 . S
C1556 H1533 0.950 . S
C1556 C1555 1.397 . S
C1556 C1557 1.334 . S
C1557 H1534 0.950 . S
C1557 C1556 1.334 . S
C1557 C1558 1.247 1_545 S
C1558 C1557 1.247 1_565 S
C1558 C1559 1.496 1_565 S
C1558 H1577 0.991 . S
C1559 H1535 0.925 1_545 S
C1559 C1558 1.496 1_545 S
C1559 C1560 1.415 . S
C1560 H1536 0.950 . S
C1560 C1555 1.363 . S
C1560 C1559 1.415 . S
C1561 H1537 0.951 . S
C1561 C1562 1.366 . S
C1561 C1563 1.388 . S
C1562 C1561 1.366 . S
C1562 C1566 1.385 . S
C1563 H1538 0.951 . S
C1563 C1561 1.388 . S
C1563 C1564 1.366 . S
C1564 C1563 1.366 . S
C1564 C1565 1.414 . S
C1564 C1567 1.499 1_556 S
C1565 H1539 0.950 . S
C1565 C1564 1.414 . S
C1565 C1566 1.374 . S
C1566 H1540 0.950 . S
C1566 C1562 1.385 . S
C1566 C1565 1.374 . S
C1567 C1564 1.499 1_554 S
C1567 C1568 1.373 . S
C1567 C1569 1.389 . S
C1568 H1541 0.950 . S
C1568 C1554 1.377 . S
C1568 C1567 1.373 . S
C1569 C1553 1.377 . S
C1569 C1567 1.389 . S
C1569 C1570 1.524 . S
C1570 C1569 1.524 . S
C1570 C1571 1.397 . S
C1570 C1575 1.363 . S
C1571 H1542 0.950 . S
C1571 C1570 1.397 . S
C1571 C1572 1.334 . S
C1572 H1543 0.950 1_554 S
C1572 C1571 1.334 . S
C1572 C1573 1.287 . S
C1573 C1572 1.287 . S
C1573 C1574 1.524 . S
C1573 H1576 0.999 . S
C1574 H1544 0.950 . S
C1574 C1573 1.524 . S
C1574 C1575 1.415 . S
C1575 H1545 0.950 . S
C1575 C1570 1.363 . S
C1575 C1574 1.415 . S
H1576 C1573 0.999 . S
H1577 C1558 0.991 . S
H1578 C1596 0.951 . S
H1579 C1598 0.951 . S
H1580 C1600 0.950 . S
H1581 C1601 0.950 . S
H1582 C1603 0.950 . S
H1583 C1606 0.950 . S
H1584 C1607 0.950 . S
H1585 C1609 0.950 . S
H1586 C1610 0.950 . S
H1587 C1611 0.951 . S
H1588 C1613 0.951 . S
H1589 C1615 0.950 . S
H1590 C1616 0.950 . S
H1591 C1618 0.950 . S
H1592 C1621 0.950 . S
H1593 C1622 0.950 1_556 S
H1594 C1624 0.950 . S
H1595 C1625 0.950 . S
C1596 H1578 0.951 . S
C1596 C1597 1.366 . S
C1596 C1598 1.388 . S
C1597 C1596 1.366 . S
C1597 C1601 1.385 . S
C1598 H1579 0.951 . S
C1598 C1596 1.388 . S
C1598 C1599 1.366 . S
C1599 C1598 1.366 . S
C1599 C1600 1.414 . S
C1599 C1602 1.499 . S
C1600 H1580 0.950 . S
C1600 C1599 1.414 . S
C1600 C1601 1.374 . S
C1601 H1581 0.950 . S
C1601 C1597 1.385 . S
C1601 C1600 1.374 . S
C1602 C1599 1.499 . S
C1602 C1603 1.373 . S
C1602 C1604 1.389 . S
C1603 H1582 0.950 . S
C1603 C1602 1.373 . S
C1603 C1619 1.377 . S
C1604 C1602 1.389 . S
C1604 C1605 1.524 . S
C1604 C1618 1.377 . S
C1605 C1604 1.524 . S
C1605 C1606 1.397 . S
C1605 C1610 1.363 . S
C1606 H1583 0.950 . S
C1606 C1605 1.397 . S
C1606 C1607 1.334 . S
C1607 H1584 0.950 . S
C1607 C1606 1.334 . S
C1607 C1608 1.287 . S
C1608 C1607 1.287 . S
C1608 C1609 1.524 . S
C1608 H1627 0.913 . S
C1609 H1585 0.950 . S
C1609 C1608 1.524 . S
C1609 C1610 1.415 . S
C1610 H1586 0.950 . S
C1610 C1605 1.363 . S
C1610 C1609 1.415 . S
C1611 H1587 0.951 . S
C1611 C1612 1.366 . S
C1611 C1613 1.388 . S
C1612 C1611 1.366 . S
C1612 C1616 1.385 . S
C1613 H1588 0.951 . S
C1613 C1611 1.388 . S
C1613 C1614 1.366 1_556 S
C1614 C1613 1.366 1_554 S
C1614 C1615 1.414 1_554 S
C1614 C1617 1.499 . S
C1615 H1589 0.950 . S
C1615 C1614 1.414 1_556 S
C1615 C1616 1.374 . S
C1616 H1590 0.950 . S
C1616 C1612 1.385 . S
C1616 C1615 1.374 . S
C1617 C1614 1.499 . S
C1617 C1618 1.373 . S
C1617 C1619 1.389 . S
C1618 H1591 0.950 . S
C1618 C1604 1.377 . S
C1618 C1617 1.373 . S
C1619 C1603 1.377 . S
C1619 C1617 1.389 . S
C1619 C1620 1.524 . S
C1620 C1619 1.524 . S
C1620 C1621 1.397 . S
C1620 C1625 1.363 . S
C1621 H1592 0.950 . S
C1621 C1620 1.397 . S
C1621 C1622 1.334 . S
C1622 H1593 0.950 1_554 S
C1622 C1621 1.334 . S
C1622 C1623 1.287 . S
C1623 C1622 1.287 . S
C1623 C1624 1.524 . S
C1623 H1626 0.999 . S
C1624 H1594 0.950 . S
C1624 C1623 1.524 . S
C1624 C1625 1.415 . S
C1625 H1595 0.950 . S
C1625 C1620 1.363 . S
C1625 C1624 1.415 . S
H1626 C1623 0.999 . S
H1627 C1608 0.913 . S
H1628 C1646 0.951 . S
H1629 C1648 0.951 . S
H1630 C1650 0.950 . S
H1631 C1651 0.950 . S
H1632 C1653 0.950 . S
H1633 C1656 0.950 . S
H1634 C1657 0.950 1_554 S
H1635 C1659 0.950 . S
H1636 C1660 0.950 . S
H1637 C1661 0.951 . S
H1638 C1663 0.951 . S
H1639 C1665 0.950 . S
H1640 C1666 0.950 . S
H1641 C1668 0.950 . S
H1642 C1671 0.950 . S
H1643 C1672 0.950 . S
H1644 C1674 0.950 . S
H1645 C1675 0.950 . S
C1646 H1628 0.951 . S
C1646 C1647 1.366 . S
C1646 C1648 1.388 . S
C1647 C1646 1.366 . S
C1647 C1651 1.385 . S
C1648 H1629 0.951 . S
C1648 C1646 1.388 . S
C1648 C1649 1.366 . S
C1649 C1648 1.366 . S
C1649 C1650 1.414 . S
C1649 C1652 1.499 1_554 S
C1650 H1630 0.950 . S
C1650 C1649 1.414 . S
C1650 C1651 1.374 . S
C1651 H1631 0.950 . S
C1651 C1647 1.385 . S
C1651 C1650 1.374 . S
C1652 C1649 1.499 1_556 S
C1652 C1653 1.373 . S
C1652 C1654 1.389 . S
C1653 H1632 0.950 . S
C1653 C1652 1.373 . S
C1653 C1669 1.377 . S
C1654 C1652 1.389 . S
C1654 C1655 1.524 . S
C1654 C1668 1.377 . S
C1655 C1654 1.524 . S
C1655 C1656 1.397 . S
C1655 C1660 1.363 . S
C1656 H1633 0.950 . S
C1656 C1655 1.397 . S
C1656 C1657 1.334 . S
C1657 H1634 0.950 1_556 S
C1657 C1656 1.334 . S
C1657 C1658 1.287 . S
C1658 C1657 1.287 . S
C1658 C1659 1.524 . S
C1658 H1677 0.913 . S
C1659 H1635 0.950 . S
C1659 C1658 1.524 . S
C1659 C1660 1.415 . S
C1660 H1636 0.950 . S
C1660 C1655 1.363 . S
C1660 C1659 1.415 . S
C1661 H1637 0.951 . S
C1661 C1662 1.366 . S
C1661 C1663 1.388 . S
C1662 C1661 1.366 . S
C1662 C1666 1.385 . S
C1663 H1638 0.951 . S
C1663 C1661 1.388 . S
C1663 C1664 1.366 . S
C1664 C1663 1.366 . S
C1664 C1665 1.414 . S
C1664 C1667 1.499 . S
C1665 H1639 0.950 . S
C1665 C1664 1.414 . S
C1665 C1666 1.374 . S
C1666 H1640 0.950 . S
C1666 C1662 1.385 . S
C1666 C1665 1.374 . S
C1667 C1664 1.499 . S
C1667 C1668 1.373 . S
C1667 C1669 1.389 . S
C1668 H1641 0.950 . S
C1668 C1654 1.377 . S
C1668 C1667 1.373 . S
C1669 C1653 1.377 . S
C1669 C1667 1.389 . S
C1669 C1670 1.524 . S
C1670 C1669 1.524 . S
C1670 C1671 1.397 . S
C1670 C1675 1.363 . S
C1671 H1642 0.950 . S
C1671 C1670 1.397 . S
C1671 C1672 1.334 . S
C1672 H1643 0.950 . S
C1672 C1671 1.334 . S
C1672 C1673 1.287 . S
C1673 C1672 1.287 . S
C1673 C1674 1.524 . S
C1673 H1676 0.999 . S
C1674 H1644 0.950 . S
C1674 C1673 1.524 . S
C1674 C1675 1.415 . S
C1675 H1645 0.950 . S
C1675 C1670 1.363 . S
C1675 C1674 1.415 . S
H1676 C1673 0.999 . S
H1677 C1658 0.913 . S
H1678 C1696 0.951 . S
H1679 C1698 0.951 . S
H1680 C1700 0.950 . S
H1681 C1701 0.950 . S
H1682 C1703 0.950 . S
H1683 C1706 0.950 . S
H1684 C1707 0.950 1_554 S
H1685 C1709 0.950 . S
H1686 C1710 0.950 . S
H1687 C1711 0.951 . S
H1688 C1713 0.951 . S
H1689 C1715 0.950 . S
H1690 C1716 0.950 . S
H1691 C1718 0.950 . S
H1692 C1721 0.950 . S
H1693 C1722 0.950 . S
H1694 C1724 0.950 . S
H1695 C1725 0.950 . S
C1696 H1678 0.951 . S
C1696 C1697 1.366 . S
C1696 C1698 1.388 . S
C1697 C1696 1.366 . S
C1697 C1701 1.385 . S
C1698 H1679 0.951 . S
C1698 C1696 1.388 . S
C1698 C1699 1.366 1_554 S
C1699 C1698 1.366 1_556 S
C1699 C1700 1.414 1_556 S
C1699 C1702 1.499 . S
C1700 H1680 0.950 . S
C1700 C1699 1.414 1_554 S
C1700 C1701 1.374 . S
C1701 H1681 0.950 . S
C1701 C1697 1.385 . S
C1701 C1700 1.374 . S
C1702 C1699 1.499 . S
C1702 C1703 1.373 . S
C1702 C1704 1.389 . S
C1703 H1682 0.950 . S
C1703 C1702 1.373 . S
C1703 C1719 1.377 . S
C1704 C1702 1.389 . S
C1704 C1705 1.524 . S
C1704 C1718 1.377 . S
C1705 C1704 1.524 . S
C1705 C1706 1.397 . S
C1705 C1710 1.363 . S
C1706 H1683 0.950 . S
C1706 C1705 1.397 . S
C1706 C1707 1.334 . S
C1707 H1684 0.950 1_556 S
C1707 C1706 1.334 . S
C1707 C1708 1.287 . S
C1708 C1707 1.287 . S
C1708 C1709 1.524 . S
C1708 H1727 0.913 1_556 S
C1709 H1685 0.950 . S
C1709 C1708 1.524 . S
C1709 C1710 1.415 . S
C1710 H1686 0.950 . S
C1710 C1705 1.363 . S
C1710 C1709 1.415 . S
C1711 H1687 0.951 . S
C1711 C1712 1.366 . S
C1711 C1713 1.388 . S
C1712 C1711 1.366 . S
C1712 C1716 1.385 . S
C1713 H1688 0.951 . S
C1713 C1711 1.388 . S
C1713 C1714 1.366 . S
C1714 C1713 1.366 . S
C1714 C1715 1.414 . S
C1714 C1717 1.499 . S
C1715 H1689 0.950 . S
C1715 C1714 1.414 . S
C1715 C1716 1.374 . S
C1716 H1690 0.950 . S
C1716 C1712 1.385 . S
C1716 C1715 1.374 . S
C1717 C1714 1.499 . S
C1717 C1718 1.373 . S
C1717 C1719 1.389 . S
C1718 H1691 0.950 . S
C1718 C1704 1.377 . S
C1718 C1717 1.373 . S
C1719 C1703 1.377 . S
C1719 C1717 1.389 . S
C1719 C1720 1.524 . S
C1720 C1719 1.524 . S
C1720 C1721 1.397 . S
C1720 C1725 1.363 . S
C1721 H1692 0.950 . S
C1721 C1720 1.397 . S
C1721 C1722 1.334 . S
C1722 H1693 0.950 . S
C1722 C1721 1.334 . S
C1722 C1723 1.287 . S
C1723 C1722 1.287 . S
C1723 C1724 1.524 . S
C1723 H1726 0.999 . S
C1724 H1694 0.950 . S
C1724 C1723 1.524 . S
C1724 C1725 1.415 . S
C1725 H1695 0.950 . S
C1725 C1720 1.363 . S
C1725 C1724 1.415 . S
H1726 C1723 0.999 . S
H1727 C1708 0.913 1_554 S
H1728 C1746 0.951 . S
H1729 C1748 0.951 . S
H1730 C1750 0.950 . S
H1731 C1751 0.950 . S
H1732 C1753 0.950 . S
H1733 C1756 0.950 . S
H1734 C1757 0.950 . S
H1735 C1759 0.950 . S
H1736 C1760 0.950 . S
H1737 C1761 0.951 . S
H1738 C1763 0.951 . S
H1739 C1765 0.950 . S
H1740 C1766 0.950 . S
H1741 C1768 0.950 . S
H1742 C1771 0.950 . S
H1743 C1772 0.950 . S
H1744 C1774 0.950 . S
H1745 C1775 0.950 . S
C1746 H1728 0.951 . S
C1746 C1747 1.366 . S
C1746 C1748 1.388 . S
C1747 C1746 1.366 . S
C1747 C1751 1.385 . S
C1748 H1729 0.951 . S
C1748 C1746 1.388 . S
C1748 C1749 1.366 . S
C1749 C1748 1.366 . S
C1749 C1750 1.414 . S
C1749 C1752 1.499 1_556 S
C1750 H1730 0.950 . S
C1750 C1749 1.414 . S
C1750 C1751 1.374 . S
C1751 H1731 0.950 . S
C1751 C1747 1.385 . S
C1751 C1750 1.374 . S
C1752 C1749 1.499 1_554 S
C1752 C1753 1.373 . S
C1752 C1754 1.389 . S
C1753 H1732 0.950 . S
C1753 C1752 1.373 . S
C1753 C1769 1.377 . S
C1754 C1752 1.389 . S
C1754 C1755 1.524 . S
C1754 C1768 1.377 . S
C1755 C1754 1.524 . S
C1755 C1756 1.397 . S
C1755 C1760 1.363 . S
C1756 H1733 0.950 . S
C1756 C1755 1.397 . S
C1756 C1757 1.334 1_554 S
C1757 H1734 0.950 . S
C1757 C1756 1.334 1_556 S
C1757 C1758 1.287 1_556 S
C1758 C1757 1.287 1_554 S
C1758 C1759 1.524 . S
C1758 H1777 0.913 1_554 S
C1759 H1735 0.950 . S
C1759 C1758 1.524 . S
C1759 C1760 1.415 . S
C1760 H1736 0.950 . S
C1760 C1755 1.363 . S
C1760 C1759 1.415 . S
C1761 H1737 0.951 . S
C1761 C1762 1.366 . S
C1761 C1763 1.388 . S
C1762 C1761 1.366 . S
C1762 C1766 1.385 . S
C1763 H1738 0.951 . S
C1763 C1761 1.388 . S
C1763 C1764 1.366 . S
C1764 C1763 1.366 . S
C1764 C1765 1.414 . S
C1764 C1767 1.499 . S
C1765 H1739 0.950 . S
C1765 C1764 1.414 . S
C1765 C1766 1.374 . S
C1766 H1740 0.950 . S
C1766 C1762 1.385 . S
C1766 C1765 1.374 . S
C1767 C1764 1.499 . S
C1767 C1768 1.373 . S
C1767 C1769 1.389 . S
C1768 H1741 0.950 . S
C1768 C1754 1.377 . S
C1768 C1767 1.373 . S
C1769 C1753 1.377 . S
C1769 C1767 1.389 . S
C1769 C1770 1.524 . S
C1770 C1769 1.524 . S
C1770 C1771 1.397 . S
C1770 C1775 1.363 . S
C1771 H1742 0.950 . S
C1771 C1770 1.397 . S
C1771 C1772 1.334 . S
C1772 H1743 0.950 . S
C1772 C1771 1.334 . S
C1772 C1773 1.287 . S
C1773 C1772 1.287 . S
C1773 C1774 1.524 . S
C1773 H1776 0.999 . S
C1774 H1744 0.950 . S
C1774 C1773 1.524 . S
C1774 C1775 1.415 . S
C1775 H1745 0.950 . S
C1775 C1770 1.363 . S
C1775 C1774 1.415 . S
H1776 C1773 0.999 . S
H1777 C1758 0.913 1_556 S
H1778 C1796 0.951 . S
H1779 C1798 0.951 . S
H1780 C1800 0.950 . S
H1781 C1801 0.950 . S
H1782 C1803 0.950 . S
H1783 C1806 0.950 . S
H1784 C1807 0.950 1_556 S
H1785 C1809 0.950 . S
H1786 C1810 0.950 . S
H1787 C1811 0.951 . S
H1788 C1813 0.951 . S
H1789 C1815 0.950 . S
H1790 C1816 0.950 . S
H1791 C1818 0.950 . S
H1792 C1821 0.950 . S
H1793 C1822 0.950 . S
H1794 C1824 0.950 . S
H1795 C1825 0.950 . S
C1796 H1778 0.951 . S
C1796 C1797 1.366 . S
C1796 C1798 1.388 . S
C1797 C1796 1.366 . S
C1797 C1801 1.385 . S
C1798 H1779 0.951 . S
C1798 C1796 1.388 . S
C1798 C1799 1.366 1_556 S
C1799 C1798 1.366 1_554 S
C1799 C1800 1.414 1_554 S
C1799 C1802 1.499 . S
C1800 H1780 0.950 . S
C1800 C1799 1.414 1_556 S
C1800 C1801 1.374 . S
C1801 H1781 0.950 . S
C1801 C1797 1.385 . S
C1801 C1800 1.374 . S
C1802 C1799 1.499 . S
C1802 C1803 1.373 . S
C1802 C1804 1.389 . S
C1803 H1782 0.950 . S
C1803 C1802 1.373 . S
C1803 C1819 1.377 . S
C1804 C1802 1.389 . S
C1804 C1805 1.524 . S
C1804 C1818 1.377 . S
C1805 C1804 1.524 . S
C1805 C1806 1.397 . S
C1805 C1810 1.363 . S
C1806 H1783 0.950 . S
C1806 C1805 1.397 . S
C1806 C1807 1.334 . S
C1807 H1784 0.950 1_554 S
C1807 C1806 1.334 . S
C1807 C1808 1.287 . S
C1808 C1807 1.287 . S
C1808 C1809 1.524 . S
C1808 H1827 0.913 1_554 S
C1809 H1785 0.950 . S
C1809 C1808 1.524 . S
C1809 C1810 1.415 . S
C1810 H1786 0.950 . S
C1810 C1805 1.363 . S
C1810 C1809 1.415 . S
C1811 H1787 0.951 . S
C1811 C1812 1.366 . S
C1811 C1813 1.388 . S
C1812 C1811 1.366 . S
C1812 C1816 1.385 . S
C1813 H1788 0.951 . S
C1813 C1811 1.388 . S
C1813 C1814 1.366 . S
C1814 C1813 1.366 . S
C1814 C1815 1.414 . S
C1814 C1817 1.499 . S
C1815 H1789 0.950 . S
C1815 C1814 1.414 . S
C1815 C1816 1.374 . S
C1816 H1790 0.950 . S
C1816 C1812 1.385 . S
C1816 C1815 1.374 . S
C1817 C1814 1.499 . S
C1817 C1818 1.373 . S
C1817 C1819 1.389 . S
C1818 H1791 0.950 . S
C1818 C1804 1.377 . S
C1818 C1817 1.373 . S
C1819 C1803 1.377 . S
C1819 C1817 1.389 . S
C1819 C1820 1.524 . S
C1820 C1819 1.524 . S
C1820 C1821 1.397 . S
C1820 C1825 1.363 . S
C1821 H1792 0.950 . S
C1821 C1820 1.397 . S
C1821 C1822 1.334 . S
C1822 H1793 0.950 . S
C1822 C1821 1.334 . S
C1822 C1823 1.287 . S
C1823 C1822 1.287 . S
C1823 C1824 1.524 . S
C1823 H1826 0.999 . S
C1824 H1794 0.950 . S
C1824 C1823 1.524 . S
C1824 C1825 1.415 . S
C1825 H1795 0.950 . S
C1825 C1820 1.363 . S
C1825 C1824 1.415 . S
H1826 C1823 0.999 . S
H1827 C1808 0.913 1_556 S
H1828 C1846 0.951 . S
H1829 C1848 0.951 . S
H1830 C1850 0.950 . S
H1831 C1851 0.950 . S
H1832 C1853 0.950 . S
H1833 C1856 0.950 . S
H1834 C1857 0.950 1_554 S
H1835 C1859 0.950 . S
H1836 C1860 0.950 . S
H1837 C1861 0.951 . S
H1838 C1863 0.951 . S
H1839 C1865 0.950 . S
H1840 C1866 0.950 . S
H1841 C1868 0.950 . S
H1842 C1871 0.950 . S
H1843 C1872 0.950 . S
H1844 C1874 0.950 . S
H1845 C1875 0.950 . S
C1846 H1828 0.951 . S
C1846 C1847 1.366 . S
C1846 C1848 1.388 . S
C1847 C1846 1.366 . S
C1847 C1851 1.385 . S
C1848 H1829 0.951 . S
C1848 C1846 1.388 . S
C1848 C1849 1.366 . S
C1849 C1848 1.366 . S
C1849 C1850 1.414 . S
C1849 C1852 1.499 1_554 S
C1850 H1830 0.950 . S
C1850 C1849 1.414 . S
C1850 C1851 1.374 . S
C1851 H1831 0.950 . S
C1851 C1847 1.385 . S
C1851 C1850 1.374 . S
C1852 C1849 1.499 1_556 S
C1852 C1853 1.373 . S
C1852 C1854 1.389 . S
C1853 H1832 0.950 . S
C1853 C1852 1.373 . S
C1853 C1869 1.377 . S
C1854 C1852 1.389 . S
C1854 C1855 1.524 . S
C1854 C1868 1.377 . S
C1855 C1854 1.524 . S
C1855 C1856 1.397 . S
C1855 C1860 1.363 . S
C1856 H1833 0.950 . S
C1856 C1855 1.397 . S
C1856 C1857 1.334 . S
C1857 H1834 0.950 1_556 S
C1857 C1856 1.334 . S
C1857 C1858 1.287 . S
C1858 C1857 1.287 . S
C1858 C1859 1.524 . S
C1858 H1877 0.913 1_556 S
C1859 H1835 0.950 . S
C1859 C1858 1.524 . S
C1859 C1860 1.415 . S
C1860 H1836 0.950 . S
C1860 C1855 1.363 . S
C1860 C1859 1.415 . S
C1861 H1837 0.951 . S
C1861 C1862 1.366 . S
C1861 C1863 1.388 . S
C1862 C1861 1.366 . S
C1862 C1866 1.385 . S
C1863 H1838 0.951 . S
C1863 C1861 1.388 . S
C1863 C1864 1.366 . S
C1864 C1863 1.366 . S
C1864 C1865 1.414 . S
C1864 C1867 1.499 . S
C1865 H1839 0.950 . S
C1865 C1864 1.414 . S
C1865 C1866 1.374 . S
C1866 H1840 0.950 . S
C1866 C1862 1.385 . S
C1866 C1865 1.374 . S
C1867 C1864 1.499 . S
C1867 C1868 1.373 . S
C1867 C1869 1.389 . S
C1868 H1841 0.950 . S
C1868 C1854 1.377 . S
C1868 C1867 1.373 . S
C1869 C1853 1.377 . S
C1869 C1867 1.389 . S
C1869 C1870 1.524 . S
C1870 C1869 1.524 . S
C1870 C1871 1.397 . S
C1870 C1875 1.363 . S
C1871 H1842 0.950 . S
C1871 C1870 1.397 . S
C1871 C1872 1.334 . S
C1872 H1843 0.950 . S
C1872 C1871 1.334 . S
C1872 C1873 1.287 . S
C1873 C1872 1.287 . S
C1873 C1874 1.524 . S
C1873 H1876 0.999 . S
C1874 H1844 0.950 . S
C1874 C1873 1.524 . S
C1874 C1875 1.415 . S
C1875 H1845 0.950 . S
C1875 C1870 1.363 . S
C1875 C1874 1.415 . S
H1876 C1873 0.999 . S
H1877 C1858 0.913 1_554 S
H1878 C1896 0.951 . S
H1879 C1898 0.951 . S
H1880 C1900 0.950 . S
H1881 C1901 0.950 . S
H1882 C1903 0.950 . S
H1883 C1906 0.950 . S
H1884 C1907 0.950 1_554 S
H1885 C1909 0.950 . S
H1886 C1910 0.950 . S
H1887 C1911 0.951 . S
H1888 C1913 0.951 . S
H1889 C1915 0.950 . S
H1890 C1916 0.950 . S
H1891 C1918 0.950 . S
H1892 C1921 0.950 . S
H1893 C1922 0.950 . S
H1894 C1924 0.950 . S
H1895 C1925 0.950 . S
C1896 H1878 0.951 . S
C1896 C1897 1.366 . S
C1896 C1898 1.388 . S
C1897 C1896 1.366 . S
C1897 C1901 1.385 . S
C1898 H1879 0.951 . S
C1898 C1896 1.388 . S
C1898 C1899 1.366 1_554 S
C1899 C1898 1.366 1_556 S
C1899 C1900 1.414 1_556 S
C1899 C1902 1.499 . S
C1900 H1880 0.950 . S
C1900 C1899 1.414 1_554 S
C1900 C1901 1.374 . S
C1901 H1881 0.950 . S
C1901 C1897 1.385 . S
C1901 C1900 1.374 . S
C1902 C1899 1.499 . S
C1902 C1903 1.373 . S
C1902 C1904 1.389 . S
C1903 H1882 0.950 . S
C1903 C1902 1.373 . S
C1903 C1919 1.377 . S
C1904 C1902 1.389 . S
C1904 C1905 1.524 . S
C1904 C1918 1.377 . S
C1905 C1904 1.524 . S
C1905 C1906 1.397 . S
C1905 C1910 1.363 . S
C1906 H1883 0.950 . S
C1906 C1905 1.397 . S
C1906 C1907 1.334 . S
C1907 H1884 0.950 1_556 S
C1907 C1906 1.334 . S
C1907 C1908 1.287 . S
C1908 C1907 1.287 . S
C1908 C1909 1.524 . S
C1908 H1927 0.913 . S
C1909 H1885 0.950 . S
C1909 C1908 1.524 . S
C1909 C1910 1.415 . S
C1910 H1886 0.950 . S
C1910 C1905 1.363 . S
C1910 C1909 1.415 . S
C1911 H1887 0.951 . S
C1911 C1912 1.366 . S
C1911 C1913 1.388 . S
C1912 C1911 1.366 . S
C1912 C1916 1.385 . S
C1913 H1888 0.951 . S
C1913 C1911 1.388 . S
C1913 C1914 1.366 . S
C1914 C1913 1.366 . S
C1914 C1915 1.414 . S
C1914 C1917 1.499 . S
C1915 H1889 0.950 . S
C1915 C1914 1.414 . S
C1915 C1916 1.374 . S
C1916 H1890 0.950 . S
C1916 C1912 1.385 . S
C1916 C1915 1.374 . S
C1917 C1914 1.499 . S
C1917 C1918 1.373 . S
C1917 C1919 1.389 . S
C1918 H1891 0.950 . S
C1918 C1904 1.377 . S
C1918 C1917 1.373 . S
C1919 C1903 1.377 . S
C1919 C1917 1.389 . S
C1919 C1920 1.524 . S
C1920 C1919 1.524 . S
C1920 C1921 1.397 . S
C1920 C1925 1.363 . S
C1921 H1892 0.950 . S
C1921 C1920 1.397 . S
C1921 C1922 1.334 . S
C1922 H1893 0.950 . S
C1922 C1921 1.334 . S
C1922 C1923 1.287 . S
C1923 C1922 1.287 . S
C1923 C1924 1.524 . S
C1923 H1926 0.999 . S
C1924 H1894 0.950 . S
C1924 C1923 1.524 . S
C1924 C1925 1.415 . S
C1925 H1895 0.950 . S
C1925 C1920 1.363 . S
C1925 C1924 1.415 . S
H1926 C1923 0.999 . S
H1927 C1908 0.913 . S
H1928 C1946 0.951 . S
H1929 C1948 0.951 . S
H1930 C1950 0.950 . S
H1931 C1951 0.950 . S
H1932 C1953 0.950 . S
H1933 C1956 0.950 . S
H1934 C1957 0.950 . S
H1935 C1959 0.950 . S
H1936 C1960 0.950 . S
H1937 C1961 0.951 . S
H1938 C1963 0.951 . S
H1939 C1965 0.950 . S
H1940 C1966 0.950 . S
H1941 C1968 0.950 . S
H1942 C1971 0.950 . S
H1943 C1972 0.950 . S
H1944 C1974 0.950 . S
H1945 C1975 0.950 . S
C1946 H1928 0.951 . S
C1946 C1947 1.366 . S
C1946 C1948 1.388 . S
C1947 C1946 1.366 . S
C1947 C1951 1.385 . S
C1948 H1929 0.951 . S
C1948 C1946 1.388 . S
C1948 C1949 1.366 . S
C1949 C1948 1.366 . S
C1949 C1950 1.414 . S
C1949 C1952 1.499 . S
C1950 H1930 0.950 . S
C1950 C1949 1.414 . S
C1950 C1951 1.374 . S
C1951 H1931 0.950 . S
C1951 C1947 1.385 . S
C1951 C1950 1.374 . S
C1952 C1949 1.499 . S
C1952 C1953 1.373 . S
C1952 C1954 1.389 . S
C1953 H1932 0.950 . S
C1953 C1952 1.373 . S
C1953 C1969 1.377 . S
C1954 C1952 1.389 . S
C1954 C1955 1.524 . S
C1954 C1968 1.377 . S
C1955 C1954 1.524 . S
C1955 C1956 1.397 . S
C1955 C1960 1.363 . S
C1956 H1933 0.950 . S
C1956 C1955 1.397 . S
C1956 C1957 1.334 . S
C1957 H1934 0.950 . S
C1957 C1956 1.334 . S
C1957 C1958 1.287 . S
C1958 C1957 1.287 . S
C1958 C1959 1.524 . S
C1958 H1977 0.913 . S
C1959 H1935 0.950 . S
C1959 C1958 1.524 . S
C1959 C1960 1.415 . S
C1960 H1936 0.950 . S
C1960 C1955 1.363 . S
C1960 C1959 1.415 . S
C1961 H1937 0.951 . S
C1961 C1962 1.366 . S
C1961 C1963 1.388 . S
C1962 C1961 1.366 . S
C1962 C1966 1.385 . S
C1963 H1938 0.951 . S
C1963 C1961 1.388 . S
C1963 C1964 1.366 . S
C1964 C1963 1.366 . S
C1964 C1965 1.414 . S
C1964 C1967 1.499 . S
C1965 H1939 0.950 . S
C1965 C1964 1.414 . S
C1965 C1966 1.374 . S
C1966 H1940 0.950 . S
C1966 C1962 1.385 . S
C1966 C1965 1.374 . S
C1967 C1964 1.499 . S
C1967 C1968 1.373 . S
C1967 C1969 1.389 . S
C1968 H1941 0.950 . S
C1968 C1954 1.377 . S
C1968 C1967 1.373 . S
C1969 C1953 1.377 . S
C1969 C1967 1.389 . S
C1969 C1970 1.524 . S
C1970 C1969 1.524 . S
C1970 C1971 1.397 . S
C1970 C1975 1.363 . S
C1971 H1942 0.950 . S
C1971 C1970 1.397 . S
C1971 C1972 1.334 . S
C1972 H1943 0.950 . S
C1972 C1971 1.334 . S
C1972 C1973 1.287 . S
C1973 C1972 1.287 . S
C1973 C1974 1.524 . S
C1973 H1976 0.999 . S
C1974 H1944 0.950 . S
C1974 C1973 1.524 . S
C1974 C1975 1.415 . S
C1975 H1945 0.950 . S
C1975 C1970 1.363 . S
C1975 C1974 1.415 . S
H1976 C1973 0.999 . S
H1977 C1958 0.913 . S
H1978 C1996 0.951 . S
H1979 C1998 0.951 . S
H1980 C2000 0.950 . S
H1981 C2001 0.950 . S
H1982 C2003 0.950 . S
H1983 C2006 0.950 . S
H1984 C2007 0.950 . S
H1985 C2009 0.950 . S
H1986 C2010 0.950 . S
H1987 C2011 0.951 . S
H1988 C2013 0.951 . S
H1989 C2015 0.950 . S
H1990 C2016 0.950 . S
H1991 C2018 0.950 . S
H1992 C2021 0.950 . S
H1993 C2022 0.950 . S
H1994 C2024 0.950 . S
H1995 C2025 0.950 . S
C1996 H1978 0.951 . S
C1996 C1997 1.366 . S
C1996 C1998 1.388 . S
C1997 C1996 1.366 . S
C1997 C2001 1.385 . S
C1998 H1979 0.951 . S
C1998 C1996 1.388 . S
C1998 C1999 1.366 . S
C1999 C1998 1.366 . S
C1999 C2000 1.414 . S
C1999 C2002 1.499 . S
C2000 H1980 0.950 . S
C2000 C1999 1.414 . S
C2000 C2001 1.374 . S
C2001 H1981 0.950 . S
C2001 C1997 1.385 . S
C2001 C2000 1.374 . S
C2002 C1999 1.499 . S
C2002 C2003 1.373 . S
C2002 C2004 1.389 . S
C2003 H1982 0.950 . S
C2003 C2002 1.373 . S
C2003 C2019 1.377 . S
C2004 C2002 1.389 . S
C2004 C2005 1.524 . S
C2004 C2018 1.377 . S
C2005 C2004 1.524 . S
C2005 C2006 1.397 . S
C2005 C2010 1.363 . S
C2006 H1983 0.950 . S
C2006 C2005 1.397 . S
C2006 C2007 1.334 . S
C2007 H1984 0.950 . S
C2007 C2006 1.334 . S
C2007 C2008 1.287 . S
C2008 C2007 1.287 . S
C2008 C2009 1.524 . S
C2008 H2027 0.913 . S
C2009 H1985 0.950 . S
C2009 C2008 1.524 . S
C2009 C2010 1.415 . S
C2010 H1986 0.950 . S
C2010 C2005 1.363 . S
C2010 C2009 1.415 . S
C2011 H1987 0.951 . S
C2011 C2012 1.366 . S
C2011 C2013 1.388 . S
C2012 C2011 1.366 . S
C2012 C2016 1.385 . S
C2013 H1988 0.951 . S
C2013 C2011 1.388 . S
C2013 C2014 1.366 . S
C2014 C2013 1.366 . S
C2014 C2015 1.414 . S
C2014 C2017 1.499 . S
C2015 H1989 0.950 . S
C2015 C2014 1.414 . S
C2015 C2016 1.374 . S
C2016 H1990 0.950 . S
C2016 C2012 1.385 . S
C2016 C2015 1.374 . S
C2017 C2014 1.499 . S
C2017 C2018 1.373 . S
C2017 C2019 1.389 . S
C2018 H1991 0.950 . S
C2018 C2004 1.377 . S
C2018 C2017 1.373 . S
C2019 C2003 1.377 . S
C2019 C2017 1.389 . S
C2019 C2020 1.524 . S
C2020 C2019 1.524 . S
C2020 C2021 1.397 . S
C2020 C2025 1.363 . S
C2021 H1992 0.950 . S
C2021 C2020 1.397 . S
C2021 C2022 1.334 . S
C2022 H1993 0.950 . S
C2022 C2021 1.334 . S
C2022 C2023 1.287 . S
C2023 C2022 1.287 . S
C2023 C2024 1.524 . S
C2023 H2026 0.999 . S
C2024 H1994 0.950 . S
C2024 C2023 1.524 . S
C2024 C2025 1.415 . S
C2025 H1995 0.950 . S
C2025 C2020 1.363 . S
C2025 C2024 1.415 . S
H2026 C2023 0.999 . S
H2027 C2008 0.913 . S
H2028 C2046 0.951 . S
H2029 C2048 0.951 . S
H2030 C2050 0.950 . S
H2031 C2051 0.950 . S
H2032 C2053 0.950 . S
H2033 C2056 0.950 . S
H2034 C2057 0.950 . S
H2035 C2059 0.950 . S
H2036 C2060 0.950 . S
H2037 C2061 0.951 . S
H2038 C2063 0.951 . S
H2039 C2065 0.950 . S
H2040 C2066 0.950 . S
H2041 C2068 0.950 . S
H2042 C2071 0.950 . S
H2043 C2072 0.950 . S
H2044 C2074 0.950 . S
H2045 C2075 0.950 . S
C2046 H2028 0.951 . S
C2046 C2047 1.366 . S
C2046 C2048 1.388 . S
C2047 C2046 1.366 . S
C2047 C2051 1.385 . S
C2048 H2029 0.951 . S
C2048 C2046 1.388 . S
C2048 C2049 1.366 . S
C2049 C2048 1.366 . S
C2049 C2050 1.414 . S
C2049 C2052 1.499 . S
C2050 H2030 0.950 . S
C2050 C2049 1.414 . S
C2050 C2051 1.374 . S
C2051 H2031 0.950 . S
C2051 C2047 1.385 . S
C2051 C2050 1.374 . S
C2052 C2049 1.499 . S
C2052 C2053 1.373 . S
C2052 C2054 1.389 . S
C2053 H2032 0.950 . S
C2053 C2052 1.373 . S
C2053 C2069 1.377 . S
C2054 C2052 1.389 . S
C2054 C2055 1.524 . S
C2054 C2068 1.377 . S
C2055 C2054 1.524 . S
C2055 C2056 1.397 . S
C2055 C2060 1.363 . S
C2056 H2033 0.950 . S
C2056 C2055 1.397 . S
C2056 C2057 1.334 . S
C2057 H2034 0.950 . S
C2057 C2056 1.334 . S
C2057 C2058 1.287 . S
C2058 C2057 1.287 . S
C2058 C2059 1.524 . S
C2058 H2077 0.913 . S
C2059 H2035 0.950 . S
C2059 C2058 1.524 . S
C2059 C2060 1.415 . S
C2060 H2036 0.950 . S
C2060 C2055 1.363 . S
C2060 C2059 1.415 . S
C2061 H2037 0.951 . S
C2061 C2062 1.366 . S
C2061 C2063 1.388 . S
C2062 C2061 1.366 . S
C2062 C2066 1.385 . S
C2063 H2038 0.951 . S
C2063 C2061 1.388 . S
C2063 C2064 1.366 . S
C2064 C2063 1.366 . S
C2064 C2065 1.414 . S
C2064 C2067 1.499 . S
C2065 H2039 0.950 . S
C2065 C2064 1.414 . S
C2065 C2066 1.374 . S
C2066 H2040 0.950 . S
C2066 C2062 1.385 . S
C2066 C2065 1.374 . S
C2067 C2064 1.499 . S
C2067 C2068 1.373 . S
C2067 C2069 1.389 . S
C2068 H2041 0.950 . S
C2068 C2054 1.377 . S
C2068 C2067 1.373 . S
C2069 C2053 1.377 . S
C2069 C2067 1.389 . S
C2069 C2070 1.524 . S
C2070 C2069 1.524 . S
C2070 C2071 1.397 . S
C2070 C2075 1.363 . S
C2071 H2042 0.950 . S
C2071 C2070 1.397 . S
C2071 C2072 1.334 . S
C2072 H2043 0.950 . S
C2072 C2071 1.334 . S
C2072 C2073 1.287 . S
C2073 C2072 1.287 . S
C2073 C2074 1.524 . S
C2073 H2076 0.999 . S
C2074 H2044 0.950 . S
C2074 C2073 1.524 . S
C2074 C2075 1.415 . S
C2075 H2045 0.950 . S
C2075 C2070 1.363 . S
C2075 C2074 1.415 . S
H2076 C2073 0.999 . S
H2077 C2058 0.913 . S
H2078 C2096 0.951 . S
H2079 C2098 0.951 . S
H2080 C2100 0.950 . S
H2081 C2101 0.950 . S
H2082 C2103 0.950 . S
H2083 C2106 0.950 . S
H2084 C2107 0.950 . S
H2085 C2109 0.950 . S
H2086 C2110 0.950 . S
H2087 C2111 0.951 . S
H2088 C2113 0.951 . S
H2089 C2115 0.950 . S
H2090 C2116 0.950 . S
H2091 C2118 0.950 . S
H2092 C2121 0.950 . S
H2093 C2122 0.950 . S
H2094 C2124 0.950 . S
H2095 C2125 0.950 . S
C2096 H2078 0.951 . S
C2096 C2097 1.366 . S
C2096 C2098 1.388 . S
C2097 C2096 1.366 . S
C2097 C2101 1.385 . S
C2098 H2079 0.951 . S
C2098 C2096 1.388 . S
C2098 C2099 1.366 . S
C2099 C2098 1.366 . S
C2099 C2100 1.414 . S
C2099 C2102 1.499 . S
C2100 H2080 0.950 . S
C2100 C2099 1.414 . S
C2100 C2101 1.374 . S
C2101 H2081 0.950 . S
C2101 C2097 1.385 . S
C2101 C2100 1.374 . S
C2102 C2099 1.499 . S
C2102 C2103 1.373 . S
C2102 C2104 1.389 . S
C2103 H2082 0.950 . S
C2103 C2102 1.373 . S
C2103 C2119 1.377 . S
C2104 C2102 1.389 . S
C2104 C2105 1.524 . S
C2104 C2118 1.377 . S
C2105 C2104 1.524 . S
C2105 C2106 1.397 . S
C2105 C2110 1.363 . S
C2106 H2083 0.950 . S
C2106 C2105 1.397 . S
C2106 C2107 1.334 . S
C2107 H2084 0.950 . S
C2107 C2106 1.334 . S
C2107 C2108 1.287 . S
C2108 C2107 1.287 . S
C2108 C2109 1.524 . S
C2108 H2127 0.913 . S
C2109 H2085 0.950 . S
C2109 C2108 1.524 . S
C2109 C2110 1.415 . S
C2110 H2086 0.950 . S
C2110 C2105 1.363 . S
C2110 C2109 1.415 . S
C2111 H2087 0.951 . S
C2111 C2112 1.366 . S
C2111 C2113 1.388 . S
C2112 C2111 1.366 . S
C2112 C2116 1.385 . S
C2113 H2088 0.951 . S
C2113 C2111 1.388 . S
C2113 C2114 1.366 . S
C2114 C2113 1.366 . S
C2114 C2115 1.414 . S
C2114 C2117 1.499 . S
C2115 H2089 0.950 . S
C2115 C2114 1.414 . S
C2115 C2116 1.374 . S
C2116 H2090 0.950 . S
C2116 C2112 1.385 . S
C2116 C2115 1.374 . S
C2117 C2114 1.499 . S
C2117 C2118 1.373 . S
C2117 C2119 1.389 . S
C2118 H2091 0.950 . S
C2118 C2104 1.377 . S
C2118 C2117 1.373 . S
C2119 C2103 1.377 . S
C2119 C2117 1.389 . S
C2119 C2120 1.524 . S
C2120 C2119 1.524 . S
C2120 C2121 1.397 . S
C2120 C2125 1.363 . S
C2121 H2092 0.950 . S
C2121 C2120 1.397 . S
C2121 C2122 1.334 . S
C2122 H2093 0.950 . S
C2122 C2121 1.334 . S
C2122 C2123 1.287 . S
C2123 C2122 1.287 . S
C2123 C2124 1.524 . S
C2123 H2126 0.999 . S
C2124 H2094 0.950 . S
C2124 C2123 1.524 . S
C2124 C2125 1.415 . S
C2125 H2095 0.950 . S
C2125 C2120 1.363 . S
C2125 C2124 1.415 . S
H2126 C2123 0.999 . S
H2127 C2108 0.913 . S
H2128 C2146 0.951 . S
H2129 C2148 0.951 . S
H2130 C2150 0.950 . S
H2131 C2151 0.950 . S
H2132 C2153 0.950 . S
H2133 C2156 0.950 . S
H2134 C2157 0.950 . S
H2135 C2159 0.950 . S
H2136 C2160 0.950 . S
H2137 C2161 0.951 . S
H2138 C2163 0.951 . S
H2139 C2165 0.950 . S
H2140 C2166 0.950 . S
H2141 C2168 0.950 . S
H2142 C2171 0.950 . S
H2143 C2172 0.950 . S
H2144 C2174 0.950 . S
H2145 C2175 0.950 . S
C2146 H2128 0.951 . S
C2146 C2147 1.366 . S
C2146 C2148 1.388 . S
C2147 C2146 1.366 . S
C2147 C2151 1.385 . S
C2148 H2129 0.951 . S
C2148 C2146 1.388 . S
C2148 C2149 1.366 . S
C2149 C2148 1.366 . S
C2149 C2150 1.414 . S
C2149 C2152 1.499 . S
C2150 H2130 0.950 . S
C2150 C2149 1.414 . S
C2150 C2151 1.374 . S
C2151 H2131 0.950 . S
C2151 C2147 1.385 . S
C2151 C2150 1.374 . S
C2152 C2149 1.499 . S
C2152 C2153 1.373 . S
C2152 C2154 1.389 . S
C2153 H2132 0.950 . S
C2153 C2152 1.373 . S
C2153 C2169 1.377 . S
C2154 C2152 1.389 . S
C2154 C2155 1.524 . S
C2154 C2168 1.377 . S
C2155 C2154 1.524 . S
C2155 C2156 1.397 . S
C2155 C2160 1.363 . S
C2156 H2133 0.950 . S
C2156 C2155 1.397 . S
C2156 C2157 1.334 . S
C2157 H2134 0.950 . S
C2157 C2156 1.334 . S
C2157 C2158 1.287 . S
C2158 C2157 1.287 . S
C2158 C2159 1.524 . S
C2158 H2177 0.913 . S
C2159 H2135 0.950 . S
C2159 C2158 1.524 . S
C2159 C2160 1.415 . S
C2160 H2136 0.950 . S
C2160 C2155 1.363 . S
C2160 C2159 1.415 . S
C2161 H2137 0.951 . S
C2161 C2162 1.366 . S
C2161 C2163 1.388 . S
C2162 C2161 1.366 . S
C2162 C2166 1.385 . S
C2163 H2138 0.951 . S
C2163 C2161 1.388 . S
C2163 C2164 1.366 . S
C2164 C2163 1.366 . S
C2164 C2165 1.414 . S
C2164 C2167 1.499 . S
C2165 H2139 0.950 . S
C2165 C2164 1.414 . S
C2165 C2166 1.374 . S
C2166 H2140 0.950 . S
C2166 C2162 1.385 . S
C2166 C2165 1.374 . S
C2167 C2164 1.499 . S
C2167 C2168 1.373 . S
C2167 C2169 1.389 . S
C2168 H2141 0.950 . S
C2168 C2154 1.377 . S
C2168 C2167 1.373 . S
C2169 C2153 1.377 . S
C2169 C2167 1.389 . S
C2169 C2170 1.524 . S
C2170 C2169 1.524 . S
C2170 C2171 1.397 . S
C2170 C2175 1.363 . S
C2171 H2142 0.950 . S
C2171 C2170 1.397 . S
C2171 C2172 1.334 . S
C2172 H2143 0.950 . S
C2172 C2171 1.334 . S
C2172 C2173 1.287 . S
C2173 C2172 1.287 . S
C2173 C2174 1.524 . S
C2173 H2176 0.999 . S
C2174 H2144 0.950 . S
C2174 C2173 1.524 . S
C2174 C2175 1.415 . S
C2175 H2145 0.950 . S
C2175 C2170 1.363 . S
C2175 C2174 1.415 . S
H2176 C2173 0.999 . S
H2177 C2158 0.913 . S
H2178 C2196 0.951 . S
H2179 C2198 0.951 . S
H2180 C2200 0.950 . S
H2181 C2201 0.950 . S
H2182 C2203 0.950 . S
H2183 C2206 0.950 . S
H2184 C2207 0.950 . S
H2185 C2209 0.950 . S
H2186 C2210 0.950 1_554 S
H2187 C2211 0.951 . S
H2188 C2213 0.951 . S
H2189 C2215 0.950 . S
H2190 C2216 0.950 . S
H2191 C2218 0.950 . S
H2192 C2221 0.950 . S
H2193 C2222 0.950 . S
H2194 C2224 0.950 . S
H2195 C2225 0.950 . S
C2196 H2178 0.951 . S
C2196 C2197 1.366 . S
C2196 C2198 1.388 . S
C2197 C2196 1.366 . S
C2197 C2201 1.385 . S
C2198 H2179 0.951 . S
C2198 C2196 1.388 . S
C2198 C2199 1.366 . S
C2199 C2198 1.366 . S
C2199 C2200 1.414 . S
C2199 C2202 1.499 . S
C2200 H2180 0.950 . S
C2200 C2199 1.414 . S
C2200 C2201 1.374 . S
C2201 H2181 0.950 . S
C2201 C2197 1.385 . S
C2201 C2200 1.374 . S
C2202 C2199 1.499 . S
C2202 C2203 1.373 . S
C2202 C2204 1.389 . S
C2203 H2182 0.950 . S
C2203 C2202 1.373 . S
C2203 C2219 1.377 . S
C2204 C2202 1.389 . S
C2204 C2205 1.524 . S
C2204 C2218 1.377 . S
C2205 C2204 1.524 . S
C2205 C2206 1.397 . S
C2205 C2210 1.363 . S
C2206 H2183 0.950 . S
C2206 C2205 1.397 . S
C2206 C2207 1.334 . S
C2207 H2184 0.950 . S
C2207 C2206 1.334 . S
C2207 C2208 1.287 . S
C2208 C2207 1.287 . S
C2208 C2209 1.524 1_556 S
C2208 H2227 0.913 . S
C2209 H2185 0.950 . S
C2209 C2208 1.524 1_554 S
C2209 C2210 1.415 1_554 S
C2210 H2186 0.950 1_556 S
C2210 C2205 1.363 . S
C2210 C2209 1.415 1_556 S
C2211 H2187 0.951 . S
C2211 C2212 1.366 . S
C2211 C2213 1.388 . S
C2212 C2211 1.366 . S
C2212 C2216 1.385 . S
C2213 H2188 0.951 . S
C2213 C2211 1.388 . S
C2213 C2214 1.366 . S
C2214 C2213 1.366 . S
C2214 C2215 1.414 . S
C2214 C2217 1.499 . S
C2215 H2189 0.950 . S
C2215 C2214 1.414 . S
C2215 C2216 1.374 . S
C2216 H2190 0.950 . S
C2216 C2212 1.385 . S
C2216 C2215 1.374 . S
C2217 C2214 1.499 . S
C2217 C2218 1.373 . S
C2217 C2219 1.389 . S
C2218 H2191 0.950 . S
C2218 C2204 1.377 . S
C2218 C2217 1.373 . S
C2219 C2203 1.377 . S
C2219 C2217 1.389 . S
C2219 C2220 1.524 . S
C2220 C2219 1.524 . S
C2220 C2221 1.397 . S
C2220 C2225 1.363 . S
C2221 H2192 0.950 . S
C2221 C2220 1.397 . S
C2221 C2222 1.334 . S
C2222 H2193 0.950 . S
C2222 C2221 1.334 . S
C2222 C2223 1.287 . S
C2223 C2222 1.287 . S
C2223 C2224 1.524 . S
C2223 H2226 0.999 . S
C2224 H2194 0.950 . S
C2224 C2223 1.524 . S
C2224 C2225 1.415 . S
C2225 H2195 0.950 . S
C2225 C2220 1.363 . S
C2225 C2224 1.415 . S
H2226 C2223 0.999 . S
H2227 C2208 0.913 . S
H2228 C2246 0.951 . S
H2229 C2248 0.951 . S
H2230 C2250 0.950 . S
H2231 C2251 0.950 . S
H2232 C2253 0.950 . S
H2233 C2256 0.950 . S
H2234 C2257 0.950 . S
H2235 C2259 0.950 . S
H2236 C2260 0.950 . S
H2237 C2261 0.951 . S
H2238 C2263 0.951 . S
H2239 C2265 0.950 . S
H2240 C2266 0.950 . S
H2241 C2268 0.950 . S
H2242 C2271 0.950 . S
H2243 C2272 0.950 . S
H2244 C2274 0.950 . S
H2245 C2275 0.950 . S
C2246 H2228 0.951 . S
C2246 C2247 1.366 . S
C2246 C2248 1.388 . S
C2247 C2246 1.366 . S
C2247 C2251 1.385 . S
C2248 H2229 0.951 . S
C2248 C2246 1.388 . S
C2248 C2249 1.366 . S
C2249 C2248 1.366 . S
C2249 C2250 1.414 . S
C2249 C2252 1.499 . S
C2250 H2230 0.950 . S
C2250 C2249 1.414 . S
C2250 C2251 1.374 . S
C2251 H2231 0.950 . S
C2251 C2247 1.385 . S
C2251 C2250 1.374 . S
C2252 C2249 1.499 . S
C2252 C2253 1.373 . S
C2252 C2254 1.389 . S
C2253 H2232 0.950 . S
C2253 C2252 1.373 . S
C2253 C2269 1.377 . S
C2254 C2252 1.389 . S
C2254 C2255 1.524 . S
C2254 C2268 1.377 . S
C2255 C2254 1.524 . S
C2255 C2256 1.397 . S
C2255 C2260 1.363 . S
C2256 H2233 0.950 . S
C2256 C2255 1.397 . S
C2256 C2257 1.334 . S
C2257 H2234 0.950 . S
C2257 C2256 1.334 . S
C2257 C2258 1.287 . S
C2258 C2257 1.287 . S
C2258 C2259 1.524 . S
C2258 H2277 0.913 . S
C2259 H2235 0.950 . S
C2259 C2258 1.524 . S
C2259 C2260 1.415 . S
C2260 H2236 0.950 . S
C2260 C2255 1.363 . S
C2260 C2259 1.415 . S
C2261 H2237 0.951 . S
C2261 C2262 1.366 . S
C2261 C2263 1.388 . S
C2262 C2261 1.366 . S
C2262 C2266 1.385 . S
C2263 H2238 0.951 . S
C2263 C2261 1.388 . S
C2263 C2264 1.366 . S
C2264 C2263 1.366 . S
C2264 C2265 1.414 . S
C2264 C2267 1.499 . S
C2265 H2239 0.950 . S
C2265 C2264 1.414 . S
C2265 C2266 1.374 . S
C2266 H2240 0.950 . S
C2266 C2262 1.385 . S
C2266 C2265 1.374 . S
C2267 C2264 1.499 . S
C2267 C2268 1.373 . S
C2267 C2269 1.389 . S
C2268 H2241 0.950 . S
C2268 C2254 1.377 . S
C2268 C2267 1.373 . S
C2269 C2253 1.377 . S
C2269 C2267 1.389 . S
C2269 C2270 1.524 . S
C2270 C2269 1.524 . S
C2270 C2271 1.397 . S
C2270 C2275 1.363 . S
C2271 H2242 0.950 . S
C2271 C2270 1.397 . S
C2271 C2272 1.334 . S
C2272 H2243 0.950 . S
C2272 C2271 1.334 . S
C2272 C2273 1.287 . S
C2273 C2272 1.287 . S
C2273 C2274 1.524 . S
C2273 H2276 0.999 . S
C2274 H2244 0.950 . S
C2274 C2273 1.524 . S
C2274 C2275 1.415 . S
C2275 H2245 0.950 . S
C2275 C2270 1.363 . S
C2275 C2274 1.415 . S
H2276 C2273 0.999 . S
H2277 C2258 0.913 . S
H2278 C2296 0.951 . S
H2279 C2298 0.951 . S
H2280 C2300 0.950 . S
H2281 C2301 0.950 . S
H2282 C2303 0.950 . S
H2283 C2306 0.950 . S
H2284 C2307 0.950 . S
H2285 C2309 0.950 . S
H2286 C2310 0.950 . S
H2287 C2311 0.951 . S
H2288 C2313 0.951 . S
H2289 C2315 0.950 . S
H2290 C2316 0.950 . S
H2291 C2318 0.950 . S
H2292 C2321 0.950 . S
H2293 C2322 0.950 . S
H2294 C2324 0.950 . S
H2295 C2325 0.950 . S
C2296 H2278 0.951 . S
C2296 C2297 1.366 . S
C2296 C2298 1.388 . S
C2297 C2296 1.366 . S
C2297 C2301 1.385 . S
C2298 H2279 0.951 . S
C2298 C2296 1.388 . S
C2298 C2299 1.366 . S
C2299 C2298 1.366 . S
C2299 C2300 1.414 . S
C2299 C2302 1.499 . S
C2300 H2280 0.950 . S
C2300 C2299 1.414 . S
C2300 C2301 1.374 . S
C2301 H2281 0.950 . S
C2301 C2297 1.385 . S
C2301 C2300 1.374 . S
C2302 C2299 1.499 . S
C2302 C2303 1.373 . S
C2302 C2304 1.389 . S
C2303 H2282 0.950 . S
C2303 C2302 1.373 . S
C2303 C2319 1.377 . S
C2304 C2302 1.389 . S
C2304 C2305 1.524 . S
C2304 C2318 1.377 . S
C2305 C2304 1.524 . S
C2305 C2306 1.397 . S
C2305 C2310 1.363 . S
C2306 H2283 0.950 . S
C2306 C2305 1.397 . S
C2306 C2307 1.334 . S
C2307 H2284 0.950 . S
C2307 C2306 1.334 . S
C2307 C2308 1.287 . S
C2308 C2307 1.287 . S
C2308 C2309 1.524 . S
C2308 H2327 0.913 . S
C2309 H2285 0.950 . S
C2309 C2308 1.524 . S
C2309 C2310 1.415 . S
C2310 H2286 0.950 . S
C2310 C2305 1.363 . S
C2310 C2309 1.415 . S
C2311 H2287 0.951 . S
C2311 C2312 1.366 . S
C2311 C2313 1.388 . S
C2312 C2311 1.366 . S
C2312 C2316 1.385 . S
C2313 H2288 0.951 . S
C2313 C2311 1.388 . S
C2313 C2314 1.366 . S
C2314 C2313 1.366 . S
C2314 C2315 1.414 . S
C2314 C2317 1.499 . S
C2315 H2289 0.950 . S
C2315 C2314 1.414 . S
C2315 C2316 1.374 . S
C2316 H2290 0.950 . S
C2316 C2312 1.385 . S
C2316 C2315 1.374 . S
C2317 C2314 1.499 . S
C2317 C2318 1.373 . S
C2317 C2319 1.389 . S
C2318 H2291 0.950 . S
C2318 C2304 1.377 . S
C2318 C2317 1.373 . S
C2319 C2303 1.377 . S
C2319 C2317 1.389 . S
C2319 C2320 1.524 . S
C2320 C2319 1.524 . S
C2320 C2321 1.397 . S
C2320 C2325 1.363 . S
C2321 H2292 0.950 . S
C2321 C2320 1.397 . S
C2321 C2322 1.334 . S
C2322 H2293 0.950 . S
C2322 C2321 1.334 . S
C2322 C2323 1.287 . S
C2323 C2322 1.287 . S
C2323 C2324 1.524 . S
C2323 H2326 0.999 . S
C2324 H2294 0.950 . S
C2324 C2323 1.524 . S
C2324 C2325 1.415 . S
C2325 H2295 0.950 . S
C2325 C2320 1.363 . S
C2325 C2324 1.415 . S
H2326 C2323 0.999 . S
H2327 C2308 0.913 . S
H2328 C2346 0.951 . S
H2329 C2348 0.951 . S
H2330 C2350 0.950 . S
H2331 C2351 0.950 . S
H2332 C2353 0.950 . S
H2333 C2356 0.950 . S
H2334 C2357 0.950 . S
H2335 C2359 0.950 . S
H2336 C2360 0.950 . S
H2337 C2361 0.951 . S
H2338 C2363 0.951 . S
H2339 C2365 0.950 . S
H2340 C2366 0.950 . S
H2341 C2368 0.950 . S
H2342 C2371 0.950 . S
H2343 C2372 0.950 . S
H2344 C2374 0.950 . S
H2345 C2375 0.950 . S
C2346 H2328 0.951 . S
C2346 C2347 1.366 . S
C2346 C2348 1.388 . S
C2347 C2346 1.366 . S
C2347 C2351 1.385 . S
C2348 H2329 0.951 . S
C2348 C2346 1.388 . S
C2348 C2349 1.366 . S
C2349 C2348 1.366 . S
C2349 C2350 1.414 . S
C2349 C2352 1.499 . S
C2350 H2330 0.950 . S
C2350 C2349 1.414 . S
C2350 C2351 1.374 . S
C2351 H2331 0.950 . S
C2351 C2347 1.385 . S
C2351 C2350 1.374 . S
C2352 C2349 1.499 . S
C2352 C2353 1.373 . S
C2352 C2354 1.389 . S
C2353 H2332 0.950 . S
C2353 C2352 1.373 . S
C2353 C2369 1.377 . S
C2354 C2352 1.389 . S
C2354 C2355 1.524 . S
C2354 C2368 1.377 . S
C2355 C2354 1.524 . S
C2355 C2356 1.397 . S
C2355 C2360 1.363 . S
C2356 H2333 0.950 . S
C2356 C2355 1.397 . S
C2356 C2357 1.334 . S
C2357 H2334 0.950 . S
C2357 C2356 1.334 . S
C2357 C2358 1.287 . S
C2358 C2357 1.287 . S
C2358 C2359 1.524 . S
C2358 H2377 0.913 . S
C2359 H2335 0.950 . S
C2359 C2358 1.524 . S
C2359 C2360 1.415 . S
C2360 H2336 0.950 . S
C2360 C2355 1.363 . S
C2360 C2359 1.415 . S
C2361 H2337 0.951 . S
C2361 C2362 1.366 . S
C2361 C2363 1.388 . S
C2362 C2361 1.366 . S
C2362 C2366 1.385 . S
C2363 H2338 0.951 . S
C2363 C2361 1.388 . S
C2363 C2364 1.366 . S
C2364 C2363 1.366 . S
C2364 C2365 1.414 . S
C2364 C2367 1.499 . S
C2365 H2339 0.950 . S
C2365 C2364 1.414 . S
C2365 C2366 1.374 . S
C2366 H2340 0.950 . S
C2366 C2362 1.385 . S
C2366 C2365 1.374 . S
C2367 C2364 1.499 . S
C2367 C2368 1.373 . S
C2367 C2369 1.389 . S
C2368 H2341 0.950 . S
C2368 C2354 1.377 . S
C2368 C2367 1.373 . S
C2369 C2353 1.377 . S
C2369 C2367 1.389 . S
C2369 C2370 1.524 . S
C2370 C2369 1.524 . S
C2370 C2371 1.397 . S
C2370 C2375 1.363 . S
C2371 H2342 0.950 . S
C2371 C2370 1.397 . S
C2371 C2372 1.334 . S
C2372 H2343 0.950 . S
C2372 C2371 1.334 . S
C2372 C2373 1.287 . S
C2373 C2372 1.287 . S
C2373 C2374 1.524 . S
C2373 H2376 0.999 . S
C2374 H2344 0.950 . S
C2374 C2373 1.524 . S
C2374 C2375 1.415 . S
C2375 H2345 0.950 . S
C2375 C2370 1.363 . S
C2375 C2374 1.415 . S
H2376 C2373 0.999 . S
H2377 C2358 0.913 . S
H2378 C2396 0.951 . S
H2379 C2398 0.951 . S
H2380 C2400 0.950 . S
H2381 C2401 0.950 . S
H2382 C2403 0.950 . S
H2383 C2406 0.950 . S
H2384 C2407 0.950 . S
H2385 C2409 0.950 . S
H2386 C2410 0.950 . S
H2387 C2411 0.951 . S
H2388 C2413 0.951 . S
H2389 C2415 0.950 . S
H2390 C2416 0.950 . S
H2391 C2418 0.950 . S
H2392 C2421 0.950 . S
H2393 C2422 0.950 . S
H2394 C2424 0.950 . S
H2395 C2425 0.950 . S
C2396 H2378 0.951 . S
C2396 C2397 1.366 . S
C2396 C2398 1.388 . S
C2397 C2396 1.366 . S
C2397 C2401 1.385 . S
C2398 H2379 0.951 . S
C2398 C2396 1.388 . S
C2398 C2399 1.366 . S
C2399 C2398 1.366 . S
C2399 C2400 1.414 . S
C2399 C2402 1.499 . S
C2400 H2380 0.950 . S
C2400 C2399 1.414 . S
C2400 C2401 1.374 . S
C2401 H2381 0.950 . S
C2401 C2397 1.385 . S
C2401 C2400 1.374 . S
C2402 C2399 1.499 . S
C2402 C2403 1.373 . S
C2402 C2404 1.389 . S
C2403 H2382 0.950 . S
C2403 C2402 1.373 . S
C2403 C2419 1.377 . S
C2404 C2402 1.389 . S
C2404 C2405 1.524 . S
C2404 C2418 1.377 . S
C2405 C2404 1.524 . S
C2405 C2406 1.397 . S
C2405 C2410 1.363 . S
C2406 H2383 0.950 . S
C2406 C2405 1.397 . S
C2406 C2407 1.334 . S
C2407 H2384 0.950 . S
C2407 C2406 1.334 . S
C2407 C2408 1.287 . S
C2408 C2407 1.287 . S
C2408 C2409 1.524 . S
C2408 H2427 0.913 . S
C2409 H2385 0.950 . S
C2409 C2408 1.524 . S
C2409 C2410 1.415 . S
C2410 H2386 0.950 . S
C2410 C2405 1.363 . S
C2410 C2409 1.415 . S
C2411 H2387 0.951 . S
C2411 C2412 1.366 . S
C2411 C2413 1.388 . S
C2412 C2411 1.366 . S
C2412 C2416 1.385 . S
C2413 H2388 0.951 . S
C2413 C2411 1.388 . S
C2413 C2414 1.366 . S
C2414 C2413 1.366 . S
C2414 C2415 1.414 . S
C2414 C2417 1.499 . S
C2415 H2389 0.950 . S
C2415 C2414 1.414 . S
C2415 C2416 1.374 . S
C2416 H2390 0.950 . S
C2416 C2412 1.385 . S
C2416 C2415 1.374 . S
C2417 C2414 1.499 . S
C2417 C2418 1.373 . S
C2417 C2419 1.389 . S
C2418 H2391 0.950 . S
C2418 C2404 1.377 . S
C2418 C2417 1.373 . S
C2419 C2403 1.377 . S
C2419 C2417 1.389 . S
C2419 C2420 1.524 . S
C2420 C2419 1.524 . S
C2420 C2421 1.397 . S
C2420 C2425 1.363 . S
C2421 H2392 0.950 . S
C2421 C2420 1.397 . S
C2421 C2422 1.334 . S
C2422 H2393 0.950 . S
C2422 C2421 1.334 . S
C2422 C2423 1.287 . S
C2423 C2422 1.287 . S
C2423 C2424 1.524 . S
C2423 H2426 0.999 . S
C2424 H2394 0.950 . S
C2424 C2423 1.524 . S
C2424 C2425 1.415 . S
C2425 H2395 0.950 . S
C2425 C2420 1.363 . S
C2425 C2424 1.415 . S
H2426 C2423 0.999 . S
H2427 C2408 0.913 . S
H2428 C2446 0.951 . S
H2429 C2448 0.951 . S
H2430 C2450 0.950 . S
H2431 C2451 0.950 . S
H2432 C2453 0.950 . S
H2433 C2456 0.950 1_554 S
H2434 C2457 0.950 . S
H2435 C2459 0.950 . S
H2436 C2460 0.958 . S
H2437 C2461 0.951 . S
H2438 C2463 0.951 . S
H2439 C2465 0.950 . S
H2440 C2466 0.950 . S
H2441 C2468 0.950 . S
H2442 C2471 0.950 . S
H2443 C2472 0.950 . S
H2444 C2474 0.950 . S
H2445 C2475 0.950 . S
C2446 H2428 0.951 . S
C2446 C2447 1.366 . S
C2446 C2448 1.388 . S
C2447 C2446 1.366 . S
C2447 C2451 1.385 . S
C2448 H2429 0.951 . S
C2448 C2446 1.388 . S
C2448 C2449 1.366 . S
C2449 C2448 1.366 . S
C2449 C2450 1.414 . S
C2449 C2452 1.499 . S
C2450 H2430 0.950 . S
C2450 C2449 1.414 . S
C2450 C2451 1.374 . S
C2451 H2431 0.950 . S
C2451 C2447 1.385 . S
C2451 C2450 1.374 . S
C2452 C2449 1.499 . S
C2452 C2453 1.373 . S
C2452 C2454 1.389 . S
C2453 H2432 0.950 . S
C2453 C2452 1.373 . S
C2453 C2469 1.377 . S
C2454 C2452 1.389 . S
C2454 C2455 1.524 . S
C2454 C2468 1.377 . S
C2455 C2454 1.524 . S
C2455 C2456 1.397 1_554 S
C2455 C2460 1.367 . S
C2456 H2433 0.950 1_556 S
C2456 C2455 1.397 1_556 S
C2456 C2457 1.334 . S
C2457 H2434 0.950 . S
C2457 C2456 1.334 . S
C2457 C2458 1.287 . S
C2458 C2457 1.287 . S
C2458 C2459 1.524 . S
C2458 H2477 0.913 . S
C2459 H2435 0.950 . S
C2459 C2458 1.524 . S
C2459 C2460 1.403 1_556 S
C2460 H2436 0.958 . S
C2460 C2455 1.367 . S
C2460 C2459 1.403 1_554 S
C2461 H2437 0.951 . S
C2461 C2462 1.366 . S
C2461 C2463 1.388 . S
C2462 C2461 1.366 . S
C2462 C2466 1.385 . S
C2463 H2438 0.951 . S
C2463 C2461 1.388 . S
C2463 C2464 1.366 . S
C2464 C2463 1.366 . S
C2464 C2465 1.414 . S
C2464 C2467 1.499 . S
C2465 H2439 0.950 . S
C2465 C2464 1.414 . S
C2465 C2466 1.374 . S
C2466 H2440 0.950 . S
C2466 C2462 1.385 . S
C2466 C2465 1.374 . S
C2467 C2464 1.499 . S
C2467 C2468 1.373 . S
C2467 C2469 1.389 . S
C2468 H2441 0.950 . S
C2468 C2454 1.377 . S
C2468 C2467 1.373 . S
C2469 C2453 1.377 . S
C2469 C2467 1.389 . S
C2469 C2470 1.524 . S
C2470 C2469 1.524 . S
C2470 C2471 1.397 . S
C2470 C2475 1.363 . S
C2471 H2442 0.950 . S
C2471 C2470 1.397 . S
C2471 C2472 1.334 . S
C2472 H2443 0.950 . S
C2472 C2471 1.334 . S
C2472 C2473 1.287 . S
C2473 C2472 1.287 . S
C2473 C2474 1.524 . S
C2473 H2476 0.999 . S
C2474 H2444 0.950 . S
C2474 C2473 1.524 . S
C2474 C2475 1.415 . S
C2475 H2445 0.950 . S
C2475 C2470 1.363 . S
C2475 C2474 1.415 . S
H2476 C2473 0.999 . S
H2477 C2458 0.913 . S
H2478 C2496 0.951 . S
H2479 C2498 0.951 . S
H2480 C2500 0.950 . S
H2481 C2501 0.950 . S
H2482 C2503 0.950 . S
H2483 C2506 0.950 . S
H2484 C2507 0.950 . S
H2485 C2509 0.950 . S
H2486 C2510 0.950 . S
H2487 C2511 0.951 . S
H2488 C2513 0.951 . S
H2489 C2515 0.950 . S
H2490 C2516 0.950 . S
H2491 C2518 0.950 . S
H2492 C2521 0.950 . S
H2493 C2522 0.950 . S
H2494 C2524 0.950 . S
H2495 C2525 0.950 . S
C2496 H2478 0.951 . S
C2496 C2497 1.366 . S
C2496 C2498 1.388 . S
C2497 C2496 1.366 . S
C2497 C2501 1.385 . S
C2498 H2479 0.951 . S
C2498 C2496 1.388 . S
C2498 C2499 1.366 . S
C2499 C2498 1.366 . S
C2499 C2500 1.414 . S
C2499 C2502 1.499 . S
C2500 H2480 0.950 . S
C2500 C2499 1.414 . S
C2500 C2501 1.374 . S
C2501 H2481 0.950 . S
C2501 C2497 1.385 . S
C2501 C2500 1.374 . S
C2502 C2499 1.499 . S
C2502 C2503 1.373 . S
C2502 C2504 1.389 . S
C2503 H2482 0.950 . S
C2503 C2502 1.373 . S
C2503 C2519 1.377 . S
C2504 C2502 1.389 . S
C2504 C2505 1.524 . S
C2504 C2518 1.377 . S
C2505 C2504 1.524 . S
C2505 C2506 1.397 . S
C2505 C2510 1.363 . S
C2506 H2483 0.950 . S
C2506 C2505 1.397 . S
C2506 C2507 1.334 . S
C2507 H2484 0.950 . S
C2507 C2506 1.334 . S
C2507 C2508 1.287 . S
C2508 C2507 1.287 . S
C2508 C2509 1.524 . S
C2508 H2527 0.913 . S
C2509 H2485 0.950 . S
C2509 C2508 1.524 . S
C2509 C2510 1.415 . S
C2510 H2486 0.950 . S
C2510 C2505 1.363 . S
C2510 C2509 1.415 . S
C2511 H2487 0.951 . S
C2511 C2512 1.366 . S
C2511 C2513 1.388 . S
C2512 C2511 1.366 . S
C2512 C2516 1.385 . S
C2513 H2488 0.951 . S
C2513 C2511 1.388 . S
C2513 C2514 1.366 . S
C2514 C2513 1.366 . S
C2514 C2515 1.414 . S
C2514 C2517 1.499 . S
C2515 H2489 0.950 . S
C2515 C2514 1.414 . S
C2515 C2516 1.374 . S
C2516 H2490 0.950 . S
C2516 C2512 1.385 . S
C2516 C2515 1.374 . S
C2517 C2514 1.499 . S
C2517 C2518 1.373 . S
C2517 C2519 1.389 . S
C2518 H2491 0.950 . S
C2518 C2504 1.377 . S
C2518 C2517 1.373 . S
C2519 C2503 1.377 . S
C2519 C2517 1.389 . S
C2519 C2520 1.524 . S
C2520 C2519 1.524 . S
C2520 C2521 1.397 . S
C2520 C2525 1.363 1_556 S
C2521 H2492 0.950 . S
C2521 C2520 1.397 . S
C2521 C2522 1.334 . S
C2522 H2493 0.950 . S
C2522 C2521 1.334 . S
C2522 C2523 1.287 1_556 S
C2523 C2522 1.287 1_554 S
C2523 C2524 1.524 . S
C2523 H2526 0.999 . S
C2524 H2494 0.950 . S
C2524 C2523 1.524 . S
C2524 C2525 1.415 . S
C2525 H2495 0.950 . S
C2525 C2520 1.363 1_554 S
C2525 C2524 1.415 . S
H2526 C2523 0.999 . S
H2527 C2508 0.913 . S
C547 C338 1.506 . S
C562 C8 1.506 . S
C597 C61 1.505 . S
C612 C259 1.505 . S
C647 C503 1.506 . S
C662 C41 1.506 . S
C697 C94 1.505 . S
C712 C28 1.505 . S
C747 C74 1.506 . S
C762 C272 1.506 . S
C797 C193 1.506 . S
C812 C127 1.506 . S
C847 C437 1.506 . S
C862 C107 1.506 . S
C897 C470 1.506 . S
C912 C140 1.506 . S
C947 C173 1.506 . S
C962 C371 1.506 . S
C997 C226 1.505 . S
C1012 C160 1.505 . S
C1047 C404 1.506 . S
C1062 C206 1.506 . S
C1097 C305 1.506 . S
C1112 C239 1.506 . S
C1147 C523 1.506 . S
C1162 C325 1.506 . S
C1197 C292 1.505 . S
C1212 C358 1.505 . S
C1247 C391 1.506 . S
C1262 C457 1.506 . S
C1297 C490 1.505 . S
C1312 C424 1.505 . S
C1347 N14 1.332 . S
C1362 N5 1.337 . S
C1397 N47 1.332 . S
C1412 N38 1.336 . S
C1447 N80 1.332 . S
C1462 N71 1.337 . S
C1497 N113 1.331 . S
C1512 N104 1.336 . S
C1547 N137 1.337 . S
C1562 N146 1.332 . S
C1597 N179 1.332 . S
C1612 N170 1.337 . S
C1647 N212 1.332 . S
C1662 N203 1.337 . S
C1697 N236 1.336 . S
C1712 N245 1.331 . S
C1747 N278 1.331 . S
C1762 N269 1.336 . S
C1797 N302 1.336 . S
C1812 N311 1.331 . S
C1847 N344 1.332 . S
C1862 N335 1.337 . S
C1897 N368 1.337 . S
C1912 N377 1.332 . S
C1947 N410 1.331 . S
C1962 N401 1.336 . S
C1997 N443 1.331 . S
C2012 N434 1.336 . S
C2047 N476 1.332 . S
C2062 N467 1.337 . S
C2097 N509 1.331 . S
C2112 N500 1.336 . S
C2147 C17 1.498 . S
C2162 C50 1.498 . S
C2197 C83 1.498 . S
C2212 C116 1.498 . S
C2247 C149 1.498 . S
C2262 C182 1.498 . S
C2297 C215 1.498 . S
C2312 C248 1.498 . S
C2347 C314 1.498 . S
C2362 C281 1.498 . S
C2397 C347 1.498 . S
C2412 C380 1.498 . S
C2447 C446 1.498 . S
C2462 C413 1.498 . S
C2497 C512 1.498 . S
C2512 C479 1.498 . S
