# Generated by pormake.
# Topology wgf, (5)-cn, num edge types: 1
# Building blocks:
#     Node 0, Type 0, BuildingBlock: XOMCOT_clean_sbu_1, # of connection points: 5
#     Node 1, Type 0, BuildingBlock: XOMCOT_clean_sbu_1, # of connection points: 5
#     Node 2, Type 0, BuildingBlock: XOMCOT_clean_sbu_1, # of connection points: 5
#     Node 3, Type 0, BuildingBlock: XOMCOT_clean_sbu_1, # of connection points: 5
#     Node 4, Type 0, BuildingBlock: XOMCOT_clean_sbu_1, # of connection points: 5
#     Node 5, Type 0, BuildingBlock: XOMCOT_clean_sbu_1, # of connection points: 5
#     Node 6, Type 0, BuildingBlock: XOMCOT_clean_sbu_1, # of connection points: 5
#     Node 7, Type 0, BuildingBlock: XOMCOT_clean_sbu_1, # of connection points: 5
#     Node 8, Type 0, BuildingBlock: XOMCOT_clean_sbu_1, # of connection points: 5
#     Node 9, Type 0, BuildingBlock: XOMCOT_clean_sbu_1, # of connection points: 5
#     Node 10, Type 0, BuildingBlock: XOMCOT_clean_sbu_1, # of connection points: 5
#     Node 11, Type 0, BuildingBlock: XOMCOT_clean_sbu_1, # of connection points: 5
#     Node 12, Type 0, BuildingBlock: XOMCOT_clean_sbu_1, # of connection points: 5
#     Node 13, Type 0, BuildingBlock: XOMCOT_clean_sbu_1, # of connection points: 5
#     Node 14, Type 0, BuildingBlock: XOMCOT_clean_sbu_1, # of connection points: 5
#     Node 15, Type 0, BuildingBlock: XOMCOT_clean_sbu_1, # of connection points: 5
#     Node 16, Type 0, BuildingBlock: XOMCOT_clean_sbu_1, # of connection points: 5
#     Node 17, Type 0, BuildingBlock: XOMCOT_clean_sbu_1, # of connection points: 5
#     Node 18, Type 0, BuildingBlock: XOMCOT_clean_sbu_1, # of connection points: 5
#     Node 19, Type 0, BuildingBlock: XOMCOT_clean_sbu_1, # of connection points: 5
#     Node 20, Type 0, BuildingBlock: XOMCOT_clean_sbu_1, # of connection points: 5
#     Node 21, Type 0, BuildingBlock: XOMCOT_clean_sbu_1, # of connection points: 5
#     Node 22, Type 0, BuildingBlock: XOMCOT_clean_sbu_1, # of connection points: 5
#     Node 23, Type 0, BuildingBlock: XOMCOT_clean_sbu_1, # of connection points: 5
#     Node 24, Type 0, BuildingBlock: XOMCOT_clean_sbu_1, # of connection points: 5
#     Node 25, Type 0, BuildingBlock: XOMCOT_clean_sbu_1, # of connection points: 5
#     Node 26, Type 0, BuildingBlock: XOMCOT_clean_sbu_1, # of connection points: 5
#     Node 27, Type 0, BuildingBlock: XOMCOT_clean_sbu_1, # of connection points: 5
#     Node 28, Type 0, BuildingBlock: XOMCOT_clean_sbu_1, # of connection points: 5
#     Node 29, Type 0, BuildingBlock: XOMCOT_clean_sbu_1, # of connection points: 5
#     Node 30, Type 0, BuildingBlock: XOMCOT_clean_sbu_1, # of connection points: 5
#     Node 31, Type 0, BuildingBlock: XOMCOT_clean_sbu_1, # of connection points: 5
#     Edge 32, Type (0, 0), BuildingBlock: UVAHIK_clean_linker_0, # of connection points: 2
#     Edge 33, Type (0, 0), BuildingBlock: UVAHIK_clean_linker_0, # of connection points: 2
#     Edge 34, Type (0, 0), BuildingBlock: UVAHIK_clean_linker_0, # of connection points: 2
#     Edge 35, Type (0, 0), BuildingBlock: UVAHIK_clean_linker_0, # of connection points: 2
#     Edge 36, Type (0, 0), BuildingBlock: UVAHIK_clean_linker_0, # of connection points: 2
#     Edge 37, Type (0, 0), BuildingBlock: UVAHIK_clean_linker_0, # of connection points: 2
#     Edge 38, Type (0, 0), BuildingBlock: UVAHIK_clean_linker_0, # of connection points: 2
#     Edge 39, Type (0, 0), BuildingBlock: UVAHIK_clean_linker_0, # of connection points: 2
#     Edge 40, Type (0, 0), BuildingBlock: UVAHIK_clean_linker_0, # of connection points: 2
#     Edge 41, Type (0, 0), BuildingBlock: UVAHIK_clean_linker_0, # of connection points: 2
#     Edge 42, Type (0, 0), BuildingBlock: UVAHIK_clean_linker_0, # of connection points: 2
#     Edge 43, Type (0, 0), BuildingBlock: UVAHIK_clean_linker_0, # of connection points: 2
#     Edge 44, Type (0, 0), BuildingBlock: UVAHIK_clean_linker_0, # of connection points: 2
#     Edge 45, Type (0, 0), BuildingBlock: UVAHIK_clean_linker_0, # of connection points: 2
#     Edge 46, Type (0, 0), BuildingBlock: UVAHIK_clean_linker_0, # of connection points: 2
#     Edge 47, Type (0, 0), BuildingBlock: UVAHIK_clean_linker_0, # of connection points: 2
#     Edge 48, Type (0, 0), BuildingBlock: UVAHIK_clean_linker_0, # of connection points: 2
#     Edge 49, Type (0, 0), BuildingBlock: UVAHIK_clean_linker_0, # of connection points: 2
#     Edge 50, Type (0, 0), BuildingBlock: UVAHIK_clean_linker_0, # of connection points: 2
#     Edge 51, Type (0, 0), BuildingBlock: UVAHIK_clean_linker_0, # of connection points: 2
#     Edge 52, Type (0, 0), BuildingBlock: UVAHIK_clean_linker_0, # of connection points: 2
#     Edge 53, Type (0, 0), BuildingBlock: UVAHIK_clean_linker_0, # of connection points: 2
#     Edge 54, Type (0, 0), BuildingBlock: UVAHIK_clean_linker_0, # of connection points: 2
#     Edge 55, Type (0, 0), BuildingBlock: UVAHIK_clean_linker_0, # of connection points: 2
#     Edge 56, Type (0, 0), BuildingBlock: UVAHIK_clean_linker_0, # of connection points: 2
#     Edge 57, Type (0, 0), BuildingBlock: UVAHIK_clean_linker_0, # of connection points: 2
#     Edge 58, Type (0, 0), BuildingBlock: UVAHIK_clean_linker_0, # of connection points: 2
#     Edge 59, Type (0, 0), BuildingBlock: UVAHIK_clean_linker_0, # of connection points: 2
#     Edge 60, Type (0, 0), BuildingBlock: UVAHIK_clean_linker_0, # of connection points: 2
#     Edge 61, Type (0, 0), BuildingBlock: UVAHIK_clean_linker_0, # of connection points: 2
#     Edge 62, Type (0, 0), BuildingBlock: UVAHIK_clean_linker_0, # of connection points: 2
#     Edge 63, Type (0, 0), BuildingBlock: UVAHIK_clean_linker_0, # of connection points: 2
#     Edge 64, Type (0, 0), BuildingBlock: UVAHIK_clean_linker_0, # of connection points: 2
#     Edge 65, Type (0, 0), BuildingBlock: UVAHIK_clean_linker_0, # of connection points: 2
#     Edge 66, Type (0, 0), BuildingBlock: UVAHIK_clean_linker_0, # of connection points: 2
#     Edge 67, Type (0, 0), BuildingBlock: UVAHIK_clean_linker_0, # of connection points: 2
#     Edge 68, Type (0, 0), BuildingBlock: UVAHIK_clean_linker_0, # of connection points: 2
#     Edge 69, Type (0, 0), BuildingBlock: UVAHIK_clean_linker_0, # of connection points: 2
#     Edge 70, Type (0, 0), BuildingBlock: UVAHIK_clean_linker_0, # of connection points: 2
#     Edge 71, Type (0, 0), BuildingBlock: UVAHIK_clean_linker_0, # of connection points: 2
#     Edge 72, Type (0, 0), BuildingBlock: UVAHIK_clean_linker_0, # of connection points: 2
#     Edge 73, Type (0, 0), BuildingBlock: UVAHIK_clean_linker_0, # of connection points: 2
#     Edge 74, Type (0, 0), BuildingBlock: UVAHIK_clean_linker_0, # of connection points: 2
#     Edge 75, Type (0, 0), BuildingBlock: UVAHIK_clean_linker_0, # of connection points: 2
#     Edge 76, Type (0, 0), BuildingBlock: UVAHIK_clean_linker_0, # of connection points: 2
#     Edge 77, Type (0, 0), BuildingBlock: UVAHIK_clean_linker_0, # of connection points: 2
#     Edge 78, Type (0, 0), BuildingBlock: UVAHIK_clean_linker_0, # of connection points: 2
#     Edge 79, Type (0, 0), BuildingBlock: UVAHIK_clean_linker_0, # of connection points: 2
#     Edge 80, Type (0, 0), BuildingBlock: UVAHIK_clean_linker_0, # of connection points: 2
#     Edge 81, Type (0, 0), BuildingBlock: UVAHIK_clean_linker_0, # of connection points: 2
#     Edge 82, Type (0, 0), BuildingBlock: UVAHIK_clean_linker_0, # of connection points: 2
#     Edge 83, Type (0, 0), BuildingBlock: UVAHIK_clean_linker_0, # of connection points: 2
#     Edge 84, Type (0, 0), BuildingBlock: UVAHIK_clean_linker_0, # of connection points: 2
#     Edge 85, Type (0, 0), BuildingBlock: UVAHIK_clean_linker_0, # of connection points: 2
#     Edge 86, Type (0, 0), BuildingBlock: UVAHIK_clean_linker_0, # of connection points: 2
#     Edge 87, Type (0, 0), BuildingBlock: UVAHIK_clean_linker_0, # of connection points: 2
#     Edge 88, Type (0, 0), BuildingBlock: UVAHIK_clean_linker_0, # of connection points: 2
#     Edge 89, Type (0, 0), BuildingBlock: UVAHIK_clean_linker_0, # of connection points: 2
#     Edge 90, Type (0, 0), BuildingBlock: UVAHIK_clean_linker_0, # of connection points: 2
#     Edge 91, Type (0, 0), BuildingBlock: UVAHIK_clean_linker_0, # of connection points: 2
#     Edge 92, Type (0, 0), BuildingBlock: UVAHIK_clean_linker_0, # of connection points: 2
#     Edge 93, Type (0, 0), BuildingBlock: UVAHIK_clean_linker_0, # of connection points: 2
#     Edge 94, Type (0, 0), BuildingBlock: UVAHIK_clean_linker_0, # of connection points: 2
#     Edge 95, Type (0, 0), BuildingBlock: UVAHIK_clean_linker_0, # of connection points: 2
#     Edge 96, Type (0, 0), BuildingBlock: UVAHIK_clean_linker_0, # of connection points: 2
#     Edge 97, Type (0, 0), BuildingBlock: UVAHIK_clean_linker_0, # of connection points: 2
#     Edge 98, Type (0, 0), BuildingBlock: UVAHIK_clean_linker_0, # of connection points: 2
#     Edge 99, Type (0, 0), BuildingBlock: UVAHIK_clean_linker_0, # of connection points: 2
#     Edge 100, Type (0, 0), BuildingBlock: UVAHIK_clean_linker_0, # of connection points: 2
#     Edge 101, Type (0, 0), BuildingBlock: UVAHIK_clean_linker_0, # of connection points: 2
#     Edge 102, Type (0, 0), BuildingBlock: UVAHIK_clean_linker_0, # of connection points: 2
#     Edge 103, Type (0, 0), BuildingBlock: UVAHIK_clean_linker_0, # of connection points: 2
#     Edge 104, Type (0, 0), BuildingBlock: UVAHIK_clean_linker_0, # of connection points: 2
#     Edge 105, Type (0, 0), BuildingBlock: UVAHIK_clean_linker_0, # of connection points: 2
#     Edge 106, Type (0, 0), BuildingBlock: UVAHIK_clean_linker_0, # of connection points: 2
#     Edge 107, Type (0, 0), BuildingBlock: UVAHIK_clean_linker_0, # of connection points: 2
#     Edge 108, Type (0, 0), BuildingBlock: UVAHIK_clean_linker_0, # of connection points: 2
#     Edge 109, Type (0, 0), BuildingBlock: UVAHIK_clean_linker_0, # of connection points: 2
#     Edge 110, Type (0, 0), BuildingBlock: UVAHIK_clean_linker_0, # of connection points: 2
#     Edge 111, Type (0, 0), BuildingBlock: UVAHIK_clean_linker_0, # of connection points: 2
# Relax obj value: 0.315
# Max RMSD: 0.208
# Mean RMSD: 0.201
data_MOF--net-wgf--node1-XOMCOT_clean_sbu_1--edge1-UVAHIK_clean_linker_0
_symmetry_space_group_name_H-M    P1
_symmetry_Int_Tables_number       1
_symmetry_cell_setting            triclinic
loop_
_symmetry_equiv_pos_as_xyz
'x, y, z'
_cell_length_a     113.17781
_cell_length_b     113.19127
_cell_length_c     30.394549
_cell_angle_alpha  89.980666
_cell_angle_beta   89.987006
_cell_angle_gamma 89.977077
loop_
_atom_site_label
_atom_site_type_symbol
_atom_site_fract_x
_atom_site_fract_y
_atom_site_fract_z
_atom_type_partial_charge
C0 C 0.04245 0.07633 0.04003 0.0
C1 C 0.03532 0.08237 0.06891 0.0
N2 N 0.03502 0.07634 0.10718 0.0
N3 N 0.04655 0.06652 0.05987 0.0
C4 C 0.04187 0.06672 0.1006 0.0
H5 H 0.04494 0.0792 0.0074 0.0
Co6 Co 0.05806 0.05686 0.03686 0.0
C7 C 0.06143 0.03681 0.09968 0.0
O8 O 0.07276 0.03693 0.09058 0.0
N9 N 0.07003 0.04724 0.01192 0.0
C10 C 0.08721 0.03988 0.98861 0.0
C11 C 0.08193 0.04865 0.01269 0.0
C12 C 0.06842 0.03744 0.98722 0.0
N13 N 0.07869 0.03289 0.97236 0.0
O14 O 0.04634 0.05022 0.99718 0.0
H15 H 0.0867 0.05555 0.02939 0.0
H16 H 0.05985 0.03373 0.97966 0.0
O17 O 0.05457 0.04445 0.08175 0.0
C18 C 0.04669 0.05541 0.95986 0.0
O19 O 0.05516 0.06316 0.95325 0.0
N20 N 0.06911 0.06473 0.07219 0.0
C21 C 0.08562 0.07974 0.1108 0.0
C22 C 0.07983 0.07113 0.13612 0.0
C23 C 0.07149 0.06368 0.11612 0.0
C24 C 0.07404 0.07363 0.04825 0.0
C25 C 0.08252 0.08103 0.06654 0.0
H26 H 0.06685 0.05733 0.13617 0.0
H27 H 0.07158 0.07472 0.0141 0.0
H28 H 0.04377 0.06014 0.12533 0.0
H29 H 0.03117 0.09081 0.06271 0.0
H30 H 0.09657 0.03907 0.98184 0.0
H31 H 0.08179 0.07013 0.17079 0.0
H32 H 0.08656 0.0878 0.0463 0.0
C33 C 0.1733 0.79219 0.30285 0.0
C34 C 0.16688 0.78361 0.32407 0.0
N35 N 0.17403 0.77833 0.3535 0.0
N36 N 0.18435 0.7924 0.31942 0.0
C37 C 0.18459 0.78379 0.34992 0.0
H38 H 0.17012 0.79803 0.27728 0.0
Co39 Co 0.19584 0.80274 0.30132 0.0
C40 C 0.20962 0.80871 0.38142 0.0
O41 O 0.20814 0.81978 0.36948 0.0
N42 N 0.20754 0.81314 0.28036 0.0
C43 C 0.22509 0.82062 0.2623 0.0
C44 C 0.21928 0.8127 0.28875 0.0
C45 C 0.20661 0.8209 0.24672 0.0
N46 N 0.21708 0.82572 0.23587 0.0
O47 O 0.20401 0.78983 0.27267 0.0
H48 H 0.22352 0.80644 0.31045 0.0
H49 H 0.19871 0.82226 0.2276 0.0
O50 O 0.20511 0.80047 0.35752 0.0
C51 C 0.20122 0.78967 0.23194 0.0
O52 O 0.19404 0.79788 0.21713 0.0
N53 N 0.1867 0.81524 0.32563 0.0
C54 C 0.17027 0.83232 0.35225 0.0
C55 C 0.17559 0.82481 0.38314 0.0
C56 C 0.18346 0.81605 0.36896 0.0
C57 C 0.18104 0.82204 0.29517 0.0
C58 C 0.173 0.83076 0.30771 0.0
H59 H 0.18662 0.8097 0.39272 0.0
H60 H 0.18213 0.82022 0.26067 0.0
H61 H 0.19224 0.78173 0.36983 0.0
H62 H 0.15771 0.7814 0.31833 0.0
H63 H 0.23457 0.82172 0.25971 0.0
H64 H 0.17327 0.82535 0.41766 0.0
H65 H 0.16877 0.83607 0.28258 0.0
C66 C 0.45358 0.92049 0.55534 0.0
C67 C 0.46199 0.91355 0.57523 0.0
N68 N 0.46912 0.92063 0.59895 0.0
N69 N 0.45535 0.93185 0.56684 0.0
C70 C 0.46493 0.9317 0.59314 0.0
H71 H 0.44648 0.91746 0.53438 0.0
Co72 Co 0.44586 0.94425 0.54919 0.0
C73 C 0.45425 0.96418 0.60219 0.0
O74 O 0.45633 0.96969 0.56492 0.0
N75 N 0.43615 0.95645 0.53077 0.0
C76 C 0.42257 0.97057 0.5275 0.0
C77 C 0.42883 0.96323 0.55506 0.0
C78 C 0.43415 0.95968 0.48884 0.0
N79 N 0.42595 0.9683 0.48584 0.0
O80 O 0.45893 0.95052 0.51503 0.0
H81 H 0.42795 0.96273 0.59045 0.0
H82 H 0.43836 0.95549 0.46098 0.0
O83 O 0.45028 0.9536 0.60132 0.0
C84 C 0.4609 0.94462 0.48 0.0
O85 O 0.4539 0.93571 0.47066 0.0
N86 N 0.43314 0.93736 0.57896 0.0
C87 C 0.4154 0.9226 0.61158 0.0
C88 C 0.42422 0.92709 0.6396 0.0
C89 C 0.43306 0.93447 0.62257 0.0
C90 C 0.42444 0.93344 0.5517 0.0
C91 C 0.41542 0.9262 0.56739 0.0
H92 H 0.44021 0.93725 0.64375 0.0
H93 H 0.42479 0.93553 0.517 0.0
H94 H 0.46852 0.93948 0.6089 0.0
H95 H 0.46274 0.90404 0.5728 0.0
H96 H 0.41609 0.97708 0.53743 0.0
H97 H 0.42466 0.92444 0.6738 0.0
H98 H 0.40871 0.92318 0.54463 0.0
C99 C 0.33032 0.20505 0.8091 0.0
C100 C 0.33745 0.21317 0.82961 0.0
N101 N 0.33067 0.21961 0.85694 0.0
N102 N 0.31917 0.20627 0.82405 0.0
C103 C 0.3196 0.21531 0.85279 0.0
H104 H 0.33311 0.19846 0.7855 0.0
Co105 Co 0.3068 0.19672 0.80658 0.0
C106 C 0.29426 0.19226 0.89146 0.0
O107 O 0.29559 0.18091 0.88395 0.0
N108 N 0.29445 0.18725 0.78593 0.0
C109 C 0.27739 0.17841 0.77029 0.0
C110 C 0.28333 0.18521 0.80045 0.0
C111 C 0.29471 0.18225 0.74566 0.0
N112 N 0.28461 0.17658 0.73591 0.0
O113 O 0.29938 0.2102 0.77863 0.0
H114 H 0.27933 0.18902 0.82933 0.0
H115 H 0.30207 0.18312 0.72313 0.0
O116 O 0.29807 0.19979 0.86309 0.0
C117 C 0.30435 0.21266 0.74201 0.0
O118 O 0.31317 0.20601 0.7287 0.0
N119 N 0.31505 0.18347 0.83087 0.0
C120 C 0.33047 0.16552 0.85895 0.0
C121 C 0.32746 0.17491 0.88696 0.0
C122 C 0.31994 0.18387 0.87207 0.0
C123 C 0.3181 0.17451 0.80304 0.0
C124 C 0.3256 0.1654 0.81655 0.0
H125 H 0.31831 0.19133 0.89342 0.0
H126 H 0.31534 0.17464 0.76923 0.0
H127 H 0.31207 0.21839 0.8715 0.0
H128 H 0.34689 0.21419 0.82522 0.0
H129 H 0.26822 0.17573 0.77205 0.0
H130 H 0.33105 0.17548 0.91991 0.0
H131 H 0.32802 0.15863 0.79304 0.0
C132 C 0.04425 0.91954 0.54186 0.0
C133 C 0.03637 0.91182 0.52302 0.0
N134 N 0.02998 0.91786 0.49323 0.0
N135 N 0.04294 0.93029 0.52339 0.0
C136 C 0.03407 0.92905 0.49419 0.0
H137 H 0.05084 0.91738 0.56636 0.0
Co138 Co 0.05265 0.94288 0.53631 0.0
C139 C 0.05548 0.95565 0.45169 0.0
O140 O 0.06692 0.95496 0.45857 0.0
N141 N 0.06244 0.95562 0.55208 0.0
C142 C 0.06892 0.97386 0.56508 0.0
C143 C 0.06143 0.96709 0.54017 0.0
C144 C 0.0701 0.95583 0.58615 0.0
N145 N 0.07432 0.96675 0.59419 0.0
O146 O 0.03984 0.95032 0.56823 0.0
H147 H 0.05493 0.9706 0.51767 0.0
H148 H 0.07173 0.9484 0.60751 0.0
O149 O 0.04829 0.95123 0.4801 0.0
C150 C 0.04041 0.94683 0.60816 0.0
O151 O 0.04894 0.93947 0.61874 0.0
N152 N 0.0653 0.93453 0.50887 0.0
C153 C 0.08304 0.91933 0.47762 0.0
C154 C 0.07377 0.92301 0.45009 0.0
C155 C 0.06483 0.93031 0.46669 0.0
C156 C 0.07387 0.93048 0.53653 0.0
C157 C 0.08289 0.9231 0.52156 0.0
H158 H 0.05737 0.93231 0.44579 0.0
H159 H 0.07336 0.93226 0.57118 0.0
H160 H 0.03107 0.93602 0.47251 0.0
H161 H 0.03557 0.90247 0.52984 0.0
H162 H 0.0694 0.98342 0.56491 0.0
H163 H 0.07328 0.92014 0.41617 0.0
H164 H 0.08938 0.91994 0.54495 0.0
C165 C 0.31982 0.78796 0.82867 0.0
C166 C 0.32521 0.77972 0.80214 0.0
N167 N 0.32183 0.78178 0.76033 0.0
N168 N 0.31309 0.79511 0.80359 0.0
C169 C 0.31448 0.79114 0.76219 0.0
H170 H 0.32103 0.78892 0.86378 0.0
Co171 Co 0.30541 0.80844 0.82261 0.0
C172 C 0.28636 0.81398 0.75632 0.0
O173 O 0.28689 0.82515 0.76771 0.0
N174 N 0.29786 0.82226 0.84375 0.0
C175 C 0.29398 0.84089 0.86234 0.0
C176 C 0.30198 0.83348 0.8429 0.0
C177 C 0.2873 0.82316 0.86439 0.0
N178 N 0.28475 0.8344 0.87613 0.0
O179 O 0.29613 0.79857 0.86174 0.0
H180 H 0.31027 0.83636 0.82918 0.0
H181 H 0.28169 0.81567 0.87151 0.0
O182 O 0.29334 0.80652 0.77474 0.0
C183 C 0.29941 0.79887 0.90196 0.0
O184 O 0.30744 0.80664 0.91362 0.0
N185 N 0.31565 0.81758 0.78763 0.0
C186 C 0.33254 0.83305 0.75356 0.0
C187 C 0.32268 0.82974 0.72835 0.0
C188 C 0.31434 0.82187 0.74589 0.0
C189 C 0.32569 0.8199 0.81083 0.0
C190 C 0.33417 0.8277 0.7947 0.0
H191 H 0.30686 0.81947 0.72596 0.0
H192 H 0.32678 0.81612 0.84328 0.0
H193 H 0.31064 0.79542 0.73373 0.0
H194 H 0.33124 0.77287 0.81272 0.0
H195 H 0.29499 0.85033 0.86626 0.0
H196 H 0.3212 0.83349 0.69604 0.0
H197 H 0.34183 0.82971 0.81473 0.0
C198 C 0.46361 0.07321 0.06204 0.0
C199 C 0.47152 0.07953 0.03697 0.0
N200 N 0.47089 0.07556 0.99523 0.0
N201 N 0.45809 0.06523 0.03632 0.0
C202 C 0.46265 0.06694 0.99586 0.0
H203 H 0.46185 0.07457 0.09658 0.0
Co204 Co 0.44598 0.05507 0.05222 0.0
C205 C 0.45138 0.03346 0.00306 0.0
O206 O 0.45112 0.02789 0.04099 0.0
N207 N 0.43353 0.04503 0.06795 0.0
C208 C 0.41764 0.0335 0.06406 0.0
C209 C 0.42555 0.04014 0.04033 0.0
C210 C 0.43018 0.04134 0.10825 0.0
N211 N 0.42058 0.03429 0.10685 0.0
O212 O 0.45698 0.04661 0.0899 0.0
H213 H 0.42553 0.04122 0.005 0.0
H214 H 0.43483 0.0435 0.13811 0.0
O215 O 0.44965 0.04463 0.00215 0.0
C216 C 0.45752 0.05054 0.12924 0.0
O217 O 0.45036 0.05915 0.14069 0.0
N218 N 0.43543 0.06417 0.01944 0.0
C219 C 0.41929 0.08016 0.9839 0.0
C220 C 0.42468 0.07157 0.95715 0.0
C221 C 0.43287 0.06366 0.97557 0.0
C222 C 0.43022 0.07236 0.04576 0.0
C223 C 0.42215 0.08044 0.02875 0.0
H224 H 0.43709 0.05721 0.95463 0.0
H225 H 0.43242 0.07262 0.08039 0.0
H226 H 0.45963 0.06224 0.96706 0.0
H227 H 0.47724 0.08651 0.04869 0.0
H228 H 0.41035 0.02845 0.05078 0.0
H229 H 0.42275 0.07111 0.9223 0.0
H230 H 0.41809 0.08678 0.05073 0.0
C231 C 0.18072 0.21336 0.32542 0.0
C232 C 0.17534 0.2217 0.29927 0.0
N233 N 0.17898 0.22 0.25753 0.0
N234 N 0.18771 0.20651 0.30018 0.0
C235 C 0.18648 0.21075 0.25907 0.0
H236 H 0.17937 0.21216 0.36035 0.0
Co237 Co 0.19565 0.19327 0.31869 0.0
C238 C 0.21482 0.18835 0.25263 0.0
O239 O 0.21408 0.17702 0.26151 0.0
N240 N 0.20352 0.17957 0.33912 0.0
C241 C 0.20807 0.16103 0.35691 0.0
C242 C 0.19976 0.16822 0.33802 0.0
C243 C 0.21417 0.17896 0.35918 0.0
N244 N 0.21713 0.16779 0.37046 0.0
O245 O 0.20462 0.20317 0.35849 0.0
H246 H 0.19154 0.16512 0.32441 0.0
H247 H 0.21955 0.18661 0.36622 0.0
O248 O 0.20779 0.19564 0.27168 0.0
C249 C 0.20131 0.20264 0.39862 0.0
O250 O 0.19338 0.19469 0.4097 0.0
N251 N 0.1857 0.18408 0.28309 0.0
C252 C 0.16859 0.16922 0.24652 0.0
C253 C 0.17839 0.17295 0.22162 0.0
C254 C 0.18683 0.18049 0.2404 0.0
C255 C 0.17585 0.18124 0.30656 0.0
C256 C 0.16731 0.17369 0.28931 0.0
H257 H 0.19413 0.18338 0.22044 0.0
H258 H 0.17495 0.18442 0.33996 0.0
H259 H 0.19057 0.20676 0.23054 0.0
H260 H 0.16916 0.22839 0.31008 0.0
H261 H 0.20738 0.15155 0.36061 0.0
H262 H 0.17955 0.17008 0.18792 0.0
H263 H 0.16001 0.17108 0.31017 0.0
C264 C 0.9258 0.95765 0.05557 0.0
C265 C 0.91855 0.96522 0.0326 0.0
N266 N 0.9252 0.97083 0.00246 0.0
N267 N 0.93685 0.95837 0.03917 0.0
C268 C 0.93625 0.96659 0.00721 0.0
H269 H 0.92312 0.95171 0.08157 0.0
Co270 Co 0.94919 0.94884 0.05631 0.0
C271 C 0.96426 0.94538 0.97719 0.0
O272 O 0.96468 0.93409 0.9873 0.0
N273 N 0.96171 0.93923 0.07581 0.0
C274 C 0.97982 0.93351 0.0952 0.0
C275 C 0.97338 0.94154 0.07126 0.0
C276 C 0.96134 0.93007 0.1043 0.0
N277 N 0.97219 0.92636 0.11605 0.0
O278 O 0.95626 0.9621 0.08652 0.0
H279 H 0.97699 0.94905 0.05379 0.0
H280 H 0.95339 0.92674 0.11929 0.0
O281 O 0.95815 0.95248 1.00108 0.0
C282 C 0.95436 0.96148 0.12789 0.0
O283 O 0.94853 0.95231 0.14319 0.0
N284 N 0.94121 0.93591 0.03045 0.0
C285 C 0.92536 0.91841 0.00326 0.0
C286 C 0.93115 0.92555 0.97232 0.0
C287 C 0.93878 0.9345 0.98665 0.0
C288 C 0.93527 0.92932 0.06076 0.0
C289 C 0.92751 0.9204 0.048 0.0
H290 H 0.94215 0.94063 0.96255 0.0
H291 H 0.93593 0.9315 0.09522 0.0
H292 H 0.94361 0.96905 0.9864 0.0
H293 H 0.90913 0.96636 0.03703 0.0
H294 H 0.9893 0.93361 0.10017 0.0
H295 H 0.92931 0.92466 0.93751 0.0
H296 H 0.92297 0.91533 0.07307 0.0
C297 C 0.78012 0.17897 0.81351 0.0
C298 C 0.77262 0.1739 0.78319 0.0
N299 N 0.77593 0.17752 0.74277 0.0
N300 N 0.78806 0.18571 0.79208 0.0
C301 C 0.78526 0.1847 0.74925 0.0
H302 H 0.78011 0.17745 0.84864 0.0
Co303 Co 0.80132 0.19283 0.81488 0.0
C304 C 0.80767 0.21251 0.75173 0.0
O305 O 0.81886 0.21178 0.76292 0.0
N306 N 0.81489 0.19981 0.83907 0.0
C307 C 0.83297 0.20288 0.86547 0.0
C308 C 0.82562 0.19484 0.84584 0.0
C309 C 0.81596 0.21085 0.85553 0.0
N310 N 0.82689 0.21295 0.87136 0.0
O311 O 0.7913 0.20187 0.85456 0.0
H312 H 0.82808 0.18591 0.83778 0.0
H313 H 0.80879 0.21718 0.8564 0.0
O314 O 0.80011 0.20544 0.76899 0.0
C315 C 0.7916 0.1983 0.89447 0.0
O316 O 0.799 0.18978 0.90477 0.0
N317 N 0.8107 0.18287 0.77966 0.0
C318 C 0.82561 0.16562 0.74391 0.0
C319 C 0.82293 0.176 0.72036 0.0
C320 C 0.81541 0.18452 0.73874 0.0
C321 C 0.81245 0.17248 0.80134 0.0
C322 C 0.82001 0.16388 0.78464 0.0
H323 H 0.81343 0.19228 0.71974 0.0
H324 H 0.80841 0.17119 0.83326 0.0
H325 H 0.79046 0.18855 0.72307 0.0
H326 H 0.76549 0.16782 0.79028 0.0
H327 H 0.84206 0.20139 0.87509 0.0
H328 H 0.82662 0.17758 0.68803 0.0
H329 H 0.82177 0.15615 0.80456 0.0
C330 C 0.57707 0.04379 0.55557 0.0
C331 C 0.58393 0.03603 0.53175 0.0
N332 N 0.57686 0.0304 0.503 0.0
N333 N 0.56583 0.04317 0.54111 0.0
C334 C 0.56594 0.0348 0.50958 0.0
H335 H 0.58018 0.04994 0.5802 0.0
Co336 Co 0.55381 0.05331 0.5573 0.0
C337 C 0.53976 0.05666 0.4755 0.0
O338 O 0.54021 0.06809 0.48308 0.0
N339 N 0.5415 0.06348 0.57515 0.0
C340 C 0.52329 0.06979 0.59004 0.0
C341 C 0.52987 0.06165 0.5674 0.0
C342 C 0.54165 0.07245 0.60456 0.0
N343 N 0.53071 0.07654 0.6136 0.0
O344 O 0.54629 0.04059 0.58927 0.0
H345 H 0.52629 0.05434 0.54886 0.0
H346 H 0.54942 0.07536 0.62194 0.0
O347 O 0.5448 0.0495 0.50241 0.0
C348 C 0.54851 0.0416 0.63033 0.0
O349 O 0.55489 0.05063 0.64343 0.0
N350 N 0.56225 0.06577 0.52993 0.0
C351 C 0.57802 0.08317 0.50008 0.0
C352 C 0.57284 0.07511 0.47065 0.0
C353 C 0.56533 0.06624 0.48643 0.0
C354 C 0.56771 0.07309 0.55912 0.0
C355 C 0.57544 0.08191 0.54501 0.0
H356 H 0.56236 0.05955 0.46371 0.0
H357 H 0.56671 0.07159 0.59394 0.0
H358 H 0.55835 0.03248 0.48976 0.0
H359 H 0.59341 0.03492 0.53419 0.0
H360 H 0.51375 0.06997 0.59239 0.0
H361 H 0.57471 0.07545 0.43576 0.0
H362 H 0.57976 0.08732 0.56956 0.0
C363 C 0.71401 0.82657 0.29409 0.0
C364 C 0.71953 0.83265 0.26079 0.0
N365 N 0.71782 0.82671 0.22296 0.0
N366 N 0.70896 0.81674 0.27747 0.0
C367 C 0.71141 0.81712 0.23408 0.0
H368 H 0.71323 0.82955 0.32767 0.0
Co369 Co 0.69861 0.80655 0.30579 0.0
C370 C 0.70352 0.78385 0.26172 0.0
O371 O 0.70533 0.7792 0.30077 0.0
N372 N 0.68801 0.79666 0.33408 0.0
C373 C 0.67344 0.7842 0.35 0.0
C374 C 0.67948 0.78977 0.31655 0.0
C375 C 0.68684 0.79533 0.37784 0.0
N376 N 0.67817 0.78771 0.38848 0.0
O377 O 0.71167 0.79986 0.33937 0.0
H378 H 0.67779 0.78881 0.28171 0.0
H379 H 0.69214 0.8 0.40168 0.0
O380 O 0.70071 0.79476 0.25871 0.0
C381 C 0.71438 0.80561 0.37412 0.0
O382 O 0.70822 0.81505 0.38441 0.0
N383 N 0.68607 0.81388 0.27685 0.0
C384 C 0.66844 0.82862 0.24359 0.0
C385 C 0.67306 0.81937 0.21789 0.0
C386 C 0.68196 0.81207 0.23514 0.0
C387 C 0.68146 0.82256 0.30253 0.0
C388 C 0.67265 0.83001 0.28669 0.0
H389 H 0.68568 0.80522 0.21466 0.0
H390 H 0.68488 0.82384 0.33544 0.0
H391 H 0.7079 0.81089 0.21056 0.0
H392 H 0.72419 0.84095 0.26416 0.0
H393 H 0.66633 0.77789 0.34625 0.0
H394 H 0.6701 0.81802 0.1844 0.0
H395 H 0.6692 0.83685 0.30804 0.0
C396 C 0.92753 0.03957 0.54095 0.0
C397 C 0.92209 0.03182 0.56933 0.0
N398 N 0.92666 0.0334 0.60993 0.0
N399 N 0.93552 0.04596 0.56347 0.0
C400 C 0.93487 0.04198 0.60512 0.0
H401 H 0.92538 0.0409 0.50664 0.0
Co402 Co 0.94336 0.05904 0.54265 0.0
C403 C 0.96226 0.06499 0.60831 0.0
O404 O 0.96133 0.07619 0.59752 0.0
N405 N 0.9511 0.07258 0.51998 0.0
C406 C 0.95532 0.0908 0.49701 0.0
C407 C 0.94735 0.08395 0.5194 0.0
C408 C 0.96148 0.07288 0.49797 0.0
N409 N 0.96417 0.08381 0.48327 0.0
O410 O 0.95241 0.04886 0.50407 0.0
H411 H 0.93929 0.08726 0.53375 0.0
H412 H 0.96678 0.06514 0.49123 0.0
O413 O 0.95551 0.05736 0.58987 0.0
C414 C 0.94872 0.04898 0.46434 0.0
O415 O 0.94015 0.05632 0.45395 0.0
N416 N 0.93333 0.06848 0.57692 0.0
C417 C 0.91536 0.08239 0.61312 0.0
C418 C 0.9251 0.07882 0.63874 0.0
C419 C 0.93399 0.07176 0.62008 0.0
C420 C 0.92367 0.07131 0.55244 0.0
C421 C 0.91475 0.07843 0.56942 0.0
H422 H 0.94116 0.06884 0.64067 0.0
H423 H 0.92314 0.06832 0.51869 0.0
H424 H 0.94001 0.0457 0.6316 0.0
H425 H 0.91494 0.02592 0.56082 0.0
H426 H 0.95449 0.10017 0.49051 0.0
H427 H 0.9258 0.0813 0.67302 0.0
H428 H 0.90759 0.08099 0.54787 0.0
C429 C 0.70438 0.17233 0.30251 0.0
C430 C 0.71339 0.16535 0.31833 0.0
N431 N 0.71987 0.1719 0.34633 0.0
N432 N 0.70511 0.18311 0.32121 0.0
C433 C 0.71473 0.18265 0.34715 0.0
H434 H 0.69743 0.1696 0.28033 0.0
Co435 Co 0.6942 0.1951 0.31386 0.0
C436 C 0.69587 0.20447 0.40867 0.0
O437 O 0.68615 0.19914 0.42123 0.0
N438 N 0.68317 0.20723 0.3048 0.0
C439 C 0.66887 0.22066 0.31078 0.0
C440 C 0.67618 0.21312 0.33349 0.0
C441 C 0.67983 0.21129 0.265 0.0
N442 N 0.67115 0.21942 0.26762 0.0
O443 O 0.70594 0.2037 0.27978 0.0
H444 H 0.676 0.21186 0.36852 0.0
H445 H 0.68365 0.20829 0.23446 0.0
O446 O 0.69959 0.2034 0.36889 0.0
C447 C 0.70638 0.20006 0.23996 0.0
O448 O 0.69893 0.19182 0.22751 0.0
N449 N 0.68259 0.18567 0.34264 0.0
C450 C 0.66573 0.16922 0.37074 0.0
C451 C 0.67641 0.17053 0.39347 0.0
C452 C 0.68488 0.17854 0.37806 0.0
C453 C 0.67232 0.1842 0.31961 0.0
C454 C 0.66376 0.17613 0.33328 0.0
H455 H 0.69333 0.17895 0.39453 0.0
H456 H 0.67089 0.18894 0.28924 0.0
H457 H 0.71752 0.18981 0.36832 0.0
H458 H 0.71484 0.15611 0.31102 0.0
H459 H 0.66221 0.22638 0.3249 0.0
H460 H 0.67838 0.16508 0.42184 0.0
H461 H 0.65572 0.17516 0.31427 0.0
C462 C 0.57986 0.95366 0.05467 0.0
C463 C 0.58629 0.96147 0.07982 0.0
N464 N 0.57878 0.96698 0.10738 0.0
N465 N 0.56844 0.95413 0.06708 0.0
C466 C 0.56801 0.96247 0.09869 0.0
H467 H 0.58336 0.94757 0.03053 0.0
Co468 Co 0.55679 0.94392 0.04774 0.0
C469 C 0.54327 0.93915 0.12979 0.0
O470 O 0.5447 0.92784 0.12147 0.0
N471 N 0.54496 0.93378 0.02574 0.0
C472 C 0.52766 0.92577 0.00735 0.0
C473 C 0.53348 0.93265 0.03753 0.0
C474 C 0.54562 0.92807 0.98675 0.0
N475 N 0.53533 0.92296 0.97535 0.0
O476 O 0.54919 0.95685 0.01725 0.0
H477 H 0.52916 0.93737 0.06382 0.0
H478 H 0.55324 0.92838 0.96532 0.0
O479 O 0.54736 0.9468 0.10253 0.0
C480 C 0.55323 0.9574 0.97803 0.0
O481 O 0.56161 0.94996 0.96667 0.0
N482 N 0.56525 0.93115 0.07429 0.0
C483 C 0.58046 0.91351 0.10605 0.0
C484 C 0.57685 0.92286 0.13324 0.0
C485 C 0.56941 0.93167 0.11657 0.0
C486 C 0.56906 0.92234 0.04715 0.0
C487 C 0.57644 0.91335 0.06248 0.0
H488 H 0.5672 0.93905 0.13753 0.0
H489 H 0.56696 0.92249 0.01271 0.0
H490 H 0.56012 0.96467 0.11707 0.0
H491 H 0.59577 0.96269 0.07907 0.0
H492 H 0.51826 0.92399 0.00664 0.0
H493 H 0.57986 0.92347 0.16698 0.0
H494 H 0.57941 0.90662 0.03967 0.0
C495 C 0.79832 0.83333 0.80474 0.0
C496 C 0.78892 0.83958 0.82136 0.0
N497 N 0.78223 0.83211 0.84528 0.0
N498 N 0.79759 0.82202 0.8184 0.0
C499 C 0.78769 0.82152 0.84283 0.0
H500 H 0.8053 0.83679 0.7841 0.0
Co501 Co 0.80823 0.81032 0.80356 0.0
C502 C 0.80935 0.79561 0.88595 0.0
O503 O 0.82087 0.79668 0.88645 0.0
N504 N 0.81934 0.79848 0.78649 0.0
C505 C 0.83609 0.78862 0.77337 0.0
C506 C 0.83051 0.79647 0.80079 0.0
C507 C 0.81844 0.79156 0.7504 0.0
N508 N 0.82851 0.78567 0.74128 0.0
O509 O 0.79604 0.8031 0.76728 0.0
H510 H 0.83484 0.80104 0.82749 0.0
H511 H 0.81074 0.79116 0.72966 0.0
O512 O 0.80328 0.8006 0.85552 0.0
C513 C 0.79547 0.80872 0.73081 0.0
O514 O 0.80308 0.81732 0.72435 0.0
N515 N 0.8199 0.81861 0.83481 0.0
C516 C 0.83728 0.83356 0.869 0.0
C517 C 0.82818 0.82918 0.89601 0.0
C518 C 0.8194 0.82192 0.878 0.0
C519 C 0.82824 0.82335 0.8077 0.0
C520 C 0.8371 0.83066 0.82414 0.0
H521 H 0.81212 0.81915 0.89852 0.0
H522 H 0.82797 0.82144 0.77284 0.0
H523 H 0.78467 0.8136 0.85926 0.0
H524 H 0.78716 0.84887 0.81622 0.0
H525 H 0.84529 0.78605 0.77502 0.0
H526 H 0.82779 0.83139 0.93063 0.0
H527 H 0.84357 0.83423 0.80154 0.0
C528 C 0.53028 0.57433 0.55104 0.0
C529 C 0.52261 0.58044 0.57767 0.0
N530 N 0.52517 0.57778 0.61979 0.0
N531 N 0.53758 0.5678 0.57628 0.0
C532 C 0.53421 0.57001 0.61796 0.0
H533 H 0.53089 0.5751 0.51568 0.0
Co534 Co 0.55091 0.56017 0.55625 0.0
C535 C 0.55768 0.54192 0.62328 0.0
O536 O 0.56877 0.54372 0.6125 0.0
N537 N 0.56465 0.55271 0.53394 0.0
C538 C 0.58301 0.54877 0.51185 0.0
C539 C 0.57591 0.55676 0.533 0.0
C540 C 0.56525 0.54219 0.51304 0.0
N541 N 0.57628 0.53962 0.4989 0.0
O542 O 0.54095 0.5507 0.51791 0.0
H543 H 0.579 0.56499 0.5466 0.0
H544 H 0.55763 0.53667 0.50708 0.0
O545 O 0.54957 0.54808 0.60456 0.0
C546 C 0.54116 0.55455 0.47838 0.0
O547 O 0.54841 0.56328 0.46908 0.0
N548 N 0.56015 0.57062 0.58986 0.0
C549 C 0.57492 0.58827 0.62311 0.0
C550 C 0.57143 0.57869 0.64959 0.0
C551 C 0.56391 0.56999 0.63249 0.0
C552 C 0.56268 0.5803 0.56499 0.0
C553 C 0.57018 0.58911 0.58057 0.0
H554 H 0.56116 0.56291 0.65379 0.0
H555 H 0.5593 0.58086 0.53176 0.0
H556 H 0.53883 0.56662 0.64644 0.0
H557 H 0.51592 0.58664 0.56686 0.0
H558 H 0.59238 0.54977 0.50602 0.0
H559 H 0.57448 0.5779 0.68323 0.0
H560 H 0.57258 0.59626 0.55866 0.0
C561 C 0.6767 0.2869 0.80999 0.0
C562 C 0.67083 0.27929 0.83774 0.0
N563 N 0.67538 0.28057 0.87842 0.0
N564 N 0.68489 0.29288 0.83317 0.0
C565 C 0.6839 0.28883 0.87464 0.0
H566 H 0.67488 0.28826 0.77545 0.0
Co567 Co 0.69387 0.30515 0.81204 0.0
C568 C 0.71103 0.31132 0.88355 0.0
O569 O 0.70962 0.32249 0.87332 0.0
N570 N 0.70289 0.31795 0.78881 0.0
C571 C 0.70869 0.33574 0.76532 0.0
C572 C 0.70077 0.32975 0.79108 0.0
C573 C 0.71238 0.31718 0.76195 0.0
N574 N 0.71587 0.32778 0.74657 0.0
O575 O 0.7027 0.29379 0.77698 0.0
H576 H 0.69385 0.33396 0.80977 0.0
H577 H 0.71654 0.30898 0.7524 0.0
O578 O 0.70528 0.30341 0.86213 0.0
C579 C 0.69918 0.29339 0.737 0.0
O580 O 0.69118 0.30105 0.72401 0.0
N581 N 0.68393 0.31567 0.84235 0.0
C582 C 0.66723 0.33193 0.87204 0.0
C583 C 0.67505 0.32652 0.90171 0.0
C584 C 0.68334 0.3183 0.8862 0.0
C585 C 0.67571 0.32009 0.81402 0.0
C586 C 0.66747 0.32844 0.82789 0.0
H587 H 0.68912 0.31406 0.90955 0.0
H588 H 0.6759 0.31744 0.77983 0.0
H589 H 0.68891 0.2923 0.90201 0.0
H590 H 0.66367 0.27343 0.82878 0.0
H591 H 0.70871 0.34514 0.75874 0.0
H592 H 0.67489 0.32878 0.93633 0.0
H593 H 0.66134 0.33215 0.80425 0.0
C594 C 0.95846 0.42117 0.0504 0.0
C595 C 0.96713 0.41458 0.07036 0.0
N596 N 0.97315 0.42172 0.0977 0.0
N597 N 0.95896 0.43235 0.06554 0.0
C598 C 0.96808 0.43247 0.09402 0.0
H599 H 0.95196 0.41795 0.02724 0.0
Co600 Co 0.94827 0.44393 0.04951 0.0
C601 C 0.94553 0.45727 0.13483 0.0
O602 O 0.93433 0.45439 0.13611 0.0
N603 N 0.93718 0.45565 0.0313 0.0
C604 C 0.92063 0.46591 0.019 0.0
C605 C 0.92617 0.45804 0.04647 0.0
C606 C 0.93801 0.46231 0.9945 0.0
N607 N 0.92808 0.46848 0.98601 0.0
O608 O 0.96081 0.45169 0.01672 0.0
H609 H 0.92183 0.45363 0.07345 0.0
H610 H 0.94559 0.4624 0.97306 0.0
O611 O 0.95207 0.45359 0.1031 0.0
C612 C 0.9619 0.44644 0.97967 0.0
O613 O 0.95447 0.43785 0.97074 0.0
N614 N 0.93627 0.43505 0.07722 0.0
C615 C 0.91959 0.41836 0.10493 0.0
C616 C 0.92864 0.42214 0.13332 0.0
C617 C 0.93702 0.43034 0.11856 0.0
C618 C 0.92782 0.43111 0.04879 0.0
C619 C 0.91925 0.42305 0.06222 0.0
H620 H 0.94433 0.43262 0.13981 0.0
H621 H 0.92784 0.43414 0.01503 0.0
H622 H 0.97064 0.44013 0.11309 0.0
H623 H 0.96874 0.40523 0.06578 0.0
H624 H 0.91153 0.46878 0.02138 0.0
H625 H 0.92953 0.41847 0.16604 0.0
H626 H 0.9125 0.42042 0.03897 0.0
C627 C 0.82823 0.70552 0.30559 0.0
C628 C 0.83537 0.71325 0.32812 0.0
N629 N 0.82848 0.71964 0.35528 0.0
N630 N 0.81697 0.70693 0.31918 0.0
C631 C 0.81736 0.71571 0.34902 0.0
H632 H 0.83108 0.69899 0.2819 0.0
Co633 Co 0.8045 0.69768 0.3006 0.0
C634 C 0.79134 0.6937 0.38441 0.0
O635 O 0.7925 0.68232 0.37706 0.0
N636 N 0.79201 0.68848 0.27902 0.0
C637 C 0.77483 0.67998 0.26223 0.0
C638 C 0.78075 0.68674 0.29264 0.0
C639 C 0.79239 0.68334 0.239 0.0
N640 N 0.78223 0.67789 0.2286 0.0
O641 O 0.79782 0.71129 0.27058 0.0
H642 H 0.77667 0.69071 0.32108 0.0
H643 H 0.7999 0.68389 0.21709 0.0
O644 O 0.79541 0.70113 0.35615 0.0
C645 C 0.80318 0.71237 0.23375 0.0
O646 O 0.81123 0.70444 0.22375 0.0
N647 N 0.81221 0.68428 0.32623 0.0
C648 C 0.82792 0.66654 0.3539 0.0
C649 C 0.82482 0.67586 0.38209 0.0
C650 C 0.81709 0.68469 0.36748 0.0
C651 C 0.81518 0.67524 0.29863 0.0
C652 C 0.82276 0.66621 0.31202 0.0
H653 H 0.81547 0.69218 0.38871 0.0
H654 H 0.81236 0.67526 0.26494 0.0
H655 H 0.80975 0.71878 0.3673 0.0
H656 H 0.84487 0.71398 0.32543 0.0
H657 H 0.7656 0.6775 0.26328 0.0
H658 H 0.8288 0.67669 0.41432 0.0
H659 H 0.82488 0.65924 0.28895 0.0
C660 C 0.53392 0.42914 0.05666 0.0
C661 C 0.52689 0.42352 0.02632 0.0
N662 N 0.5298 0.42755 0.98601 0.0
N663 N 0.54114 0.43672 0.03555 0.0
C664 C 0.53841 0.43559 0.99265 0.0
H665 H 0.53406 0.42744 0.09164 0.0
Co666 Co 0.55356 0.44486 0.06015 0.0
C667 C 0.55959 0.46455 0.99745 0.0
O668 O 0.57053 0.46434 0.01175 0.0
N669 N 0.56644 0.45286 0.08682 0.0
C670 C 0.58415 0.45714 0.11503 0.0
C671 C 0.57808 0.44998 0.0865 0.0
C672 C 0.56582 0.46199 0.11542 0.0
N673 N 0.57636 0.46456 0.13361 0.0
O674 O 0.54239 0.45301 0.09825 0.0
H675 H 0.58206 0.44289 0.06798 0.0
H676 H 0.55773 0.46647 0.12426 0.0
O677 O 0.55202 0.45735 0.01383 0.0
C678 C 0.54218 0.44809 0.13614 0.0
O679 O 0.54956 0.43933 0.14343 0.0
N680 N 0.56396 0.43556 0.02672 0.0
C681 C 0.57935 0.41857 0.9923 0.0
C682 C 0.57594 0.42844 0.9671 0.0
C683 C 0.56814 0.43683 0.98482 0.0
C684 C 0.56677 0.42581 0.05078 0.0
C685 C 0.57456 0.41735 0.03464 0.0
H686 H 0.56541 0.44413 0.96447 0.0
H687 H 0.56317 0.42482 0.08354 0.0
H688 H 0.54311 0.44009 0.96661 0.0
H689 H 0.52031 0.41685 0.03341 0.0
H690 H 0.5934 0.45641 0.12366 0.0
H691 H 0.57913 0.42961 0.9338 0.0
H692 H 0.57698 0.41005 0.0558 0.0
C693 C 0.82462 0.28382 0.30272 0.0
C694 C 0.82988 0.27743 0.26953 0.0
N695 N 0.82526 0.28102 0.23088 0.0
N696 N 0.81667 0.29128 0.28495 0.0
C697 C 0.81715 0.28927 0.24136 0.0
H698 H 0.82707 0.28365 0.33708 0.0
Co699 Co 0.80984 0.3041 0.31191 0.0
C700 C 0.78848 0.31069 0.25705 0.0
O701 O 0.78873 0.32149 0.27274 0.0
N702 N 0.80329 0.31736 0.34045 0.0
C703 C 0.80041 0.33538 0.36779 0.0
C704 C 0.8076 0.3285 0.34215 0.0
C705 C 0.79349 0.31773 0.36583 0.0
N706 N 0.79155 0.32859 0.38283 0.0
O707 O 0.80186 0.2935 0.35282 0.0
H708 H 0.81553 0.33162 0.32628 0.0
H709 H 0.78801 0.31012 0.37237 0.0
O710 O 0.79631 0.3032 0.2696 0.0
C711 C 0.80745 0.29303 0.38936 0.0
O712 O 0.81681 0.29978 0.39391 0.0
N713 N 0.81886 0.314 0.27534 0.0
C714 C 0.83492 0.32992 0.23903 0.0
C715 C 0.82402 0.32779 0.21842 0.0
C716 C 0.81606 0.31972 0.23712 0.0
C717 C 0.82976 0.31531 0.29364 0.0
C718 C 0.83788 0.32328 0.27633 0.0
H719 H 0.80771 0.31832 0.2211 0.0
H720 H 0.83193 0.31051 0.32335 0.0
H721 H 0.81212 0.29431 0.21765 0.0
H722 H 0.83709 0.27124 0.27345 0.0
H723 H 0.80171 0.34465 0.37493 0.0
H724 H 0.8215 0.33262 0.18913 0.0
H725 H 0.84631 0.32444 0.29262 0.0
C726 C 0.96719 0.57419 0.5537 0.0
C727 C 0.97499 0.58041 0.52801 0.0
N728 N 0.97249 0.57816 0.4855 0.0
N729 N 0.95987 0.56796 0.52753 0.0
C730 C 0.9633 0.57053 0.48618 0.0
H731 H 0.96662 0.57453 0.58916 0.0
Co732 Co 0.94681 0.55972 0.54672 0.0
C733 C 0.94276 0.53948 0.48382 0.0
O734 O 0.93174 0.53859 0.49688 0.0
N735 N 0.93334 0.55172 0.56836 0.0
C736 C 0.91512 0.54778 0.59206 0.0
C737 C 0.922 0.55556 0.56884 0.0
C738 C 0.93302 0.54153 0.59158 0.0
N739 N 0.92209 0.539 0.60666 0.0
O740 O 0.95699 0.55092 0.58617 0.0
H741 H 0.91881 0.5637 0.55475 0.0
H742 H 0.94076 0.53631 0.5991 0.0
O743 O 0.94939 0.54765 0.49958 0.0
C744 C 0.95654 0.55413 0.62643 0.0
O745 O 0.9487 0.56213 0.63785 0.0
N746 N 0.93723 0.56935 0.51127 0.0
C747 C 0.92077 0.58533 0.47768 0.0
C748 C 0.92366 0.57501 0.4543 0.0
C749 C 0.93199 0.5671 0.47166 0.0
C750 C 0.93519 0.57974 0.53253 0.0
C751 C 0.92697 0.58782 0.51649 0.0
H752 H 0.93386 0.55911 0.45377 0.0
H753 H 0.93956 0.58146 0.56353 0.0
H754 H 0.95874 0.56735 0.45724 0.0
H755 H 0.98185 0.58626 0.5398 0.0
H756 H 0.9058 0.54877 0.59899 0.0
H757 H 0.91916 0.57283 0.42393 0.0
H758 H 0.92526 0.59582 0.53501 0.0
C759 C 0.67557 0.70966 0.82719 0.0
C760 C 0.67032 0.71935 0.80813 0.0
N761 N 0.6769 0.72253 0.7732 0.0
N762 N 0.68529 0.70674 0.80402 0.0
C763 C 0.68592 0.71477 0.7714 0.0
H764 H 0.67238 0.70487 0.85559 0.0
Co765 Co 0.69431 0.6937 0.81655 0.0
C766 C 0.71132 0.69012 0.74254 0.0
O767 O 0.70949 0.67871 0.74597 0.0
N768 N 0.70334 0.68004 0.83125 0.0
C769 C 0.70948 0.6615 0.84116 0.0
C770 C 0.70066 0.66849 0.82475 0.0
C771 C 0.71396 0.67969 0.85169 0.0
N772 N 0.71782 0.66853 0.85842 0.0
O773 O 0.7035 0.70343 0.85619 0.0
H774 H 0.69296 0.66509 0.80828 0.0
H775 H 0.71864 0.68746 0.86268 0.0
O776 O 0.70548 0.69728 0.76708 0.0
C777 C 0.70019 0.70245 0.89621 0.0
O778 O 0.69243 0.69423 0.90606 0.0
N779 N 0.68405 0.68471 0.78176 0.0
C780 C 0.66676 0.67019 0.74554 0.0
C781 C 0.67461 0.67639 0.71816 0.0
C782 C 0.68319 0.68378 0.73705 0.0
C783 C 0.67576 0.67964 0.8082 0.0
C784 C 0.66722 0.67213 0.79095 0.0
H785 H 0.68901 0.68871 0.71577 0.0
H786 H 0.67617 0.68104 0.84338 0.0
H787 H 0.69258 0.71469 0.74586 0.0
H788 H 0.66229 0.72367 0.81887 0.0
H789 H 0.70966 0.65194 0.84063 0.0
H790 H 0.67424 0.67537 0.68276 0.0
H791 H 0.66107 0.6678 0.81302 0.0
C792 C 0.42651 0.46725 0.55382 0.0
C793 C 0.42143 0.47481 0.52373 0.0
N794 N 0.42503 0.47157 0.48322 0.0
N795 N 0.4333 0.45937 0.53223 0.0
C796 C 0.43221 0.46222 0.48943 0.0
H797 H 0.42504 0.46729 0.58896 0.0
Co798 Co 0.44091 0.44629 0.55478 0.0
C799 C 0.46221 0.44212 0.49585 0.0
O800 O 0.46378 0.43138 0.51107 0.0
N801 N 0.44834 0.43283 0.57875 0.0
C802 C 0.45237 0.41448 0.60051 0.0
C803 C 0.44448 0.42151 0.57851 0.0
C804 C 0.45851 0.4324 0.602 0.0
N805 N 0.46122 0.42134 0.61535 0.0
O806 O 0.44924 0.45644 0.59585 0.0
H807 H 0.43639 0.4184 0.56381 0.0
H808 H 0.46378 0.44011 0.60929 0.0
O809 O 0.45359 0.44843 0.50995 0.0
C810 C 0.44447 0.45639 0.63397 0.0
O811 O 0.43538 0.44937 0.64047 0.0
N812 N 0.43172 0.43669 0.51799 0.0
C813 C 0.41598 0.42037 0.48237 0.0
C814 C 0.42683 0.42267 0.46159 0.0
C815 C 0.43465 0.43092 0.48003 0.0
C816 C 0.42089 0.43515 0.53661 0.0
C817 C 0.41291 0.42701 0.51952 0.0
H818 H 0.44309 0.43227 0.46454 0.0
H819 H 0.41869 0.43988 0.56645 0.0
H820 H 0.43613 0.45711 0.46314 0.0
H821 H 0.41545 0.482 0.53111 0.0
H822 H 0.45156 0.40505 0.60533 0.0
H823 H 0.42948 0.41777 0.43263 0.0
H824 H 0.40453 0.42569 0.53601 0.0
C825 C 0.29892 0.67327 0.30482 0.0
C826 C 0.29222 0.66631 0.27741 0.0
N827 N 0.28839 0.67307 0.24389 0.0
N828 N 0.2992 0.68439 0.28882 0.0
C829 C 0.29261 0.684 0.25194 0.0
H830 H 0.30397 0.67022 0.33281 0.0
Co831 Co 0.30923 0.69623 0.30804 0.0
C832 C 0.30043 0.71741 0.26257 0.0
O833 O 0.29934 0.72233 0.3015 0.0
N834 N 0.31962 0.70788 0.32704 0.0
C835 C 0.33383 0.7214 0.32789 0.0
C836 C 0.32701 0.71428 0.30159 0.0
C837 C 0.32216 0.71117 0.36854 0.0
N838 N 0.33077 0.71941 0.37008 0.0
O839 O 0.29689 0.702 0.34734 0.0
H840 H 0.32751 0.7137 0.26612 0.0
H841 H 0.31769 0.70766 0.39708 0.0
O842 O 0.30417 0.70677 0.2599 0.0
C843 C 0.29679 0.69596 0.38287 0.0
O844 O 0.30493 0.68778 0.3878 0.0
N845 N 0.32127 0.68966 0.27403 0.0
C846 C 0.3394 0.67657 0.23525 0.0
C847 C 0.33098 0.68247 0.20912 0.0
C848 C 0.32192 0.689 0.22925 0.0
C849 C 0.32934 0.68403 0.29974 0.0
C850 C 0.33848 0.67751 0.28114 0.0
H851 H 0.31531 0.69323 0.20898 0.0
H852 H 0.32845 0.68439 0.33516 0.0
H853 H 0.29142 0.69142 0.23001 0.0
H854 H 0.29099 0.65685 0.28019 0.0
H855 H 0.34059 0.72746 0.31673 0.0
H856 H 0.33134 0.68196 0.17357 0.0
H857 H 0.34453 0.67289 0.30271 0.0
C858 C 0.07523 0.54472 0.05774 0.0
C859 C 0.08246 0.5381 0.03077 0.0
N860 N 0.07692 0.53666 0.9919 0.0
N861 N 0.0652 0.54734 0.03593 0.0
C862 C 0.06645 0.5422 0.99623 0.0
H863 H 0.07731 0.54782 0.09049 0.0
Co864 Co 0.05337 0.55741 0.05488 0.0
C865 C 0.03825 0.56126 0.97611 0.0
O866 O 0.03862 0.57263 0.98489 0.0
N867 N 0.04129 0.56748 0.07506 0.0
C868 C 0.02318 0.57374 0.0916 0.0
C869 C 0.02962 0.56524 0.07033 0.0
C870 C 0.04166 0.57712 0.10136 0.0
N871 N 0.03077 0.58119 0.11117 0.0
O872 O 0.04617 0.5445 0.08691 0.0
H873 H 0.02598 0.55756 0.05411 0.0
H874 H 0.04961 0.5807 0.1156 0.0
O875 O 0.04374 0.55397 1.00126 0.0
C876 C 0.0487 0.54539 0.12778 0.0
O877 O 0.05502 0.5545 0.14058 0.0
N878 N 0.0616 0.57002 0.02779 0.0
C879 C 0.07727 0.58764 0.99956 0.0
C880 C 0.0715 0.58032 0.96908 0.0
C881 C 0.06394 0.57137 0.98389 0.0
C882 C 0.06767 0.57661 0.05771 0.0
C883 C 0.07532 0.58559 0.04446 0.0
H884 H 0.06038 0.56531 0.95995 0.0
H885 H 0.06705 0.57448 0.09226 0.0
H886 H 0.05993 0.54274 0.97037 0.0
H887 H 0.09129 0.53505 0.03848 0.0
H888 H 0.01367 0.57386 0.09562 0.0
H889 H 0.07296 0.58132 0.93407 0.0
H890 H 0.08006 0.59053 0.06934 0.0
C891 C 0.20693 0.32683 0.80505 0.0
C892 C 0.21378 0.33337 0.77655 0.0
N893 N 0.21568 0.32686 0.74015 0.0
N894 N 0.20464 0.31622 0.78678 0.0
C895 C 0.21019 0.31647 0.74756 0.0
H896 H 0.20322 0.32991 0.83575 0.0
Co897 Co 0.19366 0.30533 0.80667 0.0
C898 C 0.20047 0.28354 0.76081 0.0
O899 O 0.2011 0.27847 0.79964 0.0
N900 N 0.18231 0.29461 0.82626 0.0
C901 C 0.16717 0.2821 0.82733 0.0
C902 C 0.17438 0.28882 0.80097 0.0
C903 C 0.17965 0.29139 0.86776 0.0
N904 N 0.1705 0.28375 0.8694 0.0
O905 O 0.20559 0.29839 0.84468 0.0
H906 H 0.17386 0.28947 0.76552 0.0
H907 H 0.18443 0.29441 0.8963 0.0
O908 O 0.1976 0.29444 0.75826 0.0
C909 C 0.20614 0.30336 0.88236 0.0
O910 O 0.19882 0.31211 0.89066 0.0
N911 N 0.18208 0.31299 0.7737 0.0
C912 C 0.16437 0.32706 0.73713 0.0
C913 C 0.17185 0.32027 0.71006 0.0
C914 C 0.18071 0.31325 0.72909 0.0
C915 C 0.17499 0.31957 0.80027 0.0
C916 C 0.16607 0.3266 0.78279 0.0
H917 H 0.18652 0.3082 0.70806 0.0
H918 H 0.17642 0.31944 0.83546 0.0
H919 H 0.20975 0.3094 0.7238 0.0
H920 H 0.21647 0.34247 0.78107 0.0
H921 H 0.16003 0.27648 0.81632 0.0
H922 H 0.17086 0.32039 0.67463 0.0
H923 H 0.16076 0.33188 0.80495 0.0
C924 C 0.42207 0.54835 0.04578 0.0
C925 C 0.41494 0.54022 0.06649 0.0
N926 N 0.42172 0.53389 0.09424 0.0
N927 N 0.43319 0.54724 0.0611 0.0
C928 C 0.43274 0.53829 0.0902 0.0
H929 H 0.4193 0.55479 0.0216 0.0
Co930 Co 0.44586 0.55647 0.04485 0.0
C931 C 0.46099 0.55901 0.12404 0.0
O932 O 0.46154 0.57036 0.11503 0.0
N933 N 0.45878 0.5657 0.02669 0.0
C934 C 0.47737 0.57067 0.01172 0.0
C935 C 0.4702 0.56233 0.03054 0.0
C936 C 0.45927 0.57588 0.00346 0.0
N937 N 0.47046 0.57917 0.99469 0.0
O938 O 0.45248 0.54318 0.01335 0.0
H939 H 0.47312 0.5541 0.04494 0.0
H940 H 0.45168 0.58055 0.99092 0.0
O941 O 0.45468 0.55218 0.09979 0.0
C942 C 0.44902 0.54367 0.97338 0.0
O943 O 0.44236 0.55266 0.96172 0.0
N944 N 0.43829 0.56952 0.07158 0.0
C945 C 0.42312 0.58763 0.09902 0.0
C946 C 0.42845 0.58007 0.12982 0.0
C947 C 0.43575 0.57084 0.11533 0.0
C948 C 0.43276 0.57649 0.04138 0.0
C949 C 0.42536 0.58571 0.05428 0.0
H950 H 0.43884 0.56449 0.13918 0.0
H951 H 0.43359 0.57449 0.00677 0.0
H952 H 0.44025 0.53526 0.10909 0.0
H953 H 0.40553 0.53908 0.06172 0.0
H954 H 0.48687 0.57009 0.00784 0.0
H955 H 0.42654 0.58091 0.16459 0.0
H956 H 0.42124 0.59113 0.02924 0.0
C957 C 0.20567 0.66758 0.81879 0.0
C958 C 0.21344 0.66063 0.84193 0.0
N959 N 0.22042 0.66778 0.86593 0.0
N960 N 0.20768 0.67902 0.82859 0.0
C961 C 0.21679 0.67888 0.85709 0.0
H962 H 0.19877 0.6645 0.797 0.0
Co963 Co 0.19868 0.69142 0.80798 0.0
C964 C 0.20731 0.71151 0.86029 0.0
O965 O 0.21 0.71671 0.82295 0.0
N966 N 0.18945 0.70353 0.78653 0.0
C967 C 0.17625 0.71781 0.77733 0.0
C968 C 0.18222 0.71109 0.80787 0.0
C969 C 0.18767 0.70566 0.74358 0.0
N970 N 0.17972 0.71434 0.73692 0.0
O971 O 0.21213 0.69721 0.77437 0.0
H972 H 0.18117 0.71149 0.84321 0.0
H973 H 0.19181 0.70059 0.71767 0.0
O974 O 0.20283 0.70114 0.85957 0.0
C975 C 0.21469 0.69104 0.74049 0.0
O976 O 0.20843 0.68154 0.7322 0.0
N977 N 0.18554 0.68511 0.83686 0.0
C978 C 0.16691 0.67149 0.86902 0.0
C979 C 0.17509 0.67667 0.898 0.0
C980 C 0.18445 0.68342 0.88116 0.0
C981 C 0.17746 0.68051 0.80851 0.0
C982 C 0.16804 0.67374 0.82386 0.0
H983 H 0.1911 0.68673 0.90344 0.0
H984 H 0.17862 0.68169 0.77345 0.0
H985 H 0.22037 0.68672 0.87247 0.0
H986 H 0.21383 0.65107 0.84166 0.0
H987 H 0.16986 0.72467 0.78435 0.0
H988 H 0.1746 0.67503 0.93306 0.0
H989 H 0.16188 0.67004 0.80037 0.0
C990 C 0.08189 0.45686 0.55534 0.0
C991 C 0.08865 0.46444 0.5802 0.0
N992 N 0.0814 0.47022 0.60792 0.0
N993 N 0.07051 0.45775 0.56803 0.0
C994 C 0.07045 0.46607 0.59971 0.0
H995 H 0.08511 0.45075 0.53073 0.0
Co996 Co 0.05849 0.44814 0.54798 0.0
C997 C 0.04336 0.44402 0.62658 0.0
O998 O 0.04373 0.43269 0.61713 0.0
N999 N 0.04629 0.43852 0.52556 0.0
C1000 C 0.02842 0.43235 0.50481 0.0
C1001 C 0.03453 0.43958 0.53297 0.0
C1002 C 0.04695 0.43111 0.49076 0.0
N1003 N 0.03628 0.42708 0.47822 0.0
O1004 O 0.05153 0.46139 0.51719 0.0
H1005 H 0.03049 0.44596 0.55471 0.0
H1006 H 0.05487 0.42956 0.47189 0.0
O1007 O 0.04894 0.4514 0.60213 0.0
C1008 C 0.05494 0.46109 0.47712 0.0
O1009 O 0.06239 0.45275 0.46537 0.0
N1010 N 0.06633 0.43509 0.57424 0.0
C1011 C 0.08149 0.41706 0.60272 0.0
C1012 C 0.0764 0.42493 0.63298 0.0
C1013 C 0.0691 0.43409 0.61794 0.0
C1014 C 0.07165 0.42781 0.54453 0.0
C1015 C 0.07901 0.41862 0.55797 0.0
H1016 H 0.06613 0.44064 0.64127 0.0
H1017 H 0.07087 0.42958 0.50989 0.0
H1018 H 0.06266 0.46867 0.61794 0.0
H1019 H 0.09815 0.46547 0.57868 0.0
H1020 H 0.01892 0.43196 0.50103 0.0
H1021 H 0.07849 0.42436 0.66769 0.0
H1022 H 0.08296 0.41297 0.53326 0.0
C1023 C 0.29376 0.3283 0.30104 0.0
C1024 C 0.28576 0.33538 0.32273 0.0
N1025 N 0.27976 0.32857 0.35133 0.0
N1026 N 0.2929 0.31719 0.31669 0.0
C1027 C 0.28417 0.31757 0.34678 0.0
H1028 H 0.30015 0.33115 0.2768 0.0
Co1029 Co 0.30289 0.30496 0.3015 0.0
C1030 C 0.30716 0.29287 0.38689 0.0
O1031 O 0.3185 0.29399 0.37848 0.0
N1032 N 0.31285 0.29249 0.28354 0.0
C1033 C 0.32064 0.27475 0.26993 0.0
C1034 C 0.31352 0.28117 0.29771 0.0
C1035 C 0.31907 0.29245 0.24562 0.0
N1036 N 0.32406 0.28191 0.23711 0.0
O1037 O 0.28987 0.29711 0.27249 0.0
H1038 H 0.30841 0.2774 0.3242 0.0
H1039 H 0.31925 0.29975 0.22272 0.0
O1040 O 0.2996 0.29665 0.35862 0.0
C1041 C 0.28967 0.3001 0.23195 0.0
O1042 O 0.29767 0.30758 0.21766 0.0
N1043 N 0.3157 0.31367 0.32639 0.0
C1044 C 0.33303 0.32982 0.35384 0.0
C1045 C 0.32375 0.32656 0.38199 0.0
C1046 C 0.3151 0.31864 0.36743 0.0
C1047 C 0.32452 0.31702 0.29845 0.0
C1048 C 0.33338 0.32479 0.31174 0.0
H1049 H 0.30765 0.31686 0.38867 0.0
H1050 H 0.32444 0.31431 0.26467 0.0
H1051 H 0.28153 0.3101 0.36672 0.0
H1052 H 0.28465 0.34481 0.31869 0.0
H1053 H 0.32227 0.26534 0.2715 0.0
H1054 H 0.32286 0.3305 0.41429 0.0
H1055 H 0.34027 0.32708 0.28854 0.0
C1056 C 0.08785 0.98064 0.63051 0.0
C1057 C 0.08057 0.97063 0.63264 0.0
C1058 C 0.09191 0.98596 0.66902 0.0
C1059 C 0.08673 1.00075 0.74833 0.0
H1060 H 0.09276 0.98608 0.86151 0.0
C1061 C 0.07169 0.02237 0.9066 0.0
C1062 C 0.08022 0.02388 0.93961 0.0
C1063 C 0.0739 0.01493 0.87111 0.0
C1064 C 0.09121 0.99028 0.83001 0.0
H1065 H 0.07264 0.95773 0.6764 0.0
H1066 H 0.07951 0.96709 0.7435 0.0
H1067 H 0.09483 0.97441 0.7939 0.0
H1068 H 0.0974 0.01819 0.96303 0.0
H1069 H 0.10126 0.00505 0.90054 0.0
H1070 H 0.08274 0.01647 0.7842 0.0
C1071 C 0.08228 0.97076 0.71223 0.0
C1072 C 0.09237 0.98364 0.79146 0.0
C1073 C 0.0783 0.9654 0.6737 0.0
C1074 C 0.09074 0.01728 0.93768 0.0
C1075 C 0.09293 0.00974 0.90221 0.0
C1076 C 0.08551 0.00733 0.78666 0.0
C1077 C 0.08863 0.98141 0.7103 0.0
C1078 C 0.08982 0.98874 0.75033 0.0
C1079 C 0.08466 0.00881 0.86803 0.0
C1080 C 0.08738 0.00206 0.82783 0.0
H1081 H 0.08987 0.98468 0.59911 0.0
H1082 H 0.09698 0.99404 0.66656 0.0
H1083 H 0.08453 0.00493 0.71732 0.0
H1084 H 0.06355 0.02739 0.90694 0.0
H1085 H 0.06732 0.0142 0.84538 0.0
C1086 C 0.21569 0.82817 0.1559 0.0
C1087 C 0.21974 0.83222 0.19676 0.0
C1088 C 0.22014 0.83301 0.1171 0.0
C1089 C 0.24764 0.84714 0.08151 0.0
H1090 H 0.23306 0.84421 0.96658 0.0
C1091 C 0.27611 0.8487 0.92837 0.0
C1092 C 0.27499 0.83844 0.90261 0.0
C1093 C 0.26736 0.85179 0.95846 0.0
C1094 C 0.23719 0.84518 0.99851 0.0
H1095 H 0.23059 0.84512 0.22993 0.0
H1096 H 0.23796 0.85413 0.16214 0.0
H1097 H 0.22074 0.84352 0.03267 0.0
H1098 H 0.26325 0.82401 0.88548 0.0
H1099 H 0.2481 0.82922 0.93917 0.0
H1100 H 0.26408 0.84846 0.0477 0.0
C1101 C 0.23173 0.8469 0.15974 0.0
C1102 C 0.23017 0.84475 0.03635 0.0
C1103 C 0.22749 0.84184 0.19852 0.0
C1104 C 0.26452 0.83181 0.9055 0.0
C1105 C 0.25575 0.8349 0.93575 0.0
C1106 C 0.25459 0.84774 0.04385 0.0
C1107 C 0.22858 0.84214 0.11857 0.0
C1108 C 0.23539 0.84525 0.07838 0.0
C1109 C 0.25731 0.84468 0.96359 0.0
C1110 C 0.2495 0.84634 0.00208 0.0
H1111 H 0.20978 0.82066 0.15401 0.0
H1112 H 0.21759 0.82898 0.08624 0.0
H1113 H 0.25207 0.84733 0.11307 0.0
H1114 H 0.28402 0.85404 0.92725 0.0
H1115 H 0.26872 0.85944 0.97929 0.0
C1116 C 0.42893 0.97423 0.40864 0.0
C1117 C 0.42173 0.97385 0.44624 0.0
C1118 C 0.42501 0.97976 0.37043 0.0
C1119 C 0.41281 0.98714 0.28708 0.0
H1120 H 0.40051 0.01895 0.29907 0.0
C1121 C 0.40984 0.01705 0.13673 0.0
C1122 C 0.41541 0.028 0.14327 0.0
C1123 C 0.40644 0.01015 0.17267 0.0
C1124 C 0.40385 0.01004 0.29518 0.0
H1125 H 0.40463 0.97877 0.47282 0.0
H1126 H 0.39782 0.9886 0.40588 0.0
H1127 H 0.40309 0.00669 0.36441 0.0
H1128 H 0.42071 0.04081 0.19248 0.0
H1129 H 0.41523 0.02867 0.25498 0.0
H1130 H 0.41441 0.99071 0.21847 0.0
C1131 C 0.40653 0.98464 0.40627 0.0
C1132 C 0.40521 0.00298 0.33253 0.0
C1133 C 0.41045 0.97905 0.44461 0.0
C1134 C 0.41671 0.03229 0.18635 0.0
C1135 C 0.41337 0.02539 0.22223 0.0
C1136 C 0.41149 0.99419 0.24982 0.0
C1137 C 0.4138 0.98507 0.36885 0.0
C1138 C 0.41016 0.99164 0.32898 0.0
C1139 C 0.40858 0.01407 0.21582 0.0
C1140 C 0.40743 0.00588 0.25367 0.0
H1141 H 0.43774 0.97051 0.40899 0.0
H1142 H 0.43094 0.9802 0.3425 0.0
H1143 H 0.41644 0.97833 0.28331 0.0
H1144 H 0.40867 0.01349 0.104 0.0
H1145 H 0.4026 0.00154 0.16668 0.0
C1146 C 0.28486 0.17639 0.65503 0.0
C1147 C 0.28151 0.17115 0.69495 0.0
C1148 C 0.28051 0.17202 0.61531 0.0
C1149 C 0.25431 0.15627 0.57635 0.0
H1150 H 0.26905 0.16097 0.46248 0.0
C1151 C 0.22645 0.15371 0.42198 0.0
C1152 C 0.22709 0.16408 0.39658 0.0
C1153 C 0.23528 0.15101 0.45227 0.0
C1154 C 0.26487 0.15952 0.49409 0.0
H1155 H 0.27194 0.15673 0.72497 0.0
H1156 H 0.26462 0.14875 0.65545 0.0
H1157 H 0.28102 0.16228 0.52934 0.0
H1158 H 0.23816 0.17908 0.38 0.0
H1159 H 0.25338 0.17459 0.43409 0.0
H1160 H 0.23814 0.15392 0.54159 0.0
C1161 C 0.27026 0.15648 0.65472 0.0
C1162 C 0.27169 0.16031 0.53234 0.0
C1163 C 0.27444 0.161 0.69446 0.0
C1164 C 0.23723 0.1712 0.39982 0.0
C1165 C 0.24606 0.16851 0.43031 0.0
C1166 C 0.24756 0.15538 0.53828 0.0
C1167 C 0.27286 0.16222 0.61481 0.0
C1168 C 0.26638 0.1591 0.57398 0.0
C1169 C 0.24492 0.15864 0.45801 0.0
C1170 C 0.25268 0.15737 0.49687 0.0
H1171 H 0.29026 0.18428 0.65473 0.0
H1172 H 0.28258 0.17678 0.58539 0.0
H1173 H 0.24983 0.15551 0.60771 0.0
H1174 H 0.21882 0.14797 0.4205 0.0
H1175 H 0.23427 0.14325 0.47284 0.0
C1176 C 0.95143 0.04332 0.38555 0.0
C1177 C 0.95322 0.04071 0.43032 0.0
C1178 C 0.95416 0.03505 0.35292 0.0
C1179 C 0.95591 0.00309 0.3367 0.0
H1180 H 0.96924 0.01132 0.22317 0.0
C1181 C 0.96069 0.96767 0.20276 0.0
C1182 C 0.95798 0.97083 0.15923 0.0
C1183 C 0.96224 0.97628 0.23514 0.0
C1184 C 0.9654 0.00887 0.25449 0.0
H1185 H 0.95967 0.02747 0.4758 0.0
H1186 H 0.96435 0.01288 0.41861 0.0
H1187 H 0.9683 0.02615 0.28149 0.0
H1188 H 0.95521 0.98555 0.11502 0.0
H1189 H 0.95756 1.00072 0.1719 0.0
H1190 H 0.95251 0.98603 0.3097 0.0
C1191 C 0.96082 0.02138 0.40887 0.0
C1192 C 0.96492 0.01738 0.28805 0.0
C1193 C 0.95823 0.02976 0.44162 0.0
C1194 C 0.95739 0.98287 0.14825 0.0
C1195 C 0.95875 0.99155 0.18098 0.0
C1196 C 0.95628 0.99464 0.30313 0.0
C1197 C 0.95862 0.02386 0.36414 0.0
C1198 C 0.9601 0.01461 0.32951 0.0
C1199 C 0.96088 0.98835 0.22522 0.0
C1200 C 0.96098 0.99738 0.26137 0.0
H1201 H 0.94762 0.05169 0.37568 0.0
H1202 H 0.95225 0.03724 0.31895 0.0
H1203 H 0.95193 1.00071 0.36786 0.0
H1204 H 0.96132 0.95845 0.21211 0.0
H1205 H 0.96426 0.97342 0.26828 0.0
C1206 C 0.78632 0.2015 0.97344 0.0
C1207 C 0.78329 0.20266 0.92875 0.0
C1208 C 0.77808 0.20389 0.00662 0.0
C1209 C 0.74619 0.2032 0.0263 0.0
H1210 H 0.75399 0.21847 0.13675 0.0
C1211 C 0.71133 0.20612 0.16351 0.0
C1212 C 0.71502 0.20452 0.20721 0.0
C1213 C 0.71954 0.20809 0.12988 0.0
C1214 C 0.75166 0.21406 0.10636 0.0
H1215 H 0.76927 0.2076 0.88394 0.0
H1216 H 0.75473 0.21166 0.94208 0.0
H1217 H 0.76848 0.21806 0.07712 0.0
H1218 H 0.73021 0.20404 0.25026 0.0
H1219 H 0.7447 0.20709 0.19138 0.0
H1220 H 0.72967 0.19867 0.05559 0.0
C1221 C 0.76356 0.20892 0.95135 0.0
C1222 C 0.75998 0.2139 0.072 0.0
C1223 C 0.7719 0.2067 0.91803 0.0
C1224 C 0.72711 0.20542 0.21694 0.0
C1225 C 0.73541 0.20715 0.18299 0.0
C1226 C 0.73796 0.20324 0.06072 0.0
C1227 C 0.76649 0.20734 0.99609 0.0
C1228 C 0.75737 0.20841 0.03156 0.0
C1229 C 0.73176 0.20818 0.13867 0.0
C1230 C 0.74054 0.20863 0.10146 0.0
H1231 H 0.79502 0.19841 0.98285 0.0
H1232 H 0.78064 0.20249 0.04056 0.0
H1233 H 0.74395 0.19869 0.99601 0.0
H1234 H 0.70205 0.20552 0.15508 0.0
H1235 H 0.71626 0.20923 0.09671 0.0
C1236 C 0.54444 0.0207 0.65509 0.0
C1237 C 0.5446 0.03288 0.66374 0.0
C1238 C 0.54288 0.01256 0.68963 0.0
C1239 C 0.54629 0.01094 0.81184 0.0
H1240 H 0.53236 0.97993 0.7975 0.0
C1241 C 0.54455 0.97713 0.95571 0.0
C1242 C 0.5488 0.96586 0.94451 0.0
C1243 C 0.54193 0.98542 0.9226 0.0
C1244 C 0.53628 0.98857 0.80206 0.0
H1245 H 0.54238 0.04613 0.7145 0.0
H1246 H 0.53913 0.03212 0.77384 0.0
H1247 H 0.53158 0.99408 0.73686 0.0
H1248 H 0.55298 0.95424 0.88996 0.0
H1249 H 0.54831 0.96851 0.83283 0.0
H1250 H 0.55106 0.00539 0.87687 0.0
C1251 C 0.54069 0.02871 0.74109 0.0
C1252 C 0.53589 0.99668 0.76714 0.0
C1253 C 0.54243 0.03677 0.70689 0.0
C1254 C 0.5498 0.96288 0.89974 0.0
C1255 C 0.54703 0.97105 0.86686 0.0
C1256 C 0.54659 0.00288 0.8468 0.0
C1257 C 0.5413 0.01647 0.7334 0.0
C1258 C 0.54102 0.00795 0.77128 0.0
C1259 C 0.54331 0.98252 0.87773 0.0
C1260 C 0.54175 0.99152 0.8422 0.0
H1261 H 0.5462 0.01745 0.62221 0.0
H1262 H 0.54348 0.00323 0.68223 0.0
H1263 H 0.55059 0.0194 0.81632 0.0
H1264 H 0.54372 0.97969 0.98991 0.0
H1265 H 0.539 0.99417 0.93208 0.0
C1266 C 0.77992 0.79555 0.69522 0.0
C1267 C 0.78703 0.80575 0.69483 0.0
C1268 C 0.77247 0.79295 0.65926 0.0
C1269 C 0.76872 0.80051 0.54043 0.0
H1270 H 0.7361 0.79089 0.55525 0.0
C1271 C 0.73275 0.81086 0.41374 0.0
C1272 C 0.72431 0.80226 0.40308 0.0
C1273 C 0.74108 0.80882 0.44678 0.0
C1274 C 0.74525 0.79337 0.55052 0.0
H1275 H 0.79152 0.82136 0.65678 0.0
H1276 H 0.77869 0.81697 0.59564 0.0
H1277 H 0.74918 0.79195 0.61955 0.0
H1278 H 0.71783 0.78478 0.41873 0.0
H1279 H 0.73241 0.7812 0.47766 0.0
H1280 H 0.76471 0.80247 0.47196 0.0
C1281 C 0.77899 0.81077 0.62276 0.0
C1282 C 0.75275 0.79398 0.58738 0.0
C1283 C 0.78634 0.81333 0.65825 0.0
C1284 C 0.72444 0.79143 0.42572 0.0
C1285 C 0.73267 0.78946 0.4597 0.0
C1286 C 0.76124 0.79999 0.50389 0.0
C1287 C 0.77206 0.80047 0.62225 0.0
C1288 C 0.76449 0.79795 0.58296 0.0
C1289 C 0.74102 0.7982 0.47083 0.0
C1290 C 0.74933 0.79676 0.50859 0.0
H1291 H 0.78023 0.78952 0.72287 0.0
H1292 H 0.76723 0.78495 0.66004 0.0
H1293 H 0.77778 0.80329 0.53548 0.0
H1294 H 0.73268 0.81936 0.39728 0.0
H1295 H 0.74726 0.81579 0.45484 0.0
C1296 C 0.58989 0.53092 0.444 0.0
C1297 C 0.57972 0.53002 0.47045 0.0
C1298 C 0.59231 0.52243 0.41202 0.0
C1299 C 0.58298 0.49304 0.36934 0.0
H1300 H 0.59057 0.50702 0.25622 0.0
C1301 C 0.56986 0.47225 0.2052 0.0
C1302 C 0.57839 0.47173 0.17174 0.0
C1303 C 0.57211 0.47846 0.24381 0.0
C1304 C 0.58866 0.50296 0.28771 0.0
H1305 H 0.56475 0.51882 0.48647 0.0
H1306 H 0.56865 0.50438 0.42951 0.0
H1307 H 0.59119 0.51916 0.32222 0.0
H1308 H 0.59588 0.47735 0.15193 0.0
H1309 H 0.59977 0.48853 0.2196 0.0
H1310 H 0.57979 0.47699 0.33401 0.0
C1311 C 0.57484 0.51158 0.43372 0.0
C1312 C 0.58905 0.50988 0.32561 0.0
C1313 C 0.57248 0.52 0.46601 0.0
C1314 C 0.58919 0.47766 0.17735 0.0
C1315 C 0.59139 0.48402 0.21585 0.0
C1316 C 0.58246 0.48615 0.33135 0.0
C1317 C 0.58458 0.5129 0.40547 0.0
C1318 C 0.58593 0.50508 0.3667 0.0
C1319 C 0.5829 0.48435 0.24954 0.0
C1320 C 0.58501 0.49115 0.29015 0.0
H1321 H 0.59572 0.53845 0.44631 0.0
H1322 H 0.60003 0.52357 0.39138 0.0
H1323 H 0.58075 0.48901 0.40059 0.0
H1324 H 0.56155 0.46759 0.20205 0.0
H1325 H 0.56537 0.47872 0.2691 0.0
C1326 C 0.72401 0.32185 0.67508 0.0
C1327 C 0.72363 0.32989 0.71018 0.0
C1328 C 0.73062 0.32436 0.63768 0.0
C1329 C 0.75615 0.33999 0.59873 0.0
H1330 H 0.74193 0.33515 0.48396 0.0
C1331 C 0.78428 0.34153 0.4424 0.0
C1332 C 0.78253 0.33192 0.41381 0.0
C1333 C 0.77609 0.34404 0.47535 0.0
C1334 C 0.74602 0.33653 0.51575 0.0
H1335 H 0.73001 0.34671 0.73437 0.0
H1336 H 0.74194 0.35101 0.66877 0.0
H1337 H 0.72967 0.33405 0.54993 0.0
H1338 H 0.77038 0.31794 0.39557 0.0
H1339 H 0.75638 0.32196 0.45409 0.0
H1340 H 0.77261 0.34178 0.56513 0.0
C1341 C 0.73697 0.34284 0.67031 0.0
C1342 C 0.73901 0.33594 0.55336 0.0
C1343 C 0.73019 0.3404 0.70762 0.0
C1344 C 0.77213 0.32524 0.41758 0.0
C1345 C 0.76399 0.32768 0.45074 0.0
C1346 C 0.76319 0.34046 0.56114 0.0
C1347 C 0.73707 0.3349 0.63486 0.0
C1348 C 0.7441 0.33733 0.59514 0.0
C1349 C 0.76602 0.33694 0.4806 0.0
C1350 C 0.75825 0.33839 0.51937 0.0
H1351 H 0.71888 0.31378 0.67591 0.0
H1352 H 0.73072 0.31803 0.61094 0.0
H1353 H 0.76024 0.34103 0.63071 0.0
H1354 H 0.79218 0.34687 0.44064 0.0
H1355 H 0.7778 0.35134 0.49747 0.0
C1356 C 0.92573 0.51966 0.6416 0.0
C1357 C 0.91909 0.53012 0.63862 0.0
C1358 C 0.92399 0.51188 0.67662 0.0
C1359 C 0.91499 0.51294 0.79116 0.0
H1360 H 0.9176 0.47883 0.78461 0.0
C1361 C 0.91672 0.48387 0.94684 0.0
C1362 C 0.92538 0.47498 0.94656 0.0
C1363 C 0.91392 0.48996 0.90825 0.0
C1364 C 0.91689 0.48835 0.78692 0.0
H1365 H 0.90495 0.54026 0.66873 0.0
H1366 H 0.90183 0.5266 0.72939 0.0
H1367 H 0.91588 0.49035 0.71694 0.0
H1368 H 0.93766 0.4653 0.9051 0.0
H1369 H 0.93312 0.47617 0.83854 0.0
H1370 H 0.91647 0.51104 0.86086 0.0
C1371 C 0.90846 0.52451 0.70489 0.0
C1372 C 0.91588 0.49492 0.74824 0.0
C1373 C 0.91018 0.53227 0.66987 0.0
C1374 C 0.93112 0.47225 0.90682 0.0
C1375 C 0.92835 0.47834 0.86837 0.0
C1376 C 0.91605 0.50638 0.82978 0.0
C1377 C 0.91559 0.51443 0.70931 0.0
C1378 C 0.91515 0.50729 0.75 0.0
C1379 C 0.91973 0.48726 0.86864 0.0
C1380 C 0.91727 0.49405 0.82802 0.0
H1381 H 0.93252 0.51769 0.61763 0.0
H1382 H 0.92966 0.5042 0.6793 0.0
H1383 H 0.91463 0.52248 0.79349 0.0
H1384 H 0.91217 0.4862 0.97695 0.0
H1385 H 0.90719 0.49676 0.90941 0.0
C1386 C 0.78302 0.67755 0.14789 0.0
C1387 C 0.77934 0.6724 0.18755 0.0
C1388 C 0.77911 0.67301 0.10785 0.0
C1389 C 0.75368 0.65652 0.06554 0.0
H1390 H 0.76941 0.66205 0.95403 0.0
C1391 C 0.72753 0.65406 0.90722 0.0
C1392 C 0.7278 0.66488 0.88442 0.0
C1393 C 0.73625 0.65132 0.93789 0.0
C1394 C 0.76498 0.66033 0.98497 0.0
H1395 H 0.7696 0.65802 0.21702 0.0
H1396 H 0.76309 0.64969 0.14692 0.0
H1397 H 0.78068 0.66335 0.02251 0.0
H1398 H 0.7381 0.68072 0.87269 0.0
H1399 H 0.75321 0.67605 0.92722 0.0
H1400 H 0.73795 0.65382 0.02831 0.0
C1401 C 0.76863 0.65749 0.14657 0.0
C1402 C 0.77138 0.66113 0.02416 0.0
C1403 C 0.77234 0.66221 0.18665 0.0
C1404 C 0.7375 0.67245 0.89044 0.0
C1405 C 0.74625 0.66969 0.92115 0.0
C1406 C 0.74735 0.65555 0.02648 0.0
C1407 C 0.7716 0.6631 0.10672 0.0
C1408 C 0.76568 0.65972 0.06501 0.0
C1409 C 0.74542 0.65932 0.94637 0.0
C1410 C 0.75283 0.65789 0.98598 0.0
H1411 H 0.78837 0.68548 0.14795 0.0
H1412 H 0.78144 0.67771 0.07806 0.0
H1413 H 0.74889 0.65556 0.09617 0.0
H1414 H 0.7202 0.64801 0.90356 0.0
H1415 H 0.73547 0.64323 0.95672 0.0
C1416 C 0.45718 0.47297 0.66419 0.0
C1417 C 0.4483 0.46443 0.67009 0.0
C1418 C 0.45995 0.48095 0.69816 0.0
C1419 C 0.4581 0.50149 0.76344 0.0
H1420 H 0.45409 0.49257 0.88576 0.0
C1421 C 0.44784 0.53592 0.89659 0.0
C1422 C 0.45181 0.5344 0.94011 0.0
C1423 C 0.44969 0.52722 0.86479 0.0
C1424 C 0.45544 0.49523 0.85192 0.0
H1425 H 0.43561 0.45745 0.71696 0.0
H1426 H 0.44021 0.47131 0.77492 0.0
H1427 H 0.45372 0.47744 0.82885 0.0
H1428 H 0.46111 0.52251 0.9839 0.0
H1429 H 0.46452 0.50724 0.92787 0.0
H1430 H 0.45997 0.51924 0.78651 0.0
C1431 C 0.44524 0.47182 0.7447 0.0
C1432 C 0.45506 0.48654 0.81904 0.0
C1433 C 0.44251 0.46388 0.71102 0.0
C1434 C 0.45793 0.52397 0.95075 0.0
C1435 C 0.45981 0.51519 0.91863 0.0
C1436 C 0.45857 0.51015 0.79632 0.0
C1437 C 0.45392 0.48057 0.73881 0.0
C1438 C 0.45602 0.48957 0.77417 0.0
C1439 C 0.45565 0.51669 0.87517 0.0
C1440 C 0.45688 0.50721 0.84096 0.0
H1441 H 0.46183 0.47363 0.63315 0.0
H1442 H 0.46679 0.48746 0.69244 0.0
H1443 H 0.45886 0.50424 0.72944 0.0
H1444 H 0.44307 0.5438 0.88696 0.0
H1445 H 0.4461 0.52866 0.83221 0.0
C1446 C 0.28116 0.708 0.42332 0.0
C1447 C 0.28799 0.69767 0.41878 0.0
C1448 C 0.27356 0.70943 0.45978 0.0
C1449 C 0.26875 0.69712 0.57286 0.0
H1450 H 0.23722 0.71027 0.56368 0.0
C1451 C 0.2312 0.68512 0.69124 0.0
C1452 C 0.2244 0.69421 0.70989 0.0
C1453 C 0.23954 0.68756 0.65858 0.0
C1454 C 0.24608 0.70675 0.56685 0.0
H1455 H 0.29167 0.68055 0.44792 0.0
H1456 H 0.27846 0.68288 0.50959 0.0
H1457 H 0.25044 0.71071 0.49958 0.0
H1458 H 0.2209 0.71301 0.70872 0.0
H1459 H 0.23541 0.71729 0.65011 0.0
H1460 H 0.2642 0.69261 0.6392 0.0
C1461 C 0.27918 0.6901 0.48639 0.0
C1462 C 0.25367 0.707 0.53015 0.0
C1463 C 0.28674 0.68873 0.45056 0.0
C1464 C 0.22617 0.70587 0.69535 0.0
C1465 C 0.23436 0.70829 0.66161 0.0
C1466 C 0.26115 0.69674 0.6091 0.0
C1467 C 0.27264 0.70054 0.49224 0.0
C1468 C 0.265 0.70185 0.53229 0.0
C1469 C 0.24111 0.69912 0.64284 0.0
C1470 C 0.24963 0.70128 0.60628 0.0
H1471 H 0.28191 0.71505 0.3994 0.0
H1472 H 0.26864 0.71759 0.46306 0.0
H1473 H 0.27751 0.6934 0.5764 0.0
H1474 H 0.22997 0.67604 0.70161 0.0
H1475 H 0.24452 0.6803 0.6446 0.0
C1476 C 0.04998 0.46544 0.3991 0.0
C1477 C 0.05063 0.46939 0.44286 0.0
C1478 C 0.04747 0.47326 0.36482 0.0
C1479 C 0.03702 0.50382 0.3383 0.0
H1480 H 0.05511 0.49849 0.23169 0.0
C1481 C 0.04489 0.53966 0.20569 0.0
C1482 C 0.04536 0.53638 0.16107 0.0
C1483 C 0.04347 0.53119 0.23872 0.0
C1484 C 0.04982 0.50001 0.26084 0.0
H1485 H 0.0487 0.48462 0.48523 0.0
H1486 H 0.04459 0.4985 0.42499 0.0
H1487 H 0.05674 0.48465 0.29247 0.0
H1488 H 0.04426 0.52161 0.11608 0.0
H1489 H 0.04185 0.50666 0.17409 0.0
H1490 H 0.03047 0.51947 0.30676 0.0
C1491 C 0.04584 0.48925 0.41721 0.0
C1492 C 0.05074 0.49205 0.29593 0.0
C1493 C 0.0482 0.48132 0.45184 0.0
C1494 C 0.04388 0.52442 0.15011 0.0
C1495 C 0.04261 0.51586 0.18339 0.0
C1496 C 0.03617 0.51185 0.30321 0.0
C1497 C 0.04572 0.48536 0.37303 0.0
C1498 C 0.0444 0.49383 0.33533 0.0
C1499 C 0.04261 0.51914 0.2282 0.0
C1500 C 0.04262 0.51009 0.2641 0.0
H1501 H 0.05163 0.45625 0.39115 0.0
H1502 H 0.04708 0.46979 0.33166 0.0
H1503 H 0.03186 0.50544 0.36768 0.0
H1504 H 0.04595 0.54882 0.21529 0.0
H1505 H 0.04363 0.53406 0.27271 0.0
C1506 C 0.21158 0.30194 0.96174 0.0
C1507 C 0.21434 0.29941 0.91759 0.0
C1508 C 0.21953 0.29931 0.99554 0.0
C1509 C 0.25112 0.29634 0.01648 0.0
H1510 H 0.24113 0.28417 0.12985 0.0
C1511 C 0.28462 0.29253 0.15772 0.0
C1512 C 0.28084 0.29564 0.20015 0.0
C1513 C 0.27647 0.29061 0.12392 0.0
C1514 C 0.24408 0.28769 0.09861 0.0
H1515 H 0.22754 0.29182 0.87447 0.0
H1516 H 0.24165 0.2874 0.93382 0.0
H1517 H 0.22705 0.28511 0.06904 0.0
H1518 H 0.26554 0.29883 0.24101 0.0
H1519 H 0.25118 0.29586 0.18168 0.0
H1520 H 0.26793 0.29949 0.04602 0.0
C1521 C 0.23324 0.29139 0.94209 0.0
C1522 C 0.236 0.28816 0.06361 0.0
C1523 C 0.22516 0.29386 0.90814 0.0
C1524 C 0.26867 0.29626 0.20872 0.0
C1525 C 0.26046 0.29457 0.17454 0.0
C1526 C 0.25915 0.296 0.05152 0.0
C1527 C 0.23056 0.29421 0.98618 0.0
C1528 C 0.2394 0.2926 0.0222 0.0
C1529 C 0.26427 0.29206 0.13124 0.0
C1530 C 0.25576 0.29175 0.09332 0.0
H1531 H 0.20329 0.30615 0.97025 0.0
H1532 H 0.2172 0.3017 0.02894 0.0
H1533 H 0.25399 0.3 0.98531 0.0
H1534 H 0.29397 0.29195 0.15028 0.0
H1535 H 0.27981 0.28831 0.09167 0.0
C1536 C 0.96942 0.05121 0.66872 0.0
C1537 C 0.97056 0.06173 0.64436 0.0
C1538 C 0.97683 0.04899 0.70511 0.0
C1539 C 0.99609 0.06535 0.78397 0.0
H1540 H 0.00992 0.03485 0.8109 0.0
C1541 C 0.03764 0.06131 0.88828 0.0
C1542 C 0.03743 0.05388 0.92543 0.0
C1543 C 0.02868 0.06088 0.85682 0.0
C1544 C 0.00598 0.04337 0.80408 0.0
H1545 H 0.98083 0.07781 0.63782 0.0
H1546 H 0.99373 0.07388 0.69958 0.0
H1547 H 0.99581 0.0367 0.74968 0.0
H1548 H 0.02771 0.0398 0.95745 0.0
H1549 H 0.01199 0.03888 0.90121 0.0
H1550 H 0.00654 0.07213 0.83693 0.0
C1551 C 0.98691 0.06748 0.69198 0.0
C1552 C 0.9979 0.04445 0.76904 0.0
C1553 C 0.97953 0.06971 0.65616 0.0
C1554 C 0.02814 0.04566 0.92934 0.0
C1555 C 0.01917 0.04512 0.89716 0.0
C1556 C 0.00418 0.0643 0.81843 0.0
C1557 C 0.98553 0.05724 0.71773 0.0
C1558 C 0.9931 0.05554 0.75776 0.0
C1559 C 0.01925 0.05292 0.86104 0.0
C1560 C 0.00945 0.05338 0.82828 0.0
H1561 H 0.96259 0.04488 0.66054 0.0
H1562 H 0.9755 0.041 0.72408 0.0
H1563 H 0.99232 0.07397 0.77738 0.0
H1564 H 0.04462 0.06774 0.88378 0.0
H1565 H 0.02908 0.0669 0.82914 0.0
C1566 C 0.20456 0.76846 0.20961 0.0
C1567 C 0.20545 0.7806 0.20054 0.0
C1568 C 0.20593 0.76011 0.17561 0.0
C1569 C 0.20345 0.75879 0.05338 0.0
H1570 H 0.2166 0.72732 0.06488 0.0
C1571 C 0.21213 0.73012 0.9013 0.0
C1572 C 0.20837 0.71827 0.90224 0.0
C1573 C 0.21237 0.73692 0.93968 0.0
C1574 C 0.21282 0.73606 0.0613 0.0
H1575 H 0.20932 0.79349 0.14999 0.0
H1576 H 0.2123 0.7791 0.09174 0.0
H1577 H 0.2165 0.74067 0.12856 0.0
H1578 H 0.20233 0.7042 0.94511 0.0
H1579 H 0.20282 0.71614 0.01253 0.0
H1580 H 0.19986 0.75432 0.98638 0.0
C1581 C 0.21007 0.77591 0.12429 0.0
C1582 C 0.21275 0.74372 0.09781 0.0
C1583 C 0.20852 0.78418 0.15786 0.0
C1584 C 0.20523 0.7133 0.9431 0.0
C1585 C 0.20556 0.72012 0.98178 0.0
C1586 C 0.2036 0.75122 0.01709 0.0
C1587 C 0.20831 0.76377 0.13209 0.0
C1588 C 0.20821 0.75527 0.09417 0.0
C1589 C 0.20892 0.7321 0.98035 0.0
C1590 C 0.2084 0.73981 0.02028 0.0
H1591 H 0.20202 0.76548 0.24214 0.0
H1592 H 0.2045 0.75086 0.183 0.0
H1593 H 0.1995 0.76744 0.04938 0.0
H1594 H 0.21469 0.73427 0.87065 0.0
H1595 H 0.2152 0.74604 0.93742 0.0
C1596 C 0.53331 0.93379 0.20024 0.0
C1597 C 0.53652 0.9426 0.16986 0.0
C1598 C 0.52667 0.9365 0.23751 0.0
C1599 C 0.50547 0.95791 0.28311 0.0
H1600 H 0.51148 0.93993 0.38947 0.0
C1601 C 0.47526 0.95833 0.44162 0.0
C1602 C 0.47124 0.94686 0.45123 0.0
C1603 C 0.48439 0.96007 0.41078 0.0
C1604 C 0.50974 0.94511 0.36019 0.0
H1605 H 0.53526 0.96131 0.15542 0.0
H1606 H 0.52352 0.96611 0.22125 0.0
H1607 H 0.52557 0.93913 0.32894 0.0
H1608 H 0.47386 0.92826 0.43749 0.0
H1609 H 0.48992 0.93124 0.38546 0.0
H1610 H 0.48944 0.96366 0.31469 0.0
C1611 C 0.52619 0.95704 0.21573 0.0
C1612 C 0.51778 0.94461 0.32532 0.0
C1613 C 0.53295 0.95431 0.17815 0.0
C1614 C 0.47674 0.93721 0.4307 0.0
C1615 C 0.48598 0.93891 0.40099 0.0
C1616 C 0.49745 0.95851 0.31839 0.0
C1617 C 0.52299 0.94814 0.24596 0.0
C1618 C 0.51553 0.9506 0.28558 0.0
C1619 C 0.48984 0.95033 0.39023 0.0
C1620 C 0.49931 0.95176 0.35663 0.0
H1621 H 0.53586 0.92466 0.19519 0.0
H1622 H 0.5242 0.92935 0.25932 0.0
H1623 H 0.50344 0.96263 0.25304 0.0
H1624 H 0.47109 0.96593 0.45675 0.0
H1625 H 0.48721 0.96897 0.40303 0.0
C1626 C 0.28985 0.22547 0.70066 0.0
C1627 C 0.30137 0.22328 0.71586 0.0
C1628 C 0.28776 0.23444 0.66947 0.0
C1629 C 0.30076 0.26167 0.62216 0.0
H1630 H 0.28608 0.25259 0.51198 0.0
C1631 C 0.31214 0.28501 0.46125 0.0
C1632 C 0.30362 0.28673 0.42819 0.0
C1633 C 0.30952 0.2786 0.49921 0.0
C1634 C 0.28998 0.25539 0.5428 0.0
H1635 H 0.31961 0.22891 0.71178 0.0
H1636 H 0.31594 0.24472 0.65914 0.0
H1637 H 0.28552 0.23906 0.57495 0.0
H1638 H 0.28548 0.28316 0.40981 0.0
H1639 H 0.28084 0.27181 0.47679 0.0
H1640 H 0.30547 0.27783 0.59023 0.0
C1641 C 0.30851 0.23956 0.67074 0.0
C1642 C 0.28966 0.24762 0.5789 0.0
C1643 C 0.31062 0.23049 0.70089 0.0
C1644 C 0.29224 0.28202 0.43466 0.0
C1645 C 0.28962 0.27546 0.47289 0.0
C1646 C 0.301 0.26944 0.58637 0.0
C1647 C 0.29712 0.24152 0.65391 0.0
C1648 C 0.29541 0.25051 0.61851 0.0
C1649 C 0.29827 0.27364 0.50562 0.0
C1650 C 0.29602 0.26624 0.54563 0.0
H1651 H 0.2826 0.21989 0.71119 0.0
H1652 H 0.27888 0.23575 0.6571 0.0
H1653 H 0.30511 0.26425 0.65242 0.0
H1654 H 0.321 0.28851 0.45765 0.0
H1655 H 0.3165 0.27724 0.52305 0.0
C1656 C 0.02102 0.95598 0.63364 0.0
C1657 C 0.03191 0.95052 0.64299 0.0
C1658 C 0.01295 0.9585 0.66778 0.0
C1659 C 0.01136 0.96105 0.79075 0.0
H1660 H 0.97841 0.95245 0.77736 0.0
C1661 C 0.9826 0.94443 0.93249 0.0
C1662 C 0.97145 0.94955 0.93952 0.0
C1663 C 0.98929 0.94733 0.89545 0.0
C1664 C 0.98754 0.9551 0.78135 0.0
H1665 H 0.0429 0.94372 0.69581 0.0
H1666 H 0.02906 0.9479 0.75402 0.0
H1667 H 0.99148 0.95248 0.71287 0.0
H1668 H 0.95852 0.96174 0.91316 0.0
H1669 H 0.97019 0.96658 0.84678 0.0
H1670 H 0.00762 0.96292 0.85953 0.0
C1671 C 0.02667 0.95043 0.72084 0.0
C1672 C 0.99504 0.95514 0.74441 0.0
C1673 C 0.03462 0.94791 0.6871 0.0
C1674 C 0.96715 0.95776 0.9087 0.0
C1675 C 0.97376 0.96045 0.87071 0.0
C1676 C 0.00394 0.96087 0.82752 0.0
C1677 C 0.01569 0.95571 0.71191 0.0
C1678 C 0.00716 0.95771 0.74893 0.0
C1679 C 0.98491 0.95523 0.86379 0.0
C1680 C 0.99204 0.95756 0.82351 0.0
H1681 H 0.01865 0.95808 0.60002 0.0
H1682 H 0.00459 0.9626 0.65965 0.0
H1683 H 0.02055 0.96341 0.79546 0.0
H1684 H 0.98614 0.93807 0.95566 0.0
H1685 H 0.99779 0.94311 0.89089 0.0
C1686 C 0.29589 0.73677 0.22613 0.0
C1687 C 0.29823 0.72462 0.22229 0.0
C1688 C 0.29426 0.74382 0.18881 0.0
C1689 C 0.30005 0.74489 0.06806 0.0
H1690 H 0.27928 0.77208 0.07506 0.0
C1691 C 0.29379 0.77803 0.92246 0.0
C1692 C 0.29562 0.78987 0.93461 0.0
C1693 C 0.29241 0.76924 0.95481 0.0
C1694 C 0.28511 0.76452 0.07252 0.0
H1695 H 0.30052 0.71032 0.17561 0.0
H1696 H 0.29742 0.72259 0.11025 0.0
H1697 H 0.28008 0.75813 0.13601 0.0
H1698 H 0.29693 0.80186 0.98992 0.0
H1699 H 0.29414 0.7867 0.04597 0.0
H1700 H 0.30503 0.75138 0.00427 0.0
C1701 C 0.29705 0.72673 0.14232 0.0
C1702 C 0.28564 0.75652 0.10766 0.0
C1703 C 0.29876 0.71966 0.17986 0.0
C1704 C 0.29546 0.79282 0.97951 0.0
C1705 C 0.29385 0.78412 0.01166 0.0
C1706 C 0.29941 0.75284 0.03262 0.0
C1707 C 0.29481 0.73895 0.14623 0.0
C1708 C 0.29335 0.74674 0.10655 0.0
C1709 C 0.29258 0.77218 0.99986 0.0
C1710 C 0.29214 0.7629 0.03486 0.0
H1711 H 0.2955 0.74096 0.25814 0.0
H1712 H 0.29284 0.75319 0.19352 0.0
H1713 H 0.30617 0.73756 0.06589 0.0
H1714 H 0.29404 0.77547 0.88813 0.0
H1715 H 0.2914 0.76013 0.94464 0.0
C1716 C 0.53114 0.06041 0.40126 0.0
C1717 C 0.53334 0.05246 0.43586 0.0
C1718 C 0.52432 0.05709 0.36508 0.0
C1719 C 0.50021 0.03736 0.334 0.0
H1720 H 0.50709 0.04914 0.21688 0.0
C1721 C 0.47734 0.04168 0.14855 0.0
C1722 C 0.46635 0.04627 0.16167 0.0
C1723 C 0.48621 0.03948 0.17989 0.0
C1724 C 0.50509 0.04559 0.24913 0.0
H1725 H 0.53029 0.03461 0.45892 0.0
H1726 H 0.5181 0.0288 0.39551 0.0
H1727 H 0.52196 0.05075 0.2747 0.0
H1728 H 0.45581 0.05146 0.218 0.0
H1729 H 0.47109 0.04754 0.27219 0.0
H1730 H 0.48319 0.03253 0.30875 0.0
C1731 C 0.52175 0.03764 0.3966 0.0
C1732 C 0.51358 0.04662 0.28244 0.0
C1733 C 0.52877 0.04093 0.43278 0.0
C1734 C 0.4642 0.04797 0.20677 0.0
C1735 C 0.47296 0.04564 0.23797 0.0
C1736 C 0.49168 0.03639 0.30074 0.0
C1737 C 0.51936 0.04574 0.36248 0.0
C1738 C 0.51113 0.04284 0.32562 0.0
C1739 C 0.48418 0.04164 0.22496 0.0
C1740 C 0.49389 0.0408 0.25818 0.0
H1741 H 0.53457 0.06934 0.40238 0.0
H1742 H 0.52255 0.06362 0.33984 0.0
H1743 H 0.49799 0.03439 0.36686 0.0
H1744 H 0.47927 0.04033 0.11401 0.0
H1745 H 0.49474 0.03633 0.16878 0.0
C1746 C 0.20476 0.2085 0.47665 0.0
C1747 C 0.20497 0.21152 0.43181 0.0
C1748 C 0.20637 0.21711 0.50908 0.0
C1749 C 0.20159 0.24853 0.53006 0.0
H1750 H 0.21995 0.24243 0.63528 0.0
C1751 C 0.20248 0.28139 0.67821 0.0
C1752 C 0.20243 0.2763 0.72048 0.0
C1753 C 0.20415 0.27433 0.64063 0.0
C1754 C 0.21467 0.24426 0.60637 0.0
H1755 H 0.20723 0.22595 0.38576 0.0
H1756 H 0.20989 0.24113 0.44277 0.0
H1757 H 0.22078 0.22858 0.57405 0.0
H1758 H 0.20402 0.25975 0.75604 0.0
H1759 H 0.20662 0.24756 0.69128 0.0
H1760 H 0.19509 0.26397 0.56302 0.0
C1761 C 0.20857 0.23203 0.45267 0.0
C1762 C 0.21521 0.23632 0.5711 0.0
C1763 C 0.20717 0.22334 0.42005 0.0
C1764 C 0.20409 0.26403 0.72416 0.0
C1765 C 0.20569 0.25701 0.68679 0.0
C1766 C 0.20095 0.25643 0.5656 0.0
C1767 C 0.20803 0.22903 0.49762 0.0
C1768 C 0.20852 0.23823 0.53281 0.0
C1769 C 0.20578 0.26202 0.64439 0.0
C1770 C 0.20729 0.25428 0.6047 0.0
H1771 H 0.20303 0.19949 0.48676 0.0
H1772 H 0.2058 0.21449 0.5433 0.0
H1773 H 0.19624 0.25021 0.50119 0.0
H1774 H 0.20125 0.29081 0.67412 0.0
H1775 H 0.20426 0.27856 0.60868 0.0
C1776 C 0.98436 0.91082 0.14974 0.0
C1777 C 0.97503 0.9189 0.15262 0.0
C1778 C 0.98837 0.90496 0.18737 0.0
C1779 C 0.98293 0.90229 0.30955 0.0
H1780 H 0.01715 0.90335 0.31294 0.0
C1781 C 0.01164 0.91948 0.45043 0.0
C1782 C 0.02175 0.91306 0.46219 0.0
C1783 C 0.00437 0.9155 0.4165 0.0
C1784 C 0.00759 0.90273 0.31236 0.0
H1785 H 0.96218 0.92692 0.19596 0.0
H1786 H 0.96946 0.91736 0.26188 0.0
H1787 H 0.00712 0.90459 0.24283 0.0
H1788 H 0.03205 0.89731 0.44921 0.0
H1789 H 0.01952 0.89056 0.38838 0.0
H1790 H 0.98363 0.90175 0.3801 0.0
C1791 C 0.97349 0.91501 0.2308 0.0
C1792 C 0.00178 0.90338 0.27204 0.0
C1793 C 0.96932 0.9206 0.19302 0.0
C1794 C 0.02423 0.90234 0.44082 0.0
C1795 C 0.0171 0.89849 0.4062 0.0
C1796 C 0.98877 0.90195 0.35002 0.0
C1797 C 0.98334 0.90742 0.22881 0.0
C1798 C 0.98935 0.90371 0.27017 0.0
C1799 C 0.00725 0.90517 0.39329 0.0
C1800 C 0.00112 0.9026 0.35166 0.0
H1801 H 0.98878 0.90935 0.11861 0.0
H1802 H 0.99575 0.89894 0.18421 0.0
H1803 H 0.97337 0.90212 0.30942 0.0
H1804 H 0.00959 0.92773 0.46672 0.0
H1805 H 0.9969 0.92088 0.40661 0.0
C1806 C 0.8387 0.22225 0.92953 0.0
C1807 C 0.83083 0.22331 0.89414 0.0
C1808 C 0.84142 0.23202 0.95534 0.0
C1809 C 0.82718 0.25933 0.98993 0.0
H1810 H 0.8549 0.26079 0.06479 0.0
C1811 C 0.82694 0.28532 0.15131 0.0
C1812 C 0.82906 0.27777 0.18732 0.0
C1813 C 0.82995 0.28185 0.10876 0.0
C1814 C 0.84719 0.2606 0.04369 0.0
H1815 H 0.82046 0.23554 0.85532 0.0
H1816 H 0.82536 0.2528 0.90011 0.0
H1817 H 0.85554 0.24923 0.99695 0.0
H1818 H 0.83657 0.26093 0.20683 0.0
H1819 H 0.84194 0.25496 0.13251 0.0
H1820 H 0.81873 0.27039 0.03741 0.0
C1821 C 0.82919 0.24434 0.90865 0.0
C1822 C 0.84751 0.25397 0.00503 0.0
C1823 C 0.82636 0.23449 0.88309 0.0
C1824 C 0.83484 0.26697 0.17999 0.0
C1825 C 0.83798 0.26357 0.13746 0.0
C1826 C 0.82693 0.26611 0.02814 0.0
C1827 C 0.83641 0.24312 0.94605 0.0
C1828 C 0.83729 0.25272 0.97908 0.0
C1829 C 0.83531 0.27088 0.10146 0.0
C1830 C 0.83672 0.2663 0.0564 0.0
H1831 H 0.84221 0.21372 0.93897 0.0
H1832 H 0.84683 0.23065 0.98428 0.0
H1833 H 0.81911 0.25853 0.97108 0.0
H1834 H 0.82285 0.29387 0.15568 0.0
H1835 H 0.82787 0.28764 0.08144 0.0
C1836 C 0.51721 0.09116 0.64568 0.0
C1837 C 0.52721 0.08393 0.64966 0.0
C1838 C 0.5119 0.09597 0.68305 0.0
C1839 C 0.51391 0.09757 0.80607 0.0
H1840 H 0.48116 0.08773 0.79822 0.0
C1841 C 0.47825 0.07273 0.91953 0.0
C1842 C 0.47731 0.0798 0.95737 0.0
C1843 C 0.48409 0.07686 0.88232 0.0
C1844 C 0.49024 0.09066 0.80085 0.0
H1845 H 0.54019 0.07693 0.69501 0.0
H1846 H 0.53081 0.08498 0.76037 0.0
H1847 H 0.49268 0.08992 0.73152 0.0
H1848 H 0.48201 0.0968 0.98558 0.0
H1849 H 0.49257 0.10387 0.92047 0.0
H1850 H 0.51151 0.09743 0.87612 0.0
C1851 C 0.52713 0.08721 0.72854 0.0
C1852 C 0.49684 0.09207 0.76257 0.0
C1853 C 0.53252 0.08254 0.69106 0.0
C1854 C 0.48262 0.09106 0.95724 0.0
C1855 C 0.48861 0.09516 0.91995 0.0
C1856 C 0.50725 0.09618 0.84454 0.0
C1857 C 0.5164 0.09342 0.72513 0.0
C1858 C 0.50889 0.09504 0.76476 0.0
C1859 C 0.48926 0.08813 0.88204 0.0
C1860 C 0.49553 0.09218 0.84217 0.0
H1861 H 0.51309 0.09246 0.61389 0.0
H1862 H 0.5038 0.10097 0.67923 0.0
H1863 H 0.52313 0.10002 0.80879 0.0
H1864 H 0.47459 0.06391 0.91858 0.0
H1865 H 0.48472 0.07115 0.85383 0.0
C1866 C 0.66379 0.77976 0.44216 0.0
C1867 C 0.67525 0.78367 0.43196 0.0
C1868 C 0.66118 0.7755 0.48426 0.0
C1869 C 0.67316 0.77415 0.5982 0.0
H1870 H 0.65726 0.74384 0.6029 0.0
C1871 C 0.68372 0.73816 0.72326 0.0
C1872 C 0.67442 0.73177 0.74228 0.0
C1873 C 0.68143 0.74661 0.69107 0.0
C1874 C 0.66148 0.75242 0.60229 0.0
H1875 H 0.69297 0.78607 0.45768 0.0
H1876 H 0.68851 0.7786 0.53036 0.0
H1877 H 0.6574 0.75501 0.53429 0.0
H1878 H 0.65545 0.72925 0.74338 0.0
H1879 H 0.65143 0.74395 0.68599 0.0
H1880 H 0.67792 0.77112 0.66544 0.0
C1881 C 0.68141 0.77911 0.50653 0.0
C1882 C 0.66155 0.75884 0.56305 0.0
C1883 C 0.68399 0.78337 0.46471 0.0
C1884 C 0.66275 0.73415 0.72933 0.0
C1885 C 0.66046 0.74249 0.69653 0.0
C1886 C 0.67319 0.76768 0.63723 0.0
C1887 C 0.67001 0.77506 0.51677 0.0
C1888 C 0.6678 0.76954 0.56017 0.0
C1889 C 0.6698 0.7487 0.67692 0.0
C1890 C 0.66772 0.75658 0.63907 0.0
H1891 H 0.65686 0.78001 0.41766 0.0
H1892 H 0.6523 0.77248 0.49128 0.0
H1893 H 0.67781 0.78251 0.59724 0.0
H1894 H 0.69278 0.73651 0.73302 0.0
H1895 H 0.6888 0.75119 0.67601 0.0
C1896 C 0.03272 0.07495 0.188 0.0
C1897 C 0.02923 0.0798 0.1474 0.0
C1898 C 0.02684 0.07799 0.22669 0.0
C1899 C 0.99812 0.08928 0.26413 0.0
H1900 H 0.01381 0.09039 0.37755 0.0
C1901 C 0.97155 0.0958 0.42138 0.0
C1902 C 0.97338 0.08684 0.45266 0.0
C1903 C 0.97961 0.09752 0.38732 0.0
C1904 C 0.00935 0.09015 0.34603 0.0
H1905 H 0.01697 0.09196 0.11624 0.0
H1906 H 0.00703 0.09757 0.18383 0.0
H1907 H 0.02559 0.08872 0.31038 0.0
H1908 H 0.98558 0.07335 0.47499 0.0
H1909 H 0.99962 0.07624 0.41495 0.0
H1910 H 0.9819 0.09053 0.29967 0.0
C1911 C 0.01416 0.0912 0.18554 0.0
C1912 C 0.01606 0.08914 0.30764 0.0
C1913 C 0.01995 0.08806 0.14676 0.0
C1914 C 0.98385 0.08018 0.45091 0.0
C1915 C 0.99194 0.08193 0.41687 0.0
C1916 C 0.99145 0.0904 0.30237 0.0
C1917 C 0.01741 0.08605 0.22585 0.0
C1918 C 0.01049 0.08844 0.26632 0.0
C1919 C 0.98967 0.09034 0.38396 0.0
C1920 C 0.99697 0.09063 0.3437 0.0
H1921 H 0.03997 0.06876 0.19017 0.0
H1922 H 0.0295 0.07375 0.25706 0.0
H1923 H 0.99352 0.08854 0.23302 0.0
H1924 H 0.96356 0.10106 0.4216 0.0
H1925 H 0.97773 0.10415 0.36257 0.0
C1926 C 0.67937 0.27379 0.95386 0.0
C1927 C 0.67151 0.27502 0.91847 0.0
C1928 C 0.6756 0.2689 0.99343 0.0
C1929 C 0.66401 0.26444 0.08059 0.0
H1930 H 0.64831 0.23401 0.07887 0.0
C1931 C 0.66137 0.23718 0.23746 0.0
C1932 C 0.66583 0.2257 0.23156 0.0
C1933 C 0.65775 0.24386 0.20126 0.0
C1934 C 0.65259 0.24257 0.0799 0.0
H1935 H 0.65349 0.27204 0.89682 0.0
H1936 H 0.64692 0.26326 0.9662 0.0
H1937 H 0.65095 0.24494 0.01027 0.0
H1938 H 0.66885 0.21181 0.18372 0.0
H1939 H 0.66302 0.22354 0.12064 0.0
H1940 H 0.66647 0.26177 0.14937 0.0
C1941 C 0.65601 0.26613 0.96306 0.0
C1942 C 0.65401 0.24886 0.04071 0.0
C1943 C 0.65979 0.27109 0.92333 0.0
C1944 C 0.66577 0.22074 0.18922 0.0
C1945 C 0.6622 0.22741 0.15308 0.0
C1946 C 0.66263 0.25816 0.11964 0.0
C1947 C 0.66388 0.26509 0.99857 0.0
C1948 C 0.6602 0.2596 0.04052 0.0
C1949 C 0.65855 0.23919 0.15851 0.0
C1950 C 0.65735 0.24693 0.11943 0.0
H1951 H 0.68851 0.27649 0.9509 0.0
H1952 H 0.68196 0.2679 0.01983 0.0
H1953 H 0.66861 0.27283 0.08143 0.0
H1954 H 0.66126 0.24124 0.26969 0.0
H1955 H 0.65481 0.25286 0.20653 0.0
C1956 C 0.52452 0.90855 0.93042 0.0
C1957 C 0.53224 0.91819 0.93324 0.0
C1958 C 0.52005 0.90501 0.88972 0.0
C1959 C 0.52179 0.91098 0.7684 0.0
H1960 H 0.48803 0.90544 0.77517 0.0
C1961 C 0.48799 0.92462 0.6366 0.0
C1962 C 0.47842 0.91706 0.62825 0.0
C1963 C 0.49635 0.92171 0.66855 0.0
C1964 C 0.4975 0.90673 0.77263 0.0
H1965 H 0.54175 0.93145 0.89614 0.0
H1966 H 0.53362 0.92568 0.82532 0.0
H1967 H 0.49965 0.9056 0.84205 0.0
H1968 H 0.47035 0.90031 0.64541 0.0
H1969 H 0.48491 0.89528 0.70161 0.0
H1970 H 0.51929 0.91297 0.69882 0.0
C1971 C 0.53127 0.92052 0.85399 0.0
C1972 C 0.5042 0.90677 0.81104 0.0
C1973 C 0.53591 0.92388 0.89461 0.0
C1974 C 0.47766 0.90628 0.65099 0.0
C1975 C 0.48595 0.90342 0.68325 0.0
C1976 C 0.51502 0.91111 0.72995 0.0
C1977 C 0.52299 0.91127 0.8512 0.0
C1978 C 0.51639 0.90922 0.80961 0.0
C1979 C 0.49521 0.91124 0.693 0.0
C1980 C 0.50277 0.90926 0.73194 0.0
H1981 H 0.5217 0.90399 0.95995 0.0
H1982 H 0.51393 0.89766 0.88872 0.0
H1983 H 0.53119 0.91266 0.76595 0.0
H1984 H 0.48884 0.93291 0.61911 0.0
H1985 H 0.50335 0.92794 0.67571 0.0
C1986 C 0.82519 0.73761 0.39879 0.0
C1987 C 0.83226 0.72784 0.38826 0.0
C1988 C 0.82819 0.74491 0.43392 0.0
C1989 C 0.84163 0.74317 0.54043 0.0
H1990 H 0.8382 0.77725 0.53897 0.0
C1991 C 0.8403 0.77093 0.7002 0.0
C1992 C 0.83124 0.77943 0.7013 0.0
C1993 C 0.84318 0.76523 0.66083 0.0
C1994 C 0.83918 0.76773 0.5399 0.0
H1995 H 0.84816 0.71818 0.40509 0.0
H1996 H 0.85333 0.7309 0.46739 0.0
H1997 H 0.83853 0.76636 0.46968 0.0
H1998 H 0.81831 0.78877 0.66147 0.0
H1999 H 0.82298 0.77857 0.59389 0.0
H2000 H 0.84153 0.74441 0.61062 0.0
C2001 C 0.84554 0.73293 0.44809 0.0
C2002 C 0.83944 0.76154 0.5003 0.0
C2003 C 0.84263 0.72573 0.41244 0.0
C2004 C 0.82517 0.78212 0.66223 0.0
C2005 C 0.82802 0.77643 0.62311 0.0
C2006 C 0.84125 0.74935 0.58011 0.0
C2007 C 0.83823 0.74247 0.45948 0.0
C2008 C 0.84028 0.74918 0.50033 0.0
C2009 C 0.83708 0.76796 0.62186 0.0
C2010 C 0.8396 0.76166 0.58024 0.0
H2011 H 0.81721 0.73942 0.38035 0.0
H2012 H 0.82234 0.75214 0.44238 0.0
H2013 H 0.84219 0.73361 0.54125 0.0
H2014 H 0.8451 0.76865 0.72978 0.0
H2015 H 0.85022 0.75875 0.66084 0.0
C2016 C 0.52234 0.54439 0.45334 0.0
C2017 C 0.53296 0.55029 0.44354 0.0
C2018 C 0.51409 0.54194 0.41984 0.0
C2019 C 0.51103 0.54112 0.29674 0.0
H2020 H 0.47817 0.54884 0.31858 0.0
C2021 C 0.48 0.55935 0.16474 0.0
C2022 C 0.46872 0.55437 0.15942 0.0
C2023 C 0.48729 0.55592 0.19949 0.0
C2024 C 0.48728 0.54644 0.31216 0.0
H2025 H 0.54341 0.55778 0.39061 0.0
H2026 H 0.52924 0.55367 0.3332 0.0
H2027 H 0.49213 0.54805 0.38017 0.0
H2028 H 0.45622 0.54183 0.18632 0.0
H2029 H 0.46896 0.53606 0.24882 0.0
H2030 H 0.50632 0.54028 0.22851 0.0
C2031 C 0.52719 0.55077 0.36628 0.0
C2032 C 0.49529 0.54596 0.34746 0.0
C2033 C 0.53533 0.55323 0.39949 0.0
C2034 C 0.46491 0.54574 0.18954 0.0
C2035 C 0.47215 0.5425 0.2253 0.0
C2036 C 0.50308 0.54175 0.2616 0.0
C2037 C 0.51636 0.54524 0.37585 0.0
C2038 C 0.50738 0.54369 0.34001 0.0
C2039 C 0.48343 0.54759 0.23055 0.0
C2040 C 0.49119 0.54475 0.26871 0.0
H2041 H 0.52022 0.54207 0.48699 0.0
H2042 H 0.50589 0.5376 0.42847 0.0
H2043 H 0.52018 0.53902 0.2897 0.0
H2044 H 0.48319 0.566 0.14199 0.0
H2045 H 0.49587 0.56007 0.20281 0.0
C2046 C 0.70509 0.27264 0.71629 0.0
C2047 C 0.70358 0.28456 0.70481 0.0
C2048 C 0.70696 0.26405 0.68354 0.0
C2049 C 0.70248 0.25993 0.56211 0.0
H2050 H 0.71832 0.2301 0.58291 0.0
C2051 C 0.70536 0.22405 0.4264 0.0
C2052 C 0.70128 0.21292 0.44013 0.0
C2053 C 0.70801 0.23285 0.45755 0.0
C2054 C 0.71389 0.23841 0.57655 0.0
H2055 H 0.70368 0.29696 0.6506 0.0
H2056 H 0.70764 0.28228 0.59418 0.0
H2057 H 0.71867 0.24539 0.63963 0.0
H2058 H 0.6975 0.20206 0.4971 0.0
H2059 H 0.70241 0.2172 0.5511 0.0
H2060 H 0.69772 0.25292 0.49907 0.0
C2061 C 0.70684 0.27933 0.62792 0.0
C2062 C 0.71401 0.24718 0.60926 0.0
C2063 C 0.70473 0.28782 0.66042 0.0
C2064 C 0.70065 0.21054 0.4855 0.0
C2065 C 0.7035 0.21923 0.5165 0.0
C2066 C 0.7025 0.25124 0.5293 0.0
C2067 C 0.70756 0.26723 0.6386 0.0
C2068 C 0.70817 0.25805 0.60284 0.0
C2069 C 0.70685 0.23062 0.50301 0.0
C2070 C 0.70805 0.24029 0.53625 0.0
H2071 H 0.7041 0.26986 0.75021 0.0
H2072 H 0.70736 0.25488 0.69341 0.0
H2073 H 0.69761 0.26798 0.55586 0.0
H2074 H 0.7058 0.22619 0.39169 0.0
H2075 H 0.71065 0.24151 0.44605 0.0
C2076 C 0.98028 0.45745 0.95403 0.0
C2077 C 0.97062 0.44998 0.94537 0.0
C2078 C 0.98861 0.45996 0.92076 0.0
C2079 C 0.99228 0.45855 0.79849 0.0
H2080 H 0.02578 0.45521 0.82194 0.0
C2081 C 0.02521 0.44137 0.67164 0.0
C2082 C 0.03546 0.44795 0.66271 0.0
C2083 C 0.01776 0.44444 0.7064 0.0
C2084 C 0.01647 0.45639 0.81506 0.0
H2085 H 0.96209 0.43951 0.89462 0.0
H2086 H 0.97636 0.44375 0.83796 0.0
H2087 H 0.01169 0.45555 0.88346 0.0
H2088 H 0.04599 0.46292 0.68349 0.0
H2089 H 0.033 0.4681 0.74599 0.0
H2090 H 0.99695 0.45861 0.73017 0.0
C2091 C 0.97756 0.44784 0.86986 0.0
C2092 C 0.00839 0.45661 0.85026 0.0
C2093 C 0.96938 0.4453 0.90276 0.0
C2094 C 0.0381 0.45774 0.68949 0.0
C2095 C 0.03073 0.46065 0.72527 0.0
C2096 C 1.0003 0.45821 0.76354 0.0
C2097 C 0.98732 0.45517 0.87816 0.0
C2098 C 0.99614 0.45724 0.84226 0.0
C2099 C 0.02046 0.45403 0.73386 0.0
C2100 C 0.01243 0.45675 0.77131 0.0
H2101 H 0.98151 0.46117 0.98653 0.0
H2102 H 0.99602 0.46566 0.92831 0.0
H2103 H 0.98296 0.45936 0.79103 0.0
H2104 H 0.02289 0.43382 0.65154 0.0
H2105 H 0.00996 0.43913 0.71236 0.0
C2106 C 0.81017 0.7248 0.17141 0.0
C2107 C 0.80137 0.72245 0.20293 0.0
C2108 C 0.80887 0.73389 0.14086 0.0
C2109 C 0.78782 0.75199 0.08001 0.0
H2110 H 0.81543 0.77163 0.06124 0.0
C2111 C 0.79698 0.77953 0.92003 0.0
C2112 C 0.80378 0.78984 0.92442 0.0
C2113 C 0.79436 0.77255 0.95719 0.0
C2114 C 0.80753 0.76641 0.06623 0.0
H2115 H 0.78415 0.7279 0.22656 0.0
H2116 H 0.78177 0.74393 0.17202 0.0
H2117 H 0.8153 0.75744 0.12099 0.0
H2118 H 0.81239 0.80143 0.97097 0.0
H2119 H 0.80745 0.78969 0.03553 0.0
H2120 H 0.78017 0.7609 0.02429 0.0
C2121 C 0.78973 0.73862 0.17154 0.0
C2122 C 0.80751 0.75816 0.10042 0.0
C2123 C 0.79112 0.72951 0.2029 0.0
C2124 C 0.80715 0.7935 0.9667 0.0
C2125 C 0.80442 0.78668 0.00365 0.0
C2126 C 0.78786 0.76026 0.04534 0.0
C2127 C 0.79867 0.74094 0.14038 0.0
C2128 C 0.79777 0.75069 0.10737 0.0
C2129 C 0.79846 0.77582 0.99933 0.0
C2130 C 0.79778 0.76751 0.03772 0.0
H2131 H 0.8182 0.7196 0.17027 0.0
H2132 H 0.81586 0.73531 0.1171 0.0
H2133 H 0.78021 0.74631 0.08433 0.0
H2134 H 0.79442 0.77643 0.88769 0.0
H2135 H 0.78979 0.76425 0.95245 0.0
C2136 C 0.5233 0.45769 0.16381 0.0
C2137 C 0.53393 0.45163 0.17194 0.0
C2138 C 0.51512 0.4596 0.19809 0.0
C2139 C 0.51251 0.4588 0.32124 0.0
H2140 H 0.47949 0.45174 0.30001 0.0
C2141 C 0.48151 0.44161 0.45613 0.0
C2142 C 0.47007 0.44632 0.4599 0.0
C2143 C 0.48884 0.44474 0.42103 0.0
C2144 C 0.48865 0.45393 0.30635 0.0
H2145 H 0.54449 0.44331 0.22282 0.0
H2146 H 0.53046 0.44652 0.2815 0.0
H2147 H 0.49325 0.45296 0.2379 0.0
H2148 H 0.45736 0.4581 0.42955 0.0
H2149 H 0.47018 0.46338 0.36709 0.0
H2150 H 0.50805 0.45917 0.38974 0.0
C2151 C 0.52833 0.44992 0.24916 0.0
C2152 C 0.49655 0.45466 0.27073 0.0
C2153 C 0.53638 0.44797 0.21518 0.0
C2154 C 0.46616 0.45438 0.42774 0.0
C2155 C 0.47346 0.45734 0.39187 0.0
C2156 C 0.50468 0.45795 0.3567 0.0
C2157 C 0.5175 0.45563 0.24123 0.0
C2158 C 0.50868 0.45675 0.27783 0.0
C2159 C 0.48489 0.45253 0.38816 0.0
C2160 C 0.49272 0.45518 0.34985 0.0
H2161 H 0.52113 0.46058 0.13082 0.0
H2162 H 0.50691 0.46411 0.19076 0.0
H2163 H 0.5217 0.46075 0.32807 0.0
H2164 H 0.4848 0.43539 0.48031 0.0
H2165 H 0.49754 0.44078 0.41897 0.0
C2166 C 0.81118 0.23122 0.71022 0.0
C2167 C 0.80432 0.221 0.71646 0.0
C2168 C 0.80886 0.23897 0.67546 0.0
C2169 C 0.797 0.24061 0.56395 0.0
H2170 H 0.798 0.27436 0.58527 0.0
C2171 C 0.79592 0.27571 0.42137 0.0
C2172 C 0.80407 0.28501 0.42628 0.0
C2173 C 0.7937 0.26785 0.45646 0.0
C2174 C 0.79776 0.26497 0.57852 0.0
H2175 H 0.78959 0.21092 0.69081 0.0
H2176 H 0.78566 0.22444 0.62895 0.0
H2177 H 0.79832 0.26071 0.64717 0.0
H2178 H 0.81606 0.29339 0.47245 0.0
H2179 H 0.81233 0.27989 0.53231 0.0
H2180 H 0.79698 0.2449 0.49505 0.0
C2181 C 0.79278 0.22646 0.65154 0.0
C2182 C 0.79789 0.25713 0.61414 0.0
C2183 C 0.79497 0.21877 0.6871 0.0
C2184 C 0.80972 0.28637 0.4672 0.0
C2185 C 0.80749 0.27863 0.50196 0.0
C2186 C 0.79698 0.24848 0.52807 0.0
C2187 C 0.79972 0.23666 0.64535 0.0
C2188 C 0.79784 0.24485 0.60738 0.0
C2189 C 0.7995 0.26921 0.49729 0.0
C2190 C 0.79771 0.26078 0.53487 0.0
H2191 H 0.81845 0.23321 0.73219 0.0
H2192 H 0.81446 0.24665 0.67148 0.0
H2193 H 0.79699 0.2312 0.5576 0.0
H2194 H 0.79145 0.27438 0.39028 0.0
H2195 H 0.78745 0.26073 0.45165 0.0
C2196 C 0.02751 0.54561 0.93215 0.0
C2197 C 0.03162 0.55727 0.93664 0.0
C2198 C 0.02046 0.5424 0.89595 0.0
C2199 C 0.01189 0.552 0.78324 0.0
H2200 H 0.98207 0.53645 0.80723 0.0
C2201 C 0.96277 0.55138 0.70455 0.0
C2202 C 0.96529 0.55005 0.65952 0.0
C2203 C 0.97146 0.5493 0.73633 0.0
C2204 C 0.9904 0.54073 0.79989 0.0
H2205 H 0.03195 0.57454 0.9057 0.0
H2206 H 0.0199 0.56896 0.84304 0.0
H2207 H 0.99667 0.53856 0.86604 0.0
H2208 H 0.97879 0.54503 0.61262 0.0
H2209 H 0.99408 0.54146 0.66834 0.0
H2210 H 0.00546 0.55463 0.7177 0.0
C2211 C 0.02204 0.56227 0.86725 0.0
C2212 C 0.99881 0.54185 0.83352 0.0
C2213 C 0.02889 0.5655 0.90349 0.0
C2214 C 0.97657 0.54607 0.64707 0.0
C2215 C 0.98534 0.54413 0.67897 0.0
C2216 C 0.00353 0.55081 0.74956 0.0
C2217 C 0.0176 0.55074 0.86317 0.0
C2218 C 0.00951 0.54782 0.82595 0.0
C2219 C 0.98295 0.54595 0.72398 0.0
C2220 C 0.99253 0.54546 0.75777 0.0
H2221 H 0.02945 0.53907 0.95716 0.0
H2222 H 0.0172 0.53342 0.89367 0.0
H2223 H 0.0201 0.55653 0.77616 0.0
H2224 H 0.95416 0.5544 0.71528 0.0
H2225 H 0.9693 0.55093 0.77052 0.0
C2226 C 0.70331 0.70753 0.97513 0.0
C2227 C 0.70363 0.71105 0.93084 0.0
C2228 C 0.7044 0.71581 0.009 0.0
C2229 C 0.71212 0.74721 0.03544 0.0
H2230 H 0.69201 0.741 0.13614 0.0
C2231 C 0.70373 0.78094 0.17908 0.0
C2232 C 0.70414 0.77618 0.22188 0.0
C2233 C 0.70417 0.77352 0.14199 0.0
C2234 C 0.69776 0.74285 0.10846 0.0
H2235 H 0.70578 0.72603 0.8873 0.0
H2236 H 0.70745 0.74064 0.94659 0.0
H2237 H 0.69221 0.72725 0.07489 0.0
H2238 H 0.70542 0.75983 0.25887 0.0
H2239 H 0.70605 0.74701 0.19472 0.0
H2240 H 0.71742 0.76303 0.06935 0.0
C2241 C 0.70655 0.73141 0.95523 0.0
C2242 C 0.69793 0.7349 0.07324 0.0
C2243 C 0.70563 0.72303 0.92114 0.0
C2244 C 0.70506 0.76385 0.22656 0.0
C2245 C 0.70536 0.75646 0.18967 0.0
C2246 C 0.71185 0.75526 0.07071 0.0
C2247 C 0.7056 0.72794 0.99972 0.0
C2248 C 0.70526 0.73682 0.03643 0.0
C2249 C 0.70486 0.76117 0.14688 0.0
C2250 C 0.70479 0.75308 0.10797 0.0
H2251 H 0.70189 0.69835 0.98372 0.0
H2252 H 0.70402 0.71268 0.04264 0.0
H2253 H 0.71791 0.74902 0.00789 0.0
H2254 H 0.70305 0.7904 0.1742 0.0
H2255 H 0.70371 0.77743 0.10951 0.0
C2256 C 0.52019 0.41233 0.94 0.0
C2257 C 0.5253 0.4236 0.9443 0.0
C2258 C 0.51555 0.40866 0.89973 0.0
C2259 C 0.51499 0.4154 0.78075 0.0
H2260 H 0.48226 0.40556 0.7883 0.0
C2261 C 0.48091 0.42513 0.64748 0.0
C2262 C 0.47094 0.41782 0.64299 0.0
C2263 C 0.48956 0.42256 0.67867 0.0
C2264 C 0.49148 0.40796 0.78531 0.0
H2265 H 0.5297 0.43974 0.90939 0.0
H2266 H 0.52165 0.43332 0.8393 0.0
H2267 H 0.49395 0.40705 0.85487 0.0
H2268 H 0.46284 0.40149 0.66549 0.0
H2269 H 0.47811 0.39684 0.71868 0.0
H2270 H 0.51238 0.41673 0.7112 0.0
C2271 C 0.5214 0.42726 0.8669 0.0
C2272 C 0.49818 0.40884 0.8236 0.0
C2273 C 0.52597 0.43096 0.90716 0.0
C2274 C 0.47033 0.40739 0.66802 0.0
C2275 C 0.47905 0.40475 0.69889 0.0
C2276 C 0.50832 0.41444 0.74232 0.0
C2277 C 0.51601 0.41615 0.86296 0.0
C2278 C 0.50984 0.41299 0.82182 0.0
C2279 C 0.48852 0.41254 0.70573 0.0
C2280 C 0.49635 0.41115 0.74443 0.0
H2281 H 0.51975 0.40634 0.96767 0.0
H2282 H 0.5115 0.40002 0.89742 0.0
H2283 H 0.52405 0.41845 0.77853 0.0
H2284 H 0.48188 0.43305 0.62794 0.0
H2285 H 0.49671 0.4288 0.68317 0.0
C2286 C 0.33699 0.7705 0.71955 0.0
C2287 C 0.32578 0.77583 0.72126 0.0
C2288 C 0.34089 0.76504 0.68097 0.0
C2289 C 0.34274 0.74761 0.60438 0.0
H2290 H 0.33384 0.76133 0.49227 0.0
C2291 C 0.33374 0.72027 0.45047 0.0
C2292 C 0.33513 0.72537 0.40864 0.0
C2293 C 0.33641 0.72669 0.48828 0.0
C2294 C 0.33667 0.75746 0.5231 0.0
H2295 H 0.30975 0.77934 0.68445 0.0
H2296 H 0.31648 0.76978 0.61745 0.0
H2297 H 0.33106 0.77263 0.55929 0.0
H2298 H 0.34139 0.7409 0.37378 0.0
H2299 H 0.34637 0.75197 0.43972 0.0
H2300 H 0.3482 0.73236 0.56808 0.0
C2301 C 0.3224 0.77007 0.64545 0.0
C2302 C 0.33491 0.76388 0.56159 0.0
C2303 C 0.31852 0.77551 0.68387 0.0
C2304 C 0.34014 0.7367 0.4054 0.0
C2305 C 0.34291 0.74309 0.44324 0.0
C2306 C 0.34457 0.74119 0.56575 0.0
C2307 C 0.33365 0.76484 0.64349 0.0
C2308 C 0.33747 0.75884 0.60269 0.0
C2309 C 0.34065 0.73833 0.48509 0.0
C2310 C 0.34113 0.74588 0.52486 0.0
H2311 H 0.34284 0.77074 0.74769 0.0
H2312 H 0.34962 0.76111 0.68028 0.0
H2313 H 0.34482 0.74351 0.63563 0.0
H2314 H 0.33022 0.71144 0.45422 0.0
H2315 H 0.33449 0.72275 0.51995 0.0
C2316 C 0.97759 0.57745 0.40671 0.0
C2317 C 0.97798 0.58332 0.44736 0.0
C2318 C 0.98298 0.58236 0.36979 0.0
C2319 C 0.00696 0.60185 0.33723 0.0
H2320 H 0.9928 0.59689 0.22268 0.0
C2321 C 0.01773 0.5967 0.13959 0.0
C2322 C 0.02759 0.58935 0.14515 0.0
C2323 C 0.01242 0.60202 0.17596 0.0
C2324 C 0.99686 0.59873 0.25419 0.0
H2325 H 0.98413 0.59913 0.48074 0.0
H2326 H 0.99373 0.6076 0.41611 0.0
H2327 H 0.98098 0.59419 0.28818 0.0
H2328 H 0.04043 0.58276 0.19176 0.0
H2329 H 0.03099 0.59158 0.25549 0.0
H2330 H 0.02297 0.60604 0.30313 0.0
C2331 C 0.98927 0.59917 0.4131 0.0
C2332 C 0.99008 0.59698 0.29184 0.0
C2333 C 0.98383 0.59427 0.45012 0.0
C2334 C 0.03285 0.58844 0.18676 0.0
C2335 C 0.02742 0.59356 0.22329 0.0
C2336 C 0.01376 0.60368 0.29942 0.0
C2337 C 0.9889 0.59325 0.37259 0.0
C2338 C 0.99523 0.59788 0.33365 0.0
C2339 C 0.01671 0.59978 0.2186 0.0
C2340 C 0.00895 0.6015 0.25752 0.0
H2341 H 0.97336 0.56893 0.40356 0.0
H2342 H 0.98279 0.57743 0.33924 0.0
H2343 H 0.01115 0.60269 0.36911 0.0
H2344 H 0.01366 0.5976 0.10752 0.0
H2345 H 0.00439 0.60706 0.17103 0.0
C2346 C 0.18257 0.22675 0.18172 0.0
C2347 C 0.17518 0.2262 0.21876 0.0
C2348 C 0.17882 0.23243 0.14357 0.0
C2349 C 0.16643 0.23899 0.05969 0.0
H2350 H 0.1533 0.27056 0.06762 0.0
C2351 C 0.16084 0.2666 0.90456 0.0
C2352 C 0.16605 0.27784 0.90791 0.0
C2353 C 0.15813 0.26015 0.94237 0.0
C2354 C 0.15688 0.26172 0.0649 0.0
H2355 H 0.15803 0.23117 0.24478 0.0
H2356 H 0.15151 0.24123 0.17792 0.0
H2357 H 0.15663 0.25915 0.13468 0.0
H2358 H 0.1714 0.29156 0.95355 0.0
H2359 H 0.16716 0.28016 0.01926 0.0
H2360 H 0.16744 0.24176 0.99043 0.0
C2361 C 0.16022 0.23728 0.17868 0.0
C2362 C 0.15869 0.25516 0.10323 0.0
C2363 C 0.16398 0.23157 0.21696 0.0
C2364 C 0.16769 0.28281 0.9498 0.0
C2365 C 0.16505 0.27634 0.98756 0.0
C2366 C 0.16466 0.24554 0.02147 0.0
C2367 C 0.16759 0.23769 0.14154 0.0
C2368 C 0.16388 0.2439 0.10102 0.0
C2369 C 0.16064 0.26478 0.98423 0.0
C2370 C 0.16023 0.25713 0.02376 0.0
H2371 H 0.19132 0.22291 0.18235 0.0
H2372 H 0.18482 0.23287 0.11584 0.0
H2373 H 0.17024 0.23024 0.057 0.0
H2374 H 0.15942 0.26251 0.87285 0.0
H2375 H 0.15455 0.25133 0.93878 0.0
C2376 C 0.48479 0.59417 0.97123 0.0
C2377 C 0.47429 0.58792 0.96377 0.0
C2378 C 0.49028 0.6002 0.93678 0.0
C2379 C 0.48825 0.60529 0.81441 0.0
H2380 H 0.52016 0.5929 0.81893 0.0
C2381 C 0.52054 0.57689 0.69881 0.0
C2382 C 0.52025 0.58304 0.65876 0.0
C2383 C 0.51606 0.58203 0.73692 0.0
C2384 C 0.51131 0.59651 0.81716 0.0
H2385 H 0.4606 0.58404 0.91633 0.0
H2386 H 0.47033 0.59397 0.85579 0.0
H2387 H 0.50923 0.59547 0.88644 0.0
H2388 H 0.51515 0.59951 0.62743 0.0
H2389 H 0.50712 0.60843 0.69425 0.0
H2390 H 0.49009 0.60513 0.74431 0.0
C2391 C 0.4743 0.59461 0.88809 0.0
C2392 C 0.50505 0.59819 0.85607 0.0
C2393 C 0.4687 0.58883 0.92279 0.0
C2394 C 0.51535 0.59447 0.65766 0.0
C2395 C 0.51082 0.59962 0.69592 0.0
C2396 C 0.4945 0.60347 0.77532 0.0
C2397 C 0.48554 0.59972 0.89401 0.0
C2398 C 0.49318 0.6019 0.85503 0.0
C2399 C 0.51118 0.59345 0.73595 0.0
C2400 C 0.50582 0.59838 0.77638 0.0
H2401 H 0.48912 0.59372 0.00296 0.0
H2402 H 0.49873 0.60439 0.9429 0.0
H2403 H 0.47925 0.60849 0.81248 0.0
H2404 H 0.52407 0.56802 0.70062 0.0
H2405 H 0.51615 0.5769 0.76701 0.0
C2406 C 0.15967 0.76911 0.40389 0.0
C2407 C 0.17093 0.76927 0.38439 0.0
C2408 C 0.15709 0.76104 0.43728 0.0
C2409 C 0.16753 0.73369 0.49097 0.0
H2410 H 0.15811 0.74906 0.59951 0.0
C2411 C 0.18321 0.71797 0.65817 0.0
C2412 C 0.17579 0.71877 0.69507 0.0
C2413 C 0.17956 0.72229 0.61756 0.0
C2414 C 0.16044 0.74453 0.56935 0.0
H2415 H 0.18803 0.76073 0.38222 0.0
H2416 H 0.18358 0.74662 0.44053 0.0
H2417 H 0.15688 0.75984 0.53028 0.0
H2418 H 0.15859 0.72454 0.71807 0.0
H2419 H 0.15223 0.73229 0.64676 0.0
H2420 H 0.17161 0.71856 0.53029 0.0
C2421 C 0.17674 0.75271 0.43009 0.0
C2422 C 0.15974 0.75071 0.5297 0.0
C2423 C 0.17935 0.76085 0.39717 0.0
C2424 C 0.16456 0.72393 0.69035 0.0
C2425 C 0.16089 0.7283 0.64955 0.0
C2426 C 0.16818 0.7275 0.53054 0.0
C2427 C 0.16568 0.7529 0.45114 0.0
C2428 C 0.16377 0.74551 0.49052 0.0
C2429 C 0.16839 0.72755 0.61281 0.0
C2430 C 0.16516 0.73305 0.57034 0.0
H2431 H 0.15306 0.77557 0.3947 0.0
H2432 H 0.14851 0.76134 0.45303 0.0
H2433 H 0.17052 0.72944 0.46103 0.0
H2434 H 0.192 0.71427 0.66084 0.0
H2435 H 0.18567 0.72187 0.59018 0.0
C2436 C 0.02518 0.41228 0.4363 0.0
C2437 C 0.03346 0.42145 0.43742 0.0
C2438 C 0.02097 0.40808 0.39607 0.0
C2439 C 0.02417 0.41179 0.27353 0.0
H2440 H 0.99017 0.40772 0.27708 0.0
C2441 C 0.99131 0.42608 0.1392 0.0
C2442 C 0.98211 0.41828 0.12853 0.0
C2443 C 0.99938 0.42318 0.17217 0.0
C2444 C 0.99969 0.40861 0.27558 0.0
H2445 H 0.04421 0.43321 0.39825 0.0
H2446 H 0.0365 0.42644 0.32812 0.0
H2447 H 0.0012 0.40825 0.34528 0.0
H2448 H 0.97429 0.40124 0.14283 0.0
H2449 H 0.98826 0.39629 0.20145 0.0
H2450 H 0.02228 0.4132 0.20345 0.0
C2451 C 0.03351 0.42204 0.35773 0.0
C2452 C 0.00608 0.40884 0.31473 0.0
C2453 C 0.03792 0.42601 0.39792 0.0
C2454 C 0.98136 0.40735 0.15025 0.0
C2455 C 0.98931 0.40454 0.18375 0.0
C2456 C 0.01771 0.41181 0.23435 0.0
C2457 C 0.02469 0.41328 0.35629 0.0
C2458 C 0.01837 0.41079 0.31437 0.0
C2459 C 0.99825 0.41252 0.19543 0.0
C2460 C 0.0054 0.41051 0.23527 0.0
H2461 H 0.02172 0.40864 0.46664 0.0
H2462 H 0.01443 0.4011 0.39632 0.0
H2463 H 0.03364 0.41301 0.27182 0.0
H2464 H 0.99209 0.43451 0.12259 0.0
H2465 H 0.00614 0.42953 0.18103 0.0
C2466 C 0.34534 0.22684 0.91026 0.0
C2467 C 0.33459 0.22834 0.88783 0.0
C2468 C 0.34848 0.23454 0.94415 0.0
C2469 C 0.34216 0.26319 0.99566 0.0
H2470 H 0.34397 0.24606 0.10593 0.0
C2471 C 0.32536 0.28253 0.15646 0.0
C2472 C 0.32964 0.27836 0.19687 0.0
C2473 C 0.32983 0.27809 0.11711 0.0
C2474 C 0.34387 0.25108 0.0756 0.0
H2475 H 0.3191 0.23938 0.8808 0.0
H2476 H 0.32464 0.25297 0.93986 0.0
H2477 H 0.34512 0.23534 0.03702 0.0
H2478 H 0.3424 0.26693 0.22827 0.0
H2479 H 0.35059 0.25937 0.15929 0.0
H2480 H 0.34067 0.27892 0.03411 0.0
C2481 C 0.3306 0.24584 0.93133 0.0
C2482 C 0.34448 0.24489 0.03605 0.0
C2483 C 0.32737 0.23803 0.89799 0.0
C2484 C 0.3389 0.27014 0.19734 0.0
C2485 C 0.34354 0.26582 0.1579 0.0
C2486 C 0.34176 0.26942 0.03526 0.0
C2487 C 0.34102 0.24396 0.95547 0.0
C2488 C 0.34312 0.25084 0.99589 0.0
C2489 C 0.3388 0.26948 0.11729 0.0
C2490 C 0.34203 0.26337 0.07573 0.0
H2491 H 0.351 0.21938 0.90315 0.0
H2492 H 0.35653 0.23292 0.96249 0.0
H2493 H 0.34122 0.26795 0.96494 0.0
H2494 H 0.3181 0.28875 0.15526 0.0
H2495 H 0.32574 0.28095 0.08671 0.0
C2496 C 0.0637 0.01764 0.13923 0.0
C2497 C 0.05705 0.02795 0.13201 0.0
C2498 C 0.06033 0.00941 0.17108 0.0
C2499 C 0.04464 0.00622 0.27564 0.0
H2500 H 0.04852 0.97285 0.25075 0.0
C2501 C 0.04177 0.96989 0.41262 0.0
C2502 C 0.05145 0.96211 0.4119 0.0
C2503 C 0.0396 0.97747 0.37668 0.0
C2504 C 0.04737 0.98213 0.25836 0.0
H2505 H 0.04152 0.03766 0.15278 0.0
H2506 H 0.03567 0.02323 0.20953 0.0
H2507 H 0.05001 0.98718 0.19119 0.0
H2508 H 0.06606 0.95575 0.37241 0.0
H2509 H 0.06221 0.96861 0.31019 0.0
H2510 H 0.04248 0.00113 0.3433 0.0
C2511 C 0.04349 0.02155 0.18999 0.0
C2512 C 0.04822 0.99035 0.22415 0.0
C2513 C 0.04679 0.02977 0.15735 0.0
C2514 C 0.05851 0.96163 0.37392 0.0
C2515 C 0.05625 0.969 0.33807 0.0
C2516 C 0.04381 0.99795 0.31007 0.0
C2517 C 0.05025 0.01126 0.19719 0.0
C2518 C 0.04727 0.00254 0.23249 0.0
C2519 C 0.04693 0.97721 0.33914 0.0
C2520 C 0.04558 0.98582 0.30206 0.0
H2521 H 0.07163 0.01592 0.12033 0.0
H2522 H 0.06584 0.0017 0.17603 0.0
H2523 H 0.04389 0.01554 0.28326 0.0
H2524 H 0.03628 0.97055 0.44169 0.0
H2525 H 0.03231 0.98365 0.37854 0.0
C2526 C 0.27837 0.79928 0.70012 0.0
C2527 C 0.27853 0.81069 0.71869 0.0
C2528 C 0.27132 0.79683 0.66289 0.0
C2529 C 0.25814 0.81232 0.56819 0.0
H2530 H 0.23542 0.7868 0.55895 0.0
C2531 C 0.21973 0.81585 0.44919 0.0
C2532 C 0.21694 0.80633 0.42132 0.0
C2533 C 0.22755 0.81448 0.48424 0.0
C2534 C 0.24186 0.79385 0.56075 0.0
H2535 H 0.27101 0.82829 0.71315 0.0
H2536 H 0.25905 0.82408 0.64918 0.0
H2537 H 0.24884 0.78775 0.62276 0.0
H2538 H 0.21982 0.78764 0.41026 0.0
H2539 H 0.23363 0.7852 0.47254 0.0
H2540 H 0.25116 0.81863 0.50725 0.0
C2541 C 0.2644 0.81703 0.6628 0.0
C2542 C 0.24954 0.7944 0.59726 0.0
C2543 C 0.27128 0.81943 0.69979 0.0
C2544 C 0.22181 0.79517 0.43097 0.0
C2545 C 0.22971 0.79377 0.46659 0.0
C2546 C 0.25056 0.81177 0.53201 0.0
C2547 C 0.26443 0.80579 0.64332 0.0
C2548 C 0.2575 0.80388 0.60203 0.0
C2549 C 0.2329 0.80353 0.49291 0.0
C2550 C 0.24204 0.80278 0.52843 0.0
H2551 H 0.28382 0.79232 0.7138 0.0
H2552 H 0.27152 0.78806 0.64866 0.0
H2553 H 0.26433 0.81959 0.57029 0.0
H2554 H 0.21604 0.82455 0.44352 0.0
H2555 H 0.22953 0.82211 0.50442 0.0
C2556 C 0.45237 0.01407 0.96328 0.0
C2557 C 0.45259 0.0265 0.96171 0.0
C2558 C 0.45299 0.00736 0.92473 0.0
C2559 C 0.46244 0.00817 0.8086 0.0
H2560 H 0.44104 0.98166 0.79572 0.0
C2561 C 0.45309 0.96537 0.68513 0.0
C2562 C 0.45516 0.97085 0.64433 0.0
C2563 C 0.45331 0.97197 0.72427 0.0
C2564 C 0.44723 0.98889 0.79892 0.0
H2565 H 0.45384 0.04158 0.91798 0.0
H2566 H 0.45505 0.0298 0.85043 0.0
H2567 H 0.44039 0.99363 0.86225 0.0
H2568 H 0.45918 0.9876 0.613 0.0
H2569 H 0.45929 0.99904 0.68043 0.0
H2570 H 0.46944 0.00336 0.74568 0.0
C2571 C 0.45439 0.02528 0.88175 0.0
C2572 C 0.44681 0.99581 0.83712 0.0
C2573 C 0.45364 0.03204 0.92044 0.0
C2574 C 0.45761 0.98303 0.64376 0.0
C2575 C 0.45775 0.98962 0.68269 0.0
C2576 C 0.46294 0.00119 0.77054 0.0
C2577 C 0.45396 0.01285 0.88342 0.0
C2578 C 0.45439 0.00556 0.84244 0.0
C2579 C 0.45554 0.98423 0.7236 0.0
C2580 C 0.45531 0.99146 0.76498 0.0
H2581 H 0.45157 0.00947 0.99438 0.0
H2582 H 0.4528 0.99781 0.92735 0.0
H2583 H 0.46852 0.01551 0.81187 0.0
H2584 H 0.4512 0.956 0.68686 0.0
H2585 H 0.45176 0.96742 0.75507 0.0
C2586 C 0.28768 0.18817 0.96808 0.0
C2587 C 0.28765 0.19582 0.93165 0.0
C2588 C 0.28053 0.19037 0.00461 0.0
C2589 C 0.25278 0.20454 0.03791 0.0
H2590 H 0.2641 0.19648 0.15452 0.0
C2591 C 0.22225 0.20272 0.19465 0.0
C2592 C 0.22359 0.19222 0.21904 0.0
C2593 C 0.23034 0.20559 0.16102 0.0
C2594 C 0.26078 0.19878 0.12222 0.0
H2595 H 0.28019 0.21197 0.90545 0.0
H2596 H 0.26747 0.21582 0.96977 0.0
H2597 H 0.27796 0.19742 0.09333 0.0
H2598 H 0.23464 0.17674 0.2279 0.0
H2599 H 0.24862 0.18178 0.17045 0.0
H2600 H 0.23548 0.20554 0.06701 0.0
C2601 C 0.27313 0.2081 0.9698 0.0
C2602 C 0.26874 0.19932 0.08707 0.0
C2603 C 0.28047 0.20596 0.93317 0.0
C2604 C 0.2333 0.18488 0.20979 0.0
C2605 C 0.2414 0.18782 0.17693 0.0
C2606 C 0.24477 0.20402 0.0733 0.0
C2607 C 0.27301 0.20025 0.00588 0.0
C2608 C 0.26481 0.2018 0.04412 0.0
C2609 C 0.24003 0.19816 0.15182 0.0
C2610 C 0.24863 0.20073 0.11563 0.0
H2611 H 0.29309 0.18027 0.96806 0.0
H2612 H 0.2806 0.18403 0.03131 0.0
H2613 H 0.24943 0.20643 0.00529 0.0
H2614 H 0.21483 0.20853 0.20079 0.0
H2615 H 0.22904 0.21364 0.14233 0.0
C2616 C 0.91104 0.97583 0.94398 0.0
C2617 C 0.92121 0.97859 0.96836 0.0
C2618 C 0.90804 0.98254 0.90706 0.0
C2619 C 0.91217 0.01076 0.85173 0.0
H2620 H 0.91491 0.99284 0.74347 0.0
C2621 C 0.9267 0.03235 0.69136 0.0
C2622 C 0.92298 0.02784 0.6505 0.0
C2623 C 0.92346 0.02684 0.73048 0.0
C2624 C 0.91378 0.99799 0.77318 0.0
H2625 H 0.93583 0.99072 0.97537 0.0
H2626 H 0.9304 0.00272 0.91141 0.0
H2627 H 0.91407 0.9825 0.81364 0.0
H2628 H 0.91253 0.01403 0.61964 0.0
H2629 H 0.90653 0.00472 0.688 0.0
H2630 H 0.91197 0.02627 0.81171 0.0
C2631 C 0.92483 0.99534 0.9206 0.0
C2632 C 0.91333 0.99205 0.81336 0.0
C2633 C 0.92797 0.98848 0.95683 0.0
C2634 C 0.9156 0.01783 0.65017 0.0
C2635 C 0.91222 0.0124 0.68951 0.0
C2636 C 0.91239 0.01671 0.81155 0.0
C2637 C 0.91501 0.99225 0.89486 0.0
C2638 C 0.91297 0.99841 0.8529 0.0
C2639 C 0.91624 0.01676 0.73013 0.0
C2640 C 0.91371 0.01042 0.77189 0.0
H2641 H 0.90579 0.96815 0.95221 0.0
H2642 H 0.90047 0.97999 0.88741 0.0
H2643 H 0.9118 0.01581 0.88198 0.0
H2644 H 0.9322 0.04011 0.69369 0.0
H2645 H 0.92695 0.03034 0.76098 0.0
C2646 C 0.77288 0.18101 0.66369 0.0
C2647 C 0.77145 0.17375 0.70079 0.0
C2648 C 0.76928 0.17717 0.62235 0.0
C2649 C 0.74841 0.15786 0.56782 0.0
H2650 H 0.76717 0.16605 0.46537 0.0
C2651 C 0.72806 0.15674 0.39589 0.0
C2652 C 0.72892 0.16789 0.37581 0.0
C2653 C 0.73549 0.1538 0.43095 0.0
C2654 C 0.76189 0.16358 0.49365 0.0
H2655 H 0.76501 0.15676 0.72357 0.0
H2656 H 0.75843 0.15013 0.65095 0.0
H2657 H 0.77572 0.16792 0.53876 0.0
H2658 H 0.73877 0.18424 0.37355 0.0
H2659 H 0.75173 0.17919 0.43465 0.0
H2660 H 0.73435 0.15417 0.52295 0.0
C2661 C 0.76244 0.15878 0.65416 0.0
C2662 C 0.76676 0.16468 0.53558 0.0
C2663 C 0.76611 0.16261 0.69571 0.0
C2664 C 0.7379 0.17565 0.38888 0.0
C2665 C 0.74538 0.17268 0.42355 0.0
C2666 C 0.74353 0.15676 0.52584 0.0
C2667 C 0.7641 0.16599 0.61706 0.0
C2668 C 0.75988 0.16235 0.57308 0.0
C2669 C 0.74395 0.16192 0.44602 0.0
C2670 C 0.75006 0.16013 0.48852 0.0
H2671 H 0.77671 0.18973 0.6666 0.0
H2672 H 0.77036 0.18307 0.59456 0.0
H2673 H 0.7429 0.15604 0.59616 0.0
H2674 H 0.72115 0.15063 0.38652 0.0
H2675 H 0.73425 0.14542 0.44757 0.0
C2676 C 0.57426 0.98377 0.15585 0.0
C2677 C 0.58175 0.97443 0.1439 0.0
C2678 C 0.57642 0.99024 0.1941 0.0
C2679 C 0.58765 0.9864 0.30318 0.0
H2680 H 0.58692 0.02062 0.31015 0.0
C2681 C 0.5732 0.01336 0.45485 0.0
C2682 C 0.58035 0.02292 0.46722 0.0
C2683 C 0.57576 0.00692 0.41689 0.0
C2684 C 0.58729 0.01106 0.30858 0.0
H2685 H 0.59745 0.9646 0.16185 0.0
H2686 H 0.60108 0.97577 0.22961 0.0
H2687 H 0.58705 0.01094 0.23801 0.0
H2688 H 0.59586 0.03317 0.45043 0.0
H2689 H 0.6002 0.02204 0.38306 0.0
H2690 H 0.58722 0.98651 0.37373 0.0
C2691 C 0.59366 0.97816 0.20895 0.0
C2692 C 0.5873 0.00555 0.26747 0.0
C2693 C 0.59163 0.97185 0.1702 0.0
C2694 C 0.59031 0.02574 0.44173 0.0
C2695 C 0.59274 0.01945 0.40321 0.0
C2696 C 0.5874 0.99191 0.34427 0.0
C2697 C 0.58598 0.98731 0.22144 0.0
C2698 C 0.58732 0.99318 0.26449 0.0
C2699 C 0.58539 0.0101 0.39023 0.0
C2700 C 0.58706 0.00427 0.34725 0.0
H2701 H 0.56661 0.98589 0.13596 0.0
H2702 H 0.57032 0.99719 0.20332 0.0
H2703 H 0.58756 0.97684 0.30161 0.0
H2704 H 0.56549 0.01107 0.47411 0.0
H2705 H 0.56991 0.9998 0.40728 0.0
C2706 C 0.72384 0.84206 0.16937 0.0
C2707 C 0.72129 0.83018 0.17925 0.0
C2708 C 0.72742 0.84531 0.1271 0.0
C2709 C 0.7287 0.83494 0.01184 0.0
H2710 H 0.75878 0.85129 0.00862 0.0
C2711 C 0.76381 0.82618 0.88241 0.0
C2712 C 0.77202 0.83498 0.87134 0.0
C2713 C 0.75484 0.82849 0.91259 0.0
C2714 C 0.75022 0.84702 0.00853 0.0
H2715 H 0.72047 0.81245 0.1521 0.0
H2716 H 0.72661 0.81814 0.07868 0.0
H2717 H 0.74794 0.85004 0.0774 0.0
H2718 H 0.77671 0.8534 0.88081 0.0
H2719 H 0.7609 0.85749 0.93301 0.0
H2720 H 0.73126 0.83145 0.94332 0.0
C2721 C 0.72565 0.82496 0.10342 0.0
C2722 C 0.74402 0.84629 0.04806 0.0
C2723 C 0.72216 0.8217 0.14564 0.0
C2724 C 0.77055 0.8464 0.88867 0.0
C2725 C 0.76154 0.84874 0.91883 0.0
C2726 C 0.73487 0.83573 0.97221 0.0
C2727 C 0.72843 0.83677 0.09385 0.0
C2728 C 0.73348 0.83979 0.05046 0.0
C2729 C 0.75385 0.83969 0.93224 0.0
C2730 C 0.74595 0.84131 0.97064 0.0
H2731 H 0.72306 0.84886 0.19417 0.0
H2732 H 0.7295 0.85448 0.12046 0.0
H2733 H 0.72048 0.83006 0.01276 0.0
H2734 H 0.76454 0.81737 0.86885 0.0
H2735 H 0.74913 0.82128 0.92242 0.0
C2736 C 0.56614 0.47695 0.93376 0.0
C2737 C 0.5568 0.47206 0.95837 0.0
C2738 C 0.56396 0.48374 0.89628 0.0
C2739 C 0.54352 0.50346 0.84133 0.0
H2740 H 0.56139 0.49491 0.73726 0.0
C2741 C 0.54392 0.53199 0.67867 0.0
C2742 C 0.55516 0.53328 0.65929 0.0
C2743 C 0.54215 0.52392 0.71355 0.0
C2744 C 0.55637 0.49751 0.766 0.0
H2745 H 0.53773 0.47075 0.96275 0.0
H2746 H 0.53389 0.48305 0.89717 0.0
H2747 H 0.5619 0.48215 0.80166 0.0
H2748 H 0.57329 0.52699 0.66184 0.0
H2749 H 0.57028 0.51337 0.7217 0.0
H2750 H 0.53846 0.51917 0.80615 0.0
C2751 C 0.54293 0.48143 0.90719 0.0
C2752 C 0.55661 0.49013 0.80288 0.0
C2753 C 0.54513 0.47437 0.94461 0.0
C2754 C 0.56448 0.52629 0.67553 0.0
C2755 C 0.56273 0.51832 0.70992 0.0
C2756 C 0.54337 0.51098 0.80433 0.0
C2757 C 0.55236 0.48606 0.88234 0.0
C2758 C 0.55047 0.49314 0.84143 0.0
C2759 C 0.55156 0.51692 0.72947 0.0
C2760 C 0.55011 0.50827 0.76661 0.0
H2761 H 0.57525 0.47539 0.94301 0.0
H2762 H 0.57141 0.48726 0.87815 0.0
H2763 H 0.53871 0.50603 0.87061 0.0
H2764 H 0.53655 0.53725 0.66719 0.0
H2765 H 0.53342 0.52309 0.72773 0.0
C2766 C 0.72023 0.31731 0.95479 0.0
C2767 C 0.71823 0.30843 0.92326 0.0
C2768 C 0.72717 0.31517 0.99192 0.0
C2769 C 0.75162 0.29778 0.03513 0.0
H2770 H 0.74016 0.30926 0.14748 0.0
C2771 C 0.78064 0.29759 0.19559 0.0
C2772 C 0.77984 0.3079 0.22138 0.0
C2773 C 0.77273 0.29565 0.16047 0.0
C2774 C 0.74358 0.30607 0.11641 0.0
H2775 H 0.72204 0.29024 0.90639 0.0
H2776 H 0.73455 0.28653 0.97152 0.0
H2777 H 0.72715 0.30945 0.08376 0.0
H2778 H 0.76993 0.32415 0.23036 0.0
H2779 H 0.75646 0.32087 0.16988 0.0
H2780 H 0.76825 0.29487 0.06754 0.0
C2781 C 0.73058 0.29516 0.96719 0.0
C2782 C 0.73606 0.30612 0.07986 0.0
C2783 C 0.72338 0.29726 0.93007 0.0
C2784 C 0.77086 0.31608 0.2115 0.0
C2785 C 0.763 0.31414 0.17677 0.0
C2786 C 0.75922 0.29782 0.07182 0.0
C2787 C 0.7325 0.30411 0.99866 0.0
C2788 C 0.74005 0.30227 0.03847 0.0
C2789 C 0.76379 0.30393 0.15057 0.0
C2790 C 0.7554 0.30229 0.11273 0.0
H2791 H 0.71638 0.32602 0.95095 0.0
H2792 H 0.72854 0.3223 0.01515 0.0
H2793 H 0.75498 0.2948 0.00367 0.0
H2794 H 0.78747 0.29112 0.20207 0.0
H2795 H 0.77359 0.28765 0.14121 0.0
C2796 C 0.95604 0.53395 0.41965 0.0
C2797 C 0.94702 0.53106 0.44972 0.0
C2798 C 0.95911 0.52605 0.38565 0.0
C2799 C 0.95714 0.49441 0.35441 0.0
H2800 H 0.95658 0.50507 0.23321 0.0
C2801 C 0.9449 0.46352 0.21315 0.0
C2802 C 0.95014 0.46465 0.17145 0.0
C2803 C 0.94757 0.47141 0.24699 0.0
C2804 C 0.95703 0.50196 0.26686 0.0
H2805 H 0.93448 0.51748 0.46839 0.0
H2806 H 0.93994 0.50379 0.4104 0.0
H2807 H 0.95571 0.51956 0.29315 0.0
H2808 H 0.96259 0.47483 0.13291 0.0
H2809 H 0.96727 0.48884 0.19256 0.0
H2810 H 0.95812 0.47685 0.32862 0.0
C2811 C 0.94462 0.51211 0.41262 0.0
C2812 C 0.95651 0.51027 0.30123 0.0
C2813 C 0.94144 0.52002 0.4458 0.0
C2814 C 0.9585 0.47367 0.16483 0.0
C2815 C 0.96107 0.48175 0.19884 0.0
C2816 C 0.95771 0.48614 0.32026 0.0
C2817 C 0.95341 0.51502 0.38181 0.0
C2818 C 0.95614 0.50655 0.34541 0.0
C2819 C 0.9555 0.48079 0.24026 0.0
C2820 C 0.95722 0.48975 0.27597 0.0
H2821 H 0.96046 0.54242 0.42165 0.0
H2822 H 0.96592 0.52855 0.36245 0.0
H2823 H 0.95711 0.49124 0.38806 0.0
H2824 H 0.93842 0.45668 0.21938 0.0
H2825 H 0.94296 0.47043 0.27802 0.0
C2826 C 0.77786 0.70773 0.42626 0.0
C2827 C 0.78474 0.69738 0.42452 0.0
C2828 C 0.77056 0.71002 0.46292 0.0
C2829 C 0.76584 0.70101 0.57999 0.0
H2830 H 0.73284 0.70851 0.56029 0.0
C2831 C 0.72965 0.68654 0.69927 0.0
C2832 C 0.72033 0.69421 0.71023 0.0
C2833 C 0.73791 0.68957 0.66712 0.0
C2834 C 0.74207 0.70663 0.56648 0.0
H2835 H 0.78971 0.68163 0.46066 0.0
H2836 H 0.77728 0.68562 0.52381 0.0
H2837 H 0.74684 0.70922 0.49865 0.0
H2838 H 0.71244 0.71121 0.69589 0.0
H2839 H 0.72691 0.71649 0.63831 0.0
H2840 H 0.76105 0.69792 0.64717 0.0
C2841 C 0.77741 0.69201 0.49731 0.0
C2842 C 0.75011 0.70705 0.53114 0.0
C2843 C 0.78452 0.68968 0.46079 0.0
C2844 C 0.71956 0.70515 0.68836 0.0
C2845 C 0.72779 0.70812 0.65526 0.0
C2846 C 0.75785 0.70055 0.61505 0.0
C2847 C 0.77019 0.70211 0.49883 0.0
C2848 C 0.76203 0.70383 0.53717 0.0
C2849 C 0.73707 0.70034 0.64431 0.0
C2850 C 0.74578 0.70297 0.60855 0.0
H2851 H 0.77778 0.7138 0.39869 0.0
H2852 H 0.76514 0.7179 0.46305 0.0
H2853 H 0.77499 0.69874 0.58618 0.0
H2854 H 0.73055 0.67806 0.7155 0.0
H2855 H 0.74482 0.68329 0.65927 0.0
C2856 C 0.42566 0.51584 0.13662 0.0
C2857 C 0.41797 0.52504 0.12502 0.0
C2858 C 0.42276 0.50812 0.17062 0.0
C2859 C 0.40693 0.5085 0.27365 0.0
H2860 H 0.41676 0.4757 0.2776 0.0
C2861 C 0.41069 0.48241 0.43679 0.0
C2862 C 0.42154 0.47649 0.44154 0.0
C2863 C 0.40729 0.48695 0.39592 0.0
C2864 C 0.41391 0.48484 0.27692 0.0
H2865 H 0.40095 0.53307 0.13816 0.0
H2866 H 0.39585 0.51955 0.19813 0.0
H2867 H 0.41559 0.48587 0.2069 0.0
H2868 H 0.43742 0.47093 0.40728 0.0
H2869 H 0.43152 0.47879 0.33641 0.0
H2870 H 0.40585 0.50766 0.34385 0.0
C2871 C 0.40413 0.51834 0.18082 0.0
C2872 C 0.41321 0.49063 0.23653 0.0
C2873 C 0.40701 0.52601 0.14643 0.0
C2874 C 0.4289 0.47521 0.40464 0.0
C2875 C 0.4255 0.47969 0.36392 0.0
C2876 C 0.40763 0.5027 0.31409 0.0
C2877 C 0.41212 0.5095 0.1939 0.0
C2878 C 0.41019 0.50266 0.23471 0.0
C2879 C 0.41467 0.4856 0.35909 0.0
C2880 C 0.4116 0.49096 0.3162 0.0
H2881 H 0.43409 0.51484 0.1202 0.0
H2882 H 0.42915 0.50149 0.18024 0.0
H2883 H 0.40466 0.5178 0.27329 0.0
H2884 H 0.40475 0.48341 0.46444 0.0
H2885 H 0.39889 0.49147 0.39305 0.0
C2886 C 0.28498 0.67493 0.16418 0.0
C2887 C 0.28273 0.66913 0.20418 0.0
C2888 C 0.27947 0.67126 0.12563 0.0
C2889 C 0.25285 0.65645 0.08706 0.0
H2890 H 0.26862 0.6595 0.97425 0.0
C2891 C 0.22727 0.65415 0.92383 0.0
C2892 C 0.22902 0.66432 0.89811 0.0
C2893 C 0.23496 0.65153 0.9584 0.0
C2894 C 0.26414 0.65851 0.00553 0.0
H2895 H 0.27317 0.65476 0.23496 0.0
H2896 H 0.26352 0.64824 0.16707 0.0
H2897 H 0.28017 0.6605 0.04197 0.0
H2898 H 0.24048 0.6793 0.8864 0.0
H2899 H 0.25395 0.67473 0.94675 0.0
H2900 H 0.23677 0.65486 0.05057 0.0
C2901 C 0.2695 0.6557 0.16584 0.0
C2902 C 0.27072 0.65912 0.04425 0.0
C2903 C 0.27505 0.65938 0.20458 0.0
C2904 C 0.2389 0.67148 0.90608 0.0
C2905 C 0.24666 0.66879 0.94025 0.0
C2906 C 0.24629 0.65576 0.0483 0.0
C2907 C 0.27161 0.66166 0.12602 0.0
C2908 C 0.26507 0.65859 0.08541 0.0
C2909 C 0.2446 0.65894 0.96735 0.0
C2910 C 0.25182 0.65724 0.00731 0.0
H2911 H 0.29105 0.68229 0.16246 0.0
H2912 H 0.28115 0.67618 0.0957 0.0
H2913 H 0.24823 0.65609 0.11824 0.0
H2914 H 0.21967 0.64854 0.91852 0.0
H2915 H 0.23321 0.64388 0.97882 0.0
C2916 C 0.0947 0.47578 0.66864 0.0
C2917 C 0.0847 0.47812 0.64267 0.0
C2918 C 0.09725 0.48285 0.70511 0.0
C2919 C 0.09217 0.51176 0.75454 0.0
H2920 H 0.09118 0.4955 0.86682 0.0
C2921 C 0.07724 0.53483 0.91114 0.0
C2922 C 0.08139 0.53117 0.95252 0.0
C2923 C 0.08079 0.52903 0.873 0.0
C2924 C 0.09181 0.5002 0.83588 0.0
H2925 H 0.06984 0.48984 0.63292 0.0
H2926 H 0.07446 0.50243 0.69613 0.0
H2927 H 0.09186 0.48409 0.79884 0.0
H2928 H 0.09304 0.51893 0.98604 0.0
H2929 H 0.09953 0.50891 0.91892 0.0
H2930 H 0.09201 0.52786 0.79114 0.0
C2931 C 0.08025 0.4951 0.68847 0.0
C2932 C 0.09215 0.49365 0.79696 0.0
C2933 C 0.07757 0.48789 0.65264 0.0
C2934 C 0.08966 0.52192 0.95465 0.0
C2935 C 0.09329 0.51613 0.91624 0.0
C2936 C 0.09204 0.51832 0.7934 0.0
C2937 C 0.08999 0.49251 0.71544 0.0
C2938 C 0.0919 0.49939 0.75605 0.0
C2939 C 0.08872 0.5195 0.87501 0.0
C2940 C 0.09134 0.51262 0.8345 0.0
H2941 H 0.10025 0.46821 0.66173 0.0
H2942 H 0.10478 0.48069 0.7256 0.0
H2943 H 0.09211 0.51635 0.72326 0.0
H2944 H 0.07111 0.54211 0.90807 0.0
H2945 H 0.07693 0.5318 0.84207 0.0
C2946 C 0.22972 0.33947 0.69887 0.0
C2947 C 0.22101 0.33062 0.69945 0.0
C2948 C 0.23507 0.34281 0.65924 0.0
C2949 C 0.23199 0.3398 0.53737 0.0
H2950 H 0.26617 0.3419 0.53814 0.0
C2951 C 0.26196 0.32524 0.39581 0.0
C2952 C 0.2716 0.33238 0.3845 0.0
C2953 C 0.25473 0.32825 0.43122 0.0
C2954 C 0.25661 0.34158 0.5375 0.0
H2955 H 0.21067 0.31881 0.65835 0.0
H2956 H 0.22026 0.32418 0.59034 0.0
H2957 H 0.25546 0.34131 0.60767 0.0
H2958 H 0.28118 0.34838 0.40036 0.0
H2959 H 0.26865 0.35354 0.46338 0.0
H2960 H 0.23329 0.33921 0.46707 0.0
C2961 C 0.2229 0.32871 0.62012 0.0
C2962 C 0.25045 0.34127 0.57731 0.0
C2963 C 0.21754 0.32544 0.65948 0.0
C2964 C 0.27371 0.34281 0.40831 0.0
C2965 C 0.26661 0.34572 0.44434 0.0
C2966 C 0.23816 0.33994 0.49764 0.0
C2967 C 0.23179 0.33737 0.61945 0.0
C2968 C 0.2381 0.33994 0.57769 0.0
C2969 C 0.25717 0.33837 0.45639 0.0
C2970 C 0.25053 0.34046 0.49746 0.0
H2971 H 0.23258 0.34363 0.7291 0.0
H2972 H 0.24183 0.34958 0.65982 0.0
H2973 H 0.22245 0.33909 0.53649 0.0
H2974 H 0.26018 0.31719 0.37775 0.0
H2975 H 0.24757 0.32238 0.44021 0.0
C2976 C 0.16374 0.15095 0.20249 0.0
C2977 C 0.15995 0.1604 0.22916 0.0
C2978 C 0.15582 0.14211 0.18952 0.0
C2979 C 0.12856 0.1275 0.22404 0.0
H2980 H 0.1264 0.11703 0.10297 0.0
C2981 C 0.09213 0.09516 0.16482 0.0
C2982 C 0.09477 0.08758 0.12967 0.0
C2983 C 0.10033 0.10369 0.17837 0.0
C2984 C 0.12701 0.11965 0.13714 0.0
H2985 H 0.14461 0.16817 0.26097 0.0
H2986 H 0.13096 0.15257 0.23942 0.0
H2987 H 0.1402 0.13267 0.12247 0.0
H2988 H 0.10817 0.08247 0.08261 0.0
H2989 H 0.1227 0.09687 0.10744 0.0
H2990 H 0.11563 0.11433 0.23919 0.0
C2991 C 0.1401 0.15199 0.22899 0.0
C2992 C 0.1349 0.12869 0.14817 0.0
C2993 C 0.14796 0.16091 0.24142 0.0
C2994 C 0.10592 0.08829 0.10964 0.0
C2995 C 0.11418 0.09665 0.12361 0.0
C2996 C 0.1208 0.11833 0.21317 0.0
C2997 C 0.14397 0.14244 0.20333 0.0
C2998 C 0.1357 0.13275 0.19166 0.0
C2999 C 0.11141 0.10468 0.15742 0.0
C3000 C 0.11988 0.11429 0.1695 0.0
H3001 H 0.17291 0.15014 0.19284 0.0
H3002 H 0.15905 0.13481 0.16986 0.0
H3003 H 0.12911 0.13037 0.25798 0.0
H3004 H 0.08353 0.09485 0.18043 0.0
H3005 H 0.09778 0.10977 0.20416 0.0
C3006 C 0.16366 0.84899 0.40105 0.0
C3007 C 0.1614 0.84128 0.36585 0.0
C3008 C 0.15542 0.85768 0.41268 0.0
C3009 C 0.12899 0.87364 0.36906 0.0
H3010 H 0.12467 0.88237 0.49133 0.0
C3011 C 0.08973 0.90195 0.43181 0.0
C3012 C 0.09239 0.91103 0.46189 0.0
C3013 C 0.09838 0.89381 0.41904 0.0
C3014 C 0.12585 0.88009 0.457 0.0
H3015 H 0.14856 0.83633 0.31633 0.0
H3016 H 0.13407 0.85118 0.33728 0.0
H3017 H 0.13912 0.86725 0.47206 0.0
H3018 H 0.10649 0.9188 0.50077 0.0
H3019 H 0.12144 0.9044 0.47931 0.0
H3020 H 0.11545 0.88629 0.35437 0.0
C3021 C 0.14235 0.85085 0.35507 0.0
C3022 C 0.13418 0.87144 0.44587 0.0
C3023 C 0.15064 0.84228 0.34313 0.0
C3024 C 0.10401 0.91181 0.47827 0.0
C3025 C 0.11261 0.90358 0.46591 0.0
C3026 C 0.12057 0.88217 0.38029 0.0
C3027 C 0.14465 0.85876 0.38974 0.0
C3028 C 0.13586 0.86808 0.40172 0.0
C3029 C 0.10987 0.89445 0.43639 0.0
C3030 C 0.11891 0.88549 0.42436 0.0
H3031 H 0.17192 0.84847 0.41892 0.0
H3032 H 0.15762 0.86369 0.43914 0.0
H3033 H 0.13019 0.8715 0.33463 0.0
H3034 H 0.08087 0.90089 0.41902 0.0
H3035 H 0.09599 0.88679 0.39652 0.0
C3036 C 0.40173 0.91421 0.66959 0.0
C3037 C 0.40667 0.91363 0.62715 0.0
C3038 C 0.39358 0.90569 0.68366 0.0
C3039 C 0.37253 0.88342 0.64143 0.0
H3040 H 0.37528 0.86966 0.75774 0.0
C3041 C 0.34491 0.84274 0.69469 0.0
C3042 C 0.34085 0.84239 0.73836 0.0
C3043 C 0.35284 0.85153 0.68111 0.0
C3044 C 0.37426 0.87351 0.72535 0.0
H3045 H 0.40715 0.9033 0.56695 0.0
H3046 H 0.39287 0.88867 0.5912 0.0
H3047 H 0.38909 0.885 0.73489 0.0
H3048 H 0.34159 0.85125 0.80154 0.0
H3049 H 0.35522 0.8666 0.77786 0.0
H3050 H 0.35766 0.87204 0.6319 0.0
C3051 C 0.39513 0.89582 0.61333 0.0
C3052 C 0.3822 0.88231 0.71227 0.0
C3053 C 0.40331 0.90426 0.5994 0.0
C3054 C 0.34474 0.85112 0.76789 0.0
C3055 C 0.35259 0.85992 0.7543 0.0
C3056 C 0.36454 0.87467 0.65459 0.0
C3057 C 0.39014 0.89642 0.65556 0.0
C3058 C 0.38147 0.88734 0.67009 0.0
C3059 C 0.35681 0.86022 0.7108 0.0
C3060 C 0.36532 0.86957 0.69669 0.0
H3061 H 0.40404 0.92134 0.69174 0.0
H3062 H 0.38982 0.90645 0.71631 0.0
H3063 H 0.37162 0.88723 0.6089 0.0
H3064 H 0.34214 0.8361 0.67124 0.0
H3065 H 0.35601 0.85137 0.6475 0.0
C3066 C 0.41127 0.10075 0.97888 0.0
C3067 C 0.41068 0.08885 0.96592 0.0
C3068 C 0.40262 0.1088 0.96566 0.0
C3069 C 0.37826 0.11369 0.88591 0.0
H3070 H 0.36773 0.13618 0.97384 0.0
C3071 C 0.33787 0.1445 0.85935 0.0
C3072 C 0.33919 0.15634 0.8726 0.0
C3073 C 0.34637 0.13601 0.87043 0.0
C3074 C 0.37064 0.13004 0.94876 0.0
H3075 H 0.40071 0.07614 0.92777 0.0
H3076 H 0.38548 0.0902 0.90481 0.0
H3077 H 0.38306 0.12194 0.9923 0.0
H3078 H 0.35064 0.16849 0.90769 0.0
H3079 H 0.36533 0.1537 0.92742 0.0
H3080 H 0.36572 0.12181 0.84248 0.0
C3081 C 0.39272 0.09334 0.92494 0.0
C3082 C 0.37946 0.12187 0.95929 0.0
C3083 C 0.40145 0.08527 0.93805 0.0
C3084 C 0.34918 0.15943 0.89765 0.0
C3085 C 0.35764 0.15094 0.90886 0.0
C3086 C 0.36938 0.12185 0.87541 0.0
C3087 C 0.39309 0.10516 0.93926 0.0
C3088 C 0.38347 0.11365 0.92792 0.0
C3089 C 0.35638 0.13914 0.89522 0.0
C3090 C 0.36553 0.13019 0.90663 0.0
H3091 H 0.41841 0.10384 0.99966 0.0
H3092 H 0.40338 0.11789 0.97637 0.0
H3093 H 0.3812 0.10757 0.8608 0.0
H3094 H 0.33022 0.14175 0.84054 0.0
H3095 H 0.34504 0.12697 0.85993 0.0
C3096 C 0.91886 0.90161 0.95487 0.0
C3097 C 0.91647 0.9095 0.98939 0.0
C3098 C 0.91053 0.89307 0.94272 0.0
C3099 C 0.88352 0.87777 0.98391 0.0
H3100 H 0.8795 0.86952 0.86106 0.0
C3101 C 0.84408 0.85021 0.91801 0.0
C3102 C 0.84669 0.84148 0.88654 0.0
C3103 C 0.85281 0.85812 0.93203 0.0
C3104 C 0.8806 0.87166 0.89556 0.0
H3105 H 0.90333 0.91493 0.03717 0.0
H3106 H 0.88873 0.90028 0.01548 0.0
H3107 H 0.89422 0.88421 0.88173 0.0
H3108 H 0.86073 0.8339 0.84683 0.0
H3109 H 0.87583 0.84782 0.87073 0.0
H3110 H 0.86968 0.86536 0.99742 0.0
C3111 C 0.89715 0.90038 0.99861 0.0
C3112 C 0.88907 0.88006 0.90746 0.0
C3113 C 0.90551 0.90882 0.01098 0.0
C3114 C 0.85831 0.84067 0.87035 0.0
C3115 C 0.86699 0.84863 0.88407 0.0
C3116 C 0.87498 0.86945 0.97192 0.0
C3117 C 0.89956 0.89233 0.96453 0.0
C3118 C 0.89064 0.88324 0.95181 0.0
C3119 C 0.86431 0.85752 0.9147 0.0
C3120 C 0.87343 0.8663 0.92763 0.0
H3121 H 0.92727 0.90189 0.93785 0.0
H3122 H 0.91277 0.88694 0.91672 0.0
H3123 H 0.88462 0.87982 0.01846 0.0
H3124 H 0.8352 0.8512 0.9308 0.0
H3125 H 0.85046 0.86494 0.95545 0.0
C3126 C 0.9087 0.09938 0.66112 0.0
C3127 C 0.90596 0.09034 0.63095 0.0
C3128 C 0.90002 0.10741 0.67477 0.0
C3129 C 0.87383 0.12218 0.63656 0.0
H3130 H 0.86489 0.12669 0.75862 0.0
C3131 C 0.84439 0.16059 0.70301 0.0
C3132 C 0.83446 0.15687 0.72735 0.0
C3133 C 0.85312 0.1525 0.69043 0.0
C3134 C 0.86735 0.12552 0.72445 0.0
H3135 H 0.89161 0.08234 0.59384 0.0
H3136 H 0.87675 0.09669 0.61602 0.0
H3137 H 0.88046 0.11242 0.7398 0.0
H3138 H 0.82581 0.14146 0.75543 0.0
H3139 H 0.84134 0.12757 0.73528 0.0
H3140 H 0.86089 0.13543 0.62124 0.0
C3141 C 0.88564 0.09753 0.62884 0.0
C3142 C 0.87625 0.11743 0.71377 0.0
C3143 C 0.89422 0.08936 0.61595 0.0
C3144 C 0.83343 0.14478 0.73787 0.0
C3145 C 0.84229 0.13677 0.72614 0.0
C3146 C 0.86513 0.13047 0.64731 0.0
C3147 C 0.88849 0.10669 0.65795 0.0
C3148 C 0.87946 0.1156 0.6697 0.0
C3149 C 0.85224 0.14058 0.70261 0.0
C3150 C 0.86173 0.13211 0.69129 0.0
H3151 H 0.91763 0.10053 0.67313 0.0
H3152 H 0.9024 0.11444 0.69729 0.0
H3153 H 0.87621 0.12093 0.60234 0.0
H3154 H 0.84565 0.16981 0.69477 0.0
H3155 H 0.86075 0.15563 0.67232 0.0
C3156 C 0.65287 0.15182 0.35433 0.0
C3157 C 0.6569 0.16029 0.38447 0.0
C3158 C 0.64441 0.14347 0.36677 0.0
C3159 C 0.62951 0.13051 0.46578 0.0
H3160 H 0.60727 0.11923 0.3783 0.0
C3161 C 0.58757 0.10324 0.50717 0.0
C3162 C 0.58659 0.09237 0.48481 0.0
C3163 C 0.59605 0.11157 0.49472 0.0
C3164 C 0.61346 0.12228 0.40297 0.0
H3165 H 0.65525 0.16679 0.45108 0.0
H3166 H 0.64005 0.15261 0.47252 0.0
H3167 H 0.62208 0.13383 0.35766 0.0
H3168 H 0.59388 0.08198 0.4311 0.0
H3169 H 0.60823 0.09682 0.40824 0.0
H3170 H 0.62044 0.11922 0.51136 0.0
C3171 C 0.64367 0.15208 0.43961 0.0
C3172 C 0.62204 0.1306 0.39117 0.0
C3173 C 0.65233 0.16027 0.42736 0.0
C3174 C 0.59414 0.09027 0.44875 0.0
C3175 C 0.60245 0.09874 0.43576 0.0
C3176 C 0.62077 0.12238 0.47773 0.0
C3177 C 0.63956 0.14354 0.40948 0.0
C3178 C 0.63026 0.13479 0.42232 0.0
C3179 C 0.60358 0.10939 0.45898 0.0
C3180 C 0.61271 0.11814 0.44638 0.0
H3181 H 0.65639 0.15157 0.32117 0.0
H3182 H 0.64177 0.1369 0.34285 0.0
H3183 H 0.63578 0.13328 0.49061 0.0
H3184 H 0.58178 0.10536 0.5344 0.0
H3185 H 0.59666 0.1198 0.51281 0.0
C3186 C 0.64986 0.83309 0.20073 0.0
C3187 C 0.6595 0.83704 0.22592 0.0
C3188 C 0.6411 0.84104 0.18689 0.0
C3189 C 0.62851 0.87026 0.21521 0.0
H3190 H 0.61472 0.86895 0.0986 0.0
C3191 C 0.59867 0.90752 0.14804 0.0
C3192 C 0.58892 0.90436 0.1219 0.0
C3193 C 0.60695 0.89903 0.16097 0.0
C3194 C 0.61836 0.86935 0.13151 0.0
H3195 H 0.66784 0.85255 0.25406 0.0
H3196 H 0.65266 0.86633 0.23003 0.0
H3197 H 0.62985 0.85463 0.11951 0.0
H3198 H 0.5801 0.88969 0.08988 0.0
H3199 H 0.5945 0.87486 0.11269 0.0
H3200 H 0.61706 0.88495 0.22734 0.0
C3201 C 0.65167 0.85707 0.22189 0.0
C3202 C 0.62705 0.86113 0.14345 0.0
C3203 C 0.66038 0.84915 0.23565 0.0
C3204 C 0.58759 0.89246 0.10953 0.0
C3205 C 0.59586 0.88396 0.12252 0.0
C3206 C 0.61982 0.87844 0.20332 0.0
C3207 C 0.64182 0.8531 0.19792 0.0
C3208 C 0.6323 0.86156 0.18534 0.0
C3209 C 0.6057 0.88714 0.14819 0.0
C3210 C 0.61469 0.87816 0.16121 0.0
H3211 H 0.64888 0.82381 0.19288 0.0
H3212 H 0.6336 0.83769 0.16864 0.0
H3213 H 0.63219 0.8707 0.24805 0.0
H3214 H 0.60009 0.91663 0.15752 0.0
H3215 H 0.61451 0.90184 0.18013 0.0
C3216 C 0.65758 0.65018 0.74613 0.0
C3217 C 0.65814 0.66156 0.72789 0.0
C3218 C 0.64875 0.6423 0.73337 0.0
C3219 C 0.6255 0.63684 0.64894 0.0
H3220 H 0.61236 0.61706 0.74102 0.0
C3221 C 0.58307 0.609 0.62545 0.0
C3222 C 0.58379 0.59709 0.63865 0.0
C3223 C 0.59197 0.61702 0.63654 0.0
C3224 C 0.61599 0.62247 0.71491 0.0
H3225 H 0.65014 0.67356 0.68118 0.0
H3226 H 0.63442 0.65988 0.65944 0.0
H3227 H 0.62831 0.63071 0.75834 0.0
H3228 H 0.59444 0.58443 0.67482 0.0
H3229 H 0.60977 0.59854 0.69522 0.0
H3230 H 0.61291 0.62871 0.60583 0.0
C3231 C 0.64094 0.65694 0.68308 0.0
C3232 C 0.62519 0.63027 0.72471 0.0
C3233 C 0.64992 0.6648 0.6955 0.0
C3234 C 0.59346 0.59354 0.66459 0.0
C3235 C 0.60229 0.60161 0.6761 0.0
C3236 C 0.6162 0.62913 0.63927 0.0
C3237 C 0.64012 0.64565 0.70248 0.0
C3238 C 0.63016 0.6375 0.6918 0.0
C3239 C 0.60173 0.61339 0.66163 0.0
C3240 C 0.6114 0.62181 0.6721 0.0
H3241 H 0.66392 0.64743 0.77079 0.0
H3242 H 0.64865 0.63359 0.74811 0.0
H3243 H 0.62918 0.64214 0.62261 0.0
H3244 H 0.57564 0.61215 0.60629 0.0
H3245 H 0.59121 0.6261 0.62557 0.0
C3246 C 0.65833 0.352 0.86362 0.0
C3247 C 0.65884 0.34121 0.88636 0.0
C3248 C 0.65002 0.36059 0.87512 0.0
C3249 C 0.6286 0.36904 0.96347 0.0
H3250 H 0.6151 0.38822 0.87034 0.0
C3251 C 0.58693 0.39768 0.98758 0.0
C3252 C 0.58797 0.40966 0.97548 0.0
C3253 C 0.59559 0.38949 0.97571 0.0
C3254 C 0.61886 0.38297 0.89667 0.0
H3255 H 0.65113 0.33093 0.93902 0.0
H3256 H 0.63627 0.34571 0.95827 0.0
H3257 H 0.63015 0.37355 0.85261 0.0
H3258 H 0.59885 0.4222 0.93968 0.0
H3259 H 0.61375 0.40771 0.91754 0.0
H3260 H 0.61691 0.37825 0.00712 0.0
C3261 C 0.64249 0.34774 0.93231 0.0
C3262 C 0.62755 0.37459 0.88666 0.0
C3263 C 0.65097 0.33923 0.92125 0.0
C3264 C 0.59766 0.41307 0.94931 0.0
C3265 C 0.60624 0.40479 0.9368 0.0
C3266 C 0.61977 0.37728 0.97329 0.0
C3267 C 0.64184 0.35853 0.90918 0.0
C3268 C 0.63258 0.36751 0.91994 0.0
C3269 C 0.6054 0.39298 0.95067 0.0
C3270 C 0.61482 0.38433 0.94001 0.0
H3271 H 0.6644 0.35379 0.83686 0.0
H3272 H 0.65005 0.36886 0.85724 0.0
H3273 H 0.63238 0.36398 0.9902 0.0
H3274 H 0.57946 0.39461 0.00661 0.0
H3275 H 0.59462 0.38039 0.98613 0.0
C3276 C 0.848 0.34722 0.25412 0.0
C3277 C 0.84302 0.33936 0.22356 0.0
C3278 C 0.85599 0.35588 0.24063 0.0
C3279 C 0.86714 0.37188 0.14225 0.0
H3280 H 0.8936 0.37877 0.21923 0.0
C3281 C 0.90686 0.40065 0.08878 0.0
C3282 C 0.91084 0.40924 0.11883 0.0
C3283 C 0.89848 0.39223 0.10127 0.0
C3284 C 0.8862 0.37703 0.19758 0.0
H3285 H 0.84236 0.33451 0.15472 0.0
H3286 H 0.85658 0.34952 0.13098 0.0
H3287 H 0.87923 0.36383 0.2406 0.0
H3288 H 0.90909 0.41558 0.18587 0.0
H3289 H 0.89462 0.4007 0.20789 0.0
H3290 H 0.87433 0.38498 0.09888 0.0
C3291 C 0.85415 0.34911 0.1654 0.0
C3292 C 0.87793 0.36847 0.20983 0.0
C3293 C 0.84603 0.34049 0.17894 0.0
C3294 C 0.90635 0.40904 0.16198 0.0
C3295 C 0.89803 0.40053 0.17459 0.0
C3296 C 0.87549 0.38037 0.12983 0.0
C3297 C 0.85932 0.35685 0.1962 0.0
C3298 C 0.86824 0.36583 0.18247 0.0
C3299 C 0.89396 0.39208 0.14428 0.0
C3300 C 0.88508 0.38307 0.15745 0.0
H3301 H 0.84566 0.34672 0.28864 0.0
H3302 H 0.85952 0.36186 0.26513 0.0
H3303 H 0.85973 0.37022 0.12063 0.0
H3304 H 0.91032 0.40031 0.05558 0.0
H3305 H 0.89568 0.3857 0.0774 0.0
C3306 C 0.83786 0.65339 0.40989 0.0
C3307 C 0.83711 0.65772 0.3666 0.0
C3308 C 0.84668 0.6453 0.42162 0.0
C3309 C 0.86754 0.62348 0.37469 0.0
H3310 H 0.88451 0.62797 0.48415 0.0
C3311 C 0.90954 0.59652 0.41927 0.0
C3312 C 0.91095 0.5932 0.46351 0.0
C3313 C 0.9004 0.6042 0.40686 0.0
C3314 C 0.87977 0.62647 0.45372 0.0
H3315 H 0.84532 0.65709 0.30204 0.0
H3316 H 0.86052 0.64292 0.32238 0.0
H3317 H 0.86866 0.64152 0.46438 0.0
H3318 H 0.90355 0.5949 0.52903 0.0
H3319 H 0.88763 0.60809 0.50748 0.0
H3320 H 0.8786 0.60839 0.36412 0.0
C3321 C 0.85417 0.64563 0.34708 0.0
C3322 C 0.87067 0.63426 0.4424 0.0
C3323 C 0.84541 0.65375 0.33542 0.0
C3324 C 0.90288 0.5975 0.49482 0.0
C3325 C 0.89375 0.6051 0.48245 0.0
C3326 C 0.87661 0.61565 0.3861 0.0
C3327 C 0.85494 0.64132 0.39032 0.0
C3328 C 0.86446 0.63287 0.40274 0.0
C3329 C 0.89244 0.60865 0.4384 0.0
C3330 C 0.88284 0.61703 0.4258 0.0
H3331 H 0.83156 0.65616 0.43465 0.0
H3332 H 0.84696 0.64205 0.45513 0.0
H3333 H 0.86283 0.62208 0.34411 0.0
H3334 H 0.91565 0.59339 0.39443 0.0
H3335 H 0.89974 0.60683 0.3727 0.0
C3336 C 0.40523 0.40918 0.42294 0.0
C3337 C 0.40813 0.41065 0.46752 0.0
C3338 C 0.39739 0.40025 0.40997 0.0
C3339 C 0.37402 0.3806 0.4554 0.0
H3340 H 0.37836 0.36339 0.34637 0.0
C3341 C 0.34622 0.33943 0.41036 0.0
C3342 C 0.34189 0.3389 0.36702 0.0
C3343 C 0.35448 0.34803 0.42246 0.0
C3344 C 0.37699 0.36818 0.37678 0.0
H3345 H 0.40561 0.40357 0.53313 0.0
H3346 H 0.39219 0.38794 0.51062 0.0
H3347 H 0.39255 0.37863 0.3672 0.0
H3348 H 0.34271 0.34729 0.3028 0.0
H3349 H 0.35723 0.36209 0.32377 0.0
H3350 H 0.35853 0.37006 0.46515 0.0
C3351 C 0.3956 0.39387 0.4857 0.0
C3352 C 0.3851 0.37694 0.38867 0.0
C3353 C 0.40333 0.40282 0.49863 0.0
C3354 C 0.34603 0.34721 0.33619 0.0
C3355 C 0.35435 0.35574 0.3482 0.0
C3356 C 0.36597 0.37179 0.44367 0.0
C3357 C 0.39238 0.39255 0.4413 0.0
C3358 C 0.38373 0.38327 0.42818 0.0
C3359 C 0.35866 0.35627 0.39146 0.0
C3360 C 0.36735 0.36549 0.40423 0.0
H3361 H 0.40878 0.41511 0.3983 0.0
H3362 H 0.39504 0.39957 0.37553 0.0
H3363 H 0.37252 0.38544 0.48562 0.0
H3364 H 0.34333 0.3331 0.43484 0.0
H3365 H 0.35773 0.34815 0.45598 0.0
C3366 C 0.34619 0.66125 0.18063 0.0
C3367 C 0.34876 0.66894 0.21568 0.0
C3368 C 0.35462 0.65307 0.16601 0.0
C3369 C 0.38068 0.63679 0.20587 0.0
H3370 H 0.38575 0.62954 0.08271 0.0
C3371 C 0.41729 0.60445 0.14871 0.0
C3372 C 0.41471 0.59703 0.11294 0.0
C3373 C 0.40949 0.61352 0.16066 0.0
C3374 C 0.38435 0.63134 0.1173 0.0
H3375 H 0.36249 0.67456 0.26084 0.0
H3376 H 0.37712 0.6603 0.23554 0.0
H3377 H 0.37177 0.645 0.10321 0.0
H3378 H 0.4017 0.59302 0.06275 0.0
H3379 H 0.38807 0.60864 0.08391 0.0
H3380 H 0.39306 0.62303 0.22017 0.0
C3381 C 0.36851 0.66042 0.21995 0.0
C3382 C 0.37635 0.64024 0.129 0.0
C3383 C 0.36012 0.66861 0.23439 0.0
C3384 C 0.40407 0.59874 0.08993 0.0
C3385 C 0.39625 0.60773 0.10201 0.0
C3386 C 0.38862 0.62785 0.19421 0.0
C3387 C 0.36579 0.6524 0.18619 0.0
C3388 C 0.37442 0.64307 0.17342 0.0
C3389 C 0.39888 0.61531 0.13734 0.0
C3390 C 0.39056 0.62498 0.14977 0.0
H3391 H 0.33749 0.66117 0.16576 0.0
H3392 H 0.35223 0.64697 0.14008 0.0
H3393 H 0.37926 0.63862 0.24044 0.0
H3394 H 0.42546 0.60341 0.16686 0.0
H3395 H 0.4119 0.61925 0.18771 0.0
C3396 C 0.09367 0.59467 0.94999 0.0
C3397 C 0.08589 0.59683 0.98517 0.0
C3398 C 0.10224 0.60301 0.93829 0.0
C3399 C 0.1106 0.63459 0.95117 0.0
H3400 H 0.14163 0.62304 0.9184 0.0
C3401 C 0.15092 0.66558 0.92257 0.0
C3402 C 0.15772 0.66313 0.88494 0.0
C3403 C 0.14214 0.65767 0.93647 0.0
C3404 C 0.13299 0.62642 0.92718 0.0
H3405 H 0.08084 0.60967 0.03469 0.0
H3406 H 0.09594 0.62406 0.01499 0.0
H3407 H 0.12621 0.60905 0.93834 0.0
H3408 H 0.16087 0.65029 0.83328 0.0
H3409 H 0.14559 0.63662 0.85723 0.0
H3410 H 0.11748 0.652 0.94014 0.0
C3411 C 0.09535 0.61597 0.99613 0.0
C3412 C 0.12412 0.61838 0.93847 0.0
C3413 C 0.08677 0.60764 0.00775 0.0
C3414 C 0.15568 0.65253 0.86203 0.0
C3415 C 0.147 0.64462 0.87605 0.0
C3416 C 0.11951 0.64264 0.94004 0.0
C3417 C 0.10329 0.61371 0.96153 0.0
C3418 C 0.11277 0.62235 0.95023 0.0
C3419 C 0.1401 0.6471 0.91334 0.0
C3420 C 0.13078 0.63864 0.92752 0.0
H3421 H 0.09337 0.5864 0.93212 0.0
H3422 H 0.10807 0.60104 0.911 0.0
H3423 H 0.10194 0.63797 0.9596 0.0
H3424 H 0.15227 0.67368 0.94083 0.0
H3425 H 0.13702 0.65978 0.96554 0.0
C3426 C 0.08752 0.40065 0.65408 0.0
C3427 C 0.08989 0.40769 0.61702 0.0
C3428 C 0.09527 0.39157 0.66624 0.0
C3429 C 0.11945 0.37276 0.62163 0.0
H3430 H 0.12595 0.36663 0.74472 0.0
C3431 C 0.15738 0.34211 0.6818 0.0
C3432 C 0.15508 0.33495 0.71863 0.0
C3433 C 0.14906 0.35047 0.66774 0.0
C3434 C 0.12413 0.36813 0.71019 0.0
H3435 H 0.10253 0.41102 0.56483 0.0
H3436 H 0.11606 0.39534 0.58621 0.0
H3437 H 0.11229 0.38237 0.72457 0.0
H3438 H 0.14192 0.33047 0.76778 0.0
H3439 H 0.12748 0.34502 0.74336 0.0
H3440 H 0.13144 0.35859 0.60736 0.0
C3441 C 0.10806 0.39657 0.60522 0.0
C3442 C 0.11628 0.37716 0.69862 0.0
C3443 C 0.10031 0.4056 0.593 0.0
C3444 C 0.14408 0.33601 0.73986 0.0
C3445 C 0.1358 0.34437 0.72592 0.0
C3446 C 0.12735 0.36376 0.63321 0.0
C3447 C 0.10562 0.38936 0.64177 0.0
C3448 C 0.11385 0.37961 0.65418 0.0
C3449 C 0.13827 0.35186 0.69023 0.0
C3450 C 0.12978 0.36133 0.67764 0.0
H3451 H 0.07953 0.40199 0.67307 0.0
H3452 H 0.09303 0.38612 0.69432 0.0
H3453 H 0.11765 0.37425 0.58709 0.0
H3454 H 0.16579 0.3416 0.66495 0.0
H3455 H 0.15126 0.35616 0.64027 0.0
loop_
_geom_bond_atom_site_label_1
_geom_bond_atom_site_label_2
_geom_bond_distance
_geom_bond_site_symmetry_2
_ccdc_geom_bond_type
C0 C1 1.351 . S
C0 N3 1.368 . S
C0 H5 0.931 . S
C1 C0 1.351 . S
C1 N2 1.373 . S
C1 H29 0.930 . S
N2 C1 1.373 . S
N2 C4 1.340 . S
N3 C0 1.368 . S
N3 C4 1.321 . S
N3 Co6 2.135 . S
C4 N2 1.340 . S
C4 N3 1.321 . S
C4 H28 0.930 . S
H5 C0 0.931 . S
Co6 N3 2.135 . S
Co6 N9 2.121 . S
Co6 O14 2.055 . S
Co6 O17 2.039 . S
Co6 N20 2.140 . S
C7 O8 1.227 . S
C7 O17 1.265 . S
O8 C7 1.227 . S
N9 Co6 2.121 . S
N9 C11 1.375 . S
N9 C12 1.313 1_554 S
C10 C11 1.338 . S
C10 N13 1.377 1_554 S
C10 H30 0.930 . S
C11 N9 1.375 . S
C11 C10 1.338 . S
C11 H15 0.931 . S
C12 N9 1.313 1_556 S
C12 N13 1.344 . S
C12 H16 0.930 . S
N13 C10 1.377 1_556 S
N13 C12 1.344 . S
O14 Co6 2.055 . S
O14 C18 1.253 . S
H15 C11 0.931 . S
H16 C12 0.930 . S
O17 Co6 2.039 . S
O17 C7 1.265 . S
C18 O14 1.253 . S
C18 O19 1.227 . S
O19 C18 1.227 . S
N20 Co6 2.140 . S
N20 C23 1.346 . S
N20 C24 1.345 . S
C21 C22 1.387 . S
C21 C25 1.391 . S
C22 C21 1.387 . S
C22 C23 1.369 . S
C22 H31 0.929 . S
C23 N20 1.346 . S
C23 C22 1.369 . S
C23 H26 0.928 . S
C24 N20 1.345 . S
C24 C25 1.371 . S
C24 H27 0.931 . S
C25 C21 1.391 . S
C25 C24 1.371 . S
C25 H32 0.930 . S
H26 C23 0.928 . S
H27 C24 0.931 . S
H28 C4 0.930 . S
H29 C1 0.930 . S
H30 C10 0.930 . S
H31 C22 0.929 . S
H32 C25 0.930 . S
C33 C34 1.351 . S
C33 N36 1.368 . S
C33 H38 0.931 . S
C34 C33 1.351 . S
C34 N35 1.373 . S
C34 H62 0.930 . S
N35 C34 1.373 . S
N35 C37 1.340 . S
N36 C33 1.368 . S
N36 C37 1.321 . S
N36 Co39 2.135 . S
C37 N35 1.340 . S
C37 N36 1.321 . S
C37 H61 0.930 . S
H38 C33 0.931 . S
Co39 N36 2.135 . S
Co39 N42 2.121 . S
Co39 O47 2.055 . S
Co39 O50 2.039 . S
Co39 N53 2.140 . S
C40 O41 1.227 . S
C40 O50 1.265 . S
O41 C40 1.227 . S
N42 Co39 2.121 . S
N42 C44 1.375 . S
N42 C45 1.313 . S
C43 C44 1.338 . S
C43 N46 1.377 . S
C43 H63 0.930 . S
C44 N42 1.375 . S
C44 C43 1.338 . S
C44 H48 0.931 . S
C45 N42 1.313 . S
C45 N46 1.344 . S
C45 H49 0.930 . S
N46 C43 1.377 . S
N46 C45 1.344 . S
O47 Co39 2.055 . S
O47 C51 1.253 . S
H48 C44 0.931 . S
H49 C45 0.930 . S
O50 Co39 2.039 . S
O50 C40 1.265 . S
C51 O47 1.253 . S
C51 O52 1.227 . S
O52 C51 1.227 . S
N53 Co39 2.140 . S
N53 C56 1.346 . S
N53 C57 1.345 . S
C54 C55 1.387 . S
C54 C58 1.391 . S
C55 C54 1.387 . S
C55 C56 1.369 . S
C55 H64 0.929 . S
C56 N53 1.346 . S
C56 C55 1.369 . S
C56 H59 0.928 . S
C57 N53 1.345 . S
C57 C58 1.371 . S
C57 H60 0.931 . S
C58 C54 1.391 . S
C58 C57 1.371 . S
C58 H65 0.930 . S
H59 C56 0.928 . S
H60 C57 0.931 . S
H61 C37 0.930 . S
H62 C34 0.930 . S
H63 C43 0.930 . S
H64 C55 0.929 . S
H65 C58 0.930 . S
C66 C67 1.351 . S
C66 N69 1.368 . S
C66 H71 0.931 . S
C67 C66 1.351 . S
C67 N68 1.373 . S
C67 H95 0.930 . S
N68 C67 1.373 . S
N68 C70 1.340 . S
N69 C66 1.368 . S
N69 C70 1.321 . S
N69 Co72 2.135 . S
C70 N68 1.340 . S
C70 N69 1.321 . S
C70 H94 0.930 . S
H71 C66 0.931 . S
Co72 N69 2.135 . S
Co72 N75 2.121 . S
Co72 O80 2.055 . S
Co72 O83 2.039 . S
Co72 N86 2.140 . S
C73 O74 1.227 . S
C73 O83 1.265 . S
O74 C73 1.227 . S
N75 Co72 2.121 . S
N75 C77 1.375 . S
N75 C78 1.313 . S
C76 C77 1.338 . S
C76 N79 1.377 . S
C76 H96 0.930 . S
C77 N75 1.375 . S
C77 C76 1.338 . S
C77 H81 0.931 . S
C78 N75 1.313 . S
C78 N79 1.344 . S
C78 H82 0.930 . S
N79 C76 1.377 . S
N79 C78 1.344 . S
O80 Co72 2.055 . S
O80 C84 1.253 . S
H81 C77 0.931 . S
H82 C78 0.930 . S
O83 Co72 2.039 . S
O83 C73 1.265 . S
C84 O80 1.253 . S
C84 O85 1.227 . S
O85 C84 1.227 . S
N86 Co72 2.140 . S
N86 C89 1.346 . S
N86 C90 1.345 . S
C87 C88 1.387 . S
C87 C91 1.391 . S
C88 C87 1.387 . S
C88 C89 1.369 . S
C88 H97 0.929 . S
C89 N86 1.346 . S
C89 C88 1.369 . S
C89 H92 0.928 . S
C90 N86 1.345 . S
C90 C91 1.371 . S
C90 H93 0.931 . S
C91 C87 1.391 . S
C91 C90 1.371 . S
C91 H98 0.930 . S
H92 C89 0.928 . S
H93 C90 0.931 . S
H94 C70 0.930 . S
H95 C67 0.930 . S
H96 C76 0.930 . S
H97 C88 0.929 . S
H98 C91 0.930 . S
C99 C100 1.351 . S
C99 N102 1.368 . S
C99 H104 0.931 . S
C100 C99 1.351 . S
C100 N101 1.373 . S
C100 H128 0.930 . S
N101 C100 1.373 . S
N101 C103 1.340 . S
N102 C99 1.368 . S
N102 C103 1.321 . S
N102 Co105 2.135 . S
C103 N101 1.340 . S
C103 N102 1.321 . S
C103 H127 0.930 . S
H104 C99 0.931 . S
Co105 N102 2.135 . S
Co105 N108 2.121 . S
Co105 O113 2.055 . S
Co105 O116 2.039 . S
Co105 N119 2.140 . S
C106 O107 1.227 . S
C106 O116 1.265 . S
O107 C106 1.227 . S
N108 Co105 2.121 . S
N108 C110 1.375 . S
N108 C111 1.313 . S
C109 C110 1.338 . S
C109 N112 1.377 . S
C109 H129 0.930 . S
C110 N108 1.375 . S
C110 C109 1.338 . S
C110 H114 0.931 . S
C111 N108 1.313 . S
C111 N112 1.344 . S
C111 H115 0.930 . S
N112 C109 1.377 . S
N112 C111 1.344 . S
O113 Co105 2.055 . S
O113 C117 1.253 . S
H114 C110 0.931 . S
H115 C111 0.930 . S
O116 Co105 2.039 . S
O116 C106 1.265 . S
C117 O113 1.253 . S
C117 O118 1.227 . S
O118 C117 1.227 . S
N119 Co105 2.140 . S
N119 C122 1.346 . S
N119 C123 1.345 . S
C120 C121 1.387 . S
C120 C124 1.391 . S
C121 C120 1.387 . S
C121 C122 1.369 . S
C121 H130 0.929 . S
C122 N119 1.346 . S
C122 C121 1.369 . S
C122 H125 0.928 . S
C123 N119 1.345 . S
C123 C124 1.371 . S
C123 H126 0.931 . S
C124 C120 1.391 . S
C124 C123 1.371 . S
C124 H131 0.930 . S
H125 C122 0.928 . S
H126 C123 0.931 . S
H127 C103 0.930 . S
H128 C100 0.930 . S
H129 C109 0.930 . S
H130 C121 0.929 . S
H131 C124 0.930 . S
C132 C133 1.351 . S
C132 N135 1.368 . S
C132 H137 0.931 . S
C133 C132 1.351 . S
C133 N134 1.373 . S
C133 H161 0.930 . S
N134 C133 1.373 . S
N134 C136 1.340 . S
N135 C132 1.368 . S
N135 C136 1.321 . S
N135 Co138 2.135 . S
C136 N134 1.340 . S
C136 N135 1.321 . S
C136 H160 0.930 . S
H137 C132 0.931 . S
Co138 N135 2.135 . S
Co138 N141 2.121 . S
Co138 O146 2.055 . S
Co138 O149 2.039 . S
Co138 N152 2.140 . S
C139 O140 1.227 . S
C139 O149 1.265 . S
O140 C139 1.227 . S
N141 Co138 2.121 . S
N141 C143 1.375 . S
N141 C144 1.313 . S
C142 C143 1.338 . S
C142 N145 1.377 . S
C142 H162 0.930 . S
C143 N141 1.375 . S
C143 C142 1.338 . S
C143 H147 0.931 . S
C144 N141 1.313 . S
C144 N145 1.344 . S
C144 H148 0.930 . S
N145 C142 1.377 . S
N145 C144 1.344 . S
O146 Co138 2.055 . S
O146 C150 1.253 . S
H147 C143 0.931 . S
H148 C144 0.930 . S
O149 Co138 2.039 . S
O149 C139 1.265 . S
C150 O146 1.253 . S
C150 O151 1.227 . S
O151 C150 1.227 . S
N152 Co138 2.140 . S
N152 C155 1.346 . S
N152 C156 1.345 . S
C153 C154 1.387 . S
C153 C157 1.391 . S
C154 C153 1.387 . S
C154 C155 1.369 . S
C154 H163 0.929 . S
C155 N152 1.346 . S
C155 C154 1.369 . S
C155 H158 0.928 . S
C156 N152 1.345 . S
C156 C157 1.371 . S
C156 H159 0.931 . S
C157 C153 1.391 . S
C157 C156 1.371 . S
C157 H164 0.930 . S
H158 C155 0.928 . S
H159 C156 0.931 . S
H160 C136 0.930 . S
H161 C133 0.930 . S
H162 C142 0.930 . S
H163 C154 0.929 . S
H164 C157 0.930 . S
C165 C166 1.351 . S
C165 N168 1.368 . S
C165 H170 0.931 . S
C166 C165 1.351 . S
C166 N167 1.373 . S
C166 H194 0.930 . S
N167 C166 1.373 . S
N167 C169 1.340 . S
N168 C165 1.368 . S
N168 C169 1.321 . S
N168 Co171 2.135 . S
C169 N167 1.340 . S
C169 N168 1.321 . S
C169 H193 0.930 . S
H170 C165 0.931 . S
Co171 N168 2.135 . S
Co171 N174 2.121 . S
Co171 O179 2.055 . S
Co171 O182 2.039 . S
Co171 N185 2.140 . S
C172 O173 1.227 . S
C172 O182 1.265 . S
O173 C172 1.227 . S
N174 Co171 2.121 . S
N174 C176 1.375 . S
N174 C177 1.313 . S
C175 C176 1.338 . S
C175 N178 1.377 . S
C175 H195 0.930 . S
C176 N174 1.375 . S
C176 C175 1.338 . S
C176 H180 0.931 . S
C177 N174 1.313 . S
C177 N178 1.344 . S
C177 H181 0.930 . S
N178 C175 1.377 . S
N178 C177 1.344 . S
O179 Co171 2.055 . S
O179 C183 1.253 . S
H180 C176 0.931 . S
H181 C177 0.930 . S
O182 Co171 2.039 . S
O182 C172 1.265 . S
C183 O179 1.253 . S
C183 O184 1.227 . S
O184 C183 1.227 . S
N185 Co171 2.140 . S
N185 C188 1.346 . S
N185 C189 1.345 . S
C186 C187 1.387 . S
C186 C190 1.391 . S
C187 C186 1.387 . S
C187 C188 1.369 . S
C187 H196 0.929 . S
C188 N185 1.346 . S
C188 C187 1.369 . S
C188 H191 0.928 . S
C189 N185 1.345 . S
C189 C190 1.371 . S
C189 H192 0.931 . S
C190 C186 1.391 . S
C190 C189 1.371 . S
C190 H197 0.930 . S
H191 C188 0.928 . S
H192 C189 0.931 . S
H193 C169 0.930 . S
H194 C166 0.930 . S
H195 C175 0.930 . S
H196 C187 0.929 . S
H197 C190 0.930 . S
C198 C199 1.351 . S
C198 N201 1.368 . S
C198 H203 0.931 1_556 S
C199 C198 1.351 . S
C199 N200 1.373 . S
C199 H227 0.930 . S
N200 C199 1.373 . S
N200 C202 1.340 . S
N201 C198 1.368 . S
N201 C202 1.321 . S
N201 Co204 2.135 1_556 S
C202 N200 1.340 . S
C202 N201 1.321 . S
C202 H226 0.930 . S
H203 C198 0.931 1_554 S
Co204 N201 2.135 1_554 S
Co204 N207 2.121 . S
Co204 O212 2.055 . S
Co204 O215 2.039 1_554 S
Co204 N218 2.140 . S
C205 O206 1.227 . S
C205 O215 1.265 . S
O206 C205 1.227 . S
N207 Co204 2.121 . S
N207 C209 1.375 . S
N207 C210 1.313 . S
C208 C209 1.338 . S
C208 N211 1.377 . S
C208 H228 0.930 . S
C209 N207 1.375 . S
C209 C208 1.338 . S
C209 H213 0.931 . S
C210 N207 1.313 . S
C210 N211 1.344 . S
C210 H214 0.930 . S
N211 C208 1.377 . S
N211 C210 1.344 . S
O212 Co204 2.055 . S
O212 C216 1.253 . S
H213 C209 0.931 . S
H214 C210 0.930 . S
O215 Co204 2.039 1_556 S
O215 C205 1.265 . S
C216 O212 1.253 . S
C216 O217 1.227 . S
O217 C216 1.227 . S
N218 Co204 2.140 . S
N218 C221 1.346 1_554 S
N218 C222 1.345 . S
C219 C220 1.387 1_554 S
C219 C223 1.391 . S
C220 C219 1.387 1_556 S
C220 C221 1.369 . S
C220 H229 0.929 . S
C221 N218 1.346 1_556 S
C221 C220 1.369 . S
C221 H224 0.928 . S
C222 N218 1.345 . S
C222 C223 1.371 . S
C222 H225 0.931 . S
C223 C219 1.391 . S
C223 C222 1.371 . S
C223 H230 0.930 . S
H224 C221 0.928 . S
H225 C222 0.931 . S
H226 C202 0.930 . S
H227 C199 0.930 . S
H228 C208 0.930 . S
H229 C220 0.929 . S
H230 C223 0.930 . S
C231 C232 1.351 . S
C231 N234 1.368 . S
C231 H236 0.931 . S
C232 C231 1.351 . S
C232 N233 1.373 . S
C232 H260 0.930 . S
N233 C232 1.373 . S
N233 C235 1.340 . S
N234 C231 1.368 . S
N234 C235 1.321 . S
N234 Co237 2.135 . S
C235 N233 1.340 . S
C235 N234 1.321 . S
C235 H259 0.930 . S
H236 C231 0.931 . S
Co237 N234 2.135 . S
Co237 N240 2.121 . S
Co237 O245 2.055 . S
Co237 O248 2.039 . S
Co237 N251 2.140 . S
C238 O239 1.227 . S
C238 O248 1.265 . S
O239 C238 1.227 . S
N240 Co237 2.121 . S
N240 C242 1.375 . S
N240 C243 1.313 . S
C241 C242 1.338 . S
C241 N244 1.377 . S
C241 H261 0.930 . S
C242 N240 1.375 . S
C242 C241 1.338 . S
C242 H246 0.931 . S
C243 N240 1.313 . S
C243 N244 1.344 . S
C243 H247 0.930 . S
N244 C241 1.377 . S
N244 C243 1.344 . S
O245 Co237 2.055 . S
O245 C249 1.253 . S
H246 C242 0.931 . S
H247 C243 0.930 . S
O248 Co237 2.039 . S
O248 C238 1.265 . S
C249 O245 1.253 . S
C249 O250 1.227 . S
O250 C249 1.227 . S
N251 Co237 2.140 . S
N251 C254 1.346 . S
N251 C255 1.345 . S
C252 C253 1.387 . S
C252 C256 1.391 . S
C253 C252 1.387 . S
C253 C254 1.369 . S
C253 H262 0.929 . S
C254 N251 1.346 . S
C254 C253 1.369 . S
C254 H257 0.928 . S
C255 N251 1.345 . S
C255 C256 1.371 . S
C255 H258 0.931 . S
C256 C252 1.391 . S
C256 C255 1.371 . S
C256 H263 0.930 . S
H257 C254 0.928 . S
H258 C255 0.931 . S
H259 C235 0.930 . S
H260 C232 0.930 . S
H261 C241 0.930 . S
H262 C253 0.929 . S
H263 C256 0.930 . S
C264 C265 1.351 1_554 S
C264 N267 1.368 1_554 S
C264 H269 0.931 . S
C265 C264 1.351 1_556 S
C265 N266 1.373 . S
C265 H293 0.930 . S
N266 C265 1.373 . S
N266 C268 1.340 . S
N267 C264 1.368 1_556 S
N267 C268 1.321 . S
N267 Co270 2.135 1_556 S
C268 N266 1.340 . S
C268 N267 1.321 . S
C268 H292 0.930 . S
H269 C264 0.931 . S
Co270 N267 2.135 1_554 S
Co270 N273 2.121 . S
Co270 O278 2.055 . S
Co270 O281 2.039 1_554 S
Co270 N284 2.140 . S
C271 O272 1.227 . S
C271 O281 1.265 . S
O272 C271 1.227 . S
N273 Co270 2.121 . S
N273 C275 1.375 . S
N273 C276 1.313 . S
C274 C275 1.338 . S
C274 N277 1.377 . S
C274 H294 0.930 . S
C275 N273 1.375 . S
C275 C274 1.338 . S
C275 H279 0.931 . S
C276 N273 1.313 . S
C276 N277 1.344 . S
C276 H280 0.930 . S
N277 C274 1.377 . S
N277 C276 1.344 . S
O278 Co270 2.055 . S
O278 C282 1.253 . S
H279 C275 0.931 . S
H280 C276 0.930 . S
O281 Co270 2.039 1_556 S
O281 C271 1.265 . S
C282 O278 1.253 . S
C282 O283 1.227 . S
O283 C282 1.227 . S
N284 Co270 2.140 . S
N284 C287 1.346 1_554 S
N284 C288 1.345 . S
C285 C286 1.387 1_554 S
C285 C289 1.391 . S
C286 C285 1.387 1_556 S
C286 C287 1.369 . S
C286 H295 0.929 . S
C287 N284 1.346 1_556 S
C287 C286 1.369 . S
C287 H290 0.928 . S
C288 N284 1.345 . S
C288 C289 1.371 . S
C288 H291 0.931 . S
C289 C285 1.391 . S
C289 C288 1.371 . S
C289 H296 0.930 . S
H290 C287 0.928 . S
H291 C288 0.931 . S
H292 C268 0.930 . S
H293 C265 0.930 . S
H294 C274 0.930 . S
H295 C286 0.929 . S
H296 C289 0.930 . S
C297 C298 1.351 . S
C297 N300 1.368 . S
C297 H302 0.931 . S
C298 C297 1.351 . S
C298 N299 1.373 . S
C298 H326 0.930 . S
N299 C298 1.373 . S
N299 C301 1.340 . S
N300 C297 1.368 . S
N300 C301 1.321 . S
N300 Co303 2.135 . S
C301 N299 1.340 . S
C301 N300 1.321 . S
C301 H325 0.930 . S
H302 C297 0.931 . S
Co303 N300 2.135 . S
Co303 N306 2.121 . S
Co303 O311 2.055 . S
Co303 O314 2.039 . S
Co303 N317 2.140 . S
C304 O305 1.227 . S
C304 O314 1.265 . S
O305 C304 1.227 . S
N306 Co303 2.121 . S
N306 C308 1.375 . S
N306 C309 1.313 . S
C307 C308 1.338 . S
C307 N310 1.377 . S
C307 H327 0.930 . S
C308 N306 1.375 . S
C308 C307 1.338 . S
C308 H312 0.931 . S
C309 N306 1.313 . S
C309 N310 1.344 . S
C309 H313 0.930 . S
N310 C307 1.377 . S
N310 C309 1.344 . S
O311 Co303 2.055 . S
O311 C315 1.253 . S
H312 C308 0.931 . S
H313 C309 0.930 . S
O314 Co303 2.039 . S
O314 C304 1.265 . S
C315 O311 1.253 . S
C315 O316 1.227 . S
O316 C315 1.227 . S
N317 Co303 2.140 . S
N317 C320 1.346 . S
N317 C321 1.345 . S
C318 C319 1.387 . S
C318 C322 1.391 . S
C319 C318 1.387 . S
C319 C320 1.369 . S
C319 H328 0.929 . S
C320 N317 1.346 . S
C320 C319 1.369 . S
C320 H323 0.928 . S
C321 N317 1.345 . S
C321 C322 1.371 . S
C321 H324 0.931 . S
C322 C318 1.391 . S
C322 C321 1.371 . S
C322 H329 0.930 . S
H323 C320 0.928 . S
H324 C321 0.931 . S
H325 C301 0.930 . S
H326 C298 0.930 . S
H327 C307 0.930 . S
H328 C319 0.929 . S
H329 C322 0.930 . S
C330 C331 1.351 . S
C330 N333 1.368 . S
C330 H335 0.931 . S
C331 C330 1.351 . S
C331 N332 1.373 . S
C331 H359 0.930 . S
N332 C331 1.373 . S
N332 C334 1.340 . S
N333 C330 1.368 . S
N333 C334 1.321 . S
N333 Co336 2.135 . S
C334 N332 1.340 . S
C334 N333 1.321 . S
C334 H358 0.930 . S
H335 C330 0.931 . S
Co336 N333 2.135 . S
Co336 N339 2.121 . S
Co336 O344 2.055 . S
Co336 O347 2.039 . S
Co336 N350 2.140 . S
C337 O338 1.227 . S
C337 O347 1.265 . S
O338 C337 1.227 . S
N339 Co336 2.121 . S
N339 C341 1.375 . S
N339 C342 1.313 . S
C340 C341 1.338 . S
C340 N343 1.377 . S
C340 H360 0.930 . S
C341 N339 1.375 . S
C341 C340 1.338 . S
C341 H345 0.931 . S
C342 N339 1.313 . S
C342 N343 1.344 . S
C342 H346 0.930 . S
N343 C340 1.377 . S
N343 C342 1.344 . S
O344 Co336 2.055 . S
O344 C348 1.253 . S
H345 C341 0.931 . S
H346 C342 0.930 . S
O347 Co336 2.039 . S
O347 C337 1.265 . S
C348 O344 1.253 . S
C348 O349 1.227 . S
O349 C348 1.227 . S
N350 Co336 2.140 . S
N350 C353 1.346 . S
N350 C354 1.345 . S
C351 C352 1.387 . S
C351 C355 1.391 . S
C352 C351 1.387 . S
C352 C353 1.369 . S
C352 H361 0.929 . S
C353 N350 1.346 . S
C353 C352 1.369 . S
C353 H356 0.928 . S
C354 N350 1.345 . S
C354 C355 1.371 . S
C354 H357 0.931 . S
C355 C351 1.391 . S
C355 C354 1.371 . S
C355 H362 0.930 . S
H356 C353 0.928 . S
H357 C354 0.931 . S
H358 C334 0.930 . S
H359 C331 0.930 . S
H360 C340 0.930 . S
H361 C352 0.929 . S
H362 C355 0.930 . S
C363 C364 1.351 . S
C363 N366 1.368 . S
C363 H368 0.931 . S
C364 C363 1.351 . S
C364 N365 1.373 . S
C364 H392 0.930 . S
N365 C364 1.373 . S
N365 C367 1.340 . S
N366 C363 1.368 . S
N366 C367 1.321 . S
N366 Co369 2.135 . S
C367 N365 1.340 . S
C367 N366 1.321 . S
C367 H391 0.930 . S
H368 C363 0.931 . S
Co369 N366 2.135 . S
Co369 N372 2.121 . S
Co369 O377 2.055 . S
Co369 O380 2.039 . S
Co369 N383 2.140 . S
C370 O371 1.227 . S
C370 O380 1.265 . S
O371 C370 1.227 . S
N372 Co369 2.121 . S
N372 C374 1.375 . S
N372 C375 1.313 . S
C373 C374 1.338 . S
C373 N376 1.377 . S
C373 H393 0.930 . S
C374 N372 1.375 . S
C374 C373 1.338 . S
C374 H378 0.931 . S
C375 N372 1.313 . S
C375 N376 1.344 . S
C375 H379 0.930 . S
N376 C373 1.377 . S
N376 C375 1.344 . S
O377 Co369 2.055 . S
O377 C381 1.253 . S
H378 C374 0.931 . S
H379 C375 0.930 . S
O380 Co369 2.039 . S
O380 C370 1.265 . S
C381 O377 1.253 . S
C381 O382 1.227 . S
O382 C381 1.227 . S
N383 Co369 2.140 . S
N383 C386 1.346 . S
N383 C387 1.345 . S
C384 C385 1.387 . S
C384 C388 1.391 . S
C385 C384 1.387 . S
C385 C386 1.369 . S
C385 H394 0.929 . S
C386 N383 1.346 . S
C386 C385 1.369 . S
C386 H389 0.928 . S
C387 N383 1.345 . S
C387 C388 1.371 . S
C387 H390 0.931 . S
C388 C384 1.391 . S
C388 C387 1.371 . S
C388 H395 0.930 . S
H389 C386 0.928 . S
H390 C387 0.931 . S
H391 C367 0.930 . S
H392 C364 0.930 . S
H393 C373 0.930 . S
H394 C385 0.929 . S
H395 C388 0.930 . S
C396 C397 1.351 . S
C396 N399 1.368 . S
C396 H401 0.931 . S
C397 C396 1.351 . S
C397 N398 1.373 . S
C397 H425 0.930 . S
N398 C397 1.373 . S
N398 C400 1.340 . S
N399 C396 1.368 . S
N399 C400 1.321 . S
N399 Co402 2.135 . S
C400 N398 1.340 . S
C400 N399 1.321 . S
C400 H424 0.930 . S
H401 C396 0.931 . S
Co402 N399 2.135 . S
Co402 N405 2.121 . S
Co402 O410 2.055 . S
Co402 O413 2.039 . S
Co402 N416 2.140 . S
C403 O404 1.227 . S
C403 O413 1.265 . S
O404 C403 1.227 . S
N405 Co402 2.121 . S
N405 C407 1.375 . S
N405 C408 1.313 . S
C406 C407 1.338 . S
C406 N409 1.377 . S
C406 H426 0.930 . S
C407 N405 1.375 . S
C407 C406 1.338 . S
C407 H411 0.931 . S
C408 N405 1.313 . S
C408 N409 1.344 . S
C408 H412 0.930 . S
N409 C406 1.377 . S
N409 C408 1.344 . S
O410 Co402 2.055 . S
O410 C414 1.253 . S
H411 C407 0.931 . S
H412 C408 0.930 . S
O413 Co402 2.039 . S
O413 C403 1.265 . S
C414 O410 1.253 . S
C414 O415 1.227 . S
O415 C414 1.227 . S
N416 Co402 2.140 . S
N416 C419 1.346 . S
N416 C420 1.345 . S
C417 C418 1.387 . S
C417 C421 1.391 . S
C418 C417 1.387 . S
C418 C419 1.369 . S
C418 H427 0.929 . S
C419 N416 1.346 . S
C419 C418 1.369 . S
C419 H422 0.928 . S
C420 N416 1.345 . S
C420 C421 1.371 . S
C420 H423 0.931 . S
C421 C417 1.391 . S
C421 C420 1.371 . S
C421 H428 0.930 . S
H422 C419 0.928 . S
H423 C420 0.931 . S
H424 C400 0.930 . S
H425 C397 0.930 . S
H426 C406 0.930 . S
H427 C418 0.929 . S
H428 C421 0.930 . S
C429 C430 1.351 . S
C429 N432 1.368 . S
C429 H434 0.931 . S
C430 C429 1.351 . S
C430 N431 1.373 . S
C430 H458 0.930 . S
N431 C430 1.373 . S
N431 C433 1.340 . S
N432 C429 1.368 . S
N432 C433 1.321 . S
N432 Co435 2.135 . S
C433 N431 1.340 . S
C433 N432 1.321 . S
C433 H457 0.930 . S
H434 C429 0.931 . S
Co435 N432 2.135 . S
Co435 N438 2.121 . S
Co435 O443 2.055 . S
Co435 O446 2.039 . S
Co435 N449 2.140 . S
C436 O437 1.227 . S
C436 O446 1.265 . S
O437 C436 1.227 . S
N438 Co435 2.121 . S
N438 C440 1.375 . S
N438 C441 1.313 . S
C439 C440 1.338 . S
C439 N442 1.377 . S
C439 H459 0.930 . S
C440 N438 1.375 . S
C440 C439 1.338 . S
C440 H444 0.931 . S
C441 N438 1.313 . S
C441 N442 1.344 . S
C441 H445 0.930 . S
N442 C439 1.377 . S
N442 C441 1.344 . S
O443 Co435 2.055 . S
O443 C447 1.253 . S
H444 C440 0.931 . S
H445 C441 0.930 . S
O446 Co435 2.039 . S
O446 C436 1.265 . S
C447 O443 1.253 . S
C447 O448 1.227 . S
O448 C447 1.227 . S
N449 Co435 2.140 . S
N449 C452 1.346 . S
N449 C453 1.345 . S
C450 C451 1.387 . S
C450 C454 1.391 . S
C451 C450 1.387 . S
C451 C452 1.369 . S
C451 H460 0.929 . S
C452 N449 1.346 . S
C452 C451 1.369 . S
C452 H455 0.928 . S
C453 N449 1.345 . S
C453 C454 1.371 . S
C453 H456 0.931 . S
C454 C450 1.391 . S
C454 C453 1.371 . S
C454 H461 0.930 . S
H455 C452 0.928 . S
H456 C453 0.931 . S
H457 C433 0.930 . S
H458 C430 0.930 . S
H459 C439 0.930 . S
H460 C451 0.929 . S
H461 C454 0.930 . S
C462 C463 1.351 . S
C462 N465 1.368 . S
C462 H467 0.931 . S
C463 C462 1.351 . S
C463 N464 1.373 . S
C463 H491 0.930 . S
N464 C463 1.373 . S
N464 C466 1.340 . S
N465 C462 1.368 . S
N465 C466 1.321 . S
N465 Co468 2.135 . S
C466 N464 1.340 . S
C466 N465 1.321 . S
C466 H490 0.930 . S
H467 C462 0.931 . S
Co468 N465 2.135 . S
Co468 N471 2.121 . S
Co468 O476 2.055 . S
Co468 O479 2.039 . S
Co468 N482 2.140 . S
C469 O470 1.227 . S
C469 O479 1.265 . S
O470 C469 1.227 . S
N471 Co468 2.121 . S
N471 C473 1.375 . S
N471 C474 1.313 1_554 S
C472 C473 1.338 . S
C472 N475 1.377 1_554 S
C472 H492 0.930 . S
C473 N471 1.375 . S
C473 C472 1.338 . S
C473 H477 0.931 . S
C474 N471 1.313 1_556 S
C474 N475 1.344 . S
C474 H478 0.930 . S
N475 C472 1.377 1_556 S
N475 C474 1.344 . S
O476 Co468 2.055 . S
O476 C480 1.253 . S
H477 C473 0.931 . S
H478 C474 0.930 . S
O479 Co468 2.039 . S
O479 C469 1.265 . S
C480 O476 1.253 . S
C480 O481 1.227 . S
O481 C480 1.227 . S
N482 Co468 2.140 . S
N482 C485 1.346 . S
N482 C486 1.345 . S
C483 C484 1.387 . S
C483 C487 1.391 . S
C484 C483 1.387 . S
C484 C485 1.369 . S
C484 H493 0.929 . S
C485 N482 1.346 . S
C485 C484 1.369 . S
C485 H488 0.928 . S
C486 N482 1.345 . S
C486 C487 1.371 . S
C486 H489 0.931 . S
C487 C483 1.391 . S
C487 C486 1.371 . S
C487 H494 0.930 . S
H488 C485 0.928 . S
H489 C486 0.931 . S
H490 C466 0.930 . S
H491 C463 0.930 . S
H492 C472 0.930 . S
H493 C484 0.929 . S
H494 C487 0.930 . S
C495 C496 1.351 . S
C495 N498 1.368 . S
C495 H500 0.931 . S
C496 C495 1.351 . S
C496 N497 1.373 . S
C496 H524 0.930 . S
N497 C496 1.373 . S
N497 C499 1.340 . S
N498 C495 1.368 . S
N498 C499 1.321 . S
N498 Co501 2.135 . S
C499 N497 1.340 . S
C499 N498 1.321 . S
C499 H523 0.930 . S
H500 C495 0.931 . S
Co501 N498 2.135 . S
Co501 N504 2.121 . S
Co501 O509 2.055 . S
Co501 O512 2.039 . S
Co501 N515 2.140 . S
C502 O503 1.227 . S
C502 O512 1.265 . S
O503 C502 1.227 . S
N504 Co501 2.121 . S
N504 C506 1.375 . S
N504 C507 1.313 . S
C505 C506 1.338 . S
C505 N508 1.377 . S
C505 H525 0.930 . S
C506 N504 1.375 . S
C506 C505 1.338 . S
C506 H510 0.931 . S
C507 N504 1.313 . S
C507 N508 1.344 . S
C507 H511 0.930 . S
N508 C505 1.377 . S
N508 C507 1.344 . S
O509 Co501 2.055 . S
O509 C513 1.253 . S
H510 C506 0.931 . S
H511 C507 0.930 . S
O512 Co501 2.039 . S
O512 C502 1.265 . S
C513 O509 1.253 . S
C513 O514 1.227 . S
O514 C513 1.227 . S
N515 Co501 2.140 . S
N515 C518 1.346 . S
N515 C519 1.345 . S
C516 C517 1.387 . S
C516 C520 1.391 . S
C517 C516 1.387 . S
C517 C518 1.369 . S
C517 H526 0.929 . S
C518 N515 1.346 . S
C518 C517 1.369 . S
C518 H521 0.928 . S
C519 N515 1.345 . S
C519 C520 1.371 . S
C519 H522 0.931 . S
C520 C516 1.391 . S
C520 C519 1.371 . S
C520 H527 0.930 . S
H521 C518 0.928 . S
H522 C519 0.931 . S
H523 C499 0.930 . S
H524 C496 0.930 . S
H525 C505 0.930 . S
H526 C517 0.929 . S
H527 C520 0.930 . S
C528 C529 1.351 . S
C528 N531 1.368 . S
C528 H533 0.931 . S
C529 C528 1.351 . S
C529 N530 1.373 . S
C529 H557 0.930 . S
N530 C529 1.373 . S
N530 C532 1.340 . S
N531 C528 1.368 . S
N531 C532 1.321 . S
N531 Co534 2.135 . S
C532 N530 1.340 . S
C532 N531 1.321 . S
C532 H556 0.930 . S
H533 C528 0.931 . S
Co534 N531 2.135 . S
Co534 N537 2.121 . S
Co534 O542 2.055 . S
Co534 O545 2.039 . S
Co534 N548 2.140 . S
C535 O536 1.227 . S
C535 O545 1.265 . S
O536 C535 1.227 . S
N537 Co534 2.121 . S
N537 C539 1.375 . S
N537 C540 1.313 . S
C538 C539 1.338 . S
C538 N541 1.377 . S
C538 H558 0.930 . S
C539 N537 1.375 . S
C539 C538 1.338 . S
C539 H543 0.931 . S
C540 N537 1.313 . S
C540 N541 1.344 . S
C540 H544 0.930 . S
N541 C538 1.377 . S
N541 C540 1.344 . S
O542 Co534 2.055 . S
O542 C546 1.253 . S
H543 C539 0.931 . S
H544 C540 0.930 . S
O545 Co534 2.039 . S
O545 C535 1.265 . S
C546 O542 1.253 . S
C546 O547 1.227 . S
O547 C546 1.227 . S
N548 Co534 2.140 . S
N548 C551 1.346 . S
N548 C552 1.345 . S
C549 C550 1.387 . S
C549 C553 1.391 . S
C550 C549 1.387 . S
C550 C551 1.369 . S
C550 H559 0.929 . S
C551 N548 1.346 . S
C551 C550 1.369 . S
C551 H554 0.928 . S
C552 N548 1.345 . S
C552 C553 1.371 . S
C552 H555 0.931 . S
C553 C549 1.391 . S
C553 C552 1.371 . S
C553 H560 0.930 . S
H554 C551 0.928 . S
H555 C552 0.931 . S
H556 C532 0.930 . S
H557 C529 0.930 . S
H558 C538 0.930 . S
H559 C550 0.929 . S
H560 C553 0.930 . S
C561 C562 1.351 . S
C561 N564 1.368 . S
C561 H566 0.931 . S
C562 C561 1.351 . S
C562 N563 1.373 . S
C562 H590 0.930 . S
N563 C562 1.373 . S
N563 C565 1.340 . S
N564 C561 1.368 . S
N564 C565 1.321 . S
N564 Co567 2.135 . S
C565 N563 1.340 . S
C565 N564 1.321 . S
C565 H589 0.930 . S
H566 C561 0.931 . S
Co567 N564 2.135 . S
Co567 N570 2.121 . S
Co567 O575 2.055 . S
Co567 O578 2.039 . S
Co567 N581 2.140 . S
C568 O569 1.227 . S
C568 O578 1.265 . S
O569 C568 1.227 . S
N570 Co567 2.121 . S
N570 C572 1.375 . S
N570 C573 1.313 . S
C571 C572 1.338 . S
C571 N574 1.377 . S
C571 H591 0.930 . S
C572 N570 1.375 . S
C572 C571 1.338 . S
C572 H576 0.931 . S
C573 N570 1.313 . S
C573 N574 1.344 . S
C573 H577 0.930 . S
N574 C571 1.377 . S
N574 C573 1.344 . S
O575 Co567 2.055 . S
O575 C579 1.253 . S
H576 C572 0.931 . S
H577 C573 0.930 . S
O578 Co567 2.039 . S
O578 C568 1.265 . S
C579 O575 1.253 . S
C579 O580 1.227 . S
O580 C579 1.227 . S
N581 Co567 2.140 . S
N581 C584 1.346 . S
N581 C585 1.345 . S
C582 C583 1.387 . S
C582 C586 1.391 . S
C583 C582 1.387 . S
C583 C584 1.369 . S
C583 H592 0.929 . S
C584 N581 1.346 . S
C584 C583 1.369 . S
C584 H587 0.928 . S
C585 N581 1.345 . S
C585 C586 1.371 . S
C585 H588 0.931 . S
C586 C582 1.391 . S
C586 C585 1.371 . S
C586 H593 0.930 . S
H587 C584 0.928 . S
H588 C585 0.931 . S
H589 C565 0.930 . S
H590 C562 0.930 . S
H591 C571 0.930 . S
H592 C583 0.929 . S
H593 C586 0.930 . S
C594 C595 1.351 . S
C594 N597 1.368 . S
C594 H599 0.931 . S
C595 C594 1.351 . S
C595 N596 1.373 . S
C595 H623 0.930 . S
N596 C595 1.373 . S
N596 C598 1.340 . S
N597 C594 1.368 . S
N597 C598 1.321 . S
N597 Co600 2.135 . S
C598 N596 1.340 . S
C598 N597 1.321 . S
C598 H622 0.930 . S
H599 C594 0.931 . S
Co600 N597 2.135 . S
Co600 N603 2.121 . S
Co600 O608 2.055 . S
Co600 O611 2.039 . S
Co600 N614 2.140 . S
C601 O602 1.227 . S
C601 O611 1.265 . S
O602 C601 1.227 . S
N603 Co600 2.121 . S
N603 C605 1.375 . S
N603 C606 1.313 1_554 S
C604 C605 1.338 . S
C604 N607 1.377 1_554 S
C604 H624 0.930 . S
C605 N603 1.375 . S
C605 C604 1.338 . S
C605 H609 0.931 . S
C606 N603 1.313 1_556 S
C606 N607 1.344 . S
C606 H610 0.930 . S
N607 C604 1.377 1_556 S
N607 C606 1.344 . S
O608 Co600 2.055 . S
O608 C612 1.253 . S
H609 C605 0.931 . S
H610 C606 0.930 . S
O611 Co600 2.039 . S
O611 C601 1.265 . S
C612 O608 1.253 . S
C612 O613 1.227 . S
O613 C612 1.227 . S
N614 Co600 2.140 . S
N614 C617 1.346 . S
N614 C618 1.345 . S
C615 C616 1.387 . S
C615 C619 1.391 . S
C616 C615 1.387 . S
C616 C617 1.369 . S
C616 H625 0.929 . S
C617 N614 1.346 . S
C617 C616 1.369 . S
C617 H620 0.928 . S
C618 N614 1.345 . S
C618 C619 1.371 . S
C618 H621 0.931 . S
C619 C615 1.391 . S
C619 C618 1.371 . S
C619 H626 0.930 . S
H620 C617 0.928 . S
H621 C618 0.931 . S
H622 C598 0.930 . S
H623 C595 0.930 . S
H624 C604 0.930 . S
H625 C616 0.929 . S
H626 C619 0.930 . S
C627 C628 1.351 . S
C627 N630 1.368 . S
C627 H632 0.931 . S
C628 C627 1.351 . S
C628 N629 1.373 . S
C628 H656 0.930 . S
N629 C628 1.373 . S
N629 C631 1.340 . S
N630 C627 1.368 . S
N630 C631 1.321 . S
N630 Co633 2.135 . S
C631 N629 1.340 . S
C631 N630 1.321 . S
C631 H655 0.930 . S
H632 C627 0.931 . S
Co633 N630 2.135 . S
Co633 N636 2.121 . S
Co633 O641 2.055 . S
Co633 O644 2.039 . S
Co633 N647 2.140 . S
C634 O635 1.227 . S
C634 O644 1.265 . S
O635 C634 1.227 . S
N636 Co633 2.121 . S
N636 C638 1.375 . S
N636 C639 1.313 . S
C637 C638 1.338 . S
C637 N640 1.377 . S
C637 H657 0.930 . S
C638 N636 1.375 . S
C638 C637 1.338 . S
C638 H642 0.931 . S
C639 N636 1.313 . S
C639 N640 1.344 . S
C639 H643 0.930 . S
N640 C637 1.377 . S
N640 C639 1.344 . S
O641 Co633 2.055 . S
O641 C645 1.253 . S
H642 C638 0.931 . S
H643 C639 0.930 . S
O644 Co633 2.039 . S
O644 C634 1.265 . S
C645 O641 1.253 . S
C645 O646 1.227 . S
O646 C645 1.227 . S
N647 Co633 2.140 . S
N647 C650 1.346 . S
N647 C651 1.345 . S
C648 C649 1.387 . S
C648 C652 1.391 . S
C649 C648 1.387 . S
C649 C650 1.369 . S
C649 H658 0.929 . S
C650 N647 1.346 . S
C650 C649 1.369 . S
C650 H653 0.928 . S
C651 N647 1.345 . S
C651 C652 1.371 . S
C651 H654 0.931 . S
C652 C648 1.391 . S
C652 C651 1.371 . S
C652 H659 0.930 . S
H653 C650 0.928 . S
H654 C651 0.931 . S
H655 C631 0.930 . S
H656 C628 0.930 . S
H657 C637 0.930 . S
H658 C649 0.929 . S
H659 C652 0.930 . S
C660 C661 1.351 . S
C660 N663 1.368 . S
C660 H665 0.931 1_556 S
C661 C660 1.351 . S
C661 N662 1.373 . S
C661 H689 0.930 . S
N662 C661 1.373 . S
N662 C664 1.340 . S
N663 C660 1.368 . S
N663 C664 1.321 . S
N663 Co666 2.135 1_556 S
C664 N662 1.340 . S
C664 N663 1.321 . S
C664 H688 0.930 . S
H665 C660 0.931 1_554 S
Co666 N663 2.135 1_554 S
Co666 N669 2.121 . S
Co666 O674 2.055 . S
Co666 O677 2.039 1_554 S
Co666 N680 2.140 . S
C667 O668 1.227 . S
C667 O677 1.265 . S
O668 C667 1.227 . S
N669 Co666 2.121 . S
N669 C671 1.375 . S
N669 C672 1.313 . S
C670 C671 1.338 . S
C670 N673 1.377 . S
C670 H690 0.930 . S
C671 N669 1.375 . S
C671 C670 1.338 . S
C671 H675 0.931 . S
C672 N669 1.313 . S
C672 N673 1.344 . S
C672 H676 0.930 . S
N673 C670 1.377 . S
N673 C672 1.344 . S
O674 Co666 2.055 . S
O674 C678 1.253 . S
H675 C671 0.931 . S
H676 C672 0.930 . S
O677 Co666 2.039 1_556 S
O677 C667 1.265 . S
C678 O674 1.253 . S
C678 O679 1.227 . S
O679 C678 1.227 . S
N680 Co666 2.140 . S
N680 C683 1.346 1_554 S
N680 C684 1.345 . S
C681 C682 1.387 1_554 S
C681 C685 1.391 . S
C682 C681 1.387 1_556 S
C682 C683 1.369 . S
C682 H691 0.929 . S
C683 N680 1.346 1_556 S
C683 C682 1.369 . S
C683 H686 0.928 . S
C684 N680 1.345 . S
C684 C685 1.371 . S
C684 H687 0.931 . S
C685 C681 1.391 . S
C685 C684 1.371 . S
C685 H692 0.930 . S
H686 C683 0.928 . S
H687 C684 0.931 . S
H688 C664 0.930 . S
H689 C661 0.930 . S
H690 C670 0.930 . S
H691 C682 0.929 . S
H692 C685 0.930 . S
C693 C694 1.351 . S
C693 N696 1.368 . S
C693 H698 0.931 . S
C694 C693 1.351 . S
C694 N695 1.373 . S
C694 H722 0.930 . S
N695 C694 1.373 . S
N695 C697 1.340 . S
N696 C693 1.368 . S
N696 C697 1.321 . S
N696 Co699 2.135 . S
C697 N695 1.340 . S
C697 N696 1.321 . S
C697 H721 0.930 . S
H698 C693 0.931 . S
Co699 N696 2.135 . S
Co699 N702 2.121 . S
Co699 O707 2.055 . S
Co699 O710 2.039 . S
Co699 N713 2.140 . S
C700 O701 1.227 . S
C700 O710 1.265 . S
O701 C700 1.227 . S
N702 Co699 2.121 . S
N702 C704 1.375 . S
N702 C705 1.313 . S
C703 C704 1.338 . S
C703 N706 1.377 . S
C703 H723 0.930 . S
C704 N702 1.375 . S
C704 C703 1.338 . S
C704 H708 0.931 . S
C705 N702 1.313 . S
C705 N706 1.344 . S
C705 H709 0.930 . S
N706 C703 1.377 . S
N706 C705 1.344 . S
O707 Co699 2.055 . S
O707 C711 1.253 . S
H708 C704 0.931 . S
H709 C705 0.930 . S
O710 Co699 2.039 . S
O710 C700 1.265 . S
C711 O707 1.253 . S
C711 O712 1.227 . S
O712 C711 1.227 . S
N713 Co699 2.140 . S
N713 C716 1.346 . S
N713 C717 1.345 . S
C714 C715 1.387 . S
C714 C718 1.391 . S
C715 C714 1.387 . S
C715 C716 1.369 . S
C715 H724 0.929 . S
C716 N713 1.346 . S
C716 C715 1.369 . S
C716 H719 0.928 . S
C717 N713 1.345 . S
C717 C718 1.371 . S
C717 H720 0.931 . S
C718 C714 1.391 . S
C718 C717 1.371 . S
C718 H725 0.930 . S
H719 C716 0.928 . S
H720 C717 0.931 . S
H721 C697 0.930 . S
H722 C694 0.930 . S
H723 C703 0.930 . S
H724 C715 0.929 . S
H725 C718 0.930 . S
C726 C727 1.351 . S
C726 N729 1.368 . S
C726 H731 0.931 . S
C727 C726 1.351 . S
C727 N728 1.373 . S
C727 H755 0.930 . S
N728 C727 1.373 . S
N728 C730 1.340 . S
N729 C726 1.368 . S
N729 C730 1.321 . S
N729 Co732 2.135 . S
C730 N728 1.340 . S
C730 N729 1.321 . S
C730 H754 0.930 . S
H731 C726 0.931 . S
Co732 N729 2.135 . S
Co732 N735 2.121 . S
Co732 O740 2.055 . S
Co732 O743 2.039 . S
Co732 N746 2.140 . S
C733 O734 1.227 . S
C733 O743 1.265 . S
O734 C733 1.227 . S
N735 Co732 2.121 . S
N735 C737 1.375 . S
N735 C738 1.313 . S
C736 C737 1.338 . S
C736 N739 1.377 . S
C736 H756 0.930 . S
C737 N735 1.375 . S
C737 C736 1.338 . S
C737 H741 0.931 . S
C738 N735 1.313 . S
C738 N739 1.344 . S
C738 H742 0.930 . S
N739 C736 1.377 . S
N739 C738 1.344 . S
O740 Co732 2.055 . S
O740 C744 1.253 . S
H741 C737 0.931 . S
H742 C738 0.930 . S
O743 Co732 2.039 . S
O743 C733 1.265 . S
C744 O740 1.253 . S
C744 O745 1.227 . S
O745 C744 1.227 . S
N746 Co732 2.140 . S
N746 C749 1.346 . S
N746 C750 1.345 . S
C747 C748 1.387 . S
C747 C751 1.391 . S
C748 C747 1.387 . S
C748 C749 1.369 . S
C748 H757 0.929 . S
C749 N746 1.346 . S
C749 C748 1.369 . S
C749 H752 0.928 . S
C750 N746 1.345 . S
C750 C751 1.371 . S
C750 H753 0.931 . S
C751 C747 1.391 . S
C751 C750 1.371 . S
C751 H758 0.930 . S
H752 C749 0.928 . S
H753 C750 0.931 . S
H754 C730 0.930 . S
H755 C727 0.930 . S
H756 C736 0.930 . S
H757 C748 0.929 . S
H758 C751 0.930 . S
C759 C760 1.351 . S
C759 N762 1.368 . S
C759 H764 0.931 . S
C760 C759 1.351 . S
C760 N761 1.373 . S
C760 H788 0.930 . S
N761 C760 1.373 . S
N761 C763 1.340 . S
N762 C759 1.368 . S
N762 C763 1.321 . S
N762 Co765 2.135 . S
C763 N761 1.340 . S
C763 N762 1.321 . S
C763 H787 0.930 . S
H764 C759 0.931 . S
Co765 N762 2.135 . S
Co765 N768 2.121 . S
Co765 O773 2.055 . S
Co765 O776 2.039 . S
Co765 N779 2.140 . S
C766 O767 1.227 . S
C766 O776 1.265 . S
O767 C766 1.227 . S
N768 Co765 2.121 . S
N768 C770 1.375 . S
N768 C771 1.313 . S
C769 C770 1.338 . S
C769 N772 1.377 . S
C769 H789 0.930 . S
C770 N768 1.375 . S
C770 C769 1.338 . S
C770 H774 0.931 . S
C771 N768 1.313 . S
C771 N772 1.344 . S
C771 H775 0.930 . S
N772 C769 1.377 . S
N772 C771 1.344 . S
O773 Co765 2.055 . S
O773 C777 1.253 . S
H774 C770 0.931 . S
H775 C771 0.930 . S
O776 Co765 2.039 . S
O776 C766 1.265 . S
C777 O773 1.253 . S
C777 O778 1.227 . S
O778 C777 1.227 . S
N779 Co765 2.140 . S
N779 C782 1.346 . S
N779 C783 1.345 . S
C780 C781 1.387 . S
C780 C784 1.391 . S
C781 C780 1.387 . S
C781 C782 1.369 . S
C781 H790 0.929 . S
C782 N779 1.346 . S
C782 C781 1.369 . S
C782 H785 0.928 . S
C783 N779 1.345 . S
C783 C784 1.371 . S
C783 H786 0.931 . S
C784 C780 1.391 . S
C784 C783 1.371 . S
C784 H791 0.930 . S
H785 C782 0.928 . S
H786 C783 0.931 . S
H787 C763 0.930 . S
H788 C760 0.930 . S
H789 C769 0.930 . S
H790 C781 0.929 . S
H791 C784 0.930 . S
C792 C793 1.351 . S
C792 N795 1.368 . S
C792 H797 0.931 . S
C793 C792 1.351 . S
C793 N794 1.373 . S
C793 H821 0.930 . S
N794 C793 1.373 . S
N794 C796 1.340 . S
N795 C792 1.368 . S
N795 C796 1.321 . S
N795 Co798 2.135 . S
C796 N794 1.340 . S
C796 N795 1.321 . S
C796 H820 0.930 . S
H797 C792 0.931 . S
Co798 N795 2.135 . S
Co798 N801 2.121 . S
Co798 O806 2.055 . S
Co798 O809 2.039 . S
Co798 N812 2.140 . S
C799 O800 1.227 . S
C799 O809 1.265 . S
O800 C799 1.227 . S
N801 Co798 2.121 . S
N801 C803 1.375 . S
N801 C804 1.313 . S
C802 C803 1.338 . S
C802 N805 1.377 . S
C802 H822 0.930 . S
C803 N801 1.375 . S
C803 C802 1.338 . S
C803 H807 0.931 . S
C804 N801 1.313 . S
C804 N805 1.344 . S
C804 H808 0.930 . S
N805 C802 1.377 . S
N805 C804 1.344 . S
O806 Co798 2.055 . S
O806 C810 1.253 . S
H807 C803 0.931 . S
H808 C804 0.930 . S
O809 Co798 2.039 . S
O809 C799 1.265 . S
C810 O806 1.253 . S
C810 O811 1.227 . S
O811 C810 1.227 . S
N812 Co798 2.140 . S
N812 C815 1.346 . S
N812 C816 1.345 . S
C813 C814 1.387 . S
C813 C817 1.391 . S
C814 C813 1.387 . S
C814 C815 1.369 . S
C814 H823 0.929 . S
C815 N812 1.346 . S
C815 C814 1.369 . S
C815 H818 0.928 . S
C816 N812 1.345 . S
C816 C817 1.371 . S
C816 H819 0.931 . S
C817 C813 1.391 . S
C817 C816 1.371 . S
C817 H824 0.930 . S
H818 C815 0.928 . S
H819 C816 0.931 . S
H820 C796 0.930 . S
H821 C793 0.930 . S
H822 C802 0.930 . S
H823 C814 0.929 . S
H824 C817 0.930 . S
C825 C826 1.351 . S
C825 N828 1.368 . S
C825 H830 0.931 . S
C826 C825 1.351 . S
C826 N827 1.373 . S
C826 H854 0.930 . S
N827 C826 1.373 . S
N827 C829 1.340 . S
N828 C825 1.368 . S
N828 C829 1.321 . S
N828 Co831 2.135 . S
C829 N827 1.340 . S
C829 N828 1.321 . S
C829 H853 0.930 . S
H830 C825 0.931 . S
Co831 N828 2.135 . S
Co831 N834 2.121 . S
Co831 O839 2.055 . S
Co831 O842 2.039 . S
Co831 N845 2.140 . S
C832 O833 1.227 . S
C832 O842 1.265 . S
O833 C832 1.227 . S
N834 Co831 2.121 . S
N834 C836 1.375 . S
N834 C837 1.313 . S
C835 C836 1.338 . S
C835 N838 1.377 . S
C835 H855 0.930 . S
C836 N834 1.375 . S
C836 C835 1.338 . S
C836 H840 0.931 . S
C837 N834 1.313 . S
C837 N838 1.344 . S
C837 H841 0.930 . S
N838 C835 1.377 . S
N838 C837 1.344 . S
O839 Co831 2.055 . S
O839 C843 1.253 . S
H840 C836 0.931 . S
H841 C837 0.930 . S
O842 Co831 2.039 . S
O842 C832 1.265 . S
C843 O839 1.253 . S
C843 O844 1.227 . S
O844 C843 1.227 . S
N845 Co831 2.140 . S
N845 C848 1.346 . S
N845 C849 1.345 . S
C846 C847 1.387 . S
C846 C850 1.391 . S
C847 C846 1.387 . S
C847 C848 1.369 . S
C847 H856 0.929 . S
C848 N845 1.346 . S
C848 C847 1.369 . S
C848 H851 0.928 . S
C849 N845 1.345 . S
C849 C850 1.371 . S
C849 H852 0.931 . S
C850 C846 1.391 . S
C850 C849 1.371 . S
C850 H857 0.930 . S
H851 C848 0.928 . S
H852 C849 0.931 . S
H853 C829 0.930 . S
H854 C826 0.930 . S
H855 C835 0.930 . S
H856 C847 0.929 . S
H857 C850 0.930 . S
C858 C859 1.351 1_554 S
C858 N861 1.368 1_554 S
C858 H863 0.931 . S
C859 C858 1.351 1_556 S
C859 N860 1.373 . S
C859 H887 0.930 . S
N860 C859 1.373 . S
N860 C862 1.340 . S
N861 C858 1.368 1_556 S
N861 C862 1.321 . S
N861 Co864 2.135 1_556 S
C862 N860 1.340 . S
C862 N861 1.321 . S
C862 H886 0.930 . S
H863 C858 0.931 . S
Co864 N861 2.135 1_554 S
Co864 N867 2.121 . S
Co864 O872 2.055 . S
Co864 O875 2.039 1_554 S
Co864 N878 2.140 . S
C865 O866 1.227 . S
C865 O875 1.265 . S
O866 C865 1.227 . S
N867 Co864 2.121 . S
N867 C869 1.375 . S
N867 C870 1.313 . S
C868 C869 1.338 . S
C868 N871 1.377 . S
C868 H888 0.930 . S
C869 N867 1.375 . S
C869 C868 1.338 . S
C869 H873 0.931 . S
C870 N867 1.313 . S
C870 N871 1.344 . S
C870 H874 0.930 . S
N871 C868 1.377 . S
N871 C870 1.344 . S
O872 Co864 2.055 . S
O872 C876 1.253 . S
H873 C869 0.931 . S
H874 C870 0.930 . S
O875 Co864 2.039 1_556 S
O875 C865 1.265 . S
C876 O872 1.253 . S
C876 O877 1.227 . S
O877 C876 1.227 . S
N878 Co864 2.140 . S
N878 C881 1.346 1_554 S
N878 C882 1.345 . S
C879 C880 1.387 1_554 S
C879 C883 1.391 . S
C880 C879 1.387 1_556 S
C880 C881 1.369 . S
C880 H889 0.929 . S
C881 N878 1.346 1_556 S
C881 C880 1.369 . S
C881 H884 0.928 . S
C882 N878 1.345 . S
C882 C883 1.371 . S
C882 H885 0.931 . S
C883 C879 1.391 . S
C883 C882 1.371 . S
C883 H890 0.930 . S
H884 C881 0.928 . S
H885 C882 0.931 . S
H886 C862 0.930 . S
H887 C859 0.930 . S
H888 C868 0.930 . S
H889 C880 0.929 . S
H890 C883 0.930 . S
C891 C892 1.351 . S
C891 N894 1.368 . S
C891 H896 0.931 . S
C892 C891 1.351 . S
C892 N893 1.373 . S
C892 H920 0.930 . S
N893 C892 1.373 . S
N893 C895 1.340 . S
N894 C891 1.368 . S
N894 C895 1.321 . S
N894 Co897 2.135 . S
C895 N893 1.340 . S
C895 N894 1.321 . S
C895 H919 0.930 . S
H896 C891 0.931 . S
Co897 N894 2.135 . S
Co897 N900 2.121 . S
Co897 O905 2.055 . S
Co897 O908 2.039 . S
Co897 N911 2.140 . S
C898 O899 1.227 . S
C898 O908 1.265 . S
O899 C898 1.227 . S
N900 Co897 2.121 . S
N900 C902 1.375 . S
N900 C903 1.313 . S
C901 C902 1.338 . S
C901 N904 1.377 . S
C901 H921 0.930 . S
C902 N900 1.375 . S
C902 C901 1.338 . S
C902 H906 0.931 . S
C903 N900 1.313 . S
C903 N904 1.344 . S
C903 H907 0.930 . S
N904 C901 1.377 . S
N904 C903 1.344 . S
O905 Co897 2.055 . S
O905 C909 1.253 . S
H906 C902 0.931 . S
H907 C903 0.930 . S
O908 Co897 2.039 . S
O908 C898 1.265 . S
C909 O905 1.253 . S
C909 O910 1.227 . S
O910 C909 1.227 . S
N911 Co897 2.140 . S
N911 C914 1.346 . S
N911 C915 1.345 . S
C912 C913 1.387 . S
C912 C916 1.391 . S
C913 C912 1.387 . S
C913 C914 1.369 . S
C913 H922 0.929 . S
C914 N911 1.346 . S
C914 C913 1.369 . S
C914 H917 0.928 . S
C915 N911 1.345 . S
C915 C916 1.371 . S
C915 H918 0.931 . S
C916 C912 1.391 . S
C916 C915 1.371 . S
C916 H923 0.930 . S
H917 C914 0.928 . S
H918 C915 0.931 . S
H919 C895 0.930 . S
H920 C892 0.930 . S
H921 C901 0.930 . S
H922 C913 0.929 . S
H923 C916 0.930 . S
C924 C925 1.351 . S
C924 N927 1.368 . S
C924 H929 0.931 . S
C925 C924 1.351 . S
C925 N926 1.373 . S
C925 H953 0.930 . S
N926 C925 1.373 . S
N926 C928 1.340 . S
N927 C924 1.368 . S
N927 C928 1.321 . S
N927 Co930 2.135 . S
C928 N926 1.340 . S
C928 N927 1.321 . S
C928 H952 0.930 . S
H929 C924 0.931 . S
Co930 N927 2.135 . S
Co930 N933 2.121 . S
Co930 O938 2.055 . S
Co930 O941 2.039 . S
Co930 N944 2.140 . S
C931 O932 1.227 . S
C931 O941 1.265 . S
O932 C931 1.227 . S
N933 Co930 2.121 . S
N933 C935 1.375 . S
N933 C936 1.313 1_554 S
C934 C935 1.338 . S
C934 N937 1.377 1_554 S
C934 H954 0.930 . S
C935 N933 1.375 . S
C935 C934 1.338 . S
C935 H939 0.931 . S
C936 N933 1.313 1_556 S
C936 N937 1.344 . S
C936 H940 0.930 . S
N937 C934 1.377 1_556 S
N937 C936 1.344 . S
O938 Co930 2.055 . S
O938 C942 1.253 . S
H939 C935 0.931 . S
H940 C936 0.930 . S
O941 Co930 2.039 . S
O941 C931 1.265 . S
C942 O938 1.253 . S
C942 O943 1.227 . S
O943 C942 1.227 . S
N944 Co930 2.140 . S
N944 C947 1.346 . S
N944 C948 1.345 . S
C945 C946 1.387 . S
C945 C949 1.391 . S
C946 C945 1.387 . S
C946 C947 1.369 . S
C946 H955 0.929 . S
C947 N944 1.346 . S
C947 C946 1.369 . S
C947 H950 0.928 . S
C948 N944 1.345 . S
C948 C949 1.371 . S
C948 H951 0.931 . S
C949 C945 1.391 . S
C949 C948 1.371 . S
C949 H956 0.930 . S
H950 C947 0.928 . S
H951 C948 0.931 . S
H952 C928 0.930 . S
H953 C925 0.930 . S
H954 C934 0.930 . S
H955 C946 0.929 . S
H956 C949 0.930 . S
C957 C958 1.351 . S
C957 N960 1.368 . S
C957 H962 0.931 . S
C958 C957 1.351 . S
C958 N959 1.373 . S
C958 H986 0.930 . S
N959 C958 1.373 . S
N959 C961 1.340 . S
N960 C957 1.368 . S
N960 C961 1.321 . S
N960 Co963 2.135 . S
C961 N959 1.340 . S
C961 N960 1.321 . S
C961 H985 0.930 . S
H962 C957 0.931 . S
Co963 N960 2.135 . S
Co963 N966 2.121 . S
Co963 O971 2.055 . S
Co963 O974 2.039 . S
Co963 N977 2.140 . S
C964 O965 1.227 . S
C964 O974 1.265 . S
O965 C964 1.227 . S
N966 Co963 2.121 . S
N966 C968 1.375 . S
N966 C969 1.313 . S
C967 C968 1.338 . S
C967 N970 1.377 . S
C967 H987 0.930 . S
C968 N966 1.375 . S
C968 C967 1.338 . S
C968 H972 0.931 . S
C969 N966 1.313 . S
C969 N970 1.344 . S
C969 H973 0.930 . S
N970 C967 1.377 . S
N970 C969 1.344 . S
O971 Co963 2.055 . S
O971 C975 1.253 . S
H972 C968 0.931 . S
H973 C969 0.930 . S
O974 Co963 2.039 . S
O974 C964 1.265 . S
C975 O971 1.253 . S
C975 O976 1.227 . S
O976 C975 1.227 . S
N977 Co963 2.140 . S
N977 C980 1.346 . S
N977 C981 1.345 . S
C978 C979 1.387 . S
C978 C982 1.391 . S
C979 C978 1.387 . S
C979 C980 1.369 . S
C979 H988 0.929 . S
C980 N977 1.346 . S
C980 C979 1.369 . S
C980 H983 0.928 . S
C981 N977 1.345 . S
C981 C982 1.371 . S
C981 H984 0.931 . S
C982 C978 1.391 . S
C982 C981 1.371 . S
C982 H989 0.930 . S
H983 C980 0.928 . S
H984 C981 0.931 . S
H985 C961 0.930 . S
H986 C958 0.930 . S
H987 C967 0.930 . S
H988 C979 0.929 . S
H989 C982 0.930 . S
C990 C991 1.351 . S
C990 N993 1.368 . S
C990 H995 0.931 . S
C991 C990 1.351 . S
C991 N992 1.373 . S
C991 H1019 0.930 . S
N992 C991 1.373 . S
N992 C994 1.340 . S
N993 C990 1.368 . S
N993 C994 1.321 . S
N993 Co996 2.135 . S
C994 N992 1.340 . S
C994 N993 1.321 . S
C994 H1018 0.930 . S
H995 C990 0.931 . S
Co996 N993 2.135 . S
Co996 N999 2.121 . S
Co996 O1004 2.055 . S
Co996 O1007 2.039 . S
Co996 N1010 2.140 . S
C997 O998 1.227 . S
C997 O1007 1.265 . S
O998 C997 1.227 . S
N999 Co996 2.121 . S
N999 C1001 1.375 . S
N999 C1002 1.313 . S
C1000 C1001 1.338 . S
C1000 N1003 1.377 . S
C1000 H1020 0.930 . S
C1001 N999 1.375 . S
C1001 C1000 1.338 . S
C1001 H1005 0.931 . S
C1002 N999 1.313 . S
C1002 N1003 1.344 . S
C1002 H1006 0.930 . S
N1003 C1000 1.377 . S
N1003 C1002 1.344 . S
O1004 Co996 2.055 . S
O1004 C1008 1.253 . S
H1005 C1001 0.931 . S
H1006 C1002 0.930 . S
O1007 Co996 2.039 . S
O1007 C997 1.265 . S
C1008 O1004 1.253 . S
C1008 O1009 1.227 . S
O1009 C1008 1.227 . S
N1010 Co996 2.140 . S
N1010 C1013 1.346 . S
N1010 C1014 1.345 . S
C1011 C1012 1.387 . S
C1011 C1015 1.391 . S
C1012 C1011 1.387 . S
C1012 C1013 1.369 . S
C1012 H1021 0.929 . S
C1013 N1010 1.346 . S
C1013 C1012 1.369 . S
C1013 H1016 0.928 . S
C1014 N1010 1.345 . S
C1014 C1015 1.371 . S
C1014 H1017 0.931 . S
C1015 C1011 1.391 . S
C1015 C1014 1.371 . S
C1015 H1022 0.930 . S
H1016 C1013 0.928 . S
H1017 C1014 0.931 . S
H1018 C994 0.930 . S
H1019 C991 0.930 . S
H1020 C1000 0.930 . S
H1021 C1012 0.929 . S
H1022 C1015 0.930 . S
C1023 C1024 1.351 . S
C1023 N1026 1.368 . S
C1023 H1028 0.931 . S
C1024 C1023 1.351 . S
C1024 N1025 1.373 . S
C1024 H1052 0.930 . S
N1025 C1024 1.373 . S
N1025 C1027 1.340 . S
N1026 C1023 1.368 . S
N1026 C1027 1.321 . S
N1026 Co1029 2.135 . S
C1027 N1025 1.340 . S
C1027 N1026 1.321 . S
C1027 H1051 0.930 . S
H1028 C1023 0.931 . S
Co1029 N1026 2.135 . S
Co1029 N1032 2.121 . S
Co1029 O1037 2.055 . S
Co1029 O1040 2.039 . S
Co1029 N1043 2.140 . S
C1030 O1031 1.227 . S
C1030 O1040 1.265 . S
O1031 C1030 1.227 . S
N1032 Co1029 2.121 . S
N1032 C1034 1.375 . S
N1032 C1035 1.313 . S
C1033 C1034 1.338 . S
C1033 N1036 1.377 . S
C1033 H1053 0.930 . S
C1034 N1032 1.375 . S
C1034 C1033 1.338 . S
C1034 H1038 0.931 . S
C1035 N1032 1.313 . S
C1035 N1036 1.344 . S
C1035 H1039 0.930 . S
N1036 C1033 1.377 . S
N1036 C1035 1.344 . S
O1037 Co1029 2.055 . S
O1037 C1041 1.253 . S
H1038 C1034 0.931 . S
H1039 C1035 0.930 . S
O1040 Co1029 2.039 . S
O1040 C1030 1.265 . S
C1041 O1037 1.253 . S
C1041 O1042 1.227 . S
O1042 C1041 1.227 . S
N1043 Co1029 2.140 . S
N1043 C1046 1.346 . S
N1043 C1047 1.345 . S
C1044 C1045 1.387 . S
C1044 C1048 1.391 . S
C1045 C1044 1.387 . S
C1045 C1046 1.369 . S
C1045 H1054 0.929 . S
C1046 N1043 1.346 . S
C1046 C1045 1.369 . S
C1046 H1049 0.928 . S
C1047 N1043 1.345 . S
C1047 C1048 1.371 . S
C1047 H1050 0.931 . S
C1048 C1044 1.391 . S
C1048 C1047 1.371 . S
C1048 H1055 0.930 . S
H1049 C1046 0.928 . S
H1050 C1047 0.931 . S
H1051 C1027 0.930 . S
H1052 C1024 0.930 . S
H1053 C1033 0.930 . S
H1054 C1045 0.929 . S
H1055 C1048 0.930 . S
C1056 C1057 1.349 . S
C1056 C1058 1.327 . S
C1056 H1081 0.950 . S
C1057 C1056 1.349 . S
C1057 C1073 1.349 . S
C1058 C1056 1.327 . S
C1058 C1077 1.429 . S
C1058 H1082 0.950 . S
C1059 C1076 1.574 1_565 S
C1059 C1078 1.368 . S
C1059 H1083 0.949 . S
H1060 C1064 0.949 . S
C1061 C1062 1.349 . S
C1061 C1063 1.327 . S
C1061 H1084 0.950 . S
C1062 C1061 1.349 . S
C1062 C1074 1.349 . S
C1063 C1061 1.327 . S
C1063 C1079 1.429 . S
C1063 H1085 0.950 . S
C1064 H1060 0.949 . S
C1064 C1072 1.574 1_545 S
C1064 C1080 1.368 . S
H1065 C1073 0.950 . S
H1066 C1071 0.950 . S
H1067 C1072 0.949 . S
H1068 C1074 0.950 . S
H1069 C1075 0.950 . S
H1070 C1076 0.949 . S
C1071 H1066 0.950 . S
C1071 C1073 1.327 . S
C1071 C1077 1.429 . S
C1072 C1064 1.574 1_565 S
C1072 H1067 0.949 . S
C1072 C1078 1.368 . S
C1073 C1057 1.349 . S
C1073 H1065 0.950 . S
C1073 C1071 1.327 . S
C1074 C1062 1.349 . S
C1074 H1068 0.950 . S
C1074 C1075 1.327 . S
C1075 H1069 0.950 . S
C1075 C1074 1.327 . S
C1075 C1079 1.429 . S
C1076 C1059 1.574 1_545 S
C1076 H1070 0.949 . S
C1076 C1080 1.368 . S
C1077 C1058 1.429 . S
C1077 C1071 1.429 . S
C1077 C1078 1.523 . S
C1078 C1059 1.368 . S
C1078 C1072 1.368 . S
C1078 C1077 1.523 . S
C1079 C1063 1.429 . S
C1079 C1075 1.429 . S
C1079 C1080 1.523 . S
C1080 C1064 1.368 . S
C1080 C1076 1.368 . S
C1080 C1079 1.523 . S
H1081 C1056 0.950 . S
H1082 C1058 0.950 . S
H1083 C1059 0.949 . S
H1084 C1061 0.950 . S
H1085 C1063 0.950 . S
C1086 C1087 1.349 . S
C1086 C1088 1.327 . S
C1086 H1111 0.950 . S
C1087 C1086 1.349 . S
C1087 C1103 1.349 . S
C1088 C1086 1.327 . S
C1088 C1107 1.429 . S
C1088 H1112 0.950 . S
C1089 C1106 1.574 . S
C1089 C1108 1.368 . S
C1089 H1113 0.949 . S
H1090 C1094 0.949 1_556 S
C1091 C1092 1.349 . S
C1091 C1093 1.327 . S
C1091 H1114 0.950 . S
C1092 C1091 1.349 . S
C1092 C1104 1.349 . S
C1093 C1091 1.327 . S
C1093 C1109 1.429 . S
C1093 H1115 0.950 1_556 S
C1094 H1090 0.949 1_554 S
C1094 C1102 1.574 . S
C1094 C1110 1.368 . S
H1095 C1103 0.950 . S
H1096 C1101 0.950 . S
H1097 C1102 0.949 . S
H1098 C1104 0.950 . S
H1099 C1105 0.950 . S
H1100 C1106 0.949 . S
C1101 H1096 0.950 . S
C1101 C1103 1.327 . S
C1101 C1107 1.429 . S
C1102 C1094 1.574 . S
C1102 H1097 0.949 . S
C1102 C1108 1.368 . S
C1103 C1087 1.349 . S
C1103 H1095 0.950 . S
C1103 C1101 1.327 . S
C1104 C1092 1.349 . S
C1104 H1098 0.950 . S
C1104 C1105 1.327 . S
C1105 H1099 0.950 . S
C1105 C1104 1.327 . S
C1105 C1109 1.429 . S
C1106 C1089 1.574 . S
C1106 H1100 0.949 . S
C1106 C1110 1.368 . S
C1107 C1088 1.429 . S
C1107 C1101 1.429 . S
C1107 C1108 1.523 . S
C1108 C1089 1.368 . S
C1108 C1102 1.368 . S
C1108 C1107 1.523 . S
C1109 C1093 1.429 . S
C1109 C1105 1.429 . S
C1109 C1110 1.523 1_556 S
C1110 C1094 1.368 . S
C1110 C1106 1.368 . S
C1110 C1109 1.523 1_554 S
H1111 C1086 0.950 . S
H1112 C1088 0.950 . S
H1113 C1089 0.949 . S
H1114 C1091 0.950 . S
H1115 C1093 0.950 1_554 S
C1116 C1117 1.349 . S
C1116 C1118 1.327 . S
C1116 H1141 0.950 . S
C1117 C1116 1.349 . S
C1117 C1133 1.349 . S
C1118 C1116 1.327 . S
C1118 C1137 1.429 . S
C1118 H1142 0.950 . S
C1119 C1136 1.574 . S
C1119 C1138 1.368 . S
C1119 H1143 0.949 . S
H1120 C1124 0.949 . S
C1121 C1122 1.349 . S
C1121 C1123 1.327 . S
C1121 H1144 0.950 . S
C1122 C1121 1.349 . S
C1122 C1134 1.349 . S
C1123 C1121 1.327 . S
C1123 C1139 1.429 . S
C1123 H1145 0.950 . S
C1124 H1120 0.949 . S
C1124 C1132 1.574 . S
C1124 C1140 1.368 . S
H1125 C1133 0.950 . S
H1126 C1131 0.950 . S
H1127 C1132 0.949 . S
H1128 C1134 0.950 . S
H1129 C1135 0.950 . S
H1130 C1136 0.949 . S
C1131 H1126 0.950 . S
C1131 C1133 1.327 . S
C1131 C1137 1.429 . S
C1132 C1124 1.574 . S
C1132 H1127 0.949 . S
C1132 C1138 1.368 1_545 S
C1133 C1117 1.349 . S
C1133 H1125 0.950 . S
C1133 C1131 1.327 . S
C1134 C1122 1.349 . S
C1134 H1128 0.950 . S
C1134 C1135 1.327 . S
C1135 H1129 0.950 . S
C1135 C1134 1.327 . S
C1135 C1139 1.429 . S
C1136 C1119 1.574 . S
C1136 H1130 0.949 . S
C1136 C1140 1.368 1_565 S
C1137 C1118 1.429 . S
C1137 C1131 1.429 . S
C1137 C1138 1.523 . S
C1138 C1119 1.368 . S
C1138 C1132 1.368 1_565 S
C1138 C1137 1.523 . S
C1139 C1123 1.429 . S
C1139 C1135 1.429 . S
C1139 C1140 1.523 . S
C1140 C1124 1.368 . S
C1140 C1136 1.368 1_545 S
C1140 C1139 1.523 . S
H1141 C1116 0.950 . S
H1142 C1118 0.950 . S
H1143 C1119 0.949 . S
H1144 C1121 0.950 . S
H1145 C1123 0.950 . S
C1146 C1147 1.349 . S
C1146 C1148 1.327 . S
C1146 H1171 0.950 . S
C1147 C1146 1.349 . S
C1147 C1163 1.349 . S
C1148 C1146 1.327 . S
C1148 C1167 1.429 . S
C1148 H1172 0.950 . S
C1149 C1166 1.574 . S
C1149 C1168 1.368 . S
C1149 H1173 0.949 . S
H1150 C1154 0.949 . S
C1151 C1152 1.349 . S
C1151 C1153 1.327 . S
C1151 H1174 0.950 . S
C1152 C1151 1.349 . S
C1152 C1164 1.349 . S
C1153 C1151 1.327 . S
C1153 C1169 1.429 . S
C1153 H1175 0.950 . S
C1154 H1150 0.949 . S
C1154 C1162 1.574 . S
C1154 C1170 1.368 . S
H1155 C1163 0.950 . S
H1156 C1161 0.950 . S
H1157 C1162 0.949 . S
H1158 C1164 0.950 . S
H1159 C1165 0.950 . S
H1160 C1166 0.949 . S
C1161 H1156 0.950 . S
C1161 C1163 1.327 . S
C1161 C1167 1.429 . S
C1162 C1154 1.574 . S
C1162 H1157 0.949 . S
C1162 C1168 1.368 . S
C1163 C1147 1.349 . S
C1163 H1155 0.950 . S
C1163 C1161 1.327 . S
C1164 C1152 1.349 . S
C1164 H1158 0.950 . S
C1164 C1165 1.327 . S
C1165 H1159 0.950 . S
C1165 C1164 1.327 . S
C1165 C1169 1.429 . S
C1166 C1149 1.574 . S
C1166 H1160 0.949 . S
C1166 C1170 1.368 . S
C1167 C1148 1.429 . S
C1167 C1161 1.429 . S
C1167 C1168 1.523 . S
C1168 C1149 1.368 . S
C1168 C1162 1.368 . S
C1168 C1167 1.523 . S
C1169 C1153 1.429 . S
C1169 C1165 1.429 . S
C1169 C1170 1.523 . S
C1170 C1154 1.368 . S
C1170 C1166 1.368 . S
C1170 C1169 1.523 . S
H1171 C1146 0.950 . S
H1172 C1148 0.950 . S
H1173 C1149 0.949 . S
H1174 C1151 0.950 . S
H1175 C1153 0.950 . S
C1176 C1177 1.349 . S
C1176 C1178 1.327 . S
C1176 H1201 0.950 . S
C1177 C1176 1.349 . S
C1177 C1193 1.349 . S
C1178 C1176 1.327 . S
C1178 C1197 1.429 . S
C1178 H1202 0.950 . S
C1179 C1196 1.574 . S
C1179 C1198 1.368 1_565 S
C1179 H1203 0.949 . S
H1180 C1184 0.949 . S
C1181 C1182 1.349 . S
C1181 C1183 1.327 . S
C1181 H1204 0.950 . S
C1182 C1181 1.349 . S
C1182 C1194 1.349 . S
C1183 C1181 1.327 . S
C1183 C1199 1.429 . S
C1183 H1205 0.950 . S
C1184 H1180 0.949 . S
C1184 C1192 1.574 . S
C1184 C1200 1.368 1_545 S
H1185 C1193 0.950 . S
H1186 C1191 0.950 . S
H1187 C1192 0.949 . S
H1188 C1194 0.950 . S
H1189 C1195 0.950 . S
H1190 C1196 0.949 . S
C1191 H1186 0.950 . S
C1191 C1193 1.327 . S
C1191 C1197 1.429 . S
C1192 C1184 1.574 . S
C1192 H1187 0.949 . S
C1192 C1198 1.368 . S
C1193 C1177 1.349 . S
C1193 H1185 0.950 . S
C1193 C1191 1.327 . S
C1194 C1182 1.349 . S
C1194 H1188 0.950 . S
C1194 C1195 1.327 . S
C1195 H1189 0.950 . S
C1195 C1194 1.327 . S
C1195 C1199 1.429 . S
C1196 C1179 1.574 . S
C1196 H1190 0.949 . S
C1196 C1200 1.368 . S
C1197 C1178 1.429 . S
C1197 C1191 1.429 . S
C1197 C1198 1.523 . S
C1198 C1179 1.368 1_545 S
C1198 C1192 1.368 . S
C1198 C1197 1.523 . S
C1199 C1183 1.429 . S
C1199 C1195 1.429 . S
C1199 C1200 1.523 . S
C1200 C1184 1.368 1_565 S
C1200 C1196 1.368 . S
C1200 C1199 1.523 . S
H1201 C1176 0.950 . S
H1202 C1178 0.950 . S
H1203 C1179 0.949 . S
H1204 C1181 0.950 . S
H1205 C1183 0.950 . S
C1206 C1207 1.349 . S
C1206 C1208 1.327 . S
C1206 H1231 0.950 . S
C1207 C1206 1.349 . S
C1207 C1223 1.349 . S
C1208 C1206 1.327 . S
C1208 C1227 1.429 . S
C1208 H1232 0.950 . S
C1209 C1226 1.574 . S
C1209 C1228 1.368 . S
C1209 H1233 0.949 1_554 S
H1210 C1214 0.949 . S
C1211 C1212 1.349 . S
C1211 C1213 1.327 . S
C1211 H1234 0.950 . S
C1212 C1211 1.349 . S
C1212 C1224 1.349 . S
C1213 C1211 1.327 . S
C1213 C1229 1.429 . S
C1213 H1235 0.950 . S
C1214 H1210 0.949 . S
C1214 C1222 1.574 . S
C1214 C1230 1.368 . S
H1215 C1223 0.950 . S
H1216 C1221 0.950 . S
H1217 C1222 0.949 . S
H1218 C1224 0.950 . S
H1219 C1225 0.950 . S
H1220 C1226 0.949 . S
C1221 H1216 0.950 . S
C1221 C1223 1.327 . S
C1221 C1227 1.429 . S
C1222 C1214 1.574 . S
C1222 H1217 0.949 . S
C1222 C1228 1.368 . S
C1223 C1207 1.349 . S
C1223 H1215 0.950 . S
C1223 C1221 1.327 . S
C1224 C1212 1.349 . S
C1224 H1218 0.950 . S
C1224 C1225 1.327 . S
C1225 H1219 0.950 . S
C1225 C1224 1.327 . S
C1225 C1229 1.429 . S
C1226 C1209 1.574 . S
C1226 H1220 0.949 . S
C1226 C1230 1.368 . S
C1227 C1208 1.429 . S
C1227 C1221 1.429 . S
C1227 C1228 1.523 1_556 S
C1228 C1209 1.368 . S
C1228 C1222 1.368 . S
C1228 C1227 1.523 1_554 S
C1229 C1213 1.429 . S
C1229 C1225 1.429 . S
C1229 C1230 1.523 . S
C1230 C1214 1.368 . S
C1230 C1226 1.368 . S
C1230 C1229 1.523 . S
H1231 C1206 0.950 . S
H1232 C1208 0.950 . S
H1233 C1209 0.949 1_556 S
H1234 C1211 0.950 . S
H1235 C1213 0.950 . S
C1236 C1237 1.349 . S
C1236 C1238 1.327 . S
C1236 H1261 0.950 . S
C1237 C1236 1.349 . S
C1237 C1253 1.349 . S
C1238 C1236 1.327 . S
C1238 C1257 1.429 . S
C1238 H1262 0.950 . S
C1239 C1256 1.574 . S
C1239 C1258 1.368 . S
C1239 H1263 0.949 . S
H1240 C1244 0.949 . S
C1241 C1242 1.349 . S
C1241 C1243 1.327 . S
C1241 H1264 0.950 . S
C1242 C1241 1.349 . S
C1242 C1254 1.349 . S
C1243 C1241 1.327 . S
C1243 C1259 1.429 . S
C1243 H1265 0.950 . S
C1244 H1240 0.949 . S
C1244 C1252 1.574 . S
C1244 C1260 1.368 . S
H1245 C1253 0.950 . S
H1246 C1251 0.950 . S
H1247 C1252 0.949 . S
H1248 C1254 0.950 . S
H1249 C1255 0.950 . S
H1250 C1256 0.949 . S
C1251 H1246 0.950 . S
C1251 C1253 1.327 . S
C1251 C1257 1.429 . S
C1252 C1244 1.574 . S
C1252 H1247 0.949 . S
C1252 C1258 1.368 1_565 S
C1253 C1237 1.349 . S
C1253 H1245 0.950 . S
C1253 C1251 1.327 . S
C1254 C1242 1.349 . S
C1254 H1248 0.950 . S
C1254 C1255 1.327 . S
C1255 H1249 0.950 . S
C1255 C1254 1.327 . S
C1255 C1259 1.429 . S
C1256 C1239 1.574 . S
C1256 H1250 0.949 . S
C1256 C1260 1.368 1_545 S
C1257 C1238 1.429 . S
C1257 C1251 1.429 . S
C1257 C1258 1.523 . S
C1258 C1239 1.368 . S
C1258 C1252 1.368 1_545 S
C1258 C1257 1.523 . S
C1259 C1243 1.429 . S
C1259 C1255 1.429 . S
C1259 C1260 1.523 . S
C1260 C1244 1.368 . S
C1260 C1256 1.368 1_565 S
C1260 C1259 1.523 . S
H1261 C1236 0.950 . S
H1262 C1238 0.950 . S
H1263 C1239 0.949 . S
H1264 C1241 0.950 . S
H1265 C1243 0.950 . S
C1266 C1267 1.349 . S
C1266 C1268 1.327 . S
C1266 H1291 0.950 . S
C1267 C1266 1.349 . S
C1267 C1283 1.349 . S
C1268 C1266 1.327 . S
C1268 C1287 1.429 . S
C1268 H1292 0.950 . S
C1269 C1286 1.574 . S
C1269 C1288 1.368 . S
C1269 H1293 0.949 . S
H1270 C1274 0.949 . S
C1271 C1272 1.349 . S
C1271 C1273 1.327 . S
C1271 H1294 0.950 . S
C1272 C1271 1.349 . S
C1272 C1284 1.349 . S
C1273 C1271 1.327 . S
C1273 C1289 1.429 . S
C1273 H1295 0.950 . S
C1274 H1270 0.949 . S
C1274 C1282 1.574 . S
C1274 C1290 1.368 . S
H1275 C1283 0.950 . S
H1276 C1281 0.950 . S
H1277 C1282 0.949 . S
H1278 C1284 0.950 . S
H1279 C1285 0.950 . S
H1280 C1286 0.949 . S
C1281 H1276 0.950 . S
C1281 C1283 1.327 . S
C1281 C1287 1.429 . S
C1282 C1274 1.574 . S
C1282 H1277 0.949 . S
C1282 C1288 1.368 . S
C1283 C1267 1.349 . S
C1283 H1275 0.950 . S
C1283 C1281 1.327 . S
C1284 C1272 1.349 . S
C1284 H1278 0.950 . S
C1284 C1285 1.327 . S
C1285 H1279 0.950 . S
C1285 C1284 1.327 . S
C1285 C1289 1.429 . S
C1286 C1269 1.574 . S
C1286 H1280 0.949 . S
C1286 C1290 1.368 . S
C1287 C1268 1.429 . S
C1287 C1281 1.429 . S
C1287 C1288 1.523 . S
C1288 C1269 1.368 . S
C1288 C1282 1.368 . S
C1288 C1287 1.523 . S
C1289 C1273 1.429 . S
C1289 C1285 1.429 . S
C1289 C1290 1.523 . S
C1290 C1274 1.368 . S
C1290 C1286 1.368 . S
C1290 C1289 1.523 . S
H1291 C1266 0.950 . S
H1292 C1268 0.950 . S
H1293 C1269 0.949 . S
H1294 C1271 0.950 . S
H1295 C1273 0.950 . S
C1296 C1297 1.349 . S
C1296 C1298 1.327 . S
C1296 H1321 0.950 . S
C1297 C1296 1.349 . S
C1297 C1313 1.349 . S
C1298 C1296 1.327 . S
C1298 C1317 1.429 . S
C1298 H1322 0.950 . S
C1299 C1316 1.574 . S
C1299 C1318 1.368 . S
C1299 H1323 0.949 . S
H1300 C1304 0.949 . S
C1301 C1302 1.349 . S
C1301 C1303 1.327 . S
C1301 H1324 0.950 . S
C1302 C1301 1.349 . S
C1302 C1314 1.349 . S
C1303 C1301 1.327 . S
C1303 C1319 1.429 . S
C1303 H1325 0.950 . S
C1304 H1300 0.949 . S
C1304 C1312 1.574 . S
C1304 C1320 1.368 . S
H1305 C1313 0.950 . S
H1306 C1311 0.950 . S
H1307 C1312 0.949 . S
H1308 C1314 0.950 . S
H1309 C1315 0.950 . S
H1310 C1316 0.949 . S
C1311 H1306 0.950 . S
C1311 C1313 1.327 . S
C1311 C1317 1.429 . S
C1312 C1304 1.574 . S
C1312 H1307 0.949 . S
C1312 C1318 1.368 . S
C1313 C1297 1.349 . S
C1313 H1305 0.950 . S
C1313 C1311 1.327 . S
C1314 C1302 1.349 . S
C1314 H1308 0.950 . S
C1314 C1315 1.327 . S
C1315 H1309 0.950 . S
C1315 C1314 1.327 . S
C1315 C1319 1.429 . S
C1316 C1299 1.574 . S
C1316 H1310 0.949 . S
C1316 C1320 1.368 . S
C1317 C1298 1.429 . S
C1317 C1311 1.429 . S
C1317 C1318 1.523 . S
C1318 C1299 1.368 . S
C1318 C1312 1.368 . S
C1318 C1317 1.523 . S
C1319 C1303 1.429 . S
C1319 C1315 1.429 . S
C1319 C1320 1.523 . S
C1320 C1304 1.368 . S
C1320 C1316 1.368 . S
C1320 C1319 1.523 . S
H1321 C1296 0.950 . S
H1322 C1298 0.950 . S
H1323 C1299 0.949 . S
H1324 C1301 0.950 . S
H1325 C1303 0.950 . S
C1326 C1327 1.349 . S
C1326 C1328 1.327 . S
C1326 H1351 0.950 . S
C1327 C1326 1.349 . S
C1327 C1343 1.349 . S
C1328 C1326 1.327 . S
C1328 C1347 1.429 . S
C1328 H1352 0.950 . S
C1329 C1346 1.574 . S
C1329 C1348 1.368 . S
C1329 H1353 0.949 . S
H1330 C1334 0.949 . S
C1331 C1332 1.349 . S
C1331 C1333 1.327 . S
C1331 H1354 0.950 . S
C1332 C1331 1.349 . S
C1332 C1344 1.349 . S
C1333 C1331 1.327 . S
C1333 C1349 1.429 . S
C1333 H1355 0.950 . S
C1334 H1330 0.949 . S
C1334 C1342 1.574 . S
C1334 C1350 1.368 . S
H1335 C1343 0.950 . S
H1336 C1341 0.950 . S
H1337 C1342 0.949 . S
H1338 C1344 0.950 . S
H1339 C1345 0.950 . S
H1340 C1346 0.949 . S
C1341 H1336 0.950 . S
C1341 C1343 1.327 . S
C1341 C1347 1.429 . S
C1342 C1334 1.574 . S
C1342 H1337 0.949 . S
C1342 C1348 1.368 . S
C1343 C1327 1.349 . S
C1343 H1335 0.950 . S
C1343 C1341 1.327 . S
C1344 C1332 1.349 . S
C1344 H1338 0.950 . S
C1344 C1345 1.327 . S
C1345 H1339 0.950 . S
C1345 C1344 1.327 . S
C1345 C1349 1.429 . S
C1346 C1329 1.574 . S
C1346 H1340 0.949 . S
C1346 C1350 1.368 . S
C1347 C1328 1.429 . S
C1347 C1341 1.429 . S
C1347 C1348 1.523 . S
C1348 C1329 1.368 . S
C1348 C1342 1.368 . S
C1348 C1347 1.523 . S
C1349 C1333 1.429 . S
C1349 C1345 1.429 . S
C1349 C1350 1.523 . S
C1350 C1334 1.368 . S
C1350 C1346 1.368 . S
C1350 C1349 1.523 . S
H1351 C1326 0.950 . S
H1352 C1328 0.950 . S
H1353 C1329 0.949 . S
H1354 C1331 0.950 . S
H1355 C1333 0.950 . S
C1356 C1357 1.349 . S
C1356 C1358 1.327 . S
C1356 H1381 0.950 . S
C1357 C1356 1.349 . S
C1357 C1373 1.349 . S
C1358 C1356 1.327 . S
C1358 C1377 1.429 . S
C1358 H1382 0.950 . S
C1359 C1376 1.574 . S
C1359 C1378 1.368 . S
C1359 H1383 0.949 . S
H1360 C1364 0.949 . S
C1361 C1362 1.349 . S
C1361 C1363 1.327 . S
C1361 H1384 0.950 . S
C1362 C1361 1.349 . S
C1362 C1374 1.349 . S
C1363 C1361 1.327 . S
C1363 C1379 1.429 . S
C1363 H1385 0.950 . S
C1364 H1360 0.949 . S
C1364 C1372 1.574 . S
C1364 C1380 1.368 . S
H1365 C1373 0.950 . S
H1366 C1371 0.950 . S
H1367 C1372 0.949 . S
H1368 C1374 0.950 . S
H1369 C1375 0.950 . S
H1370 C1376 0.949 . S
C1371 H1366 0.950 . S
C1371 C1373 1.327 . S
C1371 C1377 1.429 . S
C1372 C1364 1.574 . S
C1372 H1367 0.949 . S
C1372 C1378 1.368 . S
C1373 C1357 1.349 . S
C1373 H1365 0.950 . S
C1373 C1371 1.327 . S
C1374 C1362 1.349 . S
C1374 H1368 0.950 . S
C1374 C1375 1.327 . S
C1375 H1369 0.950 . S
C1375 C1374 1.327 . S
C1375 C1379 1.429 . S
C1376 C1359 1.574 . S
C1376 H1370 0.949 . S
C1376 C1380 1.368 . S
C1377 C1358 1.429 . S
C1377 C1371 1.429 . S
C1377 C1378 1.523 . S
C1378 C1359 1.368 . S
C1378 C1372 1.368 . S
C1378 C1377 1.523 . S
C1379 C1363 1.429 . S
C1379 C1375 1.429 . S
C1379 C1380 1.523 . S
C1380 C1364 1.368 . S
C1380 C1376 1.368 . S
C1380 C1379 1.523 . S
H1381 C1356 0.950 . S
H1382 C1358 0.950 . S
H1383 C1359 0.949 . S
H1384 C1361 0.950 . S
H1385 C1363 0.950 . S
C1386 C1387 1.349 . S
C1386 C1388 1.327 . S
C1386 H1411 0.950 . S
C1387 C1386 1.349 . S
C1387 C1403 1.349 . S
C1388 C1386 1.327 . S
C1388 C1407 1.429 . S
C1388 H1412 0.950 . S
C1389 C1406 1.574 . S
C1389 C1408 1.368 . S
C1389 H1413 0.949 . S
H1390 C1394 0.949 1_556 S
C1391 C1392 1.349 . S
C1391 C1393 1.327 . S
C1391 H1414 0.950 . S
C1392 C1391 1.349 . S
C1392 C1404 1.349 . S
C1393 C1391 1.327 . S
C1393 C1409 1.429 . S
C1393 H1415 0.950 1_556 S
C1394 H1390 0.949 1_554 S
C1394 C1402 1.574 . S
C1394 C1410 1.368 . S
H1395 C1403 0.950 . S
H1396 C1401 0.950 . S
H1397 C1402 0.949 . S
H1398 C1404 0.950 . S
H1399 C1405 0.950 . S
H1400 C1406 0.949 . S
C1401 H1396 0.950 . S
C1401 C1403 1.327 . S
C1401 C1407 1.429 . S
C1402 C1394 1.574 . S
C1402 H1397 0.949 . S
C1402 C1408 1.368 . S
C1403 C1387 1.349 . S
C1403 H1395 0.950 . S
C1403 C1401 1.327 . S
C1404 C1392 1.349 . S
C1404 H1398 0.950 . S
C1404 C1405 1.327 . S
C1405 H1399 0.950 . S
C1405 C1404 1.327 . S
C1405 C1409 1.429 . S
C1406 C1389 1.574 . S
C1406 H1400 0.949 . S
C1406 C1410 1.368 . S
C1407 C1388 1.429 . S
C1407 C1401 1.429 . S
C1407 C1408 1.523 . S
C1408 C1389 1.368 . S
C1408 C1402 1.368 . S
C1408 C1407 1.523 . S
C1409 C1393 1.429 . S
C1409 C1405 1.429 . S
C1409 C1410 1.523 1_556 S
C1410 C1394 1.368 . S
C1410 C1406 1.368 . S
C1410 C1409 1.523 1_554 S
H1411 C1386 0.950 . S
H1412 C1388 0.950 . S
H1413 C1389 0.949 . S
H1414 C1391 0.950 . S
H1415 C1393 0.950 1_554 S
C1416 C1417 1.349 . S
C1416 C1418 1.327 . S
C1416 H1441 0.950 . S
C1417 C1416 1.349 . S
C1417 C1433 1.349 . S
C1418 C1416 1.327 . S
C1418 C1437 1.429 . S
C1418 H1442 0.950 . S
C1419 C1436 1.574 . S
C1419 C1438 1.368 . S
C1419 H1443 0.949 . S
H1420 C1424 0.949 . S
C1421 C1422 1.349 . S
C1421 C1423 1.327 . S
C1421 H1444 0.950 . S
C1422 C1421 1.349 . S
C1422 C1434 1.349 . S
C1423 C1421 1.327 . S
C1423 C1439 1.429 . S
C1423 H1445 0.950 . S
C1424 H1420 0.949 . S
C1424 C1432 1.574 . S
C1424 C1440 1.368 . S
H1425 C1433 0.950 . S
H1426 C1431 0.950 . S
H1427 C1432 0.949 . S
H1428 C1434 0.950 . S
H1429 C1435 0.950 . S
H1430 C1436 0.949 . S
C1431 H1426 0.950 . S
C1431 C1433 1.327 . S
C1431 C1437 1.429 . S
C1432 C1424 1.574 . S
C1432 H1427 0.949 . S
C1432 C1438 1.368 . S
C1433 C1417 1.349 . S
C1433 H1425 0.950 . S
C1433 C1431 1.327 . S
C1434 C1422 1.349 . S
C1434 H1428 0.950 . S
C1434 C1435 1.327 . S
C1435 H1429 0.950 . S
C1435 C1434 1.327 . S
C1435 C1439 1.429 . S
C1436 C1419 1.574 . S
C1436 H1430 0.949 . S
C1436 C1440 1.368 . S
C1437 C1418 1.429 . S
C1437 C1431 1.429 . S
C1437 C1438 1.523 . S
C1438 C1419 1.368 . S
C1438 C1432 1.368 . S
C1438 C1437 1.523 . S
C1439 C1423 1.429 . S
C1439 C1435 1.429 . S
C1439 C1440 1.523 . S
C1440 C1424 1.368 . S
C1440 C1436 1.368 . S
C1440 C1439 1.523 . S
H1441 C1416 0.950 . S
H1442 C1418 0.950 . S
H1443 C1419 0.949 . S
H1444 C1421 0.950 . S
H1445 C1423 0.950 . S
C1446 C1447 1.349 . S
C1446 C1448 1.327 . S
C1446 H1471 0.950 . S
C1447 C1446 1.349 . S
C1447 C1463 1.349 . S
C1448 C1446 1.327 . S
C1448 C1467 1.429 . S
C1448 H1472 0.950 . S
C1449 C1466 1.574 . S
C1449 C1468 1.368 . S
C1449 H1473 0.949 . S
H1450 C1454 0.949 . S
C1451 C1452 1.349 . S
C1451 C1453 1.327 . S
C1451 H1474 0.950 . S
C1452 C1451 1.349 . S
C1452 C1464 1.349 . S
C1453 C1451 1.327 . S
C1453 C1469 1.429 . S
C1453 H1475 0.950 . S
C1454 H1450 0.949 . S
C1454 C1462 1.574 . S
C1454 C1470 1.368 . S
H1455 C1463 0.950 . S
H1456 C1461 0.950 . S
H1457 C1462 0.949 . S
H1458 C1464 0.950 . S
H1459 C1465 0.950 . S
H1460 C1466 0.949 . S
C1461 H1456 0.950 . S
C1461 C1463 1.327 . S
C1461 C1467 1.429 . S
C1462 C1454 1.574 . S
C1462 H1457 0.949 . S
C1462 C1468 1.368 . S
C1463 C1447 1.349 . S
C1463 H1455 0.950 . S
C1463 C1461 1.327 . S
C1464 C1452 1.349 . S
C1464 H1458 0.950 . S
C1464 C1465 1.327 . S
C1465 H1459 0.950 . S
C1465 C1464 1.327 . S
C1465 C1469 1.429 . S
C1466 C1449 1.574 . S
C1466 H1460 0.949 . S
C1466 C1470 1.368 . S
C1467 C1448 1.429 . S
C1467 C1461 1.429 . S
C1467 C1468 1.523 . S
C1468 C1449 1.368 . S
C1468 C1462 1.368 . S
C1468 C1467 1.523 . S
C1469 C1453 1.429 . S
C1469 C1465 1.429 . S
C1469 C1470 1.523 . S
C1470 C1454 1.368 . S
C1470 C1466 1.368 . S
C1470 C1469 1.523 . S
H1471 C1446 0.950 . S
H1472 C1448 0.950 . S
H1473 C1449 0.949 . S
H1474 C1451 0.950 . S
H1475 C1453 0.950 . S
C1476 C1477 1.349 . S
C1476 C1478 1.327 . S
C1476 H1501 0.950 . S
C1477 C1476 1.349 . S
C1477 C1493 1.349 . S
C1478 C1476 1.327 . S
C1478 C1497 1.429 . S
C1478 H1502 0.950 . S
C1479 C1496 1.574 . S
C1479 C1498 1.368 . S
C1479 H1503 0.949 . S
H1480 C1484 0.949 . S
C1481 C1482 1.349 . S
C1481 C1483 1.327 . S
C1481 H1504 0.950 . S
C1482 C1481 1.349 . S
C1482 C1494 1.349 . S
C1483 C1481 1.327 . S
C1483 C1499 1.429 . S
C1483 H1505 0.950 . S
C1484 H1480 0.949 . S
C1484 C1492 1.574 . S
C1484 C1500 1.368 . S
H1485 C1493 0.950 . S
H1486 C1491 0.950 . S
H1487 C1492 0.949 . S
H1488 C1494 0.950 . S
H1489 C1495 0.950 . S
H1490 C1496 0.949 . S
C1491 H1486 0.950 . S
C1491 C1493 1.327 . S
C1491 C1497 1.429 . S
C1492 C1484 1.574 . S
C1492 H1487 0.949 . S
C1492 C1498 1.368 . S
C1493 C1477 1.349 . S
C1493 H1485 0.950 . S
C1493 C1491 1.327 . S
C1494 C1482 1.349 . S
C1494 H1488 0.950 . S
C1494 C1495 1.327 . S
C1495 H1489 0.950 . S
C1495 C1494 1.327 . S
C1495 C1499 1.429 . S
C1496 C1479 1.574 . S
C1496 H1490 0.949 . S
C1496 C1500 1.368 . S
C1497 C1478 1.429 . S
C1497 C1491 1.429 . S
C1497 C1498 1.523 . S
C1498 C1479 1.368 . S
C1498 C1492 1.368 . S
C1498 C1497 1.523 . S
C1499 C1483 1.429 . S
C1499 C1495 1.429 . S
C1499 C1500 1.523 . S
C1500 C1484 1.368 . S
C1500 C1496 1.368 . S
C1500 C1499 1.523 . S
H1501 C1476 0.950 . S
H1502 C1478 0.950 . S
H1503 C1479 0.949 . S
H1504 C1481 0.950 . S
H1505 C1483 0.950 . S
C1506 C1507 1.349 . S
C1506 C1508 1.327 . S
C1506 H1531 0.950 . S
C1507 C1506 1.349 . S
C1507 C1523 1.349 . S
C1508 C1506 1.327 . S
C1508 C1527 1.429 . S
C1508 H1532 0.950 . S
C1509 C1526 1.574 . S
C1509 C1528 1.368 . S
C1509 H1533 0.949 1_554 S
H1510 C1514 0.949 . S
C1511 C1512 1.349 . S
C1511 C1513 1.327 . S
C1511 H1534 0.950 . S
C1512 C1511 1.349 . S
C1512 C1524 1.349 . S
C1513 C1511 1.327 . S
C1513 C1529 1.429 . S
C1513 H1535 0.950 . S
C1514 H1510 0.949 . S
C1514 C1522 1.574 . S
C1514 C1530 1.368 . S
H1515 C1523 0.950 . S
H1516 C1521 0.950 . S
H1517 C1522 0.949 . S
H1518 C1524 0.950 . S
H1519 C1525 0.950 . S
H1520 C1526 0.949 . S
C1521 H1516 0.950 . S
C1521 C1523 1.327 . S
C1521 C1527 1.429 . S
C1522 C1514 1.574 . S
C1522 H1517 0.949 . S
C1522 C1528 1.368 . S
C1523 C1507 1.349 . S
C1523 H1515 0.950 . S
C1523 C1521 1.327 . S
C1524 C1512 1.349 . S
C1524 H1518 0.950 . S
C1524 C1525 1.327 . S
C1525 H1519 0.950 . S
C1525 C1524 1.327 . S
C1525 C1529 1.429 . S
C1526 C1509 1.574 . S
C1526 H1520 0.949 . S
C1526 C1530 1.368 . S
C1527 C1508 1.429 . S
C1527 C1521 1.429 . S
C1527 C1528 1.523 1_556 S
C1528 C1509 1.368 . S
C1528 C1522 1.368 . S
C1528 C1527 1.523 1_554 S
C1529 C1513 1.429 . S
C1529 C1525 1.429 . S
C1529 C1530 1.523 . S
C1530 C1514 1.368 . S
C1530 C1526 1.368 . S
C1530 C1529 1.523 . S
H1531 C1506 0.950 . S
H1532 C1508 0.950 . S
H1533 C1509 0.949 1_556 S
H1534 C1511 0.950 . S
H1535 C1513 0.950 . S
C1536 C1537 1.349 . S
C1536 C1538 1.327 . S
C1536 H1561 0.950 . S
C1537 C1536 1.349 . S
C1537 C1553 1.349 . S
C1538 C1536 1.327 . S
C1538 C1557 1.429 . S
C1538 H1562 0.950 . S
C1539 C1556 1.568 1_655 S
C1539 C1558 1.368 . S
C1539 H1563 0.949 . S
H1540 C1544 0.949 . S
C1541 C1542 1.349 . S
C1541 C1543 1.327 . S
C1541 H1564 0.950 . S
C1542 C1541 1.349 . S
C1542 C1554 1.349 . S
C1543 C1541 1.327 . S
C1543 C1559 1.429 . S
C1543 H1565 0.950 . S
C1544 H1540 0.949 . S
C1544 C1552 1.574 . S
C1544 C1560 1.368 . S
H1545 C1553 0.950 . S
H1546 C1551 0.950 . S
H1547 C1552 0.949 . S
H1548 C1554 0.950 . S
H1549 C1555 0.950 . S
H1550 C1556 0.949 . S
C1551 H1546 0.950 . S
C1551 C1553 1.327 . S
C1551 C1557 1.429 . S
C1552 C1544 1.574 . S
C1552 H1547 0.949 . S
C1552 C1558 1.368 1_455 S
C1553 C1537 1.349 . S
C1553 H1545 0.950 . S
C1553 C1551 1.327 . S
C1554 C1542 1.349 . S
C1554 H1548 0.950 . S
C1554 C1555 1.327 . S
C1555 H1549 0.950 . S
C1555 C1554 1.327 . S
C1555 C1559 1.429 . S
C1556 C1539 1.568 1_455 S
C1556 H1550 0.949 . S
C1556 C1560 1.375 . S
C1557 C1538 1.429 . S
C1557 C1551 1.429 . S
C1557 C1558 1.523 . S
C1558 C1539 1.368 . S
C1558 C1552 1.368 1_655 S
C1558 C1557 1.523 . S
C1559 C1543 1.429 . S
C1559 C1555 1.429 . S
C1559 C1560 1.523 . S
C1560 C1544 1.368 . S
C1560 C1556 1.375 . S
C1560 C1559 1.523 . S
H1561 C1536 0.950 . S
H1562 C1538 0.950 . S
H1563 C1539 0.949 . S
H1564 C1541 0.950 . S
H1565 C1543 0.950 . S
C1566 C1567 1.349 . S
C1566 C1568 1.327 . S
C1566 H1591 0.950 . S
C1567 C1566 1.349 . S
C1567 C1583 1.349 . S
C1568 C1566 1.327 . S
C1568 C1587 1.429 . S
C1568 H1592 0.950 . S
C1569 C1586 1.574 . S
C1569 C1588 1.368 . S
C1569 H1593 0.949 . S
H1570 C1574 0.949 . S
C1571 C1572 1.349 . S
C1571 C1573 1.327 . S
C1571 H1594 0.950 . S
C1572 C1571 1.349 . S
C1572 C1584 1.349 . S
C1573 C1571 1.327 . S
C1573 C1589 1.442 . S
C1573 H1595 0.950 . S
C1574 H1570 0.949 . S
C1574 C1582 1.574 . S
C1574 C1590 1.368 . S
H1575 C1583 0.950 . S
H1576 C1581 0.950 . S
H1577 C1582 0.949 . S
H1578 C1584 0.950 . S
H1579 C1585 0.950 . S
H1580 C1586 0.949 . S
C1581 H1576 0.950 . S
C1581 C1583 1.327 . S
C1581 C1587 1.429 . S
C1582 C1574 1.574 . S
C1582 H1577 0.949 . S
C1582 C1588 1.368 . S
C1583 C1567 1.349 . S
C1583 H1575 0.950 . S
C1583 C1581 1.327 . S
C1584 C1572 1.349 . S
C1584 H1578 0.950 . S
C1584 C1585 1.327 . S
C1585 H1579 0.950 . S
C1585 C1584 1.327 . S
C1585 C1589 1.438 . S
C1586 C1569 1.574 . S
C1586 H1580 0.949 . S
C1586 C1590 1.368 . S
C1587 C1568 1.429 . S
C1587 C1581 1.429 . S
C1587 C1588 1.523 . S
C1588 C1569 1.368 . S
C1588 C1582 1.368 . S
C1588 C1587 1.523 . S
C1589 C1573 1.442 . S
C1589 C1585 1.438 . S
C1589 C1590 1.502 1_556 S
C1590 C1574 1.368 . S
C1590 C1586 1.368 . S
C1590 C1589 1.502 1_554 S
H1591 C1566 0.950 . S
H1592 C1568 0.950 . S
H1593 C1569 0.949 . S
H1594 C1571 0.950 . S
H1595 C1573 0.950 . S
C1596 C1597 1.349 . S
C1596 C1598 1.327 . S
C1596 H1621 0.950 . S
C1597 C1596 1.349 . S
C1597 C1613 1.349 . S
C1598 C1596 1.327 . S
C1598 C1617 1.429 . S
C1598 H1622 0.950 . S
C1599 C1616 1.574 . S
C1599 C1618 1.368 . S
C1599 H1623 0.949 . S
H1600 C1604 0.949 . S
C1601 C1602 1.349 . S
C1601 C1603 1.327 . S
C1601 H1624 0.950 . S
C1602 C1601 1.349 . S
C1602 C1614 1.349 . S
C1603 C1601 1.327 . S
C1603 C1619 1.429 . S
C1603 H1625 0.950 . S
C1604 H1600 0.949 . S
C1604 C1612 1.574 . S
C1604 C1620 1.368 . S
H1605 C1613 0.950 . S
H1606 C1611 0.950 . S
H1607 C1612 0.949 . S
H1608 C1614 0.950 . S
H1609 C1615 0.950 . S
H1610 C1616 0.949 . S
C1611 H1606 0.950 . S
C1611 C1613 1.327 . S
C1611 C1617 1.429 . S
C1612 C1604 1.574 . S
C1612 H1607 0.949 . S
C1612 C1618 1.368 . S
C1613 C1597 1.349 . S
C1613 H1605 0.950 . S
C1613 C1611 1.327 . S
C1614 C1602 1.349 . S
C1614 H1608 0.950 . S
C1614 C1615 1.327 . S
C1615 H1609 0.950 . S
C1615 C1614 1.327 . S
C1615 C1619 1.429 . S
C1616 C1599 1.574 . S
C1616 H1610 0.949 . S
C1616 C1620 1.368 . S
C1617 C1598 1.429 . S
C1617 C1611 1.429 . S
C1617 C1618 1.523 . S
C1618 C1599 1.368 . S
C1618 C1612 1.368 . S
C1618 C1617 1.523 . S
C1619 C1603 1.429 . S
C1619 C1615 1.429 . S
C1619 C1620 1.523 . S
C1620 C1604 1.368 . S
C1620 C1616 1.368 . S
C1620 C1619 1.523 . S
H1621 C1596 0.950 . S
H1622 C1598 0.950 . S
H1623 C1599 0.949 . S
H1624 C1601 0.950 . S
H1625 C1603 0.950 . S
C1626 C1627 1.349 . S
C1626 C1628 1.327 . S
C1626 H1651 0.950 . S
C1627 C1626 1.349 . S
C1627 C1643 1.349 . S
C1628 C1626 1.327 . S
C1628 C1647 1.429 . S
C1628 H1652 0.950 . S
C1629 C1646 1.574 . S
C1629 C1648 1.368 . S
C1629 H1653 0.949 . S
H1630 C1634 0.949 . S
C1631 C1632 1.349 . S
C1631 C1633 1.327 . S
C1631 H1654 0.950 . S
C1632 C1631 1.349 . S
C1632 C1644 1.349 . S
C1633 C1631 1.327 . S
C1633 C1649 1.429 . S
C1633 H1655 0.950 . S
C1634 H1630 0.949 . S
C1634 C1642 1.574 . S
C1634 C1650 1.368 . S
H1635 C1643 0.950 . S
H1636 C1641 0.950 . S
H1637 C1642 0.949 . S
H1638 C1644 0.950 . S
H1639 C1645 0.950 . S
H1640 C1646 0.949 . S
C1641 H1636 0.950 . S
C1641 C1643 1.327 . S
C1641 C1647 1.429 . S
C1642 C1634 1.574 . S
C1642 H1637 0.949 . S
C1642 C1648 1.368 . S
C1643 C1627 1.349 . S
C1643 H1635 0.950 . S
C1643 C1641 1.327 . S
C1644 C1632 1.349 . S
C1644 H1638 0.950 . S
C1644 C1645 1.327 . S
C1645 H1639 0.950 . S
C1645 C1644 1.327 . S
C1645 C1649 1.429 . S
C1646 C1629 1.574 . S
C1646 H1640 0.949 . S
C1646 C1650 1.368 . S
C1647 C1628 1.429 . S
C1647 C1641 1.429 . S
C1647 C1648 1.523 . S
C1648 C1629 1.368 . S
C1648 C1642 1.368 . S
C1648 C1647 1.523 . S
C1649 C1633 1.429 . S
C1649 C1645 1.429 . S
C1649 C1650 1.523 . S
C1650 C1634 1.368 . S
C1650 C1646 1.368 . S
C1650 C1649 1.523 . S
H1651 C1626 0.950 . S
H1652 C1628 0.950 . S
H1653 C1629 0.949 . S
H1654 C1631 0.950 . S
H1655 C1633 0.950 . S
C1656 C1657 1.349 . S
C1656 C1658 1.327 . S
C1656 H1681 0.950 . S
C1657 C1656 1.349 . S
C1657 C1673 1.349 . S
C1658 C1656 1.327 . S
C1658 C1677 1.429 . S
C1658 H1682 0.950 . S
C1659 C1676 1.574 . S
C1659 C1678 1.368 . S
C1659 H1683 0.949 . S
H1660 C1664 0.949 . S
C1661 C1662 1.349 . S
C1661 C1663 1.327 . S
C1661 H1684 0.950 . S
C1662 C1661 1.349 . S
C1662 C1674 1.349 . S
C1663 C1661 1.327 . S
C1663 C1679 1.429 . S
C1663 H1685 0.950 . S
C1664 H1660 0.949 . S
C1664 C1672 1.554 1_655 S
C1664 C1680 1.368 . S
H1665 C1673 0.950 . S
H1666 C1671 0.950 . S
H1667 C1672 0.949 . S
H1668 C1674 0.950 . S
H1669 C1675 0.950 . S
H1670 C1676 0.949 . S
C1671 H1666 0.950 . S
C1671 C1673 1.327 . S
C1671 C1677 1.429 . S
C1672 C1664 1.554 1_455 S
C1672 H1667 0.949 . S
C1672 C1678 1.389 . S
C1673 C1657 1.349 . S
C1673 H1665 0.950 . S
C1673 C1671 1.327 . S
C1674 C1662 1.349 . S
C1674 H1668 0.950 . S
C1674 C1675 1.327 . S
C1675 H1669 0.950 . S
C1675 C1674 1.327 . S
C1675 C1679 1.429 . S
C1676 C1659 1.574 . S
C1676 H1670 0.949 . S
C1676 C1680 1.368 1_455 S
C1677 C1658 1.429 . S
C1677 C1671 1.429 . S
C1677 C1678 1.523 . S
C1678 C1659 1.368 . S
C1678 C1672 1.389 . S
C1678 C1677 1.523 . S
C1679 C1663 1.429 . S
C1679 C1675 1.429 . S
C1679 C1680 1.523 . S
C1680 C1664 1.368 . S
C1680 C1676 1.368 1_655 S
C1680 C1679 1.523 . S
H1681 C1656 0.950 . S
H1682 C1658 0.950 . S
H1683 C1659 0.949 . S
H1684 C1661 0.950 . S
H1685 C1663 0.950 . S
C1686 C1687 1.349 . S
C1686 C1688 1.327 . S
C1686 H1711 0.950 . S
C1687 C1686 1.349 . S
C1687 C1703 1.349 . S
C1688 C1686 1.327 . S
C1688 C1707 1.429 . S
C1688 H1712 0.950 . S
C1689 C1706 1.574 1_554 S
C1689 C1708 1.368 . S
C1689 H1713 0.949 . S
H1690 C1694 0.949 . S
C1691 C1692 1.349 . S
C1691 C1693 1.327 . S
C1691 H1714 0.950 . S
C1692 C1691 1.349 . S
C1692 C1704 1.349 . S
C1693 C1691 1.327 . S
C1693 C1709 1.429 . S
C1693 H1715 0.950 . S
C1694 H1690 0.949 . S
C1694 C1702 1.574 . S
C1694 C1710 1.360 1_554 S
H1695 C1703 0.950 . S
H1696 C1701 0.950 . S
H1697 C1702 0.949 . S
H1698 C1704 0.950 . S
H1699 C1705 0.950 . S
H1700 C1706 0.949 . S
C1701 H1696 0.950 . S
C1701 C1703 1.327 . S
C1701 C1707 1.429 . S
C1702 C1694 1.574 . S
C1702 H1697 0.949 . S
C1702 C1708 1.368 . S
C1703 C1687 1.349 . S
C1703 H1695 0.950 . S
C1703 C1701 1.327 . S
C1704 C1692 1.349 . S
C1704 H1698 0.950 . S
C1704 C1705 1.327 . S
C1705 H1699 0.950 . S
C1705 C1704 1.327 . S
C1705 C1709 1.429 . S
C1706 C1689 1.574 1_556 S
C1706 H1700 0.949 . S
C1706 C1710 1.371 . S
C1707 C1688 1.429 . S
C1707 C1701 1.429 . S
C1707 C1708 1.523 . S
C1708 C1689 1.368 . S
C1708 C1702 1.368 . S
C1708 C1707 1.523 . S
C1709 C1693 1.429 . S
C1709 C1705 1.429 . S
C1709 C1710 1.530 . S
C1710 C1694 1.360 1_556 S
C1710 C1706 1.371 . S
C1710 C1709 1.530 . S
H1711 C1686 0.950 . S
H1712 C1688 0.950 . S
H1713 C1689 0.949 . S
H1714 C1691 0.950 . S
H1715 C1693 0.950 . S
C1716 C1717 1.349 . S
C1716 C1718 1.327 . S
C1716 H1741 0.950 . S
C1717 C1716 1.349 . S
C1717 C1733 1.349 . S
C1718 C1716 1.327 . S
C1718 C1737 1.429 . S
C1718 H1742 0.950 . S
C1719 C1736 1.574 . S
C1719 C1738 1.368 . S
C1719 H1743 0.949 . S
H1720 C1724 0.949 . S
C1721 C1722 1.349 . S
C1721 C1723 1.327 . S
C1721 H1744 0.950 . S
C1722 C1721 1.349 . S
C1722 C1734 1.349 . S
C1723 C1721 1.327 . S
C1723 C1739 1.429 . S
C1723 H1745 0.950 . S
C1724 H1720 0.949 . S
C1724 C1732 1.574 . S
C1724 C1740 1.368 . S
H1725 C1733 0.950 . S
H1726 C1731 0.950 . S
H1727 C1732 0.949 . S
H1728 C1734 0.950 . S
H1729 C1735 0.950 . S
H1730 C1736 0.949 . S
C1731 H1726 0.950 . S
C1731 C1733 1.327 . S
C1731 C1737 1.429 . S
C1732 C1724 1.574 . S
C1732 H1727 0.949 . S
C1732 C1738 1.368 . S
C1733 C1717 1.349 . S
C1733 H1725 0.950 . S
C1733 C1731 1.327 . S
C1734 C1722 1.349 . S
C1734 H1728 0.950 . S
C1734 C1735 1.327 . S
C1735 H1729 0.950 . S
C1735 C1734 1.327 . S
C1735 C1739 1.429 . S
C1736 C1719 1.574 . S
C1736 H1730 0.949 . S
C1736 C1740 1.368 . S
C1737 C1718 1.429 . S
C1737 C1731 1.429 . S
C1737 C1738 1.523 . S
C1738 C1719 1.368 . S
C1738 C1732 1.368 . S
C1738 C1737 1.523 . S
C1739 C1723 1.429 . S
C1739 C1735 1.429 . S
C1739 C1740 1.523 . S
C1740 C1724 1.368 . S
C1740 C1736 1.368 . S
C1740 C1739 1.523 . S
H1741 C1716 0.950 . S
H1742 C1718 0.950 . S
H1743 C1719 0.949 . S
H1744 C1721 0.950 . S
H1745 C1723 0.950 . S
C1746 C1747 1.349 . S
C1746 C1748 1.327 . S
C1746 H1771 0.950 . S
C1747 C1746 1.349 . S
C1747 C1763 1.349 . S
C1748 C1746 1.327 . S
C1748 C1767 1.429 . S
C1748 H1772 0.950 . S
C1749 C1766 1.574 . S
C1749 C1768 1.368 . S
C1749 H1773 0.949 . S
H1750 C1754 0.949 . S
C1751 C1752 1.349 . S
C1751 C1753 1.327 . S
C1751 H1774 0.950 . S
C1752 C1751 1.349 . S
C1752 C1764 1.349 . S
C1753 C1751 1.327 . S
C1753 C1769 1.429 . S
C1753 H1775 0.950 . S
C1754 H1750 0.949 . S
C1754 C1762 1.574 . S
C1754 C1770 1.368 . S
H1755 C1763 0.950 . S
H1756 C1761 0.950 . S
H1757 C1762 0.949 . S
H1758 C1764 0.950 . S
H1759 C1765 0.950 . S
H1760 C1766 0.949 . S
C1761 H1756 0.950 . S
C1761 C1763 1.327 . S
C1761 C1767 1.429 . S
C1762 C1754 1.574 . S
C1762 H1757 0.949 . S
C1762 C1768 1.368 . S
C1763 C1747 1.349 . S
C1763 H1755 0.950 . S
C1763 C1761 1.327 . S
C1764 C1752 1.349 . S
C1764 H1758 0.950 . S
C1764 C1765 1.327 . S
C1765 H1759 0.950 . S
C1765 C1764 1.327 . S
C1765 C1769 1.429 . S
C1766 C1749 1.574 . S
C1766 H1760 0.949 . S
C1766 C1770 1.368 . S
C1767 C1748 1.429 . S
C1767 C1761 1.429 . S
C1767 C1768 1.523 . S
C1768 C1749 1.368 . S
C1768 C1762 1.368 . S
C1768 C1767 1.523 . S
C1769 C1753 1.429 . S
C1769 C1765 1.429 . S
C1769 C1770 1.523 . S
C1770 C1754 1.368 . S
C1770 C1766 1.368 . S
C1770 C1769 1.523 . S
H1771 C1746 0.950 . S
H1772 C1748 0.950 . S
H1773 C1749 0.949 . S
H1774 C1751 0.950 . S
H1775 C1753 0.950 . S
C1776 C1777 1.349 . S
C1776 C1778 1.327 . S
C1776 H1801 0.950 . S
C1777 C1776 1.349 . S
C1777 C1793 1.349 . S
C1778 C1776 1.327 . S
C1778 C1797 1.429 . S
C1778 H1802 0.950 . S
C1779 C1796 1.605 . S
C1779 C1798 1.368 . S
C1779 H1803 0.949 . S
H1780 C1784 0.949 . S
C1781 C1782 1.349 . S
C1781 C1783 1.327 . S
C1781 H1804 0.950 . S
C1782 C1781 1.349 . S
C1782 C1794 1.349 . S
C1783 C1781 1.327 . S
C1783 C1799 1.429 . S
C1783 H1805 0.950 . S
C1784 H1780 0.949 . S
C1784 C1792 1.574 1_455 S
C1784 C1800 1.368 . S
H1785 C1793 0.950 . S
H1786 C1791 0.950 . S
H1787 C1792 0.949 . S
H1788 C1794 0.950 . S
H1789 C1795 0.950 . S
H1790 C1796 0.944 1_455 S
C1791 H1786 0.950 . S
C1791 C1793 1.327 . S
C1791 C1797 1.429 . S
C1792 C1784 1.574 1_655 S
C1792 H1787 0.949 . S
C1792 C1798 1.368 . S
C1793 C1777 1.349 . S
C1793 H1785 0.950 . S
C1793 C1791 1.327 . S
C1794 C1782 1.349 . S
C1794 H1788 0.950 . S
C1794 C1795 1.327 . S
C1795 H1789 0.950 . S
C1795 C1794 1.327 . S
C1795 C1799 1.429 . S
C1796 C1779 1.605 . S
C1796 H1790 0.944 1_655 S
C1796 C1800 1.343 1_655 S
C1797 C1778 1.429 . S
C1797 C1791 1.429 . S
C1797 C1798 1.523 . S
C1798 C1779 1.368 . S
C1798 C1792 1.368 . S
C1798 C1797 1.523 . S
C1799 C1783 1.429 . S
C1799 C1795 1.429 . S
C1799 C1800 1.523 . S
C1800 C1784 1.368 . S
C1800 C1796 1.343 1_455 S
C1800 C1799 1.523 . S
H1801 C1776 0.950 . S
H1802 C1778 0.950 . S
H1803 C1779 0.949 . S
H1804 C1781 0.950 . S
H1805 C1783 0.950 . S
C1806 C1807 1.349 . S
C1806 C1808 1.327 . S
C1806 H1831 0.950 . S
C1807 C1806 1.349 . S
C1807 C1823 1.349 . S
C1808 C1806 1.327 . S
C1808 C1827 1.429 . S
C1808 H1832 0.950 1_556 S
C1809 C1826 1.574 1_556 S
C1809 C1828 1.359 1_556 S
C1809 H1833 0.949 . S
H1810 C1814 0.949 . S
C1811 C1812 1.349 . S
C1811 C1813 1.327 . S
C1811 H1834 0.950 . S
C1812 C1811 1.349 . S
C1812 C1824 1.349 . S
C1813 C1811 1.327 . S
C1813 C1829 1.429 . S
C1813 H1835 0.950 . S
C1814 H1810 0.949 . S
C1814 C1822 1.574 . S
C1814 C1830 1.368 . S
H1815 C1823 0.950 . S
H1816 C1821 0.950 . S
H1817 C1822 0.949 . S
H1818 C1824 0.950 . S
H1819 C1825 0.950 . S
H1820 C1826 0.949 . S
C1821 H1816 0.950 . S
C1821 C1823 1.327 . S
C1821 C1827 1.429 . S
C1822 C1814 1.574 . S
C1822 H1817 0.949 . S
C1822 C1828 1.390 . S
C1823 C1807 1.349 . S
C1823 H1815 0.950 . S
C1823 C1821 1.327 . S
C1824 C1812 1.349 . S
C1824 H1818 0.950 . S
C1824 C1825 1.327 . S
C1825 H1819 0.950 . S
C1825 C1824 1.327 . S
C1825 C1829 1.429 . S
C1826 C1809 1.574 1_554 S
C1826 H1820 0.949 . S
C1826 C1830 1.368 . S
C1827 C1808 1.429 . S
C1827 C1821 1.429 . S
C1827 C1828 1.507 1_556 S
C1828 C1809 1.359 1_554 S
C1828 C1822 1.390 . S
C1828 C1827 1.507 1_554 S
C1829 C1813 1.429 . S
C1829 C1825 1.429 . S
C1829 C1830 1.523 . S
C1830 C1814 1.368 . S
C1830 C1826 1.368 . S
C1830 C1829 1.523 . S
H1831 C1806 0.950 . S
H1832 C1808 0.950 1_554 S
H1833 C1809 0.949 . S
H1834 C1811 0.950 . S
H1835 C1813 0.950 . S
C1836 C1837 1.349 . S
C1836 C1838 1.327 . S
C1836 H1861 0.950 . S
C1837 C1836 1.349 . S
C1837 C1853 1.349 . S
C1838 C1836 1.327 . S
C1838 C1857 1.429 . S
C1838 H1862 0.950 . S
C1839 C1856 1.574 . S
C1839 C1858 1.368 . S
C1839 H1863 0.949 . S
H1840 C1844 0.949 . S
C1841 C1842 1.349 . S
C1841 C1843 1.327 . S
C1841 H1864 0.950 . S
C1842 C1841 1.349 . S
C1842 C1854 1.349 . S
C1843 C1841 1.327 . S
C1843 C1859 1.429 . S
C1843 H1865 0.950 . S
C1844 H1840 0.949 . S
C1844 C1852 1.574 . S
C1844 C1860 1.368 . S
H1845 C1853 0.950 . S
H1846 C1851 0.950 . S
H1847 C1852 0.949 . S
H1848 C1854 0.950 . S
H1849 C1855 0.950 . S
H1850 C1856 0.949 . S
C1851 H1846 0.950 . S
C1851 C1853 1.327 . S
C1851 C1857 1.429 . S
C1852 C1844 1.574 . S
C1852 H1847 0.949 . S
C1852 C1858 1.368 . S
C1853 C1837 1.349 . S
C1853 H1845 0.950 . S
C1853 C1851 1.327 . S
C1854 C1842 1.349 . S
C1854 H1848 0.950 . S
C1854 C1855 1.327 . S
C1855 H1849 0.950 . S
C1855 C1854 1.327 . S
C1855 C1859 1.429 . S
C1856 C1839 1.574 . S
C1856 H1850 0.949 . S
C1856 C1860 1.368 . S
C1857 C1838 1.429 . S
C1857 C1851 1.429 . S
C1857 C1858 1.523 . S
C1858 C1839 1.368 . S
C1858 C1852 1.368 . S
C1858 C1857 1.523 . S
C1859 C1843 1.429 . S
C1859 C1855 1.429 . S
C1859 C1860 1.523 . S
C1860 C1844 1.368 . S
C1860 C1856 1.368 . S
C1860 C1859 1.523 . S
H1861 C1836 0.950 . S
H1862 C1838 0.950 . S
H1863 C1839 0.949 . S
H1864 C1841 0.950 . S
H1865 C1843 0.950 . S
C1866 C1867 1.349 . S
C1866 C1868 1.327 . S
C1866 H1891 0.950 . S
C1867 C1866 1.349 . S
C1867 C1883 1.349 . S
C1868 C1866 1.327 . S
C1868 C1887 1.429 . S
C1868 H1892 0.950 . S
C1869 C1886 1.574 . S
C1869 C1888 1.368 . S
C1869 H1893 0.949 . S
H1870 C1874 0.949 . S
C1871 C1872 1.349 . S
C1871 C1873 1.327 . S
C1871 H1894 0.950 . S
C1872 C1871 1.349 . S
C1872 C1884 1.349 . S
C1873 C1871 1.327 . S
C1873 C1889 1.429 . S
C1873 H1895 0.950 . S
C1874 H1870 0.949 . S
C1874 C1882 1.574 . S
C1874 C1890 1.368 . S
H1875 C1883 0.950 . S
H1876 C1881 0.950 . S
H1877 C1882 0.949 . S
H1878 C1884 0.950 . S
H1879 C1885 0.950 . S
H1880 C1886 0.949 . S
C1881 H1876 0.950 . S
C1881 C1883 1.327 . S
C1881 C1887 1.429 . S
C1882 C1874 1.574 . S
C1882 H1877 0.949 . S
C1882 C1888 1.368 . S
C1883 C1867 1.349 . S
C1883 H1875 0.950 . S
C1883 C1881 1.327 . S
C1884 C1872 1.349 . S
C1884 H1878 0.950 . S
C1884 C1885 1.327 . S
C1885 H1879 0.950 . S
C1885 C1884 1.327 . S
C1885 C1889 1.429 . S
C1886 C1869 1.574 . S
C1886 H1880 0.949 . S
C1886 C1890 1.368 . S
C1887 C1868 1.429 . S
C1887 C1881 1.429 . S
C1887 C1888 1.523 . S
C1888 C1869 1.368 . S
C1888 C1882 1.368 . S
C1888 C1887 1.523 . S
C1889 C1873 1.429 . S
C1889 C1885 1.429 . S
C1889 C1890 1.523 . S
C1890 C1874 1.368 . S
C1890 C1886 1.368 . S
C1890 C1889 1.523 . S
H1891 C1866 0.950 . S
H1892 C1868 0.950 . S
H1893 C1869 0.949 . S
H1894 C1871 0.950 . S
H1895 C1873 0.950 . S
C1896 C1897 1.349 . S
C1896 C1898 1.327 . S
C1896 H1921 0.950 . S
C1897 C1896 1.349 . S
C1897 C1913 1.349 . S
C1898 C1896 1.327 . S
C1898 C1917 1.429 . S
C1898 H1922 0.950 . S
C1899 C1916 1.574 . S
C1899 C1918 1.368 1_655 S
C1899 H1923 0.954 . S
H1900 C1904 0.949 . S
C1901 C1902 1.349 . S
C1901 C1903 1.327 . S
C1901 H1924 0.950 . S
C1902 C1901 1.349 . S
C1902 C1914 1.349 . S
C1903 C1901 1.327 . S
C1903 C1919 1.429 . S
C1903 H1925 0.950 . S
C1904 H1900 0.949 . S
C1904 C1912 1.574 1_655 S
C1904 C1920 1.368 . S
H1905 C1913 0.950 . S
H1906 C1911 0.950 . S
H1907 C1912 0.949 . S
H1908 C1914 0.950 . S
H1909 C1915 0.950 . S
H1910 C1916 0.949 . S
C1911 H1906 0.950 . S
C1911 C1913 1.327 . S
C1911 C1917 1.429 . S
C1912 C1904 1.574 1_455 S
C1912 H1907 0.949 . S
C1912 C1918 1.368 . S
C1913 C1897 1.349 . S
C1913 H1905 0.950 . S
C1913 C1911 1.327 . S
C1914 C1902 1.349 . S
C1914 H1908 0.950 . S
C1914 C1915 1.327 . S
C1915 H1909 0.950 . S
C1915 C1914 1.327 . S
C1915 C1919 1.429 . S
C1916 C1899 1.574 . S
C1916 H1910 0.949 . S
C1916 C1920 1.368 . S
C1917 C1898 1.429 . S
C1917 C1911 1.429 . S
C1917 C1918 1.523 . S
C1918 C1899 1.368 1_455 S
C1918 C1912 1.368 . S
C1918 C1917 1.523 . S
C1919 C1903 1.429 . S
C1919 C1915 1.429 . S
C1919 C1920 1.523 . S
C1920 C1904 1.368 . S
C1920 C1916 1.368 . S
C1920 C1919 1.523 . S
H1921 C1896 0.950 . S
H1922 C1898 0.950 . S
H1923 C1899 0.954 . S
H1924 C1901 0.950 . S
H1925 C1903 0.950 . S
C1926 C1927 1.349 . S
C1926 C1928 1.327 . S
C1926 H1951 0.950 . S
C1927 C1926 1.349 . S
C1927 C1943 1.349 . S
C1928 C1926 1.327 . S
C1928 C1947 1.429 1_556 S
C1928 H1952 0.950 . S
C1929 C1946 1.574 . S
C1929 C1948 1.368 . S
C1929 H1953 0.949 . S
H1930 C1934 0.949 . S
C1931 C1932 1.349 . S
C1931 C1933 1.327 . S
C1931 H1954 0.950 . S
C1932 C1931 1.349 . S
C1932 C1944 1.349 . S
C1933 C1931 1.327 . S
C1933 C1949 1.429 . S
C1933 H1955 0.950 . S
C1934 H1930 0.949 . S
C1934 C1942 1.574 . S
C1934 C1950 1.368 . S
H1935 C1943 0.950 1_554 S
H1936 C1941 0.950 . S
H1937 C1942 0.949 1_556 S
H1938 C1944 0.950 . S
H1939 C1945 0.950 . S
H1940 C1946 0.949 . S
C1941 H1936 0.950 . S
C1941 C1943 1.327 1_554 S
C1941 C1947 1.429 . S
C1942 C1934 1.574 . S
C1942 H1937 0.949 1_554 S
C1942 C1948 1.368 . S
C1943 C1927 1.349 . S
C1943 H1935 0.950 1_556 S
C1943 C1941 1.327 1_556 S
C1944 C1932 1.349 . S
C1944 H1938 0.950 . S
C1944 C1945 1.327 . S
C1945 H1939 0.950 . S
C1945 C1944 1.327 . S
C1945 C1949 1.429 . S
C1946 C1929 1.574 . S
C1946 H1940 0.949 . S
C1946 C1950 1.368 . S
C1947 C1928 1.429 1_554 S
C1947 C1941 1.429 . S
C1947 C1948 1.523 . S
C1948 C1929 1.368 . S
C1948 C1942 1.368 . S
C1948 C1947 1.523 . S
C1949 C1933 1.429 . S
C1949 C1945 1.429 . S
C1949 C1950 1.523 . S
C1950 C1934 1.368 . S
C1950 C1946 1.368 . S
C1950 C1949 1.523 . S
H1951 C1926 0.950 . S
H1952 C1928 0.950 . S
H1953 C1929 0.949 . S
H1954 C1931 0.950 . S
H1955 C1933 0.950 . S
C1956 C1957 1.349 . S
C1956 C1958 1.327 . S
C1956 H1981 0.950 . S
C1957 C1956 1.349 . S
C1957 C1973 1.349 . S
C1958 C1956 1.327 . S
C1958 C1977 1.429 . S
C1958 H1982 0.950 . S
C1959 C1976 1.574 . S
C1959 C1978 1.368 . S
C1959 H1983 0.949 . S
H1960 C1964 0.949 . S
C1961 C1962 1.349 . S
C1961 C1963 1.327 . S
C1961 H1984 0.950 . S
C1962 C1961 1.349 . S
C1962 C1974 1.349 . S
C1963 C1961 1.327 . S
C1963 C1979 1.429 . S
C1963 H1985 0.950 . S
C1964 H1960 0.949 . S
C1964 C1972 1.574 . S
C1964 C1980 1.368 . S
H1965 C1973 0.950 . S
H1966 C1971 0.950 . S
H1967 C1972 0.949 . S
H1968 C1974 0.950 . S
H1969 C1975 0.950 . S
H1970 C1976 0.949 . S
C1971 H1966 0.950 . S
C1971 C1973 1.327 . S
C1971 C1977 1.429 . S
C1972 C1964 1.574 . S
C1972 H1967 0.949 . S
C1972 C1978 1.368 . S
C1973 C1957 1.349 . S
C1973 H1965 0.950 . S
C1973 C1971 1.327 . S
C1974 C1962 1.349 . S
C1974 H1968 0.950 . S
C1974 C1975 1.327 . S
C1975 H1969 0.950 . S
C1975 C1974 1.327 . S
C1975 C1979 1.429 . S
C1976 C1959 1.574 . S
C1976 H1970 0.949 . S
C1976 C1980 1.368 . S
C1977 C1958 1.429 . S
C1977 C1971 1.429 . S
C1977 C1978 1.523 . S
C1978 C1959 1.368 . S
C1978 C1972 1.368 . S
C1978 C1977 1.523 . S
C1979 C1963 1.429 . S
C1979 C1975 1.429 . S
C1979 C1980 1.523 . S
C1980 C1964 1.368 . S
C1980 C1976 1.368 . S
C1980 C1979 1.523 . S
H1981 C1956 0.950 . S
H1982 C1958 0.950 . S
H1983 C1959 0.949 . S
H1984 C1961 0.950 . S
H1985 C1963 0.950 . S
C1986 C1987 1.349 . S
C1986 C1988 1.327 . S
C1986 H2011 0.950 . S
C1987 C1986 1.349 . S
C1987 C2003 1.349 . S
C1988 C1986 1.327 . S
C1988 C2007 1.429 . S
C1988 H2012 0.950 . S
C1989 C2006 1.574 . S
C1989 C2008 1.368 . S
C1989 H2013 0.949 . S
H1990 C1994 0.949 . S
C1991 C1992 1.349 . S
C1991 C1993 1.327 . S
C1991 H2014 0.950 . S
C1992 C1991 1.349 . S
C1992 C2004 1.349 . S
C1993 C1991 1.327 . S
C1993 C2009 1.429 . S
C1993 H2015 0.950 . S
C1994 H1990 0.949 . S
C1994 C2002 1.574 . S
C1994 C2010 1.368 . S
H1995 C2003 0.950 . S
H1996 C2001 0.950 . S
H1997 C2002 0.949 . S
H1998 C2004 0.950 . S
H1999 C2005 0.950 . S
H2000 C2006 0.949 . S
C2001 H1996 0.950 . S
C2001 C2003 1.327 . S
C2001 C2007 1.429 . S
C2002 C1994 1.574 . S
C2002 H1997 0.949 . S
C2002 C2008 1.368 . S
C2003 C1987 1.349 . S
C2003 H1995 0.950 . S
C2003 C2001 1.327 . S
C2004 C1992 1.349 . S
C2004 H1998 0.950 . S
C2004 C2005 1.327 . S
C2005 H1999 0.950 . S
C2005 C2004 1.327 . S
C2005 C2009 1.429 . S
C2006 C1989 1.574 . S
C2006 H2000 0.949 . S
C2006 C2010 1.368 . S
C2007 C1988 1.429 . S
C2007 C2001 1.429 . S
C2007 C2008 1.523 . S
C2008 C1989 1.368 . S
C2008 C2002 1.368 . S
C2008 C2007 1.523 . S
C2009 C1993 1.429 . S
C2009 C2005 1.429 . S
C2009 C2010 1.523 . S
C2010 C1994 1.368 . S
C2010 C2006 1.368 . S
C2010 C2009 1.523 . S
H2011 C1986 0.950 . S
H2012 C1988 0.950 . S
H2013 C1989 0.949 . S
H2014 C1991 0.950 . S
H2015 C1993 0.950 . S
C2016 C2017 1.349 . S
C2016 C2018 1.327 . S
C2016 H2041 0.950 . S
C2017 C2016 1.349 . S
C2017 C2033 1.349 . S
C2018 C2016 1.327 . S
C2018 C2037 1.429 . S
C2018 H2042 0.950 . S
C2019 C2036 1.574 . S
C2019 C2038 1.368 . S
C2019 H2043 0.949 . S
H2020 C2024 0.949 . S
C2021 C2022 1.349 . S
C2021 C2023 1.327 . S
C2021 H2044 0.950 . S
C2022 C2021 1.349 . S
C2022 C2034 1.349 . S
C2023 C2021 1.327 . S
C2023 C2039 1.429 . S
C2023 H2045 0.950 . S
C2024 H2020 0.949 . S
C2024 C2032 1.574 . S
C2024 C2040 1.368 . S
H2025 C2033 0.950 . S
H2026 C2031 0.950 . S
H2027 C2032 0.949 . S
H2028 C2034 0.950 . S
H2029 C2035 0.950 . S
H2030 C2036 0.949 . S
C2031 H2026 0.950 . S
C2031 C2033 1.327 . S
C2031 C2037 1.429 . S
C2032 C2024 1.574 . S
C2032 H2027 0.949 . S
C2032 C2038 1.368 . S
C2033 C2017 1.349 . S
C2033 H2025 0.950 . S
C2033 C2031 1.327 . S
C2034 C2022 1.349 . S
C2034 H2028 0.950 . S
C2034 C2035 1.327 . S
C2035 H2029 0.950 . S
C2035 C2034 1.327 . S
C2035 C2039 1.429 . S
C2036 C2019 1.574 . S
C2036 H2030 0.949 . S
C2036 C2040 1.368 . S
C2037 C2018 1.429 . S
C2037 C2031 1.429 . S
C2037 C2038 1.523 . S
C2038 C2019 1.368 . S
C2038 C2032 1.368 . S
C2038 C2037 1.523 . S
C2039 C2023 1.429 . S
C2039 C2035 1.429 . S
C2039 C2040 1.523 . S
C2040 C2024 1.368 . S
C2040 C2036 1.368 . S
C2040 C2039 1.523 . S
H2041 C2016 0.950 . S
H2042 C2018 0.950 . S
H2043 C2019 0.949 . S
H2044 C2021 0.950 . S
H2045 C2023 0.950 . S
C2046 C2047 1.349 . S
C2046 C2048 1.327 . S
C2046 H2071 0.950 . S
C2047 C2046 1.349 . S
C2047 C2063 1.349 . S
C2048 C2046 1.327 . S
C2048 C2067 1.429 . S
C2048 H2072 0.950 . S
C2049 C2066 1.574 . S
C2049 C2068 1.368 . S
C2049 H2073 0.949 . S
H2050 C2054 0.949 . S
C2051 C2052 1.349 . S
C2051 C2053 1.327 . S
C2051 H2074 0.950 . S
C2052 C2051 1.349 . S
C2052 C2064 1.349 . S
C2053 C2051 1.327 . S
C2053 C2069 1.429 . S
C2053 H2075 0.950 . S
C2054 H2050 0.949 . S
C2054 C2062 1.574 . S
C2054 C2070 1.368 . S
H2055 C2063 0.950 . S
H2056 C2061 0.950 . S
H2057 C2062 0.949 . S
H2058 C2064 0.950 . S
H2059 C2065 0.950 . S
H2060 C2066 0.949 . S
C2061 H2056 0.950 . S
C2061 C2063 1.327 . S
C2061 C2067 1.429 . S
C2062 C2054 1.574 . S
C2062 H2057 0.949 . S
C2062 C2068 1.368 . S
C2063 C2047 1.349 . S
C2063 H2055 0.950 . S
C2063 C2061 1.327 . S
C2064 C2052 1.349 . S
C2064 H2058 0.950 . S
C2064 C2065 1.327 . S
C2065 H2059 0.950 . S
C2065 C2064 1.327 . S
C2065 C2069 1.429 . S
C2066 C2049 1.574 . S
C2066 H2060 0.949 . S
C2066 C2070 1.368 . S
C2067 C2048 1.429 . S
C2067 C2061 1.429 . S
C2067 C2068 1.523 . S
C2068 C2049 1.368 . S
C2068 C2062 1.368 . S
C2068 C2067 1.523 . S
C2069 C2053 1.429 . S
C2069 C2065 1.429 . S
C2069 C2070 1.523 . S
C2070 C2054 1.368 . S
C2070 C2066 1.368 . S
C2070 C2069 1.523 . S
H2071 C2046 0.950 . S
H2072 C2048 0.950 . S
H2073 C2049 0.949 . S
H2074 C2051 0.950 . S
H2075 C2053 0.950 . S
C2076 C2077 1.349 . S
C2076 C2078 1.327 . S
C2076 H2101 0.950 . S
C2077 C2076 1.349 . S
C2077 C2093 1.349 . S
C2078 C2076 1.327 . S
C2078 C2097 1.429 . S
C2078 H2102 0.950 . S
C2079 C2096 1.574 . S
C2079 C2098 1.368 . S
C2079 H2103 0.949 . S
H2080 C2084 0.949 . S
C2081 C2082 1.349 . S
C2081 C2083 1.327 . S
C2081 H2104 0.950 . S
C2082 C2081 1.349 . S
C2082 C2094 1.349 . S
C2083 C2081 1.327 . S
C2083 C2099 1.429 . S
C2083 H2105 0.950 . S
C2084 H2080 0.949 . S
C2084 C2092 1.573 1_455 S
C2084 C2100 1.368 . S
H2085 C2093 0.950 . S
H2086 C2091 0.950 . S
H2087 C2092 0.949 1_455 S
H2088 C2094 0.950 . S
H2089 C2095 0.950 . S
H2090 C2096 0.949 . S
C2091 H2086 0.950 . S
C2091 C2093 1.327 . S
C2091 C2097 1.429 . S
C2092 C2084 1.573 1_655 S
C2092 H2087 0.949 1_655 S
C2092 C2098 1.369 . S
C2093 C2077 1.349 . S
C2093 H2085 0.950 . S
C2093 C2091 1.327 . S
C2094 C2082 1.349 . S
C2094 H2088 0.950 . S
C2094 C2095 1.327 . S
C2095 H2089 0.950 . S
C2095 C2094 1.327 . S
C2095 C2099 1.429 . S
C2096 C2079 1.574 . S
C2096 H2090 0.949 . S
C2096 C2100 1.368 1_655 S
C2097 C2078 1.429 . S
C2097 C2091 1.429 . S
C2097 C2098 1.523 . S
C2098 C2079 1.368 . S
C2098 C2092 1.369 . S
C2098 C2097 1.523 . S
C2099 C2083 1.429 . S
C2099 C2095 1.429 . S
C2099 C2100 1.523 . S
C2100 C2084 1.368 . S
C2100 C2096 1.368 1_455 S
C2100 C2099 1.523 . S
H2101 C2076 0.950 . S
H2102 C2078 0.950 . S
H2103 C2079 0.949 . S
H2104 C2081 0.950 . S
H2105 C2083 0.950 . S
C2106 C2107 1.349 . S
C2106 C2108 1.327 . S
C2106 H2131 0.950 . S
C2107 C2106 1.349 . S
C2107 C2123 1.349 . S
C2108 C2106 1.327 . S
C2108 C2127 1.429 . S
C2108 H2132 0.950 . S
C2109 C2126 1.574 . S
C2109 C2128 1.368 . S
C2109 H2133 0.949 . S
H2110 C2114 0.949 . S
C2111 C2112 1.349 . S
C2111 C2113 1.327 . S
C2111 H2134 0.950 . S
C2112 C2111 1.349 . S
C2112 C2124 1.349 . S
C2113 C2111 1.327 . S
C2113 C2129 1.452 . S
C2113 H2135 0.950 . S
C2114 H2110 0.949 . S
C2114 C2122 1.574 . S
C2114 C2130 1.368 . S
H2115 C2123 0.950 . S
H2116 C2121 0.950 . S
H2117 C2122 0.949 . S
H2118 C2124 0.950 . S
H2119 C2125 0.956 . S
H2120 C2126 0.949 . S
C2121 H2116 0.950 . S
C2121 C2123 1.327 . S
C2121 C2127 1.429 . S
C2122 C2114 1.574 . S
C2122 H2117 0.949 . S
C2122 C2128 1.368 . S
C2123 C2107 1.349 . S
C2123 H2115 0.950 . S
C2123 C2121 1.327 . S
C2124 C2112 1.349 . S
C2124 H2118 0.950 . S
C2124 C2125 1.321 1_556 S
C2125 H2119 0.956 . S
C2125 C2124 1.321 1_554 S
C2125 C2129 1.428 1_554 S
C2126 C2109 1.574 . S
C2126 H2120 0.949 . S
C2126 C2130 1.368 . S
C2127 C2108 1.429 . S
C2127 C2121 1.429 . S
C2127 C2128 1.523 . S
C2128 C2109 1.368 . S
C2128 C2122 1.368 . S
C2128 C2127 1.523 . S
C2129 C2113 1.452 . S
C2129 C2125 1.428 1_556 S
C2129 C2130 1.502 1_556 S
C2130 C2114 1.368 . S
C2130 C2126 1.368 . S
C2130 C2129 1.502 1_554 S
H2131 C2106 0.950 . S
H2132 C2108 0.950 . S
H2133 C2109 0.949 . S
H2134 C2111 0.950 . S
H2135 C2113 0.950 . S
C2136 C2137 1.349 . S
C2136 C2138 1.327 . S
C2136 H2161 0.950 . S
C2137 C2136 1.349 . S
C2137 C2153 1.349 . S
C2138 C2136 1.327 . S
C2138 C2157 1.429 . S
C2138 H2162 0.950 . S
C2139 C2156 1.574 . S
C2139 C2158 1.368 . S
C2139 H2163 0.949 . S
H2140 C2144 0.949 . S
C2141 C2142 1.349 . S
C2141 C2143 1.327 . S
C2141 H2164 0.950 . S
C2142 C2141 1.349 . S
C2142 C2154 1.349 . S
C2143 C2141 1.327 . S
C2143 C2159 1.429 . S
C2143 H2165 0.950 . S
C2144 H2140 0.949 . S
C2144 C2152 1.574 . S
C2144 C2160 1.368 . S
H2145 C2153 0.950 . S
H2146 C2151 0.950 . S
H2147 C2152 0.949 . S
H2148 C2154 0.950 . S
H2149 C2155 0.950 . S
H2150 C2156 0.949 . S
C2151 H2146 0.950 . S
C2151 C2153 1.327 . S
C2151 C2157 1.429 . S
C2152 C2144 1.574 . S
C2152 H2147 0.949 . S
C2152 C2158 1.368 . S
C2153 C2137 1.349 . S
C2153 H2145 0.950 . S
C2153 C2151 1.327 . S
C2154 C2142 1.349 . S
C2154 H2148 0.950 . S
C2154 C2155 1.327 . S
C2155 H2149 0.950 . S
C2155 C2154 1.327 . S
C2155 C2159 1.429 . S
C2156 C2139 1.574 . S
C2156 H2150 0.949 . S
C2156 C2160 1.368 . S
C2157 C2138 1.429 . S
C2157 C2151 1.429 . S
C2157 C2158 1.523 . S
C2158 C2139 1.368 . S
C2158 C2152 1.368 . S
C2158 C2157 1.523 . S
C2159 C2143 1.429 . S
C2159 C2155 1.429 . S
C2159 C2160 1.523 . S
C2160 C2144 1.368 . S
C2160 C2156 1.368 . S
C2160 C2159 1.523 . S
H2161 C2136 0.950 . S
H2162 C2138 0.950 . S
H2163 C2139 0.949 . S
H2164 C2141 0.950 . S
H2165 C2143 0.950 . S
C2166 C2167 1.349 . S
C2166 C2168 1.327 . S
C2166 H2191 0.950 . S
C2167 C2166 1.349 . S
C2167 C2183 1.349 . S
C2168 C2166 1.327 . S
C2168 C2187 1.429 . S
C2168 H2192 0.950 . S
C2169 C2186 1.574 . S
C2169 C2188 1.368 . S
C2169 H2193 0.949 . S
H2170 C2174 0.949 . S
C2171 C2172 1.349 . S
C2171 C2173 1.327 . S
C2171 H2194 0.950 . S
C2172 C2171 1.349 . S
C2172 C2184 1.349 . S
C2173 C2171 1.327 . S
C2173 C2189 1.429 . S
C2173 H2195 0.950 . S
C2174 H2170 0.949 . S
C2174 C2182 1.574 . S
C2174 C2190 1.368 . S
H2175 C2183 0.950 . S
H2176 C2181 0.950 . S
H2177 C2182 0.949 . S
H2178 C2184 0.950 . S
H2179 C2185 0.950 . S
H2180 C2186 0.949 . S
C2181 H2176 0.950 . S
C2181 C2183 1.327 . S
C2181 C2187 1.429 . S
C2182 C2174 1.574 . S
C2182 H2177 0.949 . S
C2182 C2188 1.368 . S
C2183 C2167 1.349 . S
C2183 H2175 0.950 . S
C2183 C2181 1.327 . S
C2184 C2172 1.349 . S
C2184 H2178 0.950 . S
C2184 C2185 1.327 . S
C2185 H2179 0.950 . S
C2185 C2184 1.327 . S
C2185 C2189 1.429 . S
C2186 C2169 1.574 . S
C2186 H2180 0.949 . S
C2186 C2190 1.368 . S
C2187 C2168 1.429 . S
C2187 C2181 1.429 . S
C2187 C2188 1.523 . S
C2188 C2169 1.368 . S
C2188 C2182 1.368 . S
C2188 C2187 1.523 . S
C2189 C2173 1.429 . S
C2189 C2185 1.429 . S
C2189 C2190 1.523 . S
C2190 C2174 1.368 . S
C2190 C2186 1.368 . S
C2190 C2189 1.523 . S
H2191 C2166 0.950 . S
H2192 C2168 0.950 . S
H2193 C2169 0.949 . S
H2194 C2171 0.950 . S
H2195 C2173 0.950 . S
C2196 C2197 1.349 . S
C2196 C2198 1.327 . S
C2196 H2221 0.950 . S
C2197 C2196 1.349 . S
C2197 C2213 1.349 . S
C2198 C2196 1.327 . S
C2198 C2217 1.429 . S
C2198 H2222 0.950 . S
C2199 C2216 1.576 1_455 S
C2199 C2218 1.368 . S
C2199 H2223 0.949 . S
H2200 C2204 0.949 . S
C2201 C2202 1.349 . S
C2201 C2203 1.327 . S
C2201 H2224 0.950 . S
C2202 C2201 1.349 . S
C2202 C2214 1.349 . S
C2203 C2201 1.327 . S
C2203 C2219 1.429 . S
C2203 H2225 0.950 . S
C2204 H2200 0.949 . S
C2204 C2212 1.574 . S
C2204 C2220 1.368 . S
H2205 C2213 0.950 . S
H2206 C2211 0.950 . S
H2207 C2212 0.949 . S
H2208 C2214 0.950 . S
H2209 C2215 0.950 . S
H2210 C2216 0.949 1_455 S
C2211 H2206 0.950 . S
C2211 C2213 1.327 . S
C2211 C2217 1.429 . S
C2212 C2204 1.574 . S
C2212 H2207 0.949 . S
C2212 C2218 1.368 1_655 S
C2213 C2197 1.349 . S
C2213 H2205 0.950 . S
C2213 C2211 1.327 . S
C2214 C2202 1.349 . S
C2214 H2208 0.950 . S
C2214 C2215 1.327 . S
C2215 H2209 0.950 . S
C2215 C2214 1.327 . S
C2215 C2219 1.429 . S
C2216 C2199 1.576 1_655 S
C2216 H2210 0.949 1_655 S
C2216 C2220 1.365 . S
C2217 C2198 1.429 . S
C2217 C2211 1.429 . S
C2217 C2218 1.523 . S
C2218 C2199 1.368 . S
C2218 C2212 1.368 1_455 S
C2218 C2217 1.523 . S
C2219 C2203 1.429 . S
C2219 C2215 1.429 . S
C2219 C2220 1.523 . S
C2220 C2204 1.368 . S
C2220 C2216 1.365 . S
C2220 C2219 1.523 . S
H2221 C2196 0.950 . S
H2222 C2198 0.950 . S
H2223 C2199 0.949 . S
H2224 C2201 0.950 . S
H2225 C2203 0.950 . S
C2226 C2227 1.349 . S
C2226 C2228 1.327 . S
C2226 H2251 0.950 . S
C2227 C2226 1.349 . S
C2227 C2243 1.349 . S
C2228 C2226 1.327 . S
C2228 C2247 1.429 . S
C2228 H2252 0.950 . S
C2229 C2246 1.574 . S
C2229 C2248 1.362 1_554 S
C2229 H2253 0.949 . S
H2230 C2234 0.949 . S
C2231 C2232 1.349 . S
C2231 C2233 1.327 . S
C2231 H2254 0.950 . S
C2232 C2231 1.349 . S
C2232 C2244 1.349 . S
C2233 C2231 1.327 . S
C2233 C2249 1.429 . S
C2233 H2255 0.950 . S
C2234 H2230 0.949 . S
C2234 C2242 1.574 1_554 S
C2234 C2250 1.368 . S
H2235 C2243 0.950 . S
H2236 C2241 0.950 . S
H2237 C2242 0.949 . S
H2238 C2244 0.950 . S
H2239 C2245 0.950 . S
H2240 C2246 0.949 . S
C2241 H2236 0.950 . S
C2241 C2243 1.327 . S
C2241 C2247 1.429 . S
C2242 C2234 1.574 1_556 S
C2242 H2237 0.949 . S
C2242 C2248 1.369 . S
C2243 C2227 1.349 . S
C2243 H2235 0.950 . S
C2243 C2241 1.327 . S
C2244 C2232 1.349 . S
C2244 H2238 0.950 . S
C2244 C2245 1.327 . S
C2245 H2239 0.950 . S
C2245 C2244 1.327 . S
C2245 C2249 1.429 . S
C2246 C2229 1.574 . S
C2246 H2240 0.949 . S
C2246 C2250 1.368 . S
C2247 C2228 1.429 . S
C2247 C2241 1.429 . S
C2247 C2248 1.530 . S
C2248 C2229 1.362 1_556 S
C2248 C2242 1.369 . S
C2248 C2247 1.530 . S
C2249 C2233 1.429 . S
C2249 C2245 1.429 . S
C2249 C2250 1.523 . S
C2250 C2234 1.368 . S
C2250 C2246 1.368 . S
C2250 C2249 1.523 . S
H2251 C2226 0.950 . S
H2252 C2228 0.950 . S
H2253 C2229 0.949 . S
H2254 C2231 0.950 . S
H2255 C2233 0.950 . S
C2256 C2257 1.349 . S
C2256 C2258 1.327 . S
C2256 H2281 0.950 . S
C2257 C2256 1.349 . S
C2257 C2273 1.349 . S
C2258 C2256 1.327 . S
C2258 C2277 1.429 . S
C2258 H2282 0.950 . S
C2259 C2276 1.574 . S
C2259 C2278 1.368 . S
C2259 H2283 0.949 . S
H2260 C2264 0.949 . S
C2261 C2262 1.349 . S
C2261 C2263 1.327 . S
C2261 H2284 0.950 . S
C2262 C2261 1.349 . S
C2262 C2274 1.349 . S
C2263 C2261 1.327 . S
C2263 C2279 1.429 . S
C2263 H2285 0.950 . S
C2264 H2260 0.949 . S
C2264 C2272 1.574 . S
C2264 C2280 1.368 . S
H2265 C2273 0.950 . S
H2266 C2271 0.950 . S
H2267 C2272 0.949 . S
H2268 C2274 0.950 . S
H2269 C2275 0.950 . S
H2270 C2276 0.949 . S
C2271 H2266 0.950 . S
C2271 C2273 1.327 . S
C2271 C2277 1.429 . S
C2272 C2264 1.574 . S
C2272 H2267 0.949 . S
C2272 C2278 1.368 . S
C2273 C2257 1.349 . S
C2273 H2265 0.950 . S
C2273 C2271 1.327 . S
C2274 C2262 1.349 . S
C2274 H2268 0.950 . S
C2274 C2275 1.327 . S
C2275 H2269 0.950 . S
C2275 C2274 1.327 . S
C2275 C2279 1.429 . S
C2276 C2259 1.574 . S
C2276 H2270 0.949 . S
C2276 C2280 1.368 . S
C2277 C2258 1.429 . S
C2277 C2271 1.429 . S
C2277 C2278 1.523 . S
C2278 C2259 1.368 . S
C2278 C2272 1.368 . S
C2278 C2277 1.523 . S
C2279 C2263 1.429 . S
C2279 C2275 1.429 . S
C2279 C2280 1.523 . S
C2280 C2264 1.368 . S
C2280 C2276 1.368 . S
C2280 C2279 1.523 . S
H2281 C2256 0.950 . S
H2282 C2258 0.950 . S
H2283 C2259 0.949 . S
H2284 C2261 0.950 . S
H2285 C2263 0.950 . S
C2286 C2287 1.349 . S
C2286 C2288 1.327 . S
C2286 H2311 0.950 . S
C2287 C2286 1.349 . S
C2287 C2303 1.349 . S
C2288 C2286 1.327 . S
C2288 C2307 1.429 . S
C2288 H2312 0.950 . S
C2289 C2306 1.574 . S
C2289 C2308 1.368 . S
C2289 H2313 0.949 . S
H2290 C2294 0.949 . S
C2291 C2292 1.349 . S
C2291 C2293 1.327 . S
C2291 H2314 0.950 . S
C2292 C2291 1.349 . S
C2292 C2304 1.349 . S
C2293 C2291 1.327 . S
C2293 C2309 1.429 . S
C2293 H2315 0.950 . S
C2294 H2290 0.949 . S
C2294 C2302 1.574 . S
C2294 C2310 1.368 . S
H2295 C2303 0.950 . S
H2296 C2301 0.950 . S
H2297 C2302 0.949 . S
H2298 C2304 0.950 . S
H2299 C2305 0.950 . S
H2300 C2306 0.949 . S
C2301 H2296 0.950 . S
C2301 C2303 1.327 . S
C2301 C2307 1.429 . S
C2302 C2294 1.574 . S
C2302 H2297 0.949 . S
C2302 C2308 1.368 . S
C2303 C2287 1.349 . S
C2303 H2295 0.950 . S
C2303 C2301 1.327 . S
C2304 C2292 1.349 . S
C2304 H2298 0.950 . S
C2304 C2305 1.327 . S
C2305 H2299 0.950 . S
C2305 C2304 1.327 . S
C2305 C2309 1.429 . S
C2306 C2289 1.574 . S
C2306 H2300 0.949 . S
C2306 C2310 1.368 . S
C2307 C2288 1.429 . S
C2307 C2301 1.429 . S
C2307 C2308 1.523 . S
C2308 C2289 1.368 . S
C2308 C2302 1.368 . S
C2308 C2307 1.523 . S
C2309 C2293 1.429 . S
C2309 C2305 1.429 . S
C2309 C2310 1.523 . S
C2310 C2294 1.368 . S
C2310 C2306 1.368 . S
C2310 C2309 1.523 . S
H2311 C2286 0.950 . S
H2312 C2288 0.950 . S
H2313 C2289 0.949 . S
H2314 C2291 0.950 . S
H2315 C2293 0.950 . S
C2316 C2317 1.349 . S
C2316 C2318 1.327 . S
C2316 H2341 0.950 . S
C2317 C2316 1.349 . S
C2317 C2333 1.349 . S
C2318 C2316 1.327 . S
C2318 C2337 1.429 . S
C2318 H2342 0.950 . S
C2319 C2336 1.590 . S
C2319 C2338 1.355 1_455 S
C2319 H2343 0.943 1_455 S
H2320 C2324 0.949 . S
C2321 C2322 1.349 . S
C2321 C2323 1.327 . S
C2321 H2344 0.950 . S
C2322 C2321 1.349 . S
C2322 C2334 1.349 . S
C2323 C2321 1.327 . S
C2323 C2339 1.429 . S
C2323 H2345 0.950 . S
C2324 H2320 0.949 . S
C2324 C2332 1.574 1_455 S
C2324 C2340 1.368 . S
H2325 C2333 0.950 . S
H2326 C2331 0.950 . S
H2327 C2332 0.949 . S
H2328 C2334 0.950 . S
H2329 C2335 0.950 . S
H2330 C2336 0.949 . S
C2331 H2326 0.950 . S
C2331 C2333 1.327 . S
C2331 C2337 1.429 . S
C2332 C2324 1.574 1_655 S
C2332 H2327 0.949 . S
C2332 C2338 1.368 . S
C2333 C2317 1.349 . S
C2333 H2325 0.950 . S
C2333 C2331 1.327 . S
C2334 C2322 1.349 . S
C2334 H2328 0.950 . S
C2334 C2335 1.327 . S
C2335 H2329 0.950 . S
C2335 C2334 1.327 . S
C2335 C2339 1.429 . S
C2336 C2319 1.590 . S
C2336 H2330 0.949 . S
C2336 C2340 1.368 . S
C2337 C2318 1.429 . S
C2337 C2331 1.429 . S
C2337 C2338 1.523 . S
C2338 C2319 1.355 1_655 S
C2338 C2332 1.368 . S
C2338 C2337 1.523 . S
C2339 C2323 1.429 . S
C2339 C2335 1.429 . S
C2339 C2340 1.523 . S
C2340 C2324 1.368 . S
C2340 C2336 1.368 . S
C2340 C2339 1.523 . S
H2341 C2316 0.950 . S
H2342 C2318 0.950 . S
H2343 C2319 0.943 1_655 S
H2344 C2321 0.950 . S
H2345 C2323 0.950 . S
C2346 C2347 1.349 . S
C2346 C2348 1.327 . S
C2346 H2371 0.950 . S
C2347 C2346 1.349 . S
C2347 C2363 1.349 . S
C2348 C2346 1.327 . S
C2348 C2367 1.429 . S
C2348 H2372 0.950 . S
C2349 C2366 1.574 1_554 S
C2349 C2368 1.368 . S
C2349 H2373 0.949 . S
H2350 C2354 0.949 . S
C2351 C2352 1.349 . S
C2351 C2353 1.327 . S
C2351 H2374 0.950 . S
C2352 C2351 1.349 . S
C2352 C2364 1.349 . S
C2353 C2351 1.327 . S
C2353 C2369 1.429 . S
C2353 H2375 0.950 . S
C2354 H2350 0.949 . S
C2354 C2362 1.574 . S
C2354 C2370 1.390 . S
H2355 C2363 0.950 . S
H2356 C2361 0.950 . S
H2357 C2362 0.949 . S
H2358 C2364 0.950 . S
H2359 C2365 0.950 1_554 S
H2360 C2366 0.949 . S
C2361 H2356 0.950 . S
C2361 C2363 1.327 . S
C2361 C2367 1.429 . S
C2362 C2354 1.574 . S
C2362 H2357 0.949 . S
C2362 C2368 1.368 . S
C2363 C2347 1.349 . S
C2363 H2355 0.950 . S
C2363 C2361 1.327 . S
C2364 C2352 1.349 . S
C2364 H2358 0.950 . S
C2364 C2365 1.327 . S
C2365 H2359 0.950 1_556 S
C2365 C2364 1.327 . S
C2365 C2369 1.429 . S
C2366 C2349 1.574 1_556 S
C2366 H2360 0.949 . S
C2366 C2370 1.359 1_556 S
C2367 C2348 1.429 . S
C2367 C2361 1.429 . S
C2367 C2368 1.523 . S
C2368 C2349 1.368 . S
C2368 C2362 1.368 . S
C2368 C2367 1.523 . S
C2369 C2353 1.429 . S
C2369 C2365 1.429 . S
C2369 C2370 1.507 1_556 S
C2370 C2354 1.390 . S
C2370 C2366 1.359 1_554 S
C2370 C2369 1.507 1_554 S
H2371 C2346 0.950 . S
H2372 C2348 0.950 . S
H2373 C2349 0.949 . S
H2374 C2351 0.950 . S
H2375 C2353 0.950 . S
C2376 C2377 1.349 . S
C2376 C2378 1.327 . S
C2376 H2401 0.950 . S
C2377 C2376 1.349 . S
C2377 C2393 1.349 . S
C2378 C2376 1.327 . S
C2378 C2397 1.429 . S
C2378 H2402 0.950 . S
C2379 C2396 1.574 . S
C2379 C2398 1.368 . S
C2379 H2403 0.949 . S
H2380 C2384 0.949 . S
C2381 C2382 1.349 . S
C2381 C2383 1.327 . S
C2381 H2404 0.950 . S
C2382 C2381 1.349 . S
C2382 C2394 1.349 . S
C2383 C2381 1.327 . S
C2383 C2399 1.429 . S
C2383 H2405 0.950 . S
C2384 H2380 0.949 . S
C2384 C2392 1.574 . S
C2384 C2400 1.368 . S
H2385 C2393 0.950 . S
H2386 C2391 0.950 . S
H2387 C2392 0.949 . S
H2388 C2394 0.950 . S
H2389 C2395 0.950 . S
H2390 C2396 0.949 . S
C2391 H2386 0.950 . S
C2391 C2393 1.327 . S
C2391 C2397 1.429 . S
C2392 C2384 1.574 . S
C2392 H2387 0.949 . S
C2392 C2398 1.368 . S
C2393 C2377 1.349 . S
C2393 H2385 0.950 . S
C2393 C2391 1.327 . S
C2394 C2382 1.349 . S
C2394 H2388 0.950 . S
C2394 C2395 1.327 . S
C2395 H2389 0.950 . S
C2395 C2394 1.327 . S
C2395 C2399 1.429 . S
C2396 C2379 1.574 . S
C2396 H2390 0.949 . S
C2396 C2400 1.368 . S
C2397 C2378 1.429 . S
C2397 C2391 1.429 . S
C2397 C2398 1.523 . S
C2398 C2379 1.368 . S
C2398 C2392 1.368 . S
C2398 C2397 1.523 . S
C2399 C2383 1.429 . S
C2399 C2395 1.429 . S
C2399 C2400 1.523 . S
C2400 C2384 1.368 . S
C2400 C2396 1.368 . S
C2400 C2399 1.523 . S
H2401 C2376 0.950 . S
H2402 C2378 0.950 . S
H2403 C2379 0.949 . S
H2404 C2381 0.950 . S
H2405 C2383 0.950 . S
C2406 C2407 1.349 . S
C2406 C2408 1.327 . S
C2406 H2431 0.950 . S
C2407 C2406 1.349 . S
C2407 C2423 1.349 . S
C2408 C2406 1.327 . S
C2408 C2427 1.429 . S
C2408 H2432 0.950 . S
C2409 C2426 1.574 . S
C2409 C2428 1.368 . S
C2409 H2433 0.949 . S
H2410 C2414 0.949 . S
C2411 C2412 1.349 . S
C2411 C2413 1.327 . S
C2411 H2434 0.950 . S
C2412 C2411 1.349 . S
C2412 C2424 1.349 . S
C2413 C2411 1.327 . S
C2413 C2429 1.429 . S
C2413 H2435 0.950 . S
C2414 H2410 0.949 . S
C2414 C2422 1.574 . S
C2414 C2430 1.368 . S
H2415 C2423 0.950 . S
H2416 C2421 0.950 . S
H2417 C2422 0.949 . S
H2418 C2424 0.950 . S
H2419 C2425 0.950 . S
H2420 C2426 0.949 . S
C2421 H2416 0.950 . S
C2421 C2423 1.327 . S
C2421 C2427 1.429 . S
C2422 C2414 1.574 . S
C2422 H2417 0.949 . S
C2422 C2428 1.368 . S
C2423 C2407 1.349 . S
C2423 H2415 0.950 . S
C2423 C2421 1.327 . S
C2424 C2412 1.349 . S
C2424 H2418 0.950 . S
C2424 C2425 1.327 . S
C2425 H2419 0.950 . S
C2425 C2424 1.327 . S
C2425 C2429 1.429 . S
C2426 C2409 1.574 . S
C2426 H2420 0.949 . S
C2426 C2430 1.368 . S
C2427 C2408 1.429 . S
C2427 C2421 1.429 . S
C2427 C2428 1.523 . S
C2428 C2409 1.368 . S
C2428 C2422 1.368 . S
C2428 C2427 1.523 . S
C2429 C2413 1.429 . S
C2429 C2425 1.429 . S
C2429 C2430 1.523 . S
C2430 C2414 1.368 . S
C2430 C2426 1.368 . S
C2430 C2429 1.523 . S
H2431 C2406 0.950 . S
H2432 C2408 0.950 . S
H2433 C2409 0.949 . S
H2434 C2411 0.950 . S
H2435 C2413 0.950 . S
C2436 C2437 1.349 . S
C2436 C2438 1.327 . S
C2436 H2461 0.950 . S
C2437 C2436 1.349 . S
C2437 C2453 1.349 . S
C2438 C2436 1.327 . S
C2438 C2457 1.429 . S
C2438 H2462 0.950 . S
C2439 C2456 1.611 . S
C2439 C2458 1.368 . S
C2439 H2463 0.949 . S
H2440 C2444 0.949 . S
C2441 C2442 1.349 . S
C2441 C2443 1.327 . S
C2441 H2464 0.950 . S
C2442 C2441 1.349 . S
C2442 C2454 1.349 . S
C2443 C2441 1.327 . S
C2443 C2459 1.429 . S
C2443 H2465 0.950 . S
C2444 H2440 0.949 . S
C2444 C2452 1.574 1_655 S
C2444 C2460 1.368 . S
H2445 C2453 0.950 . S
H2446 C2451 0.950 . S
H2447 C2452 0.949 . S
H2448 C2454 0.950 . S
H2449 C2455 0.950 . S
H2450 C2456 0.945 1_655 S
C2451 H2446 0.950 . S
C2451 C2453 1.327 . S
C2451 C2457 1.429 . S
C2452 C2444 1.574 1_455 S
C2452 H2447 0.949 . S
C2452 C2458 1.368 . S
C2453 C2437 1.349 . S
C2453 H2445 0.950 . S
C2453 C2451 1.327 . S
C2454 C2442 1.349 . S
C2454 H2448 0.950 . S
C2454 C2455 1.327 . S
C2455 H2449 0.950 . S
C2455 C2454 1.327 . S
C2455 C2459 1.429 . S
C2456 C2439 1.611 . S
C2456 H2450 0.945 1_455 S
C2456 C2460 1.337 1_455 S
C2457 C2438 1.429 . S
C2457 C2451 1.429 . S
C2457 C2458 1.523 . S
C2458 C2439 1.368 . S
C2458 C2452 1.368 . S
C2458 C2457 1.523 . S
C2459 C2443 1.429 . S
C2459 C2455 1.429 . S
C2459 C2460 1.523 . S
C2460 C2444 1.368 . S
C2460 C2456 1.337 1_655 S
C2460 C2459 1.523 . S
H2461 C2436 0.950 . S
H2462 C2438 0.950 . S
H2463 C2439 0.949 . S
H2464 C2441 0.950 . S
H2465 C2443 0.950 . S
C2466 C2467 1.349 . S
C2466 C2468 1.327 1_556 S
C2466 H2491 0.950 . S
C2467 C2466 1.349 . S
C2467 C2483 1.349 . S
C2468 C2466 1.327 1_554 S
C2468 C2487 1.429 . S
C2468 H2492 0.950 . S
C2469 C2486 1.574 . S
C2469 C2488 1.368 . S
C2469 H2493 0.949 . S
H2470 C2474 0.949 . S
C2471 C2472 1.349 . S
C2471 C2473 1.327 . S
C2471 H2494 0.950 . S
C2472 C2471 1.349 . S
C2472 C2484 1.349 . S
C2473 C2471 1.327 . S
C2473 C2489 1.429 . S
C2473 H2495 0.950 . S
C2474 H2470 0.949 . S
C2474 C2482 1.574 . S
C2474 C2490 1.368 . S
H2475 C2483 0.950 . S
H2476 C2481 0.950 . S
H2477 C2482 0.949 . S
H2478 C2484 0.950 . S
H2479 C2485 0.950 . S
H2480 C2486 0.949 . S
C2481 H2476 0.950 . S
C2481 C2483 1.327 . S
C2481 C2487 1.429 1_556 S
C2482 C2474 1.574 . S
C2482 H2477 0.949 . S
C2482 C2488 1.368 . S
C2483 C2467 1.349 . S
C2483 H2475 0.950 . S
C2483 C2481 1.327 . S
C2484 C2472 1.349 . S
C2484 H2478 0.950 . S
C2484 C2485 1.327 . S
C2485 H2479 0.950 . S
C2485 C2484 1.327 . S
C2485 C2489 1.429 . S
C2486 C2469 1.574 . S
C2486 H2480 0.949 . S
C2486 C2490 1.368 . S
C2487 C2468 1.429 . S
C2487 C2481 1.429 1_554 S
C2487 C2488 1.523 . S
C2488 C2469 1.368 . S
C2488 C2482 1.368 . S
C2488 C2487 1.523 . S
C2489 C2473 1.429 . S
C2489 C2485 1.429 . S
C2489 C2490 1.523 . S
C2490 C2474 1.368 . S
C2490 C2486 1.368 . S
C2490 C2489 1.523 . S
H2491 C2466 0.950 . S
H2492 C2468 0.950 . S
H2493 C2469 0.949 . S
H2494 C2471 0.950 . S
H2495 C2473 0.950 . S
C2496 C2497 1.349 . S
C2496 C2498 1.327 . S
C2496 H2521 0.950 . S
C2497 C2496 1.349 . S
C2497 C2513 1.349 . S
C2498 C2496 1.327 . S
C2498 C2517 1.429 . S
C2498 H2522 0.950 . S
C2499 C2516 1.574 . S
C2499 C2518 1.368 . S
C2499 H2523 0.949 . S
H2500 C2504 0.949 . S
C2501 C2502 1.349 . S
C2501 C2503 1.327 . S
C2501 H2524 0.950 . S
C2502 C2501 1.349 . S
C2502 C2514 1.349 . S
C2503 C2501 1.327 . S
C2503 C2519 1.429 . S
C2503 H2525 0.950 . S
C2504 H2500 0.949 . S
C2504 C2512 1.574 . S
C2504 C2520 1.368 . S
H2505 C2513 0.950 . S
H2506 C2511 0.950 . S
H2507 C2512 0.949 . S
H2508 C2514 0.950 . S
H2509 C2515 0.950 . S
H2510 C2516 0.949 . S
C2511 H2506 0.950 . S
C2511 C2513 1.327 . S
C2511 C2517 1.429 . S
C2512 C2504 1.574 . S
C2512 H2507 0.949 . S
C2512 C2518 1.368 1_565 S
C2513 C2497 1.349 . S
C2513 H2505 0.950 . S
C2513 C2511 1.327 . S
C2514 C2502 1.349 . S
C2514 H2508 0.950 . S
C2514 C2515 1.327 . S
C2515 H2509 0.950 . S
C2515 C2514 1.327 . S
C2515 C2519 1.429 . S
C2516 C2499 1.574 . S
C2516 H2510 0.949 . S
C2516 C2520 1.368 1_545 S
C2517 C2498 1.429 . S
C2517 C2511 1.429 . S
C2517 C2518 1.523 . S
C2518 C2499 1.368 . S
C2518 C2512 1.368 1_545 S
C2518 C2517 1.523 . S
C2519 C2503 1.429 . S
C2519 C2515 1.429 . S
C2519 C2520 1.523 . S
C2520 C2504 1.368 . S
C2520 C2516 1.368 1_565 S
C2520 C2519 1.523 . S
H2521 C2496 0.950 . S
H2522 C2498 0.950 . S
H2523 C2499 0.949 . S
H2524 C2501 0.950 . S
H2525 C2503 0.950 . S
C2526 C2527 1.349 . S
C2526 C2528 1.327 . S
C2526 H2551 0.950 . S
C2527 C2526 1.349 . S
C2527 C2543 1.349 . S
C2528 C2526 1.327 . S
C2528 C2547 1.429 . S
C2528 H2552 0.950 . S
C2529 C2546 1.574 . S
C2529 C2548 1.368 . S
C2529 H2553 0.949 . S
H2530 C2534 0.949 . S
C2531 C2532 1.349 . S
C2531 C2533 1.327 . S
C2531 H2554 0.950 . S
C2532 C2531 1.349 . S
C2532 C2544 1.349 . S
C2533 C2531 1.327 . S
C2533 C2549 1.429 . S
C2533 H2555 0.950 . S
C2534 H2530 0.949 . S
C2534 C2542 1.574 . S
C2534 C2550 1.368 . S
H2535 C2543 0.950 . S
H2536 C2541 0.950 . S
H2537 C2542 0.949 . S
H2538 C2544 0.950 . S
H2539 C2545 0.950 . S
H2540 C2546 0.949 . S
C2541 H2536 0.950 . S
C2541 C2543 1.327 . S
C2541 C2547 1.429 . S
C2542 C2534 1.574 . S
C2542 H2537 0.949 . S
C2542 C2548 1.368 . S
C2543 C2527 1.349 . S
C2543 H2535 0.950 . S
C2543 C2541 1.327 . S
C2544 C2532 1.349 . S
C2544 H2538 0.950 . S
C2544 C2545 1.327 . S
C2545 H2539 0.950 . S
C2545 C2544 1.327 . S
C2545 C2549 1.429 . S
C2546 C2529 1.574 . S
C2546 H2540 0.949 . S
C2546 C2550 1.368 . S
C2547 C2528 1.429 . S
C2547 C2541 1.429 . S
C2547 C2548 1.523 . S
C2548 C2529 1.368 . S
C2548 C2542 1.368 . S
C2548 C2547 1.523 . S
C2549 C2533 1.429 . S
C2549 C2545 1.429 . S
C2549 C2550 1.523 . S
C2550 C2534 1.368 . S
C2550 C2546 1.368 . S
C2550 C2549 1.523 . S
H2551 C2526 0.950 . S
H2552 C2528 0.950 . S
H2553 C2529 0.949 . S
H2554 C2531 0.950 . S
H2555 C2533 0.950 . S
C2556 C2557 1.349 . S
C2556 C2558 1.327 . S
C2556 H2581 0.950 . S
C2557 C2556 1.349 . S
C2557 C2573 1.349 . S
C2558 C2556 1.327 . S
C2558 C2577 1.429 . S
C2558 H2582 0.950 . S
C2559 C2576 1.574 1_545 S
C2559 C2578 1.368 . S
C2559 H2583 0.949 . S
H2560 C2564 0.949 . S
C2561 C2562 1.349 . S
C2561 C2563 1.327 . S
C2561 H2584 0.950 . S
C2562 C2561 1.349 . S
C2562 C2574 1.349 . S
C2563 C2561 1.327 . S
C2563 C2579 1.429 . S
C2563 H2585 0.950 . S
C2564 H2560 0.949 . S
C2564 C2572 1.574 1_565 S
C2564 C2580 1.368 . S
H2565 C2573 0.950 . S
H2566 C2571 0.950 . S
H2567 C2572 0.949 . S
H2568 C2574 0.950 . S
H2569 C2575 0.950 . S
H2570 C2576 0.949 . S
C2571 H2566 0.950 . S
C2571 C2573 1.327 . S
C2571 C2577 1.429 . S
C2572 C2564 1.574 1_545 S
C2572 H2567 0.949 . S
C2572 C2578 1.368 . S
C2573 C2557 1.349 . S
C2573 H2565 0.950 . S
C2573 C2571 1.327 . S
C2574 C2562 1.349 . S
C2574 H2568 0.950 . S
C2574 C2575 1.327 . S
C2575 H2569 0.950 . S
C2575 C2574 1.327 . S
C2575 C2579 1.429 . S
C2576 C2559 1.574 1_565 S
C2576 H2570 0.949 . S
C2576 C2580 1.368 . S
C2577 C2558 1.429 . S
C2577 C2571 1.429 . S
C2577 C2578 1.523 . S
C2578 C2559 1.368 . S
C2578 C2572 1.368 . S
C2578 C2577 1.523 . S
C2579 C2563 1.429 . S
C2579 C2575 1.429 . S
C2579 C2580 1.523 . S
C2580 C2564 1.368 . S
C2580 C2576 1.368 . S
C2580 C2579 1.523 . S
H2581 C2556 0.950 . S
H2582 C2558 0.950 . S
H2583 C2559 0.949 . S
H2584 C2561 0.950 . S
H2585 C2563 0.950 . S
C2586 C2587 1.349 . S
C2586 C2588 1.327 . S
C2586 H2611 0.950 . S
C2587 C2586 1.349 . S
C2587 C2603 1.349 . S
C2588 C2586 1.327 . S
C2588 C2607 1.429 . S
C2588 H2612 0.950 . S
C2589 C2606 1.574 . S
C2589 C2608 1.368 . S
C2589 H2613 0.949 1_554 S
H2590 C2594 0.949 . S
C2591 C2592 1.349 . S
C2591 C2593 1.327 . S
C2591 H2614 0.950 . S
C2592 C2591 1.349 . S
C2592 C2604 1.349 . S
C2593 C2591 1.327 . S
C2593 C2609 1.429 . S
C2593 H2615 0.950 . S
C2594 H2590 0.949 . S
C2594 C2602 1.574 . S
C2594 C2610 1.368 . S
H2595 C2603 0.950 . S
H2596 C2601 0.950 . S
H2597 C2602 0.949 . S
H2598 C2604 0.950 . S
H2599 C2605 0.950 . S
H2600 C2606 0.949 . S
C2601 H2596 0.950 . S
C2601 C2603 1.327 . S
C2601 C2607 1.429 . S
C2602 C2594 1.574 . S
C2602 H2597 0.949 . S
C2602 C2608 1.368 . S
C2603 C2587 1.349 . S
C2603 H2595 0.950 . S
C2603 C2601 1.327 . S
C2604 C2592 1.349 . S
C2604 H2598 0.950 . S
C2604 C2605 1.327 . S
C2605 H2599 0.950 . S
C2605 C2604 1.327 . S
C2605 C2609 1.429 . S
C2606 C2589 1.574 . S
C2606 H2600 0.949 . S
C2606 C2610 1.368 . S
C2607 C2588 1.429 . S
C2607 C2601 1.429 . S
C2607 C2608 1.523 1_556 S
C2608 C2589 1.368 . S
C2608 C2602 1.368 . S
C2608 C2607 1.523 1_554 S
C2609 C2593 1.429 . S
C2609 C2605 1.429 . S
C2609 C2610 1.523 . S
C2610 C2594 1.368 . S
C2610 C2606 1.368 . S
C2610 C2609 1.523 . S
H2611 C2586 0.950 . S
H2612 C2588 0.950 . S
H2613 C2589 0.949 1_556 S
H2614 C2591 0.950 . S
H2615 C2593 0.950 . S
C2616 C2617 1.349 . S
C2616 C2618 1.327 . S
C2616 H2641 0.950 . S
C2617 C2616 1.349 . S
C2617 C2633 1.349 . S
C2618 C2616 1.327 . S
C2618 C2637 1.429 . S
C2618 H2642 0.950 . S
C2619 C2636 1.517 1_565 S
C2619 C2638 1.420 . S
C2619 H2643 0.958 . S
H2620 C2624 0.958 . S
C2621 C2622 1.349 . S
C2621 C2623 1.327 . S
C2621 H2644 0.950 . S
C2622 C2621 1.349 . S
C2622 C2634 1.349 . S
C2623 C2621 1.327 . S
C2623 C2639 1.429 . S
C2623 H2645 0.950 . S
C2624 H2620 0.958 . S
C2624 C2632 1.518 1_545 S
C2624 C2640 1.419 . S
H2625 C2633 0.950 . S
H2626 C2631 0.950 . S
H2627 C2632 0.949 . S
H2628 C2634 0.950 . S
H2629 C2635 0.950 . S
H2630 C2636 0.949 . S
C2631 H2626 0.950 . S
C2631 C2633 1.327 . S
C2631 C2637 1.429 . S
C2632 C2624 1.518 1_565 S
C2632 H2627 0.949 . S
C2632 C2638 1.368 . S
C2633 C2617 1.349 . S
C2633 H2625 0.950 . S
C2633 C2631 1.327 . S
C2634 C2622 1.349 . S
C2634 H2628 0.950 . S
C2634 C2635 1.327 . S
C2635 H2629 0.950 . S
C2635 C2634 1.327 . S
C2635 C2639 1.429 . S
C2636 C2619 1.517 1_545 S
C2636 H2630 0.949 . S
C2636 C2640 1.368 . S
C2637 C2618 1.429 . S
C2637 C2631 1.429 . S
C2637 C2638 1.523 . S
C2638 C2619 1.420 . S
C2638 C2632 1.368 . S
C2638 C2637 1.523 . S
C2639 C2623 1.429 . S
C2639 C2635 1.429 . S
C2639 C2640 1.523 . S
C2640 C2624 1.419 . S
C2640 C2636 1.368 . S
C2640 C2639 1.523 . S
H2641 C2616 0.950 . S
H2642 C2618 0.950 . S
H2643 C2619 0.958 . S
H2644 C2621 0.950 . S
H2645 C2623 0.950 . S
C2646 C2647 1.349 . S
C2646 C2648 1.327 . S
C2646 H2671 0.950 . S
C2647 C2646 1.349 . S
C2647 C2663 1.349 . S
C2648 C2646 1.327 . S
C2648 C2667 1.429 . S
C2648 H2672 0.950 . S
C2649 C2666 1.574 . S
C2649 C2668 1.368 . S
C2649 H2673 0.949 . S
H2650 C2654 0.949 . S
C2651 C2652 1.349 . S
C2651 C2653 1.327 . S
C2651 H2674 0.950 . S
C2652 C2651 1.349 . S
C2652 C2664 1.349 . S
C2653 C2651 1.327 . S
C2653 C2669 1.429 . S
C2653 H2675 0.950 . S
C2654 H2650 0.949 . S
C2654 C2662 1.574 . S
C2654 C2670 1.368 . S
H2655 C2663 0.950 . S
H2656 C2661 0.950 . S
H2657 C2662 0.949 . S
H2658 C2664 0.950 . S
H2659 C2665 0.950 . S
H2660 C2666 0.949 . S
C2661 H2656 0.950 . S
C2661 C2663 1.327 . S
C2661 C2667 1.429 . S
C2662 C2654 1.574 . S
C2662 H2657 0.949 . S
C2662 C2668 1.368 . S
C2663 C2647 1.349 . S
C2663 H2655 0.950 . S
C2663 C2661 1.327 . S
C2664 C2652 1.349 . S
C2664 H2658 0.950 . S
C2664 C2665 1.327 . S
C2665 H2659 0.950 . S
C2665 C2664 1.327 . S
C2665 C2669 1.429 . S
C2666 C2649 1.574 . S
C2666 H2660 0.949 . S
C2666 C2670 1.368 . S
C2667 C2648 1.429 . S
C2667 C2661 1.429 . S
C2667 C2668 1.523 . S
C2668 C2649 1.368 . S
C2668 C2662 1.368 . S
C2668 C2667 1.523 . S
C2669 C2653 1.429 . S
C2669 C2665 1.429 . S
C2669 C2670 1.523 . S
C2670 C2654 1.368 . S
C2670 C2666 1.368 . S
C2670 C2669 1.523 . S
H2671 C2646 0.950 . S
H2672 C2648 0.950 . S
H2673 C2649 0.949 . S
H2674 C2651 0.950 . S
H2675 C2653 0.950 . S
C2676 C2677 1.349 . S
C2676 C2678 1.327 . S
C2676 H2701 0.950 . S
C2677 C2676 1.349 . S
C2677 C2693 1.349 . S
C2678 C2676 1.327 . S
C2678 C2697 1.429 . S
C2678 H2702 0.950 . S
C2679 C2696 1.574 . S
C2679 C2698 1.368 . S
C2679 H2703 0.949 . S
H2680 C2684 0.949 . S
C2681 C2682 1.349 . S
C2681 C2683 1.327 . S
C2681 H2704 0.950 . S
C2682 C2681 1.349 . S
C2682 C2694 1.349 . S
C2683 C2681 1.327 . S
C2683 C2699 1.429 . S
C2683 H2705 0.950 . S
C2684 H2680 0.949 . S
C2684 C2692 1.574 . S
C2684 C2700 1.368 . S
H2685 C2693 0.950 . S
H2686 C2691 0.950 . S
H2687 C2692 0.949 . S
H2688 C2694 0.950 . S
H2689 C2695 0.950 . S
H2690 C2696 0.949 . S
C2691 H2686 0.950 . S
C2691 C2693 1.327 . S
C2691 C2697 1.429 . S
C2692 C2684 1.574 . S
C2692 H2687 0.949 . S
C2692 C2698 1.368 1_545 S
C2693 C2677 1.349 . S
C2693 H2685 0.950 . S
C2693 C2691 1.327 . S
C2694 C2682 1.349 . S
C2694 H2688 0.950 . S
C2694 C2695 1.327 . S
C2695 H2689 0.950 . S
C2695 C2694 1.327 . S
C2695 C2699 1.429 . S
C2696 C2679 1.574 . S
C2696 H2690 0.949 . S
C2696 C2700 1.368 1_565 S
C2697 C2678 1.429 . S
C2697 C2691 1.429 . S
C2697 C2698 1.523 . S
C2698 C2679 1.368 . S
C2698 C2692 1.368 1_565 S
C2698 C2697 1.523 . S
C2699 C2683 1.429 . S
C2699 C2695 1.429 . S
C2699 C2700 1.523 . S
C2700 C2684 1.368 . S
C2700 C2696 1.368 1_545 S
C2700 C2699 1.523 . S
H2701 C2676 0.950 . S
H2702 C2678 0.950 . S
H2703 C2679 0.949 . S
H2704 C2681 0.950 . S
H2705 C2683 0.950 . S
C2706 C2707 1.349 . S
C2706 C2708 1.327 . S
C2706 H2731 0.950 . S
C2707 C2706 1.349 . S
C2707 C2723 1.349 . S
C2708 C2706 1.327 . S
C2708 C2727 1.429 . S
C2708 H2732 0.950 . S
C2709 C2726 1.574 . S
C2709 C2728 1.368 . S
C2709 H2733 0.949 . S
H2710 C2714 0.949 . S
C2711 C2712 1.349 . S
C2711 C2713 1.327 . S
C2711 H2734 0.950 . S
C2712 C2711 1.349 . S
C2712 C2724 1.349 . S
C2713 C2711 1.327 . S
C2713 C2729 1.429 . S
C2713 H2735 0.950 . S
C2714 H2710 0.949 . S
C2714 C2722 1.574 . S
C2714 C2730 1.368 . S
H2715 C2723 0.950 . S
H2716 C2721 0.950 . S
H2717 C2722 0.949 . S
H2718 C2724 0.950 . S
H2719 C2725 0.950 1_554 S
H2720 C2726 0.949 1_556 S
C2721 H2716 0.950 . S
C2721 C2723 1.327 . S
C2721 C2727 1.429 . S
C2722 C2714 1.574 . S
C2722 H2717 0.949 . S
C2722 C2728 1.368 . S
C2723 C2707 1.349 . S
C2723 H2715 0.950 . S
C2723 C2721 1.327 . S
C2724 C2712 1.349 . S
C2724 H2718 0.950 . S
C2724 C2725 1.327 . S
C2725 H2719 0.950 1_556 S
C2725 C2724 1.327 . S
C2725 C2729 1.429 . S
C2726 C2709 1.574 . S
C2726 H2720 0.949 1_554 S
C2726 C2730 1.368 . S
C2727 C2708 1.429 . S
C2727 C2721 1.429 . S
C2727 C2728 1.523 . S
C2728 C2709 1.368 . S
C2728 C2722 1.368 . S
C2728 C2727 1.523 . S
C2729 C2713 1.429 . S
C2729 C2725 1.429 . S
C2729 C2730 1.523 1_556 S
C2730 C2714 1.368 . S
C2730 C2726 1.368 . S
C2730 C2729 1.523 1_554 S
H2731 C2706 0.950 . S
H2732 C2708 0.950 . S
H2733 C2709 0.949 . S
H2734 C2711 0.950 . S
H2735 C2713 0.950 . S
C2736 C2737 1.349 . S
C2736 C2738 1.327 . S
C2736 H2761 0.950 . S
C2737 C2736 1.349 . S
C2737 C2753 1.349 . S
C2738 C2736 1.327 . S
C2738 C2757 1.429 . S
C2738 H2762 0.950 . S
C2739 C2756 1.574 . S
C2739 C2758 1.368 . S
C2739 H2763 0.949 . S
H2740 C2744 0.949 . S
C2741 C2742 1.349 . S
C2741 C2743 1.327 . S
C2741 H2764 0.950 . S
C2742 C2741 1.349 . S
C2742 C2754 1.349 . S
C2743 C2741 1.327 . S
C2743 C2759 1.429 . S
C2743 H2765 0.950 . S
C2744 H2740 0.949 . S
C2744 C2752 1.574 . S
C2744 C2760 1.368 . S
H2745 C2753 0.950 . S
H2746 C2751 0.950 . S
H2747 C2752 0.949 . S
H2748 C2754 0.950 . S
H2749 C2755 0.950 . S
H2750 C2756 0.949 . S
C2751 H2746 0.950 . S
C2751 C2753 1.327 . S
C2751 C2757 1.429 . S
C2752 C2744 1.574 . S
C2752 H2747 0.949 . S
C2752 C2758 1.368 . S
C2753 C2737 1.349 . S
C2753 H2745 0.950 . S
C2753 C2751 1.327 . S
C2754 C2742 1.349 . S
C2754 H2748 0.950 . S
C2754 C2755 1.327 . S
C2755 H2749 0.950 . S
C2755 C2754 1.327 . S
C2755 C2759 1.429 . S
C2756 C2739 1.574 . S
C2756 H2750 0.949 . S
C2756 C2760 1.368 . S
C2757 C2738 1.429 . S
C2757 C2751 1.429 . S
C2757 C2758 1.523 . S
C2758 C2739 1.368 . S
C2758 C2752 1.368 . S
C2758 C2757 1.523 . S
C2759 C2743 1.429 . S
C2759 C2755 1.429 . S
C2759 C2760 1.523 . S
C2760 C2744 1.368 . S
C2760 C2756 1.368 . S
C2760 C2759 1.523 . S
H2761 C2736 0.950 . S
H2762 C2738 0.950 . S
H2763 C2739 0.949 . S
H2764 C2741 0.950 . S
H2765 C2743 0.950 . S
C2766 C2767 1.349 . S
C2766 C2768 1.327 . S
C2766 H2791 0.950 . S
C2767 C2766 1.349 . S
C2767 C2783 1.349 . S
C2768 C2766 1.327 . S
C2768 C2787 1.429 . S
C2768 H2792 0.950 . S
C2769 C2786 1.574 . S
C2769 C2788 1.368 . S
C2769 H2793 0.949 1_554 S
H2770 C2774 0.949 . S
C2771 C2772 1.349 . S
C2771 C2773 1.327 . S
C2771 H2794 0.950 . S
C2772 C2771 1.349 . S
C2772 C2784 1.349 . S
C2773 C2771 1.327 . S
C2773 C2789 1.429 . S
C2773 H2795 0.950 . S
C2774 H2770 0.949 . S
C2774 C2782 1.574 . S
C2774 C2790 1.368 . S
H2775 C2783 0.950 . S
H2776 C2781 0.950 . S
H2777 C2782 0.949 . S
H2778 C2784 0.950 . S
H2779 C2785 0.950 . S
H2780 C2786 0.949 . S
C2781 H2776 0.950 . S
C2781 C2783 1.327 . S
C2781 C2787 1.429 . S
C2782 C2774 1.574 . S
C2782 H2777 0.949 . S
C2782 C2788 1.368 . S
C2783 C2767 1.349 . S
C2783 H2775 0.950 . S
C2783 C2781 1.327 . S
C2784 C2772 1.349 . S
C2784 H2778 0.950 . S
C2784 C2785 1.327 . S
C2785 H2779 0.950 . S
C2785 C2784 1.327 . S
C2785 C2789 1.429 . S
C2786 C2769 1.574 . S
C2786 H2780 0.949 . S
C2786 C2790 1.368 . S
C2787 C2768 1.429 . S
C2787 C2781 1.429 . S
C2787 C2788 1.523 1_556 S
C2788 C2769 1.368 . S
C2788 C2782 1.368 . S
C2788 C2787 1.523 1_554 S
C2789 C2773 1.429 . S
C2789 C2785 1.429 . S
C2789 C2790 1.523 . S
C2790 C2774 1.368 . S
C2790 C2786 1.368 . S
C2790 C2789 1.523 . S
H2791 C2766 0.950 . S
H2792 C2768 0.950 . S
H2793 C2769 0.949 1_556 S
H2794 C2771 0.950 . S
H2795 C2773 0.950 . S
C2796 C2797 1.349 . S
C2796 C2798 1.327 . S
C2796 H2821 0.950 . S
C2797 C2796 1.349 . S
C2797 C2813 1.349 . S
C2798 C2796 1.327 . S
C2798 C2817 1.429 . S
C2798 H2822 0.950 . S
C2799 C2816 1.574 . S
C2799 C2818 1.368 . S
C2799 H2823 0.949 . S
H2800 C2804 0.949 . S
C2801 C2802 1.349 . S
C2801 C2803 1.327 . S
C2801 H2824 0.950 . S
C2802 C2801 1.349 . S
C2802 C2814 1.349 . S
C2803 C2801 1.327 . S
C2803 C2819 1.429 . S
C2803 H2825 0.950 . S
C2804 H2800 0.949 . S
C2804 C2812 1.574 . S
C2804 C2820 1.368 . S
H2805 C2813 0.950 . S
H2806 C2811 0.950 . S
H2807 C2812 0.949 . S
H2808 C2814 0.950 . S
H2809 C2815 0.950 . S
H2810 C2816 0.949 . S
C2811 H2806 0.950 . S
C2811 C2813 1.327 . S
C2811 C2817 1.429 . S
C2812 C2804 1.574 . S
C2812 H2807 0.949 . S
C2812 C2818 1.368 . S
C2813 C2797 1.349 . S
C2813 H2805 0.950 . S
C2813 C2811 1.327 . S
C2814 C2802 1.349 . S
C2814 H2808 0.950 . S
C2814 C2815 1.327 . S
C2815 H2809 0.950 . S
C2815 C2814 1.327 . S
C2815 C2819 1.429 . S
C2816 C2799 1.574 . S
C2816 H2810 0.949 . S
C2816 C2820 1.368 . S
C2817 C2798 1.429 . S
C2817 C2811 1.429 . S
C2817 C2818 1.523 . S
C2818 C2799 1.368 . S
C2818 C2812 1.368 . S
C2818 C2817 1.523 . S
C2819 C2803 1.429 . S
C2819 C2815 1.429 . S
C2819 C2820 1.523 . S
C2820 C2804 1.368 . S
C2820 C2816 1.368 . S
C2820 C2819 1.523 . S
H2821 C2796 0.950 . S
H2822 C2798 0.950 . S
H2823 C2799 0.949 . S
H2824 C2801 0.950 . S
H2825 C2803 0.950 . S
C2826 C2827 1.349 . S
C2826 C2828 1.327 . S
C2826 H2851 0.950 . S
C2827 C2826 1.349 . S
C2827 C2843 1.349 . S
C2828 C2826 1.327 . S
C2828 C2847 1.429 . S
C2828 H2852 0.950 . S
C2829 C2846 1.574 . S
C2829 C2848 1.368 . S
C2829 H2853 0.949 . S
H2830 C2834 0.949 . S
C2831 C2832 1.349 . S
C2831 C2833 1.327 . S
C2831 H2854 0.950 . S
C2832 C2831 1.349 . S
C2832 C2844 1.349 . S
C2833 C2831 1.327 . S
C2833 C2849 1.429 . S
C2833 H2855 0.950 . S
C2834 H2830 0.949 . S
C2834 C2842 1.574 . S
C2834 C2850 1.368 . S
H2835 C2843 0.950 . S
H2836 C2841 0.950 . S
H2837 C2842 0.949 . S
H2838 C2844 0.950 . S
H2839 C2845 0.950 . S
H2840 C2846 0.949 . S
C2841 H2836 0.950 . S
C2841 C2843 1.327 . S
C2841 C2847 1.429 . S
C2842 C2834 1.574 . S
C2842 H2837 0.949 . S
C2842 C2848 1.368 . S
C2843 C2827 1.349 . S
C2843 H2835 0.950 . S
C2843 C2841 1.327 . S
C2844 C2832 1.349 . S
C2844 H2838 0.950 . S
C2844 C2845 1.327 . S
C2845 H2839 0.950 . S
C2845 C2844 1.327 . S
C2845 C2849 1.429 . S
C2846 C2829 1.574 . S
C2846 H2840 0.949 . S
C2846 C2850 1.368 . S
C2847 C2828 1.429 . S
C2847 C2841 1.429 . S
C2847 C2848 1.523 . S
C2848 C2829 1.368 . S
C2848 C2842 1.368 . S
C2848 C2847 1.523 . S
C2849 C2833 1.429 . S
C2849 C2845 1.429 . S
C2849 C2850 1.523 . S
C2850 C2834 1.368 . S
C2850 C2846 1.368 . S
C2850 C2849 1.523 . S
H2851 C2826 0.950 . S
H2852 C2828 0.950 . S
H2853 C2829 0.949 . S
H2854 C2831 0.950 . S
H2855 C2833 0.950 . S
C2856 C2857 1.349 . S
C2856 C2858 1.327 . S
C2856 H2881 0.950 . S
C2857 C2856 1.349 . S
C2857 C2873 1.349 . S
C2858 C2856 1.327 . S
C2858 C2877 1.429 . S
C2858 H2882 0.950 . S
C2859 C2876 1.574 . S
C2859 C2878 1.368 . S
C2859 H2883 0.949 . S
H2860 C2864 0.949 . S
C2861 C2862 1.349 . S
C2861 C2863 1.327 . S
C2861 H2884 0.950 . S
C2862 C2861 1.349 . S
C2862 C2874 1.349 . S
C2863 C2861 1.327 . S
C2863 C2879 1.429 . S
C2863 H2885 0.950 . S
C2864 H2860 0.949 . S
C2864 C2872 1.574 . S
C2864 C2880 1.368 . S
H2865 C2873 0.950 . S
H2866 C2871 0.950 . S
H2867 C2872 0.949 . S
H2868 C2874 0.950 . S
H2869 C2875 0.950 . S
H2870 C2876 0.949 . S
C2871 H2866 0.950 . S
C2871 C2873 1.327 . S
C2871 C2877 1.429 . S
C2872 C2864 1.574 . S
C2872 H2867 0.949 . S
C2872 C2878 1.368 . S
C2873 C2857 1.349 . S
C2873 H2865 0.950 . S
C2873 C2871 1.327 . S
C2874 C2862 1.349 . S
C2874 H2868 0.950 . S
C2874 C2875 1.327 . S
C2875 H2869 0.950 . S
C2875 C2874 1.327 . S
C2875 C2879 1.429 . S
C2876 C2859 1.574 . S
C2876 H2870 0.949 . S
C2876 C2880 1.368 . S
C2877 C2858 1.429 . S
C2877 C2871 1.429 . S
C2877 C2878 1.523 . S
C2878 C2859 1.368 . S
C2878 C2872 1.368 . S
C2878 C2877 1.523 . S
C2879 C2863 1.429 . S
C2879 C2875 1.429 . S
C2879 C2880 1.523 . S
C2880 C2864 1.368 . S
C2880 C2876 1.368 . S
C2880 C2879 1.523 . S
H2881 C2856 0.950 . S
H2882 C2858 0.950 . S
H2883 C2859 0.949 . S
H2884 C2861 0.950 . S
H2885 C2863 0.950 . S
C2886 C2887 1.349 . S
C2886 C2888 1.327 . S
C2886 H2911 0.950 . S
C2887 C2886 1.349 . S
C2887 C2903 1.349 . S
C2888 C2886 1.327 . S
C2888 C2907 1.429 . S
C2888 H2912 0.950 . S
C2889 C2906 1.574 . S
C2889 C2908 1.368 . S
C2889 H2913 0.949 . S
H2890 C2894 0.949 1_556 S
C2891 C2892 1.349 . S
C2891 C2893 1.327 . S
C2891 H2914 0.950 . S
C2892 C2891 1.349 . S
C2892 C2904 1.349 . S
C2893 C2891 1.327 . S
C2893 C2909 1.429 . S
C2893 H2915 0.950 1_556 S
C2894 H2890 0.949 1_554 S
C2894 C2902 1.574 . S
C2894 C2910 1.368 . S
H2895 C2903 0.950 . S
H2896 C2901 0.950 . S
H2897 C2902 0.949 . S
H2898 C2904 0.950 . S
H2899 C2905 0.950 . S
H2900 C2906 0.949 . S
C2901 H2896 0.950 . S
C2901 C2903 1.327 . S
C2901 C2907 1.429 . S
C2902 C2894 1.574 . S
C2902 H2897 0.949 . S
C2902 C2908 1.368 . S
C2903 C2887 1.349 . S
C2903 H2895 0.950 . S
C2903 C2901 1.327 . S
C2904 C2892 1.349 . S
C2904 H2898 0.950 . S
C2904 C2905 1.327 . S
C2905 H2899 0.950 . S
C2905 C2904 1.327 . S
C2905 C2909 1.429 . S
C2906 C2889 1.574 . S
C2906 H2900 0.949 . S
C2906 C2910 1.368 . S
C2907 C2888 1.429 . S
C2907 C2901 1.429 . S
C2907 C2908 1.523 . S
C2908 C2889 1.368 . S
C2908 C2902 1.368 . S
C2908 C2907 1.523 . S
C2909 C2893 1.429 . S
C2909 C2905 1.429 . S
C2909 C2910 1.523 1_556 S
C2910 C2894 1.368 . S
C2910 C2906 1.368 . S
C2910 C2909 1.523 1_554 S
H2911 C2886 0.950 . S
H2912 C2888 0.950 . S
H2913 C2889 0.949 . S
H2914 C2891 0.950 . S
H2915 C2893 0.950 1_554 S
C2916 C2917 1.349 . S
C2916 C2918 1.327 . S
C2916 H2941 0.950 . S
C2917 C2916 1.349 . S
C2917 C2933 1.349 . S
C2918 C2916 1.327 . S
C2918 C2937 1.429 . S
C2918 H2942 0.950 . S
C2919 C2936 1.574 . S
C2919 C2938 1.368 . S
C2919 H2943 0.949 . S
H2920 C2924 0.949 . S
C2921 C2922 1.349 . S
C2921 C2923 1.327 . S
C2921 H2944 0.950 . S
C2922 C2921 1.349 . S
C2922 C2934 1.349 . S
C2923 C2921 1.327 . S
C2923 C2939 1.429 . S
C2923 H2945 0.950 . S
C2924 H2920 0.949 . S
C2924 C2932 1.574 . S
C2924 C2940 1.368 . S
H2925 C2933 0.950 . S
H2926 C2931 0.950 . S
H2927 C2932 0.949 . S
H2928 C2934 0.950 . S
H2929 C2935 0.950 . S
H2930 C2936 0.949 . S
C2931 H2926 0.950 . S
C2931 C2933 1.327 . S
C2931 C2937 1.429 . S
C2932 C2924 1.574 . S
C2932 H2927 0.949 . S
C2932 C2938 1.368 . S
C2933 C2917 1.349 . S
C2933 H2925 0.950 . S
C2933 C2931 1.327 . S
C2934 C2922 1.349 . S
C2934 H2928 0.950 . S
C2934 C2935 1.327 . S
C2935 H2929 0.950 . S
C2935 C2934 1.327 . S
C2935 C2939 1.429 . S
C2936 C2919 1.574 . S
C2936 H2930 0.949 . S
C2936 C2940 1.368 . S
C2937 C2918 1.429 . S
C2937 C2931 1.429 . S
C2937 C2938 1.523 . S
C2938 C2919 1.368 . S
C2938 C2932 1.368 . S
C2938 C2937 1.523 . S
C2939 C2923 1.429 . S
C2939 C2935 1.429 . S
C2939 C2940 1.523 . S
C2940 C2924 1.368 . S
C2940 C2936 1.368 . S
C2940 C2939 1.523 . S
H2941 C2916 0.950 . S
H2942 C2918 0.950 . S
H2943 C2919 0.949 . S
H2944 C2921 0.950 . S
H2945 C2923 0.950 . S
C2946 C2947 1.349 . S
C2946 C2948 1.327 . S
C2946 H2971 0.950 . S
C2947 C2946 1.349 . S
C2947 C2963 1.349 . S
C2948 C2946 1.327 . S
C2948 C2967 1.429 . S
C2948 H2972 0.950 . S
C2949 C2966 1.574 . S
C2949 C2968 1.368 . S
C2949 H2973 0.949 . S
H2950 C2954 0.949 . S
C2951 C2952 1.349 . S
C2951 C2953 1.327 . S
C2951 H2974 0.950 . S
C2952 C2951 1.349 . S
C2952 C2964 1.349 . S
C2953 C2951 1.327 . S
C2953 C2969 1.429 . S
C2953 H2975 0.950 . S
C2954 H2950 0.949 . S
C2954 C2962 1.574 . S
C2954 C2970 1.368 . S
H2955 C2963 0.950 . S
H2956 C2961 0.950 . S
H2957 C2962 0.949 . S
H2958 C2964 0.950 . S
H2959 C2965 0.950 . S
H2960 C2966 0.949 . S
C2961 H2956 0.950 . S
C2961 C2963 1.327 . S
C2961 C2967 1.429 . S
C2962 C2954 1.574 . S
C2962 H2957 0.949 . S
C2962 C2968 1.368 . S
C2963 C2947 1.349 . S
C2963 H2955 0.950 . S
C2963 C2961 1.327 . S
C2964 C2952 1.349 . S
C2964 H2958 0.950 . S
C2964 C2965 1.327 . S
C2965 H2959 0.950 . S
C2965 C2964 1.327 . S
C2965 C2969 1.429 . S
C2966 C2949 1.574 . S
C2966 H2960 0.949 . S
C2966 C2970 1.368 . S
C2967 C2948 1.429 . S
C2967 C2961 1.429 . S
C2967 C2968 1.523 . S
C2968 C2949 1.368 . S
C2968 C2962 1.368 . S
C2968 C2967 1.523 . S
C2969 C2953 1.429 . S
C2969 C2965 1.429 . S
C2969 C2970 1.523 . S
C2970 C2954 1.368 . S
C2970 C2966 1.368 . S
C2970 C2969 1.523 . S
H2971 C2946 0.950 . S
H2972 C2948 0.950 . S
H2973 C2949 0.949 . S
H2974 C2951 0.950 . S
H2975 C2953 0.950 . S
C2976 C2977 1.349 . S
C2976 C2978 1.327 . S
C2976 H3001 0.950 . S
C2977 C2976 1.349 . S
C2977 C2993 1.349 . S
C2978 C2976 1.327 . S
C2978 C2997 1.429 . S
C2978 H3002 0.950 . S
C2979 C2996 1.574 . S
C2979 C2998 1.368 . S
C2979 H3003 0.949 . S
H2980 C2984 0.949 . S
C2981 C2982 1.349 . S
C2981 C2983 1.327 . S
C2981 H3004 0.950 . S
C2982 C2981 1.349 . S
C2982 C2994 1.349 . S
C2983 C2981 1.327 . S
C2983 C2999 1.429 . S
C2983 H3005 0.950 . S
C2984 H2980 0.949 . S
C2984 C2992 1.574 . S
C2984 C3000 1.368 . S
H2985 C2993 0.950 . S
H2986 C2991 0.950 . S
H2987 C2992 0.949 . S
H2988 C2994 0.950 . S
H2989 C2995 0.950 . S
H2990 C2996 0.949 . S
C2991 H2986 0.950 . S
C2991 C2993 1.327 . S
C2991 C2997 1.429 . S
C2992 C2984 1.574 . S
C2992 H2987 0.949 . S
C2992 C2998 1.368 . S
C2993 C2977 1.349 . S
C2993 H2985 0.950 . S
C2993 C2991 1.327 . S
C2994 C2982 1.349 . S
C2994 H2988 0.950 . S
C2994 C2995 1.327 . S
C2995 H2989 0.950 . S
C2995 C2994 1.327 . S
C2995 C2999 1.429 . S
C2996 C2979 1.574 . S
C2996 H2990 0.949 . S
C2996 C3000 1.368 . S
C2997 C2978 1.429 . S
C2997 C2991 1.429 . S
C2997 C2998 1.523 . S
C2998 C2979 1.368 . S
C2998 C2992 1.368 . S
C2998 C2997 1.523 . S
C2999 C2983 1.429 . S
C2999 C2995 1.429 . S
C2999 C3000 1.523 . S
C3000 C2984 1.368 . S
C3000 C2996 1.368 . S
C3000 C2999 1.523 . S
H3001 C2976 0.950 . S
H3002 C2978 0.950 . S
H3003 C2979 0.949 . S
H3004 C2981 0.950 . S
H3005 C2983 0.950 . S
C3006 C3007 1.349 . S
C3006 C3008 1.327 . S
C3006 H3031 0.950 . S
C3007 C3006 1.349 . S
C3007 C3023 1.349 . S
C3008 C3006 1.327 . S
C3008 C3027 1.429 . S
C3008 H3032 0.950 . S
C3009 C3026 1.574 . S
C3009 C3028 1.368 . S
C3009 H3033 0.949 . S
H3010 C3014 0.949 . S
C3011 C3012 1.349 . S
C3011 C3013 1.327 . S
C3011 H3034 0.950 . S
C3012 C3011 1.349 . S
C3012 C3024 1.349 . S
C3013 C3011 1.327 . S
C3013 C3029 1.429 . S
C3013 H3035 0.950 . S
C3014 H3010 0.949 . S
C3014 C3022 1.574 . S
C3014 C3030 1.368 . S
H3015 C3023 0.950 . S
H3016 C3021 0.950 . S
H3017 C3022 0.949 . S
H3018 C3024 0.950 . S
H3019 C3025 0.950 . S
H3020 C3026 0.949 . S
C3021 H3016 0.950 . S
C3021 C3023 1.327 . S
C3021 C3027 1.429 . S
C3022 C3014 1.574 . S
C3022 H3017 0.949 . S
C3022 C3028 1.368 . S
C3023 C3007 1.349 . S
C3023 H3015 0.950 . S
C3023 C3021 1.327 . S
C3024 C3012 1.349 . S
C3024 H3018 0.950 . S
C3024 C3025 1.327 . S
C3025 H3019 0.950 . S
C3025 C3024 1.327 . S
C3025 C3029 1.429 . S
C3026 C3009 1.574 . S
C3026 H3020 0.949 . S
C3026 C3030 1.368 . S
C3027 C3008 1.429 . S
C3027 C3021 1.429 . S
C3027 C3028 1.523 . S
C3028 C3009 1.368 . S
C3028 C3022 1.368 . S
C3028 C3027 1.523 . S
C3029 C3013 1.429 . S
C3029 C3025 1.429 . S
C3029 C3030 1.523 . S
C3030 C3014 1.368 . S
C3030 C3026 1.368 . S
C3030 C3029 1.523 . S
H3031 C3006 0.950 . S
H3032 C3008 0.950 . S
H3033 C3009 0.949 . S
H3034 C3011 0.950 . S
H3035 C3013 0.950 . S
C3036 C3037 1.349 . S
C3036 C3038 1.327 . S
C3036 H3061 0.950 . S
C3037 C3036 1.349 . S
C3037 C3053 1.349 . S
C3038 C3036 1.327 . S
C3038 C3057 1.429 . S
C3038 H3062 0.950 . S
C3039 C3056 1.574 . S
C3039 C3058 1.368 . S
C3039 H3063 0.949 . S
H3040 C3044 0.949 . S
C3041 C3042 1.349 . S
C3041 C3043 1.327 . S
C3041 H3064 0.950 . S
C3042 C3041 1.349 . S
C3042 C3054 1.349 . S
C3043 C3041 1.327 . S
C3043 C3059 1.429 . S
C3043 H3065 0.950 . S
C3044 H3040 0.949 . S
C3044 C3052 1.574 . S
C3044 C3060 1.368 . S
H3045 C3053 0.950 . S
H3046 C3051 0.950 . S
H3047 C3052 0.949 . S
H3048 C3054 0.950 . S
H3049 C3055 0.950 . S
H3050 C3056 0.949 . S
C3051 H3046 0.950 . S
C3051 C3053 1.327 . S
C3051 C3057 1.429 . S
C3052 C3044 1.574 . S
C3052 H3047 0.949 . S
C3052 C3058 1.368 . S
C3053 C3037 1.349 . S
C3053 H3045 0.950 . S
C3053 C3051 1.327 . S
C3054 C3042 1.349 . S
C3054 H3048 0.950 . S
C3054 C3055 1.327 . S
C3055 H3049 0.950 . S
C3055 C3054 1.327 . S
C3055 C3059 1.429 . S
C3056 C3039 1.574 . S
C3056 H3050 0.949 . S
C3056 C3060 1.368 . S
C3057 C3038 1.429 . S
C3057 C3051 1.429 . S
C3057 C3058 1.523 . S
C3058 C3039 1.368 . S
C3058 C3052 1.368 . S
C3058 C3057 1.523 . S
C3059 C3043 1.429 . S
C3059 C3055 1.429 . S
C3059 C3060 1.523 . S
C3060 C3044 1.368 . S
C3060 C3056 1.368 . S
C3060 C3059 1.523 . S
H3061 C3036 0.950 . S
H3062 C3038 0.950 . S
H3063 C3039 0.949 . S
H3064 C3041 0.950 . S
H3065 C3043 0.950 . S
C3066 C3067 1.349 . S
C3066 C3068 1.327 1_554 S
C3066 H3091 0.950 . S
C3067 C3066 1.349 . S
C3067 C3083 1.349 1_554 S
C3068 C3066 1.327 1_556 S
C3068 C3087 1.429 . S
C3068 H3092 0.950 . S
C3069 C3086 1.574 . S
C3069 C3088 1.368 . S
C3069 H3093 0.949 . S
H3070 C3074 0.949 . S
C3071 C3072 1.349 . S
C3071 C3073 1.327 . S
C3071 H3094 0.950 . S
C3072 C3071 1.349 . S
C3072 C3084 1.349 . S
C3073 C3071 1.327 . S
C3073 C3089 1.429 . S
C3073 H3095 0.950 . S
C3074 H3070 0.949 . S
C3074 C3082 1.574 . S
C3074 C3090 1.368 . S
H3075 C3083 0.950 . S
H3076 C3081 0.950 . S
H3077 C3082 0.949 . S
H3078 C3084 0.950 . S
H3079 C3085 0.950 . S
H3080 C3086 0.949 . S
C3081 H3076 0.950 . S
C3081 C3083 1.327 . S
C3081 C3087 1.429 . S
C3082 C3074 1.574 . S
C3082 H3077 0.949 . S
C3082 C3088 1.368 . S
C3083 C3067 1.349 1_556 S
C3083 H3075 0.950 . S
C3083 C3081 1.327 . S
C3084 C3072 1.349 . S
C3084 H3078 0.950 . S
C3084 C3085 1.327 . S
C3085 H3079 0.950 . S
C3085 C3084 1.327 . S
C3085 C3089 1.429 . S
C3086 C3069 1.574 . S
C3086 H3080 0.949 . S
C3086 C3090 1.368 . S
C3087 C3068 1.429 . S
C3087 C3081 1.429 . S
C3087 C3088 1.523 . S
C3088 C3069 1.368 . S
C3088 C3082 1.368 . S
C3088 C3087 1.523 . S
C3089 C3073 1.429 . S
C3089 C3085 1.429 . S
C3089 C3090 1.523 . S
C3090 C3074 1.368 . S
C3090 C3086 1.368 . S
C3090 C3089 1.523 . S
H3091 C3066 0.950 . S
H3092 C3068 0.950 . S
H3093 C3069 0.949 . S
H3094 C3071 0.950 . S
H3095 C3073 0.950 . S
C3096 C3097 1.349 1_556 S
C3096 C3098 1.327 . S
C3096 H3121 0.950 . S
C3097 C3096 1.349 1_554 S
C3097 C3113 1.349 . S
C3098 C3096 1.327 . S
C3098 C3117 1.429 . S
C3098 H3122 0.950 . S
C3099 C3116 1.574 . S
C3099 C3118 1.368 . S
C3099 H3123 0.945 1_556 S
H3100 C3104 0.949 . S
C3101 C3102 1.349 . S
C3101 C3103 1.327 . S
C3101 H3124 0.950 . S
C3102 C3101 1.349 . S
C3102 C3114 1.349 . S
C3103 C3101 1.327 . S
C3103 C3119 1.429 . S
C3103 H3125 0.950 . S
C3104 H3100 0.949 . S
C3104 C3112 1.574 . S
C3104 C3120 1.368 . S
H3105 C3113 0.950 . S
H3106 C3111 0.950 . S
H3107 C3112 0.949 . S
H3108 C3114 0.950 . S
H3109 C3115 0.950 . S
H3110 C3116 0.949 . S
C3111 H3106 0.950 . S
C3111 C3113 1.327 . S
C3111 C3117 1.429 1_554 S
C3112 C3104 1.574 . S
C3112 H3107 0.949 . S
C3112 C3118 1.368 . S
C3113 C3097 1.349 . S
C3113 H3105 0.950 . S
C3113 C3111 1.327 . S
C3114 C3102 1.349 . S
C3114 H3108 0.950 . S
C3114 C3115 1.327 . S
C3115 H3109 0.950 . S
C3115 C3114 1.327 . S
C3115 C3119 1.429 . S
C3116 C3099 1.574 . S
C3116 H3110 0.949 . S
C3116 C3120 1.368 . S
C3117 C3098 1.429 . S
C3117 C3111 1.429 1_556 S
C3117 C3118 1.523 . S
C3118 C3099 1.368 . S
C3118 C3112 1.368 . S
C3118 C3117 1.523 . S
C3119 C3103 1.429 . S
C3119 C3115 1.429 . S
C3119 C3120 1.523 . S
C3120 C3104 1.368 . S
C3120 C3116 1.368 . S
C3120 C3119 1.523 . S
H3121 C3096 0.950 . S
H3122 C3098 0.950 . S
H3123 C3099 0.945 1_554 S
H3124 C3101 0.950 . S
H3125 C3103 0.950 . S
C3126 C3127 1.349 . S
C3126 C3128 1.327 . S
C3126 H3151 0.950 . S
C3127 C3126 1.349 . S
C3127 C3143 1.349 . S
C3128 C3126 1.327 . S
C3128 C3147 1.429 . S
C3128 H3152 0.950 . S
C3129 C3146 1.574 . S
C3129 C3148 1.368 . S
C3129 H3153 0.949 . S
H3130 C3134 0.949 . S
C3131 C3132 1.349 . S
C3131 C3133 1.327 . S
C3131 H3154 0.950 . S
C3132 C3131 1.349 . S
C3132 C3144 1.349 . S
C3133 C3131 1.327 . S
C3133 C3149 1.429 . S
C3133 H3155 0.950 . S
C3134 H3130 0.949 . S
C3134 C3142 1.574 . S
C3134 C3150 1.368 . S
H3135 C3143 0.950 . S
H3136 C3141 0.950 . S
H3137 C3142 0.949 . S
H3138 C3144 0.950 . S
H3139 C3145 0.950 . S
H3140 C3146 0.949 . S
C3141 H3136 0.950 . S
C3141 C3143 1.327 . S
C3141 C3147 1.429 . S
C3142 C3134 1.574 . S
C3142 H3137 0.949 . S
C3142 C3148 1.368 . S
C3143 C3127 1.349 . S
C3143 H3135 0.950 . S
C3143 C3141 1.327 . S
C3144 C3132 1.349 . S
C3144 H3138 0.950 . S
C3144 C3145 1.327 . S
C3145 H3139 0.950 . S
C3145 C3144 1.327 . S
C3145 C3149 1.429 . S
C3146 C3129 1.574 . S
C3146 H3140 0.949 . S
C3146 C3150 1.368 . S
C3147 C3128 1.429 . S
C3147 C3141 1.429 . S
C3147 C3148 1.523 . S
C3148 C3129 1.368 . S
C3148 C3142 1.368 . S
C3148 C3147 1.523 . S
C3149 C3133 1.429 . S
C3149 C3145 1.429 . S
C3149 C3150 1.523 . S
C3150 C3134 1.368 . S
C3150 C3146 1.368 . S
C3150 C3149 1.523 . S
H3151 C3126 0.950 . S
H3152 C3128 0.950 . S
H3153 C3129 0.949 . S
H3154 C3131 0.950 . S
H3155 C3133 0.950 . S
C3156 C3157 1.349 . S
C3156 C3158 1.327 . S
C3156 H3181 0.950 . S
C3157 C3156 1.349 . S
C3157 C3173 1.349 . S
C3158 C3156 1.327 . S
C3158 C3177 1.429 . S
C3158 H3182 0.950 . S
C3159 C3176 1.574 . S
C3159 C3178 1.368 . S
C3159 H3183 0.949 . S
H3160 C3164 0.949 . S
C3161 C3162 1.349 . S
C3161 C3163 1.327 . S
C3161 H3184 0.950 . S
C3162 C3161 1.349 . S
C3162 C3174 1.349 . S
C3163 C3161 1.327 . S
C3163 C3179 1.429 . S
C3163 H3185 0.950 . S
C3164 H3160 0.949 . S
C3164 C3172 1.574 . S
C3164 C3180 1.368 . S
H3165 C3173 0.950 . S
H3166 C3171 0.950 . S
H3167 C3172 0.949 . S
H3168 C3174 0.950 . S
H3169 C3175 0.950 . S
H3170 C3176 0.949 . S
C3171 H3166 0.950 . S
C3171 C3173 1.327 . S
C3171 C3177 1.429 . S
C3172 C3164 1.574 . S
C3172 H3167 0.949 . S
C3172 C3178 1.368 . S
C3173 C3157 1.349 . S
C3173 H3165 0.950 . S
C3173 C3171 1.327 . S
C3174 C3162 1.349 . S
C3174 H3168 0.950 . S
C3174 C3175 1.327 . S
C3175 H3169 0.950 . S
C3175 C3174 1.327 . S
C3175 C3179 1.429 . S
C3176 C3159 1.574 . S
C3176 H3170 0.949 . S
C3176 C3180 1.368 . S
C3177 C3158 1.429 . S
C3177 C3171 1.429 . S
C3177 C3178 1.523 . S
C3178 C3159 1.368 . S
C3178 C3172 1.368 . S
C3178 C3177 1.523 . S
C3179 C3163 1.429 . S
C3179 C3175 1.429 . S
C3179 C3180 1.523 . S
C3180 C3164 1.368 . S
C3180 C3176 1.368 . S
C3180 C3179 1.523 . S
H3181 C3156 0.950 . S
H3182 C3158 0.950 . S
H3183 C3159 0.949 . S
H3184 C3161 0.950 . S
H3185 C3163 0.950 . S
C3186 C3187 1.349 . S
C3186 C3188 1.327 . S
C3186 H3211 0.950 . S
C3187 C3186 1.349 . S
C3187 C3203 1.349 . S
C3188 C3186 1.327 . S
C3188 C3207 1.429 . S
C3188 H3212 0.950 . S
C3189 C3206 1.574 . S
C3189 C3208 1.368 . S
C3189 H3213 0.949 . S
H3190 C3194 0.949 . S
C3191 C3192 1.349 . S
C3191 C3193 1.327 . S
C3191 H3214 0.950 . S
C3192 C3191 1.349 . S
C3192 C3204 1.349 . S
C3193 C3191 1.327 . S
C3193 C3209 1.429 . S
C3193 H3215 0.950 . S
C3194 H3190 0.949 . S
C3194 C3202 1.574 . S
C3194 C3210 1.368 . S
H3195 C3203 0.950 . S
H3196 C3201 0.950 . S
H3197 C3202 0.949 . S
H3198 C3204 0.950 . S
H3199 C3205 0.950 . S
H3200 C3206 0.949 . S
C3201 H3196 0.950 . S
C3201 C3203 1.327 . S
C3201 C3207 1.429 . S
C3202 C3194 1.574 . S
C3202 H3197 0.949 . S
C3202 C3208 1.368 . S
C3203 C3187 1.349 . S
C3203 H3195 0.950 . S
C3203 C3201 1.327 . S
C3204 C3192 1.349 . S
C3204 H3198 0.950 . S
C3204 C3205 1.327 . S
C3205 H3199 0.950 . S
C3205 C3204 1.327 . S
C3205 C3209 1.429 . S
C3206 C3189 1.574 . S
C3206 H3200 0.949 . S
C3206 C3210 1.368 . S
C3207 C3188 1.429 . S
C3207 C3201 1.429 . S
C3207 C3208 1.523 . S
C3208 C3189 1.368 . S
C3208 C3202 1.368 . S
C3208 C3207 1.523 . S
C3209 C3193 1.429 . S
C3209 C3205 1.429 . S
C3209 C3210 1.523 . S
C3210 C3194 1.368 . S
C3210 C3206 1.368 . S
C3210 C3209 1.523 . S
H3211 C3186 0.950 . S
H3212 C3188 0.950 . S
H3213 C3189 0.949 . S
H3214 C3191 0.950 . S
H3215 C3193 0.950 . S
C3216 C3217 1.349 . S
C3216 C3218 1.327 . S
C3216 H3241 0.950 . S
C3217 C3216 1.349 . S
C3217 C3233 1.349 . S
C3218 C3216 1.327 . S
C3218 C3237 1.429 . S
C3218 H3242 0.950 . S
C3219 C3236 1.574 . S
C3219 C3238 1.368 . S
C3219 H3243 0.949 . S
H3220 C3224 0.949 . S
C3221 C3222 1.349 . S
C3221 C3223 1.327 . S
C3221 H3244 0.950 . S
C3222 C3221 1.349 . S
C3222 C3234 1.349 . S
C3223 C3221 1.327 . S
C3223 C3239 1.429 . S
C3223 H3245 0.950 . S
C3224 H3220 0.949 . S
C3224 C3232 1.574 . S
C3224 C3240 1.368 . S
H3225 C3233 0.950 . S
H3226 C3231 0.950 . S
H3227 C3232 0.949 . S
H3228 C3234 0.950 . S
H3229 C3235 0.950 . S
H3230 C3236 0.949 . S
C3231 H3226 0.950 . S
C3231 C3233 1.327 . S
C3231 C3237 1.429 . S
C3232 C3224 1.574 . S
C3232 H3227 0.949 . S
C3232 C3238 1.368 . S
C3233 C3217 1.349 . S
C3233 H3225 0.950 . S
C3233 C3231 1.327 . S
C3234 C3222 1.349 . S
C3234 H3228 0.950 . S
C3234 C3235 1.327 . S
C3235 H3229 0.950 . S
C3235 C3234 1.327 . S
C3235 C3239 1.429 . S
C3236 C3219 1.574 . S
C3236 H3230 0.949 . S
C3236 C3240 1.368 . S
C3237 C3218 1.429 . S
C3237 C3231 1.429 . S
C3237 C3238 1.523 . S
C3238 C3219 1.368 . S
C3238 C3232 1.368 . S
C3238 C3237 1.523 . S
C3239 C3223 1.429 . S
C3239 C3235 1.429 . S
C3239 C3240 1.523 . S
C3240 C3224 1.368 . S
C3240 C3236 1.368 . S
C3240 C3239 1.523 . S
H3241 C3216 0.950 . S
H3242 C3218 0.950 . S
H3243 C3219 0.949 . S
H3244 C3221 0.950 . S
H3245 C3223 0.950 . S
C3246 C3247 1.349 . S
C3246 C3248 1.327 . S
C3246 H3271 0.950 . S
C3247 C3246 1.349 . S
C3247 C3263 1.349 . S
C3248 C3246 1.327 . S
C3248 C3267 1.429 . S
C3248 H3272 0.950 . S
C3249 C3266 1.574 . S
C3249 C3268 1.368 . S
C3249 H3273 0.949 . S
H3250 C3254 0.949 . S
C3251 C3252 1.349 . S
C3251 C3253 1.327 . S
C3251 H3274 0.950 . S
C3252 C3251 1.349 . S
C3252 C3264 1.349 1_554 S
C3253 C3251 1.327 . S
C3253 C3269 1.429 1_554 S
C3253 H3275 0.950 . S
C3254 H3250 0.949 . S
C3254 C3262 1.574 . S
C3254 C3270 1.368 . S
H3255 C3263 0.950 . S
H3256 C3261 0.950 . S
H3257 C3262 0.949 . S
H3258 C3264 0.950 . S
H3259 C3265 0.950 . S
H3260 C3266 0.949 1_554 S
C3261 H3256 0.950 . S
C3261 C3263 1.327 . S
C3261 C3267 1.429 . S
C3262 C3254 1.574 . S
C3262 H3257 0.949 . S
C3262 C3268 1.368 . S
C3263 C3247 1.349 . S
C3263 H3255 0.950 . S
C3263 C3261 1.327 . S
C3264 C3252 1.349 1_556 S
C3264 H3258 0.950 . S
C3264 C3265 1.327 . S
C3265 H3259 0.950 . S
C3265 C3264 1.327 . S
C3265 C3269 1.429 . S
C3266 C3249 1.574 . S
C3266 H3260 0.949 1_556 S
C3266 C3270 1.368 . S
C3267 C3248 1.429 . S
C3267 C3261 1.429 . S
C3267 C3268 1.523 . S
C3268 C3249 1.368 . S
C3268 C3262 1.368 . S
C3268 C3267 1.523 . S
C3269 C3253 1.429 1_556 S
C3269 C3265 1.429 . S
C3269 C3270 1.523 . S
C3270 C3254 1.368 . S
C3270 C3266 1.368 . S
C3270 C3269 1.523 . S
H3271 C3246 0.950 . S
H3272 C3248 0.950 . S
H3273 C3249 0.949 . S
H3274 C3251 0.950 . S
H3275 C3253 0.950 . S
C3276 C3277 1.349 . S
C3276 C3278 1.327 . S
C3276 H3301 0.950 . S
C3277 C3276 1.349 . S
C3277 C3293 1.349 . S
C3278 C3276 1.327 . S
C3278 C3297 1.429 . S
C3278 H3302 0.950 . S
C3279 C3296 1.574 . S
C3279 C3298 1.368 . S
C3279 H3303 0.949 . S
H3280 C3284 0.949 . S
C3281 C3282 1.349 . S
C3281 C3283 1.327 . S
C3281 H3304 0.950 . S
C3282 C3281 1.349 . S
C3282 C3294 1.349 . S
C3283 C3281 1.327 . S
C3283 C3299 1.429 . S
C3283 H3305 0.950 . S
C3284 H3280 0.949 . S
C3284 C3292 1.574 . S
C3284 C3300 1.368 . S
H3285 C3293 0.950 . S
H3286 C3291 0.950 . S
H3287 C3292 0.949 . S
H3288 C3294 0.950 . S
H3289 C3295 0.950 . S
H3290 C3296 0.949 . S
C3291 H3286 0.950 . S
C3291 C3293 1.327 . S
C3291 C3297 1.429 . S
C3292 C3284 1.574 . S
C3292 H3287 0.949 . S
C3292 C3298 1.368 . S
C3293 C3277 1.349 . S
C3293 H3285 0.950 . S
C3293 C3291 1.327 . S
C3294 C3282 1.349 . S
C3294 H3288 0.950 . S
C3294 C3295 1.327 . S
C3295 H3289 0.950 . S
C3295 C3294 1.327 . S
C3295 C3299 1.429 . S
C3296 C3279 1.574 . S
C3296 H3290 0.949 . S
C3296 C3300 1.368 . S
C3297 C3278 1.429 . S
C3297 C3291 1.429 . S
C3297 C3298 1.523 . S
C3298 C3279 1.368 . S
C3298 C3292 1.368 . S
C3298 C3297 1.523 . S
C3299 C3283 1.429 . S
C3299 C3295 1.429 . S
C3299 C3300 1.523 . S
C3300 C3284 1.368 . S
C3300 C3296 1.368 . S
C3300 C3299 1.523 . S
H3301 C3276 0.950 . S
H3302 C3278 0.950 . S
H3303 C3279 0.949 . S
H3304 C3281 0.950 . S
H3305 C3283 0.950 . S
C3306 C3307 1.349 . S
C3306 C3308 1.327 . S
C3306 H3331 0.950 . S
C3307 C3306 1.349 . S
C3307 C3323 1.349 . S
C3308 C3306 1.327 . S
C3308 C3327 1.429 . S
C3308 H3332 0.950 . S
C3309 C3326 1.574 . S
C3309 C3328 1.368 . S
C3309 H3333 0.949 . S
H3310 C3314 0.949 . S
C3311 C3312 1.349 . S
C3311 C3313 1.327 . S
C3311 H3334 0.950 . S
C3312 C3311 1.349 . S
C3312 C3324 1.349 . S
C3313 C3311 1.327 . S
C3313 C3329 1.429 . S
C3313 H3335 0.950 . S
C3314 H3310 0.949 . S
C3314 C3322 1.574 . S
C3314 C3330 1.368 . S
H3315 C3323 0.950 . S
H3316 C3321 0.950 . S
H3317 C3322 0.949 . S
H3318 C3324 0.950 . S
H3319 C3325 0.950 . S
H3320 C3326 0.949 . S
C3321 H3316 0.950 . S
C3321 C3323 1.327 . S
C3321 C3327 1.429 . S
C3322 C3314 1.574 . S
C3322 H3317 0.949 . S
C3322 C3328 1.368 . S
C3323 C3307 1.349 . S
C3323 H3315 0.950 . S
C3323 C3321 1.327 . S
C3324 C3312 1.349 . S
C3324 H3318 0.950 . S
C3324 C3325 1.327 . S
C3325 H3319 0.950 . S
C3325 C3324 1.327 . S
C3325 C3329 1.429 . S
C3326 C3309 1.574 . S
C3326 H3320 0.949 . S
C3326 C3330 1.368 . S
C3327 C3308 1.429 . S
C3327 C3321 1.429 . S
C3327 C3328 1.523 . S
C3328 C3309 1.368 . S
C3328 C3322 1.368 . S
C3328 C3327 1.523 . S
C3329 C3313 1.429 . S
C3329 C3325 1.429 . S
C3329 C3330 1.523 . S
C3330 C3314 1.368 . S
C3330 C3326 1.368 . S
C3330 C3329 1.523 . S
H3331 C3306 0.950 . S
H3332 C3308 0.950 . S
H3333 C3309 0.949 . S
H3334 C3311 0.950 . S
H3335 C3313 0.950 . S
C3336 C3337 1.349 . S
C3336 C3338 1.327 . S
C3336 H3361 0.950 . S
C3337 C3336 1.349 . S
C3337 C3353 1.349 . S
C3338 C3336 1.327 . S
C3338 C3357 1.429 . S
C3338 H3362 0.950 . S
C3339 C3356 1.574 . S
C3339 C3358 1.368 . S
C3339 H3363 0.949 . S
H3340 C3344 0.949 . S
C3341 C3342 1.349 . S
C3341 C3343 1.327 . S
C3341 H3364 0.950 . S
C3342 C3341 1.349 . S
C3342 C3354 1.349 . S
C3343 C3341 1.327 . S
C3343 C3359 1.429 . S
C3343 H3365 0.950 . S
C3344 H3340 0.949 . S
C3344 C3352 1.574 . S
C3344 C3360 1.368 . S
H3345 C3353 0.950 . S
H3346 C3351 0.950 . S
H3347 C3352 0.949 . S
H3348 C3354 0.950 . S
H3349 C3355 0.950 . S
H3350 C3356 0.949 . S
C3351 H3346 0.950 . S
C3351 C3353 1.327 . S
C3351 C3357 1.429 . S
C3352 C3344 1.574 . S
C3352 H3347 0.949 . S
C3352 C3358 1.368 . S
C3353 C3337 1.349 . S
C3353 H3345 0.950 . S
C3353 C3351 1.327 . S
C3354 C3342 1.349 . S
C3354 H3348 0.950 . S
C3354 C3355 1.327 . S
C3355 H3349 0.950 . S
C3355 C3354 1.327 . S
C3355 C3359 1.429 . S
C3356 C3339 1.574 . S
C3356 H3350 0.949 . S
C3356 C3360 1.368 . S
C3357 C3338 1.429 . S
C3357 C3351 1.429 . S
C3357 C3358 1.523 . S
C3358 C3339 1.368 . S
C3358 C3352 1.368 . S
C3358 C3357 1.523 . S
C3359 C3343 1.429 . S
C3359 C3355 1.429 . S
C3359 C3360 1.523 . S
C3360 C3344 1.368 . S
C3360 C3356 1.368 . S
C3360 C3359 1.523 . S
H3361 C3336 0.950 . S
H3362 C3338 0.950 . S
H3363 C3339 0.949 . S
H3364 C3341 0.950 . S
H3365 C3343 0.950 . S
C3366 C3367 1.349 . S
C3366 C3368 1.327 . S
C3366 H3391 0.950 . S
C3367 C3366 1.349 . S
C3367 C3383 1.349 . S
C3368 C3366 1.327 . S
C3368 C3387 1.429 . S
C3368 H3392 0.950 . S
C3369 C3386 1.574 . S
C3369 C3388 1.368 . S
C3369 H3393 0.949 . S
H3370 C3374 0.949 . S
C3371 C3372 1.349 . S
C3371 C3373 1.327 . S
C3371 H3394 0.950 . S
C3372 C3371 1.349 . S
C3372 C3384 1.349 . S
C3373 C3371 1.327 . S
C3373 C3389 1.429 . S
C3373 H3395 0.950 . S
C3374 H3370 0.949 . S
C3374 C3382 1.574 . S
C3374 C3390 1.368 . S
H3375 C3383 0.950 . S
H3376 C3381 0.950 . S
H3377 C3382 0.949 . S
H3378 C3384 0.950 . S
H3379 C3385 0.950 . S
H3380 C3386 0.949 . S
C3381 H3376 0.950 . S
C3381 C3383 1.327 . S
C3381 C3387 1.429 . S
C3382 C3374 1.574 . S
C3382 H3377 0.949 . S
C3382 C3388 1.368 . S
C3383 C3367 1.349 . S
C3383 H3375 0.950 . S
C3383 C3381 1.327 . S
C3384 C3372 1.349 . S
C3384 H3378 0.950 . S
C3384 C3385 1.327 . S
C3385 H3379 0.950 . S
C3385 C3384 1.327 . S
C3385 C3389 1.429 . S
C3386 C3369 1.574 . S
C3386 H3380 0.949 . S
C3386 C3390 1.368 . S
C3387 C3368 1.429 . S
C3387 C3381 1.429 . S
C3387 C3388 1.523 . S
C3388 C3369 1.368 . S
C3388 C3382 1.368 . S
C3388 C3387 1.523 . S
C3389 C3373 1.429 . S
C3389 C3385 1.429 . S
C3389 C3390 1.523 . S
C3390 C3374 1.368 . S
C3390 C3386 1.368 . S
C3390 C3389 1.523 . S
H3391 C3366 0.950 . S
H3392 C3368 0.950 . S
H3393 C3369 0.949 . S
H3394 C3371 0.950 . S
H3395 C3373 0.950 . S
C3396 C3397 1.349 . S
C3396 C3398 1.327 1_554 S
C3396 H3421 0.950 . S
C3397 C3396 1.349 . S
C3397 C3413 1.349 1_554 S
C3398 C3396 1.327 1_556 S
C3398 C3417 1.429 . S
C3398 H3422 0.950 . S
C3399 C3416 1.574 . S
C3399 C3418 1.368 . S
C3399 H3423 0.949 . S
H3400 C3404 0.949 . S
C3401 C3402 1.349 . S
C3401 C3403 1.327 . S
C3401 H3424 0.950 . S
C3402 C3401 1.349 . S
C3402 C3414 1.349 . S
C3403 C3401 1.327 . S
C3403 C3419 1.429 . S
C3403 H3425 0.950 . S
C3404 H3400 0.949 . S
C3404 C3412 1.574 . S
C3404 C3420 1.368 . S
H3405 C3413 0.950 . S
H3406 C3411 0.950 . S
H3407 C3412 0.949 . S
H3408 C3414 0.950 . S
H3409 C3415 0.950 . S
H3410 C3416 0.949 . S
C3411 H3406 0.950 . S
C3411 C3413 1.327 . S
C3411 C3417 1.429 . S
C3412 C3404 1.574 . S
C3412 H3407 0.949 . S
C3412 C3418 1.368 . S
C3413 C3397 1.349 1_556 S
C3413 H3405 0.950 . S
C3413 C3411 1.327 . S
C3414 C3402 1.349 . S
C3414 H3408 0.950 . S
C3414 C3415 1.327 . S
C3415 H3409 0.950 . S
C3415 C3414 1.327 . S
C3415 C3419 1.429 . S
C3416 C3399 1.574 . S
C3416 H3410 0.949 . S
C3416 C3420 1.368 . S
C3417 C3398 1.429 . S
C3417 C3411 1.429 . S
C3417 C3418 1.523 . S
C3418 C3399 1.368 . S
C3418 C3412 1.368 . S
C3418 C3417 1.523 . S
C3419 C3403 1.429 . S
C3419 C3415 1.429 . S
C3419 C3420 1.523 . S
C3420 C3404 1.368 . S
C3420 C3416 1.368 . S
C3420 C3419 1.523 . S
H3421 C3396 0.950 . S
H3422 C3398 0.950 . S
H3423 C3399 0.949 . S
H3424 C3401 0.950 . S
H3425 C3403 0.950 . S
C3426 C3427 1.349 . S
C3426 C3428 1.327 . S
C3426 H3451 0.950 . S
C3427 C3426 1.349 . S
C3427 C3443 1.349 . S
C3428 C3426 1.327 . S
C3428 C3447 1.429 . S
C3428 H3452 0.950 . S
C3429 C3446 1.574 . S
C3429 C3448 1.368 . S
C3429 H3453 0.949 . S
H3430 C3434 0.949 . S
C3431 C3432 1.349 . S
C3431 C3433 1.327 . S
C3431 H3454 0.950 . S
C3432 C3431 1.349 . S
C3432 C3444 1.349 . S
C3433 C3431 1.327 . S
C3433 C3449 1.429 . S
C3433 H3455 0.950 . S
C3434 H3430 0.949 . S
C3434 C3442 1.574 . S
C3434 C3450 1.368 . S
H3435 C3443 0.950 . S
H3436 C3441 0.950 . S
H3437 C3442 0.949 . S
H3438 C3444 0.950 . S
H3439 C3445 0.950 . S
H3440 C3446 0.949 . S
C3441 H3436 0.950 . S
C3441 C3443 1.327 . S
C3441 C3447 1.429 . S
C3442 C3434 1.574 . S
C3442 H3437 0.949 . S
C3442 C3448 1.368 . S
C3443 C3427 1.349 . S
C3443 H3435 0.950 . S
C3443 C3441 1.327 . S
C3444 C3432 1.349 . S
C3444 H3438 0.950 . S
C3444 C3445 1.327 . S
C3445 H3439 0.950 . S
C3445 C3444 1.327 . S
C3445 C3449 1.429 . S
C3446 C3429 1.574 . S
C3446 H3440 0.949 . S
C3446 C3450 1.368 . S
C3447 C3428 1.429 . S
C3447 C3441 1.429 . S
C3447 C3448 1.523 . S
C3448 C3429 1.368 . S
C3448 C3442 1.368 . S
C3448 C3447 1.523 . S
C3449 C3433 1.429 . S
C3449 C3445 1.429 . S
C3449 C3450 1.523 . S
C3450 C3434 1.368 . S
C3450 C3446 1.368 . S
C3450 C3449 1.523 . S
H3451 C3426 0.950 . S
H3452 C3428 0.950 . S
H3453 C3429 0.949 . S
H3454 C3431 0.950 . S
H3455 C3433 0.950 . S
C1057 N145 1.359 . S
C1062 N13 1.359 . S
C1087 N46 1.359 . S
C1092 N178 1.359 . S
C1117 N79 1.359 . S
C1122 N211 1.359 . S
C1147 N112 1.359 . S
C1152 N244 1.359 . S
C1177 C414 2.211 . S
C1182 C282 2.211 . S
C1207 C315 2.211 . S
C1212 C447 2.211 . S
C1237 C348 2.211 . S
C1242 C480 2.211 1_556 S
C1267 C513 2.211 . S
C1272 C381 2.211 . S
C1297 N541 1.359 . S
C1302 N673 1.359 . S
C1327 N574 1.359 . S
C1332 N706 1.359 . S
C1357 N739 1.359 . S
C1362 N607 1.359 . S
C1387 N640 1.359 . S
C1392 N772 1.359 . S
C1417 C810 2.211 . S
C1422 C942 2.211 1_556 S
C1447 C843 2.211 . S
C1452 C975 2.211 . S
C1477 C1008 2.211 . S
C1482 C876 2.211 . S
C1507 C909 2.211 . S
C1512 C1041 2.211 . S
C1537 C403 1.759 . S
C1542 C18 1.780 1_556 S
C1567 C51 1.781 . S
C1572 C964 1.760 . S
C1597 C469 1.759 . S
C1602 C84 1.780 . S
C1627 C117 1.781 . S
C1632 C1030 1.760 . S
C1657 C150 1.780 . S
C1662 C271 1.759 . S
C1687 C832 1.759 . S
C1692 C183 1.780 . S
C1717 C337 1.759 . S
C1722 C216 1.780 . S
C1747 C249 1.780 . S
C1752 C898 1.760 . S
C1777 N277 0.877 . S
C1782 N134 0.877 . S
C1807 N310 0.877 . S
C1812 N695 0.877 . S
C1837 N343 0.877 . S
C1842 N200 0.877 . S
C1867 N376 0.877 . S
C1872 N761 0.877 . S
C1897 N2 0.877 . S
C1902 N409 0.877 . S
C1927 N563 0.877 . S
C1932 N442 0.877 . S
C1957 N475 0.877 . S
C1962 N68 0.877 . S
C1987 N629 0.877 . S
C1992 N508 0.877 . S
C2017 C546 1.780 . S
C2022 C931 1.759 . S
C2047 C579 1.781 . S
C2052 C436 1.760 . S
C2077 C612 1.780 1_556 S
C2082 C997 1.759 . S
C2107 C645 1.781 . S
C2112 C502 1.760 . S
C2137 C678 1.780 . S
C2142 C799 1.759 . S
C2167 C304 1.760 . S
C2172 C711 1.780 . S
C2197 C865 1.759 . S
C2202 C744 1.780 . S
C2227 C777 1.780 . S
C2232 C370 1.759 . S
C2257 N662 0.877 . S
C2262 N805 0.877 . S
C2287 N167 0.877 . S
C2292 N838 0.877 . S
C2317 N728 0.877 . S
C2322 N871 0.877 . S
C2347 N233 0.877 . S
C2352 N904 0.877 . S
C2377 N937 0.877 . S
C2382 N530 0.877 . S
C2407 N35 0.877 . S
C2412 N970 0.877 . S
C2437 N1003 0.877 . S
C2442 N596 0.877 . S
C2467 N101 0.877 . S
C2472 N1036 0.877 . S
C2497 C7 1.248 . S
C2502 C139 1.248 . S
C2527 C172 1.248 . S
C2532 C40 1.248 . S
C2557 C205 1.248 . S
C2562 C73 1.248 . S
C2587 C106 1.248 . S
C2592 C238 1.248 . S
C2617 N266 0.494 . S
C2622 N398 0.494 . S
C2647 N299 0.494 . S
C2652 N431 0.494 . S
C2677 N464 0.494 . S
C2682 N332 0.494 . S
C2707 N365 0.494 . S
C2712 N497 0.494 . S
C2737 C667 1.248 . S
C2742 C535 1.248 . S
C2767 C568 1.248 . S
C2772 C700 1.248 . S
C2797 C733 1.248 . S
C2802 C601 1.248 . S
C2827 C634 1.248 . S
C2832 C766 1.248 . S
C2857 N926 0.494 . S
C2862 N794 0.494 . S
C2887 N827 0.494 . S
C2892 N959 0.494 . S
C2917 N992 0.494 . S
C2922 N860 0.494 . S
C2947 N893 0.494 . S
C2952 N1025 0.494 . S
C2977 C252 0.944 . S
C2982 C21 0.944 . S
C3007 C54 0.945 . S
C3012 C153 0.945 . S
C3037 C87 0.944 . S
C3042 C186 0.944 . S
C3067 C219 0.945 . S
C3072 C120 0.945 . S
C3097 C285 0.944 . S
C3102 C516 0.944 . S
C3127 C417 0.944 . S
C3132 C318 0.944 . S
C3157 C450 0.944 . S
C3162 C351 0.944 . S
C3187 C384 0.945 . S
C3192 C483 0.945 . S
C3217 C780 0.944 . S
C3222 C549 0.944 . S
C3247 C582 0.945 . S
C3252 C681 0.945 . S
C3277 C714 0.944 . S
C3282 C615 0.944 . S
C3307 C648 0.945 . S
C3312 C747 0.945 . S
C3337 C813 0.944 . S
C3342 C1044 0.944 . S
C3367 C846 0.945 . S
C3372 C945 0.945 . S
C3397 C879 0.944 . S
C3402 C978 0.944 . S
C3427 C1011 0.944 . S
C3432 C912 0.944 . S
