# Generated by pormake.
# Topology wfa, (4)-cn, num edge types: 1
# Building blocks:
#     Node 0, Type 0, BuildingBlock: CEKHIL_clean_sbu_0, # of connection points: 4
#     Node 1, Type 0, BuildingBlock: CEKHIL_clean_sbu_0, # of connection points: 4
#     Node 2, Type 0, BuildingBlock: CEKHIL_clean_sbu_0, # of connection points: 4
#     Node 3, Type 0, BuildingBlock: CEKHIL_clean_sbu_0, # of connection points: 4
#     Node 4, Type 0, BuildingBlock: CEKHIL_clean_sbu_0, # of connection points: 4
#     Node 5, Type 0, BuildingBlock: CEKHIL_clean_sbu_0, # of connection points: 4
#     Node 6, Type 0, BuildingBlock: CEKHIL_clean_sbu_0, # of connection points: 4
#     Node 7, Type 0, BuildingBlock: CEKHIL_clean_sbu_0, # of connection points: 4
#     Node 8, Type 0, BuildingBlock: CEKHIL_clean_sbu_0, # of connection points: 4
#     Node 9, Type 0, BuildingBlock: CEKHIL_clean_sbu_0, # of connection points: 4
#     Node 10, Type 0, BuildingBlock: CEKHIL_clean_sbu_0, # of connection points: 4
#     Node 11, Type 0, BuildingBlock: CEKHIL_clean_sbu_0, # of connection points: 4
#     Node 12, Type 0, BuildingBlock: CEKHIL_clean_sbu_0, # of connection points: 4
#     Node 13, Type 0, BuildingBlock: CEKHIL_clean_sbu_0, # of connection points: 4
#     Node 14, Type 0, BuildingBlock: CEKHIL_clean_sbu_0, # of connection points: 4
#     Node 15, Type 0, BuildingBlock: CEKHIL_clean_sbu_0, # of connection points: 4
#     Edge 16, Type (0, 0), BuildingBlock: TEMPAE_clean_linker_10, # of connection points: 2
#     Edge 17, Type (0, 0), BuildingBlock: TEMPAE_clean_linker_10, # of connection points: 2
#     Edge 18, Type (0, 0), BuildingBlock: TEMPAE_clean_linker_10, # of connection points: 2
#     Edge 19, Type (0, 0), BuildingBlock: TEMPAE_clean_linker_10, # of connection points: 2
#     Edge 20, Type (0, 0), BuildingBlock: TEMPAE_clean_linker_10, # of connection points: 2
#     Edge 21, Type (0, 0), BuildingBlock: TEMPAE_clean_linker_10, # of connection points: 2
#     Edge 22, Type (0, 0), BuildingBlock: TEMPAE_clean_linker_10, # of connection points: 2
#     Edge 23, Type (0, 0), BuildingBlock: TEMPAE_clean_linker_10, # of connection points: 2
#     Edge 24, Type (0, 0), BuildingBlock: TEMPAE_clean_linker_10, # of connection points: 2
#     Edge 25, Type (0, 0), BuildingBlock: TEMPAE_clean_linker_10, # of connection points: 2
#     Edge 26, Type (0, 0), BuildingBlock: TEMPAE_clean_linker_10, # of connection points: 2
#     Edge 27, Type (0, 0), BuildingBlock: TEMPAE_clean_linker_10, # of connection points: 2
#     Edge 28, Type (0, 0), BuildingBlock: TEMPAE_clean_linker_10, # of connection points: 2
#     Edge 29, Type (0, 0), BuildingBlock: TEMPAE_clean_linker_10, # of connection points: 2
#     Edge 30, Type (0, 0), BuildingBlock: TEMPAE_clean_linker_10, # of connection points: 2
#     Edge 31, Type (0, 0), BuildingBlock: TEMPAE_clean_linker_10, # of connection points: 2
#     Edge 32, Type (0, 0), BuildingBlock: TEMPAE_clean_linker_10, # of connection points: 2
#     Edge 33, Type (0, 0), BuildingBlock: TEMPAE_clean_linker_10, # of connection points: 2
#     Edge 34, Type (0, 0), BuildingBlock: TEMPAE_clean_linker_10, # of connection points: 2
#     Edge 35, Type (0, 0), BuildingBlock: TEMPAE_clean_linker_10, # of connection points: 2
#     Edge 36, Type (0, 0), BuildingBlock: TEMPAE_clean_linker_10, # of connection points: 2
#     Edge 37, Type (0, 0), BuildingBlock: TEMPAE_clean_linker_10, # of connection points: 2
#     Edge 38, Type (0, 0), BuildingBlock: TEMPAE_clean_linker_10, # of connection points: 2
#     Edge 39, Type (0, 0), BuildingBlock: TEMPAE_clean_linker_10, # of connection points: 2
#     Edge 40, Type (0, 0), BuildingBlock: TEMPAE_clean_linker_10, # of connection points: 2
#     Edge 41, Type (0, 0), BuildingBlock: TEMPAE_clean_linker_10, # of connection points: 2
#     Edge 42, Type (0, 0), BuildingBlock: TEMPAE_clean_linker_10, # of connection points: 2
#     Edge 43, Type (0, 0), BuildingBlock: TEMPAE_clean_linker_10, # of connection points: 2
#     Edge 44, Type (0, 0), BuildingBlock: TEMPAE_clean_linker_10, # of connection points: 2
#     Edge 45, Type (0, 0), BuildingBlock: TEMPAE_clean_linker_10, # of connection points: 2
#     Edge 46, Type (0, 0), BuildingBlock: TEMPAE_clean_linker_10, # of connection points: 2
#     Edge 47, Type (0, 0), BuildingBlock: TEMPAE_clean_linker_10, # of connection points: 2
# Relax obj value: 0.216
# Max RMSD: 0.275
# Mean RMSD: 0.269
data_MOF--net-wfa--node1-CEKHIL_clean_sbu_0--edge1-TEMPAE_clean_linker_10
_symmetry_space_group_name_H-M    P1
_symmetry_Int_Tables_number       1
_symmetry_cell_setting            triclinic
loop_
_symmetry_equiv_pos_as_xyz
'x, y, z'
_cell_length_a     46.131912
_cell_length_b     46.115934
_cell_length_c     23.824158
_cell_angle_alpha  89.716687
_cell_angle_beta   89.691997
_cell_angle_gamma 89.522025
loop_
_atom_site_label
_atom_site_type_symbol
_atom_site_fract_x
_atom_site_fract_y
_atom_site_fract_z
_atom_type_partial_charge
Co0 Co 0.6552 0.98228 0.03698 0.0
O1 O 0.67148 0.95427 0.98599 0.0
O2 O 0.69053 0.99713 1.00302 0.0
C3 C 0.60901 0.98003 0.00587 0.0
O4 O 0.64358 0.01678 0.08557 0.0
Co5 Co 0.60829 0.96197 0.12306 0.0
O6 O 0.60174 0.00442 0.12837 0.0
C7 C 0.67045 0.95544 0.15123 0.0
C8 C 0.69153 0.97298 0.97486 0.0
C9 C 0.6209 0.02302 0.11496 0.0
O10 O 0.67777 0.96581 0.10281 0.0
O11 O 0.64409 0.95074 0.16552 0.0
O12 O 0.628 0.99575 0.97972 0.0
O13 O 0.61928 0.96353 0.04508 0.0
Co14 Co 0.52496 0.65335 0.04395 0.0
O15 O 0.55209 0.66927 0.99086 0.0
O16 O 0.5092 0.68855 0.01022 0.0
C17 C 0.52728 0.60696 0.01367 0.0
O18 O 0.49127 0.64185 0.09503 0.0
Co19 Co 0.5478 0.60732 0.12962 0.0
O20 O 0.50565 0.60085 0.13917 0.0
C21 C 0.55348 0.6696 0.15562 0.0
C22 C 0.53299 0.68931 0.98051 0.0
C23 C 0.48622 0.6195 0.12609 0.0
O24 O 0.54189 0.67636 0.10808 0.0
O25 O 0.55922 0.64342 0.17018 0.0
O26 O 0.51113 0.62594 0.98815 0.0
O27 O 0.54429 0.61737 0.05136 0.0
Co28 Co 0.84594 0.51597 0.02691 0.0
O29 O 0.83016 0.54368 0.97456 0.0
O30 O 0.81044 0.50131 0.99417 0.0
C31 C 0.89224 0.51721 0.995 0.0
O32 O 0.85706 0.48182 0.07741 0.0
Co33 Co 0.89272 0.53664 0.1113 0.0
O34 O 0.89901 0.49421 0.11857 0.0
C35 C 0.8306 0.54433 0.13971 0.0
C36 C 0.80983 0.52521 0.96475 0.0
C37 C 0.87968 0.47564 0.10671 0.0
O38 O 0.82338 0.53343 0.09202 0.0
O39 O 0.85696 0.54888 0.15355 0.0
O40 O 0.87305 0.50151 0.97008 0.0
O41 O 0.88215 0.53428 0.03339 0.0
Co42 Co 0.97701 0.84577 0.04804 0.0
O43 O 0.94768 0.83193 0.99798 0.0
O44 O 0.99006 0.81039 0.01113 0.0
C45 C 0.97564 0.89265 0.01935 0.0
O46 O 0.01262 0.85483 0.09508 0.0
Co47 Co 0.95933 0.89196 0.13757 0.0
O48 O 0.002 0.89617 0.14138 0.0
C49 C 0.95095 0.82964 0.16269 0.0
C50 C 0.96547 0.81121 0.98445 0.0
C51 C 0.01984 0.87653 0.12564 0.0
O52 O 0.96085 0.82271 0.11371 0.0
O53 O 0.94704 0.85593 0.17828 0.0
O54 O 0.99043 0.87348 0.99139 0.0
O55 O 0.95952 0.88238 0.05907 0.0
Co56 Co 0.15128 0.02059 0.46564 0.0
O57 O 0.16866 0.04741 0.51691 0.0
O58 O 0.18421 0.00255 0.50263 0.0
C59 C 0.10459 0.02786 0.49275 0.0
O60 O 0.13781 0.98654 0.41817 0.0
Co61 Co 0.10899 0.04472 0.37434 0.0
O62 O 0.09982 0.00298 0.36766 0.0
C63 C 0.17201 0.04723 0.35382 0.0
C64 C 0.18654 0.02668 0.53031 0.0
C65 C 0.11604 0.98247 0.3856 0.0
O66 O 0.17684 0.03413 0.40096 0.0
O67 O 0.14667 0.0553 0.33821 0.0
O68 O 0.12164 0.01115 0.52181 0.0
O69 O 0.11728 0.04243 0.45335 0.0
Co70 Co 0.48314 0.15189 0.46925 0.0
O71 O 0.45506 0.16912 0.51952 0.0
O72 O 0.49957 0.18526 0.50609 0.0
C73 C 0.47692 0.1051 0.49681 0.0
O74 O 0.51828 0.13914 0.42303 0.0
Co75 Co 0.46265 0.10836 0.37788 0.0
O76 O 0.50481 0.09992 0.37385 0.0
C77 C 0.45824 0.17132 0.3555 0.0
C78 C 0.47503 0.18745 0.53299 0.0
C79 C 0.52407 0.11723 0.39155 0.0
O80 O 0.4697 0.17689 0.4036 0.0
O81 O 0.45184 0.14563 0.33992 0.0
O82 O 0.49273 0.12249 0.52613 0.0
O83 O 0.46266 0.11743 0.45661 0.0
Co84 Co 0.34738 0.48119 0.46177 0.0
O85 O 0.33301 0.4508 0.51002 0.0
O86 O 0.31347 0.4946 0.50288 0.0
C87 C 0.39487 0.47682 0.48527 0.0
O88 O 0.35709 0.51824 0.41869 0.0
Co89 Co 0.39065 0.46506 0.36515 0.0
O90 O 0.39589 0.50767 0.36422 0.0
C91 C 0.32791 0.45747 0.34759 0.0
C92 C 0.31353 0.46924 0.52713 0.0
C93 C 0.37798 0.52567 0.38576 0.0
O94 O 0.32237 0.4682 0.39654 0.0
O95 O 0.35368 0.45238 0.3298 0.0
O96 O 0.37689 0.4908 0.51755 0.0
O97 O 0.38294 0.46303 0.44452 0.0
Co98 Co 0.00971 0.34756 0.47158 0.0
O99 O 0.0381 0.33153 0.5221 0.0
O100 O 0.99481 0.31286 0.50761 0.0
C101 C 0.01288 0.39418 0.50071 0.0
O102 O 0.97469 0.35912 0.42419 0.0
Co103 Co 0.02961 0.39284 0.38197 0.0
O104 O 0.98725 0.40025 0.3791 0.0
C105 C 0.03668 0.33034 0.35798 0.0
C106 C 0.01915 0.31197 0.53505 0.0
C107 C 0.96845 0.38167 0.39437 0.0
O108 O 0.02532 0.32395 0.40609 0.0
O109 O 0.04187 0.35643 0.34245 0.0
O110 O 0.99763 0.37552 0.52878 0.0
O111 O 0.02849 0.38325 0.46071 0.0
Co112 Co 0.34734 0.01542 0.96646 0.0
O113 O 0.33072 0.04468 0.01466 0.0
O114 O 0.31411 6e-05 0.0064 0.0
C115 C 0.3943 0.02193 0.99126 0.0
O116 O 0.35955 0.97915 0.92341 0.0
Co117 Co 0.39039 0.03351 0.87116 0.0
O118 O 0.39871 0.99127 0.87171 0.0
C119 C 0.3274 0.03892 0.85188 0.0
C120 C 0.31236 0.02517 0.03097 0.0
C121 C 0.38143 0.97252 0.89216 0.0
O122 O 0.32203 0.02782 0.90072 0.0
O123 O 0.35303 0.04486 0.83475 0.0
O124 O 0.37706 0.00682 0.02291 0.0
O125 O 0.3818 0.03534 0.95018 0.0
Co126 Co 0.48698 0.34692 0.967 0.0
O127 O 0.45874 0.33063 0.01768 0.0
O128 O 0.50283 0.3128 0.00406 0.0
C129 C 0.48186 0.39374 0.99454 0.0
O130 O 0.52212 0.35875 0.91995 0.0
Co131 Co 0.46631 0.39129 0.87581 0.0
O132 O 0.50854 0.3985 0.87091 0.0
C133 C 0.46062 0.3286 0.85434 0.0
C134 C 0.47831 0.31153 0.03124 0.0
C135 C 0.52781 0.38071 0.8883 0.0
O136 O 0.47267 0.32262 0.90189 0.0
O137 O 0.45436 0.35449 0.83868 0.0
O138 O 0.49747 0.37564 0.02357 0.0
O139 O 0.4671 0.38213 0.95469 0.0
Co140 Co 0.15405 0.47452 0.95581 0.0
O141 O 0.16882 0.44943 0.01393 0.0
O142 O 0.18706 0.49223 0.99222 0.0
C143 C 0.10643 0.47175 0.97948 0.0
O144 O 0.14342 0.50623 0.89934 0.0
Co145 Co 0.11349 0.44558 0.86725 0.0
O146 O 0.11298 0.48571 0.83737 0.0
C147 C 0.17672 0.44122 0.85225 0.0
C148 C 0.18763 0.46936 0.02455 0.0
C149 C 0.12751 0.50723 0.85504 0.0
O150 O 0.18054 0.45649 0.89685 0.0
O151 O 0.1518 0.43237 0.83677 0.0
O152 O 0.12357 0.48878 0.00662 0.0
O153 O 0.11934 0.45425 0.9452 0.0
Co154 Co 0.01316 0.15362 0.97357 0.0
O155 O 0.04126 0.16995 0.02389 0.0
O156 O 0.99699 0.18735 0.0111 0.0
C157 C 0.01885 0.10654 1.00021 0.0
O158 O 0.97806 0.142 0.9272 0.0
Co159 Co 0.03404 0.1101 0.88122 0.0
O160 O 0.99177 0.10369 0.87457 0.0
C161 C 0.03929 0.17299 0.86054 0.0
C162 C 0.02152 0.18887 0.03764 0.0
C163 C 0.97249 0.12101 0.89363 0.0
O164 O 0.0271 0.17854 0.9083 0.0
O165 O 0.04595 0.14729 0.84471 0.0
O166 O 0.0031 0.12417 0.03003 0.0
O167 O 0.03334 0.11871 0.96015 0.0
Co168 Co 0.84555 0.98299 0.53695 0.0
O169 O 0.82955 0.95626 0.48414 0.0
O170 O 0.80994 0.99874 0.50508 0.0
C171 C 0.89169 0.9815 0.5045 0.0
O172 O 0.85722 0.01616 0.58846 0.0
Co173 Co 0.89229 0.95923 0.61976 0.0
O174 O 0.8986 0.0013 0.63013 0.0
C175 C 0.8303 0.95291 0.64854 0.0
C176 C 0.80922 0.9752 0.47507 0.0
C177 C 0.87981 0.02086 0.6186 0.0
O178 O 0.82317 0.96508 0.60166 0.0
O179 O 0.85659 0.94709 0.66175 0.0
O180 O 0.87237 0.99775 0.48021 0.0
O181 O 0.8817 0.96389 0.54213 0.0
Co182 Co 0.52154 0.84434 0.54206 0.0
O183 O 0.54922 0.82913 0.48899 0.0
O184 O 0.50702 0.809 0.50844 0.0
C185 C 0.52242 0.89092 0.51174 0.0
O186 O 0.48746 0.85482 0.59312 0.0
Co187 Co 0.54234 0.89062 0.62768 0.0
O188 O 0.49992 0.89615 0.63672 0.0
C189 C 0.55041 0.82832 0.65392 0.0
C190 C 0.53085 0.80874 0.47881 0.0
C191 C 0.48138 0.87695 0.62388 0.0
O192 O 0.53925 0.82139 0.6063 0.0
O193 O 0.55504 0.85459 0.66834 0.0
O194 O 0.5068 0.87186 0.48625 0.0
O195 O 0.53964 0.88058 0.54956 0.0
Co196 Co 0.65476 0.51954 0.52919 0.0
O197 O 0.67091 0.5467 0.47627 0.0
O198 O 0.69 0.50374 0.4956 0.0
C199 C 0.60842 0.52208 0.4987 0.0
O200 O 0.6432 0.48578 0.58006 0.0
Co201 Co 0.60839 0.54183 0.61476 0.0
O202 O 0.60168 0.49961 0.62293 0.0
C203 C 0.67064 0.54751 0.64149 0.0
C204 C 0.69094 0.52756 0.46602 0.0
C205 C 0.62063 0.4804 0.6103 0.0
O206 O 0.67764 0.53633 0.59367 0.0
O207 O 0.64438 0.55297 0.65594 0.0
O208 O 0.62738 0.50589 0.47315 0.0
O209 O 0.61882 0.53895 0.53662 0.0
Co210 Co 0.96809 0.65472 0.55679 0.0
O211 O 0.94425 0.67029 0.49802 0.0
O212 O 0.98616 0.68883 0.52321 0.0
C213 C 0.96674 0.6078 0.5297 0.0
O214 O 0.9982 0.64291 0.61536 0.0
Co215 Co 0.93709 0.6121 0.63942 0.0
O216 O 0.97724 0.60757 0.66695 0.0
C217 C 0.93417 0.67491 0.66136 0.0
C218 C 0.96392 0.68968 0.48963 0.0
C219 C 0.99878 0.6237 0.65494 0.0
O220 O 0.94843 0.67985 0.61562 0.0
O221 O 0.92586 0.64956 0.67609 0.0
O222 O 0.98454 0.62575 0.50606 0.0
O223 O 0.94765 0.61959 0.56249 0.0
C224 C 0.56593 0.13563 0.33635 0.0
C225 C 0.55321 0.11325 0.36765 0.0
C226 C 0.58658 0.12923 0.29446 0.0
C227 C 0.59409 0.0999 0.28402 0.0
C228 C 0.58464 0.07802 0.32178 0.0
C229 C 0.56416 0.08502 0.3631 0.0
C230 C 0.59745 0.15342 0.25738 0.0
C231 C 0.59273 0.04649 0.31365 0.0
C232 C 0.5902 0.06403 0.14461 0.0
C233 C 0.61787 0.05156 0.14146 0.0
C234 C 0.58317 0.0837 0.18709 0.0
C235 C 0.60439 0.09071 0.22757 0.0
C236 C 0.63351 0.08173 0.21906 0.0
C237 C 0.63998 0.062 0.17584 0.0
C238 C 0.55195 0.09345 0.19311 0.0
C239 C 0.65713 0.09002 0.25923 0.0
H240 H 0.55754 0.15758 0.34017 0.0
H241 H 0.55446 0.06784 0.38802 0.0
H242 H 0.61893 0.1481 0.23875 0.0
H243 H 0.58189 0.1572 0.2227 0.0
H244 H 0.59909 0.17393 0.28139 0.0
H245 H 0.5863 0.03288 0.35021 0.0
H246 H 0.58171 0.03806 0.27583 0.0
H247 H 0.61641 0.04403 0.30701 0.0
H248 H 0.57326 0.05608 0.11748 0.0
H249 H 0.66149 0.05243 0.17314 0.0
H250 H 0.55067 0.11701 0.20185 0.0
H251 H 0.54173 0.08186 0.22894 0.0
H252 H 0.53916 0.08897 0.15476 0.0
H253 H 0.6525 0.1112 0.27944 0.0
H254 H 0.6784 0.09113 0.23726 0.0
H255 H 0.65896 0.07326 0.29263 0.0
C256 C 0.40758 0.56897 0.37248 0.0
C257 C 0.3807 0.55568 0.3662 0.0
C258 C 0.41725 0.58933 0.33303 0.0
C259 C 0.39957 0.59605 0.28616 0.0
C260 C 0.37042 0.58669 0.2857 0.0
C261 C 0.36128 0.56623 0.32585 0.0
C262 C 0.44816 0.59966 0.33663 0.0
C263 C 0.35032 0.59484 0.23842 0.0
C264 C 0.44343 0.6385 0.17971 0.0
C265 C 0.4576 0.61551 0.15243 0.0
C266 C 0.42161 0.63296 0.21981 0.0
C267 C 0.41428 0.60387 0.23257 0.0
C268 C 0.42613 0.58104 0.19973 0.0
C269 C 0.44765 0.58722 0.16013 0.0
C270 C 0.40858 0.65807 0.25171 0.0
C271 C 0.41869 0.54962 0.21062 0.0
H272 H 0.42246 0.56079 0.40406 0.0
H273 H 0.34038 0.55593 0.32119 0.0
H274 H 0.4618 0.58747 0.30615 0.0
H275 H 0.44951 0.62301 0.3258 0.0
H276 H 0.45731 0.59627 0.37924 0.0
H277 H 0.3273 0.59372 0.25211 0.0
H278 H 0.35489 0.617 0.22249 0.0
H279 H 0.35345 0.57943 0.20324 0.0
H280 H 0.45104 0.66047 0.17352 0.0
H281 H 0.45844 0.56953 0.13837 0.0
H282 H 0.42311 0.66383 0.28683 0.0
H283 H 0.38694 0.6528 0.26935 0.0
H284 H 0.40655 0.67746 0.22411 0.0
H285 H 0.42708 0.54285 0.25229 0.0
H286 H 0.42814 0.53492 0.17842 0.0
H287 H 0.39487 0.5467 0.21113 0.0
C288 C 0.85924 0.43653 0.16719 0.0
C289 C 0.88236 0.44739 0.13522 0.0
C290 C 0.86444 0.41686 0.21142 0.0
C291 C 0.89333 0.40843 0.22364 0.0
C292 C 0.91593 0.41608 0.18589 0.0
C293 C 0.91009 0.43548 0.14206 0.0
C294 C 0.83945 0.40786 0.24842 0.0
C295 C 0.94706 0.40709 0.19603 0.0
C296 C 0.92799 0.41292 0.36417 0.0
C297 C 0.93973 0.38496 0.36862 0.0
C298 C 0.90892 0.42007 0.32073 0.0
C299 C 0.90155 0.39859 0.281 0.0
C300 C 0.90945 0.3693 0.2912 0.0
C301 C 0.92878 0.36276 0.33505 0.0
C302 C 0.90032 0.45151 0.31286 0.0
C303 C 0.9005 0.34545 0.25207 0.0
H304 H 0.83767 0.44558 0.16163 0.0
H305 H 0.92784 0.44362 0.11656 0.0
H306 H 0.8439 0.38694 0.27008 0.0
H307 H 0.8355 0.42471 0.28071 0.0
H308 H 0.81929 0.40586 0.22345 0.0
H309 H 0.96137 0.41253 0.15989 0.0
H310 H 0.95533 0.41832 0.23373 0.0
H311 H 0.94863 0.38343 0.20395 0.0
H312 H 0.93626 0.42994 0.39083 0.0
H313 H 0.93772 0.34102 0.33876 0.0
H314 H 0.87687 0.45348 0.30364 0.0
H315 H 0.91241 0.46078 0.27665 0.0
H316 H 0.90508 0.46472 0.35055 0.0
H317 H 0.87935 0.35041 0.23203 0.0
H318 H 0.89897 0.32443 0.27484 0.0
H319 H 0.91705 0.34292 0.21847 0.0
C320 C 0.05642 0.85856 0.19309 0.0
C321 C 0.04884 0.87804 0.15021 0.0
C322 C 0.076 0.86681 0.23502 0.0
C323 C 0.08768 0.89511 0.2336 0.0
C324 C 0.08372 0.91264 0.18515 0.0
C325 C 0.06407 0.90392 0.14417 0.0
C326 C 0.08091 0.84684 0.28441 0.0
C327 C 0.09641 0.94265 0.18067 0.0
C328 C 0.08108 0.94585 0.35524 0.0
C329 C 0.11003 0.95353 0.36303 0.0
C330 C 0.07363 0.92418 0.31734 0.0
C331 C 0.09583 0.90973 0.28666 0.0
C332 C 0.12525 0.91466 0.3002 0.0
C333 C 0.13209 0.93679 0.3383 0.0
C334 C 0.04186 0.91943 0.30538 0.0
C335 C 0.14955 0.89875 0.27073 0.0
H336 H 0.04456 0.83848 0.19772 0.0
H337 H 0.05813 0.91888 0.11089 0.0
H338 H 0.10263 0.85013 0.30303 0.0
H339 H 0.06436 0.85139 0.31723 0.0
H340 H 0.07879 0.82378 0.27192 0.0
H341 H 0.09497 0.95147 0.13726 0.0
H342 H 0.08438 0.95753 0.20911 0.0
H343 H 0.11945 0.94247 0.19357 0.0
H344 H 0.06408 0.9586 0.37523 0.0
H345 H 0.15455 0.94264 0.34462 0.0
H346 H 0.03682 0.89598 0.306 0.0
H347 H 0.03659 0.92794 0.26293 0.0
H348 H 0.02752 0.93052 0.33632 0.0
H349 H 0.14282 0.87687 0.25702 0.0
H350 H 0.16874 0.89656 0.29848 0.0
H351 H 0.15628 0.91127 0.23305 0.0
C352 C 0.3642 0.92976 0.83958 0.0
C353 C 0.38563 0.94274 0.87222 0.0
C354 C 0.37184 0.90864 0.79963 0.0
C355 C 0.40142 0.90105 0.7924 0.0
C356 C 0.42201 0.91047 0.83222 0.0
C357 C 0.41382 0.9314 0.8716 0.0
C358 C 0.34892 0.89753 0.76056 0.0
C359 C 0.45367 0.9021 0.8278 0.0
C360 C 0.44217 0.857 0.68464 0.0
C361 C 0.4529 0.87964 0.65128 0.0
C362 C 0.4218 0.86273 0.72743 0.0
C363 C 0.41244 0.89167 0.73657 0.0
C364 C 0.42015 0.91359 0.69737 0.0
C365 C 0.44042 0.90726 0.65536 0.0
C366 C 0.41295 0.83837 0.76613 0.0
C367 C 0.41021 0.94471 0.70413 0.0
H368 H 0.34227 0.93841 0.84047 0.0
H369 H 0.43022 0.9413 0.89761 0.0
H370 H 0.34703 0.91232 0.72387 0.0
H371 H 0.3545 0.87554 0.74492 0.0
H372 H 0.32745 0.89688 0.78185 0.0
H373 H 0.46594 0.90822 0.86591 0.0
H374 H 0.45612 0.87842 0.8214 0.0
H375 H 0.46356 0.91324 0.79108 0.0
H376 H 0.45178 0.83553 0.68127 0.0
H377 H 0.44866 0.92464 0.62909 0.0
H378 H 0.39202 0.84302 0.78756 0.0
H379 H 0.42986 0.8351 0.79855 0.0
H380 H 0.41111 0.81777 0.74249 0.0
H381 H 0.41585 0.95827 0.66702 0.0
H382 H 0.42062 0.95423 0.7416 0.0
H383 H 0.38642 0.94584 0.71053 0.0
C384 C 0.63996 0.4402 0.6699 0.0
C385 C 0.6173 0.45206 0.638 0.0
C386 C 0.63413 0.41995 0.71279 0.0
C387 C 0.60506 0.41184 0.7236 0.0
C388 C 0.58293 0.42078 0.68602 0.0
C389 C 0.58938 0.44085 0.64374 0.0
C390 C 0.65861 0.40986 0.74992 0.0
C391 C 0.55166 0.41225 0.69473 0.0
C392 C 0.56863 0.36333 0.82886 0.0
C393 C 0.55689 0.38459 0.8643 0.0
C394 C 0.58849 0.37101 0.7864 0.0
C395 C 0.59615 0.4005 0.77959 0.0
C396 C 0.58787 0.42087 0.82121 0.0
C397 C 0.5682 0.41261 0.86308 0.0
C398 C 0.59821 0.3483 0.74493 0.0
C399 C 0.59614 0.45243 0.81688 0.0
H400 H 0.66165 0.44882 0.66529 0.0
H401 H 0.57198 0.44988 0.61848 0.0
H402 H 0.66182 0.42587 0.78388 0.0
H403 H 0.654 0.3885 0.7695 0.0
H404 H 0.67919 0.4083 0.72566 0.0
H405 H 0.53782 0.41862 0.6586 0.0
H406 H 0.54991 0.3885 0.70105 0.0
H407 H 0.54293 0.42299 0.73293 0.0
H408 H 0.55991 0.34156 0.82999 0.0
H409 H 0.55919 0.42891 0.89103 0.0
H410 H 0.61988 0.35338 0.72712 0.0
H411 H 0.58253 0.34746 0.70985 0.0
H412 H 0.59901 0.32649 0.76491 0.0
H413 H 0.59106 0.46447 0.85607 0.0
H414 H 0.58406 0.46283 0.78188 0.0
H415 H 0.61961 0.45457 0.80772 0.0
C416 C 0.05265 0.62852 0.67143 0.0
C417 C 0.02523 0.619 0.68891 0.0
C418 C 0.07779 0.61957 0.70034 0.0
C419 C 0.07525 0.60015 0.74645 0.0
C420 C 0.04739 0.59296 0.76726 0.0
C421 C 0.02289 0.60284 0.73875 0.0
C422 C 0.10687 0.62963 0.67908 0.0
C423 C 0.04318 0.57246 0.81647 0.0
C424 C 0.11746 0.53215 0.76526 0.0
C425 C 0.12443 0.53433 0.82227 0.0
C426 C 0.10504 0.5555 0.73639 0.0
C427 C 0.1001 0.58188 0.76511 0.0
C428 C 0.11219 0.58576 0.81912 0.0
C429 C 0.12386 0.56162 0.84787 0.0
C430 C 0.09336 0.5504 0.67815 0.0
C431 C 0.11006 0.61448 0.84879 0.0
H432 H 0.05466 0.64176 0.63392 0.0
H433 H 0.00173 0.59639 0.75411 0.0
H434 H 0.12437 0.62606 0.71022 0.0
H435 H 0.11252 0.61787 0.63995 0.0
H436 H 0.1058 0.65307 0.66831 0.0
H437 H 0.01994 0.56914 0.82698 0.0
H438 H 0.05302 0.55098 0.80691 0.0
H439 H 0.05401 0.58101 0.85424 0.0
H440 H 0.11919 0.5113 0.74456 0.0
H441 H 0.13018 0.56368 0.89142 0.0
H442 H 0.10035 0.56791 0.64927 0.0
H443 H 0.0693 0.55057 0.67948 0.0
H444 H 0.10071 0.5293 0.66052 0.0
H445 H 0.10865 0.63279 0.81844 0.0
H446 H 0.12913 0.61764 0.87633 0.0
H447 H 0.09042 0.61491 0.87582 0.0
C448 C 0.931 0.09035 0.87092 0.0
C449 C 0.94348 0.11785 0.86973 0.0
C450 C 0.91144 0.08206 0.8294 0.0
C451 C 0.90468 0.10178 0.78541 0.0
C452 C 0.91361 0.131 0.78942 0.0
C453 C 0.93319 0.13875 0.83173 0.0
C454 C 0.90172 0.05089 0.82807 0.0
C455 C 0.90569 0.15306 0.74507 0.0
C456 C 0.91221 0.05886 0.65316 0.0
C457 C 0.88388 0.049 0.64622 0.0
C458 C 0.91879 0.07901 0.69466 0.0
C459 C 0.89633 0.08955 0.73018 0.0
C460 C 0.86713 0.08268 0.71821 0.0
C461 C 0.86118 0.06222 0.6762 0.0
C462 C 0.95029 0.08604 0.70475 0.0
C463 C 0.84241 0.09451 0.75305 0.0
H464 H 0.93901 0.0743 0.90062 0.0
H465 H 0.94292 0.16008 0.83086 0.0
H466 H 0.87838 0.04962 0.81763 0.0
H467 H 0.91406 0.03905 0.79511 0.0
H468 H 0.90536 0.03969 0.86887 0.0
H469 H 0.90606 0.1754 0.76229 0.0
H470 H 0.9217 0.15193 0.71021 0.0
H471 H 0.88391 0.1488 0.72751 0.0
H472 H 0.92969 0.04879 0.62945 0.0
H473 H 0.83918 0.05469 0.67067 0.0
H474 H 0.95755 0.07564 0.74444 0.0
H475 H 0.95319 0.10975 0.70904 0.0
H476 H 0.96459 0.07824 0.67021 0.0
H477 H 0.83772 0.07923 0.78799 0.0
H478 H 0.82243 0.09667 0.72747 0.0
H479 H 0.84764 0.11593 0.77127 0.0
C480 C 0.71105 0.94207 0.89724 0.0
C481 C 0.7128 0.96758 0.92901 0.0
C482 C 0.72932 0.93727 0.85082 0.0
C483 C 0.75003 0.9584 0.83575 0.0
C484 C 0.75234 0.98396 0.86827 0.0
C485 C 0.73365 0.98828 0.91444 0.0
C486 C 0.7261 0.90977 0.81732 0.0
C487 C 0.77432 0.00693 0.85379 0.0
C488 C 0.8153 0.9378 0.74573 0.0
C489 C 0.80778 0.94957 0.69316 0.0
C490 C 0.79643 0.93985 0.79204 0.0
C491 C 0.76923 0.95386 0.78585 0.0
C492 C 0.76077 0.96431 0.7323 0.0
C493 C 0.78011 0.96203 0.68664 0.0
C494 C 0.80622 0.9282 0.84826 0.0
C495 C 0.73178 0.97907 0.72377 0.0
H496 H 0.69497 0.92594 0.90801 0.0
H497 H 0.73511 0.00805 0.93864 0.0
H498 H 0.72021 0.9152 0.7734 0.0
H499 H 0.74703 0.89776 0.81587 0.0
H500 H 0.70927 0.89524 0.83512 0.0
H501 H 0.77378 0.02528 0.88384 0.0
H502 H 0.79646 0.99733 0.85354 0.0
H503 H 0.77016 0.01555 0.811 0.0
H504 H 0.83653 0.92802 0.7515 0.0
H505 H 0.77398 0.97127 0.64646 0.0
H506 H 0.78964 0.91348 0.86619 0.0
H507 H 0.80875 0.94641 0.87806 0.0
H508 H 0.82717 0.91623 0.84535 0.0
H509 H 0.71406 0.96515 0.73985 0.0
H510 H 0.7276 0.98417 0.6789 0.0
H511 H 0.731 0.99958 0.74791 0.0
C512 C 0.54132 0.77812 0.6915 0.0
C513 C 0.55391 0.80553 0.69799 0.0
C514 C 0.53917 0.75866 0.73698 0.0
C515 C 0.54987 0.76671 0.79027 0.0
C516 C 0.56396 0.79364 0.79636 0.0
C517 C 0.56588 0.81263 0.75026 0.0
C518 C 0.52428 0.72999 0.72858 0.0
C519 C 0.57589 0.80299 0.85229 0.0
C520 C 0.51669 0.73138 0.92047 0.0
C521 C 0.53766 0.71034 0.93397 0.0
C522 C 0.52044 0.74997 0.87396 0.0
C523 C 0.54569 0.74736 0.84004 0.0
C524 C 0.56703 0.72636 0.85388 0.0
C525 C 0.5628 0.70822 0.90065 0.0
C526 C 0.49727 0.77226 0.8608 0.0
C527 C 0.5942 0.72279 0.81885 0.0
H528 H 0.53187 0.77235 0.65157 0.0
H529 H 0.57576 0.83365 0.75596 0.0
H530 H 0.53824 0.71192 0.7438 0.0
H531 H 0.50392 0.72949 0.75356 0.0
H532 H 0.51892 0.72609 0.68385 0.0
H533 H 0.58768 0.82386 0.84936 0.0
H534 H 0.55787 0.8055 0.88297 0.0
H535 H 0.59085 0.78617 0.86915 0.0
H536 H 0.49719 0.73312 0.94585 0.0
H537 H 0.57913 0.69197 0.91055 0.0
H538 H 0.48844 0.76838 0.81829 0.0
H539 H 0.50674 0.7943 0.86055 0.0
H540 H 0.4791 0.77179 0.89159 0.0
H541 H 0.58838 0.71731 0.77506 0.0
H542 H 0.60881 0.70554 0.83545 0.0
H543 H 0.60628 0.74348 0.81733 0.0
C544 C 0.79047 0.55612 0.88676 0.0
C545 C 0.78859 0.53064 0.91912 0.0
C546 C 0.77217 0.56103 0.84072 0.0
C547 C 0.7513 0.54003 0.82658 0.0
C548 C 0.7489 0.51447 0.85963 0.0
C549 C 0.76762 0.51005 0.90546 0.0
C550 C 0.77546 0.58854 0.8067 0.0
C551 C 0.72676 0.49164 0.84615 0.0
C552 C 0.68598 0.56164 0.73844 0.0
C553 C 0.69327 0.55015 0.68559 0.0
C554 C 0.70489 0.55908 0.78424 0.0
C555 C 0.73194 0.54481 0.77726 0.0
C556 C 0.74015 0.53454 0.72346 0.0
C557 C 0.72076 0.53733 0.67831 0.0
C558 C 0.69536 0.57055 0.84074 0.0
C559 C 0.76894 0.51949 0.71411 0.0
H560 H 0.80663 0.57217 0.89684 0.0
H561 H 0.76606 0.4903 0.9301 0.0
H562 H 0.78105 0.58313 0.76261 0.0
H563 H 0.75464 0.60075 0.80597 0.0
H564 H 0.79252 0.60289 0.8236 0.0
H565 H 0.72734 0.47321 0.87635 0.0
H566 H 0.70467 0.50134 0.84663 0.0
H567 H 0.73071 0.48312 0.80329 0.0
H568 H 0.6649 0.57167 0.74481 0.0
H569 H 0.72668 0.52826 0.63793 0.0
H570 H 0.71204 0.5852 0.85792 0.0
H571 H 0.69294 0.55225 0.87078 0.0
H572 H 0.67442 0.58255 0.83853 0.0
H573 H 0.78687 0.53323 0.72932 0.0
H574 H 0.77289 0.51439 0.66917 0.0
H575 H 0.76963 0.49896 0.73857 0.0
C576 C 0.97724 0.76835 0.92308 0.0
C577 C 0.95849 0.79118 0.93783 0.0
C578 C 0.97123 0.75045 0.87689 0.0
C579 C 0.94602 0.75567 0.84438 0.0
C580 C 0.92698 0.7786 0.85931 0.0
C581 C 0.93337 0.79594 0.90587 0.0
C582 C 0.99196 0.72605 0.86265 0.0
C583 C 0.90001 0.78505 0.82567 0.0
C584 C 0.94683 0.72458 0.6964 0.0
C585 C 0.93192 0.6984 0.70404 0.0
C586 C 0.95072 0.74393 0.74119 0.0
C587 C 0.93948 0.73699 0.79503 0.0
C588 C 0.92288 0.71156 0.80217 0.0
C589 C 0.91918 0.6927 0.75667 0.0
C590 C 0.96815 0.77108 0.73153 0.0
C591 C 0.91032 0.70341 0.85871 0.0
H592 H 0.99671 0.76456 0.94741 0.0
H593 H 0.91878 0.81362 0.91664 0.0
H594 H 0.98032 0.70508 0.86311 0.0
H595 H 0.00075 0.7292 0.81963 0.0
H596 H 0.01037 0.72458 0.89243 0.0
H597 H 0.88739 0.80366 0.84281 0.0
H598 H 0.90599 0.79002 0.78151 0.0
H599 H 0.88584 0.76574 0.82504 0.0
H600 H 0.95682 0.72933 0.65615 0.0
H601 H 0.90752 0.67266 0.76335 0.0
H602 H 0.98885 0.76946 0.7549 0.0
H603 H 0.95623 0.79031 0.74772 0.0
H604 H 0.97321 0.77467 0.6864 0.0
H605 H 0.92817 0.69878 0.88855 0.0
H606 H 0.89626 0.68401 0.85649 0.0
H607 H 0.89742 0.7217 0.87613 0.0
C608 C 0.20397 0.05376 0.61414 0.0
C609 C 0.20678 0.0299 0.57807 0.0
C610 C 0.22171 0.05658 0.66149 0.0
C611 C 0.24313 0.03523 0.67279 0.0
C612 C 0.24621 0.01115 0.63637 0.0
C613 C 0.22788 0.00868 0.58964 0.0
C614 C 0.21752 0.08242 0.69947 0.0
C615 C 0.26905 0.98811 0.64655 0.0
C616 C 0.3092 0.05543 0.7581 0.0
C617 C 0.30368 0.04182 0.80998 0.0
C618 C 0.28943 0.05395 0.71372 0.0
C619 C 0.26318 0.03874 0.72121 0.0
C620 C 0.25667 0.02626 0.77427 0.0
C621 C 0.27701 0.0279 0.81803 0.0
C622 C 0.29724 0.06764 0.65796 0.0
C623 C 0.22872 0.0102 0.78414 0.0
H624 H 0.18753 0.07014 0.60589 0.0
H625 H 0.23012 0.99015 0.5621 0.0
H626 H 0.21337 0.07502 0.74314 0.0
H627 H 0.23756 0.09554 0.70005 0.0
H628 H 0.19921 0.09657 0.68598 0.0
H629 H 0.26844 0.97058 0.61475 0.0
H630 H 0.29089 0.99801 0.64565 0.0
H631 H 0.26601 0.97832 0.68878 0.0
H632 H 0.3296 0.06643 0.75128 0.0
H633 H 0.27249 0.01721 0.8577 0.0
H634 H 0.27982 0.08277 0.64431 0.0
H635 H 0.29928 0.05057 0.62548 0.0
H636 H 0.31795 0.07971 0.65965 0.0
H637 H 0.20995 0.02384 0.7713 0.0
H638 H 0.22583 0.00376 0.82881 0.0
H639 H 0.22846 0.99037 0.75799 0.0
C640 C 0.44582 0.20629 0.61408 0.0
C641 C 0.47063 0.20815 0.57988 0.0
C642 C 0.44209 0.22435 0.66096 0.0
C643 C 0.46355 0.24501 0.67379 0.0
C644 C 0.48849 0.24725 0.63903 0.0
C645 C 0.49179 0.22871 0.59268 0.0
C646 C 0.41528 0.22116 0.69704 0.0
C647 C 0.51172 0.26923 0.65086 0.0
C648 C 0.4443 0.31165 0.7599 0.0
C649 C 0.45713 0.30521 0.81197 0.0
C650 C 0.44551 0.29194 0.71523 0.0
C651 C 0.45964 0.26487 0.72264 0.0
C652 C 0.47116 0.25746 0.77591 0.0
C653 C 0.46983 0.27772 0.81992 0.0
C654 C 0.43289 0.30073 0.65923 0.0
C655 C 0.48603 0.22862 0.78574 0.0
H656 H 0.42943 0.19034 0.60478 0.0
H657 H 0.51104 0.23025 0.56658 0.0
H658 H 0.42155 0.21611 0.74093 0.0
H659 H 0.40291 0.24189 0.69778 0.0
H660 H 0.40079 0.20379 0.68182 0.0
H661 H 0.52975 0.26827 0.61982 0.0
H662 H 0.50223 0.29142 0.65024 0.0
H663 H 0.52074 0.26552 0.69339 0.0
H664 H 0.43426 0.33269 0.75307 0.0
H665 H 0.47985 0.27243 0.85976 0.0
H666 H 0.4178 0.28392 0.64412 0.0
H667 H 0.45055 0.30263 0.62764 0.0
H668 H 0.42106 0.32179 0.66126 0.0
H669 H 0.472 0.21065 0.77174 0.0
H670 H 0.49156 0.2251 0.83061 0.0
H671 H 0.50631 0.22752 0.76054 0.0
C672 C 0.27109 0.48083 0.58976 0.0
C673 C 0.2941 0.46228 0.57514 0.0
C674 C 0.25357 0.47504 0.63696 0.0
C675 C 0.25945 0.45033 0.67086 0.0
C676 C 0.28268 0.43156 0.65629 0.0
C677 C 0.29957 0.43764 0.60845 0.0
C678 C 0.22872 0.49539 0.65056 0.0
C679 C 0.2899 0.40521 0.69159 0.0
C680 C 0.22693 0.45343 0.8181 0.0
C681 C 0.20101 0.43811 0.81111 0.0
C682 C 0.24692 0.45639 0.77361 0.0
C683 C 0.2408 0.44392 0.72077 0.0
C684 C 0.21573 0.42679 0.71464 0.0
C685 C 0.19632 0.42391 0.75987 0.0
C686 C 0.27375 0.47429 0.78225 0.0
C687 C 0.20834 0.41306 0.65914 0.0
H688 H 0.26676 0.49991 0.56432 0.0
H689 H 0.31749 0.4233 0.59778 0.0
H690 H 0.20803 0.48328 0.65124 0.0
H691 H 0.23168 0.5047 0.69297 0.0
H692 H 0.22682 0.51346 0.61975 0.0
H693 H 0.3089 0.39297 0.67498 0.0
H694 H 0.29457 0.41189 0.73527 0.0
H695 H 0.27105 0.39046 0.6934 0.0
H696 H 0.23093 0.46447 0.85732 0.0
H697 H 0.17655 0.41182 0.75378 0.0
H698 H 0.27181 0.49488 0.75822 0.0
H699 H 0.29321 0.46263 0.76623 0.0
H700 H 0.27715 0.47959 0.82717 0.0
H701 H 0.20334 0.4303 0.6279 0.0
H702 H 0.18937 0.39846 0.66247 0.0
H703 H 0.22709 0.40045 0.64272 0.0
C704 C 0.04872 0.29504 0.61672 0.0
C705 C 0.02437 0.29153 0.58232 0.0
C706 C 0.05319 0.27741 0.66416 0.0
C707 C 0.03301 0.25544 0.67735 0.0
C708 C 0.00859 0.25148 0.64236 0.0
C709 C 0.00448 0.26967 0.59542 0.0
C710 C 0.07938 0.28247 0.70048 0.0
C711 C 0.98677 0.22803 0.65461 0.0
C712 C 0.05589 0.19069 0.76625 0.0
C713 C 0.04213 0.19652 0.81785 0.0
C714 C 0.05376 0.21004 0.7208 0.0
C715 C 0.03774 0.23612 0.72696 0.0
C716 C 0.02533 0.24306 0.77983 0.0
C717 C 0.02763 0.22317 0.82464 0.0
C718 C 0.06746 0.20183 0.6653 0.0
C719 C 0.00848 0.2709 0.78833 0.0
H720 H 0.06413 0.31201 0.60721 0.0
H721 H 0.98561 0.26686 0.56916 0.0
H722 H 0.07238 0.28733 0.74409 0.0
H723 H 0.09303 0.26258 0.7022 0.0
H724 H 0.09287 0.30067 0.68481 0.0
H725 H 0.96905 0.22766 0.62323 0.0
H726 H 0.99771 0.20651 0.65498 0.0
H727 H 0.97708 0.23133 0.69685 0.0
H728 H 0.06735 0.17031 0.7604 0.0
H729 H 0.01686 0.22795 0.86411 0.0
H730 H 0.08148 0.21956 0.64964 0.0
H731 H 0.05026 0.19853 0.63362 0.0
H732 H 0.08069 0.18164 0.66833 0.0
H733 H 0.02137 0.28971 0.77364 0.0
H734 H 0.00239 0.27431 0.83301 0.0
H735 H 0.98839 0.27047 0.76297 0.0
C736 C 0.22253 0.03545 0.31964 0.0
C737 C 0.19585 0.04971 0.31164 0.0
C738 C 0.24289 0.03309 0.27561 0.0
C739 C 0.23636 0.04512 0.22223 0.0
C740 C 0.21022 0.06089 0.21482 0.0
C741 C 0.19044 0.06315 0.25956 0.0
C742 C 0.27079 0.01657 0.28548 0.0
C743 C 0.20238 0.07409 0.1587 0.0
C744 C 0.29551 0.05538 0.11199 0.0
C745 C 0.29214 0.03069 0.07846 0.0
C746 C 0.27785 0.06015 0.15936 0.0
C747 C 0.25599 0.03995 0.1732 0.0
C748 C 0.25225 0.01514 0.13914 0.0
C749 C 0.27049 0.01071 0.09241 0.0
C750 C 0.28273 0.0867 0.19481 0.0
C751 C 0.22891 0.99329 0.15199 0.0
H752 H 0.22704 0.02499 0.35953 0.0
H753 H 0.17006 0.07443 0.2527 0.0
H754 H 0.27064 0.99613 0.26111 0.0
H755 H 0.28958 0.02939 0.27056 0.0
H756 H 0.27396 0.01108 0.3305 0.0
H757 H 0.18212 0.08725 0.16077 0.0
H758 H 0.22016 0.08807 0.1431 0.0
H759 H 0.1994 0.0566 0.12747 0.0
H760 H 0.31236 0.07081 0.10184 0.0
H761 H 0.26779 0.99158 0.0668 0.0
H762 H 0.28726 0.08015 0.23879 0.0
H763 H 0.26286 0.10041 0.19551 0.0
H764 H 0.30105 0.1 0.17907 0.0
H765 H 0.23207 0.98413 0.19469 0.0
H766 H 0.22879 0.97519 0.1214 0.0
H767 H 0.20733 0.00411 0.15153 0.0
C768 C 0.44418 0.18844 0.25938 0.0
C769 C 0.45578 0.19475 0.31239 0.0
C770 C 0.44651 0.208 0.21433 0.0
C771 C 0.46045 0.23486 0.22229 0.0
C772 C 0.47071 0.24217 0.27636 0.0
C773 C 0.46835 0.22201 0.32074 0.0
C774 C 0.43525 0.19929 0.15747 0.0
C775 C 0.48526 0.27082 0.28677 0.0
C776 C 0.4946 0.27043 0.09346 0.0
C777 C 0.47346 0.29105 0.07861 0.0
C778 C 0.49072 0.25214 0.14032 0.0
C779 C 0.46518 0.25467 0.17339 0.0
C780 C 0.44376 0.27542 0.15851 0.0
C781 C 0.4481 0.29324 0.11126 0.0
C782 C 0.51395 0.23007 0.15443 0.0
C783 C 0.41628 0.27888 0.19266 0.0
H784 H 0.43426 0.16758 0.25217 0.0
H785 H 0.47742 0.22719 0.3613 0.0
H786 H 0.42029 0.21618 0.14086 0.0
H787 H 0.45359 0.19736 0.12736 0.0
H788 H 0.42365 0.17828 0.15885 0.0
H789 H 0.48984 0.27428 0.33197 0.0
H790 H 0.50603 0.27166 0.26312 0.0
H791 H 0.47146 0.28896 0.27133 0.0
H792 H 0.51429 0.26866 0.06862 0.0
H793 H 0.43169 0.30923 0.10038 0.0
H794 H 0.50475 0.20792 0.15352 0.0
H795 H 0.52203 0.23375 0.19757 0.0
H796 H 0.5326 0.23094 0.12479 0.0
H797 H 0.40398 0.25831 0.1927 0.0
H798 H 0.40203 0.29648 0.17625 0.0
H799 H 0.42169 0.28374 0.23694 0.0
C800 C 0.30954 0.44008 0.25506 0.0
C801 C 0.30408 0.45427 0.30619 0.0
C802 C 0.28972 0.44152 0.21065 0.0
C803 C 0.26356 0.45739 0.2173 0.0
C804 C 0.25709 0.47041 0.26973 0.0
C805 C 0.27742 0.46871 0.31357 0.0
C806 C 0.29742 0.42711 0.15568 0.0
C807 C 0.22925 0.48721 0.27874 0.0
C808 C 0.22877 0.48716 0.08377 0.0
C809 C 0.2074 0.46647 0.07332 0.0
C810 C 0.24696 0.48467 0.13086 0.0
C811 C 0.24355 0.46104 0.16862 0.0
C812 C 0.22185 0.44025 0.15848 0.0
C813 C 0.20416 0.44314 0.11094 0.0
C814 C 0.27002 0.50717 0.13994 0.0
C815 C 0.21737 0.41484 0.19774 0.0
H816 H 0.32993 0.42867 0.24883 0.0
H817 H 0.27297 0.47986 0.35266 0.0
H818 H 0.27978 0.41245 0.14261 0.0
H819 H 0.29983 0.44383 0.12237 0.0
H820 H 0.31791 0.41436 0.15819 0.0
H821 H 0.22635 0.494 0.32311 0.0
H822 H 0.22922 0.50689 0.25175 0.0
H823 H 0.21039 0.47397 0.26635 0.0
H824 H 0.23135 0.50528 0.05507 0.0
H825 H 0.18758 0.42712 0.10352 0.0
H826 H 0.29176 0.4967 0.13934 0.0
H827 H 0.26714 0.51729 0.18178 0.0
H828 H 0.26952 0.52451 0.10742 0.0
H829 H 0.23724 0.40114 0.19885 0.0
H830 H 0.19886 0.40113 0.18502 0.0
H831 H 0.21339 0.42269 0.24106 0.0
C832 C 0.00514 0.23063 0.09763 0.0
C833 C 0.02623 0.2097 0.08407 0.0
C834 C 0.00879 0.24937 0.14345 0.0
C835 C 0.03406 0.24703 0.17686 0.0
C836 C 0.05551 0.22605 0.16316 0.0
C837 C 0.05138 0.20775 0.11689 0.0
C838 C 0.98552 0.27162 0.15628 0.0
C839 C 0.08269 0.22276 0.19772 0.0
C840 C 0.0528 0.31364 0.26254 0.0
C841 C 0.04046 0.30709 0.31515 0.0
C842 C 0.05173 0.29394 0.21783 0.0
C843 C 0.03811 0.26682 0.22566 0.0
C844 C 0.02708 0.25934 0.27941 0.0
C845 C 0.02837 0.27953 0.32348 0.0
C846 C 0.06395 0.30276 0.16139 0.0
C847 C 0.01268 0.23052 0.28972 0.0
H848 H 0.98564 0.23227 0.0726 0.0
H849 H 0.06776 0.19155 0.10698 0.0
H850 H 0.97682 0.26802 0.19924 0.0
H851 H 0.99486 0.29371 0.15516 0.0
H852 H 0.96728 0.27082 0.12609 0.0
H853 H 0.0973 0.20541 0.18154 0.0
H854 H 0.09473 0.24347 0.19803 0.0
H855 H 0.07689 0.21758 0.24188 0.0
H856 H 0.06236 0.33474 0.25542 0.0
H857 H 0.01872 0.27414 0.36373 0.0
H858 H 0.04607 0.30498 0.13064 0.0
H859 H 0.07901 0.2858 0.14538 0.0
H860 H 0.0757 0.32366 0.16318 0.0
H861 H 0.99228 0.2295 0.26537 0.0
H862 H 0.00746 0.22695 0.3348 0.0
H863 H 0.02688 0.21253 0.27505 0.0
C864 C 0.7205 0.96473 0.1883 0.0
C865 C 0.69281 0.95285 0.19596 0.0
C866 C 0.73974 0.96747 0.23357 0.0
C867 C 0.73115 0.95813 0.28789 0.0
C868 C 0.70382 0.94493 0.29541 0.0
C869 C 0.68508 0.94236 0.24948 0.0
C870 C 0.76885 0.98136 0.22369 0.0
C871 C 0.69388 0.93449 0.35249 0.0
C872 C 0.7891 0.94487 0.39818 0.0
C873 C 0.78787 0.97056 0.42959 0.0
C874 C 0.77079 0.94055 0.35216 0.0
C875 C 0.75058 0.96241 0.33703 0.0
C876 C 0.74883 0.98823 0.36907 0.0
C877 C 0.76753 0.99202 0.41497 0.0
C878 C 0.77335 0.91272 0.31929 0.0
C879 C 0.72742 0.01199 0.35443 0.0
H880 H 0.72674 0.97305 0.1474 0.0
H881 H 0.66383 0.93309 0.25617 0.0
H882 H 0.77001 0.00197 0.24738 0.0
H883 H 0.78645 0.967 0.23944 0.0
H884 H 0.77292 0.98608 0.17856 0.0
H885 H 0.67252 0.92358 0.3509 0.0
H886 H 0.71002 0.91913 0.37044 0.0
H887 H 0.69213 0.95315 0.38157 0.0
H888 H 0.80475 0.92813 0.40902 0.0
H889 H 0.76651 0.01195 0.43884 0.0
H890 H 0.77907 0.91762 0.27497 0.0
H891 H 0.75223 0.9014 0.31909 0.0
H892 H 0.79004 0.89775 0.33677 0.0
H893 H 0.73169 0.02003 0.31123 0.0
H894 H 0.7285 0.03056 0.38383 0.0
H895 H 0.70506 0.00332 0.35514 0.0
C896 C 0.51601 0.76651 0.41927 0.0
C897 C 0.53635 0.78776 0.43278 0.0
C898 C 0.52053 0.74789 0.37331 0.0
C899 C 0.54595 0.75066 0.33998 0.0
C900 C 0.56667 0.77185 0.35386 0.0
C901 C 0.56166 0.79005 0.40004 0.0
C902 C 0.49799 0.72543 0.36008 0.0
C903 C 0.59401 0.77556 0.31948 0.0
C904 C 0.56804 0.6854 0.25203 0.0
C905 C 0.5562 0.69241 0.19936 0.0
C906 C 0.56549 0.70443 0.29768 0.0
C907 C 0.55089 0.7313 0.2907 0.0
C908 C 0.54031 0.73926 0.23701 0.0
C909 C 0.5431 0.71976 0.19202 0.0
C910 C 0.57731 0.69519 0.35405 0.0
C911 C 0.52488 0.76787 0.22766 0.0
H912 H 0.49639 0.76464 0.4442 0.0
H913 H 0.57751 0.80644 0.40998 0.0
H914 H 0.48936 0.72919 0.31725 0.0
H915 H 0.50798 0.70346 0.3606 0.0
H916 H 0.4796 0.72581 0.39039 0.0
H917 H 0.6081 0.79291 0.3361 0.0
H918 H 0.60656 0.75494 0.31873 0.0
H919 H 0.58838 0.78097 0.27542 0.0
H920 H 0.5783 0.66442 0.25842 0.0
H921 H 0.53377 0.72548 0.15176 0.0
H922 H 0.55917 0.6925 0.38435 0.0
H923 H 0.59173 0.71214 0.37095 0.0
H924 H 0.58965 0.67443 0.35177 0.0
H925 H 0.50436 0.76829 0.25216 0.0
H926 H 0.51971 0.77171 0.18272 0.0
H927 H 0.53837 0.786 0.2428 0.0
C928 C 0.7108 0.5577 0.38737 0.0
C929 C 0.71222 0.53221 0.41982 0.0
C930 C 0.72917 0.56192 0.34088 0.0
C931 C 0.74964 0.54017 0.32636 0.0
C932 C 0.75156 0.51457 0.35947 0.0
C933 C 0.73279 0.51088 0.40575 0.0
C934 C 0.72639 0.58951 0.30684 0.0
C935 C 0.77324 0.49094 0.3456 0.0
C936 C 0.78025 0.53609 0.17754 0.0
C937 C 0.80801 0.54784 0.18427 0.0
C938 C 0.76075 0.53415 0.22303 0.0
C939 C 0.76911 0.54421 0.27663 0.0
C940 C 0.79646 0.55743 0.28305 0.0
C941 C 0.81549 0.55914 0.23692 0.0
C942 C 0.73164 0.5202 0.21425 0.0
C943 C 0.80617 0.56866 0.33928 0.0
H944 H 0.69494 0.57433 0.39774 0.0
H945 H 0.734 0.4911 0.43044 0.0
H946 H 0.74744 0.60096 0.30562 0.0
H947 H 0.72068 0.58426 0.26289 0.0
H948 H 0.70962 0.60447 0.32407 0.0
H949 H 0.77229 0.47255 0.37583 0.0
H950 H 0.76914 0.48255 0.30282 0.0
H951 H 0.79551 0.49983 0.34563 0.0
H952 H 0.77417 0.52718 0.13731 0.0
H953 H 0.83678 0.56836 0.24287 0.0
H954 H 0.71401 0.53463 0.22976 0.0
H955 H 0.7305 0.49972 0.23877 0.0
H956 H 0.72761 0.51523 0.1694 0.0
H957 H 0.78977 0.58393 0.35667 0.0
H958 H 0.82734 0.57991 0.33662 0.0
H959 H 0.80823 0.55034 0.36941 0.0
C960 C 0.93566 0.81357 0.25899 0.0
C961 C 0.94797 0.8067 0.20655 0.0
C962 C 0.93766 0.79436 0.30475 0.0
C963 C 0.95226 0.76747 0.2982 0.0
C964 C 0.96355 0.75976 0.24483 0.0
C965 C 0.96124 0.77942 0.19965 0.0
C966 C 0.92501 0.80333 0.36071 0.0
C967 C 0.979 0.73115 0.23596 0.0
C968 C 0.98258 0.7309 0.42989 0.0
C969 C 0.96116 0.71036 0.44186 0.0
C970 C 0.98008 0.74955 0.38305 0.0
C971 C 0.95565 0.74751 0.34735 0.0
C972 C 0.93402 0.72682 0.35937 0.0
C973 C 0.937 0.70862 0.40637 0.0
C974 C 0.00356 0.77144 0.3717 0.0
C975 C 0.90767 0.72386 0.3225 0.0
H976 H 0.92527 0.8345 0.26497 0.0
H977 H 0.97103 0.77389 0.15961 0.0
H978 H 0.90965 0.78668 0.37617 0.0
H979 H 0.94256 0.80497 0.39215 0.0
H980 H 0.91343 0.82452 0.3584 0.0
H981 H 0.98524 0.72773 0.19136 0.0
H982 H 0.99889 0.73029 0.26191 0.0
H983 H 0.96502 0.71298 0.24974 0.0
H984 H 0.00134 0.73232 0.45689 0.0
H985 H 0.92033 0.69276 0.415 0.0
H986 H 0.9942 0.79368 0.37226 0.0
H987 H 0.01296 0.76794 0.32929 0.0
H988 H 0.02127 0.77015 0.40305 0.0
H989 H 0.89529 0.74458 0.32161 0.0
H990 H 0.893 0.70637 0.33715 0.0
H991 H 0.91448 0.71911 0.27874 0.0
C992 C 0.43911 0.00945 0.04537 0.0
C993 C 0.42623 0.01885 0.99524 0.0
C994 C 0.46916 0.00429 0.0484 0.0
C995 C 0.48646 0.00722 0.99941 0.0
C996 C 0.47355 0.01682 0.94879 0.0
C997 C 0.4438 0.02341 0.94785 0.0
C998 C 0.48234 0.99556 0.10389 0.0
C999 C 0.49096 0.01928 0.89511 0.0
C1000 C 0.56824 0.01551 0.00762 0.0
C1001 C 0.57782 0.98676 1.00215 0.0
C1002 C 0.53855 0.02237 0.0085 0.0
C1003 C 0.51803 9e-05 1.0008 0.0
C1004 C 0.52772 0.97107 0.99348 0.0
C1005 C 0.55756 0.96464 0.99581 0.0
C1006 C 0.52916 0.05332 0.01922 0.0
C1007 C 0.50663 0.94691 0.98246 0.0
H1008 H 0.42569 0.00623 0.08233 0.0
H1009 H 0.43421 0.03108 0.90918 0.0
H1010 H 0.49084 0.97304 0.10144 0.0
H1011 H 0.5009 0.0098 0.11368 0.0
H1012 H 0.46641 0.99676 0.13895 0.0
H1013 H 0.47738 0.02582 0.85874 0.0
H1014 H 0.50843 0.03542 0.90007 0.0
H1015 H 0.50152 0.99815 0.88555 0.0
H1016 H 0.58401 0.03254 0.01324 0.0
H1017 H 0.56511 0.94243 0.99154 0.0
H1018 H 0.51646 0.05433 0.05887 0.0
H1019 H 0.51484 0.06126 0.98513 0.0
H1020 H 0.54786 0.06822 0.02262 0.0
H1021 H 0.49189 0.94419 0.01897 0.0
H1022 H 0.51779 0.92589 0.97439 0.0
H1023 H 0.49298 0.95245 0.94564 0.0
C1024 C 0.48023 0.44394 0.95404 0.0
C1025 C 0.48563 0.42548 0.9998 0.0
C1026 C 0.4875 0.47342 0.95592 0.0
C1027 C 0.49879 0.48514 0.006 0.0
C1028 C 0.50268 0.46696 0.0535 0.0
C1029 C 0.4967 0.4372 0.0494 0.0
C1030 C 0.48389 0.4918 0.90374 0.0
C1031 C 0.5133 0.47888 0.10853 0.0
C1032 C 0.54211 0.55514 1.00103 0.0
C1033 C 0.52044 0.57586 0.01118 0.0
C1034 C 0.53529 0.5255 0.99806 0.0
C1035 C 0.50642 0.51645 0.00855 0.0
C1036 C 0.48468 0.53742 0.02045 0.0
C1037 C 0.49183 0.56692 0.02004 0.0
C1038 C 0.55879 0.50394 0.98267 0.0
C1039 C 0.45401 0.52869 0.03464 0.0
H1040 H 0.47133 0.43521 0.91584 0.0
H1041 H 0.50062 0.42309 0.08513 0.0
H1042 H 0.46828 0.50973 0.91179 0.0
H1043 H 0.50492 0.50179 0.89217 0.0
H1044 H 0.47607 0.47907 0.86745 0.0
H1045 H 0.51292 0.46238 0.14265 0.0
H1046 H 0.53581 0.48677 0.10359 0.0
H1047 H 0.49968 0.49768 0.12142 0.0
H1048 H 0.56419 0.5622 0.99392 0.0
H1049 H 0.47512 0.58305 0.02823 0.0
H1050 H 0.55213 0.49127 0.94545 0.0
H1051 H 0.56216 0.48832 0.01759 0.0
H1052 H 0.57976 0.51463 0.97311 0.0
H1053 H 0.44459 0.51608 0.9998 0.0
H1054 H 0.43971 0.5477 0.04308 0.0
H1055 H 0.45406 0.51446 0.07235 0.0
C1056 C 0.94389 0.53209 0.98284 0.0
C1057 C 0.9234 0.5102 0.99041 0.0
C1058 C 0.97364 0.52531 0.97907 0.0
C1059 C 0.98306 0.49614 0.98595 0.0
C1060 C 0.96231 0.47409 0.99482 0.0
C1061 C 0.93269 0.48132 0.99556 0.0
C1062 C 0.99495 0.5493 0.96751 0.0
C1063 C 0.9714 0.44297 0.00489 0.0
C1064 C 0.05773 0.47244 0.93366 0.0
C1065 C 0.0746 0.47573 0.9819 0.0
C1066 C 0.028 0.47946 0.9341 0.0
C1067 C 0.0146 0.48872 0.98467 0.0
C1068 C 0.03139 0.49092 0.03407 0.0
C1069 C 0.0613 0.48501 0.03176 0.0
C1070 C 0.01115 0.47782 0.88008 0.0
C1071 C 0.01778 0.49961 0.08934 0.0
H1072 H 0.93657 0.5544 0.9788 0.0
H1073 H 0.91677 0.46446 1.00213 0.0
H1074 H 0.00941 0.552 0.00411 0.0
H1075 H 0.00888 0.54362 0.93098 0.0
H1076 H 0.98398 0.57037 0.95881 0.0
H1077 H 0.95256 0.42854 0.0121 0.0
H1078 H 0.98399 0.43473 0.96845 0.0
H1079 H 0.98575 0.44165 0.04208 0.0
H1080 H 0.06793 0.46547 0.89496 0.0
H1081 H 0.07433 0.4875 0.06914 0.0
H1082 H 0.00167 0.49942 0.87001 0.0
H1083 H 0.9929 0.4625 0.88486 0.0
H1084 H 0.02488 0.47073 0.84415 0.0
H1085 H 0.00928 0.52213 0.08646 0.0
H1086 H 0.03342 0.49837 0.12458 0.0
H1087 H 0.99914 0.48536 0.09918 0.0
C1088 C 0.00681 0.06198 0.05578 0.0
C1089 C 0.01562 0.07466 0.00495 0.0
C1090 C 0.00163 0.03201 0.05971 0.0
C1091 C 0.00373 0.01465 0.01091 0.0
C1092 C 0.01264 0.0274 0.95954 0.0
C1093 C 0.01947 0.057 0.95773 0.0
C1094 C 0.99384 0.01896 0.11598 0.0
C1095 C 0.01419 0.00998 0.90606 0.0
C1096 C 0.01147 0.93255 0.01896 0.0
C1097 C 0.98257 0.92373 0.01567 0.0
C1098 C 0.01862 0.96209 0.01925 0.0
C1099 C 0.99638 0.98323 0.01321 0.0
C1100 C 0.96716 0.97428 0.00809 0.0
C1101 C 0.96053 0.94458 0.01099 0.0
C1102 C 0.04982 0.97061 0.02781 0.0
C1103 C 0.943 0.996 0.99855 0.0
H1104 H 0.00417 0.07548 0.09261 0.0
H1105 H 0.02675 0.0664 0.91856 0.0
H1106 H 0.97125 0.01094 0.11523 0.0
H1107 H 0.00816 7e-05 0.12508 0.0
H1108 H 0.99576 0.03483 0.15065 0.0
H1109 H 0.0199 0.02353 0.86899 0.0
H1110 H 0.03058 0.99239 0.91016 0.0
H1111 H 0.99298 0.99958 0.89824 0.0
H1112 H 0.02844 0.9163 0.02315 0.0
H1113 H 0.9382 0.93761 0.00827 0.0
H1114 H 0.05193 0.98128 0.06923 0.0
H1115 H 0.05683 0.98645 0.99544 0.0
H1116 H 0.0648 0.95164 0.02654 0.0
H1117 H 0.94111 0.01077 0.03498 0.0
H1118 H 0.92174 0.98539 0.99219 0.0
H1119 H 0.94795 0.00957 0.96113 0.0
C1120 C 0.05512 0.03116 0.45028 0.0
C1121 C 0.07269 0.02501 0.49675 0.0
C1122 C 0.02563 0.02392 0.45039 0.0
C1123 C 0.01293 0.01209 0.49955 0.0
C1124 C 0.03012 0.00779 0.54802 0.0
C1125 C 0.05995 0.01362 0.54557 0.0
C1126 C 0.00836 0.02786 0.39717 0.0
C1127 C 0.01709 0.99671 0.60222 0.0
C1128 C 0.93093 0.01777 0.51022 0.0
C1129 C 0.92261 0.989 0.50149 0.0
C1130 C 0.96027 0.02543 0.51127 0.0
C1131 C 0.98172 0.00407 0.50011 0.0
C1132 C 0.97331 0.97511 0.48927 0.0
C1133 C 0.9438 0.96774 0.49169 0.0
C1134 C 0.9683 0.05617 0.52578 0.0
C1135 C 0.99544 0.95204 0.47449 0.0
H1136 H 0.06461 0.04044 0.41276 0.0
H1137 H 0.07336 0.00918 0.58189 0.0
H1138 H 0.99927 0.00673 0.38419 0.0
H1139 H 0.98982 0.04284 0.40452 0.0
H1140 H 0.02168 0.03658 0.36205 0.0
H1141 H 0.03277 0.99721 0.63742 0.0
H1142 H 0.99778 0.00995 0.61381 0.0
H1143 H 0.00974 0.97407 0.59678 0.0
H1144 H 0.91444 0.03415 0.51817 0.0
H1145 H 0.93721 0.94554 0.48468 0.0
H1146 H 0.98141 0.06595 0.49156 0.0
H1147 H 0.98184 0.05613 0.56416 0.0
H1148 H 0.94896 0.07017 0.53326 0.0
H1149 H 0.00892 0.95937 0.43846 0.0
H1150 H 0.9852 0.93112 0.46345 0.0
H1151 H 0.01023 0.94828 0.51037 0.0
C1152 C 0.48633 0.93108 0.51739 0.0
C1153 C 0.51507 0.92204 0.50885 0.0
C1154 C 0.47891 0.96065 0.51847 0.0
C1155 C 0.50055 0.98161 0.5078 0.0
C1156 C 0.52952 0.97246 0.49743 0.0
C1157 C 0.53658 0.94273 0.49964 0.0
C1158 C 0.44811 0.96945 0.53252 0.0
C1159 C 0.55293 0.994 0.48313 0.0
C1160 C 0.47466 0.05536 0.45541 0.0
C1161 C 0.48024 0.07317 0.50159 0.0
C1162 C 0.48167 0.02568 0.45654 0.0
C1163 C 0.49277 0.01306 0.50635 0.0
C1164 C 0.49665 0.03057 0.55439 0.0
C1165 C 0.49102 0.06055 0.55099 0.0
C1166 C 0.47809 0.00806 0.40378 0.0
C1167 C 0.50698 0.01769 0.6092 0.0
H1168 H 0.46977 0.91497 0.52507 0.0
H1169 H 0.55878 0.9356 0.4929 0.0
H1170 H 0.43915 0.98392 0.49951 0.0
H1171 H 0.43362 0.95047 0.53729 0.0
H1172 H 0.44784 0.98181 0.57238 0.0
H1173 H 0.57395 0.98324 0.47309 0.0
H1174 H 0.54623 0.00743 0.44654 0.0
H1175 H 0.55621 0.00893 0.51882 0.0
H1176 H 0.4659 0.06473 0.41738 0.0
H1177 H 0.49504 0.07414 0.58708 0.0
H1178 H 0.46245 0.99031 0.4112 0.0
H1179 H 0.49912 0.99786 0.39198 0.0
H1180 H 0.47033 0.02141 0.36786 0.0
H1181 H 0.4934 0.99884 0.62104 0.0
H1182 H 0.50626 0.03368 0.64392 0.0
H1183 H 0.52958 0.00966 0.60451 0.0
C1184 C 0.56821 0.48665 0.50172 0.0
C1185 C 0.57725 0.51544 0.4961 0.0
C1186 C 0.53866 0.4797 0.50271 0.0
C1187 C 0.51769 0.50194 0.49499 0.0
C1188 C 0.52681 0.53105 0.48796 0.0
C1189 C 0.55654 0.53755 0.49009 0.0
C1190 C 0.52989 0.44863 0.51301 0.0
C1191 C 0.50522 0.55521 0.47731 0.0
C1192 C 0.44426 0.47794 0.44121 0.0
C1193 C 0.4266 0.48123 0.48887 0.0
C1194 C 0.47372 0.48532 0.44229 0.0
C1195 C 0.48628 0.4946 0.49317 0.0
C1196 C 0.46887 0.49657 0.5422 0.0
C1197 C 0.43909 0.4905 0.53914 0.0
C1198 C 0.49123 0.48384 0.3886 0.0
C1199 C 0.48169 0.50508 0.59786 0.0
H1200 H 0.58431 0.46961 0.50716 0.0
H1201 H 0.56366 0.5598 0.48574 0.0
H1202 H 0.51564 0.44739 0.55061 0.0
H1203 H 0.51731 0.44046 0.47694 0.0
H1204 H 0.54888 0.43405 0.51961 0.0
H1205 H 0.51591 0.57643 0.47025 0.0
H1206 H 0.49193 0.55011 0.43997 0.0
H1207 H 0.49016 0.55729 0.51352 0.0
H1208 H 0.43494 0.47053 0.40235 0.0
H1209 H 0.42559 0.49282 0.57626 0.0
H1210 H 0.50911 0.46779 0.39307 0.0
H1211 H 0.50124 0.5052 0.37982 0.0
H1212 H 0.47784 0.4777 0.35197 0.0
H1213 H 0.50046 0.49078 0.60792 0.0
H1214 H 0.46567 0.5037 0.63273 0.0
H1215 H 0.48985 0.5276 0.59549 0.0
C1216 C 0.00016 0.56633 0.54621 0.0
C1217 C 0.97284 0.57642 0.52931 0.0
C1218 C 0.00729 0.53672 0.54417 0.0
C1219 C 0.9869 0.51685 0.52285 0.0
C1220 C 0.95925 0.52705 0.5054 0.0
C1221 C 0.95235 0.55676 0.50982 0.0
C1222 C 0.03657 0.52673 0.56513 0.0
C1223 C 0.93728 0.50672 0.48074 0.0
C1224 C 0.01636 0.44541 0.46565 0.0
C1225 C 0.0083 0.4258 0.50797 0.0
C1226 C 0.00929 0.47504 0.4697 0.0
C1227 C 0.99468 0.48548 0.51813 0.0
C1228 C 0.98753 0.46594 0.56198 0.0
C1229 C 0.99408 0.4363 0.55604 0.0
C1230 C 0.01691 0.49508 0.42162 0.0
C1231 C 0.97278 0.47631 0.61502 0.0
H1232 H 0.01592 0.58168 0.56151 0.0
H1233 H 0.93134 0.56476 0.49628 0.0
H1234 H 0.03366 0.51219 0.60196 0.0
H1235 H 0.04813 0.51407 0.53233 0.0
H1236 H 0.05045 0.54515 0.57762 0.0
H1237 H 0.91702 0.51814 0.46816 0.0
H1238 H 0.94665 0.49578 0.44333 0.0
H1239 H 0.93174 0.48954 0.51163 0.0
H1240 H 0.02743 0.43752 0.42849 0.0
H1241 H 0.98796 0.42128 0.5891 0.0
H1242 H 0.03151 0.5124 0.43638 0.0
H1243 H 0.99698 0.50581 0.40554 0.0
H1244 H 0.02772 0.48346 0.38643 0.0
H1245 H 0.98563 0.49382 0.63443 0.0
H1246 H 0.96993 0.45859 0.64627 0.0
H1247 H 0.95115 0.48558 0.60494 0.0
loop_
_geom_bond_atom_site_label_1
_geom_bond_atom_site_label_2
_geom_bond_distance
_geom_bond_site_symmetry_2
_ccdc_geom_bond_type
Co0 O1 2.216 1_545 S
Co0 O2 2.091 . S
Co0 O4 2.004 . S
Co0 O10 2.021 1_545 S
Co0 O12 2.137 1_545 S
Co0 O13 2.244 1_545 S
O1 Co0 2.216 1_565 S
O1 C8 1.247 1_564 S
O2 Co0 2.091 . S
O2 C8 1.261 1_554 S
C3 O12 1.247 . S
C3 O13 1.272 . S
O4 Co0 2.004 . S
O4 C9 1.259 . S
Co5 O6 2.061 1_565 S
Co5 O11 2.052 . S
Co5 O13 2.135 . S
O6 Co5 2.061 1_545 S
O6 C9 1.235 . S
C7 O10 1.238 . S
C7 O11 1.241 . S
C8 O1 1.247 1_546 S
C8 O2 1.261 1_556 S
C9 O4 1.259 . S
C9 O6 1.235 . S
O10 Co0 2.021 1_565 S
O10 C7 1.238 . S
O11 Co5 2.052 . S
O11 C7 1.241 . S
O12 Co0 2.137 1_565 S
O12 C3 1.247 . S
O13 Co0 2.244 1_565 S
O13 C3 1.272 . S
O13 Co5 2.135 . S
Co14 O15 2.216 . S
Co14 O16 2.091 . S
Co14 O18 2.004 . S
Co14 O24 2.021 . S
Co14 O26 2.137 . S
Co14 O27 2.244 . S
O15 Co14 2.216 . S
O15 C22 1.247 1_554 S
O16 Co14 2.091 . S
O16 C22 1.261 1_554 S
C17 O26 1.247 . S
C17 O27 1.272 . S
O18 Co14 2.004 . S
O18 C23 1.259 . S
Co19 O20 2.061 . S
Co19 O25 2.052 . S
Co19 O27 2.135 . S
O20 Co19 2.061 . S
O20 C23 1.235 . S
C21 O24 1.238 . S
C21 O25 1.241 . S
C22 O15 1.247 1_556 S
C22 O16 1.261 1_556 S
C23 O18 1.259 . S
C23 O20 1.235 . S
O24 Co14 2.021 . S
O24 C21 1.238 . S
O25 Co19 2.052 . S
O25 C21 1.241 . S
O26 Co14 2.137 . S
O26 C17 1.247 . S
O27 Co14 2.244 . S
O27 C17 1.272 . S
O27 Co19 2.135 . S
Co28 O29 2.216 . S
Co28 O30 2.091 . S
Co28 O32 2.004 . S
Co28 O38 2.021 . S
Co28 O40 2.137 . S
Co28 O41 2.244 . S
O29 Co28 2.216 . S
O29 C36 1.247 1_554 S
O30 Co28 2.091 . S
O30 C36 1.261 1_554 S
C31 O40 1.247 . S
C31 O41 1.272 . S
O32 Co28 2.004 . S
O32 C37 1.259 . S
Co33 O34 2.061 . S
Co33 O39 2.052 . S
Co33 O41 2.135 . S
O34 Co33 2.061 . S
O34 C37 1.235 . S
C35 O38 1.238 . S
C35 O39 1.241 . S
C36 O29 1.247 1_556 S
C36 O30 1.261 1_556 S
C37 O32 1.259 . S
C37 O34 1.235 . S
O38 Co28 2.021 . S
O38 C35 1.238 . S
O39 Co33 2.052 . S
O39 C35 1.241 . S
O40 Co28 2.137 . S
O40 C31 1.247 . S
O41 Co28 2.244 . S
O41 C31 1.272 . S
O41 Co33 2.135 . S
Co42 O43 2.216 1_455 S
Co42 O44 2.091 . S
Co42 O46 2.004 . S
Co42 O52 2.021 1_455 S
Co42 O54 2.137 1_455 S
Co42 O55 2.244 1_455 S
O43 Co42 2.216 1_655 S
O43 C50 1.247 1_654 S
O44 Co42 2.091 . S
O44 C50 1.261 1_554 S
C45 O54 1.247 . S
C45 O55 1.272 . S
O46 Co42 2.004 . S
O46 C51 1.259 . S
Co47 O48 2.061 1_655 S
Co47 O53 2.052 . S
Co47 O55 2.135 . S
O48 Co47 2.061 1_455 S
O48 C51 1.235 . S
C49 O52 1.238 . S
C49 O53 1.241 . S
C50 O43 1.247 1_456 S
C50 O44 1.261 1_556 S
C51 O46 1.259 . S
C51 O48 1.235 . S
O52 Co42 2.021 1_655 S
O52 C49 1.238 . S
O53 Co47 2.052 . S
O53 C49 1.241 . S
O54 Co42 2.137 1_655 S
O54 C45 1.247 . S
O55 Co42 2.244 1_655 S
O55 C45 1.272 . S
O55 Co47 2.135 . S
Co56 O57 2.216 1_565 S
Co56 O58 2.091 . S
Co56 O60 2.004 . S
Co56 O66 2.021 1_565 S
Co56 O68 2.137 1_565 S
Co56 O69 2.244 1_565 S
O57 Co56 2.216 1_545 S
O57 C64 1.247 1_545 S
O58 Co56 2.091 . S
O58 C64 1.261 . S
C59 O68 1.247 . S
C59 O69 1.272 . S
O60 Co56 2.004 . S
O60 C65 1.259 . S
Co61 O62 2.061 1_545 S
Co61 O67 2.052 . S
Co61 O69 2.135 . S
O62 Co61 2.061 1_565 S
O62 C65 1.235 . S
C63 O66 1.238 . S
C63 O67 1.241 . S
C64 O57 1.247 1_565 S
C64 O58 1.261 . S
C65 O60 1.259 . S
C65 O62 1.235 . S
O66 Co56 2.021 1_545 S
O66 C63 1.238 . S
O67 Co61 2.052 . S
O67 C63 1.241 . S
O68 Co56 2.137 1_545 S
O68 C59 1.247 . S
O69 Co56 2.244 1_545 S
O69 C59 1.272 . S
O69 Co61 2.135 . S
Co70 O71 2.216 . S
Co70 O72 2.091 . S
Co70 O74 2.004 . S
Co70 O80 2.021 . S
Co70 O82 2.137 . S
Co70 O83 2.244 . S
O71 Co70 2.216 . S
O71 C78 1.247 . S
O72 Co70 2.091 . S
O72 C78 1.261 . S
C73 O82 1.247 . S
C73 O83 1.272 . S
O74 Co70 2.004 . S
O74 C79 1.259 . S
Co75 O76 2.061 . S
Co75 O81 2.052 . S
Co75 O83 2.135 . S
O76 Co75 2.061 . S
O76 C79 1.235 . S
C77 O80 1.238 . S
C77 O81 1.241 . S
C78 O71 1.247 . S
C78 O72 1.261 . S
C79 O74 1.259 . S
C79 O76 1.235 . S
O80 Co70 2.021 . S
O80 C77 1.238 . S
O81 Co75 2.052 . S
O81 C77 1.241 . S
O82 Co70 2.137 . S
O82 C73 1.247 . S
O83 Co70 2.244 . S
O83 C73 1.272 . S
O83 Co75 2.135 . S
Co84 O85 2.216 . S
Co84 O86 2.091 . S
Co84 O88 2.004 . S
Co84 O94 2.021 . S
Co84 O96 2.137 . S
Co84 O97 2.244 . S
O85 Co84 2.216 . S
O85 C92 1.247 . S
O86 Co84 2.091 . S
O86 C92 1.261 . S
C87 O96 1.247 . S
C87 O97 1.272 . S
O88 Co84 2.004 . S
O88 C93 1.259 . S
Co89 O90 2.061 . S
Co89 O95 2.052 . S
Co89 O97 2.135 . S
O90 Co89 2.061 . S
O90 C93 1.235 . S
C91 O94 1.238 . S
C91 O95 1.241 . S
C92 O85 1.247 . S
C92 O86 1.261 . S
C93 O88 1.259 . S
C93 O90 1.235 . S
O94 Co84 2.021 . S
O94 C91 1.238 . S
O95 Co89 2.052 . S
O95 C91 1.241 . S
O96 Co84 2.137 . S
O96 C87 1.247 . S
O97 Co84 2.244 . S
O97 C87 1.272 . S
O97 Co89 2.135 . S
Co98 O99 2.216 1_655 S
Co98 O100 2.091 . S
Co98 O102 2.004 . S
Co98 O108 2.021 1_655 S
Co98 O110 2.137 1_655 S
Co98 O111 2.244 1_655 S
O99 Co98 2.216 1_455 S
O99 C106 1.247 1_455 S
O100 Co98 2.091 . S
O100 C106 1.261 . S
C101 O110 1.247 . S
C101 O111 1.272 . S
O102 Co98 2.004 . S
O102 C107 1.259 . S
Co103 O104 2.061 1_455 S
Co103 O109 2.052 . S
Co103 O111 2.135 . S
O104 Co103 2.061 1_655 S
O104 C107 1.235 . S
C105 O108 1.238 . S
C105 O109 1.241 . S
C106 O99 1.247 1_655 S
C106 O100 1.261 . S
C107 O102 1.259 . S
C107 O104 1.235 . S
O108 Co98 2.021 1_455 S
O108 C105 1.238 . S
O109 Co103 2.052 . S
O109 C105 1.241 . S
O110 Co98 2.137 1_455 S
O110 C101 1.247 . S
O111 Co98 2.244 1_455 S
O111 C101 1.272 . S
O111 Co103 2.135 . S
Co112 O113 2.216 1_565 S
Co112 O114 2.091 . S
Co112 O116 2.004 . S
Co112 O122 2.021 1_565 S
Co112 O124 2.137 1_565 S
Co112 O125 2.244 1_565 S
O113 Co112 2.216 1_545 S
O113 C120 1.247 1_546 S
O114 Co112 2.091 . S
O114 C120 1.261 1_556 S
C115 O124 1.247 . S
C115 O125 1.272 . S
O116 Co112 2.004 . S
O116 C121 1.259 . S
Co117 O118 2.061 1_545 S
Co117 O123 2.052 . S
Co117 O125 2.135 . S
O118 Co117 2.061 1_565 S
O118 C121 1.235 . S
C119 O122 1.238 . S
C119 O123 1.241 . S
C120 O113 1.247 1_564 S
C120 O114 1.261 1_554 S
C121 O116 1.259 . S
C121 O118 1.235 . S
O122 Co112 2.021 1_545 S
O122 C119 1.238 . S
O123 Co117 2.052 . S
O123 C119 1.241 . S
O124 Co112 2.137 1_545 S
O124 C115 1.247 . S
O125 Co112 2.244 1_545 S
O125 C115 1.272 . S
O125 Co117 2.135 . S
Co126 O127 2.216 . S
Co126 O128 2.091 . S
Co126 O130 2.004 . S
Co126 O136 2.021 . S
Co126 O138 2.137 . S
Co126 O139 2.244 . S
O127 Co126 2.216 . S
O127 C134 1.247 1_556 S
O128 Co126 2.091 . S
O128 C134 1.261 1_556 S
C129 O138 1.247 . S
C129 O139 1.272 . S
O130 Co126 2.004 . S
O130 C135 1.259 . S
Co131 O132 2.061 . S
Co131 O137 2.052 . S
Co131 O139 2.135 . S
O132 Co131 2.061 . S
O132 C135 1.235 . S
C133 O136 1.238 . S
C133 O137 1.241 . S
C134 O127 1.247 1_554 S
C134 O128 1.261 1_554 S
C135 O130 1.259 . S
C135 O132 1.235 . S
O136 Co126 2.021 . S
O136 C133 1.238 . S
O137 Co131 2.052 . S
O137 C133 1.241 . S
O138 Co126 2.137 . S
O138 C129 1.247 . S
O139 Co126 2.244 . S
O139 C129 1.272 . S
O139 Co131 2.135 . S
Co140 O141 2.216 . S
Co140 O142 2.091 . S
Co140 O144 2.004 . S
Co140 O150 2.021 . S
Co140 O152 2.137 . S
Co140 O153 2.244 . S
O141 Co140 2.216 . S
O141 C148 1.247 1_556 S
O142 Co140 2.091 . S
O142 C148 1.261 1_556 S
C143 O152 1.247 . S
C143 O153 1.272 . S
O144 Co140 2.004 . S
O144 C149 1.259 . S
Co145 O146 2.061 . S
Co145 O151 2.052 . S
Co145 O153 2.135 . S
O146 Co145 2.061 . S
O146 C149 1.235 . S
C147 O150 1.238 . S
C147 O151 1.241 . S
C148 O141 1.247 1_554 S
C148 O142 1.261 1_554 S
C149 O144 1.259 . S
C149 O146 1.235 . S
O150 Co140 2.021 . S
O150 C147 1.238 . S
O151 Co145 2.052 . S
O151 C147 1.241 . S
O152 Co140 2.137 . S
O152 C143 1.247 . S
O153 Co140 2.244 . S
O153 C143 1.272 . S
O153 Co145 2.135 . S
Co154 O155 2.216 1_655 S
Co154 O156 2.091 . S
Co154 O158 2.004 . S
Co154 O164 2.021 1_655 S
Co154 O166 2.137 1_655 S
Co154 O167 2.244 1_655 S
O155 Co154 2.216 1_455 S
O155 C162 1.247 1_456 S
O156 Co154 2.091 . S
O156 C162 1.261 1_556 S
C157 O166 1.247 . S
C157 O167 1.272 . S
O158 Co154 2.004 . S
O158 C163 1.259 . S
Co159 O160 2.061 1_455 S
Co159 O165 2.052 . S
Co159 O167 2.135 . S
O160 Co159 2.061 1_655 S
O160 C163 1.235 . S
C161 O164 1.238 . S
C161 O165 1.241 . S
C162 O155 1.247 1_654 S
C162 O156 1.261 1_554 S
C163 O158 1.259 . S
C163 O160 1.235 . S
O164 Co154 2.021 1_455 S
O164 C161 1.238 . S
O165 Co159 2.052 . S
O165 C161 1.241 . S
O166 Co154 2.137 1_455 S
O166 C157 1.247 . S
O167 Co154 2.244 1_455 S
O167 C157 1.272 . S
O167 Co159 2.135 . S
Co168 O169 2.216 1_545 S
Co168 O170 2.091 . S
Co168 O172 2.004 . S
Co168 O178 2.021 1_545 S
Co168 O180 2.137 1_545 S
Co168 O181 2.244 1_545 S
O169 Co168 2.216 1_565 S
O169 C176 1.247 1_565 S
O170 Co168 2.091 . S
O170 C176 1.261 . S
C171 O180 1.247 . S
C171 O181 1.272 . S
O172 Co168 2.004 . S
O172 C177 1.259 . S
Co173 O174 2.061 1_565 S
Co173 O179 2.052 . S
Co173 O181 2.135 . S
O174 Co173 2.061 1_545 S
O174 C177 1.235 . S
C175 O178 1.238 . S
C175 O179 1.241 . S
C176 O169 1.247 1_545 S
C176 O170 1.261 . S
C177 O172 1.259 . S
C177 O174 1.235 . S
O178 Co168 2.021 1_565 S
O178 C175 1.238 . S
O179 Co173 2.052 . S
O179 C175 1.241 . S
O180 Co168 2.137 1_565 S
O180 C171 1.247 . S
O181 Co168 2.244 1_565 S
O181 C171 1.272 . S
O181 Co173 2.135 . S
Co182 O183 2.216 . S
Co182 O184 2.091 . S
Co182 O186 2.004 . S
Co182 O192 2.021 . S
Co182 O194 2.137 . S
Co182 O195 2.244 . S
O183 Co182 2.216 . S
O183 C190 1.247 . S
O184 Co182 2.091 . S
O184 C190 1.261 . S
C185 O194 1.247 . S
C185 O195 1.272 . S
O186 Co182 2.004 . S
O186 C191 1.259 . S
Co187 O188 2.061 . S
Co187 O193 2.052 . S
Co187 O195 2.135 . S
O188 Co187 2.061 . S
O188 C191 1.235 . S
C189 O192 1.238 . S
C189 O193 1.241 . S
C190 O183 1.247 . S
C190 O184 1.261 . S
C191 O186 1.259 . S
C191 O188 1.235 . S
O192 Co182 2.021 . S
O192 C189 1.238 . S
O193 Co187 2.052 . S
O193 C189 1.241 . S
O194 Co182 2.137 . S
O194 C185 1.247 . S
O195 Co182 2.244 . S
O195 C185 1.272 . S
O195 Co187 2.135 . S
Co196 O197 2.216 . S
Co196 O198 2.091 . S
Co196 O200 2.004 . S
Co196 O206 2.021 . S
Co196 O208 2.137 . S
Co196 O209 2.244 . S
O197 Co196 2.216 . S
O197 C204 1.247 . S
O198 Co196 2.091 . S
O198 C204 1.261 . S
C199 O208 1.247 . S
C199 O209 1.272 . S
O200 Co196 2.004 . S
O200 C205 1.259 . S
Co201 O202 2.061 . S
Co201 O207 2.052 . S
Co201 O209 2.135 . S
O202 Co201 2.061 . S
O202 C205 1.235 . S
C203 O206 1.238 . S
C203 O207 1.241 . S
C204 O197 1.247 . S
C204 O198 1.261 . S
C205 O200 1.259 . S
C205 O202 1.235 . S
O206 Co196 2.021 . S
O206 C203 1.238 . S
O207 Co201 2.052 . S
O207 C203 1.241 . S
O208 Co196 2.137 . S
O208 C199 1.247 . S
O209 Co196 2.244 . S
O209 C199 1.272 . S
O209 Co201 2.135 . S
Co210 O211 2.216 1_455 S
Co210 O212 2.091 . S
Co210 O214 2.004 . S
Co210 O220 2.021 1_455 S
Co210 O222 2.137 1_455 S
Co210 O223 2.244 1_455 S
O211 Co210 2.216 1_655 S
O211 C218 1.247 1_655 S
O212 Co210 2.091 . S
O212 C218 1.261 . S
C213 O222 1.247 . S
C213 O223 1.272 . S
O214 Co210 2.004 . S
O214 C219 1.259 . S
Co215 O216 2.061 1_655 S
Co215 O221 2.052 . S
Co215 O223 2.135 . S
O216 Co215 2.061 1_455 S
O216 C219 1.235 . S
C217 O220 1.238 . S
C217 O221 1.241 . S
C218 O211 1.247 1_455 S
C218 O212 1.261 . S
C219 O214 1.259 . S
C219 O216 1.235 . S
O220 Co210 2.021 1_655 S
O220 C217 1.238 . S
O221 Co215 2.052 . S
O221 C217 1.241 . S
O222 Co210 2.137 1_655 S
O222 C213 1.247 . S
O223 Co210 2.244 1_655 S
O223 C213 1.272 . S
O223 Co215 2.135 . S
C224 C225 1.391 . S
C224 C226 1.394 . S
C224 H240 0.931 . S
C225 C224 1.391 . S
C225 C229 1.376 . S
C226 C224 1.394 . S
C226 C227 1.369 . S
C226 C230 1.531 . S
C227 C226 1.369 . S
C227 C228 1.410 . S
C227 C235 1.503 . S
C228 C227 1.410 . S
C228 C229 1.392 . S
C228 C231 1.511 . S
C229 C225 1.376 . S
C229 C228 1.392 . S
C229 H241 0.929 . S
C230 C226 1.531 . S
C230 H242 0.960 . S
C230 H243 0.962 . S
C230 H244 0.960 . S
C231 C228 1.511 . S
C231 H245 0.961 . S
C231 H246 0.961 . S
C231 H247 0.961 . S
C232 C233 1.370 . S
C232 C234 1.363 . S
C232 H248 0.931 . S
C233 C232 1.370 . S
C233 C237 1.408 . S
C234 C232 1.363 . S
C234 C235 1.370 . S
C234 C238 1.524 . S
C235 C227 1.503 . S
C235 C234 1.370 . S
C235 C236 1.403 . S
C236 C235 1.403 . S
C236 C237 1.404 . S
C236 C239 1.539 . S
C237 C233 1.408 . S
C237 C236 1.404 . S
C237 H249 0.930 . S
C238 C234 1.524 . S
C238 H250 0.956 . S
C238 H251 0.961 . S
C238 H252 0.961 . S
C239 C236 1.539 . S
C239 H253 0.958 . S
C239 H254 0.961 . S
C239 H255 0.960 . S
H240 C224 0.931 . S
H241 C229 0.929 . S
H242 C230 0.960 . S
H243 C230 0.962 . S
H244 C230 0.960 . S
H245 C231 0.961 . S
H246 C231 0.961 . S
H247 C231 0.961 . S
H248 C232 0.931 . S
H249 C237 0.930 . S
H250 C238 0.956 . S
H251 C238 0.961 . S
H252 C238 0.961 . S
H253 C239 0.958 . S
H254 C239 0.961 . S
H255 C239 0.960 . S
C256 C257 1.391 . S
C256 C258 1.394 . S
C256 H272 0.931 . S
C257 C256 1.391 . S
C257 C261 1.376 . S
C258 C256 1.394 . S
C258 C259 1.369 . S
C258 C262 1.531 . S
C259 C258 1.369 . S
C259 C260 1.410 . S
C259 C267 1.503 . S
C260 C259 1.410 . S
C260 C261 1.392 . S
C260 C263 1.511 . S
C261 C257 1.376 . S
C261 C260 1.392 . S
C261 H273 0.929 . S
C262 C258 1.531 . S
C262 H274 0.960 . S
C262 H275 0.962 . S
C262 H276 0.960 . S
C263 C260 1.511 . S
C263 H277 0.961 . S
C263 H278 0.961 . S
C263 H279 0.961 . S
C264 C265 1.370 . S
C264 C266 1.363 . S
C264 H280 0.931 . S
C265 C264 1.370 . S
C265 C269 1.408 . S
C266 C264 1.363 . S
C266 C267 1.370 . S
C266 C270 1.524 . S
C267 C259 1.503 . S
C267 C266 1.370 . S
C267 C268 1.403 . S
C268 C267 1.403 . S
C268 C269 1.404 . S
C268 C271 1.539 . S
C269 C265 1.408 . S
C269 C268 1.404 . S
C269 H281 0.930 . S
C270 C266 1.524 . S
C270 H282 0.956 . S
C270 H283 0.961 . S
C270 H284 0.961 . S
C271 C268 1.539 . S
C271 H285 0.958 . S
C271 H286 0.961 . S
C271 H287 0.960 . S
H272 C256 0.931 . S
H273 C261 0.929 . S
H274 C262 0.960 . S
H275 C262 0.962 . S
H276 C262 0.960 . S
H277 C263 0.961 . S
H278 C263 0.961 . S
H279 C263 0.961 . S
H280 C264 0.931 . S
H281 C269 0.930 . S
H282 C270 0.956 . S
H283 C270 0.961 . S
H284 C270 0.961 . S
H285 C271 0.958 . S
H286 C271 0.961 . S
H287 C271 0.960 . S
C288 C289 1.391 . S
C288 C290 1.394 . S
C288 H304 0.931 . S
C289 C288 1.391 . S
C289 C293 1.376 . S
C290 C288 1.394 . S
C290 C291 1.369 . S
C290 C294 1.531 . S
C291 C290 1.369 . S
C291 C292 1.410 . S
C291 C299 1.503 . S
C292 C291 1.410 . S
C292 C293 1.392 . S
C292 C295 1.511 . S
C293 C289 1.376 . S
C293 C292 1.392 . S
C293 H305 0.929 . S
C294 C290 1.531 . S
C294 H306 0.960 . S
C294 H307 0.962 . S
C294 H308 0.960 . S
C295 C292 1.511 . S
C295 H309 0.961 . S
C295 H310 0.961 . S
C295 H311 0.961 . S
C296 C297 1.370 . S
C296 C298 1.363 . S
C296 H312 0.931 . S
C297 C296 1.370 . S
C297 C301 1.408 . S
C298 C296 1.363 . S
C298 C299 1.370 . S
C298 C302 1.524 . S
C299 C291 1.503 . S
C299 C298 1.370 . S
C299 C300 1.403 . S
C300 C299 1.403 . S
C300 C301 1.404 . S
C300 C303 1.539 . S
C301 C297 1.408 . S
C301 C300 1.404 . S
C301 H313 0.930 . S
C302 C298 1.524 . S
C302 H314 0.956 . S
C302 H315 0.961 . S
C302 H316 0.961 . S
C303 C300 1.539 . S
C303 H317 0.958 . S
C303 H318 0.961 . S
C303 H319 0.960 . S
H304 C288 0.931 . S
H305 C293 0.929 . S
H306 C294 0.960 . S
H307 C294 0.962 . S
H308 C294 0.960 . S
H309 C295 0.961 . S
H310 C295 0.961 . S
H311 C295 0.961 . S
H312 C296 0.931 . S
H313 C301 0.930 . S
H314 C302 0.956 . S
H315 C302 0.961 . S
H316 C302 0.961 . S
H317 C303 0.958 . S
H318 C303 0.961 . S
H319 C303 0.960 . S
C320 C321 1.391 . S
C320 C322 1.394 . S
C320 H336 0.931 . S
C321 C320 1.391 . S
C321 C325 1.376 . S
C322 C320 1.394 . S
C322 C323 1.369 . S
C322 C326 1.531 . S
C323 C322 1.369 . S
C323 C324 1.410 . S
C323 C331 1.503 . S
C324 C323 1.410 . S
C324 C325 1.392 . S
C324 C327 1.511 . S
C325 C321 1.376 . S
C325 C324 1.392 . S
C325 H337 0.929 . S
C326 C322 1.531 . S
C326 H338 0.960 . S
C326 H339 0.962 . S
C326 H340 0.960 . S
C327 C324 1.511 . S
C327 H341 0.961 . S
C327 H342 0.961 . S
C327 H343 0.961 . S
C328 C329 1.370 . S
C328 C330 1.363 . S
C328 H344 0.931 . S
C329 C328 1.370 . S
C329 C333 1.408 . S
C330 C328 1.363 . S
C330 C331 1.370 . S
C330 C334 1.524 . S
C331 C323 1.503 . S
C331 C330 1.370 . S
C331 C332 1.403 . S
C332 C331 1.403 . S
C332 C333 1.404 . S
C332 C335 1.539 . S
C333 C329 1.408 . S
C333 C332 1.404 . S
C333 H345 0.930 . S
C334 C330 1.524 . S
C334 H346 0.956 . S
C334 H347 0.961 . S
C334 H348 0.961 . S
C335 C332 1.539 . S
C335 H349 0.958 . S
C335 H350 0.961 . S
C335 H351 0.960 . S
H336 C320 0.931 . S
H337 C325 0.929 . S
H338 C326 0.960 . S
H339 C326 0.962 . S
H340 C326 0.960 . S
H341 C327 0.961 . S
H342 C327 0.961 . S
H343 C327 0.961 . S
H344 C328 0.931 . S
H345 C333 0.930 . S
H346 C334 0.956 . S
H347 C334 0.961 . S
H348 C334 0.961 . S
H349 C335 0.958 . S
H350 C335 0.961 . S
H351 C335 0.960 . S
C352 C353 1.391 . S
C352 C354 1.394 . S
C352 H368 0.931 . S
C353 C352 1.391 . S
C353 C357 1.376 . S
C354 C352 1.394 . S
C354 C355 1.369 . S
C354 C358 1.531 . S
C355 C354 1.369 . S
C355 C356 1.410 . S
C355 C363 1.503 . S
C356 C355 1.410 . S
C356 C357 1.392 . S
C356 C359 1.511 . S
C357 C353 1.376 . S
C357 C356 1.392 . S
C357 H369 0.929 . S
C358 C354 1.531 . S
C358 H370 0.960 . S
C358 H371 0.962 . S
C358 H372 0.960 . S
C359 C356 1.511 . S
C359 H373 0.961 . S
C359 H374 0.961 . S
C359 H375 0.961 . S
C360 C361 1.370 . S
C360 C362 1.363 . S
C360 H376 0.931 . S
C361 C360 1.370 . S
C361 C365 1.408 . S
C362 C360 1.363 . S
C362 C363 1.370 . S
C362 C366 1.524 . S
C363 C355 1.503 . S
C363 C362 1.370 . S
C363 C364 1.403 . S
C364 C363 1.403 . S
C364 C365 1.404 . S
C364 C367 1.539 . S
C365 C361 1.408 . S
C365 C364 1.404 . S
C365 H377 0.930 . S
C366 C362 1.524 . S
C366 H378 0.956 . S
C366 H379 0.961 . S
C366 H380 0.961 . S
C367 C364 1.539 . S
C367 H381 0.958 . S
C367 H382 0.961 . S
C367 H383 0.960 . S
H368 C352 0.931 . S
H369 C357 0.929 . S
H370 C358 0.960 . S
H371 C358 0.962 . S
H372 C358 0.960 . S
H373 C359 0.961 . S
H374 C359 0.961 . S
H375 C359 0.961 . S
H376 C360 0.931 . S
H377 C365 0.930 . S
H378 C366 0.956 . S
H379 C366 0.961 . S
H380 C366 0.961 . S
H381 C367 0.958 . S
H382 C367 0.961 . S
H383 C367 0.960 . S
C384 C385 1.391 . S
C384 C386 1.394 . S
C384 H400 0.931 . S
C385 C384 1.391 . S
C385 C389 1.376 . S
C386 C384 1.394 . S
C386 C387 1.369 . S
C386 C390 1.531 . S
C387 C386 1.369 . S
C387 C388 1.410 . S
C387 C395 1.503 . S
C388 C387 1.410 . S
C388 C389 1.392 . S
C388 C391 1.511 . S
C389 C385 1.376 . S
C389 C388 1.392 . S
C389 H401 0.929 . S
C390 C386 1.531 . S
C390 H402 0.960 . S
C390 H403 0.962 . S
C390 H404 0.960 . S
C391 C388 1.511 . S
C391 H405 0.961 . S
C391 H406 0.961 . S
C391 H407 0.961 . S
C392 C393 1.370 . S
C392 C394 1.363 . S
C392 H408 0.931 . S
C393 C392 1.370 . S
C393 C397 1.408 . S
C394 C392 1.363 . S
C394 C395 1.370 . S
C394 C398 1.524 . S
C395 C387 1.503 . S
C395 C394 1.370 . S
C395 C396 1.403 . S
C396 C395 1.403 . S
C396 C397 1.404 . S
C396 C399 1.539 . S
C397 C393 1.408 . S
C397 C396 1.404 . S
C397 H409 0.930 . S
C398 C394 1.524 . S
C398 H410 0.956 . S
C398 H411 0.961 . S
C398 H412 0.961 . S
C399 C396 1.539 . S
C399 H413 0.958 . S
C399 H414 0.961 . S
C399 H415 0.960 . S
H400 C384 0.931 . S
H401 C389 0.929 . S
H402 C390 0.960 . S
H403 C390 0.962 . S
H404 C390 0.960 . S
H405 C391 0.961 . S
H406 C391 0.961 . S
H407 C391 0.961 . S
H408 C392 0.931 . S
H409 C397 0.930 . S
H410 C398 0.956 . S
H411 C398 0.961 . S
H412 C398 0.961 . S
H413 C399 0.958 . S
H414 C399 0.961 . S
H415 C399 0.960 . S
C416 C417 1.391 . S
C416 C418 1.394 . S
C416 H432 0.931 . S
C417 C416 1.391 . S
C417 C421 1.376 . S
C418 C416 1.394 . S
C418 C419 1.369 . S
C418 C422 1.531 . S
C419 C418 1.369 . S
C419 C420 1.410 . S
C419 C427 1.503 . S
C420 C419 1.410 . S
C420 C421 1.392 . S
C420 C423 1.511 . S
C421 C417 1.376 . S
C421 C420 1.392 . S
C421 H433 0.929 . S
C422 C418 1.531 . S
C422 H434 0.960 . S
C422 H435 0.962 . S
C422 H436 0.960 . S
C423 C420 1.511 . S
C423 H437 0.961 . S
C423 H438 0.961 . S
C423 H439 0.961 . S
C424 C425 1.370 . S
C424 C426 1.363 . S
C424 H440 0.931 . S
C425 C424 1.370 . S
C425 C429 1.408 . S
C426 C424 1.363 . S
C426 C427 1.370 . S
C426 C430 1.524 . S
C427 C419 1.503 . S
C427 C426 1.370 . S
C427 C428 1.403 . S
C428 C427 1.403 . S
C428 C429 1.404 . S
C428 C431 1.539 . S
C429 C425 1.408 . S
C429 C428 1.404 . S
C429 H441 0.930 . S
C430 C426 1.524 . S
C430 H442 0.956 . S
C430 H443 0.961 . S
C430 H444 0.961 . S
C431 C428 1.539 . S
C431 H445 0.958 . S
C431 H446 0.961 . S
C431 H447 0.960 . S
H432 C416 0.931 . S
H433 C421 0.929 . S
H434 C422 0.960 . S
H435 C422 0.962 . S
H436 C422 0.960 . S
H437 C423 0.961 . S
H438 C423 0.961 . S
H439 C423 0.961 . S
H440 C424 0.931 . S
H441 C429 0.930 . S
H442 C430 0.956 . S
H443 C430 0.961 . S
H444 C430 0.961 . S
H445 C431 0.958 . S
H446 C431 0.961 . S
H447 C431 0.960 . S
C448 C449 1.391 . S
C448 C450 1.394 . S
C448 H464 0.931 . S
C449 C448 1.391 . S
C449 C453 1.376 . S
C450 C448 1.394 . S
C450 C451 1.369 . S
C450 C454 1.531 . S
C451 C450 1.369 . S
C451 C452 1.410 . S
C451 C459 1.503 . S
C452 C451 1.410 . S
C452 C453 1.392 . S
C452 C455 1.511 . S
C453 C449 1.376 . S
C453 C452 1.392 . S
C453 H465 0.929 . S
C454 C450 1.531 . S
C454 H466 0.960 . S
C454 H467 0.962 . S
C454 H468 0.960 . S
C455 C452 1.511 . S
C455 H469 0.961 . S
C455 H470 0.961 . S
C455 H471 0.961 . S
C456 C457 1.370 . S
C456 C458 1.363 . S
C456 H472 0.931 . S
C457 C456 1.370 . S
C457 C461 1.408 . S
C458 C456 1.363 . S
C458 C459 1.370 . S
C458 C462 1.524 . S
C459 C451 1.503 . S
C459 C458 1.370 . S
C459 C460 1.403 . S
C460 C459 1.403 . S
C460 C461 1.404 . S
C460 C463 1.539 . S
C461 C457 1.408 . S
C461 C460 1.404 . S
C461 H473 0.930 . S
C462 C458 1.524 . S
C462 H474 0.956 . S
C462 H475 0.961 . S
C462 H476 0.961 . S
C463 C460 1.539 . S
C463 H477 0.958 . S
C463 H478 0.961 . S
C463 H479 0.960 . S
H464 C448 0.931 . S
H465 C453 0.929 . S
H466 C454 0.960 . S
H467 C454 0.962 . S
H468 C454 0.960 . S
H469 C455 0.961 . S
H470 C455 0.961 . S
H471 C455 0.961 . S
H472 C456 0.931 . S
H473 C461 0.930 . S
H474 C462 0.956 . S
H475 C462 0.961 . S
H476 C462 0.961 . S
H477 C463 0.958 . S
H478 C463 0.961 . S
H479 C463 0.960 . S
C480 C481 1.391 1_565 S
C480 C482 1.394 . S
C480 H496 0.931 . S
C481 C480 1.391 1_545 S
C481 C485 1.376 . S
C482 C480 1.394 . S
C482 C483 1.369 . S
C482 C486 1.531 . S
C483 C482 1.369 . S
C483 C484 1.410 1_565 S
C483 C491 1.503 . S
C484 C483 1.410 1_545 S
C484 C485 1.392 . S
C484 C487 1.511 . S
C485 C481 1.376 . S
C485 C484 1.392 . S
C485 H497 0.929 . S
C486 C482 1.531 . S
C486 H498 0.960 . S
C486 H499 0.962 . S
C486 H500 0.960 . S
C487 C484 1.511 . S
C487 H501 0.961 . S
C487 H502 0.961 . S
C487 H503 0.961 . S
C488 C489 1.370 . S
C488 C490 1.363 . S
C488 H504 0.931 . S
C489 C488 1.370 . S
C489 C493 1.411 1_565 S
C490 C488 1.363 . S
C490 C491 1.370 . S
C490 C494 1.524 . S
C491 C483 1.503 . S
C491 C490 1.370 . S
C491 C492 1.403 1_565 S
C492 C491 1.403 1_545 S
C492 C493 1.403 . S
C492 C495 1.539 . S
C493 C489 1.411 1_545 S
C493 C492 1.403 . S
C493 H505 0.928 . S
C494 C490 1.524 . S
C494 H506 0.956 . S
C494 H507 0.961 . S
C494 H508 0.961 . S
C495 C492 1.539 . S
C495 H509 0.958 . S
C495 H510 0.961 . S
C495 H511 0.960 . S
H496 C480 0.931 . S
H497 C485 0.929 . S
H498 C486 0.960 . S
H499 C486 0.962 . S
H500 C486 0.960 . S
H501 C487 0.961 . S
H502 C487 0.961 . S
H503 C487 0.961 . S
H504 C488 0.931 . S
H505 C493 0.928 . S
H506 C494 0.956 . S
H507 C494 0.961 . S
H508 C494 0.961 . S
H509 C495 0.958 . S
H510 C495 0.961 . S
H511 C495 0.960 . S
C512 C513 1.391 . S
C512 C514 1.394 . S
C512 H528 0.931 . S
C513 C512 1.391 . S
C513 C517 1.376 . S
C514 C512 1.394 . S
C514 C515 1.369 . S
C514 C518 1.531 . S
C515 C514 1.369 . S
C515 C516 1.410 . S
C515 C523 1.503 . S
C516 C515 1.410 . S
C516 C517 1.392 . S
C516 C519 1.511 . S
C517 C513 1.376 . S
C517 C516 1.392 . S
C517 H529 0.929 . S
C518 C514 1.531 . S
C518 H530 0.960 . S
C518 H531 0.962 . S
C518 H532 0.960 . S
C519 C516 1.511 . S
C519 H533 0.961 . S
C519 H534 0.961 . S
C519 H535 0.961 . S
C520 C521 1.370 . S
C520 C522 1.363 . S
C520 H536 0.931 . S
C521 C520 1.370 . S
C521 C525 1.408 . S
C522 C520 1.363 . S
C522 C523 1.370 . S
C522 C526 1.524 . S
C523 C515 1.503 . S
C523 C522 1.370 . S
C523 C524 1.403 . S
C524 C523 1.403 . S
C524 C525 1.404 . S
C524 C527 1.539 . S
C525 C521 1.408 . S
C525 C524 1.404 . S
C525 H537 0.930 . S
C526 C522 1.524 . S
C526 H538 0.956 . S
C526 H539 0.961 . S
C526 H540 0.961 . S
C527 C524 1.539 . S
C527 H541 0.958 . S
C527 H542 0.961 . S
C527 H543 0.960 . S
H528 C512 0.931 . S
H529 C517 0.929 . S
H530 C518 0.960 . S
H531 C518 0.962 . S
H532 C518 0.960 . S
H533 C519 0.961 . S
H534 C519 0.961 . S
H535 C519 0.961 . S
H536 C520 0.931 . S
H537 C525 0.930 . S
H538 C526 0.956 . S
H539 C526 0.961 . S
H540 C526 0.961 . S
H541 C527 0.958 . S
H542 C527 0.961 . S
H543 C527 0.960 . S
C544 C545 1.391 . S
C544 C546 1.394 . S
C544 H560 0.931 . S
C545 C544 1.391 . S
C545 C549 1.376 . S
C546 C544 1.394 . S
C546 C547 1.369 . S
C546 C550 1.531 . S
C547 C546 1.369 . S
C547 C548 1.410 . S
C547 C555 1.503 . S
C548 C547 1.410 . S
C548 C549 1.392 . S
C548 C551 1.511 . S
C549 C545 1.376 . S
C549 C548 1.392 . S
C549 H561 0.929 . S
C550 C546 1.531 . S
C550 H562 0.960 . S
C550 H563 0.962 . S
C550 H564 0.960 . S
C551 C548 1.511 . S
C551 H565 0.961 . S
C551 H566 0.961 . S
C551 H567 0.961 . S
C552 C553 1.370 . S
C552 C554 1.363 . S
C552 H568 0.931 . S
C553 C552 1.370 . S
C553 C557 1.408 . S
C554 C552 1.363 . S
C554 C555 1.370 . S
C554 C558 1.524 . S
C555 C547 1.503 . S
C555 C554 1.370 . S
C555 C556 1.403 . S
C556 C555 1.403 . S
C556 C557 1.404 . S
C556 C559 1.539 . S
C557 C553 1.408 . S
C557 C556 1.404 . S
C557 H569 0.930 . S
C558 C554 1.524 . S
C558 H570 0.956 . S
C558 H571 0.961 . S
C558 H572 0.961 . S
C559 C556 1.539 . S
C559 H573 0.958 . S
C559 H574 0.961 . S
C559 H575 0.960 . S
H560 C544 0.931 . S
H561 C549 0.929 . S
H562 C550 0.960 . S
H563 C550 0.962 . S
H564 C550 0.960 . S
H565 C551 0.961 . S
H566 C551 0.961 . S
H567 C551 0.961 . S
H568 C552 0.931 . S
H569 C557 0.930 . S
H570 C558 0.956 . S
H571 C558 0.961 . S
H572 C558 0.961 . S
H573 C559 0.958 . S
H574 C559 0.961 . S
H575 C559 0.960 . S
C576 C577 1.378 1_455 S
C576 C578 1.394 . S
C576 H592 0.931 . S
C577 C576 1.378 1_655 S
C577 C581 1.391 . S
C578 C576 1.394 . S
C578 C579 1.369 1_455 S
C578 C582 1.531 . S
C579 C578 1.369 1_655 S
C579 C580 1.410 . S
C579 C587 1.503 . S
C580 C579 1.410 . S
C580 C581 1.392 . S
C580 C583 1.511 . S
C581 C577 1.391 . S
C581 C580 1.392 . S
C581 H593 0.929 . S
C582 C578 1.531 . S
C582 H594 0.960 . S
C582 H595 0.962 . S
C582 H596 0.960 . S
C583 C580 1.511 . S
C583 H597 0.961 . S
C583 H598 0.961 . S
C583 H599 0.961 . S
C584 C585 1.370 . S
C584 C586 1.363 . S
C584 H600 0.931 . S
C585 C584 1.370 . S
C585 C589 1.408 . S
C586 C584 1.363 . S
C586 C587 1.370 . S
C586 C590 1.524 . S
C587 C579 1.503 . S
C587 C586 1.370 . S
C587 C588 1.403 . S
C588 C587 1.403 . S
C588 C589 1.404 . S
C588 C591 1.539 . S
C589 C585 1.408 . S
C589 C588 1.404 . S
C589 H601 0.930 . S
C590 C586 1.524 . S
C590 H602 0.956 1_655 S
C590 H603 0.961 . S
C590 H604 0.961 . S
C591 C588 1.539 . S
C591 H605 0.958 1_655 S
C591 H606 0.961 . S
C591 H607 0.960 . S
H592 C576 0.931 . S
H593 C581 0.929 . S
H594 C582 0.960 . S
H595 C582 0.962 . S
H596 C582 0.960 . S
H597 C583 0.961 . S
H598 C583 0.961 . S
H599 C583 0.961 . S
H600 C584 0.931 . S
H601 C589 0.930 . S
H602 C590 0.956 1_455 S
H603 C590 0.961 . S
H604 C590 0.961 . S
H605 C591 0.958 1_455 S
H606 C591 0.961 . S
H607 C591 0.960 . S
C608 C609 1.391 1_545 S
C608 C610 1.394 . S
C608 H624 0.931 . S
C609 C608 1.391 1_565 S
C609 C613 1.376 . S
C610 C608 1.394 . S
C610 C611 1.369 . S
C610 C614 1.531 . S
C611 C610 1.369 . S
C611 C612 1.410 1_545 S
C611 C619 1.503 . S
C612 C611 1.410 1_565 S
C612 C613 1.392 . S
C612 C615 1.511 . S
C613 C609 1.376 . S
C613 C612 1.392 . S
C613 H625 0.929 . S
C614 C610 1.531 . S
C614 H626 0.960 . S
C614 H627 0.962 . S
C614 H628 0.960 . S
C615 C612 1.511 . S
C615 H629 0.961 . S
C615 H630 0.961 . S
C615 H631 0.961 . S
C616 C617 1.370 . S
C616 C618 1.363 . S
C616 H632 0.931 . S
C617 C616 1.370 . S
C617 C621 1.408 1_545 S
C618 C616 1.363 . S
C618 C619 1.370 . S
C618 C622 1.524 . S
C619 C611 1.503 . S
C619 C618 1.370 . S
C619 C620 1.403 1_545 S
C620 C619 1.403 1_565 S
C620 C621 1.404 . S
C620 C623 1.539 . S
C621 C617 1.408 1_565 S
C621 C620 1.404 . S
C621 H633 0.930 . S
C622 C618 1.524 . S
C622 H634 0.956 . S
C622 H635 0.961 . S
C622 H636 0.961 . S
C623 C620 1.539 . S
C623 H637 0.958 . S
C623 H638 0.961 . S
C623 H639 0.960 . S
H624 C608 0.931 . S
H625 C613 0.929 . S
H626 C614 0.960 . S
H627 C614 0.962 . S
H628 C614 0.960 . S
H629 C615 0.961 . S
H630 C615 0.961 . S
H631 C615 0.961 . S
H632 C616 0.931 . S
H633 C621 0.930 . S
H634 C622 0.956 . S
H635 C622 0.961 . S
H636 C622 0.961 . S
H637 C623 0.958 . S
H638 C623 0.961 . S
H639 C623 0.960 . S
C640 C641 1.391 . S
C640 C642 1.394 . S
C640 H656 0.931 . S
C641 C640 1.391 . S
C641 C645 1.376 . S
C642 C640 1.394 . S
C642 C643 1.369 . S
C642 C646 1.531 . S
C643 C642 1.369 . S
C643 C644 1.410 . S
C643 C651 1.503 . S
C644 C643 1.410 . S
C644 C645 1.392 . S
C644 C647 1.511 . S
C645 C641 1.376 . S
C645 C644 1.392 . S
C645 H657 0.929 . S
C646 C642 1.531 . S
C646 H658 0.960 . S
C646 H659 0.962 . S
C646 H660 0.960 . S
C647 C644 1.511 . S
C647 H661 0.961 . S
C647 H662 0.961 . S
C647 H663 0.961 . S
C648 C649 1.370 . S
C648 C650 1.363 . S
C648 H664 0.931 . S
C649 C648 1.370 . S
C649 C653 1.408 . S
C650 C648 1.363 . S
C650 C651 1.370 . S
C650 C654 1.524 . S
C651 C643 1.503 . S
C651 C650 1.370 . S
C651 C652 1.403 . S
C652 C651 1.403 . S
C652 C653 1.404 . S
C652 C655 1.539 . S
C653 C649 1.408 . S
C653 C652 1.404 . S
C653 H665 0.930 . S
C654 C650 1.524 . S
C654 H666 0.956 . S
C654 H667 0.961 . S
C654 H668 0.961 . S
C655 C652 1.539 . S
C655 H669 0.958 . S
C655 H670 0.961 . S
C655 H671 0.960 . S
H656 C640 0.931 . S
H657 C645 0.929 . S
H658 C646 0.960 . S
H659 C646 0.962 . S
H660 C646 0.960 . S
H661 C647 0.961 . S
H662 C647 0.961 . S
H663 C647 0.961 . S
H664 C648 0.931 . S
H665 C653 0.930 . S
H666 C654 0.956 . S
H667 C654 0.961 . S
H668 C654 0.961 . S
H669 C655 0.958 . S
H670 C655 0.961 . S
H671 C655 0.960 . S
C672 C673 1.391 . S
C672 C674 1.394 . S
C672 H688 0.931 . S
C673 C672 1.391 . S
C673 C677 1.376 . S
C674 C672 1.394 . S
C674 C675 1.369 . S
C674 C678 1.531 . S
C675 C674 1.369 . S
C675 C676 1.410 . S
C675 C683 1.503 . S
C676 C675 1.410 . S
C676 C677 1.392 . S
C676 C679 1.511 . S
C677 C673 1.376 . S
C677 C676 1.392 . S
C677 H689 0.929 . S
C678 C674 1.531 . S
C678 H690 0.960 . S
C678 H691 0.962 . S
C678 H692 0.960 . S
C679 C676 1.511 . S
C679 H693 0.961 . S
C679 H694 0.961 . S
C679 H695 0.961 . S
C680 C681 1.370 . S
C680 C682 1.363 . S
C680 H696 0.931 . S
C681 C680 1.370 . S
C681 C685 1.408 . S
C682 C680 1.363 . S
C682 C683 1.370 . S
C682 C686 1.524 . S
C683 C675 1.503 . S
C683 C682 1.370 . S
C683 C684 1.403 . S
C684 C683 1.403 . S
C684 C685 1.404 . S
C684 C687 1.539 . S
C685 C681 1.408 . S
C685 C684 1.404 . S
C685 H697 0.930 . S
C686 C682 1.524 . S
C686 H698 0.956 . S
C686 H699 0.961 . S
C686 H700 0.961 . S
C687 C684 1.539 . S
C687 H701 0.958 . S
C687 H702 0.961 . S
C687 H703 0.960 . S
H688 C672 0.931 . S
H689 C677 0.929 . S
H690 C678 0.960 . S
H691 C678 0.962 . S
H692 C678 0.960 . S
H693 C679 0.961 . S
H694 C679 0.961 . S
H695 C679 0.961 . S
H696 C680 0.931 . S
H697 C685 0.930 . S
H698 C686 0.956 . S
H699 C686 0.961 . S
H700 C686 0.961 . S
H701 C687 0.958 . S
H702 C687 0.961 . S
H703 C687 0.960 . S
C704 C705 1.391 1_455 S
C704 C706 1.394 . S
C704 H720 0.931 . S
C705 C704 1.391 1_655 S
C705 C709 1.376 . S
C706 C704 1.394 . S
C706 C707 1.369 . S
C706 C710 1.531 . S
C707 C706 1.369 . S
C707 C708 1.410 1_455 S
C707 C715 1.503 . S
C708 C707 1.410 1_655 S
C708 C709 1.392 . S
C708 C711 1.511 . S
C709 C705 1.376 . S
C709 C708 1.392 . S
C709 H721 0.929 . S
C710 C706 1.531 . S
C710 H722 0.960 . S
C710 H723 0.962 . S
C710 H724 0.960 . S
C711 C708 1.511 . S
C711 H725 0.961 . S
C711 H726 0.961 . S
C711 H727 0.961 . S
C712 C713 1.370 . S
C712 C714 1.363 . S
C712 H728 0.931 . S
C713 C712 1.370 . S
C713 C717 1.408 . S
C714 C712 1.363 . S
C714 C715 1.370 . S
C714 C718 1.524 . S
C715 C707 1.503 . S
C715 C714 1.370 . S
C715 C716 1.409 . S
C716 C715 1.409 . S
C716 C717 1.407 . S
C716 C719 1.529 1_455 S
C717 C713 1.408 . S
C717 C716 1.407 . S
C717 H729 0.930 1_455 S
C718 C714 1.524 . S
C718 H730 0.956 . S
C718 H731 0.961 . S
C718 H732 0.961 . S
C719 C716 1.529 1_655 S
C719 H733 0.958 . S
C719 H734 0.961 . S
C719 H735 0.960 . S
H720 C704 0.931 . S
H721 C709 0.929 . S
H722 C710 0.960 . S
H723 C710 0.962 . S
H724 C710 0.960 . S
H725 C711 0.961 . S
H726 C711 0.961 . S
H727 C711 0.961 . S
H728 C712 0.931 . S
H729 C717 0.930 1_655 S
H730 C718 0.956 . S
H731 C718 0.961 . S
H732 C718 0.961 . S
H733 C719 0.958 . S
H734 C719 0.961 . S
H735 C719 0.960 . S
C736 C737 1.391 1_565 S
C736 C738 1.394 . S
C736 H752 0.931 . S
C737 C736 1.391 1_545 S
C737 C741 1.376 . S
C738 C736 1.394 . S
C738 C739 1.369 1_565 S
C738 C742 1.531 . S
C739 C738 1.369 1_545 S
C739 C740 1.410 . S
C739 C747 1.503 . S
C740 C739 1.410 . S
C740 C741 1.392 . S
C740 C743 1.511 . S
C741 C737 1.376 . S
C741 C740 1.392 . S
C741 H753 0.929 . S
C742 C738 1.531 . S
C742 H754 0.960 . S
C742 H755 0.962 . S
C742 H756 0.960 . S
C743 C740 1.511 . S
C743 H757 0.961 . S
C743 H758 0.961 . S
C743 H759 0.961 . S
C744 C745 1.360 1_545 S
C744 C746 1.363 . S
C744 H760 0.931 . S
C745 C744 1.360 1_565 S
C745 C749 1.417 . S
C746 C744 1.363 . S
C746 C747 1.370 . S
C746 C750 1.524 . S
C747 C739 1.503 . S
C747 C746 1.370 . S
C747 C748 1.403 1_545 S
C748 C747 1.403 1_565 S
C748 C749 1.404 . S
C748 C751 1.539 . S
C749 C745 1.417 . S
C749 C748 1.404 . S
C749 H761 0.930 . S
C750 C746 1.524 . S
C750 H762 0.956 . S
C750 H763 0.961 . S
C750 H764 0.961 . S
C751 C748 1.539 . S
C751 H765 0.958 . S
C751 H766 0.961 . S
C751 H767 0.960 . S
H752 C736 0.931 . S
H753 C741 0.929 . S
H754 C742 0.960 . S
H755 C742 0.962 . S
H756 C742 0.960 . S
H757 C743 0.961 . S
H758 C743 0.961 . S
H759 C743 0.961 . S
H760 C744 0.931 . S
H761 C749 0.930 . S
H762 C750 0.956 . S
H763 C750 0.961 . S
H764 C750 0.961 . S
H765 C751 0.958 . S
H766 C751 0.961 . S
H767 C751 0.960 . S
C768 C769 1.391 . S
C768 C770 1.394 . S
C768 H784 0.931 . S
C769 C768 1.391 . S
C769 C773 1.376 . S
C770 C768 1.394 . S
C770 C771 1.369 . S
C770 C774 1.531 . S
C771 C770 1.369 . S
C771 C772 1.410 . S
C771 C779 1.503 . S
C772 C771 1.410 . S
C772 C773 1.392 . S
C772 C775 1.511 . S
C773 C769 1.376 . S
C773 C772 1.392 . S
C773 H785 0.929 . S
C774 C770 1.531 . S
C774 H786 0.960 . S
C774 H787 0.962 . S
C774 H788 0.960 . S
C775 C772 1.511 . S
C775 H789 0.961 . S
C775 H790 0.961 . S
C775 H791 0.961 . S
C776 C777 1.370 . S
C776 C778 1.363 . S
C776 H792 0.931 . S
C777 C776 1.370 . S
C777 C781 1.408 . S
C778 C776 1.363 . S
C778 C779 1.370 . S
C778 C782 1.524 . S
C779 C771 1.503 . S
C779 C778 1.370 . S
C779 C780 1.403 . S
C780 C779 1.403 . S
C780 C781 1.404 . S
C780 C783 1.539 . S
C781 C777 1.408 . S
C781 C780 1.404 . S
C781 H793 0.930 . S
C782 C778 1.524 . S
C782 H794 0.956 . S
C782 H795 0.961 . S
C782 H796 0.961 . S
C783 C780 1.539 . S
C783 H797 0.958 . S
C783 H798 0.961 . S
C783 H799 0.960 . S
H784 C768 0.931 . S
H785 C773 0.929 . S
H786 C774 0.960 . S
H787 C774 0.962 . S
H788 C774 0.960 . S
H789 C775 0.961 . S
H790 C775 0.961 . S
H791 C775 0.961 . S
H792 C776 0.931 . S
H793 C781 0.930 . S
H794 C782 0.956 . S
H795 C782 0.961 . S
H796 C782 0.961 . S
H797 C783 0.958 . S
H798 C783 0.961 . S
H799 C783 0.960 . S
C800 C801 1.391 . S
C800 C802 1.394 . S
C800 H816 0.931 . S
C801 C800 1.391 . S
C801 C805 1.376 . S
C802 C800 1.394 . S
C802 C803 1.369 . S
C802 C806 1.531 . S
C803 C802 1.369 . S
C803 C804 1.410 . S
C803 C811 1.503 . S
C804 C803 1.410 . S
C804 C805 1.392 . S
C804 C807 1.511 . S
C805 C801 1.376 . S
C805 C804 1.392 . S
C805 H817 0.929 . S
C806 C802 1.531 . S
C806 H818 0.960 . S
C806 H819 0.962 . S
C806 H820 0.960 . S
C807 C804 1.511 . S
C807 H821 0.961 . S
C807 H822 0.961 . S
C807 H823 0.961 . S
C808 C809 1.370 . S
C808 C810 1.363 . S
C808 H824 0.931 . S
C809 C808 1.370 . S
C809 C813 1.408 . S
C810 C808 1.363 . S
C810 C811 1.370 . S
C810 C814 1.524 . S
C811 C803 1.503 . S
C811 C810 1.370 . S
C811 C812 1.403 . S
C812 C811 1.403 . S
C812 C813 1.404 . S
C812 C815 1.539 . S
C813 C809 1.408 . S
C813 C812 1.404 . S
C813 H825 0.930 . S
C814 C810 1.524 . S
C814 H826 0.956 . S
C814 H827 0.961 . S
C814 H828 0.961 . S
C815 C812 1.539 . S
C815 H829 0.958 . S
C815 H830 0.961 . S
C815 H831 0.960 . S
H816 C800 0.931 . S
H817 C805 0.929 . S
H818 C806 0.960 . S
H819 C806 0.962 . S
H820 C806 0.960 . S
H821 C807 0.961 . S
H822 C807 0.961 . S
H823 C807 0.961 . S
H824 C808 0.931 . S
H825 C813 0.930 . S
H826 C814 0.956 . S
H827 C814 0.961 . S
H828 C814 0.961 . S
H829 C815 0.958 . S
H830 C815 0.961 . S
H831 C815 0.960 . S
C832 C833 1.391 1_455 S
C832 C834 1.394 . S
C832 H848 0.931 . S
C833 C832 1.391 1_655 S
C833 C837 1.376 . S
C834 C832 1.394 . S
C834 C835 1.369 . S
C834 C838 1.531 . S
C835 C834 1.369 . S
C835 C836 1.410 1_455 S
C835 C843 1.503 . S
C836 C835 1.410 1_655 S
C836 C837 1.392 . S
C836 C839 1.511 . S
C837 C833 1.376 . S
C837 C836 1.392 . S
C837 H849 0.929 . S
C838 C834 1.531 . S
C838 H850 0.974 . S
C838 H851 0.962 . S
C838 H852 0.966 . S
C839 C836 1.511 . S
C839 H853 0.964 . S
C839 H854 0.961 1_655 S
C839 H855 0.961 . S
C840 C841 1.370 . S
C840 C842 1.363 . S
C840 H856 0.931 . S
C841 C840 1.370 . S
C841 C845 1.408 1_455 S
C842 C840 1.363 . S
C842 C843 1.370 . S
C842 C846 1.524 . S
C843 C835 1.503 . S
C843 C842 1.370 . S
C843 C844 1.403 1_455 S
C844 C843 1.403 1_655 S
C844 C845 1.404 . S
C844 C847 1.539 . S
C845 C841 1.408 1_655 S
C845 C844 1.404 . S
C845 H857 0.930 . S
C846 C842 1.524 . S
C846 H858 0.956 . S
C846 H859 0.961 . S
C846 H860 0.961 . S
C847 C844 1.539 . S
C847 H861 0.958 . S
C847 H862 0.961 . S
C847 H863 0.960 . S
H848 C832 0.931 . S
H849 C837 0.929 . S
H850 C838 0.974 . S
H851 C838 0.962 . S
H852 C838 0.966 . S
H853 C839 0.964 . S
H854 C839 0.961 1_455 S
H855 C839 0.961 . S
H856 C840 0.931 . S
H857 C845 0.930 . S
H858 C846 0.956 . S
H859 C846 0.961 . S
H860 C846 0.961 . S
H861 C847 0.958 . S
H862 C847 0.961 . S
H863 C847 0.960 . S
C864 C865 1.391 . S
C864 C866 1.394 . S
C864 H880 0.931 . S
C865 C864 1.391 . S
C865 C869 1.376 . S
C866 C864 1.394 . S
C866 C867 1.369 . S
C866 C870 1.531 . S
C867 C866 1.369 . S
C867 C868 1.410 . S
C867 C875 1.503 . S
C868 C867 1.410 . S
C868 C869 1.392 . S
C868 C871 1.511 1_565 S
C869 C865 1.376 . S
C869 C868 1.392 . S
C869 H881 0.929 . S
C870 C866 1.531 . S
C870 H882 0.960 . S
C870 H883 0.962 . S
C870 H884 0.960 . S
C871 C868 1.511 1_545 S
C871 H885 0.961 . S
C871 H886 0.961 . S
C871 H887 0.961 . S
C872 C873 1.349 1_565 S
C872 C874 1.363 . S
C872 H888 0.931 . S
C873 C872 1.349 1_545 S
C873 C877 1.428 . S
C874 C872 1.363 . S
C874 C875 1.370 . S
C874 C878 1.524 . S
C875 C867 1.503 . S
C875 C874 1.370 . S
C875 C876 1.403 1_565 S
C876 C875 1.403 1_545 S
C876 C877 1.404 . S
C876 C879 1.539 . S
C877 C873 1.428 . S
C877 C876 1.404 . S
C877 H889 0.930 . S
C878 C874 1.524 . S
C878 H890 0.956 . S
C878 H891 0.961 . S
C878 H892 0.961 . S
C879 C876 1.539 . S
C879 H893 0.958 . S
C879 H894 0.961 . S
C879 H895 0.960 . S
H880 C864 0.931 . S
H881 C869 0.929 . S
H882 C870 0.960 . S
H883 C870 0.962 . S
H884 C870 0.960 . S
H885 C871 0.961 . S
H886 C871 0.961 . S
H887 C871 0.961 . S
H888 C872 0.931 . S
H889 C877 0.930 . S
H890 C878 0.956 . S
H891 C878 0.961 . S
H892 C878 0.961 . S
H893 C879 0.958 . S
H894 C879 0.961 . S
H895 C879 0.960 . S
C896 C897 1.391 . S
C896 C898 1.394 . S
C896 H912 0.931 . S
C897 C896 1.391 . S
C897 C901 1.376 . S
C898 C896 1.394 . S
C898 C899 1.369 . S
C898 C902 1.531 . S
C899 C898 1.369 . S
C899 C900 1.410 . S
C899 C907 1.503 . S
C900 C899 1.410 . S
C900 C901 1.392 . S
C900 C903 1.511 . S
C901 C897 1.376 . S
C901 C900 1.392 . S
C901 H913 0.929 . S
C902 C898 1.531 . S
C902 H914 0.960 . S
C902 H915 0.962 . S
C902 H916 0.960 . S
C903 C900 1.511 . S
C903 H917 0.961 . S
C903 H918 0.961 . S
C903 H919 0.961 . S
C904 C905 1.370 . S
C904 C906 1.363 . S
C904 H920 0.931 . S
C905 C904 1.370 . S
C905 C909 1.408 . S
C906 C904 1.363 . S
C906 C907 1.370 . S
C906 C910 1.524 . S
C907 C899 1.503 . S
C907 C906 1.370 . S
C907 C908 1.403 . S
C908 C907 1.403 . S
C908 C909 1.404 . S
C908 C911 1.539 . S
C909 C905 1.408 . S
C909 C908 1.404 . S
C909 H921 0.930 . S
C910 C906 1.524 . S
C910 H922 0.956 . S
C910 H923 0.961 . S
C910 H924 0.961 . S
C911 C908 1.539 . S
C911 H925 0.958 . S
C911 H926 0.961 . S
C911 H927 0.960 . S
H912 C896 0.931 . S
H913 C901 0.929 . S
H914 C902 0.960 . S
H915 C902 0.962 . S
H916 C902 0.960 . S
H917 C903 0.961 . S
H918 C903 0.961 . S
H919 C903 0.961 . S
H920 C904 0.931 . S
H921 C909 0.930 . S
H922 C910 0.956 . S
H923 C910 0.961 . S
H924 C910 0.961 . S
H925 C911 0.958 . S
H926 C911 0.961 . S
H927 C911 0.960 . S
C928 C929 1.391 . S
C928 C930 1.394 . S
C928 H944 0.931 . S
C929 C928 1.391 . S
C929 C933 1.376 . S
C930 C928 1.394 . S
C930 C931 1.369 . S
C930 C934 1.531 . S
C931 C930 1.369 . S
C931 C932 1.410 . S
C931 C939 1.503 . S
C932 C931 1.410 . S
C932 C933 1.392 . S
C932 C935 1.511 . S
C933 C929 1.376 . S
C933 C932 1.392 . S
C933 H945 0.929 . S
C934 C930 1.531 . S
C934 H946 0.960 . S
C934 H947 0.962 . S
C934 H948 0.960 . S
C935 C932 1.511 . S
C935 H949 0.961 . S
C935 H950 0.961 . S
C935 H951 0.961 . S
C936 C937 1.370 . S
C936 C938 1.363 . S
C936 H952 0.931 . S
C937 C936 1.370 . S
C937 C941 1.408 . S
C938 C936 1.363 . S
C938 C939 1.370 . S
C938 C942 1.524 . S
C939 C931 1.503 . S
C939 C938 1.370 . S
C939 C940 1.403 . S
C940 C939 1.403 . S
C940 C941 1.404 . S
C940 C943 1.539 . S
C941 C937 1.408 . S
C941 C940 1.404 . S
C941 H953 0.930 . S
C942 C938 1.524 . S
C942 H954 0.956 . S
C942 H955 0.961 . S
C942 H956 0.961 . S
C943 C940 1.539 . S
C943 H957 0.958 . S
C943 H958 0.961 . S
C943 H959 0.960 . S
H944 C928 0.931 . S
H945 C933 0.929 . S
H946 C934 0.960 . S
H947 C934 0.962 . S
H948 C934 0.960 . S
H949 C935 0.961 . S
H950 C935 0.961 . S
H951 C935 0.961 . S
H952 C936 0.931 . S
H953 C941 0.930 . S
H954 C942 0.956 . S
H955 C942 0.961 . S
H956 C942 0.961 . S
H957 C943 0.958 . S
H958 C943 0.961 . S
H959 C943 0.960 . S
C960 C961 1.391 . S
C960 C962 1.394 . S
C960 H976 0.917 1_655 S
C961 C960 1.391 . S
C961 C965 1.376 . S
C962 C960 1.394 . S
C962 C963 1.369 . S
C962 C966 1.531 1_655 S
C963 C962 1.369 . S
C963 C964 1.410 . S
C963 C971 1.503 . S
C964 C963 1.410 . S
C964 C965 1.392 . S
C964 C967 1.511 . S
C965 C961 1.376 . S
C965 C964 1.392 . S
C965 H977 0.929 . S
C966 C962 1.531 1_455 S
C966 H978 0.960 . S
C966 H979 0.962 . S
C966 H980 0.960 . S
C967 C964 1.511 . S
C967 H981 0.961 . S
C967 H982 0.961 . S
C967 H983 0.961 . S
C968 C969 1.350 1_455 S
C968 C970 1.363 . S
C968 H984 0.931 . S
C969 C968 1.350 1_655 S
C969 C973 1.436 . S
C970 C968 1.363 . S
C970 C971 1.370 1_455 S
C970 C974 1.524 . S
C971 C963 1.503 . S
C971 C970 1.370 1_655 S
C971 C972 1.403 . S
C972 C971 1.403 . S
C972 C973 1.404 . S
C972 C975 1.539 . S
C973 C969 1.436 . S
C973 C972 1.404 . S
C973 H985 0.930 . S
C974 C970 1.524 . S
C974 H986 0.956 . S
C974 H987 0.961 . S
C974 H988 0.961 . S
C975 C972 1.539 . S
C975 H989 0.958 . S
C975 H990 0.961 . S
C975 H991 0.960 . S
H976 C960 0.917 1_455 S
H977 C965 0.929 . S
H978 C966 0.960 . S
H979 C966 0.962 . S
H980 C966 0.960 . S
H981 C967 0.961 . S
H982 C967 0.961 . S
H983 C967 0.961 . S
H984 C968 0.931 . S
H985 C973 0.930 . S
H986 C974 0.956 . S
H987 C974 0.961 . S
H988 C974 0.961 . S
H989 C975 0.958 . S
H990 C975 0.961 . S
H991 C975 0.960 . S
C992 C993 1.391 1_554 S
C992 C994 1.394 . S
C992 H1008 0.931 . S
C993 C992 1.391 1_556 S
C993 C997 1.385 . S
C994 C992 1.394 . S
C994 C995 1.379 . S
C994 C998 1.531 . S
C995 C994 1.379 . S
C995 C996 1.404 1_544 S
C995 C1003 1.500 1_545 S
C996 C995 1.404 1_566 S
C996 C997 1.388 1_565 S
C996 C999 1.511 . S
C997 C993 1.385 . S
C997 C996 1.388 1_545 S
C997 H1009 0.924 1_545 S
C998 C994 1.531 . S
C998 H1010 0.960 . S
C998 H1011 0.962 . S
C998 H1012 0.960 . S
C999 C996 1.511 . S
C999 H1013 0.961 . S
C999 H1014 0.961 . S
C999 H1015 0.961 . S
C1000 C1001 1.370 1_556 S
C1000 C1002 1.363 1_565 S
C1000 H1016 0.931 1_565 S
C1001 C1000 1.370 1_554 S
C1001 C1005 1.408 . S
C1002 C1000 1.363 1_545 S
C1002 C1003 1.370 1_546 S
C1002 C1006 1.524 . S
C1003 C995 1.500 1_565 S
C1003 C1002 1.370 1_564 S
C1003 C1004 1.403 . S
C1004 C1003 1.403 . S
C1004 C1005 1.404 . S
C1004 C1007 1.539 . S
C1005 C1001 1.408 . S
C1005 C1004 1.404 . S
C1005 H1017 0.930 . S
C1006 C1002 1.524 . S
C1006 H1018 0.956 . S
C1006 H1019 0.961 . S
C1006 H1020 0.961 . S
C1007 C1004 1.539 . S
C1007 H1021 0.958 . S
C1007 H1022 0.961 . S
C1007 H1023 0.960 . S
H1008 C992 0.931 . S
H1009 C997 0.924 1_565 S
H1010 C998 0.960 . S
H1011 C998 0.962 . S
H1012 C998 0.960 . S
H1013 C999 0.961 . S
H1014 C999 0.961 . S
H1015 C999 0.961 . S
H1016 C1000 0.931 1_545 S
H1017 C1005 0.930 . S
H1018 C1006 0.956 . S
H1019 C1006 0.961 . S
H1020 C1006 0.961 . S
H1021 C1007 0.958 . S
H1022 C1007 0.961 . S
H1023 C1007 0.960 . S
C1024 C1025 1.391 . S
C1024 C1026 1.394 . S
C1024 H1040 0.931 . S
C1025 C1024 1.391 . S
C1025 C1029 1.376 1_556 S
C1026 C1024 1.394 . S
C1026 C1027 1.369 1_556 S
C1026 C1030 1.531 . S
C1027 C1026 1.369 1_554 S
C1027 C1028 1.410 . S
C1027 C1035 1.503 . S
C1028 C1027 1.410 . S
C1028 C1029 1.392 . S
C1028 C1031 1.511 . S
C1029 C1025 1.376 1_554 S
C1029 C1028 1.392 . S
C1029 H1041 0.929 . S
C1030 C1026 1.531 . S
C1030 H1042 0.960 . S
C1030 H1043 0.962 . S
C1030 H1044 0.960 . S
C1031 C1028 1.511 . S
C1031 H1045 0.961 . S
C1031 H1046 0.961 . S
C1031 H1047 0.961 . S
C1032 C1033 1.370 1_556 S
C1032 C1034 1.363 . S
C1032 H1048 0.931 . S
C1033 C1032 1.370 1_554 S
C1033 C1037 1.408 . S
C1034 C1032 1.363 . S
C1034 C1035 1.370 1_556 S
C1034 C1038 1.524 . S
C1035 C1027 1.503 . S
C1035 C1034 1.370 1_554 S
C1035 C1036 1.403 . S
C1036 C1035 1.403 . S
C1036 C1037 1.404 . S
C1036 C1039 1.539 . S
C1037 C1033 1.408 . S
C1037 C1036 1.404 . S
C1037 H1049 0.930 . S
C1038 C1034 1.524 . S
C1038 H1050 0.956 . S
C1038 H1051 0.961 . S
C1038 H1052 0.961 . S
C1039 C1036 1.539 . S
C1039 H1053 0.958 . S
C1039 H1054 0.961 . S
C1039 H1055 0.960 . S
H1040 C1024 0.931 . S
H1041 C1029 0.929 . S
H1042 C1030 0.960 . S
H1043 C1030 0.962 . S
H1044 C1030 0.960 . S
H1045 C1031 0.961 . S
H1046 C1031 0.961 . S
H1047 C1031 0.961 . S
H1048 C1032 0.931 . S
H1049 C1037 0.930 . S
H1050 C1038 0.956 . S
H1051 C1038 0.961 . S
H1052 C1038 0.961 . S
H1053 C1039 0.958 . S
H1054 C1039 0.961 . S
H1055 C1039 0.960 . S
C1056 C1057 1.391 . S
C1056 C1058 1.394 . S
C1056 H1072 0.931 . S
C1057 C1056 1.391 . S
C1057 C1061 1.376 . S
C1058 C1056 1.394 . S
C1058 C1059 1.369 . S
C1058 C1062 1.531 1_655 S
C1059 C1058 1.369 . S
C1059 C1060 1.410 . S
C1059 C1067 1.503 1_655 S
C1060 C1059 1.410 . S
C1060 C1061 1.392 . S
C1060 C1063 1.511 . S
C1061 C1057 1.376 . S
C1061 C1060 1.392 . S
C1061 H1073 0.929 . S
C1062 C1058 1.531 1_455 S
C1062 H1074 0.960 . S
C1062 H1075 0.962 . S
C1062 H1076 0.960 . S
C1063 C1060 1.511 . S
C1063 H1077 0.961 1_554 S
C1063 H1078 0.961 1_554 S
C1063 H1079 0.961 . S
C1064 C1065 1.370 . S
C1064 C1066 1.363 . S
C1064 H1080 0.931 . S
C1065 C1064 1.370 . S
C1065 C1069 1.408 1_556 S
C1066 C1064 1.363 . S
C1066 C1067 1.370 1_556 S
C1066 C1070 1.524 . S
C1067 C1059 1.503 1_455 S
C1067 C1066 1.370 1_554 S
C1067 C1068 1.403 . S
C1068 C1067 1.403 . S
C1068 C1069 1.404 . S
C1068 C1071 1.539 . S
C1069 C1065 1.408 1_554 S
C1069 C1068 1.404 . S
C1069 H1081 0.930 . S
C1070 C1066 1.524 . S
C1070 H1082 0.956 . S
C1070 H1083 0.961 1_455 S
C1070 H1084 0.961 . S
C1071 C1068 1.539 . S
C1071 H1085 0.958 . S
C1071 H1086 0.961 . S
C1071 H1087 0.994 . S
H1072 C1056 0.931 . S
H1073 C1061 0.929 . S
H1074 C1062 0.960 . S
H1075 C1062 0.962 . S
H1076 C1062 0.960 . S
H1077 C1063 0.961 1_556 S
H1078 C1063 0.961 1_556 S
H1079 C1063 0.961 . S
H1080 C1064 0.931 . S
H1081 C1069 0.930 . S
H1082 C1070 0.956 . S
H1083 C1070 0.961 1_655 S
H1084 C1070 0.961 . S
H1085 C1071 0.958 . S
H1086 C1071 0.961 . S
H1087 C1071 0.994 . S
C1088 C1089 1.391 1_554 S
C1088 C1090 1.394 . S
C1088 H1104 0.931 . S
C1089 C1088 1.391 1_556 S
C1089 C1093 1.376 . S
C1090 C1088 1.394 . S
C1090 C1091 1.369 1_454 S
C1090 C1094 1.531 . S
C1091 C1090 1.369 1_656 S
C1091 C1092 1.410 . S
C1091 C1099 1.503 1_546 S
C1092 C1091 1.410 . S
C1092 C1093 1.392 1_655 S
C1092 C1095 1.511 . S
C1093 C1089 1.376 . S
C1093 C1092 1.392 1_455 S
C1093 H1105 0.929 . S
C1094 C1090 1.531 . S
C1094 H1106 0.960 1_455 S
C1094 H1107 0.962 . S
C1094 H1108 0.960 . S
C1095 C1092 1.511 . S
C1095 H1109 0.961 . S
C1095 H1110 0.961 1_545 S
C1095 H1111 0.961 . S
C1096 C1097 1.370 1_455 S
C1096 C1098 1.363 . S
C1096 H1112 0.931 . S
C1097 C1096 1.370 1_655 S
C1097 C1101 1.408 . S
C1098 C1096 1.363 . S
C1098 C1099 1.370 1_455 S
C1098 C1102 1.524 1_554 S
C1099 C1091 1.503 1_564 S
C1099 C1098 1.370 1_655 S
C1099 C1100 1.403 . S
C1100 C1099 1.403 . S
C1100 C1101 1.404 . S
C1100 C1103 1.539 1_565 S
C1101 C1097 1.408 . S
C1101 C1100 1.404 . S
C1101 H1113 0.930 . S
C1102 C1098 1.524 1_556 S
C1102 H1114 0.956 1_556 S
C1102 H1115 0.961 . S
C1102 H1116 0.961 . S
C1103 C1100 1.539 1_545 S
C1103 H1117 0.958 . S
C1103 H1118 0.961 1_545 S
C1103 H1119 0.960 1_554 S
H1104 C1088 0.931 . S
H1105 C1093 0.929 . S
H1106 C1094 0.960 1_655 S
H1107 C1094 0.962 . S
H1108 C1094 0.960 . S
H1109 C1095 0.961 . S
H1110 C1095 0.961 1_565 S
H1111 C1095 0.961 . S
H1112 C1096 0.931 . S
H1113 C1101 0.930 . S
H1114 C1102 0.956 1_554 S
H1115 C1102 0.961 . S
H1116 C1102 0.961 . S
H1117 C1103 0.958 . S
H1118 C1103 0.961 1_565 S
H1119 C1103 0.960 1_556 S
C1120 C1121 1.391 . S
C1120 C1122 1.394 . S
C1120 H1136 0.931 . S
C1121 C1120 1.391 . S
C1121 C1125 1.376 . S
C1122 C1120 1.394 . S
C1122 C1123 1.369 1_545 S
C1122 C1126 1.532 1_455 S
C1123 C1122 1.369 1_565 S
C1123 C1124 1.410 . S
C1123 C1131 1.503 1_455 S
C1124 C1123 1.410 . S
C1124 C1125 1.392 1_565 S
C1124 C1127 1.511 . S
C1125 C1121 1.376 . S
C1125 C1124 1.392 1_545 S
C1125 H1137 0.929 . S
C1126 C1122 1.532 1_655 S
C1126 H1138 0.939 1_545 S
C1126 H1139 0.961 . S
C1126 H1140 0.961 1_655 S
C1127 C1124 1.511 . S
C1127 H1141 0.961 . S
C1127 H1142 0.961 . S
C1127 H1143 0.961 . S
C1128 C1129 1.370 1_545 S
C1128 C1130 1.363 . S
C1128 H1144 0.931 . S
C1129 C1128 1.370 1_565 S
C1129 C1133 1.408 . S
C1130 C1128 1.363 . S
C1130 C1131 1.370 1_545 S
C1130 C1134 1.524 . S
C1131 C1123 1.503 1_655 S
C1131 C1130 1.370 1_565 S
C1131 C1132 1.403 . S
C1132 C1131 1.403 . S
C1132 C1133 1.404 . S
C1132 C1135 1.539 . S
C1133 C1129 1.408 . S
C1133 C1132 1.404 . S
C1133 H1145 0.930 . S
C1134 C1130 1.524 . S
C1134 H1146 0.956 . S
C1134 H1147 0.961 . S
C1134 H1148 0.961 . S
C1135 C1132 1.539 . S
C1135 H1149 0.958 . S
C1135 H1150 0.961 . S
C1135 H1151 0.960 1_655 S
H1136 C1120 0.931 . S
H1137 C1125 0.929 . S
H1138 C1126 0.939 1_565 S
H1139 C1126 0.961 . S
H1140 C1126 0.961 1_455 S
H1141 C1127 0.961 . S
H1142 C1127 0.961 . S
H1143 C1127 0.961 . S
H1144 C1128 0.931 . S
H1145 C1133 0.930 . S
H1146 C1134 0.956 . S
H1147 C1134 0.961 . S
H1148 C1134 0.961 . S
H1149 C1135 0.958 . S
H1150 C1135 0.961 . S
H1151 C1135 0.960 1_455 S
C1152 C1153 1.391 . S
C1152 C1154 1.394 . S
C1152 H1168 0.931 . S
C1153 C1152 1.391 . S
C1153 C1157 1.376 . S
C1154 C1152 1.394 . S
C1154 C1155 1.369 . S
C1154 C1158 1.531 . S
C1155 C1154 1.369 . S
C1155 C1156 1.410 . S
C1155 C1163 1.503 1_565 S
C1156 C1155 1.410 . S
C1156 C1157 1.392 . S
C1156 C1159 1.511 1_565 S
C1157 C1153 1.376 . S
C1157 C1156 1.392 . S
C1157 H1169 0.929 . S
C1158 C1154 1.531 . S
C1158 H1170 0.960 . S
C1158 H1171 0.962 . S
C1158 H1172 0.960 . S
C1159 C1156 1.511 1_545 S
C1159 H1173 0.961 1_545 S
C1159 H1174 0.961 . S
C1159 H1175 0.961 . S
C1160 C1161 1.370 . S
C1160 C1162 1.363 . S
C1160 H1176 0.931 . S
C1161 C1160 1.370 . S
C1161 C1165 1.408 . S
C1162 C1160 1.363 . S
C1162 C1163 1.370 . S
C1162 C1166 1.524 1_545 S
C1163 C1155 1.503 1_545 S
C1163 C1162 1.370 . S
C1163 C1164 1.403 . S
C1164 C1163 1.403 . S
C1164 C1165 1.404 . S
C1164 C1167 1.539 . S
C1165 C1161 1.408 . S
C1165 C1164 1.404 . S
C1165 H1177 0.930 . S
C1166 C1162 1.524 1_565 S
C1166 H1178 0.956 . S
C1166 H1179 0.961 . S
C1166 H1180 0.961 . S
C1167 C1164 1.539 . S
C1167 H1181 0.958 . S
C1167 H1182 0.961 . S
C1167 H1183 0.960 . S
H1168 C1152 0.931 . S
H1169 C1157 0.929 . S
H1170 C1158 0.960 . S
H1171 C1158 0.962 . S
H1172 C1158 0.960 . S
H1173 C1159 0.961 1_565 S
H1174 C1159 0.961 . S
H1175 C1159 0.961 . S
H1176 C1160 0.931 . S
H1177 C1165 0.930 . S
H1178 C1166 0.956 . S
H1179 C1166 0.961 . S
H1180 C1166 0.961 . S
H1181 C1167 0.958 . S
H1182 C1167 0.961 . S
H1183 C1167 0.960 . S
C1184 C1185 1.391 . S
C1184 C1186 1.394 . S
C1184 H1200 0.931 . S
C1185 C1184 1.391 . S
C1185 C1189 1.376 . S
C1186 C1184 1.394 . S
C1186 C1187 1.369 . S
C1186 C1190 1.531 . S
C1187 C1186 1.369 . S
C1187 C1188 1.410 . S
C1187 C1195 1.503 . S
C1188 C1187 1.410 . S
C1188 C1189 1.392 . S
C1188 C1191 1.511 . S
C1189 C1185 1.376 . S
C1189 C1188 1.392 . S
C1189 H1201 0.929 . S
C1190 C1186 1.531 . S
C1190 H1202 0.960 . S
C1190 H1203 0.962 . S
C1190 H1204 0.960 . S
C1191 C1188 1.511 . S
C1191 H1205 0.961 . S
C1191 H1206 0.961 . S
C1191 H1207 0.961 . S
C1192 C1193 1.370 . S
C1192 C1194 1.363 . S
C1192 H1208 0.931 . S
C1193 C1192 1.370 . S
C1193 C1197 1.408 . S
C1194 C1192 1.363 . S
C1194 C1195 1.370 . S
C1194 C1198 1.524 . S
C1195 C1187 1.503 . S
C1195 C1194 1.370 . S
C1195 C1196 1.403 . S
C1196 C1195 1.403 . S
C1196 C1197 1.404 . S
C1196 C1199 1.539 . S
C1197 C1193 1.408 . S
C1197 C1196 1.404 . S
C1197 H1209 0.930 . S
C1198 C1194 1.524 . S
C1198 H1210 0.956 . S
C1198 H1211 0.961 . S
C1198 H1212 0.961 . S
C1199 C1196 1.539 . S
C1199 H1213 0.958 . S
C1199 H1214 0.961 . S
C1199 H1215 0.960 . S
H1200 C1184 0.931 . S
H1201 C1189 0.929 . S
H1202 C1190 0.960 . S
H1203 C1190 0.962 . S
H1204 C1190 0.960 . S
H1205 C1191 0.961 . S
H1206 C1191 0.961 . S
H1207 C1191 0.961 . S
H1208 C1192 0.931 . S
H1209 C1197 0.930 . S
H1210 C1198 0.956 . S
H1211 C1198 0.961 . S
H1212 C1198 0.961 . S
H1213 C1199 0.958 . S
H1214 C1199 0.961 . S
H1215 C1199 0.960 . S
C1216 C1217 1.391 . S
C1216 C1218 1.394 . S
C1216 H1232 0.931 . S
C1217 C1216 1.391 . S
C1217 C1221 1.376 . S
C1218 C1216 1.394 . S
C1218 C1219 1.369 . S
C1218 C1222 1.531 1_655 S
C1219 C1218 1.369 . S
C1219 C1220 1.410 . S
C1219 C1227 1.503 1_655 S
C1220 C1219 1.410 . S
C1220 C1221 1.392 . S
C1220 C1223 1.511 . S
C1221 C1217 1.376 . S
C1221 C1220 1.392 . S
C1221 H1233 0.929 . S
C1222 C1218 1.531 1_455 S
C1222 H1234 0.960 . S
C1222 H1235 0.962 . S
C1222 H1236 0.960 . S
C1223 C1220 1.511 . S
C1223 H1237 0.961 . S
C1223 H1238 0.961 . S
C1223 H1239 0.961 . S
C1224 C1225 1.370 . S
C1224 C1226 1.363 . S
C1224 H1240 0.931 . S
C1225 C1224 1.370 . S
C1225 C1229 1.408 1_455 S
C1226 C1224 1.363 . S
C1226 C1227 1.370 . S
C1226 C1230 1.524 . S
C1227 C1219 1.503 1_455 S
C1227 C1226 1.370 . S
C1227 C1228 1.403 1_455 S
C1228 C1227 1.403 1_655 S
C1228 C1229 1.404 . S
C1228 C1231 1.539 . S
C1229 C1225 1.408 1_655 S
C1229 C1228 1.404 . S
C1229 H1241 0.930 . S
C1230 C1226 1.524 . S
C1230 H1242 0.956 . S
C1230 H1243 0.961 . S
C1230 H1244 0.961 . S
C1231 C1228 1.539 . S
C1231 H1245 0.958 . S
C1231 H1246 0.961 . S
C1231 H1247 0.960 . S
H1232 C1216 0.931 . S
H1233 C1221 0.929 . S
H1234 C1222 0.960 . S
H1235 C1222 0.962 . S
H1236 C1222 0.960 . S
H1237 C1223 0.961 . S
H1238 C1223 0.961 . S
H1239 C1223 0.961 . S
H1240 C1224 0.931 . S
H1241 C1229 0.930 . S
H1242 C1230 0.956 . S
H1243 C1230 0.961 . S
H1244 C1230 0.961 . S
H1245 C1231 0.958 . S
H1246 C1231 0.961 . S
H1247 C1231 0.960 . S
C225 C79 0.463 . S
C233 C9 0.391 . S
C257 C93 0.336 . S
C265 C23 0.346 . S
C289 C37 0.467 . S
C297 C107 0.396 . S
C321 C51 0.447 . S
C329 C65 0.435 . S
C353 C121 0.289 . S
C361 C191 0.347 . S
C385 C205 0.282 . S
C393 C135 0.369 . S
C417 C219 0.436 . S
C425 C149 0.405 . S
C449 C163 0.428 . S
C457 C177 0.434 . S
C481 C8 1.609 . S
C489 C175 1.532 . S
C513 C189 1.607 . S
C521 C22 1.662 . S
C545 C36 1.666 . S
C553 C203 1.587 . S
C577 C50 1.625 1_655 S
C585 C217 1.544 . S
C609 C64 1.627 . S
C617 C119 1.547 . S
C641 C78 1.662 . S
C649 C133 1.596 . S
C673 C92 1.669 . S
C681 C147 1.563 . S
C705 C106 1.607 . S
C713 C161 1.536 . S
C737 C63 1.495 . S
C745 C120 1.616 . S
C769 C77 1.561 . S
C777 C134 1.665 . S
C801 C91 1.617 . S
C809 C148 1.666 . S
C833 C162 1.630 . S
C841 C105 1.544 . S
C865 C7 1.537 . S
C873 C176 1.631 . S
C897 C190 1.658 . S
C905 C21 1.605 . S
C929 C204 1.664 . S
C937 C35 1.567 . S
C961 C49 1.532 . S
C969 C218 1.606 1_655 S
C993 C115 1.504 . S
C1001 C3 1.552 . S
C1025 C129 1.615 . S
C1033 C17 1.568 . S
C1057 C31 1.669 . S
C1065 C143 1.700 . S
C1089 C157 1.563 . S
C1097 C45 1.623 . S
C1121 C59 1.561 . S
C1129 C171 1.624 . S
C1153 C185 1.704 . S
C1161 C73 1.680 . S
C1185 C199 1.559 . S
C1193 C87 1.588 . S
C1217 C213 1.566 . S
C1225 C101 1.521 . S
