# Generated by pormake.
# Topology cdt, (3)-cn, num edge types: 1
# Building blocks:
#     Node 0, Type 0, BuildingBlock: OLANEW_clean_sbu_2, # of connection points: 3
#     Node 1, Type 0, BuildingBlock: OLANEW_clean_sbu_2, # of connection points: 3
#     Node 2, Type 0, BuildingBlock: OLANEW_clean_sbu_2, # of connection points: 3
#     Node 3, Type 0, BuildingBlock: OLANEW_clean_sbu_2, # of connection points: 3
#     Node 4, Type 0, BuildingBlock: OLANEW_clean_sbu_2, # of connection points: 3
#     Node 5, Type 0, BuildingBlock: OLANEW_clean_sbu_2, # of connection points: 3
#     Node 6, Type 0, BuildingBlock: OLANEW_clean_sbu_2, # of connection points: 3
#     Node 7, Type 0, BuildingBlock: OLANEW_clean_sbu_2, # of connection points: 3
#     Edge 8, Type (0, 0), BuildingBlock: FUNLAD_clean_linker_1, # of connection points: 2
#     Edge 9, Type (0, 0), BuildingBlock: FUNLAD_clean_linker_1, # of connection points: 2
#     Edge 10, Type (0, 0), BuildingBlock: FUNLAD_clean_linker_1, # of connection points: 2
#     Edge 11, Type (0, 0), BuildingBlock: FUNLAD_clean_linker_1, # of connection points: 2
#     Edge 12, Type (0, 0), BuildingBlock: FUNLAD_clean_linker_1, # of connection points: 2
#     Edge 13, Type (0, 0), BuildingBlock: FUNLAD_clean_linker_1, # of connection points: 2
#     Edge 14, Type (0, 0), BuildingBlock: FUNLAD_clean_linker_1, # of connection points: 2
#     Edge 15, Type (0, 0), BuildingBlock: FUNLAD_clean_linker_1, # of connection points: 2
#     Edge 16, Type (0, 0), BuildingBlock: FUNLAD_clean_linker_1, # of connection points: 2
#     Edge 17, Type (0, 0), BuildingBlock: FUNLAD_clean_linker_1, # of connection points: 2
#     Edge 18, Type (0, 0), BuildingBlock: FUNLAD_clean_linker_1, # of connection points: 2
#     Edge 19, Type (0, 0), BuildingBlock: FUNLAD_clean_linker_1, # of connection points: 2
# Relax obj value: 0.002
# Max RMSD: 0.036
# Mean RMSD: 0.036
data_MOF--net-cdt--node1-OLANEW_clean_sbu_2--edge1-FUNLAD_clean_linker_1
_symmetry_space_group_name_H-M    P1
_symmetry_Int_Tables_number       1
_symmetry_cell_setting            triclinic
loop_
_symmetry_equiv_pos_as_xyz
'x, y, z'
_cell_length_a     50.601112
_cell_length_b     22.000591
_cell_length_c     49.46792
_cell_angle_alpha  89.752208
_cell_angle_beta   86.538628
_cell_angle_gamma 90.279849
loop_
_atom_site_label
_atom_site_type_symbol
_atom_site_fract_x
_atom_site_fract_y
_atom_site_fract_z
_atom_type_partial_charge
O0 O 0.38445 0.30423 0.12831 0.0
Cd1 Cd 0.37397 0.29255 0.08095 0.0
O2 O 0.3552 0.23516 0.14288 0.0
Cd3 Cd 0.3382 0.2161 0.10423 0.0
O4 O 0.30407 0.18456 0.083 0.0
C5 C 0.29587 0.13099 0.08842 0.0
O6 O 0.30913 0.0969 0.10471 0.0
C7 C 0.37327 0.2734 0.14758 0.0
C8 C 0.39823 0.38202 0.04775 0.0
O9 O 0.3752 0.39037 0.05927 0.0
O10 O 0.40988 0.3315 0.05188 0.0
O11 O 0.01248 0.82079 0.15059 0.0
Cd12 Cd 0.02148 0.83338 0.10172 0.0
O13 O 0.05071 0.86143 0.16019 0.0
Cd14 Cd 0.06682 0.88171 0.11917 0.0
O15 O 0.10177 0.91781 0.09629 0.0
C16 C 0.12245 0.88512 0.09484 0.0
O17 O 0.12125 0.82983 0.10493 0.0
C18 C 0.02868 0.83716 0.16786 0.0
C19 C 0.01102 0.72668 0.07399 0.0
O20 O -0.00724 0.76586 0.07914 0.0
O21 O 0.03421 0.7379 0.08179 0.0
O22 O 0.36399 0.32417 0.36867 0.0
Cd23 Cd 0.35876 0.34228 0.41743 0.0
O24 O 0.32106 0.313 0.3649 0.0
Cd25 Cd 0.30846 0.34356 0.40561 0.0
O26 O 0.28006 0.40102 0.42854 0.0
C27 C 0.2558 0.39096 0.4249 0.0
O28 O 0.24948 0.34501 0.40963 0.0
C29 C 0.34459 0.31198 0.3544 0.0
C30 C 0.36754 0.23577 0.4462 0.0
O31 O 0.34417 0.25029 0.44002 0.0
O32 O 0.38674 0.27172 0.43905 0.0
O33 O -0.01936 0.76189 0.39104 0.0
Cd34 Cd -0.00999 0.74269 0.43825 0.0
O35 O 0.01833 0.72209 0.37517 0.0
Cd36 Cd 0.03332 0.69088 0.41334 0.0
O37 O 0.06232 0.63436 0.43262 0.0
C38 C 0.08612 0.65294 0.43249 0.0
O39 O 0.0921 0.70731 0.42277 0.0
C40 C -0.00342 0.74843 0.37116 0.0
C41 C -0.03077 0.83393 0.47216 0.0
O42 O -0.00734 0.83844 0.46099 0.0
O43 O -0.04441 0.78631 0.46744 0.0
O44 O 0.52159 0.72286 0.83105 0.0
Cd45 Cd 0.53866 0.73297 0.87606 0.0
O46 O 0.55664 0.76443 0.80952 0.0
Cd47 Cd 0.5786 0.78541 0.84502 0.0
O48 O 0.61073 0.82852 0.86565 0.0
C49 C 0.60814 0.88269 0.87421 0.0
O50 O 0.58554 0.91074 0.87199 0.0
C51 C 0.53391 0.73961 0.80912 0.0
C52 C 0.51552 0.64694 0.91187 0.0
O53 O 0.50484 0.69908 0.90894 0.0
O54 O 0.53716 0.63553 0.8981 0.0
O55 O 0.90806 0.23533 0.91412 0.0
Cd56 Cd 0.9218 0.23303 0.96069 0.0
O57 O 0.87146 0.18928 0.92895 0.0
Cd58 Cd 0.83322 0.14661 0.92251 0.0
O59 O 0.79602 0.09872 0.91679 0.0
C60 C 0.79642 0.04213 0.91172 0.0
O61 O 0.81917 0.01357 0.90992 0.0
C62 C 0.88577 0.21201 0.90944 0.0
C63 C 0.93243 0.34734 0.9817 0.0
O64 O -0.04905 0.31572 0.96996 0.0
O65 O 0.90888 0.32547 0.98319 0.0
O66 O 0.46824 0.73625 0.60183 0.0
Cd67 Cd 0.45331 0.73351 0.55574 0.0
O68 O 0.50342 0.68517 0.58744 0.0
Cd69 Cd 0.54071 0.63995 0.59489 0.0
O70 O 0.57706 0.59329 0.60439 0.0
C71 C 0.58088 0.57975 0.62884 0.0
O72 O 0.56294 0.59414 0.64799 0.0
C73 C 0.49 0.7109 0.60663 0.0
C74 C 0.44311 0.84825 0.53476 0.0
O75 O 0.42463 0.81709 0.5472 0.0
O76 O 0.46641 0.82562 0.53248 0.0
O77 O 0.85552 0.20004 0.68465 0.0
Cd78 Cd 0.8383 0.20602 0.63954 0.0
O79 O 0.8225 0.25104 0.70472 0.0
Cd80 Cd 0.80044 0.26805 0.66884 0.0
O81 O 0.76807 0.30543 0.64666 0.0
C82 C 0.75627 0.35101 0.65733 0.0
O83 O 0.76443 0.37305 0.68005 0.0
C84 C 0.84424 0.22265 0.70592 0.0
C85 C 0.85971 0.11536 0.60564 0.0
O86 O 0.87132 0.16699 0.60733 0.0
O87 O 0.83799 0.10655 0.61981 0.0
H88 H 0.25825 0.14271 0.06846 0.0
C89 C 0.26991 0.11085 0.07958 0.0
H90 H 0.27082 0.02437 0.09831 0.0
H91 H 0.14433 0.04672 0.11817 0.0
H92 H 0.15528 0.11675 0.15346 0.0
H93 H 0.20114 0.15285 0.15704 0.0
H94 H 0.23631 0.11914 0.12531 0.0
C95 C 0.25946 0.05673 0.08716 0.0
C96 C 0.23145 0.0409 0.08288 0.0
C97 C 0.21104 0.06179 0.1014 0.0
C98 C 0.1846 0.04085 0.09935 0.0
C99 C 0.16473 0.06134 0.11856 0.0
C100 C 0.17074 0.10153 0.13901 0.0
C101 C 0.19655 0.12186 0.14103 0.0
C102 C 0.21656 0.10221 0.12259 0.0
H103 H 0.16583 0.88302 0.08852 0.0
C104 C 0.14853 0.91139 0.0864 0.0
H105 H 0.13478 0.99965 0.07836 0.0
H106 H 0.26562 0.99587 0.04316 0.0
H107 H 0.25448 0.92834 1.00673 0.0
H108 H 0.20845 0.89374 1.00254 0.0
H109 H 0.17328 0.92604 0.03486 0.0
C110 C 0.15187 0.97024 0.07956 0.0
C111 C 0.1787 0.9986 0.07895 0.0
C112 C 0.19887 0.98044 0.05953 0.0
C113 C 0.22532 1.0012 0.06167 0.0
C114 C 0.2452 0.98143 0.04239 0.0
C115 C 0.23906 0.94285 0.02137 0.0
C116 C 0.21314 0.92331 0.01903 0.0
C117 C 0.19319 0.94183 0.0378 0.0
H118 H 0.24196 0.47605 0.44464 0.0
C119 C 0.2356 0.43562 0.43422 0.0
H120 H 0.20408 0.39159 0.41606 0.0
H121 H 0.13368 0.59473 0.48643 0.0
H122 H 0.14395 0.53587 0.52608 0.0
H123 H 0.17591 0.45151 0.52233 0.0
H124 H 0.19798 0.42577 0.47893 0.0
C125 C 0.21035 0.43058 0.42752 0.0
C126 C 0.19169 0.48244 0.43046 0.0
C127 C 0.1788 0.49638 0.45589 0.0
C128 C 0.15992 0.54418 0.45794 0.0
C129 C 0.14771 0.558 0.48366 0.0
C130 C 0.15352 0.52476 0.50657 0.0
C131 C 0.17155 0.47732 0.50447 0.0
C132 C 0.1841 0.46307 0.47947 0.0
H133 H 0.10152 0.56308 0.44355 0.0
C134 C 0.10717 0.60986 0.43884 0.0
H135 H 0.13881 0.67099 0.43004 0.0
H136 H 0.2139 0.46925 0.37894 0.0
H137 H 0.20357 0.52767 0.33933 0.0
H138 H 0.17026 0.60919 0.34266 0.0
H139 H 0.14717 0.6329 0.38559 0.0
C140 C 0.13295 0.62491 0.43579 0.0
C141 C 0.15376 0.57724 0.43448 0.0
C142 C 0.16712 0.5641 0.40916 0.0
C143 C 0.18608 0.51664 0.40716 0.0
C144 C 0.19911 0.50442 0.3816 0.0
C145 C 0.19342 0.53768 0.35868 0.0
C146 C 0.17469 0.5836 0.36056 0.0
C147 C 0.16161 0.59681 0.38541 0.0
H148 H 0.77339 0.96006 0.90278 0.0
C149 C 0.77181 0.00813 0.90759 0.0
H150 H 0.74598 0.08283 0.9132 0.0
H151 H 0.66037 0.96237 0.84112 0.0
H152 H 0.6776 0.04264 0.81128 0.0
H153 H 0.71596 0.10449 0.82317 0.0
H154 H 0.73741 0.08609 0.86494 0.0
C155 C 0.74787 0.03445 0.90926 0.0
C156 C 0.72365 0.99957 0.90326 0.0
C157 C 0.71091 0.01196 0.87911 0.0
C158 C 0.68853 0.97691 0.87247 0.0
C159 C 0.67695 0.98856 0.8476 0.0
C160 C 0.68676 0.03431 0.83015 0.0
C161 C 0.70838 0.06908 0.83683 0.0
C162 C 0.72046 0.05809 0.86092 0.0
H163 H 0.62786 0.96346 0.89018 0.0
C164 C 0.63091 0.91657 0.88394 0.0
H165 H 0.65881 0.84603 0.87753 0.0
H166 H 0.74185 0.96798 0.95241 0.0
H167 H 0.72445 0.88799 0.98246 0.0
H168 H 0.68598 0.82637 0.97067 0.0
H169 H 0.66456 0.84462 0.9288 0.0
C170 C 0.65539 0.89304 0.88333 0.0
C171 C 0.67859 0.93038 0.89033 0.0
C172 C 0.69115 0.91846 0.91462 0.0
C173 C 0.71357 0.95342 0.92122 0.0
C174 C 0.72518 0.94182 0.94606 0.0
C175 C 0.71529 0.89628 0.96358 0.0
C176 C 0.69361 0.86163 0.95696 0.0
C177 C 0.68154 0.8725 0.93284 0.0
H178 H 0.60742 0.538 0.65732 0.0
C179 C 0.60513 0.54817 0.63606 0.0
H180 H 0.62269 0.54332 0.59625 0.0
H181 H 0.73909 0.52225 0.63606 0.0
H182 H 0.74034 0.62283 0.61566 0.0
H183 H 0.6998 0.66934 0.5997 0.0
H184 H 0.65779 0.61553 0.60395 0.0
C185 C 0.62424 0.53187 0.61748 0.0
C186 C 0.64889 0.50202 0.62568 0.0
C187 C 0.6733 0.53403 0.62293 0.0
C188 C 0.69662 0.50751 0.6324 0.0
C189 C 0.72072 0.54054 0.62946 0.0
C190 C 0.72174 0.59825 0.61774 0.0
C191 C 0.69892 0.62441 0.60873 0.0
C192 C 0.67493 0.59296 0.61127 0.0
H193 H 0.72617 0.35607 0.62675 0.0
C194 C 0.73294 0.37684 0.64501 0.0
H195 H 0.72652 0.44608 0.67412 0.0
H196 H 0.60626 0.42464 0.63019 0.0
H197 H 0.60484 0.32469 0.65112 0.0
H198 H 0.64463 0.2812 0.67006 0.0
H199 H 0.68614 0.33687 0.66777 0.0
C200 C 0.71954 0.42384 0.6563 0.0
C201 C 0.69551 0.44902 0.64455 0.0
C202 C 0.67121 0.41637 0.64675 0.0
C203 C 0.64799 0.44247 0.63683 0.0
C204 C 0.62425 0.40793 0.63828 0.0
C205 C 0.6232 0.35032 0.65009 0.0
C206 C 0.64561 0.32576 0.66068 0.0
C207 C 0.66938 0.35818 0.65911 0.0
H208 H 0.39993 0.47182 0.02763 0.0
C209 C 0.41072 0.42978 0.03019 0.0
H210 H 0.44529 0.38026 0.01889 0.0
H211 H 0.46613 0.5294 0.90951 0.0
H212 H 0.45037 0.43371 0.89235 0.0
H213 H 0.43275 0.35358 0.92358 0.0
H214 H 0.43057 0.36895 0.97218 0.0
C215 C 0.43464 0.42276 0.01729 0.0
C216 C 0.44627 0.4706 0.99872 0.0
C217 C 0.44805 0.46032 0.9704 0.0
C218 C 0.45871 0.50609 0.95242 0.0
C219 C 0.45906 0.49557 0.92417 0.0
C220 C 0.44987 0.44096 0.91401 0.0
C221 C 0.43991 0.39589 0.93158 0.0
C222 C 0.43884 0.40528 0.95945 0.0
H223 H 0.51354 0.5574 0.93219 0.0
C224 C 0.50333 0.60044 0.93032 0.0
H225 H 0.46996 0.65249 0.94321 0.0
H226 H 0.44742 0.50338 0.05202 0.0
H227 H 0.46314 0.59914 0.06923 0.0
H228 H 0.48129 0.67881 0.03806 0.0
H229 H 0.48396 0.66308 0.98948 0.0
C230 C 0.48006 0.60915 0.94429 0.0
C231 C 0.4682 0.56153 0.96287 0.0
C232 C 0.46633 0.57187 0.99119 0.0
C233 C 0.45555 0.5262 1.00916 0.0
C234 C 0.45481 0.53699 0.03741 0.0
C235 C 0.46392 0.59165 0.04759 0.0
C236 C 0.47417 0.63648 0.03004 0.0
C237 C 0.47552 0.62689 1.00218 0.0
H238 H 0.92114 0.43281 1.00243 0.0
C239 C -0.06217 0.4069 0.99383 0.0
H240 H -0.02048 0.4023 0.98807 0.0
H241 H -0.03311 0.69723 1.00814 0.0
H242 H -0.04774 0.69927 0.96235 0.0
H243 H -0.05541 0.60403 0.93781 0.0
H244 H -0.04848 0.50609 0.95893 0.0
C245 C -0.03748 0.4286 0.99556 0.0
C246 C -0.03259 0.48622 0.01009 0.0
C247 C -0.0368 0.54304 0.9975 0.0
C248 C -0.03233 0.59794 0.01166 0.0
C249 C -0.03639 0.65409 0.99844 0.0
C250 C -0.04473 0.65594 0.97212 0.0
C251 C -0.04905 0.60232 0.95831 0.0
C252 C -0.04509 0.54641 0.9707 0.0
H253 H 0.02225 0.63919 0.05502 0.0
C254 C 0.00574 0.66961 0.05968 0.0
H255 H -0.03521 0.68436 0.05681 0.0
H256 H -0.02233 0.38478 0.03977 0.0
H257 H -0.00898 0.38222 0.08605 0.0
H258 H -0.00315 0.47715 0.11142 0.0
H259 H -0.01031 0.57507 0.09061 0.0
C260 C -0.01866 0.65372 0.05287 0.0
C261 C -0.02359 0.59589 0.03837 0.0
C262 C -0.01986 0.53889 0.05114 0.0
C263 C -0.02392 0.48407 0.03678 0.0
C264 C -0.01968 0.42779 0.04981 0.0
C265 C -0.01206 0.42564 0.07638 0.0
C266 C -0.00873 0.47909 0.09064 0.0
C267 C -0.01268 0.53511 0.07834 0.0
H268 H 0.3548 0.1509 0.4672 0.0
C269 C 0.37196 0.17848 0.46081 0.0
H270 H 0.41362 0.18654 0.4599 0.0
H271 H 0.42907 0.00744 0.55757 0.0
H272 H 0.44055 0.10424 0.57717 0.0
H273 H 0.43374 0.20032 0.55272 0.0
H274 H 0.41541 0.20025 0.50854 0.0
C275 C 0.39634 0.15877 0.46563 0.0
C276 C 0.40051 0.10042 0.48015 0.0
C277 C 0.41147 0.10126 0.50587 0.0
C278 C 0.41551 0.04585 0.51994 0.0
C279 C 0.42598 0.04811 0.54583 0.0
C280 C 0.43254 0.10338 0.55737 0.0
C281 C 0.42869 0.15748 0.54361 0.0
C282 C 0.41821 0.15675 0.51821 0.0
H283 H 0.45462 0.93345 0.51339 0.0
C284 C 0.43796 0.90825 0.52283 0.0
H285 H 0.39643 0.90585 0.53077 0.0
H286 H 0.3821 0.08155 0.42973 0.0
H287 H 0.37033 0.98483 0.41048 0.0
H288 H 0.37562 0.88923 0.43578 0.0
H289 H 0.39301 0.88987 0.48041 0.0
C290 C 0.41348 0.93142 0.52242 0.0
C291 C 0.40871 0.98969 0.50819 0.0
C292 C 0.39769 0.98876 0.48253 0.0
C293 C 0.39399 0.04406 0.46827 0.0
C294 C 0.38437 0.04132 0.44198 0.0
C295 C 0.37775 0.98596 0.43055 0.0
C296 C 0.38077 0.93213 0.44476 0.0
C297 C 0.39073 0.93319 0.47039 0.0
H298 H 0.85967 0.02453 0.58688 0.0
C299 C 0.87084 0.0667 0.58802 0.0
H300 H 0.90522 0.11506 0.57415 0.0
H301 H 0.93696 0.82633 0.54803 0.0
H302 H 0.93453 0.81212 0.59677 0.0
H303 H 0.9193 0.89486 0.6273 0.0
H304 H 0.90619 0.99201 0.6093 0.0
C305 C 0.89419 0.0726 0.57377 0.0
C306 C 0.90476 0.0233 0.55565 0.0
C307 C 0.91278 0.96702 0.5666 0.0
C308 C 0.92211 0.91972 0.54902 0.0
C309 C 0.92978 0.86383 0.56045 0.0
C310 C 0.92854 0.8551 0.5884 0.0
C311 C 0.91993 0.90165 0.60558 0.0
C312 C 0.91224 0.9571 0.59494 0.0
H313 H -0.02923 0.92283 0.49254 0.0
C314 C -0.04152 0.88291 0.48983 0.0
H315 H 0.92202 0.83937 0.50067 0.0
H316 H 0.8917 0.12603 0.52809 0.0
H317 H 0.89483 0.14058 0.47938 0.0
H318 H 0.9109 0.05843 0.44895 0.0
H319 H 0.92402 0.96131 0.46704 0.0
C320 C 0.93424 0.87973 0.50244 0.0
C321 C 0.92411 0.92926 0.52061 0.0
C322 C 0.9164 0.98572 0.50968 0.0
C323 C 0.90688 0.0329 0.52723 0.0
C324 C 0.89918 0.0887 0.51574 0.0
C325 C 0.90081 0.09764 0.48779 0.0
C326 C 0.90987 0.0514 0.47066 0.0
C327 C 0.9175 0.99595 0.48134 0.0
H328 H 0.33112 0.29062 0.31408 0.0
C329 C 0.34862 0.29959 0.3252 0.0
H330 H 0.39034 0.30997 0.32217 0.0
H331 H 0.39482 0.1639 0.21003 0.0
H332 H 0.41495 0.09077 0.23934 0.0
H333 H 0.41685 0.1101 0.28828 0.0
H334 H 0.39871 0.20279 0.30824 0.0
C335 C 0.37242 0.30224 0.31162 0.0
C336 C 0.37451 0.29426 0.2817 0.0
C337 C 0.38547 0.24036 0.27034 0.0
C338 C 0.38417 0.22902 0.24216 0.0
C339 C 0.39505 0.17447 0.23136 0.0
C340 C 0.40672 0.13222 0.24794 0.0
C341 C 0.4078 0.14312 0.2755 0.0
C342 C 0.3973 0.19644 0.2867 0.0
H343 H 0.39459 0.32015 0.17937 0.0
C344 C 0.38014 0.28486 0.17571 0.0
H345 H 0.35356 0.21955 0.19342 0.0
H346 H 0.35634 0.40718 0.29618 0.0
H347 H 0.33591 0.4802 0.26716 0.0
H348 H 0.33085 0.45785 0.21892 0.0
H349 H 0.3466 0.36316 0.19932 0.0
C350 C 0.36759 0.25587 0.19681 0.0
C351 C 0.37196 0.27169 0.22541 0.0
C352 C 0.36198 0.32692 0.2366 0.0
C353 C 0.36382 0.33872 0.26467 0.0
C354 C 0.35457 0.39503 0.2752 0.0
C355 C 0.34295 0.4375 0.25874 0.0
C356 C 0.34019 0.425 0.23156 0.0
C357 C 0.34948 0.37043 0.22053 0.0
H358 H -0.02907 0.78508 0.34024 0.0
C359 C -0.01015 0.76372 0.34329 0.0
H360 H 0.02532 0.72943 0.3247 0.0
H361 H -0.0067 0.68693 0.20736 0.0
H362 H -0.0072 0.58331 0.22435 0.0
H363 H -0.00477 0.56223 0.27316 0.0
H364 H -0.00164 0.64469 0.30527 0.0
C365 C 0.00673 0.75246 0.32187 0.0
C366 C 0.00045 0.76629 0.29349 0.0
C367 C -0.00208 0.71769 0.27506 0.0
C368 C -0.00386 0.72985 0.24697 0.0
C369 C -0.0055 0.68033 0.22893 0.0
C370 C -0.00582 0.6206 0.23841 0.0
C371 C -0.00442 0.60872 0.26589 0.0
C372 C -0.00255 0.65648 0.28409 0.0
H373 H 0.03803 0.84066 0.21059 0.0
C374 C 0.02279 0.82762 0.19711 0.0
H375 H -0.0151 0.78778 0.19465 0.0
H376 H 0.00465 0.87087 0.3232 0.0
H377 H 0.00175 0.97411 0.30656 0.0
H378 H -0.00475 0.99472 0.25835 0.0
H379 H -0.00782 0.91181 0.2264 0.0
C380 C 0.00012 0.80291 0.20771 0.0
C381 C -0.0032 0.79064 0.23739 0.0
C382 C -0.00301 0.83931 0.25609 0.0
C383 C -0.00053 0.82726 0.28411 0.0
C384 C 0.00171 0.87702 0.30192 0.0
C385 C 0.00022 0.93668 0.2926 0.0
C386 C -0.00335 0.9483 0.26544 0.0
C387 C -0.00491 0.90037 0.24731 0.0
H388 H 0.51959 0.69324 0.63668 0.0
C389 C 0.49994 0.71123 0.63406 0.0
H390 H 0.46624 0.75232 0.65333 0.0
H391 H 0.53335 0.63095 0.75309 0.0
H392 H 0.52335 0.53326 0.73356 0.0
H393 H 0.50002 0.5269 0.69129 0.0
H394 H 0.487 0.61821 0.66806 0.0
C395 C 0.48566 0.73283 0.65568 0.0
C396 C 0.49688 0.7358 0.6828 0.0
C397 C 0.50322 0.68182 0.6968 0.0
C398 C 0.51557 0.68544 0.72184 0.0
C399 C 0.52308 0.63091 0.73456 0.0
C400 C 0.51758 0.57447 0.72349 0.0
C401 C 0.50453 0.57089 0.69964 0.0
C402 C 0.49734 0.62374 0.6864 0.0
H403 H 0.50176 0.71102 0.78349 0.0
C404 C 0.5215 0.7309 0.78314 0.0
H405 H 0.55309 0.76941 0.75885 0.0
H406 H 0.48676 0.84803 0.66158 0.0
H407 H 0.49519 0.94558 0.68203 0.0
H408 H 0.51493 0.95172 0.72633 0.0
H409 H 0.5265 0.86031 0.75038 0.0
C410 C 0.53373 0.74768 0.75938 0.0
C411 C 0.52048 0.74299 0.73341 0.0
C412 C 0.51348 0.79685 0.71978 0.0
C413 C 0.50172 0.79327 0.69444 0.0
C414 C 0.49542 0.84793 0.68105 0.0
C415 C 0.50019 0.90432 0.69253 0.0
C416 C 0.51133 0.90778 0.71746 0.0
C417 C 0.51793 0.85489 0.73101 0.0
H418 H 0.87551 0.19281 0.73234 0.0
C419 C 0.85663 0.2161 0.73204 0.0
H420 H 0.82682 0.26329 0.75501 0.0
H421 H 0.88657 0.11278 0.85072 0.0
H422 H 0.87038 0.02121 0.83007 0.0
H423 H 0.8476 0.02624 0.78742 0.0
H424 H 0.84137 0.1227 0.76491 0.0
C425 C 0.84527 0.23827 0.7552 0.0
C426 C 0.85834 0.23449 0.78131 0.0
C427 C 0.86096 0.17783 0.79467 0.0
C428 C 0.87292 0.17525 0.81996 0.0
C429 C 0.87657 0.11774 0.83213 0.0
C430 C 0.86755 0.06471 0.82038 0.0
C431 C 0.85482 0.06753 0.79632 0.0
C432 C 0.8515 0.12325 0.78353 0.0
H433 H 0.85618 0.19551 0.87926 0.0
C434 C 0.87631 0.21103 0.88181 0.0
H435 H 0.91159 0.24503 0.8622 0.0
H436 H 0.85731 0.34998 0.76055 0.0
H437 H 0.8723 0.44192 0.78187 0.0
H438 H 0.89122 0.43803 0.82664 0.0
H439 H 0.89542 0.3422 0.85029 0.0
C440 C 0.89162 0.2282 0.85994 0.0
C441 C 0.88107 0.22964 0.83246 0.0
C442 C 0.87867 0.28616 0.81895 0.0
C443 C 0.86737 0.28854 0.79334 0.0
C444 C 0.8654 0.34558 0.78022 0.0
C445 C 0.87399 0.39875 0.79219 0.0
C446 C 0.88467 0.39654 0.81738 0.0
C447 C 0.88701 0.34111 0.83071 0.0
loop_
_geom_bond_atom_site_label_1
_geom_bond_atom_site_label_2
_geom_bond_distance
_geom_bond_site_symmetry_2
_ccdc_geom_bond_type
O0 Cd1 2.300 . S
O0 C7 1.275 . S
Cd1 O0 2.300 . S
Cd1 O9 2.381 . S
Cd1 O10 2.378 . S
O2 Cd3 2.385 . S
O2 C7 1.255 . S
Cd3 O2 2.385 . S
Cd3 O4 2.317 . S
O4 Cd3 2.317 . S
O4 C5 1.232 . S
C5 O4 1.232 . S
C5 O6 1.218 . S
O6 C5 1.218 . S
C7 O0 1.275 . S
C7 O2 1.255 . S
C8 O9 1.258 . S
C8 O10 1.256 . S
O9 Cd1 2.381 . S
O9 C8 1.258 . S
O10 Cd1 2.378 . S
O10 C8 1.256 . S
O11 Cd12 2.300 . S
O11 C18 1.275 . S
Cd12 O11 2.300 . S
Cd12 O20 2.381 . S
Cd12 O21 2.378 . S
O13 Cd14 2.385 . S
O13 C18 1.255 . S
Cd14 O13 2.385 . S
Cd14 O15 2.317 . S
O15 Cd14 2.317 . S
O15 C16 1.232 . S
C16 O15 1.232 . S
C16 O17 1.218 . S
O17 C16 1.218 . S
C18 O11 1.275 . S
C18 O13 1.255 . S
C19 O20 1.258 . S
C19 O21 1.256 . S
O20 Cd12 2.381 . S
O20 C19 1.258 . S
O21 Cd12 2.378 . S
O21 C19 1.256 . S
O22 Cd23 2.300 . S
O22 C29 1.275 . S
Cd23 O22 2.300 . S
Cd23 O31 2.381 . S
Cd23 O32 2.378 . S
O24 Cd25 2.385 . S
O24 C29 1.255 . S
Cd25 O24 2.385 . S
Cd25 O26 2.317 . S
O26 Cd25 2.317 . S
O26 C27 1.232 . S
C27 O26 1.232 . S
C27 O28 1.218 . S
O28 C27 1.218 . S
C29 O22 1.275 . S
C29 O24 1.255 . S
C30 O31 1.258 . S
C30 O32 1.256 . S
O31 Cd23 2.381 . S
O31 C30 1.258 . S
O32 Cd23 2.378 . S
O32 C30 1.256 . S
O33 Cd34 2.300 . S
O33 C40 1.275 . S
Cd34 O33 2.300 . S
Cd34 O42 2.381 . S
Cd34 O43 2.378 . S
O35 Cd36 2.385 . S
O35 C40 1.255 . S
Cd36 O35 2.385 . S
Cd36 O37 2.317 . S
O37 Cd36 2.317 . S
O37 C38 1.232 . S
C38 O37 1.232 . S
C38 O39 1.218 . S
O39 C38 1.218 . S
C40 O33 1.275 . S
C40 O35 1.255 . S
C41 O42 1.258 . S
C41 O43 1.256 . S
O42 Cd34 2.381 . S
O42 C41 1.258 . S
O43 Cd34 2.378 . S
O43 C41 1.256 . S
O44 Cd45 2.300 . S
O44 C51 1.275 . S
Cd45 O44 2.300 . S
Cd45 O53 2.381 . S
Cd45 O54 2.378 . S
O46 Cd47 2.385 . S
O46 C51 1.255 . S
Cd47 O46 2.385 . S
Cd47 O48 2.317 . S
O48 Cd47 2.317 . S
O48 C49 1.232 . S
C49 O48 1.232 . S
C49 O50 1.218 . S
O50 C49 1.218 . S
C51 O44 1.275 . S
C51 O46 1.255 . S
C52 O53 1.258 . S
C52 O54 1.256 . S
O53 Cd45 2.381 . S
O53 C52 1.258 . S
O54 Cd45 2.378 . S
O54 C52 1.256 . S
O55 Cd56 2.300 . S
O55 C62 1.275 . S
Cd56 O55 2.300 . S
Cd56 O64 2.381 . S
Cd56 O65 2.378 . S
O57 Cd58 2.385 . S
O57 C62 1.255 . S
Cd58 O57 2.385 . S
Cd58 O59 2.317 . S
O59 Cd58 2.317 . S
O59 C60 1.232 . S
C60 O59 1.232 . S
C60 O61 1.218 . S
O61 C60 1.218 . S
C62 O55 1.275 . S
C62 O57 1.255 . S
C63 O64 1.258 . S
C63 O65 1.256 . S
O64 Cd56 2.381 . S
O64 C63 1.258 . S
O65 Cd56 2.378 . S
O65 C63 1.256 . S
O66 Cd67 2.300 . S
O66 C73 1.275 . S
Cd67 O66 2.300 . S
Cd67 O75 2.381 . S
Cd67 O76 2.378 . S
O68 Cd69 2.385 . S
O68 C73 1.255 . S
Cd69 O68 2.385 . S
Cd69 O70 2.317 . S
O70 Cd69 2.317 . S
O70 C71 1.232 . S
C71 O70 1.232 . S
C71 O72 1.218 . S
O72 C71 1.218 . S
C73 O66 1.275 . S
C73 O68 1.255 . S
C74 O75 1.258 . S
C74 O76 1.256 . S
O75 Cd67 2.381 . S
O75 C74 1.258 . S
O76 Cd67 2.378 . S
O76 C74 1.256 . S
O77 Cd78 2.300 . S
O77 C84 1.275 . S
Cd78 O77 2.300 . S
Cd78 O86 2.381 . S
Cd78 O87 2.378 . S
O79 Cd80 2.385 . S
O79 C84 1.255 . S
Cd80 O79 2.385 . S
Cd80 O81 2.317 . S
O81 Cd80 2.317 . S
O81 C82 1.232 . S
C82 O81 1.232 . S
C82 O83 1.218 . S
O83 C82 1.218 . S
C84 O77 1.275 . S
C84 O79 1.255 . S
C85 O86 1.258 . S
C85 O87 1.256 . S
O86 Cd78 2.381 . S
O86 C85 1.258 . S
O87 Cd78 2.378 . S
O87 C85 1.256 . S
H88 C89 0.951 . S
C89 H88 0.951 . S
C89 C95 1.265 . S
H90 C95 0.950 . S
H91 C99 0.949 . S
H92 C100 0.950 . S
H93 C101 0.951 . S
H94 C102 0.951 . S
C95 C89 1.265 . S
C95 H90 0.950 . S
C95 C96 1.478 . S
C96 C95 1.478 . S
C96 C97 1.397 . S
C96 C113 1.394 1_545 S
C97 C96 1.397 . S
C97 C98 1.438 . S
C97 C102 1.429 . S
C98 C97 1.438 . S
C98 C99 1.428 . S
C98 C111 1.394 1_545 S
C99 H91 0.949 . S
C99 C98 1.428 . S
C99 C100 1.345 . S
C100 H92 0.950 . S
C100 C99 1.345 . S
C100 C101 1.424 . S
C101 H93 0.951 . S
C101 C100 1.424 . S
C101 C102 1.347 . S
C102 H94 0.951 . S
C102 C97 1.429 . S
C102 C101 1.347 . S
H103 C104 0.951 . S
C104 H103 0.951 . S
C104 C110 1.265 . S
H105 C110 0.950 . S
H106 C114 0.949 . S
H107 C115 0.950 . S
H108 C116 0.951 . S
H109 C117 0.951 . S
C110 C104 1.265 . S
C110 H105 0.950 . S
C110 C111 1.478 . S
C111 C98 1.394 1_565 S
C111 C110 1.478 . S
C111 C112 1.397 . S
C112 C111 1.397 . S
C112 C113 1.438 . S
C112 C117 1.429 . S
C113 C96 1.394 1_565 S
C113 C112 1.438 . S
C113 C114 1.428 . S
C114 H106 0.949 . S
C114 C113 1.428 . S
C114 C115 1.345 . S
C115 H107 0.950 . S
C115 C114 1.345 . S
C115 C116 1.424 . S
C116 H108 0.951 . S
C116 C115 1.424 . S
C116 C117 1.347 . S
C117 H109 0.951 . S
C117 C112 1.429 . S
C117 C116 1.347 . S
H118 C119 0.951 . S
C119 H118 0.951 . S
C119 C125 1.265 . S
H120 C125 0.950 . S
H121 C129 0.949 . S
H122 C130 0.950 . S
H123 C131 0.951 . S
H124 C132 0.951 . S
C125 C119 1.265 . S
C125 H120 0.950 . S
C125 C126 1.478 . S
C126 C125 1.478 . S
C126 C127 1.397 . S
C126 C143 1.394 . S
C127 C126 1.397 . S
C127 C128 1.438 . S
C127 C132 1.429 . S
C128 C127 1.438 . S
C128 C129 1.428 . S
C128 C141 1.394 . S
C129 H121 0.949 . S
C129 C128 1.428 . S
C129 C130 1.345 . S
C130 H122 0.950 . S
C130 C129 1.345 . S
C130 C131 1.424 . S
C131 H123 0.951 . S
C131 C130 1.424 . S
C131 C132 1.347 . S
C132 H124 0.951 . S
C132 C127 1.429 . S
C132 C131 1.347 . S
H133 C134 0.951 . S
C134 H133 0.951 . S
C134 C140 1.265 . S
H135 C140 0.950 . S
H136 C144 0.949 . S
H137 C145 0.950 . S
H138 C146 0.951 . S
H139 C147 0.951 . S
C140 C134 1.265 . S
C140 H135 0.950 . S
C140 C141 1.478 . S
C141 C128 1.394 . S
C141 C140 1.478 . S
C141 C142 1.397 . S
C142 C141 1.397 . S
C142 C143 1.438 . S
C142 C147 1.429 . S
C143 C126 1.394 . S
C143 C142 1.438 . S
C143 C144 1.428 . S
C144 H136 0.949 . S
C144 C143 1.428 . S
C144 C145 1.345 . S
C145 H137 0.950 . S
C145 C144 1.345 . S
C145 C146 1.424 . S
C146 H138 0.951 . S
C146 C145 1.424 . S
C146 C147 1.347 . S
C147 H139 0.951 . S
C147 C142 1.429 . S
C147 C146 1.347 . S
H148 C149 0.951 . S
C149 H148 0.951 . S
C149 C155 1.265 . S
H150 C155 0.950 . S
H151 C159 0.949 . S
H152 C160 0.950 . S
H153 C161 0.951 . S
H154 C162 0.951 . S
C155 C149 1.265 . S
C155 H150 0.950 . S
C155 C156 1.478 . S
C156 C155 1.478 . S
C156 C157 1.397 . S
C156 C173 1.394 . S
C157 C156 1.397 . S
C157 C158 1.438 1_545 S
C157 C162 1.429 . S
C158 C157 1.438 1_565 S
C158 C159 1.428 . S
C158 C171 1.394 . S
C159 H151 0.949 . S
C159 C158 1.428 . S
C159 C160 1.345 1_565 S
C160 H152 0.950 . S
C160 C159 1.345 1_545 S
C160 C161 1.424 . S
C161 H153 0.951 . S
C161 C160 1.424 . S
C161 C162 1.347 . S
C162 H154 0.951 . S
C162 C157 1.429 . S
C162 C161 1.347 . S
H163 C164 0.951 . S
C164 H163 0.951 . S
C164 C170 1.265 . S
H165 C170 0.950 . S
H166 C174 0.949 . S
H167 C175 0.950 . S
H168 C176 0.951 . S
H169 C177 0.951 . S
C170 C164 1.265 . S
C170 H165 0.950 . S
C170 C171 1.478 . S
C171 C158 1.394 . S
C171 C170 1.478 . S
C171 C172 1.397 . S
C172 C171 1.397 . S
C172 C173 1.438 1_565 S
C172 C177 1.429 . S
C173 C156 1.394 . S
C173 C172 1.438 1_545 S
C173 C174 1.428 . S
C174 H166 0.949 . S
C174 C173 1.428 . S
C174 C175 1.345 1_545 S
C175 H167 0.950 . S
C175 C174 1.345 1_565 S
C175 C176 1.424 . S
C176 H168 0.951 . S
C176 C175 1.424 . S
C176 C177 1.347 . S
C177 H169 0.951 . S
C177 C172 1.429 . S
C177 C176 1.347 . S
H178 C179 0.951 . S
C179 H178 0.951 . S
C179 C185 1.265 . S
H180 C185 0.950 . S
H181 C189 0.949 . S
H182 C190 0.950 . S
H183 C191 0.951 . S
H184 C192 0.951 . S
C185 C179 1.265 . S
C185 H180 0.950 . S
C185 C186 1.478 . S
C186 C185 1.478 . S
C186 C187 1.397 . S
C186 C203 1.394 . S
C187 C186 1.397 . S
C187 C188 1.438 . S
C187 C192 1.429 . S
C188 C187 1.438 . S
C188 C189 1.428 . S
C188 C201 1.394 . S
C189 H181 0.949 . S
C189 C188 1.428 . S
C189 C190 1.345 . S
C190 H182 0.950 . S
C190 C189 1.345 . S
C190 C191 1.424 . S
C191 H183 0.951 . S
C191 C190 1.424 . S
C191 C192 1.347 . S
C192 H184 0.951 . S
C192 C187 1.429 . S
C192 C191 1.347 . S
H193 C194 0.951 . S
C194 H193 0.951 . S
C194 C200 1.265 . S
H195 C200 0.950 . S
H196 C204 0.949 . S
H197 C205 0.950 . S
H198 C206 0.951 . S
H199 C207 0.951 . S
C200 C194 1.265 . S
C200 H195 0.950 . S
C200 C201 1.478 . S
C201 C188 1.394 . S
C201 C200 1.478 . S
C201 C202 1.397 . S
C202 C201 1.397 . S
C202 C203 1.438 . S
C202 C207 1.429 . S
C203 C186 1.394 . S
C203 C202 1.438 . S
C203 C204 1.428 . S
C204 H196 0.949 . S
C204 C203 1.428 . S
C204 C205 1.345 . S
C205 H197 0.950 . S
C205 C204 1.345 . S
C205 C206 1.424 . S
C206 H198 0.951 . S
C206 C205 1.424 . S
C206 C207 1.347 . S
C207 H199 0.951 . S
C207 C202 1.429 . S
C207 C206 1.347 . S
H208 C209 0.951 . S
C209 H208 0.951 . S
C209 C215 1.265 . S
H210 C215 0.950 . S
H211 C219 0.949 . S
H212 C220 0.950 . S
H213 C221 0.951 . S
H214 C222 0.951 . S
C215 C209 1.265 . S
C215 H210 0.950 . S
C215 C216 1.478 . S
C216 C215 1.478 . S
C216 C217 1.397 1_554 S
C216 C233 1.394 . S
C217 C216 1.397 1_556 S
C217 C218 1.438 . S
C217 C222 1.429 . S
C218 C217 1.438 . S
C218 C219 1.428 . S
C218 C231 1.394 . S
C219 H211 0.949 . S
C219 C218 1.428 . S
C219 C220 1.345 . S
C220 H212 0.950 . S
C220 C219 1.345 . S
C220 C221 1.424 . S
C221 H213 0.951 . S
C221 C220 1.424 . S
C221 C222 1.347 . S
C222 H214 0.951 . S
C222 C217 1.429 . S
C222 C221 1.347 . S
H223 C224 0.951 . S
C224 H223 0.951 . S
C224 C230 1.265 . S
H225 C230 0.950 . S
H226 C234 0.949 . S
H227 C235 0.950 . S
H228 C236 0.951 . S
H229 C237 0.951 . S
C230 C224 1.265 . S
C230 H225 0.950 . S
C230 C231 1.478 . S
C231 C218 1.394 . S
C231 C230 1.478 . S
C231 C232 1.397 1_556 S
C232 C231 1.397 1_554 S
C232 C233 1.438 . S
C232 C237 1.429 . S
C233 C216 1.394 . S
C233 C232 1.438 . S
C233 C234 1.428 . S
C234 H226 0.949 . S
C234 C233 1.428 . S
C234 C235 1.345 . S
C235 H227 0.950 . S
C235 C234 1.345 . S
C235 C236 1.424 . S
C236 H228 0.951 . S
C236 C235 1.424 . S
C236 C237 1.347 . S
C237 H229 0.951 . S
C237 C232 1.429 . S
C237 C236 1.347 . S
H238 C239 0.951 . S
C239 H238 0.951 . S
C239 C245 1.265 . S
H240 C245 0.950 . S
H241 C249 0.938 1_554 S
H242 C250 0.950 . S
H243 C251 0.951 . S
H244 C252 0.951 . S
C245 C239 1.265 . S
C245 H240 0.950 . S
C245 C246 1.478 . S
C246 C245 1.478 . S
C246 C247 1.397 . S
C246 C263 1.394 1_656 S
C247 C246 1.397 . S
C247 C248 1.438 . S
C247 C252 1.429 . S
C248 C247 1.438 . S
C248 C249 1.428 . S
C248 C261 1.394 1_656 S
C249 H241 0.938 1_556 S
C249 C248 1.428 . S
C249 C250 1.345 . S
C250 H242 0.950 . S
C250 C249 1.345 . S
C250 C251 1.424 . S
C251 H243 0.951 . S
C251 C250 1.424 . S
C251 C252 1.347 . S
C252 H244 0.951 . S
C252 C247 1.429 . S
C252 C251 1.347 . S
H253 C254 0.951 . S
C254 H253 0.951 . S
C254 C260 1.265 . S
H255 C260 0.950 . S
H256 C264 0.938 1_556 S
H257 C265 0.950 . S
H258 C266 0.951 . S
H259 C267 0.951 . S
C260 C254 1.265 . S
C260 H255 0.950 . S
C260 C261 1.478 . S
C261 C248 1.394 1_454 S
C261 C260 1.478 . S
C261 C262 1.397 . S
C262 C261 1.397 . S
C262 C263 1.438 . S
C262 C267 1.429 . S
C263 C246 1.394 1_454 S
C263 C262 1.438 . S
C263 C264 1.428 . S
C264 H256 0.938 1_554 S
C264 C263 1.428 . S
C264 C265 1.345 . S
C265 H257 0.950 . S
C265 C264 1.345 . S
C265 C266 1.424 . S
C266 H258 0.951 . S
C266 C265 1.424 . S
C266 C267 1.347 . S
C267 H259 0.951 . S
C267 C262 1.429 . S
C267 C266 1.347 . S
H268 C269 0.951 . S
C269 H268 0.951 . S
C269 C275 1.265 . S
H270 C275 0.950 . S
H271 C279 0.949 1_565 S
H272 C280 0.950 . S
H273 C281 0.951 . S
H274 C282 0.951 . S
C275 C269 1.265 . S
C275 H270 0.950 . S
C275 C276 1.478 . S
C276 C275 1.478 . S
C276 C277 1.397 . S
C276 C293 1.394 1_545 S
C277 C276 1.397 . S
C277 C278 1.438 . S
C277 C282 1.429 . S
C278 C277 1.438 . S
C278 C279 1.428 . S
C278 C291 1.394 1_545 S
C279 H271 0.949 1_545 S
C279 C278 1.428 . S
C279 C280 1.345 . S
C280 H272 0.950 . S
C280 C279 1.345 . S
C280 C281 1.424 . S
C281 H273 0.951 . S
C281 C280 1.424 . S
C281 C282 1.347 . S
C282 H274 0.951 . S
C282 C277 1.429 . S
C282 C281 1.347 . S
H283 C284 0.951 . S
C284 H283 0.951 . S
C284 C290 1.265 . S
H285 C290 0.950 . S
H286 C294 0.949 1_545 S
H287 C295 0.950 . S
H288 C296 0.951 . S
H289 C297 0.951 . S
C290 C284 1.265 . S
C290 H285 0.950 . S
C290 C291 1.478 . S
C291 C278 1.394 1_565 S
C291 C290 1.478 . S
C291 C292 1.397 . S
C292 C291 1.397 . S
C292 C293 1.438 . S
C292 C297 1.429 . S
C293 C276 1.394 1_565 S
C293 C292 1.438 . S
C293 C294 1.428 . S
C294 H286 0.949 1_565 S
C294 C293 1.428 . S
C294 C295 1.345 . S
C295 H287 0.950 . S
C295 C294 1.345 . S
C295 C296 1.424 . S
C296 H288 0.951 . S
C296 C295 1.424 . S
C296 C297 1.347 . S
C297 H289 0.951 . S
C297 C292 1.429 . S
C297 C296 1.347 . S
H298 C299 0.951 . S
C299 H298 0.951 . S
C299 C305 1.265 . S
H300 C305 0.950 1_455 S
H301 C309 0.949 . S
H302 C310 0.950 . S
H303 C311 0.951 . S
H304 C312 0.951 1_645 S
C305 C299 1.265 . S
C305 H300 0.950 1_655 S
C305 C306 1.478 . S
C306 C305 1.478 . S
C306 C307 1.392 1_645 S
C306 C323 1.394 . S
C307 C306 1.392 1_465 S
C307 C308 1.443 . S
C307 C312 1.430 . S
C308 C307 1.443 . S
C308 C309 1.428 . S
C308 C321 1.394 . S
C309 H301 0.949 . S
C309 C308 1.428 . S
C309 C310 1.345 . S
C310 H302 0.950 . S
C310 C309 1.345 . S
C310 C311 1.424 . S
C311 H303 0.951 . S
C311 C310 1.424 . S
C311 C312 1.347 . S
C312 H304 0.951 1_465 S
C312 C307 1.430 . S
C312 C311 1.347 . S
H313 C314 0.951 . S
C314 H313 0.951 . S
C314 C320 1.265 . S
H315 C320 0.950 1_655 S
H316 C324 0.949 . S
H317 C325 0.950 . S
H318 C326 0.951 . S
H319 C327 0.951 1_465 S
C320 C314 1.265 . S
C320 H315 0.950 1_455 S
C320 C321 1.478 . S
C321 C308 1.394 . S
C321 C320 1.478 . S
C321 C322 1.392 1_465 S
C322 C321 1.392 1_645 S
C322 C323 1.443 . S
C322 C327 1.430 . S
C323 C306 1.394 . S
C323 C322 1.443 . S
C323 C324 1.428 . S
C324 H316 0.949 . S
C324 C323 1.428 . S
C324 C325 1.345 . S
C325 H317 0.950 . S
C325 C324 1.345 . S
C325 C326 1.424 . S
C326 H318 0.951 . S
C326 C325 1.424 . S
C326 C327 1.347 . S
C327 H319 0.951 1_645 S
C327 C322 1.430 . S
C327 C326 1.347 . S
H328 C329 0.951 . S
C329 H328 0.951 . S
C329 C335 1.265 . S
H330 C335 0.950 . S
H331 C339 0.949 . S
H332 C340 0.950 . S
H333 C341 0.951 . S
H334 C342 0.951 . S
C335 C329 1.265 . S
C335 H330 0.950 . S
C335 C336 1.478 . S
C336 C335 1.478 . S
C336 C337 1.397 . S
C336 C353 1.394 . S
C337 C336 1.397 . S
C337 C338 1.438 . S
C337 C342 1.429 . S
C338 C337 1.438 . S
C338 C339 1.428 . S
C338 C351 1.394 . S
C339 H331 0.949 . S
C339 C338 1.428 . S
C339 C340 1.345 . S
C340 H332 0.950 . S
C340 C339 1.345 . S
C340 C341 1.424 . S
C341 H333 0.951 . S
C341 C340 1.424 . S
C341 C342 1.347 . S
C342 H334 0.951 . S
C342 C337 1.429 . S
C342 C341 1.347 . S
H343 C344 0.951 . S
C344 H343 0.951 . S
C344 C350 1.265 . S
H345 C350 0.950 . S
H346 C354 0.949 . S
H347 C355 0.950 . S
H348 C356 0.951 . S
H349 C357 0.951 . S
C350 C344 1.265 . S
C350 H345 0.950 . S
C350 C351 1.478 . S
C351 C338 1.394 . S
C351 C350 1.478 . S
C351 C352 1.397 . S
C352 C351 1.397 . S
C352 C353 1.438 . S
C352 C357 1.429 . S
C353 C336 1.394 . S
C353 C352 1.438 . S
C353 C354 1.428 . S
C354 H346 0.949 . S
C354 C353 1.428 . S
C354 C355 1.345 . S
C355 H347 0.950 . S
C355 C354 1.345 . S
C355 C356 1.424 . S
C356 H348 0.951 . S
C356 C355 1.424 . S
C356 C357 1.347 . S
C357 H349 0.951 . S
C357 C352 1.429 . S
C357 C356 1.347 . S
H358 C359 0.951 . S
C359 H358 0.951 . S
C359 C365 1.265 . S
H360 C365 0.950 . S
H361 C369 0.949 . S
H362 C370 0.950 . S
H363 C371 0.951 . S
H364 C372 0.951 . S
C365 C359 1.265 . S
C365 H360 0.950 . S
C365 C366 1.478 . S
C366 C365 1.478 . S
C366 C367 1.397 . S
C366 C383 1.394 . S
C367 C366 1.397 . S
C367 C368 1.438 . S
C367 C372 1.429 . S
C368 C367 1.438 . S
C368 C369 1.428 . S
C368 C381 1.394 . S
C369 H361 0.949 . S
C369 C368 1.428 . S
C369 C370 1.345 . S
C370 H362 0.950 . S
C370 C369 1.345 . S
C370 C371 1.424 . S
C371 H363 0.951 . S
C371 C370 1.424 . S
C371 C372 1.347 . S
C372 H364 0.951 . S
C372 C367 1.429 . S
C372 C371 1.347 . S
H373 C374 0.951 . S
C374 H373 0.951 . S
C374 C380 1.265 . S
H375 C380 0.950 . S
H376 C384 0.949 . S
H377 C385 0.950 . S
H378 C386 0.951 . S
H379 C387 0.951 . S
C380 C374 1.265 . S
C380 H375 0.950 . S
C380 C381 1.478 . S
C381 C368 1.394 . S
C381 C380 1.478 . S
C381 C382 1.397 . S
C382 C381 1.397 . S
C382 C383 1.438 . S
C382 C387 1.429 . S
C383 C366 1.394 . S
C383 C382 1.438 . S
C383 C384 1.428 . S
C384 H376 0.949 . S
C384 C383 1.428 . S
C384 C385 1.345 . S
C385 H377 0.950 . S
C385 C384 1.345 . S
C385 C386 1.424 . S
C386 H378 0.951 . S
C386 C385 1.424 . S
C386 C387 1.347 . S
C387 H379 0.951 . S
C387 C382 1.429 . S
C387 C386 1.347 . S
H388 C389 0.951 . S
C389 H388 0.951 . S
C389 C395 1.265 . S
H390 C395 0.950 . S
H391 C399 0.949 . S
H392 C400 0.950 . S
H393 C401 0.951 . S
H394 C402 0.951 . S
C395 C389 1.265 . S
C395 H390 0.950 . S
C395 C396 1.478 . S
C396 C395 1.478 . S
C396 C397 1.397 . S
C396 C413 1.394 . S
C397 C396 1.397 . S
C397 C398 1.438 . S
C397 C402 1.429 . S
C398 C397 1.438 . S
C398 C399 1.428 . S
C398 C411 1.394 . S
C399 H391 0.949 . S
C399 C398 1.428 . S
C399 C400 1.345 . S
C400 H392 0.950 . S
C400 C399 1.345 . S
C400 C401 1.424 . S
C401 H393 0.951 . S
C401 C400 1.424 . S
C401 C402 1.347 . S
C402 H394 0.951 . S
C402 C397 1.429 . S
C402 C401 1.347 . S
H403 C404 0.951 . S
C404 H403 0.951 . S
C404 C410 1.265 . S
H405 C410 0.950 . S
H406 C414 0.949 . S
H407 C415 0.950 . S
H408 C416 0.951 . S
H409 C417 0.951 . S
C410 C404 1.265 . S
C410 H405 0.950 . S
C410 C411 1.478 . S
C411 C398 1.394 . S
C411 C410 1.478 . S
C411 C412 1.397 . S
C412 C411 1.397 . S
C412 C413 1.438 . S
C412 C417 1.429 . S
C413 C396 1.394 . S
C413 C412 1.438 . S
C413 C414 1.428 . S
C414 H406 0.949 . S
C414 C413 1.428 . S
C414 C415 1.345 . S
C415 H407 0.950 . S
C415 C414 1.345 . S
C415 C416 1.424 . S
C416 H408 0.951 . S
C416 C415 1.424 . S
C416 C417 1.347 . S
C417 H409 0.951 . S
C417 C412 1.429 . S
C417 C416 1.347 . S
H418 C419 0.951 . S
C419 H418 0.951 . S
C419 C425 1.265 . S
H420 C425 0.950 . S
H421 C429 0.949 . S
H422 C430 0.950 . S
H423 C431 0.951 . S
H424 C432 0.951 . S
C425 C419 1.265 . S
C425 H420 0.950 . S
C425 C426 1.478 . S
C426 C425 1.478 . S
C426 C427 1.397 . S
C426 C443 1.394 . S
C427 C426 1.397 . S
C427 C428 1.438 . S
C427 C432 1.429 . S
C428 C427 1.438 . S
C428 C429 1.428 . S
C428 C441 1.394 . S
C429 H421 0.949 . S
C429 C428 1.428 . S
C429 C430 1.345 . S
C430 H422 0.950 . S
C430 C429 1.345 . S
C430 C431 1.424 . S
C431 H423 0.951 . S
C431 C430 1.424 . S
C431 C432 1.347 . S
C432 H424 0.951 . S
C432 C427 1.429 . S
C432 C431 1.347 . S
H433 C434 0.951 . S
C434 H433 0.951 . S
C434 C440 1.265 . S
H435 C440 0.950 . S
H436 C444 0.949 . S
H437 C445 0.950 . S
H438 C446 0.951 . S
H439 C447 0.951 . S
C440 C434 1.265 . S
C440 H435 0.950 . S
C440 C441 1.478 . S
C441 C428 1.394 . S
C441 C440 1.478 . S
C441 C442 1.397 . S
C442 C441 1.397 . S
C442 C443 1.438 . S
C442 C447 1.429 . S
C443 C426 1.394 . S
C443 C442 1.438 . S
C443 C444 1.428 . S
C444 H436 0.949 . S
C444 C443 1.428 . S
C444 C445 1.345 . S
C445 H437 0.950 . S
C445 C444 1.345 . S
C445 C446 1.424 . S
C446 H438 0.951 . S
C446 C445 1.424 . S
C446 C447 1.347 . S
C447 H439 0.951 . S
C447 C442 1.429 . S
C447 C446 1.347 . S
C89 C5 1.516 . S
C104 C16 1.481 . S
C119 C27 1.397 . S
C134 C38 1.402 . S
C149 C60 1.354 . S
C164 C49 1.350 . S
C179 C71 1.224 . S
C194 C82 1.309 . S
C209 C8 1.616 . S
C224 C52 1.536 . S
C239 C63 1.572 . S
C254 C19 1.625 . S
C269 C30 1.618 . S
C284 C74 1.542 . S
C299 C85 1.553 . S
C314 C41 1.622 . S
C329 C29 1.572 . S
C344 C7 1.515 . S
C359 C40 1.515 . S
C374 C18 1.572 . S
C389 C73 1.483 . S
C404 C51 1.503 . S
C419 C84 1.500 . S
C434 C62 1.479 . S
