# Generated by pormake.
# Topology sra, (4)-cn, num edge types: 1
# Building blocks:
#     Node 0, Type 0, BuildingBlock: QUQFOY_clean_sbu_1, # of connection points: 4
#     Node 1, Type 0, BuildingBlock: QUQFOY_clean_sbu_1, # of connection points: 4
#     Node 2, Type 0, BuildingBlock: QUQFOY_clean_sbu_1, # of connection points: 4
#     Node 3, Type 0, BuildingBlock: QUQFOY_clean_sbu_1, # of connection points: 4
#     Node 4, Type 0, BuildingBlock: QUQFOY_clean_sbu_1, # of connection points: 4
#     Node 5, Type 0, BuildingBlock: QUQFOY_clean_sbu_1, # of connection points: 4
#     Node 6, Type 0, BuildingBlock: QUQFOY_clean_sbu_1, # of connection points: 4
#     Node 7, Type 0, BuildingBlock: QUQFOY_clean_sbu_1, # of connection points: 4
#     Edge 8, Type (0, 0), BuildingBlock: MIFKUJ_clean_linker_0, # of connection points: 2
#     Edge 9, Type (0, 0), BuildingBlock: MIFKUJ_clean_linker_0, # of connection points: 2
#     Edge 10, Type (0, 0), BuildingBlock: MIFKUJ_clean_linker_0, # of connection points: 2
#     Edge 11, Type (0, 0), BuildingBlock: MIFKUJ_clean_linker_0, # of connection points: 2
#     Edge 12, Type (0, 0), BuildingBlock: MIFKUJ_clean_linker_0, # of connection points: 2
#     Edge 13, Type (0, 0), BuildingBlock: MIFKUJ_clean_linker_0, # of connection points: 2
#     Edge 14, Type (0, 0), BuildingBlock: MIFKUJ_clean_linker_0, # of connection points: 2
#     Edge 15, Type (0, 0), BuildingBlock: MIFKUJ_clean_linker_0, # of connection points: 2
#     Edge 16, Type (0, 0), BuildingBlock: MIFKUJ_clean_linker_0, # of connection points: 2
#     Edge 17, Type (0, 0), BuildingBlock: MIFKUJ_clean_linker_0, # of connection points: 2
#     Edge 18, Type (0, 0), BuildingBlock: MIFKUJ_clean_linker_0, # of connection points: 2
#     Edge 19, Type (0, 0), BuildingBlock: MIFKUJ_clean_linker_0, # of connection points: 2
#     Edge 20, Type (0, 0), BuildingBlock: MIFKUJ_clean_linker_0, # of connection points: 2
#     Edge 21, Type (0, 0), BuildingBlock: MIFKUJ_clean_linker_0, # of connection points: 2
#     Edge 22, Type (0, 0), BuildingBlock: MIFKUJ_clean_linker_0, # of connection points: 2
#     Edge 23, Type (0, 0), BuildingBlock: MIFKUJ_clean_linker_0, # of connection points: 2
# Relax obj value: 0.038
# Max RMSD: 0.082
# Mean RMSD: 0.082
data_MOF--net-sra--node1-QUQFOY_clean_sbu_1--edge1-MIFKUJ_clean_linker_0
_symmetry_space_group_name_H-M    P1
_symmetry_Int_Tables_number       1
_symmetry_cell_setting            triclinic
loop_
_symmetry_equiv_pos_as_xyz
'x, y, z'
_cell_length_a     36.864882
_cell_length_b     69.199942
_cell_length_c     43.095584
_cell_angle_alpha  89.94367
_cell_angle_beta   89.904629
_cell_angle_gamma 90.064167
loop_
_atom_site_label
_atom_site_type_symbol
_atom_site_fract_x
_atom_site_fract_y
_atom_site_fract_z
_atom_type_partial_charge
O0 O 0.97017 0.10451 0.15966 0.0
Cd1 Cd 0.01675 0.11062 0.13515 0.0
Cd2 Cd 0.04563 0.1142 0.19228 0.0
O3 O 0.99523 0.10345 0.20611 0.0
O4 O 1.01094 0.09973 0.09249 0.0
O5 O 0.05055 0.0885 0.1266 0.0
C6 C 0.03563 0.08729 0.09958 0.0
C7 C 0.10113 0.10116 0.20828 0.0
C8 C 0.96751 0.1016 0.18872 0.0
C9 C 0.04149 0.15019 0.15293 0.0
O10 O 0.04818 0.14298 0.17947 0.0
O11 O 0.03022 0.13953 0.13094 0.0
O12 O 0.08111 0.11099 0.2271 0.0
O13 O 0.08865 0.09784 0.1808 0.0
O14 O 0.10974 0.4045 0.15777 0.0
Cd15 Cd 0.06372 0.39788 0.13309 0.0
Cd16 Cd 0.03572 0.39354 0.19055 0.0
O17 O 0.08593 0.40434 0.20474 0.0
O18 O 0.07158 0.40932 0.09105 0.0
O19 O 0.02818 0.41899 0.12293 0.0
C20 C 0.04515 0.42099 0.09687 0.0
C21 C 0.98003 0.40626 0.20679 0.0
C22 C 0.11311 0.40683 0.18687 0.0
C23 C 0.04113 0.35791 0.15019 0.0
O24 O 0.0338 0.36491 0.17675 0.0
O25 O 0.05235 0.36878 0.12835 0.0
O26 O 0.99999 0.39623 0.22536 0.0
O27 O 0.99262 0.40993 0.17941 0.0
O28 O 0.96706 0.90351 0.84381 0.0
Cd29 Cd 0.01431 0.89786 0.86799 0.0
Cd30 Cd 0.04118 0.89411 0.81072 0.0
O31 O 0.99164 0.90538 0.79718 0.0
O32 O 1.00953 0.90973 0.91007 0.0
O33 O 0.04839 0.92012 0.87453 0.0
C34 C 0.0341 0.922 0.90175 0.0
C35 C 0.09688 0.90594 0.79273 0.0
C36 C 0.96408 0.90683 0.81487 0.0
C37 C 0.03721 0.85821 0.85037 0.0
O38 O 0.04148 0.86537 0.82343 0.0
O39 O 0.02891 0.86909 0.87306 0.0
O40 O 0.07593 0.8958 0.77514 0.0
O41 O 0.0853 0.9102 0.82018 0.0
O42 O 0.11445 0.60484 0.84409 0.0
Cd43 Cd 0.06765 0.61121 0.86851 0.0
Cd44 Cd 0.04098 0.61504 0.81098 0.0
O45 O 0.09017 0.60325 0.79743 0.0
O46 O 0.07385 0.59959 0.91068 0.0
O47 O 0.03241 0.5897 0.87721 0.0
C48 C 0.04803 0.58774 0.90382 0.0
C49 C 0.98461 0.60289 0.79556 0.0
C50 C 0.11754 0.6015 0.81518 0.0
C51 C 0.04587 0.65104 0.85006 0.0
O52 O 0.04141 0.64386 0.82318 0.0
O53 O 0.054 0.64017 0.87286 0.0
O54 O 1.00512 0.61222 0.77639 0.0
O55 O 0.99694 0.59967 0.82311 0.0
O56 O 0.48149 0.60303 0.66191 0.0
Cd57 Cd 0.52785 0.60986 0.63716 0.0
Cd58 Cd 0.55359 0.61465 0.69436 0.0
O59 O 0.50526 0.60228 0.70875 0.0
O60 O 0.51867 0.59893 0.59509 0.0
O61 O 0.5629 0.58871 0.62554 0.0
C62 C 0.54508 0.5871 0.59989 0.0
C63 C 0.61035 0.60344 0.7103 0.0
C64 C 0.47818 0.59998 0.69088 0.0
C65 C 0.54629 0.65023 0.65462 0.0
O66 O 0.55106 0.6434 0.68172 0.0
O67 O 0.53948 0.63898 0.63203 0.0
O68 O 0.58934 0.61275 0.72901 0.0
O69 O 0.59847 0.59981 0.68271 0.0
O70 O 0.60107 0.90302 0.66012 0.0
Cd71 Cd 0.55415 0.89686 0.63591 0.0
Cd72 Cd 0.5277 0.89249 0.69329 0.0
O73 O 0.57731 0.90366 0.70709 0.0
O74 O 0.56094 0.90829 0.59378 0.0
O75 O 0.5197 0.91871 0.62712 0.0
C76 C 0.53563 0.92044 0.60053 0.0
C77 C 0.47229 0.90435 0.71165 0.0
C78 C 0.60446 0.90581 0.68913 0.0
C79 C 0.53194 0.85689 0.65304 0.0
O80 O 0.52698 0.86384 0.68001 0.0
O81 O 0.54082 0.86795 0.63068 0.0
O82 O 0.49327 0.89409 0.72901 0.0
O83 O 0.48364 0.90869 0.68413 0.0
O84 O 0.47522 0.40534 0.34245 0.0
Cd85 Cd 0.52037 0.39816 0.36789 0.0
Cd86 Cd 0.5505 0.3933 0.31128 0.0
O87 O 0.50057 0.40389 0.29611 0.0
O88 O 0.51336 0.40986 0.40976 0.0
O89 O 0.5569 0.41889 0.37745 0.0
C90 C 0.54031 0.42116 0.40363 0.0
C91 C 0.60616 0.40557 0.29377 0.0
C92 C 0.47297 0.40712 0.31317 0.0
C93 C 0.54305 0.35799 0.35216 0.0
O94 O 0.55223 0.36483 0.3259 0.0
O95 O 0.53039 0.36896 0.3732 0.0
O96 O 0.58576 0.39525 0.27601 0.0
O97 O 0.59413 0.40975 0.32113 0.0
O98 O 0.60402 0.10365 0.34448 0.0
Cd99 Cd 0.55757 0.1104 0.36874 0.0
Cd100 Cd 0.53023 0.11483 0.31142 0.0
O101 O 0.58028 0.10383 0.29755 0.0
O102 O 0.56458 0.09971 0.41134 0.0
O103 O 0.52265 0.08893 0.37903 0.0
C104 C 0.53881 0.08763 0.40552 0.0
C105 C 0.47466 0.10221 0.29478 0.0
C106 C 0.60737 0.10124 0.31538 0.0
C107 C 0.53553 0.15048 0.35125 0.0
O108 O 0.52883 0.14355 0.32454 0.0
O109 O 0.54586 0.13949 0.37319 0.0
O110 O 0.4952 0.11201 0.27627 0.0
O111 O 0.4865 0.09876 0.32244 0.0
H112 H 0.9948 0.33256 0.17815 0.0
H113 H 0.99487 0.29733 0.17417 0.0
H114 H 0.08438 0.30028 0.10958 0.0
H115 H 0.08272 0.33559 0.11202 0.0
H116 H 0.04534 0.27239 0.09295 0.0
H117 H 0.09486 0.29036 0.19085 0.0
H118 H 0.09709 0.30663 0.2417 0.0
H119 H 1.00227 0.27549 0.27116 0.0
H120 H 0.9992 0.2592 0.22032 0.0
H121 H 0.08662 0.17501 0.18326 0.0
H122 H 0.0896 0.21014 0.17821 0.0
H123 H 1.00497 0.20827 0.1091 0.0
H124 H 1.00361 0.17305 0.11279 0.0
H125 H 0.0459 0.23581 0.19196 0.0
H126 H 1.00538 0.24705 0.06257 0.0
H127 H 0.01417 0.23106 0.01197 0.0
H128 H 0.11104 0.20389 0.04579 0.0
H129 H 0.10309 0.21991 0.09644 0.0
C130 C 0.01416 0.32566 0.1628 0.0
C131 C 0.03892 0.33678 0.14555 0.0
C132 C 0.0144 0.30551 0.16071 0.0
C133 C 0.04035 0.29601 0.14227 0.0
C134 C 0.06417 0.30717 0.12409 0.0
C135 C 0.06325 0.32737 0.12551 0.0
C136 C 0.04349 0.27452 0.14281 0.0
C137 C 0.04549 0.26439 0.11461 0.0
C138 C 0.04481 0.264 0.17102 0.0
C139 C 0.04662 0.2737 0.20168 0.0
C140 C 0.07436 0.28707 0.20811 0.0
C141 C 0.07579 0.29629 0.23694 0.0
C142 C 0.04979 0.29213 0.25962 0.0
C143 C 0.02236 0.27871 0.25355 0.0
C144 C 0.02078 0.26947 0.22475 0.0
C145 C 0.06908 0.1821 0.16664 0.0
C146 C 0.04501 0.17129 0.14832 0.0
C147 C 0.07066 0.20221 0.16384 0.0
C148 C 0.0477 0.21201 0.1431 0.0
C149 C 0.02369 0.20116 0.1247 0.0
C150 C 0.02277 0.18099 0.12692 0.0
C151 C 0.04756 0.23357 0.14208 0.0
C152 C 0.04594 0.24374 0.17024 0.0
C153 C 0.04826 0.24413 0.11387 0.0
C154 C 0.0534 0.23453 0.0834 0.0
C155 C 0.02862 0.23772 0.05917 0.0
C156 C 0.03345 0.22864 0.03049 0.0
C157 C 0.06308 0.21642 0.02571 0.0
C158 C 0.08802 0.2133 0.04957 0.0
C159 C 0.08333 0.22235 0.07828 0.0
H160 H 0.06675 0.2094 0.00349 0.0
H161 H 0.05094 0.29929 0.28192 0.0
H162 H 0.0352 0.83733 0.90477 0.0
H163 H 0.03554 0.80201 0.91044 0.0
H164 H 0.0446 0.79587 0.81119 0.0
H165 H 0.04457 0.83089 0.80527 0.0
H166 H 0.98915 0.77346 0.83754 0.0
H167 H 0.11637 0.78803 0.85448 0.0
H168 H 0.16732 0.80402 0.88119 0.0
H169 H 0.1354 0.7776 0.96723 0.0
H170 H 0.08394 0.76166 0.94107 0.0
H171 H 0.03831 0.67841 0.80501 0.0
H172 H 0.03501 0.71329 0.81111 0.0
H173 H 0.0425 0.70698 0.9105 0.0
H174 H 0.0469 0.67181 0.9045 0.0
H175 H 0.08441 0.73581 0.89177 0.0
H176 H 0.96119 0.71866 0.87518 0.0
H177 H 0.90928 0.70272 0.84981 0.0
H178 H 0.9308 0.73413 0.7658 0.0
H179 H 0.98318 0.75007 0.7905 0.0
C180 C 0.03756 0.82845 0.88419 0.0
C181 C 0.0398 0.83697 0.85456 0.0
C182 C 0.03779 0.80829 0.88748 0.0
C183 C 0.04001 0.79636 0.86121 0.0
C184 C 0.04271 0.80483 0.83174 0.0
C185 C 0.04284 0.82488 0.82844 0.0
C186 C 0.03856 0.775 0.86395 0.0
C187 C 1.01008 0.76519 0.84923 0.0
C188 C 0.0651 0.76431 0.88023 0.0
C189 C 0.09606 0.77385 0.89591 0.0
C190 C 0.12002 0.78578 0.87915 0.0
C191 C 0.14903 0.7948 0.89418 0.0
C192 C 0.15452 0.79188 0.92591 0.0
C193 C 0.13107 0.77988 0.94266 0.0
C194 C 0.10199 0.77084 0.92775 0.0
C195 C 0.03906 0.68435 0.82824 0.0
C196 C 0.04266 0.67225 0.85429 0.0
C197 C 0.037 0.70436 0.8317 0.0
C198 C 0.03782 0.7128 0.86131 0.0
C199 C 0.04163 0.7008 0.88742 0.0
C200 C 0.04402 0.6807 0.88396 0.0
C201 C 0.03549 0.73417 0.86454 0.0
C202 C 0.06314 0.74401 0.88044 0.0
C203 C 1.00791 0.74495 0.84961 0.0
C204 C 0.97628 0.73548 0.83466 0.0
C205 C 0.955 0.72208 0.85123 0.0
C206 C 0.92547 0.71305 0.83697 0.0
C207 C 0.91678 0.71738 0.8062 0.0
C208 C 0.93757 0.73079 0.78963 0.0
C209 C 0.96715 0.73984 0.80377 0.0
H210 H 0.89391 0.71038 0.7952 0.0
H211 H 0.17701 0.79887 0.9375 0.0
H212 H 0.5435 0.67809 0.69921 0.0
H213 H 0.53878 0.71296 0.69205 0.0
H214 H 0.54436 0.70565 0.59284 0.0
H215 H 0.54854 0.67047 0.59971 0.0
H216 H 0.58995 0.73689 0.62007 0.0
H217 H 0.46719 0.71397 0.61697 0.0
H218 H 0.41497 0.69491 0.63565 0.0
H219 H 0.41567 0.7263 0.72153 0.0
H220 H 0.46831 0.74534 0.70357 0.0
H221 H 0.54345 0.83622 0.59946 0.0
H222 H 0.54316 0.80103 0.59337 0.0
H223 H 0.51507 0.79448 0.69003 0.0
H224 H 0.51459 0.82946 0.69617 0.0
H225 H 0.47785 0.76956 0.65634 0.0
H226 H 0.60296 0.78937 0.66381 0.0
H227 H 0.6577 0.80763 0.64867 0.0
H228 H 0.65477 0.78177 0.55817 0.0
H229 H 0.59968 0.76354 0.57266 0.0
C230 C 0.54403 0.68383 0.67583 0.0
C231 C 0.54629 0.67146 0.65001 0.0
C232 C 0.54121 0.70378 0.67181 0.0
C233 C 0.54095 0.71182 0.64194 0.0
C234 C 0.54445 0.69966 0.61608 0.0
C235 C 0.54675 0.6796 0.62006 0.0
C236 C 0.53602 0.73292 0.63814 0.0
C237 C 0.5652 0.74406 0.62732 0.0
C238 C 0.50396 0.74219 0.64829 0.0
C239 C 0.4719 0.73099 0.659 0.0
C240 C 0.45639 0.71672 0.63993 0.0
C241 C 0.42669 0.70593 0.65037 0.0
C242 C 0.41207 0.70936 0.67978 0.0
C243 C 0.42705 0.72364 0.69876 0.0
C244 C 0.45679 0.73446 0.68844 0.0
C245 C 0.53687 0.82729 0.61934 0.0
C246 C 0.52926 0.83569 0.64835 0.0
C247 C 0.53688 0.80716 0.61585 0.0
C248 C 0.52956 0.79508 0.64134 0.0
C249 C 0.52081 0.80348 0.67002 0.0
C250 C 0.52068 0.82353 0.6735 0.0
C251 C 0.53208 0.7737 0.63874 0.0
C252 C 0.50242 0.76245 0.64848 0.0
C253 C 0.56387 0.76435 0.62793 0.0
C254 C 0.59696 0.77529 0.61918 0.0
C255 C 0.61382 0.7877 0.64059 0.0
C256 C 0.64493 0.79803 0.63215 0.0
C257 C 0.65963 0.79591 0.60244 0.0
C258 C 0.6433 0.78343 0.58114 0.0
C259 C 0.61214 0.77309 0.58946 0.0
H260 H 0.68373 0.80391 0.59595 0.0
H261 H 0.38909 0.70097 0.68784 0.0
H262 H 0.49686 0.3354 0.38582 0.0
H263 H 0.49659 0.30015 0.38941 0.0
H264 H 0.59502 0.29796 0.33498 0.0
H265 H 0.59368 0.3331 0.32953 0.0
H266 H 0.55533 0.27267 0.31426 0.0
H267 H 0.58869 0.28774 0.41819 0.0
H268 H 0.58434 0.30345 0.46941 0.0
H269 H 0.48076 0.27665 0.48489 0.0
H270 H 0.48428 0.26097 0.43358 0.0
H271 H 0.57017 0.17201 0.3954 0.0
H272 H 0.57268 0.20725 0.39919 0.0
H273 H 0.49787 0.21196 0.32262 0.0
H274 H 0.49669 0.1768 0.3178 0.0
H275 H 0.53029 0.23556 0.41046 0.0
H276 H 0.516 0.24988 0.27797 0.0
H277 H 0.53078 0.23382 0.22845 0.0
H278 H 0.61524 0.20155 0.27327 0.0
H279 H 0.6013 0.21761 0.32293 0.0
C280 C 0.51864 0.32736 0.37496 0.0
C281 C 0.5453 0.33693 0.35741 0.0
C282 C 0.51863 0.30718 0.37716 0.0
C283 C 0.54606 0.29622 0.36281 0.0
C284 C 0.57339 0.30595 0.34614 0.0
C285 C 0.57275 0.32605 0.34314 0.0
C286 C 0.54516 0.27465 0.36347 0.0
C287 C 0.55001 0.26464 0.33542 0.0
C288 C 0.53884 0.26394 0.39103 0.0
C289 C 0.53662 0.27332 0.42192 0.0
C290 C 0.56488 0.2853 0.43243 0.0
C291 C 0.56257 0.29418 0.46149 0.0
C292 C 0.53226 0.29108 0.48036 0.0
C293 C 0.50421 0.27905 0.47023 0.0
C294 C 0.50637 0.27015 0.44118 0.0
C295 C 0.55404 0.18057 0.37953 0.0
C296 C 0.53358 0.17164 0.35605 0.0
C297 C 0.55545 0.20073 0.38175 0.0
C298 C 0.53611 0.21234 0.36076 0.0
C299 C 0.51391 0.20337 0.33852 0.0
C300 C 0.51308 0.18325 0.33588 0.0
C301 C 0.54022 0.23376 0.36129 0.0
C302 C 0.5358 0.24369 0.38945 0.0
C303 C 0.54853 0.2444 0.33409 0.0
C304 C 0.55733 0.23481 0.30422 0.0
C305 C 0.53781 0.23941 0.27722 0.0
C306 C 0.54603 0.2303 0.24913 0.0
C307 C 0.57385 0.21663 0.24774 0.0
C308 C 0.59361 0.21209 0.27441 0.0
C309 C 0.58554 0.22118 0.30253 0.0
H310 H 0.58015 0.20958 0.22598 0.0
H311 H 0.53052 0.29797 0.50285 0.0
H312 H 0.44839 0.09853 0.23588 0.0
H313 H 0.38551 0.09322 0.22018 0.0
H314 H 0.35358 0.08919 0.31637 0.0
H315 H 0.41683 0.09352 0.33209 0.0
H316 H 0.31396 0.06554 0.2852 0.0
H317 H 0.34534 0.13217 0.27194 0.0
H318 H 0.38101 0.15993 0.25287 0.0
H319 H 0.35834 0.14361 0.15876 0.0
H320 H 0.32291 0.11559 0.17729 0.0
H321 H 0.13083 0.10022 0.2664 0.0
H322 H 0.1946 0.09511 0.27998 0.0
H323 H 0.22015 0.08511 0.18367 0.0
H324 H 0.15632 0.08988 0.16994 0.0
H325 H 0.2626 0.11432 0.21322 0.0
H326 H 0.22525 0.04855 0.23011 0.0
H327 H 0.18731 0.0227 0.25253 0.0
H328 H 0.21831 0.04014 0.34434 0.0
H329 H 0.25605 0.06629 0.32247 0.0
C330 C 0.42804 0.09621 0.25367 0.0
C331 C 0.43752 0.0966 0.28523 0.0
C332 C 0.39201 0.09331 0.24468 0.0
C333 C 0.36445 0.09135 0.26708 0.0
C334 C 0.37418 0.09077 0.2986 0.0
C335 C 0.41039 0.09326 0.30758 0.0
C336 C 0.32547 0.09088 0.25774 0.0
C337 C 0.30273 0.07632 0.26967 0.0
C338 C 0.31059 0.10482 0.23723 0.0
C339 C 0.33182 0.12167 0.226 0.0
C340 C 0.34818 0.13443 0.24718 0.0
C341 C 0.36832 0.15022 0.23647 0.0
C342 C 0.37203 0.1535 0.20462 0.0
C343 C 0.35551 0.14102 0.18342 0.0
C344 C 0.33538 0.12519 0.19401 0.0
C345 C 0.14989 0.09657 0.24818 0.0
C346 C 0.13851 0.09548 0.21708 0.0
C347 C 0.18631 0.09362 0.25599 0.0
C348 C 0.2121 0.08973 0.23283 0.0
C349 C 0.20066 0.08807 0.2019 0.0
C350 C 0.16414 0.09072 0.19412 0.0
C351 C 0.25133 0.08899 0.24058 0.0
C352 C 0.27402 0.10344 0.22849 0.0
C353 C 0.26584 0.07524 0.26145 0.0
C354 C 0.24322 0.0595 0.27464 0.0
C355 C 0.22373 0.04699 0.25508 0.0
C356 C 0.20231 0.03225 0.2677 0.0
C357 C 0.20033 0.0298 0.29984 0.0
C358 C 0.21984 0.04206 0.31944 0.0
C359 C 0.24128 0.05683 0.30695 0.0
H360 H 0.18373 0.01839 0.30956 0.0
H361 H 0.38763 0.16573 0.19637 0.0
H362 H 0.66324 0.41643 0.33029 0.0
H363 H 0.72635 0.42098 0.31449 0.0
H364 H 0.69615 0.41194 0.21885 0.0
H365 H 0.63334 0.40646 0.23481 0.0
H366 H 0.75167 0.39177 0.22935 0.0
H367 H 0.72402 0.45776 0.25045 0.0
H368 H 0.70156 0.48557 0.28056 0.0
H369 H 0.78098 0.47457 0.35115 0.0
H370 H 0.80362 0.44652 0.32165 0.0
H371 H 0.92454 0.41734 0.16873 0.0
H372 H 0.86069 0.42182 0.18283 0.0
H373 H 0.88682 0.41213 0.27904 0.0
H374 H 0.95064 0.40725 0.26509 0.0
H375 H 0.83399 0.44361 0.26629 0.0
H376 H 0.85762 0.37597 0.24444 0.0
H377 H 0.88014 0.34918 0.21203 0.0
H378 H 0.80671 0.36538 0.13929 0.0
H379 H 0.78416 0.39248 0.17113 0.0
C380 C 0.66997 0.41573 0.30584 0.0
C381 C 0.64329 0.41106 0.2838 0.0
C382 C 0.70613 0.41843 0.29677 0.0
C383 C 0.71625 0.417 0.26535 0.0
C384 C 0.68925 0.41306 0.24323 0.0
C385 C 0.65326 0.41 0.25236 0.0
C386 C 0.75518 0.41818 0.25579 0.0
C387 C 0.76932 0.40337 0.23702 0.0
C388 C 0.77878 0.43304 0.26616 0.0
C389 C 0.7653 0.44992 0.28395 0.0
C390 C 0.73652 0.46118 0.2725 0.0
C391 C 0.72379 0.47701 0.28944 0.0
C392 C 0.73977 0.48181 0.31778 0.0
C393 C 0.7686 0.47082 0.3292 0.0
C394 C 0.78142 0.45497 0.31237 0.0
C395 C 0.91685 0.41651 0.19296 0.0
C396 C 0.94263 0.41184 0.21578 0.0
C397 C 0.88034 0.41904 0.20096 0.0
C398 C 0.86904 0.41722 0.23196 0.0
C399 C 0.89502 0.41364 0.25501 0.0
C400 C 0.93143 0.4108 0.24697 0.0
C401 C 0.82984 0.41733 0.23995 0.0
C402 C 0.8159 0.43224 0.25847 0.0
C403 C 0.80621 0.40275 0.22904 0.0
C404 C 0.81952 0.38638 0.21001 0.0
C405 C 0.84652 0.37393 0.22142 0.0
C406 C 0.85924 0.35867 0.20318 0.0
C407 C 0.84494 0.35562 0.17358 0.0
C408 C 0.81781 0.36779 0.1622 0.0
C409 C 0.80504 0.38309 0.18033 0.0
H410 H 0.85482 0.34379 0.15949 0.0
H411 H 0.72987 0.49406 0.33087 0.0
H412 H 0.13139 0.8947 0.73966 0.0
H413 H 0.19541 0.89885 0.72657 0.0
H414 H 0.21138 0.93231 0.80977 0.0
H415 H 0.14718 0.92812 0.82326 0.0
H416 H 0.25064 0.94656 0.7559 0.0
H417 H 0.232 0.8881 0.81481 0.0
H418 H 0.20249 0.85693 0.82651 0.0
H419 H 0.23601 0.83478 0.73796 0.0
H420 H 0.26526 0.86595 0.72554 0.0
H421 H 0.44078 0.89595 0.76739 0.0
H422 H 0.37764 0.90077 0.78259 0.0
H423 H 0.35624 0.92876 0.69507 0.0
H424 H 0.41964 0.92406 0.67967 0.0
H425 H 0.31999 0.88513 0.75438 0.0
H426 H 0.28485 0.9609 0.7062 0.0
H427 H 0.31473 0.99231 0.69699 0.0
H428 H 0.39119 0.98025 0.7695 0.0
H429 H 0.36149 0.9489 0.77943 0.0
C430 C 0.14828 0.90324 0.75496 0.0
C431 C 0.13421 0.91095 0.78266 0.0
C432 C 0.1849 0.90558 0.74742 0.0
C433 C 0.20816 0.91574 0.76734 0.0
C434 C 0.19384 0.92444 0.79408 0.0
C435 C 0.15719 0.92197 0.8018 0.0
C436 C 0.24786 0.91569 0.76161 0.0
C437 C 0.26588 0.93316 0.7555 0.0
C438 C 0.26777 0.89822 0.76161 0.0
C439 C 0.25051 0.87941 0.76913 0.0
C440 C 0.23283 0.87663 0.79774 0.0
C441 C 0.21619 0.85896 0.80451 0.0
C442 C 0.21729 0.8439 0.78296 0.0
C443 C 0.23513 0.84647 0.75461 0.0
C444 C 0.25177 0.86413 0.7477 0.0
C445 C 0.42285 0.9034 0.75151 0.0
C446 C 0.43526 0.90954 0.72223 0.0
C447 C 0.38669 0.90609 0.76023 0.0
C448 C 0.36216 0.9151 0.73999 0.0
C449 C 0.37474 0.92193 0.7112 0.0
C450 C 0.41098 0.91919 0.7024 0.0
C451 C 0.32301 0.916 0.74819 0.0
C452 C 0.30494 0.89859 0.75472 0.0
C453 C 0.30329 0.93355 0.74886 0.0
C454 C 0.32114 0.95247 0.74332 0.0
C455 C 0.30796 0.96499 0.72025 0.0
C456 C 0.32488 0.98278 0.7149 0.0
C457 C 0.35491 0.98825 0.73258 0.0
C458 C 0.36802 0.97596 0.75573 0.0
C459 C 0.35119 0.95817 0.7612 0.0
H460 H 0.36798 1.00202 0.72839 0.0
H461 H 0.20439 0.83023 0.78825 0.0
H462 H 0.63789 0.60185 0.76897 0.0
H463 H 0.70106 0.59718 0.78418 0.0
H464 H 0.73114 0.58996 0.68808 0.0
H465 H 0.6676 0.59384 0.67285 0.0
H466 H 0.77062 0.56684 0.72171 0.0
H467 H 0.74123 0.63398 0.7271 0.0
H468 H 0.70662 0.66283 0.74287 0.0
H469 H 0.72996 0.6509 0.83858 0.0
H470 H 0.76431 0.62181 0.82339 0.0
H471 H 0.9552 0.60095 0.7374 0.0
H472 H 0.89127 0.59612 0.72389 0.0
H473 H 0.8648 0.58896 0.82069 0.0
H474 H 0.92874 0.59337 0.83438 0.0
H475 H 0.82404 0.6182 0.78769 0.0
H476 H 0.85831 0.55139 0.77885 0.0
H477 H 0.89514 0.52417 0.75972 0.0
H478 H 0.86546 0.53786 0.66594 0.0
H479 H 0.82885 0.56536 0.68448 0.0
C480 C 0.65788 0.59902 0.7511 0.0
C481 C 0.64781 0.59839 0.71968 0.0
C482 C 0.69407 0.59645 0.75981 0.0
C483 C 0.72114 0.59371 0.73724 0.0
C484 C 0.71086 0.59216 0.70595 0.0
C485 C 0.67451 0.5944 0.69725 0.0
C486 C 0.7602 0.59343 0.74615 0.0
C487 C 0.78233 0.57818 0.73589 0.0
C488 C 0.77563 0.60812 0.76489 0.0
C489 C 0.755 0.6256 0.77413 0.0
C490 C 0.73874 0.63743 0.75153 0.0
C491 C 0.71921 0.65383 0.76036 0.0
C492 C 0.716 0.65866 0.79171 0.0
C493 C 0.73241 0.64712 0.8143 0.0
C494 C 0.75193 0.63068 0.8056 0.0
C495 C 0.93587 0.598 0.75577 0.0
C496 C 0.94701 0.59757 0.78697 0.0
C497 C 0.89939 0.59521 0.748 0.0
C498 C 0.87335 0.59219 0.7713 0.0
C499 C 0.88452 0.59124 0.80238 0.0
C500 C 0.92107 0.59369 0.81013 0.0
C501 C 0.83419 0.59159 0.76344 0.0
C502 C 0.81216 0.60679 0.77374 0.0
C503 C 0.81916 0.5771 0.74425 0.0
C504 C 0.84113 0.56056 0.73304 0.0
C505 C 0.85991 0.54872 0.75412 0.0
C506 C 0.88069 0.53321 0.74339 0.0
C507 C 0.88272 0.52932 0.71163 0.0
C508 C 0.8639 0.5409 0.69053 0.0
C509 C 0.8431 0.55645 0.70115 0.0
H510 H 0.8988 0.51729 0.70336 0.0
H511 H 0.70088 0.67138 0.7985 0.0
H512 H 0.66739 0.9124 0.65713 0.0
H513 H 0.72837 0.91628 0.67813 0.0
H514 H 0.6856 0.91279 0.77117 0.0
H515 H 0.62421 0.90911 0.75034 0.0
H516 H 0.73942 0.94003 0.76646 0.0
H517 H 0.72231 0.87352 0.73815 0.0
H518 H 0.70642 0.84666 0.70313 0.0
H519 H 0.7912 0.86377 0.64039 0.0
H520 H 0.80726 0.89093 0.67485 0.0
H521 H 0.89961 0.91084 0.84583 0.0
H522 H 0.83918 0.91451 0.82362 0.0
H523 H 0.88545 0.91593 0.73166 0.0
H524 H 0.94612 0.91199 0.75367 0.0
H525 H 0.83022 0.89097 0.7347 0.0
H526 H 0.84951 0.95668 0.76498 0.0
H527 H 0.86516 0.98328 0.80056 0.0
H528 H 0.77665 0.96746 0.86032 0.0
H529 H 0.76076 0.94059 0.8253 0.0
C530 C 0.67078 0.91265 0.68208 0.0
C531 C 0.64085 0.91024 0.70204 0.0
C532 C 0.70574 0.91482 0.69405 0.0
C533 C 0.71163 0.91449 0.72621 0.0
C534 C 0.68169 0.91302 0.74626 0.0
C535 C 0.64662 0.91087 0.7343 0.0
C536 C 0.74915 0.91468 0.73877 0.0
C537 C 0.75921 0.92921 0.75979 0.0
C538 C 0.77517 0.90077 0.72958 0.0
C539 C 0.76573 0.88438 0.70892 0.0
C540 C 0.73738 0.87165 0.71677 0.0
C541 C 0.72837 0.85636 0.69704 0.0
C542 C 0.74772 0.85354 0.66951 0.0
C543 C 0.7762 0.86599 0.6617 0.0
C544 C 0.78528 0.88132 0.68133 0.0
C545 C 0.89707 0.91216 0.82089 0.0
C546 C 0.92781 0.91106 0.80154 0.0
C547 C 0.86243 0.91435 0.80822 0.0
C548 C 0.85773 0.91562 0.77596 0.0
C549 C 0.88841 0.91498 0.75662 0.0
C550 C 0.92311 0.91279 0.76927 0.0
C551 C 0.82069 0.91638 0.76237 0.0
C552 C 0.81062 0.90193 0.74123 0.0
C553 C 0.79471 0.93033 0.77156 0.0
C554 C 0.80414 0.94651 0.79264 0.0
C555 C 0.83356 0.95878 0.78583 0.0
C556 C 0.84244 0.97392 0.80588 0.0
C557 C 0.82197 0.97703 0.83272 0.0
C558 C 0.79251 0.96503 0.83953 0.0
C559 C 0.78352 0.94985 0.81958 0.0
H560 H 0.82889 0.98877 0.84821 0.0
H561 H 0.74071 0.8417 0.65427 0.0
H562 H 0.41507 0.5942 0.65901 0.0
H563 H 0.354 0.59088 0.68018 0.0
H564 H 0.39706 0.59258 0.7731 0.0
H565 H 0.45859 0.5958 0.7521 0.0
H566 H 0.34131 0.56604 0.76729 0.0
H567 H 0.3629 0.63263 0.74298 0.0
H568 H 0.38101 0.66013 0.70994 0.0
H569 H 0.29607 0.64635 0.64557 0.0
H570 H 0.27777 0.61859 0.67803 0.0
H571 H 0.1812 0.59613 0.8466 0.0
H572 H 0.24187 0.59212 0.82489 0.0
H573 H 0.19732 0.59282 0.73242 0.0
H574 H 0.13638 0.59708 0.75395 0.0
H575 H 0.2538 0.61721 0.73748 0.0
H576 H 0.23059 0.55108 0.76444 0.0
H577 H 0.21303 0.52415 0.79887 0.0
H578 H 0.30129 0.53776 0.85999 0.0
H579 H 0.31908 0.56495 0.82614 0.0
C580 C 0.41174 0.59364 0.68397 0.0
C581 C 0.4418 0.59547 0.70385 0.0
C582 C 0.37672 0.59179 0.69602 0.0
C583 C 0.37091 0.59181 0.72821 0.0
C584 C 0.40094 0.59261 0.74817 0.0
C585 C 0.43608 0.59448 0.73612 0.0
C586 C 0.3334 0.59209 0.74084 0.0
C587 C 0.32225 0.57732 0.76106 0.0
C588 C 0.30838 0.60666 0.7323 0.0
C589 C 0.3192 0.6234 0.71278 0.0
C590 C 0.34827 0.63537 0.72165 0.0
C591 C 0.35854 0.65102 0.70306 0.0
C592 C 0.33977 0.65495 0.67564 0.0
C593 C 0.31062 0.64327 0.6668 0.0
C594 C 0.30027 0.62758 0.6853 0.0
C595 C 0.18415 0.59519 0.82163 0.0
C596 C 0.15382 0.59698 0.80203 0.0
C597 C 0.21893 0.59281 0.80926 0.0
C598 C 0.22419 0.59205 0.77701 0.0
C599 C 0.19391 0.59337 0.75738 0.0
C600 C 0.15906 0.59573 0.76974 0.0
C601 C 0.26145 0.59106 0.76381 0.0
C602 C 0.27268 0.60581 0.74357 0.0
C603 C 0.28654 0.57655 0.77254 0.0
C604 C 0.27597 0.56016 0.79288 0.0
C605 C 0.24608 0.54843 0.78535 0.0
C606 C 0.23612 0.5331 0.80474 0.0
C607 C 0.25598 0.52928 0.83163 0.0
C608 C 0.28591 0.54075 0.83916 0.0
C609 C 0.29597 0.55611 0.81986 0.0
H610 H 0.24822 0.5174 0.84661 0.0
H611 H 0.34777 0.66708 0.66128 0.0
H612 H 0.62764 0.09869 0.25405 0.0
H613 H 0.68911 0.09488 0.23334 0.0
H614 H 0.73101 0.09014 0.32642 0.0
H615 H 0.66996 0.09412 0.34728 0.0
H616 H 0.76885 0.11591 0.29356 0.0
H617 H 0.72753 0.05089 0.2781 0.0
H618 H 0.68632 0.0254 0.25926 0.0
H619 H 0.70392 0.04395 0.16532 0.0
H620 H 0.74487 0.06974 0.18364 0.0
H621 H 0.94991 0.09545 0.24998 0.0
H622 H 0.88925 0.09146 0.27229 0.0
H623 H 0.84241 0.0947 0.18078 0.0
H624 H 0.90277 0.09826 0.15828 0.0
H625 H 0.80765 0.06828 0.21426 0.0
H626 H 0.84493 0.13427 0.22912 0.0
H627 H 0.88523 0.16045 0.24697 0.0
H628 H 0.8739 0.1408 0.34104 0.0
H629 H 0.8339 0.11433 0.32367 0.0
C630 C 0.64986 0.09657 0.27011 0.0
C631 C 0.64378 0.09679 0.30236 0.0
C632 C 0.68501 0.09433 0.25822 0.0
C633 C 0.71474 0.09217 0.27832 0.0
C634 C 0.70856 0.09185 0.31045 0.0
C635 C 0.67353 0.09408 0.32233 0.0
C636 C 0.75249 0.09142 0.26609 0.0
C637 C 0.77747 0.10527 0.27661 0.0
C638 C 0.76356 0.07788 0.24336 0.0
C639 C 0.73901 0.06236 0.23228 0.0
C640 C 0.72239 0.04964 0.25345 0.0
C641 C 0.69912 0.03512 0.24286 0.0
C642 C 0.69244 0.03309 0.21112 0.0
C643 C 0.70909 0.04555 0.1899 0.0
C644 C 0.73236 0.06011 0.20037 0.0
C645 C 0.92675 0.09509 0.23456 0.0
C646 C 0.93129 0.09735 0.20234 0.0
C647 C 0.89204 0.09289 0.24737 0.0
C648 C 0.86115 0.09311 0.22827 0.0
C649 C 0.86575 0.09454 0.19603 0.0
C650 C 0.90039 0.09664 0.1832 0.0
C651 C 0.82395 0.09275 0.2418 0.0
C652 C 0.79907 0.07879 0.23142 0.0
C653 C 0.81281 0.10627 0.26455 0.0
C654 C 0.83676 0.1222 0.27505 0.0
C655 C 0.85126 0.13545 0.25358 0.0
C656 C 0.87401 0.15035 0.26361 0.0
C657 C 0.88221 0.15226 0.29511 0.0
C658 C 0.86758 0.13929 0.31664 0.0
C659 C 0.84486 0.12434 0.30672 0.0
H660 H 0.89982 0.16381 0.30283 0.0
H661 H 0.67442 0.02183 0.20297 0.0
H662 H 0.13252 0.41319 0.24777 0.0
H663 H 0.19407 0.41694 0.26852 0.0
H664 H 0.23792 0.41324 0.17591 0.0
H665 H 0.17695 0.4096 0.15502 0.0
H666 H 0.27132 0.38836 0.21637 0.0
H667 H 0.23841 0.45543 0.21247 0.0
H668 H 0.20041 0.48392 0.22343 0.0
H669 H 0.21539 0.47542 0.32129 0.0
H670 H 0.25308 0.44669 0.31092 0.0
H671 H 0.45471 0.40799 0.25134 0.0
H672 H 0.39402 0.41155 0.22911 0.0
H673 H 0.34927 0.4192 0.3208 0.0
H674 H 0.4097 0.41597 0.34314 0.0
H675 H 0.31633 0.44287 0.28038 0.0
H676 H 0.34602 0.37548 0.28545 0.0
H677 H 0.38291 0.34638 0.27593 0.0
H678 H 0.37233 0.35464 0.17759 0.0
H679 H 0.33576 0.38398 0.18655 0.0
C680 C 0.15522 0.41342 0.23179 0.0
C681 C 0.14969 0.41102 0.19972 0.0
C682 C 0.19039 0.4156 0.24368 0.0
C683 C 0.2206 0.41536 0.22374 0.0
C684 C 0.21504 0.41341 0.19173 0.0
C685 C 0.18004 0.41139 0.17983 0.0
C686 C 0.25818 0.41605 0.23617 0.0
C687 C 0.28132 0.40043 0.22997 0.0
C688 C 0.27092 0.43153 0.25461 0.0
C689 C 0.24825 0.44878 0.26092 0.0
C690 C 0.23333 0.45952 0.23634 0.0
C691 C 0.2119 0.47574 0.24244 0.0
C692 C 0.2054 0.48144 0.27304 0.0
C693 C 0.2204 0.47097 0.2976 0.0
C694 C 0.24182 0.45473 0.29162 0.0
C695 C 0.43206 0.4107 0.26675 0.0
C696 C 0.43713 0.41151 0.29907 0.0
C697 C 0.39732 0.41265 0.25402 0.0
C698 C 0.36695 0.41533 0.27333 0.0
C699 C 0.37221 0.41709 0.30543 0.0
C700 C 0.40686 0.41516 0.31817 0.0
C701 C 0.32954 0.41523 0.26038 0.0
C702 C 0.30638 0.43088 0.26661 0.0
C703 C 0.31658 0.39968 0.24214 0.0
C704 C 0.33851 0.38204 0.23667 0.0
C705 C 0.35181 0.37118 0.2618 0.0
C706 C 0.37262 0.35463 0.2565 0.0
C707 C 0.38005 0.3487 0.22617 0.0
C708 C 0.36661 0.35928 0.20107 0.0
C709 C 0.34583 0.37586 0.20624 0.0
H710 H 0.39615 0.33587 0.22212 0.0
H711 H 0.18882 0.49401 0.27771 0.0
H712 H 0.03064 0.08727 0.03648 0.0
H713 H 0.0393 0.05991 1.00142 0.0
H714 H 0.06655 0.02357 0.07946 0.0
H715 H 0.06024 0.05128 0.11426 0.0
H716 H 0.10465 0.01227 0.03428 0.0
H717 H 0.97795 0.02556 0.04464 0.0
H718 H 0.92208 0.04513 0.04342 0.0
H719 H 0.93738 0.05565 0.94606 0.0
H720 H 0.99361 0.03634 0.94679 0.0
H721 H 0.02425 0.92498 0.96438 0.0
H722 H 0.03386 0.9536 0.99689 0.0
H723 H 0.07286 0.98517 0.91729 0.0
H724 H 0.06443 0.95644 0.88475 0.0
H725 H 1.00388 0.99868 0.96128 0.0
H726 H 0.13259 0.98235 0.95459 0.0
H727 H 0.18398 0.95981 0.95993 0.0
H728 H 0.15814 0.9515 0.05622 0.0
H729 H 0.10621 0.97377 0.0513 0.0
C730 C 0.03899 0.0735 0.04604 0.0
C731 C 0.04451 0.07134 0.07809 0.0
C732 C 0.04366 0.0578 0.02603 0.0
C733 C 0.05252 0.03944 0.0378 0.0
C734 C 0.05955 0.03751 0.06971 0.0
C735 C 0.05588 0.05335 0.08963 0.0
C736 C 0.05288 0.02214 0.01715 0.0
C737 C 0.08246 0.00933 0.01848 0.0
C738 C 0.024 0.01809 0.99639 0.0
C739 C 0.99018 0.02969 0.99585 0.0
C740 C 0.96952 0.03216 0.02302 0.0
C741 C 0.93778 0.04319 0.02241 0.0
C742 C 0.92624 0.05167 0.9947 0.0
C743 C 0.94638 0.0491 0.96752 0.0
C744 C 0.97818 0.03811 0.96801 0.0
C745 C 0.03549 0.93791 0.95391 0.0
C746 C 0.04359 0.93848 0.92203 0.0
C747 C 0.04101 0.9542 0.97251 0.0
C748 C 0.05417 0.9714 0.95943 0.0
C749 C 0.06294 0.97194 0.92777 0.0
C750 C 0.05818 0.95553 0.90928 0.0
C751 C 0.05564 0.9892 0.97834 0.0
C752 C 0.02618 1.00192 0.97686 0.0
C753 C 0.08403 0.99284 0.99949 0.0
C754 C 0.11527 0.97953 0.00247 0.0
C755 C 0.13761 0.97554 0.9768 0.0
C756 C 0.1669 0.96286 0.97978 0.0
C757 C 0.17425 0.95417 0.00837 0.0
C758 C 0.15238 0.9582 0.03407 0.0
C759 C 0.12304 0.97087 0.03121 0.0
H760 H 0.19694 0.94437 0.01063 0.0
H761 H 0.90166 0.0602 0.99427 0.0
H762 H 0.99406 0.56081 0.89683 0.0
H763 H 0.98156 0.5328 0.92997 0.0
H764 H 0.06852 0.54988 0.991 0.0
H765 H 0.0805 0.57805 0.95855 0.0
H766 H 0.02135 0.50295 0.94195 0.0
H767 H 0.0544 0.53533 0.06377 0.0
H768 H 0.04658 0.5661 0.09179 0.0
H769 H 0.95758 0.58108 0.03233 0.0
H770 H 0.96451 0.55028 0.00423 0.0
H771 H 0.08272 0.4319 0.04519 0.0
H772 H 0.07198 0.45986 0.01216 0.0
H773 H 0.97678 0.47416 0.0658 0.0
H774 H 0.98818 0.44642 0.09977 0.0
H775 H 0.01368 0.5052 0.05682 0.0
H776 H 0.97114 0.45605 0.98971 0.0
H777 H 0.97189 0.42514 0.96132 0.0
H778 H 0.06627 0.44347 0.91068 0.0
H779 H 0.06641 0.47439 0.93908 0.0
C780 C 1.01015 0.55874 0.91758 0.0
C781 C 0.03824 0.57169 0.92507 0.0
C782 C 1.00305 0.54268 0.93644 0.0
C783 C 0.02386 0.53927 0.96318 0.0
C784 C 0.05156 0.55236 0.97089 0.0
C785 C 0.05851 0.56845 0.95218 0.0
C786 C 0.01832 0.52145 0.98203 0.0
C787 C 0.0194 0.50345 0.96705 0.0
C788 C 0.01473 0.52204 0.01475 0.0
C789 C 1.01018 0.54053 0.03174 0.0
C790 C 0.03304 0.54514 0.05677 0.0
C791 C 0.02879 0.5626 0.07264 0.0
C792 C 1.00166 0.57556 0.06379 0.0
C793 C 0.97866 0.57106 0.03909 0.0
C794 C 0.98278 0.55361 0.02316 0.0
C795 C 0.05921 0.44083 0.04979 0.0
C796 C 0.03627 0.4369 0.07512 0.0
C797 C 0.05297 0.45681 0.03072 0.0
C798 C 0.02326 0.46905 0.03613 0.0
C799 C 0.99986 0.46494 0.06109 0.0
C800 C 1.00633 0.44903 0.08042 0.0
C801 C 0.0181 0.4867 0.0168 0.0
C802 C 0.01509 0.50467 0.03169 0.0
C803 C 0.01889 0.48607 0.98394 0.0
C804 C 0.01889 0.46751 0.96668 0.0
C805 C 0.9922 0.45345 0.97267 0.0
C806 C 0.99244 0.43592 0.95655 0.0
C807 C 0.01914 0.43233 0.93424 0.0
C808 C 0.04561 0.44627 0.92797 0.0
C809 C 0.0455 0.46381 0.94404 0.0
H810 H 0.01929 0.41875 0.92179 0.0
H811 H 0.99843 0.58907 0.07611 0.0
H812 H 0.51081 0.42889 0.46037 0.0
H813 H 0.52151 0.45706 0.49309 0.0
H814 H 0.60256 0.4776 0.42868 0.0
H815 H 0.5916 0.44949 0.39546 0.0
H816 H 0.57714 0.47227 0.52391 0.0
H817 H 0.59458 0.527 0.42398 0.0
H818 H 0.57751 0.53083 0.36894 0.0
H819 H 0.48443 0.49451 0.38321 0.0
H820 H 0.50069 0.49069 0.43837 0.0
H821 H 0.6046 0.56329 0.59734 0.0
H822 H 0.6141 0.53571 0.56261 0.0
H823 H 0.51122 0.54725 0.51865 0.0
H824 H 0.50251 0.57517 0.55211 0.0
H825 H 0.55529 0.53661 0.47665 0.0
H826 H 0.52449 0.51179 0.5786 0.0
H827 H 0.53294 0.5075 0.63498 0.0
H828 H 0.63837 0.48308 0.61899 0.0
H829 H 0.63066 0.48744 0.56252 0.0
C830 C 0.53123 0.43926 0.45328 0.0
C831 C 0.55012 0.43702 0.42514 0.0
C832 C 0.53742 0.45534 0.47212 0.0
C833 C 0.56253 0.46957 0.4632 0.0
C834 C 0.58271 0.46693 0.43584 0.0
C835 C 0.5765 0.45082 0.41693 0.0
C836 C 0.56558 0.48766 0.48161 0.0
C837 C 0.57272 0.48637 0.51353 0.0
C838 C 0.55931 0.50604 0.46822 0.0
C839 C 0.54916 0.50836 0.43516 0.0
C840 C 0.57045 0.51987 0.41535 0.0
C841 C 0.56091 0.52204 0.38415 0.0
C842 C 0.53 0.51285 0.37256 0.0
C843 C 0.50846 0.50154 0.39218 0.0
C844 C 0.51785 0.49935 0.4234 0.0
C845 C 0.58427 0.56005 0.57999 0.0
C846 C 0.55274 0.57136 0.57756 0.0
C847 C 0.58961 0.54421 0.56026 0.0
C848 C 0.56308 0.53912 0.53829 0.0
C849 C 0.53217 0.55082 0.5353 0.0
C850 C 0.52715 0.5668 0.55456 0.0
C851 C 0.5663 0.52127 0.51917 0.0
C852 C 0.56043 0.52259 0.48702 0.0
C853 C 0.57263 0.50285 0.53254 0.0
C854 C 0.57717 0.50013 0.56642 0.0
C855 C 0.54955 0.50562 0.58715 0.0
C856 C 0.5542 0.50316 0.6191 0.0
C857 C 0.58622 0.49508 0.63056 0.0
C858 C 0.61361 0.48937 0.61008 0.0
C859 C 0.60912 0.49182 0.57811 0.0
H860 H 0.58977 0.49319 0.6553 0.0
H861 H 0.52267 0.51454 0.3484 0.0
H862 H 0.56138 0.92621 0.54184 0.0
H863 H 0.55423 0.9549 0.50947 0.0
H864 H 0.48487 0.98049 0.57881 0.0
H865 H 0.49141 0.95159 0.61126 0.0
H866 H 0.46151 0.9892 0.52027 0.0
H867 H 0.5728 0.99221 0.57729 0.0
H868 H 0.63174 0.98025 0.59625 0.0
H869 H 0.67135 0.97702 0.50264 0.0
H870 H 0.61243 0.98871 0.48309 0.0
H871 H 0.56193 0.0841 0.46533 0.0
H872 H 0.5533 0.0567 0.50026 0.0
H873 H 0.48873 0.02792 0.4308 0.0
H874 H 0.4965 0.05559 0.39597 0.0
H875 H 0.57703 0.02198 0.49297 0.0
H876 H 0.43118 0.99551 0.46531 0.0
H877 H 0.37186 0.00917 0.45059 0.0
H878 H 0.40056 0.06315 0.49308 0.0
H879 H 0.45983 0.04974 0.50842 0.0
C880 C 0.54415 0.9378 0.55007 0.0
C881 C 0.52728 0.9367 0.5793 0.0
C882 C 0.54016 0.95422 0.53153 0.0
C883 C 0.51955 0.96999 0.54196 0.0
C884 C 0.50099 0.96852 0.57035 0.0
C885 C 0.50483 0.95201 0.58889 0.0
C886 C 0.5197 0.98844 0.52429 0.0
C887 C 0.48672 0.99639 0.51423 0.0
C888 C 0.55255 0.99807 0.51704 0.0
C889 C 0.5881 0.99117 0.52872 0.0
C890 C 0.594 0.98882 0.56074 0.0
C891 C 0.62741 0.98211 0.57159 0.0
C892 C 0.65525 0.97784 0.55066 0.0
C893 C 0.64975 0.98032 0.51883 0.0
C894 C 0.61636 0.987 0.50785 0.0
C895 C 0.5454 0.07208 0.45764 0.0
C896 C 0.53 0.072 0.42782 0.0
C897 C 0.54057 0.05639 0.47763 0.0
C898 C 0.52035 0.04021 0.46825 0.0
C899 C 0.504 0.04033 0.4388 0.0
C900 C 0.50857 0.05614 0.41885 0.0
C901 C 0.51883 0.02273 0.48839 0.0
C902 C 0.55169 0.01489 0.49892 0.0
C903 C 0.48582 0.01351 0.49657 0.0
C904 C 0.4501 0.02166 0.48773 0.0
C905 C 0.42478 0.01027 0.47161 0.0
C906 C 0.39117 0.01798 0.46314 0.0
C907 C 0.3825 0.03704 0.47081 0.0
C908 C 0.40737 0.04841 0.48705 0.0
C909 C 0.441 0.04078 0.49559 0.0
H910 H 0.35648 0.04298 0.46421 0.0
H911 H 0.6811 0.97264 0.55911 0.0
loop_
_geom_bond_atom_site_label_1
_geom_bond_atom_site_label_2
_geom_bond_distance
_geom_bond_site_symmetry_2
_ccdc_geom_bond_type
O0 Cd1 2.244 . S
O0 C8 1.315 . S
Cd1 O0 2.244 . S
Cd1 O4 2.306 . S
Cd1 O5 2.428 1_655 S
Cd1 O11 2.227 1_655 S
Cd2 O3 2.240 1_455 S
Cd2 O10 2.223 . S
Cd2 O12 2.297 . S
Cd2 O13 2.439 . S
O3 Cd2 2.240 1_655 S
O3 C8 1.279 . S
O4 Cd1 2.306 . S
O4 C6 1.247 1_655 S
O5 Cd1 2.428 1_455 S
O5 C6 1.208 . S
C6 O4 1.247 1_455 S
C6 O5 1.208 . S
C7 O12 1.247 . S
C7 O13 1.208 . S
C8 O0 1.315 . S
C8 O3 1.279 . S
C9 O10 1.315 . S
C9 O11 1.279 . S
O10 Cd2 2.223 . S
O10 C9 1.315 . S
O11 Cd1 2.227 1_455 S
O11 C9 1.279 . S
O12 Cd2 2.297 . S
O12 C7 1.247 . S
O13 Cd2 2.439 . S
O13 C7 1.208 . S
O14 Cd15 2.223 . S
O14 C22 1.315 . S
Cd15 O14 2.223 . S
Cd15 O18 2.297 . S
Cd15 O19 2.439 . S
Cd15 O25 2.240 . S
Cd16 O17 2.240 . S
Cd16 O24 2.223 . S
Cd16 O26 2.297 1_455 S
Cd16 O27 2.439 1_455 S
O17 Cd16 2.240 . S
O17 C22 1.279 . S
O18 Cd15 2.297 . S
O18 C20 1.247 . S
O19 Cd15 2.439 . S
O19 C20 1.208 . S
C20 O18 1.247 . S
C20 O19 1.208 . S
C21 O26 1.247 . S
C21 O27 1.208 . S
C22 O14 1.315 . S
C22 O17 1.279 . S
C23 O24 1.315 . S
C23 O25 1.279 . S
O24 Cd16 2.223 . S
O24 C23 1.315 . S
O25 Cd15 2.240 . S
O25 C23 1.279 . S
O26 Cd16 2.297 1_655 S
O26 C21 1.247 . S
O27 Cd16 2.439 1_655 S
O27 C21 1.208 . S
O28 Cd29 2.244 . S
O28 C36 1.315 . S
Cd29 O28 2.244 . S
Cd29 O32 2.306 . S
Cd29 O33 2.428 1_655 S
Cd29 O39 2.227 1_655 S
Cd30 O31 2.240 1_455 S
Cd30 O38 2.223 . S
Cd30 O40 2.297 . S
Cd30 O41 2.439 . S
O31 Cd30 2.240 1_655 S
O31 C36 1.279 . S
O32 Cd29 2.306 . S
O32 C34 1.247 1_655 S
O33 Cd29 2.428 1_455 S
O33 C34 1.208 . S
C34 O32 1.247 1_455 S
C34 O33 1.208 . S
C35 O40 1.247 . S
C35 O41 1.208 . S
C36 O28 1.315 . S
C36 O31 1.279 . S
C37 O38 1.315 . S
C37 O39 1.279 . S
O38 Cd30 2.223 . S
O38 C37 1.315 . S
O39 Cd29 2.227 1_455 S
O39 C37 1.279 . S
O40 Cd30 2.297 . S
O40 C35 1.247 . S
O41 Cd30 2.439 . S
O41 C35 1.208 . S
O42 Cd43 2.223 . S
O42 C50 1.315 . S
Cd43 O42 2.223 . S
Cd43 O46 2.297 . S
Cd43 O47 2.439 . S
Cd43 O53 2.240 . S
Cd44 O45 2.240 . S
Cd44 O52 2.223 . S
Cd44 O54 2.297 1_455 S
Cd44 O55 2.439 1_455 S
O45 Cd44 2.240 . S
O45 C50 1.279 . S
O46 Cd43 2.297 . S
O46 C48 1.247 . S
O47 Cd43 2.439 . S
O47 C48 1.208 . S
C48 O46 1.247 . S
C48 O47 1.208 . S
C49 O54 1.247 . S
C49 O55 1.208 . S
C50 O42 1.315 . S
C50 O45 1.279 . S
C51 O52 1.315 . S
C51 O53 1.279 . S
O52 Cd44 2.223 . S
O52 C51 1.315 . S
O53 Cd43 2.240 . S
O53 C51 1.279 . S
O54 Cd44 2.297 1_655 S
O54 C49 1.247 . S
O55 Cd44 2.439 1_655 S
O55 C49 1.208 . S
O56 Cd57 2.223 . S
O56 C64 1.315 . S
Cd57 O56 2.223 . S
Cd57 O60 2.297 . S
Cd57 O61 2.439 . S
Cd57 O67 2.240 . S
Cd58 O59 2.240 . S
Cd58 O66 2.223 . S
Cd58 O68 2.297 . S
Cd58 O69 2.439 . S
O59 Cd58 2.240 . S
O59 C64 1.279 . S
O60 Cd57 2.297 . S
O60 C62 1.247 . S
O61 Cd57 2.439 . S
O61 C62 1.208 . S
C62 O60 1.247 . S
C62 O61 1.208 . S
C63 O68 1.247 . S
C63 O69 1.208 . S
C64 O56 1.315 . S
C64 O59 1.279 . S
C65 O66 1.315 . S
C65 O67 1.279 . S
O66 Cd58 2.223 . S
O66 C65 1.315 . S
O67 Cd57 2.240 . S
O67 C65 1.279 . S
O68 Cd58 2.297 . S
O68 C63 1.247 . S
O69 Cd58 2.439 . S
O69 C63 1.208 . S
O70 Cd71 2.223 . S
O70 C78 1.315 . S
Cd71 O70 2.223 . S
Cd71 O74 2.297 . S
Cd71 O75 2.439 . S
Cd71 O81 2.240 . S
Cd72 O73 2.240 . S
Cd72 O80 2.223 . S
Cd72 O82 2.297 . S
Cd72 O83 2.439 . S
O73 Cd72 2.240 . S
O73 C78 1.279 . S
O74 Cd71 2.297 . S
O74 C76 1.247 . S
O75 Cd71 2.439 . S
O75 C76 1.208 . S
C76 O74 1.247 . S
C76 O75 1.208 . S
C77 O82 1.247 . S
C77 O83 1.208 . S
C78 O70 1.315 . S
C78 O73 1.279 . S
C79 O80 1.315 . S
C79 O81 1.279 . S
O80 Cd72 2.223 . S
O80 C79 1.315 . S
O81 Cd71 2.240 . S
O81 C79 1.279 . S
O82 Cd72 2.297 . S
O82 C77 1.247 . S
O83 Cd72 2.439 . S
O83 C77 1.208 . S
O84 Cd85 2.223 . S
O84 C92 1.315 . S
Cd85 O84 2.223 . S
Cd85 O88 2.297 . S
Cd85 O89 2.439 . S
Cd85 O95 2.240 . S
Cd86 O87 2.240 . S
Cd86 O94 2.223 . S
Cd86 O96 2.297 . S
Cd86 O97 2.439 . S
O87 Cd86 2.240 . S
O87 C92 1.279 . S
O88 Cd85 2.297 . S
O88 C90 1.247 . S
O89 Cd85 2.439 . S
O89 C90 1.208 . S
C90 O88 1.247 . S
C90 O89 1.208 . S
C91 O96 1.247 . S
C91 O97 1.208 . S
C92 O84 1.315 . S
C92 O87 1.279 . S
C93 O94 1.315 . S
C93 O95 1.279 . S
O94 Cd86 2.223 . S
O94 C93 1.315 . S
O95 Cd85 2.240 . S
O95 C93 1.279 . S
O96 Cd86 2.297 . S
O96 C91 1.247 . S
O97 Cd86 2.439 . S
O97 C91 1.208 . S
O98 Cd99 2.223 . S
O98 C106 1.315 . S
Cd99 O98 2.223 . S
Cd99 O102 2.297 . S
Cd99 O103 2.439 . S
Cd99 O109 2.240 . S
Cd100 O101 2.240 . S
Cd100 O108 2.223 . S
Cd100 O110 2.297 . S
Cd100 O111 2.439 . S
O101 Cd100 2.240 . S
O101 C106 1.279 . S
O102 Cd99 2.297 . S
O102 C104 1.247 . S
O103 Cd99 2.439 . S
O103 C104 1.208 . S
C104 O102 1.247 . S
C104 O103 1.208 . S
C105 O110 1.247 . S
C105 O111 1.208 . S
C106 O98 1.315 . S
C106 O101 1.279 . S
C107 O108 1.315 . S
C107 O109 1.279 . S
O108 Cd100 2.223 . S
O108 C107 1.315 . S
O109 Cd99 2.240 . S
O109 C107 1.279 . S
O110 Cd100 2.297 . S
O110 C105 1.247 . S
O111 Cd100 2.439 . S
O111 C105 1.208 . S
H112 C130 0.951 1_655 S
H113 C132 0.951 1_655 S
H114 C134 0.950 . S
H115 C135 0.950 . S
H116 C137 0.950 . S
H117 C140 0.950 . S
H118 C141 0.950 . S
H119 C143 0.950 . S
H120 C144 0.950 . S
H121 C145 0.951 . S
H122 C147 0.951 . S
H123 C149 0.950 . S
H124 C150 0.950 . S
H125 C152 0.950 1_655 S
H126 C155 0.950 . S
H127 C156 0.950 . S
H128 C158 0.950 . S
H129 C159 0.950 . S
C130 H112 0.951 1_455 S
C130 C131 1.366 . S
C130 C132 1.388 . S
C131 C130 1.366 . S
C131 C135 1.385 . S
C132 H113 0.951 1_455 S
C132 C130 1.388 . S
C132 C133 1.366 . S
C133 C132 1.366 . S
C133 C134 1.414 . S
C133 C136 1.499 . S
C134 H114 0.950 . S
C134 C133 1.414 . S
C134 C135 1.374 . S
C135 H115 0.950 . S
C135 C131 1.385 . S
C135 C134 1.374 . S
C136 C133 1.499 . S
C136 C137 1.373 . S
C136 C138 1.389 . S
C137 H116 0.950 . S
C137 C136 1.373 . S
C137 C153 1.377 . S
C138 C136 1.389 . S
C138 C139 1.524 1_455 S
C138 C152 1.377 . S
C139 C138 1.524 1_655 S
C139 C140 1.397 1_655 S
C139 C144 1.363 . S
C140 H117 0.950 . S
C140 C139 1.397 1_455 S
C140 C141 1.334 . S
C141 H118 0.950 . S
C141 C140 1.334 . S
C141 C142 1.287 1_455 S
C142 C141 1.287 1_655 S
C142 C143 1.524 . S
C142 H161 0.913 . S
C143 H119 0.950 . S
C143 C142 1.524 . S
C143 C144 1.415 . S
C144 H120 0.950 . S
C144 C139 1.363 . S
C144 C143 1.415 . S
C145 H121 0.951 . S
C145 C146 1.366 . S
C145 C147 1.388 . S
C146 C145 1.366 . S
C146 C150 1.385 1_455 S
C147 H122 0.951 . S
C147 C145 1.388 . S
C147 C148 1.366 . S
C148 C147 1.366 . S
C148 C149 1.414 1_455 S
C148 C151 1.499 . S
C149 H123 0.950 . S
C149 C148 1.414 1_655 S
C149 C150 1.374 . S
C150 H124 0.950 . S
C150 C146 1.385 1_655 S
C150 C149 1.374 . S
C151 C148 1.499 . S
C151 C152 1.373 . S
C151 C153 1.389 . S
C152 H125 0.950 1_455 S
C152 C138 1.377 . S
C152 C151 1.373 . S
C153 C137 1.377 . S
C153 C151 1.389 . S
C153 C154 1.524 . S
C154 C153 1.524 . S
C154 C155 1.397 . S
C154 C159 1.363 . S
C155 H126 0.950 . S
C155 C154 1.397 . S
C155 C156 1.334 . S
C156 H127 0.950 . S
C156 C155 1.334 . S
C156 C157 1.287 . S
C157 C156 1.287 . S
C157 C158 1.524 . S
C157 H160 0.999 . S
C158 H128 0.950 . S
C158 C157 1.524 . S
C158 C159 1.415 . S
C159 H129 0.950 . S
C159 C154 1.363 . S
C159 C158 1.415 . S
H160 C157 0.999 . S
H161 C142 0.913 . S
H162 C180 0.951 . S
H163 C182 0.951 . S
H164 C184 0.950 . S
H165 C185 0.950 . S
H166 C187 0.958 . S
H167 C190 0.950 . S
H168 C191 0.950 . S
H169 C193 0.950 . S
H170 C194 0.950 . S
H171 C195 0.951 . S
H172 C197 0.951 . S
H173 C199 0.950 . S
H174 C200 0.950 . S
H175 C202 0.950 . S
H176 C205 0.950 . S
H177 C206 0.950 . S
H178 C208 0.950 . S
H179 C209 0.950 1_455 S
C180 H162 0.951 . S
C180 C181 1.366 . S
C180 C182 1.388 . S
C181 C180 1.366 . S
C181 C185 1.385 . S
C182 H163 0.951 . S
C182 C180 1.388 . S
C182 C183 1.366 . S
C183 C182 1.366 . S
C183 C184 1.414 . S
C183 C186 1.499 . S
C184 H164 0.950 . S
C184 C183 1.414 . S
C184 C185 1.374 . S
C185 H165 0.950 . S
C185 C181 1.385 . S
C185 C184 1.374 . S
C186 C183 1.499 . S
C186 C187 1.373 . S
C186 C188 1.389 . S
C187 H166 0.958 . S
C187 C186 1.373 . S
C187 C203 1.377 . S
C188 C186 1.389 . S
C188 C189 1.524 . S
C188 C202 1.377 . S
C189 C188 1.524 . S
C189 C190 1.397 . S
C189 C194 1.363 . S
C190 H167 0.950 . S
C190 C189 1.397 . S
C190 C191 1.334 . S
C191 H168 0.950 . S
C191 C190 1.334 . S
C191 C192 1.287 . S
C192 C191 1.287 . S
C192 C193 1.524 . S
C192 H211 0.913 . S
C193 H169 0.950 . S
C193 C192 1.524 . S
C193 C194 1.415 . S
C194 H170 0.950 . S
C194 C189 1.363 . S
C194 C193 1.415 . S
C195 H171 0.951 . S
C195 C196 1.366 . S
C195 C197 1.388 . S
C196 C195 1.366 . S
C196 C200 1.385 . S
C197 H172 0.951 . S
C197 C195 1.388 . S
C197 C198 1.366 . S
C198 C197 1.366 . S
C198 C199 1.414 . S
C198 C201 1.499 . S
C199 H173 0.950 . S
C199 C198 1.414 . S
C199 C200 1.374 . S
C200 H174 0.950 . S
C200 C196 1.385 . S
C200 C199 1.374 . S
C201 C198 1.499 . S
C201 C202 1.373 . S
C201 C203 1.389 . S
C202 H175 0.950 . S
C202 C188 1.377 . S
C202 C201 1.373 . S
C203 C187 1.377 . S
C203 C201 1.389 . S
C203 C204 1.524 1_455 S
C204 C203 1.524 1_655 S
C204 C205 1.397 . S
C204 C209 1.363 . S
C205 H176 0.950 . S
C205 C204 1.397 . S
C205 C206 1.334 . S
C206 H177 0.950 . S
C206 C205 1.334 . S
C206 C207 1.287 . S
C207 C206 1.287 . S
C207 C208 1.524 . S
C207 H210 0.999 . S
C208 H178 0.950 . S
C208 C207 1.524 . S
C208 C209 1.415 . S
C209 H179 0.950 1_655 S
C209 C204 1.363 . S
C209 C208 1.415 . S
H210 C207 0.999 . S
H211 C192 0.913 . S
H212 C230 0.951 . S
H213 C232 0.951 . S
H214 C234 0.950 . S
H215 C235 0.950 . S
H216 C237 0.950 . S
H217 C240 0.950 . S
H218 C241 0.950 . S
H219 C243 0.950 . S
H220 C244 0.950 . S
H221 C245 0.951 . S
H222 C247 0.951 . S
H223 C249 0.950 . S
H224 C250 0.950 . S
H225 C252 0.950 . S
H226 C255 0.950 . S
H227 C256 0.950 . S
H228 C258 0.950 . S
H229 C259 0.950 . S
C230 H212 0.951 . S
C230 C231 1.366 . S
C230 C232 1.388 . S
C231 C230 1.366 . S
C231 C235 1.385 . S
C232 H213 0.951 . S
C232 C230 1.388 . S
C232 C233 1.366 . S
C233 C232 1.366 . S
C233 C234 1.414 . S
C233 C236 1.499 . S
C234 H214 0.950 . S
C234 C233 1.414 . S
C234 C235 1.374 . S
C235 H215 0.950 . S
C235 C231 1.385 . S
C235 C234 1.374 . S
C236 C233 1.499 . S
C236 C237 1.373 . S
C236 C238 1.389 . S
C237 H216 0.950 . S
C237 C236 1.373 . S
C237 C253 1.377 . S
C238 C236 1.389 . S
C238 C239 1.524 . S
C238 C252 1.377 . S
C239 C238 1.524 . S
C239 C240 1.397 . S
C239 C244 1.363 . S
C240 H217 0.950 . S
C240 C239 1.397 . S
C240 C241 1.334 . S
C241 H218 0.950 . S
C241 C240 1.334 . S
C241 C242 1.287 . S
C242 C241 1.287 . S
C242 C243 1.524 . S
C242 H261 0.913 . S
C243 H219 0.950 . S
C243 C242 1.524 . S
C243 C244 1.415 . S
C244 H220 0.950 . S
C244 C239 1.363 . S
C244 C243 1.415 . S
C245 H221 0.951 . S
C245 C246 1.366 . S
C245 C247 1.388 . S
C246 C245 1.366 . S
C246 C250 1.385 . S
C247 H222 0.951 . S
C247 C245 1.388 . S
C247 C248 1.366 . S
C248 C247 1.366 . S
C248 C249 1.414 . S
C248 C251 1.499 . S
C249 H223 0.950 . S
C249 C248 1.414 . S
C249 C250 1.374 . S
C250 H224 0.950 . S
C250 C246 1.385 . S
C250 C249 1.374 . S
C251 C248 1.499 . S
C251 C252 1.373 . S
C251 C253 1.389 . S
C252 H225 0.950 . S
C252 C238 1.377 . S
C252 C251 1.373 . S
C253 C237 1.377 . S
C253 C251 1.389 . S
C253 C254 1.524 . S
C254 C253 1.524 . S
C254 C255 1.397 . S
C254 C259 1.363 . S
C255 H226 0.950 . S
C255 C254 1.397 . S
C255 C256 1.334 . S
C256 H227 0.950 . S
C256 C255 1.334 . S
C256 C257 1.287 . S
C257 C256 1.287 . S
C257 C258 1.524 . S
C257 H260 0.999 . S
C258 H228 0.950 . S
C258 C257 1.524 . S
C258 C259 1.415 . S
C259 H229 0.950 . S
C259 C254 1.363 . S
C259 C258 1.415 . S
H260 C257 0.999 . S
H261 C242 0.913 . S
H262 C280 0.951 . S
H263 C282 0.951 . S
H264 C284 0.950 . S
H265 C285 0.950 . S
H266 C287 0.950 . S
H267 C290 0.950 . S
H268 C291 0.950 . S
H269 C293 0.950 . S
H270 C294 0.950 . S
H271 C295 0.951 . S
H272 C297 0.951 . S
H273 C299 0.950 . S
H274 C300 0.950 . S
H275 C302 0.950 . S
H276 C305 0.950 . S
H277 C306 0.950 . S
H278 C308 0.950 . S
H279 C309 0.950 . S
C280 H262 0.951 . S
C280 C281 1.366 . S
C280 C282 1.388 . S
C281 C280 1.366 . S
C281 C285 1.385 . S
C282 H263 0.951 . S
C282 C280 1.388 . S
C282 C283 1.366 . S
C283 C282 1.366 . S
C283 C284 1.414 . S
C283 C286 1.499 . S
C284 H264 0.950 . S
C284 C283 1.414 . S
C284 C285 1.374 . S
C285 H265 0.950 . S
C285 C281 1.385 . S
C285 C284 1.374 . S
C286 C283 1.499 . S
C286 C287 1.373 . S
C286 C288 1.389 . S
C287 H266 0.950 . S
C287 C286 1.373 . S
C287 C303 1.377 . S
C288 C286 1.389 . S
C288 C289 1.524 . S
C288 C302 1.377 . S
C289 C288 1.524 . S
C289 C290 1.397 . S
C289 C294 1.363 . S
C290 H267 0.950 . S
C290 C289 1.397 . S
C290 C291 1.334 . S
C291 H268 0.950 . S
C291 C290 1.334 . S
C291 C292 1.287 . S
C292 C291 1.287 . S
C292 C293 1.524 . S
C292 H311 0.913 . S
C293 H269 0.950 . S
C293 C292 1.524 . S
C293 C294 1.415 . S
C294 H270 0.950 . S
C294 C289 1.363 . S
C294 C293 1.415 . S
C295 H271 0.951 . S
C295 C296 1.366 . S
C295 C297 1.388 . S
C296 C295 1.366 . S
C296 C300 1.385 . S
C297 H272 0.951 . S
C297 C295 1.388 . S
C297 C298 1.366 . S
C298 C297 1.366 . S
C298 C299 1.414 . S
C298 C301 1.499 . S
C299 H273 0.950 . S
C299 C298 1.414 . S
C299 C300 1.374 . S
C300 H274 0.950 . S
C300 C296 1.385 . S
C300 C299 1.374 . S
C301 C298 1.499 . S
C301 C302 1.373 . S
C301 C303 1.389 . S
C302 H275 0.950 . S
C302 C288 1.377 . S
C302 C301 1.373 . S
C303 C287 1.377 . S
C303 C301 1.389 . S
C303 C304 1.524 . S
C304 C303 1.524 . S
C304 C305 1.397 . S
C304 C309 1.363 . S
C305 H276 0.950 . S
C305 C304 1.397 . S
C305 C306 1.334 . S
C306 H277 0.950 . S
C306 C305 1.334 . S
C306 C307 1.287 . S
C307 C306 1.287 . S
C307 C308 1.524 . S
C307 H310 0.999 . S
C308 H278 0.950 . S
C308 C307 1.524 . S
C308 C309 1.415 . S
C309 H279 0.950 . S
C309 C304 1.363 . S
C309 C308 1.415 . S
H310 C307 0.999 . S
H311 C292 0.913 . S
H312 C330 0.951 . S
H313 C332 0.951 . S
H314 C334 0.950 . S
H315 C335 0.950 . S
H316 C337 0.950 . S
H317 C340 0.950 . S
H318 C341 0.950 . S
H319 C343 0.950 . S
H320 C344 0.950 . S
H321 C345 0.951 . S
H322 C347 0.951 . S
H323 C349 0.950 . S
H324 C350 0.950 . S
H325 C352 0.950 . S
H326 C355 0.950 . S
H327 C356 0.950 . S
H328 C358 0.950 . S
H329 C359 0.950 . S
C330 H312 0.951 . S
C330 C331 1.366 . S
C330 C332 1.388 . S
C331 C330 1.366 . S
C331 C335 1.385 . S
C332 H313 0.951 . S
C332 C330 1.388 . S
C332 C333 1.366 . S
C333 C332 1.366 . S
C333 C334 1.414 . S
C333 C336 1.499 . S
C334 H314 0.950 . S
C334 C333 1.414 . S
C334 C335 1.374 . S
C335 H315 0.950 . S
C335 C331 1.385 . S
C335 C334 1.374 . S
C336 C333 1.499 . S
C336 C337 1.373 . S
C336 C338 1.389 . S
C337 H316 0.950 . S
C337 C336 1.373 . S
C337 C353 1.377 . S
C338 C336 1.389 . S
C338 C339 1.524 . S
C338 C352 1.377 . S
C339 C338 1.524 . S
C339 C340 1.397 . S
C339 C344 1.363 . S
C340 H317 0.950 . S
C340 C339 1.397 . S
C340 C341 1.334 . S
C341 H318 0.950 . S
C341 C340 1.334 . S
C341 C342 1.287 . S
C342 C341 1.287 . S
C342 C343 1.524 . S
C342 H361 0.913 . S
C343 H319 0.950 . S
C343 C342 1.524 . S
C343 C344 1.415 . S
C344 H320 0.950 . S
C344 C339 1.363 . S
C344 C343 1.415 . S
C345 H321 0.951 . S
C345 C346 1.366 . S
C345 C347 1.388 . S
C346 C345 1.366 . S
C346 C350 1.385 . S
C347 H322 0.951 . S
C347 C345 1.388 . S
C347 C348 1.366 . S
C348 C347 1.366 . S
C348 C349 1.414 . S
C348 C351 1.499 . S
C349 H323 0.950 . S
C349 C348 1.414 . S
C349 C350 1.374 . S
C350 H324 0.950 . S
C350 C346 1.385 . S
C350 C349 1.374 . S
C351 C348 1.499 . S
C351 C352 1.373 . S
C351 C353 1.389 . S
C352 H325 0.950 . S
C352 C338 1.377 . S
C352 C351 1.373 . S
C353 C337 1.377 . S
C353 C351 1.389 . S
C353 C354 1.524 . S
C354 C353 1.524 . S
C354 C355 1.397 . S
C354 C359 1.363 . S
C355 H326 0.950 . S
C355 C354 1.397 . S
C355 C356 1.334 . S
C356 H327 0.950 . S
C356 C355 1.334 . S
C356 C357 1.287 . S
C357 C356 1.287 . S
C357 C358 1.524 . S
C357 H360 0.999 . S
C358 H328 0.950 . S
C358 C357 1.524 . S
C358 C359 1.415 . S
C359 H329 0.950 . S
C359 C354 1.363 . S
C359 C358 1.415 . S
H360 C357 0.999 . S
H361 C342 0.913 . S
H362 C380 0.951 . S
H363 C382 0.951 . S
H364 C384 0.950 . S
H365 C385 0.950 . S
H366 C387 0.950 . S
H367 C390 0.950 . S
H368 C391 0.950 . S
H369 C393 0.950 . S
H370 C394 0.950 . S
H371 C395 0.951 . S
H372 C397 0.951 . S
H373 C399 0.950 . S
H374 C400 0.950 . S
H375 C402 0.950 . S
H376 C405 0.950 . S
H377 C406 0.950 . S
H378 C408 0.950 . S
H379 C409 0.950 . S
C380 H362 0.951 . S
C380 C381 1.366 . S
C380 C382 1.388 . S
C381 C380 1.366 . S
C381 C385 1.385 . S
C382 H363 0.951 . S
C382 C380 1.388 . S
C382 C383 1.366 . S
C383 C382 1.366 . S
C383 C384 1.414 . S
C383 C386 1.499 . S
C384 H364 0.950 . S
C384 C383 1.414 . S
C384 C385 1.374 . S
C385 H365 0.950 . S
C385 C381 1.385 . S
C385 C384 1.374 . S
C386 C383 1.499 . S
C386 C387 1.373 . S
C386 C388 1.389 . S
C387 H366 0.950 . S
C387 C386 1.373 . S
C387 C403 1.377 . S
C388 C386 1.389 . S
C388 C389 1.524 . S
C388 C402 1.377 . S
C389 C388 1.524 . S
C389 C390 1.397 . S
C389 C394 1.363 . S
C390 H367 0.950 . S
C390 C389 1.397 . S
C390 C391 1.334 . S
C391 H368 0.950 . S
C391 C390 1.334 . S
C391 C392 1.287 . S
C392 C391 1.287 . S
C392 C393 1.524 . S
C392 H411 0.913 . S
C393 H369 0.950 . S
C393 C392 1.524 . S
C393 C394 1.415 . S
C394 H370 0.950 . S
C394 C389 1.363 . S
C394 C393 1.415 . S
C395 H371 0.951 . S
C395 C396 1.366 . S
C395 C397 1.388 . S
C396 C395 1.366 . S
C396 C400 1.385 . S
C397 H372 0.951 . S
C397 C395 1.388 . S
C397 C398 1.366 . S
C398 C397 1.366 . S
C398 C399 1.414 . S
C398 C401 1.499 . S
C399 H373 0.950 . S
C399 C398 1.414 . S
C399 C400 1.374 . S
C400 H374 0.950 . S
C400 C396 1.385 . S
C400 C399 1.374 . S
C401 C398 1.499 . S
C401 C402 1.373 . S
C401 C403 1.389 . S
C402 H375 0.950 . S
C402 C388 1.377 . S
C402 C401 1.373 . S
C403 C387 1.377 . S
C403 C401 1.389 . S
C403 C404 1.524 . S
C404 C403 1.524 . S
C404 C405 1.397 . S
C404 C409 1.363 . S
C405 H376 0.950 . S
C405 C404 1.397 . S
C405 C406 1.334 . S
C406 H377 0.950 . S
C406 C405 1.334 . S
C406 C407 1.287 . S
C407 C406 1.287 . S
C407 C408 1.524 . S
C407 H410 0.999 . S
C408 H378 0.950 . S
C408 C407 1.524 . S
C408 C409 1.415 . S
C409 H379 0.950 . S
C409 C404 1.363 . S
C409 C408 1.415 . S
H410 C407 0.999 . S
H411 C392 0.913 . S
H412 C430 0.951 . S
H413 C432 0.951 . S
H414 C434 0.950 . S
H415 C435 0.950 . S
H416 C437 0.950 . S
H417 C440 0.950 . S
H418 C441 0.950 . S
H419 C443 0.950 . S
H420 C444 0.950 . S
H421 C445 0.951 . S
H422 C447 0.951 . S
H423 C449 0.950 . S
H424 C450 0.950 . S
H425 C452 0.950 . S
H426 C455 0.950 . S
H427 C456 0.950 . S
H428 C458 0.950 . S
H429 C459 0.950 . S
C430 H412 0.951 . S
C430 C431 1.366 . S
C430 C432 1.388 . S
C431 C430 1.366 . S
C431 C435 1.385 . S
C432 H413 0.951 . S
C432 C430 1.388 . S
C432 C433 1.366 . S
C433 C432 1.366 . S
C433 C434 1.414 . S
C433 C436 1.499 . S
C434 H414 0.950 . S
C434 C433 1.414 . S
C434 C435 1.374 . S
C435 H415 0.950 . S
C435 C431 1.385 . S
C435 C434 1.374 . S
C436 C433 1.499 . S
C436 C437 1.373 . S
C436 C438 1.389 . S
C437 H416 0.950 . S
C437 C436 1.373 . S
C437 C453 1.377 . S
C438 C436 1.389 . S
C438 C439 1.524 . S
C438 C452 1.377 . S
C439 C438 1.524 . S
C439 C440 1.397 . S
C439 C444 1.363 . S
C440 H417 0.950 . S
C440 C439 1.397 . S
C440 C441 1.334 . S
C441 H418 0.950 . S
C441 C440 1.334 . S
C441 C442 1.287 . S
C442 C441 1.287 . S
C442 C443 1.524 . S
C442 H461 0.913 . S
C443 H419 0.950 . S
C443 C442 1.524 . S
C443 C444 1.415 . S
C444 H420 0.950 . S
C444 C439 1.363 . S
C444 C443 1.415 . S
C445 H421 0.951 . S
C445 C446 1.366 . S
C445 C447 1.388 . S
C446 C445 1.366 . S
C446 C450 1.385 . S
C447 H422 0.951 . S
C447 C445 1.388 . S
C447 C448 1.366 . S
C448 C447 1.366 . S
C448 C449 1.414 . S
C448 C451 1.499 . S
C449 H423 0.950 . S
C449 C448 1.414 . S
C449 C450 1.374 . S
C450 H424 0.950 . S
C450 C446 1.385 . S
C450 C449 1.374 . S
C451 C448 1.499 . S
C451 C452 1.373 . S
C451 C453 1.389 . S
C452 H425 0.950 . S
C452 C438 1.377 . S
C452 C451 1.373 . S
C453 C437 1.377 . S
C453 C451 1.389 . S
C453 C454 1.524 . S
C454 C453 1.524 . S
C454 C455 1.397 . S
C454 C459 1.363 . S
C455 H426 0.950 . S
C455 C454 1.397 . S
C455 C456 1.334 . S
C456 H427 0.950 . S
C456 C455 1.334 . S
C456 C457 1.287 . S
C457 C456 1.287 . S
C457 C458 1.524 . S
C457 H460 0.999 . S
C458 H428 0.950 . S
C458 C457 1.524 . S
C458 C459 1.415 . S
C459 H429 0.950 . S
C459 C454 1.363 . S
C459 C458 1.415 . S
H460 C457 0.999 . S
H461 C442 0.913 . S
H462 C480 0.951 . S
H463 C482 0.951 . S
H464 C484 0.950 . S
H465 C485 0.950 . S
H466 C487 0.950 . S
H467 C490 0.950 . S
H468 C491 0.950 . S
H469 C493 0.950 . S
H470 C494 0.950 . S
H471 C495 0.951 . S
H472 C497 0.951 . S
H473 C499 0.950 . S
H474 C500 0.950 . S
H475 C502 0.950 . S
H476 C505 0.950 . S
H477 C506 0.950 . S
H478 C508 0.950 . S
H479 C509 0.950 . S
C480 H462 0.951 . S
C480 C481 1.366 . S
C480 C482 1.388 . S
C481 C480 1.366 . S
C481 C485 1.385 . S
C482 H463 0.951 . S
C482 C480 1.388 . S
C482 C483 1.366 . S
C483 C482 1.366 . S
C483 C484 1.414 . S
C483 C486 1.499 . S
C484 H464 0.950 . S
C484 C483 1.414 . S
C484 C485 1.374 . S
C485 H465 0.950 . S
C485 C481 1.385 . S
C485 C484 1.374 . S
C486 C483 1.499 . S
C486 C487 1.373 . S
C486 C488 1.389 . S
C487 H466 0.950 . S
C487 C486 1.373 . S
C487 C503 1.377 . S
C488 C486 1.389 . S
C488 C489 1.524 . S
C488 C502 1.377 . S
C489 C488 1.524 . S
C489 C490 1.397 . S
C489 C494 1.363 . S
C490 H467 0.950 . S
C490 C489 1.397 . S
C490 C491 1.334 . S
C491 H468 0.950 . S
C491 C490 1.334 . S
C491 C492 1.287 . S
C492 C491 1.287 . S
C492 C493 1.524 . S
C492 H511 0.913 . S
C493 H469 0.950 . S
C493 C492 1.524 . S
C493 C494 1.415 . S
C494 H470 0.950 . S
C494 C489 1.363 . S
C494 C493 1.415 . S
C495 H471 0.951 . S
C495 C496 1.366 . S
C495 C497 1.388 . S
C496 C495 1.366 . S
C496 C500 1.385 . S
C497 H472 0.951 . S
C497 C495 1.388 . S
C497 C498 1.366 . S
C498 C497 1.366 . S
C498 C499 1.414 . S
C498 C501 1.499 . S
C499 H473 0.950 . S
C499 C498 1.414 . S
C499 C500 1.374 . S
C500 H474 0.950 . S
C500 C496 1.385 . S
C500 C499 1.374 . S
C501 C498 1.499 . S
C501 C502 1.373 . S
C501 C503 1.389 . S
C502 H475 0.950 . S
C502 C488 1.377 . S
C502 C501 1.373 . S
C503 C487 1.377 . S
C503 C501 1.389 . S
C503 C504 1.524 . S
C504 C503 1.524 . S
C504 C505 1.397 . S
C504 C509 1.363 . S
C505 H476 0.950 . S
C505 C504 1.397 . S
C505 C506 1.334 . S
C506 H477 0.950 . S
C506 C505 1.334 . S
C506 C507 1.287 . S
C507 C506 1.287 . S
C507 C508 1.524 . S
C507 H510 0.999 . S
C508 H478 0.950 . S
C508 C507 1.524 . S
C508 C509 1.415 . S
C509 H479 0.950 . S
C509 C504 1.363 . S
C509 C508 1.415 . S
H510 C507 0.999 . S
H511 C492 0.913 . S
H512 C530 0.951 . S
H513 C532 0.951 . S
H514 C534 0.950 . S
H515 C535 0.950 . S
H516 C537 0.950 . S
H517 C540 0.950 . S
H518 C541 0.950 . S
H519 C543 0.950 . S
H520 C544 0.950 . S
H521 C545 0.951 . S
H522 C547 0.951 . S
H523 C549 0.950 . S
H524 C550 0.950 . S
H525 C552 0.950 . S
H526 C555 0.950 . S
H527 C556 0.950 . S
H528 C558 0.950 . S
H529 C559 0.950 . S
C530 H512 0.951 . S
C530 C531 1.366 . S
C530 C532 1.388 . S
C531 C530 1.366 . S
C531 C535 1.385 . S
C532 H513 0.951 . S
C532 C530 1.388 . S
C532 C533 1.366 . S
C533 C532 1.366 . S
C533 C534 1.414 . S
C533 C536 1.499 . S
C534 H514 0.950 . S
C534 C533 1.414 . S
C534 C535 1.374 . S
C535 H515 0.950 . S
C535 C531 1.385 . S
C535 C534 1.374 . S
C536 C533 1.499 . S
C536 C537 1.373 . S
C536 C538 1.389 . S
C537 H516 0.950 . S
C537 C536 1.373 . S
C537 C553 1.377 . S
C538 C536 1.389 . S
C538 C539 1.524 . S
C538 C552 1.377 . S
C539 C538 1.524 . S
C539 C540 1.397 . S
C539 C544 1.363 . S
C540 H517 0.950 . S
C540 C539 1.397 . S
C540 C541 1.334 . S
C541 H518 0.950 . S
C541 C540 1.334 . S
C541 C542 1.287 . S
C542 C541 1.287 . S
C542 C543 1.524 . S
C542 H561 0.913 . S
C543 H519 0.950 . S
C543 C542 1.524 . S
C543 C544 1.415 . S
C544 H520 0.950 . S
C544 C539 1.363 . S
C544 C543 1.415 . S
C545 H521 0.951 . S
C545 C546 1.366 . S
C545 C547 1.388 . S
C546 C545 1.366 . S
C546 C550 1.385 . S
C547 H522 0.951 . S
C547 C545 1.388 . S
C547 C548 1.366 . S
C548 C547 1.366 . S
C548 C549 1.414 . S
C548 C551 1.499 . S
C549 H523 0.950 . S
C549 C548 1.414 . S
C549 C550 1.374 . S
C550 H524 0.950 . S
C550 C546 1.385 . S
C550 C549 1.374 . S
C551 C548 1.499 . S
C551 C552 1.373 . S
C551 C553 1.389 . S
C552 H525 0.950 . S
C552 C538 1.377 . S
C552 C551 1.373 . S
C553 C537 1.377 . S
C553 C551 1.389 . S
C553 C554 1.524 . S
C554 C553 1.524 . S
C554 C555 1.397 . S
C554 C559 1.363 . S
C555 H526 0.950 . S
C555 C554 1.397 . S
C555 C556 1.334 . S
C556 H527 0.950 . S
C556 C555 1.334 . S
C556 C557 1.287 . S
C557 C556 1.287 . S
C557 C558 1.524 . S
C557 H560 0.999 . S
C558 H528 0.950 . S
C558 C557 1.524 . S
C558 C559 1.415 . S
C559 H529 0.950 . S
C559 C554 1.363 . S
C559 C558 1.415 . S
H560 C557 0.999 . S
H561 C542 0.913 . S
H562 C580 0.951 . S
H563 C582 0.951 . S
H564 C584 0.950 . S
H565 C585 0.950 . S
H566 C587 0.950 . S
H567 C590 0.950 . S
H568 C591 0.950 . S
H569 C593 0.950 . S
H570 C594 0.950 . S
H571 C595 0.951 . S
H572 C597 0.951 . S
H573 C599 0.950 . S
H574 C600 0.950 . S
H575 C602 0.950 . S
H576 C605 0.950 . S
H577 C606 0.950 . S
H578 C608 0.950 . S
H579 C609 0.950 . S
C580 H562 0.951 . S
C580 C581 1.366 . S
C580 C582 1.388 . S
C581 C580 1.366 . S
C581 C585 1.385 . S
C582 H563 0.951 . S
C582 C580 1.388 . S
C582 C583 1.366 . S
C583 C582 1.366 . S
C583 C584 1.414 . S
C583 C586 1.499 . S
C584 H564 0.950 . S
C584 C583 1.414 . S
C584 C585 1.374 . S
C585 H565 0.950 . S
C585 C581 1.385 . S
C585 C584 1.374 . S
C586 C583 1.499 . S
C586 C587 1.373 . S
C586 C588 1.389 . S
C587 H566 0.950 . S
C587 C586 1.373 . S
C587 C603 1.377 . S
C588 C586 1.389 . S
C588 C589 1.524 . S
C588 C602 1.377 . S
C589 C588 1.524 . S
C589 C590 1.397 . S
C589 C594 1.363 . S
C590 H567 0.950 . S
C590 C589 1.397 . S
C590 C591 1.334 . S
C591 H568 0.950 . S
C591 C590 1.334 . S
C591 C592 1.287 . S
C592 C591 1.287 . S
C592 C593 1.524 . S
C592 H611 0.913 . S
C593 H569 0.950 . S
C593 C592 1.524 . S
C593 C594 1.415 . S
C594 H570 0.950 . S
C594 C589 1.363 . S
C594 C593 1.415 . S
C595 H571 0.951 . S
C595 C596 1.366 . S
C595 C597 1.388 . S
C596 C595 1.366 . S
C596 C600 1.385 . S
C597 H572 0.951 . S
C597 C595 1.388 . S
C597 C598 1.366 . S
C598 C597 1.366 . S
C598 C599 1.414 . S
C598 C601 1.499 . S
C599 H573 0.950 . S
C599 C598 1.414 . S
C599 C600 1.374 . S
C600 H574 0.950 . S
C600 C596 1.385 . S
C600 C599 1.374 . S
C601 C598 1.499 . S
C601 C602 1.373 . S
C601 C603 1.389 . S
C602 H575 0.950 . S
C602 C588 1.377 . S
C602 C601 1.373 . S
C603 C587 1.377 . S
C603 C601 1.389 . S
C603 C604 1.524 . S
C604 C603 1.524 . S
C604 C605 1.397 . S
C604 C609 1.363 . S
C605 H576 0.950 . S
C605 C604 1.397 . S
C605 C606 1.334 . S
C606 H577 0.950 . S
C606 C605 1.334 . S
C606 C607 1.287 . S
C607 C606 1.287 . S
C607 C608 1.524 . S
C607 H610 0.999 . S
C608 H578 0.950 . S
C608 C607 1.524 . S
C608 C609 1.415 . S
C609 H579 0.950 . S
C609 C604 1.363 . S
C609 C608 1.415 . S
H610 C607 0.999 . S
H611 C592 0.913 . S
H612 C630 0.951 . S
H613 C632 0.951 . S
H614 C634 0.950 . S
H615 C635 0.950 . S
H616 C637 0.950 . S
H617 C640 0.950 . S
H618 C641 0.950 . S
H619 C643 0.950 . S
H620 C644 0.950 . S
H621 C645 0.951 . S
H622 C647 0.951 . S
H623 C649 0.950 . S
H624 C650 0.950 . S
H625 C652 0.950 . S
H626 C655 0.950 . S
H627 C656 0.950 . S
H628 C658 0.950 . S
H629 C659 0.950 . S
C630 H612 0.951 . S
C630 C631 1.366 . S
C630 C632 1.388 . S
C631 C630 1.366 . S
C631 C635 1.385 . S
C632 H613 0.951 . S
C632 C630 1.388 . S
C632 C633 1.366 . S
C633 C632 1.366 . S
C633 C634 1.414 . S
C633 C636 1.499 . S
C634 H614 0.950 . S
C634 C633 1.414 . S
C634 C635 1.374 . S
C635 H615 0.950 . S
C635 C631 1.385 . S
C635 C634 1.374 . S
C636 C633 1.499 . S
C636 C637 1.373 . S
C636 C638 1.389 . S
C637 H616 0.950 . S
C637 C636 1.373 . S
C637 C653 1.377 . S
C638 C636 1.389 . S
C638 C639 1.524 . S
C638 C652 1.377 . S
C639 C638 1.524 . S
C639 C640 1.397 . S
C639 C644 1.363 . S
C640 H617 0.950 . S
C640 C639 1.397 . S
C640 C641 1.334 . S
C641 H618 0.950 . S
C641 C640 1.334 . S
C641 C642 1.287 . S
C642 C641 1.287 . S
C642 C643 1.524 . S
C642 H661 0.913 . S
C643 H619 0.950 . S
C643 C642 1.524 . S
C643 C644 1.415 . S
C644 H620 0.950 . S
C644 C639 1.363 . S
C644 C643 1.415 . S
C645 H621 0.951 . S
C645 C646 1.366 . S
C645 C647 1.388 . S
C646 C645 1.366 . S
C646 C650 1.385 . S
C647 H622 0.951 . S
C647 C645 1.388 . S
C647 C648 1.366 . S
C648 C647 1.366 . S
C648 C649 1.414 . S
C648 C651 1.499 . S
C649 H623 0.950 . S
C649 C648 1.414 . S
C649 C650 1.374 . S
C650 H624 0.950 . S
C650 C646 1.385 . S
C650 C649 1.374 . S
C651 C648 1.499 . S
C651 C652 1.373 . S
C651 C653 1.389 . S
C652 H625 0.950 . S
C652 C638 1.377 . S
C652 C651 1.373 . S
C653 C637 1.377 . S
C653 C651 1.389 . S
C653 C654 1.524 . S
C654 C653 1.524 . S
C654 C655 1.397 . S
C654 C659 1.363 . S
C655 H626 0.950 . S
C655 C654 1.397 . S
C655 C656 1.334 . S
C656 H627 0.950 . S
C656 C655 1.334 . S
C656 C657 1.287 . S
C657 C656 1.287 . S
C657 C658 1.524 . S
C657 H660 0.999 . S
C658 H628 0.950 . S
C658 C657 1.524 . S
C658 C659 1.415 . S
C659 H629 0.950 . S
C659 C654 1.363 . S
C659 C658 1.415 . S
H660 C657 0.999 . S
H661 C642 0.913 . S
H662 C680 0.951 . S
H663 C682 0.951 . S
H664 C684 0.950 . S
H665 C685 0.950 . S
H666 C687 0.950 . S
H667 C690 0.950 . S
H668 C691 0.950 . S
H669 C693 0.950 . S
H670 C694 0.950 . S
H671 C695 0.951 . S
H672 C697 0.951 . S
H673 C699 0.950 . S
H674 C700 0.950 . S
H675 C702 0.950 . S
H676 C705 0.950 . S
H677 C706 0.950 . S
H678 C708 0.950 . S
H679 C709 0.950 . S
C680 H662 0.951 . S
C680 C681 1.366 . S
C680 C682 1.388 . S
C681 C680 1.366 . S
C681 C685 1.385 . S
C682 H663 0.951 . S
C682 C680 1.388 . S
C682 C683 1.366 . S
C683 C682 1.366 . S
C683 C684 1.414 . S
C683 C686 1.499 . S
C684 H664 0.950 . S
C684 C683 1.414 . S
C684 C685 1.374 . S
C685 H665 0.950 . S
C685 C681 1.385 . S
C685 C684 1.374 . S
C686 C683 1.499 . S
C686 C687 1.373 . S
C686 C688 1.389 . S
C687 H666 0.950 . S
C687 C686 1.373 . S
C687 C703 1.377 . S
C688 C686 1.389 . S
C688 C689 1.524 . S
C688 C702 1.377 . S
C689 C688 1.524 . S
C689 C690 1.397 . S
C689 C694 1.363 . S
C690 H667 0.950 . S
C690 C689 1.397 . S
C690 C691 1.334 . S
C691 H668 0.950 . S
C691 C690 1.334 . S
C691 C692 1.287 . S
C692 C691 1.287 . S
C692 C693 1.524 . S
C692 H711 0.913 . S
C693 H669 0.950 . S
C693 C692 1.524 . S
C693 C694 1.415 . S
C694 H670 0.950 . S
C694 C689 1.363 . S
C694 C693 1.415 . S
C695 H671 0.951 . S
C695 C696 1.366 . S
C695 C697 1.388 . S
C696 C695 1.366 . S
C696 C700 1.385 . S
C697 H672 0.951 . S
C697 C695 1.388 . S
C697 C698 1.366 . S
C698 C697 1.366 . S
C698 C699 1.414 . S
C698 C701 1.499 . S
C699 H673 0.950 . S
C699 C698 1.414 . S
C699 C700 1.374 . S
C700 H674 0.950 . S
C700 C696 1.385 . S
C700 C699 1.374 . S
C701 C698 1.499 . S
C701 C702 1.373 . S
C701 C703 1.389 . S
C702 H675 0.950 . S
C702 C688 1.377 . S
C702 C701 1.373 . S
C703 C687 1.377 . S
C703 C701 1.389 . S
C703 C704 1.524 . S
C704 C703 1.524 . S
C704 C705 1.397 . S
C704 C709 1.363 . S
C705 H676 0.950 . S
C705 C704 1.397 . S
C705 C706 1.334 . S
C706 H677 0.950 . S
C706 C705 1.334 . S
C706 C707 1.287 . S
C707 C706 1.287 . S
C707 C708 1.524 . S
C707 H710 0.999 . S
C708 H678 0.950 . S
C708 C707 1.524 . S
C708 C709 1.415 . S
C709 H679 0.950 . S
C709 C704 1.363 . S
C709 C708 1.415 . S
H710 C707 0.999 . S
H711 C692 0.913 . S
H712 C730 0.951 . S
H713 C732 0.951 . S
H714 C734 0.949 1_655 S
H715 C735 0.946 1_655 S
H716 C737 0.950 . S
H717 C740 0.950 . S
H718 C741 0.950 . S
H719 C743 0.950 . S
H720 C744 0.950 . S
H721 C745 0.951 1_655 S
H722 C747 0.948 1_655 S
H723 C749 0.950 . S
H724 C750 0.950 . S
H725 C752 0.950 . S
H726 C755 0.950 . S
H727 C756 0.950 . S
H728 C758 0.950 . S
H729 C759 0.950 . S
C730 H712 0.951 . S
C730 C731 1.366 . S
C730 C732 1.388 . S
C731 C730 1.366 . S
C731 C735 1.390 . S
C732 H713 0.951 . S
C732 C730 1.388 . S
C732 C733 1.366 . S
C733 C732 1.366 . S
C733 C734 1.415 . S
C733 C736 1.499 . S
C734 H714 0.949 1_455 S
C734 C733 1.415 . S
C734 C735 1.374 . S
C735 H715 0.946 1_455 S
C735 C731 1.390 . S
C735 C734 1.374 . S
C736 C733 1.499 . S
C736 C737 1.373 1_545 S
C736 C738 1.389 1_454 S
C737 H716 0.950 . S
C737 C736 1.373 1_565 S
C737 C753 1.377 . S
C738 C736 1.389 1_656 S
C738 C739 1.524 . S
C738 C752 1.377 . S
C739 C738 1.524 . S
C739 C740 1.397 1_556 S
C739 C744 1.363 . S
C740 H717 0.950 . S
C740 C739 1.397 1_554 S
C740 C741 1.334 . S
C741 H718 0.950 . S
C741 C740 1.334 . S
C741 C742 1.287 1_554 S
C742 C741 1.287 1_556 S
C742 C743 1.524 . S
C742 H761 0.913 . S
C743 H719 0.950 . S
C743 C742 1.524 . S
C743 C744 1.415 . S
C744 H720 0.950 . S
C744 C739 1.363 . S
C744 C743 1.415 . S
C745 H721 0.951 1_455 S
C745 C746 1.366 . S
C745 C747 1.388 . S
C746 C745 1.366 . S
C746 C750 1.385 . S
C747 H722 0.948 1_455 S
C747 C745 1.388 . S
C747 C748 1.366 . S
C748 C747 1.366 . S
C748 C749 1.414 . S
C748 C751 1.499 . S
C749 H723 0.950 . S
C749 C748 1.414 . S
C749 C750 1.374 . S
C750 H724 0.950 . S
C750 C746 1.385 . S
C750 C749 1.374 . S
C751 C748 1.499 . S
C751 C752 1.373 1_465 S
C751 C753 1.389 1_556 S
C752 H725 0.950 . S
C752 C738 1.377 . S
C752 C751 1.373 1_645 S
C753 C737 1.377 . S
C753 C751 1.389 1_554 S
C753 C754 1.524 . S
C754 C753 1.524 . S
C754 C755 1.397 1_554 S
C754 C759 1.363 . S
C755 H726 0.950 . S
C755 C754 1.397 1_556 S
C755 C756 1.334 . S
C756 H727 0.950 . S
C756 C755 1.334 . S
C756 C757 1.287 1_556 S
C757 C756 1.287 1_554 S
C757 C758 1.524 . S
C757 H760 0.999 . S
C758 H728 0.950 . S
C758 C757 1.524 . S
C758 C759 1.415 . S
C759 H729 0.950 . S
C759 C754 1.363 . S
C759 C758 1.415 . S
H760 C757 0.999 . S
H761 C742 0.913 . S
H762 C780 0.951 1_655 S
H763 C782 0.951 1_655 S
H764 C784 0.950 . S
H765 C785 0.950 . S
H766 C787 0.950 . S
H767 C790 0.950 . S
H768 C791 0.950 . S
H769 C793 0.950 . S
H770 C794 0.950 . S
H771 C795 0.951 . S
H772 C797 0.951 . S
H773 C799 0.950 1_655 S
H774 C800 0.950 1_655 S
H775 C802 0.950 . S
H776 C805 0.950 . S
H777 C806 0.950 . S
H778 C808 0.950 . S
H779 C809 0.950 . S
C780 H762 0.951 1_455 S
C780 C781 1.366 . S
C780 C782 1.388 . S
C781 C780 1.366 . S
C781 C785 1.385 . S
C782 H763 0.951 1_455 S
C782 C780 1.388 . S
C782 C783 1.366 . S
C783 C782 1.366 . S
C783 C784 1.414 . S
C783 C786 1.499 . S
C784 H764 0.950 . S
C784 C783 1.414 . S
C784 C785 1.374 . S
C785 H765 0.950 . S
C785 C781 1.385 . S
C785 C784 1.374 . S
C786 C783 1.499 . S
C786 C787 1.373 . S
C786 C788 1.389 1_556 S
C787 H766 0.950 . S
C787 C786 1.373 . S
C787 C803 1.377 . S
C788 C786 1.389 1_554 S
C788 C789 1.524 . S
C788 C802 1.377 . S
C789 C788 1.524 . S
C789 C790 1.397 . S
C789 C794 1.363 1_455 S
C790 H767 0.950 . S
C790 C789 1.397 . S
C790 C791 1.334 . S
C791 H768 0.950 . S
C791 C790 1.334 . S
C791 C792 1.287 1_455 S
C792 C791 1.287 1_655 S
C792 C793 1.524 . S
C792 H811 0.913 . S
C793 H769 0.950 . S
C793 C792 1.524 . S
C793 C794 1.415 . S
C794 H770 0.950 . S
C794 C789 1.363 1_655 S
C794 C793 1.415 . S
C795 H771 0.951 . S
C795 C796 1.366 . S
C795 C797 1.388 . S
C796 C795 1.366 . S
C796 C800 1.385 . S
C797 H772 0.951 . S
C797 C795 1.388 . S
C797 C798 1.366 . S
C798 C797 1.366 . S
C798 C799 1.414 . S
C798 C801 1.499 . S
C799 H773 0.950 1_455 S
C799 C798 1.414 . S
C799 C800 1.374 . S
C800 H774 0.950 1_455 S
C800 C796 1.385 . S
C800 C799 1.374 . S
C801 C798 1.499 . S
C801 C802 1.373 . S
C801 C803 1.389 1_554 S
C802 H775 0.950 . S
C802 C788 1.377 . S
C802 C801 1.373 . S
C803 C787 1.377 . S
C803 C801 1.389 1_556 S
C803 C804 1.524 . S
C804 C803 1.524 . S
C804 C805 1.397 . S
C804 C809 1.363 . S
C805 H776 0.950 . S
C805 C804 1.397 . S
C805 C806 1.334 . S
C806 H777 0.950 . S
C806 C805 1.334 . S
C806 C807 1.287 . S
C807 C806 1.287 . S
C807 C808 1.524 . S
C807 H810 0.999 . S
C808 H778 0.950 . S
C808 C807 1.524 . S
C808 C809 1.415 . S
C809 H779 0.950 . S
C809 C804 1.363 . S
C809 C808 1.415 . S
H810 C807 0.999 . S
H811 C792 0.913 . S
H812 C830 0.951 . S
H813 C832 0.951 . S
H814 C834 0.950 . S
H815 C835 0.950 . S
H816 C837 0.950 . S
H817 C840 0.950 . S
H818 C841 0.950 . S
H819 C843 0.950 . S
H820 C844 0.950 . S
H821 C845 0.951 . S
H822 C847 0.951 . S
H823 C849 0.950 . S
H824 C850 0.950 . S
H825 C852 0.950 . S
H826 C855 0.950 . S
H827 C856 0.950 . S
H828 C858 0.950 . S
H829 C859 0.950 . S
C830 H812 0.951 . S
C830 C831 1.366 . S
C830 C832 1.388 . S
C831 C830 1.366 . S
C831 C835 1.385 . S
C832 H813 0.951 . S
C832 C830 1.388 . S
C832 C833 1.366 . S
C833 C832 1.366 . S
C833 C834 1.414 . S
C833 C836 1.499 . S
C834 H814 0.950 . S
C834 C833 1.414 . S
C834 C835 1.374 . S
C835 H815 0.950 . S
C835 C831 1.385 . S
C835 C834 1.374 . S
C836 C833 1.499 . S
C836 C837 1.373 . S
C836 C838 1.389 . S
C837 H816 0.950 . S
C837 C836 1.373 . S
C837 C853 1.377 . S
C838 C836 1.389 . S
C838 C839 1.524 . S
C838 C852 1.377 . S
C839 C838 1.524 . S
C839 C840 1.397 . S
C839 C844 1.363 . S
C840 H817 0.950 . S
C840 C839 1.397 . S
C840 C841 1.334 . S
C841 H818 0.950 . S
C841 C840 1.334 . S
C841 C842 1.287 . S
C842 C841 1.287 . S
C842 C843 1.524 . S
C842 H861 0.913 . S
C843 H819 0.950 . S
C843 C842 1.524 . S
C843 C844 1.415 . S
C844 H820 0.950 . S
C844 C839 1.363 . S
C844 C843 1.415 . S
C845 H821 0.951 . S
C845 C846 1.366 . S
C845 C847 1.388 . S
C846 C845 1.366 . S
C846 C850 1.385 . S
C847 H822 0.951 . S
C847 C845 1.388 . S
C847 C848 1.366 . S
C848 C847 1.366 . S
C848 C849 1.414 . S
C848 C851 1.499 . S
C849 H823 0.950 . S
C849 C848 1.414 . S
C849 C850 1.374 . S
C850 H824 0.950 . S
C850 C846 1.385 . S
C850 C849 1.374 . S
C851 C848 1.499 . S
C851 C852 1.373 . S
C851 C853 1.389 . S
C852 H825 0.950 . S
C852 C838 1.377 . S
C852 C851 1.373 . S
C853 C837 1.377 . S
C853 C851 1.389 . S
C853 C854 1.524 . S
C854 C853 1.524 . S
C854 C855 1.397 . S
C854 C859 1.363 . S
C855 H826 0.950 . S
C855 C854 1.397 . S
C855 C856 1.334 . S
C856 H827 0.950 . S
C856 C855 1.334 . S
C856 C857 1.287 . S
C857 C856 1.287 . S
C857 C858 1.524 . S
C857 H860 0.999 . S
C858 H828 0.950 . S
C858 C857 1.524 . S
C858 C859 1.415 . S
C859 H829 0.950 . S
C859 C854 1.363 . S
C859 C858 1.415 . S
H860 C857 0.999 . S
H861 C842 0.913 . S
H862 C880 0.951 . S
H863 C882 0.951 . S
H864 C884 0.950 . S
H865 C885 0.950 . S
H866 C887 0.950 . S
H867 C890 0.950 . S
H868 C891 0.950 . S
H869 C893 0.950 . S
H870 C894 0.950 . S
H871 C895 0.951 . S
H872 C897 0.951 . S
H873 C899 0.950 . S
H874 C900 0.950 . S
H875 C902 0.950 . S
H876 C905 0.950 . S
H877 C906 0.950 . S
H878 C908 0.950 . S
H879 C909 0.950 . S
C880 H862 0.951 . S
C880 C881 1.366 . S
C880 C882 1.388 . S
C881 C880 1.366 . S
C881 C885 1.385 . S
C882 H863 0.951 . S
C882 C880 1.388 . S
C882 C883 1.366 . S
C883 C882 1.366 . S
C883 C884 1.414 . S
C883 C886 1.499 . S
C884 H864 0.950 . S
C884 C883 1.414 . S
C884 C885 1.374 . S
C885 H865 0.950 . S
C885 C881 1.385 . S
C885 C884 1.374 . S
C886 C883 1.499 . S
C886 C887 1.373 . S
C886 C888 1.389 . S
C887 H866 0.950 . S
C887 C886 1.373 . S
C887 C903 1.377 1_565 S
C888 C886 1.389 . S
C888 C889 1.524 . S
C888 C902 1.377 1_565 S
C889 C888 1.524 . S
C889 C890 1.397 . S
C889 C894 1.363 . S
C890 H867 0.950 . S
C890 C889 1.397 . S
C890 C891 1.334 . S
C891 H868 0.950 . S
C891 C890 1.334 . S
C891 C892 1.287 . S
C892 C891 1.287 . S
C892 C893 1.524 . S
C892 H911 0.913 . S
C893 H869 0.950 . S
C893 C892 1.524 . S
C893 C894 1.415 . S
C894 H870 0.950 . S
C894 C889 1.363 . S
C894 C893 1.415 . S
C895 H871 0.951 . S
C895 C896 1.366 . S
C895 C897 1.388 . S
C896 C895 1.366 . S
C896 C900 1.385 . S
C897 H872 0.951 . S
C897 C895 1.388 . S
C897 C898 1.366 . S
C898 C897 1.366 . S
C898 C899 1.414 . S
C898 C901 1.499 . S
C899 H873 0.950 . S
C899 C898 1.414 . S
C899 C900 1.374 . S
C900 H874 0.950 . S
C900 C896 1.385 . S
C900 C899 1.374 . S
C901 C898 1.499 . S
C901 C902 1.373 . S
C901 C903 1.389 . S
C902 H875 0.950 . S
C902 C888 1.377 1_545 S
C902 C901 1.373 . S
C903 C887 1.377 1_545 S
C903 C901 1.389 . S
C903 C904 1.524 . S
C904 C903 1.524 . S
C904 C905 1.397 . S
C904 C909 1.363 . S
C905 H876 0.950 . S
C905 C904 1.397 . S
C905 C906 1.334 . S
C906 H877 0.950 . S
C906 C905 1.334 . S
C906 C907 1.287 . S
C907 C906 1.287 . S
C907 C908 1.524 . S
C907 H910 0.999 . S
C908 H878 0.950 . S
C908 C907 1.524 . S
C908 C909 1.415 . S
C909 H879 0.950 . S
C909 C904 1.363 . S
C909 C908 1.415 . S
H910 C907 0.999 . S
H911 C892 0.913 . S
C131 C23 1.479 . S
C146 C9 1.478 . S
C181 C37 1.479 . S
C196 C51 1.479 . S
C231 C65 1.478 . S
C246 C79 1.479 . S
C281 C93 1.478 . S
C296 C107 1.479 . S
C331 C105 1.253 . S
C346 C7 1.253 . S
C381 C91 1.253 . S
C396 C21 1.253 . S
C431 C35 1.253 . S
C446 C77 1.252 . S
C481 C63 1.253 . S
C496 C49 1.253 . S
C531 C78 1.713 . S
C546 C36 1.713 . S
C581 C64 1.713 . S
C596 C50 1.713 . S
C631 C106 1.713 . S
C646 C8 1.713 . S
C681 C22 1.713 . S
C696 C92 1.713 . S
C731 C6 1.501 . S
C746 C34 1.501 . S
C781 C48 1.502 . S
C796 C20 1.502 . S
C831 C90 1.501 . S
C846 C62 1.501 . S
C881 C76 1.501 . S
C896 C104 1.501 . S
