# Generated by pormake.
# Topology ukh, (4)-cn, num edge types: 1
# Building blocks:
#     Node 0, Type 0, BuildingBlock: AZAVOO_clean_sbu_0, # of connection points: 4
#     Node 1, Type 0, BuildingBlock: AZAVOO_clean_sbu_0, # of connection points: 4
#     Node 2, Type 0, BuildingBlock: AZAVOO_clean_sbu_0, # of connection points: 4
#     Node 3, Type 0, BuildingBlock: AZAVOO_clean_sbu_0, # of connection points: 4
#     Node 4, Type 0, BuildingBlock: AZAVOO_clean_sbu_0, # of connection points: 4
#     Node 5, Type 0, BuildingBlock: AZAVOO_clean_sbu_0, # of connection points: 4
#     Node 6, Type 0, BuildingBlock: AZAVOO_clean_sbu_0, # of connection points: 4
#     Node 7, Type 0, BuildingBlock: AZAVOO_clean_sbu_0, # of connection points: 4
#     Node 8, Type 0, BuildingBlock: AZAVOO_clean_sbu_0, # of connection points: 4
#     Node 9, Type 0, BuildingBlock: AZAVOO_clean_sbu_0, # of connection points: 4
#     Node 10, Type 0, BuildingBlock: AZAVOO_clean_sbu_0, # of connection points: 4
#     Node 11, Type 0, BuildingBlock: AZAVOO_clean_sbu_0, # of connection points: 4
#     Edge 12, Type (0, 0), BuildingBlock: CIFDUS_clean_linker_0, # of connection points: 2
#     Edge 13, Type (0, 0), BuildingBlock: CIFDUS_clean_linker_0, # of connection points: 2
#     Edge 14, Type (0, 0), BuildingBlock: CIFDUS_clean_linker_0, # of connection points: 2
#     Edge 15, Type (0, 0), BuildingBlock: CIFDUS_clean_linker_0, # of connection points: 2
#     Edge 16, Type (0, 0), BuildingBlock: CIFDUS_clean_linker_0, # of connection points: 2
#     Edge 17, Type (0, 0), BuildingBlock: CIFDUS_clean_linker_0, # of connection points: 2
#     Edge 18, Type (0, 0), BuildingBlock: CIFDUS_clean_linker_0, # of connection points: 2
#     Edge 19, Type (0, 0), BuildingBlock: CIFDUS_clean_linker_0, # of connection points: 2
#     Edge 20, Type (0, 0), BuildingBlock: CIFDUS_clean_linker_0, # of connection points: 2
#     Edge 21, Type (0, 0), BuildingBlock: CIFDUS_clean_linker_0, # of connection points: 2
#     Edge 22, Type (0, 0), BuildingBlock: CIFDUS_clean_linker_0, # of connection points: 2
#     Edge 23, Type (0, 0), BuildingBlock: CIFDUS_clean_linker_0, # of connection points: 2
#     Edge 24, Type (0, 0), BuildingBlock: CIFDUS_clean_linker_0, # of connection points: 2
#     Edge 25, Type (0, 0), BuildingBlock: CIFDUS_clean_linker_0, # of connection points: 2
#     Edge 26, Type (0, 0), BuildingBlock: CIFDUS_clean_linker_0, # of connection points: 2
#     Edge 27, Type (0, 0), BuildingBlock: CIFDUS_clean_linker_0, # of connection points: 2
#     Edge 28, Type (0, 0), BuildingBlock: CIFDUS_clean_linker_0, # of connection points: 2
#     Edge 29, Type (0, 0), BuildingBlock: CIFDUS_clean_linker_0, # of connection points: 2
#     Edge 30, Type (0, 0), BuildingBlock: CIFDUS_clean_linker_0, # of connection points: 2
#     Edge 31, Type (0, 0), BuildingBlock: CIFDUS_clean_linker_0, # of connection points: 2
#     Edge 32, Type (0, 0), BuildingBlock: CIFDUS_clean_linker_0, # of connection points: 2
#     Edge 33, Type (0, 0), BuildingBlock: CIFDUS_clean_linker_0, # of connection points: 2
#     Edge 34, Type (0, 0), BuildingBlock: CIFDUS_clean_linker_0, # of connection points: 2
#     Edge 35, Type (0, 0), BuildingBlock: CIFDUS_clean_linker_0, # of connection points: 2
# Relax obj value: 0.220
# Max RMSD: 0.237
# Mean RMSD: 0.237
data_MOF--net-ukh--node1-AZAVOO_clean_sbu_0--edge1-CIFDUS_clean_linker_0
_symmetry_space_group_name_H-M    P1
_symmetry_Int_Tables_number       1
_symmetry_cell_setting            triclinic
loop_
_symmetry_equiv_pos_as_xyz
'x, y, z'
_cell_length_a     27.467962
_cell_length_b     27.307253
_cell_length_c     54.994653
_cell_angle_alpha  89.987217
_cell_angle_beta   90.264795
_cell_angle_gamma 120.01786
loop_
_atom_site_label
_atom_site_type_symbol
_atom_site_fract_x
_atom_site_fract_y
_atom_site_fract_z
_atom_type_partial_charge
Mg0 Mg 0.29353 0.24126 0.01452 0.0
O1 O 0.19904 0.213 0.00945 0.0
O2 O 0.15471 0.11883 0.00578 0.0
Mg3 Mg 0.21719 0.08668 0.00855 0.0
C4 C 0.15413 0.16535 0.00617 0.0
C5 C 0.35922 0.3687 0.01461 0.0
O6 O 0.38292 0.35217 -0.00165 0.0
O7 O 0.27902 0.20905 0.05395 0.0
O8 O 0.23728 0.11545 0.04795 0.0
O9 O 0.299 0.24246 0.97358 0.0
O10 O 0.28291 0.16996 -0.00315 0.0
C11 C 0.25827 0.15848 0.06199 0.0
C12 C 0.28595 0.19005 0.97553 0.0
O13 O 0.31597 0.33113 0.02565 0.0
Mg14 Mg 0.20001 0.37823 0.3683 0.0
O15 O 0.13172 0.28447 0.36287 0.0
O16 O 0.172 0.2327 0.37077 0.0
Mg17 Mg 0.26361 0.29162 0.38256 0.0
C18 C 0.12951 0.23667 0.36407 0.0
C19 C 0.13458 0.43547 0.3494 0.0
O20 O 0.17629 0.45494 0.33385 0.0
O21 O 0.1936 0.37013 0.40959 0.0
O22 O 0.23822 0.32164 0.41642 0.0
O23 O 0.22501 0.37664 0.32998 0.0
O24 O 0.26404 0.36052 0.362 0.0
C25 C 0.21392 0.34812 0.42402 0.0
C26 C 0.25837 0.36038 0.33885 0.0
O27 O 0.13214 0.40217 0.36611 0.0
Mg28 Mg 0.85597 0.07037 0.70174 0.0
O29 O 0.85948 0.99418 0.6842 0.0
O30 O 0.93822 1.00101 0.6998 0.0
Mg31 Mg 0.98635 0.07769 0.72452 0.0
C32 C 0.89479 0.9766 0.6861 0.0
C33 C 0.74744 0.07201 0.7001 0.0
O34 O 0.78495 0.11923 0.71066 0.0
O35 O 0.83323 0.02977 0.73893 0.0
O36 O 0.91767 0.04979 0.75321 0.0
O37 O 0.90812 0.1317 0.67227 0.0
O38 O 0.94225 0.11333 0.70509 0.0
C39 C 0.8657 0.03318 0.75633 0.0
C40 C 0.95129 0.14099 0.68532 0.0
O41 O 0.7632 0.03802 0.69253 0.0
Mg42 Mg 0.57992 0.82439 0.04701 0.0
O43 O 0.65114 0.82886 0.02366 0.0
O44 O 0.72026 0.91829 0.02025 0.0
Mg45 Mg 0.69503 0.97277 0.04272 0.0
C46 C 0.69902 0.86573 0.01551 0.0
C47 C 0.53166 0.70619 0.02483 0.0
O48 O 0.55006 0.74048 0.00608 0.0
O49 O 0.63328 0.83607 0.08127 0.0
O50 O 0.69687 0.92825 0.07719 0.0
O51 O 0.5438 0.84694 0.0146 0.0
O52 O 0.60595 0.90883 0.04019 0.0
C53 C 0.67544 0.88208 0.08913 0.0
C54 C 0.5762 0.89919 0.02094 0.0
O55 O 0.5374 0.72722 0.04602 0.0
Mg56 Mg 0.83132 0.57339 0.34987 0.0
O57 O 0.8935 0.66499 0.33739 0.0
O58 O 0.85469 0.71681 0.34786 0.0
Mg59 Mg 0.77276 0.66208 0.36826 0.0
C60 C 0.89387 0.71199 0.33776 0.0
C61 C 0.93323 0.56367 0.32703 0.0
O62 O 0.93377 0.59769 0.31 0.0
O63 O 0.85979 0.59633 0.38924 0.0
O64 O 0.81861 0.64647 0.3991 0.0
O65 O 0.78613 0.56115 0.31445 0.0
O66 O 0.76471 0.58854 0.34859 0.0
C67 C 0.84793 0.62371 0.40464 0.0
C68 C 0.75841 0.58143 0.32548 0.0
O69 O 0.89754 0.54833 0.34407 0.0
Mg70 Mg 0.30742 0.94253 0.70752 0.0
O71 O 0.29852 0.0186 0.69263 0.0
O72 O 0.20792 0.99196 0.69842 0.0
Mg73 Mg 0.15964 0.90634 0.71669 0.0
C74 C 0.25687 0.0274 0.69067 0.0
C75 C 0.44097 0.03653 0.71191 0.0
O76 O 0.4258 0.06929 0.72308 0.0
O77 O 0.30714 0.96771 0.74774 0.0
O78 O 0.21538 0.93959 0.74979 0.0
O79 O 0.27682 0.89517 0.6717 0.0
O80 O 0.22254 0.88922 0.70229 0.0
C81 C 0.2638 0.95991 0.75959 0.0
C82 C 0.22697 0.87529 0.68061 0.0
O83 O 0.40345 0.98827 0.70426 0.0
Mg84 Mg 0.86497 0.60691 0.60376 0.0
O85 O 0.88852 0.69898 0.6121 0.0
O86 O 0.97782 0.7543 0.6011 0.0
Mg87 Mg 0.01034 0.69846 0.58492 0.0
C88 C 0.93225 0.74779 0.61023 0.0
C89 C 0.74138 0.54367 0.62344 0.0
O90 O 0.76118 0.51803 0.63708 0.0
O91 O 0.85854 0.6203 0.56356 0.0
O92 O 0.9489 0.67231 0.55281 0.0
O93 O 0.89905 0.60476 0.64033 0.0
O94 O 0.94793 0.6263 0.60621 0.0
C95 C 0.89655 0.64547 0.54756 0.0
C96 C 0.94686 0.62319 0.62949 0.0
O97 O 0.77393 0.58174 0.60874 0.0
Mg98 Mg 0.98725 0.80367 0.90725 0.0
O99 O 0.91258 0.77651 0.93432 0.0
O100 O 0.93506 0.84924 0.91165 0.0
Mg101 Mg 0.97177 0.93046 0.88908 0.0
C102 C 0.90386 0.81677 0.92852 0.0
C103 C 0.9869 0.69916 0.92997 0.0
O104 O 0.99371 0.7313 0.94894 0.0
O105 O 0.05461 0.84296 0.87722 0.0
O106 O 0.03833 0.91475 0.8702 0.0
O107 O 0.05599 0.8637 0.93408 0.0
O108 O 1.00538 0.89003 0.91376 0.0
C109 C 0.06582 0.88896 0.8661 0.0
C110 C 0.04753 0.90396 0.92763 0.0
O111 O 0.98444 0.7175 0.90897 0.0
Mg112 Mg 0.2868 0.04662 0.24999 0.0
O113 O 0.20298 0.96845 0.26263 0.0
O114 O 0.13838 0.99497 0.25852 0.0
Mg115 Mg 0.17611 0.08557 0.24497 0.0
C116 C 0.15234 0.9585 0.26459 0.0
C117 C 0.38467 0.02659 0.25723 0.0
O118 O 0.40278 0.07879 0.26447 0.0
O119 O 0.26211 0.03216 0.20931 0.0
O120 O 0.20436 0.0679 0.20913 0.0
O121 O 0.30327 0.08498 0.28781 0.0
O122 O 0.25553 0.09866 0.25887 0.0
C123 C 0.2327 0.04954 0.19802 0.0
C124 C 0.27365 0.10721 0.28074 0.0
O125 O 0.33441 0.99778 0.24929 0.0
Mg126 Mg 0.30291 0.41795 0.62187 0.0
O127 O 0.27335 0.3239 0.6291 0.0
O128 O 0.18044 0.27528 0.62369 0.0
Mg129 Mg 0.15104 0.33696 0.61177 0.0
C130 C 0.22664 0.2774 0.62933 0.0
C131 C 0.41182 0.41903 0.63931 0.0
O132 O 0.37815 0.38805 0.65684 0.0
O133 O 0.29453 0.40235 0.58079 0.0
O134 O 0.20082 0.35662 0.57665 0.0
O135 O 0.28241 0.42368 0.66069 0.0
O136 O 0.22451 0.40662 0.62964 0.0
C137 C 0.25005 0.37894 0.56763 0.0
C138 C 0.23254 0.40915 0.65269 0.0
O139 O 0.39281 0.43649 0.62234 0.0
Mg140 Mg 0.82551 0.24093 0.9215 0.0
O141 O 0.89216 0.22959 0.9436 0.0
O142 O 0.85463 0.13646 0.94905 0.0
Mg143 Mg 0.76781 0.08786 0.93158 0.0
C144 C 0.89485 0.18714 0.95195 0.0
C145 C 0.89734 0.37139 0.93191 0.0
O146 O 0.87952 0.35185 0.95386 0.0
O147 O 0.84869 0.21036 0.8866 0.0
O148 O 0.8086 0.11763 0.89479 0.0
O149 O 0.77663 0.23588 0.95581 0.0
O150 O 0.76131 0.1637 0.93282 0.0
C151 C 0.83572 0.15976 0.88069 0.0
C152 C 0.74805 0.1821 0.95149 0.0
O153 O 0.88625 0.33615 0.91465 0.0
Mg154 Mg 0.72031 0.92177 0.27639 0.0
O155 O 0.80203 0.98798 0.29636 0.0
O156 O 0.86561 0.96255 0.28716 0.0
Mg157 Mg 0.82635 0.87935 0.26574 0.0
C158 C 0.85211 0.99591 0.29753 0.0
C159 C 0.6257 0.94514 0.27132 0.0
O160 O 0.6081 0.89384 0.26298 0.0
O161 O 0.75722 0.95895 0.23939 0.0
O162 O 0.80749 0.9163 0.23221 0.0
O163 O 0.68853 0.85875 0.30756 0.0
O164 O 0.74463 0.86231 0.27847 0.0
C165 C 0.78447 0.9445 0.22509 0.0
C166 C 0.71561 0.83701 0.29718 0.0
O167 O 0.67577 0.97325 0.27953 0.0
H168 H 0.45329 0.61966 0.05286 0.0
H169 H 0.55064 0.65446 -0.01278 0.0
H170 H 0.50576 0.55369 0.9784 0.0
H171 H 0.43854 0.45607 -0.01125 0.0
H172 H 0.33724 0.41874 0.05323 0.0
H173 H 0.38343 0.51994 0.06295 0.0
C174 C 0.46483 0.60497 0.03676 0.0
C175 C 0.50536 0.64449 0.02075 0.0
C176 C 0.43783 0.5466 0.03146 0.0
C177 C 0.51945 0.62498 -0.00022 0.0
C178 C 0.4938 0.56733 -0.0053 0.0
C179 C 0.42641 0.4699 0.00496 0.0
C180 C 0.38457 0.42982 0.02026 0.0
C181 C 0.45277 0.52785 0.0103 0.0
C182 C 0.36919 0.44871 0.04108 0.0
C183 C 0.39578 0.50657 0.04669 0.0
H184 H 0.12802 0.50607 0.31622 0.0
H185 H 0.04452 0.40393 0.37909 0.0
H186 H 0.97468 0.43396 0.37726 0.0
H187 H 0.93829 0.49005 0.35846 0.0
H188 H 0.0209 0.5928 0.29566 0.0
H189 H 0.09015 0.5614 0.29681 0.0
C190 C 0.09449 0.49029 0.3295 0.0
C191 C 0.09166 0.45292 0.34781 0.0
C192 C 0.05439 0.5078 0.32838 0.0
C193 C 0.04783 0.43279 0.36483 0.0
C194 C 1.00784 0.44994 0.36381 0.0
C195 C 0.97135 0.50563 0.34495 0.0
C196 C 0.97446 0.54386 0.32703 0.0
C197 C 0.01089 0.48758 0.34576 0.0
C198 C 0.01751 0.56335 0.30966 0.0
C199 C 0.05716 0.54547 0.31032 0.0
H200 H 0.48499 0.97512 0.69254 0.0
H201 H 0.53298 0.13605 0.72614 0.0
H202 H 0.63179 0.16171 0.72443 0.0
H203 H 0.70409 0.13713 0.71498 0.0
H204 H 0.65654 0.97579 0.68197 0.0
H205 H 0.55793 0.95179 0.68179 0.0
C206 C 0.517 0.01599 0.69938 0.0
C207 C 0.50132 0.05349 0.70957 0.0
C208 C 0.57382 0.03033 0.69852 0.0
C209 C 0.5436 0.10625 0.71829 0.0
C210 C 0.6002 0.12096 0.71733 0.0
C211 C 0.6723 0.09674 0.70762 0.0
C212 C 0.68785 0.05821 0.69858 0.0
C213 C 0.61571 0.0831 0.70774 0.0
C214 C 0.64589 1.00622 0.68906 0.0
C215 C 0.58944 0.99245 0.689 0.0
H216 H 0.65983 0.46565 0.65293 0.0
H217 H 0.68794 0.58448 0.59533 0.0
H218 H 0.58864 0.55574 0.59511 0.0
H219 H 0.494 0.49679 0.61078 0.0
H220 H 0.46441 0.37866 0.66877 0.0
H221 H 0.56424 0.40723 0.66926 0.0
C222 C 0.64423 0.48531 0.64037 0.0
C223 C 0.6813 0.52702 0.62414 0.0
C224 C 0.58687 0.46866 0.64033 0.0
C225 C 0.66042 0.55223 0.60803 0.0
C226 C 0.60357 0.5358 0.60784 0.0
C227 C 0.50925 0.47708 0.6235 0.0
C228 C 0.47184 0.43553 0.63964 0.0
C229 C 0.56646 0.49395 0.62381 0.0
C230 C 0.49241 0.4108 0.65615 0.0
C231 C 0.54945 0.4271 0.65644 0.0
H232 H 0.93195 0.4565 0.96496 0.0
H233 H 0.9176 0.42499 0.88768 0.0
H234 H 0.94656 0.52416 0.87999 0.0
H235 H 0.96949 0.61874 0.89545 0.0
H236 H 0.98356 0.64835 0.97297 0.0
H237 H 0.96135 0.5515 0.98018 0.0
C238 C 0.93568 0.47131 0.9464 0.0
C239 C 0.92214 0.43298 0.92697 0.0
C240 C 0.95191 0.52826 0.94211 0.0
C241 C 0.9277 0.45335 0.90303 0.0
C242 C 0.94401 0.51012 0.89861 0.0
C243 C 0.96815 0.60413 0.9139 0.0
C244 C 0.97776 0.64104 0.93361 0.0
C245 C 0.95518 0.5478 0.91803 0.0
C246 C 0.97611 0.62119 0.95739 0.0
C247 C 0.96333 0.56558 0.96159 0.0
H248 H 0.49233 0.0782 0.27408 0.0
H249 H 0.36262 0.92119 0.24309 0.0
H250 H 0.42583 0.88248 0.24493 0.0
H251 H 0.51773 0.89337 0.2551 0.0
H252 H 0.64759 0.05024 0.28611 0.0
H253 H 0.58422 0.08887 0.28451 0.0
C254 C 0.47775 0.03547 0.26771 0.0
C255 C 0.42269 1.00268 0.25841 0.0
C256 C 0.51431 0.0135 0.26884 0.0
C257 C 0.40468 0.94739 0.25031 0.0
C258 C 0.44083 0.92523 0.25136 0.0
C259 C 0.53233 0.93605 0.26155 0.0
C260 C 0.58749 0.96888 0.27071 0.0
C261 C 0.49572 0.95794 0.26056 0.0
C262 C 0.60545 0.02404 0.27898 0.0
C263 C 0.56921 0.04615 0.27806 0.0
H264 H 0.24156 0.14039 0.17581 0.0
H265 H 0.242 0.98532 0.16149 0.0
H266 H 0.25116 1.00652 0.11767 0.0
H267 H 0.25595 0.06824 0.08381 0.0
H268 H 0.26002 0.22533 0.09925 0.0
H269 H 0.25249 0.20429 0.14273 0.0
C270 C 0.24326 0.11089 0.16309 0.0
C271 C 0.2398 0.06067 0.17167 0.0
C272 C 0.24953 0.12393 0.13834 0.0
C273 C 0.24398 0.02385 0.15518 0.0
C274 C 0.24918 0.03604 0.13023 0.0
C275 C 0.25524 0.09791 0.09671 0.0
C276 C 0.25786 0.14806 0.08835 0.0
C277 C 0.25148 0.08576 0.12165 0.0
C278 C 0.25801 0.18657 0.10524 0.0
C279 C 0.25348 0.17442 0.13005 0.0
H280 H 0.29098 0.3564 0.45675 0.0
H281 H 0.13595 0.35957 0.4503 0.0
H282 H 0.13454 0.37076 0.49446 0.0
H283 H 0.1761 0.37678 0.53466 0.0
H284 H 0.33356 0.37835 0.54094 0.0
H285 H 0.33573 0.36868 0.49672 0.0
C286 C 0.25675 0.35932 0.46504 0.0
C287 C 0.21309 0.35628 0.45045 0.0
C288 C 0.25688 0.36678 0.49022 0.0
C289 C 0.16976 0.36151 0.46125 0.0
C290 C 0.16897 0.36785 0.48643 0.0
C291 C 0.21095 0.37504 0.52634 0.0
C292 C 0.25431 0.37754 0.54097 0.0
C293 C 0.2121 0.37009 0.50105 0.0
C294 C 0.29975 0.37644 0.52999 0.0
C295 C 0.30083 0.37067 0.50479 0.0
H296 H 0.8458 0.11462 0.76938 0.0
H297 H 0.85914 0.97479 0.79783 0.0
H298 H 0.85368 1.00415 0.83954 0.0
H299 H 0.84879 0.0719 0.86738 0.0
H300 H 0.84435 0.21673 0.8386 0.0
H301 H 0.84511 0.18444 0.79715 0.0
C302 C 0.84593 0.08978 0.78478 0.0
C303 C 0.85056 0.04145 0.78082 0.0
C304 C 0.84641 0.10899 0.8084 0.0
C305 C 0.85362 0.01097 0.80067 0.0
C306 C 0.85141 0.02831 0.82438 0.0
C307 C 0.84848 0.09668 0.85202 0.0
C308 C 0.84642 0.1466 0.85598 0.0
C309 C 0.8487 0.07776 0.82839 0.0
C310 C 0.84658 0.17858 0.83599 0.0
C311 C 0.84621 0.15971 0.81234 0.0
H312 H 0.71991 0.9724 0.11873 0.0
H313 H 0.68099 0.79865 0.11469 0.0
H314 H 0.71933 0.80629 0.15581 0.0
H315 H 0.75897 0.86101 0.19327 0.0
H316 H 0.78728 0.03088 0.19879 0.0
H317 H 0.75896 0.0268 0.15612 0.0
C318 C 0.72029 0.93628 0.12675 0.0
C319 C 0.69811 0.88507 0.11373 0.0
C320 C 0.74081 0.94065 0.15042 0.0
C321 C 0.69776 0.83833 0.12446 0.0
C322 C 0.71983 0.84284 0.14785 0.0
C323 C 0.76019 0.89762 0.18492 0.0
C324 C 0.77625 0.94672 0.19882 0.0
C325 C 0.74104 0.89368 0.161 0.0
C326 C 0.77582 0.99314 0.18821 0.0
C327 C 0.75928 0.99056 0.16397 0.0
H328 H 0.95409 0.64278 0.5084 0.0
H329 H 0.80104 0.63876 0.52956 0.0
H330 H 0.77327 0.63264 0.48686 0.0
H331 H 0.79262 0.62849 0.44385 0.0
H332 H 0.94208 0.62563 0.42244 0.0
H333 H 0.97135 0.6341 0.46516 0.0
C334 C 0.91482 0.64088 0.50359 0.0
C335 C 0.87982 0.64182 0.52193 0.0
C336 C 0.89859 0.63595 0.47913 0.0
C337 C 0.82855 0.63817 0.51565 0.0
C338 C 0.81276 0.63474 0.49131 0.0
C339 C 0.83176 0.62998 0.44853 0.0
C340 C 0.8656 0.62716 0.43015 0.0
C341 C 0.84749 0.63365 0.47295 0.0
C342 C 0.91552 0.62785 0.43639 0.0
C343 C 0.93224 0.63283 0.46073 0.0
H344 H 0.14243 0.85627 0.85282 0.0
H345 H 0.10054 0.98787 0.84218 0.0
H346 H 0.1757 0.03419 0.81314 0.0
H347 H 0.24087 0.02842 0.78527 0.0
H348 H 0.27912 0.89451 0.79238 0.0
H349 H 0.22119 0.86039 0.82899 0.0
C350 C 0.15003 0.89522 0.84426 0.0
C351 C 0.11441 0.91725 0.84929 0.0
C352 C 0.1937 0.92212 0.82715 0.0
C353 C 0.12597 0.96869 0.83838 0.0
C354 C 0.1695 0.99584 0.82183 0.0
C355 C 0.23907 0.99379 0.79571 0.0
C356 C 0.26377 0.96386 0.78617 0.0
C357 C 0.20226 0.97196 0.81544 0.0
C358 C 0.26089 0.91866 0.79957 0.0
C359 C 0.22633 0.89811 0.82011 0.0
H360 H 0.15968 0.9516 0.93308 0.0
H361 H 0.02527 0.98984 0.93277 0.0
H362 H 0.09246 0.08937 0.94161 0.0
H363 H 0.18778 0.16234 0.95407 0.0
H364 H 0.32052 0.12206 0.95633 0.0
H365 H 0.25666 0.02739 0.94047 0.0
C366 C 0.14527 0.98185 0.93497 0.0
C367 C 0.08777 0.96361 0.93298 0.0
C368 C 0.18415 0.03888 0.93958 0.0
C369 C 0.06946 1.00314 0.93467 0.0
C370 C 0.10783 0.05998 0.93951 0.0
C371 C 0.20315 0.13362 0.9499 0.0
C372 C 0.25865 0.14893 0.95596 0.0
C373 C 0.16518 0.07813 0.94239 0.0
C374 C 0.27812 0.11121 0.95124 0.0
C375 C 0.2413 0.05674 0.94274 0.0
H376 H 0.18605 0.26379 0.31721 0.0
H377 H 0.36206 0.37371 0.33241 0.0
H378 H 0.38259 0.30056 0.31848 0.0
H379 H 0.34908 0.20422 0.30248 0.0
H380 H 0.17157 0.09248 0.29111 0.0
H381 H 0.15206 0.16626 0.30439 0.0
C382 C 0.22898 0.27195 0.31689 0.0
C383 C 0.27287 0.32418 0.32489 0.0
C384 C 0.2396 0.2286 0.31062 0.0
C385 C 0.32812 0.33411 0.32543 0.0
C386 C 0.33959 0.29203 0.31798 0.0
C387 C 0.30613 0.19572 0.30378 0.0
C388 C 0.26168 0.14339 0.29609 0.0
C389 C 0.29546 0.23873 0.31095 0.0
C390 C 0.20619 0.13271 0.29715 0.0
C391 C 0.19514 0.17499 0.30439 0.0
H392 H 0.98204 0.24657 0.67118 0.0
H393 H 0.0477 0.13719 0.68958 0.0
H394 H 0.14382 0.2171 0.68763 0.0
H395 H 0.20875 0.31661 0.67808 0.0
H396 H 0.1433 0.42454 0.65705 0.0
H397 H 0.04729 0.34778 0.66423 0.0
C398 C 0.01759 0.24031 0.67431 0.0
C399 C 1.00838 0.18633 0.68 0.0
C400 C 0.07243 0.28657 0.6737 0.0
C401 C 0.05426 0.17856 0.68487 0.0
C402 C 0.10902 0.22423 0.68404 0.0
C403 C 0.1735 0.32386 0.67618 0.0
C404 C 0.18261 0.37596 0.66744 0.0
C405 C 0.11857 0.27842 0.67851 0.0
C406 C 0.13688 0.38484 0.66431 0.0
C407 C 0.08208 0.34062 0.66778 0.0
H408 H 0.62342 0.00859 0.03425 0.0
H409 H 0.55546 0.89774 0.97207 0.0
H410 H 0.59553 0.97982 0.94503 0.0
H411 H 0.66303 0.08017 0.93908 0.0
H412 H 0.73876 0.19017 0.00093 0.0
H413 H 0.68172 0.11114 0.02837 0.0
C414 C 0.61673 1.00243 0.01477 0.0
C415 C 0.5878 0.94724 0.00504 0.0
C416 C 0.64173 0.04951 -0.00058 0.0
C417 C 0.57797 0.93977 0.97992 0.0
C418 C 0.60122 0.98664 0.96449 0.0
C419 C 0.66638 0.08708 0.9586 0.0
C420 C 0.70577 0.1404 0.96811 0.0
C421 C 0.63525 0.04128 0.97403 0.0
C422 C 0.70892 0.14937 -0.00671 0.0
C423 C 0.67667 0.10412 0.0089 0.0
H424 H 0.75229 0.77693 0.27237 0.0
H425 H 0.66592 0.77445 0.33817 0.0
H426 H 0.65886 0.68429 0.34962 0.0
H427 H 0.6858 0.61225 0.34263 0.0
H428 H 0.78202 0.62249 0.27909 0.0
H429 H 0.77329 0.70193 0.26407 0.0
C430 C 0.7323 0.75715 0.28936 0.0
C431 C 0.71109 0.78315 0.30481 0.0
C432 C 0.72889 0.70607 0.2958 0.0
C433 C 0.68355 0.75578 0.32627 0.0
C434 C 0.67914 0.70413 0.33268 0.0
C435 C 0.70411 0.6314 0.32529 0.0
C436 C 0.73582 0.6127 0.31229 0.0
C437 C 0.70268 0.67961 0.31777 0.0
C438 C 0.75765 0.6363 0.28949 0.0
C439 C 0.75358 0.68239 0.28114 0.0
H440 H 0.19919 0.7749 0.65982 0.0
H441 H 0.13891 0.89095 0.673 0.0
H442 H 0.0432 0.81763 0.6631 0.0
H443 H 0.97643 0.72014 0.65181 0.0
H444 H 0.0363 0.60667 0.63283 0.0
H445 H 0.13235 0.67823 0.64482 0.0
C446 C 0.16523 0.78433 0.6597 0.0
C447 C 0.17548 0.83772 0.66723 0.0
C448 C 0.11023 0.74189 0.65388 0.0
C449 C 0.13144 0.84971 0.66746 0.0
C450 C 0.07678 0.80781 0.66197 0.0
C451 C 0.01047 0.71091 0.65081 0.0
C452 C 0.99974 0.65816 0.64233 0.0
C453 C 0.06555 0.75346 0.65576 0.0
C454 C 0.04394 0.64673 0.64019 0.0
C455 C 0.09876 0.6879 0.64654 0.0
H456 H 0.91063 0.10721 0.97408 0.0
H457 H 0.99687 0.28555 0.95749 0.0
H458 H 0.08401 0.29578 0.97464 0.0
H459 H 0.13725 0.25228 -0.00819 0.0
H460 H 0.04913 0.07305 0.00688 0.0
H461 H 0.96146 0.06531 -0.0071 0.0
C462 C 0.94826 0.14859 0.97429 0.0
C463 C 0.94696 0.19546 0.96428 0.0
C464 C 0.99819 0.154 -0.01613 0.0
C465 C 0.99639 0.24864 0.96499 0.0
C466 C 0.04637 0.25449 0.97476 0.0
C467 C 0.09871 0.21173 -0.00759 0.0
C468 C 0.10013 0.16333 0.00041 0.0
C469 C 0.04801 0.20724 -0.01608 0.0
C470 C 0.04966 0.11104 0.00079 0.0
C471 C 0.99932 0.10648 -0.00726 0.0
H472 H 0.94842 1.00623 0.31614 0.0
H473 H 0.85575 0.09499 0.31067 0.0
H474 H 0.93207 0.17656 0.33182 0.0
H475 H 0.0275 0.22426 0.35021 0.0
H476 H 0.11752 0.13258 0.35613 0.0
H477 H 0.0398 0.0508 0.33661 0.0
C478 C 0.94471 0.04336 0.31956 0.0
C479 C 0.89653 0.04459 0.31155 0.0
C480 C 0.9884 0.08972 0.33188 0.0
C481 C 0.8923 0.09282 0.31657 0.0
C482 C 0.93604 0.13955 0.32863 0.0
C483 C 0.02988 0.18619 0.34748 0.0
C484 C 0.07874 0.18505 0.35468 0.0
C485 C 0.98462 0.13872 0.33617 0.0
C486 C 0.0807 0.13505 0.35098 0.0
C487 C 0.03625 0.08811 0.33965 0.0
H488 H 0.84222 0.75646 0.62653 0.0
H489 H 0.02306 0.8514 0.6195 0.0
H490 H 0.02644 0.92972 0.64192 0.0
H491 H 0.9795 0.96986 0.6653 0.0
H492 H 0.79889 0.87966 0.67125 0.0
H493 H 0.79388 0.80108 0.64734 0.0
C494 C 0.8823 0.79451 0.62969 0.0
C495 C 0.93237 0.79752 0.62142 0.0
C496 C 0.88404 0.84014 0.64253 0.0
C497 C 0.98382 0.84753 0.62555 0.0
C498 C 0.9859 0.89245 0.63851 0.0
C499 C 0.93892 0.93298 0.66137 0.0
C500 C 0.88966 0.93007 0.67038 0.0
C501 C 0.93648 0.88885 0.64739 0.0
C502 C 0.83739 0.88271 0.66462 0.0
C503 C 0.83462 0.83782 0.65101 0.0
H504 H 0.78572 0.92942 -0.01488 0.0
H505 H 0.68423 0.75907 0.01178 0.0
H506 H 0.73883 0.72845 -0.01233 0.0
H507 H 0.81665 0.7505 0.95904 0.0
H508 H 0.9137 0.92032 0.93114 0.0
H509 H 0.85997 0.95046 0.95567 0.0
C510 C 0.77554 0.88559 -0.01429 0.0
C511 C 0.73119 0.8468 0.00039 0.0
C512 C 0.80646 0.86805 0.97153 0.0
C513 C 0.71817 0.78995 0.00064 0.0
C514 C 0.74946 0.77236 -0.01311 0.0
C515 C 0.82583 0.79399 0.95836 0.0
C516 C 0.86917 0.83301 0.9433 0.0
C517 C 0.79388 0.81108 0.97228 0.0
C518 C 0.8804 0.88923 0.94246 0.0
C519 C 0.84976 0.90667 0.95655 0.0
H520 H 0.99241 0.72631 0.31816 0.0
H521 H 0.8957 0.8103 0.32755 0.0
H522 H 0.96543 0.89142 0.30505 0.0
H523 H 0.05323 0.93927 0.28297 0.0
H524 H 0.15412 0.85997 0.27411 0.0
H525 H 0.08318 0.77627 0.29597 0.0
C526 C 0.98671 0.76242 0.31533 0.0
C527 C 0.93868 0.76191 0.32473 0.0
C528 C 0.02751 0.80973 0.30233 0.0
C529 C 0.93219 0.80929 0.32082 0.0
C530 C 0.97201 0.85583 0.3078 0.0
C531 C 0.05981 0.90361 0.28554 0.0
C532 C 0.1089 0.9059 0.27664 0.0
C533 C 0.01967 0.85648 0.29847 0.0
C534 C 0.11669 0.85938 0.28063 0.0
C535 C 0.07616 0.81155 0.29319 0.0
H536 H 0.17371 0.04155 0.67188 0.0
H537 H 0.35393 0.12863 0.68119 0.0
H538 H 0.36101 0.21338 0.66215 0.0
H539 H 0.31486 0.26349 0.6442 0.0
H540 H 0.13421 0.17311 0.63507 0.0
H541 H 0.12875 0.08897 0.65272 0.0
C542 C 0.21476 0.07901 0.66986 0.0
C543 C 0.26321 0.07878 0.67827 0.0
C544 C 0.21841 0.12708 0.65888 0.0
C545 C 0.31593 0.12756 0.67498 0.0
C546 C 0.31993 0.17605 0.66412 0.0
C547 C 0.27434 0.22527 0.64588 0.0
C548 C 0.22499 0.22508 0.63828 0.0
C549 C 0.27132 0.17644 0.65616 0.0
C550 C 0.17295 0.1749 0.64063 0.0
C551 C 0.16968 0.1266 0.65084 0.0
loop_
_geom_bond_atom_site_label_1
_geom_bond_atom_site_label_2
_geom_bond_distance
_geom_bond_site_symmetry_2
_ccdc_geom_bond_type
Mg0 O1 2.028 . S
Mg0 O7 1.986 . S
Mg0 O9 2.114 . S
Mg0 O10 2.251 . S
Mg0 O13 2.010 . S
O1 Mg0 2.028 . S
O1 C4 1.250 . S
O2 Mg3 2.028 . S
O2 C4 1.248 . S
Mg3 O2 2.028 . S
Mg3 O8 2.032 . S
Mg3 O10 2.079 . S
C4 O1 1.250 . S
C4 O2 1.248 . S
C5 O6 1.264 . S
C5 O13 1.249 . S
O6 C5 1.264 . S
O7 Mg0 1.986 . S
O7 C11 1.246 . S
O8 Mg3 2.032 . S
O8 C11 1.259 . S
O9 Mg0 2.114 . S
O9 C12 1.252 . S
O10 Mg0 2.251 . S
O10 Mg3 2.079 . S
O10 C12 1.273 . S
C11 O7 1.246 . S
C11 O8 1.259 . S
C12 O9 1.252 . S
C12 O10 1.273 . S
O13 Mg0 2.010 . S
O13 C5 1.249 . S
Mg14 O15 2.028 . S
Mg14 O21 1.986 . S
Mg14 O23 2.114 . S
Mg14 O24 2.251 . S
Mg14 O27 2.010 . S
O15 Mg14 2.028 . S
O15 C18 1.250 . S
O16 Mg17 2.028 . S
O16 C18 1.248 . S
Mg17 O16 2.028 . S
Mg17 O22 2.032 . S
Mg17 O24 2.079 . S
C18 O15 1.250 . S
C18 O16 1.248 . S
C19 O20 1.264 . S
C19 O27 1.249 . S
O20 C19 1.264 . S
O21 Mg14 1.986 . S
O21 C25 1.246 . S
O22 Mg17 2.032 . S
O22 C25 1.259 . S
O23 Mg14 2.114 . S
O23 C26 1.252 . S
O24 Mg14 2.251 . S
O24 Mg17 2.079 . S
O24 C26 1.273 . S
C25 O21 1.246 . S
C25 O22 1.259 . S
C26 O23 1.252 . S
C26 O24 1.273 . S
O27 Mg14 2.010 . S
O27 C19 1.249 . S
Mg28 O29 2.028 . S
Mg28 O35 1.986 . S
Mg28 O37 2.114 . S
Mg28 O38 2.251 . S
Mg28 O41 2.010 . S
O29 Mg28 2.028 . S
O29 C32 1.250 . S
O30 Mg31 2.028 . S
O30 C32 1.248 . S
Mg31 O30 2.028 . S
Mg31 O36 2.032 . S
Mg31 O38 2.079 . S
C32 O29 1.250 . S
C32 O30 1.248 . S
C33 O34 1.264 . S
C33 O41 1.249 . S
O34 C33 1.264 . S
O35 Mg28 1.986 . S
O35 C39 1.246 . S
O36 Mg31 2.032 . S
O36 C39 1.259 . S
O37 Mg28 2.114 . S
O37 C40 1.252 . S
O38 Mg28 2.251 . S
O38 Mg31 2.079 . S
O38 C40 1.273 . S
C39 O35 1.246 . S
C39 O36 1.259 . S
C40 O37 1.252 . S
C40 O38 1.273 . S
O41 Mg28 2.010 . S
O41 C33 1.249 . S
Mg42 O43 2.028 . S
Mg42 O49 1.986 . S
Mg42 O51 2.114 . S
Mg42 O52 2.251 . S
Mg42 O55 2.010 . S
O43 Mg42 2.028 . S
O43 C46 1.250 . S
O44 Mg45 2.028 . S
O44 C46 1.248 . S
Mg45 O44 2.028 . S
Mg45 O50 2.032 . S
Mg45 O52 2.079 . S
C46 O43 1.250 . S
C46 O44 1.248 . S
C47 O48 1.264 . S
C47 O55 1.249 . S
O48 C47 1.264 . S
O49 Mg42 1.986 . S
O49 C53 1.246 . S
O50 Mg45 2.032 . S
O50 C53 1.259 . S
O51 Mg42 2.114 . S
O51 C54 1.252 . S
O52 Mg42 2.251 . S
O52 Mg45 2.079 . S
O52 C54 1.273 . S
C53 O49 1.246 . S
C53 O50 1.259 . S
C54 O51 1.252 . S
C54 O52 1.273 . S
O55 Mg42 2.010 . S
O55 C47 1.249 . S
Mg56 O57 2.028 . S
Mg56 O63 1.986 . S
Mg56 O65 2.114 . S
Mg56 O66 2.251 . S
Mg56 O69 2.010 . S
O57 Mg56 2.028 . S
O57 C60 1.250 . S
O58 Mg59 2.028 . S
O58 C60 1.248 . S
Mg59 O58 2.028 . S
Mg59 O64 2.032 . S
Mg59 O66 2.079 . S
C60 O57 1.250 . S
C60 O58 1.248 . S
C61 O62 1.264 . S
C61 O69 1.249 . S
O62 C61 1.264 . S
O63 Mg56 1.986 . S
O63 C67 1.246 . S
O64 Mg59 2.032 . S
O64 C67 1.259 . S
O65 Mg56 2.114 . S
O65 C68 1.252 . S
O66 Mg56 2.251 . S
O66 Mg59 2.079 . S
O66 C68 1.273 . S
C67 O63 1.246 . S
C67 O64 1.259 . S
C68 O65 1.252 . S
C68 O66 1.273 . S
O69 Mg56 2.010 . S
O69 C61 1.249 . S
Mg70 O71 2.028 . S
Mg70 O77 1.986 . S
Mg70 O79 2.114 . S
Mg70 O80 2.251 . S
Mg70 O83 2.010 . S
O71 Mg70 2.028 . S
O71 C74 1.250 . S
O72 Mg73 2.028 . S
O72 C74 1.248 . S
Mg73 O72 2.028 . S
Mg73 O78 2.032 . S
Mg73 O80 2.079 . S
C74 O71 1.250 . S
C74 O72 1.248 . S
C75 O76 1.264 . S
C75 O83 1.249 . S
O76 C75 1.264 . S
O77 Mg70 1.986 . S
O77 C81 1.246 . S
O78 Mg73 2.032 . S
O78 C81 1.259 . S
O79 Mg70 2.114 . S
O79 C82 1.252 . S
O80 Mg70 2.251 . S
O80 Mg73 2.079 . S
O80 C82 1.273 . S
C81 O77 1.246 . S
C81 O78 1.259 . S
C82 O79 1.252 . S
C82 O80 1.273 . S
O83 Mg70 2.010 . S
O83 C75 1.249 . S
Mg84 O85 2.028 . S
Mg84 O91 1.986 . S
Mg84 O93 2.114 . S
Mg84 O94 2.251 . S
Mg84 O97 2.010 . S
O85 Mg84 2.028 . S
O85 C88 1.250 . S
O86 Mg87 2.028 . S
O86 C88 1.248 . S
Mg87 O86 2.028 . S
Mg87 O92 2.032 . S
Mg87 O94 2.079 . S
C88 O85 1.250 . S
C88 O86 1.248 . S
C89 O90 1.264 . S
C89 O97 1.249 . S
O90 C89 1.264 . S
O91 Mg84 1.986 . S
O91 C95 1.246 . S
O92 Mg87 2.032 . S
O92 C95 1.259 . S
O93 Mg84 2.114 . S
O93 C96 1.252 . S
O94 Mg84 2.251 . S
O94 Mg87 2.079 . S
O94 C96 1.273 . S
C95 O91 1.246 . S
C95 O92 1.259 . S
C96 O93 1.252 . S
C96 O94 1.273 . S
O97 Mg84 2.010 . S
O97 C89 1.249 . S
Mg98 O99 2.028 . S
Mg98 O105 1.986 . S
Mg98 O107 2.114 . S
Mg98 O108 2.251 . S
Mg98 O111 2.010 . S
O99 Mg98 2.028 . S
O99 C102 1.250 . S
O100 Mg101 2.028 . S
O100 C102 1.248 . S
Mg101 O100 2.028 . S
Mg101 O106 2.032 . S
Mg101 O108 2.079 . S
C102 O99 1.250 . S
C102 O100 1.248 . S
C103 O104 1.264 . S
C103 O111 1.249 . S
O104 C103 1.264 . S
O105 Mg98 1.986 . S
O105 C109 1.246 . S
O106 Mg101 2.032 . S
O106 C109 1.259 . S
O107 Mg98 2.114 . S
O107 C110 1.252 . S
O108 Mg98 2.251 . S
O108 Mg101 2.079 . S
O108 C110 1.273 . S
C109 O105 1.246 . S
C109 O106 1.259 . S
C110 O107 1.252 . S
C110 O108 1.273 . S
O111 Mg98 2.010 . S
O111 C103 1.249 . S
Mg112 O113 2.028 . S
Mg112 O119 1.986 . S
Mg112 O121 2.114 . S
Mg112 O122 2.251 . S
Mg112 O125 2.010 . S
O113 Mg112 2.028 . S
O113 C116 1.250 . S
O114 Mg115 2.028 . S
O114 C116 1.248 . S
Mg115 O114 2.028 . S
Mg115 O120 2.032 . S
Mg115 O122 2.079 . S
C116 O113 1.250 . S
C116 O114 1.248 . S
C117 O118 1.264 . S
C117 O125 1.249 . S
O118 C117 1.264 . S
O119 Mg112 1.986 . S
O119 C123 1.246 . S
O120 Mg115 2.032 . S
O120 C123 1.259 . S
O121 Mg112 2.114 . S
O121 C124 1.252 . S
O122 Mg112 2.251 . S
O122 Mg115 2.079 . S
O122 C124 1.273 . S
C123 O119 1.246 . S
C123 O120 1.259 . S
C124 O121 1.252 . S
C124 O122 1.273 . S
O125 Mg112 2.010 . S
O125 C117 1.249 . S
Mg126 O127 2.028 . S
Mg126 O133 1.986 . S
Mg126 O135 2.114 . S
Mg126 O136 2.251 . S
Mg126 O139 2.010 . S
O127 Mg126 2.028 . S
O127 C130 1.250 . S
O128 Mg129 2.028 . S
O128 C130 1.248 . S
Mg129 O128 2.028 . S
Mg129 O134 2.032 . S
Mg129 O136 2.079 . S
C130 O127 1.250 . S
C130 O128 1.248 . S
C131 O132 1.264 . S
C131 O139 1.249 . S
O132 C131 1.264 . S
O133 Mg126 1.986 . S
O133 C137 1.246 . S
O134 Mg129 2.032 . S
O134 C137 1.259 . S
O135 Mg126 2.114 . S
O135 C138 1.252 . S
O136 Mg126 2.251 . S
O136 Mg129 2.079 . S
O136 C138 1.273 . S
C137 O133 1.246 . S
C137 O134 1.259 . S
C138 O135 1.252 . S
C138 O136 1.273 . S
O139 Mg126 2.010 . S
O139 C131 1.249 . S
Mg140 O141 2.028 . S
Mg140 O147 1.986 . S
Mg140 O149 2.114 . S
Mg140 O150 2.251 . S
Mg140 O153 2.010 . S
O141 Mg140 2.028 . S
O141 C144 1.250 . S
O142 Mg143 2.028 . S
O142 C144 1.248 . S
Mg143 O142 2.028 . S
Mg143 O148 2.032 . S
Mg143 O150 2.079 . S
C144 O141 1.250 . S
C144 O142 1.248 . S
C145 O146 1.264 . S
C145 O153 1.249 . S
O146 C145 1.264 . S
O147 Mg140 1.986 . S
O147 C151 1.246 . S
O148 Mg143 2.032 . S
O148 C151 1.259 . S
O149 Mg140 2.114 . S
O149 C152 1.252 . S
O150 Mg140 2.251 . S
O150 Mg143 2.079 . S
O150 C152 1.273 . S
C151 O147 1.246 . S
C151 O148 1.259 . S
C152 O149 1.252 . S
C152 O150 1.273 . S
O153 Mg140 2.010 . S
O153 C145 1.249 . S
Mg154 O155 2.028 . S
Mg154 O161 1.986 . S
Mg154 O163 2.114 . S
Mg154 O164 2.251 . S
Mg154 O167 2.010 . S
O155 Mg154 2.028 . S
O155 C158 1.250 . S
O156 Mg157 2.028 . S
O156 C158 1.248 . S
Mg157 O156 2.028 . S
Mg157 O162 2.032 . S
Mg157 O164 2.079 . S
C158 O155 1.250 . S
C158 O156 1.248 . S
C159 O160 1.264 . S
C159 O167 1.249 . S
O160 C159 1.264 . S
O161 Mg154 1.986 . S
O161 C165 1.246 . S
O162 Mg157 2.032 . S
O162 C165 1.259 . S
O163 Mg154 2.114 . S
O163 C166 1.252 . S
O164 Mg154 2.251 . S
O164 Mg157 2.079 . S
O164 C166 1.273 . S
C165 O161 1.246 . S
C165 O162 1.259 . S
C166 O163 1.252 . S
C166 O164 1.273 . S
O167 Mg154 2.010 . S
O167 C159 1.249 . S
H168 C174 0.930 . S
H169 C177 0.930 1_556 S
H170 C178 0.930 1_556 S
H171 C179 0.955 . S
H172 C182 0.930 . S
H173 C183 0.930 . S
C174 H168 0.930 . S
C174 C175 1.355 . S
C174 C176 1.415 . S
C175 C174 1.355 . S
C175 C177 1.419 . S
C176 C174 1.415 . S
C176 C181 1.425 . S
C176 C183 1.409 . S
C177 H169 0.930 1_554 S
C177 C175 1.419 . S
C177 C178 1.362 . S
C178 H170 0.930 1_554 S
C178 C177 1.362 . S
C178 C181 1.409 . S
C179 H171 0.955 . S
C179 C180 1.355 . S
C179 C181 1.415 . S
C180 C179 1.355 . S
C180 C182 1.419 . S
C181 C176 1.425 . S
C181 C178 1.409 . S
C181 C179 1.415 . S
C182 H172 0.930 . S
C182 C180 1.419 . S
C182 C183 1.362 . S
C183 H173 0.930 . S
C183 C176 1.409 . S
C183 C182 1.362 . S
H184 C190 0.930 . S
H185 C193 0.930 . S
H186 C194 0.930 . S
H187 C195 0.930 . S
H188 C198 0.930 . S
H189 C199 0.930 . S
C190 H184 0.930 . S
C190 C191 1.355 . S
C190 C192 1.415 . S
C191 C190 1.355 . S
C191 C193 1.419 . S
C192 C190 1.415 . S
C192 C197 1.425 1_455 S
C192 C199 1.409 . S
C193 H185 0.930 . S
C193 C191 1.419 . S
C193 C194 1.362 1_455 S
C194 H186 0.930 . S
C194 C193 1.362 1_655 S
C194 C197 1.409 . S
C195 H187 0.930 . S
C195 C196 1.355 . S
C195 C197 1.415 . S
C196 C195 1.355 . S
C196 C198 1.419 . S
C197 C192 1.425 1_655 S
C197 C194 1.409 . S
C197 C195 1.415 . S
C198 H188 0.930 . S
C198 C196 1.419 . S
C198 C199 1.362 1_655 S
C199 H189 0.930 . S
C199 C192 1.409 . S
C199 C198 1.362 1_455 S
H200 C206 0.930 . S
H201 C209 0.930 . S
H202 C210 0.930 . S
H203 C211 0.930 . S
H204 C214 0.930 . S
H205 C215 0.930 . S
C206 H200 0.930 . S
C206 C207 1.355 . S
C206 C208 1.415 . S
C207 C206 1.355 . S
C207 C209 1.419 1_565 S
C208 C206 1.415 . S
C208 C213 1.425 1_565 S
C208 C215 1.409 . S
C209 H201 0.930 . S
C209 C207 1.419 1_545 S
C209 C210 1.362 . S
C210 H202 0.930 . S
C210 C209 1.362 . S
C210 C213 1.409 . S
C211 H203 0.930 . S
C211 C212 1.355 . S
C211 C213 1.415 . S
C212 C211 1.355 . S
C212 C214 1.419 1_545 S
C213 C208 1.425 1_545 S
C213 C210 1.409 . S
C213 C211 1.415 . S
C214 H204 0.930 . S
C214 C212 1.419 1_565 S
C214 C215 1.362 . S
C215 H205 0.930 . S
C215 C208 1.409 . S
C215 C214 1.362 . S
H216 C222 0.930 . S
H217 C225 0.930 . S
H218 C226 0.930 . S
H219 C227 0.930 . S
H220 C230 0.930 . S
H221 C231 0.930 . S
C222 H216 0.930 . S
C222 C223 1.355 . S
C222 C224 1.415 . S
C223 C222 1.355 . S
C223 C225 1.419 . S
C224 C222 1.415 . S
C224 C229 1.425 . S
C224 C231 1.409 . S
C225 H217 0.930 . S
C225 C223 1.419 . S
C225 C226 1.362 . S
C226 H218 0.930 . S
C226 C225 1.362 . S
C226 C229 1.409 . S
C227 H219 0.930 . S
C227 C228 1.355 . S
C227 C229 1.415 . S
C228 C227 1.355 . S
C228 C230 1.419 . S
C229 C224 1.425 . S
C229 C226 1.409 . S
C229 C227 1.415 . S
C230 H220 0.930 . S
C230 C228 1.419 . S
C230 C231 1.362 . S
C231 H221 0.930 . S
C231 C224 1.409 . S
C231 C230 1.362 . S
H232 C238 0.930 1_554 S
H233 C241 0.930 . S
H234 C242 0.930 . S
H235 C243 0.930 . S
H236 C246 0.930 1_554 S
H237 C247 0.930 . S
C238 H232 0.930 1_556 S
C238 C239 1.355 . S
C238 C240 1.415 1_655 S
C239 C238 1.355 . S
C239 C241 1.419 . S
C240 C238 1.415 1_455 S
C240 C245 1.425 1_455 S
C240 C247 1.409 1_556 S
C241 H233 0.930 . S
C241 C239 1.419 . S
C241 C242 1.362 . S
C242 H234 0.930 . S
C242 C241 1.362 . S
C242 C245 1.409 . S
C243 H235 0.930 . S
C243 C244 1.355 . S
C243 C245 1.415 1_455 S
C244 C243 1.355 . S
C244 C246 1.419 . S
C245 C240 1.425 1_655 S
C245 C242 1.409 . S
C245 C243 1.415 1_655 S
C246 H236 0.930 1_556 S
C246 C244 1.419 . S
C246 C247 1.362 1_556 S
C247 H237 0.930 . S
C247 C240 1.409 1_554 S
C247 C246 1.362 1_554 S
H248 C254 0.930 . S
H249 C257 0.930 . S
H250 C258 0.930 . S
H251 C259 0.930 . S
H252 C262 0.930 . S
H253 C263 0.930 . S
C254 H248 0.930 . S
C254 C255 1.355 . S
C254 C256 1.415 . S
C255 C254 1.355 . S
C255 C257 1.419 1_545 S
C256 C254 1.415 . S
C256 C261 1.425 1_545 S
C256 C263 1.409 . S
C257 H249 0.930 . S
C257 C255 1.419 1_565 S
C257 C258 1.362 . S
C258 H250 0.930 . S
C258 C257 1.362 . S
C258 C261 1.409 . S
C259 H251 0.930 . S
C259 C260 1.355 . S
C259 C261 1.415 . S
C260 C259 1.355 . S
C260 C262 1.419 1_565 S
C261 C256 1.425 1_565 S
C261 C258 1.409 . S
C261 C259 1.415 . S
C262 H252 0.930 . S
C262 C260 1.419 1_545 S
C262 C263 1.362 . S
C263 H253 0.930 . S
C263 C256 1.409 . S
C263 C262 1.362 . S
H264 C270 0.930 . S
H265 C273 0.930 . S
H266 C274 0.930 . S
H267 C275 0.930 . S
H268 C278 0.930 . S
H269 C279 0.930 . S
C270 H264 0.930 . S
C270 C271 1.355 . S
C270 C272 1.415 . S
C271 C270 1.355 . S
C271 C273 1.419 . S
C272 C270 1.415 . S
C272 C277 1.425 . S
C272 C279 1.409 . S
C273 H265 0.930 . S
C273 C271 1.419 . S
C273 C274 1.362 . S
C274 H266 0.930 . S
C274 C273 1.362 . S
C274 C277 1.409 . S
C275 H267 0.930 . S
C275 C276 1.355 . S
C275 C277 1.415 . S
C276 C275 1.355 . S
C276 C278 1.419 . S
C277 C272 1.425 . S
C277 C274 1.409 . S
C277 C275 1.415 . S
C278 H268 0.930 . S
C278 C276 1.419 . S
C278 C279 1.362 . S
C279 H269 0.930 . S
C279 C272 1.409 . S
C279 C278 1.362 . S
H280 C286 0.930 . S
H281 C289 0.930 . S
H282 C290 0.930 . S
H283 C291 0.930 . S
H284 C294 0.930 . S
H285 C295 0.930 . S
C286 H280 0.930 . S
C286 C287 1.355 . S
C286 C288 1.415 . S
C287 C286 1.355 . S
C287 C289 1.419 . S
C288 C286 1.415 . S
C288 C293 1.425 . S
C288 C295 1.409 . S
C289 H281 0.930 . S
C289 C287 1.419 . S
C289 C290 1.362 . S
C290 H282 0.930 . S
C290 C289 1.362 . S
C290 C293 1.409 . S
C291 H283 0.930 . S
C291 C292 1.355 . S
C291 C293 1.415 . S
C292 C291 1.355 . S
C292 C294 1.419 . S
C293 C288 1.425 . S
C293 C290 1.409 . S
C293 C291 1.415 . S
C294 H284 0.930 . S
C294 C292 1.419 . S
C294 C295 1.362 . S
C295 H285 0.930 . S
C295 C288 1.409 . S
C295 C294 1.362 . S
H296 C302 0.930 . S
H297 C305 0.930 . S
H298 C306 0.930 . S
H299 C307 0.930 . S
H300 C310 0.930 . S
H301 C311 0.930 . S
C302 H296 0.930 . S
C302 C303 1.355 . S
C302 C304 1.415 . S
C303 C302 1.355 . S
C303 C305 1.419 . S
C304 C302 1.415 . S
C304 C309 1.425 . S
C304 C311 1.409 . S
C305 H297 0.930 . S
C305 C303 1.419 . S
C305 C306 1.362 . S
C306 H298 0.930 . S
C306 C305 1.362 . S
C306 C309 1.409 . S
C307 H299 0.930 . S
C307 C308 1.355 . S
C307 C309 1.415 . S
C308 C307 1.355 . S
C308 C310 1.419 . S
C309 C304 1.425 . S
C309 C306 1.409 . S
C309 C307 1.415 . S
C310 H300 0.930 . S
C310 C308 1.419 . S
C310 C311 1.362 . S
C311 H301 0.930 . S
C311 C304 1.409 . S
C311 C310 1.362 . S
H312 C318 0.930 . S
H313 C321 0.930 . S
H314 C322 0.930 . S
H315 C323 0.930 . S
H316 C326 0.930 . S
H317 C327 0.930 . S
C318 H312 0.930 . S
C318 C319 1.355 . S
C318 C320 1.415 . S
C319 C318 1.355 . S
C319 C321 1.419 . S
C320 C318 1.415 . S
C320 C325 1.425 . S
C320 C327 1.409 . S
C321 H313 0.930 . S
C321 C319 1.419 . S
C321 C322 1.362 . S
C322 H314 0.930 . S
C322 C321 1.362 . S
C322 C325 1.409 . S
C323 H315 0.930 . S
C323 C324 1.355 . S
C323 C325 1.415 . S
C324 C323 1.355 . S
C324 C326 1.419 . S
C325 C320 1.425 . S
C325 C322 1.409 . S
C325 C323 1.415 . S
C326 H316 0.930 . S
C326 C324 1.419 . S
C326 C327 1.362 . S
C327 H317 0.930 . S
C327 C320 1.409 . S
C327 C326 1.362 . S
H328 C334 0.930 . S
H329 C337 0.930 . S
H330 C338 0.930 . S
H331 C339 0.930 . S
H332 C342 0.930 . S
H333 C343 0.930 . S
C334 H328 0.930 . S
C334 C335 1.355 . S
C334 C336 1.415 . S
C335 C334 1.355 . S
C335 C337 1.419 . S
C336 C334 1.415 . S
C336 C341 1.425 . S
C336 C343 1.409 . S
C337 H329 0.930 . S
C337 C335 1.419 . S
C337 C338 1.362 . S
C338 H330 0.930 . S
C338 C337 1.362 . S
C338 C341 1.409 . S
C339 H331 0.930 . S
C339 C340 1.355 . S
C339 C341 1.415 . S
C340 C339 1.355 . S
C340 C342 1.419 . S
C341 C336 1.425 . S
C341 C338 1.409 . S
C341 C339 1.415 . S
C342 H332 0.930 . S
C342 C340 1.419 . S
C342 C343 1.362 . S
C343 H333 0.930 . S
C343 C336 1.409 . S
C343 C342 1.362 . S
H344 C350 0.930 . S
H345 C353 0.930 . S
H346 C354 0.930 . S
H347 C355 0.930 . S
H348 C358 0.930 . S
H349 C359 0.930 . S
C350 H344 0.930 . S
C350 C351 1.355 . S
C350 C352 1.415 . S
C351 C350 1.355 . S
C351 C353 1.419 . S
C352 C350 1.415 . S
C352 C357 1.425 . S
C352 C359 1.409 . S
C353 H345 0.930 . S
C353 C351 1.419 . S
C353 C354 1.362 . S
C354 H346 0.930 . S
C354 C353 1.362 . S
C354 C357 1.409 . S
C355 H347 0.930 . S
C355 C356 1.355 . S
C355 C357 1.415 . S
C356 C355 1.355 . S
C356 C358 1.419 . S
C357 C352 1.425 . S
C357 C354 1.409 . S
C357 C355 1.415 . S
C358 H348 0.930 . S
C358 C356 1.419 . S
C358 C359 1.362 . S
C359 H349 0.930 . S
C359 C352 1.409 . S
C359 C358 1.362 . S
H360 C366 0.930 . S
H361 C369 0.930 . S
H362 C370 0.930 . S
H363 C371 0.930 . S
H364 C374 0.930 . S
H365 C375 0.930 . S
C366 H360 0.930 . S
C366 C367 1.355 1_554 S
C366 C368 1.415 . S
C367 C366 1.355 1_556 S
C367 C369 1.419 . S
C368 C366 1.415 . S
C368 C373 1.425 1_564 S
C368 C375 1.409 1_565 S
C369 H361 0.930 . S
C369 C367 1.419 . S
C369 C370 1.362 . S
C370 H362 0.930 . S
C370 C369 1.362 . S
C370 C373 1.409 1_565 S
C371 H363 0.930 . S
C371 C372 1.355 1_556 S
C371 C373 1.415 . S
C372 C371 1.355 1_554 S
C372 C374 1.419 . S
C373 C368 1.425 1_546 S
C373 C370 1.409 1_545 S
C373 C371 1.415 . S
C374 H364 0.930 . S
C374 C372 1.419 . S
C374 C375 1.362 . S
C375 H365 0.930 . S
C375 C368 1.409 1_545 S
C375 C374 1.362 . S
H376 C382 0.930 . S
H377 C385 0.930 . S
H378 C386 0.930 . S
H379 C387 0.930 . S
H380 C390 0.930 . S
H381 C391 0.930 . S
C382 H376 0.930 . S
C382 C383 1.355 . S
C382 C384 1.415 . S
C383 C382 1.355 . S
C383 C385 1.419 . S
C384 C382 1.415 . S
C384 C389 1.425 . S
C384 C391 1.409 . S
C385 H377 0.930 . S
C385 C383 1.419 . S
C385 C386 1.362 . S
C386 H378 0.930 . S
C386 C385 1.362 . S
C386 C389 1.409 . S
C387 H379 0.930 . S
C387 C388 1.355 . S
C387 C389 1.415 . S
C388 C387 1.355 . S
C388 C390 1.419 . S
C389 C384 1.425 . S
C389 C386 1.409 . S
C389 C387 1.415 . S
C390 H380 0.930 . S
C390 C388 1.419 . S
C390 C391 1.362 . S
C391 H381 0.930 . S
C391 C384 1.409 . S
C391 C390 1.362 . S
H392 C398 0.930 . S
H393 C401 0.930 . S
H394 C402 0.930 . S
H395 C403 0.930 . S
H396 C406 0.930 . S
H397 C407 0.930 . S
C398 H392 0.930 . S
C398 C399 1.355 . S
C398 C400 1.415 . S
C399 C398 1.355 . S
C399 C401 1.419 . S
C400 C398 1.415 . S
C400 C405 1.425 1_655 S
C400 C407 1.409 1_655 S
C401 H393 0.930 . S
C401 C399 1.419 . S
C401 C402 1.362 . S
C402 H394 0.930 . S
C402 C401 1.362 . S
C402 C405 1.409 1_655 S
C403 H395 0.930 . S
C403 C404 1.355 . S
C403 C405 1.415 . S
C404 C403 1.355 . S
C404 C406 1.419 . S
C405 C400 1.425 1_455 S
C405 C402 1.409 1_455 S
C405 C403 1.415 . S
C406 H396 0.930 . S
C406 C404 1.419 . S
C406 C407 1.362 . S
C407 H397 0.930 . S
C407 C400 1.409 1_455 S
C407 C406 1.362 . S
H408 C414 0.930 . S
H409 C417 0.930 . S
H410 C418 0.930 . S
H411 C419 0.930 . S
H412 C422 0.930 . S
H413 C423 0.930 . S
C414 H408 0.930 . S
C414 C415 1.355 . S
C414 C416 1.415 . S
C415 C414 1.355 . S
C415 C417 1.419 1_554 S
C416 C414 1.415 . S
C416 C421 1.425 1_564 S
C416 C423 1.409 1_565 S
C417 H409 0.930 . S
C417 C415 1.419 1_556 S
C417 C418 1.362 . S
C418 H410 0.930 . S
C418 C417 1.362 . S
C418 C421 1.409 1_565 S
C419 H411 0.930 . S
C419 C420 1.355 . S
C419 C421 1.415 . S
C420 C419 1.355 . S
C420 C422 1.419 1_556 S
C421 C416 1.425 1_546 S
C421 C418 1.409 1_545 S
C421 C419 1.415 . S
C422 H412 0.930 . S
C422 C420 1.419 1_554 S
C422 C423 1.362 . S
C423 H413 0.930 . S
C423 C416 1.409 1_545 S
C423 C422 1.362 . S
H424 C430 0.930 . S
H425 C433 0.930 . S
H426 C434 0.930 . S
H427 C435 0.930 . S
H428 C438 0.930 . S
H429 C439 0.930 . S
C430 H424 0.930 . S
C430 C431 1.355 . S
C430 C432 1.415 . S
C431 C430 1.355 . S
C431 C433 1.419 . S
C432 C430 1.415 . S
C432 C437 1.425 . S
C432 C439 1.409 . S
C433 H425 0.930 . S
C433 C431 1.419 . S
C433 C434 1.362 . S
C434 H426 0.930 . S
C434 C433 1.362 . S
C434 C437 1.409 . S
C435 H427 0.930 . S
C435 C436 1.355 . S
C435 C437 1.415 . S
C436 C435 1.355 . S
C436 C438 1.419 . S
C437 C432 1.425 . S
C437 C434 1.409 . S
C437 C435 1.415 . S
C438 H428 0.930 . S
C438 C436 1.419 . S
C438 C439 1.362 . S
C439 H429 0.930 . S
C439 C432 1.409 . S
C439 C438 1.362 . S
H440 C446 0.930 . S
H441 C449 0.930 . S
H442 C450 0.930 . S
H443 C451 0.930 . S
H444 C454 0.930 . S
H445 C455 0.930 . S
C446 H440 0.930 . S
C446 C447 1.355 . S
C446 C448 1.415 . S
C447 C446 1.355 . S
C447 C449 1.419 . S
C448 C446 1.415 . S
C448 C453 1.425 1_455 S
C448 C455 1.409 1_455 S
C449 H441 0.930 . S
C449 C447 1.419 . S
C449 C450 1.362 . S
C450 H442 0.930 . S
C450 C449 1.362 . S
C450 C453 1.409 1_455 S
C451 H443 0.930 . S
C451 C452 1.355 . S
C451 C453 1.415 . S
C452 C451 1.355 . S
C452 C454 1.419 . S
C453 C448 1.425 1_655 S
C453 C450 1.409 1_655 S
C453 C451 1.415 . S
C454 H444 0.930 . S
C454 C452 1.419 . S
C454 C455 1.362 . S
C455 H445 0.930 . S
C455 C448 1.409 1_655 S
C455 C454 1.362 . S
H456 C462 0.930 . S
H457 C465 0.930 . S
H458 C466 0.930 . S
H459 C467 0.930 . S
H460 C470 0.930 . S
H461 C471 0.930 . S
C462 H456 0.930 . S
C462 C463 1.355 . S
C462 C464 1.415 . S
C463 C462 1.355 . S
C463 C465 1.419 1_556 S
C464 C462 1.415 . S
C464 C469 1.425 1_556 S
C464 C471 1.409 . S
C465 H457 0.930 . S
C465 C463 1.419 1_554 S
C465 C466 1.362 . S
C466 H458 0.930 . S
C466 C465 1.362 . S
C466 C469 1.409 . S
C467 H459 0.930 . S
C467 C468 1.355 . S
C467 C469 1.415 . S
C468 C467 1.355 . S
C468 C470 1.419 1_554 S
C469 C464 1.425 1_554 S
C469 C466 1.409 . S
C469 C467 1.415 . S
C470 H460 0.930 . S
C470 C468 1.419 1_556 S
C470 C471 1.362 . S
C471 H461 0.930 . S
C471 C464 1.409 . S
C471 C470 1.362 . S
H472 C478 0.930 . S
H473 C481 0.930 . S
H474 C482 0.930 . S
H475 C483 0.930 . S
H476 C486 0.930 1_455 S
H477 C487 0.930 . S
C478 H472 0.930 . S
C478 C479 1.355 . S
C478 C480 1.415 . S
C479 C478 1.355 . S
C479 C481 1.419 . S
C480 C478 1.415 . S
C480 C485 1.425 . S
C480 C487 1.409 . S
C481 H473 0.930 . S
C481 C479 1.419 . S
C481 C482 1.362 . S
C482 H474 0.930 . S
C482 C481 1.362 . S
C482 C485 1.409 . S
C483 H475 0.930 . S
C483 C484 1.355 . S
C483 C485 1.415 . S
C484 C483 1.355 . S
C484 C486 1.419 . S
C485 C480 1.425 . S
C485 C482 1.409 . S
C485 C483 1.415 . S
C486 H476 0.930 1_655 S
C486 C484 1.419 . S
C486 C487 1.362 . S
C487 H477 0.930 . S
C487 C480 1.409 . S
C487 C486 1.362 . S
H488 C494 0.930 . S
H489 C497 0.930 . S
H490 C498 0.930 . S
H491 C499 0.930 . S
H492 C502 0.930 . S
H493 C503 0.930 . S
C494 H488 0.930 . S
C494 C495 1.355 . S
C494 C496 1.415 . S
C495 C494 1.355 . S
C495 C497 1.419 . S
C496 C494 1.415 . S
C496 C501 1.425 . S
C496 C503 1.409 . S
C497 H489 0.930 . S
C497 C495 1.419 . S
C497 C498 1.362 . S
C498 H490 0.930 . S
C498 C497 1.362 . S
C498 C501 1.409 . S
C499 H491 0.930 . S
C499 C500 1.355 . S
C499 C501 1.415 . S
C500 C499 1.355 . S
C500 C502 1.419 . S
C501 C496 1.425 . S
C501 C498 1.409 . S
C501 C499 1.415 . S
C502 H492 0.930 . S
C502 C500 1.419 . S
C502 C503 1.362 . S
C503 H493 0.930 . S
C503 C496 1.409 . S
C503 C502 1.362 . S
H504 C510 0.930 . S
H505 C513 0.930 . S
H506 C514 0.930 . S
H507 C515 0.930 . S
H508 C518 0.930 1_455 S
H509 C519 0.930 . S
C510 H504 0.930 . S
C510 C511 1.355 . S
C510 C512 1.415 . S
C511 C510 1.355 . S
C511 C513 1.419 . S
C512 C510 1.415 . S
C512 C517 1.425 1_554 S
C512 C519 1.409 1_554 S
C513 H505 0.930 . S
C513 C511 1.419 . S
C513 C514 1.362 . S
C514 H506 0.930 . S
C514 C513 1.362 . S
C514 C517 1.409 1_554 S
C515 H507 0.930 . S
C515 C516 1.355 . S
C515 C517 1.415 . S
C516 C515 1.355 . S
C516 C518 1.419 . S
C517 C512 1.425 1_556 S
C517 C514 1.409 1_556 S
C517 C515 1.415 . S
C518 H508 0.930 1_655 S
C518 C516 1.419 . S
C518 C519 1.362 . S
C519 H509 0.930 . S
C519 C512 1.409 1_556 S
C519 C518 1.362 . S
H520 C526 0.930 . S
H521 C529 0.930 1_655 S
H522 C530 0.930 . S
H523 C531 0.930 . S
H524 C534 0.930 . S
H525 C535 0.930 . S
C526 H520 0.930 . S
C526 C527 1.355 . S
C526 C528 1.415 . S
C527 C526 1.355 . S
C527 C529 1.419 . S
C528 C526 1.415 . S
C528 C533 1.425 . S
C528 C535 1.409 . S
C529 H521 0.930 1_455 S
C529 C527 1.419 . S
C529 C530 1.362 . S
C530 H522 0.930 . S
C530 C529 1.362 . S
C530 C533 1.409 . S
C531 H523 0.930 . S
C531 C532 1.355 . S
C531 C533 1.415 . S
C532 C531 1.355 . S
C532 C534 1.419 . S
C533 C528 1.425 . S
C533 C530 1.409 . S
C533 C531 1.415 . S
C534 H524 0.930 . S
C534 C532 1.419 . S
C534 C535 1.362 . S
C535 H525 0.930 . S
C535 C528 1.409 . S
C535 C534 1.362 . S
H536 C542 0.930 . S
H537 C545 0.930 . S
H538 C546 0.930 . S
H539 C547 0.930 . S
H540 C550 0.930 . S
H541 C551 0.930 . S
C542 H536 0.930 . S
C542 C543 1.355 . S
C542 C544 1.415 . S
C543 C542 1.355 . S
C543 C545 1.419 . S
C544 C542 1.415 . S
C544 C549 1.425 . S
C544 C551 1.409 . S
C545 H537 0.930 . S
C545 C543 1.419 . S
C545 C546 1.362 . S
C546 H538 0.930 . S
C546 C545 1.362 . S
C546 C549 1.409 . S
C547 H539 0.930 . S
C547 C548 1.355 . S
C547 C549 1.415 . S
C548 C547 1.355 . S
C548 C550 1.419 . S
C549 C544 1.425 . S
C549 C546 1.409 . S
C549 C547 1.415 . S
C550 H540 0.930 . S
C550 C548 1.419 . S
C550 C551 1.362 . S
C551 H541 0.930 . S
C551 C544 1.409 . S
C551 C550 1.362 . S
C175 C47 1.423 . S
C180 C5 1.402 . S
C191 C19 1.355 . S
C196 C61 1.404 . S
C207 C75 1.415 . S
C212 C33 1.419 . S
C223 C89 1.390 . S
C228 C131 1.422 . S
C239 C145 1.319 . S
C244 C103 1.350 . S
C255 C117 1.410 . S
C260 C159 1.422 . S
C271 C123 1.531 . S
C276 C11 1.501 . S
C287 C25 1.528 . S
C292 C137 1.497 . S
C303 C39 1.498 . S
C308 C151 1.491 . S
C319 C53 1.532 . S
C324 C165 1.502 . S
C335 C95 1.488 . S
C340 C67 1.514 . S
C351 C109 1.506 . S
C356 C81 1.488 . S
C367 C110 0.967 . S
C372 C12 1.018 . S
C383 C26 0.968 . S
C388 C124 0.993 . S
C399 C40 0.966 . S
C404 C138 1.013 . S
C415 C54 1.064 . S
C420 C152 1.003 . S
C431 C166 1.003 . S
C436 C68 0.966 . S
C447 C82 0.966 . S
C452 C96 1.013 . S
C463 C144 1.350 1_455 S
C468 C4 1.326 . S
C479 C158 1.373 1_545 S
C484 C18 1.307 1_655 S
C495 C88 1.340 . S
C500 C32 1.357 1_565 S
C511 C46 1.376 . S
C516 C102 1.306 1_655 S
C527 C60 1.310 1_455 S
C532 C116 1.379 1_565 S
C543 C74 1.350 1_545 S
C548 C130 1.325 . S
