# Generated by pormake.
# Topology rac, (4)-cn, num edge types: 1
# Building blocks:
#     Node 0, Type 0, BuildingBlock: ICAMEG_clean_sbu_1, # of connection points: 4
#     Node 1, Type 0, BuildingBlock: ICAMEG_clean_sbu_1, # of connection points: 4
#     Node 2, Type 0, BuildingBlock: ICAMEG_clean_sbu_1, # of connection points: 4
#     Node 3, Type 0, BuildingBlock: ICAMEG_clean_sbu_1, # of connection points: 4
#     Node 4, Type 0, BuildingBlock: ICAMEG_clean_sbu_1, # of connection points: 4
#     Node 5, Type 0, BuildingBlock: ICAMEG_clean_sbu_1, # of connection points: 4
#     Node 6, Type 0, BuildingBlock: ICAMEG_clean_sbu_1, # of connection points: 4
#     Node 7, Type 0, BuildingBlock: ICAMEG_clean_sbu_1, # of connection points: 4
#     Edge 8, Type (0, 0), BuildingBlock: OJICUG_clean_linker_0, # of connection points: 2
#     Edge 9, Type (0, 0), BuildingBlock: OJICUG_clean_linker_0, # of connection points: 2
#     Edge 10, Type (0, 0), BuildingBlock: OJICUG_clean_linker_0, # of connection points: 2
#     Edge 11, Type (0, 0), BuildingBlock: OJICUG_clean_linker_0, # of connection points: 2
#     Edge 12, Type (0, 0), BuildingBlock: OJICUG_clean_linker_0, # of connection points: 2
#     Edge 13, Type (0, 0), BuildingBlock: OJICUG_clean_linker_0, # of connection points: 2
#     Edge 14, Type (0, 0), BuildingBlock: OJICUG_clean_linker_0, # of connection points: 2
#     Edge 15, Type (0, 0), BuildingBlock: OJICUG_clean_linker_0, # of connection points: 2
#     Edge 16, Type (0, 0), BuildingBlock: OJICUG_clean_linker_0, # of connection points: 2
#     Edge 17, Type (0, 0), BuildingBlock: OJICUG_clean_linker_0, # of connection points: 2
#     Edge 18, Type (0, 0), BuildingBlock: OJICUG_clean_linker_0, # of connection points: 2
#     Edge 19, Type (0, 0), BuildingBlock: OJICUG_clean_linker_0, # of connection points: 2
#     Edge 20, Type (0, 0), BuildingBlock: OJICUG_clean_linker_0, # of connection points: 2
#     Edge 21, Type (0, 0), BuildingBlock: OJICUG_clean_linker_0, # of connection points: 2
#     Edge 22, Type (0, 0), BuildingBlock: OJICUG_clean_linker_0, # of connection points: 2
#     Edge 23, Type (0, 0), BuildingBlock: OJICUG_clean_linker_0, # of connection points: 2
# Relax obj value: 0.285
# Max RMSD: 0.142
# Mean RMSD: 0.142
data_MOF--net-rac--node1-ICAMEG_clean_sbu_1--edge1-OJICUG_clean_linker_0
_symmetry_space_group_name_H-M    P1
_symmetry_Int_Tables_number       1
_symmetry_cell_setting            triclinic
loop_
_symmetry_equiv_pos_as_xyz
'x, y, z'
_cell_length_a     33.444317
_cell_length_b     15.117768
_cell_length_c     31.737465
_cell_angle_alpha  89.994797
_cell_angle_beta   90.022431
_cell_angle_gamma 89.883646
loop_
_atom_site_label
_atom_site_type_symbol
_atom_site_fract_x
_atom_site_fract_y
_atom_site_fract_z
_atom_type_partial_charge
Co0 Co 0.34677 0.31789 0.09072 0.0
Co1 Co 0.39354 0.24974 0.00194 0.0
O2 O 0.39527 0.29724 0.05875 0.0
C3 C 0.39894 0.23723 0.15757 0.0
O4 O 0.40408 0.16449 0.13559 0.0
C5 C 0.44377 0.40968 -0.00295 0.0
O6 O 0.41285 0.45125 0.01302 0.0
O7 O 0.35643 0.34652 0.98438 0.0
O8 O 0.31385 0.34061 0.0386 0.0
H9 H 0.32737 0.151 0.86791 0.0
H10 H 0.41972 0.41725 0.11518 0.0
O11 O 0.3772 0.2995 0.14371 0.0
H12 H 0.32534 0.64122 0.06242 0.0
H13 H 0.27121 0.42707 0.21744 0.0
H14 H 0.26396 0.24758 0.08813 0.0
H15 H 0.30377 0.48683 0.07201 0.0
H16 H 0.32817 0.42187 0.16825 0.0
O17 O 0.44094 0.32751 0.98794 0.0
H18 H 0.32935 0.20821 0.94072 0.0
H19 H 0.45621 0.19647 0.94031 0.0
H20 H 0.20676 0.24962 0.13699 0.0
H21 H 0.44062 0.573 0.11193 0.0
H22 H 0.20989 0.34112 0.20186 0.0
H23 H 0.39358 0.68619 0.08416 0.0
O24 O 0.334 0.18989 0.08586 0.0
H25 H 0.51632 0.12569 0.07206 0.0
H26 H 0.39495 0.05381 0.99082 0.0
H27 H 0.44091 0.93394 0.01198 0.0
H28 H 0.50222 0.96966 0.0527 0.0
H29 H 0.46939 0.24347 0.05056 0.0
H30 H 0.45568 0.13981 0.86739 0.0
H31 H 0.39088 0.11639 0.83079 0.0
O32 O 0.3461 0.17078 0.0167 0.0
C33 C 0.32324 0.36636 0.00161 0.0
C34 C 0.35578 0.16067 0.88357 0.0
C35 C 0.4278 0.15453 0.88325 0.0
N36 N 0.39282 0.20492 0.94477 0.0
C37 C 0.35707 0.1928 0.92481 0.0
C38 C 0.42793 0.18683 0.92448 0.0
C39 C 0.39143 0.14135 0.86274 0.0
C40 C 0.39822 0.46661 0.10547 0.0
N41 N 0.36039 0.44264 0.09369 0.0
C42 C 0.4105 0.5547 0.10306 0.0
C43 C 0.38415 0.61809 0.08742 0.0
C44 C 0.34568 0.59313 0.07566 0.0
C45 C 0.33381 0.50528 0.08045 0.0
C46 C 0.26917 0.3887 0.18877 0.0
C47 C 0.26569 0.2875 0.11629 0.0
C48 C 0.30126 0.38574 0.16064 0.0
N49 N 0.2993 0.33535 0.12492 0.0
C50 C 0.23315 0.28836 0.14388 0.0
C51 C 0.23488 0.33978 0.18022 0.0
C52 C 0.32921 0.14731 0.05138 0.0
C53 C 0.48973 0.10933 0.05427 0.0
C54 C 0.42141 0.06983 0.0088 0.0
C55 C 0.44738 1.00168 0.02061 0.0
C56 C 0.48177 0.02176 0.04346 0.0
N57 N 0.42959 0.15566 0.01923 0.0
C58 C 0.4631 0.17577 0.0419 0.0
Co59 Co 0.19364 0.69303 0.09039 0.0
Co60 Co 0.14673 0.76106 0.00168 0.0
O61 O 0.14508 0.71327 0.05843 0.0
C62 C 0.14131 0.77221 0.15755 0.0
O63 O 0.13614 0.84553 0.136 0.0
C64 C 0.09677 0.60074 -0.00343 0.0
O65 O 0.12777 0.55929 0.01245 0.0
O66 O 0.18402 0.66464 0.98407 0.0
O67 O 0.22662 0.67124 0.03827 0.0
H68 H 0.21273 0.86101 0.86781 0.0
H69 H 0.12095 0.59246 0.1145 0.0
O70 O 0.16314 0.71042 0.14339 0.0
H71 H 0.21607 0.37023 0.06165 0.0
H72 H 0.26952 0.58454 0.21711 0.0
H73 H 0.2763 0.76417 0.08781 0.0
H74 H 0.23718 0.52486 0.07156 0.0
H75 H 0.21254 0.58902 0.16787 0.0
O76 O 0.09945 0.68298 0.98757 0.0
H77 H 0.21085 0.80338 0.94055 0.0
H78 H 0.08397 0.81415 0.94006 0.0
H79 H 0.3335 0.76281 0.1367 0.0
H80 H 0.1005 0.43646 0.11092 0.0
H81 H 0.33061 0.6713 0.20159 0.0
H82 H 0.1479 0.32416 0.08307 0.0
O83 O 0.20604 0.82126 0.08574 0.0
H84 H 0.02381 0.88384 0.07194 0.0
H85 H 0.14499 0.95702 0.99072 0.0
H86 H 0.09887 0.07645 0.01204 0.0
H87 H 0.03767 0.04007 0.05276 0.0
H88 H 0.07089 0.76651 0.05028 0.0
H89 H 0.0844 0.87122 0.86721 0.0
H90 H 0.14916 0.89534 0.83068 0.0
O91 O 0.19403 0.84034 0.01655 0.0
C92 C 0.21726 0.64522 0.00131 0.0
C93 C 0.18433 0.85103 0.88343 0.0
C94 C 0.1123 0.85662 0.88307 0.0
N95 N 0.14737 0.80615 0.94456 0.0
C96 C 0.1831 0.81866 0.92463 0.0
C97 C 0.11223 0.82409 0.92426 0.0
C98 C 0.14865 0.87019 0.8626 0.0
C99 C 0.14261 0.54347 0.10477 0.0
N100 N 0.18039 0.56808 0.09314 0.0
C101 C 0.13058 0.45525 0.10216 0.0
C102 C 0.15713 0.39235 0.08649 0.0
C103 C 0.19556 0.41794 0.0749 0.0
C104 C 0.20717 0.50591 0.07988 0.0
C105 C 0.27145 0.62295 0.18845 0.0
C106 C 0.27467 0.72422 0.11596 0.0
C107 C 0.23935 0.62552 0.16029 0.0
N108 N 0.24118 0.676 0.12458 0.0
C109 C 0.30721 0.72377 0.14359 0.0
C110 C 0.30561 0.67233 0.17993 0.0
C111 C 0.21082 0.86393 0.05128 0.0
C112 C 0.05036 0.90049 0.05415 0.0
C113 C 0.11856 0.94072 0.0087 0.0
C114 C 0.09251 0.00861 0.02059 0.0
C115 C 0.05818 0.98816 0.04345 0.0
N116 N 0.11052 0.85478 0.01903 0.0
C117 C 0.07707 0.8343 0.04169 0.0
Co118 Co 0.34693 0.18789 0.40139 0.0
Co119 Co 0.39392 0.25445 0.49023 0.0
O120 O 0.39551 0.20786 0.43329 0.0
C121 C 0.399 0.26837 0.33456 0.0
O122 O 0.40416 0.34102 0.35658 0.0
C123 C 0.44414 0.0936 0.49449 0.0
O124 O 0.413 0.05212 0.4791 0.0
O125 O 0.35678 0.15788 0.50754 0.0
O126 O 0.31406 0.16521 0.45348 0.0
H127 H 0.32809 0.35219 0.62466 0.0
H128 H 0.41986 0.08796 0.3768 0.0
O129 O 0.37727 0.20626 0.34839 0.0
H130 H 0.32552 0.86471 0.42944 0.0
H131 H 0.27097 0.07907 0.27491 0.0
H132 H 0.26421 0.25957 0.40394 0.0
H133 H 0.30393 0.01928 0.41989 0.0
H134 H 0.32809 0.08399 0.32393 0.0
O135 O 0.44135 0.17577 0.50373 0.0
H136 H 0.32988 0.29625 0.55162 0.0
H137 H 0.45677 0.30525 0.55209 0.0
H138 H 0.20695 0.2582 0.35513 0.0
H139 H 0.44079 0.93204 0.38004 0.0
H140 H 0.20981 0.16614 0.29042 0.0
H141 H 0.39377 0.8192 0.40773 0.0
O142 O 0.33424 0.31598 0.40655 0.0
H143 H 0.51736 0.3778 0.42167 0.0
H144 H 0.39555 0.4501 0.50223 0.0
H145 H 0.44222 0.5694 0.48267 0.0
H146 H 0.50386 0.5334 0.44248 0.0
H147 H 0.46974 0.26063 0.44159 0.0
H148 H 0.45643 0.36059 0.62524 0.0
H149 H 0.39171 0.38475 0.66193 0.0
O150 O 0.34646 0.33438 0.47576 0.0
C151 C 0.3235 0.13888 0.49037 0.0
C152 C 0.35647 0.34219 0.60896 0.0
C153 C 0.4285 0.34676 0.60932 0.0
N154 N 0.39336 0.29825 0.54758 0.0
C155 C 0.35765 0.31079 0.56759 0.0
C156 C 0.42852 0.3152 0.56796 0.0
C157 C 0.39218 0.36035 0.62987 0.0
C158 C 0.39836 0.03876 0.38648 0.0
N159 N 0.36054 0.06303 0.39825 0.0
C160 C 0.41067 0.95058 0.38888 0.0
C161 C 0.38433 0.88737 0.40447 0.0
C162 C 0.34585 0.91263 0.41621 0.0
C163 C 0.33397 1.00058 0.41144 0.0
C164 C 0.26906 0.11776 0.30349 0.0
C165 C 0.26586 0.21954 0.37582 0.0
C166 C 0.30123 0.12052 0.33154 0.0
N167 N 0.29939 0.17113 0.36721 0.0
C168 C 0.23327 0.21903 0.34826 0.0
C169 C 0.23486 0.16729 0.31201 0.0
C170 C 0.32949 0.35831 0.44113 0.0
C171 C 0.49068 0.39427 0.43932 0.0
C172 C 0.42209 0.43402 0.48435 0.0
C173 C 0.44848 0.50182 0.47349 0.0
C174 C 0.48306 0.48158 0.45094 0.0
N175 N 0.43005 0.34835 0.47333 0.0
C176 C 0.46363 0.32817 0.45076 0.0
Co177 Co 0.19394 0.81323 0.40146 0.0
Co178 Co 0.1465 0.74691 0.48999 0.0
O179 O 0.14517 0.79387 0.4331 0.0
C180 C 0.14146 0.73518 0.33421 0.0
O181 O 0.13572 0.66233 0.35592 0.0
C182 C 0.09658 0.90825 0.4943 0.0
O183 O 0.12783 0.94961 0.47912 0.0
O184 O 0.18381 0.84303 0.50753 0.0
O185 O 0.22673 0.83466 0.45374 0.0
H186 H 0.21175 0.64763 0.62453 0.0
H187 H 0.12146 0.91484 0.37696 0.0
O188 O 0.16369 0.79617 0.34829 0.0
H189 H 0.21668 0.13569 0.43017 0.0
H190 H 0.2708 0.92106 0.27544 0.0
H191 H 0.27643 0.74037 0.40449 0.0
H192 H 0.23764 0.98077 0.42034 0.0
H193 H 0.21347 0.91712 0.32418 0.0
O194 O 0.0992 0.82599 0.50342 0.0
H195 H 0.21028 0.70409 0.55157 0.0
H196 H 0.08337 0.69639 0.55154 0.0
H197 H 0.33388 0.7408 0.35598 0.0
H198 H 0.10115 0.07112 0.38051 0.0
H199 H 0.33158 0.83287 0.29124 0.0
H200 H 0.14861 0.18274 0.40854 0.0
O201 O 0.20608 0.68483 0.4064 0.0
H202 H 0.02297 0.6253 0.4208 0.0
H203 H 0.14438 0.55122 0.50177 0.0
H204 H 0.09748 0.43255 0.48191 0.0
H205 H 0.03605 0.46945 0.44152 0.0
H206 H 0.07081 0.74183 0.44103 0.0
H207 H 0.0834 0.64053 0.6246 0.0
H208 H 0.14796 0.61546 0.66151 0.0
O209 O 0.19381 0.66654 0.47559 0.0
C210 C 0.21723 0.86142 0.49053 0.0
C211 C 0.18344 0.65804 0.60874 0.0
C212 C 0.11139 0.6542 0.60881 0.0
N213 N 0.14681 0.70278 0.54729 0.0
C214 C 0.18244 0.68974 0.56742 0.0
C215 C 0.11156 0.68605 0.5675 0.0
C216 C 0.14763 0.64009 0.62949 0.0
C217 C 0.14315 0.96352 0.38677 0.0
N218 N 0.18087 0.93838 0.39854 0.0
C219 C 0.1312 0.0519 0.38936 0.0
C220 C 0.15778 0.11442 0.40514 0.0
C221 C 0.19615 0.08829 0.41684 0.0
C222 C 0.20768 1.00016 0.41189 0.0
C223 C 0.27246 0.8823 0.30402 0.0
C224 C 0.27502 0.78042 0.37636 0.0
C225 C 0.24016 0.88007 0.33191 0.0
N226 N 0.24168 0.82935 0.36756 0.0
C227 C 0.30771 0.78038 0.34896 0.0
C228 C 0.30644 0.83215 0.3127 0.0
C229 C 0.21073 0.64241 0.44097 0.0
C230 C 0.04956 0.60844 0.43854 0.0
C231 C 0.11793 0.56769 0.4838 0.0
C232 C 0.09141 0.50024 0.47278 0.0
C233 C 0.05695 0.52098 0.45011 0.0
N234 N 0.1102 0.6535 0.47284 0.0
C235 C 0.07673 0.67418 0.45015 0.0
Co236 Co 0.68868 0.71808 0.89222 0.0
Co237 Co 0.64504 0.75722 0.98653 0.0
O238 O 0.64118 0.72283 0.92738 0.0
C239 C 0.61965 0.76379 0.83372 0.0
O240 O 0.59242 0.75932 0.86335 0.0
C241 C 0.59525 0.59563 0.98486 0.0
O242 O 0.62519 0.55818 0.96497 0.0
O243 O 0.68304 0.65807 -0.00381 0.0
O244 O 0.7235 0.68381 0.94143 0.0
H245 H 0.71623 0.82103 0.12255 0.0
H246 H 0.61714 0.60576 0.87102 0.0
O247 O 0.65662 0.75145 0.8414 0.0
H248 H 0.73027 0.40024 0.8846 0.0
H249 H 0.76425 0.66283 0.75747 0.0
H250 H 0.77139 0.7874 0.90078 0.0
H251 H 0.74071 0.55949 0.89207 0.0
H252 H 0.70689 0.65027 0.80591 0.0
O253 O 0.5986 0.67518 -0.00189 0.0
H254 H 0.71152 0.78341 0.04705 0.0
H255 H 0.58477 0.79342 0.05339 0.0
H256 H 0.82874 0.80475 0.85281 0.0
H257 H 0.60589 0.44718 0.86022 0.0
H258 H 0.82557 0.74135 0.78068 0.0
H259 H 0.66264 0.34214 0.86747 0.0
O260 O 0.69749 0.8442 0.90472 0.0
H261 H 0.51785 0.89396 0.93211 0.0
H262 H 0.64403 0.94943 0.00797 0.0
H263 H 0.59676 0.07246 -0.00369 0.0
H264 H 0.53308 0.04502 0.95825 0.0
H265 H 0.5661 0.77297 0.94415 0.0
H266 H 0.58805 0.83049 0.12903 0.0
H267 H 0.65417 0.84485 0.16405 0.0
O268 O 0.69192 0.84089 0.97495 0.0
C269 C 0.71553 0.64543 0.97622 0.0
C270 C 0.68725 0.81527 0.10762 0.0
C271 C 0.61531 0.82046 0.11127 0.0
N272 N 0.64794 0.78711 0.04581 0.0
C273 C 0.68441 0.79426 0.06486 0.0
C274 C 0.61363 0.79929 0.06847 0.0
C275 C 0.65241 0.82854 0.13089 0.0
C276 C 0.64238 0.56182 0.87235 0.0
N277 N 0.67979 0.59306 0.88112 0.0
C278 C 0.63568 0.47139 0.86683 0.0
C279 C 0.66749 0.4125 0.87098 0.0
C280 C 0.70544 0.44476 0.88027 0.0
C281 C 0.71113 0.5355 0.88479 0.0
C282 C 0.76603 0.69053 0.78886 0.0
C283 C 0.76952 0.76069 0.86932 0.0
C284 C 0.73371 0.68332 0.81652 0.0
N285 N 0.73568 0.71836 0.8562 0.0
C286 C 0.80217 0.77047 0.84229 0.0
C287 C 0.80039 0.73481 0.80185 0.0
C288 C 0.70592 0.87521 0.94098 0.0
C289 C 0.54555 0.90678 0.94865 0.0
C290 C 0.6166 0.93711 0.99095 0.0
C291 C 0.58986 0.00699 0.98462 0.0
C292 C 0.55412 0.99155 0.96329 0.0
N293 N 0.60795 0.85406 0.97657 0.0
C294 C 0.573 0.8385 0.95557 0.0
Co295 Co 0.85197 0.29146 0.89202 0.0
Co296 Co 0.89579 0.25226 0.98629 0.0
O297 O 0.89953 0.28663 0.92714 0.0
C298 C 0.92086 0.245 0.83357 0.0
O299 O 0.94803 0.24829 0.86331 0.0
C300 C 0.94548 0.41398 0.98454 0.0
O301 O 0.91547 0.45129 0.96466 0.0
O302 O 0.85777 0.35132 -0.00399 0.0
O303 O 0.81723 0.32571 0.94126 0.0
H304 H 0.82489 0.18823 0.12241 0.0
H305 H 0.92351 0.40326 0.87053 0.0
O306 O 0.88394 0.25818 0.84114 0.0
H307 H 0.81071 0.60955 0.88465 0.0
H308 H 0.77621 0.34716 0.75737 0.0
H309 H 0.76929 0.22204 0.90059 0.0
H310 H 0.8001 0.45035 0.8921 0.0
H311 H 0.83362 0.35965 0.80579 0.0
O312 O 0.94221 0.33442 -0.00219 0.0
H313 H 0.82944 0.22591 0.0469 0.0
H314 H 0.95621 0.21615 0.05306 0.0
H315 H 0.7119 0.20472 0.85263 0.0
H316 H 0.93493 0.56184 0.85974 0.0
H317 H 0.71496 0.26836 0.78054 0.0
H318 H 0.87835 0.66724 0.86726 0.0
O319 O 0.84313 0.16533 0.90453 0.0
H320 H 0.02297 0.11578 0.93179 0.0
H321 H 0.89687 0.06 0.00765 0.0
H322 H 0.94414 0.93703 -0.00412 0.0
H323 H 1.00777 0.96461 0.9578 0.0
H324 H 0.97473 0.23671 0.94393 0.0
H325 H 0.95309 0.17901 0.12871 0.0
H326 H 0.88705 0.1645 0.16381 0.0
O327 O 0.84893 0.16852 0.97476 0.0
C328 C 0.82525 0.36398 0.97607 0.0
C329 C 0.85384 0.19405 0.10743 0.0
C330 C 0.9258 0.18901 0.11099 0.0
N331 N 0.89302 0.22234 0.04558 0.0
C332 C 0.85659 0.2151 0.06468 0.0
C333 C 0.92738 0.21021 0.06819 0.0
C334 C 0.88873 0.18084 0.13066 0.0
C335 C 0.89835 0.44742 0.872 0.0
N336 N 0.86093 0.41643 0.88092 0.0
C337 C 0.90514 0.53781 0.86647 0.0
C338 C 0.87343 0.59691 0.87077 0.0
C339 C 0.83547 0.56488 0.88021 0.0
C340 C 0.82968 0.47418 0.88473 0.0
C341 C 0.77448 0.31934 0.78874 0.0
C342 C 0.77112 0.24887 0.86915 0.0
C343 C 0.80683 0.32651 0.81639 0.0
N344 N 0.80492 0.29131 0.85605 0.0
C345 C 0.73844 0.23911 0.84212 0.0
C346 C 0.74015 0.27492 0.80171 0.0
C347 C 0.83482 0.13428 0.94081 0.0
C348 C 0.99529 0.10289 0.94832 0.0
C349 C 0.92428 0.07239 0.99062 0.0
C350 C 0.95102 1.00254 0.98423 0.0
C351 C 0.98673 0.01807 0.9629 0.0
N352 N 0.9329 0.15549 0.97629 0.0
C353 C 0.96785 0.17115 0.95531 0.0
Co354 Co 0.69324 0.81052 0.59534 0.0
Co355 Co 0.64662 0.74751 0.50575 0.0
O356 O 0.64474 0.79276 0.56293 0.0
C357 C 0.63552 0.7373 0.65899 0.0
O358 O 0.62499 0.67171 0.63427 0.0
C359 C 0.59669 0.90897 0.50198 0.0
O360 O 0.62773 0.94993 0.51789 0.0
O361 O 0.68406 0.84413 0.48945 0.0
O362 O 0.72656 0.83347 0.54358 0.0
H363 H 0.71332 0.65285 0.3713 0.0
H364 H 0.62069 0.91274 0.6192 0.0
O365 O 0.66249 0.7915 0.648 0.0
H366 H 0.71814 0.13356 0.57065 0.0
H367 H 0.7697 0.91885 0.72174 0.0
H368 H 0.77573 0.73688 0.59306 0.0
H369 H 0.73794 0.9776 0.57878 0.0
H370 H 0.7122 0.91265 0.6733 0.0
O371 O 0.59947 0.82703 0.49229 0.0
H372 H 0.71106 0.70674 0.44467 0.0
H373 H 0.58416 0.69901 0.44302 0.0
H374 H 0.83318 0.73828 0.64166 0.0
H375 H 0.60134 0.06981 0.61714 0.0
H376 H 0.83071 0.83107 0.70616 0.0
H377 H 0.64999 0.18155 0.59161 0.0
O378 O 0.70503 0.68232 0.58968 0.0
H379 H 0.52202 0.62389 0.57184 0.0
H380 H 0.64477 0.55214 0.49276 0.0
H381 H 0.59759 0.4329 0.51099 0.0
H382 H 0.53548 0.46863 0.55042 0.0
H383 H 0.57018 0.74098 0.5533 0.0
H384 H 0.58498 0.64573 0.36953 0.0
H385 H 0.64993 0.62198 0.33326 0.0
O386 O 0.69381 0.66671 0.52014 0.0
C387 C 0.71733 0.86184 0.50697 0.0
C388 C 0.68484 0.66268 0.38681 0.0
C389 C 0.6128 0.65883 0.38579 0.0
N390 N 0.64755 0.70524 0.44814 0.0
C391 C 0.68339 0.69292 0.42837 0.0
C392 C 0.61252 0.68921 0.42735 0.0
C393 C 0.64926 0.64546 0.36547 0.0
C394 C 0.64279 0.96132 0.61035 0.0
N395 N 0.68055 0.93574 0.59902 0.0
C396 C 0.63141 0.05018 0.60864 0.0
C397 C 0.65867 0.11278 0.59428 0.0
C398 C 0.69708 0.08615 0.58299 0.0
C399 C 0.70795 0.99742 0.58692 0.0
C400 C 0.77136 0.87925 0.6934 0.0
C401 C 0.77415 0.77674 0.62124 0.0
C402 C 0.73899 0.87593 0.66563 0.0
N403 N 0.74067 0.82524 0.62996 0.0
C404 C 0.80686 0.77738 0.64865 0.0
C405 C 0.80549 0.82954 0.6848 0.0
C406 C 0.71028 0.64136 0.55482 0.0
C407 C 0.54891 0.60754 0.55451 0.0
C408 C 0.61804 0.56809 0.51035 0.0
C409 C 0.59136 0.50032 0.52044 0.0
C410 C 0.55651 0.52041 0.54255 0.0
N411 N 0.61012 0.65357 0.52172 0.0
C412 C 0.57625 0.67361 0.54384 0.0
Co413 Co 0.84821 0.19226 0.59527 0.0
Co414 Co 0.89443 0.25535 0.50546 0.0
O415 O 0.89653 0.21023 0.56264 0.0
C416 C 0.90551 0.26776 0.65866 0.0
O417 O 0.91501 0.33412 0.63394 0.0
C418 C 0.94426 0.0938 0.50165 0.0
O419 O 0.91322 0.05302 0.51766 0.0
O420 O 0.85691 0.15875 0.48931 0.0
O421 O 0.81469 0.16878 0.54369 0.0
H422 H 0.82729 0.34985 0.37116 0.0
H423 H 0.921 0.09077 0.61913 0.0
O424 O 0.87921 0.2119 0.64774 0.0
H425 H 0.8239 0.86897 0.57076 0.0
H426 H 0.77258 0.08371 0.72212 0.0
H427 H 0.76562 0.26544 0.59339 0.0
H428 H 0.8038 0.02472 0.57891 0.0
H429 H 0.82981 0.09019 0.67337 0.0
O430 O 0.94152 0.17574 0.49191 0.0
H431 H 0.82979 0.29607 0.44455 0.0
H432 H 0.95668 0.30367 0.44253 0.0
H433 H 0.70844 0.26376 0.64229 0.0
H434 H 0.94065 0.93389 0.6171 0.0
H435 H 0.71139 0.17112 0.70683 0.0
H436 H 0.89218 0.82165 0.59166 0.0
O437 O 0.83616 0.32033 0.5895 0.0
H438 H 1.01923 0.37904 0.57118 0.0
H439 H 0.89627 0.45068 0.49235 0.0
H440 H 0.94352 0.56994 0.5104 0.0
H441 H 1.00574 0.53425 0.5497 0.0
H442 H 0.97101 0.26193 0.55282 0.0
H443 H 0.95563 0.35684 0.36902 0.0
H444 H 0.89056 0.3806 0.33292 0.0
O445 O 0.84728 0.33615 0.51996 0.0
C446 C 0.82376 0.14077 0.50697 0.0
C447 C 0.85582 0.34001 0.38659 0.0
C448 C 0.92786 0.3438 0.38536 0.0
N449 N 0.89331 0.29752 0.44783 0.0
C450 C 0.8574 0.30984 0.42816 0.0
C451 C 0.92828 0.31348 0.42693 0.0
C452 C 0.89134 0.35717 0.36514 0.0
C453 C 0.89898 0.04198 0.61033 0.0
N454 N 0.86115 0.06716 0.59904 0.0
C455 C 0.91053 0.95322 0.60864 0.0
C456 C 0.88337 0.89034 0.59432 0.0
C457 C 0.84488 0.91658 0.58307 0.0
C458 C 0.83385 0.00521 0.587 0.0
C459 C 0.77071 0.12324 0.69377 0.0
C460 C 0.7674 0.22562 0.62158 0.0
C461 C 0.80293 0.12671 0.66582 0.0
N462 N 0.80098 0.17731 0.63013 0.0
C463 C 0.73484 0.22481 0.64916 0.0
C464 C 0.73648 0.17274 0.68532 0.0
C465 C 0.83084 0.36133 0.55466 0.0
C466 C 0.9923 0.39536 0.55391 0.0
C467 C 0.92305 0.43476 0.50988 0.0
C468 C 0.94977 0.50253 0.51987 0.0
C469 C 0.98468 0.48247 0.54192 0.0
N470 N 0.93099 0.3493 0.52128 0.0
C471 C 0.96492 0.32929 0.54334 0.0
C472 C 0.28454 0.03894 0.08903 0.0
C473 C 0.29978 0.07297 0.051 0.0
H474 H 0.2448 0.94766 0.11901 0.0
C475 C 0.28478 0.03868 0.01288 0.0
H476 H 0.29511 0.0637 0.11905 0.0
C477 C 0.25523 0.97266 0.01285 0.0
C478 C 0.2402 0.93837 0.05095 0.0
H479 H 0.29547 0.0636 0.98294 0.0
H480 H 0.24458 0.94771 0.9829 0.0
C481 C 0.2554 0.97243 0.08901 0.0
C482 C 0.25545 0.53349 0.40349 0.0
C483 C 0.24015 0.56769 0.4415 0.0
H484 H 0.29531 0.44221 0.37352 0.0
C485 C 0.25523 0.53339 0.47963 0.0
H486 H 0.24485 0.55822 0.37345 0.0
C487 C 0.28488 0.46723 0.47967 0.0
C488 C 0.29998 0.43287 0.44158 0.0
H489 H 0.24452 0.55844 0.50955 0.0
H490 H 0.29559 0.44226 0.50962 0.0
C491 C 0.28469 0.46697 0.40353 0.0
C492 C 0.75429 0.97472 0.98097 0.0
C493 C 0.73761 0.94467 0.94275 0.0
H494 H 0.79835 0.05786 0.01073 0.0
C495 C 0.7541 0.97599 0.90482 0.0
H496 H 0.74263 0.95154 0.01081 0.0
C497 C 0.78653 0.03351 0.90477 0.0
C498 C 0.80314 0.06479 0.94266 0.0
H499 H 0.74247 0.95483 0.87461 0.0
H500 H 0.79806 0.0547 0.87453 0.0
C501 C 0.78659 0.0347 0.98092 0.0
C502 C 0.75544 0.53392 0.51602 0.0
C503 C 0.74012 0.56753 0.55417 0.0
H504 H 0.79645 0.44422 0.48604 0.0
C505 C 0.7557 0.53389 0.59216 0.0
H506 H 0.74452 0.55863 0.48611 0.0
C507 C 0.7855 0.46871 0.59212 0.0
C508 C 0.80099 0.43515 0.55408 0.0
H509 H 0.74495 0.55812 0.62222 0.0
H510 H 0.79631 0.4444 0.62215 0.0
C511 C 0.78559 0.46886 0.51597 0.0
C512 C 0.41401 0.32832 0.22096 0.0
C513 C 0.41172 0.24415 0.20195 0.0
H514 H 0.41253 0.40243 0.27852 0.0
C515 C 0.41424 0.16864 0.22734 0.0
H516 H 0.41261 0.38784 0.20198 0.0
C517 C 0.41411 0.17724 0.27117 0.0
C518 C 0.41175 0.26142 0.29018 0.0
H519 H 0.41265 0.10314 0.21361 0.0
H520 H 0.41277 0.11772 0.29015 0.0
C521 C 0.41418 0.33692 0.26479 0.0
C522 C 0.12588 0.66914 0.26399 0.0
C523 C 0.12858 0.74375 0.28993 0.0
H524 H 0.12721 0.62032 0.20081 0.0
C525 C 0.12641 0.82858 0.27155 0.0
H526 H 0.12739 0.60317 0.27724 0.0
C527 C 0.1262 0.83866 0.2278 0.0
C528 C 0.12848 0.76398 0.20185 0.0
H529 H 0.12796 0.88743 0.29098 0.0
H530 H 0.12797 0.90459 0.21456 0.0
C531 C 0.12598 0.67921 0.22023 0.0
C532 C 0.60071 0.68306 0.76906 0.0
C533 C 0.60838 0.76405 0.78926 0.0
H534 H 0.60304 0.61047 0.71089 0.0
C535 C 0.61763 0.83855 0.76518 0.0
H536 H 0.59451 0.62428 0.78745 0.0
C537 C 0.62265 0.83074 0.72181 0.0
C538 C 0.61917 0.74782 0.70189 0.0
H539 H 0.62445 0.901 0.78032 0.0
H540 H 0.6323 0.88851 0.70438 0.0
C541 C 0.60591 0.67498 0.72541 0.0
C542 C 0.93395 0.33287 0.72499 0.0
C543 C 0.92185 0.2588 0.70165 0.0
H544 H 0.94423 0.38534 0.7869 0.0
C545 C 0.91936 0.176 0.72185 0.0
H546 H 0.93603 0.39732 0.71025 0.0
C547 C 0.9242 0.16923 0.76531 0.0
C548 C 0.93227 0.24473 0.78916 0.0
H549 H 0.91058 0.11737 0.70456 0.0
H550 H 0.91814 0.1066 0.78064 0.0
C551 C 0.93895 0.32586 0.7687 0.0
C552 C 0.51657 0.41484 0.97679 0.0
C553 C 0.48248 0.45718 0.99309 0.0
H554 H 0.57878 0.42499 0.96155 0.0
C555 C 0.48601 0.54516 0.00725 0.0
H556 H 0.51502 0.3471 0.96579 0.0
C557 C 0.52264 0.58962 0.00523 0.0
C558 C 0.55671 0.54742 0.98883 0.0
H559 H 0.46045 0.57992 0.02016 0.0
H560 H 0.52412 0.65737 0.01623 0.0
C561 C 0.55321 0.45951 0.97457 0.0
C562 C 0.05472 0.46496 0.00672 0.0
C563 C 0.0581 0.553 0.99263 0.0
H564 H 1.01675 0.3525 0.0157 0.0
C565 C 0.02392 0.59522 0.97643 0.0
H566 H 0.08035 0.43029 0.01955 0.0
C567 C 0.98734 0.55035 0.97425 0.0
C568 C 0.98397 0.46237 0.98846 0.0
H569 H 0.02537 0.66301 0.96549 0.0
H570 H 0.96169 0.58478 0.96131 0.0
C571 C 1.01814 0.4203 0.00475 0.0
C572 C 0.523 0.91275 0.48566 0.0
C573 C 0.55778 0.95652 0.49905 0.0
H574 H 0.46005 0.9211 0.47414 0.0
C575 C 0.55472 0.04571 0.51161 0.0
H576 H 0.52414 0.84403 0.47604 0.0
C577 C 0.51787 0.08999 0.51074 0.0
C578 C 0.48309 0.04619 0.49737 0.0
H579 H 0.58082 0.08155 0.52233 0.0
H580 H 0.51672 0.1587 0.52037 0.0
C581 C 0.48615 0.957 0.48482 0.0
C582 C 1.01796 0.08965 0.48541 0.0
C583 C 0.98312 0.04605 0.49872 0.0
H584 H 0.08091 0.08093 0.47401 0.0
C585 C 0.98605 0.95679 0.51121 0.0
H586 H 1.01691 0.15841 0.47585 0.0
C587 C 0.02284 0.91228 0.51038 0.0
C588 C 0.05769 0.95591 0.49711 0.0
H589 H 0.95989 0.92106 0.52186 0.0
H590 H 0.02389 0.84354 0.51996 0.0
C591 C 0.05475 0.04517 0.48462 0.0
C592 C 0.22915 0.4907 0.97855 0.0
C593 C 0.24349 0.57758 0.98234 0.0
H594 H 0.24409 0.35281 0.98268 0.0
C595 C 0.28484 0.59251 0.98016 0.0
H596 H 0.19738 0.47749 0.98052 0.0
C597 C 0.31155 0.5211 0.97912 0.0
C598 C 0.29717 0.43419 0.98255 0.0
H599 H 0.29657 0.65895 0.98333 0.0
H600 H 0.34329 0.53432 0.98151 0.0
C601 C 0.25585 0.41927 0.9798 0.0
C602 C 0.25606 0.08685 0.5121 0.0
C603 C 0.29737 0.07133 0.50935 0.0
H604 H 0.19753 0.02952 0.51135 0.0
C605 C 0.31165 0.98421 0.51276 0.0
H606 H 0.24438 0.15349 0.50925 0.0
C607 C 0.28486 0.91319 0.5117 0.0
C608 C 0.24352 0.92872 0.5095 0.0
H609 H 0.34337 0.97056 0.5104 0.0
H610 H 0.29651 0.8466 0.50852 0.0
C611 C 0.22928 0.0158 0.51333 0.0
C612 C 0.78437 0.5918 0.99108 0.0
C613 C 0.74311 0.57539 0.9898 0.0
H614 H 0.84321 0.53552 0.98997 0.0
C615 C 0.72927 0.48793 0.99191 0.0
H616 H 0.79558 0.6588 0.98865 0.0
C617 C 0.75642 0.41754 0.99099 0.0
C618 C 0.79767 0.43396 0.98972 0.0
H619 H 0.69758 0.47384 0.98995 0.0
H620 H 0.7452 0.35055 0.98849 0.0
C621 C 0.81151 0.52141 0.99193 0.0
C622 C 0.72935 0.01693 0.48534 0.0
C623 C 0.74369 0.92987 0.48882 0.0
H624 H 0.74434 0.15466 0.48941 0.0
C625 C 0.78503 0.9145 0.48659 0.0
H626 H 0.69759 0.03045 0.48742 0.0
C627 C 0.81174 0.98563 0.48546 0.0
C628 C 0.79739 0.0727 0.48885 0.0
H629 H 0.79675 0.84792 0.48958 0.0
H630 H 0.84349 0.9721 0.48762 0.0
C631 C 0.75606 0.08807 0.4865 0.0
loop_
_geom_bond_atom_site_label_1
_geom_bond_atom_site_label_2
_geom_bond_distance
_geom_bond_site_symmetry_2
_ccdc_geom_bond_type
Co0 O2 2.143 . S
Co0 O8 2.074 . S
Co0 O11 2.093 . S
Co0 O24 2.097 . S
Co0 N41 2.151 . S
Co0 N49 2.214 . S
Co1 O2 2.160 1_556 S
Co1 O7 2.058 . S
Co1 O17 2.057 . S
Co1 O32 2.037 1_556 S
Co1 N36 2.145 . S
Co1 N57 2.257 1_556 S
O2 Co0 2.143 . S
O2 Co1 2.160 1_554 S
C3 O4 1.278 . S
C3 O11 1.224 . S
O4 C3 1.278 . S
C5 O6 1.245 . S
C5 O17 1.232 1_554 S
O6 C5 1.245 . S
O7 Co1 2.058 . S
O7 C33 1.269 1_556 S
O8 Co0 2.074 . S
O8 C33 1.257 . S
H9 C34 0.930 . S
H10 C40 0.930 . S
O11 Co0 2.093 . S
O11 C3 1.224 . S
H12 C44 0.929 . S
H13 C46 0.930 . S
H14 C47 0.930 . S
H15 C45 0.929 . S
H16 C48 0.928 . S
O17 Co1 2.057 . S
O17 C5 1.232 1_556 S
H18 C37 0.929 . S
H19 C38 0.929 . S
H20 C50 0.931 . S
H21 C42 0.929 . S
H22 C51 0.930 . S
H23 C43 0.931 . S
O24 Co0 2.097 . S
O24 C52 1.214 . S
H25 C53 0.929 . S
H26 C54 0.929 . S
H27 C55 0.930 . S
H28 C56 0.929 . S
H29 C58 0.930 . S
H30 C35 0.930 . S
H31 C39 0.930 . S
O32 Co1 2.037 1_554 S
O32 C52 1.234 . S
C33 O7 1.269 1_554 S
C33 O8 1.257 . S
C34 H9 0.930 . S
C34 C37 1.388 . S
C34 C39 1.418 . S
C35 H30 0.930 . S
C35 C38 1.404 . S
C35 C39 1.353 . S
N36 Co1 2.145 . S
N36 C37 1.397 . S
N36 C38 1.334 . S
C37 H18 0.929 . S
C37 C34 1.388 . S
C37 N36 1.397 . S
C38 H19 0.929 . S
C38 C35 1.404 . S
C38 N36 1.334 . S
C39 H31 0.930 . S
C39 C34 1.418 . S
C39 C35 1.353 . S
C40 H10 0.930 . S
C40 N41 1.330 . S
C40 C42 1.446 . S
N41 Co0 2.151 . S
N41 C40 1.330 . S
N41 C45 1.418 . S
C42 H21 0.929 . S
C42 C40 1.446 . S
C42 C43 1.332 . S
C43 H23 0.931 . S
C43 C42 1.332 . S
C43 C44 1.267 . S
C44 H12 0.929 . S
C44 C43 1.267 . S
C44 C45 1.251 . S
C45 H15 0.929 . S
C45 N41 1.418 . S
C45 C44 1.251 . S
C46 H13 0.930 . S
C46 C48 1.406 . S
C46 C51 1.261 . S
C47 H14 0.930 . S
C47 N49 1.325 . S
C47 C50 1.357 . S
C48 H16 0.928 . S
C48 C46 1.406 . S
C48 N49 1.261 . S
N49 Co0 2.214 . S
N49 C47 1.325 . S
N49 C48 1.261 . S
C50 H20 0.931 . S
C50 C47 1.357 . S
C50 C51 1.312 . S
C51 H22 0.930 . S
C51 C46 1.261 . S
C51 C50 1.312 . S
C52 O24 1.214 . S
C52 O32 1.234 . S
C53 H25 0.929 . S
C53 C56 1.391 1_545 S
C53 C58 1.391 . S
C54 H26 0.929 . S
C54 C55 1.390 1_545 S
C54 N57 1.391 1_556 S
C55 H27 0.930 . S
C55 C54 1.390 1_565 S
C55 C56 1.392 1_556 S
C56 H28 0.929 . S
C56 C53 1.391 1_565 S
C56 C55 1.392 1_554 S
N57 Co1 2.257 1_554 S
N57 C54 1.391 1_554 S
N57 C58 1.388 . S
C58 H29 0.930 . S
C58 C53 1.391 . S
C58 N57 1.388 . S
Co59 O61 2.143 . S
Co59 O67 2.074 . S
Co59 O70 2.093 . S
Co59 O83 2.097 . S
Co59 N100 2.151 . S
Co59 N108 2.214 . S
Co60 O61 2.160 1_556 S
Co60 O66 2.058 . S
Co60 O76 2.057 . S
Co60 O91 2.037 1_556 S
Co60 N95 2.145 . S
Co60 N116 2.257 1_556 S
O61 Co59 2.143 . S
O61 Co60 2.160 1_554 S
C62 O63 1.278 . S
C62 O70 1.224 . S
O63 C62 1.278 . S
C64 O65 1.245 . S
C64 O76 1.232 1_554 S
O65 C64 1.245 . S
O66 Co60 2.058 . S
O66 C92 1.269 1_556 S
O67 Co59 2.074 . S
O67 C92 1.257 . S
H68 C93 0.930 . S
H69 C99 0.930 . S
O70 Co59 2.093 . S
O70 C62 1.224 . S
H71 C103 0.929 . S
H72 C105 0.930 . S
H73 C106 0.930 . S
H74 C104 0.929 . S
H75 C107 0.928 . S
O76 Co60 2.057 . S
O76 C64 1.232 1_556 S
H77 C96 0.929 . S
H78 C97 0.929 . S
H79 C109 0.931 . S
H80 C101 0.929 . S
H81 C110 0.930 . S
H82 C102 0.931 . S
O83 Co59 2.097 . S
O83 C111 1.214 . S
H84 C112 0.929 . S
H85 C113 0.929 . S
H86 C114 0.930 . S
H87 C115 0.929 . S
H88 C117 0.930 . S
H89 C94 0.930 . S
H90 C98 0.930 . S
O91 Co60 2.037 1_554 S
O91 C111 1.234 . S
C92 O66 1.269 1_554 S
C92 O67 1.257 . S
C93 H68 0.930 . S
C93 C96 1.388 . S
C93 C98 1.418 . S
C94 H89 0.930 . S
C94 C97 1.404 . S
C94 C98 1.353 . S
N95 Co60 2.145 . S
N95 C96 1.397 . S
N95 C97 1.334 . S
C96 H77 0.929 . S
C96 C93 1.388 . S
C96 N95 1.397 . S
C97 H78 0.929 . S
C97 C94 1.404 . S
C97 N95 1.334 . S
C98 H90 0.930 . S
C98 C93 1.418 . S
C98 C94 1.353 . S
C99 H69 0.930 . S
C99 N100 1.330 . S
C99 C101 1.446 . S
N100 Co59 2.151 . S
N100 C99 1.330 . S
N100 C104 1.418 . S
C101 H80 0.929 . S
C101 C99 1.446 . S
C101 C102 1.332 . S
C102 H82 0.931 . S
C102 C101 1.332 . S
C102 C103 1.267 . S
C103 H71 0.929 . S
C103 C102 1.267 . S
C103 C104 1.251 . S
C104 H74 0.929 . S
C104 N100 1.418 . S
C104 C103 1.251 . S
C105 H72 0.930 . S
C105 C107 1.406 . S
C105 C110 1.261 . S
C106 H73 0.930 . S
C106 N108 1.325 . S
C106 C109 1.357 . S
C107 H75 0.928 . S
C107 C105 1.406 . S
C107 N108 1.261 . S
N108 Co59 2.214 . S
N108 C106 1.325 . S
N108 C107 1.261 . S
C109 H79 0.931 . S
C109 C106 1.357 . S
C109 C110 1.312 . S
C110 H81 0.930 . S
C110 C105 1.261 . S
C110 C109 1.312 . S
C111 O83 1.214 . S
C111 O91 1.234 . S
C112 H84 0.929 . S
C112 C115 1.391 1_565 S
C112 C117 1.391 . S
C113 H85 0.929 . S
C113 C114 1.390 1_565 S
C113 N116 1.391 1_556 S
C114 H86 0.930 . S
C114 C113 1.390 1_545 S
C114 C115 1.392 1_556 S
C115 H87 0.929 . S
C115 C112 1.391 1_545 S
C115 C114 1.392 1_554 S
N116 Co60 2.257 1_554 S
N116 C113 1.391 1_554 S
N116 C117 1.388 . S
C117 H88 0.930 . S
C117 C112 1.391 . S
C117 N116 1.388 . S
Co118 O120 2.143 . S
Co118 O126 2.074 . S
Co118 O129 2.093 . S
Co118 O142 2.097 . S
Co118 N159 2.151 . S
Co118 N167 2.214 . S
Co119 O120 2.160 . S
Co119 O125 2.058 . S
Co119 O135 2.057 . S
Co119 O150 2.037 . S
Co119 N154 2.145 . S
Co119 N175 2.257 . S
O120 Co118 2.143 . S
O120 Co119 2.160 . S
C121 O122 1.278 . S
C121 O129 1.224 . S
O122 C121 1.278 . S
C123 O124 1.245 . S
C123 O135 1.232 . S
O124 C123 1.245 . S
O125 Co119 2.058 . S
O125 C151 1.269 . S
O126 Co118 2.074 . S
O126 C151 1.257 . S
H127 C152 0.930 . S
H128 C158 0.930 . S
O129 Co118 2.093 . S
O129 C121 1.224 . S
H130 C162 0.929 . S
H131 C164 0.930 . S
H132 C165 0.930 . S
H133 C163 0.929 . S
H134 C166 0.928 . S
O135 Co119 2.057 . S
O135 C123 1.232 . S
H136 C155 0.929 . S
H137 C156 0.929 . S
H138 C168 0.931 . S
H139 C160 0.929 . S
H140 C169 0.930 . S
H141 C161 0.931 . S
O142 Co118 2.097 . S
O142 C170 1.214 . S
H143 C171 0.929 . S
H144 C172 0.929 . S
H145 C173 0.930 . S
H146 C174 0.929 . S
H147 C176 0.930 . S
H148 C153 0.930 . S
H149 C157 0.930 . S
O150 Co119 2.037 . S
O150 C170 1.234 . S
C151 O125 1.269 . S
C151 O126 1.257 . S
C152 H127 0.930 . S
C152 C155 1.388 . S
C152 C157 1.418 . S
C153 H148 0.930 . S
C153 C156 1.404 . S
C153 C157 1.353 . S
N154 Co119 2.145 . S
N154 C155 1.397 . S
N154 C156 1.334 . S
C155 H136 0.929 . S
C155 C152 1.388 . S
C155 N154 1.397 . S
C156 H137 0.929 . S
C156 C153 1.404 . S
C156 N154 1.334 . S
C157 H149 0.930 . S
C157 C152 1.418 . S
C157 C153 1.353 . S
C158 H128 0.930 . S
C158 N159 1.330 . S
C158 C160 1.446 1_545 S
N159 Co118 2.151 . S
N159 C158 1.330 . S
N159 C163 1.418 . S
C160 H139 0.929 . S
C160 C158 1.446 1_565 S
C160 C161 1.332 . S
C161 H141 0.931 . S
C161 C160 1.332 . S
C161 C162 1.267 . S
C162 H130 0.929 . S
C162 C161 1.267 . S
C162 C163 1.251 1_565 S
C163 H133 0.929 . S
C163 N159 1.418 . S
C163 C162 1.251 1_545 S
C164 H131 0.930 . S
C164 C166 1.406 . S
C164 C169 1.261 . S
C165 H132 0.930 . S
C165 N167 1.325 . S
C165 C168 1.357 . S
C166 H134 0.928 . S
C166 C164 1.406 . S
C166 N167 1.261 . S
N167 Co118 2.214 . S
N167 C165 1.325 . S
N167 C166 1.261 . S
C168 H138 0.931 . S
C168 C165 1.357 . S
C168 C169 1.312 . S
C169 H140 0.930 . S
C169 C164 1.261 . S
C169 C168 1.312 . S
C170 O142 1.214 . S
C170 O150 1.234 . S
C171 H143 0.929 . S
C171 C174 1.391 . S
C171 C176 1.391 . S
C172 H144 0.929 . S
C172 C173 1.390 . S
C172 N175 1.391 . S
C173 H145 0.930 . S
C173 C172 1.390 . S
C173 C174 1.392 . S
C174 H146 0.929 . S
C174 C171 1.391 . S
C174 C173 1.392 . S
N175 Co119 2.257 . S
N175 C172 1.391 . S
N175 C176 1.388 . S
C176 H147 0.930 . S
C176 C171 1.391 . S
C176 N175 1.388 . S
Co177 O179 2.143 . S
Co177 O185 2.074 . S
Co177 O188 2.093 . S
Co177 O201 2.097 . S
Co177 N218 2.151 . S
Co177 N226 2.214 . S
Co178 O179 2.160 . S
Co178 O184 2.058 . S
Co178 O194 2.057 . S
Co178 O209 2.037 . S
Co178 N213 2.145 . S
Co178 N234 2.257 . S
O179 Co177 2.143 . S
O179 Co178 2.160 . S
C180 O181 1.278 . S
C180 O188 1.224 . S
O181 C180 1.278 . S
C182 O183 1.245 . S
C182 O194 1.232 . S
O183 C182 1.245 . S
O184 Co178 2.058 . S
O184 C210 1.269 . S
O185 Co177 2.074 . S
O185 C210 1.257 . S
H186 C211 0.930 . S
H187 C217 0.930 . S
O188 Co177 2.093 . S
O188 C180 1.224 . S
H189 C221 0.929 . S
H190 C223 0.930 . S
H191 C224 0.930 . S
H192 C222 0.929 . S
H193 C225 0.928 . S
O194 Co178 2.057 . S
O194 C182 1.232 . S
H195 C214 0.929 . S
H196 C215 0.929 . S
H197 C227 0.931 . S
H198 C219 0.929 . S
H199 C228 0.930 . S
H200 C220 0.931 . S
O201 Co177 2.097 . S
O201 C229 1.214 . S
H202 C230 0.929 . S
H203 C231 0.929 . S
H204 C232 0.930 . S
H205 C233 0.929 . S
H206 C235 0.930 . S
H207 C212 0.930 . S
H208 C216 0.930 . S
O209 Co178 2.037 . S
O209 C229 1.234 . S
C210 O184 1.269 . S
C210 O185 1.257 . S
C211 H186 0.930 . S
C211 C214 1.388 . S
C211 C216 1.418 . S
C212 H207 0.930 . S
C212 C215 1.404 . S
C212 C216 1.353 . S
N213 Co178 2.145 . S
N213 C214 1.397 . S
N213 C215 1.334 . S
C214 H195 0.929 . S
C214 C211 1.388 . S
C214 N213 1.397 . S
C215 H196 0.929 . S
C215 C212 1.404 . S
C215 N213 1.334 . S
C216 H208 0.930 . S
C216 C211 1.418 . S
C216 C212 1.353 . S
C217 H187 0.930 . S
C217 N218 1.330 . S
C217 C219 1.446 1_565 S
N218 Co177 2.151 . S
N218 C217 1.330 . S
N218 C222 1.418 . S
C219 H198 0.929 . S
C219 C217 1.446 1_545 S
C219 C220 1.332 . S
C220 H200 0.931 . S
C220 C219 1.332 . S
C220 C221 1.267 . S
C221 H189 0.929 . S
C221 C220 1.267 . S
C221 C222 1.251 1_545 S
C222 H192 0.929 . S
C222 N218 1.418 . S
C222 C221 1.251 1_565 S
C223 H190 0.930 . S
C223 C225 1.406 . S
C223 C228 1.261 . S
C224 H191 0.930 . S
C224 N226 1.325 . S
C224 C227 1.357 . S
C225 H193 0.928 . S
C225 C223 1.406 . S
C225 N226 1.261 . S
N226 Co177 2.214 . S
N226 C224 1.325 . S
N226 C225 1.261 . S
C227 H197 0.931 . S
C227 C224 1.357 . S
C227 C228 1.312 . S
C228 H199 0.930 . S
C228 C223 1.261 . S
C228 C227 1.312 . S
C229 O201 1.214 . S
C229 O209 1.234 . S
C230 H202 0.929 . S
C230 C233 1.391 . S
C230 C235 1.391 . S
C231 H203 0.929 . S
C231 C232 1.390 . S
C231 N234 1.391 . S
C232 H204 0.930 . S
C232 C231 1.390 . S
C232 C233 1.392 . S
C233 H205 0.929 . S
C233 C230 1.391 . S
C233 C232 1.392 . S
N234 Co178 2.257 . S
N234 C231 1.391 . S
N234 C235 1.388 . S
C235 H206 0.930 . S
C235 C230 1.391 . S
C235 N234 1.388 . S
Co236 O238 2.143 . S
Co236 O244 2.074 . S
Co236 O247 2.093 . S
Co236 O260 2.097 . S
Co236 N277 2.151 . S
Co236 N285 2.214 . S
Co237 O238 2.160 1_554 S
Co237 O243 2.058 . S
Co237 O253 2.057 . S
Co237 O268 2.037 1_554 S
Co237 N272 2.145 . S
Co237 N293 2.257 1_554 S
O238 Co236 2.143 . S
O238 Co237 2.160 1_556 S
C239 O240 1.278 . S
C239 O247 1.224 . S
O240 C239 1.278 . S
C241 O242 1.245 . S
C241 O253 1.232 1_556 S
O242 C241 1.245 . S
O243 Co237 2.058 . S
O243 C269 1.269 1_554 S
O244 Co236 2.074 . S
O244 C269 1.257 . S
H245 C270 0.930 . S
H246 C276 0.930 . S
O247 Co236 2.093 . S
O247 C239 1.224 . S
H248 C280 0.929 . S
H249 C282 0.930 . S
H250 C283 0.930 . S
H251 C281 0.929 . S
H252 C284 0.928 . S
O253 Co237 2.057 . S
O253 C241 1.232 1_554 S
H254 C273 0.929 . S
H255 C274 0.929 . S
H256 C286 0.931 . S
H257 C278 0.929 . S
H258 C287 0.930 . S
H259 C279 0.931 . S
O260 Co236 2.097 . S
O260 C288 1.214 . S
H261 C289 0.929 . S
H262 C290 0.929 . S
H263 C291 0.930 . S
H264 C292 0.929 . S
H265 C294 0.930 . S
H266 C271 0.930 . S
H267 C275 0.930 . S
O268 Co237 2.037 1_556 S
O268 C288 1.234 . S
C269 O243 1.269 1_556 S
C269 O244 1.257 . S
C270 H245 0.930 . S
C270 C273 1.388 . S
C270 C275 1.418 . S
C271 H266 0.930 . S
C271 C274 1.404 . S
C271 C275 1.353 . S
N272 Co237 2.145 . S
N272 C273 1.397 . S
N272 C274 1.334 . S
C273 H254 0.929 . S
C273 C270 1.388 . S
C273 N272 1.397 . S
C274 H255 0.929 . S
C274 C271 1.404 . S
C274 N272 1.334 . S
C275 H267 0.930 . S
C275 C270 1.418 . S
C275 C271 1.353 . S
C276 H246 0.930 . S
C276 N277 1.330 . S
C276 C278 1.446 . S
N277 Co236 2.151 . S
N277 C276 1.330 . S
N277 C281 1.418 . S
C278 H257 0.929 . S
C278 C276 1.446 . S
C278 C279 1.332 . S
C279 H259 0.931 . S
C279 C278 1.332 . S
C279 C280 1.267 . S
C280 H248 0.929 . S
C280 C279 1.267 . S
C280 C281 1.251 . S
C281 H251 0.929 . S
C281 N277 1.418 . S
C281 C280 1.251 . S
C282 H249 0.930 . S
C282 C284 1.406 . S
C282 C287 1.261 . S
C283 H250 0.930 . S
C283 N285 1.325 . S
C283 C286 1.357 . S
C284 H252 0.928 . S
C284 C282 1.406 . S
C284 N285 1.261 . S
N285 Co236 2.214 . S
N285 C283 1.325 . S
N285 C284 1.261 . S
C286 H256 0.931 . S
C286 C283 1.357 . S
C286 C287 1.312 . S
C287 H258 0.930 . S
C287 C282 1.261 . S
C287 C286 1.312 . S
C288 O260 1.214 . S
C288 O268 1.234 . S
C289 H261 0.929 . S
C289 C292 1.391 1_565 S
C289 C294 1.391 . S
C290 H262 0.929 . S
C290 C291 1.390 1_565 S
C290 N293 1.391 1_554 S
C291 H263 0.930 . S
C291 C290 1.390 1_545 S
C291 C292 1.392 1_554 S
C292 H264 0.929 . S
C292 C289 1.391 1_545 S
C292 C291 1.392 1_556 S
N293 Co237 2.257 1_556 S
N293 C290 1.391 1_556 S
N293 C294 1.388 . S
C294 H265 0.930 . S
C294 C289 1.391 . S
C294 N293 1.388 . S
Co295 O297 2.143 . S
Co295 O303 2.074 . S
Co295 O306 2.093 . S
Co295 O319 2.097 . S
Co295 N336 2.151 . S
Co295 N344 2.214 . S
Co296 O297 2.160 1_554 S
Co296 O302 2.058 . S
Co296 O312 2.057 . S
Co296 O327 2.037 1_554 S
Co296 N331 2.145 . S
Co296 N352 2.257 1_554 S
O297 Co295 2.143 . S
O297 Co296 2.160 1_556 S
C298 O299 1.278 . S
C298 O306 1.224 . S
O299 C298 1.278 . S
C300 O301 1.245 . S
C300 O312 1.232 1_556 S
O301 C300 1.245 . S
O302 Co296 2.058 . S
O302 C328 1.269 1_554 S
O303 Co295 2.074 . S
O303 C328 1.257 . S
H304 C329 0.930 . S
H305 C335 0.930 . S
O306 Co295 2.093 . S
O306 C298 1.224 . S
H307 C339 0.929 . S
H308 C341 0.930 . S
H309 C342 0.930 . S
H310 C340 0.929 . S
H311 C343 0.928 . S
O312 Co296 2.057 . S
O312 C300 1.232 1_554 S
H313 C332 0.929 . S
H314 C333 0.929 . S
H315 C345 0.931 . S
H316 C337 0.929 . S
H317 C346 0.930 . S
H318 C338 0.931 . S
O319 Co295 2.097 . S
O319 C347 1.214 . S
H320 C348 0.929 . S
H321 C349 0.929 . S
H322 C350 0.930 . S
H323 C351 0.929 . S
H324 C353 0.930 . S
H325 C330 0.930 . S
H326 C334 0.930 . S
O327 Co296 2.037 1_556 S
O327 C347 1.234 . S
C328 O302 1.269 1_556 S
C328 O303 1.257 . S
C329 H304 0.930 . S
C329 C332 1.388 . S
C329 C334 1.418 . S
C330 H325 0.930 . S
C330 C333 1.404 . S
C330 C334 1.353 . S
N331 Co296 2.145 . S
N331 C332 1.397 . S
N331 C333 1.334 . S
C332 H313 0.929 . S
C332 C329 1.388 . S
C332 N331 1.397 . S
C333 H314 0.929 . S
C333 C330 1.404 . S
C333 N331 1.334 . S
C334 H326 0.930 . S
C334 C329 1.418 . S
C334 C330 1.353 . S
C335 H305 0.930 . S
C335 N336 1.330 . S
C335 C337 1.446 . S
N336 Co295 2.151 . S
N336 C335 1.330 . S
N336 C340 1.418 . S
C337 H316 0.929 . S
C337 C335 1.446 . S
C337 C338 1.332 . S
C338 H318 0.931 . S
C338 C337 1.332 . S
C338 C339 1.267 . S
C339 H307 0.929 . S
C339 C338 1.267 . S
C339 C340 1.251 . S
C340 H310 0.929 . S
C340 N336 1.418 . S
C340 C339 1.251 . S
C341 H308 0.930 . S
C341 C343 1.406 . S
C341 C346 1.261 . S
C342 H309 0.930 . S
C342 N344 1.325 . S
C342 C345 1.357 . S
C343 H311 0.928 . S
C343 C341 1.406 . S
C343 N344 1.261 . S
N344 Co295 2.214 . S
N344 C342 1.325 . S
N344 C343 1.261 . S
C345 H315 0.931 . S
C345 C342 1.357 . S
C345 C346 1.312 . S
C346 H317 0.930 . S
C346 C341 1.261 . S
C346 C345 1.312 . S
C347 O319 1.214 . S
C347 O327 1.234 . S
C348 H320 0.929 . S
C348 C351 1.391 1_545 S
C348 C353 1.391 . S
C349 H321 0.929 . S
C349 C350 1.390 1_545 S
C349 N352 1.391 1_554 S
C350 H322 0.930 . S
C350 C349 1.390 1_565 S
C350 C351 1.392 1_554 S
C351 H323 0.929 . S
C351 C348 1.391 1_565 S
C351 C350 1.392 1_556 S
N352 Co296 2.257 1_556 S
N352 C349 1.391 1_556 S
N352 C353 1.388 . S
C353 H324 0.930 . S
C353 C348 1.391 . S
C353 N352 1.388 . S
Co354 O356 2.143 . S
Co354 O362 2.074 . S
Co354 O365 2.093 . S
Co354 O378 2.097 . S
Co354 N395 2.151 . S
Co354 N403 2.214 . S
Co355 O356 2.160 . S
Co355 O361 2.058 . S
Co355 O371 2.057 . S
Co355 O386 2.037 . S
Co355 N390 2.145 . S
Co355 N411 2.257 . S
O356 Co354 2.143 . S
O356 Co355 2.160 . S
C357 O358 1.278 . S
C357 O365 1.224 . S
O358 C357 1.278 . S
C359 O360 1.245 . S
C359 O371 1.232 . S
O360 C359 1.245 . S
O361 Co355 2.058 . S
O361 C387 1.269 . S
O362 Co354 2.074 . S
O362 C387 1.257 . S
H363 C388 0.930 . S
H364 C394 0.930 . S
O365 Co354 2.093 . S
O365 C357 1.224 . S
H366 C398 0.929 . S
H367 C400 0.930 . S
H368 C401 0.930 . S
H369 C399 0.929 . S
H370 C402 0.928 . S
O371 Co355 2.057 . S
O371 C359 1.232 . S
H372 C391 0.929 . S
H373 C392 0.929 . S
H374 C404 0.931 . S
H375 C396 0.929 . S
H376 C405 0.930 . S
H377 C397 0.931 . S
O378 Co354 2.097 . S
O378 C406 1.214 . S
H379 C407 0.929 . S
H380 C408 0.929 . S
H381 C409 0.930 . S
H382 C410 0.929 . S
H383 C412 0.930 . S
H384 C389 0.930 . S
H385 C393 0.930 . S
O386 Co355 2.037 . S
O386 C406 1.234 . S
C387 O361 1.269 . S
C387 O362 1.257 . S
C388 H363 0.930 . S
C388 C391 1.388 . S
C388 C393 1.418 . S
C389 H384 0.930 . S
C389 C392 1.404 . S
C389 C393 1.353 . S
N390 Co355 2.145 . S
N390 C391 1.397 . S
N390 C392 1.334 . S
C391 H372 0.929 . S
C391 C388 1.388 . S
C391 N390 1.397 . S
C392 H373 0.929 . S
C392 C389 1.404 . S
C392 N390 1.334 . S
C393 H385 0.930 . S
C393 C388 1.418 . S
C393 C389 1.353 . S
C394 H364 0.930 . S
C394 N395 1.330 . S
C394 C396 1.446 1_565 S
N395 Co354 2.151 . S
N395 C394 1.330 . S
N395 C399 1.418 . S
C396 H375 0.929 . S
C396 C394 1.446 1_545 S
C396 C397 1.332 . S
C397 H377 0.931 . S
C397 C396 1.332 . S
C397 C398 1.267 . S
C398 H366 0.929 . S
C398 C397 1.267 . S
C398 C399 1.251 1_545 S
C399 H369 0.929 . S
C399 N395 1.418 . S
C399 C398 1.251 1_565 S
C400 H367 0.930 . S
C400 C402 1.406 . S
C400 C405 1.261 . S
C401 H368 0.930 . S
C401 N403 1.325 . S
C401 C404 1.357 . S
C402 H370 0.928 . S
C402 C400 1.406 . S
C402 N403 1.261 . S
N403 Co354 2.214 . S
N403 C401 1.325 . S
N403 C402 1.261 . S
C404 H374 0.931 . S
C404 C401 1.357 . S
C404 C405 1.312 . S
C405 H376 0.930 . S
C405 C400 1.261 . S
C405 C404 1.312 . S
C406 O378 1.214 . S
C406 O386 1.234 . S
C407 H379 0.929 . S
C407 C410 1.391 . S
C407 C412 1.391 . S
C408 H380 0.929 . S
C408 C409 1.390 . S
C408 N411 1.391 . S
C409 H381 0.930 . S
C409 C408 1.390 . S
C409 C410 1.392 . S
C410 H382 0.929 . S
C410 C407 1.391 . S
C410 C409 1.392 . S
N411 Co355 2.257 . S
N411 C408 1.391 . S
N411 C412 1.388 . S
C412 H383 0.930 . S
C412 C407 1.391 . S
C412 N411 1.388 . S
Co413 O415 2.143 . S
Co413 O421 2.074 . S
Co413 O424 2.093 . S
Co413 O437 2.097 . S
Co413 N454 2.151 . S
Co413 N462 2.214 . S
Co414 O415 2.160 . S
Co414 O420 2.058 . S
Co414 O430 2.057 . S
Co414 O445 2.037 . S
Co414 N449 2.145 . S
Co414 N470 2.257 . S
O415 Co413 2.143 . S
O415 Co414 2.160 . S
C416 O417 1.278 . S
C416 O424 1.224 . S
O417 C416 1.278 . S
C418 O419 1.245 . S
C418 O430 1.232 . S
O419 C418 1.245 . S
O420 Co414 2.058 . S
O420 C446 1.269 . S
O421 Co413 2.074 . S
O421 C446 1.257 . S
H422 C447 0.930 . S
H423 C453 0.930 . S
O424 Co413 2.093 . S
O424 C416 1.224 . S
H425 C457 0.929 . S
H426 C459 0.930 . S
H427 C460 0.930 . S
H428 C458 0.929 . S
H429 C461 0.928 . S
O430 Co414 2.057 . S
O430 C418 1.232 . S
H431 C450 0.929 . S
H432 C451 0.929 . S
H433 C463 0.931 . S
H434 C455 0.929 . S
H435 C464 0.930 . S
H436 C456 0.931 . S
O437 Co413 2.097 . S
O437 C465 1.214 . S
H438 C466 0.929 . S
H439 C467 0.929 . S
H440 C468 0.930 . S
H441 C469 0.929 . S
H442 C471 0.930 . S
H443 C448 0.930 . S
H444 C452 0.930 . S
O445 Co414 2.037 . S
O445 C465 1.234 . S
C446 O420 1.269 . S
C446 O421 1.257 . S
C447 H422 0.930 . S
C447 C450 1.388 . S
C447 C452 1.418 . S
C448 H443 0.930 . S
C448 C451 1.404 . S
C448 C452 1.353 . S
N449 Co414 2.145 . S
N449 C450 1.397 . S
N449 C451 1.334 . S
C450 H431 0.929 . S
C450 C447 1.388 . S
C450 N449 1.397 . S
C451 H432 0.929 . S
C451 C448 1.404 . S
C451 N449 1.334 . S
C452 H444 0.930 . S
C452 C447 1.418 . S
C452 C448 1.353 . S
C453 H423 0.930 . S
C453 N454 1.330 . S
C453 C455 1.446 1_545 S
N454 Co413 2.151 . S
N454 C453 1.330 . S
N454 C458 1.418 . S
C455 H434 0.929 . S
C455 C453 1.446 1_565 S
C455 C456 1.332 . S
C456 H436 0.931 . S
C456 C455 1.332 . S
C456 C457 1.267 . S
C457 H425 0.929 . S
C457 C456 1.267 . S
C457 C458 1.251 1_565 S
C458 H428 0.929 . S
C458 N454 1.418 . S
C458 C457 1.251 1_545 S
C459 H426 0.930 . S
C459 C461 1.406 . S
C459 C464 1.261 . S
C460 H427 0.930 . S
C460 N462 1.325 . S
C460 C463 1.357 . S
C461 H429 0.928 . S
C461 C459 1.406 . S
C461 N462 1.261 . S
N462 Co413 2.214 . S
N462 C460 1.325 . S
N462 C461 1.261 . S
C463 H433 0.931 . S
C463 C460 1.357 . S
C463 C464 1.312 . S
C464 H435 0.930 . S
C464 C459 1.261 . S
C464 C463 1.312 . S
C465 O437 1.214 . S
C465 O445 1.234 . S
C466 H438 0.929 . S
C466 C469 1.391 . S
C466 C471 1.391 . S
C467 H439 0.929 . S
C467 C468 1.390 . S
C467 N470 1.391 . S
C468 H440 0.930 . S
C468 C467 1.390 . S
C468 C469 1.392 . S
C469 H441 0.929 . S
C469 C466 1.391 . S
C469 C468 1.392 . S
N470 Co414 2.257 . S
N470 C467 1.391 . S
N470 C471 1.388 . S
C471 H442 0.930 . S
C471 C466 1.391 . S
C471 N470 1.388 . S
C472 C473 1.387 . S
C472 H476 0.950 . S
C472 C481 1.390 1_545 S
C473 C472 1.387 . S
C473 C475 1.387 1_554 S
H474 C481 0.950 . S
C475 C473 1.387 1_556 S
C475 C477 1.390 1_545 S
C475 H479 0.950 . S
H476 C472 0.950 . S
C477 C475 1.390 1_565 S
C477 C478 1.387 1_556 S
C477 H480 0.950 . S
C478 C477 1.387 1_554 S
C478 C481 1.387 . S
H479 C475 0.950 . S
H480 C477 0.950 . S
C481 C472 1.390 1_565 S
C481 H474 0.950 . S
C481 C478 1.387 . S
C482 C483 1.387 . S
C482 H486 0.950 . S
C482 C491 1.390 . S
C483 C482 1.387 . S
C483 C485 1.387 . S
H484 C491 0.950 . S
C485 C483 1.387 . S
C485 C487 1.390 . S
C485 H489 0.950 . S
H486 C482 0.950 . S
C487 C485 1.390 . S
C487 C488 1.387 . S
C487 H490 0.950 . S
C488 C487 1.387 . S
C488 C491 1.387 . S
H489 C485 0.950 . S
H490 C487 0.950 . S
C491 C482 1.390 . S
C491 H484 0.950 . S
C491 C488 1.387 . S
C492 C493 1.387 1_554 S
C492 H496 0.950 . S
C492 C501 1.390 1_565 S
C493 C492 1.387 1_556 S
C493 C495 1.387 . S
H494 C501 0.950 . S
C495 C493 1.387 . S
C495 C497 1.390 1_565 S
C495 H499 0.950 . S
H496 C492 0.950 . S
C497 C495 1.390 1_545 S
C497 C498 1.387 . S
C497 H500 0.950 . S
C498 C497 1.387 . S
C498 C501 1.387 1_556 S
H499 C495 0.950 . S
H500 C497 0.950 . S
C501 C492 1.390 1_545 S
C501 H494 0.950 . S
C501 C498 1.387 1_554 S
C502 C503 1.387 . S
C502 H506 0.950 . S
C502 C511 1.390 . S
C503 C502 1.387 . S
C503 C505 1.387 . S
H504 C511 0.950 . S
C505 C503 1.387 . S
C505 C507 1.390 . S
C505 H509 0.950 . S
H506 C502 0.950 . S
C507 C505 1.390 . S
C507 C508 1.387 . S
C507 H510 0.950 . S
C508 C507 1.387 . S
C508 C511 1.387 . S
H509 C505 0.950 . S
H510 C507 0.950 . S
C511 C502 1.390 . S
C511 H504 0.950 . S
C511 C508 1.387 . S
C512 C513 1.387 . S
C512 H516 0.950 . S
C512 C521 1.390 . S
C513 C512 1.387 . S
C513 C515 1.387 . S
H514 C521 0.950 . S
C515 C513 1.387 . S
C515 C517 1.390 . S
C515 H519 0.950 . S
H516 C512 0.950 . S
C517 C515 1.390 . S
C517 C518 1.387 . S
C517 H520 0.950 . S
C518 C517 1.387 . S
C518 C521 1.387 . S
H519 C515 0.950 . S
H520 C517 0.950 . S
C521 C512 1.390 . S
C521 H514 0.950 . S
C521 C518 1.387 . S
C522 C523 1.387 . S
C522 H526 0.950 . S
C522 C531 1.390 . S
C523 C522 1.387 . S
C523 C525 1.387 . S
H524 C531 0.950 . S
C525 C523 1.387 . S
C525 C527 1.390 . S
C525 H529 0.950 . S
H526 C522 0.950 . S
C527 C525 1.390 . S
C527 C528 1.387 . S
C527 H530 0.950 . S
C528 C527 1.387 . S
C528 C531 1.387 . S
H529 C525 0.950 . S
H530 C527 0.950 . S
C531 C522 1.390 . S
C531 H524 0.950 . S
C531 C528 1.387 . S
C532 C533 1.387 . S
C532 H536 0.950 . S
C532 C541 1.390 . S
C533 C532 1.387 . S
C533 C535 1.387 . S
H534 C541 0.950 . S
C535 C533 1.387 . S
C535 C537 1.390 . S
C535 H539 0.950 . S
H536 C532 0.950 . S
C537 C535 1.390 . S
C537 C538 1.387 . S
C537 H540 0.950 . S
C538 C537 1.387 . S
C538 C541 1.387 . S
H539 C535 0.950 . S
H540 C537 0.950 . S
C541 C532 1.390 . S
C541 H534 0.950 . S
C541 C538 1.387 . S
C542 C543 1.387 . S
C542 H546 0.950 . S
C542 C551 1.390 . S
C543 C542 1.387 . S
C543 C545 1.387 . S
H544 C551 0.950 . S
C545 C543 1.387 . S
C545 C547 1.390 . S
C545 H549 0.950 . S
H546 C542 0.950 . S
C547 C545 1.390 . S
C547 C548 1.387 . S
C547 H550 0.950 . S
C548 C547 1.387 . S
C548 C551 1.387 . S
H549 C545 0.950 . S
H550 C547 0.950 . S
C551 C542 1.390 . S
C551 H544 0.950 . S
C551 C548 1.387 . S
C552 C553 1.389 1_556 S
C552 H556 0.950 . S
C552 C561 1.390 . S
C553 C552 1.389 1_554 S
C553 C555 1.386 . S
H554 C561 0.950 . S
C555 C553 1.386 . S
C555 C557 1.390 . S
C555 H559 0.950 . S
H556 C552 0.950 . S
C557 C555 1.390 . S
C557 C558 1.389 1_554 S
C557 H560 0.950 . S
C558 C557 1.389 1_556 S
C558 C561 1.386 . S
H559 C555 0.950 . S
H560 C557 0.950 . S
C561 C552 1.390 . S
C561 H554 0.950 . S
C561 C558 1.386 . S
C562 C563 1.386 . S
C562 H566 0.950 . S
C562 C571 1.390 1_455 S
C563 C562 1.386 . S
C563 C565 1.389 1_554 S
H564 C571 0.950 . S
C565 C563 1.389 1_556 S
C565 C567 1.390 1_455 S
C565 H569 0.950 . S
H566 C562 0.950 . S
C567 C565 1.390 1_655 S
C567 C568 1.386 . S
C567 H570 0.950 . S
C568 C567 1.386 . S
C568 C571 1.389 1_556 S
H569 C565 0.950 . S
H570 C567 0.950 . S
C571 C562 1.390 1_655 S
C571 H564 0.950 . S
C571 C568 1.389 1_554 S
C572 C573 1.387 . S
C572 H576 0.950 . S
C572 C581 1.390 1_565 S
C573 C572 1.387 . S
C573 C575 1.387 . S
H574 C581 0.950 . S
C575 C573 1.387 . S
C575 C577 1.390 1_565 S
C575 H579 0.950 . S
H576 C572 0.950 . S
C577 C575 1.390 1_545 S
C577 C578 1.387 . S
C577 H580 0.950 . S
C578 C577 1.387 . S
C578 C581 1.387 . S
H579 C575 0.950 . S
H580 C577 0.950 . S
C581 C572 1.390 1_545 S
C581 H574 0.950 . S
C581 C578 1.387 . S
C582 C583 1.387 . S
C582 H586 0.950 . S
C582 C591 1.390 1_645 S
C583 C582 1.387 . S
C583 C585 1.387 . S
H584 C591 0.950 . S
C585 C583 1.387 . S
C585 C587 1.390 1_645 S
C585 H589 0.950 . S
H586 C582 0.950 . S
C587 C585 1.390 1_465 S
C587 C588 1.387 . S
C587 H590 0.950 . S
C588 C587 1.387 . S
C588 C591 1.387 . S
H589 C585 0.950 . S
H590 C587 0.950 . S
C591 C582 1.390 1_465 S
C591 H584 0.950 . S
C591 C588 1.387 . S
C592 C593 1.391 . S
C592 H596 0.950 . S
C592 C601 1.390 . S
C593 C592 1.391 . S
C593 C595 1.384 1_554 S
H594 C601 0.950 . S
C595 C593 1.384 1_556 S
C595 C597 1.390 . S
C595 H599 0.950 . S
H596 C592 0.950 . S
C597 C595 1.390 . S
C597 C598 1.384 1_556 S
C597 H600 0.950 . S
C598 C597 1.384 1_554 S
C598 C601 1.391 . S
H599 C595 0.950 . S
H600 C597 0.950 . S
C601 C592 1.390 . S
C601 H594 0.950 . S
C601 C598 1.391 . S
C602 C603 1.387 . S
C602 H606 0.950 . S
C602 C611 1.390 1_545 S
C603 C602 1.387 . S
C603 C605 1.387 . S
H604 C611 0.950 . S
C605 C603 1.387 . S
C605 C607 1.390 1_545 S
C605 H609 0.950 . S
H606 C602 0.950 . S
C607 C605 1.390 1_565 S
C607 C608 1.387 . S
C607 H610 0.950 . S
C608 C607 1.387 . S
C608 C611 1.387 . S
H609 C605 0.950 . S
H610 C607 0.950 . S
C611 C602 1.390 1_565 S
C611 H604 0.950 . S
C611 C608 1.387 . S
C612 C613 1.391 . S
C612 H616 0.950 . S
C612 C621 1.390 . S
C613 C612 1.391 . S
C613 C615 1.384 1_556 S
H614 C621 0.950 . S
C615 C613 1.384 1_554 S
C615 C617 1.390 . S
C615 H619 0.950 . S
H616 C612 0.950 . S
C617 C615 1.390 . S
C617 C618 1.384 1_554 S
C617 H620 0.950 . S
C618 C617 1.384 1_556 S
C618 C621 1.391 . S
H619 C615 0.950 . S
H620 C617 0.950 . S
C621 C612 1.390 . S
C621 H614 0.950 . S
C621 C618 1.391 . S
C622 C623 1.387 . S
C622 H626 0.950 . S
C622 C631 1.390 1_565 S
C623 C622 1.387 . S
C623 C625 1.387 . S
H624 C631 0.950 . S
C625 C623 1.387 . S
C625 C627 1.390 1_565 S
C625 H629 0.950 . S
H626 C622 0.950 . S
C627 C625 1.390 1_545 S
C627 C628 1.387 . S
C627 H630 0.950 . S
C628 C627 1.387 . S
C628 C631 1.387 . S
H629 C625 0.950 . S
H630 C627 0.950 . S
C631 C622 1.390 1_545 S
C631 H624 0.950 . S
C631 C628 1.387 . S
C473 C52 1.645 . S
C478 C111 1.645 . S
C483 C229 1.645 . S
C488 C170 1.645 . S
C493 C288 1.645 . S
C498 C347 1.645 . S
C503 C406 1.645 . S
C508 C465 1.645 . S
C513 C3 1.899 . S
C518 C121 1.899 . S
C523 C180 1.898 . S
C528 C62 1.899 . S
C533 C239 1.897 . S
C538 C357 1.897 . S
C543 C416 1.897 . S
C548 C298 1.897 . S
C553 C5 1.405 . S
C558 C241 1.405 . S
C563 C64 1.402 . S
C568 C300 1.402 . S
C573 C359 1.402 . S
C578 C123 1.402 . S
C583 C418 1.403 . S
C588 C182 1.403 . S
C593 C92 1.531 . S
C598 C33 1.531 . S
C603 C151 1.530 . S
C608 C210 1.530 . S
C613 C269 1.531 . S
C618 C328 1.531 . S
C623 C387 1.530 . S
C628 C446 1.530 . S
