# Generated by pormake.
# Topology pts-e, (5)-cn, num edge types: 1
# Building blocks:
#     Node 0, Type 0, BuildingBlock: BEQFEK_clean_sbu_0, # of connection points: 5
#     Node 1, Type 0, BuildingBlock: BEQFEK_clean_sbu_0, # of connection points: 5
#     Node 2, Type 0, BuildingBlock: BEQFEK_clean_sbu_0, # of connection points: 5
#     Node 3, Type 0, BuildingBlock: BEQFEK_clean_sbu_0, # of connection points: 5
#     Node 4, Type 0, BuildingBlock: BEQFEK_clean_sbu_0, # of connection points: 5
#     Node 5, Type 0, BuildingBlock: BEQFEK_clean_sbu_0, # of connection points: 5
#     Node 6, Type 0, BuildingBlock: BEQFEK_clean_sbu_0, # of connection points: 5
#     Node 7, Type 0, BuildingBlock: BEQFEK_clean_sbu_0, # of connection points: 5
#     Edge 8, Type (0, 0), BuildingBlock: XUDNAN_clean_linker_2, # of connection points: 2
#     Edge 9, Type (0, 0), BuildingBlock: XUDNAN_clean_linker_2, # of connection points: 2
#     Edge 10, Type (0, 0), BuildingBlock: XUDNAN_clean_linker_2, # of connection points: 2
#     Edge 11, Type (0, 0), BuildingBlock: XUDNAN_clean_linker_2, # of connection points: 2
#     Edge 12, Type (0, 0), BuildingBlock: XUDNAN_clean_linker_2, # of connection points: 2
#     Edge 13, Type (0, 0), BuildingBlock: XUDNAN_clean_linker_2, # of connection points: 2
#     Edge 14, Type (0, 0), BuildingBlock: XUDNAN_clean_linker_2, # of connection points: 2
#     Edge 15, Type (0, 0), BuildingBlock: XUDNAN_clean_linker_2, # of connection points: 2
#     Edge 16, Type (0, 0), BuildingBlock: XUDNAN_clean_linker_2, # of connection points: 2
#     Edge 17, Type (0, 0), BuildingBlock: XUDNAN_clean_linker_2, # of connection points: 2
#     Edge 18, Type (0, 0), BuildingBlock: XUDNAN_clean_linker_2, # of connection points: 2
#     Edge 19, Type (0, 0), BuildingBlock: XUDNAN_clean_linker_2, # of connection points: 2
#     Edge 20, Type (0, 0), BuildingBlock: XUDNAN_clean_linker_2, # of connection points: 2
#     Edge 21, Type (0, 0), BuildingBlock: XUDNAN_clean_linker_2, # of connection points: 2
#     Edge 22, Type (0, 0), BuildingBlock: XUDNAN_clean_linker_2, # of connection points: 2
#     Edge 23, Type (0, 0), BuildingBlock: XUDNAN_clean_linker_2, # of connection points: 2
#     Edge 24, Type (0, 0), BuildingBlock: XUDNAN_clean_linker_2, # of connection points: 2
#     Edge 25, Type (0, 0), BuildingBlock: XUDNAN_clean_linker_2, # of connection points: 2
#     Edge 26, Type (0, 0), BuildingBlock: XUDNAN_clean_linker_2, # of connection points: 2
#     Edge 27, Type (0, 0), BuildingBlock: XUDNAN_clean_linker_2, # of connection points: 2
# Relax obj value: 0.378
# Max RMSD: 0.223
# Mean RMSD: 0.223
data_MOF--net-pts-e--node1-BEQFEK_clean_sbu_0--edge1-XUDNAN_clean_linker_2
_symmetry_space_group_name_H-M    P1
_symmetry_Int_Tables_number       1
_symmetry_cell_setting            triclinic
loop_
_symmetry_equiv_pos_as_xyz
'x, y, z'
_cell_length_a     36.041628
_cell_length_b     35.864786
_cell_length_c     50.913585
_cell_angle_alpha  90.066196
_cell_angle_beta   89.914143
_cell_angle_gamma 89.753648
loop_
_atom_site_label
_atom_site_type_symbol
_atom_site_fract_x
_atom_site_fract_y
_atom_site_fract_z
_atom_type_partial_charge
Co0 Co 0.1986 0.02085 0.16946 0.0
Co1 Co 0.27883 0.02301 0.19187 0.0
C2 C 0.22261 0.08094 0.2076 0.0
O3 O 0.19833 0.06532 0.19304 0.0
O4 O 0.2558 0.06817 0.20907 0.0
C5 C 0.12686 0.9963 0.16235 0.0
O6 O 0.13119 0.9884 0.18732 0.0
C7 C 0.3581 0.03963 0.20421 0.0
C8 C 0.3797 0.98178 0.20387 0.0
C9 C 0.39039 0.01851 0.20701 0.0
N10 N 0.3299 0.01612 0.19946 0.0
N11 N 0.34305 0.98169 0.19954 0.0
C12 C 0.35429 0.08115 0.20387 0.0
H13 H 0.32833 0.08953 0.19372 0.0
H14 H 0.37857 0.09398 0.19401 0.0
H15 H 0.35303 0.09158 0.22438 0.0
C16 C 0.23854 0.02376 0.11896 0.0
N17 N 0.23807 0.02291 0.14538 0.0
N18 N 0.27221 0.02416 0.15435 0.0
C19 C 0.29571 0.02644 0.13367 0.0
C20 C 0.27511 0.02643 0.11049 0.0
C21 C 0.20453 0.01954 0.10235 0.0
H22 H 0.18783 0.99585 0.10972 0.0
H23 H 0.18736 0.04521 0.10396 0.0
H24 H 0.21138 0.01426 0.08144 0.0
O25 O 0.20183 0.97494 0.19035 0.0
O26 O 0.25701 0.97773 0.20854 0.0
H27 H 0.3488 0.00449 0.14427 0.0
H28 H 0.35011 0.03683 0.11702 0.0
C29 C 0.33683 0.03059 0.13616 0.0
H30 H 0.343 0.05352 0.15005 0.0
H31 H 0.32705 0.95804 0.19602 0.0
O32 O 0.15129 0.01533 0.15047 0.0
C33 C 0.2261 0.96149 0.20558 0.0
Co34 Co 0.96809 0.20349 0.68127 0.0
Co35 Co 0.99212 0.28477 0.69483 0.0
C36 C 0.92398 0.24815 0.7184 0.0
O37 O 0.92736 0.21976 0.7037 0.0
O38 O 0.94754 0.27462 0.71803 0.0
C39 C 0.95213 0.12915 0.68799 0.0
O40 O 0.94951 0.14156 0.71223 0.0
C41 C 0.98439 0.36694 0.69615 0.0
C42 C 0.043 0.38418 0.69934 0.0
C43 C 0.00724 0.39819 0.69717 0.0
N44 N 0.00585 0.33619 0.69721 0.0
N45 N 0.04081 0.34675 0.69929 0.0
C46 C 0.94288 0.36594 0.69521 0.0
H47 H 0.93235 0.3394 0.70331 0.0
H48 H 0.93357 0.36787 0.67451 0.0
H49 H 0.9308 0.38962 0.70643 0.0
C50 C 0.97296 0.23203 0.627 0.0
N51 N 0.97544 0.23666 0.65318 0.0
N52 N 0.98464 0.27133 0.65848 0.0
C53 C 0.98829 0.28994 0.63552 0.0
C54 C 0.98098 0.26565 0.61483 0.0
C55 C 0.96211 0.19617 0.61413 0.0
H56 H 0.98497 0.17562 0.61649 0.0
H57 H 0.93722 0.18471 0.62405 0.0
H58 H 0.95621 0.19997 0.59292 0.0
O59 O 0.01281 0.19845 0.70333 0.0
O60 O 0.03394 0.25554 0.71027 0.0
H61 H 0.02548 0.33402 0.64569 0.0
H62 H 0.00747 0.33696 0.61265 0.0
C63 C 0.00068 0.32956 0.63326 0.0
H64 H 0.97825 0.34825 0.64036 0.0
H65 H 0.06326 0.32835 0.70032 0.0
O66 O 0.95795 0.15236 0.66959 0.0
C67 C 0.03665 0.22038 0.71318 0.0
Co68 Co 0.83893 0.00106 0.15158 0.0
Co69 Co 0.76306 0.01512 0.17909 0.0
C70 C 0.81076 0.95366 0.19724 0.0
O71 O 0.83422 0.96422 0.18011 0.0
O72 O 0.77872 0.96892 0.19902 0.0
C73 C 0.88706 0.95253 0.12295 0.0
O74 O 0.86286 0.92665 0.1291 0.0
C75 C 0.68461 0.0206 0.19808 0.0
C76 C 0.67821 0.08198 0.1971 0.0
C77 C 0.65951 0.04944 0.20288 0.0
N78 N 0.7166 0.03568 0.18968 0.0
N79 N 0.71249 0.07232 0.18927 0.0
C80 C 0.67901 0.97977 0.20251 0.0
H81 H 0.65992 0.97511 0.21931 0.0
H82 H 0.70596 0.96571 0.2062 0.0
H83 H 0.66651 0.96714 0.18474 0.0
C84 C 0.79198 0.00206 0.10426 0.0
N85 N 0.79624 0.00429 0.13047 0.0
N86 N 0.76366 0.00869 0.14167 0.0
C87 C 0.73735 0.00904 0.12273 0.0
C88 C 0.75447 0.00444 0.09835 0.0
C89 C 0.82354 0.00055 0.0851 0.0
H90 H 0.8473 0.01691 0.0926 0.0
H91 H 0.83249 0.97114 0.08252 0.0
H92 H 0.81527 0.01181 0.06567 0.0
O93 O 0.85148 0.04808 0.16923 0.0
O94 O 0.7982 0.05473 0.19048 0.0
H95 H 0.69065 0.04153 0.13495 0.0
H96 H 0.67999 0.0069 0.11022 0.0
C97 C 0.6967 0.0128 0.12801 0.0
H98 H 0.68867 0.99324 0.14382 0.0
H99 H 0.73312 0.09085 0.18339 0.0
O100 O 0.88145 0.98592 0.13031 0.0
C101 C 0.83114 0.0653 0.18568 0.0
Co102 Co 0.05757 0.84498 0.65347 0.0
Co103 Co 0.02977 0.77415 0.68372 0.0
C104 C 0.09854 0.81223 0.70052 0.0
O105 O 0.09281 0.83654 0.68275 0.0
O106 O 0.07729 0.78402 0.7029 0.0
C107 C 0.07866 0.91405 0.62384 0.0
O108 O 0.09837 0.92898 0.60488 0.0
C109 C 0.01838 0.69473 0.69758 0.0
C110 C 0.95814 0.6955 0.70572 0.0
C111 C 0.9883 0.67175 0.70293 0.0
N112 N 0.00615 0.73023 0.69666 0.0
N113 N 0.97034 0.73049 0.70225 0.0
C114 C 0.0571 0.68308 0.6907 0.0
H115 H 0.07187 0.70602 0.68052 0.0
H116 H 0.05689 0.65769 0.67823 0.0
H117 H 0.07226 0.67627 0.70904 0.0
C118 C 0.04892 0.79526 0.60814 0.0
N119 N 0.04822 0.801 0.63427 0.0
N120 N 0.03571 0.77098 0.64614 0.0
C121 C 0.02769 0.74516 0.62751 0.0
C122 C 0.03617 0.75973 0.60297 0.0
C123 C 0.06064 0.82381 0.58839 0.0
H124 H 0.04345 0.84932 0.59083 0.0
H125 H 0.09004 0.8313 0.59191 0.0
H126 H 0.05797 0.81348 0.56794 0.0
O127 O 0.00986 0.86472 0.66824 0.0
O128 O -0.00442 0.81594 0.6931 0.0
H129 H 0.98698 0.71224 0.64756 0.0
H130 H -0.0039 0.69775 0.61418 0.0
C131 C 0.00883 0.70878 0.63243 0.0
H132 H 0.02954 0.68817 0.63936 0.0
H133 H 0.9537 0.75437 0.70213 0.0
O134 O 0.08334 0.87977 0.62912 0.0
C135 C 0.98954 0.84929 0.6856 0.0
Co136 Co 0.19363 0.00795 0.86636 0.0
Co137 Co 0.26779 0.02871 0.83947 0.0
C138 C 0.22928 0.95584 0.82815 0.0
O139 O 0.20434 0.96341 0.84508 0.0
O140 O 0.25573 0.97851 0.82325 0.0
C141 C 0.13875 0.96894 0.89845 0.0
O142 O 0.1565 0.93749 0.89399 0.0
C143 C 0.34806 0.03137 0.82719 0.0
C144 C 0.35384 0.09172 0.81935 0.0
C145 C 0.37384 0.05897 0.82192 0.0
N146 N 0.31427 0.04733 0.82797 0.0
N147 N 0.31791 0.08321 0.82267 0.0
C148 C 0.35572 0.99161 0.8342 0.0
H149 H 0.33108 0.97885 0.84366 0.0
H150 H 0.38009 0.98974 0.84746 0.0
H151 H 0.36249 0.97586 0.81604 0.0
C152 C 0.237 0.02192 0.91444 0.0
N153 N 0.23406 0.02041 0.88809 0.0
N154 N 0.26621 0.0285 0.87732 0.0
C155 C 0.29079 0.03559 0.89681 0.0
C156 C 0.27298 0.0317 0.92093 0.0
C157 C 0.20655 0.01124 0.933 0.0
H158 H 0.1818 0.02895 0.92933 0.0
H159 H 0.19903 0.98177 0.92941 0.0
H160 H 0.21472 0.01389 0.95387 0.0
O161 O 0.17841 0.04946 0.84286 0.0
O162 O 0.23207 0.06566 0.82526 0.0
H163 H 0.33151 0.06922 0.87752 0.0
H164 H 0.34275 0.05758 0.91112 0.0
C165 C 0.33018 0.0471 0.89266 0.0
H166 H 0.34648 0.02276 0.88571 0.0
H167 H 0.29605 0.10237 0.82277 0.0
O168 O 0.15034 -0.00094 0.88837 0.0
C169 C 0.1973 0.07025 0.82775 0.0
Co170 Co 0.02515 0.18848 0.3617 0.0
Co171 Co 0.00594 0.26789 0.34146 0.0
C172 C 0.07637 0.23066 0.32539 0.0
O173 O 0.06786 0.2031 0.33983 0.0
O174 O 0.05519 0.25919 0.32341 0.0
C175 C 0.07121 0.14039 0.39189 0.0
O176 O 0.09554 0.16748 0.39042 0.0
C177 C -0.00155 0.3489 0.32884 0.0
C178 C 0.93735 0.35425 0.33132 0.0
C179 C 0.96932 0.37435 0.32656 0.0
N180 N 0.9841 0.31545 0.33493 0.0
N181 N 0.94763 0.31893 0.33628 0.0
C182 C 0.0389 0.35565 0.32436 0.0
H183 H 0.05271 0.32992 0.31722 0.0
H184 H 0.05201 0.36373 0.34322 0.0
H185 H 0.04313 0.37841 0.30992 0.0
C186 C 0.00811 0.22353 0.41282 0.0
N187 N 0.0122 0.22523 0.38656 0.0
N188 N 0.00751 0.25973 0.37866 0.0
C189 C 0.0016 0.28157 0.39996 0.0
C190 C 0.00188 0.25932 0.42249 0.0
C191 C 0.0063 0.18774 0.42792 0.0
H192 H 0.03466 0.17959 0.43419 0.0
H193 H 0.98858 0.19074 0.44565 0.0
H194 H -0.00523 0.16526 0.41544 0.0
O195 O 0.9841 0.17611 0.33763 0.0
O196 O 0.97042 0.23332 0.3242 0.0
H197 H 0.96798 0.32992 0.39383 0.0
H198 H 0.00449 0.33627 0.41768 0.0
C199 C -0.00279 0.32301 0.39869 0.0
H200 H 0.01525 0.33444 0.38303 0.0
H201 H 0.92968 0.29708 0.34074 0.0
O202 O 0.04002 0.14366 0.38052 0.0
C203 C 0.96489 0.19832 0.32367 0.0
Co204 Co 0.8304 0.01487 0.85735 0.0
Co205 Co 0.75328 0.01594 0.8303 0.0
C206 C 0.80201 0.08407 0.83126 0.0
O207 O 0.82732 0.06697 0.84407 0.0
O208 O 0.77169 0.06792 0.82513 0.0
C209 C 0.89376 0.02964 0.8918 0.0
O210 O 0.8865 0.0655 0.89031 0.0
C211 C 0.6754 0.03552 0.82009 0.0
C212 C 0.6524 0.98034 0.80993 0.0
C213 C 0.64235 0.01696 0.81508 0.0
N214 N 0.70331 0.01064 0.81894 0.0
N215 N 0.6895 0.97792 0.81225 0.0
C216 C 0.68097 0.07624 0.82516 0.0
H217 H 0.68569 0.08091 0.84643 0.0
H218 H 0.65681 0.09298 0.8185 0.0
H219 H 0.70583 0.08594 0.81444 0.0
C220 C 0.78513 -0.00225 0.90394 0.0
N221 N 0.78856 0.0027 0.87781 0.0
N222 N 0.75557 0.00272 0.8669 0.0
C223 C 0.72987 -0.00226 0.88604 0.0
C224 C 0.74782 0.99421 0.91012 0.0
C225 C 0.81651 0.00228 0.92293 0.0
H226 H 0.83756 0.98022 0.91933 0.0
H227 H 0.8295 0.02984 0.91975 0.0
H228 H 0.80754 0.00091 0.9437 0.0
O229 O 0.83795 0.98124 0.82701 0.0
O230 O 0.78395 0.98369 0.80641 0.0
H231 H 0.68172 0.97864 0.86564 0.0
H232 H 0.67364 0.98962 0.89976 0.0
C233 C 0.68883 -0.00193 0.88176 0.0
H234 H 0.67984 0.02653 0.87611 0.0
H235 H 0.70519 0.9535 0.81062 0.0
O236 O 0.87421 0.00654 0.8791 0.0
C237 C 0.81743 0.97239 0.80775 0.0
Co238 Co 0.02904 0.83233 0.35882 0.0
Co239 Co 0.02074 0.75401 0.33365 0.0
C240 C 0.96624 0.81432 0.32135 0.0
O241 O 0.9848 0.8371 0.33543 0.0
O242 O 0.97547 0.77996 0.31943 0.0
C243 C 0.06966 0.88353 0.38809 0.0
O244 O 0.0957 0.8585 0.3838 0.0
C245 C -0.00269 0.67655 0.32156 0.0
C246 C 0.05259 0.65084 0.31557 0.0
C247 C 0.01511 0.64279 0.31659 0.0
N248 N 0.02337 0.7031 0.32367 0.0
N249 N 0.05621 0.68759 0.31966 0.0
C250 C 0.95692 0.68307 0.32667 0.0
H251 H 0.95264 0.70973 0.33738 0.0
H252 H 0.94508 0.65963 0.33812 0.0
H253 H 0.94208 0.68472 0.30763 0.0
C254 C 0.02399 0.78887 0.40805 0.0
N255 N 0.02491 0.79115 0.38164 0.0
N256 N 0.02265 0.75754 0.37145 0.0
C257 C 0.02073 0.73254 0.39133 0.0
C258 C 0.02122 0.75162 0.41519 0.0
C259 C 0.0283 0.82176 0.426 0.0
H260 H 0.01018 0.84493 0.41935 0.0
H261 H 0.02182 0.81539 0.44672 0.0
H262 H 0.05753 0.83107 0.42539 0.0
O263 O 0.07337 0.82917 0.33671 0.0
O264 O 0.06528 0.77588 0.31575 0.0
H265 H 0.03994 0.68093 0.37503 0.0
H266 H 0.01714 0.67621 0.40656 0.0
C267 C 0.01697 0.69136 0.38759 0.0
H268 H 0.99044 0.68553 0.37748 0.0
H269 H 0.0813 0.70191 0.32068 0.0
O270 O 0.03708 0.87796 0.37932 0.0
C271 C 0.08366 0.80546 0.31977 0.0
H272 H 0.24962 0.07282 0.07211 0.0
H273 H 0.32899 0.98421 0.08648 0.0
H274 H 0.34508 0.98313 0.03913 0.0
H275 H 0.21369 0.03465 0.01539 0.0
H276 H 0.20587 0.07836 0.99884 0.0
H277 H 0.20596 0.07668 0.03412 0.0
H278 H 0.25718 0.12723 0.03531 0.0
H279 H 0.25731 0.12895 0.99993 0.0
H280 H 0.2998 0.11979 0.01744 0.0
H281 H 0.34601 0.98609 0.98928 0.0
H282 H 0.32978 0.99099 0.94206 0.0
H283 H 0.24905 0.07681 0.96048 0.0
C284 C 0.27096 0.05374 0.06532 0.0
C285 C 0.2883 0.02877 0.08289 0.0
C286 C 0.31585 0.00398 0.07336 0.0
C287 C 0.32507 0.00316 0.0465 0.0
C288 C 0.30659 0.02746 0.02949 0.0
C289 C 0.28015 0.05238 0.03862 0.0
C290 C 0.26129 0.07264 0.01621 0.0
C291 C 0.21923 0.06511 0.01614 0.0
C292 C 0.2694 0.11465 0.01729 0.0
C293 C 0.28033 0.05447 0.99294 0.0
C294 C 0.30684 0.0289 1.00093 0.0
C295 C 0.32581 0.00652 0.98283 0.0
C296 C 0.3166 0.00956 0.95607 0.0
C297 C 0.28844 0.03444 0.94781 0.0
C298 C 0.27108 0.05797 0.96638 0.0
H299 H 0.03948 0.23309 0.46545 0.0
H300 H 0.95112 0.30909 0.44317 0.0
H301 H 0.93946 0.32304 0.4901 0.0
H302 H 0.98981 0.19289 0.51835 0.0
H303 H 0.0302 0.18611 0.53866 0.0
H304 H 0.03476 0.1862 0.50344 0.0
H305 H 0.08363 0.23882 0.50656 0.0
H306 H 0.07922 0.23891 0.54182 0.0
H307 H 0.07214 0.28142 0.52362 0.0
H308 H 0.93598 0.32646 0.54015 0.0
H309 H 0.93829 0.316 0.58832 0.0
H310 H 0.02428 0.23276 0.57723 0.0
C311 C 0.01765 0.2527 0.47036 0.0
C312 C -0.00363 0.27016 0.45053 0.0
C313 C 0.96838 0.29598 0.45792 0.0
C314 C 0.96137 0.30385 0.48457 0.0
C315 C 0.98232 0.28536 0.50362 0.0
C316 C 0.00971 0.26008 0.49678 0.0
C317 C 0.02631 0.24158 0.52082 0.0
C318 C 0.01987 0.19919 0.52028 0.0
C319 C 0.06778 0.25075 0.52335 0.0
C320 C 0.00384 0.26017 0.54235 0.0
C321 C 0.979 0.2858 0.53211 0.0
C322 C 0.95532 0.30645 0.54831 0.0
C323 C 0.95683 0.30043 0.57559 0.0
C324 C 0.98136 0.27358 0.58628 0.0
C325 C 0.00523 0.25339 0.56944 0.0
H326 H 0.76772 0.95228 0.0607 0.0
H327 H 0.70582 0.05384 0.07559 0.0
H328 H 0.6874 0.05618 0.0287 0.0
H329 H 0.80662 0.98112 1.00307 0.0
H330 H 0.80579 0.93641 0.9869 0.0
H331 H 0.80739 0.93879 0.02213 0.0
H332 H 0.74787 0.8986 0.02503 0.0
H333 H 0.74609 0.8961 0.98969 0.0
H334 H 0.7066 0.91327 1.00787 0.0
H335 H 0.6851 0.05299 0.97889 0.0
H336 H 0.69971 0.04503 0.93163 0.0
H337 H 0.76264 0.94524 0.94947 0.0
C338 C 0.74939 0.97441 0.05419 0.0
C339 C 0.73786 0.00271 0.07171 0.0
C340 C 0.71435 0.03154 0.06253 0.0
C341 C 0.70388 0.03309 0.03592 0.0
C342 C 0.7169 0.00539 0.01887 0.0
C343 C 0.73892 0.97638 0.02778 0.0
C344 C 0.75295 0.95252 1.00528 0.0
C345 C 0.7957 0.95222 1.0043 0.0
C346 C 0.73744 0.91276 1.00708 0.0
C347 C 0.7366 0.97332 0.98215 0.0
C348 C 0.71543 0.00346 0.99032 0.0
C349 C 0.70084 0.02896 0.97232 0.0
C350 C 0.70907 0.02416 0.9455 0.0
C351 C 0.73185 0.99426 0.93701 0.0
C352 C 0.74454 0.96788 0.9555 0.0
H353 H 0.97417 0.77086 0.45489 0.0
H354 H 0.06859 0.70036 0.43685 0.0
H355 H 0.07518 0.68506 0.48407 0.0
H356 H 0.01584 0.81306 0.50714 0.0
H357 H 0.97452 0.81885 0.52673 0.0
H358 H 0.97104 0.81623 0.49159 0.0
H359 H 0.92529 0.76095 0.49566 0.0
H360 H 0.9285 0.7635 0.53095 0.0
H361 H 0.93853 0.72026 0.51424 0.0
H362 H 0.07747 0.68556 0.53374 0.0
H363 H 0.07753 0.70448 0.58065 0.0
H364 H 0.98536 0.77923 0.56604 0.0
C365 C -0.00444 0.75135 0.46089 0.0
C366 C 0.02077 0.73658 0.44234 0.0
C367 C 0.04865 0.71146 0.45077 0.0
C368 C 0.05262 0.70276 0.47755 0.0
C369 C 0.02852 0.71951 0.4956 0.0
C370 C 0.0005 0.74335 0.48755 0.0
C371 C 0.9821 0.76247 0.51073 0.0
C372 C 0.98614 0.80515 0.50893 0.0
C373 C 0.94117 0.7511 0.51303 0.0
C374 C 0.0048 0.74661 0.5331 0.0
C375 C 0.03086 0.72115 0.5241 0.0
C376 C 0.05675 0.70491 0.54102 0.0
C377 C 0.05658 0.71567 0.56759 0.0
C378 C 0.03114 0.7428 0.57675 0.0
C379 C 0.0045 0.7578 0.55945 0.0
H380 H 0.07177 0.21233 0.27421 0.0
H381 H 0.15014 0.23004 0.33715 0.0
H382 H 0.19993 0.20135 0.31015 0.0
H383 H 0.09962 0.12447 0.26105 0.0
H384 H 0.09297 0.12561 0.22598 0.0
H385 H 0.06627 0.15608 0.24677 0.0
H386 H 0.08949 0.21359 0.22092 0.0
H387 H 0.11588 0.18321 0.19964 0.0
H388 H 0.13862 0.22075 0.21671 0.0
H389 H 0.2384 0.16184 0.27908 0.0
H390 H 0.26145 0.11435 0.24775 0.0
H391 H 0.15639 0.11913 0.20631 0.0
C392 C 0.09996 0.21212 0.28158 0.0
C393 C 0.10771 0.22494 0.3072 0.0
C394 C 0.14419 0.2218 0.31712 0.0
C395 C 0.17251 0.20531 0.30196 0.0
C396 C 0.1637 0.19157 0.27706 0.0
C397 C 0.12824 0.19499 0.26689 0.0
C398 C 0.12433 0.17302 0.24158 0.0
C399 C 0.09402 0.14303 0.24402 0.0
C400 C 0.11663 0.19921 0.21833 0.0
C401 C 0.16264 0.15565 0.23953 0.0
C402 C 0.18523 0.16725 0.25984 0.0
C403 C 0.2211 0.15306 0.26288 0.0
C404 C 0.23397 0.12601 0.24497 0.0
C405 C 0.21086 0.1129 0.22446 0.0
C406 C 0.17497 0.12861 0.22159 0.0
H407 H 0.86751 0.12264 0.83325 0.0
H408 H 0.75514 0.12956 0.80314 0.0
H409 H 0.77212 0.18513 0.77757 0.0
H410 H 0.88719 0.22721 0.83311 0.0
H411 H 0.93432 0.21888 0.82266 0.0
H412 H 0.91125 0.18563 0.84355 0.0
H413 H 0.92516 0.13317 0.80979 0.0
H414 H 0.9483 0.16609 0.78905 0.0
H415 H 0.91044 0.13898 0.7762 0.0
H416 H 0.80432 0.22887 0.74738 0.0
H417 H 0.84894 0.25712 0.7163 0.0
H418 H 0.93963 0.22527 0.76707 0.0
C419 C 0.84604 0.13669 0.82213 0.0
C420 C 0.80991 0.12165 0.82036 0.0
C421 C 0.78295 0.14049 0.80502 0.0
C422 C 0.79232 0.17228 0.79044 0.0
C423 C 0.82865 0.18536 0.79166 0.0
C424 C 0.855 0.16842 0.80743 0.0
C425 C 0.89321 0.18448 0.80253 0.0
C426 C 0.90731 0.2053 0.82692 0.0
C427 C 0.92085 0.15387 0.79387 0.0
C428 C 0.88467 0.21136 0.78039 0.0
C429 C 0.84713 0.21204 0.77469 0.0
C430 C 0.83349 0.22991 0.7523 0.0
C431 C 0.85891 0.24613 0.73481 0.0
C432 C 0.89734 0.24479 0.74006 0.0
C433 C 0.91014 0.22847 0.76355 0.0
H434 H 0.87656 0.9585 0.22163 0.0
H435 H 0.77671 0.89177 0.21945 0.0
H436 H 0.8049 0.84796 0.25188 0.0
H437 H 0.94191 0.88529 0.22661 0.0
H438 H 0.97199 0.91019 0.24871 0.0
H439 H 0.94344 0.93551 0.22583 0.0
H440 H 0.91438 0.97334 0.26414 0.0
H441 H 0.94301 0.94832 0.28716 0.0
H442 H 0.89333 0.94902 0.29127 0.0
H443 H 0.84856 0.80843 0.28194 0.0
H444 H 0.89861 0.78225 0.31014 0.0
H445 H 0.96581 0.87965 0.29468 0.0
C446 C 0.8605 0.93468 0.22802 0.0
C447 C 0.82467 0.92813 0.21787 0.0
C448 C 0.80425 0.89714 0.227 0.0
C449 C 0.82015 0.87214 0.2453 0.0
C450 C 0.85602 0.8792 0.2546 0.0
C451 C 0.87549 0.91026 0.24651 0.0
C452 C 0.91311 0.91259 0.2595 0.0
C453 C 0.94444 0.91077 0.23894 0.0
C454 C 0.91611 0.9479 0.27653 0.0
C455 C 0.91224 0.87775 0.27613 0.0
C456 C 0.87945 0.85836 0.27285 0.0
C457 C 0.87394 0.82385 0.28497 0.0
C458 C 0.90248 0.80912 0.30087 0.0
C459 C 0.93567 0.82932 0.30497 0.0
C460 C 0.94032 0.86405 0.29244 0.0
H461 H 0.2308 0.95162 0.77474 0.0
H462 H 0.21016 0.88647 0.84471 0.0
H463 H 0.18437 0.83573 0.8175 0.0
H464 H 0.14808 0.93433 0.74701 0.0
H465 H 0.16332 0.93231 0.7133 0.0
H466 H 0.18935 0.95868 0.73686 0.0
H467 H 0.24865 0.92082 0.72556 0.0
H468 H 0.2228 0.89445 0.70165 0.0
H469 H 0.24777 0.87063 0.72733 0.0
H470 H 0.15077 0.79738 0.78392 0.0
H471 H 0.1108 0.77619 0.7475 0.0
H472 H 0.15075 0.86755 0.69948 0.0
C473 C 0.22272 0.92578 0.7841 0.0
C474 C 0.22351 0.92237 0.81171 0.0
C475 C 0.21064 0.88913 0.82351 0.0
C476 C 0.19591 0.86019 0.80819 0.0
C477 C 0.1939 0.86501 0.78105 0.0
C478 C 0.20716 0.89696 0.76907 0.0
C479 C 0.19638 0.89801 0.74029 0.0
C480 C 0.17289 0.93288 0.73402 0.0
C481 C 0.23097 0.89584 0.72266 0.0
C482 C 0.1736 0.86268 0.73828 0.0
C483 C 0.17325 0.84351 0.76179 0.0
C484 C 0.15147 0.81176 0.76525 0.0
C485 C 0.12881 0.79988 0.74441 0.0
C486 C 0.12761 0.82003 0.72051 0.0
C487 C 0.15123 0.85119 0.71734 0.0
H488 H 0.96905 0.84488 0.73687 0.0
H489 H 0.94395 0.90327 0.66451 0.0
H490 H 0.8932 0.93762 0.68722 0.0
H491 H 0.8767 0.8367 0.76278 0.0
H492 H 0.89045 0.84629 0.79613 0.0
H493 H 0.92278 0.8247 0.77371 0.0
H494 H 0.97034 0.87723 0.78257 0.0
H495 H 0.93835 0.89875 0.80521 0.0
H496 H 0.95658 0.92518 0.77804 0.0
H497 H 0.843 0.96323 0.71814 0.0
H498 H 0.80608 0.98685 0.75578 0.0
H499 H 0.86939 0.91645 0.80855 0.0
C500 C 0.95256 0.86459 0.72571 0.0
C501 C 0.95971 0.87082 0.69878 0.0
C502 C 0.93849 0.89776 0.68506 0.0
C503 C 0.90958 0.91722 0.69779 0.0
C504 C 0.90288 0.90995 0.72434 0.0
C505 C 0.92446 0.88492 0.73825 0.0
C506 C 0.91403 0.88446 0.76709 0.0
C507 C 0.90016 0.84573 0.77541 0.0
C508 C 0.94676 0.89717 0.78423 0.0
C509 C 0.88285 0.91285 0.76731 0.0
C510 C 0.87625 0.92669 0.74239 0.0
C511 C 0.84816 0.95273 0.73773 0.0
C512 C 0.8271 0.96572 0.75917 0.0
C513 C 0.83482 0.95334 0.78501 0.0
C514 C 0.86282 0.92628 0.78898 0.0
H515 H 0.16435 0.91778 0.2014 0.0
H516 H 0.2649 0.93178 0.24711 0.0
H517 H 0.24313 0.88376 0.27821 0.0
H518 H 0.10487 0.9126 0.25325 0.0
H519 H 0.07424 0.87845 0.23911 0.0
H520 H 0.1007 0.90849 0.21809 0.0
H521 H 0.12887 0.85086 0.19461 0.0
H522 H 0.10248 0.82048 0.21567 0.0
H523 H 0.15219 0.81544 0.21361 0.0
H524 H 0.20524 0.84422 0.30857 0.0
H525 H 0.15547 0.81411 0.33447 0.0
H526 H 0.08103 0.82311 0.26819 0.0
C527 C 0.18233 0.91007 0.21753 0.0
C528 C 0.21637 0.9286 0.22179 0.0
C529 C 0.23884 0.91786 0.24332 0.0
C530 C 0.2267 0.89055 0.26108 0.0
C531 C 0.19234 0.87383 0.25682 0.0
C532 C 0.1707 0.88285 0.23534 0.0
C533 C 0.13332 0.86376 0.23652 0.0
C534 C 0.10143 0.89254 0.23677 0.0
C535 C 0.12898 0.83597 0.21375 0.0
C536 C 0.13661 0.8438 0.26261 0.0
C537 C 0.171 0.84969 0.27393 0.0
C538 C 0.17875 0.83827 0.29954 0.0
C539 C 0.15045 0.82116 0.3141 0.0
C540 C 0.11516 0.81517 0.30285 0.0
C541 C 0.10844 0.82585 0.27666 0.0
H542 H 0.0343 0.15521 0.74053 0.0
H543 H 0.10541 0.24964 0.72392 0.0
H544 H 0.1543 0.22203 0.75219 0.0
H545 H 0.05972 0.1467 0.80864 0.0
H546 H 0.05702 0.09653 0.80858 0.0
H547 H 0.02835 0.12335 0.78659 0.0
H548 H 0.05479 0.0865 0.74691 0.0
H549 H 0.08347 0.05948 0.76875 0.0
H550 H 0.10429 0.08452 0.74187 0.0
H551 H 0.19636 0.18202 0.78062 0.0
H552 H 0.22676 0.13521 0.80915 0.0
H553 H 0.12582 0.06976 0.80957 0.0
C554 C 0.06026 0.17001 0.74267 0.0
C555 C 0.06633 0.20435 0.72978 0.0
C556 C 0.10033 0.22322 0.73354 0.0
C557 C 0.12819 0.20774 0.74953 0.0
C558 C 0.12125 0.17379 0.76195 0.0
C559 C 0.08793 0.1554 0.75891 0.0
C560 C 0.08684 0.11985 0.77491 0.0
C561 C 0.05617 0.12174 0.79593 0.0
C562 C 0.08208 0.08557 0.75704 0.0
C563 C 0.12503 0.12073 0.78721 0.0
C564 C 0.14458 0.1519 0.77934 0.0
C565 C 0.18115 0.15777 0.78715 0.0
C566 C 0.19819 0.13104 0.80331 0.0
C567 C 0.17849 0.09915 0.81182 0.0
C568 C 0.14133 0.09423 0.80379 0.0
H569 H 0.89889 0.063 0.20886 0.0
H570 H 0.79881 0.12983 0.20295 0.0
H571 H 0.82269 0.17235 0.23735 0.0
H572 H 0.90336 0.06625 0.27755 0.0
H573 H 0.95327 0.06763 0.27946 0.0
H574 H 0.93115 0.04565 0.25185 0.0
H575 H 0.96694 0.08844 0.21972 0.0
H576 H 0.98978 0.11013 0.24719 0.0
H577 H 0.96458 0.13831 0.22392 0.0
H578 H 0.85733 0.20668 0.27306 0.0
H579 H 0.89884 0.22889 0.30847 0.0
H580 H 0.97265 0.13523 0.29418 0.0
C581 C 0.88262 0.08732 0.21422 0.0
C582 C 0.84753 0.09393 0.20282 0.0
C583 C 0.82611 0.12492 0.21114 0.0
C584 C 0.8394 0.14904 0.23069 0.0
C585 C 0.87374 0.1412 0.24206 0.0
C586 C 0.895 0.11099 0.2342 0.0
C587 C 0.92933 0.10677 0.25108 0.0
C588 C 0.92924 0.06936 0.26586 0.0
C589 C 0.96475 0.11119 0.23449 0.0
C590 C 0.92407 0.1393 0.26972 0.0
C591 C 0.89215 0.15915 0.26396 0.0
C592 C 0.88222 0.19119 0.27788 0.0
C593 C 0.90583 0.20351 0.29798 0.0
C594 C 0.93842 0.18333 0.30433 0.0
C595 C 0.94737 0.15063 0.29016 0.0
H596 H 0.08215 0.02597 0.12474 0.0
H597 H 0.10593 0.92453 0.16756 0.0
H598 H 0.05269 0.89379 0.14665 0.0
H599 H 0.99393 0.02753 0.13772 0.0
H600 H 0.97705 0.0457 0.10693 0.0
H601 H 0.02379 0.05462 0.11671 0.0
H602 H 0.04735 0.02566 0.07303 0.0
H603 H 0.0002 0.01608 0.06336 0.0
H604 H 0.03399 0.97892 0.06422 0.0
H605 H 0.99099 0.87932 0.13129 0.0
H606 H 0.92318 0.88629 0.12979 0.0
H607 H 0.93546 -0.00271 0.09771 0.0
C608 C 0.07674 0.99684 0.12871 0.0
C609 C 0.09777 0.97741 0.14748 0.0
C610 C 0.08977 0.93976 0.15317 0.0
C611 C 0.06 0.92191 0.14103 0.0
C612 C 0.0384 0.94218 0.12336 0.0
C613 C 0.04633 0.97899 0.11725 0.0
C614 C 0.0143 -0.00275 0.10296 0.0
C615 C 0.00152 0.03333 0.11695 0.0
C616 C 0.02458 0.00491 0.07418 0.0
C617 C 0.98573 0.96652 0.10486 0.0
C618 C 0.00092 0.93415 0.11511 0.0
C619 C 0.97889 0.90404 0.12259 0.0
C620 C 0.94029 0.90818 0.12163 0.0
C621 C 0.92447 0.94249 0.11386 0.0
C622 C 0.94727 0.97075 0.10352 0.0
H623 H 0.95781 0.09431 0.6405 0.0
H624 H 0.95931 0.07356 0.72443 0.0
H625 H 0.98273 0.00995 0.71635 0.0
H626 H 0.93625 0.99352 0.61999 0.0
H627 H 0.96593 -0.00187 0.59166 0.0
H628 H 0.94023 0.03791 0.60367 0.0
H629 H 0.00154 0.07507 0.60703 0.0
H630 H 0.0275 0.03542 0.59564 0.0
H631 H 0.03905 0.05675 0.62663 0.0
H632 H 0.0207 0.95643 0.70017 0.0
H633 H 0.06358 0.91408 0.67639 0.0
H634 H 0.0349 0.9678 0.60303 0.0
C635 C 0.96163 0.07586 0.65711 0.0
C636 C 0.9569 0.08888 0.68305 0.0
C637 C 0.96261 0.06413 0.70434 0.0
C638 C 0.97591 0.02788 0.69996 0.0
C639 C 0.98257 0.01666 0.67417 0.0
C640 C 0.97471 0.0396 0.65304 0.0
C641 C 0.98846 0.02284 0.62754 0.0
C642 C 0.95576 0.01247 0.60966 0.0
C643 C 0.01576 0.04908 0.61342 0.0
C644 C 0.00778 0.98839 0.63784 0.0
C645 C 0.00353 0.98486 0.66472 0.0
C646 C 0.02296 0.95796 0.679 0.0
C647 C 0.04719 0.93405 0.6654 0.0
C648 C 0.05122 0.93693 0.63788 0.0
C649 C 0.03126 0.96437 0.62401 0.0
H650 H 0.95356 0.06839 0.90972 0.0
H651 H 0.90519 0.95805 0.90757 0.0
H652 H 0.96337 0.93112 0.92389 0.0
H653 H 0.03 0.04821 0.88185 0.0
H654 H 0.06153 0.0767 0.90054 0.0
H655 H 0.01352 0.0891 0.89903 0.0
H656 H 0.0094 0.08794 0.94983 0.0
H657 H 0.0579 0.07554 0.95151 0.0
H658 H 0.02375 0.04686 0.96754 0.0
H659 H 0.0287 0.91423 0.92534 0.0
H660 H 0.09451 0.90995 0.91236 0.0
H661 H 0.10256 0.0304 0.91575 0.0
C662 C 0.95482 0.03886 0.91398 0.0
C663 C 0.92521 0.01532 0.90723 0.0
C664 C 0.92778 0.97662 0.91245 0.0
C665 C 0.96063 0.96106 0.92205 0.0
C666 C 0.99052 0.98458 0.9267 0.0
C667 C 0.9877 0.02289 0.92341 0.0
C668 C 0.02541 0.04109 0.92463 0.0
C669 C 0.03303 0.0651 0.90005 0.0
C670 C 0.02934 0.06422 0.94989 0.0
C671 C 0.04992 0.00676 0.92558 0.0
C672 C 0.02935 0.97448 0.92799 0.0
C673 C 0.04533 0.93924 0.92445 0.0
C674 C 0.08271 0.93701 0.91695 0.0
C675 C 0.10332 0.96987 0.91283 0.0
C676 C 0.08731 0.00483 0.91883 0.0
H677 H 0.02118 0.93507 0.40698 0.0
H678 H 0.13858 0.91188 0.39782 0.0
H679 H 0.15297 0.9763 0.41103 0.0
H680 H 0.01952 0.01353 0.37656 0.0
H681 H 0.98655 0.0383 0.39683 0.0
H682 H 0.986 0.98847 0.39601 0.0
H683 H 0.99375 0.98623 0.44659 0.0
H684 H 0.99415 0.03651 0.44759 0.0
H685 H 0.03185 0.01034 0.46187 0.0
H686 H 0.15367 0.04503 0.41218 0.0
H687 H 0.14021 0.11072 0.40105 0.0
H688 H 0.02264 0.08982 0.41035 0.0
C689 C 0.04995 0.94322 0.40881 0.0
C690 C 0.07872 0.91882 0.40126 0.0
C691 C 0.11608 0.93024 0.40363 0.0
C692 C 0.12454 0.96674 0.4113 0.0
C693 C 0.09534 0.99104 0.41708 0.0
C694 C 0.05872 0.97947 0.41645 0.0
C695 C 0.0322 0.01201 0.41878 0.0
C696 C 0.00452 0.01313 0.39566 0.0
C697 C 0.01179 0.01122 0.44529 0.0
C698 C 0.05941 0.04386 0.41772 0.0
C699 C 0.09579 0.03136 0.41789 0.0
C700 C 0.12542 0.05533 0.41294 0.0
C701 C 0.11757 0.09256 0.40655 0.0
C702 C 0.0804 0.10493 0.40472 0.0
C703 C 0.0513 0.08084 0.41173 0.0
H704 H 0.45097 0.98452 0.18653 0.0
H705 H 0.41788 0.07807 0.2355 0.0
H706 H 0.48392 0.09456 0.24161 0.0
H707 H 0.53117 0.95795 0.22374 0.0
H708 H 0.55805 0.94548 0.19513 0.0
H709 H 0.50826 0.94139 0.19454 0.0
H710 H 0.50513 0.98388 0.1534 0.0
H711 H 0.5549 0.98763 0.15365 0.0
H712 H 0.52659 0.02917 0.15435 0.0
H713 H 0.55393 0.10081 0.24164 0.0
H714 H 0.62174 0.09792 0.23425 0.0
H715 H 0.60754 -0.00057 0.18588 0.0
C716 C 0.45753 0.0085 0.1986 0.0
C717 C 0.42929 0.03034 0.21026 0.0
C718 C 0.439 0.06153 0.22581 0.0
C719 C 0.47644 0.0708 0.22965 0.0
C720 C 0.50358 0.04842 0.21792 0.0
C721 C 0.49448 0.01801 0.20262 0.0
C722 C 0.52856 -0.00124 0.19171 0.0
C723 C 0.53168 0.95851 0.2019 0.0
C724 C 0.5288 -4e-05 0.16149 0.0
C725 C 0.55848 0.02314 0.20318 0.0
C726 C 0.54359 0.05157 0.21833 0.0
C727 C 0.56587 0.07847 0.23004 0.0
C728 C 0.60427 0.07658 0.22576 0.0
C729 C 0.61991 0.04789 0.21006 0.0
C730 C 0.59665 0.02074 0.19885 0.0
H731 H 0.03567 0.61691 0.72137 0.0
H732 H 0.93405 0.63455 0.67742 0.0
H733 H 0.92787 0.56674 0.67111 0.0
H734 H 0.07042 0.53962 0.6827 0.0
H735 H 0.08873 0.51465 0.71055 0.0
H736 H 0.08565 0.56478 0.71138 0.0
H737 H 0.04689 0.56129 0.75421 0.0
H738 H 0.04979 0.51114 0.75348 0.0
H739 H 0.0051 0.53384 0.75479 0.0
H740 H 0.93383 0.49779 0.66781 0.0
H741 H 0.94945 0.43119 0.67007 0.0
H742 H 0.0449 0.45678 0.71871 0.0
C743 C 0.01235 0.60642 0.71026 0.0
C744 C 0.98546 0.63091 0.69972 0.0
C745 C 0.95487 0.6162 0.68574 0.0
C746 C 0.95119 0.57777 0.68195 0.0
C747 C 0.97812 0.55432 0.69251 0.0
C748 C 0.00797 0.56792 0.70655 0.0
C749 C 0.0324 0.53635 0.7163 0.0
C750 C 0.07162 0.53902 0.70452 0.0
C751 C 0.0336 0.53562 0.74649 0.0
C752 C 0.01162 0.50303 0.70545 0.0
C753 C 0.98056 0.51412 0.69166 0.0
C754 C 0.95761 0.48862 0.67908 0.0
C755 C 0.96642 0.45063 0.68085 0.0
C756 C -0.00253 0.43836 0.69556 0.0
C757 C 0.02055 0.46515 0.70772 0.0
H758 H 0.42234 0.01239 0.79626 0.0
H759 H 0.41597 0.10181 0.85349 0.0
H760 H 0.48419 0.1009 0.85795 0.0
H761 H 0.4992 0.96207 0.82559 0.0
H762 H 0.52033 0.95035 0.79453 0.0
H763 H 0.47083 0.95685 0.79669 0.0
H764 H 0.47401 0.00675 0.75998 0.0
H765 H 0.52355 0.00057 0.75782 0.0
H766 H 0.50429 0.04625 0.7639 0.0
H767 H 0.55194 0.08862 0.85768 0.0
H768 H 0.61638 0.06866 0.8507 0.0
H769 H 0.58035 0.99166 0.7901 0.0
C770 C 0.43548 0.03144 0.80985 0.0
C771 C 0.41431 0.05701 0.82469 0.0
C772 C 0.43206 0.08209 0.84199 0.0
C773 C 0.47064 0.08171 0.84469 0.0
C774 C 0.49093 0.05645 0.82963 0.0
C775 C 0.47414 0.03195 0.8124 0.0
C776 C 0.50273 0.0087 0.79786 0.0
C777 C 0.49799 0.96702 0.80405 0.0
C778 C 0.50104 0.01602 0.76812 0.0
C779 C 0.53809 0.02393 0.80972 0.0
C780 C 0.53054 0.05117 0.82816 0.0
C781 C 0.55839 0.0681 0.84274 0.0
C782 C 0.59511 0.05704 0.83824 0.0
C783 C 0.60376 0.03011 0.81877 0.0
C784 C 0.5747 0.01311 0.80457 0.0
H785 H 0.02098 0.4252 0.34332 0.0
H786 H 0.91836 0.41523 0.29951 0.0
H787 H 0.91737 0.48352 0.2928 0.0
H788 H -0.00086 0.51025 0.37556 0.0
H789 H 0.04564 0.52832 0.37357 0.0
H790 H 0.03824 0.47874 0.37476 0.0
H791 H 0.07531 0.47033 0.33144 0.0
H792 H 0.08322 0.51984 0.33029 0.0
H793 H 0.06194 0.49662 0.30279 0.0
H794 H 0.92781 0.5534 0.29124 0.0
H795 H 0.9503 0.61853 0.29359 0.0
H796 H 0.04633 0.58109 0.33769 0.0
C797 C -0.00114 0.4371 0.33167 0.0
C798 C 0.97025 0.41482 0.32135 0.0
C799 C 0.94076 0.43188 0.30737 0.0
C800 C 0.93994 0.47058 0.30348 0.0
C801 C 0.96873 0.49175 0.31383 0.0
C802 C -0.00231 0.47554 0.32754 0.0
C803 C 0.02519 0.50434 0.33678 0.0
C804 C 0.02714 0.50547 0.36696 0.0
C805 C 0.06368 0.49737 0.32459 0.0
C806 C 0.00736 0.53926 0.32594 0.0
C807 C 0.97465 0.53161 0.31295 0.0
C808 C 0.95335 0.55975 0.30143 0.0
C809 C 0.96612 0.59664 0.30304 0.0
C810 C -0.00016 0.60475 0.31598 0.0
C811 C 0.02049 0.57563 0.32758 0.0
loop_
_geom_bond_atom_site_label_1
_geom_bond_atom_site_label_2
_geom_bond_distance
_geom_bond_site_symmetry_2
_ccdc_geom_bond_type
Co0 O3 1.970 . S
Co0 N17 1.989 . S
Co0 O25 1.967 1_545 S
Co0 O32 1.920 . S
Co1 O4 1.966 . S
Co1 N10 2.022 . S
Co1 N18 1.993 . S
Co1 O26 1.941 1_545 S
C2 O3 1.258 . S
C2 O4 1.263 . S
O3 Co0 1.970 . S
O3 C2 1.258 . S
O4 Co1 1.966 . S
O4 C2 1.263 . S
C5 O6 1.235 . S
C5 O32 1.289 . S
O6 C5 1.235 . S
C7 C9 1.400 . S
C7 N10 1.351 . S
C7 C12 1.501 . S
C8 C9 1.377 1_565 S
C8 N11 1.343 . S
C9 C7 1.400 . S
C9 C8 1.377 1_545 S
N10 Co1 2.022 . S
N10 C7 1.351 . S
N10 N11 1.365 1_545 S
N11 C8 1.343 . S
N11 N10 1.365 1_565 S
N11 H31 0.862 . S
C12 C7 1.501 . S
C12 H13 0.961 . S
C12 H14 0.961 . S
C12 H15 0.960 . S
H13 C12 0.961 . S
H14 C12 0.961 . S
H15 C12 0.960 . S
C16 N17 1.342 . S
C16 C20 1.401 . S
C16 C21 1.499 . S
N17 Co0 1.989 . S
N17 C16 1.342 . S
N17 N18 1.388 . S
N18 Co1 1.993 . S
N18 N17 1.388 . S
N18 C19 1.346 . S
C19 N18 1.346 . S
C19 C20 1.396 . S
C19 C29 1.510 . S
C20 C16 1.401 . S
C20 C19 1.396 . S
C21 C16 1.499 . S
C21 H22 0.959 . S
C21 H23 0.960 . S
C21 H24 0.961 1_545 S
H22 C21 0.959 . S
H23 C21 0.960 . S
H24 C21 0.961 1_565 S
O25 Co0 1.967 1_565 S
O25 C33 1.258 . S
O26 Co1 1.941 1_565 S
O26 C33 1.266 . S
H27 C29 0.959 1_565 S
H28 C29 0.961 . S
C29 C19 1.510 . S
C29 H27 0.959 1_545 S
C29 H28 0.961 . S
C29 H30 0.960 . S
H30 C29 0.960 . S
H31 N11 0.862 . S
O32 Co0 1.920 . S
O32 C5 1.289 . S
C33 O25 1.258 . S
C33 O26 1.266 . S
Co34 O37 1.970 1_455 S
Co34 N51 1.989 . S
Co34 O59 1.967 . S
Co34 O66 1.920 . S
Co35 O38 1.966 1_455 S
Co35 N44 2.022 . S
Co35 N52 1.993 . S
Co35 O60 1.941 . S
C36 O37 1.258 . S
C36 O38 1.263 . S
O37 Co34 1.970 1_655 S
O37 C36 1.258 . S
O38 Co35 1.966 1_655 S
O38 C36 1.263 . S
C39 O40 1.235 . S
C39 O66 1.289 1_655 S
O40 C39 1.235 . S
C41 C43 1.400 1_655 S
C41 N44 1.351 1_655 S
C41 C46 1.501 . S
C42 C43 1.387 . S
C42 N45 1.341 . S
C43 C41 1.400 1_455 S
C43 C42 1.387 . S
N44 Co35 2.022 . S
N44 C41 1.351 1_455 S
N44 N45 1.365 . S
N45 C42 1.341 . S
N45 N44 1.365 . S
N45 H65 0.862 . S
C46 C41 1.501 . S
C46 H47 0.961 . S
C46 H48 0.961 . S
C46 H49 0.960 . S
H47 C46 0.961 . S
H48 C46 0.961 . S
H49 C46 0.960 . S
C50 N51 1.342 . S
C50 C54 1.401 . S
C50 C55 1.499 . S
N51 Co34 1.989 . S
N51 C50 1.342 . S
N51 N52 1.388 . S
N52 Co35 1.993 . S
N52 N51 1.388 . S
N52 C53 1.346 . S
C53 N52 1.346 . S
C53 C54 1.396 . S
C53 C63 1.510 . S
C54 C50 1.401 . S
C54 C53 1.396 . S
C55 C50 1.499 . S
C55 H56 0.959 . S
C55 H57 0.960 . S
C55 H58 0.961 . S
H56 C55 0.959 . S
H57 C55 0.960 . S
H58 C55 0.961 . S
O59 Co34 1.967 . S
O59 C67 1.258 . S
O60 Co35 1.941 . S
O60 C67 1.266 . S
H61 C63 0.959 . S
H62 C63 0.961 1_655 S
C63 C53 1.510 . S
C63 H61 0.959 . S
C63 H62 0.961 1_455 S
C63 H64 0.960 . S
H64 C63 0.960 . S
H65 N45 0.862 . S
O66 Co34 1.920 . S
O66 C39 1.289 1_455 S
C67 O59 1.258 . S
C67 O60 1.266 . S
Co68 O71 1.970 1_545 S
Co68 N85 1.989 . S
Co68 O93 1.967 . S
Co68 O100 1.920 . S
Co69 O72 1.966 1_545 S
Co69 N78 2.022 . S
Co69 N86 1.993 . S
Co69 O94 1.941 . S
C70 O71 1.258 . S
C70 O72 1.263 . S
O71 Co68 1.970 1_565 S
O71 C70 1.258 . S
O72 Co69 1.966 1_565 S
O72 C70 1.263 . S
C73 O74 1.235 . S
C73 O100 1.289 1_565 S
O74 C73 1.235 . S
C75 C77 1.400 1_565 S
C75 N78 1.351 1_565 S
C75 C80 1.501 . S
C76 C77 1.387 . S
C76 N79 1.341 . S
C77 C75 1.400 1_545 S
C77 C76 1.387 . S
N78 Co69 2.022 . S
N78 C75 1.351 1_545 S
N78 N79 1.365 . S
N79 C76 1.341 . S
N79 N78 1.365 . S
N79 H99 0.862 . S
C80 C75 1.501 . S
C80 H81 0.961 . S
C80 H82 0.961 . S
C80 H83 0.960 . S
H81 C80 0.961 . S
H82 C80 0.961 . S
H83 C80 0.960 . S
C84 N85 1.342 . S
C84 C88 1.401 . S
C84 C89 1.499 . S
N85 Co68 1.989 . S
N85 C84 1.342 . S
N85 N86 1.388 . S
N86 Co69 1.993 . S
N86 N85 1.388 . S
N86 C87 1.346 . S
C87 N86 1.346 . S
C87 C88 1.396 . S
C87 C97 1.510 . S
C88 C84 1.401 . S
C88 C87 1.396 . S
C89 C84 1.499 . S
C89 H90 0.959 . S
C89 H91 0.960 . S
C89 H92 0.961 . S
H90 C89 0.959 . S
H91 C89 0.960 . S
H92 C89 0.961 . S
O93 Co68 1.967 . S
O93 C101 1.258 . S
O94 Co69 1.941 . S
O94 C101 1.266 . S
H95 C97 0.959 . S
H96 C97 0.961 1_565 S
C97 C87 1.510 . S
C97 H95 0.959 . S
C97 H96 0.961 1_545 S
C97 H98 0.960 . S
H98 C97 0.960 . S
H99 N79 0.862 . S
O100 Co68 1.920 . S
O100 C73 1.289 1_545 S
C101 O93 1.258 . S
C101 O94 1.266 . S
Co102 O105 1.970 . S
Co102 N119 1.989 . S
Co102 O127 1.967 1_455 S
Co102 O134 1.920 . S
Co103 O106 1.966 . S
Co103 N112 2.022 . S
Co103 N120 1.993 . S
Co103 O128 1.941 1_455 S
C104 O105 1.258 . S
C104 O106 1.263 . S
O105 Co102 1.970 . S
O105 C104 1.258 . S
O106 Co103 1.966 . S
O106 C104 1.263 . S
C107 O108 1.235 . S
C107 O134 1.289 . S
O108 C107 1.235 . S
C109 C111 1.400 . S
C109 N112 1.351 . S
C109 C114 1.501 . S
C110 C111 1.386 1_655 S
C110 N113 1.341 . S
C111 C109 1.400 . S
C111 C110 1.386 1_455 S
N112 Co103 2.022 . S
N112 C109 1.351 . S
N112 N113 1.365 1_455 S
N113 C110 1.341 . S
N113 N112 1.365 1_655 S
N113 H133 0.862 . S
C114 C109 1.501 . S
C114 H115 0.961 . S
C114 H116 0.961 . S
C114 H117 0.960 . S
H115 C114 0.961 . S
H116 C114 0.961 . S
H117 C114 0.960 . S
C118 N119 1.342 . S
C118 C122 1.401 . S
C118 C123 1.499 . S
N119 Co102 1.989 . S
N119 C118 1.342 . S
N119 N120 1.388 . S
N120 Co103 1.993 . S
N120 N119 1.388 . S
N120 C121 1.346 . S
C121 N120 1.346 . S
C121 C122 1.396 . S
C121 C131 1.510 . S
C122 C118 1.401 . S
C122 C121 1.396 . S
C123 C118 1.499 . S
C123 H124 0.959 . S
C123 H125 0.960 . S
C123 H126 0.961 1_455 S
H124 C123 0.959 . S
H125 C123 0.960 . S
H126 C123 0.961 1_655 S
O127 Co102 1.967 1_655 S
O127 C135 1.258 . S
O128 Co103 1.941 1_655 S
O128 C135 1.266 . S
H129 C131 0.959 1_655 S
H130 C131 0.961 . S
C131 C121 1.510 . S
C131 H129 0.959 1_455 S
C131 H130 0.961 . S
C131 H132 0.960 . S
H132 C131 0.960 . S
H133 N113 0.862 . S
O134 Co102 1.920 . S
O134 C107 1.289 . S
C135 O127 1.258 . S
C135 O128 1.266 . S
Co136 O139 1.970 1_545 S
Co136 N153 1.989 . S
Co136 O161 1.967 . S
Co136 O168 1.920 . S
Co137 O140 1.966 1_545 S
Co137 N146 2.022 . S
Co137 N154 1.993 . S
Co137 O162 1.941 . S
C138 O139 1.258 . S
C138 O140 1.263 . S
O139 Co136 1.970 1_565 S
O139 C138 1.258 . S
O140 Co137 1.966 1_565 S
O140 C138 1.263 . S
C141 O142 1.235 . S
C141 O168 1.289 1_565 S
O142 C141 1.235 . S
C143 C145 1.400 1_565 S
C143 N146 1.351 1_565 S
C143 C148 1.501 . S
C144 C145 1.387 . S
C144 N147 1.341 . S
C145 C143 1.400 1_545 S
C145 C144 1.387 . S
N146 Co137 2.022 . S
N146 C143 1.351 1_545 S
N146 N147 1.365 . S
N147 C144 1.341 . S
N147 N146 1.365 . S
N147 H167 0.862 . S
C148 C143 1.501 . S
C148 H149 0.961 . S
C148 H150 0.961 . S
C148 H151 0.960 . S
H149 C148 0.961 . S
H150 C148 0.961 . S
H151 C148 0.960 . S
C152 N153 1.342 . S
C152 C156 1.401 . S
C152 C157 1.499 . S
N153 Co136 1.989 . S
N153 C152 1.342 . S
N153 N154 1.388 . S
N154 Co137 1.993 . S
N154 N153 1.388 . S
N154 C155 1.346 . S
C155 N154 1.346 . S
C155 C156 1.396 . S
C155 C165 1.510 . S
C156 C152 1.401 . S
C156 C155 1.396 . S
C157 C152 1.499 . S
C157 H158 0.959 . S
C157 H159 0.960 . S
C157 H160 0.961 . S
H158 C157 0.959 . S
H159 C157 0.960 . S
H160 C157 0.961 . S
O161 Co136 1.967 . S
O161 C169 1.258 . S
O162 Co137 1.941 . S
O162 C169 1.266 . S
H163 C165 0.959 . S
H164 C165 0.961 1_565 S
C165 C155 1.510 . S
C165 H163 0.959 . S
C165 H164 0.961 1_545 S
C165 H166 0.960 . S
H166 C165 0.960 . S
H167 N147 0.862 . S
O168 Co136 1.920 . S
O168 C141 1.289 1_545 S
C169 O161 1.258 . S
C169 O162 1.266 . S
Co170 O173 1.970 . S
Co170 N187 1.989 . S
Co170 O195 1.967 1_455 S
Co170 O202 1.920 . S
Co171 O174 1.966 . S
Co171 N180 2.022 . S
Co171 N188 1.993 . S
Co171 O196 1.941 1_455 S
C172 O173 1.258 . S
C172 O174 1.263 . S
O173 Co170 1.970 . S
O173 C172 1.258 . S
O174 Co171 1.966 . S
O174 C172 1.263 . S
C175 O176 1.235 . S
C175 O202 1.289 . S
O176 C175 1.235 . S
C177 C179 1.400 . S
C177 N180 1.351 . S
C177 C182 1.501 . S
C178 C179 1.377 1_655 S
C178 N181 1.343 . S
C179 C177 1.400 . S
C179 C178 1.377 1_455 S
N180 Co171 2.022 . S
N180 C177 1.351 . S
N180 N181 1.365 1_455 S
N181 C178 1.343 . S
N181 N180 1.365 1_655 S
N181 H201 0.862 . S
C182 C177 1.501 . S
C182 H183 0.961 . S
C182 H184 0.961 . S
C182 H185 0.960 . S
H183 C182 0.961 . S
H184 C182 0.961 . S
H185 C182 0.960 . S
C186 N187 1.342 . S
C186 C190 1.401 . S
C186 C191 1.499 . S
N187 Co170 1.989 . S
N187 C186 1.342 . S
N187 N188 1.388 . S
N188 Co171 1.993 . S
N188 N187 1.388 . S
N188 C189 1.346 . S
C189 N188 1.346 . S
C189 C190 1.396 . S
C189 C199 1.510 . S
C190 C186 1.401 . S
C190 C189 1.396 . S
C191 C186 1.499 . S
C191 H192 0.959 . S
C191 H193 0.960 . S
C191 H194 0.961 1_455 S
H192 C191 0.959 . S
H193 C191 0.960 . S
H194 C191 0.961 1_655 S
O195 Co170 1.967 1_655 S
O195 C203 1.258 . S
O196 Co171 1.941 1_655 S
O196 C203 1.266 . S
H197 C199 0.959 1_655 S
H198 C199 0.961 . S
C199 C189 1.510 . S
C199 H197 0.959 1_455 S
C199 H198 0.961 . S
C199 H200 0.960 . S
H200 C199 0.960 . S
H201 N181 0.862 . S
O202 Co170 1.920 . S
O202 C175 1.289 . S
C203 O195 1.258 . S
C203 O196 1.266 . S
Co204 O207 1.970 . S
Co204 N221 1.989 . S
Co204 O229 1.967 1_545 S
Co204 O236 1.920 . S
Co205 O208 1.966 . S
Co205 N214 2.022 . S
Co205 N222 1.993 . S
Co205 O230 1.941 1_545 S
C206 O207 1.258 . S
C206 O208 1.263 . S
O207 Co204 1.970 . S
O207 C206 1.258 . S
O208 Co205 1.966 . S
O208 C206 1.263 . S
C209 O210 1.235 . S
C209 O236 1.289 . S
O210 C209 1.235 . S
C211 C213 1.400 . S
C211 N214 1.351 . S
C211 C216 1.501 . S
C212 C213 1.386 1_565 S
C212 N215 1.341 . S
C213 C211 1.400 . S
C213 C212 1.386 1_545 S
N214 Co205 2.022 . S
N214 C211 1.351 . S
N214 N215 1.365 1_545 S
N215 C212 1.341 . S
N215 N214 1.365 1_565 S
N215 H235 0.862 . S
C216 C211 1.501 . S
C216 H217 0.961 . S
C216 H218 0.961 . S
C216 H219 0.960 . S
H217 C216 0.961 . S
H218 C216 0.961 . S
H219 C216 0.960 . S
C220 N221 1.342 . S
C220 C224 1.401 . S
C220 C225 1.499 . S
N221 Co204 1.989 . S
N221 C220 1.342 . S
N221 N222 1.388 . S
N222 Co205 1.993 . S
N222 N221 1.388 . S
N222 C223 1.346 . S
C223 N222 1.346 . S
C223 C224 1.396 . S
C223 C233 1.510 . S
C224 C220 1.401 . S
C224 C223 1.396 . S
C225 C220 1.499 . S
C225 H226 0.959 . S
C225 H227 0.960 . S
C225 H228 0.961 1_545 S
H226 C225 0.959 . S
H227 C225 0.960 . S
H228 C225 0.961 1_565 S
O229 Co204 1.967 1_565 S
O229 C237 1.258 . S
O230 Co205 1.941 1_565 S
O230 C237 1.266 . S
H231 C233 0.959 1_565 S
H232 C233 0.961 . S
C233 C223 1.510 . S
C233 H231 0.959 1_545 S
C233 H232 0.961 . S
C233 H234 0.960 . S
H234 C233 0.960 . S
H235 N215 0.862 . S
O236 Co204 1.920 . S
O236 C209 1.289 . S
C237 O229 1.258 . S
C237 O230 1.266 . S
Co238 O241 1.970 1_455 S
Co238 N255 1.989 . S
Co238 O263 1.967 . S
Co238 O270 1.920 . S
Co239 O242 1.966 1_455 S
Co239 N248 2.022 . S
Co239 N256 1.993 . S
Co239 O264 1.941 . S
C240 O241 1.258 . S
C240 O242 1.263 . S
O241 Co238 1.970 1_655 S
O241 C240 1.258 . S
O242 Co239 1.966 1_655 S
O242 C240 1.263 . S
C243 O244 1.235 . S
C243 O270 1.289 1_655 S
O244 C243 1.235 . S
C245 C247 1.400 1_655 S
C245 N248 1.351 1_655 S
C245 C250 1.501 . S
C246 C247 1.387 . S
C246 N249 1.341 . S
C247 C245 1.400 1_455 S
C247 C246 1.387 . S
N248 Co239 2.022 . S
N248 C245 1.351 1_455 S
N248 N249 1.365 . S
N249 C246 1.341 . S
N249 N248 1.365 . S
N249 H269 0.862 . S
C250 C245 1.501 . S
C250 H251 0.961 . S
C250 H252 0.961 . S
C250 H253 0.960 . S
H251 C250 0.961 . S
H252 C250 0.961 . S
H253 C250 0.960 . S
C254 N255 1.342 . S
C254 C258 1.401 . S
C254 C259 1.499 . S
N255 Co238 1.989 . S
N255 C254 1.342 . S
N255 N256 1.388 . S
N256 Co239 1.993 . S
N256 N255 1.388 . S
N256 C257 1.346 . S
C257 N256 1.346 . S
C257 C258 1.396 . S
C257 C267 1.510 . S
C258 C254 1.401 . S
C258 C257 1.396 . S
C259 C254 1.499 . S
C259 H260 0.959 . S
C259 H261 0.960 . S
C259 H262 0.961 . S
H260 C259 0.959 . S
H261 C259 0.960 . S
H262 C259 0.961 . S
O263 Co238 1.967 . S
O263 C271 1.258 . S
O264 Co239 1.941 . S
O264 C271 1.266 . S
H265 C267 0.959 . S
H266 C267 0.961 1_655 S
C267 C257 1.510 . S
C267 H265 0.959 . S
C267 H266 0.961 1_455 S
C267 H268 0.960 . S
H268 C267 0.960 . S
H269 N249 0.862 . S
O270 Co238 1.920 . S
O270 C243 1.289 1_455 S
C271 O263 1.258 . S
C271 O264 1.266 . S
H272 C284 0.930 . S
H273 C286 0.930 . S
H274 C287 0.930 . S
H275 C291 0.958 1_556 S
H276 C291 0.959 1_556 S
H277 C291 0.961 . S
H278 C292 0.960 . S
H279 C292 0.961 1_556 S
H280 C292 0.959 . S
H281 C295 0.929 . S
H282 C296 0.931 . S
H283 C298 0.930 . S
C284 H272 0.930 . S
C284 C285 1.399 . S
C284 C289 1.399 . S
C285 C284 1.399 . S
C285 C286 1.376 1_545 S
C286 H273 0.930 . S
C286 C285 1.376 1_565 S
C286 C287 1.388 . S
C287 H274 0.930 . S
C287 C286 1.388 . S
C287 C288 1.390 1_565 S
C288 C287 1.390 1_545 S
C288 C289 1.394 . S
C288 C294 1.465 1_554 S
C289 C284 1.399 . S
C289 C288 1.394 . S
C289 C290 1.516 . S
C290 C289 1.516 . S
C290 C291 1.502 . S
C290 C292 1.561 . S
C290 C293 1.526 1_554 S
C291 H275 0.958 1_554 S
C291 H276 0.959 1_554 S
C291 H277 0.961 . S
C291 C290 1.502 . S
C292 H278 0.960 . S
C292 H279 0.961 1_554 S
C292 H280 0.959 . S
C292 C290 1.561 . S
C293 C290 1.526 1_556 S
C293 C294 1.396 . S
C293 C298 1.390 . S
C294 C288 1.465 1_556 S
C294 C293 1.396 . S
C294 C295 1.399 1_545 S
C295 H281 0.929 . S
C295 C294 1.399 1_565 S
C295 C296 1.385 . S
C296 H282 0.931 . S
C296 C295 1.385 . S
C296 C297 1.389 1_565 S
C297 C296 1.389 1_545 S
C297 C298 1.387 . S
C298 H283 0.930 . S
C298 C293 1.390 . S
C298 C297 1.387 . S
H299 C311 0.930 . S
H300 C313 0.930 . S
H301 C314 0.930 . S
H302 C318 0.959 . S
H303 C318 0.959 . S
H304 C318 0.961 . S
H305 C319 0.960 1_455 S
H306 C319 0.960 1_455 S
H307 C319 0.960 . S
H308 C322 0.929 1_655 S
H309 C323 0.931 . S
H310 C325 0.930 . S
C311 H299 0.930 . S
C311 C312 1.399 . S
C311 C316 1.399 . S
C312 C311 1.399 . S
C312 C313 1.376 1_455 S
C313 H300 0.930 . S
C313 C312 1.376 1_655 S
C313 C314 1.388 . S
C314 H301 0.930 . S
C314 C313 1.388 . S
C314 C315 1.390 1_655 S
C315 C314 1.390 1_455 S
C315 C316 1.394 . S
C315 C321 1.465 . S
C316 C311 1.399 . S
C316 C315 1.394 . S
C316 C317 1.516 . S
C317 C316 1.516 . S
C317 C318 1.502 . S
C317 C319 1.560 1_455 S
C317 C320 1.526 . S
C318 H302 0.959 . S
C318 H303 0.959 . S
C318 H304 0.961 . S
C318 C317 1.502 . S
C319 H305 0.960 1_655 S
C319 H306 0.960 1_655 S
C319 H307 0.960 . S
C319 C317 1.560 1_655 S
C320 C317 1.526 . S
C320 C321 1.396 . S
C320 C325 1.390 . S
C321 C315 1.465 . S
C321 C320 1.396 . S
C321 C322 1.399 . S
C322 H308 0.929 1_455 S
C322 C321 1.399 . S
C322 C323 1.385 . S
C323 H309 0.931 . S
C323 C322 1.385 . S
C323 C324 1.389 . S
C324 C323 1.389 . S
C324 C325 1.387 . S
C325 H310 0.930 . S
C325 C320 1.390 . S
C325 C324 1.387 . S
H326 C338 0.930 . S
H327 C340 0.930 . S
H328 C341 0.930 . S
H329 C345 0.960 1_556 S
H330 C345 0.959 1_556 S
H331 C345 0.961 . S
H332 C346 0.960 . S
H333 C346 0.961 1_556 S
H334 C346 0.959 . S
H335 C349 0.929 . S
H336 C350 0.931 . S
H337 C352 0.930 . S
C338 H326 0.930 . S
C338 C339 1.399 1_565 S
C338 C343 1.399 1_565 S
C339 C338 1.399 1_545 S
C339 C340 1.376 . S
C340 H327 0.930 . S
C340 C339 1.376 . S
C340 C341 1.388 . S
C341 H328 0.930 . S
C341 C340 1.388 . S
C341 C342 1.390 . S
C342 C341 1.390 . S
C342 C343 1.394 . S
C342 C348 1.465 1_554 S
C343 C338 1.399 1_545 S
C343 C342 1.394 . S
C343 C344 1.516 1_545 S
C344 C343 1.516 1_565 S
C344 C345 1.502 . S
C344 C346 1.561 . S
C344 C347 1.541 1_554 S
C345 H329 0.960 1_554 S
C345 H330 0.959 1_554 S
C345 H331 0.961 . S
C345 C344 1.502 . S
C346 H332 0.960 . S
C346 H333 0.961 1_554 S
C346 H334 0.959 . S
C346 C344 1.561 . S
C347 C344 1.541 1_556 S
C347 C348 1.372 1_565 S
C347 C352 1.396 . S
C348 C342 1.465 1_556 S
C348 C347 1.372 1_545 S
C348 C349 1.399 . S
C349 H335 0.929 . S
C349 C348 1.399 . S
C349 C350 1.385 . S
C350 H336 0.931 . S
C350 C349 1.385 . S
C350 C351 1.389 . S
C351 C350 1.389 . S
C351 C352 1.387 1_545 S
C352 H337 0.930 . S
C352 C347 1.396 . S
C352 C351 1.387 1_565 S
H353 C365 0.930 . S
H354 C367 0.930 . S
H355 C368 0.930 . S
H356 C372 0.959 . S
H357 C372 0.959 . S
H358 C372 0.961 . S
H359 C373 0.960 . S
H360 C373 0.961 . S
H361 C373 0.959 . S
H362 C376 0.929 . S
H363 C377 0.931 . S
H364 C379 0.930 1_655 S
C365 H353 0.930 . S
C365 C366 1.399 . S
C365 C370 1.399 . S
C366 C365 1.399 . S
C366 C367 1.376 . S
C367 H354 0.930 . S
C367 C366 1.376 . S
C367 C368 1.388 . S
C368 H355 0.930 . S
C368 C367 1.388 . S
C368 C369 1.390 . S
C369 C368 1.390 . S
C369 C370 1.394 . S
C369 C375 1.465 . S
C370 C365 1.399 . S
C370 C369 1.394 . S
C370 C371 1.516 . S
C371 C370 1.516 . S
C371 C372 1.502 1_455 S
C371 C373 1.561 . S
C371 C374 1.526 . S
C372 H356 0.959 . S
C372 H357 0.959 . S
C372 H358 0.961 . S
C372 C371 1.502 1_655 S
C373 H359 0.960 . S
C373 H360 0.961 . S
C373 H361 0.959 . S
C373 C371 1.561 . S
C374 C371 1.526 . S
C374 C375 1.396 . S
C374 C379 1.390 . S
C375 C369 1.465 . S
C375 C374 1.396 . S
C375 C376 1.399 . S
C376 H362 0.929 . S
C376 C375 1.399 . S
C376 C377 1.385 . S
C377 H363 0.931 . S
C377 C376 1.385 . S
C377 C378 1.389 . S
C378 C377 1.389 . S
C378 C379 1.387 . S
C379 H364 0.930 1_455 S
C379 C374 1.390 . S
C379 C378 1.387 . S
H380 C392 0.930 . S
H381 C394 0.930 . S
H382 C395 0.930 . S
H383 C399 0.959 . S
H384 C399 0.959 . S
H385 C399 0.961 . S
H386 C400 0.960 . S
H387 C400 0.961 . S
H388 C400 0.959 . S
H389 C403 0.929 . S
H390 C404 0.931 . S
H391 C406 0.930 . S
C392 H380 0.930 . S
C392 C393 1.399 . S
C392 C397 1.399 . S
C393 C392 1.399 . S
C393 C394 1.376 . S
C394 H381 0.930 . S
C394 C393 1.376 . S
C394 C395 1.388 . S
C395 H382 0.930 . S
C395 C394 1.388 . S
C395 C396 1.390 . S
C396 C395 1.390 . S
C396 C397 1.394 . S
C396 C402 1.465 . S
C397 C392 1.399 . S
C397 C396 1.394 . S
C397 C398 1.516 . S
C398 C397 1.516 . S
C398 C399 1.502 . S
C398 C400 1.561 . S
C398 C401 1.526 . S
C399 H383 0.959 . S
C399 H384 0.959 . S
C399 H385 0.961 . S
C399 C398 1.502 . S
C400 H386 0.960 . S
C400 H387 0.961 . S
C400 H388 0.959 . S
C400 C398 1.561 . S
C401 C398 1.526 . S
C401 C402 1.396 . S
C401 C406 1.390 . S
C402 C396 1.465 . S
C402 C401 1.396 . S
C402 C403 1.399 . S
C403 H389 0.929 . S
C403 C402 1.399 . S
C403 C404 1.385 . S
C404 H390 0.931 . S
C404 C403 1.385 . S
C404 C405 1.389 . S
C405 C404 1.389 . S
C405 C406 1.387 . S
C406 H391 0.930 . S
C406 C401 1.390 . S
C406 C405 1.387 . S
H407 C419 0.930 . S
H408 C421 0.930 . S
H409 C422 0.930 . S
H410 C426 0.959 . S
H411 C426 0.959 . S
H412 C426 0.961 . S
H413 C427 0.960 . S
H414 C427 0.961 . S
H415 C427 0.959 . S
H416 C430 0.929 . S
H417 C431 0.931 . S
H418 C433 0.930 . S
C419 H407 0.930 . S
C419 C420 1.399 . S
C419 C424 1.399 . S
C420 C419 1.399 . S
C420 C421 1.376 . S
C421 H408 0.930 . S
C421 C420 1.376 . S
C421 C422 1.388 . S
C422 H409 0.930 . S
C422 C421 1.388 . S
C422 C423 1.390 . S
C423 C422 1.390 . S
C423 C424 1.394 . S
C423 C429 1.465 . S
C424 C419 1.399 . S
C424 C423 1.394 . S
C424 C425 1.516 . S
C425 C424 1.516 . S
C425 C426 1.502 . S
C425 C427 1.561 . S
C425 C428 1.526 . S
C426 H410 0.959 . S
C426 H411 0.959 . S
C426 H412 0.961 . S
C426 C425 1.502 . S
C427 H413 0.960 . S
C427 H414 0.961 . S
C427 H415 0.959 . S
C427 C425 1.561 . S
C428 C425 1.526 . S
C428 C429 1.396 . S
C428 C433 1.390 . S
C429 C423 1.465 . S
C429 C428 1.396 . S
C429 C430 1.399 . S
C430 H416 0.929 . S
C430 C429 1.399 . S
C430 C431 1.385 . S
C431 H417 0.931 . S
C431 C430 1.385 . S
C431 C432 1.389 . S
C432 C431 1.389 . S
C432 C433 1.387 . S
C433 H418 0.930 . S
C433 C428 1.390 . S
C433 C432 1.387 . S
H434 C446 0.930 . S
H435 C448 0.930 . S
H436 C449 0.930 . S
H437 C453 0.959 . S
H438 C453 0.959 . S
H439 C453 0.961 . S
H440 C454 0.960 . S
H441 C454 0.961 . S
H442 C454 0.959 . S
H443 C457 0.929 . S
H444 C458 0.931 . S
H445 C460 0.930 . S
C446 H434 0.930 . S
C446 C447 1.399 . S
C446 C451 1.399 . S
C447 C446 1.399 . S
C447 C448 1.376 . S
C448 H435 0.930 . S
C448 C447 1.376 . S
C448 C449 1.388 . S
C449 H436 0.930 . S
C449 C448 1.388 . S
C449 C450 1.390 . S
C450 C449 1.390 . S
C450 C451 1.394 . S
C450 C456 1.465 . S
C451 C446 1.399 . S
C451 C450 1.394 . S
C451 C452 1.516 . S
C452 C451 1.516 . S
C452 C453 1.502 . S
C452 C454 1.561 . S
C452 C455 1.526 . S
C453 H437 0.959 . S
C453 H438 0.959 . S
C453 H439 0.961 . S
C453 C452 1.502 . S
C454 H440 0.960 . S
C454 H441 0.961 . S
C454 H442 0.959 . S
C454 C452 1.561 . S
C455 C452 1.526 . S
C455 C456 1.396 . S
C455 C460 1.390 . S
C456 C450 1.465 . S
C456 C455 1.396 . S
C456 C457 1.399 . S
C457 H443 0.929 . S
C457 C456 1.399 . S
C457 C458 1.385 . S
C458 H444 0.931 . S
C458 C457 1.385 . S
C458 C459 1.389 . S
C459 C458 1.389 . S
C459 C460 1.387 . S
C460 H445 0.930 . S
C460 C455 1.390 . S
C460 C459 1.387 . S
H461 C473 0.930 . S
H462 C475 0.930 . S
H463 C476 0.930 . S
H464 C480 0.959 . S
H465 C480 0.959 . S
H466 C480 0.961 . S
H467 C481 0.960 . S
H468 C481 0.961 . S
H469 C481 0.959 . S
H470 C484 0.929 . S
H471 C485 0.931 . S
H472 C487 0.930 . S
C473 H461 0.930 . S
C473 C474 1.399 . S
C473 C478 1.399 . S
C474 C473 1.399 . S
C474 C475 1.376 . S
C475 H462 0.930 . S
C475 C474 1.376 . S
C475 C476 1.388 . S
C476 H463 0.930 . S
C476 C475 1.388 . S
C476 C477 1.390 . S
C477 C476 1.390 . S
C477 C478 1.394 . S
C477 C483 1.465 . S
C478 C473 1.399 . S
C478 C477 1.394 . S
C478 C479 1.516 . S
C479 C478 1.516 . S
C479 C480 1.502 . S
C479 C481 1.561 . S
C479 C482 1.526 . S
C480 H464 0.959 . S
C480 H465 0.959 . S
C480 H466 0.961 . S
C480 C479 1.502 . S
C481 H467 0.960 . S
C481 H468 0.961 . S
C481 H469 0.959 . S
C481 C479 1.561 . S
C482 C479 1.526 . S
C482 C483 1.396 . S
C482 C487 1.390 . S
C483 C477 1.465 . S
C483 C482 1.396 . S
C483 C484 1.399 . S
C484 H470 0.929 . S
C484 C483 1.399 . S
C484 C485 1.385 . S
C485 H471 0.931 . S
C485 C484 1.385 . S
C485 C486 1.389 . S
C486 C485 1.389 . S
C486 C487 1.387 . S
C487 H472 0.930 . S
C487 C482 1.390 . S
C487 C486 1.387 . S
H488 C500 0.930 . S
H489 C502 0.930 . S
H490 C503 0.930 . S
H491 C507 0.959 . S
H492 C507 0.959 . S
H493 C507 0.961 . S
H494 C508 0.960 . S
H495 C508 0.961 . S
H496 C508 0.959 . S
H497 C511 0.929 . S
H498 C512 0.931 . S
H499 C514 0.930 . S
C500 H488 0.930 . S
C500 C501 1.399 . S
C500 C505 1.399 . S
C501 C500 1.399 . S
C501 C502 1.376 . S
C502 H489 0.930 . S
C502 C501 1.376 . S
C502 C503 1.388 . S
C503 H490 0.930 . S
C503 C502 1.388 . S
C503 C504 1.390 . S
C504 C503 1.390 . S
C504 C505 1.394 . S
C504 C510 1.465 . S
C505 C500 1.399 . S
C505 C504 1.394 . S
C505 C506 1.516 . S
C506 C505 1.516 . S
C506 C507 1.502 . S
C506 C508 1.561 . S
C506 C509 1.526 . S
C507 H491 0.959 . S
C507 H492 0.959 . S
C507 H493 0.961 . S
C507 C506 1.502 . S
C508 H494 0.960 . S
C508 H495 0.961 . S
C508 H496 0.959 . S
C508 C506 1.561 . S
C509 C506 1.526 . S
C509 C510 1.396 . S
C509 C514 1.390 . S
C510 C504 1.465 . S
C510 C509 1.396 . S
C510 C511 1.399 . S
C511 H497 0.929 . S
C511 C510 1.399 . S
C511 C512 1.385 . S
C512 H498 0.931 . S
C512 C511 1.385 . S
C512 C513 1.389 . S
C513 C512 1.389 . S
C513 C514 1.387 . S
C514 H499 0.930 . S
C514 C509 1.390 . S
C514 C513 1.387 . S
H515 C527 0.930 . S
H516 C529 0.930 . S
H517 C530 0.930 . S
H518 C534 0.959 . S
H519 C534 0.959 . S
H520 C534 0.961 . S
H521 C535 0.960 . S
H522 C535 0.961 . S
H523 C535 0.959 . S
H524 C538 0.929 . S
H525 C539 0.931 . S
H526 C541 0.930 . S
C527 H515 0.930 . S
C527 C528 1.399 . S
C527 C532 1.399 . S
C528 C527 1.399 . S
C528 C529 1.376 . S
C529 H516 0.930 . S
C529 C528 1.376 . S
C529 C530 1.388 . S
C530 H517 0.930 . S
C530 C529 1.388 . S
C530 C531 1.390 . S
C531 C530 1.390 . S
C531 C532 1.394 . S
C531 C537 1.465 . S
C532 C527 1.399 . S
C532 C531 1.394 . S
C532 C533 1.516 . S
C533 C532 1.516 . S
C533 C534 1.502 . S
C533 C535 1.561 . S
C533 C536 1.526 . S
C534 H518 0.959 . S
C534 H519 0.959 . S
C534 H520 0.961 . S
C534 C533 1.502 . S
C535 H521 0.960 . S
C535 H522 0.961 . S
C535 H523 0.959 . S
C535 C533 1.561 . S
C536 C533 1.526 . S
C536 C537 1.396 . S
C536 C541 1.390 . S
C537 C531 1.465 . S
C537 C536 1.396 . S
C537 C538 1.399 . S
C538 H524 0.929 . S
C538 C537 1.399 . S
C538 C539 1.385 . S
C539 H525 0.931 . S
C539 C538 1.385 . S
C539 C540 1.389 . S
C540 C539 1.389 . S
C540 C541 1.387 . S
C541 H526 0.930 . S
C541 C536 1.390 . S
C541 C540 1.387 . S
H542 C554 0.930 . S
H543 C556 0.930 . S
H544 C557 0.930 . S
H545 C561 0.959 . S
H546 C561 0.959 . S
H547 C561 0.961 . S
H548 C562 0.960 . S
H549 C562 0.961 . S
H550 C562 0.959 . S
H551 C565 0.929 . S
H552 C566 0.931 . S
H553 C568 0.930 . S
C554 H542 0.930 . S
C554 C555 1.399 . S
C554 C559 1.399 . S
C555 C554 1.399 . S
C555 C556 1.376 . S
C556 H543 0.930 . S
C556 C555 1.376 . S
C556 C557 1.388 . S
C557 H544 0.930 . S
C557 C556 1.388 . S
C557 C558 1.390 . S
C558 C557 1.390 . S
C558 C559 1.394 . S
C558 C564 1.465 . S
C559 C554 1.399 . S
C559 C558 1.394 . S
C559 C560 1.516 . S
C560 C559 1.516 . S
C560 C561 1.502 . S
C560 C562 1.561 . S
C560 C563 1.526 . S
C561 H545 0.959 . S
C561 H546 0.959 . S
C561 H547 0.961 . S
C561 C560 1.502 . S
C562 H548 0.960 . S
C562 H549 0.961 . S
C562 H550 0.959 . S
C562 C560 1.561 . S
C563 C560 1.526 . S
C563 C564 1.396 . S
C563 C568 1.390 . S
C564 C558 1.465 . S
C564 C563 1.396 . S
C564 C565 1.399 . S
C565 H551 0.929 . S
C565 C564 1.399 . S
C565 C566 1.385 . S
C566 H552 0.931 . S
C566 C565 1.385 . S
C566 C567 1.389 . S
C567 C566 1.389 . S
C567 C568 1.387 . S
C568 H553 0.930 . S
C568 C563 1.390 . S
C568 C567 1.387 . S
H569 C581 0.930 . S
H570 C583 0.930 . S
H571 C584 0.930 . S
H572 C588 0.959 . S
H573 C588 0.959 . S
H574 C588 0.961 . S
H575 C589 0.960 . S
H576 C589 0.961 . S
H577 C589 0.959 . S
H578 C592 0.929 . S
H579 C593 0.931 . S
H580 C595 0.930 . S
C581 H569 0.930 . S
C581 C582 1.399 . S
C581 C586 1.399 . S
C582 C581 1.399 . S
C582 C583 1.376 . S
C583 H570 0.930 . S
C583 C582 1.376 . S
C583 C584 1.388 . S
C584 H571 0.930 . S
C584 C583 1.388 . S
C584 C585 1.390 . S
C585 C584 1.390 . S
C585 C586 1.394 . S
C585 C591 1.465 . S
C586 C581 1.399 . S
C586 C585 1.394 . S
C586 C587 1.516 . S
C587 C586 1.516 . S
C587 C588 1.502 . S
C587 C589 1.561 . S
C587 C590 1.526 . S
C588 H572 0.959 . S
C588 H573 0.959 . S
C588 H574 0.961 . S
C588 C587 1.502 . S
C589 H575 0.960 . S
C589 H576 0.961 . S
C589 H577 0.959 . S
C589 C587 1.561 . S
C590 C587 1.526 . S
C590 C591 1.396 . S
C590 C595 1.390 . S
C591 C585 1.465 . S
C591 C590 1.396 . S
C591 C592 1.399 . S
C592 H578 0.929 . S
C592 C591 1.399 . S
C592 C593 1.385 . S
C593 H579 0.931 . S
C593 C592 1.385 . S
C593 C594 1.389 . S
C594 C593 1.389 . S
C594 C595 1.387 . S
C595 H580 0.930 . S
C595 C590 1.390 . S
C595 C594 1.387 . S
H596 C608 0.930 . S
H597 C610 0.930 . S
H598 C611 0.930 . S
H599 C615 0.959 1_655 S
H600 C615 0.959 1_655 S
H601 C615 0.961 . S
H602 C616 0.960 1_545 S
H603 C616 0.961 . S
H604 C616 0.959 . S
H605 C619 0.929 . S
H606 C620 0.931 . S
H607 C622 0.931 . S
C608 H596 0.930 . S
C608 C609 1.399 . S
C608 C613 1.399 . S
C609 C608 1.399 . S
C609 C610 1.376 . S
C610 H597 0.930 . S
C610 C609 1.376 . S
C610 C611 1.388 . S
C611 H598 0.930 . S
C611 C610 1.388 . S
C611 C612 1.390 . S
C612 C611 1.390 . S
C612 C613 1.394 . S
C612 C618 1.465 . S
C613 C608 1.399 . S
C613 C612 1.394 . S
C613 C614 1.516 . S
C614 C613 1.516 . S
C614 C615 1.502 . S
C614 C616 1.561 1_545 S
C614 C617 1.526 1_455 S
C615 H599 0.959 1_455 S
C615 H600 0.959 1_455 S
C615 H601 0.961 . S
C615 C614 1.502 . S
C616 H602 0.960 1_565 S
C616 H603 0.961 . S
C616 H604 0.959 . S
C616 C614 1.561 1_565 S
C617 C614 1.526 1_655 S
C617 C618 1.396 1_655 S
C617 C622 1.390 1_545 S
C618 C612 1.465 . S
C618 C617 1.396 1_455 S
C618 C619 1.399 1_445 S
C619 H605 0.929 . S
C619 C618 1.399 1_665 S
C619 C620 1.385 . S
C620 H606 0.931 . S
C620 C619 1.385 . S
C620 C621 1.389 . S
C621 C620 1.389 . S
C621 C622 1.387 . S
C622 H607 0.931 . S
C622 C617 1.390 1_565 S
C622 C621 1.387 . S
H623 C635 0.930 . S
H624 C637 0.930 . S
H625 C638 0.930 . S
H626 C642 0.959 1_565 S
H627 C642 0.957 1_565 S
H628 C642 0.962 . S
H629 C643 0.960 . S
H630 C643 0.961 . S
H631 C643 0.959 . S
H632 C646 0.929 . S
H633 C647 0.931 . S
H634 C649 0.930 . S
C635 H623 0.930 . S
C635 C636 1.399 . S
C635 C640 1.399 1_655 S
C636 C635 1.399 . S
C636 C637 1.376 1_655 S
C637 H624 0.930 . S
C637 C636 1.376 1_455 S
C637 C638 1.388 . S
C638 H625 0.930 . S
C638 C637 1.388 . S
C638 C639 1.390 . S
C639 C638 1.390 . S
C639 C640 1.394 . S
C639 C645 1.465 . S
C640 C635 1.399 1_455 S
C640 C639 1.394 . S
C640 C641 1.516 . S
C641 C640 1.516 . S
C641 C642 1.503 1_455 S
C641 C643 1.561 . S
C641 C644 1.526 1_545 S
C642 H626 0.959 1_545 S
C642 H627 0.957 1_545 S
C642 H628 0.962 . S
C642 C641 1.503 1_655 S
C643 H629 0.960 . S
C643 H630 0.961 . S
C643 H631 0.959 . S
C643 C641 1.561 . S
C644 C641 1.526 1_565 S
C644 C645 1.396 1_565 S
C644 C649 1.390 . S
C645 C639 1.465 . S
C645 C644 1.396 1_545 S
C645 C646 1.399 1_545 S
C646 H632 0.929 . S
C646 C645 1.399 1_565 S
C646 C647 1.385 . S
C647 H633 0.931 . S
C647 C646 1.385 . S
C647 C648 1.389 . S
C648 C647 1.389 . S
C648 C649 1.387 . S
C649 H634 0.930 . S
C649 C644 1.390 . S
C649 C648 1.387 . S
H650 C662 0.930 . S
H651 C664 0.930 . S
H652 C665 0.930 . S
H653 C669 0.959 . S
H654 C669 0.959 . S
H655 C669 0.961 . S
H656 C670 0.960 . S
H657 C670 0.961 . S
H658 C670 0.959 . S
H659 C673 0.929 . S
H660 C674 0.931 . S
H661 C676 0.930 . S
C662 H650 0.930 . S
C662 C663 1.399 . S
C662 C667 1.399 . S
C663 C662 1.399 . S
C663 C664 1.376 . S
C664 H651 0.930 . S
C664 C663 1.376 . S
C664 C665 1.388 1_545 S
C665 H652 0.930 . S
C665 C664 1.388 1_565 S
C665 C666 1.390 1_565 S
C666 C665 1.390 1_545 S
C666 C667 1.394 . S
C666 C672 1.465 1_645 S
C667 C662 1.399 . S
C667 C666 1.394 . S
C667 C668 1.516 1_655 S
C668 C667 1.516 1_455 S
C668 C669 1.502 . S
C668 C670 1.561 . S
C668 C671 1.526 . S
C669 H653 0.959 . S
C669 H654 0.959 . S
C669 H655 0.961 . S
C669 C668 1.502 . S
C670 H656 0.960 . S
C670 H657 0.961 . S
C670 H658 0.959 . S
C670 C668 1.561 . S
C671 C668 1.526 . S
C671 C672 1.396 1_545 S
C671 C676 1.390 . S
C672 C666 1.465 1_465 S
C672 C671 1.396 1_565 S
C672 C673 1.399 . S
C673 H659 0.929 . S
C673 C672 1.399 . S
C673 C674 1.385 . S
C674 H660 0.931 . S
C674 C673 1.385 . S
C674 C675 1.389 . S
C675 C674 1.389 . S
C675 C676 1.387 1_565 S
C676 H661 0.930 . S
C676 C671 1.390 . S
C676 C675 1.387 1_545 S
H677 C689 0.930 . S
H678 C691 0.931 . S
H679 C692 0.930 . S
H680 C696 0.959 . S
H681 C696 0.959 . S
H682 C696 0.961 . S
H683 C697 0.960 1_565 S
H684 C697 0.961 . S
H685 C697 0.959 . S
H686 C700 0.929 . S
H687 C701 0.931 . S
H688 C703 0.930 . S
C689 H677 0.930 . S
C689 C690 1.399 . S
C689 C694 1.399 1_655 S
C690 C689 1.399 . S
C690 C691 1.376 1_655 S
C691 H678 0.931 . S
C691 C690 1.376 1_455 S
C691 C692 1.388 . S
C692 H679 0.930 . S
C692 C691 1.388 . S
C692 C693 1.390 . S
C693 C692 1.390 . S
C693 C694 1.394 . S
C693 C699 1.465 1_565 S
C694 C689 1.399 1_455 S
C694 C693 1.394 . S
C694 C695 1.516 1_565 S
C695 C694 1.516 1_545 S
C695 C696 1.502 1_455 S
C695 C697 1.561 . S
C695 C698 1.526 . S
C696 H680 0.959 . S
C696 H681 0.959 . S
C696 H682 0.961 . S
C696 C695 1.502 1_655 S
C697 H683 0.960 1_545 S
C697 H684 0.961 . S
C697 H685 0.959 . S
C697 C695 1.561 . S
C698 C695 1.526 . S
C698 C699 1.396 . S
C698 C703 1.390 . S
C699 C693 1.465 1_545 S
C699 C698 1.396 . S
C699 C700 1.399 . S
C700 H686 0.929 . S
C700 C699 1.399 . S
C700 C701 1.385 . S
C701 H687 0.931 . S
C701 C700 1.385 . S
C701 C702 1.389 . S
C702 C701 1.389 . S
C702 C703 1.387 . S
C703 H688 0.930 . S
C703 C698 1.390 . S
C703 C702 1.387 . S
H704 C716 0.930 . S
H705 C718 0.930 . S
H706 C719 0.930 . S
H707 C723 0.959 . S
H708 C723 0.959 . S
H709 C723 0.961 . S
H710 C724 0.960 . S
H711 C724 0.961 . S
H712 C724 0.959 . S
H713 C727 0.929 . S
H714 C728 0.931 . S
H715 C730 0.930 . S
C716 H704 0.930 . S
C716 C717 1.399 . S
C716 C721 1.399 . S
C717 C716 1.399 . S
C717 C718 1.376 . S
C718 H705 0.930 . S
C718 C717 1.376 . S
C718 C719 1.388 . S
C719 H706 0.930 . S
C719 C718 1.388 . S
C719 C720 1.390 . S
C720 C719 1.390 . S
C720 C721 1.394 . S
C720 C726 1.465 . S
C721 C716 1.399 . S
C721 C720 1.394 . S
C721 C722 1.516 . S
C722 C721 1.516 . S
C722 C723 1.502 1_545 S
C722 C724 1.561 . S
C722 C725 1.526 . S
C723 H707 0.959 . S
C723 H708 0.959 . S
C723 H709 0.961 . S
C723 C722 1.502 1_565 S
C724 H710 0.960 . S
C724 H711 0.961 . S
C724 H712 0.959 . S
C724 C722 1.561 . S
C725 C722 1.526 . S
C725 C726 1.396 . S
C725 C730 1.390 1_545 S
C726 C720 1.465 . S
C726 C725 1.396 . S
C726 C727 1.399 . S
C727 H713 0.929 . S
C727 C726 1.399 . S
C727 C728 1.385 . S
C728 H714 0.931 . S
C728 C727 1.385 . S
C728 C729 1.389 1_545 S
C729 C728 1.389 1_565 S
C729 C730 1.387 . S
C730 H715 0.930 . S
C730 C725 1.390 1_565 S
C730 C729 1.387 . S
H731 C743 0.930 . S
H732 C745 0.930 . S
H733 C746 0.930 1_655 S
H734 C750 0.959 . S
H735 C750 0.959 . S
H736 C750 0.961 . S
H737 C751 0.960 . S
H738 C751 0.961 . S
H739 C751 0.959 1_655 S
H740 C754 0.929 . S
H741 C755 0.931 . S
H742 C757 0.930 . S
C743 H731 0.930 . S
C743 C744 1.399 . S
C743 C748 1.399 . S
C744 C743 1.399 . S
C744 C745 1.376 . S
C745 H732 0.930 . S
C745 C744 1.376 . S
C745 C746 1.388 . S
C746 H733 0.930 1_455 S
C746 C745 1.388 . S
C746 C747 1.390 . S
C747 C746 1.390 . S
C747 C748 1.394 . S
C747 C753 1.467 . S
C748 C743 1.399 . S
C748 C747 1.394 . S
C748 C749 1.516 . S
C749 C748 1.516 . S
C749 C750 1.502 . S
C749 C751 1.561 . S
C749 C752 1.526 . S
C750 H734 0.959 . S
C750 H735 0.959 . S
C750 H736 0.961 . S
C750 C749 1.502 . S
C751 H737 0.960 . S
C751 H738 0.961 . S
C751 H739 0.959 1_455 S
C751 C749 1.561 . S
C752 C749 1.526 . S
C752 C753 1.400 . S
C752 C757 1.390 . S
C753 C747 1.467 . S
C753 C752 1.400 . S
C753 C754 1.394 1_455 S
C754 H740 0.929 . S
C754 C753 1.394 1_655 S
C754 C755 1.385 . S
C755 H741 0.931 . S
C755 C754 1.385 . S
C755 C756 1.389 . S
C756 C755 1.389 . S
C756 C757 1.387 1_655 S
C757 H742 0.930 . S
C757 C752 1.390 . S
C757 C756 1.387 1_455 S
H758 C770 0.930 . S
H759 C772 0.930 . S
H760 C773 0.930 . S
H761 C777 0.959 . S
H762 C777 0.959 . S
H763 C777 0.961 . S
H764 C778 0.960 1_565 S
H765 C778 0.961 . S
H766 C778 0.959 . S
H767 C781 0.929 . S
H768 C782 0.931 . S
H769 C784 0.930 . S
C770 H758 0.930 . S
C770 C771 1.399 . S
C770 C775 1.387 1_565 S
C771 C770 1.399 . S
C771 C772 1.376 1_565 S
C772 H759 0.930 . S
C772 C771 1.376 1_545 S
C772 C773 1.388 . S
C773 H760 0.930 . S
C773 C772 1.388 . S
C773 C774 1.390 . S
C774 C773 1.390 . S
C774 C775 1.414 . S
C774 C780 1.465 . S
C775 C770 1.387 1_545 S
C775 C774 1.414 . S
C775 C776 1.511 1_545 S
C776 C775 1.511 1_565 S
C776 C777 1.502 . S
C776 C778 1.561 1_565 S
C776 C779 1.526 1_565 S
C777 H761 0.959 . S
C777 H762 0.959 . S
C777 H763 0.961 . S
C777 C776 1.502 . S
C778 H764 0.960 1_545 S
C778 H765 0.961 . S
C778 H766 0.959 . S
C778 C776 1.561 1_545 S
C779 C776 1.526 1_545 S
C779 C780 1.396 . S
C779 C784 1.390 . S
C780 C774 1.465 . S
C780 C779 1.396 . S
C780 C781 1.399 . S
C781 H767 0.929 . S
C781 C780 1.399 . S
C781 C782 1.385 . S
C782 H768 0.931 . S
C782 C781 1.385 . S
C782 C783 1.389 . S
C783 C782 1.389 . S
C783 C784 1.387 . S
C784 H769 0.930 . S
C784 C779 1.390 . S
C784 C783 1.387 . S
H785 C797 0.930 . S
H786 C799 0.930 . S
H787 C800 0.930 . S
H788 C804 0.959 1_655 S
H789 C804 0.959 . S
H790 C804 0.961 . S
H791 C805 0.960 . S
H792 C805 0.961 . S
H793 C805 0.959 . S
H794 C808 0.930 . S
H795 C809 0.931 . S
H796 C811 0.930 . S
C797 H785 0.930 . S
C797 C798 1.399 . S
C797 C802 1.399 . S
C798 C797 1.399 . S
C798 C799 1.376 . S
C799 H786 0.930 . S
C799 C798 1.376 . S
C799 C800 1.388 . S
C800 H787 0.930 . S
C800 C799 1.388 . S
C800 C801 1.390 . S
C801 C800 1.390 . S
C801 C802 1.394 . S
C801 C807 1.465 . S
C802 C797 1.399 . S
C802 C801 1.394 . S
C802 C803 1.516 . S
C803 C802 1.516 . S
C803 C804 1.502 . S
C803 C805 1.561 . S
C803 C806 1.526 . S
C804 H788 0.959 1_455 S
C804 H789 0.959 . S
C804 H790 0.961 . S
C804 C803 1.502 . S
C805 H791 0.960 . S
C805 H792 0.961 . S
C805 H793 0.959 . S
C805 C803 1.561 . S
C806 C803 1.526 . S
C806 C807 1.396 . S
C806 C811 1.390 . S
C807 C801 1.465 . S
C807 C806 1.396 . S
C807 C808 1.395 1_455 S
C808 H794 0.930 . S
C808 C807 1.395 1_655 S
C808 C809 1.388 . S
C809 H795 0.931 . S
C809 C808 1.388 . S
C809 C810 1.389 . S
C810 C809 1.389 . S
C810 C811 1.387 1_655 S
C811 H796 0.930 . S
C811 C806 1.390 . S
C811 C810 1.387 1_455 S
C285 C20 1.716 . S
C297 C156 1.683 . S
C312 C190 1.697 . S
C324 C54 1.673 . S
C339 C88 1.716 . S
C351 C224 1.682 . S
C366 C258 1.698 . S
C378 C122 1.673 . S
C393 C172 1.112 . S
C405 C2 1.143 . S
C420 C206 1.181 . S
C432 C36 1.140 . S
C447 C70 1.215 . S
C459 C240 1.202 . S
C474 C138 1.135 . S
C486 C104 1.176 . S
C501 C135 1.251 . S
C513 C237 1.253 . S
C528 C33 1.290 . S
C540 C271 1.280 . S
C555 C67 1.282 . S
C567 C169 1.292 . S
C582 C101 1.314 . S
C594 C203 1.309 . S
C609 C5 0.244 . S
C621 C73 0.330 . S
C636 C39 0.243 . S
C648 C107 0.339 . S
C663 C209 0.260 . S
C675 C141 0.405 . S
C690 C243 0.243 . S
C702 C175 0.332 . S
C717 C9 1.354 . S
C729 C77 1.280 1_565 S
C744 C111 1.253 . S
C756 C43 1.355 1_655 S
C771 C145 1.248 1_565 S
C783 C213 1.361 . S
C798 C179 1.322 . S
C810 C247 1.315 1_655 S
