# Generated by pormake.
# Topology wnr, (7)-cn, num edge types: 1
# Building blocks:
#     Node 0, Type 0, BuildingBlock: NUHQUE_clean_sbu_2, # of connection points: 7
#     Node 1, Type 0, BuildingBlock: NUHQUE_clean_sbu_2, # of connection points: 7
#     Node 2, Type 0, BuildingBlock: NUHQUE_clean_sbu_2, # of connection points: 7
#     Node 3, Type 0, BuildingBlock: NUHQUE_clean_sbu_2, # of connection points: 7
#     Node 4, Type 0, BuildingBlock: NUHQUE_clean_sbu_2, # of connection points: 7
#     Node 5, Type 0, BuildingBlock: NUHQUE_clean_sbu_2, # of connection points: 7
#     Edge 6, Type (0, 0), BuildingBlock: AJUNOK_clean_linker_0, # of connection points: 2
#     Edge 7, Type (0, 0), BuildingBlock: AJUNOK_clean_linker_0, # of connection points: 2
#     Edge 8, Type (0, 0), BuildingBlock: AJUNOK_clean_linker_0, # of connection points: 2
#     Edge 9, Type (0, 0), BuildingBlock: AJUNOK_clean_linker_0, # of connection points: 2
#     Edge 10, Type (0, 0), BuildingBlock: AJUNOK_clean_linker_0, # of connection points: 2
#     Edge 11, Type (0, 0), BuildingBlock: AJUNOK_clean_linker_0, # of connection points: 2
#     Edge 12, Type (0, 0), BuildingBlock: AJUNOK_clean_linker_0, # of connection points: 2
#     Edge 13, Type (0, 0), BuildingBlock: AJUNOK_clean_linker_0, # of connection points: 2
#     Edge 14, Type (0, 0), BuildingBlock: AJUNOK_clean_linker_0, # of connection points: 2
#     Edge 15, Type (0, 0), BuildingBlock: AJUNOK_clean_linker_0, # of connection points: 2
#     Edge 16, Type (0, 0), BuildingBlock: AJUNOK_clean_linker_0, # of connection points: 2
#     Edge 17, Type (0, 0), BuildingBlock: AJUNOK_clean_linker_0, # of connection points: 2
#     Edge 18, Type (0, 0), BuildingBlock: AJUNOK_clean_linker_0, # of connection points: 2
#     Edge 19, Type (0, 0), BuildingBlock: AJUNOK_clean_linker_0, # of connection points: 2
#     Edge 20, Type (0, 0), BuildingBlock: AJUNOK_clean_linker_0, # of connection points: 2
#     Edge 21, Type (0, 0), BuildingBlock: AJUNOK_clean_linker_0, # of connection points: 2
#     Edge 22, Type (0, 0), BuildingBlock: AJUNOK_clean_linker_0, # of connection points: 2
#     Edge 23, Type (0, 0), BuildingBlock: AJUNOK_clean_linker_0, # of connection points: 2
#     Edge 24, Type (0, 0), BuildingBlock: AJUNOK_clean_linker_0, # of connection points: 2
#     Edge 25, Type (0, 0), BuildingBlock: AJUNOK_clean_linker_0, # of connection points: 2
#     Edge 26, Type (0, 0), BuildingBlock: AJUNOK_clean_linker_0, # of connection points: 2
# Relax obj value: 0.193
# Max RMSD: 0.215
# Mean RMSD: 0.215
data_MOF--net-wnr--node1-NUHQUE_clean_sbu_2--edge1-AJUNOK_clean_linker_0
_symmetry_space_group_name_H-M    P1
_symmetry_Int_Tables_number       1
_symmetry_cell_setting            triclinic
loop_
_symmetry_equiv_pos_as_xyz
'x, y, z'
_cell_length_a     35.512807
_cell_length_b     35.496694
_cell_length_c     14.250241
_cell_angle_alpha  89.980958
_cell_angle_beta   90.091944
_cell_angle_gamma 119.98922
loop_
_atom_site_label
_atom_site_type_symbol
_atom_site_fract_x
_atom_site_fract_y
_atom_site_fract_z
_atom_type_partial_charge
O0 O 0.30065 0.46649 0.8206 0.0
Tb1 Tb 0.32499 0.50062 0.95432 0.0
Eu2 Eu 0.26773 0.4312 0.15717 0.0
C3 C 0.32904 0.46324 0.76661 0.0
O4 O 0.36675 0.47308 0.80379 0.0
C5 C 0.34769 0.43067 0.04625 0.0
O6 O 0.27099 0.42607 0.31549 0.0
C7 C 0.18932 0.38533 0.0921 0.0
C8 C 0.30831 0.45209 0.35705 0.0
O9 O 0.34122 0.47833 0.30369 0.0
C10 C 0.27818 0.52158 0.11098 0.0
C11 C 0.14475 0.37853 0.09271 0.0
C12 C 0.1227 0.37147 1.00682 0.0
C13 C 0.0782 0.35811 1.00498 0.0
C14 C 0.05623 0.35301 0.08933 0.0
C15 C 0.07771 0.36067 0.1754 0.0
C16 C 0.12214 0.37349 0.17707 0.0
O17 O 0.36069 0.46865 1.00505 0.0
O18 O 0.31172 0.40957 0.09561 0.0
O19 O 0.35481 0.55109 0.84734 0.0
O20 O 0.38135 0.56507 0.98434 0.0
C21 C 0.38493 0.58055 0.89989 0.0
O22 O 0.28927 0.50174 0.17292 0.0
O23 O 0.27537 0.51077 0.02181 0.0
O24 O 0.20309 0.37512 0.16856 0.0
O25 O 0.21972 0.41982 0.04843 0.0
H26 H 0.13982 0.37482 0.94166 0.0
H27 H 1.02137 0.34019 0.08808 0.0
H28 H 0.13855 0.37803 0.24382 0.0
O29 O 0.56956 0.8268 0.50162 0.0
Tb30 Tb 0.53297 0.82562 0.62534 0.0
Eu31 Eu 0.60148 0.83657 0.8266 0.0
C32 C 0.58089 0.85785 0.43874 0.0
O33 O 0.57436 0.89031 0.45828 0.0
C34 C 0.60524 0.91784 0.70989 0.0
O35 O 0.61013 0.85428 0.98064 0.0
C36 C 0.6493 0.80454 0.77161 0.0
C37 C 0.60152 0.82496 0.04631 0.0
O38 O 0.58943 0.78491 0.02086 0.0
C39 C 0.51118 0.75641 0.78092 0.0
C40 C 0.65649 0.76696 0.77241 0.0
C41 C 0.66236 0.75122 0.68627 0.0
C42 C 0.67667 0.72076 0.68396 0.0
C43 C 0.68398 0.70536 0.76818 0.0
C44 C 0.67837 0.72066 0.85402 0.0
C45 C 0.66414 0.75107 0.85669 0.0
O46 O 0.56672 0.89399 0.67029 0.0
O47 O 0.62478 0.90171 0.76071 0.0
O48 O 0.48607 0.81234 0.51268 0.0
O49 O 0.46657 0.81244 0.65289 0.0
C50 C 0.45403 0.80695 0.56555 0.0
O51 O 0.53172 0.78563 0.84606 0.0
O52 O 0.52268 0.76585 0.69257 0.0
O53 O 0.65617 0.82664 0.84998 0.0
O54 O 0.61699 0.80183 0.72093 0.0
H55 H 0.6575 0.76399 0.62109 0.0
H56 H 0.69651 0.68304 0.76721 0.0
H57 H 0.66136 0.76386 0.92377 0.0
O58 O 0.21106 0.74555 0.15725 0.0
Tb59 Tb 0.2111 0.71017 0.28236 0.0
Eu60 Eu 0.19766 0.7673 0.48158 0.0
C61 C 0.18128 0.72586 0.09176 0.0
O62 O 0.14893 0.68651 0.10889 0.0
C63 C 0.11831 0.68841 0.36527 0.0
O64 O 0.18161 0.75813 0.63644 0.0
C65 C 0.22943 0.84744 0.42904 0.0
C66 C 0.21131 0.78132 0.69987 0.0
O67 O 0.25003 0.8112 0.67122 0.0
C68 C 0.27915 0.75858 0.43884 0.0
C69 C 0.26648 0.89232 0.43473 0.0
C70 C 0.2827 0.91584 0.35083 0.0
C71 C 0.31297 0.96044 0.35353 0.0
C72 C 0.32787 0.9814 0.43935 0.0
C73 C 0.31221 0.95866 0.52315 0.0
C74 C 0.2818 0.91392 0.52143 0.0
O75 O 0.14324 0.67425 0.32947 0.0
O76 O 0.1333 0.72522 0.41157 0.0
O77 O 0.22249 0.67298 0.17454 0.0
O78 O 0.2281 0.66041 0.31762 0.0
C79 C 0.23105 0.64974 0.23172 0.0
O80 O 0.24931 0.74936 0.50268 0.0
O81 O 0.27021 0.76051 0.35 0.0
O82 O 0.20518 0.83106 0.50424 0.0
O83 O 0.23435 0.81882 0.37977 0.0
H84 H 0.27007 0.90007 0.28374 0.0
H85 H 0.35086 1.01611 0.44091 0.0
H86 H 0.26878 0.89675 0.58689 0.0
O87 O 0.47721 0.27839 0.20313 0.0
Tb88 Tb 0.51434 0.31514 0.08073 0.0
Eu89 Eu 0.44464 0.26 0.87998 0.0
C90 C 0.46725 0.29801 0.26898 0.0
O91 O 0.47488 0.33766 0.25261 0.0
C92 C 0.44304 0.3376 0.99863 0.0
O93 O 0.43628 0.26717 0.72452 0.0
C94 C 0.39938 0.18037 0.93791 0.0
C95 C 0.44207 0.24328 0.6617 0.0
O96 O 0.45041 0.21313 0.69115 0.0
C97 C 0.53579 0.27055 0.91746 0.0
C98 C 0.39243 0.13573 0.93593 0.0
C99 C 0.386 0.1138 0.02161 0.0
C100 C 0.37144 0.06905 0.02325 0.0
C101 C 0.36483 0.0467 0.93881 0.0
C102 C 0.37229 0.06807 0.8527 0.0
C103 C 0.38597 0.11278 0.85126 0.0
O104 O 0.4816 0.35104 0.03717 0.0
O105 O 0.42188 0.30172 0.94891 0.0
O106 O 0.56124 0.34735 0.1945 0.0
O107 O 0.58012 0.36974 0.0555 0.0
C108 C 0.59283 0.37549 0.14267 0.0
O109 O 0.51483 0.28129 0.85758 0.0
O110 O 0.52679 0.2682 1.00758 0.0
O111 O 0.38975 0.19496 0.86198 0.0
O112 O 0.43312 0.21037 0.98451 0.0
H113 H 0.39048 0.13119 0.08698 0.0
H114 H 0.35103 1.01168 0.94019 0.0
H115 H 0.39008 0.12914 0.78468 0.0
O116 O 0.75442 0.19827 0.86376 0.0
Tb117 Tb 0.72003 0.19926 0.73754 0.0
Eu118 Eu 0.77712 0.18577 0.53843 0.0
C119 C 0.73412 0.16725 0.92647 0.0
O120 O 0.69503 0.13522 0.90606 0.0
C121 C 0.69982 0.10621 0.65775 0.0
O122 O 0.7672 0.1681 0.38419 0.0
C123 C 0.85709 0.21828 0.59305 0.0
C124 C 0.79021 0.1964 0.31841 0.0
O125 O 0.82154 0.23509 0.3437 0.0
C126 C 0.7683 0.26703 0.57982 0.0
C127 C 0.90183 0.25565 0.58997 0.0
C128 C 0.92488 0.27088 0.67488 0.0
C129 C 0.96946 0.30134 0.67402 0.0
C130 C 0.99085 0.31727 0.5891 0.0
C131 C 0.96854 0.30256 0.50443 0.0
C132 C 0.92386 0.27209 0.50431 0.0
O133 O 0.68508 0.13066 0.69386 0.0
O134 O 0.73566 0.12156 0.60805 0.0
O135 O 0.6848 0.21292 0.84577 0.0
O136 O 0.66784 0.21305 0.70332 0.0
C137 C 0.65935 0.21866 0.78935 0.0
O138 O 0.75794 0.23637 0.51745 0.0
O139 O 0.76964 0.25873 0.6694 0.0
O140 O 0.84146 0.1948 0.51643 0.0
O141 O 0.82788 0.22225 0.64214 0.0
H142 H 0.90878 0.25737 0.74116 0.0
H143 H 1.02558 0.34017 0.58882 0.0
H144 H 0.9071 0.25975 0.43809 0.0
O145 O 0.847 0.55952 0.55039 0.0
Tb146 Tb 0.83802 0.52438 0.41853 0.0
Eu147 Eu 0.84762 0.59176 0.21126 0.0
C148 C 0.88038 0.56717 0.60416 0.0
O149 O 0.90841 0.55643 0.57203 0.0
C150 C 0.92984 0.59375 0.32114 0.0
O151 O 0.85102 0.59514 0.05216 0.0
C152 C 0.81758 0.63967 0.27724 0.0
C153 C 0.88529 0.59908 1.00769 0.0
O154 O 0.91794 0.60253 0.05784 0.0
C155 C 0.76792 0.50249 0.26621 0.0
C156 C 0.7805 0.64751 0.27283 0.0
C157 C 0.76482 0.65547 0.35667 0.0
C158 C 0.73396 0.66908 0.35386 0.0
C159 C 0.71819 0.67401 0.26795 0.0
C160 C 0.73333 0.6663 0.18387 0.0
C161 C 0.76416 0.65243 0.18631 0.0
O162 O 0.90579 0.55777 0.36979 0.0
O163 O 0.91428 0.61283 0.26686 0.0
O164 O 0.81999 0.47278 0.52239 0.0
O165 O 0.82907 0.46045 0.38125 0.0
C166 C 0.81903 0.44387 0.46517 0.0
O167 O 0.79723 0.52132 0.20057 0.0
O168 O 0.7779 0.51492 0.35415 0.0
O169 O 0.8426 0.64997 0.20264 0.0
O170 O 0.81166 0.6042 0.31973 0.0
H171 H 0.77812 0.65318 0.4236 0.0
H172 H 0.69548 0.68606 0.26673 0.0
H173 H 0.77634 0.6469 0.12115 0.0
C174 C 1.02244 0.35919 0.89965 0.0
C175 C 0.05264 0.34521 0.91694 0.0
C176 C 0.99429 0.34369 0.82243 0.0
C177 C 0.99566 0.3139 0.76014 0.0
H178 H 1.02041 0.38212 0.9466 0.0
H179 H 0.97188 0.35555 0.81047 0.0
S180 S 0.0674 0.26616 0.77426 0.0
N181 N 0.081 0.29872 0.86624 0.0
N182 N 1.02884 0.27067 0.7194 0.0
C183 C 1.02562 0.29976 0.77596 0.0
C184 C 0.05405 0.31524 0.85473 0.0
C185 C 0.69173 0.65146 0.50237 0.0
C186 C 0.72071 0.68264 0.43907 0.0
C187 C 0.67601 0.66393 0.57936 0.0
C188 C 0.68897 0.70797 0.59543 0.0
H189 H 0.68079 0.6173 0.49157 0.0
H190 H 0.65387 0.639 0.62731 0.0
S191 S 0.76554 0.80181 0.44973 0.0
N192 N 0.76199 0.75892 0.39603 0.0
N193 N 0.73353 0.78273 0.54234 0.0
C194 C 0.71799 0.73935 0.53203 0.0
C195 C 0.7337 0.72658 0.45351 0.0
C196 C 0.35491 0.98414 0.20467 0.0
C197 C 0.3264 0.98704 0.26814 0.0
C198 C 0.37084 1.01218 0.12751 0.0
C199 C 0.35848 0.04371 0.11137 0.0
H200 H 0.36538 0.96056 0.21558 0.0
H201 H 0.39274 1.00897 0.07959 0.0
S202 S 0.28297 0.06254 0.25709 0.0
N203 N 0.28599 1.02296 0.31106 0.0
N204 N 0.31477 0.0749 0.16426 0.0
C205 C 0.32979 0.04663 0.17474 0.0
C206 C 0.31392 1.01835 0.2535 0.0
C207 C 0.25413 0.57602 0.07819 0.0
C208 C 0.26624 0.55416 0.14343 0.0
C209 C 0.24277 0.60683 0.10739 0.0
C210 C 0.24294 0.61692 0.20295 0.0
H211 H 0.25347 0.56942 1.00381 0.0
H212 H 0.23374 0.62283 0.05454 0.0
S213 S 0.27244 0.5696 0.40257 0.0
N214 N 0.27791 0.54542 0.30896 0.0
N215 N 0.25648 0.60304 0.36282 0.0
C216 C 0.25497 0.59548 0.26898 0.0
C217 C 0.26664 0.5642 0.23951 0.0
C218 C 0.44453 0.65645 0.93312 0.0
C219 C 0.41733 0.62477 0.86796 0.0
C220 C 0.47461 0.69887 0.90434 0.0
C221 C 0.47893 0.71119 0.80908 0.0
H222 H 0.44234 0.64857 1.00708 0.0
H223 H 0.49474 0.72209 0.95748 0.0
S224 S 0.41535 0.63974 0.61042 0.0
N225 N 0.39669 0.60821 0.70383 0.0
N226 N 0.45311 0.68771 0.64964 0.0
C227 C 0.452 0.67956 0.74312 0.0
C228 C 0.42125 0.63645 0.77258 0.0
C229 C 0.37755 0.78962 0.5954 0.0
C230 C 0.41002 0.79519 0.53143 0.0
C231 C 0.33546 0.7778 0.5648 0.0
C232 C 0.32412 0.77116 0.46887 0.0
H233 H 0.38463 0.79432 0.66983 0.0
H234 H 0.31172 0.77401 0.61711 0.0
S235 S 0.39739 0.78092 0.273 0.0
N236 N 0.42805 0.79279 0.3678 0.0
N237 N 0.34914 0.77053 0.31025 0.0
C238 C 0.35641 0.7766 0.40416 0.0
C239 C 0.39926 0.78861 0.43544 0.0
C240 C 0.59139 0.24785 0.94635 0.0
C241 C 0.56697 0.25727 0.88232 0.0
C242 C 0.62093 0.23519 0.91547 0.0
C243 C 0.62718 0.23121 0.8193 0.0
H244 H 0.5879 0.25045 0.02121 0.0
H245 H 0.63909 0.22854 0.96758 0.0
S246 S 0.57133 0.25153 0.62208 0.0
N247 N 0.55126 0.26147 0.71718 0.0
N248 N 0.60646 0.23737 0.65995 0.0
C249 C 0.60296 0.24025 0.75433 0.0
C250 C 0.57299 0.25338 0.78559 0.0
C251 C 0.78591 0.34344 0.61418 0.0
C252 C 0.78181 0.31202 0.54839 0.0
C253 C 0.79814 0.38598 0.58649 0.0
C254 C 0.80706 0.39894 0.49201 0.0
H255 H 0.77921 0.33508 0.68776 0.0
H256 H 0.8005 0.40884 0.6397 0.0
S257 S 0.80242 0.32994 0.29191 0.0
N258 N 0.78839 0.29742 0.38386 0.0
N259 N 0.81173 0.37738 0.33266 0.0
C260 C 0.80356 0.36817 0.42551 0.0
C261 C 0.79082 0.32472 0.45344 0.0
C262 C 0.66862 0.43541 0.11268 0.0
C263 C 0.63668 0.408 0.17695 0.0
C264 C 0.7107 0.46579 0.14251 0.0
C265 C 0.72264 0.47024 0.23806 0.0
H266 H 0.66119 0.43325 0.03844 0.0
H267 H 0.73402 0.48602 0.08977 0.0
S268 S 0.65079 0.40576 0.43475 0.0
N269 N 0.61961 0.38696 0.34064 0.0
N270 N 0.6987 0.44412 0.39686 0.0
C271 C 0.69084 0.44311 0.30327 0.0
C272 C 0.64791 0.41199 0.27269 0.0
C273 C 1.02608 0.30455 0.40338 0.0
C274 C 0.99411 0.31625 0.41762 0.0
C275 C 0.05422 0.32052 0.32671 0.0
C276 C 0.05155 0.34904 0.26225 0.0
H277 H 1.02932 0.2829 0.45219 0.0
H278 H 0.07747 0.30958 0.31662 0.0
S279 S 0.97517 0.39176 0.27311 0.0
N280 N 0.96216 0.35897 0.36456 0.0
N281 N 1.01568 0.38999 0.22043 0.0
C282 C 1.02013 0.36162 0.277 0.0
C283 C 0.99118 0.34491 0.35468 0.0
C284 C 0.67538 0.6637 0.07988 0.0
C285 C 0.71967 0.67758 0.09519 0.0
C286 C 0.66207 0.67878 1.003 0.0
C287 C 0.69266 0.70803 0.93916 0.0
H288 H 0.65091 0.6414 0.12842 0.0
H289 H 0.62774 0.66716 0.99276 0.0
S290 S 0.81214 0.75511 0.94785 0.0
N291 N 0.79397 0.72316 0.0408 0.0
N292 N 0.76866 0.75055 0.89486 0.0
C293 C 0.73684 0.72192 0.9529 0.0
C294 C 0.75045 0.70682 0.0312 0.0
C295 C 0.33203 0.0452 0.70091 0.0
C296 C 0.35982 0.04158 0.76595 0.0
C297 C 0.3154 1.01692 0.62433 0.0
C298 C 0.32565 0.98383 0.61076 0.0
H299 H 0.32222 0.06936 0.71034 0.0
H300 H 0.29452 1.02104 0.57486 0.0
S301 S 0.39862 0.96193 0.75715 0.0
N302 N 0.3985 1.0035 0.80895 0.0
N303 N 0.36608 0.94968 0.66536 0.0
C304 C 0.35344 0.97986 0.67444 0.0
C305 C 0.3709 1.00897 0.75189 0.0
C306 C 0.35249 0.3632 0.03376 0.0
C307 C 0.37395 0.40894 0.0349 0.0
C308 C 0.37534 0.34088 0.02218 0.0
C309 C 0.42085 0.36318 1.01305 0.0
H310 H 0.31743 0.34425 0.04035 0.0
H311 H 0.35706 0.30564 0.02108 0.0
S312 S 0.49299 0.48301 1.0131 0.0
N313 N 0.44364 0.47597 0.02602 0.0
N314 N 0.48686 0.43375 1.00667 0.0
C315 C 0.44302 0.40894 0.01541 0.0
C316 C 0.41952 0.43186 0.02535 0.0
C317 C 0.60678 0.98922 0.68648 0.0
C318 C 0.629 0.96582 0.69642 0.0
C319 C 0.62963 0.03486 0.67635 0.0
C320 C 0.67541 0.05845 0.67354 0.0
H321 H 0.57158 0.97225 0.68777 0.0
H322 H 0.61136 0.05164 0.66882 0.0
S323 S 0.74886 1.01261 0.69586 0.0
N324 N 0.69949 0.97 0.70243 0.0
N325 N 0.74196 0.05494 0.68304 0.0
C326 C 0.69782 0.03532 0.68324 0.0
C327 C 0.67476 0.98927 0.69467 0.0
C328 C 1.00194 0.66169 0.32709 0.0
C329 C 0.97789 0.61598 0.33076 0.0
C330 C 0.04714 0.68443 0.33829 0.0
C331 C 0.07052 0.6625 0.35162 0.0
H332 H 0.98561 0.6803 0.31727 0.0
H333 H 0.06398 0.71965 0.33582 0.0
S334 S 1.02342 0.54286 0.36417 0.0
N335 N 0.98092 0.54939 0.34825 0.0
N336 N 0.06639 0.59229 0.36659 0.0
C337 C 0.04715 0.61673 0.35376 0.0
C338 C 1.00074 0.59346 0.34434 0.0
C339 C 0.27725 0.43312 0.52168 0.0
C340 C 0.31358 0.45337 0.46145 0.0
C341 C 0.2821 0.43608 0.62033 0.0
C342 C 0.3235 0.45867 0.66252 0.0
H343 H 0.24475 0.41548 0.49254 0.0
H344 H 0.25327 0.4205 0.66377 0.0
S345 S 0.42909 0.51838 0.53687 0.0
N346 N 0.39242 0.49745 0.4526 0.0
N347 N 0.40141 0.50263 0.63571 0.0
C348 C 0.35999 0.47883 0.60296 0.0
C349 C 0.35507 0.47627 0.50321 0.0
C350 C 0.58459 0.81105 0.31099 0.0
C351 C 0.59252 0.85213 0.34137 0.0
C352 C 0.58899 0.80304 0.21622 0.0
C353 C 0.6017 0.8358 0.1476 0.0
H354 H 0.57315 0.78421 0.36001 0.0
H355 H 0.58109 0.77046 0.19643 0.0
S356 S 0.63157 0.95057 0.19237 0.0
N357 N 0.61751 0.92708 0.29631 0.0
N358 N 0.62588 0.91216 0.11882 0.0
C359 C 0.612 0.87767 0.17792 0.0
C360 C 0.60741 0.8858 0.27446 0.0
C361 C 0.16412 0.7334 0.83013 0.0
C362 C 0.20243 0.77098 0.80176 0.0
C363 C 0.15682 0.72028 0.92445 0.0
C364 C 0.18745 0.74418 0.99499 0.0
H365 H 0.13997 0.71298 0.77871 0.0
H366 H 0.12738 0.69032 0.94148 0.0
S367 S 0.29095 0.84804 0.9598 0.0
N368 N 0.26983 0.8341 0.85356 0.0
N369 N 0.25613 0.80952 0.03045 0.0
C370 C 0.22492 0.78309 0.96841 0.0
C371 C 0.23243 0.79644 0.87208 0.0
C372 C 0.44179 0.29026 0.53014 0.0
C373 C 0.44346 0.25325 0.55945 0.0
C374 C 0.44749 0.30315 0.43565 0.0
C375 C 0.45504 0.2796 0.36573 0.0
H376 H 0.43738 0.31042 0.58094 0.0
H377 H 0.44725 0.3327 0.41799 0.0
S378 S 0.45779 0.17743 0.40339 0.0
N379 N 0.44985 0.19113 0.50913 0.0
N380 N 0.46048 0.21531 0.33191 0.0
C381 C 0.45463 0.24126 0.3932 0.0
C382 C 0.44893 0.22815 0.48976 0.0
C383 C 0.79939 0.21921 0.14894 0.0
C384 C 0.77847 0.18641 0.21717 0.0
C385 C 0.78624 0.21212 0.0544 0.0
C386 C 0.75152 0.17199 0.02383 0.0
H387 H 0.82535 0.25115 0.16892 0.0
H388 H 0.8025 0.23899 1.0057 0.0
S389 S 0.68893 0.07375 0.17188 0.0
N390 N 0.72344 0.11098 0.24537 0.0
N391 N 0.69883 0.09775 0.06844 0.0
C392 C 0.73166 0.13824 0.0904 0.0
C393 C 0.74509 0.14545 0.18667 0.0
C394 C 0.84642 0.57543 0.75259 0.0
C395 C 0.88347 0.58125 0.70398 0.0
C396 C 0.84756 0.58265 0.85011 0.0
C397 C 0.88581 0.59605 0.90302 0.0
H398 H 0.8158 0.5635 0.7159 0.0
H399 H 0.81779 0.57625 0.88462 0.0
S400 S 0.99329 0.6216 0.8069 0.0
N401 N 0.9606 0.60533 0.71497 0.0
N402 N 0.96279 0.61885 0.89682 0.0
C403 C 0.92363 0.60419 0.85415 0.0
C404 C 0.92244 0.59682 0.75519 0.0
loop_
_geom_bond_atom_site_label_1
_geom_bond_atom_site_label_2
_geom_bond_distance
_geom_bond_site_symmetry_2
_ccdc_geom_bond_type
O0 Tb1 2.292 . S
O0 C3 1.255 . S
Tb1 O0 2.292 . S
Tb1 O17 2.330 . S
Tb1 O19 2.500 . S
Tb1 O20 2.473 1_556 S
Tb1 O23 2.324 1_556 S
Eu2 O6 2.292 . S
Eu2 C7 2.852 . S
Eu2 O18 2.324 . S
Eu2 O22 2.326 . S
Eu2 O24 2.500 . S
Eu2 O25 2.473 . S
C3 O0 1.255 . S
C3 O4 1.247 . S
O4 C3 1.247 . S
C5 O17 1.240 1_554 S
C5 O18 1.258 . S
O6 Eu2 2.292 . S
O6 C8 1.255 . S
C7 Eu2 2.852 . S
C7 C11 1.503 . S
C7 O24 1.273 . S
C7 O25 1.257 . S
C8 O6 1.255 . S
C8 O9 1.247 . S
O9 C8 1.247 . S
C10 O22 1.242 . S
C10 O23 1.258 . S
C11 C7 1.503 . S
C11 C12 1.379 . S
C11 C16 1.392 . S
C12 C11 1.379 . S
C12 C13 1.404 . S
C12 H26 0.929 . S
C13 C12 1.404 . S
C13 C14 1.389 . S
C14 C13 1.389 . S
C14 C15 1.399 . S
C14 H27 0.931 . S
C15 C14 1.399 . S
C15 C16 1.390 . S
C16 C11 1.392 . S
C16 C15 1.390 . S
C16 H28 0.929 . S
O17 Tb1 2.330 . S
O17 C5 1.240 1_556 S
O18 Eu2 2.324 . S
O18 C5 1.258 . S
O19 Tb1 2.500 . S
O19 C21 1.273 . S
O20 Tb1 2.473 1_554 S
O20 C21 1.257 1_554 S
C21 O19 1.273 . S
C21 O20 1.257 1_556 S
O22 Eu2 2.326 . S
O22 C10 1.242 . S
O23 Tb1 2.324 1_554 S
O23 C10 1.258 . S
O24 Eu2 2.500 . S
O24 C7 1.273 . S
O25 Eu2 2.473 . S
O25 C7 1.257 . S
H26 C12 0.929 . S
H27 C14 0.931 . S
H28 C16 0.929 . S
O29 Tb30 2.292 . S
O29 C32 1.255 . S
Tb30 O29 2.292 . S
Tb30 O46 2.326 . S
Tb30 O48 2.500 . S
Tb30 O49 2.473 . S
Tb30 O52 2.324 . S
Eu31 O35 2.292 1_556 S
Eu31 C36 2.852 . S
Eu31 O47 2.324 . S
Eu31 O51 2.326 . S
Eu31 O53 2.500 . S
Eu31 O54 2.473 . S
C32 O29 1.255 . S
C32 O33 1.247 . S
O33 C32 1.247 . S
C34 O46 1.242 . S
C34 O47 1.258 . S
O35 Eu31 2.292 1_554 S
O35 C37 1.255 . S
C36 Eu31 2.852 . S
C36 C40 1.503 . S
C36 O53 1.273 . S
C36 O54 1.257 . S
C37 O35 1.255 . S
C37 O38 1.247 . S
O38 C37 1.247 . S
C39 O51 1.242 . S
C39 O52 1.258 . S
C40 C36 1.503 . S
C40 C41 1.379 . S
C40 C45 1.392 . S
C41 C40 1.379 . S
C41 C42 1.404 . S
C41 H55 0.929 . S
C42 C41 1.404 . S
C42 C43 1.389 . S
C43 C42 1.389 . S
C43 C44 1.399 . S
C43 H56 0.931 . S
C44 C43 1.399 . S
C44 C45 1.390 . S
C45 C40 1.392 . S
C45 C44 1.390 . S
C45 H57 0.929 . S
O46 Tb30 2.326 . S
O46 C34 1.242 . S
O47 Eu31 2.324 . S
O47 C34 1.258 . S
O48 Tb30 2.500 . S
O48 C50 1.273 . S
O49 Tb30 2.473 . S
O49 C50 1.257 . S
C50 O48 1.273 . S
C50 O49 1.257 . S
O51 Eu31 2.326 . S
O51 C39 1.242 . S
O52 Tb30 2.324 . S
O52 C39 1.258 . S
O53 Eu31 2.500 . S
O53 C36 1.273 . S
O54 Eu31 2.473 . S
O54 C36 1.257 . S
H55 C41 0.929 . S
H56 C43 0.931 . S
H57 C45 0.929 . S
O58 Tb59 2.292 . S
O58 C61 1.255 . S
Tb59 O58 2.292 . S
Tb59 O75 2.326 . S
Tb59 O77 2.500 . S
Tb59 O78 2.473 . S
Tb59 O81 2.324 . S
Eu60 O64 2.292 . S
Eu60 C65 2.852 . S
Eu60 O76 2.324 . S
Eu60 O80 2.326 . S
Eu60 O82 2.500 . S
Eu60 O83 2.473 . S
C61 O58 1.255 . S
C61 O62 1.247 . S
O62 C61 1.247 . S
C63 O75 1.242 . S
C63 O76 1.258 . S
O64 Eu60 2.292 . S
O64 C66 1.255 . S
C65 Eu60 2.852 . S
C65 C69 1.503 . S
C65 O82 1.273 . S
C65 O83 1.257 . S
C66 O64 1.255 . S
C66 O67 1.247 . S
O67 C66 1.247 . S
C68 O80 1.242 . S
C68 O81 1.258 . S
C69 C65 1.503 . S
C69 C70 1.379 . S
C69 C74 1.392 . S
C70 C69 1.379 . S
C70 C71 1.404 . S
C70 H84 0.929 . S
C71 C70 1.404 . S
C71 C72 1.389 . S
C72 C71 1.389 . S
C72 C73 1.399 . S
C72 H85 0.931 . S
C73 C72 1.399 . S
C73 C74 1.390 . S
C74 C69 1.392 . S
C74 C73 1.390 . S
C74 H86 0.929 . S
O75 Tb59 2.326 . S
O75 C63 1.242 . S
O76 Eu60 2.324 . S
O76 C63 1.258 . S
O77 Tb59 2.500 . S
O77 C79 1.273 . S
O78 Tb59 2.473 . S
O78 C79 1.257 . S
C79 O77 1.273 . S
C79 O78 1.257 . S
O80 Eu60 2.326 . S
O80 C68 1.242 . S
O81 Tb59 2.324 . S
O81 C68 1.258 . S
O82 Eu60 2.500 . S
O82 C65 1.273 . S
O83 Eu60 2.473 . S
O83 C65 1.257 . S
H84 C70 0.929 . S
H85 C72 0.931 . S
H86 C74 0.929 . S
O87 Tb88 2.292 . S
O87 C90 1.255 . S
Tb88 O87 2.292 . S
Tb88 O104 2.330 . S
Tb88 O106 2.500 . S
Tb88 O107 2.473 1_554 S
Tb88 O110 2.324 1_554 S
Eu89 O93 2.292 . S
Eu89 C94 2.852 . S
Eu89 O105 2.324 . S
Eu89 O109 2.326 . S
Eu89 O111 2.500 . S
Eu89 O112 2.473 . S
C90 O87 1.255 . S
C90 O91 1.247 . S
O91 C90 1.247 . S
C92 O104 1.240 1_556 S
C92 O105 1.258 . S
O93 Eu89 2.292 . S
O93 C95 1.255 . S
C94 Eu89 2.852 . S
C94 C98 1.503 . S
C94 O111 1.273 . S
C94 O112 1.257 . S
C95 O93 1.255 . S
C95 O96 1.247 . S
O96 C95 1.247 . S
C97 O109 1.242 . S
C97 O110 1.258 . S
C98 C94 1.503 . S
C98 C99 1.379 . S
C98 C103 1.392 . S
C99 C98 1.379 . S
C99 C100 1.404 . S
C99 H113 0.929 . S
C100 C99 1.404 . S
C100 C101 1.389 . S
C101 C100 1.389 . S
C101 C102 1.399 . S
C101 H114 0.931 . S
C102 C101 1.399 . S
C102 C103 1.390 . S
C103 C98 1.392 . S
C103 C102 1.390 . S
C103 H115 0.929 . S
O104 Tb88 2.330 . S
O104 C92 1.240 1_554 S
O105 Eu89 2.324 . S
O105 C92 1.258 . S
O106 Tb88 2.500 . S
O106 C108 1.273 . S
O107 Tb88 2.473 1_556 S
O107 C108 1.257 1_556 S
C108 O106 1.273 . S
C108 O107 1.257 1_554 S
O109 Eu89 2.326 . S
O109 C97 1.242 . S
O110 Tb88 2.324 1_556 S
O110 C97 1.258 . S
O111 Eu89 2.500 . S
O111 C94 1.273 . S
O112 Eu89 2.473 . S
O112 C94 1.257 . S
H113 C99 0.929 . S
H114 C101 0.931 . S
H115 C103 0.929 . S
O116 Tb117 2.292 . S
O116 C119 1.255 . S
Tb117 O116 2.292 . S
Tb117 O133 2.326 . S
Tb117 O135 2.500 . S
Tb117 O136 2.473 . S
Tb117 O139 2.324 . S
Eu118 O122 2.292 . S
Eu118 C123 2.852 . S
Eu118 O134 2.324 . S
Eu118 O138 2.326 . S
Eu118 O140 2.500 . S
Eu118 O141 2.473 . S
C119 O116 1.255 . S
C119 O120 1.247 . S
O120 C119 1.247 . S
C121 O133 1.242 . S
C121 O134 1.258 . S
O122 Eu118 2.292 . S
O122 C124 1.255 . S
C123 Eu118 2.852 . S
C123 C127 1.503 . S
C123 O140 1.273 . S
C123 O141 1.257 . S
C124 O122 1.255 . S
C124 O125 1.247 . S
O125 C124 1.247 . S
C126 O138 1.242 . S
C126 O139 1.258 . S
C127 C123 1.503 . S
C127 C128 1.379 . S
C127 C132 1.392 . S
C128 C127 1.379 . S
C128 C129 1.404 . S
C128 H142 0.929 . S
C129 C128 1.404 . S
C129 C130 1.389 . S
C130 C129 1.389 . S
C130 C131 1.399 . S
C130 H143 0.931 . S
C131 C130 1.399 . S
C131 C132 1.390 . S
C132 C127 1.392 . S
C132 C131 1.390 . S
C132 H144 0.929 . S
O133 Tb117 2.326 . S
O133 C121 1.242 . S
O134 Eu118 2.324 . S
O134 C121 1.258 . S
O135 Tb117 2.500 . S
O135 C137 1.273 . S
O136 Tb117 2.473 . S
O136 C137 1.257 . S
C137 O135 1.273 . S
C137 O136 1.257 . S
O138 Eu118 2.326 . S
O138 C126 1.242 . S
O139 Tb117 2.324 . S
O139 C126 1.258 . S
O140 Eu118 2.500 . S
O140 C123 1.273 . S
O141 Eu118 2.473 . S
O141 C123 1.257 . S
H142 C128 0.929 . S
H143 C130 0.931 . S
H144 C132 0.929 . S
O145 Tb146 2.292 . S
O145 C148 1.255 . S
Tb146 O145 2.292 . S
Tb146 O162 2.326 . S
Tb146 O164 2.500 . S
Tb146 O165 2.473 . S
Tb146 O168 2.324 . S
Eu147 O151 2.292 1_554 S
Eu147 C152 2.852 . S
Eu147 O163 2.324 . S
Eu147 O167 2.326 . S
Eu147 O169 2.500 . S
Eu147 O170 2.473 . S
C148 O145 1.255 . S
C148 O149 1.247 . S
O149 C148 1.247 . S
C150 O162 1.242 . S
C150 O163 1.258 . S
O151 Eu147 2.292 1_556 S
O151 C153 1.255 . S
C152 Eu147 2.852 . S
C152 C156 1.503 . S
C152 O169 1.273 . S
C152 O170 1.257 . S
C153 O151 1.255 . S
C153 O154 1.247 . S
O154 C153 1.247 . S
C155 O167 1.242 . S
C155 O168 1.258 . S
C156 C152 1.503 . S
C156 C157 1.379 . S
C156 C161 1.392 . S
C157 C156 1.379 . S
C157 C158 1.404 . S
C157 H171 0.929 . S
C158 C157 1.404 . S
C158 C159 1.389 . S
C159 C158 1.389 . S
C159 C160 1.399 . S
C159 H172 0.931 . S
C160 C159 1.399 . S
C160 C161 1.390 . S
C161 C156 1.392 . S
C161 C160 1.390 . S
C161 H173 0.929 . S
O162 Tb146 2.326 . S
O162 C150 1.242 . S
O163 Eu147 2.324 . S
O163 C150 1.258 . S
O164 Tb146 2.500 . S
O164 C166 1.273 . S
O165 Tb146 2.473 . S
O165 C166 1.257 . S
C166 O164 1.273 . S
C166 O165 1.257 . S
O167 Eu147 2.326 . S
O167 C155 1.242 . S
O168 Tb146 2.324 . S
O168 C155 1.258 . S
O169 Eu147 2.500 . S
O169 C152 1.273 . S
O170 Eu147 2.473 . S
O170 C152 1.257 . S
H171 C157 0.929 . S
H172 C159 0.931 . S
H173 C161 0.929 . S
C174 C175 1.369 . S
C174 C176 1.419 1_455 S
C174 H178 0.930 . S
C175 C174 1.369 . S
C175 C184 1.429 . S
C176 C174 1.419 1_655 S
C176 C177 1.363 . S
C176 H179 0.929 . S
C177 C176 1.363 . S
C177 C183 1.428 . S
H178 C174 0.930 . S
H179 C176 0.929 . S
S180 N181 1.613 1_655 S
S180 N182 1.610 . S
N181 S180 1.613 1_455 S
N181 C184 1.350 . S
N182 S180 1.610 . S
N182 C183 1.351 . S
C183 C177 1.428 . S
C183 N182 1.351 . S
C183 C184 1.434 1_655 S
C184 C175 1.429 . S
C184 N181 1.350 . S
C184 C183 1.434 1_455 S
C185 C186 1.369 . S
C185 C187 1.419 . S
C185 H189 0.930 . S
C186 C185 1.369 . S
C186 C195 1.429 . S
C187 C185 1.419 . S
C187 C188 1.363 . S
C187 H190 0.929 . S
C188 C187 1.363 . S
C188 C194 1.428 . S
H189 C185 0.930 . S
H190 C187 0.929 . S
S191 N192 1.613 . S
S191 N193 1.610 . S
N192 S191 1.613 . S
N192 C195 1.350 . S
N193 S191 1.610 . S
N193 C194 1.351 . S
C194 C188 1.428 . S
C194 N193 1.351 . S
C194 C195 1.434 . S
C195 C186 1.429 . S
C195 N192 1.350 . S
C195 C194 1.434 . S
C196 C197 1.369 . S
C196 C198 1.419 . S
C196 H200 0.930 . S
C197 C196 1.369 . S
C197 C206 1.429 . S
C198 C196 1.419 . S
C198 C199 1.363 1_565 S
C198 H201 0.928 1_565 S
C199 C198 1.363 1_545 S
C199 C205 1.428 . S
H200 C196 0.930 . S
H201 C198 0.928 1_545 S
S202 N203 1.613 1_545 S
S202 N204 1.610 . S
N203 S202 1.613 1_565 S
N203 C206 1.350 . S
N204 S202 1.610 . S
N204 C205 1.351 . S
C205 C199 1.428 . S
C205 N204 1.351 . S
C205 C206 1.434 1_545 S
C206 C197 1.429 . S
C206 N203 1.350 . S
C206 C205 1.434 1_565 S
C207 C208 1.369 . S
C207 C209 1.419 . S
C207 H211 0.930 . S
C208 C207 1.369 . S
C208 C217 1.429 . S
C209 C207 1.419 . S
C209 C210 1.363 . S
C209 H212 0.929 . S
C210 C209 1.363 . S
C210 C216 1.428 . S
H211 C207 0.930 . S
H212 C209 0.929 . S
S213 N214 1.613 . S
S213 N215 1.610 . S
N214 S213 1.613 . S
N214 C217 1.350 . S
N215 S213 1.610 . S
N215 C216 1.351 . S
C216 C210 1.428 . S
C216 N215 1.351 . S
C216 C217 1.434 . S
C217 C208 1.429 . S
C217 N214 1.350 . S
C217 C216 1.434 . S
C218 C219 1.369 1_554 S
C218 C220 1.419 1_554 S
C218 H222 0.930 . S
C219 C218 1.369 1_556 S
C219 C228 1.429 . S
C220 C218 1.419 1_556 S
C220 C221 1.363 . S
C220 H223 0.929 . S
C221 C220 1.363 . S
C221 C227 1.428 . S
H222 C218 0.930 . S
H223 C220 0.929 . S
S224 N225 1.613 . S
S224 N226 1.610 . S
N225 S224 1.613 . S
N225 C228 1.350 . S
N226 S224 1.610 . S
N226 C227 1.351 . S
C227 C221 1.428 . S
C227 N226 1.351 . S
C227 C228 1.434 . S
C228 C219 1.429 . S
C228 N225 1.350 . S
C228 C227 1.434 . S
C229 C230 1.369 . S
C229 C231 1.419 . S
C229 H233 0.930 . S
C230 C229 1.369 . S
C230 C239 1.429 . S
C231 C229 1.419 . S
C231 C232 1.363 . S
C231 H234 0.929 . S
C232 C231 1.363 . S
C232 C238 1.428 . S
H233 C229 0.930 . S
H234 C231 0.929 . S
S235 N236 1.613 . S
S235 N237 1.610 . S
N236 S235 1.613 . S
N236 C239 1.350 . S
N237 S235 1.610 . S
N237 C238 1.351 . S
C238 C232 1.428 . S
C238 N237 1.351 . S
C238 C239 1.434 . S
C239 C230 1.429 . S
C239 N236 1.350 . S
C239 C238 1.434 . S
C240 C241 1.369 . S
C240 C242 1.419 . S
C240 H244 0.930 . S
C241 C240 1.369 . S
C241 C250 1.429 . S
C242 C240 1.419 . S
C242 C243 1.363 . S
C242 H245 0.929 . S
C243 C242 1.363 . S
C243 C249 1.428 . S
H244 C240 0.930 . S
H245 C242 0.929 . S
S246 N247 1.613 . S
S246 N248 1.610 . S
N247 S246 1.613 . S
N247 C250 1.350 . S
N248 S246 1.610 . S
N248 C249 1.351 . S
C249 C243 1.428 . S
C249 N248 1.351 . S
C249 C250 1.434 . S
C250 C241 1.429 . S
C250 N247 1.350 . S
C250 C249 1.434 . S
C251 C252 1.369 . S
C251 C253 1.419 . S
C251 H255 0.930 . S
C252 C251 1.369 . S
C252 C261 1.429 . S
C253 C251 1.419 . S
C253 C254 1.363 . S
C253 H256 0.929 . S
C254 C253 1.363 . S
C254 C260 1.428 . S
H255 C251 0.930 . S
H256 C253 0.929 . S
S257 N258 1.613 . S
S257 N259 1.610 . S
N258 S257 1.613 . S
N258 C261 1.350 . S
N259 S257 1.610 . S
N259 C260 1.351 . S
C260 C254 1.428 . S
C260 N259 1.351 . S
C260 C261 1.434 . S
C261 C252 1.429 . S
C261 N258 1.350 . S
C261 C260 1.434 . S
C262 C263 1.369 . S
C262 C264 1.419 . S
C262 H266 0.930 1_554 S
C263 C262 1.369 . S
C263 C272 1.429 . S
C264 C262 1.419 . S
C264 C265 1.363 . S
C264 H267 0.929 . S
C265 C264 1.363 . S
C265 C271 1.428 . S
H266 C262 0.930 1_556 S
H267 C264 0.929 . S
S268 N269 1.613 . S
S268 N270 1.610 . S
N269 S268 1.613 . S
N269 C272 1.350 . S
N270 S268 1.610 . S
N270 C271 1.351 . S
C271 C265 1.428 . S
C271 N270 1.351 . S
C271 C272 1.434 . S
C272 C263 1.429 . S
C272 N269 1.350 . S
C272 C271 1.434 . S
C273 C274 1.369 . S
C273 C275 1.419 1_655 S
C273 H277 0.930 . S
C274 C273 1.369 . S
C274 C283 1.429 . S
C275 C273 1.419 1_455 S
C275 C276 1.363 . S
C275 H278 0.929 . S
C276 C275 1.363 . S
C276 C282 1.428 1_455 S
H277 C273 0.930 . S
H278 C275 0.929 . S
S279 N280 1.613 . S
S279 N281 1.610 . S
N280 S279 1.613 . S
N280 C283 1.350 . S
N281 S279 1.610 . S
N281 C282 1.351 . S
C282 C276 1.428 1_655 S
C282 N281 1.351 . S
C282 C283 1.434 . S
C283 C274 1.429 . S
C283 N280 1.350 . S
C283 C282 1.434 . S
C284 C285 1.369 . S
C284 C286 1.419 . S
C284 H288 0.930 . S
C285 C284 1.369 . S
C285 C294 1.429 1_554 S
C286 C284 1.419 . S
C286 C287 1.363 1_554 S
C286 H289 0.929 . S
C287 C286 1.363 1_556 S
C287 C293 1.428 . S
H288 C284 0.930 . S
H289 C286 0.929 . S
S290 N291 1.613 . S
S290 N292 1.610 . S
N291 S290 1.613 . S
N291 C294 1.350 . S
N292 S290 1.610 . S
N292 C293 1.351 . S
C293 C287 1.428 . S
C293 N292 1.351 . S
C293 C294 1.434 . S
C294 C285 1.429 1_556 S
C294 N291 1.350 . S
C294 C293 1.434 . S
C295 C296 1.369 . S
C295 C297 1.419 1_545 S
C295 H299 0.930 . S
C296 C295 1.369 . S
C296 C305 1.429 1_545 S
C297 C295 1.419 1_565 S
C297 C298 1.363 . S
C297 H300 0.929 . S
C298 C297 1.363 . S
C298 C304 1.428 . S
H299 C295 0.930 . S
H300 C297 0.929 . S
S301 N302 1.613 1_565 S
S301 N303 1.610 . S
N302 S301 1.613 1_545 S
N302 C305 1.350 1_545 S
N303 S301 1.610 . S
N303 C304 1.351 . S
C304 C298 1.428 . S
C304 N303 1.351 . S
C304 C305 1.434 . S
C305 C296 1.429 1_565 S
C305 N302 1.350 1_565 S
C305 C304 1.434 . S
C306 C307 1.369 . S
C306 C308 1.419 . S
C306 H310 0.930 . S
C307 C306 1.369 . S
C307 C316 1.429 1_556 S
C308 C306 1.419 . S
C308 C309 1.363 1_556 S
C308 H311 0.929 . S
C309 C308 1.363 1_554 S
C309 C315 1.428 . S
H310 C306 0.930 . S
H311 C308 0.929 . S
S312 N313 1.613 . S
S312 N314 1.610 . S
N313 S312 1.613 . S
N313 C316 1.350 . S
N314 S312 1.610 . S
N314 C315 1.351 . S
C315 C309 1.428 . S
C315 N314 1.351 . S
C315 C316 1.434 . S
C316 C307 1.429 1_554 S
C316 N313 1.350 . S
C316 C315 1.434 . S
C317 C318 1.369 . S
C317 C319 1.419 1_565 S
C317 H321 0.930 . S
C318 C317 1.369 . S
C318 C327 1.429 . S
C319 C317 1.419 1_545 S
C319 C320 1.363 . S
C319 H322 0.929 . S
C320 C319 1.363 . S
C320 C326 1.428 . S
H321 C317 0.930 . S
H322 C319 0.929 . S
S323 N324 1.613 . S
S323 N325 1.610 1_565 S
N324 S323 1.613 . S
N324 C327 1.350 . S
N325 S323 1.610 1_545 S
N325 C326 1.351 . S
C326 C320 1.428 . S
C326 N325 1.351 . S
C326 C327 1.434 1_545 S
C327 C318 1.429 . S
C327 N324 1.350 . S
C327 C326 1.434 1_565 S
C328 C329 1.369 . S
C328 C330 1.419 1_655 S
C328 H332 0.930 . S
C329 C328 1.369 . S
C329 C338 1.429 . S
C330 C328 1.419 1_455 S
C330 C331 1.363 . S
C330 H333 0.929 . S
C331 C330 1.363 . S
C331 C337 1.428 . S
H332 C328 0.930 . S
H333 C330 0.929 . S
S334 N335 1.613 . S
S334 N336 1.610 1_655 S
N335 S334 1.613 . S
N335 C338 1.350 . S
N336 S334 1.610 1_455 S
N336 C337 1.351 . S
C337 C331 1.428 . S
C337 N336 1.351 . S
C337 C338 1.434 1_455 S
C338 C329 1.429 . S
C338 N335 1.350 . S
C338 C337 1.434 1_655 S
C339 C340 1.369 . S
C339 C341 1.419 . S
C339 H343 0.930 . S
C340 C339 1.369 . S
C340 C349 1.429 . S
C341 C339 1.419 . S
C341 C342 1.363 . S
C341 H344 0.929 . S
C342 C341 1.363 . S
C342 C348 1.428 . S
H343 C339 0.930 . S
H344 C341 0.929 . S
S345 N346 1.613 . S
S345 N347 1.610 . S
N346 S345 1.613 . S
N346 C349 1.350 . S
N347 S345 1.610 . S
N347 C348 1.351 . S
C348 C342 1.428 . S
C348 N347 1.351 . S
C348 C349 1.434 . S
C349 C340 1.429 . S
C349 N346 1.350 . S
C349 C348 1.434 . S
C350 C351 1.369 . S
C350 C352 1.419 . S
C350 H354 0.930 . S
C351 C350 1.369 . S
C351 C360 1.429 . S
C352 C350 1.419 . S
C352 C353 1.363 . S
C352 H355 0.929 . S
C353 C352 1.363 . S
C353 C359 1.428 . S
H354 C350 0.930 . S
H355 C352 0.929 . S
S356 N357 1.613 . S
S356 N358 1.610 . S
N357 S356 1.613 . S
N357 C360 1.350 . S
N358 S356 1.610 . S
N358 C359 1.351 . S
C359 C353 1.428 . S
C359 N358 1.351 . S
C359 C360 1.434 . S
C360 C351 1.429 . S
C360 N357 1.350 . S
C360 C359 1.434 . S
C361 C362 1.369 . S
C361 C363 1.419 . S
C361 H365 0.930 . S
C362 C361 1.369 . S
C362 C371 1.429 . S
C363 C361 1.419 . S
C363 C364 1.363 1_556 S
C363 H366 0.929 . S
C364 C363 1.363 1_554 S
C364 C370 1.428 1_554 S
H365 C361 0.930 . S
H366 C363 0.929 . S
S367 N368 1.613 . S
S367 N369 1.610 1_556 S
N368 S367 1.613 . S
N368 C371 1.350 . S
N369 S367 1.610 1_554 S
N369 C370 1.351 1_554 S
C370 C364 1.428 1_556 S
C370 N369 1.351 1_556 S
C370 C371 1.434 . S
C371 C362 1.429 . S
C371 N368 1.350 . S
C371 C370 1.434 . S
C372 C373 1.369 . S
C372 C374 1.419 . S
C372 H376 0.930 . S
C373 C372 1.369 . S
C373 C382 1.429 . S
C374 C372 1.419 . S
C374 C375 1.363 . S
C374 H377 0.929 . S
C375 C374 1.363 . S
C375 C381 1.428 . S
H376 C372 0.930 . S
H377 C374 0.929 . S
S378 N379 1.613 . S
S378 N380 1.610 . S
N379 S378 1.613 . S
N379 C382 1.350 . S
N380 S378 1.610 . S
N380 C381 1.351 . S
C381 C375 1.428 . S
C381 N380 1.351 . S
C381 C382 1.434 . S
C382 C373 1.429 . S
C382 N379 1.350 . S
C382 C381 1.434 . S
C383 C384 1.369 . S
C383 C385 1.419 . S
C383 H387 0.930 . S
C384 C383 1.369 . S
C384 C393 1.429 . S
C385 C383 1.419 . S
C385 C386 1.363 1_554 S
C385 H388 0.929 1_554 S
C386 C385 1.363 1_556 S
C386 C392 1.428 1_556 S
H387 C383 0.930 . S
H388 C385 0.929 1_556 S
S389 N390 1.613 . S
S389 N391 1.610 . S
N390 S389 1.613 . S
N390 C393 1.350 . S
N391 S389 1.610 . S
N391 C392 1.351 . S
C392 C386 1.428 1_554 S
C392 N391 1.351 . S
C392 C393 1.434 . S
C393 C384 1.429 . S
C393 N390 1.350 . S
C393 C392 1.434 . S
C394 C395 1.369 . S
C394 C396 1.419 . S
C394 H398 0.930 . S
C395 C394 1.369 . S
C395 C404 1.429 . S
C396 C394 1.419 . S
C396 C397 1.363 . S
C396 H399 0.929 . S
C397 C396 1.363 . S
C397 C403 1.428 . S
H398 C394 0.930 . S
H399 C396 0.929 . S
S400 N401 1.613 . S
S400 N402 1.610 . S
N401 S400 1.613 . S
N401 C404 1.350 . S
N402 S400 1.610 . S
N402 C403 1.351 . S
C403 C397 1.428 . S
C403 N402 1.351 . S
C403 C404 1.434 . S
C404 C395 1.429 . S
C404 N401 1.350 . S
C404 C403 1.434 . S
C175 C13 2.362 1_556 S
C177 C129 2.360 . S
C186 C158 2.358 . S
C188 C42 2.363 . S
C197 C71 2.361 . S
C199 C100 2.361 1_554 S
C208 C10 2.143 . S
C210 C79 1.707 . S
C219 C21 1.707 . S
C221 C39 2.140 . S
C230 C50 1.707 . S
C232 C68 2.140 . S
C241 C97 2.143 . S
C243 C137 1.706 . S
C252 C126 2.142 . S
C254 C166 1.715 . S
C263 C108 1.706 . S
C265 C155 2.140 . S
C274 C131 1.419 . S
C276 C15 1.419 . S
C285 C160 1.416 . S
C287 C44 1.416 . S
C296 C102 1.420 . S
C298 C73 1.420 . S
C307 C5 2.557 1_556 S
C309 C92 2.557 1_554 S
C318 C34 2.554 . S
C320 C121 2.560 . S
C329 C150 2.560 . S
C331 C63 2.555 . S
C340 C8 1.236 . S
C342 C3 1.240 . S
C351 C32 1.239 . S
C353 C37 1.238 . S
C362 C66 1.241 . S
C364 C61 1.236 . S
C373 C95 1.244 . S
C375 C90 1.234 . S
C384 C124 1.233 . S
C386 C119 1.243 . S
C395 C148 1.242 . S
C397 C153 1.235 . S
