# Generated by pormake.
# Topology ure, (4)-cn, num edge types: 1
# Building blocks:
#     Node 0, Type 0, BuildingBlock: UXUYUI_clean_sbu_0, # of connection points: 4
#     Node 1, Type 0, BuildingBlock: UXUYUI_clean_sbu_0, # of connection points: 4
#     Node 2, Type 0, BuildingBlock: UXUYUI_clean_sbu_0, # of connection points: 4
#     Node 3, Type 0, BuildingBlock: UXUYUI_clean_sbu_0, # of connection points: 4
#     Node 4, Type 0, BuildingBlock: UXUYUI_clean_sbu_0, # of connection points: 4
#     Node 5, Type 0, BuildingBlock: UXUYUI_clean_sbu_0, # of connection points: 4
#     Node 6, Type 0, BuildingBlock: UXUYUI_clean_sbu_0, # of connection points: 4
#     Node 7, Type 0, BuildingBlock: UXUYUI_clean_sbu_0, # of connection points: 4
#     Node 8, Type 0, BuildingBlock: UXUYUI_clean_sbu_0, # of connection points: 4
#     Node 9, Type 0, BuildingBlock: UXUYUI_clean_sbu_0, # of connection points: 4
#     Node 10, Type 0, BuildingBlock: UXUYUI_clean_sbu_0, # of connection points: 4
#     Node 11, Type 0, BuildingBlock: UXUYUI_clean_sbu_0, # of connection points: 4
#     Node 12, Type 0, BuildingBlock: UXUYUI_clean_sbu_0, # of connection points: 4
#     Node 13, Type 0, BuildingBlock: UXUYUI_clean_sbu_0, # of connection points: 4
#     Node 14, Type 0, BuildingBlock: UXUYUI_clean_sbu_0, # of connection points: 4
#     Node 15, Type 0, BuildingBlock: UXUYUI_clean_sbu_0, # of connection points: 4
#     Edge 16, Type (0, 0), BuildingBlock: OJICUG_clean_linker_0, # of connection points: 2
#     Edge 17, Type (0, 0), BuildingBlock: OJICUG_clean_linker_0, # of connection points: 2
#     Edge 18, Type (0, 0), BuildingBlock: OJICUG_clean_linker_0, # of connection points: 2
#     Edge 19, Type (0, 0), BuildingBlock: OJICUG_clean_linker_0, # of connection points: 2
#     Edge 20, Type (0, 0), BuildingBlock: OJICUG_clean_linker_0, # of connection points: 2
#     Edge 21, Type (0, 0), BuildingBlock: OJICUG_clean_linker_0, # of connection points: 2
#     Edge 22, Type (0, 0), BuildingBlock: OJICUG_clean_linker_0, # of connection points: 2
#     Edge 23, Type (0, 0), BuildingBlock: OJICUG_clean_linker_0, # of connection points: 2
#     Edge 24, Type (0, 0), BuildingBlock: OJICUG_clean_linker_0, # of connection points: 2
#     Edge 25, Type (0, 0), BuildingBlock: OJICUG_clean_linker_0, # of connection points: 2
#     Edge 26, Type (0, 0), BuildingBlock: OJICUG_clean_linker_0, # of connection points: 2
#     Edge 27, Type (0, 0), BuildingBlock: OJICUG_clean_linker_0, # of connection points: 2
#     Edge 28, Type (0, 0), BuildingBlock: OJICUG_clean_linker_0, # of connection points: 2
#     Edge 29, Type (0, 0), BuildingBlock: OJICUG_clean_linker_0, # of connection points: 2
#     Edge 30, Type (0, 0), BuildingBlock: OJICUG_clean_linker_0, # of connection points: 2
#     Edge 31, Type (0, 0), BuildingBlock: OJICUG_clean_linker_0, # of connection points: 2
#     Edge 32, Type (0, 0), BuildingBlock: OJICUG_clean_linker_0, # of connection points: 2
#     Edge 33, Type (0, 0), BuildingBlock: OJICUG_clean_linker_0, # of connection points: 2
#     Edge 34, Type (0, 0), BuildingBlock: OJICUG_clean_linker_0, # of connection points: 2
#     Edge 35, Type (0, 0), BuildingBlock: OJICUG_clean_linker_0, # of connection points: 2
#     Edge 36, Type (0, 0), BuildingBlock: OJICUG_clean_linker_0, # of connection points: 2
#     Edge 37, Type (0, 0), BuildingBlock: OJICUG_clean_linker_0, # of connection points: 2
#     Edge 38, Type (0, 0), BuildingBlock: OJICUG_clean_linker_0, # of connection points: 2
#     Edge 39, Type (0, 0), BuildingBlock: OJICUG_clean_linker_0, # of connection points: 2
#     Edge 40, Type (0, 0), BuildingBlock: OJICUG_clean_linker_0, # of connection points: 2
#     Edge 41, Type (0, 0), BuildingBlock: OJICUG_clean_linker_0, # of connection points: 2
#     Edge 42, Type (0, 0), BuildingBlock: OJICUG_clean_linker_0, # of connection points: 2
#     Edge 43, Type (0, 0), BuildingBlock: OJICUG_clean_linker_0, # of connection points: 2
#     Edge 44, Type (0, 0), BuildingBlock: OJICUG_clean_linker_0, # of connection points: 2
#     Edge 45, Type (0, 0), BuildingBlock: OJICUG_clean_linker_0, # of connection points: 2
#     Edge 46, Type (0, 0), BuildingBlock: OJICUG_clean_linker_0, # of connection points: 2
#     Edge 47, Type (0, 0), BuildingBlock: OJICUG_clean_linker_0, # of connection points: 2
# Relax obj value: 0.164
# Max RMSD: 0.090
# Mean RMSD: 0.090
data_MOF--net-ure--node1-UXUYUI_clean_sbu_0--edge1-OJICUG_clean_linker_0
_symmetry_space_group_name_H-M    P1
_symmetry_Int_Tables_number       1
_symmetry_cell_setting            triclinic
loop_
_symmetry_equiv_pos_as_xyz
'x, y, z'
_cell_length_a     38.098987
_cell_length_b     37.997168
_cell_length_c     38.034112
_cell_angle_alpha  90.032427
_cell_angle_beta   90.110188
_cell_angle_gamma 90.190054
loop_
_atom_site_label
_atom_site_type_symbol
_atom_site_fract_x
_atom_site_fract_y
_atom_site_fract_z
_atom_type_partial_charge
Li0 Li 0.2538 0.30542 0.2627 0.0
Li1 Li 0.2565 0.25819 0.30466 0.0
Li2 Li 0.30185 0.26225 0.26199 0.0
Li3 Li 0.24088 0.24212 0.2454 0.0
C4 C 0.31316 0.32462 0.29816 0.0
N5 N 0.35873 0.38135 0.29724 0.0
C6 C 0.32283 0.34118 0.32955 0.0
C7 C 0.32656 0.33703 0.26626 0.0
C8 C 0.34588 0.36984 0.32853 0.0
C9 C 0.34966 0.36566 0.26637 0.0
C10 C 0.18551 0.27228 0.29734 0.0
C11 C 0.1315 0.24351 0.31387 0.0
N12 N 0.12585 0.26896 0.33837 0.0
C13 C 0.17904 0.2983 0.32246 0.0
C14 C 0.16148 0.24475 0.29281 0.0
C15 C 0.14878 0.29608 0.34305 0.0
C16 C 0.24221 0.36833 0.22347 0.0
N17 N 0.24331 0.35391 0.25614 0.0
C18 C 0.23694 0.41054 0.28272 0.0
C19 C 0.24043 0.3741 0.2855 0.0
C20 C 0.23684 0.42638 0.24938 0.0
C21 C 0.23911 0.40478 0.21945 0.0
H22 H 0.24467 0.35165 0.2006 0.0
H23 H 0.2422 0.36201 0.31117 0.0
C24 C 0.28031 0.25607 0.37355 0.0
N25 N 0.25114 0.24866 0.3542 0.0
C26 C 0.27999 0.25238 0.41004 0.0
C27 C 0.2198 0.23258 0.40628 0.0
C28 C 0.22144 0.2362 0.36974 0.0
C29 C 0.24924 0.24111 0.42691 0.0
H30 H 0.30385 0.26523 0.36058 0.0
H31 H 0.19895 0.22911 0.354 0.0
C32 C 0.28484 0.26807 0.18952 0.0
N33 N 0.31145 0.2469 0.12541 0.0
C34 C 0.28995 0.23232 0.18257 0.0
C35 C 0.29345 0.29305 0.16397 0.0
C36 C 0.30332 0.22215 0.14994 0.0
C37 C 0.30688 0.28182 0.13172 0.0
C38 C 0.2746 0.19325 0.30109 0.0
C39 C 0.30471 0.18377 0.31981 0.0
C40 C 0.24251 0.1772 0.30899 0.0
C41 C 0.30213 0.15857 0.34643 0.0
C42 C 0.24103 0.15208 0.33575 0.0
N43 N 0.27061 0.1434 0.3538 0.0
C44 C 0.36981 0.25566 0.28733 0.0
C45 C 0.36904 0.25982 0.22522 0.0
C46 C 0.40644 0.25514 0.28758 0.0
N47 N 0.35184 0.25797 0.2565 0.0
C48 C 0.40572 0.25932 0.22423 0.0
C49 C 0.42495 0.25722 0.25573 0.0
H50 H 0.35558 0.25494 0.3119 0.0
H51 H 0.35462 0.26257 0.20101 0.0
C52 C 0.18968 0.22832 0.19275 0.0
N53 N 0.21286 0.21282 0.21508 0.0
C54 C 0.16861 0.20776 0.17054 0.0
C55 C 0.19556 0.15566 0.19477 0.0
C56 C 0.21633 0.17722 0.21624 0.0
C57 C 0.17124 0.17086 0.17151 0.0
H58 H 0.18748 0.2567 0.19231 0.0
H59 H 0.23535 0.1655 0.23375 0.0
O60 O 0.28995 0.29703 0.29884 0.0
O61 O 0.21476 0.2741 0.27668 0.0
O62 O 0.27181 0.27872 0.22125 0.0
O63 O 0.27638 0.21854 0.27556 0.0
H64 H 0.31241 0.33216 0.35443 0.0
H65 H 0.31915 0.32485 0.24164 0.0
H66 H 0.3534 0.38302 0.35262 0.0
H67 H 0.36025 0.37549 0.24189 0.0
H68 H 0.11274 0.22229 0.31077 0.0
H69 H 0.19735 0.31977 0.32626 0.0
H70 H 0.16599 0.22451 0.27331 0.0
H71 H 0.14354 0.31591 0.36276 0.0
H72 H 0.23583 0.42627 0.30645 0.0
H73 H 0.23894 0.41599 0.19328 0.0
H74 H 0.30325 0.2593 0.42498 0.0
H75 H 0.19577 0.22319 0.41829 0.0
H76 H 0.28413 0.21267 0.20228 0.0
H77 H 0.29011 0.32085 0.16907 0.0
H78 H 0.30741 0.19458 0.14418 0.0
H79 H 0.31374 0.30087 0.11173 0.0
H80 H 0.32977 0.19577 0.31394 0.0
H81 H 0.21886 0.18455 0.29505 0.0
H82 H 0.32519 0.15109 0.36125 0.0
H83 H 0.21631 0.13965 0.34233 0.0
H84 H 0.42008 0.25316 0.31249 0.0
H85 H 0.41886 0.26156 0.19911 0.0
H86 H 0.15005 0.22059 0.15321 0.0
H87 H 0.19884 0.12739 0.19602 0.0
Li88 Li 0.9915 0.05373 0.50204 0.0
Li89 Li 0.95045 0.00705 0.50605 0.0
Li90 Li 0.99535 0.01075 0.54983 0.0
Li91 Li 0.00883 0.99125 0.48814 0.0
C92 C 0.96163 0.07175 0.5649 0.0
N93 N 0.96932 0.12433 0.61478 0.0
C94 C 0.93248 0.08403 0.58352 0.0
C95 C 0.99478 0.08607 0.5721 0.0
C96 C 0.93688 0.11066 0.60851 0.0
C97 C 0.99809 0.11266 0.59726 0.0
C98 C 0.95131 0.01486 0.43785 0.0
C99 C 0.92686 0.97489 0.39495 0.0
N100 N 0.90077 0.9983 0.38826 0.0
C101 C 0.9244 0.03864 0.43036 0.0
C102 C 0.95267 0.98278 0.4199 0.0
C103 C 0.89902 0.02973 0.40529 0.0
C104 C 0.02769 0.11932 0.49203 0.0
N105 N 0.99623 0.10239 0.49092 0.0
C106 C 0.96629 0.15657 0.4806 0.0
C107 C 0.96588 0.12016 0.48521 0.0
C108 C 0.99821 0.17515 0.48262 0.0
C109 C 0.02929 0.15589 0.488 0.0
H110 H 0.05134 0.10462 0.49732 0.0
H111 H 0.94117 0.10613 0.48535 0.0
C112 C 0.88673 0.97013 0.48256 0.0
N113 N 0.90079 0.99807 0.50015 0.0
C114 C 0.85029 0.96558 0.48084 0.0
C115 C 0.84345 0.0192 0.51415 0.0
C116 C 0.87983 0.02274 0.51508 0.0
C117 C 0.82817 0.9901 0.49726 0.0
H118 H 0.90363 0.95137 0.46979 0.0
H119 H 0.89137 0.04544 0.52756 0.0
C120 C 0.06644 0.01407 0.52708 0.0
N121 N 0.13126 0.98625 0.54394 0.0
C122 C 0.06895 0.97997 0.54062 0.0
C123 C 0.09692 0.03398 0.52206 0.0
C124 C 0.10195 0.96638 0.54898 0.0
C125 C 0.12944 0.01948 0.53079 0.0
C126 C 0.95803 0.93897 0.5235 0.0
C127 C 0.93394 0.93326 0.5506 0.0
C128 C 0.95976 0.91507 0.49558 0.0
C129 C 0.91179 0.90391 0.54918 0.0
C130 C 0.93726 0.88596 0.49519 0.0
N131 N 0.9139 0.88106 0.52175 0.0
C132 C 0.97364 1.00127 0.61837 0.0
C133 C 0.03501 0.01073 0.61589 0.0
C134 C 0.97472 0.99962 0.65497 0.0
N135 N 0.00349 0.00627 0.59953 0.0
C136 C 0.03739 0.0089 0.65257 0.0
C137 C 0.00693 0.00322 0.67268 0.0
H138 H 0.94868 0.99969 0.60494 0.0
H139 H 0.05827 0.01643 0.60077 0.0
C140 C 0.04961 0.97522 0.42781 0.0
N141 N 0.039 0.96256 0.45951 0.0
C142 C 0.07179 0.95529 0.40635 0.0
C143 C 0.07213 0.90986 0.45073 0.0
C144 C 0.04984 0.93056 0.47123 0.0
C145 C 0.08343 0.9221 0.41775 0.0
H146 H 0.04082 1.00085 0.4192 0.0
H147 H 0.04105 0.92098 0.4965 0.0
O148 O 0.95768 0.04524 0.54064 0.0
O149 O 0.97608 0.02282 0.46274 0.0
O150 O 0.03447 0.02773 0.51802 0.0
O151 O 0.98015 0.96743 0.52454 0.0
H152 H 0.90668 0.07298 0.57908 0.0
H153 H 0.01785 0.07678 0.55861 0.0
H154 H 0.91451 0.12036 0.62301 0.0
H155 H 0.02358 0.12396 0.60293 0.0
H156 H 0.9275 0.95008 0.38101 0.0
H157 H 0.92287 0.06353 0.444 0.0
H158 H 0.97322 0.96402 0.42539 0.0
H159 H 0.87791 0.04778 0.39942 0.0
H160 H 0.94169 0.17002 0.47602 0.0
H161 H 0.05446 0.16898 0.49039 0.0
H162 H 0.83959 0.94288 0.46728 0.0
H163 H 0.82742 0.03935 0.52622 0.0
H164 H 0.04568 0.96425 0.54498 0.0
H165 H 0.09551 0.06035 0.51144 0.0
H166 H 0.10424 0.94006 0.55954 0.0
H167 H 0.15324 0.03461 0.52705 0.0
H168 H 0.93212 0.95137 0.57237 0.0
H169 H 0.97787 0.91914 0.47416 0.0
H170 H 0.89292 0.89931 0.5699 0.0
H171 H 0.93822 0.86738 0.47365 0.0
H172 H 0.95034 0.99646 0.66921 0.0
H173 H 0.06282 0.01194 0.66497 0.0
H174 H 0.08013 0.96599 0.38134 0.0
H175 H 0.08003 0.8843 0.46045 0.0
Li176 Li 0.20435 0.75123 0.76115 0.0
Li177 Li 0.26538 0.76938 0.74451 0.0
Li178 Li 0.25104 0.70709 0.76258 0.0
Li179 Li 0.25001 0.75489 0.80408 0.0
C180 C 0.22219 0.74695 0.68907 0.0
N181 N 0.19973 0.77402 0.6255 0.0
C182 C 0.21382 0.78264 0.68612 0.0
C183 C 0.21913 0.72505 0.65969 0.0
C184 C 0.20254 0.79581 0.65375 0.0
C185 C 0.20769 0.73923 0.62779 0.0
C186 C 0.23481 0.82055 0.79909 0.0
C187 C 0.27173 0.86057 0.83183 0.0
N188 N 0.24312 0.87203 0.84979 0.0
C189 C 0.20575 0.83289 0.8177 0.0
C190 C 0.26806 0.8346 0.80607 0.0
C191 C 0.21051 0.85887 0.8433 0.0
C192 C 0.13669 0.76314 0.78534 0.0
N193 N 0.15458 0.75628 0.75524 0.0
C194 C 0.10068 0.75098 0.72319 0.0
C195 C 0.13735 0.75005 0.72446 0.0
C196 C 0.08152 0.75804 0.75393 0.0
C197 C 0.10008 0.76433 0.78528 0.0
H198 H 0.15093 0.76659 0.80973 0.0
H199 H 0.15179 0.74341 0.70104 0.0
C200 C 0.31672 0.78189 0.69188 0.0
N201 N 0.29341 0.79782 0.71368 0.0
C202 C 0.33767 0.802 0.66926 0.0
C203 C 0.31028 0.85453 0.69201 0.0
C204 C 0.2896 0.8334 0.71385 0.0
C205 C 0.33478 0.83888 0.66934 0.0
H206 H 0.31911 0.75353 0.69217 0.0
H207 H 0.27041 0.84543 0.7309 0.0
C208 C 0.19141 0.6902 0.7989 0.0
N209 N 0.14454 0.63455 0.79983 0.0
C210 C 0.18141 0.67503 0.83082 0.0
C211 C 0.1777 0.67694 0.76741 0.0
C212 C 0.15772 0.6469 0.83074 0.0
C213 C 0.15393 0.64889 0.76846 0.0
C214 C 0.32083 0.73882 0.79616 0.0
C215 C 0.32726 0.71308 0.82158 0.0
C216 C 0.34546 0.76561 0.79066 0.0
C217 C 0.35807 0.71486 0.84149 0.0
C218 C 0.37597 0.76644 0.81108 0.0
N219 N 0.38157 0.74129 0.83588 0.0
C220 C 0.26009 0.64182 0.72577 0.0
C221 C 0.26234 0.63942 0.78799 0.0
C222 C 0.26197 0.60508 0.72374 0.0
N223 N 0.25991 0.65806 0.75762 0.0
C224 C 0.26432 0.60281 0.78721 0.0
C225 C 0.2635 0.58504 0.75481 0.0
H226 H 0.2576 0.65727 0.70205 0.0
H227 H 0.26142 0.65297 0.81297 0.0
C228 C 0.22643 0.75965 0.87275 0.0
N229 N 0.25593 0.76508 0.85338 0.0
C230 C 0.22702 0.76395 0.90917 0.0
C231 C 0.2882 0.78034 0.90528 0.0
C232 C 0.28629 0.77618 0.8688 0.0
C233 C 0.25838 0.77377 0.92595 0.0
H234 H 0.20242 0.75155 0.85984 0.0
H235 H 0.3091 0.78175 0.85301 0.0
O236 O 0.23354 0.73339 0.7204 0.0
O237 O 0.23089 0.79445 0.77459 0.0
O238 O 0.21543 0.71708 0.79865 0.0
O239 O 0.29104 0.73739 0.77613 0.0
H240 H 0.21581 0.80001 0.70855 0.0
H241 H 0.22544 0.69737 0.66152 0.0
H242 H 0.19598 0.82336 0.65111 0.0
H243 H 0.20516 0.72257 0.60485 0.0
H244 H 0.29735 0.87147 0.83768 0.0
H245 H 0.1798 0.82253 0.81249 0.0
H246 H 0.29088 0.82512 0.79214 0.0
H247 H 0.18827 0.86856 0.85801 0.0
H248 H 0.08749 0.74603 0.69842 0.0
H249 H 0.08646 0.76904 0.80979 0.0
H250 H 0.35635 0.78888 0.65234 0.0
H251 H 0.30682 0.8828 0.69252 0.0
H252 H 0.19211 0.68467 0.8554 0.0
H253 H 0.18548 0.68796 0.7424 0.0
H254 H 0.14999 0.63476 0.85524 0.0
H255 H 0.14309 0.6384 0.7443 0.0
H256 H 0.30853 0.69218 0.82614 0.0
H257 H 0.34104 0.78557 0.77087 0.0
H258 H 0.36328 0.69526 0.86143 0.0
H259 H 0.3952 0.78708 0.80721 0.0
H260 H 0.26086 0.59249 0.69821 0.0
H261 H 0.26592 0.58855 0.8118 0.0
H262 H 0.20346 0.75854 0.92416 0.0
H263 H 0.31273 0.78856 0.91721 0.0
Li264 Li 0.50788 0.9939 0.04869 0.0
Li265 Li 0.50888 0.95189 1.00121 0.0
Li266 Li 0.55509 0.99618 0.00519 0.0
Li267 Li 0.49343 0.01214 0.98567 0.0
C268 C 0.55672 0.94832 0.07035 0.0
N269 N 0.58201 0.92844 0.13551 0.0
C270 C 0.54721 0.9158 0.0847 0.0
C271 C 0.57916 0.97067 0.08912 0.0
C272 C 0.56027 0.90623 0.11768 0.0
C273 C 0.59162 0.96017 0.12203 0.0
C274 C 0.4379 0.96031 0.01336 0.0
C275 C 0.38562 0.94643 0.98018 0.0
N276 N 0.37705 0.9215 0.00437 0.0
C277 C 0.42849 0.93467 0.03797 0.0
C278 C 0.41625 0.96634 0.98426 0.0
C279 C 0.39767 0.91527 0.03291 0.0
C280 C 0.50425 0.03254 0.11276 0.0
N281 N 0.49803 1.00076 0.09752 0.0
C282 C 0.48482 0.97523 0.15342 0.0
C283 C 0.48772 0.97256 0.11695 0.0
C284 C 0.49238 0.00735 0.17014 0.0
C285 C 0.50159 0.03645 0.14921 0.0
H286 H 0.51208 0.05467 0.09673 0.0
H287 H 0.48319 0.94752 0.10432 0.0
C288 C 0.5326 0.88291 0.99674 0.0
N289 N 0.50345 0.90252 0.99044 0.0
C290 C 0.532 0.84651 0.99189 0.0
C291 C 0.47165 0.85096 0.97292 0.0
C292 C 0.4736 0.8874 0.97765 0.0
C293 C 0.501 0.83002 0.98054 0.0
H294 H 0.55633 0.89557 0.00603 0.0
H295 H 0.45122 0.90339 0.97112 0.0
C296 C 0.54442 0.06573 0.02062 0.0
N297 N 0.58512 0.12599 0.01774 0.0
C298 C 0.54099 0.08902 0.99238 0.0
C299 C 0.56841 0.0732 0.04748 0.0
C300 C 0.56182 0.11934 0.9914 0.0
C301 C 0.58881 0.10375 0.0455 0.0
C302 C 0.53212 0.95615 0.9374 0.0
C303 C 0.56438 0.9394 0.93276 0.0
C304 C 0.50304 0.94545 0.9176 0.0
C305 C 0.56696 0.91199 0.9084 0.0
C306 C 0.5067 0.91795 0.89351 0.0
N307 N 0.53831 0.90191 0.88947 0.0
C308 C 0.62536 0.97755 0.01244 0.0
C309 C 0.6188 0.0327 0.98428 0.0
C310 C 0.66178 0.98095 0.01197 0.0
N311 N 0.60461 0.00362 0.99964 0.0
C312 C 0.65527 0.03717 0.98314 0.0
C313 C 0.67723 0.0113 0.99768 0.0
H314 H 0.61364 0.954 0.02318 0.0
H315 H 0.60193 0.05256 0.97314 0.0
C316 C 0.4441 0.06627 0.97302 0.0
N317 N 0.46557 0.04268 0.95702 0.0
C318 C 0.42305 0.08874 0.95295 0.0
C319 C 0.44639 0.06205 0.90031 0.0
C320 C 0.46727 0.04037 0.92139 0.0
C321 C 0.42387 0.08666 0.91605 0.0
H322 H 0.44329 0.06753 1.00143 0.0
H323 H 0.48486 0.0217 0.9093 0.0
O324 O 0.54405 0.95827 0.03814 0.0
O325 O 0.46769 0.97995 0.01808 0.0
O326 O 0.52412 0.03599 0.0221 0.0
O327 O 0.52882 0.98224 0.96191 0.0
H328 H 0.52959 0.89829 0.07073 0.0
H329 H 0.58684 0.99586 0.07838 0.0
H330 H 0.55304 0.8812 0.12916 0.0
H331 H 0.60895 0.97726 0.13686 0.0
H332 H 0.36868 0.95075 0.95774 0.0
H333 H 0.44495 0.9295 0.06051 0.0
H334 H 0.42306 0.98604 0.96493 0.0
H335 H 0.39018 0.89521 0.05165 0.0
H336 H 0.4781 0.95196 0.16842 0.0
H337 H 0.5071 0.06187 0.16091 0.0
H338 H 0.55521 0.83132 0.99806 0.0
H339 H 0.44746 0.83925 0.96344 0.0
H340 H 0.52266 0.08367 0.9713 0.0
H341 H 0.57134 0.0556 0.06959 0.0
H342 H 0.55952 0.13753 0.96966 0.0
H343 H 0.60757 0.10979 0.06604 0.0
H344 H 0.58707 0.94725 0.94805 0.0
H345 H 0.47775 0.9578 0.92129 0.0
H346 H 0.59172 0.89866 0.90463 0.0
H347 H 0.48437 0.9092 0.8782 0.0
H348 H 0.6777 0.95985 0.02248 0.0
H349 H 0.66612 0.06088 0.97161 0.0
H350 H 0.40588 0.10712 0.96617 0.0
H351 H 0.44817 0.05988 0.87198 0.0
Li352 Li 0.24737 0.76282 0.26192 0.0
Li353 Li 0.25957 0.70113 0.24094 0.0
Li354 Li 0.30545 0.74357 0.24679 0.0
Li355 Li 0.26572 0.74999 0.19937 0.0
C356 C 0.29675 0.72339 0.31337 0.0
N357 N 0.3416 0.7202 0.3705 0.0
C358 C 0.31932 0.69476 0.31749 0.0
C359 C 0.2969 0.75033 0.33843 0.0
C360 C 0.34187 0.69368 0.34648 0.0
C361 C 0.31975 0.74823 0.36712 0.0
C362 C 0.18917 0.72551 0.23635 0.0
C363 C 0.12683 0.71887 0.22717 0.0
N364 N 0.12319 0.70805 0.26105 0.0
C365 C 0.18481 0.71421 0.27104 0.0
C366 C 0.15995 0.72786 0.21421 0.0
C367 C 0.15125 0.70557 0.28306 0.0
C368 C 0.20662 0.8232 0.27756 0.0
N369 N 0.21774 0.79191 0.29076 0.0
C370 C 0.18633 0.80218 0.34424 0.0
C371 C 0.20796 0.78111 0.32341 0.0
C372 C 0.17455 0.83482 0.33147 0.0
C373 C 0.18499 0.84518 0.29754 0.0
H374 H 0.21474 0.83118 0.2515 0.0
H375 H 0.21686 0.75601 0.33333 0.0
C376 C 0.27887 0.63112 0.2464 0.0
N377 N 0.24966 0.65146 0.2439 0.0
C378 C 0.27619 0.59451 0.24644 0.0
C379 C 0.21326 0.59998 0.24135 0.0
C380 C 0.2172 0.63661 0.24088 0.0
C381 C 0.24306 0.57849 0.24395 0.0
H382 H 0.30446 0.64342 0.24745 0.0
H383 H 0.19436 0.65284 0.23724 0.0
C384 C 0.30648 0.81243 0.24006 0.0
N385 N 0.35736 0.86147 0.25744 0.0
C386 C 0.33411 0.81933 0.21692 0.0
C387 C 0.30457 0.83068 0.27192 0.0
C388 C 0.35965 0.84413 0.22624 0.0
C389 C 0.33056 0.85536 0.28023 0.0
C390 C 0.2939 0.68694 0.18003 0.0
C391 C 0.3227 0.66828 0.16699 0.0
C392 C 0.26064 0.68092 0.16547 0.0
C393 C 0.31783 0.64436 0.13948 0.0
C394 C 0.25686 0.65681 0.13798 0.0
N395 N 0.28529 0.63918 0.12565 0.0
C396 C 0.36838 0.76662 0.28509 0.0
C397 C 0.37645 0.73184 0.23416 0.0
C398 C 0.40469 0.76821 0.29061 0.0
N399 N 0.35495 0.74821 0.2574 0.0
C400 C 0.41273 0.73263 0.23867 0.0
C401 C 0.42736 0.75076 0.26734 0.0
H402 H 0.3511 0.78031 0.30281 0.0
H403 H 0.36544 0.71843 0.21177 0.0
C404 C 0.23107 0.76349 0.13379 0.0
N405 N 0.26233 0.76253 0.15101 0.0
C406 C 0.23013 0.76818 0.09732 0.0
C407 C 0.29345 0.77212 0.09736 0.0
C408 C 0.29316 0.76692 0.13366 0.0
C409 C 0.26168 0.7721 0.07846 0.0
H410 H 0.20699 0.75931 0.14816 0.0
H411 H 0.31766 0.76522 0.14792 0.0
O412 O 0.27435 0.72484 0.28522 0.0
O413 O 0.22172 0.73461 0.2241 0.0
O414 O 0.28143 0.78796 0.23162 0.0
O415 O 0.29832 0.71021 0.20738 0.0
H416 H 0.31963 0.6737 0.29845 0.0
H417 H 0.28006 0.77297 0.33548 0.0
H418 H 0.35959 0.67175 0.34989 0.0
H419 H 0.32026 0.769 0.38658 0.0
H420 H 0.104 0.72054 0.2103 0.0
H421 H 0.20714 0.71156 0.28837 0.0
H422 H 0.16279 0.7365 0.18727 0.0
H423 H 0.14754 0.69673 0.30983 0.0
H424 H 0.17855 0.79273 0.36993 0.0
H425 H 0.17696 0.87022 0.28667 0.0
H426 H 0.29984 0.57889 0.24849 0.0
H427 H 0.18729 0.58858 0.23875 0.0
H428 H 0.33605 0.80544 0.1922 0.0
H429 H 0.28347 0.8256 0.29022 0.0
H430 H 0.38131 0.84954 0.20869 0.0
H431 H 0.32951 0.86953 0.30488 0.0
H432 H 0.34859 0.67188 0.17806 0.0
H433 H 0.23783 0.69452 0.17518 0.0
H434 H 0.33992 0.62982 0.1292 0.0
H435 H 0.23128 0.65204 0.1265 0.0
H436 H 0.41485 0.78264 0.313 0.0
H437 H 0.42919 0.71964 0.21948 0.0
H438 H 0.20502 0.76737 0.08398 0.0
H439 H 0.31841 0.77555 0.08423 0.0
Li440 Li 0.5549 0.00858 0.4884 0.0
Li441 Li 0.51569 0.05739 0.49403 0.0
Li442 Li 0.49615 0.99476 0.50675 0.0
Li443 Li 0.51032 0.0151 0.44538 0.0
C444 C 0.55274 0.02106 0.55955 0.0
N445 N 0.59793 0.01352 0.6159 0.0
C446 C 0.58024 0.04499 0.56451 0.0
C447 C 0.54796 0.99352 0.58344 0.0
C448 C 0.60291 0.04064 0.59309 0.0
C449 C 0.57114 0.99012 0.61173 0.0
C450 C 0.54738 0.07611 0.43287 0.0
C451 C 0.51369 0.11808 0.39934 0.0
N452 N 0.544 0.13321 0.38796 0.0
C453 C 0.57818 0.09215 0.42088 0.0
C454 C 0.51483 0.0893 0.42212 0.0
C455 C 0.57592 0.12097 0.3982 0.0
C456 C 0.62356 0.00684 0.46378 0.0
N457 N 0.60398 0.99665 0.49186 0.0
C458 C 0.65526 0.97463 0.52077 0.0
C459 C 0.61898 0.97994 0.51971 0.0
C460 C 0.67627 0.98626 0.49273 0.0
C461 C 0.65984 1.00198 0.46366 0.0
H462 H 0.61101 0.01926 0.44154 0.0
H463 H 0.60299 0.97085 0.54125 0.0
C464 C 0.481 0.12251 0.50898 0.0
N465 N 0.51243 0.10603 0.5057 0.0
C466 C 0.47969 0.15911 0.51296 0.0
C467 C 0.54308 0.16075 0.51112 0.0
C468 C 0.54315 0.12426 0.50709 0.0
C469 C 0.51105 0.17881 0.51348 0.0
H470 H 0.45697 0.10739 0.5074 0.0
H471 H 0.56774 0.11054 0.50384 0.0
C472 C 0.54727 0.94382 0.46935 0.0
N473 N 0.59667 0.89073 0.46962 0.0
C474 C 0.56467 0.93474 0.43836 0.0
C475 C 0.55483 0.92575 0.50045 0.0
C476 C 0.58963 0.90788 0.43905 0.0
C477 C 0.57989 0.89899 0.50005 0.0
C478 C 0.43936 0.02277 0.46659 0.0
C479 C 0.43176 0.9873 0.46028 0.0
C480 C 0.41339 0.04812 0.46125 0.0
C481 C 0.39815 0.97776 0.44894 0.0
C482 C 0.38014 0.03753 0.44977 0.0
N483 N 0.37326 1.00286 0.44395 0.0
C484 C 0.4464 0.98211 0.56083 0.0
C485 C 0.46454 0.93085 0.5306 0.0
C486 C 0.42442 0.9621 0.58253 0.0
N487 N 0.46601 0.96626 0.5356 0.0
C488 C 0.44323 0.9098 0.55191 0.0
C489 C 0.42271 0.92529 0.57844 0.0
H490 H 0.44782 0.01037 0.56405 0.0
H491 H 0.47995 0.91886 0.51003 0.0
C492 C 0.53156 0.0084 0.37619 0.0
N493 N 0.50187 0.01158 0.39568 0.0
C494 C 0.52987 0.00793 0.33955 0.0
C495 C 0.46693 0.01416 0.34337 0.0
C496 C 0.46986 0.01461 0.38003 0.0
C497 C 0.49723 0.011 0.32261 0.0
H498 H 0.55677 0.00687 0.38922 0.0
H499 H 0.44661 0.01819 0.39567 0.0
O500 O 0.5301 0.02496 0.53194 0.0
O501 O 0.54932 0.04827 0.45571 0.0
O502 O 0.52325 0.97052 0.46938 0.0
O503 O 0.47204 0.03282 0.47772 0.0
H504 H 0.58428 0.06644 0.54629 0.0
H505 H 0.52667 0.97489 0.58008 0.0
H506 H 0.62447 0.0588 0.59712 0.0
H507 H 0.56787 0.96885 0.63035 0.0
H508 H 0.48869 0.12848 0.39079 0.0
H509 H 0.6036 0.08264 0.42924 0.0
H510 H 0.49065 0.07762 0.43127 0.0
H511 H 0.59953 0.13371 0.38885 0.0
H512 H 0.66674 0.96173 0.5434 0.0
H513 H 0.67495 0.01153 0.44153 0.0
H514 H 0.45437 0.1719 0.51426 0.0
H515 H 0.56791 0.17468 0.51187 0.0
H516 H 0.55903 0.94825 0.41402 0.0
H517 H 0.54199 0.93276 0.5248 0.0
H518 H 0.60339 0.90067 0.41527 0.0
H519 H 0.58619 0.88498 0.52398 0.0
H520 H 0.45169 0.96739 0.46361 0.0
H521 H 0.41893 0.07571 0.46569 0.0
H522 H 0.39191 0.95042 0.44394 0.0
H523 H 0.35982 0.05687 0.44545 0.0
H524 H 0.40869 0.97547 0.60205 0.0
H525 H 0.4433 0.8816 0.54787 0.0
H526 H 0.5539 0.00513 0.32468 0.0
H527 H 0.44129 0.01718 0.33143 0.0
Li528 Li 0.25943 0.24818 0.76299 0.0
Li529 Li 0.24473 0.30952 0.74379 0.0
Li530 Li 0.20037 0.26571 0.74949 0.0
Li531 Li 0.24022 0.26178 0.701 0.0
C532 C 0.20828 0.28207 0.81514 0.0
N533 N 0.16051 0.27669 0.86948 0.0
C534 C 0.18948 0.31163 0.82606 0.0
C535 C 0.20294 0.24983 0.83201 0.0
C536 C 0.16538 0.30835 0.85352 0.0
C537 C 0.17867 0.24764 0.85941 0.0
C538 C 0.31571 0.28862 0.73902 0.0
C539 C 0.37756 0.29959 0.73082 0.0
N540 N 0.38042 0.30888 0.76525 0.0
C541 C 0.31928 0.29831 0.77435 0.0
C542 C 0.34509 0.28924 0.71708 0.0
C543 C 0.35221 0.30844 0.78709 0.0
C544 C 0.3084 0.19348 0.775 0.0
N545 N 0.29014 0.21963 0.791 0.0
C546 C 0.3154 0.20464 0.84667 0.0
C547 C 0.29351 0.22576 0.82607 0.0
C548 C 0.33447 0.17712 0.83102 0.0
C549 C 0.33084 0.17189 0.79453 0.0
H550 H 0.3055 0.18941 0.74699 0.0
H551 H 0.27911 0.24702 0.83815 0.0
C552 C 0.22369 0.37842 0.75481 0.0
N553 N 0.25291 0.35922 0.74796 0.0
C554 C 0.22541 0.41508 0.75636 0.0
C555 C 0.28727 0.41184 0.74301 0.0
C556 C 0.28432 0.37517 0.74168 0.0
C557 C 0.25755 0.43233 0.75048 0.0
H558 H 0.19875 0.36521 0.75821 0.0
H559 H 0.30702 0.35971 0.73492 0.0
C560 C 0.20405 0.1946 0.73711 0.0
N561 N 0.16046 0.13707 0.74621 0.0
C562 C 0.17599 0.18881 0.71407 0.0
C563 C 0.21016 0.17094 0.76457 0.0
C564 C 0.15417 0.15964 0.7192 0.0
C565 C 0.18778 0.14205 0.76877 0.0
C566 C 0.20718 0.32278 0.68323 0.0
C567 C 0.17602 0.33521 0.66832 0.0
C568 C 0.23941 0.33409 0.6697 0.0
C569 C 0.17763 0.359 0.64037 0.0
C570 C 0.23991 0.3579 0.64174 0.0
N571 N 0.20927 0.36978 0.62778 0.0
C572 C 0.13144 0.28932 0.75169 0.0
C573 C 0.13677 0.23314 0.77799 0.0
C574 C 0.09516 0.28883 0.75656 0.0
N575 N 0.15137 0.26138 0.76148 0.0
C576 C 0.1005 0.23148 0.78331 0.0
C577 C 0.07911 0.25933 0.77195 0.0
H578 H 0.14371 0.31192 0.73961 0.0
H579 H 0.15305 0.21174 0.78684 0.0
C580 C 0.27535 0.25243 0.63528 0.0
N581 N 0.24401 0.25105 0.65223 0.0
C582 C 0.27676 0.24854 0.59873 0.0
C583 C 0.21377 0.24089 0.59804 0.0
C584 C 0.21357 0.24535 0.63445 0.0
C585 C 0.2456 0.24303 0.57948 0.0
H586 H 0.29908 0.25767 0.64999 0.0
H587 H 0.18893 0.24536 0.64846 0.0
O588 O 0.23149 0.28453 0.78782 0.0
O589 O 0.28382 0.27823 0.72592 0.0
O590 O 0.22594 0.2228 0.73239 0.0
O591 O 0.20589 0.29929 0.71055 0.0
H592 H 0.19338 0.33682 0.8135 0.0
H593 H 0.21693 0.22658 0.82364 0.0
H594 H 0.15056 0.33099 0.86216 0.0
H595 H 0.17411 0.22279 0.87252 0.0
H596 H 0.4005 0.30022 0.71411 0.0
H597 H 0.29693 0.29827 0.79176 0.0
H598 H 0.34287 0.28185 0.6897 0.0
H599 H 0.35531 0.31601 0.81435 0.0
H600 H 0.31688 0.20958 0.87466 0.0
H601 H 0.34541 0.15156 0.78105 0.0
H602 H 0.20162 0.42976 0.7613 0.0
H603 H 0.31258 0.42399 0.73831 0.0
H604 H 0.17081 0.20686 0.69278 0.0
H605 H 0.23186 0.17487 0.78253 0.0
H606 H 0.13219 0.15499 0.70174 0.0
H607 H 0.19211 0.12361 0.78998 0.0
H608 H 0.15081 0.32648 0.6781 0.0
H609 H 0.26384 0.32463 0.68056 0.0
H610 H 0.15371 0.36885 0.62863 0.0
H611 H 0.26467 0.3669 0.6311 0.0
H612 H 0.07977 0.31087 0.74726 0.0
H613 H 0.08933 0.20853 0.79599 0.0
H614 H 0.30186 0.25105 0.58567 0.0
H615 H 0.18912 0.23623 0.58461 0.0
Li616 Li 0.9956 0.99481 0.94785 0.0
Li617 Li 0.00972 0.01315 0.00978 0.0
Li618 Li 0.99198 0.95064 0.99477 0.0
Li619 Li 0.9511 0.99831 0.99142 0.0
C620 C 0.06681 0.99015 0.96897 0.0
N621 N 0.13157 0.01637 0.94922 0.0
C622 C 0.0711 0.02611 0.96235 0.0
C623 C 0.09545 0.96754 0.96551 0.0
C624 C 0.10406 0.03885 0.95245 0.0
C625 C 0.12797 0.9813 0.95546 0.0
C626 C 0.95649 0.06378 0.97487 0.0
C627 C 0.92283 0.10625 0.00762 0.0
N628 N 0.90521 0.11494 0.97774 0.0
C629 C 0.9382 0.07327 0.94446 0.0
C630 C 0.94885 0.08045 0.00671 0.0
C631 C 0.9123 0.09914 0.94647 0.0
C632 C 0.97309 1.00225 0.8792 0.0
N633 N 0.00326 1.00027 0.89824 0.0
C634 C 0.03739 1.00061 0.84543 0.0
C635 C 0.03513 0.99934 0.88213 0.0
C636 C 0.00655 1.00206 0.82522 0.0
C637 C 0.9741 1.00308 0.84257 0.0
H638 H 0.94806 1.00225 0.89258 0.0
H639 H 0.05881 0.99665 0.89741 0.0
C640 C 0.05963 0.02613 0.0641 0.0
N641 N 0.03945 0.04181 0.03914 0.0
C642 C 0.08159 0.04638 0.08572 0.0
C643 C 0.0616 0.09853 0.05559 0.0
C644 C 0.04026 0.07727 0.0344 0.0
C645 C 0.08276 0.08322 0.08177 0.0
H646 H 0.05873 0.99783 0.06711 0.0
H647 H 0.02437 0.08913 0.01407 0.0
C648 C 0.95969 0.93341 0.93312 0.0
N649 N 0.96324 0.87894 0.88503 0.0
C650 C 0.92893 0.91792 0.92018 0.0
C651 C 0.99227 0.921 0.92172 0.0
C652 C 0.93127 0.89046 0.89585 0.0
C653 C 0.9935 0.89352 0.89735 0.0
C654 C 0.95502 0.98391 0.06232 0.0
C655 C 0.92848 0.95901 0.06764 0.0
C656 C 0.95961 0.01128 0.08649 0.0
C657 C 0.90658 0.9622 0.09689 0.0
C658 C 0.93721 0.01351 0.11545 0.0
N659 N 0.91136 0.98916 0.11998 0.0
C660 C 0.0278 0.8852 0.00642 0.0
C661 C 0.96564 0.88323 0.00632 0.0
C662 C 0.02935 0.84852 0.00962 0.0
N663 N 0.99622 0.90164 0.00455 0.0
C664 C 0.96594 0.84668 0.00961 0.0
C665 C 0.99809 0.82869 0.01079 0.0
H666 H 0.05173 0.90044 0.00441 0.0
H667 H 0.9409 0.89692 0.00408 0.0
C668 C 0.88262 0.99984 0.96639 0.0
N669 N 0.9017 0.0086 0.99537 0.0
C670 C 0.84624 0.00381 0.9661 0.0
C671 C 0.84963 0.02728 0.02503 0.0
C672 C 0.88605 0.023 0.02409 0.0
C673 C 0.82917 0.0171 0.99594 0.0
H674 H 0.89569 0.98936 0.9435 0.0
H675 H 0.90163 0.03113 0.04637 0.0
O676 O 0.03492 0.97704 0.97915 0.0
O677 O 0.98136 0.03793 0.97363 0.0
O678 O 0.95767 0.96023 0.95715 0.0
O679 O 0.97697 0.98109 0.03409 0.0
H680 H 0.04921 0.04398 0.96447 0.0
H681 H 0.09257 0.93964 0.97047 0.0
H682 H 0.10774 0.0666 0.94721 0.0
H683 H 0.15036 0.96409 0.95265 0.0
H684 H 0.91647 0.11917 0.03213 0.0
H685 H 0.94384 0.06074 0.91959 0.0
H686 H 0.96243 0.07311 0.03059 0.0
H687 H 0.89783 0.10664 0.92316 0.0
H688 H 0.06289 0.99929 0.83298 0.0
H689 H 0.94972 0.00438 0.82794 0.0
H690 H 0.09779 0.03318 0.10502 0.0
H691 H 0.06112 0.12674 0.05169 0.0
H692 H 0.90347 0.92689 0.92893 0.0
H693 H 0.01641 0.93238 0.9315 0.0
H694 H 0.90768 0.87824 0.88564 0.0
H695 H 0.01853 0.88374 0.88828 0.0
H696 H 0.9246 0.93767 0.04923 0.0
H697 H 0.98016 0.03065 0.08288 0.0
H698 H 0.88578 0.94326 0.10122 0.0
H699 H 0.94036 0.03462 0.1343 0.0
H700 H 0.05474 0.8358 0.00996 0.0
H701 H 0.94119 0.83266 0.01085 0.0
H702 H 0.83156 0.99549 0.94312 0.0
H703 H 0.83761 0.03832 0.04832 0.0
Li704 Li 0.74695 0.26293 0.7636 0.0
Li705 Li 0.75979 0.20115 0.74344 0.0
Li706 Li 0.80525 0.24429 0.74843 0.0
Li707 Li 0.76506 0.24948 0.70122 0.0
C708 C 0.79659 0.22555 0.81584 0.0
N709 N 0.84042 0.22497 0.87387 0.0
C710 C 0.82007 0.19782 0.82092 0.0
C711 C 0.7953 0.25291 0.84041 0.0
C712 C 0.84208 0.19805 0.85035 0.0
C713 C 0.81766 0.25212 0.86957 0.0
C714 C 0.68917 0.22484 0.73951 0.0
C715 C 0.62633 0.22045 0.73274 0.0
N716 N 0.6238 0.20782 0.76609 0.0
C717 C 0.68592 0.21179 0.77373 0.0
C718 C 0.65913 0.22925 0.71885 0.0
C719 C 0.65267 0.20336 0.78669 0.0
C720 C 0.70693 0.3238 0.77923 0.0
N721 N 0.71699 0.29201 0.79211 0.0
C722 C 0.68411 0.30186 0.84478 0.0
C723 C 0.70592 0.28073 0.82418 0.0
C724 C 0.67348 0.33504 0.83238 0.0
C725 C 0.68518 0.34585 0.799 0.0
H726 H 0.71604 0.33214 0.75362 0.0
H727 H 0.71406 0.25528 0.83386 0.0
C728 C 0.78003 0.13164 0.751 0.0
N729 N 0.75063 0.1514 0.7468 0.0
C730 C 0.77803 0.09498 0.75104 0.0
C731 C 0.71539 0.09925 0.74234 0.0
C732 C 0.71867 0.13594 0.74198 0.0
C733 C 0.7454 0.07832 0.74669 0.0
H734 H 0.8053 0.14442 0.75323 0.0
H735 H 0.6958 0.15178 0.73684 0.0
C736 C 0.80554 0.31275 0.74112 0.0
N737 N 0.85646 0.36181 0.75839 0.0
C738 C 0.83279 0.32011 0.71766 0.0
C739 C 0.80405 0.33055 0.77326 0.0
C740 C 0.85834 0.34491 0.72692 0.0
C741 C 0.83005 0.35524 0.78151 0.0
C742 C 0.79427 0.18647 0.68276 0.0
C743 C 0.82335 0.16772 0.6705 0.0
C744 C 0.76121 0.17984 0.66802 0.0
C745 C 0.81896 0.14316 0.64349 0.0
C746 C 0.75791 0.15509 0.64104 0.0
N747 N 0.78661 0.13743 0.62941 0.0
C748 C 0.86843 0.26719 0.78646 0.0
C749 C 0.87614 0.23458 0.73405 0.0
C750 C 0.90479 0.26898 0.79152 0.0
N751 N 0.8548 0.24962 0.75832 0.0
C752 C 0.91247 0.23559 0.73808 0.0
C753 C 0.9273 0.25265 0.7673 0.0
H754 H 0.85125 0.27999 0.80494 0.0
H755 H 0.86495 0.22204 0.71123 0.0
C756 C 0.72976 0.26091 0.63565 0.0
N757 N 0.76113 0.26125 0.6527 0.0
C758 C 0.72844 0.26522 0.59915 0.0
C759 C 0.79159 0.27138 0.59877 0.0
C760 C 0.79169 0.2665 0.63512 0.0
C761 C 0.75973 0.27012 0.58007 0.0
H762 H 0.70592 0.25598 0.6502 0.0
H763 H 0.81632 0.26576 0.64924 0.0
O764 O 0.77462 0.22567 0.78732 0.0
O765 O 0.7214 0.23385 0.72641 0.0
O766 O 0.78057 0.28816 0.7328 0.0
O767 O 0.7982 0.2103 0.70967 0.0
H768 H 0.82152 0.17646 0.80227 0.0
H769 H 0.77768 0.27482 0.8368 0.0
H770 H 0.8605 0.17683 0.85448 0.0
H771 H 0.81705 0.27322 0.88866 0.0
H772 H 0.60288 0.22372 0.71702 0.0
H773 H 0.70884 0.20779 0.78999 0.0
H774 H 0.66109 0.23941 0.69237 0.0
H775 H 0.64982 0.19318 0.81309 0.0
H776 H 0.67536 0.29206 0.87002 0.0
H777 H 0.67807 0.3713 0.78844 0.0
H778 H 0.80183 0.07983 0.75443 0.0
H779 H 0.68984 0.08736 0.73822 0.0
H780 H 0.83441 0.30657 0.69273 0.0
H781 H 0.78327 0.32511 0.79182 0.0
H782 H 0.87971 0.35067 0.70912 0.0
H783 H 0.82931 0.36906 0.80637 0.0
H784 H 0.84907 0.17175 0.68185 0.0
H785 H 0.73819 0.19345 0.67726 0.0
H786 H 0.84127 0.12855 0.63379 0.0
H787 H 0.73249 0.14986 0.62942 0.0
H788 H 0.91513 0.28264 0.81431 0.0
H789 H 0.92881 0.22356 0.71817 0.0
H790 H 0.70329 0.2634 0.58597 0.0
H791 H 0.81634 0.27556 0.58546 0.0
Li792 Li 0.01213 0.55421 0.9944 0.0
Li793 Li 0.05334 0.50706 0.99065 0.0
Li794 Li 0.00837 0.51 0.94762 0.0
Li795 Li 0.99517 0.49161 0.00955 0.0
C796 C 0.04265 0.57171 0.9323 0.0
N797 N 0.03634 0.62596 0.88428 0.0
C798 C 0.07262 0.58767 0.91828 0.0
C799 C 0.00944 0.58354 0.92197 0.0
C800 C 0.06888 0.61503 0.89404 0.0
C801 C 0.00682 0.61091 0.89762 0.0
C802 C 0.05078 0.52243 0.06119 0.0
C803 C 0.07057 0.49503 0.11481 0.0
N804 N 0.0965 0.51959 0.11755 0.0
C805 C 0.07741 0.54758 0.06467 0.0
C806 C 0.04713 0.49605 0.08653 0.0
C807 C 0.10036 0.54561 0.09329 0.0
C808 C 0.97503 0.61835 0.00783 0.0
N809 N 0.00707 0.6031 0.00442 0.0
C810 C 0.03554 0.65914 0.00839 0.0
C811 C 0.03703 0.62262 0.00487 0.0
C812 C 0.00285 0.67586 0.01124 0.0
C813 C 0.9723 0.65492 0.01128 0.0
H814 H 0.95162 0.60222 0.00705 0.0
H815 H 0.0621 0.60988 1.00127 0.0
C816 C 0.12195 0.50646 0.96575 0.0
N817 N 0.10283 0.49702 0.99441 0.0
C818 C 0.15833 0.50233 0.96549 0.0
C819 C 0.15483 0.47738 0.02376 0.0
C820 C 0.11844 0.48189 0.02282 0.0
C821 C 0.17534 0.48815 0.995 0.0
H822 H 0.10893 0.51758 0.94311 0.0
H823 H 0.10283 0.47335 0.04486 0.0
C824 C 0.93741 0.51364 0.96948 0.0
N825 N 0.87279 0.48625 0.95056 0.0
C826 C 0.93391 0.47782 0.96167 0.0
C827 C 0.90806 0.53551 0.96762 0.0
C828 C 0.90102 0.46448 0.95221 0.0
C829 C 0.87562 0.52117 0.95797 0.0
C830 C 0.04795 0.44098 0.97551 0.0
C831 C 0.06664 0.43066 0.94567 0.0
C832 C 0.05486 0.42487 0.00781 0.0
C833 C 0.09217 0.40452 0.94871 0.0
C834 C 0.08054 0.39878 0.00975 0.0
N835 N 0.09854 0.38926 0.98042 0.0
C836 C 0.02976 0.50054 0.87892 0.0
C837 C 0.9681 0.50761 0.88231 0.0
C838 C 0.02826 0.49962 0.84229 0.0
N839 N 1.0 0.50448 0.89816 0.0
C840 C 0.96534 0.50652 0.84564 0.0
C841 C 0.99576 0.50286 0.82516 0.0
H842 H 0.05488 0.49912 0.89211 0.0
H843 H 0.94486 0.51203 0.8978 0.0
C844 C 0.94647 0.47896 0.06449 0.0
N845 N 0.96581 0.46305 0.03908 0.0
C846 C 0.92442 0.45904 0.0862 0.0
C847 C 0.94265 0.40671 0.05524 0.0
C848 C 0.96408 0.42767 0.03396 0.0
C849 C 0.92231 0.42227 0.08187 0.0
H850 H 0.94804 0.50721 0.06775 0.0
H851 H 0.97927 0.41565 0.01323 0.0
O852 O 0.04606 0.54506 0.95634 0.0
O853 O 0.02785 0.52402 0.03357 0.0
O854 O 0.96925 0.52733 0.97918 0.0
O855 O 0.02336 0.46704 0.97326 0.0
H856 H 0.09854 0.57917 0.92617 0.0
H857 H 0.98587 0.57185 0.93256 0.0
H858 H 0.09184 0.62765 0.88306 0.0
H859 H 0.9813 0.62022 0.88939 0.0
H860 H 0.06818 0.47469 0.13456 0.0
H861 H 0.08056 0.56815 0.04529 0.0
H862 H 0.02651 0.47652 0.08432 0.0
H863 H 0.12126 0.56474 0.09619 0.0
H864 H 0.05971 0.6742 0.00757 0.0
H865 H 0.94657 0.66669 0.01367 0.0
H866 H 0.17303 0.51117 0.94279 0.0
H867 H 0.16678 0.46566 0.04678 0.0
H868 H 0.95633 0.4605 0.96262 0.0
H869 H 0.91031 0.56329 0.9735 0.0
H870 H 0.89794 0.43684 0.94609 0.0
H871 H 0.85268 0.5378 0.9564 0.0
H872 H 0.06155 0.44271 0.92045 0.0
H873 H 0.04101 0.43288 0.03128 0.0
H874 H 0.10693 0.39636 0.92586 0.0
H875 H 0.08633 0.38628 0.03463 0.0
H876 H 0.05234 0.49657 0.82752 0.0
H877 H 0.93984 0.50968 0.83343 0.0
H878 H 0.90885 0.47245 0.10582 0.0
H879 H 0.94238 0.37854 0.05103 0.0
Li880 Li 0.75953 0.74576 0.26612 0.0
Li881 Li 0.7452 0.80723 0.24641 0.0
Li882 Li 0.70078 0.76347 0.25178 0.0
Li883 Li 0.74114 0.75912 0.20376 0.0
C884 C 0.70722 0.78218 0.3168 0.0
N885 N 0.65717 0.78117 0.36928 0.0
C886 C 0.6888 0.81279 0.32521 0.0
C887 C 0.70032 0.7511 0.33521 0.0
C888 C 0.66355 0.81172 0.35177 0.0
C889 C 0.67491 0.75112 0.36165 0.0
C890 C 0.81624 0.78627 0.24217 0.0
C891 C 0.87753 0.79971 0.23336 0.0
N892 N 0.8809 0.8069 0.26824 0.0
C893 C 0.82032 0.79387 0.27794 0.0
C894 C 0.84508 0.7892 0.21969 0.0
C895 C 0.85321 0.80421 0.29061 0.0
C896 C 0.80965 0.69224 0.27836 0.0
N897 N 0.78982 0.7171 0.29452 0.0
C898 C 0.81329 0.70086 0.35062 0.0
C899 C 0.79148 0.72195 0.32991 0.0
C900 C 0.83405 0.67471 0.33479 0.0
C901 C 0.83207 0.67075 0.29802 0.0
H902 H 0.80809 0.68918 0.25012 0.0
H903 H 0.77588 0.74225 0.34213 0.0
C904 C 0.72333 0.87653 0.2524 0.0
N905 N 0.75316 0.8571 0.25032 0.0
C906 C 0.72495 0.91322 0.25259 0.0
C907 C 0.7881 0.90956 0.24881 0.0
C908 C 0.78524 0.87287 0.2483 0.0
C909 C 0.75766 0.93021 0.2507 0.0
H910 H 0.6981 0.86342 0.25312 0.0
H911 H 0.80863 0.85731 0.24541 0.0
C912 C 0.70441 0.69228 0.24034 0.0
N913 N 0.66076 0.63494 0.25027 0.0
C914 C 0.67681 0.68576 0.21694 0.0
C915 C 0.71004 0.66945 0.26859 0.0
C916 C 0.65494 0.6567 0.22249 0.0
C917 C 0.68764 0.64063 0.27319 0.0
C918 C 0.70855 0.81992 0.18512 0.0
C919 C 0.67764 0.83186 0.16929 0.0
C920 C 0.741 0.83146 0.17229 0.0
C921 C 0.6797 0.85539 0.14116 0.0
C922 C 0.74194 0.85498 0.1441 0.0
N923 N 0.71154 0.86638 0.12926 0.0
C924 C 0.6317 0.78697 0.25246 0.0
C925 C 0.63678 0.73138 0.28 0.0
C926 C 0.59537 0.78655 0.25695 0.0
N927 N 0.65156 0.75928 0.26309 0.0
C928 C 0.60047 0.72981 0.28501 0.0
C929 C 0.57917 0.7574 0.27285 0.0
H930 H 0.64408 0.80934 0.24006 0.0
H931 H 0.65299 0.7102 0.28952 0.0
C932 C 0.77684 0.74973 0.13832 0.0
N933 N 0.74541 0.74823 0.15507 0.0
C934 C 0.77847 0.74612 0.10175 0.0
C935 C 0.7155 0.73842 0.10063 0.0
C936 C 0.71508 0.74257 0.13708 0.0
C937 C 0.74742 0.74081 0.08227 0.0
H938 H 0.80048 0.75492 0.15321 0.0
H939 H 0.69035 0.74244 0.15094 0.0
O940 O 0.73155 0.7825 0.29039 0.0
O941 O 0.78441 0.77561 0.22915 0.0
O942 O 0.72634 0.72036 0.2352 0.0
O943 O 0.70681 0.79671 0.21265 0.0
H944 H 0.69388 0.83709 0.31135 0.0
H945 H 0.71395 0.72704 0.32872 0.0
H946 H 0.649 0.83519 0.35846 0.0
H947 H 0.66913 0.72719 0.37593 0.0
H948 H 0.90005 0.80212 0.21624 0.0
H949 H 0.79834 0.79215 0.29576 0.0
H950 H 0.84244 0.7835 0.19195 0.0
H951 H 0.85671 0.81018 0.31821 0.0
H952 H 0.81346 0.70478 0.37881 0.0
H953 H 0.84797 0.65152 0.28442 0.0
H954 H 0.70084 0.92814 0.25425 0.0
H955 H 0.8138 0.92167 0.24676 0.0
H956 H 0.67204 0.70314 0.195 0.0
H957 H 0.73136 0.67397 0.28687 0.0
H958 H 0.63332 0.65148 0.20475 0.0
H959 H 0.69159 0.62283 0.29502 0.0
H960 H 0.65229 0.82295 0.17853 0.0
H961 H 0.76525 0.8224 0.18387 0.0
H962 H 0.65598 0.86488 0.12874 0.0
H963 H 0.76687 0.86414 0.13399 0.0
H964 H 0.58008 0.80838 0.24703 0.0
H965 H 0.5892 0.70715 0.2981 0.0
H966 H 0.80364 0.74876 0.08884 0.0
H967 H 0.69093 0.73389 0.087 0.0
Li968 Li 0.00878 0.49066 0.55133 0.0
Li969 Li 0.01015 0.44971 0.50271 0.0
Li970 Li 0.05618 0.49376 0.50734 0.0
Li971 Li 0.99436 0.51 0.48836 0.0
C972 C 0.06271 0.44749 0.57019 0.0
N973 N 0.098 0.43141 0.63163 0.0
C974 C 0.05808 0.41462 0.58605 0.0
C975 C 0.08531 0.47215 0.58555 0.0
C976 C 0.07615 0.407 0.61711 0.0
C977 C 0.1029 0.46353 0.61662 0.0
C978 C 0.9391 0.45746 0.51604 0.0
C979 C 0.88646 0.44313 0.48365 0.0
N980 N 0.8784 0.41826 0.50807 0.0
C981 C 0.93018 0.43193 0.54094 0.0
C982 C 0.91701 0.46327 0.48723 0.0
C983 C 0.89943 0.4123 0.53637 0.0
C984 C 1.00141 0.52798 0.61593 0.0
N985 N 0.99892 0.49593 0.60021 0.0
C986 C 0.98858 0.46818 0.65566 0.0
C987 C 0.992 0.46641 0.61917 0.0
C988 C 0.99242 0.5007 0.67283 0.0
C989 C 0.9984 0.53097 0.65244 0.0
H990 H 0.00645 0.55113 0.60023 0.0
H991 H 0.99033 0.44122 0.60608 0.0
C992 C 0.03414 0.38095 0.49808 0.0
N993 N 0.00489 0.4004 0.49176 0.0
C994 C 0.03366 0.34452 0.49348 0.0
C995 C 0.97322 0.34862 0.47468 0.0
C996 C 0.97502 0.38509 0.47925 0.0
C997 C 0.00268 0.32783 0.48232 0.0
H998 H 0.05784 0.39375 0.50722 0.0
H999 H 0.95251 0.40095 0.47287 0.0
C1000 C 0.04295 0.56429 0.52563 0.0
N1001 N 0.07852 0.62779 0.52646 0.0
C1002 C 0.04021 0.58738 0.49715 0.0
C1003 C 0.06368 0.57357 0.55459 0.0
C1004 C 0.0584 0.61936 0.49808 0.0
C1005 C 0.08151 0.60576 0.55447 0.0
C1006 C 0.03031 0.45518 0.43836 0.0
C1007 C 0.06142 0.43729 0.43094 0.0
C1008 C 0.99952 0.44629 0.42035 0.0
C1009 C 0.06115 0.41058 0.40568 0.0
C1010 C 1.00034 0.41944 0.39526 0.0
N1011 N 0.03087 0.40226 0.38854 0.0
C1012 C 0.12491 0.47031 0.50482 0.0
C1013 C 0.12185 0.53201 0.49651 0.0
C1014 C 0.16147 0.47135 0.50326 0.0
N1015 N 0.10586 0.50038 0.50185 0.0
C1016 C 0.15848 0.53436 0.4954 0.0
C1017 C 0.17869 0.50374 0.49893 0.0
H1018 H 0.11162 0.44544 0.50879 0.0
H1019 H 0.10645 0.55549 0.49322 0.0
C1020 C 0.94335 0.5629 0.47645 0.0
N1021 N 0.9663 0.5409 0.46027 0.0
C1022 C 0.92206 0.58534 0.45658 0.0
C1023 C 0.94833 0.56197 0.40376 0.0
C1024 C 0.96937 0.54028 0.42465 0.0
C1025 C 0.92421 0.58487 0.41968 0.0
H1026 H 0.94148 0.56286 0.50483 0.0
H1027 H 0.98816 0.52291 0.41243 0.0
O1028 O 0.04491 0.45552 0.53995 0.0
O1029 O 0.96884 0.47725 0.52022 0.0
O1030 O 0.02509 0.53301 0.52529 0.0
O1031 O 0.02978 0.48062 0.4638 0.0
H1032 H 0.04047 0.39532 0.57466 0.0
H1033 H 0.08919 0.49767 0.57364 0.0
H1034 H 0.07276 0.3817 0.62972 0.0
H1035 H 0.12045 0.48238 0.6288 0.0
H1036 H 0.86919 0.44725 0.46143 0.0
H1037 H 0.94694 0.42711 0.56336 0.0
H1038 H 0.92343 0.48298 0.46776 0.0
H1039 H 0.8923 0.39231 0.55532 0.0
H1040 H 0.98434 0.44415 0.67037 0.0
H1041 H 1.00106 0.55661 0.66461 0.0
H1042 H 0.05694 0.32947 0.4997 0.0
H1043 H 0.94903 0.33678 0.46536 0.0
H1044 H 0.02442 0.58062 0.47447 0.0
H1045 H 0.06611 0.5561 0.57688 0.0
H1046 H 0.05659 0.63744 0.47619 0.0
H1047 H 0.09773 0.61321 0.57664 0.0
H1048 H 0.08544 0.4438 0.4447 0.0
H1049 H 0.9751 0.45954 0.42614 0.0
H1050 H 0.085 0.39639 0.39978 0.0
H1051 H 0.97666 0.4121 0.3813 0.0
H1052 H 0.17617 0.44717 0.50618 0.0
H1053 H 0.17088 0.55975 0.49151 0.0
H1054 H 0.90366 0.60239 0.46991 0.0
H1055 H 0.95119 0.5611 0.37545 0.0
Li1056 Li 0.49052 0.55614 1.00096 0.0
Li1057 Li 0.44975 0.50933 0.00571 0.0
Li1058 Li 0.49468 0.51375 0.04943 0.0
Li1059 Li 0.50824 0.49342 0.98793 0.0
C1060 C 0.4606 0.57478 0.06371 0.0
N1061 N 0.46777 0.62813 0.11282 0.0
C1062 C 0.43134 0.58697 0.08222 0.0
C1063 C 0.4936 0.58957 0.07063 0.0
C1064 C 0.43548 0.61399 0.10682 0.0
C1065 C 0.49664 0.61656 0.0954 0.0
C1066 C 0.45043 0.51621 0.93753 0.0
C1067 C 0.42554 0.47545 0.89564 0.0
N1068 N 0.39955 0.49888 0.88856 0.0
C1069 C 0.42364 0.54 0.92964 0.0
C1070 C 0.45152 0.48374 0.92029 0.0
C1071 C 0.39809 0.53069 0.90489 0.0
C1072 C 0.52625 0.62165 0.98914 0.0
N1073 N 0.49481 0.60467 0.98912 0.0
C1074 C 0.46448 0.65872 0.97924 0.0
C1075 C 0.46428 0.62233 0.98409 0.0
C1076 C 0.49641 0.67738 0.9803 0.0
C1077 C 0.52767 0.6582 0.98486 0.0
H1078 H 0.55007 0.60702 0.99377 0.0
H1079 H 0.43961 0.60824 0.98499 0.0
C1080 C 0.38575 0.47191 0.98345 0.0
N1081 N 0.40004 0.50038 0.99999 0.0
C1082 C 0.34927 0.4675 0.98205 0.0
C1083 C 0.34286 0.5224 0.01331 0.0
C1084 C 0.37927 0.52576 0.01398 0.0
C1085 C 0.32735 0.49274 0.99766 0.0
H1086 H 0.40249 0.45262 0.97127 0.0
H1087 H 0.39097 0.54888 0.02551 0.0
C1088 C 0.56581 0.51815 0.0273 0.0
N1089 N 0.63097 0.49308 0.04697 0.0
C1090 C 0.56957 0.48334 0.03852 0.0
C1091 C 0.59519 0.54023 0.02619 0.0
C1092 C 0.60273 0.47113 0.04826 0.0
C1093 C 0.6279 0.52708 0.03628 0.0
C1094 C 0.4573 0.44177 0.025 0.0
C1095 C 0.43375 0.43714 0.05276 0.0
C1096 C 0.45826 0.41698 0.99783 0.0
C1097 C 0.41138 0.40794 0.05277 0.0
C1098 C 0.43555 0.38804 0.99886 0.0
N1099 N 0.41275 0.38418 0.02606 0.0
C1100 C 0.47312 0.50603 0.11837 0.0
C1101 C 0.53485 0.51236 0.11525 0.0
C1102 C 0.47452 0.50405 0.15494 0.0
N1103 N 0.50299 0.50961 0.0992 0.0
C1104 C 0.53753 0.51018 0.15189 0.0
C1105 C 0.50707 0.50583 0.17229 0.0
H1106 H 0.44797 0.50564 0.1052 0.0
H1107 H 0.55823 0.5168 0.09997 0.0
C1108 C 0.54993 0.47715 0.92821 0.0
N1109 N 0.5383 0.4643 0.95948 0.0
C1110 C 0.57201 0.45696 0.90688 0.0
C1111 C 0.57004 0.41076 0.9504 0.0
C1112 C 0.54792 0.43176 0.97079 0.0
C1113 C 0.58246 0.42325 0.91792 0.0
H1114 H 0.54204 0.50317 0.91986 0.0
H1115 H 0.53836 0.42197 0.99569 0.0
O1116 O 0.45687 0.54796 0.03977 0.0
O1117 O 0.47532 0.52453 0.96216 0.0
O1118 O 0.53364 0.53065 0.01734 0.0
O1119 O 0.47965 0.47006 0.02468 0.0
H1120 H 0.40566 0.57555 0.07797 0.0
H1121 H 0.51674 0.58038 0.05719 0.0
H1122 H 0.41303 0.62364 0.12124 0.0
H1123 H 0.52201 0.62824 0.10084 0.0
H1124 H 0.42595 0.45033 0.88225 0.0
H1125 H 0.42235 0.5652 0.94274 0.0
H1126 H 0.47201 0.46498 0.9261 0.0
H1127 H 0.37706 0.54874 0.89873 0.0
H1128 H 0.43974 0.67208 0.97526 0.0
H1129 H 0.55288 0.67132 0.98647 0.0
H1130 H 0.33839 0.44436 0.96941 0.0
H1131 H 0.32699 0.54309 0.02466 0.0
H1132 H 0.54703 0.46611 0.04033 0.0
H1133 H 0.59279 0.56728 0.01772 0.0
H1134 H 0.60598 0.44427 0.05705 0.0
H1135 H 0.65084 0.54392 0.0356 0.0
H1136 H 0.43254 0.45595 0.07398 0.0
H1137 H 0.47589 0.42025 0.97587 0.0
H1138 H 0.39292 0.40416 0.07403 0.0
H1139 H 0.43592 0.36878 0.97791 0.0
H1140 H 0.45019 0.50191 0.16946 0.0
H1141 H 0.56321 0.51178 0.16404 0.0
H1142 H 0.58122 0.46786 0.88225 0.0
H1143 H 0.57696 0.3848 0.95982 0.0
Li1144 Li 0.75843 0.80498 0.76482 0.0
Li1145 Li 0.75978 0.75761 0.80743 0.0
Li1146 Li 0.80606 0.76097 0.76465 0.0
Li1147 Li 0.74462 0.74116 0.74765 0.0
C1148 C 0.81483 0.82471 0.80496 0.0
N1149 N 0.85618 0.88413 0.81242 0.0
C1150 C 0.81703 0.84182 0.83744 0.0
C1151 C 0.8335 0.83793 0.77624 0.0
C1152 C 0.8381 0.87181 0.84068 0.0
C1153 C 0.85433 0.86795 0.78056 0.0
C1154 C 0.68883 0.7713 0.79839 0.0
C1155 C 0.63549 0.74062 0.81369 0.0
N1156 N 0.62793 0.76631 0.83739 0.0
C1157 C 0.68042 0.79752 0.82271 0.0
C1158 C 0.66614 0.74269 0.79366 0.0
C1159 C 0.64955 0.79446 0.84227 0.0
C1160 C 0.74946 0.86825 0.72533 0.0
N1161 N 0.7485 0.85359 0.75791 0.0
C1162 C 0.73966 0.90996 0.78433 0.0
C1163 C 0.74333 0.87354 0.78711 0.0
C1164 C 0.74168 0.92605 0.75117 0.0
C1165 C 0.74627 0.9047 0.72135 0.0
H1166 H 0.75348 0.85176 0.70254 0.0
H1167 H 0.74326 0.86127 0.81274 0.0
C1168 C 0.78324 0.75523 0.87647 0.0
N1169 N 0.75399 0.7485 0.857 0.0
C1170 C 0.78273 0.75143 0.91295 0.0
C1171 C 0.72215 0.73293 0.90893 0.0
C1172 C 0.72397 0.73669 0.87241 0.0
C1173 C 0.75171 0.74072 0.92969 0.0
H1174 H 0.80703 0.76387 0.8636 0.0
H1175 H 0.70141 0.73007 0.85659 0.0
C1176 C 0.79272 0.77352 0.69246 0.0
N1177 N 0.82602 0.76593 0.62841 0.0
C1178 C 0.79192 0.74116 0.67493 0.0
C1179 C 0.81044 0.80202 0.67737 0.0
C1180 C 0.80887 0.73788 0.64256 0.0
C1181 C 0.82716 0.79763 0.64501 0.0
C1182 C 0.7812 0.69346 0.80496 0.0
C1183 C 0.81298 0.68665 0.822 0.0
C1184 C 0.7507 0.67602 0.81573 0.0
C1185 C 0.81368 0.66258 0.84975 0.0
C1186 C 0.75249 0.65212 0.84357 0.0
N1187 N 0.78368 0.64598 0.85988 0.0
C1188 C 0.87492 0.76134 0.78927 0.0
C1189 C 0.8724 0.74857 0.7284 0.0
C1190 C 0.91153 0.76118 0.78858 0.0
N1191 N 0.85607 0.75581 0.75935 0.0
C1192 C 0.90906 0.74808 0.7265 0.0
C1193 C 0.92914 0.75497 0.75679 0.0
H1194 H 0.86144 0.76637 0.81375 0.0
H1195 H 0.85724 0.74357 0.70501 0.0
C1196 C 0.6978 0.72797 0.69106 0.0
N1197 N 0.71656 0.71224 0.71709 0.0
C1198 C 0.67688 0.7078 0.66838 0.0
C1199 C 0.69466 0.65564 0.69993 0.0
C1200 C 0.71562 0.67674 0.72166 0.0
C1201 C 0.67492 0.67112 0.67284 0.0
H1202 H 0.69911 0.75624 0.68794 0.0
H1203 H 0.73121 0.66475 0.74212 0.0
O1204 O 0.7938 0.79566 0.80124 0.0
O1205 O 0.71869 0.77397 0.7787 0.0
O1206 O 0.77585 0.77742 0.72394 0.0
O1207 O 0.77981 0.71765 0.77839 0.0
H1208 H 0.80243 0.83216 0.85985 0.0
H1209 H 0.83188 0.82516 0.7509 0.0
H1210 H 0.84003 0.88534 0.86565 0.0
H1211 H 0.86896 0.87842 0.75856 0.0
H1212 H 0.61775 0.71858 0.81041 0.0
H1213 H 0.69766 0.81983 0.82665 0.0
H1214 H 0.67218 0.72224 0.77485 0.0
H1215 H 0.6428 0.81445 0.86133 0.0
H1216 H 0.73667 0.92549 0.80802 0.0
H1217 H 0.7477 0.9161 0.69529 0.0
H1218 H 0.80609 0.75778 0.92797 0.0
H1219 H 0.6979 0.72396 0.92081 0.0
H1220 H 0.77878 0.71867 0.68635 0.0
H1221 H 0.81139 0.82727 0.69049 0.0
H1222 H 0.80854 0.71297 0.62877 0.0
H1223 H 0.84103 0.81944 0.63308 0.0
H1224 H 0.8368 0.69993 0.81402 0.0
H1225 H 0.72575 0.68145 0.80324 0.0
H1226 H 0.83807 0.65715 0.86328 0.0
H1227 H 0.72905 0.63866 0.85237 0.0
H1228 H 0.92588 0.76582 0.81276 0.0
H1229 H 0.9215 0.74321 0.7014 0.0
H1230 H 0.66194 0.72081 0.64794 0.0
H1231 H 0.69426 0.62742 0.70397 0.0
Li1232 Li 0.76182 0.26744 0.24587 0.0
Li1233 Li 0.70028 0.24883 0.26307 0.0
Li1234 Li 0.7464 0.25231 0.30566 0.0
Li1235 Li 0.74722 0.20416 0.26411 0.0
C1236 C 0.72822 0.31716 0.30173 0.0
N1237 N 0.73096 0.36656 0.35499 0.0
C1238 C 0.6979 0.32558 0.32052 0.0
C1239 C 0.7599 0.33396 0.3099 0.0
C1240 C 0.69984 0.3506 0.3474 0.0
C1241 C 0.76074 0.35886 0.33693 0.0
C1242 C 0.71412 0.23556 0.19075 0.0
C1243 C 0.68195 0.21195 0.14134 0.0
N1244 N 0.68254 0.24421 0.12586 0.0
C1245 C 0.71435 0.2685 0.17438 0.0
C1246 C 0.69781 0.20703 0.17411 0.0
C1247 C 0.69828 0.27232 0.14155 0.0
C1248 C 0.81293 0.27962 0.19297 0.0
N1249 N 0.79024 0.29573 0.2153 0.0
C1250 C 0.80871 0.3524 0.19487 0.0
C1251 C 0.78757 0.3314 0.2164 0.0
C1252 C 0.83256 0.33656 0.17163 0.0
C1253 C 0.83433 0.29961 0.17069 0.0
H1254 H 0.81449 0.25119 0.19261 0.0
H1255 H 0.76892 0.34359 0.23394 0.0
C1256 C 0.63211 0.25321 0.28843 0.0
N1257 N 0.65038 0.25485 0.25779 0.0
C1258 C 0.59552 0.25479 0.28836 0.0
C1259 C 0.5969 0.26043 0.22515 0.0
C1260 C 0.63354 0.25883 0.22646 0.0
C1261 C 0.57737 0.25813 0.25637 0.0
H1262 H 0.64604 0.25003 0.31303 0.0
H1263 H 0.64822 0.26049 0.20239 0.0
C1264 C 0.81702 0.23704 0.2976 0.0
N1265 N 0.87759 0.24095 0.33747 0.0
C1266 C 0.82418 0.21124 0.32276 0.0
C1267 C 0.8408 0.26466 0.29246 0.0
C1268 C 0.8549 0.21376 0.34275 0.0
C1269 C 0.87125 0.2662 0.31294 0.0
C1270 C 0.68941 0.18643 0.30271 0.0
C1271 C 0.68496 0.16933 0.33493 0.0
C1272 C 0.67183 0.1739 0.27292 0.0
C1273 C 0.66285 0.13999 0.33683 0.0
C1274 C 0.6498 0.1446 0.27594 0.0
N1275 N 0.64583 0.12837 0.30755 0.0
C1276 C 0.72342 0.25573 0.37466 0.0
C1277 C 0.78259 0.27446 0.37016 0.0
C1278 C 0.7242 0.26 0.41108 0.0
N1279 N 0.7525 0.26231 0.35501 0.0
C1280 C 0.7847 0.27864 0.40663 0.0
C1281 C 0.75533 0.27098 0.42757 0.0
H1282 H 0.69958 0.24682 0.362 0.0
H1283 H 0.80501 0.28092 0.35416 0.0
C1284 C 0.75632 0.13994 0.22601 0.0
N1285 N 0.75646 0.1553 0.25829 0.0
C1286 C 0.75892 0.10335 0.22291 0.0
C1287 C 0.76319 0.09939 0.28621 0.0
C1288 C 0.76019 0.13592 0.28808 0.0
C1289 C 0.76204 0.08259 0.25334 0.0
H1290 H 0.75342 0.156 0.20275 0.0
H1291 H 0.75963 0.14877 0.31344 0.0
O1292 O 0.72708 0.29201 0.27602 0.0
O1293 O 0.73009 0.23114 0.22268 0.0
O1294 O 0.78733 0.23489 0.2775 0.0
O1295 O 0.71194 0.21446 0.30026 0.0
H1296 H 0.6732 0.3128 0.31456 0.0
H1297 H 0.78372 0.32736 0.29596 0.0
H1298 H 0.67662 0.35727 0.36227 0.0
H1299 H 0.78513 0.37187 0.34371 0.0
H1300 H 0.66917 0.19012 0.12821 0.0
H1301 H 0.72632 0.291 0.18704 0.0
H1302 H 0.69721 0.18138 0.18641 0.0
H1303 H 0.69819 0.29767 0.12862 0.0
H1304 H 0.80611 0.38075 0.19609 0.0
H1305 H 0.85251 0.28632 0.15336 0.0
H1306 H 0.58158 0.25255 0.31305 0.0
H1307 H 0.58401 0.26354 0.19994 0.0
H1308 H 0.80609 0.1897 0.32703 0.0
H1309 H 0.83573 0.28476 0.27299 0.0
H1310 H 0.86068 0.19411 0.36248 0.0
H1311 H 0.88983 0.28748 0.30935 0.0
H1312 H 0.69877 0.1784 0.35814 0.0
H1313 H 0.6753 0.18653 0.24772 0.0
H1314 H 0.65939 0.12636 0.36154 0.0
H1315 H 0.63599 0.13467 0.2531 0.0
H1316 H 0.70099 0.25374 0.42628 0.0
H1317 H 0.80902 0.28776 0.41835 0.0
H1318 H 0.75822 0.09141 0.19706 0.0
H1319 H 0.76504 0.08436 0.31033 0.0
Li1320 Li 0.51285 0.51577 0.50929 0.0
Li1321 Li 0.49903 0.49599 0.44773 0.0
Li1322 Li 0.45411 0.49903 0.49195 0.0
Li1323 Li 0.49611 0.45279 0.49578 0.0
C1324 C 0.46356 0.56871 0.47127 0.0
N1325 N 0.42487 0.63 0.46682 0.0
C1326 C 0.44427 0.57621 0.4409 0.0
C1327 C 0.46328 0.59253 0.49932 0.0
C1328 C 0.4248 0.60726 0.4392 0.0
C1329 C 0.44357 0.62336 0.49656 0.0
C1330 C 0.57025 0.49295 0.4689 0.0
C1331 C 0.63209 0.48546 0.45786 0.0
N1332 N 0.63454 0.51998 0.44869 0.0
C1333 C 0.57335 0.52832 0.45925 0.0
C1334 C 0.59983 0.47131 0.46818 0.0
C1335 C 0.60609 0.5415 0.44918 0.0
C1336 C 0.55637 0.53036 0.56786 0.0
N1337 N 0.54268 0.54488 0.53822 0.0
C1338 C 0.5717 0.59953 0.55059 0.0
C1339 C 0.5502 0.57868 0.52913 0.0
C1340 C 0.58621 0.58539 0.58156 0.0
C1341 C 0.57835 0.55012 0.58989 0.0
H1342 H 0.5503 0.5033 0.57432 0.0
H1343 H 0.53943 0.58963 0.50523 0.0
C1344 C 0.47585 0.50236 0.37918 0.0
N1345 N 0.50622 0.5005 0.3979 0.0
C1346 C 0.47644 0.5032 0.34254 0.0
C1347 C 0.53972 0.50026 0.34468 0.0
C1348 C 0.53788 0.49909 0.38141 0.0
C1349 C 0.50867 0.50207 0.3248 0.0
H1350 H 0.45096 0.50233 0.3928 0.0
H1351 H 0.56171 0.49615 0.39642 0.0
C1352 C 0.45488 0.48913 0.5592 0.0
N1353 N 0.40139 0.50113 0.60658 0.0
C1354 C 0.4317 0.46199 0.56806 0.0
C1355 C 0.45117 0.52223 0.57474 0.0
C1356 C 0.40473 0.46862 0.59198 0.0
C1357 C 0.42388 0.52781 0.59856 0.0
C1358 C 0.464 0.43435 0.43377 0.0
C1359 C 0.4334 0.42064 0.41867 0.0
C1360 C 0.49662 0.42071 0.42397 0.0
C1361 C 0.43592 0.39341 0.39411 0.0
C1362 C 0.49802 0.39351 0.3993 0.0
N1363 N 0.4679 0.38052 0.38502 0.0
C1364 C 0.38724 0.53575 0.50442 0.0
C1365 C 0.38599 0.47443 0.49374 0.0
C1366 C 0.35054 0.53678 0.50526 0.0
N1367 N 0.40419 0.50499 0.4978 0.0
C1368 C 0.34943 0.4741 0.49498 0.0
C1369 C 0.33101 0.5057 0.49998 0.0
H1370 H 0.40187 0.55961 0.50873 0.0
H1371 H 0.4 0.4501 0.48951 0.0
C1372 C 0.53362 0.38904 0.50928 0.0
N1373 N 0.50148 0.40418 0.50649 0.0
C1374 C 0.53653 0.35254 0.51309 0.0
C1375 C 0.47322 0.34819 0.51195 0.0
C1376 C 0.47156 0.38466 0.50805 0.0
C1377 C 0.50603 0.33156 0.51405 0.0
H1378 H 0.55697 0.40519 0.50768 0.0
H1379 H 0.44637 0.39737 0.50505 0.0
O1380 O 0.48342 0.5388 0.4731 0.0
O1381 O 0.53856 0.47949 0.47923 0.0
O1382 O 0.48076 0.48353 0.535 0.0
O1383 O 0.46181 0.46103 0.45791 0.0
H1384 H 0.44431 0.55833 0.41885 0.0
H1385 H 0.47768 0.58714 0.52318 0.0
H1386 H 0.40969 0.61332 0.41587 0.0
H1387 H 0.44302 0.64191 0.51813 0.0
H1388 H 0.6552 0.469 0.45716 0.0
H1389 H 0.55067 0.5453 0.45902 0.0
H1390 H 0.59788 0.44385 0.47546 0.0
H1391 H 0.60884 0.5688 0.4416 0.0
H1392 H 0.57643 0.6266 0.5431 0.0
H1393 H 0.58935 0.53765 0.61297 0.0
H1394 H 0.45188 0.50469 0.32824 0.0
H1395 H 0.56507 0.49872 0.33194 0.0
H1396 H 0.43426 0.43621 0.5563 0.0
H1397 H 0.46909 0.5434 0.56836 0.0
H1398 H 0.38641 0.44795 0.59888 0.0
H1399 H 0.42056 0.55336 0.61065 0.0
H1400 H 0.40794 0.43096 0.42581 0.0
H1401 H 0.52064 0.43094 0.43521 0.0
H1402 H 0.41246 0.3825 0.38229 0.0
H1403 H 0.52307 0.38272 0.39151 0.0
H1404 H 0.33772 0.56184 0.5092 0.0
H1405 H 0.33582 0.44922 0.49201 0.0
H1406 H 0.56235 0.34084 0.51491 0.0
H1407 H 0.44907 0.33307 0.51196 0.0
C1408 C 0.13255 0.11788 0.16184 0.0
C1409 C 0.14876 0.14835 0.14849 0.0
H1410 H 0.09853 0.07409 0.15183 0.0
C1411 C 0.14333 0.15714 0.11301 0.0
H1412 H 0.13582 0.11061 0.18918 0.0
C1413 C 0.12227 0.13594 0.09138 0.0
C1414 C 0.10576 0.10554 0.10474 0.0
H1415 H 0.15584 0.18015 0.10177 0.0
H1416 H 0.11936 0.14322 0.06402 0.0
C1417 C 0.11122 0.09685 0.14032 0.0
C1418 C 0.10199 0.89795 0.35891 0.0
C1419 C 0.10715 0.90032 0.39547 0.0
H1420 H 0.11859 0.87511 0.31023 0.0
C1421 C 0.13497 0.8814 0.41068 0.0
H1422 H 0.08054 0.91178 0.34637 0.0
C1423 C 0.15689 0.86046 0.38994 0.0
C1424 C 0.15154 0.85776 0.35342 0.0
H1425 H 0.14011 0.88308 0.43865 0.0
H1426 H 0.17832 0.84668 0.40257 0.0
C1427 C 0.12386 0.87691 0.33816 0.0
C1428 C 0.38311 0.87276 0.58868 0.0
C1429 C 0.39991 0.9032 0.60171 0.0
H1430 H 0.34949 0.82875 0.59965 0.0
C1431 C 0.39492 0.91216 0.63729 0.0
H1432 H 0.38565 0.86525 0.56135 0.0
C1433 C 0.3737 0.89144 0.65908 0.0
C1434 C 0.3572 0.86096 0.64604 0.0
H1435 H 0.40787 0.93492 0.64859 0.0
H1436 H 0.37071 0.89895 0.68639 0.0
C1437 C 0.36222 0.85182 0.61061 0.0
C1438 C 0.38269 0.09621 0.86519 0.0
C1439 C 0.40126 0.10988 0.89413 0.0
H1440 H 0.34654 0.10618 0.82331 0.0
C1441 C 0.39797 0.14586 0.90203 0.0
H1442 H 0.38431 0.06851 0.85869 0.0
C1443 C 0.37666 0.16766 0.88146 0.0
C1444 C 0.35776 0.15399 0.85262 0.0
H1445 H 0.41231 0.1573 0.92386 0.0
H1446 H 0.37539 0.19536 0.88797 0.0
C1447 C 0.3611 0.11792 0.84482 0.0
C1448 C 0.62379 0.37843 0.83854 0.0
C1449 C 0.65044 0.35813 0.85416 0.0
H1450 H 0.58131 0.41444 0.84626 0.0
C1451 C 0.6548 0.35992 0.89087 0.0
H1452 H 0.61928 0.37737 0.81044 0.0
C1453 C 0.63293 0.3811 0.91141 0.0
C1454 C 0.60613 0.40119 0.89584 0.0
H1455 H 0.67543 0.34525 0.9038 0.0
H1456 H 0.63733 0.38206 0.93954 0.0
C1457 C 0.60196 0.3997 0.85911 0.0
C1458 C 0.89432 0.40895 0.14056 0.0
C1459 C 0.89913 0.40034 0.10488 0.0
H1460 H 0.86984 0.39561 0.18949 0.0
C1461 C 0.88168 0.37046 0.09144 0.0
H1462 H 0.90774 0.43129 0.15214 0.0
C1463 C 0.8603 0.34971 0.11307 0.0
C1464 C 0.85546 0.35848 0.14863 0.0
H1465 H 0.88408 0.36326 0.06401 0.0
H1466 H 0.84705 0.3271 0.10179 0.0
C1467 C 0.87265 0.3884 0.16208 0.0
C1468 C 0.88439 0.59463 0.3678 0.0
C1469 C 0.90132 0.60794 0.39789 0.0
H1470 H 0.84937 0.60468 0.32499 0.0
C1471 C 0.89614 0.64338 0.40703 0.0
H1472 H 0.88746 0.56731 0.36032 0.0
C1473 C 0.87464 0.66505 0.38649 0.0
C1474 C 0.85743 0.65174 0.35645 0.0
H1475 H 0.90918 0.65456 0.42979 0.0
H1476 H 0.87194 0.69239 0.39398 0.0
C1477 C 0.86261 0.61617 0.34746 0.0
C1478 C 0.63167 0.6332 0.59089 0.0
C1479 C 0.60922 0.60727 0.60498 0.0
H1480 H 0.66986 0.67355 0.60112 0.0
C1481 C 0.60881 0.60262 0.64173 0.0
H1482 H 0.6334 0.63722 0.56277 0.0
C1483 C 0.63027 0.62311 0.66363 0.0
C1484 C 0.65238 0.64914 0.64947 0.0
H1485 H 0.59148 0.58352 0.6538 0.0
H1486 H 0.62907 0.61902 0.69179 0.0
C1487 C 0.65276 0.65401 0.61285 0.0
C1488 C 0.21911 0.25483 0.4837 0.0
C1489 C 0.24758 0.23977 0.46587 0.0
H1490 H 0.19664 0.26871 0.53314 0.0
C1491 C 0.27505 0.22493 0.48554 0.0
H1492 H 0.19784 0.26698 0.46923 0.0
C1493 C 0.27419 0.22539 0.52232 0.0
C1494 C 0.246 0.24107 0.54029 0.0
H1495 H 0.29719 0.21287 0.47244 0.0
H1496 H 0.2956 0.21333 0.53662 0.0
C1497 C 0.21843 0.25569 0.52042 0.0
C1498 C 0.98556 0.97903 0.7672 0.0
C1499 C 0.00793 1.00149 0.78625 0.0
H1500 H 0.96851 0.96109 0.71674 0.0
C1501 C 0.03107 0.0236 0.76781 0.0
H1502 H 0.96789 0.96124 0.78073 0.0
C1503 C 0.03113 0.02394 0.731 0.0
C1504 C 0.00829 1.00186 0.71184 0.0
H1505 H 0.04845 0.04134 0.78186 0.0
H1506 H 0.04842 0.04218 0.71763 0.0
C1507 C 0.98587 0.97906 0.73049 0.0
C1508 C 0.23371 0.79203 0.98436 0.0
C1509 C 0.26024 0.77545 0.96488 0.0
H1510 H 0.21382 0.80498 0.03531 0.0
C1511 C 0.28778 0.75885 0.98288 0.0
H1512 H 0.21232 0.8053 0.97112 0.0
C1513 C 0.28837 0.75809 0.0196 0.0
C1514 C 0.26166 0.77433 0.03929 0.0
H1515 H 0.30829 0.74538 0.96855 0.0
H1516 H 0.30932 0.74381 0.03246 0.0
C1517 C 0.23451 0.79166 0.02114 0.0
C1518 C 0.46809 0.9929 0.26598 0.0
C1519 C 0.49501 0.01125 0.28356 0.0
H1520 H 0.4458 0.97768 0.21652 0.0
C1521 C 0.52018 0.02943 0.26351 0.0
H1522 H 0.44841 0.97843 0.28061 0.0
C1523 C 0.51888 0.02874 0.2268 0.0
C1524 C 0.49235 0.00986 0.20919 0.0
H1525 H 0.54099 0.04424 0.2762 0.0
H1526 H 0.53923 0.04231 0.21224 0.0
C1527 C 0.46679 0.99219 0.22923 0.0
C1528 C 0.48273 0.27696 0.28114 0.0
C1529 C 0.46402 0.25785 0.2555 0.0
H1530 H 0.53297 0.29251 0.30118 0.0
C1531 C 0.48294 0.23938 0.22974 0.0
H1532 H 0.46902 0.29204 0.30096 0.0
C1533 C 0.51965 0.23975 0.2298 0.0
C1534 C 0.53833 0.25859 0.25565 0.0
H1535 H 0.46938 0.22403 0.20988 0.0
H1536 H 0.53342 0.22465 0.21003 0.0
C1537 C 0.51941 0.27729 0.28123 0.0
C1538 C 0.02801 0.26932 0.46509 0.0
C1539 C 1.00075 0.28887 0.48037 0.0
H1540 H 0.04821 0.21828 0.45284 0.0
C1541 C 0.97228 0.27088 0.49544 0.0
H1542 H 0.05015 0.28254 0.45302 0.0
C1543 C 0.9714 0.23413 0.4959 0.0
C1544 C 0.99877 0.21438 0.48089 0.0
H1545 H 0.95118 0.28523 0.50794 0.0
H1546 H 0.94963 0.22128 0.50896 0.0
C1547 C 0.02695 0.2325 0.46517 0.0
C1548 C 0.98694 0.7819 0.77416 0.0
C1549 C 0.96816 0.75611 0.75531 0.0
H1550 H 0.03719 0.80314 0.78799 0.0
C1551 C 0.98697 0.73145 0.73528 0.0
H1552 H 0.97328 0.80171 0.78932 0.0
C1553 C 0.02368 0.7323 0.7345 0.0
C1554 C 0.04245 0.75785 0.75369 0.0
H1555 H 0.97335 0.71099 0.72079 0.0
H1556 H 0.03737 0.7124 0.7195 0.0
C1557 C 0.0236 0.78275 0.77337 0.0
C1558 C 0.46978 0.73634 0.99413 0.0
C1559 C 0.49686 0.71662 0.97853 0.0
H1560 H 0.44986 0.78743 0.00675 0.0
C1561 C 0.52473 0.73479 0.96232 0.0
H1562 H 0.44827 0.72347 0.00758 0.0
C1563 C 0.52586 0.77161 0.96243 0.0
C1564 C 0.49893 0.7911 0.97834 0.0
H1565 H 0.54574 0.72062 0.94951 0.0
H1566 H 0.5478 0.78488 0.95005 0.0
C1567 C 0.4707 0.77309 0.99381 0.0
C1568 C 0.51994 0.78501 0.28249 0.0
C1569 C 0.54024 0.75509 0.2749 0.0
H1570 H 0.46842 0.80718 0.28602 0.0
C1571 C 0.52298 0.72327 0.26712 0.0
H1572 H 0.53242 0.80983 0.289 0.0
C1573 C 0.48637 0.7217 0.26573 0.0
C1574 C 0.46609 0.75189 0.27207 0.0
H1575 H 0.53775 0.69979 0.26084 0.0
H1576 H 0.47394 0.69687 0.25916 0.0
C1577 C 0.48326 0.78342 0.28115 0.0
C1578 C 0.4859 0.23591 0.53577 0.0
C1579 C 0.51044 0.218 0.51483 0.0
H1580 H 0.46565 0.28573 0.55247 0.0
C1581 C 0.53409 0.23785 0.49445 0.0
H1582 H 0.46762 0.22149 0.55215 0.0
C1583 C 0.53308 0.27461 0.49479 0.0
C1584 C 0.5083 0.2925 0.51539 0.0
H1585 H 0.55288 0.22501 0.47745 0.0
H1586 H 0.55109 0.28898 0.47807 0.0
C1587 C 0.48482 0.27273 0.53602 0.0
C1588 C 0.01993 0.28659 0.78279 0.0
C1589 C 0.0402 0.25692 0.77418 0.0
H1590 H 0.96839 0.30856 0.78736 0.0
C1591 C 0.02293 0.22534 0.76553 0.0
H1592 H 0.03244 0.31121 0.78995 0.0
C1593 C 0.98632 0.22378 0.7643 0.0
C1594 C 0.96606 0.25374 0.77171 0.0
H1595 H 0.03769 0.20209 0.75846 0.0
H1596 H 0.97385 0.19916 0.75704 0.0
C1597 C 0.98324 0.28499 0.78164 0.0
C1598 C 0.024 0.77155 0.03208 0.0
C1599 C 0.99881 0.78949 0.01188 0.0
H1600 H 0.04464 0.72173 0.04827 0.0
C1601 C 0.97445 0.76963 0.99221 0.0
H1602 H 0.04284 0.78595 0.04791 0.0
C1603 C 0.97536 0.73287 0.99258 0.0
C1604 C 1.00076 0.71495 0.01248 0.0
H1605 H 0.95511 0.78249 0.9758 0.0
H1606 H 0.95675 0.71849 0.97645 0.0
C1607 C 0.02498 0.73473 0.03235 0.0
C1608 C 0.21372 0.48576 0.26671 0.0
C1609 C 0.23653 0.46531 0.24614 0.0
H1610 H 0.19773 0.53764 0.28192 0.0
C1611 C 0.26047 0.48239 0.2238 0.0
H1612 H 0.19489 0.47329 0.28404 0.0
C1613 C 0.26224 0.51911 0.22277 0.0
C1614 C 0.23985 0.53956 0.24378 0.0
H1615 H 0.2786 0.46735 0.2079 0.0
H1616 H 0.28127 0.53156 0.20565 0.0
C1617 C 0.21519 0.52253 0.26535 0.0
C1618 C 0.76708 0.0194 0.72669 0.0
C1619 C 0.74298 0.03933 0.74624 0.0
H1620 H 0.78536 0.96802 0.71274 0.0
C1621 C 0.71731 0.02173 0.76611 0.0
H1622 H 0.78694 0.03226 0.71086 0.0
C1623 C 0.71644 0.98493 0.76724 0.0
C1624 C 0.74093 0.965 0.74814 0.0
H1625 H 0.6985 0.03643 0.78154 0.0
H1626 H 0.69673 0.97203 0.78323 0.0
C1627 C 0.76595 0.98264 0.72748 0.0
C1628 C 0.269 0.49743 0.02765 0.0
C1629 C 0.28853 0.48874 0.99755 0.0
H1630 H 0.21819 0.50417 0.0504 0.0
C1631 C 0.27057 0.47772 0.96715 0.0
H1632 H 0.28207 0.50557 0.05165 0.0
C1633 C 0.23384 0.47663 0.96652 0.0
C1634 C 0.21432 0.48635 0.99635 0.0
H1635 H 0.28485 0.471 0.94349 0.0
H1636 H 0.22072 0.46853 0.94255 0.0
C1637 C 0.23237 0.49623 0.02707 0.0
C1638 C 0.7382 0.02576 0.22954 0.0
C1639 C 0.76237 0.04357 0.25116 0.0
H1640 H 0.71777 0.976 0.21248 0.0
C1641 C 0.7857 0.0238 0.27188 0.0
H1642 H 0.71967 0.04026 0.21355 0.0
C1643 C 0.78459 0.98701 0.2713 0.0
C1644 C 0.75987 0.96922 0.25028 0.0
H1645 H 0.80475 0.03681 0.28865 0.0
H1646 H 0.80254 0.97248 0.28792 0.0
C1647 C 0.73685 0.98899 0.22923 0.0
C1648 C 0.77064 0.02922 0.96767 0.0
C1649 C 0.7902 0.01856 0.9972 0.0
H1650 H 0.71963 0.03533 0.94463 0.0
C1651 C 0.77221 0.00733 0.02742 0.0
H1652 H 0.78373 0.03834 0.94411 0.0
C1653 C 0.73559 0.00575 0.02775 0.0
C1654 C 0.71603 0.01545 0.99791 0.0
H1655 H 0.78646 0.99864 0.05049 0.0
H1656 H 0.72255 0.99657 0.05133 0.0
C1657 C 0.73393 0.0278 0.96807 0.0
C1658 C 0.28138 0.52706 0.72814 0.0
C1659 C 0.26258 0.54588 0.75374 0.0
H1660 H 0.29443 0.47655 0.70687 0.0
C1661 C 0.24242 0.527 0.77833 0.0
H1662 H 0.29734 0.54076 0.70896 0.0
C1663 C 0.24108 0.49029 0.77739 0.0
C1664 C 0.25976 0.47142 0.75177 0.0
H1665 H 0.22718 0.54062 0.79809 0.0
H1666 H 0.22549 0.47667 0.79694 0.0
C1667 C 0.28003 0.49024 0.72721 0.0
C1668 C 0.23658 0.48234 0.47677 0.0
C1669 C 0.21754 0.50535 0.49831 0.0
H1670 H 0.28692 0.46525 0.45937 0.0
C1671 C 0.23586 0.52913 0.51993 0.0
H1672 H 0.22306 0.46404 0.45954 0.0
C1673 C 0.2726 0.52932 0.52058 0.0
C1674 C 0.29183 0.50607 0.49919 0.0
H1675 H 0.22174 0.54693 0.53704 0.0
H1676 H 0.28582 0.5472 0.53841 0.0
C1677 C 0.27323 0.4829 0.47695 0.0
C1678 C 0.77721 0.72375 0.98825 0.0
C1679 C 0.74993 0.73904 0.96865 0.0
H1680 H 0.79745 0.71137 0.03929 0.0
C1681 C 0.72151 0.7541 0.98655 0.0
H1682 H 0.79931 0.71165 0.97511 0.0
C1683 C 0.72066 0.75447 0.02327 0.0
C1684 C 0.74802 0.73937 0.04307 0.0
H1685 H 0.70039 0.76659 0.97216 0.0
H1686 H 0.6989 0.76746 0.03608 0.0
C1687 C 0.77619 0.72375 0.02503 0.0
C1688 C 0.53322 0.52363 0.26738 0.0
C1689 C 0.50958 0.502 0.28578 0.0
H1690 H 0.55054 0.54244 0.21726 0.0
C1691 C 0.48615 0.48071 0.26664 0.0
H1692 H 0.5514 0.54051 0.28146 0.0
C1693 C 0.48589 0.48146 0.22994 0.0
C1694 C 0.50886 0.50377 0.21139 0.0
H1695 H 0.46806 0.46328 0.28009 0.0
H1696 H 0.46767 0.46443 0.21611 0.0
C1697 C 0.53277 0.52462 0.23058 0.0
C1698 C 0.78566 0.25738 0.48436 0.0
C1699 C 0.75741 0.27289 0.46648 0.0
H1700 H 0.80807 0.24336 0.53385 0.0
C1701 C 0.73043 0.28857 0.48608 0.0
H1702 H 0.80656 0.24462 0.46994 0.0
C1703 C 0.73149 0.28839 0.52285 0.0
C1704 C 0.75937 0.27214 0.54089 0.0
H1705 H 0.70848 0.301 0.47293 0.0
H1706 H 0.71042 0.30102 0.5371 0.0
C1707 C 0.78653 0.2568 0.52108 0.0
C1708 C 0.96714 0.48342 0.7314 0.0
C1709 C 0.99196 0.50261 0.71184 0.0
H1710 H 0.94883 0.46849 0.78256 0.0
C1711 C 0.0174 0.52256 0.72985 0.0
H1712 H 0.94708 0.46799 0.71826 0.0
C1713 C 0.01841 0.52281 0.76657 0.0
C1714 C 0.99389 0.50328 0.78615 0.0
H1715 H 0.0371 0.53733 0.71556 0.0
H1716 H 0.03843 0.53835 0.77966 0.0
C1717 C 0.96798 0.4839 0.76819 0.0
C1718 C 0.77174 0.97633 0.4656 0.0
C1719 C 0.78938 0.98602 0.49663 0.0
H1720 H 0.72214 0.96842 0.44007 0.0
C1721 C 0.76955 0.99344 0.52687 0.0
H1722 H 0.78626 0.97061 0.44184 0.0
C1723 C 0.73293 0.9924 0.52583 0.0
C1724 C 0.71519 0.98395 0.4945 0.0
H1725 H 0.78238 1.00053 0.55133 0.0
H1726 H 0.71851 0.99943 0.54932 0.0
C1727 C 0.73502 0.97541 0.46452 0.0
loop_
_geom_bond_atom_site_label_1
_geom_bond_atom_site_label_2
_geom_bond_distance
_geom_bond_site_symmetry_2
_ccdc_geom_bond_type
Li0 N17 1.990 . S
Li0 O60 1.956 . S
Li0 O61 1.970 . S
Li0 O62 1.961 . S
Li1 N25 1.990 . S
Li1 O60 1.970 . S
Li1 O61 1.956 . S
Li1 O63 1.961 . S
Li2 N47 1.990 . S
Li2 O60 1.961 . S
Li2 O62 1.956 . S
Li2 O63 1.970 . S
Li3 N53 1.990 . S
Li3 O61 1.961 . S
Li3 O62 1.970 . S
Li3 O63 1.956 . S
C4 C6 1.348 . S
C4 C7 1.356 . S
C4 O60 1.325 . S
N5 C8 1.314 . S
N5 C9 1.279 . S
C6 C4 1.348 . S
C6 C8 1.353 . S
C6 H64 0.929 . S
C7 C4 1.356 . S
C7 C9 1.358 . S
C7 H65 0.930 . S
C8 N5 1.314 . S
C8 C6 1.353 . S
C8 H66 0.930 . S
C9 N5 1.279 . S
C9 C7 1.358 . S
C9 H67 0.930 . S
C10 C13 1.348 . S
C10 C14 1.356 . S
C10 O61 1.325 . S
C11 N12 1.279 . S
C11 C14 1.358 . S
C11 H68 0.930 . S
N12 C11 1.279 . S
N12 C15 1.314 . S
C13 C10 1.348 . S
C13 C15 1.353 . S
C13 H69 0.929 . S
C14 C10 1.356 . S
C14 C11 1.358 . S
C14 H70 0.930 . S
C15 N12 1.314 . S
C15 C13 1.353 . S
C15 H71 0.930 . S
C16 N17 1.314 . S
C16 C21 1.353 . S
C16 H22 0.930 . S
N17 Li0 1.990 . S
N17 C16 1.314 . S
N17 C19 1.279 . S
C18 C19 1.358 . S
C18 C20 1.356 . S
C18 H72 0.930 . S
C19 N17 1.279 . S
C19 C18 1.358 . S
C19 H23 0.930 . S
C20 C18 1.356 . S
C20 C21 1.348 . S
C21 C16 1.353 . S
C21 C20 1.348 . S
C21 H73 0.929 . S
H22 C16 0.930 . S
H23 C19 0.930 . S
C24 N25 1.314 . S
C24 C26 1.353 . S
C24 H30 0.930 . S
N25 Li1 1.990 . S
N25 C24 1.314 . S
N25 C28 1.279 . S
C26 C24 1.353 . S
C26 C29 1.348 . S
C26 H74 0.929 . S
C27 C28 1.358 . S
C27 C29 1.356 . S
C27 H75 0.930 . S
C28 N25 1.279 . S
C28 C27 1.358 . S
C28 H31 0.930 . S
C29 C26 1.348 . S
C29 C27 1.356 . S
H30 C24 0.930 . S
H31 C28 0.930 . S
C32 C34 1.348 . S
C32 C35 1.356 . S
C32 O62 1.325 . S
N33 C36 1.314 . S
N33 C37 1.279 . S
C34 C32 1.348 . S
C34 C36 1.353 . S
C34 H76 0.929 . S
C35 C32 1.356 . S
C35 C37 1.358 . S
C35 H77 0.930 . S
C36 N33 1.314 . S
C36 C34 1.353 . S
C36 H78 0.930 . S
C37 N33 1.279 . S
C37 C35 1.358 . S
C37 H79 0.930 . S
C38 C39 1.348 . S
C38 C40 1.356 . S
C38 O63 1.325 . S
C39 C38 1.348 . S
C39 C41 1.353 . S
C39 H80 0.929 . S
C40 C38 1.356 . S
C40 C42 1.358 . S
C40 H81 0.930 . S
C41 C39 1.353 . S
C41 N43 1.314 . S
C41 H82 0.930 . S
C42 C40 1.358 . S
C42 N43 1.279 . S
C42 H83 0.930 . S
N43 C41 1.314 . S
N43 C42 1.279 . S
C44 C46 1.353 . S
C44 N47 1.314 . S
C44 H50 0.930 . S
C45 N47 1.279 . S
C45 C48 1.358 . S
C45 H51 0.930 . S
C46 C44 1.353 . S
C46 C49 1.348 . S
C46 H84 0.929 . S
N47 Li2 1.990 . S
N47 C44 1.314 . S
N47 C45 1.279 . S
C48 C45 1.358 . S
C48 C49 1.356 . S
C48 H85 0.930 . S
C49 C46 1.348 . S
C49 C48 1.356 . S
H50 C44 0.930 . S
H51 C45 0.930 . S
C52 N53 1.314 . S
C52 C54 1.353 . S
C52 H58 0.930 . S
N53 Li3 1.990 . S
N53 C52 1.314 . S
N53 C56 1.279 . S
C54 C52 1.353 . S
C54 C57 1.348 . S
C54 H86 0.929 . S
C55 C56 1.358 . S
C55 C57 1.356 . S
C55 H87 0.930 . S
C56 N53 1.279 . S
C56 C55 1.358 . S
C56 H59 0.930 . S
C57 C54 1.348 . S
C57 C55 1.356 . S
H58 C52 0.930 . S
H59 C56 0.930 . S
O60 Li0 1.956 . S
O60 Li1 1.970 . S
O60 Li2 1.961 . S
O60 C4 1.325 . S
O61 Li0 1.970 . S
O61 Li1 1.956 . S
O61 Li3 1.961 . S
O61 C10 1.325 . S
O62 Li0 1.961 . S
O62 Li2 1.956 . S
O62 Li3 1.970 . S
O62 C32 1.325 . S
O63 Li1 1.961 . S
O63 Li2 1.970 . S
O63 Li3 1.956 . S
O63 C38 1.325 . S
H64 C6 0.929 . S
H65 C7 0.930 . S
H66 C8 0.930 . S
H67 C9 0.930 . S
H68 C11 0.930 . S
H69 C13 0.929 . S
H70 C14 0.930 . S
H71 C15 0.930 . S
H72 C18 0.930 . S
H73 C21 0.929 . S
H74 C26 0.929 . S
H75 C27 0.930 . S
H76 C34 0.929 . S
H77 C35 0.930 . S
H78 C36 0.930 . S
H79 C37 0.930 . S
H80 C39 0.929 . S
H81 C40 0.930 . S
H82 C41 0.930 . S
H83 C42 0.930 . S
H84 C46 0.929 . S
H85 C48 0.930 . S
H86 C54 0.929 . S
H87 C55 0.930 . S
Li88 N105 1.990 1_655 S
Li88 O148 1.956 . S
Li88 O149 1.970 . S
Li88 O150 1.961 1_655 S
Li89 N113 1.990 . S
Li89 O148 1.970 . S
Li89 O149 1.956 . S
Li89 O151 1.961 1_545 S
Li90 N135 1.990 . S
Li90 O148 1.961 . S
Li90 O150 1.956 1_655 S
Li90 O151 1.970 1_545 S
Li91 N141 1.990 . S
Li91 O149 1.961 1_465 S
Li91 O150 1.970 1_565 S
Li91 O151 1.956 1_455 S
C92 C94 1.348 . S
C92 C95 1.356 . S
C92 O148 1.325 . S
N93 C96 1.314 . S
N93 C97 1.279 . S
C94 C92 1.348 . S
C94 C96 1.353 . S
C94 H152 0.929 . S
C95 C92 1.356 . S
C95 C97 1.358 . S
C95 H153 0.930 . S
C96 N93 1.314 . S
C96 C94 1.353 . S
C96 H154 0.930 . S
C97 N93 1.279 . S
C97 C95 1.358 . S
C97 H155 0.930 . S
C98 C101 1.348 . S
C98 C102 1.356 . S
C98 O149 1.325 . S
C99 N100 1.279 . S
C99 C102 1.358 . S
C99 H156 0.930 . S
N100 C99 1.279 . S
N100 C103 1.314 . S
C101 C98 1.348 . S
C101 C103 1.353 . S
C101 H157 0.929 . S
C102 C98 1.356 . S
C102 C99 1.358 . S
C102 H158 0.930 1_545 S
C103 N100 1.314 . S
C103 C101 1.353 . S
C103 H159 0.930 . S
C104 N105 1.314 . S
C104 C109 1.353 . S
C104 H110 0.930 . S
N105 Li88 1.990 1_455 S
N105 C104 1.314 . S
N105 C107 1.279 1_455 S
C106 C107 1.358 . S
C106 C108 1.356 1_655 S
C106 H160 0.930 . S
C107 N105 1.279 1_655 S
C107 C106 1.358 . S
C107 H111 0.930 . S
C108 C106 1.356 1_455 S
C108 C109 1.348 . S
C109 C104 1.353 . S
C109 C108 1.348 . S
C109 H161 0.929 . S
H110 C104 0.930 . S
H111 C107 0.930 . S
C112 N113 1.314 1_565 S
C112 C114 1.353 . S
C112 H118 0.930 . S
N113 Li89 1.990 . S
N113 C112 1.314 1_545 S
N113 C116 1.279 . S
C114 C112 1.353 . S
C114 C117 1.348 . S
C114 H162 0.929 . S
C115 C116 1.358 . S
C115 C117 1.356 1_545 S
C115 H163 0.930 . S
C116 N113 1.279 . S
C116 C115 1.358 . S
C116 H119 0.930 . S
C117 C114 1.348 . S
C117 C115 1.356 1_565 S
H118 C112 0.930 . S
H119 C116 0.930 . S
C120 C122 1.348 . S
C120 C123 1.356 . S
C120 O150 1.325 . S
N121 C124 1.314 . S
N121 C125 1.279 . S
C122 C120 1.348 . S
C122 C124 1.353 . S
C122 H164 0.929 1_545 S
C123 C120 1.356 . S
C123 C125 1.358 . S
C123 H165 0.930 . S
C124 N121 1.314 . S
C124 C122 1.353 . S
C124 H166 0.944 . S
C125 N121 1.279 . S
C125 C123 1.358 . S
C125 H167 0.930 . S
C126 C127 1.348 . S
C126 C128 1.356 . S
C126 O151 1.325 . S
C127 C126 1.348 . S
C127 C129 1.353 . S
C127 H168 0.929 . S
C128 C126 1.356 . S
C128 C130 1.358 . S
C128 H169 0.930 . S
C129 C127 1.353 . S
C129 N131 1.314 . S
C129 H170 0.930 . S
C130 C128 1.358 . S
C130 N131 1.279 . S
C130 H171 0.930 . S
N131 C129 1.314 . S
N131 C130 1.279 . S
C132 C134 1.353 . S
C132 N135 1.314 1_565 S
C132 H138 0.930 1_565 S
C133 N135 1.279 1_465 S
C133 C136 1.358 . S
C133 H139 0.930 . S
C134 C132 1.353 . S
C134 C137 1.348 1_655 S
C134 H172 0.929 . S
N135 Li90 1.990 . S
N135 C132 1.314 1_545 S
N135 C133 1.279 1_645 S
C136 C133 1.358 . S
C136 C137 1.356 . S
C136 H173 0.930 . S
C137 C134 1.348 1_455 S
C137 C136 1.356 . S
H138 C132 0.930 1_545 S
H139 C133 0.930 . S
C140 N141 1.314 . S
C140 C142 1.353 . S
C140 H146 0.935 . S
N141 Li91 1.990 . S
N141 C140 1.314 . S
N141 C144 1.279 . S
C142 C140 1.353 . S
C142 C145 1.348 . S
C142 H174 0.929 . S
C143 C144 1.358 . S
C143 C145 1.356 . S
C143 H175 0.930 . S
C144 N141 1.279 . S
C144 C143 1.358 . S
C144 H147 0.930 . S
C145 C142 1.348 . S
C145 C143 1.356 . S
H146 C140 0.935 . S
H147 C144 0.930 . S
O148 Li88 1.956 . S
O148 Li89 1.970 . S
O148 Li90 1.961 . S
O148 C92 1.325 . S
O149 Li88 1.970 . S
O149 Li89 1.956 . S
O149 Li91 1.961 1_645 S
O149 C98 1.325 . S
O150 Li88 1.961 1_455 S
O150 Li90 1.956 1_455 S
O150 Li91 1.970 1_545 S
O150 C120 1.325 . S
O151 Li89 1.961 1_565 S
O151 Li90 1.970 1_565 S
O151 Li91 1.956 1_655 S
O151 C126 1.325 . S
H152 C94 0.929 . S
H153 C95 0.930 . S
H154 C96 0.930 . S
H155 C97 0.930 . S
H156 C99 0.930 . S
H157 C101 0.929 . S
H158 C102 0.930 1_565 S
H159 C103 0.930 . S
H160 C106 0.930 . S
H161 C109 0.929 . S
H162 C114 0.929 . S
H163 C115 0.930 . S
H164 C122 0.929 1_565 S
H165 C123 0.930 . S
H166 C124 0.944 . S
H167 C125 0.930 . S
H168 C127 0.929 . S
H169 C128 0.930 . S
H170 C129 0.930 . S
H171 C130 0.930 . S
H172 C134 0.929 . S
H173 C136 0.930 . S
H174 C142 0.929 . S
H175 C143 0.930 . S
Li176 N193 1.990 . S
Li176 O236 1.956 . S
Li176 O237 1.970 . S
Li176 O238 1.961 . S
Li177 N201 1.990 . S
Li177 O236 1.970 . S
Li177 O237 1.956 . S
Li177 O239 1.961 . S
Li178 N223 1.990 . S
Li178 O236 1.961 . S
Li178 O238 1.956 . S
Li178 O239 1.970 . S
Li179 N229 1.990 . S
Li179 O237 1.961 . S
Li179 O238 1.970 . S
Li179 O239 1.956 . S
C180 C182 1.348 . S
C180 C183 1.356 . S
C180 O236 1.325 . S
N181 C184 1.314 . S
N181 C185 1.279 . S
C182 C180 1.348 . S
C182 C184 1.353 . S
C182 H240 0.929 . S
C183 C180 1.356 . S
C183 C185 1.358 . S
C183 H241 0.930 . S
C184 N181 1.314 . S
C184 C182 1.353 . S
C184 H242 0.930 . S
C185 N181 1.279 . S
C185 C183 1.358 . S
C185 H243 0.930 . S
C186 C189 1.348 . S
C186 C190 1.356 . S
C186 O237 1.325 . S
C187 N188 1.279 . S
C187 C190 1.358 . S
C187 H244 0.930 . S
N188 C187 1.279 . S
N188 C191 1.314 . S
C189 C186 1.348 . S
C189 C191 1.353 . S
C189 H245 0.929 . S
C190 C186 1.356 . S
C190 C187 1.358 . S
C190 H246 0.930 . S
C191 N188 1.314 . S
C191 C189 1.353 . S
C191 H247 0.930 . S
C192 N193 1.314 . S
C192 C197 1.353 . S
C192 H198 0.930 . S
N193 Li176 1.990 . S
N193 C192 1.314 . S
N193 C195 1.279 . S
C194 C195 1.358 . S
C194 C196 1.356 . S
C194 H248 0.930 . S
C195 N193 1.279 . S
C195 C194 1.358 . S
C195 H199 0.930 . S
C196 C194 1.356 . S
C196 C197 1.348 . S
C197 C192 1.353 . S
C197 C196 1.348 . S
C197 H249 0.929 . S
H198 C192 0.930 . S
H199 C195 0.930 . S
C200 N201 1.314 . S
C200 C202 1.353 . S
C200 H206 0.930 . S
N201 Li177 1.990 . S
N201 C200 1.314 . S
N201 C204 1.279 . S
C202 C200 1.353 . S
C202 C205 1.348 . S
C202 H250 0.929 . S
C203 C204 1.358 . S
C203 C205 1.356 . S
C203 H251 0.930 . S
C204 N201 1.279 . S
C204 C203 1.358 . S
C204 H207 0.930 . S
C205 C202 1.348 . S
C205 C203 1.356 . S
H206 C200 0.930 . S
H207 C204 0.930 . S
C208 C210 1.348 . S
C208 C211 1.356 . S
C208 O238 1.325 . S
N209 C212 1.314 . S
N209 C213 1.279 . S
C210 C208 1.348 . S
C210 C212 1.353 . S
C210 H252 0.929 . S
C211 C208 1.356 . S
C211 C213 1.358 . S
C211 H253 0.930 . S
C212 N209 1.314 . S
C212 C210 1.353 . S
C212 H254 0.930 . S
C213 N209 1.279 . S
C213 C211 1.358 . S
C213 H255 0.930 . S
C214 C215 1.348 . S
C214 C216 1.356 . S
C214 O239 1.325 . S
C215 C214 1.348 . S
C215 C217 1.353 . S
C215 H256 0.929 . S
C216 C214 1.356 . S
C216 C218 1.358 . S
C216 H257 0.930 . S
C217 C215 1.353 . S
C217 N219 1.314 . S
C217 H258 0.930 . S
C218 C216 1.358 . S
C218 N219 1.279 . S
C218 H259 0.930 . S
N219 C217 1.314 . S
N219 C218 1.279 . S
C220 C222 1.353 . S
C220 N223 1.314 . S
C220 H226 0.930 . S
C221 N223 1.279 . S
C221 C224 1.358 . S
C221 H227 0.930 . S
C222 C220 1.353 . S
C222 C225 1.348 . S
C222 H260 0.929 . S
N223 Li178 1.990 . S
N223 C220 1.314 . S
N223 C221 1.279 . S
C224 C221 1.358 . S
C224 C225 1.356 . S
C224 H261 0.930 . S
C225 C222 1.348 . S
C225 C224 1.356 . S
H226 C220 0.930 . S
H227 C221 0.930 . S
C228 N229 1.314 . S
C228 C230 1.353 . S
C228 H234 0.930 . S
N229 Li179 1.990 . S
N229 C228 1.314 . S
N229 C232 1.279 . S
C230 C228 1.353 . S
C230 C233 1.348 . S
C230 H262 0.929 . S
C231 C232 1.358 . S
C231 C233 1.356 . S
C231 H263 0.930 . S
C232 N229 1.279 . S
C232 C231 1.358 . S
C232 H235 0.930 . S
C233 C230 1.348 . S
C233 C231 1.356 . S
H234 C228 0.930 . S
H235 C232 0.930 . S
O236 Li176 1.956 . S
O236 Li177 1.970 . S
O236 Li178 1.961 . S
O236 C180 1.325 . S
O237 Li176 1.970 . S
O237 Li177 1.956 . S
O237 Li179 1.961 . S
O237 C186 1.325 . S
O238 Li176 1.961 . S
O238 Li178 1.956 . S
O238 Li179 1.970 . S
O238 C208 1.325 . S
O239 Li177 1.961 . S
O239 Li178 1.970 . S
O239 Li179 1.956 . S
O239 C214 1.325 . S
H240 C182 0.929 . S
H241 C183 0.930 . S
H242 C184 0.930 . S
H243 C185 0.930 . S
H244 C187 0.930 . S
H245 C189 0.929 . S
H246 C190 0.930 . S
H247 C191 0.930 . S
H248 C194 0.930 . S
H249 C197 0.929 . S
H250 C202 0.929 . S
H251 C203 0.930 . S
H252 C210 0.929 . S
H253 C211 0.930 . S
H254 C212 0.930 . S
H255 C213 0.930 . S
H256 C215 0.929 . S
H257 C216 0.930 . S
H258 C217 0.930 . S
H259 C218 0.930 . S
H260 C222 0.929 . S
H261 C224 0.930 . S
H262 C230 0.929 . S
H263 C231 0.930 . S
Li264 N281 1.984 1_565 S
Li264 O324 1.956 . S
Li264 O325 1.970 . S
Li264 O326 1.961 1_565 S
Li265 N289 1.990 . S
Li265 O324 1.970 . S
Li265 O325 1.956 . S
Li265 O327 1.961 1_554 S
Li266 N311 1.992 . S
Li266 O324 1.961 . S
Li266 O326 1.956 1_565 S
Li266 O327 1.970 1_554 S
Li267 N317 1.990 . S
Li267 O325 1.961 1_546 S
Li267 O326 1.970 1_556 S
Li267 O327 1.956 1_545 S
C268 C270 1.348 . S
C268 C271 1.356 . S
C268 O324 1.325 . S
N269 C272 1.314 . S
N269 C273 1.279 . S
C270 C268 1.348 . S
C270 C272 1.353 . S
C270 H328 0.929 . S
C271 C268 1.356 . S
C271 C273 1.358 . S
C271 H329 0.930 . S
C272 N269 1.314 . S
C272 C270 1.353 . S
C272 H330 0.930 . S
C273 N269 1.279 . S
C273 C271 1.358 . S
C273 H331 0.930 . S
C274 C277 1.348 . S
C274 C278 1.356 . S
C274 O325 1.325 . S
C275 N276 1.279 . S
C275 C278 1.358 . S
C275 H332 0.930 . S
N276 C275 1.279 . S
N276 C279 1.314 . S
C277 C274 1.348 . S
C277 C279 1.353 . S
C277 H333 0.929 . S
C278 C274 1.356 . S
C278 C275 1.358 . S
C278 H334 0.930 1_554 S
C279 N276 1.314 . S
C279 C277 1.353 . S
C279 H335 0.930 . S
C280 N281 1.335 . S
C280 C285 1.353 . S
C280 H286 0.930 . S
N281 Li264 1.984 1_545 S
N281 C280 1.335 . S
N281 C283 1.266 1_545 S
C282 C283 1.358 . S
C282 C284 1.356 1_565 S
C282 H336 0.930 . S
C283 N281 1.266 1_565 S
C283 C282 1.358 . S
C283 H287 0.930 . S
C284 C282 1.356 1_545 S
C284 C285 1.348 . S
C285 C280 1.353 . S
C285 C284 1.348 . S
C285 H337 0.929 . S
H286 C280 0.930 . S
H287 C283 0.930 . S
C288 N289 1.314 1_556 S
C288 C290 1.353 . S
C288 H294 0.930 . S
N289 Li265 1.990 . S
N289 C288 1.314 1_554 S
N289 C292 1.279 . S
C290 C288 1.353 . S
C290 C293 1.348 . S
C290 H338 0.929 . S
C291 C292 1.358 . S
C291 C293 1.356 1_554 S
C291 H339 0.930 . S
C292 N289 1.279 . S
C292 C291 1.358 . S
C292 H295 0.930 . S
C293 C290 1.348 . S
C293 C291 1.356 1_556 S
H294 C288 0.930 . S
H295 C292 0.930 . S
C296 C298 1.348 . S
C296 C299 1.356 . S
C296 O326 1.325 . S
N297 C300 1.314 . S
N297 C301 1.279 . S
C298 C296 1.348 . S
C298 C300 1.353 . S
C298 H340 0.929 1_554 S
C299 C296 1.356 . S
C299 C301 1.358 . S
C299 H341 0.930 . S
C300 N297 1.314 . S
C300 C298 1.353 . S
C300 H342 0.925 1_554 S
C301 N297 1.279 . S
C301 C299 1.358 . S
C301 H343 0.930 . S
C302 C303 1.348 . S
C302 C304 1.356 . S
C302 O327 1.325 . S
C303 C302 1.348 . S
C303 C305 1.353 . S
C303 H344 0.929 . S
C304 C302 1.356 . S
C304 C306 1.358 . S
C304 H345 0.930 . S
C305 C303 1.353 . S
C305 N307 1.314 . S
C305 H346 0.930 . S
C306 C304 1.358 . S
C306 N307 1.279 . S
C306 H347 0.930 . S
N307 C305 1.314 . S
N307 C306 1.279 . S
C308 C310 1.353 . S
C308 N311 1.313 1_556 S
C308 H314 0.929 1_556 S
C309 N311 1.277 1_546 S
C309 C312 1.358 . S
C309 H315 0.930 . S
C310 C308 1.353 . S
C310 C313 1.348 1_565 S
C310 H348 0.929 . S
N311 Li266 1.992 . S
N311 C308 1.313 1_554 S
N311 C309 1.277 1_564 S
C312 C309 1.358 . S
C312 C313 1.356 . S
C312 H349 0.930 . S
C313 C310 1.348 1_545 S
C313 C312 1.356 . S
H314 C308 0.929 1_554 S
H315 C309 0.930 . S
C316 N317 1.314 . S
C316 C318 1.353 . S
C316 H322 0.930 . S
N317 Li267 1.990 . S
N317 C316 1.314 . S
N317 C320 1.279 . S
C318 C316 1.353 . S
C318 C321 1.348 . S
C318 H350 0.929 . S
C319 C320 1.358 . S
C319 C321 1.356 . S
C319 H351 0.930 . S
C320 N317 1.279 . S
C320 C319 1.358 . S
C320 H323 0.930 . S
C321 C318 1.348 . S
C321 C319 1.356 . S
H322 C316 0.930 . S
H323 C320 0.930 . S
O324 Li264 1.956 . S
O324 Li265 1.970 . S
O324 Li266 1.961 . S
O324 C268 1.325 . S
O325 Li264 1.970 . S
O325 Li265 1.956 . S
O325 Li267 1.961 1_564 S
O325 C274 1.325 . S
O326 Li264 1.961 1_545 S
O326 Li266 1.956 1_545 S
O326 Li267 1.970 1_554 S
O326 C296 1.325 . S
O327 Li265 1.961 1_556 S
O327 Li266 1.970 1_556 S
O327 Li267 1.956 1_565 S
O327 C302 1.325 . S
H328 C270 0.929 . S
H329 C271 0.930 . S
H330 C272 0.930 . S
H331 C273 0.930 . S
H332 C275 0.930 . S
H333 C277 0.929 . S
H334 C278 0.930 1_556 S
H335 C279 0.930 . S
H336 C282 0.930 . S
H337 C285 0.929 . S
H338 C290 0.929 . S
H339 C291 0.930 . S
H340 C298 0.929 1_556 S
H341 C299 0.930 . S
H342 C300 0.925 1_556 S
H343 C301 0.930 . S
H344 C303 0.929 . S
H345 C304 0.930 . S
H346 C305 0.930 . S
H347 C306 0.930 . S
H348 C310 0.929 . S
H349 C312 0.930 . S
H350 C318 0.929 . S
H351 C319 0.930 . S
Li352 N369 1.990 . S
Li352 O412 1.956 . S
Li352 O413 1.970 . S
Li352 O414 1.961 . S
Li353 N377 1.990 . S
Li353 O412 1.970 . S
Li353 O413 1.956 . S
Li353 O415 1.961 . S
Li354 N399 1.990 . S
Li354 O412 1.961 . S
Li354 O414 1.956 . S
Li354 O415 1.970 . S
Li355 N405 1.990 . S
Li355 O413 1.961 . S
Li355 O414 1.970 . S
Li355 O415 1.956 . S
C356 C358 1.348 . S
C356 C359 1.356 . S
C356 O412 1.325 . S
N357 C360 1.314 . S
N357 C361 1.279 . S
C358 C356 1.348 . S
C358 C360 1.353 . S
C358 H416 0.929 . S
C359 C356 1.356 . S
C359 C361 1.358 . S
C359 H417 0.930 . S
C360 N357 1.314 . S
C360 C358 1.353 . S
C360 H418 0.930 . S
C361 N357 1.279 . S
C361 C359 1.358 . S
C361 H419 0.930 . S
C362 C365 1.348 . S
C362 C366 1.356 . S
C362 O413 1.325 . S
C363 N364 1.279 . S
C363 C366 1.358 . S
C363 H420 0.930 . S
N364 C363 1.279 . S
N364 C367 1.314 . S
C365 C362 1.348 . S
C365 C367 1.353 . S
C365 H421 0.929 . S
C366 C362 1.356 . S
C366 C363 1.358 . S
C366 H422 0.930 . S
C367 N364 1.314 . S
C367 C365 1.353 . S
C367 H423 0.930 . S
C368 N369 1.314 . S
C368 C373 1.353 . S
C368 H374 0.930 . S
N369 Li352 1.990 . S
N369 C368 1.314 . S
N369 C371 1.279 . S
C370 C371 1.358 . S
C370 C372 1.356 . S
C370 H424 0.930 . S
C371 N369 1.279 . S
C371 C370 1.358 . S
C371 H375 0.930 . S
C372 C370 1.356 . S
C372 C373 1.348 . S
C373 C368 1.353 . S
C373 C372 1.348 . S
C373 H425 0.929 . S
H374 C368 0.930 . S
H375 C371 0.930 . S
C376 N377 1.314 . S
C376 C378 1.353 . S
C376 H382 0.930 . S
N377 Li353 1.990 . S
N377 C376 1.314 . S
N377 C380 1.279 . S
C378 C376 1.353 . S
C378 C381 1.348 . S
C378 H426 0.929 . S
C379 C380 1.358 . S
C379 C381 1.356 . S
C379 H427 0.930 . S
C380 N377 1.279 . S
C380 C379 1.358 . S
C380 H383 0.930 . S
C381 C378 1.348 . S
C381 C379 1.356 . S
H382 C376 0.930 . S
H383 C380 0.930 . S
C384 C386 1.348 . S
C384 C387 1.356 . S
C384 O414 1.325 . S
N385 C388 1.314 . S
N385 C389 1.279 . S
C386 C384 1.348 . S
C386 C388 1.353 . S
C386 H428 0.929 . S
C387 C384 1.356 . S
C387 C389 1.358 . S
C387 H429 0.930 . S
C388 N385 1.314 . S
C388 C386 1.353 . S
C388 H430 0.930 . S
C389 N385 1.279 . S
C389 C387 1.358 . S
C389 H431 0.930 . S
C390 C391 1.348 . S
C390 C392 1.356 . S
C390 O415 1.325 . S
C391 C390 1.348 . S
C391 C393 1.353 . S
C391 H432 0.929 . S
C392 C390 1.356 . S
C392 C394 1.358 . S
C392 H433 0.930 . S
C393 C391 1.353 . S
C393 N395 1.314 . S
C393 H434 0.930 . S
C394 C392 1.358 . S
C394 N395 1.279 . S
C394 H435 0.930 . S
N395 C393 1.314 . S
N395 C394 1.279 . S
C396 C398 1.353 . S
C396 N399 1.314 . S
C396 H402 0.930 . S
C397 N399 1.279 . S
C397 C400 1.358 . S
C397 H403 0.930 . S
C398 C396 1.353 . S
C398 C401 1.348 . S
C398 H436 0.929 . S
N399 Li354 1.990 . S
N399 C396 1.314 . S
N399 C397 1.279 . S
C400 C397 1.358 . S
C400 C401 1.356 . S
C400 H437 0.930 . S
C401 C398 1.348 . S
C401 C400 1.356 . S
H402 C396 0.930 . S
H403 C397 0.930 . S
C404 N405 1.314 . S
C404 C406 1.353 . S
C404 H410 0.930 . S
N405 Li355 1.990 . S
N405 C404 1.314 . S
N405 C408 1.279 . S
C406 C404 1.353 . S
C406 C409 1.348 . S
C406 H438 0.929 . S
C407 C408 1.358 . S
C407 C409 1.356 . S
C407 H439 0.930 . S
C408 N405 1.279 . S
C408 C407 1.358 . S
C408 H411 0.930 . S
C409 C406 1.348 . S
C409 C407 1.356 . S
H410 C404 0.930 . S
H411 C408 0.930 . S
O412 Li352 1.956 . S
O412 Li353 1.970 . S
O412 Li354 1.961 . S
O412 C356 1.325 . S
O413 Li352 1.970 . S
O413 Li353 1.956 . S
O413 Li355 1.961 . S
O413 C362 1.325 . S
O414 Li352 1.961 . S
O414 Li354 1.956 . S
O414 Li355 1.970 . S
O414 C384 1.325 . S
O415 Li353 1.961 . S
O415 Li354 1.970 . S
O415 Li355 1.956 . S
O415 C390 1.325 . S
H416 C358 0.929 . S
H417 C359 0.930 . S
H418 C360 0.930 . S
H419 C361 0.930 . S
H420 C363 0.930 . S
H421 C365 0.929 . S
H422 C366 0.930 . S
H423 C367 0.930 . S
H424 C370 0.930 . S
H425 C373 0.929 . S
H426 C378 0.929 . S
H427 C379 0.930 . S
H428 C386 0.929 . S
H429 C387 0.930 . S
H430 C388 0.930 . S
H431 C389 0.930 . S
H432 C391 0.929 . S
H433 C392 0.930 . S
H434 C393 0.930 . S
H435 C394 0.930 . S
H436 C398 0.929 . S
H437 C400 0.930 . S
H438 C406 0.929 . S
H439 C407 0.930 . S
Li440 N457 1.990 . S
Li440 O500 1.956 . S
Li440 O501 1.970 . S
Li440 O502 1.961 1_545 S
Li441 N465 1.990 . S
Li441 O500 1.970 . S
Li441 O501 1.956 . S
Li441 O503 1.961 . S
Li442 N487 1.990 . S
Li442 O500 1.961 1_565 S
Li442 O502 1.956 . S
Li442 O503 1.970 1_565 S
Li443 N493 1.996 . S
Li443 O501 1.961 . S
Li443 O502 1.970 1_545 S
Li443 O503 1.956 . S
C444 C446 1.348 . S
C444 C447 1.356 . S
C444 O500 1.325 . S
N445 C448 1.314 . S
N445 C449 1.279 . S
C446 C444 1.348 . S
C446 C448 1.353 . S
C446 H504 0.929 . S
C447 C444 1.356 . S
C447 C449 1.358 . S
C447 H505 0.930 1_545 S
C448 N445 1.314 . S
C448 C446 1.353 . S
C448 H506 0.930 . S
C449 N445 1.279 . S
C449 C447 1.358 . S
C449 H507 0.930 . S
C450 C453 1.348 . S
C450 C454 1.356 . S
C450 O501 1.325 . S
C451 N452 1.279 . S
C451 C454 1.358 . S
C451 H508 0.930 . S
N452 C451 1.279 . S
N452 C455 1.314 . S
C453 C450 1.348 . S
C453 C455 1.353 . S
C453 H509 0.929 . S
C454 C450 1.356 . S
C454 C451 1.358 . S
C454 H510 0.930 . S
C455 N452 1.314 . S
C455 C453 1.353 . S
C455 H511 0.930 . S
C456 N457 1.314 1_565 S
C456 C461 1.353 . S
C456 H462 0.930 . S
N457 Li440 1.990 . S
N457 C456 1.314 1_545 S
N457 C459 1.279 . S
C458 C459 1.358 . S
C458 C460 1.356 1_545 S
C458 H512 0.930 . S
C459 N457 1.279 . S
C459 C458 1.358 . S
C459 H463 0.930 . S
C460 C458 1.356 1_565 S
C460 C461 1.348 . S
C461 C456 1.353 . S
C461 C460 1.348 . S
C461 H513 0.929 . S
H462 C456 0.930 . S
H463 C459 0.930 . S
C464 N465 1.314 . S
C464 C466 1.353 . S
C464 H470 0.930 . S
N465 Li441 1.990 . S
N465 C464 1.314 . S
N465 C468 1.279 . S
C466 C464 1.353 . S
C466 C469 1.348 . S
C466 H514 0.929 . S
C467 C468 1.358 . S
C467 C469 1.356 . S
C467 H515 0.930 . S
C468 N465 1.279 . S
C468 C467 1.358 . S
C468 H471 0.930 . S
C469 C466 1.348 . S
C469 C467 1.356 . S
H470 C464 0.930 . S
H471 C468 0.930 . S
C472 C474 1.348 . S
C472 C475 1.356 . S
C472 O502 1.325 . S
N473 C476 1.314 . S
N473 C477 1.279 . S
C474 C472 1.348 . S
C474 C476 1.353 . S
C474 H516 0.929 . S
C475 C472 1.356 . S
C475 C477 1.358 . S
C475 H517 0.930 . S
C476 N473 1.314 . S
C476 C474 1.353 . S
C476 H518 0.930 . S
C477 N473 1.279 . S
C477 C475 1.358 . S
C477 H519 0.930 . S
C478 C479 1.348 . S
C478 C480 1.356 . S
C478 O503 1.325 . S
C479 C478 1.348 . S
C479 C481 1.353 . S
C479 H520 0.929 1_545 S
C480 C478 1.356 . S
C480 C482 1.358 . S
C480 H521 0.930 . S
C481 C479 1.353 . S
C481 N483 1.314 . S
C481 H522 0.930 1_545 S
C482 C480 1.358 . S
C482 N483 1.279 . S
C482 H523 0.930 . S
N483 C481 1.314 . S
N483 C482 1.279 . S
C484 C486 1.353 . S
C484 N487 1.314 . S
C484 H490 0.938 . S
C485 N487 1.279 . S
C485 C488 1.358 . S
C485 H491 0.930 . S
C486 C484 1.353 . S
C486 C489 1.348 . S
C486 H524 0.929 . S
N487 Li442 1.990 . S
N487 C484 1.314 . S
N487 C485 1.279 . S
C488 C485 1.358 . S
C488 C489 1.356 . S
C488 H525 0.930 . S
C489 C486 1.348 . S
C489 C488 1.356 . S
H490 C484 0.938 . S
H491 C485 0.930 . S
C492 N493 1.311 1_565 S
C492 C494 1.353 . S
C492 H498 0.926 1_565 S
N493 Li443 1.996 . S
N493 C492 1.311 1_545 S
N493 C496 1.274 1_545 S
C494 C492 1.353 . S
C494 C497 1.348 . S
C494 H526 0.929 . S
C495 C496 1.358 . S
C495 C497 1.356 . S
C495 H527 0.930 . S
C496 N493 1.274 1_565 S
C496 C495 1.358 . S
C496 H499 0.930 . S
C497 C494 1.348 . S
C497 C495 1.356 . S
H498 C492 0.926 1_545 S
H499 C496 0.930 . S
O500 Li440 1.956 . S
O500 Li441 1.970 . S
O500 Li442 1.961 1_545 S
O500 C444 1.325 . S
O501 Li440 1.970 . S
O501 Li441 1.956 . S
O501 Li443 1.961 . S
O501 C450 1.325 . S
O502 Li440 1.961 1_565 S
O502 Li442 1.956 . S
O502 Li443 1.970 1_565 S
O502 C472 1.325 . S
O503 Li441 1.961 . S
O503 Li442 1.970 1_545 S
O503 Li443 1.956 . S
O503 C478 1.325 . S
H504 C446 0.929 . S
H505 C447 0.930 1_565 S
H506 C448 0.930 . S
H507 C449 0.930 . S
H508 C451 0.930 . S
H509 C453 0.929 . S
H510 C454 0.930 . S
H511 C455 0.930 . S
H512 C458 0.930 . S
H513 C461 0.929 . S
H514 C466 0.929 . S
H515 C467 0.930 . S
H516 C474 0.929 . S
H517 C475 0.930 . S
H518 C476 0.930 . S
H519 C477 0.930 . S
H520 C479 0.929 1_565 S
H521 C480 0.930 . S
H522 C481 0.930 1_565 S
H523 C482 0.930 . S
H524 C486 0.929 . S
H525 C488 0.930 . S
H526 C494 0.929 . S
H527 C495 0.930 . S
Li528 N545 1.990 . S
Li528 O588 1.956 . S
Li528 O589 1.970 . S
Li528 O590 1.961 . S
Li529 N553 1.990 . S
Li529 O588 1.970 . S
Li529 O589 1.956 . S
Li529 O591 1.961 . S
Li530 N575 1.990 . S
Li530 O588 1.961 . S
Li530 O590 1.956 . S
Li530 O591 1.970 . S
Li531 N581 1.990 . S
Li531 O589 1.961 . S
Li531 O590 1.970 . S
Li531 O591 1.956 . S
C532 C534 1.348 . S
C532 C535 1.356 . S
C532 O588 1.325 . S
N533 C536 1.314 . S
N533 C537 1.279 . S
C534 C532 1.348 . S
C534 C536 1.353 . S
C534 H592 0.929 . S
C535 C532 1.356 . S
C535 C537 1.358 . S
C535 H593 0.930 . S
C536 N533 1.314 . S
C536 C534 1.353 . S
C536 H594 0.930 . S
C537 N533 1.279 . S
C537 C535 1.358 . S
C537 H595 0.930 . S
C538 C541 1.348 . S
C538 C542 1.356 . S
C538 O589 1.325 . S
C539 N540 1.279 . S
C539 C542 1.358 . S
C539 H596 0.930 . S
N540 C539 1.279 . S
N540 C543 1.314 . S
C541 C538 1.348 . S
C541 C543 1.353 . S
C541 H597 0.929 . S
C542 C538 1.356 . S
C542 C539 1.358 . S
C542 H598 0.930 . S
C543 N540 1.314 . S
C543 C541 1.353 . S
C543 H599 0.930 . S
C544 N545 1.314 . S
C544 C549 1.353 . S
C544 H550 0.930 . S
N545 Li528 1.990 . S
N545 C544 1.314 . S
N545 C547 1.279 . S
C546 C547 1.358 . S
C546 C548 1.356 . S
C546 H600 0.930 . S
C547 N545 1.279 . S
C547 C546 1.358 . S
C547 H551 0.930 . S
C548 C546 1.356 . S
C548 C549 1.348 . S
C549 C544 1.353 . S
C549 C548 1.348 . S
C549 H601 0.929 . S
H550 C544 0.930 . S
H551 C547 0.930 . S
C552 N553 1.314 . S
C552 C554 1.353 . S
C552 H558 0.930 . S
N553 Li529 1.990 . S
N553 C552 1.314 . S
N553 C556 1.279 . S
C554 C552 1.353 . S
C554 C557 1.348 . S
C554 H602 0.929 . S
C555 C556 1.358 . S
C555 C557 1.356 . S
C555 H603 0.930 . S
C556 N553 1.279 . S
C556 C555 1.358 . S
C556 H559 0.930 . S
C557 C554 1.348 . S
C557 C555 1.356 . S
H558 C552 0.930 . S
H559 C556 0.930 . S
C560 C562 1.348 . S
C560 C563 1.356 . S
C560 O590 1.325 . S
N561 C564 1.314 . S
N561 C565 1.279 . S
C562 C560 1.348 . S
C562 C564 1.353 . S
C562 H604 0.929 . S
C563 C560 1.356 . S
C563 C565 1.358 . S
C563 H605 0.930 . S
C564 N561 1.314 . S
C564 C562 1.353 . S
C564 H606 0.930 . S
C565 N561 1.279 . S
C565 C563 1.358 . S
C565 H607 0.930 . S
C566 C567 1.348 . S
C566 C568 1.356 . S
C566 O591 1.325 . S
C567 C566 1.348 . S
C567 C569 1.353 . S
C567 H608 0.929 . S
C568 C566 1.356 . S
C568 C570 1.358 . S
C568 H609 0.930 . S
C569 C567 1.353 . S
C569 N571 1.314 . S
C569 H610 0.930 . S
C570 C568 1.358 . S
C570 N571 1.279 . S
C570 H611 0.930 . S
N571 C569 1.314 . S
N571 C570 1.279 . S
C572 C574 1.353 . S
C572 N575 1.314 . S
C572 H578 0.930 . S
C573 N575 1.279 . S
C573 C576 1.358 . S
C573 H579 0.930 . S
C574 C572 1.353 . S
C574 C577 1.348 . S
C574 H612 0.929 . S
N575 Li530 1.990 . S
N575 C572 1.314 . S
N575 C573 1.279 . S
C576 C573 1.358 . S
C576 C577 1.356 . S
C576 H613 0.930 . S
C577 C574 1.348 . S
C577 C576 1.356 . S
H578 C572 0.930 . S
H579 C573 0.930 . S
C580 N581 1.314 . S
C580 C582 1.353 . S
C580 H586 0.930 . S
N581 Li531 1.990 . S
N581 C580 1.314 . S
N581 C584 1.279 . S
C582 C580 1.353 . S
C582 C585 1.348 . S
C582 H614 0.929 . S
C583 C584 1.358 . S
C583 C585 1.356 . S
C583 H615 0.930 . S
C584 N581 1.279 . S
C584 C583 1.358 . S
C584 H587 0.930 . S
C585 C582 1.348 . S
C585 C583 1.356 . S
H586 C580 0.930 . S
H587 C584 0.930 . S
O588 Li528 1.956 . S
O588 Li529 1.970 . S
O588 Li530 1.961 . S
O588 C532 1.325 . S
O589 Li528 1.970 . S
O589 Li529 1.956 . S
O589 Li531 1.961 . S
O589 C538 1.325 . S
O590 Li528 1.961 . S
O590 Li530 1.956 . S
O590 Li531 1.970 . S
O590 C560 1.325 . S
O591 Li529 1.961 . S
O591 Li530 1.970 . S
O591 Li531 1.956 . S
O591 C566 1.325 . S
H592 C534 0.929 . S
H593 C535 0.930 . S
H594 C536 0.930 . S
H595 C537 0.930 . S
H596 C539 0.930 . S
H597 C541 0.929 . S
H598 C542 0.930 . S
H599 C543 0.930 . S
H600 C546 0.930 . S
H601 C549 0.929 . S
H602 C554 0.929 . S
H603 C555 0.930 . S
H604 C562 0.929 . S
H605 C563 0.930 . S
H606 C564 0.930 . S
H607 C565 0.930 . S
H608 C567 0.929 . S
H609 C568 0.930 . S
H610 C569 0.930 . S
H611 C570 0.930 . S
H612 C574 0.929 . S
H613 C576 0.930 . S
H614 C582 0.929 . S
H615 C583 0.930 . S
Li616 N633 1.990 . S
Li616 O676 1.956 1_655 S
Li616 O677 1.970 1_565 S
Li616 O678 1.961 . S
Li617 N641 1.990 . S
Li617 O676 1.970 1_544 S
Li617 O677 1.956 1_454 S
Li617 O679 1.961 1_445 S
Li618 N663 1.990 1_655 S
Li618 O676 1.961 1_655 S
Li618 O678 1.956 . S
Li618 O679 1.970 1_556 S
Li619 N669 1.990 1_556 S
Li619 O677 1.961 1_565 S
Li619 O678 1.970 . S
Li619 O679 1.956 1_556 S
C620 C622 1.348 . S
C620 C623 1.356 . S
C620 O676 1.325 . S
N621 C624 1.314 . S
N621 C625 1.279 . S
C622 C620 1.348 . S
C622 C624 1.353 . S
C622 H680 0.929 1_565 S
C623 C620 1.356 . S
C623 C625 1.358 . S
C623 H681 0.930 . S
C624 N621 1.314 . S
C624 C622 1.353 . S
C624 H682 0.939 . S
C625 N621 1.279 . S
C625 C623 1.358 . S
C625 H683 0.930 . S
C626 C629 1.348 . S
C626 C630 1.356 . S
C626 O677 1.325 . S
C627 N628 1.279 . S
C627 C630 1.358 . S
C627 H684 0.930 1_556 S
N628 C627 1.279 . S
N628 C631 1.314 . S
C629 C626 1.348 . S
C629 C631 1.353 . S
C629 H685 0.929 . S
C630 C626 1.356 . S
C630 C627 1.358 . S
C630 H686 0.930 1_556 S
C631 N628 1.314 . S
C631 C629 1.353 . S
C631 H687 0.930 . S
C632 N633 1.314 1_545 S
C632 C637 1.353 . S
C632 H638 0.930 1_545 S
N633 Li616 1.990 . S
N633 C632 1.314 1_565 S
N633 C635 1.279 1_665 S
C634 C635 1.358 . S
C634 C636 1.356 . S
C634 H688 0.930 . S
C635 N633 1.279 1_445 S
C635 C634 1.358 . S
C635 H639 0.930 . S
C636 C634 1.356 . S
C636 C637 1.348 1_455 S
C637 C632 1.353 . S
C637 C636 1.348 1_655 S
C637 H689 0.929 . S
H638 C632 0.930 1_565 S
H639 C635 0.930 . S
C640 N641 1.314 . S
C640 C642 1.353 . S
C640 H646 0.926 . S
N641 Li617 1.990 . S
N641 C640 1.314 . S
N641 C644 1.279 . S
C642 C640 1.353 . S
C642 C645 1.348 . S
C642 H690 0.929 . S
C643 C644 1.358 . S
C643 C645 1.356 . S
C643 H691 0.930 . S
C644 N641 1.279 . S
C644 C643 1.358 . S
C644 H647 0.930 . S
C645 C642 1.348 . S
C645 C643 1.356 . S
H646 C640 0.926 . S
H647 C644 0.930 . S
C648 C650 1.348 . S
C648 C651 1.356 . S
C648 O678 1.325 . S
N649 C652 1.314 . S
N649 C653 1.279 . S
C650 C648 1.348 . S
C650 C652 1.353 . S
C650 H692 0.929 . S
C651 C648 1.356 . S
C651 C653 1.358 . S
C651 H693 0.930 . S
C652 N649 1.314 . S
C652 C650 1.353 . S
C652 H694 0.930 . S
C653 N649 1.279 . S
C653 C651 1.358 . S
C653 H695 0.930 . S
C654 C655 1.348 . S
C654 C656 1.356 . S
C654 O679 1.325 . S
C655 C654 1.348 . S
C655 C657 1.353 . S
C655 H696 0.929 . S
C656 C654 1.356 . S
C656 C658 1.358 . S
C656 H697 0.930 1_565 S
C657 C655 1.353 . S
C657 N659 1.314 . S
C657 H698 0.930 . S
C658 C656 1.358 . S
C658 N659 1.279 . S
C658 H699 0.930 . S
N659 C657 1.314 . S
N659 C658 1.279 . S
C660 C662 1.353 . S
C660 N663 1.314 1_554 S
C660 H666 0.930 . S
C661 N663 1.279 1_655 S
C661 C664 1.358 . S
C661 H667 0.930 . S
C662 C660 1.353 . S
C662 C665 1.348 . S
C662 H700 0.929 . S
N663 Li618 1.990 1_455 S
N663 C660 1.314 1_556 S
N663 C661 1.279 1_455 S
C664 C661 1.358 . S
C664 C665 1.356 1_656 S
C664 H701 0.930 . S
C665 C662 1.348 . S
C665 C664 1.356 1_454 S
H666 C660 0.930 . S
H667 C661 0.930 . S
C668 N669 1.314 1_546 S
C668 C670 1.353 . S
C668 H674 0.930 . S
N669 Li619 1.990 1_554 S
N669 C668 1.314 1_564 S
N669 C672 1.279 . S
C670 C668 1.353 . S
C670 C673 1.348 1_556 S
C670 H702 0.929 . S
C671 C672 1.358 . S
C671 C673 1.356 1_565 S
C671 H703 0.930 . S
C672 N669 1.279 . S
C672 C671 1.358 . S
C672 H675 0.930 . S
C673 C670 1.348 1_554 S
C673 C671 1.356 1_545 S
H674 C668 0.930 . S
H675 C672 0.930 . S
O676 Li616 1.956 1_455 S
O676 Li617 1.970 1_566 S
O676 Li618 1.961 1_455 S
O676 C620 1.325 . S
O677 Li616 1.970 1_545 S
O677 Li617 1.956 1_656 S
O677 Li619 1.961 1_545 S
O677 C626 1.325 . S
O678 Li616 1.961 . S
O678 Li618 1.956 . S
O678 Li619 1.970 . S
O678 C648 1.325 . S
O679 Li617 1.961 1_665 S
O679 Li618 1.970 1_554 S
O679 Li619 1.956 1_554 S
O679 C654 1.325 . S
H680 C622 0.929 1_545 S
H681 C623 0.930 . S
H682 C624 0.939 . S
H683 C625 0.930 . S
H684 C627 0.930 1_554 S
H685 C629 0.929 . S
H686 C630 0.930 1_554 S
H687 C631 0.930 . S
H688 C634 0.930 . S
H689 C637 0.929 . S
H690 C642 0.929 . S
H691 C643 0.930 . S
H692 C650 0.929 . S
H693 C651 0.930 . S
H694 C652 0.930 . S
H695 C653 0.930 . S
H696 C655 0.929 . S
H697 C656 0.930 1_545 S
H698 C657 0.930 . S
H699 C658 0.930 . S
H700 C662 0.929 . S
H701 C664 0.930 . S
H702 C670 0.929 . S
H703 C671 0.930 . S
Li704 N721 1.990 . S
Li704 O764 1.956 . S
Li704 O765 1.970 . S
Li704 O766 1.961 . S
Li705 N729 1.990 . S
Li705 O764 1.970 . S
Li705 O765 1.956 . S
Li705 O767 1.961 . S
Li706 N751 1.990 . S
Li706 O764 1.961 . S
Li706 O766 1.956 . S
Li706 O767 1.970 . S
Li707 N757 1.990 . S
Li707 O765 1.961 . S
Li707 O766 1.970 . S
Li707 O767 1.956 . S
C708 C710 1.348 . S
C708 C711 1.356 . S
C708 O764 1.325 . S
N709 C712 1.314 . S
N709 C713 1.279 . S
C710 C708 1.348 . S
C710 C712 1.353 . S
C710 H768 0.929 . S
C711 C708 1.356 . S
C711 C713 1.358 . S
C711 H769 0.930 . S
C712 N709 1.314 . S
C712 C710 1.353 . S
C712 H770 0.930 . S
C713 N709 1.279 . S
C713 C711 1.358 . S
C713 H771 0.930 . S
C714 C717 1.348 . S
C714 C718 1.356 . S
C714 O765 1.325 . S
C715 N716 1.279 . S
C715 C718 1.358 . S
C715 H772 0.930 . S
N716 C715 1.279 . S
N716 C719 1.314 . S
C717 C714 1.348 . S
C717 C719 1.353 . S
C717 H773 0.929 . S
C718 C714 1.356 . S
C718 C715 1.358 . S
C718 H774 0.930 . S
C719 N716 1.314 . S
C719 C717 1.353 . S
C719 H775 0.930 . S
C720 N721 1.314 . S
C720 C725 1.353 . S
C720 H726 0.930 . S
N721 Li704 1.990 . S
N721 C720 1.314 . S
N721 C723 1.279 . S
C722 C723 1.358 . S
C722 C724 1.356 . S
C722 H776 0.930 . S
C723 N721 1.279 . S
C723 C722 1.358 . S
C723 H727 0.930 . S
C724 C722 1.356 . S
C724 C725 1.348 . S
C725 C720 1.353 . S
C725 C724 1.348 . S
C725 H777 0.929 . S
H726 C720 0.930 . S
H727 C723 0.930 . S
C728 N729 1.314 . S
C728 C730 1.353 . S
C728 H734 0.930 . S
N729 Li705 1.990 . S
N729 C728 1.314 . S
N729 C732 1.279 . S
C730 C728 1.353 . S
C730 C733 1.348 . S
C730 H778 0.929 . S
C731 C732 1.358 . S
C731 C733 1.356 . S
C731 H779 0.930 . S
C732 N729 1.279 . S
C732 C731 1.358 . S
C732 H735 0.930 . S
C733 C730 1.348 . S
C733 C731 1.356 . S
H734 C728 0.930 . S
H735 C732 0.930 . S
C736 C738 1.348 . S
C736 C739 1.356 . S
C736 O766 1.325 . S
N737 C740 1.314 . S
N737 C741 1.279 . S
C738 C736 1.348 . S
C738 C740 1.353 . S
C738 H780 0.929 . S
C739 C736 1.356 . S
C739 C741 1.358 . S
C739 H781 0.930 . S
C740 N737 1.314 . S
C740 C738 1.353 . S
C740 H782 0.930 . S
C741 N737 1.279 . S
C741 C739 1.358 . S
C741 H783 0.930 . S
C742 C743 1.348 . S
C742 C744 1.356 . S
C742 O767 1.325 . S
C743 C742 1.348 . S
C743 C745 1.353 . S
C743 H784 0.929 . S
C744 C742 1.356 . S
C744 C746 1.358 . S
C744 H785 0.930 . S
C745 C743 1.353 . S
C745 N747 1.314 . S
C745 H786 0.930 . S
C746 C744 1.358 . S
C746 N747 1.279 . S
C746 H787 0.930 . S
N747 C745 1.314 . S
N747 C746 1.279 . S
C748 C750 1.353 . S
C748 N751 1.314 . S
C748 H754 0.930 . S
C749 N751 1.279 . S
C749 C752 1.358 . S
C749 H755 0.930 . S
C750 C748 1.353 . S
C750 C753 1.348 . S
C750 H788 0.929 . S
N751 Li706 1.990 . S
N751 C748 1.314 . S
N751 C749 1.279 . S
C752 C749 1.358 . S
C752 C753 1.356 . S
C752 H789 0.930 . S
C753 C750 1.348 . S
C753 C752 1.356 . S
H754 C748 0.930 . S
H755 C749 0.930 . S
C756 N757 1.314 . S
C756 C758 1.353 . S
C756 H762 0.930 . S
N757 Li707 1.990 . S
N757 C756 1.314 . S
N757 C760 1.279 . S
C758 C756 1.353 . S
C758 C761 1.348 . S
C758 H790 0.929 . S
C759 C760 1.358 . S
C759 C761 1.356 . S
C759 H791 0.930 . S
C760 N757 1.279 . S
C760 C759 1.358 . S
C760 H763 0.930 . S
C761 C758 1.348 . S
C761 C759 1.356 . S
H762 C756 0.930 . S
H763 C760 0.930 . S
O764 Li704 1.956 . S
O764 Li705 1.970 . S
O764 Li706 1.961 . S
O764 C708 1.325 . S
O765 Li704 1.970 . S
O765 Li705 1.956 . S
O765 Li707 1.961 . S
O765 C714 1.325 . S
O766 Li704 1.961 . S
O766 Li706 1.956 . S
O766 Li707 1.970 . S
O766 C736 1.325 . S
O767 Li705 1.961 . S
O767 Li706 1.970 . S
O767 Li707 1.956 . S
O767 C742 1.325 . S
H768 C710 0.929 . S
H769 C711 0.930 . S
H770 C712 0.930 . S
H771 C713 0.930 . S
H772 C715 0.930 . S
H773 C717 0.929 . S
H774 C718 0.930 . S
H775 C719 0.930 . S
H776 C722 0.930 . S
H777 C725 0.929 . S
H778 C730 0.929 . S
H779 C731 0.930 . S
H780 C738 0.929 . S
H781 C739 0.930 . S
H782 C740 0.930 . S
H783 C741 0.930 . S
H784 C743 0.929 . S
H785 C744 0.930 . S
H786 C745 0.930 . S
H787 C746 0.930 . S
H788 C750 0.929 . S
H789 C752 0.930 . S
H790 C758 0.929 . S
H791 C759 0.930 . S
Li792 N809 1.990 1_455 S
Li792 O852 1.956 . S
Li792 O853 1.970 1_556 S
Li792 O854 1.961 1_455 S
Li793 N817 1.990 1_556 S
Li793 O852 1.970 . S
Li793 O853 1.956 1_556 S
Li793 O855 1.961 . S
Li794 N839 1.990 . S
Li794 O852 1.961 . S
Li794 O854 1.956 1_455 S
Li794 O855 1.970 . S
Li795 N845 1.990 . S
Li795 O853 1.961 1_655 S
Li795 O854 1.970 1_554 S
Li795 O855 1.956 1_654 S
C796 C798 1.348 . S
C796 C799 1.356 . S
C796 O852 1.325 . S
N797 C800 1.314 . S
N797 C801 1.279 . S
C798 C796 1.348 . S
C798 C800 1.353 . S
C798 H856 0.929 . S
C799 C796 1.356 . S
C799 C801 1.358 . S
C799 H857 0.930 . S
C800 N797 1.314 . S
C800 C798 1.353 . S
C800 H858 0.930 . S
C801 N797 1.279 . S
C801 C799 1.358 . S
C801 H859 0.930 . S
C802 C805 1.348 . S
C802 C806 1.356 . S
C802 O853 1.325 . S
C803 N804 1.279 . S
C803 C806 1.358 . S
C803 H860 0.930 . S
N804 C803 1.279 . S
N804 C807 1.314 . S
C805 C802 1.348 . S
C805 C807 1.353 . S
C805 H861 0.929 . S
C806 C802 1.356 . S
C806 C803 1.358 . S
C806 H862 0.930 . S
C807 N804 1.314 . S
C807 C805 1.353 . S
C807 H863 0.930 . S
C808 N809 1.314 1_554 S
C808 C813 1.353 . S
C808 H814 0.930 . S
N809 Li792 1.990 1_655 S
N809 C808 1.314 1_556 S
N809 C811 1.279 1_655 S
C810 C811 1.358 . S
C810 C812 1.356 1_456 S
C810 H864 0.930 . S
C811 N809 1.279 1_455 S
C811 C810 1.358 . S
C811 H815 0.930 . S
C812 C810 1.356 1_654 S
C812 C813 1.348 . S
C813 C808 1.353 . S
C813 C812 1.348 . S
C813 H865 0.929 . S
H814 C808 0.930 . S
H815 C811 0.930 . S
C816 N817 1.314 1_556 S
C816 C818 1.353 . S
C816 H822 0.930 . S
N817 Li793 1.990 1_554 S
N817 C816 1.314 1_554 S
N817 C820 1.279 . S
C818 C816 1.353 . S
C818 C821 1.348 1_556 S
C818 H866 0.929 . S
C819 C820 1.358 . S
C819 C821 1.356 . S
C819 H867 0.930 . S
C820 N817 1.279 . S
C820 C819 1.358 . S
C820 H823 0.930 . S
C821 C818 1.348 1_554 S
C821 C819 1.356 . S
H822 C816 0.930 . S
H823 C820 0.930 . S
C824 C826 1.348 . S
C824 C827 1.356 . S
C824 O854 1.325 . S
N825 C828 1.314 . S
N825 C829 1.279 . S
C826 C824 1.348 . S
C826 C828 1.353 . S
C826 H868 0.929 . S
C827 C824 1.356 . S
C827 C829 1.358 . S
C827 H869 0.930 . S
C828 N825 1.314 . S
C828 C826 1.353 . S
C828 H870 0.930 . S
C829 N825 1.279 . S
C829 C827 1.358 . S
C829 H871 0.930 . S
C830 C831 1.348 . S
C830 C832 1.356 . S
C830 O855 1.325 . S
C831 C830 1.348 . S
C831 C833 1.353 . S
C831 H872 0.929 . S
C832 C830 1.356 . S
C832 C834 1.358 . S
C832 H873 0.930 1_556 S
C833 C831 1.353 . S
C833 N835 1.314 . S
C833 H874 0.930 . S
C834 C832 1.358 . S
C834 N835 1.279 . S
C834 H875 0.930 1_556 S
N835 C833 1.314 . S
N835 C834 1.279 . S
C836 C838 1.353 . S
C836 N839 1.314 . S
C836 H842 0.930 . S
C837 N839 1.279 1_655 S
C837 C840 1.358 . S
C837 H843 0.930 . S
C838 C836 1.353 . S
C838 C841 1.348 1_455 S
C838 H876 0.929 . S
N839 Li794 1.990 . S
N839 C836 1.314 . S
N839 C837 1.279 1_455 S
C840 C837 1.358 . S
C840 C841 1.356 . S
C840 H877 0.930 . S
C841 C838 1.348 1_655 S
C841 C840 1.356 . S
H842 C836 0.930 . S
H843 C837 0.930 . S
C844 N845 1.314 . S
C844 C846 1.353 . S
C844 H850 0.930 . S
N845 Li795 1.990 . S
N845 C844 1.314 . S
N845 C848 1.279 . S
C846 C844 1.353 . S
C846 C849 1.348 . S
C846 H878 0.929 . S
C847 C848 1.358 . S
C847 C849 1.356 . S
C847 H879 0.930 . S
C848 N845 1.279 . S
C848 C847 1.358 . S
C848 H851 0.930 . S
C849 C846 1.348 . S
C849 C847 1.356 . S
H850 C844 0.930 . S
H851 C848 0.930 . S
O852 Li792 1.956 . S
O852 Li793 1.970 . S
O852 Li794 1.961 . S
O852 C796 1.325 . S
O853 Li792 1.970 1_554 S
O853 Li793 1.956 1_554 S
O853 Li795 1.961 1_455 S
O853 C802 1.325 . S
O854 Li792 1.961 1_655 S
O854 Li794 1.956 1_655 S
O854 Li795 1.970 1_556 S
O854 C824 1.325 . S
O855 Li793 1.961 . S
O855 Li794 1.970 . S
O855 Li795 1.956 1_456 S
O855 C830 1.325 . S
H856 C798 0.929 . S
H857 C799 0.930 . S
H858 C800 0.930 . S
H859 C801 0.930 . S
H860 C803 0.930 . S
H861 C805 0.929 . S
H862 C806 0.930 . S
H863 C807 0.930 . S
H864 C810 0.930 . S
H865 C813 0.929 . S
H866 C818 0.929 . S
H867 C819 0.930 . S
H868 C826 0.929 . S
H869 C827 0.930 . S
H870 C828 0.930 . S
H871 C829 0.930 . S
H872 C831 0.929 . S
H873 C832 0.930 1_554 S
H874 C833 0.930 . S
H875 C834 0.930 1_554 S
H876 C838 0.929 . S
H877 C840 0.930 . S
H878 C846 0.929 . S
H879 C847 0.930 . S
Li880 N897 1.990 . S
Li880 O940 1.956 . S
Li880 O941 1.970 . S
Li880 O942 1.961 . S
Li881 N905 1.990 . S
Li881 O940 1.970 . S
Li881 O941 1.956 . S
Li881 O943 1.961 . S
Li882 N927 1.990 . S
Li882 O940 1.961 . S
Li882 O942 1.956 . S
Li882 O943 1.970 . S
Li883 N933 1.990 . S
Li883 O941 1.961 . S
Li883 O942 1.970 . S
Li883 O943 1.956 . S
C884 C886 1.348 . S
C884 C887 1.356 . S
C884 O940 1.325 . S
N885 C888 1.314 . S
N885 C889 1.279 . S
C886 C884 1.348 . S
C886 C888 1.353 . S
C886 H944 0.929 . S
C887 C884 1.356 . S
C887 C889 1.358 . S
C887 H945 0.930 . S
C888 N885 1.314 . S
C888 C886 1.353 . S
C888 H946 0.930 . S
C889 N885 1.279 . S
C889 C887 1.358 . S
C889 H947 0.930 . S
C890 C893 1.348 . S
C890 C894 1.356 . S
C890 O941 1.325 . S
C891 N892 1.279 . S
C891 C894 1.358 . S
C891 H948 0.930 . S
N892 C891 1.279 . S
N892 C895 1.314 . S
C893 C890 1.348 . S
C893 C895 1.353 . S
C893 H949 0.929 . S
C894 C890 1.356 . S
C894 C891 1.358 . S
C894 H950 0.930 . S
C895 N892 1.314 . S
C895 C893 1.353 . S
C895 H951 0.930 . S
C896 N897 1.314 . S
C896 C901 1.353 . S
C896 H902 0.930 . S
N897 Li880 1.990 . S
N897 C896 1.314 . S
N897 C899 1.279 . S
C898 C899 1.358 . S
C898 C900 1.356 . S
C898 H952 0.930 . S
C899 N897 1.279 . S
C899 C898 1.358 . S
C899 H903 0.930 . S
C900 C898 1.356 . S
C900 C901 1.348 . S
C901 C896 1.353 . S
C901 C900 1.348 . S
C901 H953 0.929 . S
H902 C896 0.930 . S
H903 C899 0.930 . S
C904 N905 1.314 . S
C904 C906 1.353 . S
C904 H910 0.930 . S
N905 Li881 1.990 . S
N905 C904 1.314 . S
N905 C908 1.279 . S
C906 C904 1.353 . S
C906 C909 1.348 . S
C906 H954 0.929 . S
C907 C908 1.358 . S
C907 C909 1.356 . S
C907 H955 0.930 . S
C908 N905 1.279 . S
C908 C907 1.358 . S
C908 H911 0.930 . S
C909 C906 1.348 . S
C909 C907 1.356 . S
H910 C904 0.930 . S
H911 C908 0.930 . S
C912 C914 1.348 . S
C912 C915 1.356 . S
C912 O942 1.325 . S
N913 C916 1.314 . S
N913 C917 1.279 . S
C914 C912 1.348 . S
C914 C916 1.353 . S
C914 H956 0.929 . S
C915 C912 1.356 . S
C915 C917 1.358 . S
C915 H957 0.930 . S
C916 N913 1.314 . S
C916 C914 1.353 . S
C916 H958 0.930 . S
C917 N913 1.279 . S
C917 C915 1.358 . S
C917 H959 0.930 . S
C918 C919 1.348 . S
C918 C920 1.356 . S
C918 O943 1.325 . S
C919 C918 1.348 . S
C919 C921 1.353 . S
C919 H960 0.929 . S
C920 C918 1.356 . S
C920 C922 1.358 . S
C920 H961 0.930 . S
C921 C919 1.353 . S
C921 N923 1.314 . S
C921 H962 0.930 . S
C922 C920 1.358 . S
C922 N923 1.279 . S
C922 H963 0.930 . S
N923 C921 1.314 . S
N923 C922 1.279 . S
C924 C926 1.353 . S
C924 N927 1.314 . S
C924 H930 0.930 . S
C925 N927 1.279 . S
C925 C928 1.358 . S
C925 H931 0.930 . S
C926 C924 1.353 . S
C926 C929 1.348 . S
C926 H964 0.929 . S
N927 Li882 1.990 . S
N927 C924 1.314 . S
N927 C925 1.279 . S
C928 C925 1.358 . S
C928 C929 1.356 . S
C928 H965 0.930 . S
C929 C926 1.348 . S
C929 C928 1.356 . S
H930 C924 0.930 . S
H931 C925 0.930 . S
C932 N933 1.314 . S
C932 C934 1.353 . S
C932 H938 0.930 . S
N933 Li883 1.990 . S
N933 C932 1.314 . S
N933 C936 1.279 . S
C934 C932 1.353 . S
C934 C937 1.348 . S
C934 H966 0.929 . S
C935 C936 1.358 . S
C935 C937 1.356 . S
C935 H967 0.930 . S
C936 N933 1.279 . S
C936 C935 1.358 . S
C936 H939 0.930 . S
C937 C934 1.348 . S
C937 C935 1.356 . S
H938 C932 0.930 . S
H939 C936 0.930 . S
O940 Li880 1.956 . S
O940 Li881 1.970 . S
O940 Li882 1.961 . S
O940 C884 1.325 . S
O941 Li880 1.970 . S
O941 Li881 1.956 . S
O941 Li883 1.961 . S
O941 C890 1.325 . S
O942 Li880 1.961 . S
O942 Li882 1.956 . S
O942 Li883 1.970 . S
O942 C912 1.325 . S
O943 Li881 1.961 . S
O943 Li882 1.970 . S
O943 Li883 1.956 . S
O943 C918 1.325 . S
H944 C886 0.929 . S
H945 C887 0.930 . S
H946 C888 0.930 . S
H947 C889 0.930 . S
H948 C891 0.930 . S
H949 C893 0.929 . S
H950 C894 0.930 . S
H951 C895 0.930 . S
H952 C898 0.930 . S
H953 C901 0.929 . S
H954 C906 0.929 . S
H955 C907 0.930 . S
H956 C914 0.929 . S
H957 C915 0.930 . S
H958 C916 0.930 . S
H959 C917 0.930 . S
H960 C919 0.929 . S
H961 C920 0.930 . S
H962 C921 0.930 . S
H963 C922 0.930 . S
H964 C926 0.929 . S
H965 C928 0.930 . S
H966 C934 0.929 . S
H967 C935 0.930 . S
Li968 N985 1.990 . S
Li968 O1028 1.956 . S
Li968 O1029 1.970 1_455 S
Li968 O1030 1.961 . S
Li969 N993 1.990 1_455 S
Li969 O1028 1.970 . S
Li969 O1029 1.956 1_455 S
Li969 O1031 1.961 . S
Li970 N1015 1.990 . S
Li970 O1028 1.961 . S
Li970 O1030 1.956 . S
Li970 O1031 1.970 . S
Li971 N1021 1.990 . S
Li971 O1029 1.961 . S
Li971 O1030 1.970 1_655 S
Li971 O1031 1.956 1_655 S
C972 C974 1.348 . S
C972 C975 1.356 . S
C972 O1028 1.325 . S
N973 C976 1.314 . S
N973 C977 1.279 . S
C974 C972 1.348 . S
C974 C976 1.353 . S
C974 H1032 0.929 . S
C975 C972 1.356 . S
C975 C977 1.358 . S
C975 H1033 0.930 . S
C976 N973 1.314 . S
C976 C974 1.353 . S
C976 H1034 0.930 . S
C977 N973 1.279 . S
C977 C975 1.358 . S
C977 H1035 0.930 . S
C978 C981 1.348 . S
C978 C982 1.356 . S
C978 O1029 1.325 . S
C979 N980 1.279 . S
C979 C982 1.358 . S
C979 H1036 0.930 . S
N980 C979 1.279 . S
N980 C983 1.314 . S
C981 C978 1.348 . S
C981 C983 1.353 . S
C981 H1037 0.929 . S
C982 C978 1.356 . S
C982 C979 1.358 . S
C982 H1038 0.930 . S
C983 N980 1.314 . S
C983 C981 1.353 . S
C983 H1039 0.930 . S
C984 N985 1.314 1_655 S
C984 C989 1.353 . S
C984 H990 0.930 . S
N985 Li968 1.990 . S
N985 C984 1.314 1_455 S
N985 C987 1.279 . S
C986 C987 1.358 . S
C986 C988 1.356 1_455 S
C986 H1040 0.930 . S
C987 N985 1.279 . S
C987 C986 1.358 . S
C987 H991 0.930 . S
C988 C986 1.356 1_655 S
C988 C989 1.348 . S
C989 C984 1.353 . S
C989 C988 1.348 . S
C989 H1041 0.929 . S
H990 C984 0.930 . S
H991 C987 0.930 . S
C992 N993 1.314 1_455 S
C992 C994 1.353 . S
C992 H998 0.930 . S
N993 Li969 1.990 1_655 S
N993 C992 1.314 1_655 S
N993 C996 1.279 . S
C994 C992 1.353 . S
C994 C997 1.348 1_455 S
C994 H1042 0.929 . S
C995 C996 1.358 . S
C995 C997 1.356 . S
C995 H1043 0.930 . S
C996 N993 1.279 . S
C996 C995 1.358 . S
C996 H999 0.930 . S
C997 C994 1.348 1_655 S
C997 C995 1.356 . S
H998 C992 0.930 . S
H999 C996 0.930 . S
C1000 C1002 1.348 . S
C1000 C1003 1.356 . S
C1000 O1030 1.325 . S
N1001 C1004 1.314 . S
N1001 C1005 1.279 . S
C1002 C1000 1.348 . S
C1002 C1004 1.353 . S
C1002 H1044 0.929 . S
C1003 C1000 1.356 . S
C1003 C1005 1.358 . S
C1003 H1045 0.930 . S
C1004 N1001 1.314 . S
C1004 C1002 1.353 . S
C1004 H1046 0.930 . S
C1005 N1001 1.279 . S
C1005 C1003 1.358 . S
C1005 H1047 0.930 . S
C1006 C1007 1.348 . S
C1006 C1008 1.356 . S
C1006 O1031 1.325 . S
C1007 C1006 1.348 . S
C1007 C1009 1.353 . S
C1007 H1048 0.929 . S
C1008 C1006 1.356 . S
C1008 C1010 1.358 . S
C1008 H1049 0.930 1_455 S
C1009 C1007 1.353 . S
C1009 N1011 1.314 . S
C1009 H1050 0.930 . S
C1010 C1008 1.358 . S
C1010 N1011 1.279 . S
C1010 H1051 0.930 1_455 S
N1011 C1009 1.314 . S
N1011 C1010 1.279 . S
C1012 C1014 1.353 . S
C1012 N1015 1.314 . S
C1012 H1018 0.930 . S
C1013 N1015 1.279 . S
C1013 C1016 1.358 . S
C1013 H1019 0.930 . S
C1014 C1012 1.353 . S
C1014 C1017 1.348 . S
C1014 H1052 0.929 . S
N1015 Li970 1.990 . S
N1015 C1012 1.314 . S
N1015 C1013 1.279 . S
C1016 C1013 1.358 . S
C1016 C1017 1.356 . S
C1016 H1053 0.930 . S
C1017 C1014 1.348 . S
C1017 C1016 1.356 . S
H1018 C1012 0.930 . S
H1019 C1013 0.930 . S
C1020 N1021 1.314 . S
C1020 C1022 1.353 . S
C1020 H1026 0.930 . S
N1021 Li971 1.990 . S
N1021 C1020 1.314 . S
N1021 C1024 1.279 . S
C1022 C1020 1.353 . S
C1022 C1025 1.348 . S
C1022 H1054 0.929 . S
C1023 C1024 1.358 . S
C1023 C1025 1.356 . S
C1023 H1055 0.930 . S
C1024 N1021 1.279 . S
C1024 C1023 1.358 . S
C1024 H1027 0.930 . S
C1025 C1022 1.348 . S
C1025 C1023 1.356 . S
H1026 C1020 0.930 . S
H1027 C1024 0.930 . S
O1028 Li968 1.956 . S
O1028 Li969 1.970 . S
O1028 Li970 1.961 . S
O1028 C972 1.325 . S
O1029 Li968 1.970 1_655 S
O1029 Li969 1.956 1_655 S
O1029 Li971 1.961 . S
O1029 C978 1.325 . S
O1030 Li968 1.961 . S
O1030 Li970 1.956 . S
O1030 Li971 1.970 1_455 S
O1030 C1000 1.325 . S
O1031 Li969 1.961 . S
O1031 Li970 1.970 . S
O1031 Li971 1.956 1_455 S
O1031 C1006 1.325 . S
H1032 C974 0.929 . S
H1033 C975 0.930 . S
H1034 C976 0.930 . S
H1035 C977 0.930 . S
H1036 C979 0.930 . S
H1037 C981 0.929 . S
H1038 C982 0.930 . S
H1039 C983 0.930 . S
H1040 C986 0.930 . S
H1041 C989 0.929 . S
H1042 C994 0.929 . S
H1043 C995 0.930 . S
H1044 C1002 0.929 . S
H1045 C1003 0.930 . S
H1046 C1004 0.930 . S
H1047 C1005 0.930 . S
H1048 C1007 0.929 . S
H1049 C1008 0.930 1_655 S
H1050 C1009 0.930 . S
H1051 C1010 0.930 1_655 S
H1052 C1014 0.929 . S
H1053 C1016 0.930 . S
H1054 C1022 0.929 . S
H1055 C1023 0.930 . S
Li1056 N1073 1.990 . S
Li1056 O1116 1.956 . S
Li1056 O1117 1.970 1_554 S
Li1056 O1118 1.961 . S
Li1057 N1081 1.990 1_554 S
Li1057 O1116 1.970 . S
Li1057 O1117 1.956 1_554 S
Li1057 O1119 1.961 . S
Li1058 N1103 1.990 . S
Li1058 O1116 1.961 . S
Li1058 O1118 1.956 . S
Li1058 O1119 1.970 . S
Li1059 N1109 1.990 . S
Li1059 O1117 1.961 . S
Li1059 O1118 1.970 1_556 S
Li1059 O1119 1.956 1_556 S
C1060 C1062 1.348 . S
C1060 C1063 1.356 . S
C1060 O1116 1.325 . S
N1061 C1064 1.314 . S
N1061 C1065 1.279 . S
C1062 C1060 1.348 . S
C1062 C1064 1.353 . S
C1062 H1120 0.929 . S
C1063 C1060 1.356 . S
C1063 C1065 1.358 . S
C1063 H1121 0.930 . S
C1064 N1061 1.314 . S
C1064 C1062 1.353 . S
C1064 H1122 0.930 . S
C1065 N1061 1.279 . S
C1065 C1063 1.358 . S
C1065 H1123 0.930 . S
C1066 C1069 1.348 . S
C1066 C1070 1.356 . S
C1066 O1117 1.325 . S
C1067 N1068 1.279 . S
C1067 C1070 1.358 . S
C1067 H1124 0.930 . S
N1068 C1067 1.279 . S
N1068 C1071 1.314 . S
C1069 C1066 1.348 . S
C1069 C1071 1.353 . S
C1069 H1125 0.929 . S
C1070 C1066 1.356 . S
C1070 C1067 1.358 . S
C1070 H1126 0.930 . S
C1071 N1068 1.314 . S
C1071 C1069 1.353 . S
C1071 H1127 0.930 . S
C1072 N1073 1.314 1_556 S
C1072 C1077 1.353 . S
C1072 H1078 0.930 . S
N1073 Li1056 1.990 . S
N1073 C1072 1.314 1_554 S
N1073 C1075 1.279 . S
C1074 C1075 1.358 . S
C1074 C1076 1.356 1_554 S
C1074 H1128 0.930 . S
C1075 N1073 1.279 . S
C1075 C1074 1.358 . S
C1075 H1079 0.930 . S
C1076 C1074 1.356 1_556 S
C1076 C1077 1.348 . S
C1077 C1072 1.353 . S
C1077 C1076 1.348 . S
C1077 H1129 0.929 . S
H1078 C1072 0.930 . S
H1079 C1075 0.930 . S
C1080 N1081 1.314 1_554 S
C1080 C1082 1.353 . S
C1080 H1086 0.930 . S
N1081 Li1057 1.990 1_556 S
N1081 C1080 1.314 1_556 S
N1081 C1084 1.279 . S
C1082 C1080 1.353 . S
C1082 C1085 1.348 1_554 S
C1082 H1130 0.929 . S
C1083 C1084 1.358 . S
C1083 C1085 1.356 . S
C1083 H1131 0.930 . S
C1084 N1081 1.279 . S
C1084 C1083 1.358 . S
C1084 H1087 0.930 . S
C1085 C1082 1.348 1_556 S
C1085 C1083 1.356 . S
H1086 C1080 0.930 . S
H1087 C1084 0.930 . S
C1088 C1090 1.348 . S
C1088 C1091 1.356 . S
C1088 O1118 1.325 . S
N1089 C1092 1.314 . S
N1089 C1093 1.279 . S
C1090 C1088 1.348 . S
C1090 C1092 1.353 . S
C1090 H1132 0.929 . S
C1091 C1088 1.356 . S
C1091 C1093 1.358 . S
C1091 H1133 0.930 . S
C1092 N1089 1.314 . S
C1092 C1090 1.353 . S
C1092 H1134 0.930 . S
C1093 N1089 1.279 . S
C1093 C1091 1.358 . S
C1093 H1135 0.930 . S
C1094 C1095 1.348 . S
C1094 C1096 1.356 . S
C1094 O1119 1.325 . S
C1095 C1094 1.348 . S
C1095 C1097 1.353 . S
C1095 H1136 0.929 . S
C1096 C1094 1.356 . S
C1096 C1098 1.358 . S
C1096 H1137 0.930 1_554 S
C1097 C1095 1.353 . S
C1097 N1099 1.314 . S
C1097 H1138 0.930 . S
C1098 C1096 1.358 . S
C1098 N1099 1.279 . S
C1098 H1139 0.930 1_554 S
N1099 C1097 1.314 . S
N1099 C1098 1.279 . S
C1100 C1102 1.353 . S
C1100 N1103 1.314 . S
C1100 H1106 0.930 . S
C1101 N1103 1.279 . S
C1101 C1104 1.358 . S
C1101 H1107 0.930 . S
C1102 C1100 1.353 . S
C1102 C1105 1.348 . S
C1102 H1140 0.929 . S
N1103 Li1058 1.990 . S
N1103 C1100 1.314 . S
N1103 C1101 1.279 . S
C1104 C1101 1.358 . S
C1104 C1105 1.356 . S
C1104 H1141 0.930 . S
C1105 C1102 1.348 . S
C1105 C1104 1.356 . S
H1106 C1100 0.930 . S
H1107 C1101 0.930 . S
C1108 N1109 1.314 . S
C1108 C1110 1.353 . S
C1108 H1114 0.930 . S
N1109 Li1059 1.990 . S
N1109 C1108 1.314 . S
N1109 C1112 1.279 . S
C1110 C1108 1.353 . S
C1110 C1113 1.348 . S
C1110 H1142 0.929 . S
C1111 C1112 1.358 . S
C1111 C1113 1.356 . S
C1111 H1143 0.930 . S
C1112 N1109 1.279 . S
C1112 C1111 1.358 . S
C1112 H1115 0.930 . S
C1113 C1110 1.348 . S
C1113 C1111 1.356 . S
H1114 C1108 0.930 . S
H1115 C1112 0.930 . S
O1116 Li1056 1.956 . S
O1116 Li1057 1.970 . S
O1116 Li1058 1.961 . S
O1116 C1060 1.325 . S
O1117 Li1056 1.970 1_556 S
O1117 Li1057 1.956 1_556 S
O1117 Li1059 1.961 . S
O1117 C1066 1.325 . S
O1118 Li1056 1.961 . S
O1118 Li1058 1.956 . S
O1118 Li1059 1.970 1_554 S
O1118 C1088 1.325 . S
O1119 Li1057 1.961 . S
O1119 Li1058 1.970 . S
O1119 Li1059 1.956 1_554 S
O1119 C1094 1.325 . S
H1120 C1062 0.929 . S
H1121 C1063 0.930 . S
H1122 C1064 0.930 . S
H1123 C1065 0.930 . S
H1124 C1067 0.930 . S
H1125 C1069 0.929 . S
H1126 C1070 0.930 . S
H1127 C1071 0.930 . S
H1128 C1074 0.930 . S
H1129 C1077 0.929 . S
H1130 C1082 0.929 . S
H1131 C1083 0.930 . S
H1132 C1090 0.929 . S
H1133 C1091 0.930 . S
H1134 C1092 0.930 . S
H1135 C1093 0.930 . S
H1136 C1095 0.929 . S
H1137 C1096 0.930 1_556 S
H1138 C1097 0.930 . S
H1139 C1098 0.930 1_556 S
H1140 C1102 0.929 . S
H1141 C1104 0.930 . S
H1142 C1110 0.929 . S
H1143 C1111 0.930 . S
Li1144 N1161 1.990 . S
Li1144 O1204 1.956 . S
Li1144 O1205 1.970 . S
Li1144 O1206 1.961 . S
Li1145 N1169 1.990 . S
Li1145 O1204 1.970 . S
Li1145 O1205 1.956 . S
Li1145 O1207 1.961 . S
Li1146 N1191 1.990 . S
Li1146 O1204 1.961 . S
Li1146 O1206 1.956 . S
Li1146 O1207 1.970 . S
Li1147 N1197 1.990 . S
Li1147 O1205 1.961 . S
Li1147 O1206 1.970 . S
Li1147 O1207 1.956 . S
C1148 C1150 1.348 . S
C1148 C1151 1.356 . S
C1148 O1204 1.325 . S
N1149 C1152 1.314 . S
N1149 C1153 1.279 . S
C1150 C1148 1.348 . S
C1150 C1152 1.353 . S
C1150 H1208 0.929 . S
C1151 C1148 1.356 . S
C1151 C1153 1.358 . S
C1151 H1209 0.930 . S
C1152 N1149 1.314 . S
C1152 C1150 1.353 . S
C1152 H1210 0.930 . S
C1153 N1149 1.279 . S
C1153 C1151 1.358 . S
C1153 H1211 0.930 . S
C1154 C1157 1.348 . S
C1154 C1158 1.356 . S
C1154 O1205 1.325 . S
C1155 N1156 1.279 . S
C1155 C1158 1.358 . S
C1155 H1212 0.930 . S
N1156 C1155 1.279 . S
N1156 C1159 1.314 . S
C1157 C1154 1.348 . S
C1157 C1159 1.353 . S
C1157 H1213 0.929 . S
C1158 C1154 1.356 . S
C1158 C1155 1.358 . S
C1158 H1214 0.930 . S
C1159 N1156 1.314 . S
C1159 C1157 1.353 . S
C1159 H1215 0.930 . S
C1160 N1161 1.314 . S
C1160 C1165 1.353 . S
C1160 H1166 0.930 . S
N1161 Li1144 1.990 . S
N1161 C1160 1.314 . S
N1161 C1163 1.279 . S
C1162 C1163 1.358 . S
C1162 C1164 1.356 . S
C1162 H1216 0.930 . S
C1163 N1161 1.279 . S
C1163 C1162 1.358 . S
C1163 H1167 0.930 . S
C1164 C1162 1.356 . S
C1164 C1165 1.348 . S
C1165 C1160 1.353 . S
C1165 C1164 1.348 . S
C1165 H1217 0.929 . S
H1166 C1160 0.930 . S
H1167 C1163 0.930 . S
C1168 N1169 1.314 . S
C1168 C1170 1.353 . S
C1168 H1174 0.930 . S
N1169 Li1145 1.990 . S
N1169 C1168 1.314 . S
N1169 C1172 1.279 . S
C1170 C1168 1.353 . S
C1170 C1173 1.348 . S
C1170 H1218 0.929 . S
C1171 C1172 1.358 . S
C1171 C1173 1.356 . S
C1171 H1219 0.930 . S
C1172 N1169 1.279 . S
C1172 C1171 1.358 . S
C1172 H1175 0.930 . S
C1173 C1170 1.348 . S
C1173 C1171 1.356 . S
H1174 C1168 0.930 . S
H1175 C1172 0.930 . S
C1176 C1178 1.348 . S
C1176 C1179 1.356 . S
C1176 O1206 1.325 . S
N1177 C1180 1.314 . S
N1177 C1181 1.279 . S
C1178 C1176 1.348 . S
C1178 C1180 1.353 . S
C1178 H1220 0.929 . S
C1179 C1176 1.356 . S
C1179 C1181 1.358 . S
C1179 H1221 0.930 . S
C1180 N1177 1.314 . S
C1180 C1178 1.353 . S
C1180 H1222 0.930 . S
C1181 N1177 1.279 . S
C1181 C1179 1.358 . S
C1181 H1223 0.930 . S
C1182 C1183 1.348 . S
C1182 C1184 1.356 . S
C1182 O1207 1.325 . S
C1183 C1182 1.348 . S
C1183 C1185 1.353 . S
C1183 H1224 0.929 . S
C1184 C1182 1.356 . S
C1184 C1186 1.358 . S
C1184 H1225 0.930 . S
C1185 C1183 1.353 . S
C1185 N1187 1.314 . S
C1185 H1226 0.930 . S
C1186 C1184 1.358 . S
C1186 N1187 1.279 . S
C1186 H1227 0.930 . S
N1187 C1185 1.314 . S
N1187 C1186 1.279 . S
C1188 C1190 1.353 . S
C1188 N1191 1.314 . S
C1188 H1194 0.930 . S
C1189 N1191 1.279 . S
C1189 C1192 1.358 . S
C1189 H1195 0.930 . S
C1190 C1188 1.353 . S
C1190 C1193 1.348 . S
C1190 H1228 0.929 . S
N1191 Li1146 1.990 . S
N1191 C1188 1.314 . S
N1191 C1189 1.279 . S
C1192 C1189 1.358 . S
C1192 C1193 1.356 . S
C1192 H1229 0.930 . S
C1193 C1190 1.348 . S
C1193 C1192 1.356 . S
H1194 C1188 0.930 . S
H1195 C1189 0.930 . S
C1196 N1197 1.314 . S
C1196 C1198 1.353 . S
C1196 H1202 0.930 . S
N1197 Li1147 1.990 . S
N1197 C1196 1.314 . S
N1197 C1200 1.279 . S
C1198 C1196 1.353 . S
C1198 C1201 1.348 . S
C1198 H1230 0.929 . S
C1199 C1200 1.358 . S
C1199 C1201 1.356 . S
C1199 H1231 0.930 . S
C1200 N1197 1.279 . S
C1200 C1199 1.358 . S
C1200 H1203 0.930 . S
C1201 C1198 1.348 . S
C1201 C1199 1.356 . S
H1202 C1196 0.930 . S
H1203 C1200 0.930 . S
O1204 Li1144 1.956 . S
O1204 Li1145 1.970 . S
O1204 Li1146 1.961 . S
O1204 C1148 1.325 . S
O1205 Li1144 1.970 . S
O1205 Li1145 1.956 . S
O1205 Li1147 1.961 . S
O1205 C1154 1.325 . S
O1206 Li1144 1.961 . S
O1206 Li1146 1.956 . S
O1206 Li1147 1.970 . S
O1206 C1176 1.325 . S
O1207 Li1145 1.961 . S
O1207 Li1146 1.970 . S
O1207 Li1147 1.956 . S
O1207 C1182 1.325 . S
H1208 C1150 0.929 . S
H1209 C1151 0.930 . S
H1210 C1152 0.930 . S
H1211 C1153 0.930 . S
H1212 C1155 0.930 . S
H1213 C1157 0.929 . S
H1214 C1158 0.930 . S
H1215 C1159 0.930 . S
H1216 C1162 0.930 . S
H1217 C1165 0.929 . S
H1218 C1170 0.929 . S
H1219 C1171 0.930 . S
H1220 C1178 0.929 . S
H1221 C1179 0.930 . S
H1222 C1180 0.930 . S
H1223 C1181 0.930 . S
H1224 C1183 0.929 . S
H1225 C1184 0.930 . S
H1226 C1185 0.930 . S
H1227 C1186 0.930 . S
H1228 C1190 0.929 . S
H1229 C1192 0.930 . S
H1230 C1198 0.929 . S
H1231 C1199 0.930 . S
Li1232 N1249 1.990 . S
Li1232 O1292 1.956 . S
Li1232 O1293 1.970 . S
Li1232 O1294 1.961 . S
Li1233 N1257 1.990 . S
Li1233 O1292 1.970 . S
Li1233 O1293 1.956 . S
Li1233 O1295 1.961 . S
Li1234 N1279 1.990 . S
Li1234 O1292 1.961 . S
Li1234 O1294 1.956 . S
Li1234 O1295 1.970 . S
Li1235 N1285 1.990 . S
Li1235 O1293 1.961 . S
Li1235 O1294 1.970 . S
Li1235 O1295 1.956 . S
C1236 C1238 1.348 . S
C1236 C1239 1.356 . S
C1236 O1292 1.325 . S
N1237 C1240 1.314 . S
N1237 C1241 1.279 . S
C1238 C1236 1.348 . S
C1238 C1240 1.353 . S
C1238 H1296 0.929 . S
C1239 C1236 1.356 . S
C1239 C1241 1.358 . S
C1239 H1297 0.930 . S
C1240 N1237 1.314 . S
C1240 C1238 1.353 . S
C1240 H1298 0.930 . S
C1241 N1237 1.279 . S
C1241 C1239 1.358 . S
C1241 H1299 0.930 . S
C1242 C1245 1.348 . S
C1242 C1246 1.356 . S
C1242 O1293 1.325 . S
C1243 N1244 1.279 . S
C1243 C1246 1.358 . S
C1243 H1300 0.930 . S
N1244 C1243 1.279 . S
N1244 C1247 1.314 . S
C1245 C1242 1.348 . S
C1245 C1247 1.353 . S
C1245 H1301 0.929 . S
C1246 C1242 1.356 . S
C1246 C1243 1.358 . S
C1246 H1302 0.930 . S
C1247 N1244 1.314 . S
C1247 C1245 1.353 . S
C1247 H1303 0.930 . S
C1248 N1249 1.314 . S
C1248 C1253 1.353 . S
C1248 H1254 0.930 . S
N1249 Li1232 1.990 . S
N1249 C1248 1.314 . S
N1249 C1251 1.279 . S
C1250 C1251 1.358 . S
C1250 C1252 1.356 . S
C1250 H1304 0.930 . S
C1251 N1249 1.279 . S
C1251 C1250 1.358 . S
C1251 H1255 0.930 . S
C1252 C1250 1.356 . S
C1252 C1253 1.348 . S
C1253 C1248 1.353 . S
C1253 C1252 1.348 . S
C1253 H1305 0.929 . S
H1254 C1248 0.930 . S
H1255 C1251 0.930 . S
C1256 N1257 1.314 . S
C1256 C1258 1.353 . S
C1256 H1262 0.930 . S
N1257 Li1233 1.990 . S
N1257 C1256 1.314 . S
N1257 C1260 1.279 . S
C1258 C1256 1.353 . S
C1258 C1261 1.348 . S
C1258 H1306 0.929 . S
C1259 C1260 1.358 . S
C1259 C1261 1.356 . S
C1259 H1307 0.930 . S
C1260 N1257 1.279 . S
C1260 C1259 1.358 . S
C1260 H1263 0.930 . S
C1261 C1258 1.348 . S
C1261 C1259 1.356 . S
H1262 C1256 0.930 . S
H1263 C1260 0.930 . S
C1264 C1266 1.348 . S
C1264 C1267 1.356 . S
C1264 O1294 1.325 . S
N1265 C1268 1.314 . S
N1265 C1269 1.279 . S
C1266 C1264 1.348 . S
C1266 C1268 1.353 . S
C1266 H1308 0.929 . S
C1267 C1264 1.356 . S
C1267 C1269 1.358 . S
C1267 H1309 0.930 . S
C1268 N1265 1.314 . S
C1268 C1266 1.353 . S
C1268 H1310 0.930 . S
C1269 N1265 1.279 . S
C1269 C1267 1.358 . S
C1269 H1311 0.930 . S
C1270 C1271 1.348 . S
C1270 C1272 1.356 . S
C1270 O1295 1.325 . S
C1271 C1270 1.348 . S
C1271 C1273 1.353 . S
C1271 H1312 0.929 . S
C1272 C1270 1.356 . S
C1272 C1274 1.358 . S
C1272 H1313 0.930 . S
C1273 C1271 1.353 . S
C1273 N1275 1.314 . S
C1273 H1314 0.930 . S
C1274 C1272 1.358 . S
C1274 N1275 1.279 . S
C1274 H1315 0.930 . S
N1275 C1273 1.314 . S
N1275 C1274 1.279 . S
C1276 C1278 1.353 . S
C1276 N1279 1.314 . S
C1276 H1282 0.930 . S
C1277 N1279 1.279 . S
C1277 C1280 1.358 . S
C1277 H1283 0.930 . S
C1278 C1276 1.353 . S
C1278 C1281 1.348 . S
C1278 H1316 0.929 . S
N1279 Li1234 1.990 . S
N1279 C1276 1.314 . S
N1279 C1277 1.279 . S
C1280 C1277 1.358 . S
C1280 C1281 1.356 . S
C1280 H1317 0.930 . S
C1281 C1278 1.348 . S
C1281 C1280 1.356 . S
H1282 C1276 0.930 . S
H1283 C1277 0.930 . S
C1284 N1285 1.314 . S
C1284 C1286 1.353 . S
C1284 H1290 0.930 . S
N1285 Li1235 1.990 . S
N1285 C1284 1.314 . S
N1285 C1288 1.279 . S
C1286 C1284 1.353 . S
C1286 C1289 1.348 . S
C1286 H1318 0.929 . S
C1287 C1288 1.358 . S
C1287 C1289 1.356 . S
C1287 H1319 0.930 . S
C1288 N1285 1.279 . S
C1288 C1287 1.358 . S
C1288 H1291 0.930 . S
C1289 C1286 1.348 . S
C1289 C1287 1.356 . S
H1290 C1284 0.930 . S
H1291 C1288 0.930 . S
O1292 Li1232 1.956 . S
O1292 Li1233 1.970 . S
O1292 Li1234 1.961 . S
O1292 C1236 1.325 . S
O1293 Li1232 1.970 . S
O1293 Li1233 1.956 . S
O1293 Li1235 1.961 . S
O1293 C1242 1.325 . S
O1294 Li1232 1.961 . S
O1294 Li1234 1.956 . S
O1294 Li1235 1.970 . S
O1294 C1264 1.325 . S
O1295 Li1233 1.961 . S
O1295 Li1234 1.970 . S
O1295 Li1235 1.956 . S
O1295 C1270 1.325 . S
H1296 C1238 0.929 . S
H1297 C1239 0.930 . S
H1298 C1240 0.930 . S
H1299 C1241 0.930 . S
H1300 C1243 0.930 . S
H1301 C1245 0.929 . S
H1302 C1246 0.930 . S
H1303 C1247 0.930 . S
H1304 C1250 0.930 . S
H1305 C1253 0.929 . S
H1306 C1258 0.929 . S
H1307 C1259 0.930 . S
H1308 C1266 0.929 . S
H1309 C1267 0.930 . S
H1310 C1268 0.930 . S
H1311 C1269 0.930 . S
H1312 C1271 0.929 . S
H1313 C1272 0.930 . S
H1314 C1273 0.930 . S
H1315 C1274 0.930 . S
H1316 C1278 0.929 . S
H1317 C1280 0.930 . S
H1318 C1286 0.929 . S
H1319 C1287 0.930 . S
Li1320 N1337 1.990 . S
Li1320 O1380 1.956 . S
Li1320 O1381 1.970 . S
Li1320 O1382 1.961 . S
Li1321 N1345 1.990 . S
Li1321 O1380 1.970 . S
Li1321 O1381 1.956 . S
Li1321 O1383 1.961 . S
Li1322 N1367 1.990 . S
Li1322 O1380 1.961 . S
Li1322 O1382 1.956 . S
Li1322 O1383 1.970 . S
Li1323 N1373 1.990 . S
Li1323 O1381 1.961 . S
Li1323 O1382 1.970 . S
Li1323 O1383 1.956 . S
C1324 C1326 1.348 . S
C1324 C1327 1.356 . S
C1324 O1380 1.325 . S
N1325 C1328 1.314 . S
N1325 C1329 1.279 . S
C1326 C1324 1.348 . S
C1326 C1328 1.353 . S
C1326 H1384 0.929 . S
C1327 C1324 1.356 . S
C1327 C1329 1.358 . S
C1327 H1385 0.930 . S
C1328 N1325 1.314 . S
C1328 C1326 1.353 . S
C1328 H1386 0.930 . S
C1329 N1325 1.279 . S
C1329 C1327 1.358 . S
C1329 H1387 0.930 . S
C1330 C1333 1.348 . S
C1330 C1334 1.356 . S
C1330 O1381 1.325 . S
C1331 N1332 1.279 . S
C1331 C1334 1.358 . S
C1331 H1388 0.930 . S
N1332 C1331 1.279 . S
N1332 C1335 1.314 . S
C1333 C1330 1.348 . S
C1333 C1335 1.353 . S
C1333 H1389 0.929 . S
C1334 C1330 1.356 . S
C1334 C1331 1.358 . S
C1334 H1390 0.930 . S
C1335 N1332 1.314 . S
C1335 C1333 1.353 . S
C1335 H1391 0.930 . S
C1336 N1337 1.314 . S
C1336 C1341 1.353 . S
C1336 H1342 0.930 . S
N1337 Li1320 1.990 . S
N1337 C1336 1.314 . S
N1337 C1339 1.279 . S
C1338 C1339 1.358 . S
C1338 C1340 1.356 . S
C1338 H1392 0.930 . S
C1339 N1337 1.279 . S
C1339 C1338 1.358 . S
C1339 H1343 0.930 . S
C1340 C1338 1.356 . S
C1340 C1341 1.348 . S
C1341 C1336 1.353 . S
C1341 C1340 1.348 . S
C1341 H1393 0.929 . S
H1342 C1336 0.930 . S
H1343 C1339 0.930 . S
C1344 N1345 1.314 . S
C1344 C1346 1.353 . S
C1344 H1350 0.930 . S
N1345 Li1321 1.990 . S
N1345 C1344 1.314 . S
N1345 C1348 1.279 . S
C1346 C1344 1.353 . S
C1346 C1349 1.348 . S
C1346 H1394 0.929 . S
C1347 C1348 1.358 . S
C1347 C1349 1.356 . S
C1347 H1395 0.930 . S
C1348 N1345 1.279 . S
C1348 C1347 1.358 . S
C1348 H1351 0.930 . S
C1349 C1346 1.348 . S
C1349 C1347 1.356 . S
H1350 C1344 0.930 . S
H1351 C1348 0.930 . S
C1352 C1354 1.348 . S
C1352 C1355 1.356 . S
C1352 O1382 1.325 . S
N1353 C1356 1.314 . S
N1353 C1357 1.279 . S
C1354 C1352 1.348 . S
C1354 C1356 1.353 . S
C1354 H1396 0.929 . S
C1355 C1352 1.356 . S
C1355 C1357 1.358 . S
C1355 H1397 0.930 . S
C1356 N1353 1.314 . S
C1356 C1354 1.353 . S
C1356 H1398 0.930 . S
C1357 N1353 1.279 . S
C1357 C1355 1.358 . S
C1357 H1399 0.930 . S
C1358 C1359 1.348 . S
C1358 C1360 1.356 . S
C1358 O1383 1.325 . S
C1359 C1358 1.348 . S
C1359 C1361 1.353 . S
C1359 H1400 0.929 . S
C1360 C1358 1.356 . S
C1360 C1362 1.358 . S
C1360 H1401 0.930 . S
C1361 C1359 1.353 . S
C1361 N1363 1.314 . S
C1361 H1402 0.930 . S
C1362 C1360 1.358 . S
C1362 N1363 1.279 . S
C1362 H1403 0.930 . S
N1363 C1361 1.314 . S
N1363 C1362 1.279 . S
C1364 C1366 1.353 . S
C1364 N1367 1.314 . S
C1364 H1370 0.930 . S
C1365 N1367 1.279 . S
C1365 C1368 1.358 . S
C1365 H1371 0.930 . S
C1366 C1364 1.353 . S
C1366 C1369 1.348 . S
C1366 H1404 0.929 . S
N1367 Li1322 1.990 . S
N1367 C1364 1.314 . S
N1367 C1365 1.279 . S
C1368 C1365 1.358 . S
C1368 C1369 1.356 . S
C1368 H1405 0.930 . S
C1369 C1366 1.348 . S
C1369 C1368 1.356 . S
H1370 C1364 0.930 . S
H1371 C1365 0.930 . S
C1372 N1373 1.314 . S
C1372 C1374 1.353 . S
C1372 H1378 0.930 . S
N1373 Li1323 1.990 . S
N1373 C1372 1.314 . S
N1373 C1376 1.279 . S
C1374 C1372 1.353 . S
C1374 C1377 1.348 . S
C1374 H1406 0.929 . S
C1375 C1376 1.358 . S
C1375 C1377 1.356 . S
C1375 H1407 0.930 . S
C1376 N1373 1.279 . S
C1376 C1375 1.358 . S
C1376 H1379 0.930 . S
C1377 C1374 1.348 . S
C1377 C1375 1.356 . S
H1378 C1372 0.930 . S
H1379 C1376 0.930 . S
O1380 Li1320 1.956 . S
O1380 Li1321 1.970 . S
O1380 Li1322 1.961 . S
O1380 C1324 1.325 . S
O1381 Li1320 1.970 . S
O1381 Li1321 1.956 . S
O1381 Li1323 1.961 . S
O1381 C1330 1.325 . S
O1382 Li1320 1.961 . S
O1382 Li1322 1.956 . S
O1382 Li1323 1.970 . S
O1382 C1352 1.325 . S
O1383 Li1321 1.961 . S
O1383 Li1322 1.970 . S
O1383 Li1323 1.956 . S
O1383 C1358 1.325 . S
H1384 C1326 0.929 . S
H1385 C1327 0.930 . S
H1386 C1328 0.930 . S
H1387 C1329 0.930 . S
H1388 C1331 0.930 . S
H1389 C1333 0.929 . S
H1390 C1334 0.930 . S
H1391 C1335 0.930 . S
H1392 C1338 0.930 . S
H1393 C1341 0.929 . S
H1394 C1346 0.929 . S
H1395 C1347 0.930 . S
H1396 C1354 0.929 . S
H1397 C1355 0.930 . S
H1398 C1356 0.930 . S
H1399 C1357 0.930 . S
H1400 C1359 0.929 . S
H1401 C1360 0.930 . S
H1402 C1361 0.930 . S
H1403 C1362 0.930 . S
H1404 C1366 0.929 . S
H1405 C1368 0.930 . S
H1406 C1374 0.929 . S
H1407 C1375 0.930 . S
C1408 C1409 1.387 . S
C1408 H1412 0.950 . S
C1408 C1417 1.390 . S
C1409 C1408 1.387 . S
C1409 C1411 1.387 . S
H1410 C1417 0.950 . S
C1411 C1409 1.387 . S
C1411 C1413 1.390 . S
C1411 H1415 0.950 . S
H1412 C1408 0.950 . S
C1413 C1411 1.390 . S
C1413 C1414 1.387 . S
C1413 H1416 0.950 . S
C1414 C1413 1.387 . S
C1414 C1417 1.387 . S
H1415 C1411 0.950 . S
H1416 C1413 0.950 . S
C1417 C1408 1.390 . S
C1417 H1410 0.950 . S
C1417 C1414 1.387 . S
C1418 C1419 1.387 . S
C1418 H1422 0.950 . S
C1418 C1427 1.390 . S
C1419 C1418 1.387 . S
C1419 C1421 1.387 . S
H1420 C1427 0.950 . S
C1421 C1419 1.387 . S
C1421 C1423 1.390 . S
C1421 H1425 0.950 . S
H1422 C1418 0.950 . S
C1423 C1421 1.390 . S
C1423 C1424 1.387 . S
C1423 H1426 0.950 . S
C1424 C1423 1.387 . S
C1424 C1427 1.387 . S
H1425 C1421 0.950 . S
H1426 C1423 0.950 . S
C1427 C1418 1.390 . S
C1427 H1420 0.950 . S
C1427 C1424 1.387 . S
C1428 C1429 1.387 . S
C1428 H1432 0.950 . S
C1428 C1437 1.390 . S
C1429 C1428 1.387 . S
C1429 C1431 1.387 . S
H1430 C1437 0.950 . S
C1431 C1429 1.387 . S
C1431 C1433 1.390 . S
C1431 H1435 0.950 . S
H1432 C1428 0.950 . S
C1433 C1431 1.390 . S
C1433 C1434 1.387 . S
C1433 H1436 0.950 . S
C1434 C1433 1.387 . S
C1434 C1437 1.387 . S
H1435 C1431 0.950 . S
H1436 C1433 0.950 . S
C1437 C1428 1.390 . S
C1437 H1430 0.950 . S
C1437 C1434 1.387 . S
C1438 C1439 1.387 . S
C1438 H1442 0.950 . S
C1438 C1447 1.390 . S
C1439 C1438 1.387 . S
C1439 C1441 1.387 . S
H1440 C1447 0.950 . S
C1441 C1439 1.387 . S
C1441 C1443 1.390 . S
C1441 H1445 0.950 . S
H1442 C1438 0.950 . S
C1443 C1441 1.390 . S
C1443 C1444 1.387 . S
C1443 H1446 0.950 . S
C1444 C1443 1.387 . S
C1444 C1447 1.387 . S
H1445 C1441 0.950 . S
H1446 C1443 0.950 . S
C1447 C1438 1.390 . S
C1447 H1440 0.950 . S
C1447 C1444 1.387 . S
C1448 C1449 1.387 . S
C1448 H1452 0.950 . S
C1448 C1457 1.390 . S
C1449 C1448 1.387 . S
C1449 C1451 1.387 . S
H1450 C1457 0.950 . S
C1451 C1449 1.387 . S
C1451 C1453 1.390 . S
C1451 H1455 0.950 . S
H1452 C1448 0.950 . S
C1453 C1451 1.390 . S
C1453 C1454 1.387 . S
C1453 H1456 0.950 . S
C1454 C1453 1.387 . S
C1454 C1457 1.387 . S
H1455 C1451 0.950 . S
H1456 C1453 0.950 . S
C1457 C1448 1.390 . S
C1457 H1450 0.950 . S
C1457 C1454 1.387 . S
C1458 C1459 1.387 . S
C1458 H1462 0.950 . S
C1458 C1467 1.390 . S
C1459 C1458 1.387 . S
C1459 C1461 1.387 . S
H1460 C1467 0.950 . S
C1461 C1459 1.387 . S
C1461 C1463 1.390 . S
C1461 H1465 0.950 . S
H1462 C1458 0.950 . S
C1463 C1461 1.390 . S
C1463 C1464 1.387 . S
C1463 H1466 0.950 . S
C1464 C1463 1.387 . S
C1464 C1467 1.387 . S
H1465 C1461 0.950 . S
H1466 C1463 0.950 . S
C1467 C1458 1.390 . S
C1467 H1460 0.950 . S
C1467 C1464 1.387 . S
C1468 C1469 1.387 . S
C1468 H1472 0.950 . S
C1468 C1477 1.390 . S
C1469 C1468 1.387 . S
C1469 C1471 1.387 . S
H1470 C1477 0.950 . S
C1471 C1469 1.387 . S
C1471 C1473 1.390 . S
C1471 H1475 0.950 . S
H1472 C1468 0.950 . S
C1473 C1471 1.390 . S
C1473 C1474 1.387 . S
C1473 H1476 0.950 . S
C1474 C1473 1.387 . S
C1474 C1477 1.387 . S
H1475 C1471 0.950 . S
H1476 C1473 0.950 . S
C1477 C1468 1.390 . S
C1477 H1470 0.950 . S
C1477 C1474 1.387 . S
C1478 C1479 1.387 . S
C1478 H1482 0.950 . S
C1478 C1487 1.390 . S
C1479 C1478 1.387 . S
C1479 C1481 1.387 . S
H1480 C1487 0.950 . S
C1481 C1479 1.387 . S
C1481 C1483 1.390 . S
C1481 H1485 0.950 . S
H1482 C1478 0.950 . S
C1483 C1481 1.390 . S
C1483 C1484 1.387 . S
C1483 H1486 0.950 . S
C1484 C1483 1.387 . S
C1484 C1487 1.387 . S
H1485 C1481 0.950 . S
H1486 C1483 0.950 . S
C1487 C1478 1.390 . S
C1487 H1480 0.950 . S
C1487 C1484 1.387 . S
C1488 C1489 1.387 . S
C1488 H1492 0.950 . S
C1488 C1497 1.390 . S
C1489 C1488 1.387 . S
C1489 C1491 1.387 . S
H1490 C1497 0.950 . S
C1491 C1489 1.387 . S
C1491 C1493 1.390 . S
C1491 H1495 0.950 . S
H1492 C1488 0.950 . S
C1493 C1491 1.390 . S
C1493 C1494 1.387 . S
C1493 H1496 0.950 . S
C1494 C1493 1.387 . S
C1494 C1497 1.387 . S
H1495 C1491 0.950 . S
H1496 C1493 0.950 . S
C1497 C1488 1.390 . S
C1497 H1490 0.950 . S
C1497 C1494 1.387 . S
C1498 C1499 1.387 1_655 S
C1498 H1502 0.950 . S
C1498 C1507 1.390 1_545 S
C1499 C1498 1.387 1_455 S
C1499 C1501 1.387 . S
H1500 C1507 0.950 . S
C1501 C1499 1.387 . S
C1501 C1503 1.390 1_545 S
C1501 H1505 0.950 . S
H1502 C1498 0.950 . S
C1503 C1501 1.390 1_565 S
C1503 C1504 1.387 . S
C1503 H1506 0.950 . S
C1504 C1503 1.387 . S
C1504 C1507 1.387 1_455 S
H1505 C1501 0.950 . S
H1506 C1503 0.950 . S
C1507 C1498 1.390 1_565 S
C1507 H1500 0.950 . S
C1507 C1504 1.387 1_655 S
C1508 C1509 1.387 . S
C1508 H1512 0.950 . S
C1508 C1517 1.390 1_556 S
C1509 C1508 1.387 . S
C1509 C1511 1.387 . S
H1510 C1517 0.950 . S
C1511 C1509 1.387 . S
C1511 C1513 1.390 1_556 S
C1511 H1515 0.950 . S
H1512 C1508 0.950 . S
C1513 C1511 1.390 1_554 S
C1513 C1514 1.387 . S
C1513 H1516 0.950 . S
C1514 C1513 1.387 . S
C1514 C1517 1.387 . S
H1515 C1511 0.950 . S
H1516 C1513 0.950 . S
C1517 C1508 1.390 1_554 S
C1517 H1510 0.950 . S
C1517 C1514 1.387 . S
C1518 C1519 1.387 . S
C1518 H1522 0.950 . S
C1518 C1527 1.390 1_565 S
C1519 C1518 1.387 . S
C1519 C1521 1.387 . S
H1520 C1527 0.950 . S
C1521 C1519 1.387 . S
C1521 C1523 1.390 1_565 S
C1521 H1525 0.950 . S
H1522 C1518 0.950 . S
C1523 C1521 1.390 1_545 S
C1523 C1524 1.387 . S
C1523 H1526 0.950 . S
C1524 C1523 1.387 . S
C1524 C1527 1.387 . S
H1525 C1521 0.950 . S
H1526 C1523 0.950 . S
C1527 C1518 1.390 1_545 S
C1527 H1520 0.950 . S
C1527 C1524 1.387 . S
C1528 C1529 1.387 . S
C1528 H1532 0.950 . S
C1528 C1537 1.390 . S
C1529 C1528 1.387 . S
C1529 C1531 1.387 . S
H1530 C1537 0.950 . S
C1531 C1529 1.387 . S
C1531 C1533 1.390 . S
C1531 H1535 0.950 . S
H1532 C1528 0.950 . S
C1533 C1531 1.390 . S
C1533 C1534 1.387 . S
C1533 H1536 0.950 . S
C1534 C1533 1.387 . S
C1534 C1537 1.387 . S
H1535 C1531 0.950 . S
H1536 C1533 0.950 . S
C1537 C1528 1.390 . S
C1537 H1530 0.950 . S
C1537 C1534 1.387 . S
C1538 C1539 1.387 . S
C1538 H1542 0.950 . S
C1538 C1547 1.390 1_655 S
C1539 C1538 1.387 . S
C1539 C1541 1.387 . S
H1540 C1547 0.950 . S
C1541 C1539 1.387 . S
C1541 C1543 1.390 1_655 S
C1541 H1545 0.950 . S
H1542 C1538 0.950 . S
C1543 C1541 1.390 1_455 S
C1543 C1544 1.387 . S
C1543 H1546 0.950 . S
C1544 C1543 1.387 . S
C1544 C1547 1.387 . S
H1545 C1541 0.950 . S
H1546 C1543 0.950 . S
C1547 C1538 1.390 1_455 S
C1547 H1540 0.950 . S
C1547 C1544 1.387 . S
C1548 C1549 1.387 . S
C1548 H1552 0.950 . S
C1548 C1557 1.390 1_655 S
C1549 C1548 1.387 . S
C1549 C1551 1.387 . S
H1550 C1557 0.950 . S
C1551 C1549 1.387 . S
C1551 C1553 1.390 1_655 S
C1551 H1555 0.950 . S
H1552 C1548 0.950 . S
C1553 C1551 1.390 1_455 S
C1553 C1554 1.387 . S
C1553 H1556 0.950 . S
C1554 C1553 1.387 . S
C1554 C1557 1.387 . S
H1555 C1551 0.950 . S
H1556 C1553 0.950 . S
C1557 C1548 1.390 1_455 S
C1557 H1550 0.950 . S
C1557 C1554 1.387 . S
C1558 C1559 1.387 1_554 S
C1558 H1562 0.950 . S
C1558 C1567 1.390 . S
C1559 C1558 1.387 1_556 S
C1559 C1561 1.387 . S
H1560 C1567 0.950 . S
C1561 C1559 1.387 . S
C1561 C1563 1.390 . S
C1561 H1565 0.950 . S
H1562 C1558 0.950 . S
C1563 C1561 1.390 . S
C1563 C1564 1.387 . S
C1563 H1566 0.950 . S
C1564 C1563 1.387 . S
C1564 C1567 1.387 1_556 S
H1565 C1561 0.950 . S
H1566 C1563 0.950 . S
C1567 C1558 1.390 . S
C1567 H1560 0.950 . S
C1567 C1564 1.387 1_554 S
C1568 C1569 1.387 . S
C1568 H1572 0.950 . S
C1568 C1577 1.390 . S
C1569 C1568 1.387 . S
C1569 C1571 1.387 . S
H1570 C1577 0.950 . S
C1571 C1569 1.387 . S
C1571 C1573 1.390 . S
C1571 H1575 0.950 . S
H1572 C1568 0.950 . S
C1573 C1571 1.390 . S
C1573 C1574 1.387 . S
C1573 H1576 0.950 . S
C1574 C1573 1.387 . S
C1574 C1577 1.387 . S
H1575 C1571 0.950 . S
H1576 C1573 0.950 . S
C1577 C1568 1.390 . S
C1577 H1570 0.950 . S
C1577 C1574 1.387 . S
C1578 C1579 1.387 . S
C1578 H1582 0.950 . S
C1578 C1587 1.390 . S
C1579 C1578 1.387 . S
C1579 C1581 1.387 . S
H1580 C1587 0.950 . S
C1581 C1579 1.387 . S
C1581 C1583 1.390 . S
C1581 H1585 0.950 . S
H1582 C1578 0.950 . S
C1583 C1581 1.390 . S
C1583 C1584 1.387 . S
C1583 H1586 0.950 . S
C1584 C1583 1.387 . S
C1584 C1587 1.387 . S
H1585 C1581 0.950 . S
H1586 C1583 0.950 . S
C1587 C1578 1.390 . S
C1587 H1580 0.950 . S
C1587 C1584 1.387 . S
C1588 C1589 1.387 . S
C1588 H1592 0.950 . S
C1588 C1597 1.390 1_455 S
C1589 C1588 1.387 . S
C1589 C1591 1.387 . S
H1590 C1597 0.950 . S
C1591 C1589 1.387 . S
C1591 C1593 1.390 1_455 S
C1591 H1595 0.950 . S
H1592 C1588 0.950 . S
C1593 C1591 1.390 1_655 S
C1593 C1594 1.387 . S
C1593 H1596 0.950 . S
C1594 C1593 1.387 . S
C1594 C1597 1.387 . S
H1595 C1591 0.950 . S
H1596 C1593 0.950 . S
C1597 C1588 1.390 1_655 S
C1597 H1590 0.950 . S
C1597 C1594 1.387 . S
C1598 C1599 1.387 . S
C1598 H1602 0.950 . S
C1598 C1607 1.390 1_455 S
C1599 C1598 1.387 . S
C1599 C1601 1.387 1_554 S
H1600 C1607 0.950 . S
C1601 C1599 1.387 1_556 S
C1601 C1603 1.390 1_455 S
C1601 H1605 0.950 . S
H1602 C1598 0.950 . S
C1603 C1601 1.390 1_655 S
C1603 C1604 1.387 1_556 S
C1603 H1606 0.950 . S
C1604 C1603 1.387 1_554 S
C1604 C1607 1.387 . S
H1605 C1601 0.950 . S
H1606 C1603 0.950 . S
C1607 C1598 1.390 1_655 S
C1607 H1600 0.950 . S
C1607 C1604 1.387 . S
C1608 C1609 1.387 . S
C1608 H1612 0.950 . S
C1608 C1617 1.390 . S
C1609 C1608 1.387 . S
C1609 C1611 1.387 . S
H1610 C1617 0.950 . S
C1611 C1609 1.387 . S
C1611 C1613 1.390 . S
C1611 H1615 0.950 . S
H1612 C1608 0.950 . S
C1613 C1611 1.390 . S
C1613 C1614 1.387 . S
C1613 H1616 0.950 . S
C1614 C1613 1.387 . S
C1614 C1617 1.387 . S
H1615 C1611 0.950 . S
H1616 C1613 0.950 . S
C1617 C1608 1.390 . S
C1617 H1610 0.950 . S
C1617 C1614 1.387 . S
C1618 C1619 1.387 . S
C1618 H1622 0.950 . S
C1618 C1627 1.390 1_545 S
C1619 C1618 1.387 . S
C1619 C1621 1.387 . S
H1620 C1627 0.950 . S
C1621 C1619 1.387 . S
C1621 C1623 1.390 1_545 S
C1621 H1625 0.950 . S
H1622 C1618 0.950 . S
C1623 C1621 1.390 1_565 S
C1623 C1624 1.387 . S
C1623 H1626 0.950 . S
C1624 C1623 1.387 . S
C1624 C1627 1.387 . S
H1625 C1621 0.950 . S
H1626 C1623 0.950 . S
C1627 C1618 1.390 1_565 S
C1627 H1620 0.950 . S
C1627 C1624 1.387 . S
C1628 C1629 1.387 . S
C1628 H1632 0.950 . S
C1628 C1637 1.390 1_556 S
C1629 C1628 1.387 . S
C1629 C1631 1.387 . S
H1630 C1637 0.950 . S
C1631 C1629 1.387 . S
C1631 C1633 1.390 1_556 S
C1631 H1635 0.950 . S
H1632 C1628 0.950 . S
C1633 C1631 1.390 1_554 S
C1633 C1634 1.387 . S
C1633 H1636 0.950 . S
C1634 C1633 1.387 . S
C1634 C1637 1.387 . S
H1635 C1631 0.950 . S
H1636 C1633 0.950 . S
C1637 C1628 1.390 1_554 S
C1637 H1630 0.950 . S
C1637 C1634 1.387 . S
C1638 C1639 1.387 . S
C1638 H1642 0.950 . S
C1638 C1647 1.390 1_545 S
C1639 C1638 1.387 . S
C1639 C1641 1.387 . S
H1640 C1647 0.950 . S
C1641 C1639 1.387 . S
C1641 C1643 1.390 1_545 S
C1641 H1645 0.950 . S
H1642 C1638 0.950 . S
C1643 C1641 1.390 1_565 S
C1643 C1644 1.387 . S
C1643 H1646 0.950 . S
C1644 C1643 1.387 . S
C1644 C1647 1.387 . S
H1645 C1641 0.950 . S
H1646 C1643 0.950 . S
C1647 C1638 1.390 1_565 S
C1647 H1640 0.950 . S
C1647 C1644 1.387 . S
C1648 C1649 1.387 . S
C1648 H1652 0.950 . S
C1648 C1657 1.390 1_554 S
C1649 C1648 1.387 . S
C1649 C1651 1.387 1_545 S
H1650 C1657 0.950 . S
C1651 C1649 1.387 1_565 S
C1651 C1653 1.390 1_554 S
C1651 H1655 0.950 . S
H1652 C1648 0.950 . S
C1653 C1651 1.390 1_556 S
C1653 C1654 1.387 1_565 S
C1653 H1656 0.950 . S
C1654 C1653 1.387 1_545 S
C1654 C1657 1.387 . S
H1655 C1651 0.950 . S
H1656 C1653 0.950 . S
C1657 C1648 1.390 1_556 S
C1657 H1650 0.950 . S
C1657 C1654 1.387 . S
C1658 C1659 1.387 . S
C1658 H1662 0.950 . S
C1658 C1667 1.390 . S
C1659 C1658 1.387 . S
C1659 C1661 1.387 . S
H1660 C1667 0.950 . S
C1661 C1659 1.387 . S
C1661 C1663 1.390 . S
C1661 H1665 0.950 . S
H1662 C1658 0.950 . S
C1663 C1661 1.390 . S
C1663 C1664 1.387 . S
C1663 H1666 0.950 . S
C1664 C1663 1.387 . S
C1664 C1667 1.387 . S
H1665 C1661 0.950 . S
H1666 C1663 0.950 . S
C1667 C1658 1.390 . S
C1667 H1660 0.950 . S
C1667 C1664 1.387 . S
C1668 C1669 1.387 . S
C1668 H1672 0.950 . S
C1668 C1677 1.390 . S
C1669 C1668 1.387 . S
C1669 C1671 1.387 . S
H1670 C1677 0.950 . S
C1671 C1669 1.387 . S
C1671 C1673 1.390 . S
C1671 H1675 0.950 . S
H1672 C1668 0.950 . S
C1673 C1671 1.390 . S
C1673 C1674 1.387 . S
C1673 H1676 0.950 . S
C1674 C1673 1.387 . S
C1674 C1677 1.387 . S
H1675 C1671 0.950 . S
H1676 C1673 0.950 . S
C1677 C1668 1.390 . S
C1677 H1670 0.950 . S
C1677 C1674 1.387 . S
C1678 C1679 1.387 . S
C1678 H1682 0.950 . S
C1678 C1687 1.390 1_556 S
C1679 C1678 1.387 . S
C1679 C1681 1.387 . S
H1680 C1687 0.950 . S
C1681 C1679 1.387 . S
C1681 C1683 1.390 1_556 S
C1681 H1685 0.950 . S
H1682 C1678 0.950 . S
C1683 C1681 1.390 1_554 S
C1683 C1684 1.387 . S
C1683 H1686 0.950 . S
C1684 C1683 1.387 . S
C1684 C1687 1.387 . S
H1685 C1681 0.950 . S
H1686 C1683 0.950 . S
C1687 C1678 1.390 1_554 S
C1687 H1680 0.950 . S
C1687 C1684 1.387 . S
C1688 C1689 1.387 . S
C1688 H1692 0.950 . S
C1688 C1697 1.390 . S
C1689 C1688 1.387 . S
C1689 C1691 1.387 . S
H1690 C1697 0.950 . S
C1691 C1689 1.387 . S
C1691 C1693 1.390 . S
C1691 H1695 0.950 . S
H1692 C1688 0.950 . S
C1693 C1691 1.390 . S
C1693 C1694 1.387 . S
C1693 H1696 0.950 . S
C1694 C1693 1.387 . S
C1694 C1697 1.387 . S
H1695 C1691 0.950 . S
H1696 C1693 0.950 . S
C1697 C1688 1.390 . S
C1697 H1690 0.950 . S
C1697 C1694 1.387 . S
C1698 C1699 1.387 . S
C1698 H1702 0.950 . S
C1698 C1707 1.390 . S
C1699 C1698 1.387 . S
C1699 C1701 1.387 . S
H1700 C1707 0.950 . S
C1701 C1699 1.387 . S
C1701 C1703 1.390 . S
C1701 H1705 0.950 . S
H1702 C1698 0.950 . S
C1703 C1701 1.390 . S
C1703 C1704 1.387 . S
C1703 H1706 0.950 . S
C1704 C1703 1.387 . S
C1704 C1707 1.387 . S
H1705 C1701 0.950 . S
H1706 C1703 0.950 . S
C1707 C1698 1.390 . S
C1707 H1700 0.950 . S
C1707 C1704 1.387 . S
C1708 C1709 1.387 . S
C1708 H1712 0.950 . S
C1708 C1717 1.390 . S
C1709 C1708 1.387 . S
C1709 C1711 1.387 1_655 S
H1710 C1717 0.950 . S
C1711 C1709 1.387 1_455 S
C1711 C1713 1.390 . S
C1711 H1715 0.950 . S
H1712 C1708 0.950 . S
C1713 C1711 1.390 . S
C1713 C1714 1.387 1_455 S
C1713 H1716 0.950 . S
C1714 C1713 1.387 1_655 S
C1714 C1717 1.387 . S
H1715 C1711 0.950 . S
H1716 C1713 0.950 . S
C1717 C1708 1.390 . S
C1717 H1710 0.950 . S
C1717 C1714 1.387 . S
C1718 C1719 1.387 . S
C1718 H1722 0.950 . S
C1718 C1727 1.390 . S
C1719 C1718 1.387 . S
C1719 C1721 1.387 1_565 S
H1720 C1727 0.950 . S
C1721 C1719 1.387 1_545 S
C1721 C1723 1.390 . S
C1721 H1725 0.950 . S
H1722 C1718 0.950 . S
C1723 C1721 1.390 . S
C1723 C1724 1.387 1_545 S
C1723 H1726 0.950 . S
C1724 C1723 1.387 1_565 S
C1724 C1727 1.387 . S
H1725 C1721 0.950 . S
H1726 C1723 0.950 . S
C1727 C1718 1.390 . S
C1727 H1720 0.950 . S
C1727 C1724 1.387 . S
C1409 C57 1.843 . S
C1414 C645 1.843 . S
C1419 C145 1.845 . S
C1424 C372 1.845 . S
C1429 C489 1.842 . S
C1434 C205 1.842 . S
C1439 C321 1.844 . S
C1444 C548 1.844 . S
C1449 C724 1.845 . S
C1454 C1113 1.845 . S
C1459 C849 1.842 . S
C1464 C1252 1.842 . S
C1469 C1025 1.844 . S
C1474 C900 1.844 . S
C1479 C1340 1.843 . S
C1484 C1201 1.843 . S
C1489 C29 1.349 . S
C1494 C585 1.336 . S
C1499 C636 1.353 . S
C1504 C137 1.353 . S
C1509 C233 1.352 . S
C1514 C409 1.339 . S
C1519 C497 1.367 . S
C1524 C284 1.371 . S
C1529 C49 1.349 . S
C1534 C1261 1.349 . S
C1539 C997 1.348 . S
C1544 C108 1.335 . S
C1549 C1193 1.349 . S
C1554 C196 1.349 . S
C1559 C1076 1.331 . S
C1564 C293 1.344 . S
C1569 C929 1.374 . S
C1574 C401 1.373 . S
C1579 C469 1.347 . S
C1584 C1377 1.348 . S
C1589 C577 1.374 . S
C1594 C753 1.373 . S
C1599 C665 1.348 . S
C1604 C812 1.347 . S
C1609 C20 1.362 . S
C1614 C381 1.358 . S
C1619 C733 1.354 . S
C1624 C1164 1.358 . S
C1629 C1085 1.359 . S
C1634 C821 1.360 . S
C1639 C1289 1.354 . S
C1644 C909 1.348 . S
C1649 C673 1.364 . S
C1654 C313 1.347 . S
C1659 C225 1.358 . S
C1664 C557 1.353 . S
C1669 C1017 1.342 . S
C1674 C1369 1.360 . S
C1679 C1173 1.353 . S
C1684 C937 1.340 . S
C1689 C1349 1.357 . S
C1694 C1105 1.358 . S
C1699 C1281 1.348 . S
C1704 C761 1.334 . S
C1709 C988 1.371 . S
C1714 C841 1.367 . S
C1719 C117 1.363 . S
C1724 C460 1.364 . S
