# Generated by pormake.
# Topology zni, (4)-cn, num edge types: 1
# Building blocks:
#     Node 0, Type 0, BuildingBlock: GALJAG_clean_sbu_0, # of connection points: 4
#     Node 1, Type 0, BuildingBlock: GALJAG_clean_sbu_0, # of connection points: 4
#     Node 2, Type 0, BuildingBlock: GALJAG_clean_sbu_0, # of connection points: 4
#     Node 3, Type 0, BuildingBlock: GALJAG_clean_sbu_0, # of connection points: 4
#     Node 4, Type 0, BuildingBlock: GALJAG_clean_sbu_0, # of connection points: 4
#     Node 5, Type 0, BuildingBlock: GALJAG_clean_sbu_0, # of connection points: 4
#     Node 6, Type 0, BuildingBlock: GALJAG_clean_sbu_0, # of connection points: 4
#     Node 7, Type 0, BuildingBlock: GALJAG_clean_sbu_0, # of connection points: 4
#     Node 8, Type 0, BuildingBlock: GALJAG_clean_sbu_0, # of connection points: 4
#     Node 9, Type 0, BuildingBlock: GALJAG_clean_sbu_0, # of connection points: 4
#     Node 10, Type 0, BuildingBlock: GALJAG_clean_sbu_0, # of connection points: 4
#     Node 11, Type 0, BuildingBlock: GALJAG_clean_sbu_0, # of connection points: 4
#     Node 12, Type 0, BuildingBlock: GALJAG_clean_sbu_0, # of connection points: 4
#     Node 13, Type 0, BuildingBlock: GALJAG_clean_sbu_0, # of connection points: 4
#     Node 14, Type 0, BuildingBlock: GALJAG_clean_sbu_0, # of connection points: 4
#     Node 15, Type 0, BuildingBlock: GALJAG_clean_sbu_0, # of connection points: 4
#     Node 16, Type 0, BuildingBlock: GALJAG_clean_sbu_0, # of connection points: 4
#     Node 17, Type 0, BuildingBlock: GALJAG_clean_sbu_0, # of connection points: 4
#     Node 18, Type 0, BuildingBlock: GALJAG_clean_sbu_0, # of connection points: 4
#     Node 19, Type 0, BuildingBlock: GALJAG_clean_sbu_0, # of connection points: 4
#     Node 20, Type 0, BuildingBlock: GALJAG_clean_sbu_0, # of connection points: 4
#     Node 21, Type 0, BuildingBlock: GALJAG_clean_sbu_0, # of connection points: 4
#     Node 22, Type 0, BuildingBlock: GALJAG_clean_sbu_0, # of connection points: 4
#     Node 23, Type 0, BuildingBlock: GALJAG_clean_sbu_0, # of connection points: 4
#     Node 24, Type 0, BuildingBlock: GALJAG_clean_sbu_0, # of connection points: 4
#     Node 25, Type 0, BuildingBlock: GALJAG_clean_sbu_0, # of connection points: 4
#     Node 26, Type 0, BuildingBlock: GALJAG_clean_sbu_0, # of connection points: 4
#     Node 27, Type 0, BuildingBlock: GALJAG_clean_sbu_0, # of connection points: 4
#     Node 28, Type 0, BuildingBlock: GALJAG_clean_sbu_0, # of connection points: 4
#     Node 29, Type 0, BuildingBlock: GALJAG_clean_sbu_0, # of connection points: 4
#     Node 30, Type 0, BuildingBlock: GALJAG_clean_sbu_0, # of connection points: 4
#     Node 31, Type 0, BuildingBlock: GALJAG_clean_sbu_0, # of connection points: 4
#     Edge 32, Type (0, 0), BuildingBlock: XIVTED_clean_linker_0, # of connection points: 2
#     Edge 33, Type (0, 0), BuildingBlock: XIVTED_clean_linker_0, # of connection points: 2
#     Edge 34, Type (0, 0), BuildingBlock: XIVTED_clean_linker_0, # of connection points: 2
#     Edge 35, Type (0, 0), BuildingBlock: XIVTED_clean_linker_0, # of connection points: 2
#     Edge 36, Type (0, 0), BuildingBlock: XIVTED_clean_linker_0, # of connection points: 2
#     Edge 37, Type (0, 0), BuildingBlock: XIVTED_clean_linker_0, # of connection points: 2
#     Edge 38, Type (0, 0), BuildingBlock: XIVTED_clean_linker_0, # of connection points: 2
#     Edge 39, Type (0, 0), BuildingBlock: XIVTED_clean_linker_0, # of connection points: 2
#     Edge 40, Type (0, 0), BuildingBlock: XIVTED_clean_linker_0, # of connection points: 2
#     Edge 41, Type (0, 0), BuildingBlock: XIVTED_clean_linker_0, # of connection points: 2
#     Edge 42, Type (0, 0), BuildingBlock: XIVTED_clean_linker_0, # of connection points: 2
#     Edge 43, Type (0, 0), BuildingBlock: XIVTED_clean_linker_0, # of connection points: 2
#     Edge 44, Type (0, 0), BuildingBlock: XIVTED_clean_linker_0, # of connection points: 2
#     Edge 45, Type (0, 0), BuildingBlock: XIVTED_clean_linker_0, # of connection points: 2
#     Edge 46, Type (0, 0), BuildingBlock: XIVTED_clean_linker_0, # of connection points: 2
#     Edge 47, Type (0, 0), BuildingBlock: XIVTED_clean_linker_0, # of connection points: 2
#     Edge 48, Type (0, 0), BuildingBlock: XIVTED_clean_linker_0, # of connection points: 2
#     Edge 49, Type (0, 0), BuildingBlock: XIVTED_clean_linker_0, # of connection points: 2
#     Edge 50, Type (0, 0), BuildingBlock: XIVTED_clean_linker_0, # of connection points: 2
#     Edge 51, Type (0, 0), BuildingBlock: XIVTED_clean_linker_0, # of connection points: 2
#     Edge 52, Type (0, 0), BuildingBlock: XIVTED_clean_linker_0, # of connection points: 2
#     Edge 53, Type (0, 0), BuildingBlock: XIVTED_clean_linker_0, # of connection points: 2
#     Edge 54, Type (0, 0), BuildingBlock: XIVTED_clean_linker_0, # of connection points: 2
#     Edge 55, Type (0, 0), BuildingBlock: XIVTED_clean_linker_0, # of connection points: 2
#     Edge 56, Type (0, 0), BuildingBlock: XIVTED_clean_linker_0, # of connection points: 2
#     Edge 57, Type (0, 0), BuildingBlock: XIVTED_clean_linker_0, # of connection points: 2
#     Edge 58, Type (0, 0), BuildingBlock: XIVTED_clean_linker_0, # of connection points: 2
#     Edge 59, Type (0, 0), BuildingBlock: XIVTED_clean_linker_0, # of connection points: 2
#     Edge 60, Type (0, 0), BuildingBlock: XIVTED_clean_linker_0, # of connection points: 2
#     Edge 61, Type (0, 0), BuildingBlock: XIVTED_clean_linker_0, # of connection points: 2
#     Edge 62, Type (0, 0), BuildingBlock: XIVTED_clean_linker_0, # of connection points: 2
#     Edge 63, Type (0, 0), BuildingBlock: XIVTED_clean_linker_0, # of connection points: 2
#     Edge 64, Type (0, 0), BuildingBlock: XIVTED_clean_linker_0, # of connection points: 2
#     Edge 65, Type (0, 0), BuildingBlock: XIVTED_clean_linker_0, # of connection points: 2
#     Edge 66, Type (0, 0), BuildingBlock: XIVTED_clean_linker_0, # of connection points: 2
#     Edge 67, Type (0, 0), BuildingBlock: XIVTED_clean_linker_0, # of connection points: 2
#     Edge 68, Type (0, 0), BuildingBlock: XIVTED_clean_linker_0, # of connection points: 2
#     Edge 69, Type (0, 0), BuildingBlock: XIVTED_clean_linker_0, # of connection points: 2
#     Edge 70, Type (0, 0), BuildingBlock: XIVTED_clean_linker_0, # of connection points: 2
#     Edge 71, Type (0, 0), BuildingBlock: XIVTED_clean_linker_0, # of connection points: 2
#     Edge 72, Type (0, 0), BuildingBlock: XIVTED_clean_linker_0, # of connection points: 2
#     Edge 73, Type (0, 0), BuildingBlock: XIVTED_clean_linker_0, # of connection points: 2
#     Edge 74, Type (0, 0), BuildingBlock: XIVTED_clean_linker_0, # of connection points: 2
#     Edge 75, Type (0, 0), BuildingBlock: XIVTED_clean_linker_0, # of connection points: 2
#     Edge 76, Type (0, 0), BuildingBlock: XIVTED_clean_linker_0, # of connection points: 2
#     Edge 77, Type (0, 0), BuildingBlock: XIVTED_clean_linker_0, # of connection points: 2
#     Edge 78, Type (0, 0), BuildingBlock: XIVTED_clean_linker_0, # of connection points: 2
#     Edge 79, Type (0, 0), BuildingBlock: XIVTED_clean_linker_0, # of connection points: 2
#     Edge 80, Type (0, 0), BuildingBlock: XIVTED_clean_linker_0, # of connection points: 2
#     Edge 81, Type (0, 0), BuildingBlock: XIVTED_clean_linker_0, # of connection points: 2
#     Edge 82, Type (0, 0), BuildingBlock: XIVTED_clean_linker_0, # of connection points: 2
#     Edge 83, Type (0, 0), BuildingBlock: XIVTED_clean_linker_0, # of connection points: 2
#     Edge 84, Type (0, 0), BuildingBlock: XIVTED_clean_linker_0, # of connection points: 2
#     Edge 85, Type (0, 0), BuildingBlock: XIVTED_clean_linker_0, # of connection points: 2
#     Edge 86, Type (0, 0), BuildingBlock: XIVTED_clean_linker_0, # of connection points: 2
#     Edge 87, Type (0, 0), BuildingBlock: XIVTED_clean_linker_0, # of connection points: 2
#     Edge 88, Type (0, 0), BuildingBlock: XIVTED_clean_linker_0, # of connection points: 2
#     Edge 89, Type (0, 0), BuildingBlock: XIVTED_clean_linker_0, # of connection points: 2
#     Edge 90, Type (0, 0), BuildingBlock: XIVTED_clean_linker_0, # of connection points: 2
#     Edge 91, Type (0, 0), BuildingBlock: XIVTED_clean_linker_0, # of connection points: 2
#     Edge 92, Type (0, 0), BuildingBlock: XIVTED_clean_linker_0, # of connection points: 2
#     Edge 93, Type (0, 0), BuildingBlock: XIVTED_clean_linker_0, # of connection points: 2
#     Edge 94, Type (0, 0), BuildingBlock: XIVTED_clean_linker_0, # of connection points: 2
#     Edge 95, Type (0, 0), BuildingBlock: XIVTED_clean_linker_0, # of connection points: 2
# Relax obj value: 0.235
# Max RMSD: 0.125
# Mean RMSD: 0.125
data_MOF--net-zni--node1-GALJAG_clean_sbu_0--edge1-XIVTED_clean_linker_0
_symmetry_space_group_name_H-M    P1
_symmetry_Int_Tables_number       1
_symmetry_cell_setting            triclinic
loop_
_symmetry_equiv_pos_as_xyz
'x, y, z'
_cell_length_a     58.876433
_cell_length_b     58.912356
_cell_length_c     30.799048
_cell_angle_alpha  89.971783
_cell_angle_beta   90.010405
_cell_angle_gamma 90.009597
loop_
_atom_site_label
_atom_site_type_symbol
_atom_site_fract_x
_atom_site_fract_y
_atom_site_fract_z
_atom_type_partial_charge
In0 In 0.10363 0.09911 0.38794 0.0
O1 O 0.11898 0.08449 0.32569 0.0
O2 O 0.10893 0.06158 0.37536 0.0
C3 C 0.11461 0.14329 0.37928 0.0
C4 C 0.05804 0.10034 0.37782 0.0
C5 C 0.12504 0.08993 0.46287 0.0
O6 O 0.12201 0.12829 0.35363 0.0
O7 O 0.1017 0.13598 0.40881 0.0
O8 O 0.10452 0.08476 0.45624 0.0
O9 O 0.13489 0.09949 0.43139 0.0
C10 C 0.11739 0.06414 0.33814 0.0
O11 O 0.06739 0.09691 0.41404 0.0
O12 O 0.07165 0.10291 0.34662 0.0
In13 In 0.1476 0.856 0.64207 0.0
O14 O 0.16361 0.87352 0.58301 0.0
O15 O 0.18534 0.85758 0.62886 0.0
C16 C 0.10377 0.8684 0.63424 0.0
C17 C 0.144 0.81075 0.62969 0.0
C18 C 0.15769 0.87619 0.71776 0.0
O19 O 0.11861 0.87421 0.60672 0.0
O20 O 0.1111 0.85643 0.66517 0.0
O21 O 0.16156 0.85546 0.71059 0.0
O22 O 0.14893 0.8869 0.68645 0.0
C23 C 0.18368 0.8687 0.59411 0.0
O24 O 0.14855 0.81939 0.66608 0.0
O25 O 0.14146 0.8249 0.59935 0.0
In26 In 0.3902 0.89732 0.88787 0.0
O27 O 0.42622 0.90185 0.91414 0.0
O28 O 0.42248 0.89371 0.84743 0.0
C29 C 0.36832 0.90462 0.96297 0.0
C30 C 0.37542 0.93199 0.83817 0.0
C31 C 0.38084 0.85283 0.87914 0.0
O32 O 0.38845 0.91117 0.95644 0.0
O33 O 0.35905 0.89468 0.93128 0.0
O34 O 0.37231 0.86764 0.85429 0.0
O35 O 0.39409 0.86051 0.90777 0.0
C36 C 0.43585 0.89772 0.87846 0.0
O37 O 0.37545 0.91174 0.82481 0.0
O38 O 0.38271 0.93458 0.87626 0.0
In39 In 0.35172 0.13697 0.13449 0.0
O40 O 0.31498 0.12776 0.12027 0.0
O41 O 0.33807 0.12684 0.06754 0.0
C42 C 0.39536 0.12338 0.12969 0.0
C43 C 0.35415 0.18261 0.12581 0.0
C44 C 0.34069 0.11796 0.21071 0.0
O45 O 0.38014 0.11524 0.10533 0.0
O46 O 0.38852 0.13821 0.15611 0.0
O47 O 0.33612 0.13835 0.20158 0.0
O48 O 0.35057 0.10696 0.18099 0.0
C49 C 0.31792 0.12422 0.08041 0.0
O50 O 0.34732 0.17314 0.16007 0.0
O51 O 0.35946 0.16912 0.09576 0.0
In52 In 0.10732 0.89467 0.09677 0.0
O53 O 0.07097 0.89724 0.07133 0.0
O54 O 0.07553 0.88991 0.1382 0.0
C55 C 0.12801 0.9047 0.02154 0.0
C56 C 0.12066 0.92931 0.14787 0.0
C57 C 0.11897 0.85057 0.10354 0.0
O58 O 0.10748 0.90955 0.02891 0.0
O59 O 0.13825 0.89502 0.05245 0.0
O60 O 0.12691 0.86554 0.12871 0.0
O61 O 0.10522 0.85789 0.07544 0.0
C62 C 0.06178 0.89306 0.10741 0.0
O63 O 0.12154 0.90893 0.16038 0.0
O64 O 0.11325 0.93205 0.1099 0.0
In65 In 0.35114 0.85979 0.34692 0.0
O66 O 0.33783 0.86555 0.41583 0.0
O67 O 0.3164 0.87444 0.36324 0.0
C68 C 0.39218 0.87801 0.36522 0.0
C69 C 0.356 0.81408 0.34238 0.0
C70 C 0.33933 0.87548 0.26836 0.0
O71 O 0.38309 0.87906 0.32827 0.0
O72 O 0.38035 0.86813 0.3937 0.0
O73 O 0.33838 0.85465 0.278 0.0
O74 O 0.34588 0.88838 0.29863 0.0
C75 C 0.31888 0.87322 0.40373 0.0
O76 O 0.37192 0.82775 0.33461 0.0
O77 O 0.33746 0.82338 0.35236 0.0
In78 In 0.38561 0.10009 0.59368 0.0
O79 O 0.42189 0.09718 0.56802 0.0
O80 O 0.41755 0.10404 0.63509 0.0
C81 C 0.36543 0.09098 0.51754 0.0
C82 C 0.37154 0.06538 0.64407 0.0
C83 C 0.37462 0.14428 0.60175 0.0
O84 O 0.38556 0.08511 0.52601 0.0
O85 O 0.35526 0.10124 0.54784 0.0
O86 O 0.36593 0.12916 0.62566 0.0
O87 O 0.38871 0.13705 0.5742 0.0
C88 C 0.4312 0.10097 0.60413 0.0
O89 O 0.37165 0.08562 0.65739 0.0
O90 O 0.37829 0.06282 0.60562 0.0
In91 In 0.14748 0.14336 0.83977 0.0
O92 O 0.16368 0.12636 0.8991 0.0
O93 O 0.18534 0.1412 0.85182 0.0
C94 C 0.10357 0.13141 0.84884 0.0
C95 C 0.14456 0.18871 0.85146 0.0
C96 C 0.15682 0.1225 0.76443 0.0
O97 O 0.11854 0.12558 0.87607 0.0
O98 O 0.1108 0.14318 0.81755 0.0
O99 O 0.1607 0.14331 0.77071 0.0
O100 O 0.14839 0.11207 0.79643 0.0
C101 C 0.18375 0.1306 0.88717 0.0
O102 O 0.14889 0.17987 0.81515 0.0
O103 O 0.1419 0.17472 0.88201 0.0
In104 In 0.89173 0.8986 0.59468 0.0
O105 O 0.92781 0.90158 0.56795 0.0
O106 O 0.92394 0.89588 0.63555 0.0
C107 C 0.87014 0.90748 0.51979 0.0
C108 C 0.87726 0.93276 0.64577 0.0
C109 C 0.88225 0.85411 0.60369 0.0
O110 O 0.89032 0.91362 0.52697 0.0
O111 O 0.86066 0.89708 0.55074 0.0
O112 O 0.87392 0.86898 0.62859 0.0
O113 O 0.89521 0.86173 0.57454 0.0
C114 C 0.93737 0.89857 0.6041 0.0
O115 O 0.87654 0.9123 0.65778 0.0
O116 O 0.88513 0.93586 0.60822 0.0
In117 In 0.8467 0.13905 0.34367 0.0
O118 O 0.84512 0.17551 0.3189 0.0
O119 O 0.8526 0.17046 0.38561 0.0
C120 C 0.83659 0.11833 0.26843 0.0
C121 C 0.81134 0.12614 0.39339 0.0
C122 C 0.89081 0.1277 0.352 0.0
O123 O 0.83231 0.13899 0.27541 0.0
O124 O 0.8457 0.10794 0.29976 0.0
O125 O 0.87607 0.12191 0.3797 0.0
O126 O 0.88325 0.13912 0.3205 0.0
C127 C 0.84971 0.18441 0.35505 0.0
O128 O 0.83151 0.12068 0.40242 0.0
O129 O 0.80916 0.13797 0.35959 0.0
In130 In 0.60762 0.09549 0.09338 0.0
O131 O 0.62381 0.08071 0.1548 0.0
O132 O 0.61404 0.05801 0.10469 0.0
C133 C 0.61785 0.13977 0.10349 0.0
C134 C 0.56215 0.09546 0.10544 0.0
C135 C 0.62744 0.08744 0.0164 0.0
O136 O 0.62656 0.12451 0.12701 0.0
O137 O 0.60407 0.13266 0.07524 0.0
O138 O 0.60732 0.08156 0.02486 0.0
O139 O 0.63778 0.09717 0.0471 0.0
C140 C 0.62259 0.06044 0.14184 0.0
O141 O 0.57119 0.09231 0.06888 0.0
O142 O 0.57601 0.09848 0.13609 0.0
In143 In 0.64735 0.85929 0.84793 0.0
O144 O 0.65128 0.82298 0.82327 0.0
O145 O 0.64247 0.82751 0.88945 0.0
C146 C 0.65738 0.8786 0.77142 0.0
C147 C 0.68138 0.8735 0.89988 0.0
C148 C 0.60306 0.87053 0.85338 0.0
O149 O 0.66264 0.85839 0.78059 0.0
O150 O 0.64733 0.88932 0.80129 0.0
O151 O 0.61789 0.87938 0.87772 0.0
O152 O 0.61061 0.85615 0.82675 0.0
C153 C 0.64657 0.81378 0.85908 0.0
O154 O 0.661 0.873 0.91246 0.0
O155 O 0.68441 0.86715 0.86132 0.0
In156 In 0.89159 0.09993 0.89178 0.0
O157 O 0.87642 0.08598 0.82886 0.0
O158 O 0.88607 0.06254 0.87792 0.0
C159 C 0.88088 0.14418 0.88333 0.0
C160 C 0.93722 0.10106 0.8822 0.0
C161 C 0.86993 0.09015 0.96621 0.0
O162 O 0.87329 0.12922 0.85778 0.0
O163 O 0.89379 0.13678 0.91277 0.0
O164 O 0.89037 0.08476 0.95945 0.0
O165 O 0.86029 0.10029 0.93514 0.0
C166 C 0.8778 0.06551 0.84064 0.0
O167 O 0.92777 0.0979 0.91842 0.0
O168 O 0.92369 0.10339 0.8508 0.0
In169 In 0.64239 0.14089 0.63572 0.0
O170 O 0.64521 0.17701 0.66192 0.0
O171 O 0.63828 0.17301 0.5948 0.0
C172 C 0.65189 0.12038 0.71134 0.0
C173 C 0.6774 0.12697 0.58597 0.0
C174 C 0.59827 0.12941 0.62778 0.0
O175 O 0.65704 0.1408 0.70368 0.0
O176 O 0.64206 0.11016 0.68058 0.0
O177 O 0.61337 0.12149 0.60288 0.0
O178 O 0.60548 0.14303 0.65618 0.0
C179 C 0.64136 0.1865 0.62601 0.0
O180 O 0.65723 0.12717 0.57209 0.0
O181 O 0.67972 0.1337 0.62447 0.0
In182 In 0.60475 0.89548 0.39002 0.0
O183 O 0.57007 0.89608 0.42296 0.0
O184 O 0.57125 0.90245 0.35511 0.0
C185 C 0.62628 0.90291 0.46571 0.0
C186 C 0.62084 0.92754 0.33578 0.0
C187 C 0.61107 0.85083 0.3743 0.0
O188 O 0.6078 0.91245 0.45599 0.0
O189 O 0.63401 0.88968 0.4371 0.0
O190 O 0.62491 0.86572 0.36125 0.0
O191 O 0.5942 0.85853 0.39468 0.0
C192 C 0.55916 0.90039 0.3887 0.0
O193 O 0.61588 0.9078 0.32295 0.0
O194 O 0.61786 0.93091 0.37575 0.0
In195 In 0.85042 0.8544 0.14205 0.0
O196 O 0.83592 0.87032 0.08013 0.0
O197 O 0.81286 0.85907 0.12858 0.0
C198 C 0.89459 0.86561 0.13393 0.0
C199 C 0.85224 0.80886 0.13193 0.0
C200 C 0.84063 0.87538 0.21713 0.0
O201 O 0.87966 0.87269 0.10774 0.0
O202 O 0.8872 0.85299 0.16383 0.0
O203 O 0.83567 0.85488 0.21 0.0
O204 O 0.85035 0.88546 0.18608 0.0
C205 C 0.81551 0.86815 0.09193 0.0
O206 O 0.8483 0.81817 0.16796 0.0
O207 O 0.85499 0.82249 0.10081 0.0
In208 In 0.61209 0.6018 0.89205 0.0
O209 O 0.57594 0.59687 0.91752 0.0
O210 O 0.58 0.6067 0.8517 0.0
C211 C 0.63382 0.59423 0.96729 0.0
C212 C 0.62563 0.56701 0.84145 0.0
C213 C 0.62194 0.64621 0.88362 0.0
O214 O 0.61323 0.5891 0.96142 0.0
O215 O 0.64367 0.6028 0.93477 0.0
O216 O 0.63045 0.63135 0.8589 0.0
O217 O 0.60853 0.63862 0.91206 0.0
C218 C 0.56648 0.60197 0.88212 0.0
O219 O 0.62636 0.58736 0.82872 0.0
O220 O 0.61837 0.56437 0.87956 0.0
In221 In 0.6481 0.3521 0.14649 0.0
O222 O 0.66301 0.36712 0.08418 0.0
O223 O 0.68579 0.35636 0.13352 0.0
C224 C 0.60415 0.36425 0.13927 0.0
C225 C 0.64569 0.30669 0.13475 0.0
C226 C 0.65757 0.37309 0.22168 0.0
O227 O 0.6192 0.37151 0.11351 0.0
O228 O 0.61131 0.35087 0.16818 0.0
O229 O 0.6613 0.35222 0.2157 0.0
O230 O 0.64932 0.38347 0.18945 0.0
C231 C 0.68335 0.36494 0.09637 0.0
O232 O 0.65101 0.31551 0.17063 0.0
O233 O 0.64185 0.32074 0.10475 0.0
In234 In 0.89 0.39534 0.39062 0.0
O235 O 0.92633 0.39784 0.41636 0.0
O236 O 0.92187 0.39122 0.34922 0.0
C237 C 0.86931 0.40495 0.46608 0.0
C238 C 0.87644 0.42982 0.33924 0.0
C239 C 0.87881 0.35119 0.38258 0.0
O240 O 0.88966 0.41033 0.45838 0.0
O241 O 0.85922 0.39495 0.43538 0.0
O242 O 0.87053 0.36633 0.35819 0.0
O243 O 0.89263 0.35837 0.41069 0.0
C244 C 0.93557 0.39411 0.38017 0.0
O245 O 0.87567 0.40941 0.327 0.0
O246 O 0.88382 0.4327 0.3772 0.0
In247 In 0.84759 0.64229 0.64644 0.0
O248 O 0.84804 0.67837 0.67309 0.0
O249 O 0.85495 0.67389 0.60595 0.0
C250 C 0.83747 0.62063 0.72067 0.0
C251 C 0.8102 0.63235 0.59979 0.0
C252 C 0.89109 0.62935 0.63559 0.0
O253 O 0.83501 0.64177 0.71592 0.0
O254 O 0.84482 0.61028 0.68766 0.0
O255 O 0.87625 0.62617 0.60651 0.0
O256 O 0.8839 0.63893 0.66951 0.0
C257 C 0.85288 0.68752 0.63726 0.0
O258 O 0.82942 0.62423 0.59026 0.0
O259 O 0.8101 0.64535 0.63219 0.0
In260 In 0.60564 0.39855 0.59835 0.0
O261 O 0.56943 0.40327 0.57311 0.0
O262 O 0.57361 0.39347 0.63892 0.0
C263 C 0.62746 0.40684 0.52348 0.0
C264 C 0.61986 0.43302 0.64905 0.0
C265 C 0.61555 0.35408 0.60568 0.0
O266 O 0.60687 0.41196 0.52935 0.0
O267 O 0.6372 0.39787 0.55573 0.0
O268 O 0.62337 0.3687 0.63171 0.0
O269 O 0.60276 0.36192 0.57645 0.0
C270 C 0.56004 0.39808 0.60852 0.0
O271 O 0.62098 0.41259 0.66113 0.0
O272 O 0.61165 0.43593 0.61172 0.0
In273 In 0.85024 0.35663 0.84644 0.0
O274 O 0.81287 0.36286 0.85988 0.0
O275 O 0.83609 0.36999 0.91079 0.0
C276 C 0.89424 0.36877 0.85267 0.0
C277 C 0.85235 0.31113 0.85708 0.0
C278 C 0.84003 0.3768 0.77077 0.0
O279 O 0.87921 0.37687 0.87751 0.0
O280 O 0.88702 0.35468 0.82513 0.0
O281 O 0.83526 0.35632 0.77869 0.0
O282 O 0.84966 0.38729 0.80142 0.0
C283 C 0.81569 0.36954 0.89831 0.0
O284 O 0.84753 0.32026 0.82124 0.0
O285 O 0.85585 0.32492 0.88764 0.0
In286 In 0.89297 0.59804 0.0941 0.0
O287 O 0.9291 0.59498 0.06748 0.0
O288 O 0.92516 0.60263 0.13435 0.0
C289 C 0.87044 0.58871 0.02046 0.0
C290 C 0.87972 0.56336 0.14517 0.0
C291 C 0.88243 0.64236 0.10192 0.0
O292 O 0.89119 0.58402 0.02559 0.0
O293 O 0.86095 0.59785 0.05277 0.0
O294 O 0.87543 0.62763 0.12859 0.0
O295 O 0.89472 0.6347 0.07175 0.0
C296 C 0.93862 0.59925 0.10321 0.0
O297 O 0.87781 0.5838 0.15684 0.0
O298 O 0.88825 0.56055 0.10808 0.0
In299 In 0.64228 0.63757 0.35091 0.0
O300 O 0.67373 0.61869 0.37485 0.0
O301 O 0.65621 0.63926 0.42013 0.0
C302 C 0.60036 0.61932 0.35663 0.0
C303 C 0.63694 0.68317 0.35173 0.0
C304 C 0.65676 0.6225 0.2735 0.0
O305 O 0.61434 0.61834 0.38773 0.0
O306 O 0.6077 0.62913 0.3231 0.0
O307 O 0.65811 0.64312 0.28445 0.0
O308 O 0.64843 0.60948 0.30192 0.0
C309 C 0.67287 0.62641 0.41287 0.0
O310 O 0.65515 0.67389 0.33951 0.0
O311 O 0.62168 0.66953 0.3635 0.0
In312 In 0.39225 0.39452 0.10055 0.0
O313 O 0.37568 0.41008 0.16098 0.0
O314 O 0.38681 0.43215 0.11074 0.0
C315 C 0.38236 0.35006 0.10882 0.0
C316 C 0.43759 0.39446 0.1138 0.0
C317 C 0.37184 0.40211 0.024 0.0
O318 O 0.3738 0.36488 0.13356 0.0
O319 O 0.39581 0.35773 0.08055 0.0
O320 O 0.3927 0.40579 0.03026 0.0
O321 O 0.36113 0.39476 0.05662 0.0
C322 C 0.37755 0.43022 0.14739 0.0
O323 O 0.42876 0.3991 0.07759 0.0
O324 O 0.42354 0.39019 0.14363 0.0
In325 In 0.35503 0.63984 0.84586 0.0
O326 O 0.34069 0.62639 0.91016 0.0
O327 O 0.31817 0.63012 0.85693 0.0
C328 C 0.39934 0.62887 0.85305 0.0
C329 C 0.35513 0.68535 0.85724 0.0
C330 C 0.34614 0.62157 0.76795 0.0
O331 O 0.38423 0.61934 0.87581 0.0
O332 O 0.39203 0.64374 0.82714 0.0
O333 O 0.34003 0.64137 0.77834 0.0
O334 O 0.3565 0.6107 0.79727 0.0
C335 C 0.32067 0.62454 0.89606 0.0
O336 O 0.35075 0.67612 0.82133 0.0
O337 O 0.35916 0.67164 0.88771 0.0
In338 In 0.1031 0.60006 0.58914 0.0
O339 O 0.11816 0.58647 0.65241 0.0
O340 O 0.10942 0.56276 0.60323 0.0
C341 C 0.11374 0.6443 0.59852 0.0
C342 C 0.05743 0.60066 0.59851 0.0
C343 C 0.12448 0.59033 0.51439 0.0
O344 O 0.12165 0.62912 0.62324 0.0
O345 O 0.10052 0.63713 0.56937 0.0
O346 O 0.10424 0.58447 0.52181 0.0
O347 O 0.13408 0.60088 0.54497 0.0
C348 C 0.11734 0.56597 0.64072 0.0
O349 O 0.06696 0.59861 0.5621 0.0
O350 O 0.0709 0.60218 0.63018 0.0
In351 In 0.14684 0.35553 0.34461 0.0
O352 O 0.14896 0.31923 0.31899 0.0
O353 O 0.14224 0.3237 0.38608 0.0
C354 C 0.15621 0.37637 0.26917 0.0
C355 C 0.18202 0.36909 0.39426 0.0
C356 C 0.10273 0.36688 0.35314 0.0
O357 O 0.16119 0.35587 0.27636 0.0
O358 O 0.1467 0.38652 0.30036 0.0
O359 O 0.1178 0.37422 0.37877 0.0
O360 O 0.10997 0.35394 0.32363 0.0
C361 C 0.14498 0.31 0.3551 0.0
O362 O 0.16169 0.37085 0.40678 0.0
O363 O 0.18445 0.36058 0.35708 0.0
In364 In 0.38752 0.60198 0.3774 0.0
O365 O 0.37546 0.5877 0.31222 0.0
O366 O 0.37423 0.56615 0.36732 0.0
C367 C 0.37946 0.6461 0.35883 0.0
C368 C 0.43307 0.59766 0.373 0.0
C369 C 0.36982 0.59639 0.45718 0.0
O370 O 0.36439 0.63102 0.35459 0.0
O371 O 0.39841 0.63887 0.37182 0.0
O372 O 0.38784 0.58672 0.44511 0.0
O373 O 0.36058 0.60882 0.42886 0.0
C374 C 0.37089 0.5683 0.32718 0.0
O375 O 0.4227 0.60123 0.40817 0.0
O376 O 0.42046 0.59621 0.33996 0.0
In377 In 0.15011 0.63822 0.13484 0.0
O378 O 0.1531 0.67448 0.16022 0.0
O379 O 0.14561 0.6701 0.09339 0.0
C380 C 0.15846 0.61776 0.21106 0.0
C381 C 0.18564 0.62439 0.08631 0.0
C382 C 0.10592 0.62718 0.12601 0.0
O383 O 0.16376 0.63814 0.20356 0.0
O384 O 0.14918 0.60748 0.17973 0.0
O385 O 0.12104 0.61917 0.10123 0.0
O386 O 0.11315 0.64064 0.15467 0.0
C387 C 0.14891 0.68376 0.12425 0.0
O388 O 0.16547 0.62346 0.07253 0.0
O389 O 0.1877 0.63213 0.12418 0.0
In390 In 0.10638 0.39992 0.89013 0.0
O391 O 0.12096 0.41367 0.82653 0.0
O392 O 0.11286 0.43723 0.87628 0.0
C393 C 0.11689 0.35564 0.88148 0.0
C394 C 0.06075 0.39921 0.88037 0.0
C395 C 0.12736 0.40888 0.96565 0.0
O396 O 0.1253 0.37074 0.85719 0.0
O397 O 0.10329 0.36292 0.90989 0.0
O398 O 0.1071 0.41465 0.95811 0.0
O399 O 0.13724 0.39889 0.93471 0.0
C400 C 0.12032 0.43414 0.83844 0.0
O401 O 0.07021 0.40327 0.91623 0.0
O402 O 0.07427 0.39578 0.84935 0.0
In403 In 0.349 0.35703 0.64139 0.0
O404 O 0.34461 0.32056 0.66513 0.0
O405 O 0.35374 0.3255 0.59921 0.0
C406 C 0.33972 0.37573 0.71879 0.0
C407 C 0.31484 0.3718 0.59021 0.0
C408 C 0.39326 0.36833 0.63511 0.0
O409 O 0.33433 0.3556 0.70926 0.0
O410 O 0.34951 0.38666 0.68886 0.0
O411 O 0.3782 0.37766 0.61195 0.0
O412 O 0.38596 0.35343 0.66097 0.0
C413 C 0.34939 0.31158 0.62917 0.0
O414 O 0.33509 0.37067 0.57701 0.0
O415 O 0.31199 0.36577 0.62902 0.0
H416 H 0.12949 0.06443 0.25236 0.0
H417 H 0.12944 0.92889 0.23513 0.0
H418 H 0.1193 0.01959 0.3615 0.0
H419 H 0.12427 0.97378 0.12481 0.0
H420 H 0.13388 0.96199 0.28247 0.0
H421 H 0.13568 0.03129 0.20587 0.0
C422 C 0.12882 0.04762 0.2666 0.0
C423 C 0.12359 0.04467 0.31063 0.0
C424 C 0.13201 0.96455 0.24784 0.0
C425 C 0.13062 0.00684 0.25788 0.0
C426 C 0.12955 0.94569 0.22085 0.0
C427 C 0.12619 0.94868 0.17616 0.0
C428 C 0.1312 0.98647 0.22986 0.0
C429 C 0.12655 0.97078 0.15922 0.0
C430 C 0.1323 0.02874 0.24009 0.0
C431 C 0.12302 0.02257 0.32755 0.0
N432 N 0.12882 0.98886 0.18614 0.0
N433 N 0.12633 0.00447 0.30107 0.0
H434 H 0.18502 0.88742 0.51262 0.0
H435 H 0.31929 0.86987 0.49219 0.0
H436 H 0.22803 0.86327 0.61629 0.0
H437 H 0.27607 0.88785 0.38433 0.0
H438 H 0.28678 0.87356 0.54096 0.0
H439 H 0.21888 0.89357 0.46782 0.0
C440 C 0.2016 0.88364 0.52606 0.0
C441 C 0.20377 0.87457 0.56794 0.0
C442 C 0.28444 0.87692 0.50668 0.0
C443 C 0.24242 0.88151 0.51716 0.0
C444 C 0.30301 0.87486 0.47888 0.0
C445 C 0.30026 0.87828 0.43417 0.0
C446 C 0.26298 0.88233 0.48956 0.0
C447 C 0.27885 0.88486 0.41861 0.0
C448 C 0.2209 0.88712 0.50053 0.0
C449 C 0.2256 0.87005 0.58394 0.0
N450 N 0.26094 0.88644 0.44623 0.0
N451 N 0.24406 0.87342 0.55843 0.0
H452 H 0.36649 0.02122 0.61979 0.0
H453 H 0.37055 0.97611 0.86284 0.0
H454 H 0.36399 0.06516 0.73175 0.0
H455 H 0.36572 0.93209 0.75126 0.0
H456 H 0.36412 0.00882 0.81581 0.0
H457 H 0.36208 0.9884 0.66738 0.0
C458 C 0.36475 0.02396 0.65441 0.0
C459 C 0.36589 0.04588 0.672 0.0
C460 C 0.3642 0.99201 0.80161 0.0
C461 C 0.36105 0.00841 0.72668 0.0
C462 C 0.3679 0.97332 0.82844 0.0
C463 C 0.36894 0.95142 0.81075 0.0
C464 C 0.36175 0.98877 0.7567 0.0
C465 C 0.3652 0.94873 0.76611 0.0
C466 C 0.36221 0.00521 0.68157 0.0
C467 C 0.36335 0.0485 0.71696 0.0
N468 N 0.36205 0.96725 0.74048 0.0
N469 N 0.36134 0.02994 0.74286 0.0
H470 H 0.2281 0.1342 0.86329 0.0
H471 H 0.27441 0.11346 0.10233 0.0
H472 H 0.18524 0.11367 0.96996 0.0
H473 H 0.31801 0.12424 0.99162 0.0
H474 H 0.24188 0.11031 0.05354 0.0
H475 H 0.26147 0.12773 0.90857 0.0
C476 C 0.22574 0.12815 0.89621 0.0
C477 C 0.2039 0.12469 0.91314 0.0
C478 C 0.25858 0.11309 0.03982 0.0
C479 C 0.242 0.11737 0.96523 0.0
C480 C 0.27715 0.11491 0.06766 0.0
C481 C 0.29885 0.11937 0.05093 0.0
C482 C 0.26171 0.11603 -0.00501 0.0
C483 C 0.30151 0.12092 0.00581 0.0
C484 C 0.2448 0.1244 0.92201 0.0
C485 C 0.2018 0.11667 0.9558 0.0
N486 N 0.28309 0.11955 0.9794 0.0
N487 N 0.22063 0.11352 0.9806 0.0
H488 H 0.86694 0.93144 0.73232 0.0
H489 H 0.86644 0.06673 0.75454 0.0
H490 H 0.87374 0.97744 0.624 0.0
H491 H 0.87536 0.02076 0.86235 0.0
H492 H 0.86066 0.03409 0.70657 0.0
H493 H 0.86151 0.96403 0.78053 0.0
C494 C 0.86698 0.94838 0.71863 0.0
C495 C 0.87111 0.95183 0.67431 0.0
C496 C 0.86365 0.03118 0.74082 0.0
C497 C 0.86498 0.98904 0.72902 0.0
C498 C 0.8669 0.04978 0.76817 0.0
C499 C 0.87169 0.04636 0.81226 0.0
C500 C 0.86513 0.0091 0.75784 0.0
C501 C 0.87199 0.02409 0.82839 0.0
C502 C 0.86395 0.96695 0.74612 0.0
C503 C 0.87089 0.97409 0.65814 0.0
N504 N 0.86894 0.00628 0.8011 0.0
N505 N 0.86808 0.99189 0.68556 0.0
H506 H 0.81161 0.10453 0.47216 0.0
H507 H 0.72104 0.12071 0.6123 0.0
H508 H 0.76664 0.13462 0.37762 0.0
H509 H 0.67855 0.1198 0.49817 0.0
H510 H 0.75428 0.11535 0.56658 0.0
H511 H 0.77916 0.09868 0.52046 0.0
C512 C 0.79489 0.10986 0.4616 0.0
C513 C 0.79183 0.12046 0.42127 0.0
C514 C 0.73771 0.11562 0.55144 0.0
C515 C 0.75479 0.11441 0.47658 0.0
C516 C 0.7187 0.11894 0.57757 0.0
C517 C 0.69706 0.12084 0.55889 0.0
C518 C 0.73505 0.11431 0.50619 0.0
C519 C 0.69496 0.11845 0.5138 0.0
C520 C 0.7764 0.10673 0.48933 0.0
C521 C 0.76979 0.12671 0.40879 0.0
N522 N 0.7138 0.11566 0.48887 0.0
N523 N 0.75212 0.12372 0.43648 0.0
H524 H 0.62458 0.92589 0.24732 0.0
H525 H 0.63648 0.06051 0.22666 0.0
H526 H 0.63228 0.97101 0.35671 0.0
H527 H 0.62281 0.01582 0.11879 0.0
H528 H 0.64195 0.02732 0.2733 0.0
H529 H 0.63089 0.95798 0.19839 0.0
C530 C 0.6279 0.9425 0.26101 0.0
C531 C 0.62759 0.94591 0.30603 0.0
C532 C 0.63801 0.02478 0.2393 0.0
C533 C 0.63466 0.98265 0.25045 0.0
C534 C 0.63493 0.04371 0.2127 0.0
C535 C 0.62887 0.04086 0.16904 0.0
C536 C 0.63496 0.00291 0.22202 0.0
C537 C 0.6272 0.01875 0.15246 0.0
C538 C 0.63146 0.96082 0.23311 0.0
C539 C 0.63212 0.96772 0.32213 0.0
N540 N 0.62999 0.00061 0.17908 0.0
N541 N 0.63522 0.98533 0.29433 0.0
H542 H 0.68051 0.8804 0.9877 0.0
H543 H 0.81604 0.88184 0.00699 0.0
H544 H 0.72582 0.87895 0.87762 0.0
H545 H 0.77081 0.86903 0.1145 0.0
H546 H 0.78302 0.88871 0.96041 0.0
H547 H 0.71338 0.88434 0.0358 0.0
C548 C 0.69735 0.88125 0.97365 0.0
C549 C 0.70053 0.87904 0.92876 0.0
C550 C 0.78036 0.8846 -0.00569 0.0
C551 C 0.73809 0.88344 0.98335 0.0
C552 C 0.79917 0.88072 0.02086 0.0
C553 C 0.79609 0.87457 0.06442 0.0
C554 C 0.75838 0.8824 0.0116 0.0
C555 C 0.7739 0.87347 0.0809 0.0
C556 C 0.71609 0.88341 0.00107 0.0
C557 C 0.72268 0.88032 0.91215 0.0
N558 N 0.75588 0.87718 0.05439 0.0
N559 N 0.74065 0.88224 0.93949 0.0
H560 H 0.63147 0.43207 0.73508 0.0
H561 H 0.63462 0.5675 0.75432 0.0
H562 H 0.62286 0.47764 0.62655 0.0
H563 H 0.62838 0.52238 0.86411 0.0
H564 H 0.63837 0.53449 0.70663 0.0
H565 H 0.63825 0.46484 0.78225 0.0
C566 C 0.63127 0.44896 0.72112 0.0
C567 C 0.62633 0.45222 0.67705 0.0
C568 C 0.63642 0.53184 0.74122 0.0
C569 C 0.63404 0.48965 0.73057 0.0
C570 C 0.63436 0.55066 0.76843 0.0
C571 C 0.6309 0.54761 0.81307 0.0
C572 C 0.63509 0.50989 0.75891 0.0
C573 C 0.63077 0.52544 0.82975 0.0
C574 C 0.63509 0.46763 0.74802 0.0
C575 C 0.62636 0.47441 0.66051 0.0
N576 N 0.63263 0.5074 0.8026 0.0
N577 N 0.62999 0.49231 0.68735 0.0
H578 H 0.77122 0.37428 0.87577 0.0
H579 H 0.72801 0.36599 0.11938 0.0
H580 H 0.81624 0.3759 0.98628 0.0
H581 H 0.68316 0.37692 0.01053 0.0
H582 H 0.76057 0.37204 0.0717 0.0
H583 H 0.7388 0.37788 0.92467 0.0
C584 C 0.77427 0.37565 0.91035 0.0
C585 C 0.79639 0.37456 0.92713 0.0
C586 C 0.74362 0.37337 0.05829 0.0
C587 C 0.7594 0.37843 0.98328 0.0
C588 C 0.72503 0.36986 0.08546 0.0
C589 C 0.70291 0.37073 0.0687 0.0
C590 C 0.74005 0.37751 0.01392 0.0
C591 C 0.69997 0.37597 0.02466 0.0
C592 C 0.75577 0.37773 0.93825 0.0
C593 C 0.79943 0.37656 0.9721 0.0
N594 N 0.71837 0.37891 -0.00137 0.0
N595 N 0.7811 0.37811 -0.00129 0.0
H596 H 0.86748 0.42889 0.25212 0.0
H597 H 0.86769 0.56428 0.23096 0.0
H598 H 0.87311 0.47449 0.36122 0.0
H599 H 0.87808 0.5186 0.12328 0.0
H600 H 0.86158 0.5315 0.2785 0.0
H601 H 0.86315 0.46167 0.20394 0.0
C602 C 0.8675 0.44578 0.26597 0.0
C603 C 0.87095 0.44905 0.31055 0.0
C604 C 0.86499 0.52869 0.24437 0.0
C605 C 0.86607 0.4865 0.25587 0.0
C606 C 0.86843 0.54737 0.21727 0.0
C607 C 0.87368 0.54408 0.17334 0.0
C608 C 0.86671 0.50665 0.22726 0.0
C609 C 0.87434 0.52184 0.15713 0.0
C610 C 0.8651 0.46447 0.2385 0.0
C611 C 0.87075 0.47127 0.32691 0.0
N612 N 0.87105 0.50395 0.18416 0.0
N613 N 0.86854 0.48918 0.29951 0.0
H614 H 0.67512 0.64192 0.49623 0.0
H615 H 0.80559 0.60727 0.52518 0.0
H616 H 0.71244 0.60293 0.40152 0.0
H617 H 0.76742 0.64681 0.61783 0.0
H618 H 0.77078 0.60195 0.48262 0.0
H619 H 0.70775 0.64 0.54495 0.0
C620 C 0.6901 0.63271 0.48593 0.0
C621 C 0.69119 0.62275 0.44469 0.0
C622 C 0.77002 0.61164 0.51245 0.0
C623 C 0.72871 0.62069 0.49998 0.0
C624 C 0.78987 0.61469 0.53667 0.0
C625 C 0.78938 0.62767 0.57479 0.0
C626 C 0.74965 0.62168 0.52657 0.0
C627 C 0.76859 0.63683 0.58841 0.0
C628 C 0.70876 0.63166 0.51369 0.0
C629 C 0.71098 0.61095 0.43301 0.0
N630 N 0.7496 0.63377 0.56419 0.0
N631 N 0.72908 0.61045 0.46036 0.0
H632 H 0.36278 0.4317 0.23176 0.0
H633 H 0.36721 0.56725 0.23871 0.0
H634 H 0.37647 0.47421 0.12064 0.0
H635 H 0.36112 0.52504 0.35268 0.0
H636 H 0.36321 0.53349 0.19325 0.0
H637 H 0.3551 0.46581 0.27482 0.0
C638 C 0.36392 0.44819 0.21635 0.0
C639 C 0.37057 0.4502 0.17282 0.0
C640 C 0.36247 0.53164 0.2282 0.0
C641 C 0.36185 0.48916 0.22163 0.0
C642 C 0.36467 0.55092 0.25413 0.0
C643 C 0.36482 0.54885 0.29945 0.0
C644 C 0.36049 0.51018 0.24782 0.0
C645 C 0.36136 0.52732 0.3178 0.0
C646 C 0.35956 0.46764 0.24089 0.0
C647 C 0.37167 0.47193 0.1543 0.0
N648 N 0.3596 0.50876 0.29191 0.0
N649 N 0.36755 0.49057 0.17889 0.0
H650 H 0.22973 0.62146 0.11236 0.0
H651 H 0.27704 0.61666 0.87073 0.0
H652 H 0.18682 0.61408 -0.00036 0.0
H653 H 0.32003 0.61849 0.98416 0.0
H654 H 0.24404 0.61128 0.91755 0.0
H655 H 0.26306 0.61605 0.06651 0.0
C656 C 0.22733 0.61847 0.07795 0.0
C657 C 0.20553 0.61849 0.0596 0.0
C658 C 0.2607 0.61258 0.93224 0.0
C659 C 0.24361 0.61247 0.00687 0.0
C660 C 0.27955 0.61566 0.90552 0.0
C661 C 0.30123 0.6183 0.92371 0.0
C662 C 0.26353 0.61236 0.97749 0.0
C663 C 0.30356 0.61668 0.96888 0.0
C664 C 0.24637 0.61535 0.0518 0.0
C665 C 0.20336 0.61434 0.01499 0.0
N666 N 0.28488 0.6141 -0.00569 0.0
N667 N 0.22221 0.61177 0.99 0.0
H668 H 0.13021 0.43258 0.75174 0.0
H669 H 0.12854 0.56774 0.72683 0.0
H670 H 0.12326 0.47899 0.8593 0.0
H671 H 0.12043 0.52112 0.61988 0.0
H672 H 0.13479 0.53544 0.77544 0.0
H673 H 0.13489 0.465 0.70281 0.0
C674 C 0.12997 0.44959 0.76511 0.0
C675 C 0.12604 0.45318 0.80945 0.0
C676 C 0.13187 0.53232 0.74125 0.0
C677 C 0.13131 0.49022 0.75388 0.0
C678 C 0.12835 0.55072 0.71353 0.0
C679 C 0.12367 0.54702 0.66947 0.0
C680 C 0.13077 0.51013 0.72466 0.0
C681 C 0.12372 0.52467 0.65379 0.0
C682 C 0.13258 0.46806 0.7372 0.0
C683 C 0.12599 0.47552 0.82518 0.0
N684 N 0.12703 0.50704 0.68145 0.0
N685 N 0.12838 0.49322 0.79735 0.0
H686 H 0.2265 0.37102 0.37037 0.0
H687 H 0.27073 0.37861 0.61354 0.0
H688 H 0.18212 0.38082 0.48026 0.0
H689 H 0.31519 0.37797 0.50219 0.0
H690 H 0.23821 0.38317 0.56514 0.0
H691 H 0.25923 0.3771 0.41751 0.0
C692 C 0.22366 0.37466 0.40441 0.0
C693 C 0.20162 0.37515 0.42163 0.0
C694 C 0.25509 0.38233 0.55126 0.0
C695 C 0.23899 0.38197 0.47583 0.0
C696 C 0.27365 0.37971 0.57888 0.0
C697 C 0.29562 0.37764 0.56173 0.0
C698 C 0.2585 0.38261 0.50615 0.0
C699 C 0.2985 0.37934 0.51668 0.0
C700 C 0.24235 0.37818 0.4313 0.0
C701 C 0.19886 0.38014 0.4658 0.0
N702 N 0.2801 0.38144 0.49036 0.0
N703 N 0.21738 0.38309 0.49155 0.0
H704 H 0.13809 0.16451 0.31398 0.0
H705 H 0.13209 0.28664 0.42762 0.0
H706 H 0.10483 0.17717 0.43644 0.0
H707 H 0.15223 0.27702 0.29417 0.0
H708 H 0.12605 0.24575 0.43428 0.0
H709 H 0.14721 0.20504 0.30874 0.0
C710 C 0.13276 0.17581 0.33977 0.0
C711 C 0.12061 0.16753 0.3756 0.0
C712 C 0.13186 0.25256 0.40356 0.0
C713 C 0.13106 0.21373 0.36999 0.0
C714 C 0.13538 0.27589 0.3998 0.0
C715 C 0.14258 0.28521 0.36024 0.0
C716 C 0.13567 0.23843 0.36756 0.0
C717 C 0.14659 0.27051 0.32522 0.0
C718 C 0.13794 0.19891 0.33675 0.0
C719 C 0.11413 0.18287 0.40814 0.0
N720 N 0.14305 0.24783 0.32968 0.0
N721 N 0.11945 0.20521 0.40458 0.0
H722 H 0.96985 0.90487 0.54167 0.0
H723 H 0.07064 0.8621 0.69462 0.0
H724 H 0.96144 0.88839 0.67726 0.0
H725 H 0.08199 0.88929 0.56632 0.0
H726 H 0.03048 0.87159 0.68829 0.0
H727 H 0.01089 0.89947 0.54944 0.0
C728 C 0.97667 0.90027 0.57313 0.0
C729 C 0.96225 0.89697 0.60885 0.0
C730 C 0.04173 0.87561 0.66154 0.0
C731 C 0.00906 0.89062 0.61789 0.0
C732 C 0.06466 0.87013 0.66509 0.0
C733 C 0.07962 0.87484 0.63084 0.0
C734 C 0.03359 0.88571 0.62329 0.0
C735 C 0.07099 0.88535 0.59345 0.0
C736 C 7e-05 0.8972 0.57755 0.0
C737 C 0.97195 0.89105 0.64886 0.0
N738 N 0.04847 0.89032 0.59053 0.0
N739 N 0.99472 0.88792 0.65222 0.0
H740 H 0.35646 0.83093 0.8159 0.0
H741 H 0.36891 0.70902 0.92877 0.0
H742 H 0.39311 0.81924 0.93518 0.0
H743 H 0.34511 0.71811 0.79738 0.0
H744 H 0.37379 0.7501 0.93502 0.0
H745 H 0.34835 0.79017 0.81153 0.0
C746 C 0.36276 0.81979 0.84116 0.0
C747 C 0.37555 0.82841 0.87584 0.0
C748 C 0.36743 0.74312 0.90486 0.0
C749 C 0.36625 0.78195 0.87125 0.0
C750 C 0.36456 0.71969 0.90135 0.0
C751 C 0.35669 0.71018 0.86244 0.0
C752 C 0.36228 0.75714 0.86927 0.0
C753 C 0.35131 0.72477 0.82791 0.0
C754 C 0.35815 0.79656 0.83865 0.0
C755 C 0.38328 0.81328 0.90776 0.0
N756 N 0.35425 0.74755 0.83209 0.0
N757 N 0.37849 0.7908 0.90471 0.0
H758 H 0.41624 0.09743 0.06755 0.0
H759 H 0.53884 0.10703 0.17882 0.0
H760 H 0.42915 0.13373 0.18669 0.0
H761 H 0.52902 0.08668 0.04554 0.0
H762 H 0.49774 0.11141 0.18654 0.0
H763 H 0.45676 0.08802 0.06315 0.0
C764 C 0.42758 0.10328 0.09288 0.0
C765 C 0.41942 0.1165 0.12737 0.0
C766 C 0.50457 0.10589 0.15565 0.0
C767 C 0.46557 0.10575 0.12269 0.0
C768 C 0.52801 0.10333 0.15128 0.0
C769 C 0.53732 0.09665 0.1114 0.0
C770 C 0.49034 0.10161 0.11996 0.0
C771 C 0.52252 0.09201 0.07679 0.0
C772 C 0.45067 0.09796 0.09031 0.0
C773 C 0.43479 0.12364 0.15937 0.0
N774 N 0.49974 0.09464 0.08183 0.0
N775 N 0.45712 0.11819 0.15624 0.0
H776 H 0.1353 0.70734 0.05245 0.0
H777 H 0.14398 0.8292 0.16656 0.0
H778 H 0.15756 0.71658 0.18478 0.0
H779 H 0.10814 0.81691 0.04661 0.0
H780 H 0.15322 0.78867 0.17061 0.0
H781 H 0.12959 0.74832 0.04632 0.0
C782 C 0.13913 0.71803 0.08012 0.0
C783 C 0.14681 0.70858 0.11924 0.0
C784 C 0.14337 0.79488 0.14339 0.0
C785 C 0.14029 0.75544 0.11251 0.0
C786 C 0.13813 0.81798 0.14105 0.0
C787 C 0.12519 0.82636 0.10632 0.0
C788 C 0.13577 0.78016 0.11057 0.0
C789 C 0.11805 0.81113 0.07409 0.0
C790 C 0.1358 0.7414 0.07666 0.0
C791 C 0.15152 0.72319 0.15407 0.0
N792 N 0.12344 0.78878 0.07699 0.0
N793 N 0.14815 0.74591 0.14993 0.0
H794 H 0.53204 0.91136 0.31989 0.0
H795 H 0.41752 0.87432 0.43963 0.0
H796 H 0.52936 0.89158 0.45471 0.0
H797 H 0.42034 0.8992 0.30794 0.0
H798 H 0.45789 0.88342 0.4481 0.0
H799 H 0.49062 0.9098 0.31685 0.0
C800 C 0.5227 0.90686 0.34895 0.0
C801 C 0.53412 0.90142 0.3875 0.0
C802 C 0.4496 0.88711 0.4175 0.0
C803 C 0.48672 0.89943 0.38426 0.0
C804 C 0.42657 0.88196 0.41271 0.0
C805 C 0.41565 0.88583 0.37292 0.0
C806 C 0.46177 0.89609 0.38216 0.0
C807 C 0.42814 0.89577 0.33909 0.0
C808 C 0.49905 0.90598 0.34724 0.0
C809 C 0.5212 0.89581 0.42426 0.0
N810 N 0.45056 0.90037 0.34436 0.0
N811 N 0.49818 0.89475 0.42164 0.0
H812 H 0.3492 0.16545 0.66442 0.0
H813 H 0.36349 0.28855 0.55719 0.0
H814 H 0.38715 0.17839 0.54713 0.0
H815 H 0.33876 0.27825 0.68762 0.0
H816 H 0.36795 0.24752 0.54933 0.0
H817 H 0.3411 0.2062 0.6701 0.0
C818 C 0.35574 0.17686 0.63982 0.0
C819 C 0.36894 0.1686 0.60538 0.0
C820 C 0.36148 0.25422 0.57964 0.0
C821 C 0.3597 0.21503 0.6115 0.0
C822 C 0.35886 0.27763 0.58408 0.0
C823 C 0.35085 0.28678 0.62318 0.0
C824 C 0.35594 0.23985 0.61448 0.0
C825 C 0.34509 0.27186 0.65697 0.0
C826 C 0.35116 0.20007 0.6431 0.0
C827 C 0.377 0.18407 0.57435 0.0
N828 N 0.34779 0.2491 0.65189 0.0
N829 N 0.37224 0.20652 0.57814 0.0
H830 H 0.07012 0.13749 0.78899 0.0
H831 H 0.96995 0.0956 0.9445 0.0
H832 H 0.08203 0.11118 0.91777 0.0
H833 H 0.96098 0.11122 0.80867 0.0
H834 H 0.01094 0.10126 0.93613 0.0
H835 H 0.02995 0.12821 0.79631 0.0
C836 C 0.06426 0.12971 0.81884 0.0
C837 C 0.07939 0.12516 0.85291 0.0
C838 C 1e-05 0.1033 0.90812 0.0
C839 C 0.03334 0.11455 0.86162 0.0
C840 C 0.97663 0.10009 0.91287 0.0
C841 C 0.96207 0.10304 0.87724 0.0
C842 C 0.00882 0.10967 0.86751 0.0
C843 C 0.9716 0.10882 0.83701 0.0
C844 C 0.04132 0.12436 0.82296 0.0
C845 C 0.0709 0.11497 0.89075 0.0
N846 N 0.99435 0.11208 0.83331 0.0
N847 N 0.04837 0.11012 0.89422 0.0
H848 H 0.84574 0.72055 0.69806 0.0
H849 H 0.89434 0.82013 0.54836 0.0
H850 H 0.86779 0.7106 0.56582 0.0
H851 H 0.85904 0.83251 0.66883 0.0
H852 H 0.88657 0.77963 0.55611 0.0
H853 H 0.85223 0.76137 0.68989 0.0
C854 C 0.85191 0.72698 0.66729 0.0
C855 C 0.85625 0.71221 0.63255 0.0
C856 C 0.88045 0.79119 0.58081 0.0
C857 C 0.8638 0.75878 0.62306 0.0
C858 C 0.88493 0.81431 0.57646 0.0
C859 C 0.87732 0.82967 0.60803 0.0
C860 C 0.86844 0.78332 0.61719 0.0
C861 C 0.86518 0.82121 0.64373 0.0
C862 C 0.85557 0.75026 0.66263 0.0
C863 C 0.8642 0.72141 0.5934 0.0
N864 N 0.86118 0.79856 0.64745 0.0
N865 N 0.86782 0.7441 0.58977 0.0
H866 H 0.91258 0.10725 0.42032 0.0
H867 H 0.03435 0.11083 0.30432 0.0
H868 H 0.92423 0.13477 0.29237 0.0
H869 H 0.02525 0.09424 0.4397 0.0
H870 H 0.99333 0.11587 0.2973 0.0
H871 H 0.95323 0.09874 0.42615 0.0
C872 C 0.92368 0.11142 0.39344 0.0
C873 C 0.91508 0.12181 0.3559 0.0
C874 C 0.00028 0.11107 0.32854 0.0
C875 C 0.96144 0.11209 0.36222 0.0
C876 C 0.02369 0.10813 0.33252 0.0
C877 C 0.03319 0.10221 0.37269 0.0
C878 C 0.98625 0.108 0.36496 0.0
C879 C 0.0186 0.0989 0.40816 0.0
C880 C 0.94686 0.1066 0.39679 0.0
C881 C 0.93017 0.12685 0.32199 0.0
N882 N 0.99583 0.10189 0.4035 0.0
N883 N 0.9526 0.12195 0.32597 0.0
H884 H 0.63019 0.28432 0.06309 0.0
H885 H 0.64315 0.16036 0.16701 0.0
H886 H 0.65543 0.27286 0.19281 0.0
H887 H 0.60492 0.1745 0.05054 0.0
H888 H 0.65132 0.20101 0.17413 0.0
H889 H 0.62452 0.24348 0.05478 0.0
C890 C 0.63465 0.27318 0.08975 0.0
C891 C 0.64322 0.28196 0.12875 0.0
C892 C 0.64116 0.19518 0.14703 0.0
C893 C 0.63676 0.23521 0.11951 0.0
C894 C 0.63653 0.17201 0.14292 0.0
C895 C 0.62329 0.1641 0.10822 0.0
C896 C 0.63263 0.21046 0.11599 0.0
C897 C 0.61513 0.1799 0.0779 0.0
C898 C 0.63134 0.24987 0.08505 0.0
C899 C 0.64871 0.26676 0.16225 0.0
N900 N 0.61996 0.2023 0.08246 0.0
N901 N 0.64537 0.2441 0.15688 0.0
H902 H 0.5698 0.85828 0.79669 0.0
H903 H 0.46823 0.90802 0.93914 0.0
H904 H 0.58094 0.89585 0.91503 0.0
H905 H 0.46011 0.88415 0.8076 0.0
H906 H 0.50939 0.90319 0.93218 0.0
H907 H 0.52935 0.86685 0.80139 0.0
C908 C 0.56371 0.86838 0.82366 0.0
C909 C 0.57871 0.87631 0.85562 0.0
C910 C 0.49861 0.89918 0.90476 0.0
C911 C 0.53236 0.88612 0.86132 0.0
C912 C 0.47513 0.9019 0.90871 0.0
C913 C 0.46077 0.89639 0.87392 0.0
C914 C 0.50771 0.89067 0.86589 0.0
C915 C 0.47057 0.88857 0.83524 0.0
C916 C 0.54062 0.87334 0.82625 0.0
C917 C 0.56992 0.88941 0.88973 0.0
N918 N 0.49342 0.88579 0.83238 0.0
N919 N 0.54726 0.89379 0.89187 0.0
H920 H 0.86633 0.28804 0.92912 0.0
H921 H 0.85722 0.16541 0.8183 0.0
H922 H 0.84391 0.27792 0.79713 0.0
H923 H 0.89159 0.17819 0.93962 0.0
H924 H 0.84871 0.20603 0.81248 0.0
H925 H 0.87201 0.24714 0.93628 0.0
C926 C 0.86248 0.27718 0.90171 0.0
C927 C 0.85472 0.28636 0.86243 0.0
C928 C 0.85809 0.19991 0.84038 0.0
C929 C 0.86121 0.23955 0.87033 0.0
C930 C 0.86291 0.17676 0.84373 0.0
C931 C 0.87519 0.16848 0.87941 0.0
C932 C 0.86546 0.2148 0.87311 0.0
C933 C 0.88216 0.18388 0.91147 0.0
C934 C 0.86579 0.25384 0.90577 0.0
C935 C 0.85 0.27152 0.82796 0.0
N936 N 0.87719 0.20629 0.90757 0.0
N937 N 0.85334 0.24882 0.83269 0.0
H938 H 0.577 0.10509 0.56363 0.0
H939 H 0.45476 0.11348 0.67659 0.0
H940 H 0.56441 0.13993 0.68447 0.0
H941 H 0.4641 0.09287 0.54335 0.0
H942 H 0.49578 0.11875 0.68329 0.0
H943 H 0.53637 0.0962 0.55864 0.0
C944 C 0.5657 0.11079 0.58914 0.0
C945 C 0.57402 0.12335 0.6244 0.0
C946 C 0.48887 0.11301 0.65261 0.0
C947 C 0.52773 0.11317 0.61908 0.0
C948 C 0.46547 0.10992 0.64883 0.0
C949 C 0.45604 0.10284 0.6093 0.0
C950 C 0.50296 0.10886 0.61668 0.0
C951 C 0.4707 0.09845 0.57436 0.0
C952 C 0.54255 0.10576 0.58625 0.0
C953 C 0.55868 0.13031 0.65659 0.0
N954 N 0.49346 0.10158 0.57883 0.0
N955 N 0.5363 0.12512 0.65317 0.0
H956 H 0.66671 0.71661 0.32679 0.0
H957 H 0.5822 0.81668 0.39632 0.0
H958 H 0.59939 0.70616 0.37846 0.0
H959 H 0.6477 0.82906 0.33806 0.0
H960 H 0.5884 0.77602 0.3888 0.0
H961 H 0.66039 0.75775 0.32963 0.0
C962 C 0.65061 0.72298 0.33868 0.0
C963 C 0.63356 0.70799 0.35253 0.0
C964 C 0.60143 0.78756 0.37748 0.0
C965 C 0.62623 0.75486 0.35587 0.0
C966 C 0.59789 0.81082 0.38177 0.0
C967 C 0.61449 0.82625 0.36787 0.0
C968 C 0.6218 0.77958 0.35931 0.0
C969 C 0.63447 0.81769 0.34919 0.0
C970 C 0.64701 0.74643 0.34024 0.0
C971 C 0.61301 0.7171 0.36754 0.0
N972 N 0.63763 0.79488 0.3456 0.0
N973 N 0.60996 0.73991 0.36889 0.0
H974 H 0.91598 0.88839 0.06791 0.0
H975 H 0.03848 0.88062 0.18023 0.0
H976 H 0.92843 0.85609 0.19143 0.0
H977 H 0.02867 0.90083 0.04684 0.0
H978 H 0.99749 0.87547 0.18757 0.0
H979 H 0.95665 0.89684 0.06208 0.0
C980 C 0.92726 0.88315 0.09383 0.0
C981 C 0.91888 0.87144 0.13011 0.0
C982 C 0.00428 0.88109 0.15671 0.0
C983 C 0.96525 0.8811 0.12379 0.0
C984 C 0.02767 0.88409 0.15255 0.0
C985 C 0.03696 0.89106 0.11282 0.0
C986 C 0.99005 0.88518 0.12092 0.0
C987 C 0.02218 0.89534 0.07801 0.0
C988 C 0.95044 0.88794 0.09047 0.0
C989 C 0.9342 0.86506 0.16279 0.0
N990 N -0.00057 0.89229 0.08284 0.0
N991 N 0.95663 0.86997 0.15885 0.0
H992 H 0.63268 0.79028 0.93072 0.0
H993 H 0.64629 0.66799 0.82015 0.0
H994 H 0.65668 0.78086 0.79957 0.0
H995 H 0.6096 0.67991 0.93927 0.0
H996 H 0.65404 0.7088 0.815 0.0
H997 H 0.62812 0.74921 0.93764 0.0
C998 C 0.63711 0.77954 0.90347 0.0
C999 C 0.64496 0.78895 0.86446 0.0
C1000 C 0.64432 0.70245 0.84227 0.0
C1001 C 0.63977 0.74198 0.87208 0.0
C1002 C 0.63993 0.67919 0.84524 0.0
C1003 C 0.62721 0.67062 0.88007 0.0
C1004 C 0.63608 0.71714 0.87457 0.0
C1005 C 0.61938 0.68583 0.91173 0.0
C1006 C 0.63444 0.75611 0.90737 0.0
C1007 C 0.65048 0.77427 0.83017 0.0
N1008 N 0.62395 0.70834 0.90823 0.0
N1009 N 0.64774 0.75149 0.83475 0.0
H1010 H 0.46046 0.38068 0.18635 0.0
H1011 H 0.58328 0.3891 0.07546 0.0
H1012 H 0.47106 0.40413 0.05515 0.0
H1013 H 0.57016 0.35428 0.1962 0.0
H1014 H 0.54287 0.39876 0.07066 0.0
H1015 H 0.50142 0.37518 0.194 0.0
C1016 C 0.47144 0.38483 0.15927 0.0
C1017 C 0.46238 0.39274 0.11998 0.0
C1018 C 0.54887 0.38905 0.09823 0.0
C1019 C 0.50921 0.38643 0.1284 0.0
C1020 C 0.57191 0.38356 0.101 0.0
C1021 C 0.58002 0.37077 0.13614 0.0
C1022 C 0.53392 0.38181 0.13101 0.0
C1023 C 0.56459 0.36406 0.1684 0.0
C1024 C 0.4948 0.38162 0.16359 0.0
C1025 C 0.47736 0.39789 0.08594 0.0
N1026 N 0.54229 0.36965 0.16504 0.0
N1027 N 0.50006 0.39457 0.09088 0.0
H1028 H 0.86409 0.20713 0.42727 0.0
H1029 H 0.85381 0.33033 0.31902 0.0
H1030 H 0.84125 0.21789 0.29571 0.0
H1031 H 0.89049 0.3169 0.43761 0.0
H1032 H 0.84519 0.28974 0.31307 0.0
H1033 H 0.86987 0.24802 0.43495 0.0
C1034 C 0.86019 0.21812 0.40007 0.0
C1035 C 0.85227 0.20914 0.36074 0.0
C1036 C 0.8551 0.29571 0.3404 0.0
C1037 C 0.85883 0.2559 0.36927 0.0
C1038 C 0.85997 0.31884 0.34384 0.0
C1039 C 0.87295 0.32693 0.37876 0.0
C1040 C 0.8631 0.28064 0.37231 0.0
C1041 C 0.88052 0.31135 0.41004 0.0
C1042 C 0.86355 0.24145 0.40442 0.0
C1043 C 0.84747 0.22414 0.32655 0.0
N1044 N 0.87546 0.28896 0.40609 0.0
N1045 N 0.85084 0.24681 0.33158 0.0
H1046 H 0.92404 0.63029 0.69743 0.0
H1047 H 0.02486 0.59781 0.53525 0.0
H1048 H 0.91289 0.61366 0.56267 0.0
H1049 H 0.03344 0.60721 0.67322 0.0
H1050 H 0.98382 0.60272 0.54418 0.0
H1051 H 0.96413 0.62116 0.68885 0.0
C1052 C 0.93004 0.62464 0.66599 0.0
C1053 C 0.91515 0.62283 0.63063 0.0
C1054 C 0.99467 0.60356 0.57251 0.0
C1055 C 0.96116 0.61241 0.62047 0.0
C1056 C 0.01808 0.60077 0.56745 0.0
C1057 C 0.03256 0.60221 0.60355 0.0
C1058 C 0.98573 0.60794 0.61395 0.0
C1059 C 0.0229 0.60604 0.6445 0.0
C1060 C 0.95296 0.61939 0.66112 0.0
C1061 C 0.92384 0.61531 0.59073 0.0
N1062 N 0.00012 0.6089 0.64854 0.0
N1063 N 0.94634 0.6105 0.58663 0.0
H1064 H 0.62881 0.21056 0.55409 0.0
H1065 H 0.63865 0.33182 0.67019 0.0
H1066 H 0.64969 0.21893 0.68745 0.0
H1067 H 0.60471 0.32086 0.54778 0.0
H1068 H 0.64665 0.29104 0.67441 0.0
H1069 H 0.62391 0.25166 0.54829 0.0
C1070 C 0.63249 0.22108 0.58207 0.0
C1071 C 0.63957 0.21135 0.62136 0.0
C1072 C 0.63748 0.29759 0.64663 0.0
C1073 C 0.63398 0.25834 0.61501 0.0
C1074 C 0.63294 0.32084 0.64419 0.0
C1075 C 0.62092 0.32967 0.60869 0.0
C1076 C 0.63008 0.28317 0.61314 0.0
C1077 C 0.61393 0.31473 0.57585 0.0
C1078 C 0.62962 0.24451 0.5788 0.0
C1079 C 0.64411 0.22575 0.6566 0.0
N1080 N 0.61862 0.29223 0.57886 0.0
N1081 N 0.6412 0.24854 0.65262 0.0
H1082 H 0.02805 0.40812 0.94115 0.0
H1083 H 0.92782 0.3581 0.79551 0.0
H1084 H 0.03694 0.3859 0.80875 0.0
H1085 H 0.91572 0.39366 0.91575 0.0
H1086 H 0.96806 0.36748 0.80092 0.0
H1087 H 0.98701 0.40253 0.93361 0.0
C1088 C 0.02134 0.4022 0.91042 0.0
C1089 C 0.03589 0.39738 0.87556 0.0
C1090 C 0.95663 0.37335 0.82605 0.0
C1091 C 0.9891 0.39079 0.86684 0.0
C1092 C 0.93365 0.36794 0.82305 0.0
C1093 C 0.91845 0.37506 0.85533 0.0
C1094 C 0.96456 0.38579 0.86184 0.0
C1095 C 0.92691 0.38784 0.89019 0.0
C1096 C 0.99794 0.39904 0.90613 0.0
C1097 C 0.02633 0.38979 0.83647 0.0
N1098 N 0.94946 0.39268 0.8927 0.0
N1099 N 0.00356 0.38658 0.83327 0.0
H1100 H 0.84485 0.77609 0.19321 0.0
H1101 H 0.89175 0.67582 0.04349 0.0
H1102 H 0.86515 0.78526 0.05972 0.0
H1103 H 0.86021 0.6642 0.168 0.0
H1104 H 0.88288 0.71615 0.04977 0.0
H1105 H 0.85088 0.73519 0.18549 0.0
C1106 C 0.85046 0.76947 0.16221 0.0
C1107 C 0.85456 0.78406 0.12706 0.0
C1108 C 0.87781 0.7048 0.07568 0.0
C1109 C 0.86165 0.73738 0.1181 0.0
C1110 C 0.88293 0.68178 0.07218 0.0
C1111 C 0.87676 0.66668 0.10536 0.0
C1112 C 0.86658 0.71285 0.11282 0.0
C1113 C 0.86529 0.67529 0.1417 0.0
C1114 C 0.85389 0.74613 0.15782 0.0
C1115 C 0.86179 0.7746 0.08764 0.0
N1116 N 0.86066 0.69786 0.14458 0.0
N1117 N 0.86523 0.75187 0.08431 0.0
H1118 H 0.57689 0.60613 0.42933 0.0
H1119 H 0.45935 0.59384 0.3003 0.0
H1120 H 0.56996 0.61454 0.29078 0.0
H1121 H 0.46363 0.59902 0.43983 0.0
H1122 H 0.50079 0.59502 0.29633 0.0
H1123 H 0.53628 0.59705 0.43375 0.0
C1124 C 0.56688 0.60577 0.39982 0.0
C1125 C 0.5767 0.61127 0.35969 0.0
C1126 C 0.49268 0.59576 0.32785 0.0
C1127 C 0.53043 0.60099 0.36446 0.0
C1128 C 0.46903 0.59504 0.33012 0.0
C1129 C 0.45807 0.59655 0.37042 0.0
C1130 C 0.50546 0.59793 0.36615 0.0
C1131 C 0.47143 0.59799 0.40806 0.0
C1132 C 0.54373 0.60069 0.40237 0.0
C1133 C 0.56301 0.61059 0.32244 0.0
N1134 N 0.49445 0.59877 0.40501 0.0
N1135 N 0.54056 0.60566 0.32575 0.0
H1136 H 0.35593 0.32821 0.16927 0.0
H1137 H 0.37286 0.2063 0.05864 0.0
H1138 H 0.39671 0.31634 0.0551 0.0
H1139 H 0.34156 0.21533 0.18413 0.0
H1140 H 0.3788 0.24724 0.05408 0.0
H1141 H 0.34775 0.28741 0.17293 0.0
C1142 C 0.36313 0.31703 0.145 0.0
C1143 C 0.37705 0.32563 0.1119 0.0
C1144 C 0.37057 0.2403 0.0826 0.0
C1145 C 0.36773 0.27913 0.11573 0.0
C1146 C 0.36712 0.21693 0.08514 0.0
C1147 C 0.35676 0.20743 0.12186 0.0
C1148 C 0.36353 0.25432 0.11695 0.0
C1149 C 0.34968 0.22199 0.15529 0.0
C1150 C 0.35848 0.29378 0.14711 0.0
C1151 C 0.38594 0.31043 0.08125 0.0
N1152 N 0.35322 0.24474 0.15206 0.0
N1153 N 0.38111 0.28795 0.08389 0.0
H1154 H 0.43316 0.64267 0.79905 0.0
H1155 H 0.53369 0.59054 0.94131 0.0
H1156 H 0.42095 0.60248 0.91386 0.0
H1157 H 0.5427 0.61706 0.81183 0.0
H1158 H 0.49254 0.59543 0.93355 0.0
H1159 H 0.4736 0.63437 0.80492 0.0
C1160 C 0.43902 0.63205 0.8255 0.0
C1161 C 0.42371 0.62329 0.8561 0.0
C1162 C 0.50353 0.60002 0.90676 0.0
C1163 C 0.47007 0.61378 0.86315 0.0
C1164 C 0.52699 0.59726 0.91118 0.0
C1165 C 0.5416 0.60348 0.87719 0.0
C1166 C 0.4947 0.60927 0.86826 0.0
C1167 C 0.53206 0.61207 0.83885 0.0
C1168 C 0.46211 0.62725 0.82876 0.0
C1169 C 0.43221 0.60956 0.8896 0.0
N1170 N 0.50923 0.61486 0.83555 0.0
N1171 N 0.45489 0.60533 0.89242 0.0
H1172 H 0.13793 0.66484 0.66349 0.0
H1173 H 0.12959 0.78856 0.55685 0.0
H1174 H 0.10262 0.6789 0.54367 0.0
H1175 H 0.15164 0.7769 0.68862 0.0
H1176 H 0.12328 0.74777 0.54841 0.0
H1177 H 0.14665 0.70534 0.67043 0.0
C1178 C 0.13206 0.67645 0.63863 0.0
C1179 C 0.11947 0.66856 0.60305 0.0
C1180 C 0.12954 0.75413 0.57915 0.0
C1181 C 0.12944 0.71477 0.61061 0.0
C1182 C 0.13321 0.77739 0.58392 0.0
C1183 C 0.14107 0.78609 0.62353 0.0
C1184 C 0.1339 0.73946 0.61414 0.0
C1185 C 0.14548 0.77088 0.65757 0.0
C1186 C 0.137 0.69954 0.64262 0.0
C1187 C 0.11229 0.6843 0.57173 0.0
N1188 N 0.14183 0.74828 0.65211 0.0
N1189 N 0.1174 0.70665 0.57622 0.0
H1190 H 0.08149 0.38982 0.41912 0.0
H1191 H 0.95893 0.38234 0.30708 0.0
H1192 H 0.06879 0.35729 0.29597 0.0
H1193 H 0.96865 0.40152 0.44101 0.0
H1194 H -7e-05 0.37733 0.29967 0.0
H1195 H 0.04082 0.3983 0.42515 0.0
C1196 C 0.07016 0.38455 0.39332 0.0
C1197 C 0.07846 0.37276 0.35709 0.0
C1198 C 0.99312 0.3827 0.33067 0.0
C1199 C 0.03211 0.38245 0.36363 0.0
C1200 C 0.96973 0.38562 0.33487 0.0
C1201 C 0.9604 0.39225 0.37477 0.0
C1202 C 0.00732 0.38652 0.36658 0.0
C1203 C 0.97516 0.39629 0.40971 0.0
C1204 C 0.04698 0.38934 0.3968 0.0
C1205 C 0.06308 0.36632 0.32457 0.0
N1206 N 0.99792 0.39333 0.40484 0.0
N1207 N 0.04067 0.37126 0.3286 0.0
H1208 H 0.33862 0.66762 0.34657 0.0
H1209 H 0.39532 0.79083 0.32833 0.0
H1210 H 0.41073 0.68004 0.35448 0.0
H1211 H 0.32382 0.78083 0.35257 0.0
H1212 H 0.40066 0.74975 0.32812 0.0
H1213 H 0.33229 0.70863 0.33907 0.0
C1214 C 0.35311 0.67896 0.34635 0.0
C1215 C 0.37522 0.67048 0.35131 0.0
C1216 C 0.38378 0.75651 0.33341 0.0
C1217 C 0.36814 0.7172 0.34273 0.0
C1218 C 0.38071 0.77996 0.33345 0.0
C1219 C 0.35911 0.78923 0.34072 0.0
C1220 C 0.3651 0.74215 0.34045 0.0
C1221 C 0.34078 0.77435 0.34706 0.0
C1222 C 0.34948 0.70232 0.34227 0.0
C1223 C 0.39339 0.68588 0.35095 0.0
N1224 N 0.34419 0.75151 0.34683 0.0
N1225 N 0.38944 0.70847 0.34677 0.0
H1226 H 0.96245 0.61208 0.17506 0.0
H1227 H 0.08451 0.60315 0.06151 0.0
H1228 H 0.97134 0.59106 0.04194 0.0
H1229 H 0.07208 0.63791 0.18249 0.0
H1230 H 0.04379 0.59455 0.05639 0.0
H1231 H 0.00345 0.61736 0.18124 0.0
C1232 C 0.97306 0.60845 0.14719 0.0
C1233 C 0.9635 0.60123 0.10787 0.0
C1234 C 0.05003 0.60403 0.08404 0.0
C1235 C 0.01045 0.60726 0.11466 0.0
C1236 C 0.07323 0.6089 0.087 0.0
C1237 C 0.08162 0.62133 0.12237 0.0
C1238 C 0.03524 0.61149 0.11691 0.0
C1239 C 0.06631 0.62837 0.15454 0.0
C1240 C 0.99646 0.61153 0.15068 0.0
C1241 C 0.97805 0.59674 0.07281 0.0
N1242 N 0.04389 0.62334 0.15105 0.0
N1243 N 0.00083 0.59987 0.07699 0.0
H1244 H 0.13051 0.21128 0.92407 0.0
H1245 H 0.14129 0.33474 0.81722 0.0
H1246 H 0.15273 0.22232 0.79222 0.0
H1247 H 0.10495 0.32125 0.93614 0.0
H1248 H 0.14938 0.29408 0.8105 0.0
H1249 H 0.1249 0.25217 0.93224 0.0
C1250 C 0.13431 0.22234 0.89691 0.0
C1251 C 0.14203 0.21343 0.85737 0.0
C1252 C 0.13966 0.30005 0.83807 0.0
C1253 C 0.13567 0.26019 0.86646 0.0
C1254 C 0.13509 0.32323 0.84195 0.0
C1255 C 0.12238 0.33132 0.8772 0.0
C1256 C 0.13163 0.28495 0.86988 0.0
C1257 C 0.11473 0.3157 0.90834 0.0
C1258 C 0.13105 0.24566 0.90154 0.0
C1259 C 0.14668 0.2285 0.82323 0.0
N1260 N 0.1195 0.29327 0.90397 0.0
N1261 N 0.14343 0.25117 0.82854 0.0
H1262 H 0.42711 0.35475 0.68942 0.0
H1263 H 0.52718 0.40941 0.54945 0.0
H1264 H 0.41472 0.39527 0.57509 0.0
H1265 H 0.53637 0.38231 0.67845 0.0
H1266 H 0.48612 0.40377 0.55673 0.0
H1267 H 0.46745 0.36378 0.68436 0.0
C1268 C 0.4329 0.36559 0.66324 0.0
C1269 C 0.41758 0.37423 0.63254 0.0
C1270 C 0.49712 0.39922 0.58354 0.0
C1271 C 0.4638 0.38459 0.62644 0.0
C1272 C 0.52053 0.40241 0.57939 0.0
C1273 C 0.53517 0.39624 0.61337 0.0
C1274 C 0.48836 0.38958 0.62175 0.0
C1275 C 0.52569 0.38727 0.65145 0.0
C1276 C 0.45593 0.37081 0.66045 0.0
C1277 C 0.426 0.38826 0.59941 0.0
N1278 N 0.50291 0.38406 0.65449 0.0
N1279 N 0.4486 0.39291 0.59706 0.0
H1280 H 0.10949 0.06565 0.53217 0.0
H1281 H 0.18024 0.13901 0.69498 0.0
H1282 H 0.16462 0.10893 0.49128 0.0
H1283 H 0.13917 0.08228 0.73611 0.0
H1284 H 0.17855 0.125 0.62049 0.0
H1285 H 0.12346 0.06775 0.6067 0.0
C1286 C 0.12478 0.07527 0.53882 0.0
C1287 C 0.1357 0.08749 0.50582 0.0
C1288 C 0.17027 0.11534 0.64588 0.0
C1289 C 0.15158 0.09026 0.59089 0.0
C1290 C 0.17119 0.12338 0.68837 0.0
C1291 C 0.15948 0.11198 0.72144 0.0
C1292 C 0.15716 0.09605 0.63638 0.0
C1293 C 0.14823 0.09168 0.71136 0.0
C1294 C 0.1328 0.07643 0.58134 0.0
C1295 C 0.15557 0.09947 0.51597 0.0
N1296 N 0.14695 0.08459 0.66949 0.0
N1297 N 0.16263 0.10094 0.55784 0.0
H1298 H 0.18192 0.85912 0.78569 0.0
H1299 H 0.1117 0.92964 0.95377 0.0
H1300 H 0.13994 0.9159 0.74836 0.0
H1301 H 0.16751 0.88639 0.99118 0.0
H1302 H 0.12513 0.92862 0.87882 0.0
H1303 H 0.18069 0.87217 0.86085 0.0
C1304 C 0.17277 0.87458 0.79328 0.0
C1305 C 0.16068 0.88625 0.76108 0.0
C1306 C 0.13472 0.91971 0.90351 0.0
C1307 C 0.15887 0.90107 0.84691 0.0
C1308 C 0.12702 0.92025 0.94627 0.0
C1309 C 0.1383 0.90773 0.97841 0.0
C1310 C 0.15356 0.9062 0.89281 0.0
C1311 C 0.15819 0.89606 0.96717 0.0
C1312 C 0.17211 0.88206 0.83615 0.0
C1313 C 0.14931 0.90629 0.77241 0.0
N1314 N 0.16495 0.8952 0.92506 0.0
N1315 N 0.14828 0.91283 0.81464 0.0
H1316 H 0.38088 0.93131 0.03108 0.0
H1317 H 0.32103 0.85248 0.19981 0.0
H1318 H 0.33162 0.88095 -0.00738 0.0
H1319 H 0.34997 0.91713 0.23552 0.0
H1320 H 0.32173 0.86416 0.12366 0.0
H1321 H 0.36719 0.92851 0.10574 0.0
C1322 C 0.36691 0.91994 0.0383 0.0
C1323 C 0.35756 0.90609 0.00595 0.0
C1324 C 0.3275 0.87597 0.14822 0.0
C1325 C 0.34209 0.90251 0.09117 0.0
C1326 C 0.32716 0.86928 0.19164 0.0
C1327 C 0.3358 0.88374 0.22378 0.0
C1328 C 0.33696 0.89706 0.13697 0.0
C1329 C 0.34336 0.9054 0.21161 0.0
C1330 C 0.35905 0.91839 0.08086 0.0
C1331 C 0.33938 0.8918 0.01681 0.0
N1332 N 0.34419 0.91125 0.16901 0.0
N1333 N 0.33253 0.89002 0.05877 0.0
H1334 H 0.38108 0.06449 0.45155 0.0
H1335 H 0.31607 0.1365 0.27674 0.0
H1336 H 0.32773 0.11166 0.4843 0.0
H1337 H 0.35729 0.07838 0.24426 0.0
H1338 H 0.31602 0.12439 0.35254 0.0
H1339 H 0.36885 0.06563 0.37587 0.0
C1340 C 0.36653 0.0748 0.44285 0.0
C1341 C 0.35562 0.08831 0.47392 0.0
C1342 C 0.32472 0.11402 0.32876 0.0
C1343 C 0.34176 0.08999 0.38745 0.0
C1344 C 0.32479 0.12096 0.28551 0.0
C1345 C 0.33705 0.10862 0.25447 0.0
C1346 C 0.33733 0.09484 0.34107 0.0
C1347 C 0.34784 0.08851 0.26736 0.0
C1348 C 0.35952 0.07542 0.39967 0.0
C1349 C 0.33673 0.10116 0.46116 0.0
N1350 N 0.3481 0.08246 0.3099 0.0
N1351 N 0.33065 0.10204 0.41866 0.0
H1352 H 0.81605 0.8591 0.28537 0.0
H1353 H 0.88494 0.933 0.45157 0.0
H1354 H 0.85863 0.9152 0.24673 0.0
H1355 H 0.83152 0.88706 0.49004 0.0
H1356 H 0.87146 0.93095 0.37674 0.0
H1357 H 0.81705 0.87287 0.36006 0.0
C1358 C 0.8253 0.87455 0.29255 0.0
C1359 C 0.83763 0.88581 0.26013 0.0
C1360 C 0.86239 0.92164 0.40162 0.0
C1361 C 0.83914 0.90149 0.34546 0.0
C1362 C 0.87011 0.92279 0.44433 0.0
C1363 C 0.85957 0.90983 0.47674 0.0
C1364 C 0.84426 0.90711 0.39125 0.0
C1365 C 0.84028 0.8971 0.46582 0.0
C1366 C 0.82584 0.88244 0.33517 0.0
C1367 C 0.84911 0.90588 0.27095 0.0
N1368 N 0.8335 0.8957 0.42377 0.0
N1369 N 0.84996 0.91285 0.31294 0.0
H1370 H 0.8851 0.06482 0.03444 0.0
H1371 H 0.81254 0.13498 0.19985 0.0
H1372 H 0.83026 0.10882 -0.00502 0.0
H1373 H 0.85487 0.07872 0.23853 0.0
H1374 H 0.81463 0.12198 0.12474 0.0
H1375 H 0.87064 0.06563 0.1087 0.0
C1376 C 0.86978 0.07435 0.04133 0.0
C1377 C 0.85908 0.08713 0.00884 0.0
C1378 C 0.8231 0.11218 0.14971 0.0
C1379 C 0.84263 0.0884 0.09366 0.0
C1380 C 0.82193 0.11963 0.19258 0.0
C1381 C 0.8339 0.10812 0.22516 0.0
C1382 C 0.83671 0.09337 0.13937 0.0
C1383 C 0.8456 0.08821 0.21419 0.0
C1384 C 0.86149 0.07476 0.08369 0.0
C1385 C 0.83916 0.09895 0.01928 0.0
N1386 N 0.84711 0.08171 0.172 0.0
N1387 N 0.83181 0.09967 0.06103 0.0
H1388 H 0.67714 0.13677 0.77855 0.0
H1389 H 0.61092 0.06265 0.94873 0.0
H1390 H 0.63379 0.08085 0.74218 0.0
H1391 H 0.66545 0.10795 0.98409 0.0
H1392 H 0.62276 0.06518 0.87296 0.0
H1393 H 0.67708 0.12303 0.85331 0.0
C1394 C 0.66789 0.12138 0.78624 0.0
C1395 C 0.65511 0.11013 0.75445 0.0
C1396 C 0.63243 0.07425 0.89733 0.0
C1397 C 0.65472 0.09448 0.83987 0.0
C1398 C 0.62564 0.07283 0.94057 0.0
C1399 C 0.637 0.08544 0.97245 0.0
C1400 C 0.65043 0.08871 0.88591 0.0
C1401 C 0.6561 0.09815 0.96034 0.0
C1402 C 0.6679 0.1135 0.82889 0.0
C1403 C 0.64366 0.09015 0.76592 0.0
N1404 N 0.66197 0.09982 0.91782 0.0
N1405 N 0.64338 0.08318 0.80794 0.0
H1406 H 0.61381 0.93161 0.53102 0.0
H1407 H 0.68207 0.86063 0.705 0.0
H1408 H 0.66274 0.87986 0.49819 0.0
H1409 H 0.63892 0.91731 0.7376 0.0
H1410 H 0.68052 0.8719 0.62885 0.0
H1411 H 0.62768 0.93119 0.60572 0.0
C1412 C 0.62771 0.92039 0.53944 0.0
C1413 C 0.63687 0.90542 0.50872 0.0
C1414 C 0.6717 0.88214 0.65268 0.0
C1415 C 0.65267 0.90469 0.59405 0.0
C1416 C 0.67258 0.8757 0.69616 0.0
C1417 C 0.66024 0.88783 0.72737 0.0
C1418 C 0.65807 0.90062 0.64034 0.0
C1419 C 0.64846 0.90735 0.71437 0.0
C1420 C 0.63566 0.92018 0.58207 0.0
C1421 C 0.65501 0.89145 0.52111 0.0
N1422 N 0.6473 0.91291 0.67164 0.0
N1423 N 0.66208 0.89115 0.56305 0.0
H1424 H 0.67386 0.61337 -0.00635 0.0
H1425 H 0.67703 0.64639 0.20813 0.0
H1426 H 0.61805 0.57218 0.03891 0.0
H1427 H 0.64763 0.58112 0.23791 0.0
H1428 H 0.67865 0.63571 0.13173 0.0
H1429 H 0.68741 0.61674 0.06854 0.0
C1430 C 0.66465 0.60478 0.0193 0.0
C1431 C 0.64453 0.59291 0.01038 0.0
C1432 C 0.67257 0.62338 0.15503 0.0
C1433 C 0.65955 0.59711 0.0958 0.0
C1434 C 0.67145 0.62958 0.19867 0.0
C1435 C 0.66191 0.61472 0.22917 0.0
C1436 C 0.66386 0.60225 0.14194 0.0
C1437 C 0.65495 0.59314 0.21531 0.0
C1438 C 0.67225 0.60691 0.06204 0.0
C1439 C 0.6334 0.58186 0.04459 0.0
N1440 N 0.6556 0.58774 0.1725 0.0
N1441 N 0.64094 0.58442 0.08591 0.0
H1442 H 0.66725 0.38749 0.497 0.0
H1443 H 0.64153 0.41434 0.24797 0.0
H1444 H 0.61222 0.42992 0.45244 0.0
H1445 H 0.67935 0.35612 0.29281 0.0
H1446 H 0.6401 0.42854 0.3226 0.0
H1447 H 0.68097 0.38458 0.42217 0.0
C1448 C 0.65835 0.3966 0.4716 0.0
C1449 C 0.63835 0.40861 0.48061 0.0
C1450 C 0.64905 0.41287 0.3159 0.0
C1451 C 0.65389 0.40535 0.3954 0.0
C1452 C 0.64993 0.40479 0.27338 0.0
C1453 C 0.6602 0.38383 0.26451 0.0
C1454 C 0.65864 0.39993 0.34951 0.0
C1455 C 0.67094 0.37219 0.2985 0.0
C1456 C 0.66614 0.39487 0.42897 0.0
C1457 C 0.62752 0.42018 0.44664 0.0
N1458 N 0.66966 0.38027 0.33968 0.0
N1459 N 0.63528 0.41805 0.40536 0.0
H1460 H 0.81541 0.35977 0.70325 0.0
H1461 H 0.8853 0.43031 0.5335 0.0
H1462 H 0.85823 0.41614 0.7393 0.0
H1463 H 0.83032 0.38578 0.49711 0.0
H1464 H 0.87208 0.42922 0.60858 0.0
H1465 H 0.81664 0.37251 0.62787 0.0
C1466 C 0.82475 0.37507 0.69535 0.0
C1467 C 0.83707 0.38671 0.72727 0.0
C1468 C 0.86262 0.42002 0.58409 0.0
C1469 C 0.83887 0.40118 0.64115 0.0
C1470 C 0.8702 0.42061 0.54125 0.0
C1471 C 0.8591 0.40779 0.50934 0.0
C1472 C 0.84407 0.40617 0.59512 0.0
C1473 C 0.83949 0.39571 0.52091 0.0
C1474 C 0.82542 0.38237 0.65233 0.0
C1475 C 0.84869 0.40655 0.71549 0.0
N1476 N 0.83284 0.39483 0.5631 0.0
N1477 N 0.84968 0.41293 0.67316 0.0
H1478 H 0.82972 0.60659 -0.00458 0.0
H1479 H 0.85344 0.57918 0.74612 0.0
H1480 H 0.88531 0.56535 0.94948 0.0
H1481 H 0.81556 0.63713 0.79186 0.0
H1482 H 0.85536 0.5649 0.82074 0.0
H1483 H 0.81488 0.60843 0.92126 0.0
C1484 C 0.83852 0.59751 0.96989 0.0
C1485 C 0.859 0.58619 0.97825 0.0
C1486 C 0.84623 0.58049 0.81421 0.0
C1487 C 0.84218 0.58822 0.8938 0.0
C1488 C 0.84506 0.58861 0.77172 0.0
C1489 C 0.83472 0.60957 0.76315 0.0
C1490 C 0.83683 0.59339 0.84805 0.0
C1491 C 0.82405 0.62108 0.79734 0.0
C1492 C 0.83008 0.59861 0.92764 0.0
C1493 C 0.86966 0.57459 0.94415 0.0
N1494 N 0.82561 0.61297 0.83846 0.0
N1495 N 0.86127 0.57614 0.90321 0.0
H1496 H 0.3158 0.35718 0.7857 0.0
H1497 H 0.32903 0.38952 -0.00089 0.0
H1498 H 0.35831 0.41431 0.75274 0.0
H1499 H 0.39089 0.41958 0.95064 0.0
H1500 H 0.31436 0.38802 0.92487 0.0
H1501 H 0.3177 0.36816 0.86176 0.0
C1502 C 0.32507 0.37239 0.79444 0.0
C1503 C 0.33714 0.38471 0.76308 0.0
C1504 C 0.33115 0.39491 0.93045 0.0
C1505 C 0.33926 0.3976 0.85008 0.0
C1506 C 0.33943 0.39597 0.97285 0.0
C1507 C 0.3614 0.4042 0.98076 0.0
C1508 C 0.34505 0.40201 0.89593 0.0
C1509 C 0.37403 0.4127 0.94578 0.0
C1510 C 0.32599 0.37881 0.83793 0.0
C1511 C 0.34886 0.40428 0.77603 0.0
N1512 N 0.36575 0.41117 0.90479 0.0
N1513 N 0.35003 0.40985 0.81875 0.0
H1514 H 0.32069 0.63973 0.70277 0.0
H1515 H 0.38577 0.56942 0.52245 0.0
H1516 H 0.36576 0.584 0.73187 0.0
H1517 H 0.33466 0.61975 0.49383 0.0
H1518 H 0.37487 0.57078 0.5989 0.0
H1519 H 0.32146 0.629 0.62631 0.0
C1520 C 0.33049 0.62501 0.69309 0.0
C1521 C 0.34347 0.61292 0.72344 0.0
C1522 C 0.3658 0.5813 0.57585 0.0
C1523 C 0.3447 0.60073 0.63602 0.0
C1524 C 0.37205 0.58055 0.53222 0.0
C1525 C 0.36132 0.59476 0.50201 0.0
C1526 C 0.3489 0.59656 0.58932 0.0
C1527 C 0.34352 0.60869 0.51622 0.0
C1528 C 0.33092 0.61888 0.64943 0.0
C1529 C 0.35567 0.59388 0.70935 0.0
N1530 N 0.33807 0.60948 0.55902 0.0
N1531 N 0.35629 0.58858 0.66645 0.0
H1532 H 0.10896 0.56505 0.44637 0.0
H1533 H 0.18273 0.63397 0.27967 0.0
H1534 H 0.164 0.60903 0.48488 0.0
H1535 H 0.13851 0.57906 0.24163 0.0
H1536 H 0.18013 0.6213 0.35495 0.0
H1537 H 0.12313 0.56583 0.37188 0.0
C1538 C 0.12426 0.57457 0.43923 0.0
C1539 C 0.13511 0.58734 0.47153 0.0
C1540 C 0.17133 0.61174 0.3301 0.0
C1541 C 0.15123 0.58857 0.38645 0.0
C1542 C 0.17278 0.61899 0.28714 0.0
C1543 C 0.16049 0.60776 0.25466 0.0
C1544 C 0.15713 0.59338 0.34065 0.0
C1545 C 0.14807 0.58832 0.26588 0.0
C1546 C 0.13237 0.57498 0.39673 0.0
C1547 C 0.15499 0.59916 0.46075 0.0
N1548 N 0.14633 0.58199 0.30816 0.0
N1549 N 0.16218 0.59985 0.41889 0.0
H1550 H 0.18068 0.36012 0.20079 0.0
H1551 H 0.11161 0.43365 0.03408 0.0
H1552 H 0.13785 0.416 0.23941 0.0
H1553 H 0.1661 0.38893 -0.00403 0.0
H1554 H 0.12462 0.43134 0.10921 0.0
H1555 H 0.17956 0.37389 0.12607 0.0
C1556 C 0.17134 0.37552 0.1936 0.0
C1557 C 0.159 0.38674 0.22604 0.0
C1558 C 0.13403 0.42237 0.08435 0.0
C1559 C 0.15736 0.40241 0.14066 0.0
C1560 C 0.12657 0.42366 0.04148 0.0
C1561 C 0.13758 0.41113 0.00904 0.0
C1562 C 0.15235 0.40812 0.09486 0.0
C1563 C 0.157 0.39866 0.02018 0.0
C1564 C 0.17074 0.38341 0.15096 0.0
C1565 C 0.1474 0.40673 0.21518 0.0
N1566 N 0.16352 0.3971 0.06237 0.0
N1567 N 0.14649 0.4137 0.17318 0.0
loop_
_geom_bond_atom_site_label_1
_geom_bond_atom_site_label_2
_geom_bond_distance
_geom_bond_site_symmetry_2
_ccdc_geom_bond_type
In0 O1 2.294 . S
In0 O2 2.326 . S
In0 O6 2.266 . S
In0 O7 2.326 . S
In0 O8 2.266 . S
In0 O9 2.326 . S
In0 O11 2.294 . S
In0 O12 2.326 . S
O1 In0 2.294 . S
O1 C10 1.240 . S
O2 In0 2.326 . S
O2 C10 1.252 . S
C3 O6 1.252 . S
C3 O7 1.260 . S
C4 O11 1.240 . S
C4 O12 1.252 . S
C5 O8 1.252 . S
C5 O9 1.260 . S
O6 In0 2.266 . S
O6 C3 1.252 . S
O7 In0 2.326 . S
O7 C3 1.260 . S
O8 In0 2.266 . S
O8 C5 1.252 . S
O9 In0 2.326 . S
O9 C5 1.260 . S
C10 O1 1.240 . S
C10 O2 1.252 . S
O11 In0 2.294 . S
O11 C4 1.240 . S
O12 In0 2.326 . S
O12 C4 1.252 . S
In13 O14 2.294 . S
In13 O15 2.326 . S
In13 O19 2.266 . S
In13 O20 2.326 . S
In13 O21 2.266 . S
In13 O22 2.326 . S
In13 O24 2.294 . S
In13 O25 2.326 . S
O14 In13 2.294 . S
O14 C23 1.240 . S
O15 In13 2.326 . S
O15 C23 1.252 . S
C16 O19 1.252 . S
C16 O20 1.260 . S
C17 O24 1.240 . S
C17 O25 1.252 . S
C18 O21 1.252 . S
C18 O22 1.260 . S
O19 In13 2.266 . S
O19 C16 1.252 . S
O20 In13 2.326 . S
O20 C16 1.260 . S
O21 In13 2.266 . S
O21 C18 1.252 . S
O22 In13 2.326 . S
O22 C18 1.260 . S
C23 O14 1.240 . S
C23 O15 1.252 . S
O24 In13 2.294 . S
O24 C17 1.240 . S
O25 In13 2.326 . S
O25 C17 1.252 . S
In26 O27 2.294 . S
In26 O28 2.326 . S
In26 O32 2.266 . S
In26 O33 2.326 . S
In26 O34 2.266 . S
In26 O35 2.326 . S
In26 O37 2.294 . S
In26 O38 2.326 . S
O27 In26 2.294 . S
O27 C36 1.240 . S
O28 In26 2.326 . S
O28 C36 1.252 . S
C29 O32 1.252 . S
C29 O33 1.260 . S
C30 O37 1.240 . S
C30 O38 1.252 . S
C31 O34 1.252 . S
C31 O35 1.260 . S
O32 In26 2.266 . S
O32 C29 1.252 . S
O33 In26 2.326 . S
O33 C29 1.260 . S
O34 In26 2.266 . S
O34 C31 1.252 . S
O35 In26 2.326 . S
O35 C31 1.260 . S
C36 O27 1.240 . S
C36 O28 1.252 . S
O37 In26 2.294 . S
O37 C30 1.240 . S
O38 In26 2.326 . S
O38 C30 1.252 . S
In39 O40 2.294 . S
In39 O41 2.326 . S
In39 O45 2.266 . S
In39 O46 2.326 . S
In39 O47 2.266 . S
In39 O48 2.326 . S
In39 O50 2.294 . S
In39 O51 2.326 . S
O40 In39 2.294 . S
O40 C49 1.240 . S
O41 In39 2.326 . S
O41 C49 1.252 . S
C42 O45 1.252 . S
C42 O46 1.260 . S
C43 O50 1.240 . S
C43 O51 1.252 . S
C44 O47 1.252 . S
C44 O48 1.260 . S
O45 In39 2.266 . S
O45 C42 1.252 . S
O46 In39 2.326 . S
O46 C42 1.260 . S
O47 In39 2.266 . S
O47 C44 1.252 . S
O48 In39 2.326 . S
O48 C44 1.260 . S
C49 O40 1.240 . S
C49 O41 1.252 . S
O50 In39 2.294 . S
O50 C43 1.240 . S
O51 In39 2.326 . S
O51 C43 1.252 . S
In52 O53 2.294 . S
In52 O54 2.326 . S
In52 O58 2.266 . S
In52 O59 2.326 . S
In52 O60 2.266 . S
In52 O61 2.326 . S
In52 O63 2.294 . S
In52 O64 2.326 . S
O53 In52 2.294 . S
O53 C62 1.240 . S
O54 In52 2.326 . S
O54 C62 1.252 . S
C55 O58 1.252 . S
C55 O59 1.260 . S
C56 O63 1.240 . S
C56 O64 1.252 . S
C57 O60 1.252 . S
C57 O61 1.260 . S
O58 In52 2.266 . S
O58 C55 1.252 . S
O59 In52 2.326 . S
O59 C55 1.260 . S
O60 In52 2.266 . S
O60 C57 1.252 . S
O61 In52 2.326 . S
O61 C57 1.260 . S
C62 O53 1.240 . S
C62 O54 1.252 . S
O63 In52 2.294 . S
O63 C56 1.240 . S
O64 In52 2.326 . S
O64 C56 1.252 . S
In65 O66 2.294 . S
In65 O67 2.326 . S
In65 O71 2.266 . S
In65 O72 2.326 . S
In65 O73 2.266 . S
In65 O74 2.326 . S
In65 O76 2.294 . S
In65 O77 2.326 . S
O66 In65 2.294 . S
O66 C75 1.240 . S
O67 In65 2.326 . S
O67 C75 1.252 . S
C68 O71 1.252 . S
C68 O72 1.260 . S
C69 O76 1.240 . S
C69 O77 1.252 . S
C70 O73 1.252 . S
C70 O74 1.260 . S
O71 In65 2.266 . S
O71 C68 1.252 . S
O72 In65 2.326 . S
O72 C68 1.260 . S
O73 In65 2.266 . S
O73 C70 1.252 . S
O74 In65 2.326 . S
O74 C70 1.260 . S
C75 O66 1.240 . S
C75 O67 1.252 . S
O76 In65 2.294 . S
O76 C69 1.240 . S
O77 In65 2.326 . S
O77 C69 1.252 . S
In78 O79 2.294 . S
In78 O80 2.326 . S
In78 O84 2.266 . S
In78 O85 2.326 . S
In78 O86 2.266 . S
In78 O87 2.326 . S
In78 O89 2.294 . S
In78 O90 2.326 . S
O79 In78 2.294 . S
O79 C88 1.240 . S
O80 In78 2.326 . S
O80 C88 1.252 . S
C81 O84 1.252 . S
C81 O85 1.260 . S
C82 O89 1.240 . S
C82 O90 1.252 . S
C83 O86 1.252 . S
C83 O87 1.260 . S
O84 In78 2.266 . S
O84 C81 1.252 . S
O85 In78 2.326 . S
O85 C81 1.260 . S
O86 In78 2.266 . S
O86 C83 1.252 . S
O87 In78 2.326 . S
O87 C83 1.260 . S
C88 O79 1.240 . S
C88 O80 1.252 . S
O89 In78 2.294 . S
O89 C82 1.240 . S
O90 In78 2.326 . S
O90 C82 1.252 . S
In91 O92 2.294 . S
In91 O93 2.326 . S
In91 O97 2.266 . S
In91 O98 2.326 . S
In91 O99 2.266 . S
In91 O100 2.326 . S
In91 O102 2.294 . S
In91 O103 2.326 . S
O92 In91 2.294 . S
O92 C101 1.240 . S
O93 In91 2.326 . S
O93 C101 1.252 . S
C94 O97 1.252 . S
C94 O98 1.260 . S
C95 O102 1.240 . S
C95 O103 1.252 . S
C96 O99 1.252 . S
C96 O100 1.260 . S
O97 In91 2.266 . S
O97 C94 1.252 . S
O98 In91 2.326 . S
O98 C94 1.260 . S
O99 In91 2.266 . S
O99 C96 1.252 . S
O100 In91 2.326 . S
O100 C96 1.260 . S
C101 O92 1.240 . S
C101 O93 1.252 . S
O102 In91 2.294 . S
O102 C95 1.240 . S
O103 In91 2.326 . S
O103 C95 1.252 . S
In104 O105 2.294 . S
In104 O106 2.326 . S
In104 O110 2.266 . S
In104 O111 2.326 . S
In104 O112 2.266 . S
In104 O113 2.326 . S
In104 O115 2.294 . S
In104 O116 2.326 . S
O105 In104 2.294 . S
O105 C114 1.240 . S
O106 In104 2.326 . S
O106 C114 1.252 . S
C107 O110 1.252 . S
C107 O111 1.260 . S
C108 O115 1.240 . S
C108 O116 1.252 . S
C109 O112 1.252 . S
C109 O113 1.260 . S
O110 In104 2.266 . S
O110 C107 1.252 . S
O111 In104 2.326 . S
O111 C107 1.260 . S
O112 In104 2.266 . S
O112 C109 1.252 . S
O113 In104 2.326 . S
O113 C109 1.260 . S
C114 O105 1.240 . S
C114 O106 1.252 . S
O115 In104 2.294 . S
O115 C108 1.240 . S
O116 In104 2.326 . S
O116 C108 1.252 . S
In117 O118 2.294 . S
In117 O119 2.326 . S
In117 O123 2.266 . S
In117 O124 2.326 . S
In117 O125 2.266 . S
In117 O126 2.326 . S
In117 O128 2.294 . S
In117 O129 2.326 . S
O118 In117 2.294 . S
O118 C127 1.240 . S
O119 In117 2.326 . S
O119 C127 1.252 . S
C120 O123 1.252 . S
C120 O124 1.260 . S
C121 O128 1.240 . S
C121 O129 1.252 . S
C122 O125 1.252 . S
C122 O126 1.260 . S
O123 In117 2.266 . S
O123 C120 1.252 . S
O124 In117 2.326 . S
O124 C120 1.260 . S
O125 In117 2.266 . S
O125 C122 1.252 . S
O126 In117 2.326 . S
O126 C122 1.260 . S
C127 O118 1.240 . S
C127 O119 1.252 . S
O128 In117 2.294 . S
O128 C121 1.240 . S
O129 In117 2.326 . S
O129 C121 1.252 . S
In130 O131 2.294 . S
In130 O132 2.326 . S
In130 O136 2.266 . S
In130 O137 2.326 . S
In130 O138 2.266 . S
In130 O139 2.326 . S
In130 O141 2.294 . S
In130 O142 2.326 . S
O131 In130 2.294 . S
O131 C140 1.240 . S
O132 In130 2.326 . S
O132 C140 1.252 . S
C133 O136 1.252 . S
C133 O137 1.260 . S
C134 O141 1.240 . S
C134 O142 1.252 . S
C135 O138 1.252 . S
C135 O139 1.260 . S
O136 In130 2.266 . S
O136 C133 1.252 . S
O137 In130 2.326 . S
O137 C133 1.260 . S
O138 In130 2.266 . S
O138 C135 1.252 . S
O139 In130 2.326 . S
O139 C135 1.260 . S
C140 O131 1.240 . S
C140 O132 1.252 . S
O141 In130 2.294 . S
O141 C134 1.240 . S
O142 In130 2.326 . S
O142 C134 1.252 . S
In143 O144 2.294 . S
In143 O145 2.326 . S
In143 O149 2.266 . S
In143 O150 2.326 . S
In143 O151 2.266 . S
In143 O152 2.326 . S
In143 O154 2.294 . S
In143 O155 2.326 . S
O144 In143 2.294 . S
O144 C153 1.240 . S
O145 In143 2.326 . S
O145 C153 1.252 . S
C146 O149 1.252 . S
C146 O150 1.260 . S
C147 O154 1.240 . S
C147 O155 1.252 . S
C148 O151 1.252 . S
C148 O152 1.260 . S
O149 In143 2.266 . S
O149 C146 1.252 . S
O150 In143 2.326 . S
O150 C146 1.260 . S
O151 In143 2.266 . S
O151 C148 1.252 . S
O152 In143 2.326 . S
O152 C148 1.260 . S
C153 O144 1.240 . S
C153 O145 1.252 . S
O154 In143 2.294 . S
O154 C147 1.240 . S
O155 In143 2.326 . S
O155 C147 1.252 . S
In156 O157 2.294 . S
In156 O158 2.326 . S
In156 O162 2.266 . S
In156 O163 2.326 . S
In156 O164 2.266 . S
In156 O165 2.326 . S
In156 O167 2.294 . S
In156 O168 2.326 . S
O157 In156 2.294 . S
O157 C166 1.240 . S
O158 In156 2.326 . S
O158 C166 1.252 . S
C159 O162 1.252 . S
C159 O163 1.260 . S
C160 O167 1.240 . S
C160 O168 1.252 . S
C161 O164 1.252 . S
C161 O165 1.260 . S
O162 In156 2.266 . S
O162 C159 1.252 . S
O163 In156 2.326 . S
O163 C159 1.260 . S
O164 In156 2.266 . S
O164 C161 1.252 . S
O165 In156 2.326 . S
O165 C161 1.260 . S
C166 O157 1.240 . S
C166 O158 1.252 . S
O167 In156 2.294 . S
O167 C160 1.240 . S
O168 In156 2.326 . S
O168 C160 1.252 . S
In169 O170 2.294 . S
In169 O171 2.326 . S
In169 O175 2.266 . S
In169 O176 2.326 . S
In169 O177 2.266 . S
In169 O178 2.326 . S
In169 O180 2.294 . S
In169 O181 2.326 . S
O170 In169 2.294 . S
O170 C179 1.240 . S
O171 In169 2.326 . S
O171 C179 1.252 . S
C172 O175 1.252 . S
C172 O176 1.260 . S
C173 O180 1.240 . S
C173 O181 1.252 . S
C174 O177 1.252 . S
C174 O178 1.260 . S
O175 In169 2.266 . S
O175 C172 1.252 . S
O176 In169 2.326 . S
O176 C172 1.260 . S
O177 In169 2.266 . S
O177 C174 1.252 . S
O178 In169 2.326 . S
O178 C174 1.260 . S
C179 O170 1.240 . S
C179 O171 1.252 . S
O180 In169 2.294 . S
O180 C173 1.240 . S
O181 In169 2.326 . S
O181 C173 1.252 . S
In182 O183 2.294 . S
In182 O184 2.326 . S
In182 O188 2.266 . S
In182 O189 2.326 . S
In182 O190 2.266 . S
In182 O191 2.326 . S
In182 O193 2.294 . S
In182 O194 2.326 . S
O183 In182 2.294 . S
O183 C192 1.240 . S
O184 In182 2.326 . S
O184 C192 1.252 . S
C185 O188 1.252 . S
C185 O189 1.260 . S
C186 O193 1.240 . S
C186 O194 1.252 . S
C187 O190 1.252 . S
C187 O191 1.260 . S
O188 In182 2.266 . S
O188 C185 1.252 . S
O189 In182 2.326 . S
O189 C185 1.260 . S
O190 In182 2.266 . S
O190 C187 1.252 . S
O191 In182 2.326 . S
O191 C187 1.260 . S
C192 O183 1.240 . S
C192 O184 1.252 . S
O193 In182 2.294 . S
O193 C186 1.240 . S
O194 In182 2.326 . S
O194 C186 1.252 . S
In195 O196 2.294 . S
In195 O197 2.326 . S
In195 O201 2.266 . S
In195 O202 2.326 . S
In195 O203 2.266 . S
In195 O204 2.326 . S
In195 O206 2.294 . S
In195 O207 2.326 . S
O196 In195 2.294 . S
O196 C205 1.240 . S
O197 In195 2.326 . S
O197 C205 1.252 . S
C198 O201 1.252 . S
C198 O202 1.260 . S
C199 O206 1.240 . S
C199 O207 1.252 . S
C200 O203 1.252 . S
C200 O204 1.260 . S
O201 In195 2.266 . S
O201 C198 1.252 . S
O202 In195 2.326 . S
O202 C198 1.260 . S
O203 In195 2.266 . S
O203 C200 1.252 . S
O204 In195 2.326 . S
O204 C200 1.260 . S
C205 O196 1.240 . S
C205 O197 1.252 . S
O206 In195 2.294 . S
O206 C199 1.240 . S
O207 In195 2.326 . S
O207 C199 1.252 . S
In208 O209 2.294 . S
In208 O210 2.326 . S
In208 O214 2.266 . S
In208 O215 2.326 . S
In208 O216 2.266 . S
In208 O217 2.326 . S
In208 O219 2.294 . S
In208 O220 2.326 . S
O209 In208 2.294 . S
O209 C218 1.240 . S
O210 In208 2.326 . S
O210 C218 1.252 . S
C211 O214 1.252 . S
C211 O215 1.260 . S
C212 O219 1.240 . S
C212 O220 1.252 . S
C213 O216 1.252 . S
C213 O217 1.260 . S
O214 In208 2.266 . S
O214 C211 1.252 . S
O215 In208 2.326 . S
O215 C211 1.260 . S
O216 In208 2.266 . S
O216 C213 1.252 . S
O217 In208 2.326 . S
O217 C213 1.260 . S
C218 O209 1.240 . S
C218 O210 1.252 . S
O219 In208 2.294 . S
O219 C212 1.240 . S
O220 In208 2.326 . S
O220 C212 1.252 . S
In221 O222 2.294 . S
In221 O223 2.326 . S
In221 O227 2.266 . S
In221 O228 2.326 . S
In221 O229 2.266 . S
In221 O230 2.326 . S
In221 O232 2.294 . S
In221 O233 2.326 . S
O222 In221 2.294 . S
O222 C231 1.240 . S
O223 In221 2.326 . S
O223 C231 1.252 . S
C224 O227 1.252 . S
C224 O228 1.260 . S
C225 O232 1.240 . S
C225 O233 1.252 . S
C226 O229 1.252 . S
C226 O230 1.260 . S
O227 In221 2.266 . S
O227 C224 1.252 . S
O228 In221 2.326 . S
O228 C224 1.260 . S
O229 In221 2.266 . S
O229 C226 1.252 . S
O230 In221 2.326 . S
O230 C226 1.260 . S
C231 O222 1.240 . S
C231 O223 1.252 . S
O232 In221 2.294 . S
O232 C225 1.240 . S
O233 In221 2.326 . S
O233 C225 1.252 . S
In234 O235 2.294 . S
In234 O236 2.326 . S
In234 O240 2.266 . S
In234 O241 2.326 . S
In234 O242 2.266 . S
In234 O243 2.326 . S
In234 O245 2.294 . S
In234 O246 2.326 . S
O235 In234 2.294 . S
O235 C244 1.240 . S
O236 In234 2.326 . S
O236 C244 1.252 . S
C237 O240 1.252 . S
C237 O241 1.260 . S
C238 O245 1.240 . S
C238 O246 1.252 . S
C239 O242 1.252 . S
C239 O243 1.260 . S
O240 In234 2.266 . S
O240 C237 1.252 . S
O241 In234 2.326 . S
O241 C237 1.260 . S
O242 In234 2.266 . S
O242 C239 1.252 . S
O243 In234 2.326 . S
O243 C239 1.260 . S
C244 O235 1.240 . S
C244 O236 1.252 . S
O245 In234 2.294 . S
O245 C238 1.240 . S
O246 In234 2.326 . S
O246 C238 1.252 . S
In247 O248 2.294 . S
In247 O249 2.326 . S
In247 O253 2.266 . S
In247 O254 2.326 . S
In247 O255 2.266 . S
In247 O256 2.326 . S
In247 O258 2.294 . S
In247 O259 2.326 . S
O248 In247 2.294 . S
O248 C257 1.240 . S
O249 In247 2.326 . S
O249 C257 1.252 . S
C250 O253 1.252 . S
C250 O254 1.260 . S
C251 O258 1.240 . S
C251 O259 1.252 . S
C252 O255 1.252 . S
C252 O256 1.260 . S
O253 In247 2.266 . S
O253 C250 1.252 . S
O254 In247 2.326 . S
O254 C250 1.260 . S
O255 In247 2.266 . S
O255 C252 1.252 . S
O256 In247 2.326 . S
O256 C252 1.260 . S
C257 O248 1.240 . S
C257 O249 1.252 . S
O258 In247 2.294 . S
O258 C251 1.240 . S
O259 In247 2.326 . S
O259 C251 1.252 . S
In260 O261 2.294 . S
In260 O262 2.326 . S
In260 O266 2.266 . S
In260 O267 2.326 . S
In260 O268 2.266 . S
In260 O269 2.326 . S
In260 O271 2.294 . S
In260 O272 2.326 . S
O261 In260 2.294 . S
O261 C270 1.240 . S
O262 In260 2.326 . S
O262 C270 1.252 . S
C263 O266 1.252 . S
C263 O267 1.260 . S
C264 O271 1.240 . S
C264 O272 1.252 . S
C265 O268 1.252 . S
C265 O269 1.260 . S
O266 In260 2.266 . S
O266 C263 1.252 . S
O267 In260 2.326 . S
O267 C263 1.260 . S
O268 In260 2.266 . S
O268 C265 1.252 . S
O269 In260 2.326 . S
O269 C265 1.260 . S
C270 O261 1.240 . S
C270 O262 1.252 . S
O271 In260 2.294 . S
O271 C264 1.240 . S
O272 In260 2.326 . S
O272 C264 1.252 . S
In273 O274 2.294 . S
In273 O275 2.326 . S
In273 O279 2.266 . S
In273 O280 2.326 . S
In273 O281 2.266 . S
In273 O282 2.326 . S
In273 O284 2.294 . S
In273 O285 2.326 . S
O274 In273 2.294 . S
O274 C283 1.240 . S
O275 In273 2.326 . S
O275 C283 1.252 . S
C276 O279 1.252 . S
C276 O280 1.260 . S
C277 O284 1.240 . S
C277 O285 1.252 . S
C278 O281 1.252 . S
C278 O282 1.260 . S
O279 In273 2.266 . S
O279 C276 1.252 . S
O280 In273 2.326 . S
O280 C276 1.260 . S
O281 In273 2.266 . S
O281 C278 1.252 . S
O282 In273 2.326 . S
O282 C278 1.260 . S
C283 O274 1.240 . S
C283 O275 1.252 . S
O284 In273 2.294 . S
O284 C277 1.240 . S
O285 In273 2.326 . S
O285 C277 1.252 . S
In286 O287 2.294 . S
In286 O288 2.326 . S
In286 O292 2.266 . S
In286 O293 2.326 . S
In286 O294 2.266 . S
In286 O295 2.326 . S
In286 O297 2.294 . S
In286 O298 2.326 . S
O287 In286 2.294 . S
O287 C296 1.240 . S
O288 In286 2.326 . S
O288 C296 1.252 . S
C289 O292 1.252 . S
C289 O293 1.260 . S
C290 O297 1.240 . S
C290 O298 1.252 . S
C291 O294 1.252 . S
C291 O295 1.260 . S
O292 In286 2.266 . S
O292 C289 1.252 . S
O293 In286 2.326 . S
O293 C289 1.260 . S
O294 In286 2.266 . S
O294 C291 1.252 . S
O295 In286 2.326 . S
O295 C291 1.260 . S
C296 O287 1.240 . S
C296 O288 1.252 . S
O297 In286 2.294 . S
O297 C290 1.240 . S
O298 In286 2.326 . S
O298 C290 1.252 . S
In299 O300 2.294 . S
In299 O301 2.326 . S
In299 O305 2.266 . S
In299 O306 2.326 . S
In299 O307 2.266 . S
In299 O308 2.326 . S
In299 O310 2.294 . S
In299 O311 2.326 . S
O300 In299 2.294 . S
O300 C309 1.240 . S
O301 In299 2.326 . S
O301 C309 1.252 . S
C302 O305 1.252 . S
C302 O306 1.260 . S
C303 O310 1.240 . S
C303 O311 1.252 . S
C304 O307 1.252 . S
C304 O308 1.260 . S
O305 In299 2.266 . S
O305 C302 1.252 . S
O306 In299 2.326 . S
O306 C302 1.260 . S
O307 In299 2.266 . S
O307 C304 1.252 . S
O308 In299 2.326 . S
O308 C304 1.260 . S
C309 O300 1.240 . S
C309 O301 1.252 . S
O310 In299 2.294 . S
O310 C303 1.240 . S
O311 In299 2.326 . S
O311 C303 1.252 . S
In312 O313 2.294 . S
In312 O314 2.326 . S
In312 O318 2.266 . S
In312 O319 2.326 . S
In312 O320 2.266 . S
In312 O321 2.326 . S
In312 O323 2.294 . S
In312 O324 2.326 . S
O313 In312 2.294 . S
O313 C322 1.240 . S
O314 In312 2.326 . S
O314 C322 1.252 . S
C315 O318 1.252 . S
C315 O319 1.260 . S
C316 O323 1.240 . S
C316 O324 1.252 . S
C317 O320 1.252 . S
C317 O321 1.260 . S
O318 In312 2.266 . S
O318 C315 1.252 . S
O319 In312 2.326 . S
O319 C315 1.260 . S
O320 In312 2.266 . S
O320 C317 1.252 . S
O321 In312 2.326 . S
O321 C317 1.260 . S
C322 O313 1.240 . S
C322 O314 1.252 . S
O323 In312 2.294 . S
O323 C316 1.240 . S
O324 In312 2.326 . S
O324 C316 1.252 . S
In325 O326 2.294 . S
In325 O327 2.326 . S
In325 O331 2.266 . S
In325 O332 2.326 . S
In325 O333 2.266 . S
In325 O334 2.326 . S
In325 O336 2.294 . S
In325 O337 2.326 . S
O326 In325 2.294 . S
O326 C335 1.240 . S
O327 In325 2.326 . S
O327 C335 1.252 . S
C328 O331 1.252 . S
C328 O332 1.260 . S
C329 O336 1.240 . S
C329 O337 1.252 . S
C330 O333 1.252 . S
C330 O334 1.260 . S
O331 In325 2.266 . S
O331 C328 1.252 . S
O332 In325 2.326 . S
O332 C328 1.260 . S
O333 In325 2.266 . S
O333 C330 1.252 . S
O334 In325 2.326 . S
O334 C330 1.260 . S
C335 O326 1.240 . S
C335 O327 1.252 . S
O336 In325 2.294 . S
O336 C329 1.240 . S
O337 In325 2.326 . S
O337 C329 1.252 . S
In338 O339 2.294 . S
In338 O340 2.326 . S
In338 O344 2.266 . S
In338 O345 2.326 . S
In338 O346 2.266 . S
In338 O347 2.326 . S
In338 O349 2.294 . S
In338 O350 2.326 . S
O339 In338 2.294 . S
O339 C348 1.240 . S
O340 In338 2.326 . S
O340 C348 1.252 . S
C341 O344 1.252 . S
C341 O345 1.260 . S
C342 O349 1.240 . S
C342 O350 1.252 . S
C343 O346 1.252 . S
C343 O347 1.260 . S
O344 In338 2.266 . S
O344 C341 1.252 . S
O345 In338 2.326 . S
O345 C341 1.260 . S
O346 In338 2.266 . S
O346 C343 1.252 . S
O347 In338 2.326 . S
O347 C343 1.260 . S
C348 O339 1.240 . S
C348 O340 1.252 . S
O349 In338 2.294 . S
O349 C342 1.240 . S
O350 In338 2.326 . S
O350 C342 1.252 . S
In351 O352 2.294 . S
In351 O353 2.326 . S
In351 O357 2.266 . S
In351 O358 2.326 . S
In351 O359 2.266 . S
In351 O360 2.326 . S
In351 O362 2.294 . S
In351 O363 2.326 . S
O352 In351 2.294 . S
O352 C361 1.240 . S
O353 In351 2.326 . S
O353 C361 1.252 . S
C354 O357 1.252 . S
C354 O358 1.260 . S
C355 O362 1.240 . S
C355 O363 1.252 . S
C356 O359 1.252 . S
C356 O360 1.260 . S
O357 In351 2.266 . S
O357 C354 1.252 . S
O358 In351 2.326 . S
O358 C354 1.260 . S
O359 In351 2.266 . S
O359 C356 1.252 . S
O360 In351 2.326 . S
O360 C356 1.260 . S
C361 O352 1.240 . S
C361 O353 1.252 . S
O362 In351 2.294 . S
O362 C355 1.240 . S
O363 In351 2.326 . S
O363 C355 1.252 . S
In364 O365 2.294 . S
In364 O366 2.326 . S
In364 O370 2.266 . S
In364 O371 2.326 . S
In364 O372 2.266 . S
In364 O373 2.326 . S
In364 O375 2.294 . S
In364 O376 2.326 . S
O365 In364 2.294 . S
O365 C374 1.240 . S
O366 In364 2.326 . S
O366 C374 1.252 . S
C367 O370 1.252 . S
C367 O371 1.260 . S
C368 O375 1.240 . S
C368 O376 1.252 . S
C369 O372 1.252 . S
C369 O373 1.260 . S
O370 In364 2.266 . S
O370 C367 1.252 . S
O371 In364 2.326 . S
O371 C367 1.260 . S
O372 In364 2.266 . S
O372 C369 1.252 . S
O373 In364 2.326 . S
O373 C369 1.260 . S
C374 O365 1.240 . S
C374 O366 1.252 . S
O375 In364 2.294 . S
O375 C368 1.240 . S
O376 In364 2.326 . S
O376 C368 1.252 . S
In377 O378 2.294 . S
In377 O379 2.326 . S
In377 O383 2.266 . S
In377 O384 2.326 . S
In377 O385 2.266 . S
In377 O386 2.326 . S
In377 O388 2.294 . S
In377 O389 2.326 . S
O378 In377 2.294 . S
O378 C387 1.240 . S
O379 In377 2.326 . S
O379 C387 1.252 . S
C380 O383 1.252 . S
C380 O384 1.260 . S
C381 O388 1.240 . S
C381 O389 1.252 . S
C382 O385 1.252 . S
C382 O386 1.260 . S
O383 In377 2.266 . S
O383 C380 1.252 . S
O384 In377 2.326 . S
O384 C380 1.260 . S
O385 In377 2.266 . S
O385 C382 1.252 . S
O386 In377 2.326 . S
O386 C382 1.260 . S
C387 O378 1.240 . S
C387 O379 1.252 . S
O388 In377 2.294 . S
O388 C381 1.240 . S
O389 In377 2.326 . S
O389 C381 1.252 . S
In390 O391 2.294 . S
In390 O392 2.326 . S
In390 O396 2.266 . S
In390 O397 2.326 . S
In390 O398 2.266 . S
In390 O399 2.326 . S
In390 O401 2.294 . S
In390 O402 2.326 . S
O391 In390 2.294 . S
O391 C400 1.240 . S
O392 In390 2.326 . S
O392 C400 1.252 . S
C393 O396 1.252 . S
C393 O397 1.260 . S
C394 O401 1.240 . S
C394 O402 1.252 . S
C395 O398 1.252 . S
C395 O399 1.260 . S
O396 In390 2.266 . S
O396 C393 1.252 . S
O397 In390 2.326 . S
O397 C393 1.260 . S
O398 In390 2.266 . S
O398 C395 1.252 . S
O399 In390 2.326 . S
O399 C395 1.260 . S
C400 O391 1.240 . S
C400 O392 1.252 . S
O401 In390 2.294 . S
O401 C394 1.240 . S
O402 In390 2.326 . S
O402 C394 1.252 . S
In403 O404 2.294 . S
In403 O405 2.326 . S
In403 O409 2.266 . S
In403 O410 2.326 . S
In403 O411 2.266 . S
In403 O412 2.326 . S
In403 O414 2.294 . S
In403 O415 2.326 . S
O404 In403 2.294 . S
O404 C413 1.240 . S
O405 In403 2.326 . S
O405 C413 1.252 . S
C406 O409 1.252 . S
C406 O410 1.260 . S
C407 O414 1.240 . S
C407 O415 1.252 . S
C408 O411 1.252 . S
C408 O412 1.260 . S
O409 In403 2.266 . S
O409 C406 1.252 . S
O410 In403 2.326 . S
O410 C406 1.260 . S
O411 In403 2.266 . S
O411 C408 1.252 . S
O412 In403 2.326 . S
O412 C408 1.260 . S
C413 O404 1.240 . S
C413 O405 1.252 . S
O414 In403 2.294 . S
O414 C407 1.240 . S
O415 In403 2.326 . S
O415 C407 1.252 . S
H416 C422 0.930 . S
H417 C426 0.930 . S
H418 C431 0.929 . S
H419 C429 0.929 . S
H420 C424 0.929 . S
H421 C430 0.929 . S
C422 H416 0.930 . S
C422 C423 1.367 . S
C422 C430 1.378 . S
C423 C422 1.367 . S
C423 C431 1.433 . S
C424 H420 0.929 . S
C424 C426 1.378 . S
C424 C428 1.350 . S
C425 C428 1.463 1_545 S
C425 C430 1.350 . S
C425 N433 1.427 . S
C426 H417 0.930 . S
C426 C424 1.378 . S
C426 C427 1.367 . S
C427 C426 1.367 . S
C427 C429 1.433 . S
C428 C424 1.350 . S
C428 C425 1.463 1_565 S
C428 N432 1.427 . S
C429 H419 0.929 . S
C429 C427 1.433 . S
C429 N432 1.384 . S
C430 H421 0.929 . S
C430 C422 1.378 . S
C430 C425 1.350 . S
C431 H418 0.929 . S
C431 C423 1.433 . S
C431 N433 1.384 . S
N432 C428 1.427 . S
N432 C429 1.384 . S
N433 C425 1.427 . S
N433 C431 1.384 . S
H434 C440 0.930 . S
H435 C444 0.930 . S
H436 C449 0.929 . S
H437 C447 0.929 . S
H438 C442 0.929 . S
H439 C448 0.929 . S
C440 H434 0.930 . S
C440 C441 1.367 . S
C440 C448 1.378 . S
C441 C440 1.367 . S
C441 C449 1.433 . S
C442 H438 0.929 . S
C442 C444 1.378 . S
C442 C446 1.350 . S
C443 C446 1.463 . S
C443 C448 1.350 . S
C443 N451 1.427 . S
C444 H435 0.930 . S
C444 C442 1.378 . S
C444 C445 1.367 . S
C445 C444 1.367 . S
C445 C447 1.433 . S
C446 C442 1.350 . S
C446 C443 1.463 . S
C446 N450 1.427 . S
C447 H437 0.929 . S
C447 C445 1.433 . S
C447 N450 1.384 . S
C448 H439 0.929 . S
C448 C440 1.378 . S
C448 C443 1.350 . S
C449 H436 0.929 . S
C449 C441 1.433 . S
C449 N451 1.384 . S
N450 C446 1.427 . S
N450 C447 1.384 . S
N451 C443 1.427 . S
N451 C449 1.384 . S
H452 C458 0.930 . S
H453 C462 0.930 . S
H454 C467 0.929 . S
H455 C465 0.929 . S
H456 C460 0.929 1_545 S
H457 C466 0.929 1_565 S
C458 H452 0.930 . S
C458 C459 1.367 . S
C458 C466 1.378 . S
C459 C458 1.367 . S
C459 C467 1.433 . S
C460 H456 0.929 1_565 S
C460 C462 1.378 . S
C460 C464 1.350 . S
C461 C464 1.463 1_545 S
C461 C466 1.350 . S
C461 N469 1.427 . S
C462 H453 0.930 . S
C462 C460 1.378 . S
C462 C463 1.367 . S
C463 C462 1.367 . S
C463 C465 1.433 . S
C464 C460 1.350 . S
C464 C461 1.463 1_565 S
C464 N468 1.427 . S
C465 H455 0.929 . S
C465 C463 1.433 . S
C465 N468 1.384 . S
C466 H457 0.929 1_545 S
C466 C458 1.378 . S
C466 C461 1.350 . S
C467 H454 0.929 . S
C467 C459 1.433 . S
C467 N469 1.384 . S
N468 C464 1.427 . S
N468 C465 1.384 . S
N469 C461 1.427 . S
N469 C467 1.384 . S
H470 C476 0.930 . S
H471 C480 0.930 . S
H472 C485 0.929 . S
H473 C483 0.929 . S
H474 C478 0.929 . S
H475 C484 0.929 . S
C476 H470 0.930 . S
C476 C477 1.367 . S
C476 C484 1.378 . S
C477 C476 1.367 . S
C477 C485 1.433 . S
C478 H474 0.929 . S
C478 C480 1.378 . S
C478 C482 1.350 . S
C479 C482 1.463 1_556 S
C479 C484 1.350 . S
C479 N487 1.427 . S
C480 H471 0.930 . S
C480 C478 1.378 . S
C480 C481 1.367 . S
C481 C480 1.367 . S
C481 C483 1.433 . S
C482 C478 1.350 . S
C482 C479 1.463 1_554 S
C482 N486 1.427 . S
C483 H473 0.929 . S
C483 C481 1.433 . S
C483 N486 1.384 . S
C484 H475 0.929 . S
C484 C476 1.378 . S
C484 C479 1.350 . S
C485 H472 0.929 . S
C485 C477 1.433 . S
C485 N487 1.384 . S
N486 C482 1.427 . S
N486 C483 1.384 . S
N487 C479 1.427 . S
N487 C485 1.384 . S
H488 C494 0.930 . S
H489 C498 0.930 . S
H490 C503 0.929 . S
H491 C501 0.929 . S
H492 C496 0.929 . S
H493 C502 0.929 . S
C494 H488 0.930 . S
C494 C495 1.367 . S
C494 C502 1.378 . S
C495 C494 1.367 . S
C495 C503 1.433 . S
C496 H492 0.929 . S
C496 C498 1.378 . S
C496 C500 1.350 . S
C497 C500 1.463 1_565 S
C497 C502 1.350 . S
C497 N505 1.427 . S
C498 H489 0.930 . S
C498 C496 1.378 . S
C498 C499 1.367 . S
C499 C498 1.367 . S
C499 C501 1.433 . S
C500 C496 1.350 . S
C500 C497 1.463 1_545 S
C500 N504 1.427 . S
C501 H491 0.929 . S
C501 C499 1.433 . S
C501 N504 1.384 . S
C502 H493 0.929 . S
C502 C494 1.378 . S
C502 C497 1.350 . S
C503 H490 0.929 . S
C503 C495 1.433 . S
C503 N505 1.384 . S
N504 C500 1.427 . S
N504 C501 1.384 . S
N505 C497 1.427 . S
N505 C503 1.384 . S
H506 C512 0.930 . S
H507 C516 0.930 . S
H508 C521 0.929 . S
H509 C519 0.929 . S
H510 C514 0.929 . S
H511 C520 0.929 . S
C512 H506 0.930 . S
C512 C513 1.367 . S
C512 C520 1.378 . S
C513 C512 1.367 . S
C513 C521 1.433 . S
C514 H510 0.929 . S
C514 C516 1.378 . S
C514 C518 1.350 . S
C515 C518 1.463 . S
C515 C520 1.350 . S
C515 N523 1.427 . S
C516 H507 0.930 . S
C516 C514 1.378 . S
C516 C517 1.367 . S
C517 C516 1.367 . S
C517 C519 1.433 . S
C518 C514 1.350 . S
C518 C515 1.463 . S
C518 N522 1.427 . S
C519 H509 0.929 . S
C519 C517 1.433 . S
C519 N522 1.384 . S
C520 H511 0.929 . S
C520 C512 1.378 . S
C520 C515 1.350 . S
C521 H508 0.929 . S
C521 C513 1.433 . S
C521 N523 1.384 . S
N522 C518 1.427 . S
N522 C519 1.384 . S
N523 C515 1.427 . S
N523 C521 1.384 . S
H524 C530 0.930 . S
H525 C534 0.930 . S
H526 C539 0.929 . S
H527 C537 0.929 . S
H528 C532 0.929 . S
H529 C538 0.929 . S
C530 H524 0.930 . S
C530 C531 1.367 . S
C530 C538 1.378 . S
C531 C530 1.367 . S
C531 C539 1.433 . S
C532 H528 0.929 . S
C532 C534 1.378 . S
C532 C536 1.350 . S
C533 C536 1.463 1_565 S
C533 C538 1.350 . S
C533 N541 1.427 . S
C534 H525 0.930 . S
C534 C532 1.378 . S
C534 C535 1.367 . S
C535 C534 1.367 . S
C535 C537 1.433 . S
C536 C532 1.350 . S
C536 C533 1.463 1_545 S
C536 N540 1.427 . S
C537 H527 0.929 . S
C537 C535 1.433 . S
C537 N540 1.384 . S
C538 H529 0.929 . S
C538 C530 1.378 . S
C538 C533 1.350 . S
C539 H526 0.929 . S
C539 C531 1.433 . S
C539 N541 1.384 . S
N540 C536 1.427 . S
N540 C537 1.384 . S
N541 C533 1.427 . S
N541 C539 1.384 . S
H542 C548 0.930 . S
H543 C552 0.930 . S
H544 C557 0.929 . S
H545 C555 0.929 . S
H546 C550 0.929 1_556 S
H547 C556 0.929 1_554 S
C548 H542 0.930 . S
C548 C549 1.367 . S
C548 C556 1.378 . S
C549 C548 1.367 . S
C549 C557 1.433 . S
C550 H546 0.929 1_554 S
C550 C552 1.378 . S
C550 C554 1.350 . S
C551 C554 1.463 1_556 S
C551 C556 1.350 . S
C551 N559 1.427 . S
C552 H543 0.930 . S
C552 C550 1.378 . S
C552 C553 1.367 . S
C553 C552 1.367 . S
C553 C555 1.433 . S
C554 C550 1.350 . S
C554 C551 1.463 1_554 S
C554 N558 1.427 . S
C555 H545 0.929 . S
C555 C553 1.433 . S
C555 N558 1.384 . S
C556 H547 0.929 1_556 S
C556 C548 1.378 . S
C556 C551 1.350 . S
C557 H544 0.929 . S
C557 C549 1.433 . S
C557 N559 1.384 . S
N558 C554 1.427 . S
N558 C555 1.384 . S
N559 C551 1.427 . S
N559 C557 1.384 . S
H560 C566 0.930 . S
H561 C570 0.930 . S
H562 C575 0.929 . S
H563 C573 0.929 . S
H564 C568 0.929 . S
H565 C574 0.929 . S
C566 H560 0.930 . S
C566 C567 1.367 . S
C566 C574 1.378 . S
C567 C566 1.367 . S
C567 C575 1.433 . S
C568 H564 0.929 . S
C568 C570 1.378 . S
C568 C572 1.350 . S
C569 C572 1.463 . S
C569 C574 1.350 . S
C569 N577 1.427 . S
C570 H561 0.930 . S
C570 C568 1.378 . S
C570 C571 1.367 . S
C571 C570 1.367 . S
C571 C573 1.433 . S
C572 C568 1.350 . S
C572 C569 1.463 . S
C572 N576 1.427 . S
C573 H563 0.929 . S
C573 C571 1.433 . S
C573 N576 1.384 . S
C574 H565 0.929 . S
C574 C566 1.378 . S
C574 C569 1.350 . S
C575 H562 0.929 . S
C575 C567 1.433 . S
C575 N577 1.384 . S
N576 C572 1.427 . S
N576 C573 1.384 . S
N577 C569 1.427 . S
N577 C575 1.384 . S
H578 C584 0.930 . S
H579 C588 0.930 . S
H580 C593 0.929 . S
H581 C591 0.929 . S
H582 C586 0.929 . S
H583 C592 0.929 . S
C584 H578 0.930 . S
C584 C585 1.367 . S
C584 C592 1.378 . S
C585 C584 1.367 . S
C585 C593 1.433 . S
C586 H582 0.929 . S
C586 C588 1.378 . S
C586 C590 1.350 . S
C587 C590 1.463 1_556 S
C587 C592 1.350 . S
C587 N595 1.427 . S
C588 H579 0.930 . S
C588 C586 1.378 . S
C588 C589 1.367 . S
C589 C588 1.367 . S
C589 C591 1.433 . S
C590 C586 1.350 . S
C590 C587 1.463 1_554 S
C590 N594 1.427 . S
C591 H581 0.929 . S
C591 C589 1.433 . S
C591 N594 1.384 . S
C592 H583 0.929 . S
C592 C584 1.378 . S
C592 C587 1.350 . S
C593 H580 0.929 . S
C593 C585 1.433 . S
C593 N595 1.384 . S
N594 C590 1.427 . S
N594 C591 1.384 . S
N595 C587 1.427 . S
N595 C593 1.384 . S
H596 C602 0.930 . S
H597 C606 0.930 . S
H598 C611 0.929 . S
H599 C609 0.929 . S
H600 C604 0.929 . S
H601 C610 0.929 . S
C602 H596 0.930 . S
C602 C603 1.367 . S
C602 C610 1.378 . S
C603 C602 1.367 . S
C603 C611 1.433 . S
C604 H600 0.929 . S
C604 C606 1.378 . S
C604 C608 1.350 . S
C605 C608 1.463 . S
C605 C610 1.350 . S
C605 N613 1.427 . S
C606 H597 0.930 . S
C606 C604 1.378 . S
C606 C607 1.367 . S
C607 C606 1.367 . S
C607 C609 1.433 . S
C608 C604 1.350 . S
C608 C605 1.463 . S
C608 N612 1.427 . S
C609 H599 0.929 . S
C609 C607 1.433 . S
C609 N612 1.384 . S
C610 H601 0.929 . S
C610 C602 1.378 . S
C610 C605 1.350 . S
C611 H598 0.929 . S
C611 C603 1.433 . S
C611 N613 1.384 . S
N612 C608 1.427 . S
N612 C609 1.384 . S
N613 C605 1.427 . S
N613 C611 1.384 . S
H614 C620 0.930 . S
H615 C624 0.930 . S
H616 C629 0.929 . S
H617 C627 0.929 . S
H618 C622 0.929 . S
H619 C628 0.929 . S
C620 H614 0.930 . S
C620 C621 1.367 . S
C620 C628 1.378 . S
C621 C620 1.367 . S
C621 C629 1.433 . S
C622 H618 0.929 . S
C622 C624 1.378 . S
C622 C626 1.350 . S
C623 C626 1.463 . S
C623 C628 1.350 . S
C623 N631 1.427 . S
C624 H615 0.930 . S
C624 C622 1.378 . S
C624 C625 1.367 . S
C625 C624 1.367 . S
C625 C627 1.433 . S
C626 C622 1.350 . S
C626 C623 1.463 . S
C626 N630 1.427 . S
C627 H617 0.929 . S
C627 C625 1.433 . S
C627 N630 1.384 . S
C628 H619 0.929 . S
C628 C620 1.378 . S
C628 C623 1.350 . S
C629 H616 0.929 . S
C629 C621 1.433 . S
C629 N631 1.384 . S
N630 C626 1.427 . S
N630 C627 1.384 . S
N631 C623 1.427 . S
N631 C629 1.384 . S
H632 C638 0.930 . S
H633 C642 0.930 . S
H634 C647 0.929 . S
H635 C645 0.929 . S
H636 C640 0.929 . S
H637 C646 0.929 . S
C638 H632 0.930 . S
C638 C639 1.367 . S
C638 C646 1.378 . S
C639 C638 1.367 . S
C639 C647 1.433 . S
C640 H636 0.929 . S
C640 C642 1.378 . S
C640 C644 1.350 . S
C641 C644 1.463 . S
C641 C646 1.350 . S
C641 N649 1.427 . S
C642 H633 0.930 . S
C642 C640 1.378 . S
C642 C643 1.367 . S
C643 C642 1.367 . S
C643 C645 1.433 . S
C644 C640 1.350 . S
C644 C641 1.463 . S
C644 N648 1.427 . S
C645 H635 0.929 . S
C645 C643 1.433 . S
C645 N648 1.384 . S
C646 H637 0.929 . S
C646 C638 1.378 . S
C646 C641 1.350 . S
C647 H634 0.929 . S
C647 C639 1.433 . S
C647 N649 1.384 . S
N648 C644 1.427 . S
N648 C645 1.384 . S
N649 C641 1.427 . S
N649 C647 1.384 . S
H650 C656 0.930 . S
H651 C660 0.930 . S
H652 C665 0.929 . S
H653 C663 0.929 . S
H654 C658 0.929 . S
H655 C664 0.929 . S
C656 H650 0.930 . S
C656 C657 1.367 . S
C656 C664 1.378 . S
C657 C656 1.367 . S
C657 C665 1.433 . S
C658 H654 0.929 . S
C658 C660 1.378 . S
C658 C662 1.350 . S
C659 C662 1.463 1_554 S
C659 C664 1.350 . S
C659 N667 1.427 . S
C660 H651 0.930 . S
C660 C658 1.378 . S
C660 C661 1.367 . S
C661 C660 1.367 . S
C661 C663 1.433 . S
C662 C658 1.350 . S
C662 C659 1.463 1_556 S
C662 N666 1.427 . S
C663 H653 0.929 . S
C663 C661 1.433 . S
C663 N666 1.384 . S
C664 H655 0.929 . S
C664 C656 1.378 . S
C664 C659 1.350 . S
C665 H652 0.929 . S
C665 C657 1.433 . S
C665 N667 1.384 . S
N666 C662 1.427 . S
N666 C663 1.384 . S
N667 C659 1.427 . S
N667 C665 1.384 . S
H668 C674 0.930 . S
H669 C678 0.930 . S
H670 C683 0.929 . S
H671 C681 0.929 . S
H672 C676 0.929 . S
H673 C682 0.929 . S
C674 H668 0.930 . S
C674 C675 1.367 . S
C674 C682 1.378 . S
C675 C674 1.367 . S
C675 C683 1.433 . S
C676 H672 0.929 . S
C676 C678 1.378 . S
C676 C680 1.350 . S
C677 C680 1.463 . S
C677 C682 1.350 . S
C677 N685 1.427 . S
C678 H669 0.930 . S
C678 C676 1.378 . S
C678 C679 1.367 . S
C679 C678 1.367 . S
C679 C681 1.433 . S
C680 C676 1.350 . S
C680 C677 1.463 . S
C680 N684 1.427 . S
C681 H671 0.929 . S
C681 C679 1.433 . S
C681 N684 1.384 . S
C682 H673 0.929 . S
C682 C674 1.378 . S
C682 C677 1.350 . S
C683 H670 0.929 . S
C683 C675 1.433 . S
C683 N685 1.384 . S
N684 C680 1.427 . S
N684 C681 1.384 . S
N685 C677 1.427 . S
N685 C683 1.384 . S
H686 C692 0.930 . S
H687 C696 0.930 . S
H688 C701 0.929 . S
H689 C699 0.929 . S
H690 C694 0.929 . S
H691 C700 0.929 . S
C692 H686 0.930 . S
C692 C693 1.367 . S
C692 C700 1.378 . S
C693 C692 1.367 . S
C693 C701 1.433 . S
C694 H690 0.929 . S
C694 C696 1.378 . S
C694 C698 1.350 . S
C695 C698 1.463 . S
C695 C700 1.350 . S
C695 N703 1.427 . S
C696 H687 0.930 . S
C696 C694 1.378 . S
C696 C697 1.367 . S
C697 C696 1.367 . S
C697 C699 1.433 . S
C698 C694 1.350 . S
C698 C695 1.463 . S
C698 N702 1.427 . S
C699 H689 0.929 . S
C699 C697 1.433 . S
C699 N702 1.384 . S
C700 H691 0.929 . S
C700 C692 1.378 . S
C700 C695 1.350 . S
C701 H688 0.929 . S
C701 C693 1.433 . S
C701 N703 1.384 . S
N702 C698 1.427 . S
N702 C699 1.384 . S
N703 C695 1.427 . S
N703 C701 1.384 . S
H704 C710 0.930 . S
H705 C714 0.930 . S
H706 C719 0.929 . S
H707 C717 0.929 . S
H708 C712 0.929 . S
H709 C718 0.929 . S
C710 H704 0.930 . S
C710 C711 1.367 . S
C710 C718 1.378 . S
C711 C710 1.367 . S
C711 C719 1.433 . S
C712 H708 0.929 . S
C712 C714 1.378 . S
C712 C716 1.350 . S
C713 C716 1.463 . S
C713 C718 1.350 . S
C713 N721 1.427 . S
C714 H705 0.930 . S
C714 C712 1.378 . S
C714 C715 1.367 . S
C715 C714 1.367 . S
C715 C717 1.433 . S
C716 C712 1.350 . S
C716 C713 1.463 . S
C716 N720 1.427 . S
C717 H707 0.929 . S
C717 C715 1.433 . S
C717 N720 1.384 . S
C718 H709 0.929 . S
C718 C710 1.378 . S
C718 C713 1.350 . S
C719 H706 0.929 . S
C719 C711 1.433 . S
C719 N721 1.384 . S
N720 C716 1.427 . S
N720 C717 1.384 . S
N721 C713 1.427 . S
N721 C719 1.384 . S
H722 C728 0.930 . S
H723 C732 0.930 . S
H724 C737 0.929 . S
H725 C735 0.929 . S
H726 C730 0.929 . S
H727 C736 0.929 1_455 S
C728 H722 0.930 . S
C728 C729 1.367 . S
C728 C736 1.378 . S
C729 C728 1.367 . S
C729 C737 1.433 . S
C730 H726 0.929 . S
C730 C732 1.378 . S
C730 C734 1.350 . S
C731 C734 1.463 . S
C731 C736 1.350 1_455 S
C731 N739 1.444 . S
C732 H723 0.930 . S
C732 C730 1.378 . S
C732 C733 1.367 . S
C733 C732 1.367 . S
C733 C735 1.433 . S
C734 C730 1.350 . S
C734 C731 1.463 . S
C734 N738 1.427 . S
C735 H725 0.929 . S
C735 C733 1.433 . S
C735 N738 1.384 . S
C736 H727 0.929 1_655 S
C736 C728 1.378 . S
C736 C731 1.350 1_655 S
C737 H724 0.929 . S
C737 C729 1.433 . S
C737 N739 1.343 1_655 S
N738 C734 1.427 . S
N738 C735 1.384 . S
N739 C731 1.444 . S
N739 C737 1.343 1_455 S
H740 C746 0.930 . S
H741 C750 0.930 . S
H742 C755 0.929 . S
H743 C753 0.929 . S
H744 C748 0.929 . S
H745 C754 0.929 . S
C746 H740 0.930 . S
C746 C747 1.367 . S
C746 C754 1.378 . S
C747 C746 1.367 . S
C747 C755 1.433 . S
C748 H744 0.929 . S
C748 C750 1.378 . S
C748 C752 1.350 . S
C749 C752 1.463 . S
C749 C754 1.350 . S
C749 N757 1.427 . S
C750 H741 0.930 . S
C750 C748 1.378 . S
C750 C751 1.367 . S
C751 C750 1.367 . S
C751 C753 1.433 . S
C752 C748 1.350 . S
C752 C749 1.463 . S
C752 N756 1.427 . S
C753 H743 0.929 . S
C753 C751 1.433 . S
C753 N756 1.384 . S
C754 H745 0.929 . S
C754 C746 1.378 . S
C754 C749 1.350 . S
C755 H742 0.929 . S
C755 C747 1.433 . S
C755 N757 1.384 . S
N756 C752 1.427 . S
N756 C753 1.384 . S
N757 C749 1.427 . S
N757 C755 1.384 . S
H758 C764 0.930 . S
H759 C768 0.930 . S
H760 C773 0.929 . S
H761 C771 0.929 . S
H762 C766 0.929 . S
H763 C772 0.929 . S
C764 H758 0.930 . S
C764 C765 1.367 . S
C764 C772 1.378 . S
C765 C764 1.367 . S
C765 C773 1.433 . S
C766 H762 0.929 . S
C766 C768 1.378 . S
C766 C770 1.350 . S
C767 C770 1.463 . S
C767 C772 1.350 . S
C767 N775 1.427 . S
C768 H759 0.930 . S
C768 C766 1.378 . S
C768 C769 1.367 . S
C769 C768 1.367 . S
C769 C771 1.433 . S
C770 C766 1.350 . S
C770 C767 1.463 . S
C770 N774 1.427 . S
C771 H761 0.929 . S
C771 C769 1.433 . S
C771 N774 1.384 . S
C772 H763 0.929 . S
C772 C764 1.378 . S
C772 C767 1.350 . S
C773 H760 0.929 . S
C773 C765 1.433 . S
C773 N775 1.384 . S
N774 C770 1.427 . S
N774 C771 1.384 . S
N775 C767 1.427 . S
N775 C773 1.384 . S
H776 C782 0.930 . S
H777 C786 0.930 . S
H778 C791 0.929 . S
H779 C789 0.929 . S
H780 C784 0.929 . S
H781 C790 0.929 . S
C782 H776 0.930 . S
C782 C783 1.367 . S
C782 C790 1.378 . S
C783 C782 1.367 . S
C783 C791 1.433 . S
C784 H780 0.929 . S
C784 C786 1.378 . S
C784 C788 1.350 . S
C785 C788 1.463 . S
C785 C790 1.350 . S
C785 N793 1.427 . S
C786 H777 0.930 . S
C786 C784 1.378 . S
C786 C787 1.367 . S
C787 C786 1.367 . S
C787 C789 1.433 . S
C788 C784 1.350 . S
C788 C785 1.463 . S
C788 N792 1.427 . S
C789 H779 0.929 . S
C789 C787 1.433 . S
C789 N792 1.384 . S
C790 H781 0.929 . S
C790 C782 1.378 . S
C790 C785 1.350 . S
C791 H778 0.929 . S
C791 C783 1.433 . S
C791 N793 1.384 . S
N792 C788 1.427 . S
N792 C789 1.384 . S
N793 C785 1.427 . S
N793 C791 1.384 . S
H794 C800 0.930 . S
H795 C804 0.930 . S
H796 C809 0.929 . S
H797 C807 0.929 . S
H798 C802 0.929 . S
H799 C808 0.929 . S
C800 H794 0.930 . S
C800 C801 1.367 . S
C800 C808 1.378 . S
C801 C800 1.367 . S
C801 C809 1.433 . S
C802 H798 0.929 . S
C802 C804 1.378 . S
C802 C806 1.350 . S
C803 C806 1.463 . S
C803 C808 1.350 . S
C803 N811 1.427 . S
C804 H795 0.930 . S
C804 C802 1.378 . S
C804 C805 1.367 . S
C805 C804 1.367 . S
C805 C807 1.433 . S
C806 C802 1.350 . S
C806 C803 1.463 . S
C806 N810 1.427 . S
C807 H797 0.929 . S
C807 C805 1.433 . S
C807 N810 1.384 . S
C808 H799 0.929 . S
C808 C800 1.378 . S
C808 C803 1.350 . S
C809 H796 0.929 . S
C809 C801 1.433 . S
C809 N811 1.384 . S
N810 C806 1.427 . S
N810 C807 1.384 . S
N811 C803 1.427 . S
N811 C809 1.384 . S
H812 C818 0.930 . S
H813 C822 0.930 . S
H814 C827 0.929 . S
H815 C825 0.929 . S
H816 C820 0.929 . S
H817 C826 0.929 . S
C818 H812 0.930 . S
C818 C819 1.367 . S
C818 C826 1.378 . S
C819 C818 1.367 . S
C819 C827 1.433 . S
C820 H816 0.929 . S
C820 C822 1.378 . S
C820 C824 1.350 . S
C821 C824 1.463 . S
C821 C826 1.350 . S
C821 N829 1.427 . S
C822 H813 0.930 . S
C822 C820 1.378 . S
C822 C823 1.367 . S
C823 C822 1.367 . S
C823 C825 1.433 . S
C824 C820 1.350 . S
C824 C821 1.463 . S
C824 N828 1.427 . S
C825 H815 0.929 . S
C825 C823 1.433 . S
C825 N828 1.384 . S
C826 H817 0.929 . S
C826 C818 1.378 . S
C826 C821 1.350 . S
C827 H814 0.929 . S
C827 C819 1.433 . S
C827 N829 1.384 . S
N828 C824 1.427 . S
N828 C825 1.384 . S
N829 C821 1.427 . S
N829 C827 1.384 . S
H830 C836 0.930 . S
H831 C840 0.930 . S
H832 C845 0.929 . S
H833 C843 0.929 . S
H834 C838 0.929 1_455 S
H835 C844 0.929 . S
C836 H830 0.930 . S
C836 C837 1.367 . S
C836 C844 1.378 . S
C837 C836 1.367 . S
C837 C845 1.433 . S
C838 H834 0.929 1_655 S
C838 C840 1.378 . S
C838 C842 1.350 1_655 S
C839 C842 1.463 . S
C839 C844 1.350 . S
C839 N847 1.427 . S
C840 H831 0.930 . S
C840 C838 1.378 . S
C840 C841 1.367 . S
C841 C840 1.367 . S
C841 C843 1.433 . S
C842 C838 1.350 1_455 S
C842 C839 1.463 . S
C842 N846 1.447 . S
C843 H833 0.929 . S
C843 C841 1.433 . S
C843 N846 1.337 1_655 S
C844 H835 0.929 . S
C844 C836 1.378 . S
C844 C839 1.350 . S
C845 H832 0.929 . S
C845 C837 1.433 . S
C845 N847 1.384 . S
N846 C842 1.447 . S
N846 C843 1.337 1_455 S
N847 C839 1.427 . S
N847 C845 1.384 . S
H848 C854 0.930 . S
H849 C858 0.930 . S
H850 C863 0.929 . S
H851 C861 0.929 . S
H852 C856 0.929 . S
H853 C862 0.929 . S
C854 H848 0.930 . S
C854 C855 1.367 . S
C854 C862 1.378 . S
C855 C854 1.367 . S
C855 C863 1.433 . S
C856 H852 0.929 . S
C856 C858 1.378 . S
C856 C860 1.350 . S
C857 C860 1.463 . S
C857 C862 1.350 . S
C857 N865 1.427 . S
C858 H849 0.930 . S
C858 C856 1.378 . S
C858 C859 1.367 . S
C859 C858 1.367 . S
C859 C861 1.433 . S
C860 C856 1.350 . S
C860 C857 1.463 . S
C860 N864 1.427 . S
C861 H851 0.929 . S
C861 C859 1.433 . S
C861 N864 1.384 . S
C862 H853 0.929 . S
C862 C854 1.378 . S
C862 C857 1.350 . S
C863 H850 0.929 . S
C863 C855 1.433 . S
C863 N865 1.384 . S
N864 C860 1.427 . S
N864 C861 1.384 . S
N865 C857 1.427 . S
N865 C863 1.384 . S
H866 C872 0.930 . S
H867 C876 0.930 . S
H868 C881 0.929 . S
H869 C879 0.929 . S
H870 C874 0.929 1_655 S
H871 C880 0.929 . S
C872 H866 0.930 . S
C872 C873 1.367 . S
C872 C880 1.378 . S
C873 C872 1.367 . S
C873 C881 1.433 . S
C874 H870 0.929 1_455 S
C874 C876 1.378 . S
C874 C878 1.350 1_455 S
C875 C878 1.463 . S
C875 C880 1.350 . S
C875 N883 1.427 . S
C876 H867 0.930 . S
C876 C874 1.378 . S
C876 C877 1.367 . S
C877 C876 1.367 . S
C877 C879 1.433 . S
C878 C874 1.350 1_655 S
C878 C875 1.463 . S
C878 N882 1.427 . S
C879 H869 0.929 . S
C879 C877 1.433 . S
C879 N882 1.384 1_455 S
C880 H871 0.929 . S
C880 C872 1.378 . S
C880 C875 1.350 . S
C881 H868 0.929 . S
C881 C873 1.433 . S
C881 N883 1.384 . S
N882 C878 1.427 . S
N882 C879 1.384 1_655 S
N883 C875 1.427 . S
N883 C881 1.384 . S
H884 C890 0.930 . S
H885 C894 0.930 . S
H886 C899 0.929 . S
H887 C897 0.929 . S
H888 C892 0.929 . S
H889 C898 0.929 . S
C890 H884 0.930 . S
C890 C891 1.367 . S
C890 C898 1.378 . S
C891 C890 1.367 . S
C891 C899 1.433 . S
C892 H888 0.929 . S
C892 C894 1.378 . S
C892 C896 1.350 . S
C893 C896 1.463 . S
C893 C898 1.350 . S
C893 N901 1.427 . S
C894 H885 0.930 . S
C894 C892 1.378 . S
C894 C895 1.367 . S
C895 C894 1.367 . S
C895 C897 1.433 . S
C896 C892 1.350 . S
C896 C893 1.463 . S
C896 N900 1.427 . S
C897 H887 0.929 . S
C897 C895 1.433 . S
C897 N900 1.384 . S
C898 H889 0.929 . S
C898 C890 1.378 . S
C898 C893 1.350 . S
C899 H886 0.929 . S
C899 C891 1.433 . S
C899 N901 1.384 . S
N900 C896 1.427 . S
N900 C897 1.384 . S
N901 C893 1.427 . S
N901 C899 1.384 . S
H902 C908 0.930 . S
H903 C912 0.930 . S
H904 C917 0.929 . S
H905 C915 0.929 . S
H906 C910 0.929 . S
H907 C916 0.929 . S
C908 H902 0.930 . S
C908 C909 1.367 . S
C908 C916 1.378 . S
C909 C908 1.367 . S
C909 C917 1.433 . S
C910 H906 0.929 . S
C910 C912 1.378 . S
C910 C914 1.350 . S
C911 C914 1.463 . S
C911 C916 1.350 . S
C911 N919 1.427 . S
C912 H903 0.930 . S
C912 C910 1.378 . S
C912 C913 1.367 . S
C913 C912 1.367 . S
C913 C915 1.433 . S
C914 C910 1.350 . S
C914 C911 1.463 . S
C914 N918 1.427 . S
C915 H905 0.929 . S
C915 C913 1.433 . S
C915 N918 1.384 . S
C916 H907 0.929 . S
C916 C908 1.378 . S
C916 C911 1.350 . S
C917 H904 0.929 . S
C917 C909 1.433 . S
C917 N919 1.384 . S
N918 C914 1.427 . S
N918 C915 1.384 . S
N919 C911 1.427 . S
N919 C917 1.384 . S
H920 C926 0.930 . S
H921 C930 0.930 . S
H922 C935 0.929 . S
H923 C933 0.929 . S
H924 C928 0.929 . S
H925 C934 0.929 . S
C926 H920 0.930 . S
C926 C927 1.367 . S
C926 C934 1.378 . S
C927 C926 1.367 . S
C927 C935 1.433 . S
C928 H924 0.929 . S
C928 C930 1.378 . S
C928 C932 1.350 . S
C929 C932 1.463 . S
C929 C934 1.350 . S
C929 N937 1.427 . S
C930 H921 0.930 . S
C930 C928 1.378 . S
C930 C931 1.367 . S
C931 C930 1.367 . S
C931 C933 1.433 . S
C932 C928 1.350 . S
C932 C929 1.463 . S
C932 N936 1.427 . S
C933 H923 0.929 . S
C933 C931 1.433 . S
C933 N936 1.384 . S
C934 H925 0.929 . S
C934 C926 1.378 . S
C934 C929 1.350 . S
C935 H922 0.929 . S
C935 C927 1.433 . S
C935 N937 1.384 . S
N936 C932 1.427 . S
N936 C933 1.384 . S
N937 C929 1.427 . S
N937 C935 1.384 . S
H938 C944 0.930 . S
H939 C948 0.930 . S
H940 C953 0.929 . S
H941 C951 0.929 . S
H942 C946 0.929 . S
H943 C952 0.929 . S
C944 H938 0.930 . S
C944 C945 1.367 . S
C944 C952 1.378 . S
C945 C944 1.367 . S
C945 C953 1.433 . S
C946 H942 0.929 . S
C946 C948 1.378 . S
C946 C950 1.350 . S
C947 C950 1.463 . S
C947 C952 1.350 . S
C947 N955 1.427 . S
C948 H939 0.930 . S
C948 C946 1.378 . S
C948 C949 1.367 . S
C949 C948 1.367 . S
C949 C951 1.433 . S
C950 C946 1.350 . S
C950 C947 1.463 . S
C950 N954 1.427 . S
C951 H941 0.929 . S
C951 C949 1.433 . S
C951 N954 1.384 . S
C952 H943 0.929 . S
C952 C944 1.378 . S
C952 C947 1.350 . S
C953 H940 0.929 . S
C953 C945 1.433 . S
C953 N955 1.384 . S
N954 C950 1.427 . S
N954 C951 1.384 . S
N955 C947 1.427 . S
N955 C953 1.384 . S
H956 C962 0.930 . S
H957 C966 0.930 . S
H958 C971 0.929 . S
H959 C969 0.929 . S
H960 C964 0.929 . S
H961 C970 0.929 . S
C962 H956 0.930 . S
C962 C963 1.367 . S
C962 C970 1.378 . S
C963 C962 1.367 . S
C963 C971 1.433 . S
C964 H960 0.929 . S
C964 C966 1.378 . S
C964 C968 1.350 . S
C965 C968 1.463 . S
C965 C970 1.350 . S
C965 N973 1.427 . S
C966 H957 0.930 . S
C966 C964 1.378 . S
C966 C967 1.367 . S
C967 C966 1.367 . S
C967 C969 1.433 . S
C968 C964 1.350 . S
C968 C965 1.463 . S
C968 N972 1.427 . S
C969 H959 0.929 . S
C969 C967 1.433 . S
C969 N972 1.384 . S
C970 H961 0.929 . S
C970 C962 1.378 . S
C970 C965 1.350 . S
C971 H958 0.929 . S
C971 C963 1.433 . S
C971 N973 1.384 . S
N972 C968 1.427 . S
N972 C969 1.384 . S
N973 C965 1.427 . S
N973 C971 1.384 . S
H974 C980 0.930 . S
H975 C984 0.930 . S
H976 C989 0.929 . S
H977 C987 0.929 . S
H978 C982 0.930 . S
H979 C988 0.929 . S
C980 H974 0.930 . S
C980 C981 1.367 . S
C980 C988 1.378 . S
C981 C980 1.367 . S
C981 C989 1.433 . S
C982 H978 0.930 . S
C982 C984 1.375 1_655 S
C982 C986 1.351 . S
C983 C986 1.463 . S
C983 C988 1.350 . S
C983 N991 1.427 . S
C984 H975 0.930 . S
C984 C982 1.375 1_455 S
C984 C985 1.367 . S
C985 C984 1.367 . S
C985 C987 1.433 . S
C986 C982 1.351 . S
C986 C983 1.463 . S
C986 N990 1.427 1_655 S
C987 H977 0.929 . S
C987 C985 1.433 . S
C987 N990 1.384 . S
C988 H979 0.929 . S
C988 C980 1.378 . S
C988 C983 1.350 . S
C989 H976 0.929 . S
C989 C981 1.433 . S
C989 N991 1.384 . S
N990 C986 1.427 1_455 S
N990 C987 1.384 . S
N991 C983 1.427 . S
N991 C989 1.384 . S
H992 C998 0.930 . S
H993 C1002 0.930 . S
H994 C1007 0.929 . S
H995 C1005 0.929 . S
H996 C1000 0.929 . S
H997 C1006 0.929 . S
C998 H992 0.930 . S
C998 C999 1.367 . S
C998 C1006 1.378 . S
C999 C998 1.367 . S
C999 C1007 1.433 . S
C1000 H996 0.929 . S
C1000 C1002 1.378 . S
C1000 C1004 1.350 . S
C1001 C1004 1.463 . S
C1001 C1006 1.350 . S
C1001 N1009 1.427 . S
C1002 H993 0.930 . S
C1002 C1000 1.378 . S
C1002 C1003 1.367 . S
C1003 C1002 1.367 . S
C1003 C1005 1.433 . S
C1004 C1000 1.350 . S
C1004 C1001 1.463 . S
C1004 N1008 1.427 . S
C1005 H995 0.929 . S
C1005 C1003 1.433 . S
C1005 N1008 1.384 . S
C1006 H997 0.929 . S
C1006 C998 1.378 . S
C1006 C1001 1.350 . S
C1007 H994 0.929 . S
C1007 C999 1.433 . S
C1007 N1009 1.384 . S
N1008 C1004 1.427 . S
N1008 C1005 1.384 . S
N1009 C1001 1.427 . S
N1009 C1007 1.384 . S
H1010 C1016 0.930 . S
H1011 C1020 0.930 . S
H1012 C1025 0.929 . S
H1013 C1023 0.929 . S
H1014 C1018 0.929 . S
H1015 C1024 0.929 . S
C1016 H1010 0.930 . S
C1016 C1017 1.367 . S
C1016 C1024 1.378 . S
C1017 C1016 1.367 . S
C1017 C1025 1.433 . S
C1018 H1014 0.929 . S
C1018 C1020 1.378 . S
C1018 C1022 1.350 . S
C1019 C1022 1.463 . S
C1019 C1024 1.350 . S
C1019 N1027 1.427 . S
C1020 H1011 0.930 . S
C1020 C1018 1.378 . S
C1020 C1021 1.367 . S
C1021 C1020 1.367 . S
C1021 C1023 1.433 . S
C1022 C1018 1.350 . S
C1022 C1019 1.463 . S
C1022 N1026 1.427 . S
C1023 H1013 0.929 . S
C1023 C1021 1.433 . S
C1023 N1026 1.384 . S
C1024 H1015 0.929 . S
C1024 C1016 1.378 . S
C1024 C1019 1.350 . S
C1025 H1012 0.929 . S
C1025 C1017 1.433 . S
C1025 N1027 1.384 . S
N1026 C1022 1.427 . S
N1026 C1023 1.384 . S
N1027 C1019 1.427 . S
N1027 C1025 1.384 . S
H1028 C1034 0.930 . S
H1029 C1038 0.930 . S
H1030 C1043 0.929 . S
H1031 C1041 0.929 . S
H1032 C1036 0.929 . S
H1033 C1042 0.929 . S
C1034 H1028 0.930 . S
C1034 C1035 1.367 . S
C1034 C1042 1.378 . S
C1035 C1034 1.367 . S
C1035 C1043 1.433 . S
C1036 H1032 0.929 . S
C1036 C1038 1.378 . S
C1036 C1040 1.350 . S
C1037 C1040 1.463 . S
C1037 C1042 1.350 . S
C1037 N1045 1.427 . S
C1038 H1029 0.930 . S
C1038 C1036 1.378 . S
C1038 C1039 1.367 . S
C1039 C1038 1.367 . S
C1039 C1041 1.433 . S
C1040 C1036 1.350 . S
C1040 C1037 1.463 . S
C1040 N1044 1.427 . S
C1041 H1031 0.929 . S
C1041 C1039 1.433 . S
C1041 N1044 1.384 . S
C1042 H1033 0.929 . S
C1042 C1034 1.378 . S
C1042 C1037 1.350 . S
C1043 H1030 0.929 . S
C1043 C1035 1.433 . S
C1043 N1045 1.384 . S
N1044 C1040 1.427 . S
N1044 C1041 1.384 . S
N1045 C1037 1.427 . S
N1045 C1043 1.384 . S
H1046 C1052 0.930 . S
H1047 C1056 0.930 . S
H1048 C1061 0.929 . S
H1049 C1059 0.929 . S
H1050 C1054 0.909 1_655 S
H1051 C1060 0.929 . S
C1052 H1046 0.930 . S
C1052 C1053 1.367 . S
C1052 C1060 1.378 . S
C1053 C1052 1.367 . S
C1053 C1061 1.433 . S
C1054 H1050 0.909 1_455 S
C1054 C1056 1.418 . S
C1054 C1058 1.330 1_455 S
C1055 C1058 1.463 . S
C1055 C1060 1.350 . S
C1055 N1063 1.427 . S
C1056 H1047 0.930 . S
C1056 C1054 1.418 . S
C1056 C1057 1.367 . S
C1057 C1056 1.367 . S
C1057 C1059 1.433 . S
C1058 C1054 1.330 1_655 S
C1058 C1055 1.463 . S
C1058 N1062 1.419 1_655 S
C1059 H1049 0.929 . S
C1059 C1057 1.433 . S
C1059 N1062 1.401 . S
C1060 H1051 0.929 . S
C1060 C1052 1.378 . S
C1060 C1055 1.350 . S
C1061 H1048 0.929 . S
C1061 C1053 1.433 . S
C1061 N1063 1.384 . S
N1062 C1058 1.419 1_455 S
N1062 C1059 1.401 . S
N1063 C1055 1.427 . S
N1063 C1061 1.384 . S
H1064 C1070 0.930 . S
H1065 C1074 0.930 . S
H1066 C1079 0.929 . S
H1067 C1077 0.929 . S
H1068 C1072 0.929 . S
H1069 C1078 0.929 . S
C1070 H1064 0.930 . S
C1070 C1071 1.367 . S
C1070 C1078 1.378 . S
C1071 C1070 1.367 . S
C1071 C1079 1.433 . S
C1072 H1068 0.929 . S
C1072 C1074 1.378 . S
C1072 C1076 1.350 . S
C1073 C1076 1.463 . S
C1073 C1078 1.350 . S
C1073 N1081 1.427 . S
C1074 H1065 0.930 . S
C1074 C1072 1.378 . S
C1074 C1075 1.367 . S
C1075 C1074 1.367 . S
C1075 C1077 1.433 . S
C1076 C1072 1.350 . S
C1076 C1073 1.463 . S
C1076 N1080 1.427 . S
C1077 H1067 0.929 . S
C1077 C1075 1.433 . S
C1077 N1080 1.384 . S
C1078 H1069 0.929 . S
C1078 C1070 1.378 . S
C1078 C1073 1.350 . S
C1079 H1066 0.929 . S
C1079 C1071 1.433 . S
C1079 N1081 1.384 . S
N1080 C1076 1.427 . S
N1080 C1077 1.384 . S
N1081 C1073 1.427 . S
N1081 C1079 1.384 . S
H1082 C1088 0.930 . S
H1083 C1092 0.930 . S
H1084 C1097 0.929 . S
H1085 C1095 0.929 . S
H1086 C1090 0.929 . S
H1087 C1096 0.918 1_655 S
C1088 H1082 0.930 . S
C1088 C1089 1.367 . S
C1088 C1096 1.399 . S
C1089 C1088 1.367 . S
C1089 C1097 1.433 . S
C1090 H1086 0.929 . S
C1090 C1092 1.378 . S
C1090 C1094 1.350 . S
C1091 C1094 1.463 . S
C1091 C1096 1.340 1_655 S
C1091 N1099 1.410 1_655 S
C1092 H1083 0.930 . S
C1092 C1090 1.378 . S
C1092 C1093 1.367 . S
C1093 C1092 1.367 . S
C1093 C1095 1.433 . S
C1094 C1090 1.350 . S
C1094 C1091 1.463 . S
C1094 N1098 1.427 . S
C1095 H1085 0.929 . S
C1095 C1093 1.433 . S
C1095 N1098 1.384 . S
C1096 H1087 0.918 1_455 S
C1096 C1088 1.399 . S
C1096 C1091 1.340 1_455 S
C1097 H1084 0.929 . S
C1097 C1089 1.433 . S
C1097 N1099 1.421 . S
N1098 C1094 1.427 . S
N1098 C1095 1.384 . S
N1099 C1091 1.410 1_455 S
N1099 C1097 1.421 . S
H1100 C1106 0.930 . S
H1101 C1110 0.930 . S
H1102 C1115 0.929 . S
H1103 C1113 0.929 . S
H1104 C1108 0.929 . S
H1105 C1114 0.929 . S
C1106 H1100 0.930 . S
C1106 C1107 1.367 . S
C1106 C1114 1.378 . S
C1107 C1106 1.367 . S
C1107 C1115 1.433 . S
C1108 H1104 0.929 . S
C1108 C1110 1.378 . S
C1108 C1112 1.350 . S
C1109 C1112 1.463 . S
C1109 C1114 1.350 . S
C1109 N1117 1.427 . S
C1110 H1101 0.930 . S
C1110 C1108 1.378 . S
C1110 C1111 1.367 . S
C1111 C1110 1.367 . S
C1111 C1113 1.433 . S
C1112 C1108 1.350 . S
C1112 C1109 1.463 . S
C1112 N1116 1.427 . S
C1113 H1103 0.929 . S
C1113 C1111 1.433 . S
C1113 N1116 1.384 . S
C1114 H1105 0.929 . S
C1114 C1106 1.378 . S
C1114 C1109 1.350 . S
C1115 H1102 0.929 . S
C1115 C1107 1.433 . S
C1115 N1117 1.384 . S
N1116 C1112 1.427 . S
N1116 C1113 1.384 . S
N1117 C1109 1.427 . S
N1117 C1115 1.384 . S
H1118 C1124 0.930 . S
H1119 C1128 0.930 . S
H1120 C1133 0.929 . S
H1121 C1131 0.929 . S
H1122 C1126 0.929 . S
H1123 C1132 0.929 . S
C1124 H1118 0.930 . S
C1124 C1125 1.367 . S
C1124 C1132 1.378 . S
C1125 C1124 1.367 . S
C1125 C1133 1.433 . S
C1126 H1122 0.929 . S
C1126 C1128 1.378 . S
C1126 C1130 1.350 . S
C1127 C1130 1.463 . S
C1127 C1132 1.350 . S
C1127 N1135 1.427 . S
C1128 H1119 0.930 . S
C1128 C1126 1.378 . S
C1128 C1129 1.367 . S
C1129 C1128 1.367 . S
C1129 C1131 1.433 . S
C1130 C1126 1.350 . S
C1130 C1127 1.463 . S
C1130 N1134 1.427 . S
C1131 H1121 0.929 . S
C1131 C1129 1.433 . S
C1131 N1134 1.384 . S
C1132 H1123 0.929 . S
C1132 C1124 1.378 . S
C1132 C1127 1.350 . S
C1133 H1120 0.929 . S
C1133 C1125 1.433 . S
C1133 N1135 1.384 . S
N1134 C1130 1.427 . S
N1134 C1131 1.384 . S
N1135 C1127 1.427 . S
N1135 C1133 1.384 . S
H1136 C1142 0.930 . S
H1137 C1146 0.930 . S
H1138 C1151 0.929 . S
H1139 C1149 0.929 . S
H1140 C1144 0.929 . S
H1141 C1150 0.929 . S
C1142 H1136 0.930 . S
C1142 C1143 1.367 . S
C1142 C1150 1.378 . S
C1143 C1142 1.367 . S
C1143 C1151 1.433 . S
C1144 H1140 0.929 . S
C1144 C1146 1.378 . S
C1144 C1148 1.350 . S
C1145 C1148 1.463 . S
C1145 C1150 1.350 . S
C1145 N1153 1.427 . S
C1146 H1137 0.930 . S
C1146 C1144 1.378 . S
C1146 C1147 1.367 . S
C1147 C1146 1.367 . S
C1147 C1149 1.433 . S
C1148 C1144 1.350 . S
C1148 C1145 1.463 . S
C1148 N1152 1.427 . S
C1149 H1139 0.929 . S
C1149 C1147 1.433 . S
C1149 N1152 1.384 . S
C1150 H1141 0.929 . S
C1150 C1142 1.378 . S
C1150 C1145 1.350 . S
C1151 H1138 0.929 . S
C1151 C1143 1.433 . S
C1151 N1153 1.384 . S
N1152 C1148 1.427 . S
N1152 C1149 1.384 . S
N1153 C1145 1.427 . S
N1153 C1151 1.384 . S
H1154 C1160 0.930 . S
H1155 C1164 0.930 . S
H1156 C1169 0.929 . S
H1157 C1167 0.929 . S
H1158 C1162 0.929 . S
H1159 C1168 0.929 . S
C1160 H1154 0.930 . S
C1160 C1161 1.367 . S
C1160 C1168 1.378 . S
C1161 C1160 1.367 . S
C1161 C1169 1.433 . S
C1162 H1158 0.929 . S
C1162 C1164 1.378 . S
C1162 C1166 1.350 . S
C1163 C1166 1.463 . S
C1163 C1168 1.350 . S
C1163 N1171 1.427 . S
C1164 H1155 0.930 . S
C1164 C1162 1.378 . S
C1164 C1165 1.367 . S
C1165 C1164 1.367 . S
C1165 C1167 1.433 . S
C1166 C1162 1.350 . S
C1166 C1163 1.463 . S
C1166 N1170 1.427 . S
C1167 H1157 0.929 . S
C1167 C1165 1.433 . S
C1167 N1170 1.384 . S
C1168 H1159 0.929 . S
C1168 C1160 1.378 . S
C1168 C1163 1.350 . S
C1169 H1156 0.929 . S
C1169 C1161 1.433 . S
C1169 N1171 1.384 . S
N1170 C1166 1.427 . S
N1170 C1167 1.384 . S
N1171 C1163 1.427 . S
N1171 C1169 1.384 . S
H1172 C1178 0.930 . S
H1173 C1182 0.930 . S
H1174 C1187 0.929 . S
H1175 C1185 0.929 . S
H1176 C1180 0.929 . S
H1177 C1186 0.929 . S
C1178 H1172 0.930 . S
C1178 C1179 1.367 . S
C1178 C1186 1.378 . S
C1179 C1178 1.367 . S
C1179 C1187 1.433 . S
C1180 H1176 0.929 . S
C1180 C1182 1.378 . S
C1180 C1184 1.350 . S
C1181 C1184 1.463 . S
C1181 C1186 1.350 . S
C1181 N1189 1.427 . S
C1182 H1173 0.930 . S
C1182 C1180 1.378 . S
C1182 C1183 1.367 . S
C1183 C1182 1.367 . S
C1183 C1185 1.433 . S
C1184 C1180 1.350 . S
C1184 C1181 1.463 . S
C1184 N1188 1.427 . S
C1185 H1175 0.929 . S
C1185 C1183 1.433 . S
C1185 N1188 1.384 . S
C1186 H1177 0.929 . S
C1186 C1178 1.378 . S
C1186 C1181 1.350 . S
C1187 H1174 0.929 . S
C1187 C1179 1.433 . S
C1187 N1189 1.384 . S
N1188 C1184 1.427 . S
N1188 C1185 1.384 . S
N1189 C1181 1.427 . S
N1189 C1187 1.384 . S
H1190 C1196 0.930 . S
H1191 C1200 0.930 . S
H1192 C1205 0.929 . S
H1193 C1203 0.929 . S
H1194 C1198 0.929 1_455 S
H1195 C1204 0.929 . S
C1196 H1190 0.930 . S
C1196 C1197 1.367 . S
C1196 C1204 1.378 . S
C1197 C1196 1.367 . S
C1197 C1205 1.433 . S
C1198 H1194 0.929 1_655 S
C1198 C1200 1.378 . S
C1198 C1202 1.350 1_655 S
C1199 C1202 1.463 . S
C1199 C1204 1.350 . S
C1199 N1207 1.427 . S
C1200 H1191 0.930 . S
C1200 C1198 1.378 . S
C1200 C1201 1.367 . S
C1201 C1200 1.367 . S
C1201 C1203 1.433 . S
C1202 C1198 1.350 1_455 S
C1202 C1199 1.463 . S
C1202 N1206 1.427 . S
C1203 H1193 0.929 . S
C1203 C1201 1.433 . S
C1203 N1206 1.384 1_655 S
C1204 H1195 0.929 . S
C1204 C1196 1.378 . S
C1204 C1199 1.350 . S
C1205 H1192 0.929 . S
C1205 C1197 1.433 . S
C1205 N1207 1.384 . S
N1206 C1202 1.427 . S
N1206 C1203 1.384 1_455 S
N1207 C1199 1.427 . S
N1207 C1205 1.384 . S
H1208 C1214 0.930 . S
H1209 C1218 0.930 . S
H1210 C1223 0.929 . S
H1211 C1221 0.929 . S
H1212 C1216 0.929 . S
H1213 C1222 0.929 . S
C1214 H1208 0.930 . S
C1214 C1215 1.367 . S
C1214 C1222 1.378 . S
C1215 C1214 1.367 . S
C1215 C1223 1.433 . S
C1216 H1212 0.929 . S
C1216 C1218 1.378 . S
C1216 C1220 1.350 . S
C1217 C1220 1.463 . S
C1217 C1222 1.350 . S
C1217 N1225 1.427 . S
C1218 H1209 0.930 . S
C1218 C1216 1.378 . S
C1218 C1219 1.367 . S
C1219 C1218 1.367 . S
C1219 C1221 1.433 . S
C1220 C1216 1.350 . S
C1220 C1217 1.463 . S
C1220 N1224 1.427 . S
C1221 H1211 0.929 . S
C1221 C1219 1.433 . S
C1221 N1224 1.384 . S
C1222 H1213 0.929 . S
C1222 C1214 1.378 . S
C1222 C1217 1.350 . S
C1223 H1210 0.929 . S
C1223 C1215 1.433 . S
C1223 N1225 1.384 . S
N1224 C1220 1.427 . S
N1224 C1221 1.384 . S
N1225 C1217 1.427 . S
N1225 C1223 1.384 . S
H1226 C1232 0.930 . S
H1227 C1236 0.930 . S
H1228 C1241 0.929 . S
H1229 C1239 0.929 . S
H1230 C1234 0.929 . S
H1231 C1240 0.929 1_455 S
C1232 H1226 0.930 . S
C1232 C1233 1.367 . S
C1232 C1240 1.378 . S
C1233 C1232 1.367 . S
C1233 C1241 1.433 . S
C1234 H1230 0.929 . S
C1234 C1236 1.378 . S
C1234 C1238 1.350 . S
C1235 C1238 1.463 . S
C1235 C1240 1.350 1_455 S
C1235 N1243 1.427 . S
C1236 H1227 0.930 . S
C1236 C1234 1.378 . S
C1236 C1237 1.367 . S
C1237 C1236 1.367 . S
C1237 C1239 1.433 . S
C1238 C1234 1.350 . S
C1238 C1235 1.463 . S
C1238 N1242 1.427 . S
C1239 H1229 0.929 . S
C1239 C1237 1.433 . S
C1239 N1242 1.384 . S
C1240 H1231 0.929 1_655 S
C1240 C1232 1.378 . S
C1240 C1235 1.350 1_655 S
C1241 H1228 0.929 . S
C1241 C1233 1.433 . S
C1241 N1243 1.384 1_655 S
N1242 C1238 1.427 . S
N1242 C1239 1.384 . S
N1243 C1235 1.427 . S
N1243 C1241 1.384 1_455 S
H1244 C1250 0.930 . S
H1245 C1254 0.930 . S
H1246 C1259 0.929 . S
H1247 C1257 0.929 . S
H1248 C1252 0.929 . S
H1249 C1258 0.929 . S
C1250 H1244 0.930 . S
C1250 C1251 1.367 . S
C1250 C1258 1.378 . S
C1251 C1250 1.367 . S
C1251 C1259 1.433 . S
C1252 H1248 0.929 . S
C1252 C1254 1.378 . S
C1252 C1256 1.350 . S
C1253 C1256 1.463 . S
C1253 C1258 1.350 . S
C1253 N1261 1.427 . S
C1254 H1245 0.930 . S
C1254 C1252 1.378 . S
C1254 C1255 1.367 . S
C1255 C1254 1.367 . S
C1255 C1257 1.433 . S
C1256 C1252 1.350 . S
C1256 C1253 1.463 . S
C1256 N1260 1.427 . S
C1257 H1247 0.929 . S
C1257 C1255 1.433 . S
C1257 N1260 1.384 . S
C1258 H1249 0.929 . S
C1258 C1250 1.378 . S
C1258 C1253 1.350 . S
C1259 H1246 0.929 . S
C1259 C1251 1.433 . S
C1259 N1261 1.384 . S
N1260 C1256 1.427 . S
N1260 C1257 1.384 . S
N1261 C1253 1.427 . S
N1261 C1259 1.384 . S
H1262 C1268 0.930 . S
H1263 C1272 0.930 . S
H1264 C1277 0.929 . S
H1265 C1275 0.929 . S
H1266 C1270 0.929 . S
H1267 C1276 0.929 . S
C1268 H1262 0.930 . S
C1268 C1269 1.367 . S
C1268 C1276 1.378 . S
C1269 C1268 1.367 . S
C1269 C1277 1.433 . S
C1270 H1266 0.929 . S
C1270 C1272 1.378 . S
C1270 C1274 1.350 . S
C1271 C1274 1.463 . S
C1271 C1276 1.350 . S
C1271 N1279 1.427 . S
C1272 H1263 0.930 . S
C1272 C1270 1.378 . S
C1272 C1273 1.367 . S
C1273 C1272 1.367 . S
C1273 C1275 1.433 . S
C1274 C1270 1.350 . S
C1274 C1271 1.463 . S
C1274 N1278 1.427 . S
C1275 H1265 0.929 . S
C1275 C1273 1.433 . S
C1275 N1278 1.384 . S
C1276 H1267 0.929 . S
C1276 C1268 1.378 . S
C1276 C1271 1.350 . S
C1277 H1264 0.929 . S
C1277 C1269 1.433 . S
C1277 N1279 1.384 . S
N1278 C1274 1.427 . S
N1278 C1275 1.384 . S
N1279 C1271 1.427 . S
N1279 C1277 1.384 . S
H1280 C1286 0.930 . S
H1281 C1290 0.930 . S
H1282 C1295 0.929 . S
H1283 C1293 0.929 . S
H1284 C1288 0.929 . S
H1285 C1294 0.929 . S
C1286 H1280 0.930 . S
C1286 C1287 1.367 . S
C1286 C1294 1.378 . S
C1287 C1286 1.367 . S
C1287 C1295 1.433 . S
C1288 H1284 0.929 . S
C1288 C1290 1.378 . S
C1288 C1292 1.350 . S
C1289 C1292 1.463 . S
C1289 C1294 1.350 . S
C1289 N1297 1.427 . S
C1290 H1281 0.930 . S
C1290 C1288 1.378 . S
C1290 C1291 1.367 . S
C1291 C1290 1.367 . S
C1291 C1293 1.433 . S
C1292 C1288 1.350 . S
C1292 C1289 1.463 . S
C1292 N1296 1.427 . S
C1293 H1283 0.929 . S
C1293 C1291 1.433 . S
C1293 N1296 1.384 . S
C1294 H1285 0.929 . S
C1294 C1286 1.378 . S
C1294 C1289 1.350 . S
C1295 H1282 0.929 . S
C1295 C1287 1.433 . S
C1295 N1297 1.384 . S
N1296 C1292 1.427 . S
N1296 C1293 1.384 . S
N1297 C1289 1.427 . S
N1297 C1295 1.384 . S
H1298 C1304 0.930 . S
H1299 C1308 0.930 . S
H1300 C1313 0.929 . S
H1301 C1311 0.929 . S
H1302 C1306 0.929 . S
H1303 C1312 0.929 . S
C1304 H1298 0.930 . S
C1304 C1305 1.367 . S
C1304 C1312 1.378 . S
C1305 C1304 1.367 . S
C1305 C1313 1.433 . S
C1306 H1302 0.929 . S
C1306 C1308 1.378 . S
C1306 C1310 1.350 . S
C1307 C1310 1.463 . S
C1307 C1312 1.350 . S
C1307 N1315 1.427 . S
C1308 H1299 0.930 . S
C1308 C1306 1.378 . S
C1308 C1309 1.367 . S
C1309 C1308 1.367 . S
C1309 C1311 1.433 . S
C1310 C1306 1.350 . S
C1310 C1307 1.463 . S
C1310 N1314 1.427 . S
C1311 H1301 0.929 . S
C1311 C1309 1.433 . S
C1311 N1314 1.384 . S
C1312 H1303 0.929 . S
C1312 C1304 1.378 . S
C1312 C1307 1.350 . S
C1313 H1300 0.929 . S
C1313 C1305 1.433 . S
C1313 N1315 1.384 . S
N1314 C1310 1.427 . S
N1314 C1311 1.384 . S
N1315 C1307 1.427 . S
N1315 C1313 1.384 . S
H1316 C1322 0.930 . S
H1317 C1326 0.930 . S
H1318 C1331 0.929 . S
H1319 C1329 0.929 . S
H1320 C1324 0.929 . S
H1321 C1330 0.929 . S
C1322 H1316 0.930 . S
C1322 C1323 1.367 . S
C1322 C1330 1.378 . S
C1323 C1322 1.367 . S
C1323 C1331 1.433 . S
C1324 H1320 0.929 . S
C1324 C1326 1.378 . S
C1324 C1328 1.350 . S
C1325 C1328 1.463 . S
C1325 C1330 1.350 . S
C1325 N1333 1.427 . S
C1326 H1317 0.930 . S
C1326 C1324 1.378 . S
C1326 C1327 1.367 . S
C1327 C1326 1.367 . S
C1327 C1329 1.433 . S
C1328 C1324 1.350 . S
C1328 C1325 1.463 . S
C1328 N1332 1.427 . S
C1329 H1319 0.929 . S
C1329 C1327 1.433 . S
C1329 N1332 1.384 . S
C1330 H1321 0.929 . S
C1330 C1322 1.378 . S
C1330 C1325 1.350 . S
C1331 H1318 0.929 . S
C1331 C1323 1.433 . S
C1331 N1333 1.384 . S
N1332 C1328 1.427 . S
N1332 C1329 1.384 . S
N1333 C1325 1.427 . S
N1333 C1331 1.384 . S
H1334 C1340 0.930 . S
H1335 C1344 0.930 . S
H1336 C1349 0.929 . S
H1337 C1347 0.929 . S
H1338 C1342 0.929 . S
H1339 C1348 0.929 . S
C1340 H1334 0.930 . S
C1340 C1341 1.367 . S
C1340 C1348 1.378 . S
C1341 C1340 1.367 . S
C1341 C1349 1.433 . S
C1342 H1338 0.929 . S
C1342 C1344 1.378 . S
C1342 C1346 1.350 . S
C1343 C1346 1.463 . S
C1343 C1348 1.350 . S
C1343 N1351 1.427 . S
C1344 H1335 0.930 . S
C1344 C1342 1.378 . S
C1344 C1345 1.367 . S
C1345 C1344 1.367 . S
C1345 C1347 1.433 . S
C1346 C1342 1.350 . S
C1346 C1343 1.463 . S
C1346 N1350 1.427 . S
C1347 H1337 0.929 . S
C1347 C1345 1.433 . S
C1347 N1350 1.384 . S
C1348 H1339 0.929 . S
C1348 C1340 1.378 . S
C1348 C1343 1.350 . S
C1349 H1336 0.929 . S
C1349 C1341 1.433 . S
C1349 N1351 1.384 . S
N1350 C1346 1.427 . S
N1350 C1347 1.384 . S
N1351 C1343 1.427 . S
N1351 C1349 1.384 . S
H1352 C1358 0.930 . S
H1353 C1362 0.930 . S
H1354 C1367 0.929 . S
H1355 C1365 0.929 . S
H1356 C1360 0.929 . S
H1357 C1366 0.929 . S
C1358 H1352 0.930 . S
C1358 C1359 1.367 . S
C1358 C1366 1.378 . S
C1359 C1358 1.367 . S
C1359 C1367 1.433 . S
C1360 H1356 0.929 . S
C1360 C1362 1.378 . S
C1360 C1364 1.350 . S
C1361 C1364 1.463 . S
C1361 C1366 1.350 . S
C1361 N1369 1.427 . S
C1362 H1353 0.930 . S
C1362 C1360 1.378 . S
C1362 C1363 1.367 . S
C1363 C1362 1.367 . S
C1363 C1365 1.433 . S
C1364 C1360 1.350 . S
C1364 C1361 1.463 . S
C1364 N1368 1.427 . S
C1365 H1355 0.929 . S
C1365 C1363 1.433 . S
C1365 N1368 1.384 . S
C1366 H1357 0.929 . S
C1366 C1358 1.378 . S
C1366 C1361 1.350 . S
C1367 H1354 0.929 . S
C1367 C1359 1.433 . S
C1367 N1369 1.384 . S
N1368 C1364 1.427 . S
N1368 C1365 1.384 . S
N1369 C1361 1.427 . S
N1369 C1367 1.384 . S
H1370 C1376 0.930 . S
H1371 C1380 0.930 . S
H1372 C1385 0.929 . S
H1373 C1383 0.929 . S
H1374 C1378 0.929 . S
H1375 C1384 0.929 . S
C1376 H1370 0.930 . S
C1376 C1377 1.367 . S
C1376 C1384 1.378 . S
C1377 C1376 1.367 . S
C1377 C1385 1.433 . S
C1378 H1374 0.929 . S
C1378 C1380 1.378 . S
C1378 C1382 1.350 . S
C1379 C1382 1.463 . S
C1379 C1384 1.350 . S
C1379 N1387 1.427 . S
C1380 H1371 0.930 . S
C1380 C1378 1.378 . S
C1380 C1381 1.367 . S
C1381 C1380 1.367 . S
C1381 C1383 1.433 . S
C1382 C1378 1.350 . S
C1382 C1379 1.463 . S
C1382 N1386 1.427 . S
C1383 H1373 0.929 . S
C1383 C1381 1.433 . S
C1383 N1386 1.384 . S
C1384 H1375 0.929 . S
C1384 C1376 1.378 . S
C1384 C1379 1.350 . S
C1385 H1372 0.929 . S
C1385 C1377 1.433 . S
C1385 N1387 1.384 . S
N1386 C1382 1.427 . S
N1386 C1383 1.384 . S
N1387 C1379 1.427 . S
N1387 C1385 1.384 . S
H1388 C1394 0.930 . S
H1389 C1398 0.930 . S
H1390 C1403 0.929 . S
H1391 C1401 0.929 . S
H1392 C1396 0.929 . S
H1393 C1402 0.929 . S
C1394 H1388 0.930 . S
C1394 C1395 1.367 . S
C1394 C1402 1.378 . S
C1395 C1394 1.367 . S
C1395 C1403 1.433 . S
C1396 H1392 0.929 . S
C1396 C1398 1.378 . S
C1396 C1400 1.350 . S
C1397 C1400 1.463 . S
C1397 C1402 1.350 . S
C1397 N1405 1.427 . S
C1398 H1389 0.930 . S
C1398 C1396 1.378 . S
C1398 C1399 1.367 . S
C1399 C1398 1.367 . S
C1399 C1401 1.433 . S
C1400 C1396 1.350 . S
C1400 C1397 1.463 . S
C1400 N1404 1.427 . S
C1401 H1391 0.929 . S
C1401 C1399 1.433 . S
C1401 N1404 1.384 . S
C1402 H1393 0.929 . S
C1402 C1394 1.378 . S
C1402 C1397 1.350 . S
C1403 H1390 0.929 . S
C1403 C1395 1.433 . S
C1403 N1405 1.384 . S
N1404 C1400 1.427 . S
N1404 C1401 1.384 . S
N1405 C1397 1.427 . S
N1405 C1403 1.384 . S
H1406 C1412 0.930 . S
H1407 C1416 0.930 . S
H1408 C1421 0.929 . S
H1409 C1419 0.929 . S
H1410 C1414 0.929 . S
H1411 C1420 0.929 . S
C1412 H1406 0.930 . S
C1412 C1413 1.367 . S
C1412 C1420 1.378 . S
C1413 C1412 1.367 . S
C1413 C1421 1.433 . S
C1414 H1410 0.929 . S
C1414 C1416 1.378 . S
C1414 C1418 1.350 . S
C1415 C1418 1.463 . S
C1415 C1420 1.350 . S
C1415 N1423 1.427 . S
C1416 H1407 0.930 . S
C1416 C1414 1.378 . S
C1416 C1417 1.367 . S
C1417 C1416 1.367 . S
C1417 C1419 1.433 . S
C1418 C1414 1.350 . S
C1418 C1415 1.463 . S
C1418 N1422 1.427 . S
C1419 H1409 0.929 . S
C1419 C1417 1.433 . S
C1419 N1422 1.384 . S
C1420 H1411 0.929 . S
C1420 C1412 1.378 . S
C1420 C1415 1.350 . S
C1421 H1408 0.929 . S
C1421 C1413 1.433 . S
C1421 N1423 1.384 . S
N1422 C1418 1.427 . S
N1422 C1419 1.384 . S
N1423 C1415 1.427 . S
N1423 C1421 1.384 . S
H1424 C1430 0.930 . S
H1425 C1434 0.930 . S
H1426 C1439 0.929 . S
H1427 C1437 0.929 . S
H1428 C1432 0.929 . S
H1429 C1438 0.929 . S
C1430 H1424 0.930 . S
C1430 C1431 1.367 . S
C1430 C1438 1.378 . S
C1431 C1430 1.367 . S
C1431 C1439 1.433 . S
C1432 H1428 0.929 . S
C1432 C1434 1.378 . S
C1432 C1436 1.350 . S
C1433 C1436 1.463 . S
C1433 C1438 1.350 . S
C1433 N1441 1.427 . S
C1434 H1425 0.930 . S
C1434 C1432 1.378 . S
C1434 C1435 1.367 . S
C1435 C1434 1.367 . S
C1435 C1437 1.433 . S
C1436 C1432 1.350 . S
C1436 C1433 1.463 . S
C1436 N1440 1.427 . S
C1437 H1427 0.929 . S
C1437 C1435 1.433 . S
C1437 N1440 1.384 . S
C1438 H1429 0.929 . S
C1438 C1430 1.378 . S
C1438 C1433 1.350 . S
C1439 H1426 0.929 . S
C1439 C1431 1.433 . S
C1439 N1441 1.384 . S
N1440 C1436 1.427 . S
N1440 C1437 1.384 . S
N1441 C1433 1.427 . S
N1441 C1439 1.384 . S
H1442 C1448 0.930 . S
H1443 C1452 0.930 . S
H1444 C1457 0.929 . S
H1445 C1455 0.929 . S
H1446 C1450 0.929 . S
H1447 C1456 0.929 . S
C1448 H1442 0.930 . S
C1448 C1449 1.367 . S
C1448 C1456 1.378 . S
C1449 C1448 1.367 . S
C1449 C1457 1.433 . S
C1450 H1446 0.929 . S
C1450 C1452 1.378 . S
C1450 C1454 1.350 . S
C1451 C1454 1.463 . S
C1451 C1456 1.350 . S
C1451 N1459 1.427 . S
C1452 H1443 0.930 . S
C1452 C1450 1.378 . S
C1452 C1453 1.367 . S
C1453 C1452 1.367 . S
C1453 C1455 1.433 . S
C1454 C1450 1.350 . S
C1454 C1451 1.463 . S
C1454 N1458 1.427 . S
C1455 H1445 0.929 . S
C1455 C1453 1.433 . S
C1455 N1458 1.384 . S
C1456 H1447 0.929 . S
C1456 C1448 1.378 . S
C1456 C1451 1.350 . S
C1457 H1444 0.929 . S
C1457 C1449 1.433 . S
C1457 N1459 1.384 . S
N1458 C1454 1.427 . S
N1458 C1455 1.384 . S
N1459 C1451 1.427 . S
N1459 C1457 1.384 . S
H1460 C1466 0.930 . S
H1461 C1470 0.930 . S
H1462 C1475 0.929 . S
H1463 C1473 0.929 . S
H1464 C1468 0.929 . S
H1465 C1474 0.929 . S
C1466 H1460 0.930 . S
C1466 C1467 1.367 . S
C1466 C1474 1.378 . S
C1467 C1466 1.367 . S
C1467 C1475 1.433 . S
C1468 H1464 0.929 . S
C1468 C1470 1.378 . S
C1468 C1472 1.350 . S
C1469 C1472 1.463 . S
C1469 C1474 1.350 . S
C1469 N1477 1.427 . S
C1470 H1461 0.930 . S
C1470 C1468 1.378 . S
C1470 C1471 1.367 . S
C1471 C1470 1.367 . S
C1471 C1473 1.433 . S
C1472 C1468 1.350 . S
C1472 C1469 1.463 . S
C1472 N1476 1.427 . S
C1473 H1463 0.929 . S
C1473 C1471 1.433 . S
C1473 N1476 1.384 . S
C1474 H1465 0.929 . S
C1474 C1466 1.378 . S
C1474 C1469 1.350 . S
C1475 H1462 0.929 . S
C1475 C1467 1.433 . S
C1475 N1477 1.384 . S
N1476 C1472 1.427 . S
N1476 C1473 1.384 . S
N1477 C1469 1.427 . S
N1477 C1475 1.384 . S
H1478 C1484 0.930 . S
H1479 C1488 0.930 . S
H1480 C1493 0.929 . S
H1481 C1491 0.929 . S
H1482 C1486 0.929 . S
H1483 C1492 0.929 . S
C1484 H1478 0.930 . S
C1484 C1485 1.367 . S
C1484 C1492 1.378 . S
C1485 C1484 1.367 . S
C1485 C1493 1.433 . S
C1486 H1482 0.929 . S
C1486 C1488 1.378 . S
C1486 C1490 1.350 . S
C1487 C1490 1.463 . S
C1487 C1492 1.350 . S
C1487 N1495 1.427 . S
C1488 H1479 0.930 . S
C1488 C1486 1.378 . S
C1488 C1489 1.367 . S
C1489 C1488 1.367 . S
C1489 C1491 1.433 . S
C1490 C1486 1.350 . S
C1490 C1487 1.463 . S
C1490 N1494 1.427 . S
C1491 H1481 0.929 . S
C1491 C1489 1.433 . S
C1491 N1494 1.384 . S
C1492 H1483 0.929 . S
C1492 C1484 1.378 . S
C1492 C1487 1.350 . S
C1493 H1480 0.929 . S
C1493 C1485 1.433 . S
C1493 N1495 1.384 . S
N1494 C1490 1.427 . S
N1494 C1491 1.384 . S
N1495 C1487 1.427 . S
N1495 C1493 1.384 . S
H1496 C1502 0.930 . S
H1497 C1506 0.930 . S
H1498 C1511 0.929 . S
H1499 C1509 0.929 . S
H1500 C1504 0.929 . S
H1501 C1510 0.929 . S
C1502 H1496 0.930 . S
C1502 C1503 1.367 . S
C1502 C1510 1.378 . S
C1503 C1502 1.367 . S
C1503 C1511 1.433 . S
C1504 H1500 0.929 . S
C1504 C1506 1.378 . S
C1504 C1508 1.350 . S
C1505 C1508 1.463 . S
C1505 C1510 1.350 . S
C1505 N1513 1.427 . S
C1506 H1497 0.930 . S
C1506 C1504 1.378 . S
C1506 C1507 1.367 . S
C1507 C1506 1.367 . S
C1507 C1509 1.433 . S
C1508 C1504 1.350 . S
C1508 C1505 1.463 . S
C1508 N1512 1.427 . S
C1509 H1499 0.929 . S
C1509 C1507 1.433 . S
C1509 N1512 1.384 . S
C1510 H1501 0.929 . S
C1510 C1502 1.378 . S
C1510 C1505 1.350 . S
C1511 H1498 0.929 . S
C1511 C1503 1.433 . S
C1511 N1513 1.384 . S
N1512 C1508 1.427 . S
N1512 C1509 1.384 . S
N1513 C1505 1.427 . S
N1513 C1511 1.384 . S
H1514 C1520 0.930 . S
H1515 C1524 0.930 . S
H1516 C1529 0.929 . S
H1517 C1527 0.929 . S
H1518 C1522 0.929 . S
H1519 C1528 0.929 . S
C1520 H1514 0.930 . S
C1520 C1521 1.367 . S
C1520 C1528 1.378 . S
C1521 C1520 1.367 . S
C1521 C1529 1.433 . S
C1522 H1518 0.929 . S
C1522 C1524 1.378 . S
C1522 C1526 1.350 . S
C1523 C1526 1.463 . S
C1523 C1528 1.350 . S
C1523 N1531 1.427 . S
C1524 H1515 0.930 . S
C1524 C1522 1.378 . S
C1524 C1525 1.367 . S
C1525 C1524 1.367 . S
C1525 C1527 1.433 . S
C1526 C1522 1.350 . S
C1526 C1523 1.463 . S
C1526 N1530 1.427 . S
C1527 H1517 0.929 . S
C1527 C1525 1.433 . S
C1527 N1530 1.384 . S
C1528 H1519 0.929 . S
C1528 C1520 1.378 . S
C1528 C1523 1.350 . S
C1529 H1516 0.929 . S
C1529 C1521 1.433 . S
C1529 N1531 1.384 . S
N1530 C1526 1.427 . S
N1530 C1527 1.384 . S
N1531 C1523 1.427 . S
N1531 C1529 1.384 . S
H1532 C1538 0.930 . S
H1533 C1542 0.930 . S
H1534 C1547 0.929 . S
H1535 C1545 0.929 . S
H1536 C1540 0.929 . S
H1537 C1546 0.929 . S
C1538 H1532 0.930 . S
C1538 C1539 1.367 . S
C1538 C1546 1.378 . S
C1539 C1538 1.367 . S
C1539 C1547 1.433 . S
C1540 H1536 0.929 . S
C1540 C1542 1.378 . S
C1540 C1544 1.350 . S
C1541 C1544 1.463 . S
C1541 C1546 1.350 . S
C1541 N1549 1.427 . S
C1542 H1533 0.930 . S
C1542 C1540 1.378 . S
C1542 C1543 1.367 . S
C1543 C1542 1.367 . S
C1543 C1545 1.433 . S
C1544 C1540 1.350 . S
C1544 C1541 1.463 . S
C1544 N1548 1.427 . S
C1545 H1535 0.929 . S
C1545 C1543 1.433 . S
C1545 N1548 1.384 . S
C1546 H1537 0.929 . S
C1546 C1538 1.378 . S
C1546 C1541 1.350 . S
C1547 H1534 0.929 . S
C1547 C1539 1.433 . S
C1547 N1549 1.384 . S
N1548 C1544 1.427 . S
N1548 C1545 1.384 . S
N1549 C1541 1.427 . S
N1549 C1547 1.384 . S
H1550 C1556 0.930 . S
H1551 C1560 0.930 . S
H1552 C1565 0.929 . S
H1553 C1563 0.929 . S
H1554 C1558 0.929 . S
H1555 C1564 0.929 . S
C1556 H1550 0.930 . S
C1556 C1557 1.367 . S
C1556 C1564 1.378 . S
C1557 C1556 1.367 . S
C1557 C1565 1.433 . S
C1558 H1554 0.929 . S
C1558 C1560 1.378 . S
C1558 C1562 1.350 . S
C1559 C1562 1.463 . S
C1559 C1564 1.350 . S
C1559 N1567 1.427 . S
C1560 H1551 0.930 . S
C1560 C1558 1.378 . S
C1560 C1561 1.367 . S
C1561 C1560 1.367 . S
C1561 C1563 1.433 . S
C1562 C1558 1.350 . S
C1562 C1559 1.463 . S
C1562 N1566 1.427 . S
C1563 H1553 0.929 . S
C1563 C1561 1.433 . S
C1563 N1566 1.384 . S
C1564 H1555 0.929 . S
C1564 C1556 1.378 . S
C1564 C1559 1.350 . S
C1565 H1552 0.929 . S
C1565 C1557 1.433 . S
C1565 N1567 1.384 . S
N1566 C1562 1.427 . S
N1566 C1563 1.384 . S
N1567 C1559 1.427 . S
N1567 C1565 1.384 . S
C423 C10 1.476 . S
C427 C56 1.475 . S
C441 C23 1.475 . S
C445 C75 1.479 . S
C459 C82 1.485 . S
C463 C30 1.484 . S
C477 C101 1.479 . S
C481 C49 1.484 . S
C495 C108 1.475 . S
C499 C166 1.477 . S
C513 C121 1.481 . S
C517 C173 1.476 . S
C531 C186 1.475 . S
C535 C140 1.479 . S
C549 C147 1.479 . S
C553 C205 1.475 . S
C567 C264 1.480 . S
C571 C212 1.475 . S
C585 C283 1.484 . S
C589 C231 1.480 . S
C603 C238 1.475 . S
C607 C290 1.477 . S
C621 C309 1.477 . S
C625 C251 1.482 . S
C639 C322 1.475 . S
C643 C374 1.478 . S
C657 C381 1.485 . S
C661 C335 1.484 . S
C675 C400 1.475 . S
C679 C348 1.476 . S
C693 C355 1.481 . S
C697 C407 1.485 . S
C711 C3 1.671 . S
C715 C361 1.673 . S
C729 C114 1.667 . S
C733 C16 1.673 . S
C747 C31 1.673 . S
C751 C329 1.673 . S
C765 C42 1.672 . S
C769 C134 1.673 . S
C783 C387 1.673 . S
C787 C57 1.672 . S
C801 C192 1.672 . S
C805 C68 1.670 . S
C819 C83 1.673 . S
C823 C413 1.673 . S
C837 C94 1.673 . S
C841 C160 1.667 . S
C855 C257 1.667 . S
C859 C109 1.673 . S
C873 C122 1.675 . S
C877 C4 1.669 . S
C891 C225 1.669 . S
C895 C133 1.675 . S
C909 C148 1.672 . S
C913 C36 1.667 . S
C927 C277 1.673 . S
C931 C159 1.674 . S
C945 C174 1.675 . S
C949 C88 1.669 . S
C963 C303 1.667 . S
C967 C187 1.672 . S
C981 C198 1.672 . S
C985 C62 1.673 . S
C999 C153 1.672 . S
C1003 C213 1.674 . S
C1017 C316 1.669 . S
C1021 C224 1.675 . S
C1035 C127 1.672 . S
C1039 C239 1.674 . S
C1053 C252 1.672 . S
C1057 C342 1.667 . S
C1071 C179 1.671 . S
C1075 C265 1.675 . S
C1089 C394 1.667 . S
C1093 C276 1.672 . S
C1107 C199 1.667 . S
C1111 C291 1.672 . S
C1125 C302 1.674 . S
C1129 C368 1.672 . S
C1143 C315 1.674 . S
C1147 C43 1.673 . S
C1161 C328 1.670 . S
C1165 C218 1.672 . S
C1179 C341 1.675 . S
C1183 C17 1.671 . S
C1197 C356 1.675 . S
C1201 C244 1.671 . S
C1215 C367 1.674 . S
C1219 C69 1.667 . S
C1233 C296 1.669 . S
C1237 C382 1.675 . S
C1251 C95 1.672 . S
C1255 C393 1.674 . S
C1269 C408 1.670 . S
C1273 C270 1.672 . S
C1287 C5 1.087 . S
C1291 C96 1.094 . S
C1305 C18 1.087 . S
C1309 C55 1.093 1_556 S
C1323 C29 1.099 1_554 S
C1327 C70 1.085 . S
C1341 C81 1.098 . S
C1345 C44 1.084 . S
C1359 C200 1.085 . S
C1363 C107 1.097 . S
C1377 C161 1.098 1_554 S
C1381 C120 1.084 . S
C1395 C172 1.085 . S
C1399 C135 1.099 1_556 S
C1413 C185 1.095 . S
C1417 C146 1.086 . S
C1431 C211 1.099 1_554 S
C1435 C304 1.085 . S
C1449 C263 1.085 . S
C1453 C226 1.099 . S
C1467 C278 1.087 . S
C1471 C237 1.093 . S
C1485 C289 1.099 1_556 S
C1489 C250 1.085 . S
C1503 C406 1.085 . S
C1507 C317 1.099 1_556 S
C1521 C330 1.085 . S
C1525 C369 1.098 . S
C1539 C343 1.096 . S
C1543 C380 1.085 . S
C1557 C354 1.085 . S
C1561 C395 1.096 1_554 S
