# Generated by pormake.
# Topology ilc, (8)-cn, num edge types: 1
# Building blocks:
#     Node 0, Type 0, BuildingBlock: NUHRAL_clean_sbu_3, # of connection points: 8
#     Node 1, Type 0, BuildingBlock: NUHRAL_clean_sbu_3, # of connection points: 8
#     Node 2, Type 0, BuildingBlock: NUHRAL_clean_sbu_3, # of connection points: 8
#     Edge 3, Type (0, 0), BuildingBlock: UVAHIK_clean_linker_0, # of connection points: 2
#     Edge 4, Type (0, 0), BuildingBlock: UVAHIK_clean_linker_0, # of connection points: 2
#     Edge 5, Type (0, 0), BuildingBlock: UVAHIK_clean_linker_0, # of connection points: 2
#     Edge 6, Type (0, 0), BuildingBlock: UVAHIK_clean_linker_0, # of connection points: 2
#     Edge 7, Type (0, 0), BuildingBlock: UVAHIK_clean_linker_0, # of connection points: 2
#     Edge 8, Type (0, 0), BuildingBlock: UVAHIK_clean_linker_0, # of connection points: 2
#     Edge 9, Type (0, 0), BuildingBlock: UVAHIK_clean_linker_0, # of connection points: 2
#     Edge 10, Type (0, 0), BuildingBlock: UVAHIK_clean_linker_0, # of connection points: 2
#     Edge 11, Type (0, 0), BuildingBlock: UVAHIK_clean_linker_0, # of connection points: 2
#     Edge 12, Type (0, 0), BuildingBlock: UVAHIK_clean_linker_0, # of connection points: 2
#     Edge 13, Type (0, 0), BuildingBlock: UVAHIK_clean_linker_0, # of connection points: 2
#     Edge 14, Type (0, 0), BuildingBlock: UVAHIK_clean_linker_0, # of connection points: 2
# Relax obj value: 0.143
# Max RMSD: 0.201
# Mean RMSD: 0.201
data_MOF--net-ilc--node1-NUHRAL_clean_sbu_3--edge1-UVAHIK_clean_linker_0
_symmetry_space_group_name_H-M    P1
_symmetry_Int_Tables_number       1
_symmetry_cell_setting            triclinic
loop_
_symmetry_equiv_pos_as_xyz
'x, y, z'
_cell_length_a     27.494007
_cell_length_b     38.318552
_cell_length_c     23.901
_cell_angle_alpha  100.79771
_cell_angle_beta   76.661099
_cell_angle_gamma 140.83131
loop_
_atom_site_label
_atom_site_type_symbol
_atom_site_fract_x
_atom_site_fract_y
_atom_site_fract_z
_atom_type_partial_charge
C0 C 0.08181 0.97472 0.1508 0.0
C1 C 1.01652 0.95323 0.18934 0.0
C2 C 0.98097 0.91469 0.23059 0.0
C3 C 1.01168 0.89844 0.23322 0.0
C4 C 0.0781 0.92086 0.19653 0.0
C5 C 0.11336 0.95923 0.15523 0.0
O6 O 1.00714 0.02849 0.05451 0.0
Tb7 Tb 0.11883 0.07213 0.07312 0.0
O8 O 0.13464 0.12606 0.14009 0.0
O9 O 0.90884 0.94434 0.01418 0.0
Eu10 Eu 0.97179 0.98076 0.9251 0.0
O11 O 0.16884 0.06489 0.11667 0.0
C12 C 0.94511 0.02547 0.8939 0.0
O13 O 0.06791 0.99435 0.07192 0.0
O14 O 0.08169 0.03712 0.96244 0.0
O15 O 0.19439 0.11235 0.99185 0.0
C16 C 0.11635 1.01173 0.10433 0.0
C17 C 0.93824 0.88303 0.87771 0.0
O18 O 0.95899 0.89171 0.92756 0.0
C19 C 0.94193 0.97488 0.06047 0.0
C20 C 0.1551 0.08418 0.94807 0.0
O21 O 0.93761 0.91422 0.86363 0.0
C22 C 0.90312 1.0125 0.85001 0.0
C23 C 0.86646 0.0368 0.7974 0.0
C24 C 0.90765 0.04982 0.83901 0.0
C25 C 0.8583 0.96247 0.81884 0.0
C26 C 0.81756 0.94929 0.77695 0.0
C27 C 0.82152 0.98644 0.7671 0.0
C28 C 0.17569 0.17564 0.12637 0.0
O29 O 0.20796 0.19153 0.07281 0.0
O30 O 0.90084 0.98912 0.93526 0.0
O31 O 1.00954 0.04209 0.87474 0.0
H32 H 0.99374 0.96647 0.18732 0.0
H33 H 0.98664 0.87069 0.26678 0.0
H34 H 0.16477 0.97667 0.1265 0.0
H35 H 0.94296 0.08866 0.86266 0.0
H36 H 0.85639 0.93437 0.82646 0.0
H37 H 0.79366 0.97788 0.73257 0.0
C38 C 0.81782 0.35817 0.49162 0.0
C39 C 0.7946 0.36758 0.54493 0.0
C40 C 0.79849 0.35766 0.59649 0.0
C41 C 0.83262 0.34294 0.59345 0.0
C42 C 0.85846 0.33525 0.54064 0.0
C43 C 0.84967 0.34183 0.48943 0.0
O44 O 0.66292 0.34683 0.37944 0.0
Tb45 Tb 0.77248 0.40275 0.41286 0.0
O46 O 0.7843 0.45417 0.48132 0.0
O47 O 0.56386 0.26362 0.34187 0.0
Eu48 Eu 0.63213 0.30739 0.25721 0.0
O49 O 0.85657 0.41139 0.4175 0.0
C50 C 0.60428 0.35416 0.23523 0.0
O51 O 0.73195 0.33356 0.43869 0.0
O52 O 0.74532 0.36147 0.28952 0.0
O53 O 0.8386 0.44474 0.3303 0.0
C54 C 0.80329 0.36156 0.43866 0.0
C55 C 0.61443 0.21972 0.19695 0.0
O56 O 0.64917 0.23476 0.24084 0.0
C57 C 0.59795 0.29344 0.3877 0.0
C58 C 0.80794 0.41511 0.28333 0.0
O59 O 0.59788 0.24305 0.19124 0.0
C60 C 0.55493 0.33843 0.19668 0.0
C61 C 0.50972 0.35825 0.14806 0.0
C62 C 0.55512 0.37371 0.18746 0.0
C63 C 0.51004 0.28816 0.1664 0.0
C64 C 0.46874 0.27391 0.12427 0.0
C65 C 0.46669 0.30833 0.11709 0.0
C66 C 0.7761 0.48195 0.47157 0.0
O67 O 0.75947 0.47664 0.42105 0.0
O68 O 0.56577 0.32027 0.27813 0.0
O69 O 0.6655 0.36824 0.20976 0.0
H70 H 0.77002 0.38002 0.54579 0.0
H71 H 0.83355 0.33259 0.63205 0.0
H72 H 0.86572 0.33308 0.44842 0.0
H73 H 0.59094 0.41306 0.21015 0.0
H74 H 0.51161 0.26185 0.17315 0.0
H75 H 0.43776 0.29931 0.08319 0.0
C76 C 0.50604 0.7006 0.81537 0.0
C77 C 0.55117 0.75087 0.84611 0.0
C78 C 0.59433 0.76528 0.88668 0.0
C79 C 0.59322 0.72936 0.89508 0.0
C80 C 0.54775 0.67871 0.86543 0.0
C81 C 0.50366 0.66424 0.82554 0.0
O82 O 0.32772 0.67371 0.70682 0.0
Tb83 Tb 0.43451 0.72873 0.74277 0.0
O84 O 0.46507 0.79194 0.80262 0.0
O85 O 0.21404 0.59626 0.67914 0.0
Eu86 Eu 0.28902 0.63565 0.59349 0.0
O87 O 0.50492 0.72232 0.73066 0.0
C88 C 0.29167 0.6982 0.56087 0.0
O89 O 0.39802 0.67028 0.79263 0.0
O90 O 0.40383 0.68221 0.61644 0.0
O91 O 0.49805 0.76641 0.65802 0.0
C92 C 0.46204 0.68652 0.77242 0.0
C93 C 0.22731 0.52871 0.53737 0.0
O94 O 0.19221 0.51212 0.59038 0.0
C95 C 0.25497 0.62595 0.72203 0.0
C96 C 0.46768 0.73598 0.61107 0.0
O97 O 0.27212 0.5794 0.52417 0.0
C98 C 0.32218 0.73269 0.51302 0.0
C99 C 0.31895 0.7816 0.46523 0.0
C100 C 0.28677 0.74501 0.5076 0.0
C101 C 0.3882 0.7555 0.4744 0.0
C102 C 0.42059 0.79222 0.43212 0.0
C103 C 0.386 0.80528 0.42838 0.0
C104 C 0.44749 0.8141 0.7947 0.0
O105 O 0.41231 0.79744 0.75039 0.0
O106 O 0.23559 0.64435 0.55248 0.0
O107 O 0.34342 0.71651 0.58989 0.0
H108 H 0.55133 0.77815 0.83927 0.0
H109 H 0.6232 0.73877 0.92835 0.0
H110 H 0.46776 0.625 0.80261 0.0
H111 H 0.23511 0.72682 0.5366 0.0
H112 H 0.41433 0.74497 0.47737 0.0
H113 H 0.40899 0.83186 0.39424 0.0
C114 C 0.71294 0.87283 0.71602 0.0
C115 C 0.78143 0.9022 0.73631 0.0
C116 C 0.69628 0.84608 0.66253 0.0
C117 C 0.75346 0.87088 0.53578 0.0
H118 H 0.79521 0.79742 0.45379 0.0
C119 C 0.92929 0.93438 0.31179 0.0
C120 C 0.91805 0.89555 0.2763 0.0
C121 C 0.88417 0.91888 0.36555 0.0
C122 C 0.78171 0.81702 0.47577 0.0
H123 H 0.87797 0.91794 0.72195 0.0
H124 H 0.84783 0.8702 0.62938 0.0
H125 H 0.75943 0.78903 0.55804 0.0
H126 H 0.84519 0.80902 0.2655 0.0
H127 H 0.76539 0.78163 0.35898 0.0
H128 H 0.78095 0.90218 0.45467 0.0
C129 C 0.80788 0.86871 0.65402 0.0
C130 C 0.76151 0.81228 0.5355 0.0
C131 C 0.82514 0.89607 0.70724 0.0
C132 C 0.85557 0.83986 0.29262 0.0
C133 C 0.81065 0.82436 0.34638 0.0
C134 C 0.77444 0.87612 0.47633 0.0
C135 C 0.74702 0.84747 0.62932 0.0
C136 C 0.74925 0.84041 0.56617 0.0
C137 C 0.8269 0.86421 0.38457 0.0
C138 C 0.79097 0.85057 0.44575 0.0
H139 H 0.67711 0.87574 0.73843 0.0
H140 H 0.64838 0.82922 0.64465 0.0
H141 H 0.74598 0.89403 0.55842 0.0
H142 H 0.97732 0.9776 0.30034 0.0
H143 H 0.89852 0.95079 0.39377 0.0
C144 C 0.68519 0.3324 0.65343 0.0
C145 C 0.75527 0.35247 0.65221 0.0
C146 C 0.63306 0.31168 0.70415 0.0
C147 C 0.57216 0.23332 0.82258 0.0
H148 H 0.46003 0.25786 0.89904 0.0
C149 C 0.49644 0.23153 0.05656 0.0
C150 C 0.44553 0.23263 0.07855 0.0
C151 C 0.49916 0.21585 0.99967 0.0
C152 C 0.48854 0.24882 0.87712 0.0
H153 H 0.83116 0.37624 0.70664 0.0
H154 H 0.7362 0.3343 0.79297 0.0
H155 H 0.54855 0.30671 0.81069 0.0
H156 H 0.34383 0.20393 0.06333 0.0
H157 H 0.35019 0.17765 0.96313 0.0
H158 H 0.51446 0.1769 0.88973 0.0
C159 C 0.72176 0.33421 0.75438 0.0
C160 C 0.54023 0.27762 0.82703 0.0
C161 C 0.77575 0.35774 0.70467 0.0
C162 C 0.38654 0.20639 0.04658 0.0
C163 C 0.38987 0.19116 0.98926 0.0
C164 C 0.51992 0.20406 0.8722 0.0
C165 C 0.64811 0.30786 0.75331 0.0
C166 C 0.5855 0.27231 0.80134 0.0
C167 C 0.45142 0.20141 0.96393 0.0
C168 C 0.48108 0.21401 0.90193 0.0
H169 H 0.66715 0.32833 0.61466 0.0
H170 H 0.57853 0.29481 0.7038 0.0
H171 H 0.60456 0.22711 0.80207 0.0
H172 H 0.54195 0.25019 0.07984 0.0
H173 H 0.54649 0.2232 0.98205 0.0
C174 C 0.58458 0.81709 0.95709 0.0
C175 C 0.62937 0.81189 0.92793 0.0
C176 C 0.601 0.84404 0.0105 0.0
C177 C 0.65671 0.84314 0.12907 0.0
H178 H 0.60905 0.91299 0.21072 0.0
C179 C 0.54582 0.86889 0.37127 0.0
C180 C 0.48503 0.81314 0.38707 0.0
C181 C 0.59242 0.88567 0.31813 0.0
C182 C 0.62421 0.89442 0.18889 0.0
H183 H 0.7348 0.83975 0.92603 0.0
H184 H 0.76186 0.88535 0.02028 0.0
H185 H 0.64625 0.92233 0.10667 0.0
H186 H 0.43025 0.73242 0.36286 0.0
H187 H 0.51137 0.76132 0.27025 0.0
H188 H 0.62914 0.81168 0.21007 0.0
C189 C 0.71374 0.86805 1.00226 0.0
C190 C 0.64522 0.8997 0.12923 0.0
C191 C 0.69798 0.84177 0.94851 0.0
C192 C 0.47697 0.77567 0.35174 0.0
C193 C 0.52349 0.79239 0.29848 0.0
C194 C 0.63482 0.8373 0.18845 0.0
C195 C 0.6621 0.86581 0.03541 0.0
C196 C 0.65948 0.87277 0.09862 0.0
C197 C 0.57915 0.847 0.27988 0.0
C198 C 0.61616 0.86152 0.21893 0.0
H199 H 0.53161 0.79486 0.94228 0.0
H200 H 0.56032 0.84187 0.03506 0.0
H201 H 0.66582 0.82094 0.10651 0.0
H202 H 0.55363 0.89867 0.39831 0.0
H203 H 0.6364 0.92837 0.30594 0.0
C204 C 0.20735 0.75078 0.43828 0.0
C205 C 0.28181 0.79344 0.45504 0.0
C206 C 0.1812 0.76323 0.41275 0.0
C207 C 0.22443 0.87766 0.38259 0.0
H208 H 0.13871 0.79459 0.24165 0.0
C209 C 0.18696 0.94831 0.22327 0.0
C210 C 0.11247 0.90683 0.20672 0.0
C211 C 0.21071 0.93429 0.24928 0.0
C212 C 0.16226 0.818 0.28101 0.0
H213 H 0.38483 0.8821 0.46275 0.0
H214 H 0.33943 0.90399 0.41878 0.0
H215 H 0.16488 0.76816 0.30396 0.0
H216 H 1.00701 0.81849 0.19965 0.0
H217 H 0.04851 0.79389 0.24437 0.0
H218 H 0.22217 0.92766 0.3595 0.0
C219 C 0.30089 0.86099 0.42512 0.0
C220 C 0.17663 0.80258 0.317 0.0
C221 C 0.32698 0.84854 0.45035 0.0
C222 C 0.06488 0.85117 0.21193 0.0
C223 C 0.08867 0.83715 0.23761 0.0
C224 C 0.21022 0.89314 0.34657 0.0
C225 C 0.22907 0.81854 0.40388 0.0
C226 C 0.2081 0.83234 0.36815 0.0
C227 C 0.16046 0.87857 0.25881 0.0
C228 C 0.17924 0.86362 0.29525 0.0
H229 H 0.17184 0.70799 0.44101 0.0
H230 H 0.12497 0.72961 0.39774 0.0
H231 H 0.24795 0.90111 0.42194 0.0
H232 H 0.22435 0.9915 0.22015 0.0
H233 H 0.26698 0.96709 0.26425 0.0
C234 C 0.25856 0.50952 0.43797 0.0
C235 C 0.21904 0.49156 0.49421 0.0
C236 C 0.25297 0.47504 0.3981 0.0
C237 C 0.1335 0.32847 0.36891 0.0
H238 H 0.31945 0.39276 0.2679 0.0
C239 C 0.14523 0.19467 0.22631 0.0
C240 C 0.18271 0.2122 0.16957 0.0
C241 C 0.14999 0.22872 0.26634 0.0
C242 C 0.26682 0.37423 0.29543 0.0
H243 H 0.14198 0.42303 0.55245 0.0
H244 H 0.13262 0.36316 0.48326 0.0
H245 H 0.32574 0.45177 0.33607 0.0
H246 H 0.25484 0.27939 0.11049 0.0
H247 H 0.26336 0.33868 0.18019 0.0
H248 H 0.07475 0.25085 0.32837 0.0
C249 C 0.16731 0.40362 0.4696 0.0
C250 C 0.27036 0.40809 0.33446 0.0
C251 C 0.17295 0.43809 0.50942 0.0
C252 C 0.22555 0.26468 0.15391 0.0
C253 C 0.23074 0.29882 0.19397 0.0
C254 C 0.13003 0.29458 0.32998 0.0
C255 C 0.20774 0.42178 0.41352 0.0
C256 C 0.20372 0.38568 0.37165 0.0
C257 C 0.19263 0.28115 0.25058 0.0
C258 C 0.19662 0.31706 0.2927 0.0
H259 H 0.29436 0.5504 0.42478 0.0
H260 H 0.28389 0.49007 0.35504 0.0
H261 H 0.08077 0.30988 0.39628 0.0
H262 H 0.1117 0.15447 0.23978 0.0
H263 H 0.1207 0.21413 0.30978 0.0
C264 C 0.57283 0.81836 0.54686 0.0
C265 C 0.50853 0.7608 0.55325 0.0
C266 C 0.61655 0.84153 0.49283 0.0
C267 C 0.659 0.80364 0.35073 0.0
H268 H 0.77496 0.94763 0.3081 0.0
C269 C 0.83517 0.89321 0.12492 0.0
C270 C 0.89975 0.95073 0.11839 0.0
C271 C 0.78977 0.87019 0.17849 0.0
C272 C 0.7445 0.90788 0.31964 0.0
H273 H 0.43716 0.68233 0.50736 0.0
H274 H 0.51222 0.72242 0.41343 0.0
H275 H 0.68761 0.9075 0.39782 0.0
H276 H 0.9695 0.02936 0.1636 0.0
H277 H 0.89153 0.98948 0.2571 0.0
H278 H 0.7156 0.80384 0.27272 0.0
C279 C 0.53066 0.75001 0.45014 0.0
C280 C 0.69364 0.88455 0.37133 0.0
C281 C 0.48689 0.7269 0.50409 0.0
C282 C 0.91974 0.9848 0.16708 0.0
C283 C 0.87422 0.96179 0.2207 0.0
C284 C 0.7097 0.8269 0.29907 0.0
C285 C 0.59771 0.80766 0.44393 0.0
C286 C 0.64996 0.83201 0.3877 0.0
C287 C 0.8071 0.90411 0.22694 0.0
C288 C 0.75378 0.87958 0.28279 0.0
H289 H 0.59094 0.84563 0.58389 0.0
H290 H 0.66761 0.88604 0.49031 0.0
H291 H 0.62871 0.76394 0.36228 0.0
H292 H 0.81824 0.86581 0.08824 0.0
H293 H 0.73875 0.82568 0.18085 0.0
C294 C 0.95021 0.3433 0.56489 0.0
C295 C 0.88216 0.31165 0.542 0.0
C296 C 0.95912 0.31736 0.58696 0.0
C297 C 0.83682 0.197 0.66771 0.0
H298 H 1.00347 0.21885 0.64178 0.0
C299 C 0.80703 0.05643 0.77007 0.0
C300 C 0.87335 0.07622 0.78114 0.0
C301 C 0.81386 0.08971 0.74346 0.0
C302 C 0.95717 0.21309 0.65045 0.0
H303 H 0.77259 0.22891 0.52086 0.0
H304 H 0.78787 0.18346 0.55976 0.0
H305 H 1.00852 0.26743 0.58229 0.0
H306 H 0.99866 0.14789 0.77652 0.0
H307 H 1.01062 0.2073 0.73227 0.0
H308 H 0.7865 0.14481 0.73697 0.0
C309 C 0.83454 0.22819 0.56002 0.0
C310 C 0.95983 0.24047 0.61587 0.0
C311 C 0.82622 0.25414 0.53716 0.0
C312 C 0.94644 0.13153 0.76872 0.0
C313 C 0.95332 0.16523 0.74243 0.0
C314 C 0.83487 0.17063 0.70292 0.0
C315 C 0.89942 0.25947 0.58736 0.0
C316 C 0.89878 0.23166 0.62353 0.0
C317 C 0.88723 0.14421 0.72793 0.0
C318 C 0.89411 0.17727 0.69413 0.0
H319 H 0.99328 0.38766 0.5701 0.0
H320 H 1.00931 0.34222 0.60821 0.0
H321 H 0.78999 0.19069 0.67538 0.0
H322 H 0.74978 0.01411 0.77963 0.0
H323 H 0.7615 0.07149 0.73268 0.0
C324 C 0.78073 0.55046 0.50403 0.0
C325 C 0.78797 0.5201 0.51569 0.0
C326 C 0.79386 0.58763 0.54477 0.0
C327 C 0.89282 0.67075 0.67258 0.0
H328 H 0.76171 0.6826 0.69485 0.0
C329 C 0.92109 0.80775 0.85221 0.0
C330 C 0.91715 0.83939 0.83782 0.0
C331 C 0.90282 0.76731 0.81422 0.0
C332 C 0.79934 0.68019 0.68874 0.0
H333 H 0.81392 0.50461 0.57972 0.0
H334 H 0.83628 0.56927 0.65112 0.0
H335 H 0.73401 0.6144 0.62677 0.0
H336 H 0.88993 0.85282 0.77243 0.0
H337 H 0.85861 0.78251 0.70594 0.0
H338 H 0.95838 0.73673 0.73431 0.0
C339 C 0.8213 0.56476 0.6101 0.0
C340 C 0.78344 0.64107 0.64973 0.0
C341 C 0.80805 0.52746 0.5693 0.0
C342 C 0.89363 0.82921 0.78483 0.0
C343 C 0.8752 0.78865 0.74686 0.0
C344 C 0.9087 0.70987 0.71159 0.0
C345 C 0.81458 0.59542 0.59825 0.0
C346 C 0.83016 0.636 0.64099 0.0
C347 C 0.88002 0.75743 0.76095 0.0
C348 C 0.86231 0.7152 0.72002 0.0
H349 H 0.76558 0.54596 0.46311 0.0
H350 H 0.78922 0.61109 0.53387 0.0
H351 H 0.93073 0.66859 0.66626 0.0
H352 H 0.93865 0.81432 0.89278 0.0
H353 H 0.90605 0.74348 0.82681 0.0
C354 C 0.48535 0.21105 0.44969 0.0
C355 C 0.55766 0.26795 0.44538 0.0
C356 C 0.43955 0.18736 0.50295 0.0
C357 C 0.4407 0.19901 0.65611 0.0
H358 H 0.23705 0.13149 0.67496 0.0
C359 C 0.26865 0.15848 0.87833 0.0
C360 C 0.19256 0.10403 0.88831 0.0
C361 C 0.30988 0.17546 0.82289 0.0
C362 C 0.29365 0.15004 0.67019 0.0
H363 H 0.63953 0.34405 0.49427 0.0
H364 H 0.56006 0.30196 0.58799 0.0
H365 H 0.31803 0.16615 0.58051 0.0
H366 H 0.09855 0.02544 0.84748 0.0
H367 H 0.16988 0.05601 0.74973 0.0
H368 H 0.4176 0.18435 0.74596 0.0
C369 C 0.53924 0.27607 0.54964 0.0
C370 C 0.33981 0.16975 0.61631 0.0
C371 C 0.58474 0.3001 0.49608 0.0
C372 C 0.15686 0.06777 0.8411 0.0
C373 C 0.19779 0.08512 0.78527 0.0
C374 C 0.39535 0.1803 0.71019 0.0
C375 C 0.46553 0.21975 0.5533 0.0
C376 C 0.41443 0.19544 0.60919 0.0
C377 C 0.27544 0.1387 0.77594 0.0
C378 C 0.32172 0.15622 0.71791 0.0
H379 H 0.46246 0.18496 0.41158 0.0
H380 H 0.3832 0.14382 0.50474 0.0
H381 H 0.4962 0.21599 0.65057 0.0
H382 H 0.29719 0.18777 0.91361 0.0
H383 H 0.36909 0.21732 0.81671 0.0
C384 C 0.5851 0.44986 0.11397 0.0
C385 C 0.51336 0.39604 0.13248 0.0
C386 C 0.58787 0.48094 0.08702 0.0
C387 C 0.46859 0.45998 0.00366 0.0
H388 H 0.62591 0.61907 0.01852 0.0
C389 C 0.46962 0.5867 0.90085 0.0
C390 C 0.54216 0.64002 0.88169 0.0
C391 C 0.46527 0.55505 0.92862 0.0
C392 C 0.5822 0.57469 0.01323 0.0
H393 H 0.38857 0.33407 0.14125 0.0
H394 H 0.39302 0.38867 0.09573 0.0
H395 H 0.61936 0.57012 0.0781 0.0
H396 H 0.66678 0.70034 0.87245 0.0
H397 H 0.65934 0.64481 0.91955 0.0
H398 H 0.43143 0.46461 0.9388 0.0
C399 C 0.44723 0.40643 0.10039 0.0
C400 C 0.57832 0.54659 0.04761 0.0
C401 C 0.44456 0.37537 0.12703 0.0
C402 C 0.61006 0.65949 0.88723 0.0
C403 C 0.60576 0.62791 0.91475 0.0
C404 C 0.47243 0.48808 0.96931 0.0
C405 C 0.51889 0.45887 0.07826 0.0
C406 C 0.52155 0.48886 0.04324 0.0
C407 C 0.53342 0.5761 0.93761 0.0
C408 C 0.5295 0.54585 0.97346 0.0
H409 H 0.63902 0.46652 0.11691 0.0
H410 H 0.6441 0.52104 0.07029 0.0
H411 H 0.42499 0.41562 0.99827 0.0
H412 H 0.41642 0.57095 0.89778 0.0
H413 H 0.40859 0.51541 0.9458 0.0
C414 C 0.44636 0.87967 0.82623 0.0
C415 C 0.46579 0.85653 0.83522 0.0
C416 C 0.46258 0.91923 0.86455 0.0
C417 C 0.58557 0.02033 0.9775 0.0
H418 H 0.43398 0.01407 0.02002 0.0
C419 C 0.61396 0.15365 0.16253 0.0
C420 C 0.59579 0.17794 0.15483 0.0
C421 C 0.59793 0.11486 0.12287 0.0
C422 C 0.47735 0.01683 0.00807 0.0
H423 H 0.51782 0.85702 0.89166 0.0
H424 H 0.54553 0.92572 0.95886 0.0
H425 H 0.40659 0.94559 0.95275 0.0
H426 H 0.54595 0.18014 0.09935 0.0
H427 H 0.51829 0.11244 0.02968 0.0
H428 H 0.6562 0.09142 0.03293 0.0
C429 C 0.51849 0.91372 0.92174 0.0
C430 C 0.46165 0.97753 0.96949 0.0
C431 C 0.50221 0.87408 0.88337 0.0
C432 C 0.56059 0.16216 0.1066 0.0
C433 C 0.54442 0.12317 0.06682 0.0
C434 C 0.60122 0.05957 0.01607 0.0
C435 C 0.49868 0.9367 0.91289 0.0
C436 C 0.51548 0.97867 0.95382 0.0
C437 C 0.56329 0.09925 0.07436 0.0
C438 C 0.5472 0.05822 0.03205 0.0
H439 H 0.41852 0.86728 0.78948 0.0
H440 H 0.44758 0.9366 0.85587 0.0
H441 H 0.62896 0.02311 0.96565 0.0
H442 H 0.64074 0.16457 0.19931 0.0
H443 H 0.61201 0.09663 0.13062 0.0
C444 C 0.25195 0.64293 0.82897 0.0
C445 C 0.21938 0.60606 0.78187 0.0
C446 C 0.2115 0.62432 0.88483 0.0
C447 C 0.04762 0.49685 0.97195 0.0
H448 H 0.03576 0.58416 0.06796 0.0
C449 C 0.82353 0.40609 0.17589 0.0
C450 C 0.84975 0.43993 0.2255 0.0
C451 C 0.86915 0.42824 0.12216 0.0
C452 C 0.03902 0.5595 0.04196 0.0
H453 H 0.12015 0.52066 0.7564 0.0
H454 H 0.05009 0.48833 0.8531 0.0
H455 H 0.11922 0.61975 0.97528 0.0
H456 H 0.94307 0.52405 0.25709 0.0
H457 H 1.0228 0.56262 0.16346 0.0
H458 H 0.96739 0.43653 0.03825 0.0
C459 C 0.10692 0.53145 0.84744 0.0
C460 C 0.08714 0.58002 0.98888 0.0
C461 C 0.14702 0.55006 0.79186 0.0
C462 C 0.92103 0.49685 0.21971 0.0
C463 C 0.96674 0.51901 0.16594 0.0
C464 C 0.99964 0.47639 0.0249 0.0
C465 C 0.13789 0.56843 0.89459 0.0
C466 C 0.09145 0.54869 0.95295 0.0
C467 C 0.94226 0.48473 0.11668 0.0
C468 C 0.99404 0.50715 0.0604 0.0
H469 H 0.30714 0.68642 0.82247 0.0
H470 H 0.23737 0.65381 0.92026 0.0
H471 H 0.05047 0.47199 0.94585 0.0
H472 H 0.76897 0.36206 0.17875 0.0
H473 H 0.84767 0.4008 0.08498 0.0
loop_
_geom_bond_atom_site_label_1
_geom_bond_atom_site_label_2
_geom_bond_distance
_geom_bond_site_symmetry_2
_ccdc_geom_bond_type
C0 C1 1.387 . S
C0 C5 1.380 1_545 S
C0 C16 1.494 . S
C1 C0 1.387 . S
C1 C2 1.386 1_545 S
C1 H32 0.930 . S
C2 C1 1.386 1_565 S
C2 C3 1.397 . S
C3 C2 1.397 . S
C3 C4 1.393 . S
C3 H33 0.930 . S
C4 C3 1.393 . S
C4 C5 1.395 . S
C5 C0 1.380 1_565 S
C5 C4 1.395 . S
C5 H34 0.930 . S
O6 Tb7 2.295 1_655 S
O6 C19 1.242 1_545 S
Tb7 O6 2.295 1_455 S
Tb7 O8 2.312 . S
Tb7 O11 2.438 . S
Tb7 O13 2.472 . S
Tb7 O15 2.308 1_554 S
Tb7 C16 2.821 . S
O8 Tb7 2.312 . S
O8 C28 1.264 . S
O9 Eu10 2.308 1_554 S
O9 C19 1.243 . S
Eu10 O9 2.308 1_556 S
Eu10 C12 2.821 . S
Eu10 O14 2.295 1_655 S
Eu10 O21 2.312 . S
Eu10 O30 2.438 . S
Eu10 O31 2.472 . S
O11 Tb7 2.438 . S
O11 C16 1.263 . S
C12 Eu10 2.821 . S
C12 C22 1.494 . S
C12 O30 1.263 . S
C12 O31 1.264 . S
O13 Tb7 2.472 . S
O13 C16 1.264 . S
O14 Eu10 2.295 1_455 S
O14 C20 1.242 1_565 S
O15 Tb7 2.308 1_556 S
O15 C20 1.243 . S
C16 C0 1.494 . S
C16 Tb7 2.821 . S
C16 O11 1.263 . S
C16 O13 1.264 . S
C17 O18 1.260 . S
C17 O21 1.264 . S
O18 C17 1.260 . S
C19 O6 1.242 1_565 S
C19 O9 1.243 . S
C20 O14 1.242 1_545 S
C20 O15 1.243 . S
O21 Eu10 2.312 . S
O21 C17 1.264 . S
C22 C12 1.494 . S
C22 C24 1.380 1_565 S
C22 C25 1.387 . S
C23 C24 1.395 . S
C23 C27 1.393 . S
C24 C22 1.380 1_545 S
C24 C23 1.395 . S
C24 H35 0.930 . S
C25 C22 1.387 . S
C25 C26 1.386 1_565 S
C25 H36 0.930 . S
C26 C25 1.386 1_545 S
C26 C27 1.397 . S
C27 C23 1.393 . S
C27 C26 1.397 . S
C27 H37 0.930 . S
C28 O8 1.264 . S
C28 O29 1.260 . S
O29 C28 1.260 . S
O30 Eu10 2.438 . S
O30 C12 1.263 . S
O31 Eu10 2.472 . S
O31 C12 1.264 . S
H32 C1 0.930 . S
H33 C3 0.930 . S
H34 C5 0.930 . S
H35 C24 0.930 . S
H36 C25 0.930 . S
H37 C27 0.930 . S
C38 C39 1.387 . S
C38 C43 1.380 . S
C38 C54 1.494 . S
C39 C38 1.387 . S
C39 C40 1.386 . S
C39 H70 0.930 . S
C40 C39 1.386 . S
C40 C41 1.397 . S
C41 C40 1.397 . S
C41 C42 1.393 . S
C41 H71 0.930 . S
C42 C41 1.393 . S
C42 C43 1.395 . S
C43 C38 1.380 . S
C43 C42 1.395 . S
C43 H72 0.930 . S
O44 Tb45 2.295 . S
O44 C57 1.242 . S
Tb45 O44 2.295 . S
Tb45 O46 2.312 . S
Tb45 O49 2.438 . S
Tb45 O51 2.472 . S
Tb45 O53 2.308 . S
Tb45 C54 2.821 . S
O46 Tb45 2.312 . S
O46 C66 1.264 . S
O47 Eu48 2.308 . S
O47 C57 1.243 . S
Eu48 O47 2.308 . S
Eu48 C50 2.821 . S
Eu48 O52 2.295 . S
Eu48 O59 2.312 . S
Eu48 O68 2.438 . S
Eu48 O69 2.472 . S
O49 Tb45 2.438 . S
O49 C54 1.263 . S
C50 Eu48 2.821 . S
C50 C60 1.494 . S
C50 O68 1.263 . S
C50 O69 1.264 . S
O51 Tb45 2.472 . S
O51 C54 1.264 . S
O52 Eu48 2.295 . S
O52 C58 1.242 . S
O53 Tb45 2.308 . S
O53 C58 1.243 . S
C54 C38 1.494 . S
C54 Tb45 2.821 . S
C54 O49 1.263 . S
C54 O51 1.264 . S
C55 O56 1.260 . S
C55 O59 1.264 . S
O56 C55 1.260 . S
C57 O44 1.242 . S
C57 O47 1.243 . S
C58 O52 1.242 . S
C58 O53 1.243 . S
O59 Eu48 2.312 . S
O59 C55 1.264 . S
C60 C50 1.494 . S
C60 C62 1.380 . S
C60 C63 1.387 . S
C61 C62 1.395 . S
C61 C65 1.393 . S
C62 C60 1.380 . S
C62 C61 1.395 . S
C62 H73 0.930 . S
C63 C60 1.387 . S
C63 C64 1.386 . S
C63 H74 0.930 . S
C64 C63 1.386 . S
C64 C65 1.397 . S
C65 C61 1.393 . S
C65 C64 1.397 . S
C65 H75 0.930 . S
C66 O46 1.264 . S
C66 O67 1.260 . S
O67 C66 1.260 . S
O68 Eu48 2.438 . S
O68 C50 1.263 . S
O69 Eu48 2.472 . S
O69 C50 1.264 . S
H70 C39 0.930 . S
H71 C41 0.930 . S
H72 C43 0.930 . S
H73 C62 0.930 . S
H74 C63 0.930 . S
H75 C65 0.930 . S
C76 C77 1.387 . S
C76 C81 1.380 . S
C76 C92 1.494 . S
C77 C76 1.387 . S
C77 C78 1.386 . S
C77 H108 0.930 . S
C78 C77 1.386 . S
C78 C79 1.397 . S
C79 C78 1.397 . S
C79 C80 1.393 . S
C79 H109 0.930 . S
C80 C79 1.393 . S
C80 C81 1.395 . S
C81 C76 1.380 . S
C81 C80 1.395 . S
C81 H110 0.930 . S
O82 Tb83 2.295 . S
O82 C95 1.242 . S
Tb83 O82 2.295 . S
Tb83 O84 2.312 . S
Tb83 O87 2.438 . S
Tb83 O89 2.472 . S
Tb83 O91 2.308 . S
Tb83 C92 2.821 . S
O84 Tb83 2.312 . S
O84 C104 1.264 . S
O85 Eu86 2.308 . S
O85 C95 1.243 . S
Eu86 O85 2.308 . S
Eu86 C88 2.821 . S
Eu86 O90 2.295 . S
Eu86 O97 2.312 . S
Eu86 O106 2.438 . S
Eu86 O107 2.472 . S
O87 Tb83 2.438 . S
O87 C92 1.263 . S
C88 Eu86 2.821 . S
C88 C98 1.494 . S
C88 O106 1.263 . S
C88 O107 1.264 . S
O89 Tb83 2.472 . S
O89 C92 1.264 . S
O90 Eu86 2.295 . S
O90 C96 1.242 . S
O91 Tb83 2.308 . S
O91 C96 1.243 . S
C92 C76 1.494 . S
C92 Tb83 2.821 . S
C92 O87 1.263 . S
C92 O89 1.264 . S
C93 O94 1.260 . S
C93 O97 1.264 . S
O94 C93 1.260 . S
C95 O82 1.242 . S
C95 O85 1.243 . S
C96 O90 1.242 . S
C96 O91 1.243 . S
O97 Eu86 2.312 . S
O97 C93 1.264 . S
C98 C88 1.494 . S
C98 C100 1.380 . S
C98 C101 1.387 . S
C99 C100 1.395 . S
C99 C103 1.393 . S
C100 C98 1.380 . S
C100 C99 1.395 . S
C100 H111 0.930 . S
C101 C98 1.387 . S
C101 C102 1.386 . S
C101 H112 0.930 . S
C102 C101 1.386 . S
C102 C103 1.397 . S
C103 C99 1.393 . S
C103 C102 1.397 . S
C103 H113 0.930 . S
C104 O84 1.264 . S
C104 O105 1.260 . S
O105 C104 1.260 . S
O106 Eu86 2.438 . S
O106 C88 1.263 . S
O107 Eu86 2.472 . S
O107 C88 1.264 . S
H108 C77 0.930 . S
H109 C79 0.930 . S
H110 C81 0.930 . S
H111 C100 0.930 . S
H112 C101 0.930 . S
H113 C103 0.930 . S
C114 C115 1.349 1_565 S
C114 C116 1.327 . S
C114 H139 0.950 . S
C115 C114 1.349 1_545 S
C115 C131 1.349 . S
C116 C114 1.327 . S
C116 C135 1.429 1_565 S
C116 H140 0.950 . S
C117 C134 1.574 . S
C117 C136 1.368 1_455 S
C117 H141 0.949 . S
H118 C122 0.949 . S
C119 C120 1.349 1_545 S
C119 C121 1.327 . S
C119 H142 0.950 . S
C120 C119 1.349 1_565 S
C120 C132 1.349 . S
C121 C119 1.327 . S
C121 C137 1.429 1_545 S
C121 H143 0.950 . S
C122 H118 0.949 . S
C122 C130 1.574 . S
C122 C138 1.368 1_655 S
H123 C131 0.950 1_455 S
H124 C129 0.950 . S
H125 C130 0.949 . S
H126 C132 0.950 1_655 S
H127 C133 0.950 . S
H128 C134 0.949 . S
C129 H124 0.950 . S
C129 C131 1.327 1_455 S
C129 C135 1.429 1_455 S
C130 C122 1.574 . S
C130 H125 0.949 . S
C130 C136 1.368 1_565 S
C131 C115 1.349 . S
C131 H123 0.950 1_655 S
C131 C129 1.327 1_655 S
C132 C120 1.349 . S
C132 H126 0.950 1_455 S
C132 C133 1.327 1_455 S
C133 H127 0.950 . S
C133 C132 1.327 1_655 S
C133 C137 1.429 1_655 S
C134 C117 1.574 . S
C134 H128 0.949 . S
C134 C138 1.368 1_545 S
C135 C116 1.429 1_545 S
C135 C129 1.429 1_655 S
C135 C136 1.523 . S
C136 C117 1.368 1_655 S
C136 C130 1.368 1_545 S
C136 C135 1.523 . S
C137 C121 1.429 1_565 S
C137 C133 1.429 1_455 S
C137 C138 1.523 . S
C138 C122 1.368 1_455 S
C138 C134 1.368 1_565 S
C138 C137 1.523 . S
H139 C114 0.950 . S
H140 C116 0.950 . S
H141 C117 0.949 . S
H142 C119 0.950 . S
H143 C121 0.950 . S
C144 C145 1.349 . S
C144 C146 1.327 . S
C144 H169 0.950 . S
C145 C144 1.349 . S
C145 C161 1.349 . S
C146 C144 1.327 . S
C146 C165 1.429 . S
C146 H170 0.950 . S
C147 C164 1.574 . S
C147 C166 1.368 . S
C147 H171 0.949 . S
H148 C152 0.949 . S
C149 C150 1.349 . S
C149 C151 1.327 1_554 S
C149 H172 0.950 . S
C150 C149 1.349 . S
C150 C162 1.349 . S
C151 C149 1.327 1_556 S
C151 C167 1.429 . S
C151 H173 0.950 . S
C152 H148 0.949 . S
C152 C160 1.574 . S
C152 C168 1.368 . S
H153 C161 0.950 . S
H154 C159 0.950 . S
H155 C160 0.949 . S
H156 C162 0.950 . S
H157 C163 0.950 . S
H158 C164 0.949 . S
C159 H154 0.950 . S
C159 C161 1.327 . S
C159 C165 1.429 . S
C160 C152 1.574 . S
C160 H155 0.949 . S
C160 C166 1.368 . S
C161 C145 1.349 . S
C161 H153 0.950 . S
C161 C159 1.327 . S
C162 C150 1.349 . S
C162 H156 0.950 . S
C162 C163 1.327 1_554 S
C163 H157 0.950 . S
C163 C162 1.327 1_556 S
C163 C167 1.429 . S
C164 C147 1.574 . S
C164 H158 0.949 . S
C164 C168 1.368 . S
C165 C146 1.429 . S
C165 C159 1.429 . S
C165 C166 1.523 . S
C166 C147 1.368 . S
C166 C160 1.368 . S
C166 C165 1.523 . S
C167 C151 1.429 . S
C167 C163 1.429 . S
C167 C168 1.523 . S
C168 C152 1.368 . S
C168 C164 1.368 . S
C168 C167 1.523 . S
H169 C144 0.950 . S
H170 C146 0.950 . S
H171 C147 0.949 . S
H172 C149 0.950 . S
H173 C151 0.950 . S
C174 C175 1.349 . S
C174 C176 1.327 1_556 S
C174 H199 0.950 . S
C175 C174 1.349 . S
C175 C191 1.349 . S
C176 C174 1.327 1_554 S
C176 C195 1.429 . S
C176 H200 0.950 . S
C177 C194 1.574 . S
C177 C196 1.368 . S
C177 H201 0.949 . S
H178 C182 0.949 . S
C179 C180 1.349 . S
C179 C181 1.327 . S
C179 H202 0.950 . S
C180 C179 1.349 . S
C180 C192 1.349 . S
C181 C179 1.327 . S
C181 C197 1.429 . S
C181 H203 0.950 . S
C182 H178 0.949 . S
C182 C190 1.574 . S
C182 C198 1.368 . S
H183 C191 0.950 . S
H184 C189 0.950 . S
H185 C190 0.949 . S
H186 C192 0.950 . S
H187 C193 0.950 . S
H188 C194 0.949 . S
C189 H184 0.950 . S
C189 C191 1.327 1_554 S
C189 C195 1.429 . S
C190 C182 1.574 . S
C190 H185 0.949 . S
C190 C196 1.368 . S
C191 C175 1.349 . S
C191 H183 0.950 . S
C191 C189 1.327 1_556 S
C192 C180 1.349 . S
C192 H186 0.950 . S
C192 C193 1.327 . S
C193 H187 0.950 . S
C193 C192 1.327 . S
C193 C197 1.429 . S
C194 C177 1.574 . S
C194 H188 0.949 . S
C194 C198 1.368 . S
C195 C176 1.429 . S
C195 C189 1.429 . S
C195 C196 1.523 . S
C196 C177 1.368 . S
C196 C190 1.368 . S
C196 C195 1.523 . S
C197 C181 1.429 . S
C197 C193 1.429 . S
C197 C198 1.523 . S
C198 C182 1.368 . S
C198 C194 1.368 . S
C198 C197 1.523 . S
H199 C174 0.950 . S
H200 C176 0.950 . S
H201 C177 0.949 . S
H202 C179 0.950 . S
H203 C181 0.950 . S
C204 C205 1.349 . S
C204 C206 1.327 . S
C204 H229 0.950 . S
C205 C204 1.349 . S
C205 C221 1.349 . S
C206 C204 1.327 . S
C206 C225 1.429 . S
C206 H230 0.950 . S
C207 C224 1.574 . S
C207 C226 1.368 . S
C207 H231 0.949 . S
H208 C212 0.949 . S
C209 C210 1.349 . S
C209 C211 1.327 . S
C209 H232 0.950 . S
C210 C209 1.349 . S
C210 C222 1.349 . S
C211 C209 1.327 . S
C211 C227 1.429 . S
C211 H233 0.950 . S
C212 H208 0.949 . S
C212 C220 1.574 . S
C212 C228 1.368 . S
H213 C221 0.950 . S
H214 C219 0.950 . S
H215 C220 0.949 . S
H216 C222 0.950 . S
H217 C223 0.950 . S
H218 C224 0.949 . S
C219 H214 0.950 . S
C219 C221 1.327 . S
C219 C225 1.429 . S
C220 C212 1.574 . S
C220 H215 0.949 . S
C220 C226 1.368 . S
C221 C205 1.349 . S
C221 H213 0.950 . S
C221 C219 1.327 . S
C222 C210 1.349 . S
C222 H216 0.950 . S
C222 C223 1.327 . S
C223 H217 0.950 . S
C223 C222 1.327 . S
C223 C227 1.429 . S
C224 C207 1.574 . S
C224 H218 0.949 . S
C224 C228 1.368 . S
C225 C206 1.429 . S
C225 C219 1.429 . S
C225 C226 1.523 . S
C226 C207 1.368 . S
C226 C220 1.368 . S
C226 C225 1.523 . S
C227 C211 1.429 . S
C227 C223 1.429 . S
C227 C228 1.523 . S
C228 C212 1.368 . S
C228 C224 1.368 . S
C228 C227 1.523 . S
H229 C204 0.950 . S
H230 C206 0.950 . S
H231 C207 0.949 . S
H232 C209 0.950 . S
H233 C211 0.950 . S
C234 C235 1.349 . S
C234 C236 1.327 . S
C234 H259 0.950 . S
C235 C234 1.349 . S
C235 C251 1.349 . S
C236 C234 1.327 . S
C236 C255 1.429 . S
C236 H260 0.950 . S
C237 C254 1.574 . S
C237 C256 1.368 . S
C237 H261 0.949 . S
H238 C242 0.949 . S
C239 C240 1.349 . S
C239 C241 1.327 . S
C239 H262 0.950 1_455 S
C240 C239 1.349 . S
C240 C252 1.349 . S
C241 C239 1.327 . S
C241 C257 1.429 . S
C241 H263 0.950 . S
C242 H238 0.949 . S
C242 C250 1.574 . S
C242 C258 1.368 . S
H243 C251 0.950 . S
H244 C249 0.950 . S
H245 C250 0.949 . S
H246 C252 0.950 . S
H247 C253 0.950 . S
H248 C254 0.949 . S
C249 H244 0.950 . S
C249 C251 1.327 . S
C249 C255 1.429 . S
C250 C242 1.574 . S
C250 H245 0.949 . S
C250 C256 1.368 . S
C251 C235 1.349 . S
C251 H243 0.950 . S
C251 C249 1.327 . S
C252 C240 1.349 . S
C252 H246 0.950 . S
C252 C253 1.327 . S
C253 H247 0.950 . S
C253 C252 1.327 . S
C253 C257 1.429 . S
C254 C237 1.574 . S
C254 H248 0.949 . S
C254 C258 1.368 . S
C255 C236 1.429 . S
C255 C249 1.429 . S
C255 C256 1.523 . S
C256 C237 1.368 . S
C256 C250 1.368 . S
C256 C255 1.523 . S
C257 C241 1.429 . S
C257 C253 1.429 . S
C257 C258 1.523 . S
C258 C242 1.368 . S
C258 C254 1.368 . S
C258 C257 1.523 . S
H259 C234 0.950 . S
H260 C236 0.950 . S
H261 C237 0.949 . S
H262 C239 0.950 1_655 S
H263 C241 0.950 . S
C264 C265 1.349 . S
C264 C266 1.327 . S
C264 H289 0.950 . S
C265 C264 1.349 . S
C265 C281 1.349 . S
C266 C264 1.327 . S
C266 C285 1.429 . S
C266 H290 0.950 . S
C267 C284 1.574 . S
C267 C286 1.368 . S
C267 H291 0.949 . S
H268 C272 0.949 . S
C269 C270 1.349 . S
C269 C271 1.327 . S
C269 H292 0.950 . S
C270 C269 1.349 . S
C270 C282 1.349 . S
C271 C269 1.327 . S
C271 C287 1.429 . S
C271 H293 0.950 . S
C272 H268 0.949 . S
C272 C280 1.574 . S
C272 C288 1.368 . S
H273 C281 0.950 . S
H274 C279 0.950 . S
H275 C280 0.949 . S
H276 C282 0.950 . S
H277 C283 0.950 . S
H278 C284 0.949 . S
C279 H274 0.950 . S
C279 C281 1.327 . S
C279 C285 1.429 . S
C280 C272 1.574 . S
C280 H275 0.949 . S
C280 C286 1.368 . S
C281 C265 1.349 . S
C281 H273 0.950 . S
C281 C279 1.327 . S
C282 C270 1.349 . S
C282 H276 0.950 . S
C282 C283 1.327 . S
C283 H277 0.950 . S
C283 C282 1.327 . S
C283 C287 1.429 . S
C284 C267 1.574 . S
C284 H278 0.949 . S
C284 C288 1.368 . S
C285 C266 1.429 . S
C285 C279 1.429 . S
C285 C286 1.523 . S
C286 C267 1.368 . S
C286 C280 1.368 . S
C286 C285 1.523 . S
C287 C271 1.429 . S
C287 C283 1.429 . S
C287 C288 1.523 . S
C288 C272 1.368 . S
C288 C284 1.368 . S
C288 C287 1.523 . S
H289 C264 0.950 . S
H290 C266 0.950 . S
H291 C267 0.949 . S
H292 C269 0.950 . S
H293 C271 0.950 . S
C294 C295 1.349 . S
C294 C296 1.327 . S
C294 H319 0.950 . S
C295 C294 1.349 . S
C295 C311 1.349 . S
C296 C294 1.327 . S
C296 C315 1.429 . S
C296 H320 0.950 . S
C297 C314 1.574 . S
C297 C316 1.368 . S
C297 H321 0.949 . S
H298 C302 0.949 . S
C299 C300 1.349 . S
C299 C301 1.327 . S
C299 H322 0.950 . S
C300 C299 1.349 . S
C300 C312 1.349 . S
C301 C299 1.327 . S
C301 C317 1.429 . S
C301 H323 0.950 . S
C302 H298 0.949 . S
C302 C310 1.574 . S
C302 C318 1.368 . S
H303 C311 0.950 . S
H304 C309 0.950 . S
H305 C310 0.949 . S
H306 C312 0.950 . S
H307 C313 0.950 . S
H308 C314 0.949 . S
C309 H304 0.950 . S
C309 C311 1.327 . S
C309 C315 1.429 . S
C310 C302 1.574 . S
C310 H305 0.949 . S
C310 C316 1.368 . S
C311 C295 1.349 . S
C311 H303 0.950 . S
C311 C309 1.327 . S
C312 C300 1.349 . S
C312 H306 0.950 . S
C312 C313 1.327 . S
C313 H307 0.950 . S
C313 C312 1.327 . S
C313 C317 1.429 . S
C314 C297 1.574 . S
C314 H308 0.949 . S
C314 C318 1.368 . S
C315 C296 1.429 . S
C315 C309 1.429 . S
C315 C316 1.523 . S
C316 C297 1.368 . S
C316 C310 1.368 . S
C316 C315 1.523 . S
C317 C301 1.429 . S
C317 C313 1.429 . S
C317 C318 1.523 . S
C318 C302 1.368 . S
C318 C314 1.368 . S
C318 C317 1.523 . S
H319 C294 0.950 . S
H320 C296 0.950 . S
H321 C297 0.949 . S
H322 C299 0.950 . S
H323 C301 0.950 . S
C324 C325 1.349 . S
C324 C326 1.327 . S
C324 H349 0.950 . S
C325 C324 1.349 . S
C325 C341 1.349 . S
C326 C324 1.327 . S
C326 C345 1.429 . S
C326 H350 0.950 . S
C327 C344 1.574 . S
C327 C346 1.368 . S
C327 H351 0.949 . S
H328 C332 0.949 . S
C329 C330 1.349 . S
C329 C331 1.327 . S
C329 H352 0.950 . S
C330 C329 1.349 . S
C330 C342 1.349 . S
C331 C329 1.327 . S
C331 C347 1.429 . S
C331 H353 0.950 . S
C332 H328 0.949 . S
C332 C340 1.574 . S
C332 C348 1.368 . S
H333 C341 0.950 . S
H334 C339 0.950 . S
H335 C340 0.949 . S
H336 C342 0.950 . S
H337 C343 0.950 . S
H338 C344 0.949 . S
C339 H334 0.950 . S
C339 C341 1.327 . S
C339 C345 1.429 . S
C340 C332 1.574 . S
C340 H335 0.949 . S
C340 C346 1.368 . S
C341 C325 1.349 . S
C341 H333 0.950 . S
C341 C339 1.327 . S
C342 C330 1.349 . S
C342 H336 0.950 . S
C342 C343 1.327 . S
C343 H337 0.950 . S
C343 C342 1.327 . S
C343 C347 1.429 . S
C344 C327 1.574 . S
C344 H338 0.949 . S
C344 C348 1.368 . S
C345 C326 1.429 . S
C345 C339 1.429 . S
C345 C346 1.523 . S
C346 C327 1.368 . S
C346 C340 1.368 . S
C346 C345 1.523 . S
C347 C331 1.429 . S
C347 C343 1.429 . S
C347 C348 1.523 . S
C348 C332 1.368 . S
C348 C344 1.368 . S
C348 C347 1.523 . S
H349 C324 0.950 . S
H350 C326 0.950 . S
H351 C327 0.949 . S
H352 C329 0.950 . S
H353 C331 0.950 . S
C354 C355 1.349 . S
C354 C356 1.327 . S
C354 H379 0.950 . S
C355 C354 1.349 . S
C355 C371 1.349 . S
C356 C354 1.327 . S
C356 C375 1.429 . S
C356 H380 0.950 . S
C357 C374 1.574 . S
C357 C376 1.368 . S
C357 H381 0.949 . S
H358 C362 0.949 . S
C359 C360 1.349 . S
C359 C361 1.327 . S
C359 H382 0.950 . S
C360 C359 1.349 . S
C360 C372 1.349 . S
C361 C359 1.327 . S
C361 C377 1.429 . S
C361 H383 0.950 . S
C362 H358 0.949 . S
C362 C370 1.574 . S
C362 C378 1.368 . S
H363 C371 0.950 . S
H364 C369 0.950 . S
H365 C370 0.949 . S
H366 C372 0.950 . S
H367 C373 0.950 . S
H368 C374 0.949 . S
C369 H364 0.950 . S
C369 C371 1.327 . S
C369 C375 1.429 . S
C370 C362 1.574 . S
C370 H365 0.949 . S
C370 C376 1.368 . S
C371 C355 1.349 . S
C371 H363 0.950 . S
C371 C369 1.327 . S
C372 C360 1.349 . S
C372 H366 0.950 . S
C372 C373 1.327 . S
C373 H367 0.950 . S
C373 C372 1.327 . S
C373 C377 1.429 . S
C374 C357 1.574 . S
C374 H368 0.949 . S
C374 C378 1.368 . S
C375 C356 1.429 . S
C375 C369 1.429 . S
C375 C376 1.523 . S
C376 C357 1.368 . S
C376 C370 1.368 . S
C376 C375 1.523 . S
C377 C361 1.429 . S
C377 C373 1.429 . S
C377 C378 1.523 . S
C378 C362 1.368 . S
C378 C374 1.368 . S
C378 C377 1.523 . S
H379 C354 0.950 . S
H380 C356 0.950 . S
H381 C357 0.949 . S
H382 C359 0.950 . S
H383 C361 0.950 . S
C384 C385 1.349 . S
C384 C386 1.327 . S
C384 H409 0.950 . S
C385 C384 1.349 . S
C385 C401 1.349 . S
C386 C384 1.327 . S
C386 C405 1.429 . S
C386 H410 0.950 . S
C387 C404 1.574 1_554 S
C387 C406 1.368 . S
C387 H411 0.949 . S
H388 C392 0.949 . S
C389 C390 1.349 . S
C389 C391 1.327 . S
C389 H412 0.950 . S
C390 C389 1.349 . S
C390 C402 1.349 . S
C391 C389 1.327 . S
C391 C407 1.429 . S
C391 H413 0.950 . S
C392 H388 0.949 . S
C392 C400 1.574 1_556 S
C392 C408 1.368 . S
H393 C401 0.950 . S
H394 C399 0.950 . S
H395 C400 0.949 . S
H396 C402 0.950 . S
H397 C403 0.950 . S
H398 C404 0.949 . S
C399 H394 0.950 . S
C399 C401 1.327 . S
C399 C405 1.429 . S
C400 C392 1.574 1_554 S
C400 H395 0.949 . S
C400 C406 1.368 . S
C401 C385 1.349 . S
C401 H393 0.950 . S
C401 C399 1.327 . S
C402 C390 1.349 . S
C402 H396 0.950 . S
C402 C403 1.327 . S
C403 H397 0.950 . S
C403 C402 1.327 . S
C403 C407 1.429 . S
C404 C387 1.574 1_556 S
C404 H398 0.949 . S
C404 C408 1.368 . S
C405 C386 1.429 . S
C405 C399 1.429 . S
C405 C406 1.523 . S
C406 C387 1.368 . S
C406 C400 1.368 . S
C406 C405 1.523 . S
C407 C391 1.429 . S
C407 C403 1.429 . S
C407 C408 1.523 . S
C408 C392 1.368 . S
C408 C404 1.368 . S
C408 C407 1.523 . S
H409 C384 0.950 . S
H410 C386 0.950 . S
H411 C387 0.949 . S
H412 C389 0.950 . S
H413 C391 0.950 . S
C414 C415 1.349 . S
C414 C416 1.327 . S
C414 H439 0.950 . S
C415 C414 1.349 . S
C415 C431 1.349 . S
C416 C414 1.327 . S
C416 C435 1.429 . S
C416 H440 0.950 . S
C417 C434 1.574 1_566 S
C417 C436 1.368 . S
C417 H441 0.949 . S
H418 C422 0.949 . S
C419 C420 1.349 . S
C419 C421 1.327 . S
C419 H442 0.950 . S
C420 C419 1.349 . S
C420 C432 1.349 . S
C421 C419 1.327 . S
C421 C437 1.429 . S
C421 H443 0.950 . S
C422 H418 0.949 . S
C422 C430 1.574 1_544 S
C422 C438 1.368 . S
H423 C431 0.950 . S
H424 C429 0.950 . S
H425 C430 0.949 . S
H426 C432 0.950 . S
H427 C433 0.950 . S
H428 C434 0.949 . S
C429 H424 0.950 . S
C429 C431 1.327 . S
C429 C435 1.429 . S
C430 C422 1.574 1_566 S
C430 H425 0.949 . S
C430 C436 1.368 . S
C431 C415 1.349 . S
C431 H423 0.950 . S
C431 C429 1.327 . S
C432 C420 1.349 . S
C432 H426 0.950 . S
C432 C433 1.327 . S
C433 H427 0.950 . S
C433 C432 1.327 . S
C433 C437 1.429 . S
C434 C417 1.574 1_544 S
C434 H428 0.949 . S
C434 C438 1.368 . S
C435 C416 1.429 . S
C435 C429 1.429 . S
C435 C436 1.523 . S
C436 C417 1.368 . S
C436 C430 1.368 . S
C436 C435 1.523 . S
C437 C421 1.429 . S
C437 C433 1.429 . S
C437 C438 1.523 . S
C438 C422 1.368 . S
C438 C434 1.368 . S
C438 C437 1.523 . S
H439 C414 0.950 . S
H440 C416 0.950 . S
H441 C417 0.949 . S
H442 C419 0.950 . S
H443 C421 0.950 . S
C444 C445 1.349 . S
C444 C446 1.327 . S
C444 H469 0.950 . S
C445 C444 1.349 . S
C445 C461 1.349 . S
C446 C444 1.327 . S
C446 C465 1.429 . S
C446 H470 0.950 . S
C447 C464 1.574 1_456 S
C447 C466 1.368 . S
C447 H471 0.949 . S
H448 C452 0.949 . S
C449 C450 1.349 . S
C449 C451 1.327 . S
C449 H472 0.950 . S
C450 C449 1.349 . S
C450 C462 1.349 . S
C451 C449 1.327 . S
C451 C467 1.429 . S
C451 H473 0.950 . S
C452 H448 0.949 . S
C452 C460 1.574 1_654 S
C452 C468 1.368 . S
H453 C461 0.950 . S
H454 C459 0.950 . S
H455 C460 0.949 . S
H456 C462 0.950 . S
H457 C463 0.950 . S
H458 C464 0.949 . S
C459 H454 0.950 . S
C459 C461 1.327 . S
C459 C465 1.429 . S
C460 C452 1.574 1_456 S
C460 H455 0.949 . S
C460 C466 1.368 . S
C461 C445 1.349 . S
C461 H453 0.950 . S
C461 C459 1.327 . S
C462 C450 1.349 . S
C462 H456 0.950 . S
C462 C463 1.327 . S
C463 H457 0.950 . S
C463 C462 1.327 . S
C463 C467 1.429 . S
C464 C447 1.574 1_654 S
C464 H458 0.949 . S
C464 C468 1.368 . S
C465 C446 1.429 . S
C465 C459 1.429 . S
C465 C466 1.523 . S
C466 C447 1.368 . S
C466 C460 1.368 . S
C466 C465 1.523 . S
C467 C451 1.429 . S
C467 C463 1.429 . S
C467 C468 1.523 . S
C468 C452 1.368 . S
C468 C464 1.368 . S
C468 C467 1.523 . S
H469 C444 0.950 . S
H470 C446 0.950 . S
H471 C447 0.949 . S
H472 C449 0.950 . S
H473 C451 0.950 . S
C115 C26 0.337 . S
C120 C2 0.337 . S
C145 C40 0.337 . S
C150 C64 0.337 . S
C175 C78 0.337 . S
C180 C102 0.337 . S
C205 C99 2.625 . S
C210 C4 2.625 . S
C235 C93 1.163 . S
C240 C28 1.161 . S
C265 C96 1.423 . S
C270 C19 1.422 . S
C295 C42 2.625 . S
C300 C23 2.625 . S
C325 C66 1.163 . S
C330 C17 1.166 . S
C355 C57 1.423 . S
C360 C20 1.424 . S
C385 C61 2.625 . S
C390 C80 2.625 . S
C415 C104 1.163 . S
C420 C55 1.163 . S
C445 C95 1.423 . S
C450 C58 1.423 . S
