# Generated by pormake.
# Topology upb, (4)-cn, num edge types: 1
# Building blocks:
#     Node 0, Type 0, BuildingBlock: QUQFOY_clean_sbu_3, # of connection points: 4
#     Node 1, Type 0, BuildingBlock: QUQFOY_clean_sbu_3, # of connection points: 4
#     Node 2, Type 0, BuildingBlock: QUQFOY_clean_sbu_3, # of connection points: 4
#     Node 3, Type 0, BuildingBlock: QUQFOY_clean_sbu_3, # of connection points: 4
#     Node 4, Type 0, BuildingBlock: QUQFOY_clean_sbu_3, # of connection points: 4
#     Node 5, Type 0, BuildingBlock: QUQFOY_clean_sbu_3, # of connection points: 4
#     Node 6, Type 0, BuildingBlock: QUQFOY_clean_sbu_3, # of connection points: 4
#     Node 7, Type 0, BuildingBlock: QUQFOY_clean_sbu_3, # of connection points: 4
#     Node 8, Type 0, BuildingBlock: QUQFOY_clean_sbu_3, # of connection points: 4
#     Node 9, Type 0, BuildingBlock: QUQFOY_clean_sbu_3, # of connection points: 4
#     Node 10, Type 0, BuildingBlock: QUQFOY_clean_sbu_3, # of connection points: 4
#     Node 11, Type 0, BuildingBlock: QUQFOY_clean_sbu_3, # of connection points: 4
#     Node 12, Type 0, BuildingBlock: QUQFOY_clean_sbu_3, # of connection points: 4
#     Node 13, Type 0, BuildingBlock: QUQFOY_clean_sbu_3, # of connection points: 4
#     Node 14, Type 0, BuildingBlock: QUQFOY_clean_sbu_3, # of connection points: 4
#     Node 15, Type 0, BuildingBlock: QUQFOY_clean_sbu_3, # of connection points: 4
#     Edge 16, Type (0, 0), BuildingBlock: EZIPEK_clean_linker_0, # of connection points: 2
#     Edge 17, Type (0, 0), BuildingBlock: EZIPEK_clean_linker_0, # of connection points: 2
#     Edge 18, Type (0, 0), BuildingBlock: EZIPEK_clean_linker_0, # of connection points: 2
#     Edge 19, Type (0, 0), BuildingBlock: EZIPEK_clean_linker_0, # of connection points: 2
#     Edge 20, Type (0, 0), BuildingBlock: EZIPEK_clean_linker_0, # of connection points: 2
#     Edge 21, Type (0, 0), BuildingBlock: EZIPEK_clean_linker_0, # of connection points: 2
#     Edge 22, Type (0, 0), BuildingBlock: EZIPEK_clean_linker_0, # of connection points: 2
#     Edge 23, Type (0, 0), BuildingBlock: EZIPEK_clean_linker_0, # of connection points: 2
#     Edge 24, Type (0, 0), BuildingBlock: EZIPEK_clean_linker_0, # of connection points: 2
#     Edge 25, Type (0, 0), BuildingBlock: EZIPEK_clean_linker_0, # of connection points: 2
#     Edge 26, Type (0, 0), BuildingBlock: EZIPEK_clean_linker_0, # of connection points: 2
#     Edge 27, Type (0, 0), BuildingBlock: EZIPEK_clean_linker_0, # of connection points: 2
#     Edge 28, Type (0, 0), BuildingBlock: EZIPEK_clean_linker_0, # of connection points: 2
#     Edge 29, Type (0, 0), BuildingBlock: EZIPEK_clean_linker_0, # of connection points: 2
#     Edge 30, Type (0, 0), BuildingBlock: EZIPEK_clean_linker_0, # of connection points: 2
#     Edge 31, Type (0, 0), BuildingBlock: EZIPEK_clean_linker_0, # of connection points: 2
#     Edge 32, Type (0, 0), BuildingBlock: EZIPEK_clean_linker_0, # of connection points: 2
#     Edge 33, Type (0, 0), BuildingBlock: EZIPEK_clean_linker_0, # of connection points: 2
#     Edge 34, Type (0, 0), BuildingBlock: EZIPEK_clean_linker_0, # of connection points: 2
#     Edge 35, Type (0, 0), BuildingBlock: EZIPEK_clean_linker_0, # of connection points: 2
#     Edge 36, Type (0, 0), BuildingBlock: EZIPEK_clean_linker_0, # of connection points: 2
#     Edge 37, Type (0, 0), BuildingBlock: EZIPEK_clean_linker_0, # of connection points: 2
#     Edge 38, Type (0, 0), BuildingBlock: EZIPEK_clean_linker_0, # of connection points: 2
#     Edge 39, Type (0, 0), BuildingBlock: EZIPEK_clean_linker_0, # of connection points: 2
#     Edge 40, Type (0, 0), BuildingBlock: EZIPEK_clean_linker_0, # of connection points: 2
#     Edge 41, Type (0, 0), BuildingBlock: EZIPEK_clean_linker_0, # of connection points: 2
#     Edge 42, Type (0, 0), BuildingBlock: EZIPEK_clean_linker_0, # of connection points: 2
#     Edge 43, Type (0, 0), BuildingBlock: EZIPEK_clean_linker_0, # of connection points: 2
#     Edge 44, Type (0, 0), BuildingBlock: EZIPEK_clean_linker_0, # of connection points: 2
#     Edge 45, Type (0, 0), BuildingBlock: EZIPEK_clean_linker_0, # of connection points: 2
#     Edge 46, Type (0, 0), BuildingBlock: EZIPEK_clean_linker_0, # of connection points: 2
#     Edge 47, Type (0, 0), BuildingBlock: EZIPEK_clean_linker_0, # of connection points: 2
# Relax obj value: 0.211
# Max RMSD: 0.067
# Mean RMSD: 0.067
data_MOF--net-upb--node1-QUQFOY_clean_sbu_3--edge1-EZIPEK_clean_linker_0
_symmetry_space_group_name_H-M    P1
_symmetry_Int_Tables_number       1
_symmetry_cell_setting            triclinic
loop_
_symmetry_equiv_pos_as_xyz
'x, y, z'
_cell_length_a     33.78977
_cell_length_b     33.705598
_cell_length_c     24.871438
_cell_angle_alpha  90.106428
_cell_angle_beta   90.054257
_cell_angle_gamma 89.90242
loop_
_atom_site_label
_atom_site_type_symbol
_atom_site_fract_x
_atom_site_fract_y
_atom_site_fract_z
_atom_type_partial_charge
C0 C 0.04053 0.19378 0.424 0.0
O1 O 0.05528 0.1594 0.4177 0.0
Cd2 Cd 0.0694 0.13027 0.33225 0.0
O3 O 0.03629 0.21719 0.38423 0.0
Cd4 Cd 0.04772 0.21768 0.28534 0.0
C5 C 0.97499 0.14934 0.28464 0.0
O6 O 0.10545 0.17665 0.28025 0.0
O7 O 0.07382 0.18187 0.20595 0.0
O8 O 0.08423 0.27748 0.29816 0.0
C9 C 0.10417 0.16894 0.2304 0.0
O10 O 0.00159 0.12505 0.30005 0.0
C11 C 0.06629 0.29811 0.26317 0.0
O12 O 0.98246 0.18608 0.27769 0.0
O13 O 0.03704 0.28198 0.23936 0.0
C14 C 0.76264 0.00616 0.42165 0.0
O15 O 0.78585 -0.00825 0.38708 0.0
Cd16 Cd 0.75755 0.02274 0.30479 0.0
O17 O 0.73522 0.02828 0.40458 0.0
Cd18 Cd 0.74969 0.02728 0.30622 0.0
C19 C 0.77584 0.94594 0.26267 0.0
O20 O 0.79208 0.08566 0.31281 0.0
O21 O 0.8202 0.04038 0.26644 0.0
O22 O 0.69094 0.0676 0.30079 0.0
C23 C 0.82204 0.07477 0.28659 0.0
O24 O 0.78457 0.97628 0.23527 0.0
C25 C 0.68449 0.06235 0.25115 0.0
O26 O 0.75471 0.95166 0.30386 0.0
O27 O 0.70658 0.03777 0.22643 0.0
C28 C 0.96187 0.77786 0.41707 0.0
O29 O 0.97324 0.7984 0.37768 0.0
Cd30 Cd 0.93658 0.76296 0.30544 0.0
O31 O 0.93941 0.74893 0.40704 0.0
Cd32 Cd 0.93179 0.74781 0.30768 0.0
C33 C 0.00102 0.78851 0.24302 0.0
O34 O 0.87309 0.79077 0.32038 0.0
O35 O 0.88957 0.78708 0.23779 0.0
O36 O 0.90765 0.68312 0.3337 0.0
C37 C 0.8664 0.80154 0.27281 0.0
O38 O 0.96708 0.79 0.22185 0.0
C39 C 0.91912 0.66449 0.29225 0.0
O40 O 0.00376 0.76998 0.28707 0.0
O41 O 0.9346 0.68558 0.25561 0.0
C42 C 0.17565 0.96246 0.39312 0.0
O43 O 0.13882 0.9586 0.38459 0.0
Cd44 Cd 0.10995 0.94208 0.30059 0.0
O45 O 0.20118 0.95526 0.35653 0.0
Cd46 Cd 0.20129 0.92995 0.26145 0.0
C47 C 0.15716 0.0161 0.22861 0.0
O48 O 0.14677 0.88563 0.27357 0.0
O49 O 0.16258 0.89433 0.19068 0.0
O50 O 0.25449 0.88578 0.28594 0.0
C51 C 0.14166 0.87616 0.22498 0.0
O52 O 0.12612 0.00176 0.25002 0.0
C53 C 0.27609 0.89339 0.24559 0.0
O54 O 0.18936 -0.00351 0.2268 0.0
O55 O 0.26393 0.91977 0.21309 0.0
C56 C 0.00878 0.8127 0.63506 0.0
O57 O 0.01407 0.84879 0.64786 0.0
Cd58 Cd 0.03368 0.86627 0.73623 0.0
O59 O 0.01409 0.78471 0.66887 0.0
Cd60 Cd 0.03406 0.76813 0.76323 0.0
C61 C 0.95733 0.82039 0.80982 0.0
O62 O 0.08285 0.81723 0.74878 0.0
O63 O 0.0851 0.7927 0.82842 0.0
O64 O 0.03766 0.70562 0.71331 0.0
C65 C 0.09914 0.81681 0.79439 0.0
O66 O 0.97443 0.84993 0.788 0.0
C67 C 0.0563 0.68684 0.74933 0.0
O68 O 0.97284 0.78593 0.80914 0.0
O69 O 0.0615 0.70482 0.79363 0.0
C70 C 0.18171 0.0191 0.60794 0.0
O71 O 0.14616 0.02688 0.62067 0.0
Cd72 Cd 0.12499 0.04246 0.70972 0.0
O73 O 0.20982 0.0223 0.6419 0.0
Cd74 Cd 0.22029 0.04403 0.73684 0.0
C75 C 0.17 0.96314 0.77545 0.0
O76 O 0.16889 0.09259 0.73858 0.0
O77 O 0.19341 0.07996 0.81674 0.0
O78 O 0.27058 0.08758 0.70427 0.0
C79 C 0.16897 0.09956 0.78852 0.0
O80 O 0.13953 0.98127 0.75786 0.0
C81 C 0.29848 0.07428 0.73322 0.0
O82 O 0.20437 0.97849 0.77272 0.0
O83 O 0.29061 0.04494 0.76343 0.0
C84 C 0.97529 0.19306 0.63436 0.0
O85 O 0.96503 0.15729 0.64195 0.0
Cd86 Cd 0.94402 0.13196 0.72664 0.0
O87 O 0.97133 0.21935 0.6709 0.0
Cd88 Cd 0.94393 0.22696 0.76348 0.0
C89 C 0.02323 0.1721 0.79846 0.0
O90 O 0.89475 0.17673 0.75599 0.0
O91 O 0.90327 0.19771 0.83708 0.0
O92 O 0.90429 0.2798 0.72829 0.0
C93 C 0.88515 0.17469 0.80501 0.0
O94 O 0.00482 0.14324 0.77679 0.0
C95 C 0.9156 0.3063 0.76111 0.0
O96 O 0.00816 0.20678 0.80051 0.0
O97 O 0.94204 0.29646 0.79507 0.0
C98 C 0.79491 0.96876 0.64314 0.0
O99 O 0.83105 0.96147 0.65314 0.0
Cd100 Cd 0.85413 0.94743 0.74142 0.0
O101 O 0.7684 0.96637 0.67948 0.0
Cd102 Cd 0.75765 0.94724 0.77523 0.0
C103 C 0.80947 0.02895 0.8058 0.0
O104 O 0.80884 0.89905 0.77049 0.0
O105 O 0.78695 0.90802 0.85079 0.0
O106 O 0.70527 0.91497 0.72727 0.0
C107 C 0.81053 0.88993 0.81961 0.0
O108 O 0.83874 0.00966 0.78669 0.0
C109 C 0.68134 0.91258 0.7663 0.0
O110 O 0.77472 0.01415 0.80706 0.0
O111 O 0.69116 0.92986 0.80986 0.0
C112 C 0.50058 0.66614 0.86083 0.0
O113 O 0.5005 0.63343 0.83541 0.0
Cd114 Cd 0.52756 0.62536 0.74636 0.0
O115 O 0.51165 0.6981 0.83828 0.0
Cd116 Cd 0.53008 0.7153 0.74554 0.0
C117 C 0.45275 0.66759 0.69099 0.0
O118 O 0.583 0.66733 0.74157 0.0
O119 O 0.56816 0.69285 0.66499 0.0
O120 O 0.56583 0.76688 0.79084 0.0
C121 C 0.5913 0.67113 0.69235 0.0
O122 O 0.48002 0.64382 0.67717 0.0
C123 C 0.55948 0.79372 0.75625 0.0
O124 O 0.46116 0.69665 0.72178 0.0
O125 O 0.53642 0.78523 0.7174 0.0
C126 C 0.29301 0.5437 0.88271 0.0
O127 O 0.32684 0.55619 0.86826 0.0
Cd128 Cd 0.34462 0.5798 0.77987 0.0
O129 O 0.26394 0.54323 0.85008 0.0
Cd130 Cd 0.25186 0.55915 0.75439 0.0
C131 C 0.32174 0.49196 0.71807 0.0
O132 O 0.29201 0.6179 0.74665 0.0
O133 O 0.27304 0.59374 0.67147 0.0
O134 O 0.18996 0.5874 0.78232 0.0
C135 C 0.29349 0.6196 0.69586 0.0
O136 O 0.34589 0.52064 0.72328 0.0
C137 C 0.1689 0.56997 0.74722 0.0
O138 O 0.28566 0.49608 0.73232 0.0
O139 O 0.18627 0.54531 0.71646 0.0
C140 C 0.46107 0.30599 0.86508 0.0
O141 O 0.45387 0.34257 0.85821 0.0
Cd142 Cd 0.43885 0.37133 0.77407 0.0
O143 O 0.45726 0.28082 0.82701 0.0
Cd144 Cd 0.43449 0.27757 0.73104 0.0
C145 C 0.51677 0.32923 0.70088 0.0
O146 O 0.38826 0.33 0.73993 0.0
O147 O 0.39715 0.31319 0.65774 0.0
O148 O 0.39309 0.22327 0.75721 0.0
C149 C 0.37969 0.3357 0.69114 0.0
O150 O 0.50011 0.35845 0.72438 0.0
C151 C 0.40703 0.19825 0.72409 0.0
O152 O 0.49989 0.29557 0.69712 0.0
O153 O 0.43465 0.20994 0.6933 0.0
C154 C 0.6786 0.47842 0.86231 0.0
O155 O 0.64265 0.47199 0.85031 0.0
Cd156 Cd 0.62123 0.4536 0.76251 0.0
O157 O 0.70641 0.47333 0.8283 0.0
Cd158 Cd 0.71875 0.4506 0.73444 0.0
C159 C 0.66728 0.53082 0.69312 0.0
O160 O 0.66716 0.40379 0.73896 0.0
O161 O 0.69121 0.4094 0.65921 0.0
O162 O 0.77028 0.40929 0.77032 0.0
C163 C 0.66651 0.39294 0.69043 0.0
O164 O 0.63694 0.51339 0.71214 0.0
C165 C 0.79795 0.42216 0.74075 0.0
O166 O 0.70158 0.51512 0.69555 0.0
O167 O 0.78928 0.44993 0.70823 0.0
C168 C 0.5208 0.30463 0.07686 0.0
O169 O 0.5271 0.34106 0.08652 0.0
Cd170 Cd 0.54547 0.3656 0.1726 0.0
O171 O 0.52683 0.27802 0.1123 0.0
Cd172 Cd 0.55349 0.27216 0.20542 0.0
C173 C 0.47007 0.31867 0.24353 0.0
O174 O 0.60028 0.32527 0.19615 0.0
O175 O 0.59323 0.30481 0.27751 0.0
O176 O 0.58868 0.21753 0.16401 0.0
C177 C 0.61095 0.32737 0.24472 0.0
O178 O 0.48604 0.3495 0.22354 0.0
C179 C 0.58704 0.19487 0.20458 0.0
O180 O 0.48774 0.28524 0.24305 0.0
O181 O 0.56754 0.20714 0.24505 0.0
C182 C 0.71361 0.52318 0.08079 0.0
O183 O 0.6904 0.51482 0.11883 0.0
Cd184 Cd 0.73188 0.53781 0.19626 0.0
O185 O 0.74613 0.53908 0.09316 0.0
Cd186 Cd 0.7386 0.53936 0.19232 0.0
C187 C 0.70442 0.46565 0.24499 0.0
O188 O 0.71191 0.60638 0.2081 0.0
O189 O 0.67005 0.56135 0.22829 0.0
O190 O 0.80633 0.56197 0.19011 0.0
C191 C 0.67756 0.59801 0.22433 0.0
O192 O 0.707 0.4968 0.27323 0.0
C193 C 0.81615 0.55074 0.23692 0.0
O194 O 0.71861 0.46729 0.19806 0.0
O195 O 0.78933 0.53385 0.26441 0.0
C196 C 0.45813 0.65856 0.08492 0.0
O197 O 0.4556 0.62333 0.10246 0.0
Cd198 Cd 0.44887 0.60922 0.1953 0.0
O199 O 0.45443 0.68845 0.11618 0.0
Cd200 Cd 0.44017 0.70416 0.21283 0.0
C201 C 0.52938 0.66586 0.23796 0.0
O202 O 0.39531 0.65002 0.22236 0.0
O203 O 0.413 0.67569 0.29793 0.0
O204 O 0.3972 0.75302 0.17239 0.0
C205 C 0.39118 0.65141 0.27274 0.0
O206 O 0.51258 0.63285 0.22808 0.0
C207 C 0.39906 0.77765 0.2109 0.0
O208 O 0.51044 0.69849 0.23515 0.0
O209 O 0.42344 0.77015 0.24849 0.0
C210 C 0.29719 0.47348 0.09274 0.0
O211 O 0.33308 0.4651 0.10283 0.0
Cd212 Cd 0.35857 0.43846 0.1844 0.0
O213 O 0.26962 0.46647 0.12656 0.0
Cd214 Cd 0.26237 0.43629 0.21857 0.0
C215 C 0.3189 0.51037 0.26939 0.0
O216 O 0.31331 0.38823 0.20688 0.0
O217 O 0.29306 0.39274 0.28857 0.0
O218 O 0.20585 0.39496 0.1972 0.0
C219 C 0.31641 0.37675 0.25499 0.0
O220 O 0.34801 0.49393 0.24552 0.0
C221 C 0.18195 0.41174 0.22941 0.0
O222 O 0.28419 0.4959 0.26625 0.0
O223 O 0.19483 0.44183 0.2547 0.0
C224 C 0.11573 0.11006 0.16893 0.0
C225 C 0.12993 0.13682 0.20834 0.0
C226 C 0.17666 0.08722 0.2413 0.0
C227 C 0.15584 0.05801 0.21117 0.0
N228 N 0.1104 0.04128 0.14013 0.0
N229 N 0.18656 0.15747 0.25902 0.0
C230 C 0.12738 0.06952 0.17212 0.0
C231 C 0.16491 0.12748 0.23671 0.0
N232 N 0.09273 0.12373 0.1278 0.0
N233 N 0.20483 0.07631 0.27792 0.0
H234 H 0.17844 0.18717 0.25413 0.0
H235 H 0.21416 0.15342 0.27683 0.0
H236 H 0.21498 0.04734 0.28232 0.0
H237 H 0.2169 0.09573 0.30607 0.0
H238 H 0.08272 0.10614 0.0962 0.0
H239 H 0.08799 0.15396 0.12166 0.0
H240 H 0.08619 0.04652 0.11523 0.0
H241 H 0.12024 0.01189 0.13976 0.0
C242 C 0.91198 0.13124 0.23627 0.0
C243 C 0.9336 0.1352 0.28487 0.0
C244 C 0.88136 0.10077 0.33449 0.0
C245 C 0.85909 0.09785 0.28631 0.0
N246 N 0.84911 0.11565 0.19358 0.0
N247 N 0.93564 0.13188 0.38182 0.0
C248 C 0.87317 0.11477 0.23777 0.0
C249 C 0.91718 0.12253 0.33448 0.0
N250 N 0.9292 0.14161 0.18863 0.0
N251 N 0.86944 0.08088 0.3796 0.0
H252 H 0.96242 0.14711 0.38361 0.0
H253 H 0.92281 0.12768 0.41943 0.0
H254 H 0.84337 0.06444 0.38163 0.0
H255 H 0.88693 0.07787 0.41385 0.0
H256 H 0.91687 0.13545 0.15118 0.0
H257 H 0.95726 0.15436 0.18641 0.0
H258 H 0.85595 0.13086 0.15842 0.0
H259 H 0.82064 0.10367 0.19357 0.0
C260 C 0.78208 0.87324 0.24023 0.0
C261 C 0.79953 0.90918 0.25812 0.0
C262 C 0.86228 0.87484 0.2747 0.0
C263 C 0.8437 0.83823 0.26259 0.0
N264 N 0.78622 0.80112 0.23591 0.0
N265 N 0.85418 0.94332 0.30082 0.0
C266 C 0.80368 0.83698 0.2455 0.0
C267 C 0.83921 0.90986 0.27707 0.0
N268 N 0.74516 0.87406 0.2178 0.0
N269 N 0.9022 0.87617 0.28399 0.0
H270 H 0.8385 0.96981 0.30429 0.0
H271 H 0.88095 0.94397 0.32158 0.0
H272 H 0.92012 0.85098 0.28513 0.0
H273 H 0.91822 0.9025 0.28612 0.0
H274 H 0.73179 0.84965 0.19975 0.0
H275 H 0.72886 0.90024 0.21396 0.0
H276 H 0.75613 0.79751 0.22852 0.0
H277 H 0.80183 0.77441 0.23798 0.0
C278 C 0.03458 0.85106 0.21049 0.0
C279 C 0.03586 0.8094 0.22025 0.0
C280 C 0.10831 0.81048 0.21648 0.0
C281 C 0.1069 0.85216 0.20996 0.0
N282 N 0.07034 0.91035 0.18415 0.0
N283 N 0.07237 0.74817 0.21498 0.0
C284 C 0.07049 0.87172 0.20082 0.0
C285 C 0.07236 0.78868 0.21731 0.0
N286 N -0.00018 0.87163 0.21485 0.0
N287 N 0.14395 0.79212 0.22409 0.0
H288 H 0.04623 0.7317 0.21417 0.0
H289 H 0.09772 0.73122 0.20857 0.0
H290 H 0.17079 0.8072 0.22094 0.0
H291 H 0.14688 0.76258 0.2356 0.0
H292 H -0.00176 0.90247 0.21604 0.0
H293 H 0.97245 0.85836 0.22045 0.0
H294 H 0.04493 0.92521 0.17158 0.0
H295 H 0.09627 0.92644 0.1779 0.0
C296 C 0.11463 0.8811 0.84072 0.0
C297 C 0.12721 0.8487 0.80849 0.0
C298 C 0.17904 0.88931 0.76792 0.0
C299 C 0.16419 0.9226 0.79663 0.0
N300 N 0.12854 0.94773 0.87293 0.0
N301 N 0.17861 0.81766 0.75683 0.0
C302 C 0.13574 0.91741 0.83774 0.0
C303 C 0.16224 0.85142 0.77768 0.0
N304 N 0.08087 0.87829 0.87067 0.0
N305 N 0.20664 0.89426 0.72837 0.0
H306 H 0.16639 0.7897 0.76383 0.0
H307 H 0.20592 0.81694 0.73749 0.0
H308 H 0.22041 0.92125 0.72063 0.0
H309 H 0.21458 0.87198 0.70138 0.0
H310 H 0.06742 0.90251 0.88926 0.0
H311 H 0.06511 0.85197 0.87503 0.0
H312 H 0.11039 0.94501 0.90653 0.0
H313 H 0.14404 0.97448 0.87115 0.0
C314 C 0.13443 0.16422 0.79059 0.0
C315 C 0.13791 0.12543 0.81163 0.0
C316 C 0.07126 0.13105 0.84908 0.0
C317 C 0.06449 0.16448 0.81591 0.0
N318 N 0.09044 0.21475 0.75616 0.0
N319 N 0.11039 0.07184 0.864 0.0
C320 C 0.09657 0.18247 0.78829 0.0
C321 C 0.10701 0.1092 0.84327 0.0
N322 N 0.1674 0.18301 0.77175 0.0
N323 N 0.04278 0.11984 0.88485 0.0
H324 H 0.13627 0.05513 0.86165 0.0
H325 H 0.08689 0.05658 0.88135 0.0
H326 H 0.01644 0.13579 0.88928 0.0
H327 H 0.04684 0.09755 0.91329 0.0
H328 H 0.16765 0.21263 0.75991 0.0
H329 H 0.19539 0.16985 0.77333 0.0
H330 H 0.1115 0.2254 0.72929 0.0
H331 H 0.06369 0.22999 0.75415 0.0
C332 C 0.82069 0.14012 0.79709 0.0
C333 C 0.85793 0.14298 0.82299 0.0
C334 C 0.84867 0.07641 0.85986 0.0
C335 C 0.81727 0.07026 0.82309 0.0
N336 N 0.77179 0.0967 0.75719 0.0
N337 N 0.90784 0.11376 0.88052 0.0
C338 C 0.80196 0.10253 0.79294 0.0
C339 C 0.87162 0.11157 0.8562 0.0
N340 N 0.80374 0.1734 0.77581 0.0
N341 N 0.85699 0.04787 0.89713 0.0
H342 H 0.92568 0.13887 0.87936 0.0
H343 H 0.92135 0.08971 0.89936 0.0
H344 H 0.84027 0.02192 0.90005 0.0
H345 H 0.87745 0.05167 0.92805 0.0
H346 H 0.77511 0.17408 0.76027 0.0
H347 H 0.81703 0.20126 0.77883 0.0
H348 H 0.76313 0.11781 0.72898 0.0
H349 H 0.75654 0.07001 0.75373 0.0
C350 C 0.8756 0.88077 0.86687 0.0
C351 C 0.84304 0.86425 0.8387 0.0
C352 C 0.88374 0.80862 0.80823 0.0
C353 C 0.91723 0.82712 0.83209 0.0
N354 N 0.9427 0.8712 0.89965 0.0
N355 N 0.81206 0.80668 0.80073 0.0
C356 C 0.9121 0.85983 0.86722 0.0
C357 C 0.84583 0.82588 0.81601 0.0
N358 N 0.87271 0.91765 0.88942 0.0
N359 N 0.88827 0.77688 0.77451 0.0
H360 H 0.78408 0.81923 0.80636 0.0
H361 H 0.81151 0.77727 0.78785 0.0
H362 H 0.91512 0.76243 0.76841 0.0
H363 H 0.86558 0.76587 0.75042 0.0
H364 H 0.89692 0.9333 0.90427 0.0
H365 H 0.84628 0.93353 0.89118 0.0
H366 H 0.94013 0.89294 0.92926 0.0
H367 H 0.96958 0.85586 0.90021 0.0
C368 C 0.60854 0.6125 0.63408 0.0
C369 C 0.62085 0.64383 0.66842 0.0
C370 C 0.67712 0.60452 0.69978 0.0
C371 C 0.6614 0.57137 0.67177 0.0
N372 N 0.62315 0.54707 0.59753 0.0
N373 N 0.674 0.67569 0.71531 0.0
C374 C 0.63098 0.57679 0.63335 0.0
C375 C 0.65805 0.64185 0.69432 0.0
N376 N 0.57408 0.61558 0.60567 0.0
N377 N 0.70778 0.59975 0.73504 0.0
H378 H 0.65976 0.70307 0.7116 0.0
H379 H 0.70242 0.6773 0.73137 0.0
H380 H 0.72352 0.57335 0.73887 0.0
H381 H 0.71685 0.62164 0.76193 0.0
H382 H 0.56072 0.59178 0.5861 0.0
H383 H 0.5583 0.64199 0.60226 0.0
H384 H 0.60327 0.54978 0.56574 0.0
H385 H 0.63964 0.52082 0.59702 0.0
C386 C 0.39892 0.61699 0.67133 0.0
C387 C 0.41061 0.65739 0.67856 0.0
C388 C 0.34036 0.67603 0.68038 0.0
C389 C 0.32988 0.63597 0.67103 0.0
N390 N 0.35057 0.57448 0.62958 0.0
N391 N 0.39097 0.72628 0.67002 0.0
C392 C 0.35964 0.60881 0.65587 0.0
C393 C 0.38087 0.68741 0.67661 0.0
N394 N 0.42303 0.58595 0.68491 0.0
N395 N 0.31178 0.70286 0.69389 0.0
H396 H 0.42 0.73528 0.66292 0.0
H397 H 0.37006 0.74874 0.66502 0.0
H398 H 0.28179 0.69542 0.69401 0.0
H399 H 0.31817 0.73156 0.70692 0.0
H400 H 0.41379 0.5565 0.68223 0.0
H401 H 0.449 0.58896 0.707 0.0
H402 H 0.37236 0.55485 0.61616 0.0
H403 H 0.3223 0.56848 0.61501 0.0
C404 C 0.37801 0.44259 0.70536 0.0
C405 C 0.33709 0.45255 0.69919 0.0
C406 C 0.32448 0.38365 0.67159 0.0
C407 C 0.36537 0.37549 0.67566 0.0
N408 N 0.43112 0.40189 0.67088 0.0
N409 N 0.27532 0.43453 0.65545 0.0
C410 C 0.39206 0.40698 0.68252 0.0
C411 C 0.31132 0.42374 0.67566 0.0
N412 N 0.4028 0.4638 0.73797 0.0
N413 N 0.29834 0.35327 0.66486 0.0
H414 H 0.26635 0.46403 0.65234 0.0
H415 H 0.25687 0.41471 0.63527 0.0
H416 H 0.30773 0.32401 0.65938 0.0
H417 H 0.26778 0.35716 0.66727 0.0
H418 H 0.43211 0.45536 0.74467 0.0
H419 H 0.39318 0.48512 0.7653 0.0
H420 H 0.4515 0.42508 0.67284 0.0
H421 H 0.44165 0.37555 0.65401 0.0
C422 C 0.62862 0.33071 0.69574 0.0
C423 C 0.63318 0.36835 0.67156 0.0
C424 C 0.56373 0.36717 0.64421 0.0
C425 C 0.55733 0.33525 0.68008 0.0
N426 N 0.58389 0.28479 0.73901 0.0
N427 N 0.60578 0.42239 0.61989 0.0
C428 C 0.58995 0.31561 0.70436 0.0
C429 C 0.60122 0.38612 0.6435 0.0
N430 N 0.66147 0.31021 0.71173 0.0
N431 N 0.53362 0.37948 0.61158 0.0
H432 H 0.63302 0.43665 0.61708 0.0
H433 H 0.58225 0.43916 0.60517 0.0
H434 H 0.50621 0.36524 0.61111 0.0
H435 H 0.53704 0.40068 0.58155 0.0
H436 H 0.66067 0.28117 0.72589 0.0
H437 H 0.68999 0.32123 0.70558 0.0
H438 H 0.60606 0.27285 0.76319 0.0
H439 H 0.5562 0.2723 0.74589 0.0
C440 C 0.70156 0.39239 0.25775 0.0
C441 C 0.68267 0.4298 0.26274 0.0
C442 C 0.61921 0.39645 0.27846 0.0
C443 C 0.63678 0.36017 0.26246 0.0
N444 N 0.69448 0.32198 0.23921 0.0
N445 N 0.62278 0.46806 0.27687 0.0
C446 C 0.67809 0.35754 0.25362 0.0
C447 C 0.64146 0.43207 0.27434 0.0
N448 N 0.74196 0.39048 0.25718 0.0
N449 N 0.58096 0.3969 0.29633 0.0
H450 H 0.63744 0.4951 0.2748 0.0
H451 H 0.59214 0.47132 0.27769 0.0
H452 H 0.5636 0.3714 0.29843 0.0
H453 H 0.56764 0.42166 0.31372 0.0
H454 H 0.75788 0.36402 0.25786 0.0
H455 H 0.75962 0.41571 0.26116 0.0
H456 H 0.7235 0.31877 0.22585 0.0
H457 H 0.67828 0.29564 0.23862 0.0
C458 C 0.59775 0.67607 0.20418 0.0
C459 C 0.57263 0.6649 0.24703 0.0
C460 C 0.62619 0.62528 0.2858 0.0
C461 C 0.64682 0.6281 0.23634 0.0
N462 N 0.65266 0.6568 0.14753 0.0
N463 N 0.56357 0.63337 0.33255 0.0
C464 C 0.63346 0.65462 0.19579 0.0
C465 C 0.58747 0.64151 0.28972 0.0
N466 N 0.58688 0.70624 0.1707 0.0
N467 N 0.6437 0.60682 0.32852 0.0
H468 H 0.53593 0.64686 0.33724 0.0
H469 H 0.57045 0.6127 0.36218 0.0
H470 H 0.6724 0.59536 0.32649 0.0
H471 H 0.63152 0.60606 0.36693 0.0
H472 H 0.60544 0.71788 0.14129 0.0
H473 H 0.56098 0.72254 0.17623 0.0
H474 H 0.64116 0.67151 0.11418 0.0
H475 H 0.6789 0.64181 0.13921 0.0
C476 C 0.32587 0.62081 0.28593 0.0
C477 C 0.36645 0.62132 0.29939 0.0
C478 C 0.36248 0.55191 0.32597 0.0
C479 C 0.32661 0.54878 0.29681 0.0
N480 N 0.26973 0.5816 0.25741 0.0
N481 N 0.42293 0.58928 0.33959 0.0
C482 C 0.30622 0.58378 0.28086 0.0
C483 C 0.38434 0.58777 0.3234 0.0
N484 N 0.30681 0.65592 0.27704 0.0
N485 N 0.37587 0.51992 0.35423 0.0
H486 H 0.4392 0.61553 0.33972 0.0
H487 H 0.43911 0.56442 0.35121 0.0
H488 H 0.35949 0.49372 0.35638 0.0
H489 H 0.40059 0.52067 0.37923 0.0
H490 H 0.27646 0.65837 0.27056 0.0
H491 H 0.3213 0.68304 0.28182 0.0
H492 H 0.25635 0.60532 0.2377 0.0
H493 H 0.25263 0.556 0.25724 0.0
C494 C 0.35801 0.31676 0.24457 0.0
C495 C 0.35168 0.35342 0.27099 0.0
C496 C 0.42074 0.35319 0.3008 0.0
C497 C 0.4289 0.32256 0.26338 0.0
N498 N 0.40495 0.27403 0.19935 0.0
N499 N 0.37708 0.40702 0.32586 0.0
C500 C 0.39734 0.30312 0.23628 0.0
C501 C 0.38274 0.3713 0.30095 0.0
N502 N 0.32623 0.29558 0.22648 0.0
N503 N 0.4498 0.36531 0.33529 0.0
H504 H 0.34972 0.42111 0.32815 0.0
H505 H 0.40008 0.42382 0.34194 0.0
H506 H 0.4778 0.35213 0.33565 0.0
H507 H 0.44498 0.38525 0.36667 0.0
H508 H 0.32845 0.26698 0.21084 0.0
H509 H 0.29718 0.30529 0.2324 0.0
H510 H 0.38358 0.26276 0.17331 0.0
H511 H 0.43308 0.26254 0.19228 0.0
C512 C 0.09307 0.36208 0.29504 0.0
C513 C 0.08127 0.33847 0.25085 0.0
C514 C 0.12121 0.38031 0.19187 0.0
C515 C 0.14162 0.39507 0.23757 0.0
N516 N 0.14559 0.40044 0.33495 0.0
N517 N 0.08173 0.32711 0.15476 0.0
C518 C 0.12653 0.38719 0.28991 0.0
C519 C 0.0937 0.34881 0.19822 0.0
N520 N 0.07272 0.35941 0.3423 0.0
N521 N 0.1284 0.39645 0.14251 0.0
H522 H 0.06028 0.30509 0.1568 0.0
H523 H 0.09434 0.33001 0.11676 0.0
H524 H 0.14772 0.42029 0.13737 0.0
H525 H 0.11217 0.38924 0.10823 0.0
H526 H 0.07767 0.37822 0.37492 0.0
H527 H 0.04798 0.34111 0.34629 0.0
H528 H 0.13845 0.39084 0.37353 0.0
H529 H 0.17008 0.41901 0.33446 0.0
C530 C 0.6736 0.12284 0.19715 0.0
C531 C 0.65709 0.08947 0.2232 0.0
C532 C 0.59202 0.12165 0.22263 0.0
C533 C 0.6103 0.15762 0.20658 0.0
N534 N 0.67048 0.19389 0.18693 0.0
N535 N 0.60088 0.05599 0.26094 0.0
C536 C 0.6515 0.15855 0.19502 0.0
C537 C 0.6162 0.08839 0.23551 0.0
N538 N 0.71095 0.12095 0.17624 0.0
N539 N 0.55169 0.11916 0.2246 0.0
H540 H 0.61757 0.0304 0.26787 0.0
H541 H 0.57244 0.05512 0.27697 0.0
H542 H 0.53324 0.14281 0.21427 0.0
H543 H 0.53654 0.09279 0.23158 0.0
H544 H 0.72294 0.14327 0.15237 0.0
H545 H 0.72839 0.09547 0.17787 0.0
H546 H 0.70115 0.19639 0.18443 0.0
H547 H 0.65646 0.22139 0.18862 0.0
C548 C 0.88588 0.57165 0.22131 0.0
C549 C 0.85575 0.56194 0.25868 0.0
C550 C 0.88999 0.60098 0.32696 0.0
C551 C 0.90931 0.62155 0.28486 0.0
N552 N 0.94129 0.61456 0.19884 0.0
N553 N 0.8383 0.55488 0.35237 0.0
C554 C 0.91268 0.6028 0.23402 0.0
C555 C 0.86106 0.57203 0.31361 0.0
N556 N 0.88844 0.55066 0.17442 0.0
N557 N 0.9008 0.60807 0.37899 0.0
H558 H 0.8222 0.52904 0.34549 0.0
H559 H 0.83646 0.56544 0.39165 0.0
H560 H 0.92465 0.62646 0.38846 0.0
H561 H 0.88962 0.59258 0.41177 0.0
H562 H 0.90989 0.55516 0.14512 0.0
H563 H 0.87018 0.52628 0.16696 0.0
H564 H 0.94296 0.60533 0.15899 0.0
H565 H 0.96492 0.63235 0.21092 0.0
C566 C 0.34876 0.87748 0.23658 0.0
C567 C 0.30858 0.86614 0.2312 0.0
C568 C 0.328 0.79742 0.21526 0.0
C569 C 0.36847 0.80883 0.21676 0.0
N570 N 0.4177 0.86043 0.22054 0.0
N571 N 0.26037 0.8182 0.2013 0.0
C572 C 0.37904 0.84915 0.22508 0.0
C573 C 0.29839 0.82702 0.21595 0.0
N574 N 0.35784 0.91481 0.25408 0.0
N575 N 0.31755 0.75823 0.21679 0.0
H576 H 0.23773 0.83929 0.20067 0.0
H577 H 0.25224 0.79108 0.18445 0.0
H578 H 0.33795 0.7351 0.21919 0.0
H579 H 0.28846 0.7487 0.22177 0.0
H580 H 0.38634 0.9237 0.26442 0.0
H581 H 0.33625 0.93633 0.26137 0.0
H582 H 0.42691 0.88989 0.22116 0.0
H583 H 0.44037 0.8404 0.21178 0.0
C584 C 0.11865 0.60301 0.6902 0.0
C585 C 0.12762 0.58334 0.73873 0.0
C586 C 0.07358 0.61912 0.7826 0.0
C587 C 0.07391 0.647 0.73987 0.0
N588 N 0.09895 0.66526 0.65133 0.0
N589 N 0.10976 0.56729 0.8294 0.0
C590 C 0.09606 0.63846 0.69235 0.0
C591 C 0.1032 0.58921 0.78417 0.0
N592 N 0.13274 0.58868 0.64257 0.0
N593 N 0.04508 0.62149 0.82137 0.0
H594 H 0.12997 0.54379 0.82985 0.0
H595 H 0.0963 0.57313 0.86623 0.0
H596 H 0.02231 0.64243 0.81976 0.0
H597 H 0.04167 0.60045 0.85161 0.0
H598 H 0.12463 0.60049 0.60545 0.0
H599 H 0.14809 0.56192 0.63991 0.0
H600 H 0.11877 0.66184 0.61957 0.0
H601 H 0.08457 0.69249 0.65034 0.0
C602 C 0.37557 0.14015 0.67594 0.0
C603 C 0.39133 0.15726 0.72351 0.0
C604 C 0.35563 0.10921 0.7788 0.0
C605 C 0.33763 0.09399 0.73144 0.0
N606 N 0.3425 0.08344 0.63605 0.0
N607 N 0.40932 0.14812 0.81628 0.0
C608 C 0.35204 0.10548 0.68032 0.0
C609 C 0.38581 0.13817 0.77364 0.0
N610 N 0.38019 0.15835 0.62732 0.0
N611 N 0.34218 0.0987 0.82854 0.0
H612 H 0.43214 0.16883 0.81293 0.0
H613 H 0.40904 0.13291 0.8527 0.0
H614 H 0.32093 0.07698 0.83502 0.0
H615 H 0.35077 0.1132 0.86369 0.0
H616 H 0.36503 0.1496 0.59281 0.0
H617 H 0.39716 0.18374 0.62179 0.0
H618 H 0.35464 0.08838 0.59817 0.0
H619 H 0.3257 0.05754 0.63886 0.0
C620 C 0.89068 0.36298 0.70733 0.0
C621 C 0.89723 0.3463 0.75883 0.0
C622 C 0.85261 0.39595 0.79728 0.0
C623 C 0.838 0.40426 0.74505 0.0
N624 N 0.8439 0.39545 0.6486 0.0
N625 N 0.88431 0.34774 0.85469 0.0
C626 C 0.85786 0.38865 0.69933 0.0
C627 C 0.87906 0.36365 0.8047 0.0
N628 N 0.91567 0.35369 0.66603 0.0
N629 N 0.84075 0.41882 0.83972 0.0
H630 H 0.9036 0.32446 0.86283 0.0
H631 H 0.86752 0.35622 0.8879 0.0
H632 H 0.82195 0.44318 0.83483 0.0
H633 H 0.85287 0.41636 0.87811 0.0
H634 H 0.91444 0.36742 0.62856 0.0
H635 H 0.94033 0.3354 0.67146 0.0
H636 H 0.85446 0.38044 0.61486 0.0
H637 H 0.82015 0.41405 0.64008 0.0
C638 C 0.60874 0.89468 0.77544 0.0
C639 C 0.64842 0.88368 0.76366 0.0
C640 C 0.62629 0.81806 0.73488 0.0
C641 C 0.5876 0.82704 0.75286 0.0
N642 N 0.54168 0.87228 0.79422 0.0
N643 N 0.69576 0.83111 0.74647 0.0
C644 C 0.5786 0.865 0.77423 0.0
C645 C 0.65744 0.84436 0.7471 0.0
N646 N 0.59978 0.9334 0.78621 0.0
N647 N 0.63337 0.78426 0.70591 0.0
H648 H 0.7197 0.84831 0.75895 0.0
H649 H 0.70335 0.80152 0.73984 0.0
H650 H 0.6112 0.76404 0.69591 0.0
H651 H 0.66034 0.7785 0.68712 0.0
H652 H 0.57095 0.94395 0.79017 0.0
H653 H 0.6212 0.95564 0.78725 0.0
H654 H 0.5343 0.89788 0.8155 0.0
H655 H 0.5189 0.85146 0.7919 0.0
C656 C 0.05132 0.19986 0.52287 0.0
C657 C 0.02572 0.20492 0.47816 0.0
C658 C 0.97001 0.21644 0.53962 0.0
C659 C -0.00601 0.20348 0.58275 0.0
N660 N 0.05762 0.18398 0.61765 0.0
N661 N 0.95979 0.2178 0.44349 0.0
C662 C 0.03489 0.19603 0.57516 0.0
C663 C 0.98495 0.21412 0.48629 0.0
N664 N 0.09135 0.19928 0.51505 0.0
N665 N 0.93285 0.23069 0.54979 0.0
H666 H 0.96889 0.21727 0.40358 0.0
H667 H 0.92912 0.21884 0.44729 0.0
H668 H 0.92104 0.23213 0.58851 0.0
H669 H 0.91525 0.24443 0.5209 0.0
H670 H 0.11193 0.19898 0.54622 0.0
H671 H 0.10405 0.20306 0.47716 0.0
H672 H 0.08648 0.1735 0.61375 0.0
H673 H 0.04688 0.1827 0.65693 0.0
C674 C 0.76492 0.95075 0.55453 0.0
C675 C 0.78343 0.97951 0.5878 0.0
C676 C 0.78322 0.02754 0.51382 0.0
C677 C 0.7678 -0.00233 0.4794 0.0
N678 N 0.7458 0.93054 0.46443 0.0
N679 N 0.81174 0.04442 0.60065 0.0
C680 C 0.75901 0.9592 0.49911 0.0
C681 C 0.79286 0.01778 0.56791 0.0
N682 N 0.75278 0.9155 0.57614 0.0
N683 N 0.78858 0.06519 0.49464 0.0
H684 H 0.81717 0.03911 0.64131 0.0
H685 H 0.8237 0.07109 0.58747 0.0
H686 H 0.78369 0.07298 0.45463 0.0
H687 H 0.79578 0.08944 0.51861 0.0
H688 H 0.73524 0.89501 0.55588 0.0
H689 H 0.75811 0.90754 0.61599 0.0
H690 H 0.74342 0.90067 0.47435 0.0
H691 H 0.73893 0.93621 0.42427 0.0
C692 C 0.02427 0.78558 0.54381 0.0
C693 C -0.00348 0.80305 0.5796 0.0
C694 C 0.94564 0.80272 0.5092 0.0
C695 C 0.974 0.78722 0.47266 0.0
N696 N 0.04082 0.76705 0.45214 0.0
N697 N 0.93208 0.83101 0.59719 0.0
C698 C 0.01351 0.77958 0.4891 0.0
C699 C 0.95753 0.81242 0.5625 0.0
N700 N 0.06072 0.7743 0.56241 0.0
N701 N 0.90725 0.80775 0.49292 0.0
H702 H 0.93882 0.83629 0.63751 0.0
H703 H 0.90493 0.84298 0.58589 0.0
H704 H 0.89794 0.80339 0.45336 0.0
H705 H 0.88399 0.81444 0.51877 0.0
H706 H 0.08065 0.7572 0.54047 0.0
H707 H 0.0705 0.78007 0.60142 0.0
H708 H 0.07106 0.76536 0.45966 0.0
H709 H 0.03365 0.76033 0.41236 0.0
C710 C 0.18601 0.03363 0.50995 0.0
C711 C 0.19007 0.00596 0.55242 0.0
C712 C 0.19892 0.95197 0.48731 0.0
C713 C 0.18807 0.97849 0.44572 0.0
N714 N 0.17269 0.04452 0.41517 0.0
N715 N 0.20066 0.93899 0.58329 0.0
C716 C 0.1826 0.0195 0.4563 0.0
C717 C 0.19745 0.96523 0.54163 0.0
N718 N 0.18581 0.07336 0.52123 0.0
N719 N 0.21013 0.91411 0.47465 0.0
H720 H 0.20046 0.94778 0.62351 0.0
H721 H 0.20143 0.90833 0.57841 0.0
H722 H 0.21094 0.90369 0.43513 0.0
H723 H 0.22172 0.89413 0.50238 0.0
H724 H 0.1863 0.09541 0.49202 0.0
H725 H 0.18853 0.08439 0.5603 0.0
H726 H 0.16358 0.07375 0.42067 0.0
H727 H 0.17208 0.03543 0.37504 0.0
C728 C 0.4492 0.65816 0.93244 0.0
C729 C 0.48886 0.66686 0.91803 0.0
C730 C 0.50618 0.67695 0.01283 0.0
C731 C 0.46756 0.66449 0.02752 0.0
N732 N 0.4028 0.64051 0.00284 0.0
N733 N 0.55657 0.67958 0.9436 0.0
C734 C 0.43917 0.65432 0.98771 0.0
C735 C 0.5177 0.67536 0.95793 0.0
N736 N 0.42092 0.65496 0.89327 0.0
N737 N 0.53201 0.68988 0.05144 0.0
H738 H 0.56635 0.67831 0.90388 0.0
H739 H 0.57974 0.68113 0.97111 0.0
H740 H 0.5257 0.68922 0.09242 0.0
H741 H 0.55876 0.70378 0.04287 0.0
H742 H 0.39076 0.65265 0.90112 0.0
H743 H 0.42721 0.65782 0.8524 0.0
H744 H 0.38261 0.62785 0.97627 0.0
H745 H 0.39344 0.63978 0.04278 0.0
C746 C 0.27805 0.48656 0.94429 0.0
C747 C 0.28816 0.52721 0.93752 0.0
C748 C 0.299 0.53391 0.03461 0.0
C749 C 0.28832 0.49351 0.04128 0.0
N750 N 0.25919 0.43391 0.00557 0.0
N751 N 0.29958 0.59169 0.9765 0.0
C752 C 0.27476 0.47077 0.99707 0.0
C753 C 0.29601 0.55157 0.98287 0.0
N754 N 0.27439 0.46231 0.90039 0.0
N755 N 0.31289 0.55508 0.07762 0.0
H756 H 0.297 0.60558 0.9392 0.0
H757 H 0.30164 0.61161 0.00841 0.0
H758 H 0.31309 0.54389 0.11673 0.0
H759 H 0.32596 0.58292 0.07431 0.0
H760 H 0.2716 0.43162 0.90298 0.0
H761 H 0.27755 0.47218 0.86095 0.0
H762 H 0.24503 0.41747 0.97575 0.0
H763 H 0.25724 0.42119 0.04368 0.0
C764 C 0.53094 0.28619 0.98082 0.0
C765 C 0.5046 0.29362 0.02392 0.0
C766 C 0.44836 0.29342 0.9619 0.0
C767 C 0.47534 0.29337 0.91839 0.0
N768 N 0.54195 0.28849 0.88442 0.0
N769 N 0.43841 0.30227 0.05789 0.0
C770 C 0.51655 0.2885 0.92719 0.0
C771 C 0.46319 0.29594 0.01526 0.0
N772 N 0.56965 0.2773 0.99146 0.0
N773 N 0.40867 0.29107 0.95174 0.0
H774 H 0.44831 0.30255 0.09765 0.0
H775 H 0.40843 0.30879 0.05407 0.0
H776 H 0.39737 0.28891 0.91277 0.0
H777 H 0.38725 0.28786 0.98145 0.0
H778 H 0.58983 0.26827 0.9623 0.0
H779 H 0.58082 0.27576 0.03054 0.0
H780 H 0.5726 0.28983 0.88808 0.0
H781 H 0.53221 0.28891 0.84462 0.0
C782 C 0.68189 0.53009 0.93447 0.0
C783 C 0.68847 0.49034 0.91775 0.0
C784 C 0.70919 0.47187 0.00872 0.0
C785 C 0.70456 0.51202 0.02482 0.0
N786 N 0.69058 0.58036 0.00366 0.0
N787 N 0.71248 0.42423 0.93559 0.0
C788 C 0.69211 0.54149 0.98781 0.0
C789 C 0.70336 0.46145 0.95393 0.0
N790 N 0.66537 0.55666 0.89946 0.0
N791 N 0.71856 0.4436 0.04609 0.0
H792 H 0.70704 0.41491 0.89627 0.0
H793 H 0.72776 0.40319 0.95809 0.0
H794 H 0.72503 0.45025 0.0861 0.0
H795 H 0.71767 0.41323 0.03859 0.0
H796 H 0.65567 0.58484 0.91046 0.0
H797 H 0.65929 0.54982 0.85937 0.0
H798 H 0.68589 0.60396 0.97752 0.0
H799 H 0.69622 0.58947 0.04304 0.0
loop_
_geom_bond_atom_site_label_1
_geom_bond_atom_site_label_2
_geom_bond_distance
_geom_bond_site_symmetry_2
_ccdc_geom_bond_type
C0 O1 1.306 . S
C0 O3 1.160 . S
O1 C0 1.306 . S
O1 Cd2 2.228 . S
Cd2 O1 2.228 . S
Cd2 O6 2.273 . S
Cd2 O10 2.277 1_455 S
O3 C0 1.160 . S
O3 Cd4 2.203 . S
Cd4 O3 2.203 . S
Cd4 O6 2.411 . S
Cd4 O7 2.333 . S
Cd4 O8 2.352 . S
Cd4 O12 2.277 1_455 S
Cd4 O13 2.356 . S
C5 O10 1.209 . S
C5 O12 1.226 . S
O6 Cd2 2.273 . S
O6 Cd4 2.411 . S
O6 C9 1.320 . S
O7 Cd4 2.333 . S
O7 C9 1.214 . S
O8 Cd4 2.352 . S
O8 C11 1.258 . S
C9 O6 1.320 . S
C9 O7 1.214 . S
O10 Cd2 2.277 1_655 S
O10 C5 1.209 . S
C11 O8 1.258 . S
C11 O13 1.282 . S
O12 Cd4 2.277 1_655 S
O12 C5 1.226 . S
O13 Cd4 2.356 . S
O13 C11 1.282 . S
C14 O15 1.306 . S
C14 O17 1.160 . S
O15 C14 1.306 . S
O15 Cd16 2.228 . S
Cd16 O15 2.228 . S
Cd16 O20 2.273 . S
Cd16 O24 2.277 1_545 S
O17 C14 1.160 . S
O17 Cd18 2.203 . S
Cd18 O17 2.203 . S
Cd18 O20 2.411 . S
Cd18 O21 2.333 . S
Cd18 O22 2.352 . S
Cd18 O26 2.277 1_545 S
Cd18 O27 2.356 . S
C19 O24 1.209 . S
C19 O26 1.226 . S
O20 Cd16 2.273 . S
O20 Cd18 2.411 . S
O20 C23 1.320 . S
O21 Cd18 2.333 . S
O21 C23 1.214 . S
O22 Cd18 2.352 . S
O22 C25 1.258 . S
C23 O20 1.320 . S
C23 O21 1.214 . S
O24 Cd16 2.277 1_565 S
O24 C19 1.209 . S
C25 O22 1.258 . S
C25 O27 1.282 . S
O26 Cd18 2.277 1_565 S
O26 C19 1.226 . S
O27 Cd18 2.356 . S
O27 C25 1.282 . S
C28 O29 1.306 . S
C28 O31 1.160 . S
O29 C28 1.306 . S
O29 Cd30 2.228 . S
Cd30 O29 2.228 . S
Cd30 O34 2.273 . S
Cd30 O38 2.277 1_655 S
O31 C28 1.160 . S
O31 Cd32 2.203 . S
Cd32 O31 2.203 . S
Cd32 O34 2.411 . S
Cd32 O35 2.333 . S
Cd32 O36 2.352 . S
Cd32 O40 2.277 1_655 S
Cd32 O41 2.356 . S
C33 O38 1.209 . S
C33 O40 1.226 . S
O34 Cd30 2.273 . S
O34 Cd32 2.411 . S
O34 C37 1.320 . S
O35 Cd32 2.333 . S
O35 C37 1.214 . S
O36 Cd32 2.352 . S
O36 C39 1.258 . S
C37 O34 1.320 . S
C37 O35 1.214 . S
O38 Cd30 2.277 1_455 S
O38 C33 1.209 . S
C39 O36 1.258 . S
C39 O41 1.282 . S
O40 Cd32 2.277 1_455 S
O40 C33 1.226 . S
O41 Cd32 2.356 . S
O41 C39 1.282 . S
C42 O43 1.306 . S
C42 O45 1.160 . S
O43 C42 1.306 . S
O43 Cd44 2.228 . S
Cd44 O43 2.228 . S
Cd44 O48 2.273 . S
Cd44 O52 2.277 1_565 S
O45 C42 1.160 . S
O45 Cd46 2.203 . S
Cd46 O45 2.203 . S
Cd46 O48 2.411 . S
Cd46 O49 2.333 . S
Cd46 O50 2.352 . S
Cd46 O54 2.277 1_565 S
Cd46 O55 2.356 . S
C47 O52 1.209 . S
C47 O54 1.226 . S
O48 Cd44 2.273 . S
O48 Cd46 2.411 . S
O48 C51 1.320 . S
O49 Cd46 2.333 . S
O49 C51 1.214 . S
O50 Cd46 2.352 . S
O50 C53 1.258 . S
C51 O48 1.320 . S
C51 O49 1.214 . S
O52 Cd44 2.277 1_545 S
O52 C47 1.209 . S
C53 O50 1.258 . S
C53 O55 1.282 . S
O54 Cd46 2.277 1_545 S
O54 C47 1.226 . S
O55 Cd46 2.356 . S
O55 C53 1.282 . S
C56 O57 1.306 . S
C56 O59 1.160 . S
O57 C56 1.306 . S
O57 Cd58 2.228 . S
Cd58 O57 2.228 . S
Cd58 O62 2.273 . S
Cd58 O66 2.277 1_455 S
O59 C56 1.160 . S
O59 Cd60 2.203 . S
Cd60 O59 2.203 . S
Cd60 O62 2.411 . S
Cd60 O63 2.333 . S
Cd60 O64 2.352 . S
Cd60 O68 2.277 1_455 S
Cd60 O69 2.356 . S
C61 O66 1.209 . S
C61 O68 1.226 . S
O62 Cd58 2.273 . S
O62 Cd60 2.411 . S
O62 C65 1.320 . S
O63 Cd60 2.333 . S
O63 C65 1.214 . S
O64 Cd60 2.352 . S
O64 C67 1.258 . S
C65 O62 1.320 . S
C65 O63 1.214 . S
O66 Cd58 2.277 1_655 S
O66 C61 1.209 . S
C67 O64 1.258 . S
C67 O69 1.282 . S
O68 Cd60 2.277 1_655 S
O68 C61 1.226 . S
O69 Cd60 2.356 . S
O69 C67 1.282 . S
C70 O71 1.306 . S
C70 O73 1.160 . S
O71 C70 1.306 . S
O71 Cd72 2.228 . S
Cd72 O71 2.228 . S
Cd72 O76 2.273 . S
Cd72 O80 2.277 1_545 S
O73 C70 1.160 . S
O73 Cd74 2.203 . S
Cd74 O73 2.203 . S
Cd74 O76 2.411 . S
Cd74 O77 2.333 . S
Cd74 O78 2.352 . S
Cd74 O82 2.277 1_545 S
Cd74 O83 2.356 . S
C75 O80 1.209 . S
C75 O82 1.226 . S
O76 Cd72 2.273 . S
O76 Cd74 2.411 . S
O76 C79 1.320 . S
O77 Cd74 2.333 . S
O77 C79 1.214 . S
O78 Cd74 2.352 . S
O78 C81 1.258 . S
C79 O76 1.320 . S
C79 O77 1.214 . S
O80 Cd72 2.277 1_565 S
O80 C75 1.209 . S
C81 O78 1.258 . S
C81 O83 1.282 . S
O82 Cd74 2.277 1_565 S
O82 C75 1.226 . S
O83 Cd74 2.356 . S
O83 C81 1.282 . S
C84 O85 1.306 . S
C84 O87 1.160 . S
O85 C84 1.306 . S
O85 Cd86 2.228 . S
Cd86 O85 2.228 . S
Cd86 O90 2.273 . S
Cd86 O94 2.277 1_655 S
O87 C84 1.160 . S
O87 Cd88 2.203 . S
Cd88 O87 2.203 . S
Cd88 O90 2.411 . S
Cd88 O91 2.333 . S
Cd88 O92 2.352 . S
Cd88 O96 2.277 1_655 S
Cd88 O97 2.356 . S
C89 O94 1.209 . S
C89 O96 1.226 . S
O90 Cd86 2.273 . S
O90 Cd88 2.411 . S
O90 C93 1.320 . S
O91 Cd88 2.333 . S
O91 C93 1.214 . S
O92 Cd88 2.352 . S
O92 C95 1.258 . S
C93 O90 1.320 . S
C93 O91 1.214 . S
O94 Cd86 2.277 1_455 S
O94 C89 1.209 . S
C95 O92 1.258 . S
C95 O97 1.282 . S
O96 Cd88 2.277 1_455 S
O96 C89 1.226 . S
O97 Cd88 2.356 . S
O97 C95 1.282 . S
C98 O99 1.306 . S
C98 O101 1.160 . S
O99 C98 1.306 . S
O99 Cd100 2.228 . S
Cd100 O99 2.228 . S
Cd100 O104 2.273 . S
Cd100 O108 2.277 1_565 S
O101 C98 1.160 . S
O101 Cd102 2.203 . S
Cd102 O101 2.203 . S
Cd102 O104 2.411 . S
Cd102 O105 2.333 . S
Cd102 O106 2.352 . S
Cd102 O110 2.277 1_565 S
Cd102 O111 2.356 . S
C103 O108 1.209 . S
C103 O110 1.226 . S
O104 Cd100 2.273 . S
O104 Cd102 2.411 . S
O104 C107 1.320 . S
O105 Cd102 2.333 . S
O105 C107 1.214 . S
O106 Cd102 2.352 . S
O106 C109 1.258 . S
C107 O104 1.320 . S
C107 O105 1.214 . S
O108 Cd100 2.277 1_545 S
O108 C103 1.209 . S
C109 O106 1.258 . S
C109 O111 1.282 . S
O110 Cd102 2.277 1_545 S
O110 C103 1.226 . S
O111 Cd102 2.356 . S
O111 C109 1.282 . S
C112 O113 1.306 . S
C112 O115 1.160 . S
O113 C112 1.306 . S
O113 Cd114 2.228 . S
Cd114 O113 2.228 . S
Cd114 O118 2.273 . S
Cd114 O122 2.277 . S
O115 C112 1.160 . S
O115 Cd116 2.203 . S
Cd116 O115 2.203 . S
Cd116 O118 2.411 . S
Cd116 O119 2.333 . S
Cd116 O120 2.352 . S
Cd116 O124 2.277 . S
Cd116 O125 2.356 . S
C117 O122 1.209 . S
C117 O124 1.226 . S
O118 Cd114 2.273 . S
O118 Cd116 2.411 . S
O118 C121 1.320 . S
O119 Cd116 2.333 . S
O119 C121 1.214 . S
O120 Cd116 2.352 . S
O120 C123 1.258 . S
C121 O118 1.320 . S
C121 O119 1.214 . S
O122 Cd114 2.277 . S
O122 C117 1.209 . S
C123 O120 1.258 . S
C123 O125 1.282 . S
O124 Cd116 2.277 . S
O124 C117 1.226 . S
O125 Cd116 2.356 . S
O125 C123 1.282 . S
C126 O127 1.306 . S
C126 O129 1.160 . S
O127 C126 1.306 . S
O127 Cd128 2.228 . S
Cd128 O127 2.228 . S
Cd128 O132 2.273 . S
Cd128 O136 2.277 . S
O129 C126 1.160 . S
O129 Cd130 2.203 . S
Cd130 O129 2.203 . S
Cd130 O132 2.411 . S
Cd130 O133 2.333 . S
Cd130 O134 2.352 . S
Cd130 O138 2.277 . S
Cd130 O139 2.356 . S
C131 O136 1.209 . S
C131 O138 1.226 . S
O132 Cd128 2.273 . S
O132 Cd130 2.411 . S
O132 C135 1.320 . S
O133 Cd130 2.333 . S
O133 C135 1.214 . S
O134 Cd130 2.352 . S
O134 C137 1.258 . S
C135 O132 1.320 . S
C135 O133 1.214 . S
O136 Cd128 2.277 . S
O136 C131 1.209 . S
C137 O134 1.258 . S
C137 O139 1.282 . S
O138 Cd130 2.277 . S
O138 C131 1.226 . S
O139 Cd130 2.356 . S
O139 C137 1.282 . S
C140 O141 1.306 . S
C140 O143 1.160 . S
O141 C140 1.306 . S
O141 Cd142 2.228 . S
Cd142 O141 2.228 . S
Cd142 O146 2.273 . S
Cd142 O150 2.277 . S
O143 C140 1.160 . S
O143 Cd144 2.203 . S
Cd144 O143 2.203 . S
Cd144 O146 2.411 . S
Cd144 O147 2.333 . S
Cd144 O148 2.352 . S
Cd144 O152 2.277 . S
Cd144 O153 2.356 . S
C145 O150 1.209 . S
C145 O152 1.226 . S
O146 Cd142 2.273 . S
O146 Cd144 2.411 . S
O146 C149 1.320 . S
O147 Cd144 2.333 . S
O147 C149 1.214 . S
O148 Cd144 2.352 . S
O148 C151 1.258 . S
C149 O146 1.320 . S
C149 O147 1.214 . S
O150 Cd142 2.277 . S
O150 C145 1.209 . S
C151 O148 1.258 . S
C151 O153 1.282 . S
O152 Cd144 2.277 . S
O152 C145 1.226 . S
O153 Cd144 2.356 . S
O153 C151 1.282 . S
C154 O155 1.306 . S
C154 O157 1.160 . S
O155 C154 1.306 . S
O155 Cd156 2.228 . S
Cd156 O155 2.228 . S
Cd156 O160 2.273 . S
Cd156 O164 2.277 . S
O157 C154 1.160 . S
O157 Cd158 2.203 . S
Cd158 O157 2.203 . S
Cd158 O160 2.411 . S
Cd158 O161 2.333 . S
Cd158 O162 2.352 . S
Cd158 O166 2.277 . S
Cd158 O167 2.356 . S
C159 O164 1.209 . S
C159 O166 1.226 . S
O160 Cd156 2.273 . S
O160 Cd158 2.411 . S
O160 C163 1.320 . S
O161 Cd158 2.333 . S
O161 C163 1.214 . S
O162 Cd158 2.352 . S
O162 C165 1.258 . S
C163 O160 1.320 . S
C163 O161 1.214 . S
O164 Cd156 2.277 . S
O164 C159 1.209 . S
C165 O162 1.258 . S
C165 O167 1.282 . S
O166 Cd158 2.277 . S
O166 C159 1.226 . S
O167 Cd158 2.356 . S
O167 C165 1.282 . S
C168 O169 1.306 . S
C168 O171 1.160 . S
O169 C168 1.306 . S
O169 Cd170 2.228 . S
Cd170 O169 2.228 . S
Cd170 O174 2.273 . S
Cd170 O178 2.277 . S
O171 C168 1.160 . S
O171 Cd172 2.203 . S
Cd172 O171 2.203 . S
Cd172 O174 2.411 . S
Cd172 O175 2.333 . S
Cd172 O176 2.352 . S
Cd172 O180 2.277 . S
Cd172 O181 2.356 . S
C173 O178 1.209 . S
C173 O180 1.226 . S
O174 Cd170 2.273 . S
O174 Cd172 2.411 . S
O174 C177 1.320 . S
O175 Cd172 2.333 . S
O175 C177 1.214 . S
O176 Cd172 2.352 . S
O176 C179 1.258 . S
C177 O174 1.320 . S
C177 O175 1.214 . S
O178 Cd170 2.277 . S
O178 C173 1.209 . S
C179 O176 1.258 . S
C179 O181 1.282 . S
O180 Cd172 2.277 . S
O180 C173 1.226 . S
O181 Cd172 2.356 . S
O181 C179 1.282 . S
C182 O183 1.306 . S
C182 O185 1.160 . S
O183 C182 1.306 . S
O183 Cd184 2.228 . S
Cd184 O183 2.228 . S
Cd184 O188 2.273 . S
Cd184 O192 2.277 . S
O185 C182 1.160 . S
O185 Cd186 2.203 . S
Cd186 O185 2.203 . S
Cd186 O188 2.411 . S
Cd186 O189 2.333 . S
Cd186 O190 2.352 . S
Cd186 O194 2.277 . S
Cd186 O195 2.356 . S
C187 O192 1.209 . S
C187 O194 1.226 . S
O188 Cd184 2.273 . S
O188 Cd186 2.411 . S
O188 C191 1.320 . S
O189 Cd186 2.333 . S
O189 C191 1.214 . S
O190 Cd186 2.352 . S
O190 C193 1.258 . S
C191 O188 1.320 . S
C191 O189 1.214 . S
O192 Cd184 2.277 . S
O192 C187 1.209 . S
C193 O190 1.258 . S
C193 O195 1.282 . S
O194 Cd186 2.277 . S
O194 C187 1.226 . S
O195 Cd186 2.356 . S
O195 C193 1.282 . S
C196 O197 1.306 . S
C196 O199 1.160 . S
O197 C196 1.306 . S
O197 Cd198 2.228 . S
Cd198 O197 2.228 . S
Cd198 O202 2.273 . S
Cd198 O206 2.277 . S
O199 C196 1.160 . S
O199 Cd200 2.203 . S
Cd200 O199 2.203 . S
Cd200 O202 2.411 . S
Cd200 O203 2.333 . S
Cd200 O204 2.352 . S
Cd200 O208 2.277 . S
Cd200 O209 2.356 . S
C201 O206 1.209 . S
C201 O208 1.226 . S
O202 Cd198 2.273 . S
O202 Cd200 2.411 . S
O202 C205 1.320 . S
O203 Cd200 2.333 . S
O203 C205 1.214 . S
O204 Cd200 2.352 . S
O204 C207 1.258 . S
C205 O202 1.320 . S
C205 O203 1.214 . S
O206 Cd198 2.277 . S
O206 C201 1.209 . S
C207 O204 1.258 . S
C207 O209 1.282 . S
O208 Cd200 2.277 . S
O208 C201 1.226 . S
O209 Cd200 2.356 . S
O209 C207 1.282 . S
C210 O211 1.306 . S
C210 O213 1.160 . S
O211 C210 1.306 . S
O211 Cd212 2.228 . S
Cd212 O211 2.228 . S
Cd212 O216 2.273 . S
Cd212 O220 2.277 . S
O213 C210 1.160 . S
O213 Cd214 2.203 . S
Cd214 O213 2.203 . S
Cd214 O216 2.411 . S
Cd214 O217 2.333 . S
Cd214 O218 2.352 . S
Cd214 O222 2.277 . S
Cd214 O223 2.356 . S
C215 O220 1.209 . S
C215 O222 1.226 . S
O216 Cd212 2.273 . S
O216 Cd214 2.411 . S
O216 C219 1.320 . S
O217 Cd214 2.333 . S
O217 C219 1.214 . S
O218 Cd214 2.352 . S
O218 C221 1.258 . S
C219 O216 1.320 . S
C219 O217 1.214 . S
O220 Cd212 2.277 . S
O220 C215 1.209 . S
C221 O218 1.258 . S
C221 O223 1.282 . S
O222 Cd214 2.277 . S
O222 C215 1.226 . S
O223 Cd214 2.356 . S
O223 C221 1.282 . S
C224 C225 1.363 . S
C224 C230 1.379 . S
C224 N232 1.356 . S
C225 C224 1.363 . S
C225 C231 1.363 . S
C226 C227 1.363 . S
C226 C231 1.379 . S
C226 N233 1.356 . S
C227 C226 1.363 . S
C227 C230 1.363 . S
N228 C230 1.356 . S
N228 H240 0.984 . S
N228 H241 0.985 . S
N229 C231 1.356 . S
N229 H234 0.984 . S
N229 H235 0.985 . S
C230 C224 1.379 . S
C230 C227 1.363 . S
C230 N228 1.356 . S
C231 C225 1.363 . S
C231 C226 1.379 . S
C231 N229 1.356 . S
N232 C224 1.356 . S
N232 H238 0.984 . S
N232 H239 0.984 . S
N233 C226 1.356 . S
N233 H236 0.984 . S
N233 H237 0.985 . S
H234 N229 0.984 . S
H235 N229 0.985 . S
H236 N233 0.984 . S
H237 N233 0.985 . S
H238 N232 0.984 . S
H239 N232 0.984 . S
H240 N228 0.984 . S
H241 N228 0.985 . S
C242 C243 1.363 . S
C242 C248 1.379 . S
C242 N250 1.356 . S
C243 C242 1.363 . S
C243 C249 1.363 . S
C244 C245 1.363 . S
C244 C249 1.379 . S
C244 N251 1.356 . S
C245 C244 1.363 . S
C245 C248 1.363 . S
N246 C248 1.356 . S
N246 H258 0.984 . S
N246 H259 0.985 . S
N247 C249 1.356 . S
N247 H252 0.984 . S
N247 H253 0.985 . S
C248 C242 1.379 . S
C248 C245 1.363 . S
C248 N246 1.356 . S
C249 C243 1.363 . S
C249 C244 1.379 . S
C249 N247 1.356 . S
N250 C242 1.356 . S
N250 H256 0.984 . S
N250 H257 0.984 . S
N251 C244 1.356 . S
N251 H254 0.984 . S
N251 H255 0.985 . S
H252 N247 0.984 . S
H253 N247 0.985 . S
H254 N251 0.984 . S
H255 N251 0.985 . S
H256 N250 0.984 . S
H257 N250 0.984 . S
H258 N246 0.984 . S
H259 N246 0.985 . S
C260 C261 1.363 . S
C260 C266 1.379 . S
C260 N268 1.356 . S
C261 C260 1.363 . S
C261 C267 1.363 . S
C262 C263 1.363 . S
C262 C267 1.379 . S
C262 N269 1.356 . S
C263 C262 1.363 . S
C263 C266 1.363 . S
N264 C266 1.356 . S
N264 H276 0.984 . S
N264 H277 0.985 . S
N265 C267 1.356 . S
N265 H270 0.984 . S
N265 H271 0.985 . S
C266 C260 1.379 . S
C266 C263 1.363 . S
C266 N264 1.356 . S
C267 C261 1.363 . S
C267 C262 1.379 . S
C267 N265 1.356 . S
N268 C260 1.356 . S
N268 H274 0.984 . S
N268 H275 0.984 . S
N269 C262 1.356 . S
N269 H272 0.984 . S
N269 H273 0.985 . S
H270 N265 0.984 . S
H271 N265 0.985 . S
H272 N269 0.984 . S
H273 N269 0.985 . S
H274 N268 0.984 . S
H275 N268 0.984 . S
H276 N264 0.984 . S
H277 N264 0.985 . S
C278 C279 1.363 . S
C278 C284 1.379 . S
C278 N286 1.356 . S
C279 C278 1.363 . S
C279 C285 1.363 . S
C280 C281 1.363 . S
C280 C285 1.379 . S
C280 N287 1.356 . S
C281 C280 1.363 . S
C281 C284 1.363 . S
N282 C284 1.356 . S
N282 H294 0.984 . S
N282 H295 0.985 . S
N283 C285 1.356 . S
N283 H288 0.984 . S
N283 H289 0.985 . S
C284 C278 1.379 . S
C284 C281 1.363 . S
C284 N282 1.356 . S
C285 C279 1.363 . S
C285 C280 1.379 . S
C285 N283 1.356 . S
N286 C278 1.356 . S
N286 H292 0.984 . S
N286 H293 0.984 . S
N287 C280 1.356 . S
N287 H290 0.984 . S
N287 H291 0.985 . S
H288 N283 0.984 . S
H289 N283 0.985 . S
H290 N287 0.984 . S
H291 N287 0.985 . S
H292 N286 0.984 . S
H293 N286 0.984 . S
H294 N282 0.984 . S
H295 N282 0.985 . S
C296 C297 1.363 . S
C296 C302 1.379 . S
C296 N304 1.356 . S
C297 C296 1.363 . S
C297 C303 1.363 . S
C298 C299 1.363 . S
C298 C303 1.379 . S
C298 N305 1.356 . S
C299 C298 1.363 . S
C299 C302 1.363 . S
N300 C302 1.356 . S
N300 H312 0.984 . S
N300 H313 0.985 . S
N301 C303 1.356 . S
N301 H306 0.984 . S
N301 H307 0.985 . S
C302 C296 1.379 . S
C302 C299 1.363 . S
C302 N300 1.356 . S
C303 C297 1.363 . S
C303 C298 1.379 . S
C303 N301 1.356 . S
N304 C296 1.356 . S
N304 H310 0.984 . S
N304 H311 0.984 . S
N305 C298 1.356 . S
N305 H308 0.984 . S
N305 H309 0.985 . S
H306 N301 0.984 . S
H307 N301 0.985 . S
H308 N305 0.984 . S
H309 N305 0.985 . S
H310 N304 0.984 . S
H311 N304 0.984 . S
H312 N300 0.984 . S
H313 N300 0.985 . S
C314 C315 1.363 . S
C314 C320 1.379 . S
C314 N322 1.356 . S
C315 C314 1.363 . S
C315 C321 1.363 . S
C316 C317 1.363 . S
C316 C321 1.379 . S
C316 N323 1.356 . S
C317 C316 1.363 . S
C317 C320 1.363 . S
N318 C320 1.356 . S
N318 H330 0.984 . S
N318 H331 0.985 . S
N319 C321 1.356 . S
N319 H324 0.984 . S
N319 H325 0.985 . S
C320 C314 1.379 . S
C320 C317 1.363 . S
C320 N318 1.356 . S
C321 C315 1.363 . S
C321 C316 1.379 . S
C321 N319 1.356 . S
N322 C314 1.356 . S
N322 H328 0.984 . S
N322 H329 0.984 . S
N323 C316 1.356 . S
N323 H326 0.984 . S
N323 H327 0.985 . S
H324 N319 0.984 . S
H325 N319 0.985 . S
H326 N323 0.984 . S
H327 N323 0.985 . S
H328 N322 0.984 . S
H329 N322 0.984 . S
H330 N318 0.984 . S
H331 N318 0.985 . S
C332 C333 1.363 . S
C332 C338 1.379 . S
C332 N340 1.356 . S
C333 C332 1.363 . S
C333 C339 1.363 . S
C334 C335 1.363 . S
C334 C339 1.379 . S
C334 N341 1.356 . S
C335 C334 1.363 . S
C335 C338 1.363 . S
N336 C338 1.356 . S
N336 H348 0.984 . S
N336 H349 0.985 . S
N337 C339 1.356 . S
N337 H342 0.984 . S
N337 H343 0.985 . S
C338 C332 1.379 . S
C338 C335 1.363 . S
C338 N336 1.356 . S
C339 C333 1.363 . S
C339 C334 1.379 . S
C339 N337 1.356 . S
N340 C332 1.356 . S
N340 H346 0.984 . S
N340 H347 0.984 . S
N341 C334 1.356 . S
N341 H344 0.984 . S
N341 H345 0.985 . S
H342 N337 0.984 . S
H343 N337 0.985 . S
H344 N341 0.984 . S
H345 N341 0.985 . S
H346 N340 0.984 . S
H347 N340 0.984 . S
H348 N336 0.984 . S
H349 N336 0.985 . S
C350 C351 1.363 . S
C350 C356 1.379 . S
C350 N358 1.356 . S
C351 C350 1.363 . S
C351 C357 1.363 . S
C352 C353 1.363 . S
C352 C357 1.379 . S
C352 N359 1.356 . S
C353 C352 1.363 . S
C353 C356 1.363 . S
N354 C356 1.356 . S
N354 H366 0.984 . S
N354 H367 0.985 . S
N355 C357 1.356 . S
N355 H360 0.984 . S
N355 H361 0.985 . S
C356 C350 1.379 . S
C356 C353 1.363 . S
C356 N354 1.356 . S
C357 C351 1.363 . S
C357 C352 1.379 . S
C357 N355 1.356 . S
N358 C350 1.356 . S
N358 H364 0.984 . S
N358 H365 0.984 . S
N359 C352 1.356 . S
N359 H362 0.984 . S
N359 H363 0.985 . S
H360 N355 0.984 . S
H361 N355 0.985 . S
H362 N359 0.984 . S
H363 N359 0.985 . S
H364 N358 0.984 . S
H365 N358 0.984 . S
H366 N354 0.984 . S
H367 N354 0.985 . S
C368 C369 1.363 . S
C368 C374 1.379 . S
C368 N376 1.356 . S
C369 C368 1.363 . S
C369 C375 1.363 . S
C370 C371 1.363 . S
C370 C375 1.379 . S
C370 N377 1.356 . S
C371 C370 1.363 . S
C371 C374 1.363 . S
N372 C374 1.356 . S
N372 H384 0.984 . S
N372 H385 0.985 . S
N373 C375 1.356 . S
N373 H378 0.984 . S
N373 H379 0.985 . S
C374 C368 1.379 . S
C374 C371 1.363 . S
C374 N372 1.356 . S
C375 C369 1.363 . S
C375 C370 1.379 . S
C375 N373 1.356 . S
N376 C368 1.356 . S
N376 H382 0.984 . S
N376 H383 0.984 . S
N377 C370 1.356 . S
N377 H380 0.984 . S
N377 H381 0.985 . S
H378 N373 0.984 . S
H379 N373 0.985 . S
H380 N377 0.984 . S
H381 N377 0.985 . S
H382 N376 0.984 . S
H383 N376 0.984 . S
H384 N372 0.984 . S
H385 N372 0.985 . S
C386 C387 1.363 . S
C386 C392 1.379 . S
C386 N394 1.356 . S
C387 C386 1.363 . S
C387 C393 1.363 . S
C388 C389 1.363 . S
C388 C393 1.379 . S
C388 N395 1.356 . S
C389 C388 1.363 . S
C389 C392 1.363 . S
N390 C392 1.356 . S
N390 H402 0.984 . S
N390 H403 0.985 . S
N391 C393 1.356 . S
N391 H396 0.984 . S
N391 H397 0.985 . S
C392 C386 1.379 . S
C392 C389 1.363 . S
C392 N390 1.356 . S
C393 C387 1.363 . S
C393 C388 1.379 . S
C393 N391 1.356 . S
N394 C386 1.356 . S
N394 H400 0.984 . S
N394 H401 0.984 . S
N395 C388 1.356 . S
N395 H398 0.984 . S
N395 H399 0.985 . S
H396 N391 0.984 . S
H397 N391 0.985 . S
H398 N395 0.984 . S
H399 N395 0.985 . S
H400 N394 0.984 . S
H401 N394 0.984 . S
H402 N390 0.984 . S
H403 N390 0.985 . S
C404 C405 1.363 . S
C404 C410 1.379 . S
C404 N412 1.356 . S
C405 C404 1.363 . S
C405 C411 1.363 . S
C406 C407 1.363 . S
C406 C411 1.379 . S
C406 N413 1.356 . S
C407 C406 1.363 . S
C407 C410 1.363 . S
N408 C410 1.356 . S
N408 H420 0.984 . S
N408 H421 0.985 . S
N409 C411 1.356 . S
N409 H414 0.984 . S
N409 H415 0.985 . S
C410 C404 1.379 . S
C410 C407 1.363 . S
C410 N408 1.356 . S
C411 C405 1.363 . S
C411 C406 1.379 . S
C411 N409 1.356 . S
N412 C404 1.356 . S
N412 H418 0.984 . S
N412 H419 0.984 . S
N413 C406 1.356 . S
N413 H416 0.984 . S
N413 H417 0.985 . S
H414 N409 0.984 . S
H415 N409 0.985 . S
H416 N413 0.984 . S
H417 N413 0.985 . S
H418 N412 0.984 . S
H419 N412 0.984 . S
H420 N408 0.984 . S
H421 N408 0.985 . S
C422 C423 1.363 . S
C422 C428 1.379 . S
C422 N430 1.356 . S
C423 C422 1.363 . S
C423 C429 1.363 . S
C424 C425 1.363 . S
C424 C429 1.379 . S
C424 N431 1.356 . S
C425 C424 1.363 . S
C425 C428 1.363 . S
N426 C428 1.356 . S
N426 H438 0.984 . S
N426 H439 0.985 . S
N427 C429 1.356 . S
N427 H432 0.984 . S
N427 H433 0.985 . S
C428 C422 1.379 . S
C428 C425 1.363 . S
C428 N426 1.356 . S
C429 C423 1.363 . S
C429 C424 1.379 . S
C429 N427 1.356 . S
N430 C422 1.356 . S
N430 H436 0.984 . S
N430 H437 0.984 . S
N431 C424 1.356 . S
N431 H434 0.984 . S
N431 H435 0.985 . S
H432 N427 0.984 . S
H433 N427 0.985 . S
H434 N431 0.984 . S
H435 N431 0.985 . S
H436 N430 0.984 . S
H437 N430 0.984 . S
H438 N426 0.984 . S
H439 N426 0.985 . S
C440 C441 1.363 . S
C440 C446 1.379 . S
C440 N448 1.356 . S
C441 C440 1.363 . S
C441 C447 1.363 . S
C442 C443 1.363 . S
C442 C447 1.379 . S
C442 N449 1.356 . S
C443 C442 1.363 . S
C443 C446 1.363 . S
N444 C446 1.356 . S
N444 H456 0.984 . S
N444 H457 0.985 . S
N445 C447 1.356 . S
N445 H450 0.984 . S
N445 H451 0.985 . S
C446 C440 1.379 . S
C446 C443 1.363 . S
C446 N444 1.356 . S
C447 C441 1.363 . S
C447 C442 1.379 . S
C447 N445 1.356 . S
N448 C440 1.356 . S
N448 H454 0.984 . S
N448 H455 0.984 . S
N449 C442 1.356 . S
N449 H452 0.984 . S
N449 H453 0.985 . S
H450 N445 0.984 . S
H451 N445 0.985 . S
H452 N449 0.984 . S
H453 N449 0.985 . S
H454 N448 0.984 . S
H455 N448 0.984 . S
H456 N444 0.984 . S
H457 N444 0.985 . S
C458 C459 1.363 . S
C458 C464 1.379 . S
C458 N466 1.356 . S
C459 C458 1.363 . S
C459 C465 1.363 . S
C460 C461 1.363 . S
C460 C465 1.379 . S
C460 N467 1.356 . S
C461 C460 1.363 . S
C461 C464 1.363 . S
N462 C464 1.356 . S
N462 H474 0.984 . S
N462 H475 0.985 . S
N463 C465 1.356 . S
N463 H468 0.984 . S
N463 H469 0.985 . S
C464 C458 1.379 . S
C464 C461 1.363 . S
C464 N462 1.356 . S
C465 C459 1.363 . S
C465 C460 1.379 . S
C465 N463 1.356 . S
N466 C458 1.356 . S
N466 H472 0.984 . S
N466 H473 0.984 . S
N467 C460 1.356 . S
N467 H470 0.984 . S
N467 H471 0.985 . S
H468 N463 0.984 . S
H469 N463 0.985 . S
H470 N467 0.984 . S
H471 N467 0.985 . S
H472 N466 0.984 . S
H473 N466 0.984 . S
H474 N462 0.984 . S
H475 N462 0.985 . S
C476 C477 1.363 . S
C476 C482 1.379 . S
C476 N484 1.356 . S
C477 C476 1.363 . S
C477 C483 1.363 . S
C478 C479 1.363 . S
C478 C483 1.379 . S
C478 N485 1.356 . S
C479 C478 1.363 . S
C479 C482 1.363 . S
N480 C482 1.356 . S
N480 H492 0.984 . S
N480 H493 0.985 . S
N481 C483 1.356 . S
N481 H486 0.984 . S
N481 H487 0.985 . S
C482 C476 1.379 . S
C482 C479 1.363 . S
C482 N480 1.356 . S
C483 C477 1.363 . S
C483 C478 1.379 . S
C483 N481 1.356 . S
N484 C476 1.356 . S
N484 H490 0.984 . S
N484 H491 0.984 . S
N485 C478 1.356 . S
N485 H488 0.984 . S
N485 H489 0.985 . S
H486 N481 0.984 . S
H487 N481 0.985 . S
H488 N485 0.984 . S
H489 N485 0.985 . S
H490 N484 0.984 . S
H491 N484 0.984 . S
H492 N480 0.984 . S
H493 N480 0.985 . S
C494 C495 1.363 . S
C494 C500 1.379 . S
C494 N502 1.356 . S
C495 C494 1.363 . S
C495 C501 1.363 . S
C496 C497 1.363 . S
C496 C501 1.379 . S
C496 N503 1.356 . S
C497 C496 1.363 . S
C497 C500 1.363 . S
N498 C500 1.356 . S
N498 H510 0.984 . S
N498 H511 0.985 . S
N499 C501 1.356 . S
N499 H504 0.984 . S
N499 H505 0.985 . S
C500 C494 1.379 . S
C500 C497 1.363 . S
C500 N498 1.356 . S
C501 C495 1.363 . S
C501 C496 1.379 . S
C501 N499 1.356 . S
N502 C494 1.356 . S
N502 H508 0.984 . S
N502 H509 0.984 . S
N503 C496 1.356 . S
N503 H506 0.984 . S
N503 H507 0.985 . S
H504 N499 0.984 . S
H505 N499 0.985 . S
H506 N503 0.984 . S
H507 N503 0.985 . S
H508 N502 0.984 . S
H509 N502 0.984 . S
H510 N498 0.984 . S
H511 N498 0.985 . S
C512 C513 1.363 . S
C512 C518 1.379 . S
C512 N520 1.356 . S
C513 C512 1.363 . S
C513 C519 1.363 . S
C514 C515 1.363 . S
C514 C519 1.379 . S
C514 N521 1.356 . S
C515 C514 1.363 . S
C515 C518 1.363 . S
N516 C518 1.356 . S
N516 H528 0.984 . S
N516 H529 0.985 . S
N517 C519 1.356 . S
N517 H522 0.984 . S
N517 H523 0.985 . S
C518 C512 1.379 . S
C518 C515 1.363 . S
C518 N516 1.356 . S
C519 C513 1.363 . S
C519 C514 1.379 . S
C519 N517 1.356 . S
N520 C512 1.356 . S
N520 H526 0.984 . S
N520 H527 0.984 . S
N521 C514 1.356 . S
N521 H524 0.984 . S
N521 H525 0.985 . S
H522 N517 0.984 . S
H523 N517 0.985 . S
H524 N521 0.984 . S
H525 N521 0.985 . S
H526 N520 0.984 . S
H527 N520 0.984 . S
H528 N516 0.984 . S
H529 N516 0.985 . S
C530 C531 1.363 . S
C530 C536 1.379 . S
C530 N538 1.356 . S
C531 C530 1.363 . S
C531 C537 1.363 . S
C532 C533 1.363 . S
C532 C537 1.379 . S
C532 N539 1.356 . S
C533 C532 1.363 . S
C533 C536 1.363 . S
N534 C536 1.356 . S
N534 H546 0.984 . S
N534 H547 0.985 . S
N535 C537 1.356 . S
N535 H540 0.984 . S
N535 H541 0.985 . S
C536 C530 1.379 . S
C536 C533 1.363 . S
C536 N534 1.356 . S
C537 C531 1.363 . S
C537 C532 1.379 . S
C537 N535 1.356 . S
N538 C530 1.356 . S
N538 H544 0.984 . S
N538 H545 0.984 . S
N539 C532 1.356 . S
N539 H542 0.984 . S
N539 H543 0.985 . S
H540 N535 0.984 . S
H541 N535 0.985 . S
H542 N539 0.984 . S
H543 N539 0.985 . S
H544 N538 0.984 . S
H545 N538 0.984 . S
H546 N534 0.984 . S
H547 N534 0.985 . S
C548 C549 1.363 . S
C548 C554 1.379 . S
C548 N556 1.356 . S
C549 C548 1.363 . S
C549 C555 1.363 . S
C550 C551 1.363 . S
C550 C555 1.379 . S
C550 N557 1.356 . S
C551 C550 1.363 . S
C551 C554 1.363 . S
N552 C554 1.356 . S
N552 H564 0.984 . S
N552 H565 0.985 . S
N553 C555 1.356 . S
N553 H558 0.984 . S
N553 H559 0.985 . S
C554 C548 1.379 . S
C554 C551 1.363 . S
C554 N552 1.356 . S
C555 C549 1.363 . S
C555 C550 1.379 . S
C555 N553 1.356 . S
N556 C548 1.356 . S
N556 H562 0.984 . S
N556 H563 0.984 . S
N557 C550 1.356 . S
N557 H560 0.984 . S
N557 H561 0.985 . S
H558 N553 0.984 . S
H559 N553 0.985 . S
H560 N557 0.984 . S
H561 N557 0.985 . S
H562 N556 0.984 . S
H563 N556 0.984 . S
H564 N552 0.984 . S
H565 N552 0.985 . S
C566 C567 1.363 . S
C566 C572 1.379 . S
C566 N574 1.356 . S
C567 C566 1.363 . S
C567 C573 1.363 . S
C568 C569 1.363 . S
C568 C573 1.379 . S
C568 N575 1.356 . S
C569 C568 1.363 . S
C569 C572 1.363 . S
N570 C572 1.356 . S
N570 H582 0.984 . S
N570 H583 0.985 . S
N571 C573 1.356 . S
N571 H576 0.984 . S
N571 H577 0.985 . S
C572 C566 1.379 . S
C572 C569 1.363 . S
C572 N570 1.356 . S
C573 C567 1.363 . S
C573 C568 1.379 . S
C573 N571 1.356 . S
N574 C566 1.356 . S
N574 H580 0.984 . S
N574 H581 0.984 . S
N575 C568 1.356 . S
N575 H578 0.984 . S
N575 H579 0.985 . S
H576 N571 0.984 . S
H577 N571 0.985 . S
H578 N575 0.984 . S
H579 N575 0.985 . S
H580 N574 0.984 . S
H581 N574 0.984 . S
H582 N570 0.984 . S
H583 N570 0.985 . S
C584 C585 1.363 . S
C584 C590 1.379 . S
C584 N592 1.356 . S
C585 C584 1.363 . S
C585 C591 1.363 . S
C586 C587 1.363 . S
C586 C591 1.379 . S
C586 N593 1.356 . S
C587 C586 1.363 . S
C587 C590 1.363 . S
N588 C590 1.356 . S
N588 H600 0.984 . S
N588 H601 0.985 . S
N589 C591 1.356 . S
N589 H594 0.984 . S
N589 H595 0.985 . S
C590 C584 1.379 . S
C590 C587 1.363 . S
C590 N588 1.356 . S
C591 C585 1.363 . S
C591 C586 1.379 . S
C591 N589 1.356 . S
N592 C584 1.356 . S
N592 H598 0.984 . S
N592 H599 0.984 . S
N593 C586 1.356 . S
N593 H596 0.984 . S
N593 H597 0.985 . S
H594 N589 0.984 . S
H595 N589 0.985 . S
H596 N593 0.984 . S
H597 N593 0.985 . S
H598 N592 0.984 . S
H599 N592 0.984 . S
H600 N588 0.984 . S
H601 N588 0.985 . S
C602 C603 1.363 . S
C602 C608 1.379 . S
C602 N610 1.356 . S
C603 C602 1.363 . S
C603 C609 1.363 . S
C604 C605 1.363 . S
C604 C609 1.379 . S
C604 N611 1.356 . S
C605 C604 1.363 . S
C605 C608 1.363 . S
N606 C608 1.356 . S
N606 H618 0.984 . S
N606 H619 0.985 . S
N607 C609 1.356 . S
N607 H612 0.984 . S
N607 H613 0.985 . S
C608 C602 1.379 . S
C608 C605 1.363 . S
C608 N606 1.356 . S
C609 C603 1.363 . S
C609 C604 1.379 . S
C609 N607 1.356 . S
N610 C602 1.356 . S
N610 H616 0.984 . S
N610 H617 0.984 . S
N611 C604 1.356 . S
N611 H614 0.984 . S
N611 H615 0.985 . S
H612 N607 0.984 . S
H613 N607 0.985 . S
H614 N611 0.984 . S
H615 N611 0.985 . S
H616 N610 0.984 . S
H617 N610 0.984 . S
H618 N606 0.984 . S
H619 N606 0.985 . S
C620 C621 1.363 . S
C620 C626 1.379 . S
C620 N628 1.356 . S
C621 C620 1.363 . S
C621 C627 1.363 . S
C622 C623 1.363 . S
C622 C627 1.379 . S
C622 N629 1.356 . S
C623 C622 1.363 . S
C623 C626 1.363 . S
N624 C626 1.356 . S
N624 H636 0.984 . S
N624 H637 0.985 . S
N625 C627 1.356 . S
N625 H630 0.984 . S
N625 H631 0.985 . S
C626 C620 1.379 . S
C626 C623 1.363 . S
C626 N624 1.356 . S
C627 C621 1.363 . S
C627 C622 1.379 . S
C627 N625 1.356 . S
N628 C620 1.356 . S
N628 H634 0.984 . S
N628 H635 0.984 . S
N629 C622 1.356 . S
N629 H632 0.984 . S
N629 H633 0.985 . S
H630 N625 0.984 . S
H631 N625 0.985 . S
H632 N629 0.984 . S
H633 N629 0.985 . S
H634 N628 0.984 . S
H635 N628 0.984 . S
H636 N624 0.984 . S
H637 N624 0.985 . S
C638 C639 1.363 . S
C638 C644 1.379 . S
C638 N646 1.356 . S
C639 C638 1.363 . S
C639 C645 1.363 . S
C640 C641 1.363 . S
C640 C645 1.379 . S
C640 N647 1.356 . S
C641 C640 1.363 . S
C641 C644 1.363 . S
N642 C644 1.356 . S
N642 H654 0.984 . S
N642 H655 0.985 . S
N643 C645 1.356 . S
N643 H648 0.984 . S
N643 H649 0.985 . S
C644 C638 1.379 . S
C644 C641 1.363 . S
C644 N642 1.356 . S
C645 C639 1.363 . S
C645 C640 1.379 . S
C645 N643 1.356 . S
N646 C638 1.356 . S
N646 H652 0.984 . S
N646 H653 0.984 . S
N647 C640 1.356 . S
N647 H650 0.984 . S
N647 H651 0.985 . S
H648 N643 0.984 . S
H649 N643 0.985 . S
H650 N647 0.984 . S
H651 N647 0.985 . S
H652 N646 0.984 . S
H653 N646 0.984 . S
H654 N642 0.984 . S
H655 N642 0.985 . S
C656 C657 1.363 . S
C656 C662 1.379 . S
C656 N664 1.356 . S
C657 C656 1.363 . S
C657 C663 1.363 1_455 S
C658 C659 1.363 . S
C658 C663 1.379 . S
C658 N665 1.356 . S
C659 C658 1.363 . S
C659 C662 1.363 1_655 S
N660 C662 1.356 . S
N660 H672 0.984 . S
N660 H673 0.985 . S
N661 C663 1.356 . S
N661 H666 0.984 . S
N661 H667 0.985 . S
C662 C656 1.379 . S
C662 C659 1.363 1_455 S
C662 N660 1.356 . S
C663 C657 1.363 1_655 S
C663 C658 1.379 . S
C663 N661 1.356 . S
N664 C656 1.356 . S
N664 H670 0.984 . S
N664 H671 0.984 . S
N665 C658 1.356 . S
N665 H668 0.984 . S
N665 H669 0.985 . S
H666 N661 0.984 . S
H667 N661 0.985 . S
H668 N665 0.984 . S
H669 N665 0.985 . S
H670 N664 0.984 . S
H671 N664 0.984 . S
H672 N660 0.984 . S
H673 N660 0.985 . S
C674 C675 1.363 . S
C674 C680 1.379 . S
C674 N682 1.356 . S
C675 C674 1.363 . S
C675 C681 1.363 1_565 S
C676 C677 1.363 . S
C676 C681 1.379 . S
C676 N683 1.356 . S
C677 C676 1.363 . S
C677 C680 1.363 1_545 S
N678 C680 1.356 . S
N678 H690 0.984 . S
N678 H691 0.985 . S
N679 C681 1.356 . S
N679 H684 0.984 . S
N679 H685 0.985 . S
C680 C674 1.379 . S
C680 C677 1.363 1_565 S
C680 N678 1.356 . S
C681 C675 1.363 1_545 S
C681 C676 1.379 . S
C681 N679 1.356 . S
N682 C674 1.356 . S
N682 H688 0.984 . S
N682 H689 0.984 . S
N683 C676 1.356 . S
N683 H686 0.984 . S
N683 H687 0.985 . S
H684 N679 0.984 . S
H685 N679 0.985 . S
H686 N683 0.984 . S
H687 N683 0.985 . S
H688 N682 0.984 . S
H689 N682 0.984 . S
H690 N678 0.984 . S
H691 N678 0.985 . S
C692 C693 1.363 . S
C692 C698 1.379 . S
C692 N700 1.356 . S
C693 C692 1.363 . S
C693 C699 1.363 1_455 S
C694 C695 1.363 . S
C694 C699 1.379 . S
C694 N701 1.356 . S
C695 C694 1.363 . S
C695 C698 1.363 1_655 S
N696 C698 1.356 . S
N696 H708 0.984 . S
N696 H709 0.985 . S
N697 C699 1.356 . S
N697 H702 0.984 . S
N697 H703 0.985 . S
C698 C692 1.379 . S
C698 C695 1.363 1_455 S
C698 N696 1.356 . S
C699 C693 1.363 1_655 S
C699 C694 1.379 . S
C699 N697 1.356 . S
N700 C692 1.356 . S
N700 H706 0.984 . S
N700 H707 0.984 . S
N701 C694 1.356 . S
N701 H704 0.984 . S
N701 H705 0.985 . S
H702 N697 0.984 . S
H703 N697 0.985 . S
H704 N701 0.984 . S
H705 N701 0.985 . S
H706 N700 0.984 . S
H707 N700 0.984 . S
H708 N696 0.984 . S
H709 N696 0.985 . S
C710 C711 1.363 . S
C710 C716 1.379 . S
C710 N718 1.356 . S
C711 C710 1.363 . S
C711 C717 1.363 1_545 S
C712 C713 1.363 . S
C712 C717 1.379 . S
C712 N719 1.356 . S
C713 C712 1.363 . S
C713 C716 1.363 1_565 S
N714 C716 1.356 . S
N714 H726 0.984 . S
N714 H727 0.985 . S
N715 C717 1.356 . S
N715 H720 0.984 . S
N715 H721 0.985 . S
C716 C710 1.379 . S
C716 C713 1.363 1_545 S
C716 N714 1.356 . S
C717 C711 1.363 1_565 S
C717 C712 1.379 . S
C717 N715 1.356 . S
N718 C710 1.356 . S
N718 H724 0.984 . S
N718 H725 0.984 . S
N719 C712 1.356 . S
N719 H722 0.984 . S
N719 H723 0.985 . S
H720 N715 0.984 . S
H721 N715 0.985 . S
H722 N719 0.984 . S
H723 N719 0.985 . S
H724 N718 0.984 . S
H725 N718 0.984 . S
H726 N714 0.984 . S
H727 N714 0.985 . S
C728 C729 1.363 . S
C728 C734 1.379 1_556 S
C728 N736 1.356 . S
C729 C728 1.363 . S
C729 C735 1.363 . S
C730 C731 1.363 . S
C730 C735 1.379 1_554 S
C730 N737 1.356 . S
C731 C730 1.363 . S
C731 C734 1.363 . S
N732 C734 1.356 . S
N732 H744 0.984 . S
N732 H745 0.985 . S
N733 C735 1.356 . S
N733 H738 0.984 . S
N733 H739 0.985 . S
C734 C728 1.379 1_554 S
C734 C731 1.363 . S
C734 N732 1.356 . S
C735 C729 1.363 . S
C735 C730 1.379 1_556 S
C735 N733 1.356 . S
N736 C728 1.356 . S
N736 H742 0.984 . S
N736 H743 0.984 . S
N737 C730 1.356 . S
N737 H740 0.984 . S
N737 H741 0.985 . S
H738 N733 0.984 . S
H739 N733 0.985 . S
H740 N737 0.984 . S
H741 N737 0.985 . S
H742 N736 0.984 . S
H743 N736 0.984 . S
H744 N732 0.984 . S
H745 N732 0.985 . S
C746 C747 1.363 . S
C746 C752 1.379 1_556 S
C746 N754 1.356 . S
C747 C746 1.363 . S
C747 C753 1.363 . S
C748 C749 1.363 . S
C748 C753 1.379 1_554 S
C748 N755 1.356 . S
C749 C748 1.363 . S
C749 C752 1.363 . S
N750 C752 1.356 . S
N750 H762 0.984 . S
N750 H763 0.985 . S
N751 C753 1.356 . S
N751 H756 0.984 . S
N751 H757 0.985 . S
C752 C746 1.379 1_554 S
C752 C749 1.363 . S
C752 N750 1.356 . S
C753 C747 1.363 . S
C753 C748 1.379 1_556 S
C753 N751 1.356 . S
N754 C746 1.356 . S
N754 H760 0.984 . S
N754 H761 0.984 . S
N755 C748 1.356 . S
N755 H758 0.984 . S
N755 H759 0.985 . S
H756 N751 0.984 . S
H757 N751 0.985 . S
H758 N755 0.984 . S
H759 N755 0.985 . S
H760 N754 0.984 . S
H761 N754 0.984 . S
H762 N750 0.984 . S
H763 N750 0.985 . S
C764 C765 1.363 . S
C764 C770 1.379 1_554 S
C764 N772 1.356 . S
C765 C764 1.363 . S
C765 C771 1.363 . S
C766 C767 1.363 . S
C766 C771 1.379 1_556 S
C766 N773 1.356 . S
C767 C766 1.363 . S
C767 C770 1.363 . S
N768 C770 1.356 . S
N768 H780 0.984 . S
N768 H781 0.985 . S
N769 C771 1.356 . S
N769 H774 0.984 . S
N769 H775 0.985 . S
C770 C764 1.379 1_556 S
C770 C767 1.363 . S
C770 N768 1.356 . S
C771 C765 1.363 . S
C771 C766 1.379 1_554 S
C771 N769 1.356 . S
N772 C764 1.356 . S
N772 H778 0.984 . S
N772 H779 0.984 . S
N773 C766 1.356 . S
N773 H776 0.984 . S
N773 H777 0.985 . S
H774 N769 0.984 . S
H775 N769 0.985 . S
H776 N773 0.984 . S
H777 N773 0.985 . S
H778 N772 0.984 . S
H779 N772 0.984 . S
H780 N768 0.984 . S
H781 N768 0.985 . S
C782 C783 1.363 . S
C782 C788 1.379 1_556 S
C782 N790 1.356 . S
C783 C782 1.363 . S
C783 C789 1.363 . S
C784 C785 1.363 . S
C784 C789 1.379 1_554 S
C784 N791 1.356 . S
C785 C784 1.363 . S
C785 C788 1.363 . S
N786 C788 1.356 . S
N786 H798 0.984 . S
N786 H799 0.985 . S
N787 C789 1.356 . S
N787 H792 0.984 . S
N787 H793 0.985 . S
C788 C782 1.379 1_554 S
C788 C785 1.363 . S
C788 N786 1.356 . S
C789 C783 1.363 . S
C789 C784 1.379 1_556 S
C789 N787 1.356 . S
N790 C782 1.356 . S
N790 H796 0.984 . S
N790 H797 0.984 . S
N791 C784 1.356 . S
N791 H794 0.984 . S
N791 H795 0.985 . S
H792 N787 0.984 . S
H793 N787 0.985 . S
H794 N791 0.984 . S
H795 N791 0.985 . S
H796 N790 0.984 . S
H797 N790 0.984 . S
H798 N786 0.984 . S
H799 N786 0.985 . S
C225 C9 1.535 . S
C227 C47 1.492 . S
C243 C5 1.492 . S
C245 C23 1.535 . S
C261 C19 1.492 . S
C263 C37 1.535 . S
C279 C33 1.492 . S
C281 C51 1.535 . S
C297 C65 1.535 . S
C299 C75 1.492 . S
C315 C79 1.535 . S
C317 C89 1.492 . S
C333 C93 1.535 . S
C335 C103 1.492 . S
C351 C107 1.535 . S
C353 C61 1.492 . S
C369 C121 1.535 . S
C371 C159 1.492 . S
C387 C117 1.492 . S
C389 C135 1.535 . S
C405 C131 1.492 . S
C407 C149 1.535 . S
C423 C163 1.535 . S
C425 C145 1.492 . S
C441 C187 1.492 . S
C443 C177 1.535 . S
C459 C201 1.492 . S
C461 C191 1.535 . S
C477 C205 1.535 . S
C479 C215 1.492 . S
C495 C219 1.535 . S
C497 C173 1.492 . S
C513 C11 1.405 . S
C515 C221 1.405 . S
C531 C25 1.405 . S
C533 C179 1.405 . S
C549 C193 1.405 . S
C551 C39 1.405 . S
C567 C53 1.405 . S
C569 C207 1.405 . S
C585 C137 1.405 . S
C587 C67 1.405 . S
C603 C151 1.405 . S
C605 C81 1.405 . S
C621 C95 1.405 . S
C623 C165 1.405 . S
C639 C109 1.405 . S
C641 C123 1.405 . S
C657 C0 1.599 . S
C659 C84 1.599 . S
C675 C98 1.599 . S
C677 C14 1.599 . S
C693 C56 1.599 . S
C695 C28 1.599 . S
C711 C70 1.599 . S
C713 C42 1.599 . S
C729 C112 1.599 . S
C731 C196 1.599 . S
C747 C126 1.599 . S
C749 C210 1.599 . S
C765 C168 1.599 . S
C767 C140 1.599 . S
C783 C154 1.599 . S
C785 C182 1.599 . S
