# Generated by pormake.
# Topology ukv, (4)-cn, num edge types: 1
# Building blocks:
#     Node 0, Type 0, BuildingBlock: TATPOV_clean_sbu_0, # of connection points: 4
#     Node 1, Type 0, BuildingBlock: TATPOV_clean_sbu_0, # of connection points: 4
#     Node 2, Type 0, BuildingBlock: TATPOV_clean_sbu_0, # of connection points: 4
#     Node 3, Type 0, BuildingBlock: TATPOV_clean_sbu_0, # of connection points: 4
#     Node 4, Type 0, BuildingBlock: TATPOV_clean_sbu_0, # of connection points: 4
#     Node 5, Type 0, BuildingBlock: TATPOV_clean_sbu_0, # of connection points: 4
#     Node 6, Type 0, BuildingBlock: TATPOV_clean_sbu_0, # of connection points: 4
#     Node 7, Type 0, BuildingBlock: TATPOV_clean_sbu_0, # of connection points: 4
#     Node 8, Type 0, BuildingBlock: TATPOV_clean_sbu_0, # of connection points: 4
#     Node 9, Type 0, BuildingBlock: TATPOV_clean_sbu_0, # of connection points: 4
#     Node 10, Type 0, BuildingBlock: TATPOV_clean_sbu_0, # of connection points: 4
#     Node 11, Type 0, BuildingBlock: TATPOV_clean_sbu_0, # of connection points: 4
#     Node 12, Type 0, BuildingBlock: TATPOV_clean_sbu_0, # of connection points: 4
#     Node 13, Type 0, BuildingBlock: TATPOV_clean_sbu_0, # of connection points: 4
#     Node 14, Type 0, BuildingBlock: TATPOV_clean_sbu_0, # of connection points: 4
#     Node 15, Type 0, BuildingBlock: TATPOV_clean_sbu_0, # of connection points: 4
#     Node 16, Type 0, BuildingBlock: TATPOV_clean_sbu_0, # of connection points: 4
#     Node 17, Type 0, BuildingBlock: TATPOV_clean_sbu_0, # of connection points: 4
#     Node 18, Type 0, BuildingBlock: TATPOV_clean_sbu_0, # of connection points: 4
#     Node 19, Type 0, BuildingBlock: TATPOV_clean_sbu_0, # of connection points: 4
#     Node 20, Type 0, BuildingBlock: TATPOV_clean_sbu_0, # of connection points: 4
#     Node 21, Type 0, BuildingBlock: TATPOV_clean_sbu_0, # of connection points: 4
#     Node 22, Type 0, BuildingBlock: TATPOV_clean_sbu_0, # of connection points: 4
#     Node 23, Type 0, BuildingBlock: TATPOV_clean_sbu_0, # of connection points: 4
#     Node 24, Type 0, BuildingBlock: TATPOV_clean_sbu_0, # of connection points: 4
#     Node 25, Type 0, BuildingBlock: TATPOV_clean_sbu_0, # of connection points: 4
#     Node 26, Type 0, BuildingBlock: TATPOV_clean_sbu_0, # of connection points: 4
#     Node 27, Type 0, BuildingBlock: TATPOV_clean_sbu_0, # of connection points: 4
#     Node 28, Type 0, BuildingBlock: TATPOV_clean_sbu_0, # of connection points: 4
#     Node 29, Type 0, BuildingBlock: TATPOV_clean_sbu_0, # of connection points: 4
#     Node 30, Type 0, BuildingBlock: TATPOV_clean_sbu_0, # of connection points: 4
#     Node 31, Type 0, BuildingBlock: TATPOV_clean_sbu_0, # of connection points: 4
#     Node 32, Type 0, BuildingBlock: TATPOV_clean_sbu_0, # of connection points: 4
#     Node 33, Type 0, BuildingBlock: TATPOV_clean_sbu_0, # of connection points: 4
#     Node 34, Type 0, BuildingBlock: TATPOV_clean_sbu_0, # of connection points: 4
#     Node 35, Type 0, BuildingBlock: TATPOV_clean_sbu_0, # of connection points: 4
#     Edge 36, Type (0, 0), BuildingBlock: EZIPEK_clean_linker_0, # of connection points: 2
#     Edge 37, Type (0, 0), BuildingBlock: EZIPEK_clean_linker_0, # of connection points: 2
#     Edge 38, Type (0, 0), BuildingBlock: EZIPEK_clean_linker_0, # of connection points: 2
#     Edge 39, Type (0, 0), BuildingBlock: EZIPEK_clean_linker_0, # of connection points: 2
#     Edge 40, Type (0, 0), BuildingBlock: EZIPEK_clean_linker_0, # of connection points: 2
#     Edge 41, Type (0, 0), BuildingBlock: EZIPEK_clean_linker_0, # of connection points: 2
#     Edge 42, Type (0, 0), BuildingBlock: EZIPEK_clean_linker_0, # of connection points: 2
#     Edge 43, Type (0, 0), BuildingBlock: EZIPEK_clean_linker_0, # of connection points: 2
#     Edge 44, Type (0, 0), BuildingBlock: EZIPEK_clean_linker_0, # of connection points: 2
#     Edge 45, Type (0, 0), BuildingBlock: EZIPEK_clean_linker_0, # of connection points: 2
#     Edge 46, Type (0, 0), BuildingBlock: EZIPEK_clean_linker_0, # of connection points: 2
#     Edge 47, Type (0, 0), BuildingBlock: EZIPEK_clean_linker_0, # of connection points: 2
#     Edge 48, Type (0, 0), BuildingBlock: EZIPEK_clean_linker_0, # of connection points: 2
#     Edge 49, Type (0, 0), BuildingBlock: EZIPEK_clean_linker_0, # of connection points: 2
#     Edge 50, Type (0, 0), BuildingBlock: EZIPEK_clean_linker_0, # of connection points: 2
#     Edge 51, Type (0, 0), BuildingBlock: EZIPEK_clean_linker_0, # of connection points: 2
#     Edge 52, Type (0, 0), BuildingBlock: EZIPEK_clean_linker_0, # of connection points: 2
#     Edge 53, Type (0, 0), BuildingBlock: EZIPEK_clean_linker_0, # of connection points: 2
#     Edge 54, Type (0, 0), BuildingBlock: EZIPEK_clean_linker_0, # of connection points: 2
#     Edge 55, Type (0, 0), BuildingBlock: EZIPEK_clean_linker_0, # of connection points: 2
#     Edge 56, Type (0, 0), BuildingBlock: EZIPEK_clean_linker_0, # of connection points: 2
#     Edge 57, Type (0, 0), BuildingBlock: EZIPEK_clean_linker_0, # of connection points: 2
#     Edge 58, Type (0, 0), BuildingBlock: EZIPEK_clean_linker_0, # of connection points: 2
#     Edge 59, Type (0, 0), BuildingBlock: EZIPEK_clean_linker_0, # of connection points: 2
#     Edge 60, Type (0, 0), BuildingBlock: EZIPEK_clean_linker_0, # of connection points: 2
#     Edge 61, Type (0, 0), BuildingBlock: EZIPEK_clean_linker_0, # of connection points: 2
#     Edge 62, Type (0, 0), BuildingBlock: EZIPEK_clean_linker_0, # of connection points: 2
#     Edge 63, Type (0, 0), BuildingBlock: EZIPEK_clean_linker_0, # of connection points: 2
#     Edge 64, Type (0, 0), BuildingBlock: EZIPEK_clean_linker_0, # of connection points: 2
#     Edge 65, Type (0, 0), BuildingBlock: EZIPEK_clean_linker_0, # of connection points: 2
#     Edge 66, Type (0, 0), BuildingBlock: EZIPEK_clean_linker_0, # of connection points: 2
#     Edge 67, Type (0, 0), BuildingBlock: EZIPEK_clean_linker_0, # of connection points: 2
#     Edge 68, Type (0, 0), BuildingBlock: EZIPEK_clean_linker_0, # of connection points: 2
#     Edge 69, Type (0, 0), BuildingBlock: EZIPEK_clean_linker_0, # of connection points: 2
#     Edge 70, Type (0, 0), BuildingBlock: EZIPEK_clean_linker_0, # of connection points: 2
#     Edge 71, Type (0, 0), BuildingBlock: EZIPEK_clean_linker_0, # of connection points: 2
#     Edge 72, Type (0, 0), BuildingBlock: EZIPEK_clean_linker_0, # of connection points: 2
#     Edge 73, Type (0, 0), BuildingBlock: EZIPEK_clean_linker_0, # of connection points: 2
#     Edge 74, Type (0, 0), BuildingBlock: EZIPEK_clean_linker_0, # of connection points: 2
#     Edge 75, Type (0, 0), BuildingBlock: EZIPEK_clean_linker_0, # of connection points: 2
#     Edge 76, Type (0, 0), BuildingBlock: EZIPEK_clean_linker_0, # of connection points: 2
#     Edge 77, Type (0, 0), BuildingBlock: EZIPEK_clean_linker_0, # of connection points: 2
#     Edge 78, Type (0, 0), BuildingBlock: EZIPEK_clean_linker_0, # of connection points: 2
#     Edge 79, Type (0, 0), BuildingBlock: EZIPEK_clean_linker_0, # of connection points: 2
#     Edge 80, Type (0, 0), BuildingBlock: EZIPEK_clean_linker_0, # of connection points: 2
#     Edge 81, Type (0, 0), BuildingBlock: EZIPEK_clean_linker_0, # of connection points: 2
#     Edge 82, Type (0, 0), BuildingBlock: EZIPEK_clean_linker_0, # of connection points: 2
#     Edge 83, Type (0, 0), BuildingBlock: EZIPEK_clean_linker_0, # of connection points: 2
#     Edge 84, Type (0, 0), BuildingBlock: EZIPEK_clean_linker_0, # of connection points: 2
#     Edge 85, Type (0, 0), BuildingBlock: EZIPEK_clean_linker_0, # of connection points: 2
#     Edge 86, Type (0, 0), BuildingBlock: EZIPEK_clean_linker_0, # of connection points: 2
#     Edge 87, Type (0, 0), BuildingBlock: EZIPEK_clean_linker_0, # of connection points: 2
#     Edge 88, Type (0, 0), BuildingBlock: EZIPEK_clean_linker_0, # of connection points: 2
#     Edge 89, Type (0, 0), BuildingBlock: EZIPEK_clean_linker_0, # of connection points: 2
#     Edge 90, Type (0, 0), BuildingBlock: EZIPEK_clean_linker_0, # of connection points: 2
#     Edge 91, Type (0, 0), BuildingBlock: EZIPEK_clean_linker_0, # of connection points: 2
#     Edge 92, Type (0, 0), BuildingBlock: EZIPEK_clean_linker_0, # of connection points: 2
#     Edge 93, Type (0, 0), BuildingBlock: EZIPEK_clean_linker_0, # of connection points: 2
#     Edge 94, Type (0, 0), BuildingBlock: EZIPEK_clean_linker_0, # of connection points: 2
#     Edge 95, Type (0, 0), BuildingBlock: EZIPEK_clean_linker_0, # of connection points: 2
#     Edge 96, Type (0, 0), BuildingBlock: EZIPEK_clean_linker_0, # of connection points: 2
#     Edge 97, Type (0, 0), BuildingBlock: EZIPEK_clean_linker_0, # of connection points: 2
#     Edge 98, Type (0, 0), BuildingBlock: EZIPEK_clean_linker_0, # of connection points: 2
#     Edge 99, Type (0, 0), BuildingBlock: EZIPEK_clean_linker_0, # of connection points: 2
#     Edge 100, Type (0, 0), BuildingBlock: EZIPEK_clean_linker_0, # of connection points: 2
#     Edge 101, Type (0, 0), BuildingBlock: EZIPEK_clean_linker_0, # of connection points: 2
#     Edge 102, Type (0, 0), BuildingBlock: EZIPEK_clean_linker_0, # of connection points: 2
#     Edge 103, Type (0, 0), BuildingBlock: EZIPEK_clean_linker_0, # of connection points: 2
#     Edge 104, Type (0, 0), BuildingBlock: EZIPEK_clean_linker_0, # of connection points: 2
#     Edge 105, Type (0, 0), BuildingBlock: EZIPEK_clean_linker_0, # of connection points: 2
#     Edge 106, Type (0, 0), BuildingBlock: EZIPEK_clean_linker_0, # of connection points: 2
#     Edge 107, Type (0, 0), BuildingBlock: EZIPEK_clean_linker_0, # of connection points: 2
# Relax obj value: 0.222
# Max RMSD: 0.180
# Mean RMSD: 0.179
data_MOF--net-ukv--node1-TATPOV_clean_sbu_0--edge1-EZIPEK_clean_linker_0
_symmetry_space_group_name_H-M    P1
_symmetry_Int_Tables_number       1
_symmetry_cell_setting            triclinic
loop_
_symmetry_equiv_pos_as_xyz
'x, y, z'
_cell_length_a     71.794985
_cell_length_b     71.882239
_cell_length_c     14.760171
_cell_angle_alpha  90.032709
_cell_angle_beta   90.080489
_cell_angle_gamma 119.957
loop_
_atom_site_label
_atom_site_type_symbol
_atom_site_fract_x
_atom_site_fract_y
_atom_site_fract_z
_atom_type_partial_charge
Zn0 Zn 0.30871 0.13381 0.12033 0.0
Zn1 Zn 0.28289 0.09626 0.12949 0.0
O2 O 0.31292 0.09918 0.10311 0.0
O3 O 0.32862 0.13045 0.03505 0.0
O4 O 0.26608 0.06595 0.17762 0.0
O5 O 0.28401 0.14042 0.11962 0.0
O6 O 0.27472 0.1143 0.217 0.0
C7 C 0.3274 0.11255 0.04968 0.0
C8 C 0.27504 0.11556 0.97573 0.0
O9 O 0.27092 0.09737 0.00634 0.0
O10 O 0.28789 0.13272 0.01816 0.0
C11 C 0.24675 0.05208 0.15868 0.0
O12 O 0.23555 0.05702 0.10326 0.0
C13 C 0.27268 0.12992 0.18718 0.0
Zn14 Zn 0.89537 0.19571 0.03584 0.0
Zn15 Zn 0.92594 0.19358 0.07413 0.0
O16 O 0.93457 0.22253 0.0049 0.0
O17 O 0.90763 0.22731 0.03778 0.0
O18 O 0.95454 0.19631 0.1118 0.0
O19 O 0.8775 0.17735 0.13393 0.0
O20 O 0.90844 0.18519 0.19461 0.0
C21 C 0.92606 0.23447 0.00355 0.0
C22 C 0.89629 0.16519 0.9293 0.0
O23 O 0.90974 0.16712 0.99039 0.0
O24 O 0.89089 0.17937 0.92111 0.0
C25 C 0.96745 0.21344 0.154 0.0
O26 O 0.96206 0.2282 0.1672 0.0
C27 C 0.88798 0.17597 0.19951 0.0
Zn28 Zn 0.80636 0.69569 0.17899 0.0
Zn29 Zn 0.81233 0.73027 0.13893 0.0
O30 O 0.78406 0.70838 0.07093 0.0
O31 O 0.78313 0.67785 0.09005 0.0
O32 O 0.81002 0.75719 0.14194 0.0
O33 O 0.80007 0.6957 0.31107 0.0
O34 O 0.82055 0.72902 0.27447 0.0
C35 C 0.77542 0.68838 0.0531 0.0
C36 C 0.8463 0.72224 0.08214 0.0
O37 O 0.83745 0.73333 0.06234 0.0
O38 O 0.8377 0.70768 0.14167 0.0
C39 C 0.8227 0.77317 0.19072 0.0
O40 O 0.83938 0.77306 0.22641 0.0
C41 C 0.81338 0.71458 0.33544 0.0
Zn42 Zn 0.13014 0.30325 0.40497 0.0
Zn43 Zn 0.09501 0.26847 0.35709 0.0
O44 O 0.08577 0.28396 0.45233 0.0
O45 O 0.11548 0.31367 0.48745 0.0
O46 O 0.06648 0.2462 0.2999 0.0
O47 O 0.13938 0.3148 0.28086 0.0
O48 O 0.11177 0.28415 0.24096 0.0
C49 C 0.09555 0.30134 0.49786 0.0
C50 C 0.12936 0.26343 0.45227 0.0
O51 O 0.11049 0.25375 0.41758 0.0
O52 O 0.14022 0.28374 0.45367 0.0
C53 C 0.04825 0.24129 0.33351 0.0
O54 O 0.04725 0.24783 0.41545 0.0
C55 C 0.1283 0.30186 0.21884 0.0
Zn56 Zn 0.73693 0.84135 0.53509 0.0
Zn57 Zn 0.75559 0.82495 0.47802 0.0
O58 O 0.72648 0.79718 0.49945 0.0
O59 O 0.71617 0.81338 0.59683 0.0
O60 O 0.77655 0.81695 0.42323 0.0
O61 O 0.7278 0.84973 0.42749 0.0
O62 O 0.7536 0.84454 0.37648 0.0
C63 C 0.71319 0.79625 0.55918 0.0
C64 C 0.77073 0.85584 0.63574 0.0
O65 O 0.76751 0.83778 0.60662 0.0
O66 O 0.76368 0.86553 0.58859 0.0
C67 C 0.77074 0.80231 0.36349 0.0
O68 O 0.75037 0.79122 0.3401 0.0
C69 C 0.74082 0.85193 0.36558 0.0
Zn70 Zn 0.20743 0.90104 0.42756 0.0
Zn71 Zn 0.2014 0.93154 0.42546 0.0
O72 O 0.22899 0.9392 0.50319 0.0
O73 O 0.23516 0.9123 0.49325 0.0
O74 O 0.20555 0.95998 0.38133 0.0
O75 O 0.20208 0.89023 0.29955 0.0
O76 O 0.18756 0.91059 0.31679 0.0
C77 C 0.23993 0.93037 0.52632 0.0
C78 C 0.17037 0.89857 0.53323 0.0
O79 O 0.17672 0.91801 0.51229 0.0
O80 O 0.18046 0.88932 0.50597 0.0
C81 C 0.21843 0.96847 0.31526 0.0
O82 O 0.22762 0.95831 0.27967 0.0
C83 C 0.18871 0.89576 0.2742 0.0
Zn84 Zn 0.70165 0.88965 0.90229 0.0
Zn85 Zn 0.73126 0.92182 0.92324 0.0
O86 O 0.70326 0.92151 0.97202 0.0
O87 O 0.67637 0.88831 0.9622 0.0
O88 O 0.74973 0.95206 0.87394 0.0
O89 O 0.71705 0.87234 0.91059 0.0
O90 O 0.73584 0.90147 0.83141 0.0
C91 C 0.68374 0.90741 0.98948 0.0
C92 C 0.73197 0.89681 0.06211 0.0
O93 O 0.74244 0.91661 0.04069 0.0
O94 O 0.71642 0.88366 0.01222 0.0
C95 C 0.76296 0.9567 0.80888 0.0
O96 O 0.76692 0.94205 0.77613 0.0
C97 C 0.7318 0.88256 0.85285 0.0
Zn98 Zn 0.11541 0.80743 0.88874 0.0
Zn99 Zn 0.08502 0.81236 0.92852 0.0
O100 O 0.08271 0.78455 0.98487 0.0
O101 O 0.10499 0.77667 0.91833 0.0
O102 O 0.05399 0.80449 0.90274 0.0
O103 O 0.1237 0.81968 0.76422 0.0
O104 O 0.1013 0.82961 0.81491 0.0
C105 C 0.09029 0.77192 0.97597 0.0
C106 C 0.12003 0.83848 0.04005 0.0
O107 O 0.1007 0.83422 0.02676 0.0
O108 O 0.12797 0.82912 0.99428 0.0
C109 C 0.04904 0.81435 0.84419 0.0
O110 O 0.06411 0.83256 0.81017 0.0
C111 C 0.11506 0.83119 0.75676 0.0
Zn112 Zn 0.20595 0.29586 0.80551 0.0
Zn113 Zn 0.1905 0.25983 0.89785 0.0
O114 O 0.22182 0.27911 0.94441 0.0
O115 O 0.23558 0.30818 0.86147 0.0
O116 O 0.18004 0.23085 0.9574 0.0
O117 O 0.19661 0.28079 0.68423 0.0
O118 O 0.18074 0.25151 0.76559 0.0
C119 C 0.23756 0.29772 0.92617 0.0
C120 C 0.1728 0.2892 0.93665 0.0
O121 O 0.1728 0.27187 0.95495 0.0
O122 O 0.18479 0.30165 0.8748 0.0
C123 C 0.1801 0.21408 0.92925 0.0
O124 O 0.17162 0.19692 0.98091 0.0
C125 C 0.18392 0.26072 0.68907 0.0
Zn126 Zn 0.89821 0.70236 0.68214 0.0
Zn127 Zn 0.92282 0.73805 0.63506 0.0
O128 O 0.92942 0.71684 0.56179 0.0
O129 O 0.90654 0.68453 0.60732 0.0
O130 O 0.95202 0.7651 0.64531 0.0
O131 O 0.90208 0.7046 0.81638 0.0
O132 O 0.91289 0.73692 0.76898 0.0
C133 C 0.92187 0.6966 0.55573 0.0
C134 C 0.88051 0.72503 0.57263 0.0
O135 O 0.89994 0.73982 0.55961 0.0
O136 O 0.87653 0.70971 0.62659 0.0
C137 C 0.96387 0.76134 0.69796 0.0
O138 O 0.95637 0.74179 0.7295 0.0
C139 C 0.90665 0.7236 0.83411 0.0
Zn140 Zn 0.24918 0.146 0.46782 0.0
Zn141 Zn 0.24016 0.17441 0.55844 0.0
O142 O 0.26919 0.19909 0.52817 0.0
O143 O 0.27302 0.17731 0.43311 0.0
O144 O 0.2236 0.18501 0.63405 0.0
O145 O 0.25574 0.13415 0.57236 0.0
O146 O 0.24556 0.15441 0.64602 0.0
C147 C 0.27944 0.19603 0.46512 0.0
C148 C 0.2188 0.14644 0.40165 0.0
O149 O 0.22724 0.16565 0.42914 0.0
O150 O 0.21659 0.13323 0.462 0.0
C151 C 0.22012 0.20039 0.61756 0.0
O152 O 0.22696 0.21123 0.54163 0.0
C153 C 0.25186 0.14057 0.64578 0.0
Zn154 Zn 0.79905 0.10736 0.60833 0.0
Zn155 Zn 0.80358 0.07705 0.55676 0.0
O156 O 0.77312 0.07155 0.52169 0.0
O157 O 0.76753 0.09583 0.58374 0.0
O158 O 0.79927 0.04728 0.57371 0.0
O159 O 0.81338 0.1141 0.73072 0.0
O160 O 0.82339 0.09308 0.66555 0.0
C161 C 0.76065 0.07913 0.53536 0.0
C162 C 0.82777 0.11336 0.44749 0.0
O163 O 0.82244 0.09359 0.4519 0.0
O164 O 0.82004 0.12124 0.50305 0.0
C165 C 0.79069 0.03976 0.65043 0.0
O166 O 0.78608 0.05149 0.70404 0.0
C167 C 0.82585 0.10643 0.7275 0.0
Zn168 Zn 0.92618 0.43748 0.21067 0.0
Zn169 Zn 0.91333 0.40647 0.30247 0.0
O170 O 0.94476 0.41585 0.25922 0.0
O171 O 0.94623 0.43263 0.13386 0.0
O172 O 0.9045 0.37996 0.37945 0.0
O173 O 0.93532 0.4585 0.31276 0.0
O174 O 0.91399 0.42913 0.38919 0.0
C175 C 0.95482 0.42541 0.18715 0.0
C176 C 0.88392 0.41021 0.16791 0.0
O177 O 0.88792 0.39704 0.20947 0.0
O178 O 0.89813 0.42976 0.16399 0.0
C179 C 0.88531 0.36849 0.40763 0.0
O180 O 0.87086 0.37397 0.38791 0.0
C181 C 0.92474 0.44957 0.38367 0.0
Zn182 Zn 0.55685 0.52035 0.59746 0.0
Zn183 Zn 0.58736 0.51936 0.50693 0.0
O184 O 0.58829 0.54797 0.48006 0.0
O185 O 0.56319 0.54969 0.55644 0.0
O186 O 0.61794 0.52761 0.47582 0.0
O187 O 0.56625 0.51532 0.71893 0.0
O188 O 0.58513 0.50636 0.6326 0.0
C189 C 0.57865 0.5582 0.5011 0.0
C190 C 0.54391 0.48736 0.44962 0.0
O191 O 0.56383 0.49591 0.4293 0.0
O192 O 0.53803 0.49413 0.51725 0.0
C193 C 0.62678 0.51685 0.49971 0.0
O194 O 0.6148 0.49655 0.52153 0.0
C195 C 0.5776 0.50653 0.71005 0.0
Zn196 Zn 0.55836 0.11565 0.22659 0.0
Zn197 Zn 0.53091 0.11743 0.34013 0.0
O198 O 0.51763 0.08469 0.32584 0.0
O199 O 0.53981 0.08319 0.22661 0.0
O200 O 0.51058 0.12096 0.42561 0.0
O201 O 0.58378 0.13041 0.30599 0.0
O202 O 0.56141 0.13293 0.39999 0.0
C203 C 0.52307 0.07381 0.27515 0.0
C204 C 0.53625 0.13455 0.14648 0.0
O205 O 0.52602 0.129 0.22097 0.0
O206 O 0.55258 0.13245 0.1356 0.0
C207 C 0.5154 0.13672 0.47866 0.0
O208 O 0.53546 0.15225 0.48529 0.0
C209 C 0.58041 0.13681 0.38051 0.0
Zn210 Zn 0.77814 0.64198 0.6024 0.0
Zn211 Zn 0.75384 0.60631 0.65568 0.0
O212 O 0.74528 0.62639 0.72472 0.0
O213 O 0.77028 0.65868 0.68763 0.0
O214 O 0.72674 0.57749 0.65493 0.0
O215 O 0.76837 0.63739 0.47199 0.0
O216 O 0.76176 0.60637 0.52073 0.0
C217 C 0.75384 0.64668 0.73427 0.0
C218 C 0.7977 0.62056 0.7037 0.0
O219 O 0.7784 0.60726 0.72685 0.0
O220 O 0.8011 0.63441 0.64302 0.0
C221 C 0.7123 0.57877 0.60964 0.0
O222 O 0.7163 0.59766 0.58017 0.0
C223 C 0.76524 0.61888 0.45434 0.0
Zn224 Zn 0.37589 0.13478 0.60931 0.0
Zn225 Zn 0.41235 0.15331 0.65304 0.0
O226 O 0.39479 0.12936 0.74963 0.0
O227 O 0.36177 0.11152 0.69997 0.0
O228 O 0.44256 0.15738 0.65079 0.0
O229 O 0.37624 0.12811 0.47943 0.0
O230 O 0.40739 0.15536 0.51341 0.0
C231 C 0.37528 0.11465 0.76144 0.0
C232 C 0.3929 0.17837 0.69182 0.0
O233 O 0.4101 0.17788 0.7084 0.0
O234 O 0.37833 0.16378 0.64293 0.0
C235 C 0.44355 0.14032 0.63919 0.0
O236 O 0.42568 0.12168 0.64065 0.0
C237 C 0.39355 0.14409 0.45312 0.0
Zn238 Zn 0.84782 0.21969 0.75226 0.0
Zn239 Zn 0.84924 0.25318 0.70423 0.0
O240 O 0.87988 0.26149 0.75311 0.0
O241 O 0.87947 0.23085 0.75252 0.0
O242 O 0.8533 0.28187 0.66284 0.0
O243 O 0.82832 0.20368 0.65028 0.0
O244 O 0.83764 0.23483 0.58834 0.0
C245 C 0.8898 0.25101 0.76235 0.0
C246 C 0.81989 0.22576 0.85738 0.0
O247 O 0.82403 0.23994 0.79662 0.0
O248 O 0.83155 0.21725 0.86497 0.0
C249 C 0.86441 0.28939 0.59114 0.0
O250 O 0.8721 0.27844 0.55022 0.0
C251 C 0.82697 0.2144 0.58546 0.0
Zn252 Zn 0.35514 0.20626 0.09959 0.0
Zn253 Zn 0.38847 0.23813 0.14149 0.0
O254 O 0.36497 0.24111 0.21254 0.0
O255 O 0.33642 0.20951 0.18963 0.0
O256 O 0.41364 0.26823 0.15052 0.0
O257 O 0.35406 0.21292 0.97001 0.0
O258 O 0.388 0.23301 0.00146 0.0
C259 C 0.34538 0.22745 0.22942 0.0
C260 C 0.38413 0.19632 0.19299 0.0
O261 O 0.39398 0.21641 0.21045 0.0
O262 O 0.36904 0.18872 0.13522 0.0
C263 C 0.43325 0.27472 0.13291 0.0
O264 O 0.4396 0.26076 0.11733 0.0
C265 C 0.37317 0.22388 0.94228 0.0
Zn266 Zn 0.7496 0.13204 0.16974 0.0
Zn267 Zn 0.72309 0.13977 0.22632 0.0
O268 O 0.71888 0.11037 0.27283 0.0
O269 O 0.73865 0.1009 0.19554 0.0
O270 O 0.69304 0.13589 0.20915 0.0
O271 O 0.75831 0.1462 0.04861 0.0
O272 O 0.74068 0.15966 0.11808 0.0
C273 C 0.72506 0.09679 0.25791 0.0
C274 C 0.75957 0.1614 0.33341 0.0
O275 O 0.74053 0.15855 0.33013 0.0
O276 O 0.76562 0.15236 0.27575 0.0
C277 C 0.68237 0.1227 0.14597 0.0
O278 O 0.69096 0.11268 0.104 0.0
C279 C 0.75336 0.16073 0.05525 0.0
Zn280 Zn 0.86651 0.6481 0.11059 0.0
Zn281 Zn 0.86009 0.61282 0.15541 0.0
O282 O 0.88849 0.63417 0.22312 0.0
O283 O 0.89086 0.66515 0.1974 0.0
O284 O 0.86042 0.58491 0.14869 0.0
O285 O 0.87126 0.64688 0.97728 0.0
O286 O 0.8528 0.61368 0.01988 0.0
C287 C 0.89799 0.65438 0.23699 0.0
C288 C 0.82645 0.62181 0.20985 0.0
O289 O 0.83488 0.61032 0.22917 0.0
O290 O 0.83552 0.63671 0.15198 0.0
C291 C 0.8765 0.58699 0.10374 0.0
O292 O 0.89179 0.60636 0.08155 0.0
C293 C 0.8592 0.62739 0.95632 0.0
Zn294 Zn 0.53899 0.07921 0.71641 0.0
Zn295 Zn 0.56815 0.0854 0.84751 0.0
O296 O 0.55325 0.0527 0.81282 0.0
O297 O 0.5281 0.04772 0.71405 0.0
O298 O 0.59003 0.0898 0.94688 0.0
O299 O 0.52468 0.0918 0.79006 0.0
O300 O 0.54899 0.09746 0.89523 0.0
C301 C 0.53758 0.04026 0.76119 0.0
C302 C 0.58356 0.10957 0.67226 0.0
O303 O 0.58803 0.10587 0.75098 0.0
O304 O 0.56445 0.09977 0.64257 0.0
C305 C 0.60374 0.10874 0.97259 0.0
O306 O 0.60242 0.12508 0.94045 0.0
C307 C 0.53306 0.09916 0.8665 0.0
Zn308 Zn 0.9342 0.48401 0.89297 0.0
Zn309 Zn 0.91392 0.50328 0.87652 0.0
O310 O 0.94704 0.52373 0.89218 0.0
O311 O 0.96322 0.50653 0.93652 0.0
O312 O 0.90281 0.52298 0.91508 0.0
O313 O 0.9132 0.45898 0.96442 0.0
O314 O 0.89327 0.47369 0.93868 0.0
C315 C 0.96432 0.52412 0.91586 0.0
C316 C 0.91986 0.48776 0.70776 0.0
O317 O 0.91072 0.49745 0.74186 0.0
O318 O 0.93012 0.48153 0.75727 0.0
C319 C 0.88424 0.51731 0.94639 0.0
O320 O 0.8693 0.49695 0.94647 0.0
C321 C 0.89515 0.45803 0.96815 0.0
Zn322 Zn 0.48654 0.44102 0.00286 0.0
Zn323 Zn 0.48928 0.40733 0.00489 0.0
O324 O 0.46578 0.40291 0.90796 0.0
O325 O 0.46276 0.43185 0.91377 0.0
O326 O 0.48516 0.3776 0.02187 0.0
O327 O 0.48353 0.44347 0.13566 0.0
O328 O 0.49129 0.41777 0.13725 0.0
C329 C 0.45762 0.41396 0.87785 0.0
C330 C 0.52724 0.44614 0.93667 0.0
O331 O 0.51902 0.42613 0.95181 0.0
O332 O 0.51667 0.45554 0.9534 0.0
C333 C 0.46937 0.36478 0.07092 0.0
O334 O 0.45713 0.37151 0.10767 0.0
C335 C 0.48876 0.43171 0.18 0.0
Zn336 Zn 0.60826 0.78012 0.65812 0.0
Zn337 Zn 0.58536 0.74463 0.73106 0.0
O338 O 0.61383 0.74512 0.68868 0.0
O339 O 0.63498 0.77897 0.65083 0.0
O340 O 0.56726 0.71543 0.7908 0.0
O341 O 0.60298 0.79584 0.75678 0.0
O342 O 0.58842 0.76555 0.83346 0.0
C343 C 0.63213 0.76035 0.66269 0.0
C344 C 0.5704 0.759 0.5642 0.0
O345 O 0.56557 0.74689 0.63358 0.0
O346 O 0.58974 0.77305 0.54988 0.0
C347 C 0.56773 0.69866 0.76708 0.0
O348 O 0.57979 0.69959 0.69843 0.0
C349 C 0.59428 0.78544 0.82815 0.0
Zn350 Zn 0.25695 0.88031 0.89408 0.0
Zn351 Zn 0.28683 0.87968 0.8284 0.0
O352 O 0.28593 0.90749 0.7944 0.0
O353 O 0.26304 0.91056 0.88091 0.0
O354 O 0.31836 0.8891 0.84943 0.0
O355 O 0.25066 0.8642 0.0104 0.0
O356 O 0.27202 0.85694 0.93082 0.0
C357 C 0.27676 0.91806 0.81783 0.0
C358 C 0.25146 0.85512 0.71975 0.0
O359 O 0.27157 0.86143 0.71977 0.0
O360 O 0.24335 0.86086 0.78287 0.0
C361 C 0.33453 0.89259 0.80185 0.0
O362 O 0.33273 0.89009 0.71352 0.0
C363 C 0.25884 0.85247 0.99595 0.0
Zn364 Zn 0.14388 0.35334 0.87613 0.0
Zn365 Zn 0.14738 0.38797 0.83205 0.0
O366 O 0.11845 0.36178 0.78771 0.0
O367 O 0.11286 0.3324 0.85479 0.0
O368 O 0.1402 0.41159 0.84909 0.0
O369 O 0.15719 0.3595 -0.00133 0.0
O370 O 0.16586 0.39126 0.9455 0.0
C371 C 0.10642 0.34164 0.80075 0.0
C372 C 0.17278 0.37819 0.71858 0.0
O373 O 0.16798 0.39286 0.73046 0.0
O374 O 0.1645 0.36142 0.76759 0.0
C375 C 0.15286 0.42931 0.88779 0.0
O376 O 0.17264 0.43408 0.90669 0.0
C377 C 0.16815 0.37969 0.00462 0.0
Zn378 Zn 0.47211 0.94072 0.28855 0.0
Zn379 Zn 0.44365 0.93714 0.15557 0.0
O380 O 0.46129 0.96986 0.18559 0.0
O381 O 0.48534 0.97272 0.28639 0.0
O382 O 0.42399 0.93381 0.04897 0.0
O383 O 0.48422 0.92558 0.2168 0.0
O384 O 0.45999 0.92171 0.11461 0.0
C385 C 0.47724 0.98136 0.23765 0.0
C386 C 0.42609 0.91525 0.33239 0.0
O387 O 0.42225 0.91976 0.25401 0.0
O388 O 0.44518 0.92233 0.36003 0.0
C389 C 0.40787 0.91527 0.0335 0.0
O390 O 0.40528 0.89895 0.08293 0.0
C391 C 0.47485 0.9182 0.14197 0.0
Zn392 Zn 0.04822 0.5049 0.21365 0.0
Zn393 Zn 0.08922 0.48324 0.18268 0.0
O394 O 0.05934 0.45385 0.17609 0.0
O395 O 0.05349 0.47939 0.20654 0.0
O396 O 0.11162 0.47679 0.13327 0.0
O397 O 0.06745 0.52197 0.10826 0.0
O398 O 0.08856 0.50679 0.09794 0.0
C399 C 0.0456 0.45978 0.18551 0.0
C400 C 0.08493 0.50562 0.31296 0.0
O401 O 0.09853 0.49929 0.30794 0.0
O402 O 0.06846 0.4956 0.26376 0.0
C403 C 0.10758 0.46777 0.05586 0.0
O404 O 0.09007 0.46409 0.01261 0.0
C405 C 0.08254 0.52004 0.07084 0.0
Zn406 Zn 0.52798 0.54841 0.08196 0.0
Zn407 Zn 0.52775 0.58242 0.0461 0.0
O408 O 0.54982 0.58934 0.1524 0.0
O409 O 0.55119 0.55975 0.17308 0.0
O410 O 0.53575 0.61202 -0.00148 0.0
O411 O 0.53178 0.53987 0.95954 0.0
O412 O 0.52724 0.56687 0.92579 0.0
C413 C 0.55711 0.57887 0.19517 0.0
C414 C 0.48794 0.54779 0.1271 0.0
O415 O 0.49706 0.5671 0.09831 0.0
O416 O 0.49777 0.53726 0.12542 0.0
C417 C 0.52353 0.61683 0.95425 0.0
O418 O 0.50311 0.60246 0.94417 0.0
C419 C 0.52922 0.55099 0.90002 0.0
Zn420 Zn 0.06723 0.55336 0.61087 0.0
Zn421 Zn 0.08241 0.59619 0.64841 0.0
O422 O 0.05275 0.58815 0.6933 0.0
O423 O 0.04555 0.55457 0.70198 0.0
O424 O 0.09999 0.62874 0.63855 0.0
O425 O 0.09984 0.57209 0.57523 0.0
O426 O 0.082 0.58559 0.51679 0.0
C427 C 0.04103 0.56906 0.72211 0.0
C428 C 0.09713 0.56864 0.74813 0.0
O429 O 0.09215 0.58334 0.75378 0.0
O430 O 0.09626 0.56046 0.67083 0.0
C431 C 0.11668 0.63717 0.58873 0.0
O432 O 0.12378 0.62499 0.55471 0.0
C433 C 0.09381 0.57733 0.50453 0.0
Zn434 Zn 0.45441 0.47135 0.46771 0.0
Zn435 Zn 0.42816 0.47677 0.56268 0.0
O436 O 0.42544 0.44749 0.59523 0.0
O437 O 0.44523 0.44083 0.50393 0.0
O438 O 0.39872 0.47156 0.59719 0.0
O439 O 0.44748 0.4799 0.34713 0.0
O440 O 0.43056 0.49043 0.43738 0.0
C441 C 0.4323 0.43504 0.56985 0.0
C442 C 0.47252 0.50358 0.6182 0.0
O443 O 0.45328 0.49872 0.63762 0.0
O444 O 0.4764 0.49484 0.55153 0.0
C445 C 0.38549 0.45736 0.54243 0.0
O446 O 0.39275 0.44915 0.48189 0.0
C447 C 0.43757 0.49011 0.35892 0.0
Zn448 Zn 0.44988 0.91057 0.78139 0.0
Zn449 Zn 0.47269 0.90288 0.66116 0.0
O450 O 0.49155 0.93588 0.6708 0.0
O451 O 0.4733 0.94183 0.77606 0.0
O452 O 0.48549 0.89257 0.56381 0.0
O453 O 0.42319 0.8998 0.70846 0.0
O454 O 0.4417 0.89187 0.61344 0.0
C455 C 0.48935 0.94875 0.7235 0.0
C456 C 0.46705 0.88552 0.85315 0.0
O457 O 0.47671 0.88969 0.77736 0.0
O458 O 0.45309 0.89103 0.86769 0.0
C459 C 0.50556 0.90044 0.55166 0.0
O460 O 0.51922 0.91667 0.60185 0.0
C461 C 0.42423 0.89144 0.63492 0.0
Zn462 Zn 0.23004 0.34966 0.32487 0.0
Zn463 Zn 0.26341 0.38424 0.33417 0.0
O464 O 0.26802 0.36243 0.25394 0.0
O465 O 0.23853 0.33112 0.25908 0.0
O466 O 0.29299 0.40575 0.38302 0.0
O467 O 0.21819 0.34376 0.45045 0.0
O468 O 0.24204 0.37806 0.44011 0.0
C469 C 0.25737 0.34277 0.22922 0.0
C470 C 0.23347 0.38796 0.22533 0.0
O471 O 0.25313 0.39892 0.24866 0.0
O472 O 0.22212 0.36847 0.24889 0.0
C473 C 0.29627 0.41585 0.45766 0.0
O474 O 0.27995 0.41366 0.50588 0.0
C475 C 0.22584 0.36276 0.47935 0.0
Zn476 Zn 0.60008 0.85011 0.30167 0.0
Zn477 Zn 0.57119 0.85251 0.24173 0.0
O478 O 0.60156 0.87897 0.21192 0.0
O479 O 0.62573 0.87974 0.30359 0.0
O480 O 0.55235 0.86554 0.27176 0.0
O481 O 0.58928 0.83089 0.40889 0.0
O482 O 0.56138 0.82629 0.33007 0.0
C483 C 0.62101 0.88835 0.23954 0.0
C484 C 0.58008 0.8308 0.11558 0.0
O485 O 0.56645 0.83718 0.12394 0.0
O486 O 0.59389 0.83454 0.17759 0.0
C487 C 0.53562 0.85555 0.32064 0.0
O488 O 0.52847 0.8353 0.34047 0.0
C489 C 0.56943 0.81996 0.39148 0.0
Zn490 Zn 0.16969 0.79406 0.28557 0.0
Zn491 Zn 0.1682 0.76032 0.33702 0.0
O492 O 0.13891 0.75221 0.27365 0.0
O493 O 0.13848 0.78235 0.26231 0.0
O494 O 0.16252 0.73161 0.38612 0.0
O495 O 0.18554 0.81077 0.39398 0.0
O496 O 0.17939 0.77993 0.45032 0.0
C497 C 0.12908 0.76223 0.25183 0.0
C498 C 0.19932 0.78641 0.19037 0.0
O499 O 0.19383 0.77142 0.24837 0.0
O500 O 0.18925 0.79663 0.18493 0.0
C501 C 0.14746 0.72258 0.44401 0.0
O502 O 0.13691 0.73226 0.46935 0.0
C503 C 0.18786 0.80025 0.45713 0.0
C504 C 0.23212 0.00814 0.33336 0.0
C505 C 0.22319 0.98955 0.27754 0.0
C506 C 0.22933 0.01191 0.14298 0.0
C507 C 0.23711 0.03033 0.1993 0.0
N508 N 0.24083 0.04519 0.34919 0.0
N509 N 0.20821 0.97313 0.13312 0.0
C510 C 0.23693 0.02819 0.29494 0.0
C511 C 0.22023 0.99126 0.18345 0.0
N512 N 0.23715 0.00697 0.42176 0.0
N513 N 0.23166 0.01412 0.05104 0.0
H514 H 0.20077 0.95777 0.16113 0.0
H515 H 0.20376 0.97344 0.06618 0.0
H516 H 0.23862 0.02894 0.0184 0.0
H517 H 0.22848 0.00143 0.0077 0.0
H518 H 0.2459 0.02046 0.46243 0.0
H519 H 0.23431 0.99274 0.45249 0.0
H520 H 0.2388 0.04395 0.41922 0.0
H521 H 0.24397 0.05999 0.32344 0.0
C522 C 0.9898 0.20596 0.26419 0.0
C523 C 0.98861 0.21733 0.18785 0.0
C524 C 0.02725 0.24305 0.19983 0.0
C525 C 0.02856 0.23161 0.276 0.0
N526 N 0.01247 0.19968 0.36758 0.0
N527 N 0.00673 0.24286 0.06861 0.0
C528 C 0.01023 0.21221 0.30386 0.0
C529 C 0.00757 0.23461 0.15095 0.0
N530 N 0.97133 0.18993 0.30169 0.0
N531 N 0.04424 0.26271 0.17773 0.0
H532 H 0.99254 0.23694 0.03121 0.0
H533 H 0.02034 0.25399 0.03347 0.0
H534 H 0.05888 0.26986 0.21206 0.0
H535 H 0.04329 0.27284 0.12988 0.0
H536 H 0.97085 0.18278 0.36359 0.0
H537 H 0.95616 0.18462 0.27355 0.0
H538 H 1.00023 0.18437 0.38494 0.0
H539 H 0.02725 0.20382 0.39723 0.0
C540 C 0.78716 0.79816 0.21926 0.0
C541 C 0.78698 0.79877 0.31565 0.0
C542 C 0.81882 0.79465 0.31754 0.0
C543 C 0.81508 0.78787 0.22572 0.0
N544 N 0.79832 0.78726 0.0835 0.0
N545 N 0.80195 0.79536 0.45763 0.0
C546 C 0.80005 0.79097 0.17469 0.0
C547 C 0.80276 0.79662 0.36524 0.0
N548 N 0.77582 0.80537 0.17047 0.0
N549 N 0.83796 0.80022 0.35836 0.0
H550 H 0.78993 0.7957 0.49584 0.0
H551 H 0.81199 0.79169 0.49535 0.0
H552 H 0.85124 0.80208 0.3222 0.0
H553 H 0.84169 0.80637 0.42401 0.0
H554 H 0.77672 0.80704 0.10032 0.0
H555 H 0.76719 0.81183 0.20073 0.0
H556 H 0.78578 0.78622 0.0442 0.0
H557 H 0.80949 0.78492 0.0475 0.0
C558 C 0.78767 0.99664 0.80723 0.0
C559 C 0.77184 0.9778 0.76309 0.0
C560 C 0.76991 0.99949 0.63857 0.0
C561 C 0.78605 0.01829 0.68196 0.0
N562 N 0.81355 0.03475 0.79624 0.0
N563 N 0.75025 0.9606 0.63045 0.0
C564 C 0.7959 0.01683 0.76305 0.0
C565 C 0.76386 0.97901 0.67634 0.0
N566 N 0.79459 0.99526 0.89201 0.0
N567 N 0.75935 0.00124 0.56471 0.0
H568 H 0.74415 0.94529 0.65793 0.0
H569 H 0.74603 0.96034 0.56277 0.0
H570 H 0.76338 0.01588 0.53449 0.0
H571 H 0.74562 0.98841 0.53676 0.0
H572 H 0.80412 0.00853 0.93255 0.0
H573 H 0.78979 0.98065 0.92437 0.0
H574 H 0.8228 0.03454 0.85016 0.0
H575 H 0.82019 0.04968 0.76447 0.0
C576 C 0.02423 0.79788 0.71014 0.0
C577 C 0.02709 0.80347 0.8038 0.0
C578 C 0.98799 0.78362 0.82517 0.0
C579 C 0.98513 0.77854 0.73114 0.0
N580 N 1.00005 0.78455 0.5809 0.0
N581 N 0.01187 0.80577 0.94565 0.0
C582 C 0.00312 0.78711 0.67248 0.0
C583 C 0.00898 0.79758 0.85987 0.0
N584 N 0.04148 0.80135 0.65852 0.0
N585 N 0.97063 0.77463 0.88184 0.0
H586 H 0.02703 0.81615 0.97271 0.0
H587 H 0.99931 0.8039 0.98702 0.0
H588 H 0.9549 0.76532 0.85853 0.0
H589 H 0.97186 0.7754 0.9522 0.0
H590 H 0.04012 0.79546 0.59293 0.0
H591 H 0.05711 0.80838 0.68358 0.0
H592 H 0.0124 0.79237 0.53405 0.0
H593 H 0.98486 0.77608 0.55125 0.0
C594 C 0.18673 0.1927 0.70288 0.0
C595 C 0.20902 0.20638 0.68682 0.0
C596 C 0.21207 0.22649 0.82559 0.0
C597 C 0.18967 0.21328 0.84076 0.0
N598 N 0.15488 0.18637 0.78581 0.0
N599 N 0.24186 0.2392 0.72051 0.0
C600 C 0.17675 0.19718 0.77663 0.0
C601 C 0.22127 0.22436 0.74366 0.0
N602 N 0.17523 0.17516 0.64868 0.0
N603 N 0.22495 0.23966 0.89292 0.0
H604 H 0.24946 0.23778 0.66295 0.0
H605 H 0.25072 0.25382 0.75409 0.0
H606 H 0.21899 0.24089 0.95559 0.0
H607 H 0.24167 0.24769 0.89003 0.0
H608 H 0.15964 0.16304 0.66291 0.0
H609 H 0.18173 0.17214 0.59108 0.0
H610 H 0.14434 0.17589 0.73723 0.0
H611 H 0.14709 0.18945 0.83838 0.0
C612 C 0.88295 0.32973 0.58969 0.0
C613 C 0.86797 0.30974 0.55026 0.0
C614 C 0.86469 0.32824 0.41682 0.0
C615 C 0.87894 0.3483 0.45785 0.0
N616 N 0.89862 0.36849 0.58933 0.0
N617 N 0.84135 0.28984 0.43603 0.0
C618 C 0.88721 0.34915 0.54616 0.0
C619 C 0.85785 0.30898 0.46669 0.0
N620 N 0.89374 0.33013 0.66675 0.0
N621 N 0.8585 0.32753 0.3286 0.0
H622 H 0.83589 0.27544 0.47109 0.0
H623 H 0.83178 0.28849 0.38053 0.0
H624 H 0.86323 0.34125 0.28947 0.0
H625 H 0.85016 0.31336 0.29161 0.0
H626 H 0.90667 0.34405 0.69303 0.0
H627 H 0.89071 0.31627 0.70152 0.0
H628 H 0.90314 0.37004 0.65718 0.0
H629 H 0.90208 0.38301 0.55938 0.0
C630 C 0.65494 0.53269 0.62212 0.0
C631 C 0.64966 0.52892 0.52829 0.0
C632 C 0.68672 0.55541 0.48838 0.0
C633 C 0.69189 0.55945 0.58221 0.0
N634 N 0.68253 0.54863 0.73788 0.0
N635 N 0.6611 0.53271 0.37334 0.0
C636 C 0.67658 0.54681 0.64882 0.0
C637 C 0.6658 0.53904 0.46178 0.0
N638 N 0.63904 0.52406 0.68587 0.0
N639 N 0.70169 0.5676 0.42468 0.0
H640 H 0.64589 0.52069 0.35252 0.0
H641 H 0.67252 0.53789 0.32197 0.0
H642 H 0.71758 0.57868 0.44088 0.0
H643 H 0.69825 0.56747 0.3561 0.0
H644 H 0.64134 0.52856 0.75381 0.0
H645 H 0.62305 0.51341 0.67036 0.0
H646 H 0.67281 0.53803 0.78793 0.0
H647 H 0.69783 0.55968 0.76133 0.0
C648 C 0.46404 0.1394 0.5037 0.0
C649 C 0.46307 0.14143 0.59907 0.0
C650 C 0.49651 0.1402 0.61684 0.0
C651 C 0.49793 0.13917 0.52104 0.0
N652 N 0.48603 0.14321 0.37308 0.0
N653 N 0.47968 0.14707 0.74581 0.0
C654 C 0.48253 0.1403 0.4644 0.0
C655 C 0.47979 0.14295 0.65548 0.0
N656 N 0.44704 0.13611 0.45047 0.0
N657 N 0.51052 0.13757 0.67082 0.0
H658 H 0.46743 0.1487 0.77595 0.0
H659 H 0.49239 0.15045 0.78948 0.0
H660 H 0.52288 0.1355 0.64491 0.0
H661 H 0.50904 0.13588 0.7409 0.0
H662 H 0.44563 0.13179 0.38238 0.0
H663 H 0.43352 0.13619 0.47556 0.0
H664 H 0.4766 0.14648 0.32958 0.0
H665 H 0.49965 0.14456 0.34161 0.0
C666 C 0.4539 0.30632 0.03055 0.0
C667 C 0.44787 0.29811 0.11974 0.0
C668 C 0.46223 0.33479 0.17735 0.0
C669 C 0.4644 0.34236 0.08696 0.0
N670 N 0.46024 0.33485 0.92626 0.0
N671 N 0.44633 0.30424 0.2792 0.0
C672 C 0.46008 0.32811 0.01303 0.0
C673 C 0.45222 0.31232 0.19363 0.0
N674 N 0.45341 0.29327 0.96218 0.0
N675 N 0.47022 0.34915 0.24736 0.0
H676 H 0.44034 0.28805 0.29416 0.0
H677 H 0.44647 0.31335 0.33437 0.0
H678 H 0.47811 0.36572 0.23738 0.0
H679 H 0.47092 0.34483 0.31405 0.0
H680 H 0.45964 0.29888 0.89788 0.0
H681 H 0.44882 0.27721 0.97194 0.0
H682 H 0.45464 0.3245 0.87084 0.0
H683 H 0.46414 0.35048 0.90986 0.0
C684 C 0.64276 0.11111 0.15628 0.0
C685 C 0.66245 0.12124 0.10761 0.0
C686 C 0.64334 0.12199 0.97075 0.0
C687 C 0.62377 0.11283 0.02012 0.0
N688 N 0.60516 0.10171 0.16271 0.0
N689 N 0.68228 0.14092 0.97588 0.0
C690 C 0.62357 0.10828 0.11392 0.0
C691 C 0.66294 0.12805 0.01701 0.0
N692 N 0.64227 0.10348 0.24153 0.0
N693 N 0.64312 0.12407 0.87868 0.0
H694 H 0.697 0.14609 0.00825 0.0
H695 H 0.68378 0.14827 0.91341 0.0
H696 H 0.62913 0.11968 0.84168 0.0
H697 H 0.65646 0.12829 0.83781 0.0
H698 H 0.62814 0.09388 0.27708 0.0
H699 H 0.65605 0.10572 0.27494 0.0
H700 H 0.60439 0.10019 0.23293 0.0
H701 H 0.59086 0.09923 0.13333 0.0
C702 C 0.87785 0.56664 0.96798 0.0
C703 C 0.87659 0.56803 0.06381 0.0
C704 C 0.87661 0.53403 0.08092 0.0
C705 C 0.87998 0.53382 0.986 0.0
N706 N 0.88503 0.55026 0.83905 0.0
N707 N 0.87704 0.55454 0.21265 0.0
C708 C 0.88093 0.55023 0.92958 0.0
C709 C 0.87628 0.55196 0.12062 0.0
N710 N 0.87523 0.58053 0.91321 0.0
N711 N 0.87406 0.51726 0.13346 0.0
H712 H 0.87698 0.5675 0.24415 0.0
H713 H 0.87938 0.54483 0.25805 0.0
H714 H 0.87587 0.50467 0.10888 0.0
H715 H 0.8689 0.51507 0.20046 0.0
H716 H 0.87328 0.57876 0.84328 0.0
H717 H 0.87319 0.59296 0.9378 0.0
H718 H 0.88902 0.56326 0.7965 0.0
H719 H 0.88553 0.53761 0.80667 0.0
C720 C 0.55817 0.67691 0.91126 0.0
C721 C 0.55493 0.67809 0.81691 0.0
C722 C 0.53097 0.63902 0.81209 0.0
C723 C 0.533 0.63801 0.9076 0.0
N724 N 0.54462 0.65666 0.05044 0.0
N725 N 0.53429 0.6611 0.68236 0.0
C726 C 0.54543 0.65718 0.95791 0.0
C727 C 0.54012 0.65938 0.76881 0.0
N728 N 0.57415 0.69425 0.95567 0.0
N729 N 0.52139 0.62061 0.76156 0.0
H730 H 0.54032 0.67578 0.64895 0.0
H731 H 0.52189 0.64832 0.64735 0.0
H732 H 0.51482 0.60532 0.78948 0.0
H733 H 0.52175 0.62055 0.69101 0.0
H734 H 0.57879 0.69355 0.02189 0.0
H735 H 0.58417 0.70887 0.92404 0.0
H736 H 0.55159 0.67043 0.0906 0.0
H737 H 0.53513 0.6426 0.08685 0.0
C738 C 0.38485 0.89463 0.9005 0.0
C739 C 0.39141 0.91178 0.96345 0.0
C740 C 0.36434 0.91951 0.90004 0.0
C741 C 0.35557 0.90032 0.84829 0.0
N742 N 0.35622 0.86827 0.80537 0.0
N743 N 0.38503 0.93868 0.03202 0.0
C744 C 0.36559 0.88758 0.84948 0.0
C745 C 0.38072 0.92394 0.96495 0.0
N746 N 0.39729 0.88537 0.88818 0.0
N747 N 0.35714 0.93366 0.88637 0.0
H748 H 0.39627 0.94203 0.08318 0.0
H749 H 0.37595 0.94615 0.0421 0.0
H750 H 0.34534 0.93104 0.83855 0.0
H751 H 0.36438 0.94891 0.91546 0.0
H752 H 0.39432 0.87397 0.83823 0.0
H753 H 0.41188 0.89067 0.92181 0.0
H754 H 0.36139 0.85714 0.81243 0.0
H755 H 0.34227 0.86262 0.76667 0.0
C756 C 0.13692 0.43627 0.02513 0.0
C757 C 0.14351 0.44113 0.93338 0.0
C758 C 0.13023 0.46662 0.92899 0.0
C759 C 0.12136 0.45982 0.01689 0.0
N760 N 0.11325 0.43561 0.14322 0.0
N761 N 0.14517 0.45945 0.79462 0.0
C762 C 0.1241 0.44414 0.06412 0.0
C763 C 0.13984 0.45594 0.88432 0.0
N764 N 0.14277 0.42399 0.07504 0.0
N765 N 0.13002 0.48372 0.88951 0.0
H766 H 0.153 0.45253 0.76103 0.0
H767 H 0.14069 0.46812 0.75218 0.0
H768 H 0.12345 0.49212 0.92103 0.0
H769 H 0.138 0.4908 0.82947 0.0
H770 H 0.1407 0.42206 0.1449 0.0
H771 H 0.15129 0.41704 0.04811 0.0
H772 H 0.11256 0.42234 0.17492 0.0
H773 H 0.10322 0.44041 0.17347 0.0
C774 C 0.13671 0.67733 0.609 0.0
C775 C 0.12501 0.65918 0.55235 0.0
C776 C 0.13059 0.68275 0.4222 0.0
C777 C 0.14096 0.70089 0.48019 0.0
N778 N 0.1527 0.71586 0.62961 0.0
N779 N 0.10764 0.64415 0.40931 0.0
C780 C 0.14363 0.69828 0.57398 0.0
C781 C 0.12123 0.66176 0.45988 0.0
N782 N 0.14182 0.67453 0.6953 0.0
N783 N 0.12952 0.68553 0.33104 0.0
H784 H 0.10015 0.62852 0.43443 0.0
H785 H 0.1022 0.64503 0.34493 0.0
H786 H 0.13475 0.70046 0.30116 0.0
H787 H 0.12471 0.6732 0.28381 0.0
H788 H 0.15223 0.68706 0.73746 0.0
H789 H 0.13676 0.65941 0.72313 0.0
H790 H 0.15277 0.71497 0.69997 0.0
H791 H 0.15936 0.73155 0.60561 0.0
C792 C 0.35535 0.45831 0.46286 0.0
C793 C 0.36255 0.45122 0.53781 0.0
C794 C 0.32567 0.42275 0.56882 0.0
C795 C 0.31856 0.42934 0.49163 0.0
N796 N 0.32518 0.4562 0.37924 0.0
N797 N 0.35477 0.43051 0.67434 0.0
C798 C 0.33299 0.44807 0.4431 0.0
C799 C 0.34768 0.43478 0.59533 0.0
N800 N 0.37008 0.47436 0.40878 0.0
N801 N 0.31172 0.40425 0.61313 0.0
H802 H 0.37087 0.43898 0.69422 0.0
H803 H 0.34463 0.42 0.72365 0.0
H804 H 0.29552 0.395 0.59593 0.0
H805 H 0.31637 0.39723 0.66331 0.0
H806 H 0.36635 0.4785 0.34656 0.0
H807 H 0.38641 0.4831 0.42493 0.0
H808 H 0.3345 0.47087 0.34701 0.0
H809 H 0.30884 0.44907 0.3638 0.0
C810 C 0.52475 0.87972 0.52875 0.0
C811 C 0.51344 0.88936 0.49084 0.0
C812 C 0.51588 0.87618 0.33975 0.0
C813 C 0.52855 0.86798 0.37716 0.0
N814 N 0.54895 0.86596 0.50312 0.0
N815 N 0.50054 0.89937 0.35921 0.0
C816 C 0.53412 0.87094 0.47049 0.0
C817 C 0.50959 0.88828 0.39592 0.0
N818 N 0.52567 0.87799 0.62075 0.0
N819 N 0.50945 0.87191 0.25129 0.0
H820 H 0.49572 0.90832 0.39823 0.0
H821 H 0.49931 0.90107 0.28983 0.0
H822 H 0.51424 0.86357 0.20822 0.0
H823 H 0.4983 0.87536 0.22207 0.0
H824 H 0.53156 0.86897 0.65196 0.0
H825 H 0.51864 0.88377 0.66621 0.0
H826 H 0.55539 0.86993 0.56821 0.0
H827 H 0.55643 0.85971 0.46266 0.0
C828 C 0.27694 0.13401 0.73899 0.0
C829 C 0.25684 0.13326 0.73118 0.0
C830 C 0.24723 0.11838 0.88418 0.0
C831 C 0.26659 0.11771 0.8883 0.0
N832 N 0.29725 0.11973 0.81284 0.0
N833 N 0.22094 0.12053 0.78833 0.0
C834 C 0.2805 0.1237 0.81298 0.0
C835 C 0.24137 0.12425 0.80153 0.0
N836 N 0.29314 0.14573 0.67894 0.0
N837 N 0.23477 0.11395 0.95974 0.0
H838 H 0.21589 0.12413 0.72793 0.0
H839 H 0.2085 0.11211 0.83417 0.0
H840 H 0.23821 0.10869 0.01992 0.0
H841 H 0.22183 0.11667 0.96414 0.0
H842 H 0.30854 0.14786 0.68479 0.0
H843 H 0.29204 0.15532 0.62867 0.0
H844 H 0.30665 0.12181 0.7559 0.0
H845 H 0.30033 0.11228 0.86685 0.0
C846 C 0.84587 0.11399 0.87461 0.0
C847 C 0.8462 0.11694 0.7798 0.0
C848 C 0.88445 0.14434 0.78775 0.0
C849 C 0.88265 0.14462 0.88251 0.0
N850 N 0.86284 0.12883 0.01962 0.0
N851 N 0.86597 0.13469 0.64382 0.0
C852 C 0.86388 0.12876 0.92719 0.0
C853 C 0.86571 0.13165 0.73528 0.0
N854 N 0.82832 0.09713 0.91372 0.0
N855 N 0.9041 0.15676 0.74865 0.0
H856 H 0.85271 0.12579 0.60249 0.0
H857 H 0.87892 0.14691 0.60919 0.0
H858 H 0.91785 0.16618 0.78751 0.0
H859 H 0.90716 0.15617 0.6801 0.0
H860 H 0.82764 0.09293 0.98161 0.0
H861 H 0.81503 0.08617 0.8759 0.0
H862 H 0.84881 0.11967 0.0564 0.0
H863 H 0.87613 0.13867 0.05986 0.0
C864 C 0.89703 0.74657 0.93553 0.0
C865 C 0.89924 0.72814 0.92209 0.0
C866 C 0.86904 0.70719 0.02079 0.0
C867 C 0.86569 0.72501 0.03279 0.0
N868 N 0.88239 0.76375 0.03073 0.0
N869 N 0.89635 0.69744 -0.00041 0.0
C870 C 0.88149 0.74545 -0.00097 0.0
C871 C 0.88846 0.71081 0.98212 0.0
N872 N 0.90974 0.76507 0.88926 0.0
N873 N 0.85324 0.68653 0.03689 0.0
H874 H 0.91114 0.70042 0.97396 0.0
H875 H 0.88951 0.68542 0.04845 0.0
H876 H 0.8373 0.68205 0.04988 0.0
H877 H 0.85535 0.67346 0.02318 0.0
H878 H 0.90664 0.77776 0.88598 0.0
H879 H 0.92352 0.76776 0.85489 0.0
H880 H 0.89457 0.77911 0.01358 0.0
H881 H 0.87254 0.76366 0.08271 0.0
C882 C 0.17586 0.25781 0.52293 0.0
C883 C 0.16895 0.24977 0.61138 0.0
C884 C 0.13207 0.24024 0.57321 0.0
C885 C 0.13978 0.25189 0.49144 0.0
N886 N 0.16615 0.2644 0.37292 0.0
N887 N 0.13928 0.22274 0.69771 0.0
C888 C 0.16075 0.2579 0.46061 0.0
C889 C 0.14657 0.23728 0.62876 0.0
N890 N 0.19705 0.26626 0.50136 0.0
N891 N 0.11156 0.23345 0.60117 0.0
H892 H 0.14951 0.21917 0.73418 0.0
H893 H 0.12302 0.21229 0.71006 0.0
H894 H 0.10032 0.23473 0.56086 0.0
H895 H 0.10602 0.22741 0.6658 0.0
H896 H 0.20395 0.27437 0.44139 0.0
H897 H 0.20777 0.26507 0.54566 0.0
H898 H 0.18085 0.2683 0.34391 0.0
H899 H 0.15497 0.26429 0.32717 0.0
C900 C 0.75233 0.845 0.77858 0.0
C901 C 0.77116 0.85996 0.73383 0.0
C902 C 0.76862 0.88853 0.81207 0.0
C903 C 0.7461 0.87417 0.82309 0.0
N904 N 0.71646 0.83721 0.8137 0.0
N905 N 0.80047 0.89589 0.72606 0.0
C906 C 0.73791 0.85178 0.80816 0.0
C907 C 0.78072 0.8817 0.75961 0.0
N908 N 0.74749 0.82417 0.78466 0.0
N909 N 0.77845 0.90818 0.85304 0.0
H910 H 0.80922 0.89058 0.68815 0.0
H911 H 0.80749 0.91249 0.73259 0.0
H912 H 0.7704 0.91304 0.89735 0.0
H913 H 0.79502 0.91854 0.8514 0.0
H914 H 0.73444 0.81278 0.82194 0.0
H915 H 0.75808 0.81931 0.76062 0.0
H916 H 0.71011 0.82111 0.79611 0.0
H917 H 0.70472 0.84136 0.82564 0.0
C918 C 0.15353 0.88831 0.68351 0.0
C919 C 0.15121 0.88578 0.58893 0.0
C920 C 0.12032 0.84952 0.60683 0.0
C921 C 0.12555 0.85058 0.69982 0.0
N922 N 0.14728 0.87067 0.82834 0.0
N923 N 0.13129 0.86597 0.45797 0.0
C924 C 0.14186 0.87006 0.73916 0.0
C925 C 0.13391 0.86707 0.54991 0.0
N926 N 0.16736 0.90801 0.71946 0.0
N927 N 0.10265 0.83168 0.57358 0.0
H928 H 0.14048 0.87918 0.41627 0.0
H929 H 0.12052 0.85218 0.42287 0.0
H930 H 0.09279 0.81854 0.61434 0.0
H931 H 0.09696 0.83031 0.50766 0.0
H932 H 0.1685 0.91143 0.78848 0.0
H933 H 0.17619 0.92154 0.67914 0.0
H934 H 0.16077 0.88345 0.85799 0.0
H935 H 0.1391 0.85773 0.87188 0.0
C936 C 0.75681 0.89146 0.16843 0.0
C937 C 0.73607 0.88794 0.14519 0.0
C938 C 0.71969 0.85749 0.24815 0.0
C939 C 0.74021 0.86274 0.28154 0.0
N940 N 0.77856 0.88769 0.28452 0.0
N941 N 0.6985 0.87176 0.18589 0.0
C942 C 0.75895 0.88054 0.24478 0.0
C943 C 0.71775 0.87227 0.19249 0.0
N944 N 0.77427 0.90445 0.11659 0.0
N945 N 0.70205 0.83812 0.26798 0.0
H946 H 0.6966 0.8831 0.14924 0.0
H947 H 0.6852 0.86161 0.22523 0.0
H948 H 0.70305 0.82623 0.30466 0.0
H949 H 0.68701 0.83301 0.23889 0.0
H950 H 0.78919 0.90554 0.12526 0.0
H951 H 0.7735 0.91282 0.06061 0.0
H952 H 0.79221 0.90194 0.26563 0.0
H953 H 0.78089 0.88049 0.3413 0.0
C954 C 0.14575 0.87593 0.08968 0.0
C955 C 0.13391 0.85374 0.11034 0.0
C956 C 0.15635 0.85965 0.24421 0.0
C957 C 0.17032 0.88121 0.21553 0.0
N958 N 0.17915 0.90969 0.10847 0.0
N959 N 0.12768 0.82394 0.20488 0.0
C960 C 0.16511 0.88939 0.13802 0.0
C961 C 0.13908 0.84549 0.18731 0.0
N962 N 0.1384 0.88403 0.02392 0.0
N963 N 0.15888 0.85289 0.32765 0.0
H964 H 0.11392 0.81334 0.16857 0.0
H965 H 0.13235 0.8164 0.25258 0.0
H966 H 0.17096 0.86257 0.37306 0.0
H967 H 0.14778 0.83825 0.35612 0.0
H968 H 0.14522 0.90035 0.01025 0.0
H969 H 0.1242 0.87445 0.98821 0.0
H970 H 0.17738 0.91595 0.04758 0.0
H971 H 0.19363 0.91975 0.14147 0.0
C972 C 0.17147 0.31411 0.05174 0.0
C973 C 0.16034 0.296 0.99384 0.0
C974 C 0.12592 0.28908 0.05772 0.0
C975 C 0.13743 0.3047 0.12526 0.0
N976 N 0.1687 0.33918 0.15268 0.0
N977 N 0.12709 0.26768 0.93228 0.0
C978 C 0.15948 0.31959 0.11131 0.0
C979 C 0.13751 0.28408 0.993 0.0
N980 N 0.19346 0.32519 0.05445 0.0
N981 N 0.10408 0.27994 0.05385 0.0
H982 H 0.13515 0.26443 0.88144 0.0
H983 H 0.11063 0.25692 0.93336 0.0
H984 H 0.09585 0.28504 0.09616 0.0
H985 H 0.09444 0.2692 0.00399 0.0
H986 H 0.2023 0.33682 0.10305 0.0
H987 H 0.20303 0.32166 0.01299 0.0
H988 H 0.18455 0.3511 0.14203 0.0
H989 H 0.15958 0.34454 0.18718 0.0
C990 C 0.82625 0.70033 0.45922 0.0
C991 C 0.82578 0.71812 0.42185 0.0
C992 C 0.85922 0.74156 0.50569 0.0
C993 C 0.8622 0.72359 0.51923 0.0
N994 N 0.84961 0.68606 0.48471 0.0
N995 N 0.83982 0.75628 0.42515 0.0
C996 C 0.84598 0.70298 0.48952 0.0
C997 C 0.84172 0.73904 0.45003 0.0
N998 N 0.80793 0.68098 0.46714 0.0
N999 N 0.87234 0.76056 0.54855 0.0
H1000 H 0.82574 0.75442 0.39594 0.0
H1001 H 0.85207 0.77212 0.43311 0.0
H1002 H 0.88466 0.76265 0.59221 0.0
H1003 H 0.86988 0.77365 0.54726 0.0
H1004 H 0.80783 0.66791 0.49834 0.0
H1005 H 0.79282 0.67925 0.45511 0.0
H1006 H 0.83832 0.67122 0.4576 0.0
H1007 H 0.86467 0.6876 0.49585 0.0
C1008 C 0.23452 0.11698 0.23902 0.0
C1009 C 0.25576 0.13428 0.22305 0.0
C1010 C 0.24358 0.15937 0.26736 0.0
C1011 C 0.22568 0.14242 0.31102 0.0
N1012 N 0.20034 0.1047 0.31593 0.0
N1013 N 0.28041 0.17276 0.22287 0.0
C1014 C 0.21977 0.12103 0.28779 0.0
C1015 C 0.26016 0.15578 0.23518 0.0
N1016 N 0.22827 0.09699 0.20532 0.0
N1017 N 0.24474 0.17878 0.25785 0.0
H1018 H 0.2937 0.17112 0.20828 0.0
H1019 H 0.28444 0.18853 0.23651 0.0
H1020 H 0.2321 0.1811 0.27785 0.0
H1021 H 0.25669 0.1913 0.2202 0.0
H1022 H 0.21262 0.08414 0.20886 0.0
H1023 H 0.23824 0.09368 0.16557 0.0
H1024 H 0.19581 0.08852 0.31245 0.0
H1025 H 0.18888 0.10775 0.34516 0.0
C1026 C 0.86419 0.13016 0.3714 0.0
C1027 C 0.84359 0.1282 0.38097 0.0
C1028 C 0.85632 0.16187 0.29977 0.0
C1029 C 0.87545 0.16193 0.27586 0.0
N1030 N 0.8954 0.14277 0.27576 0.0
N1031 N 0.81858 0.13926 0.3306 0.0
C1032 C 0.87896 0.14524 0.30828 0.0
C1033 C 0.83921 0.1432 0.33802 0.0
N1034 N 0.87011 0.11835 0.42407 0.0
N1035 N 0.85451 0.17969 0.28604 0.0
H1036 H 0.80537 0.12503 0.35319 0.0
H1037 H 0.81453 0.14909 0.2935 0.0
H1038 H 0.86726 0.19407 0.26184 0.0
H1039 H 0.84133 0.18081 0.30836 0.0
H1040 H 0.88579 0.12106 0.42573 0.0
H1041 H 0.86008 0.10733 0.47226 0.0
H1042 H 0.89685 0.12937 0.29058 0.0
H1043 H 0.90647 0.15282 0.22797 0.0
C1044 C 0.8562 0.41779 0.13126 0.0
C1045 C 0.86416 0.40371 0.1152 0.0
C1046 C 0.87446 0.41812 0.96419 0.0
C1047 C 0.87634 0.43754 -0.00171 0.0
N1048 N 0.86303 0.45402 0.10316 0.0
N1049 N 0.86531 0.38123 -5e-05 0.0
C1050 C 0.86449 0.43663 0.07681 0.0
C1051 C 0.86705 0.4003 0.02409 0.0
N1052 N 0.84379 0.41459 0.20554 0.0
N1053 N 0.88111 0.41756 0.87827 0.0
H1054 H 0.86094 0.36906 0.04795 0.0
H1055 H 0.86727 0.37733 0.93408 0.0
H1056 H 0.88604 0.43057 0.83431 0.0
H1057 H 0.88142 0.40439 0.8507 0.0
H1058 H 0.83701 0.42407 0.22122 0.0
H1059 H 0.83946 0.40135 0.24757 0.0
H1060 H 0.85637 0.45485 0.16461 0.0
H1061 H 0.86877 0.4677 0.06308 0.0
C1062 C 0.50869 0.47064 0.36532 0.0
C1063 C 0.52713 0.46966 0.39387 0.0
C1064 C 0.51401 0.43576 0.31007 0.0
C1065 C 0.49696 0.43832 0.27487 0.0
N1066 N 0.47224 0.45047 0.30831 0.0
N1067 N 0.54334 0.44769 0.41878 0.0
C1068 C 0.4923 0.4531 0.3169 0.0
C1069 C 0.52864 0.45109 0.37386 0.0
N1070 N 0.50744 0.48884 0.37766 0.0
N1071 N 0.51616 0.41877 0.28327 0.0
H1072 H 0.55361 0.45813 0.46839 0.0
H1073 H 0.54417 0.43369 0.4132 0.0
H1074 H 0.50363 0.4052 0.25278 0.0
H1075 H 0.52998 0.41779 0.29385 0.0
H1076 H 0.51978 0.50291 0.4059 0.0
H1077 H 0.49508 0.49075 0.35058 0.0
H1078 H 0.46741 0.45986 0.34337 0.0
H1079 H 0.45992 0.43722 0.27473 0.0
C1080 C 0.50811 0.10354 0.97214 0.0
C1081 C 0.52666 0.11279 0.91669 0.0
C1082 C 0.53973 0.14726 0.99241 0.0
C1083 C 0.52555 0.13587 0.06339 0.0
N1084 N 0.48912 0.10968 0.09528 0.0
N1085 N 0.55543 0.14482 0.8498 0.0
C1086 C 0.50685 0.11638 0.04241 0.0
C1087 C 0.54078 0.13535 0.91767 0.0
N1088 N 0.49272 0.08253 0.96113 0.0
N1089 N 0.55374 0.1686 0.00426 0.0
H1090 H 0.5557 0.1361 0.79373 0.0
H1091 H 0.56653 0.16115 0.84684 0.0
H1092 H 0.55295 0.17648 0.06244 0.0
H1093 H 0.56544 0.17828 0.95764 0.0
H1094 H 0.47972 0.07441 0.00469 0.0
H1095 H 0.4934 0.07312 0.90879 0.0
H1096 H 0.47453 0.09577 0.08282 0.0
H1097 H 0.48899 0.11934 0.14796 0.0
C1098 C 0.81427 0.60108 0.78259 0.0
C1099 C 0.81623 0.62063 0.75015 0.0
C1100 C 0.85312 0.63907 0.8065 0.0
C1101 C 0.84821 0.6219 0.86573 0.0
N1102 N 0.82541 0.58385 0.89399 0.0
N1103 N 0.83847 0.65979 0.74513 0.0
C1104 C 0.82924 0.60192 0.84844 0.0
C1105 C 0.83608 0.6401 0.76379 0.0
N1106 N 0.79886 0.58188 0.7477 0.0
N1107 N 0.87392 0.65465 0.79335 0.0
H1108 H 0.82592 0.66231 0.72661 0.0
H1109 H 0.85255 0.67404 0.76075 0.0
H1110 H 0.88669 0.65369 0.8223 0.0
H1111 H 0.87811 0.66657 0.74468 0.0
H1112 H 0.79777 0.56726 0.76375 0.0
H1113 H 0.78886 0.58083 0.69425 0.0
H1114 H 0.81049 0.56982 0.89418 0.0
H1115 H 0.8372 0.58287 0.93121 0.0
C1116 C 0.40433 0.21543 0.75698 0.0
C1117 C 0.38804 0.19385 0.73873 0.0
C1118 C 0.36181 0.20225 0.80192 0.0
C1119 C 0.37823 0.21998 0.84807 0.0
N1120 N 0.41552 0.24728 0.85034 0.0
N1121 N 0.35114 0.16578 0.77019 0.0
C1122 C 0.39974 0.22794 0.81901 0.0
C1123 C 0.36655 0.18698 0.76645 0.0
N1124 N 0.42368 0.22401 0.71379 0.0
N1125 N 0.34153 0.19924 0.79746 0.0
H1126 H 0.35421 0.15322 0.76011 0.0
H1127 H 0.33604 0.16082 0.79821 0.0
H1128 H 0.33808 0.21093 0.82064 0.0
H1129 H 0.32923 0.18651 0.76149 0.0
H1130 H 0.43562 0.24004 0.71982 0.0
H1131 H 0.42693 0.21561 0.66459 0.0
H1132 H 0.43184 0.25293 0.84051 0.0
H1133 H 0.41194 0.25759 0.88648 0.0
C1134 C 0.78121 0.19739 0.85743 0.0
C1135 C 0.79879 0.21468 0.90315 0.0
C1136 C 0.78274 0.19946 0.04961 0.0
C1137 C 0.76616 0.18106 0.00429 0.0
N1138 N 0.74601 0.16519 0.86844 0.0
N1139 N 0.81311 0.23583 0.03712 0.0
C1140 C 0.76417 0.181 0.90898 0.0
C1141 C 0.7983 0.21697 -0.00234 0.0
N1142 N 0.7816 0.19597 0.76517 0.0
N1143 N 0.78459 0.19955 0.14175 0.0
H1144 H 0.82457 0.24866 -0.00115 0.0
H1145 H 0.8128 0.23952 0.10512 0.0
H1146 H 0.77335 0.18744 0.18276 0.0
H1147 H 0.79779 0.21114 0.17775 0.0
H1148 H 0.77088 0.18252 0.72808 0.0
H1149 H 0.79322 0.20825 0.72539 0.0
H1150 H 0.7426 0.16496 0.79977 0.0
H1151 H 0.73338 0.15315 0.90567 0.0
C1152 C 0.40956 0.18603 0.26837 0.0
C1153 C 0.38827 0.18115 0.24639 0.0
C1154 C 0.37486 0.1458 0.31413 0.0
C1155 C 0.39448 0.15316 0.36058 0.0
N1156 N 0.43245 0.17857 0.36551 0.0
N1157 N 0.34986 0.15676 0.26724 0.0
C1158 C 0.41256 0.17277 0.33216 0.0
C1159 C 0.37063 0.16103 0.2735 0.0
N1160 N 0.42671 0.20267 0.22623 0.0
N1161 N 0.36021 0.1244 0.30963 0.0
H1162 H 0.34567 0.16823 0.24962 0.0
H1163 H 0.33694 0.14257 0.29177 0.0
H1164 H 0.36386 0.11284 0.3324 0.0
H1165 H 0.34598 0.11837 0.27245 0.0
H1166 H 0.44248 0.20598 0.23415 0.0
H1167 H 0.42496 0.21192 0.17619 0.0
H1168 H 0.4458 0.19381 0.3575 0.0
H1169 H 0.43543 0.16786 0.40168 0.0
C1170 C 0.79605 0.20909 0.48426 0.0
C1171 C 0.81092 0.20261 0.51322 0.0
C1172 C 0.78827 0.16751 0.4437 0.0
C1173 C 0.77546 0.17512 0.40266 0.0
N1174 N 0.7705 0.20533 0.36884 0.0
N1175 N 0.82364 0.17733 0.49933 0.0
C1176 C 0.78029 0.19656 0.41828 0.0
C1177 C 0.8078 0.18233 0.48605 0.0
N1178 N 0.79577 0.22622 0.52316 0.0
N1179 N 0.78147 0.14604 0.44487 0.0
H1180 H 0.83884 0.18844 0.52393 0.0
H1181 H 0.82248 0.16308 0.47667 0.0
H1182 H 0.76661 0.13448 0.41886 0.0
H1183 H 0.78941 0.13961 0.4811 0.0
H1184 H 0.78377 0.22996 0.50956 0.0
H1185 H 0.80579 0.23523 0.57612 0.0
H1186 H 0.77536 0.22162 0.37162 0.0
H1187 H 0.75902 0.19696 0.31906 0.0
C1188 C 0.78349 0.63249 0.30695 0.0
C1189 C 0.77252 0.61483 0.36512 0.0
C1190 C 0.79065 0.59805 0.28747 0.0
C1191 C 0.80669 0.61874 0.25687 0.0
N1192 N 0.81894 0.6572 0.25564 0.0
N1193 N 0.76181 0.57777 0.39422 0.0
C1194 C 0.80316 0.63643 0.26968 0.0
C1195 C 0.77478 0.59651 0.35 0.0
N1196 N 0.77551 0.64578 0.28966 0.0
N1197 N 0.78987 0.57997 0.2538 0.0
H1198 H 0.74817 0.5752 0.42949 0.0
H1199 H 0.76468 0.56492 0.3958 0.0
H1200 H 0.79995 0.58041 0.20204 0.0
H1201 H 0.7776 0.5645 0.26889 0.0
H1202 H 0.78247 0.65795 0.24154 0.0
H1203 H 0.76055 0.64254 0.31425 0.0
H1204 H 0.81664 0.67012 0.26987 0.0
H1205 H 0.83496 0.66185 0.24379 0.0
C1206 C 0.60828 0.12309 0.54294 0.0
C1207 C 0.59943 0.12773 0.61873 0.0
C1208 C 0.59402 0.1533 0.53189 0.0
C1209 C 0.59692 0.14389 0.45314 0.0
N1210 N 0.6199 0.1321 0.38668 0.0
N1211 N 0.59445 0.15405 0.69702 0.0
C1212 C 0.6089 0.13318 0.45974 0.0
C1213 C 0.59657 0.14578 0.61721 0.0
N1214 N 0.61407 0.10775 0.54939 0.0
N1215 N 0.58717 0.16781 0.52373 0.0
H1216 H 0.59595 0.14785 0.7589 0.0
H1217 H 0.59272 0.16755 0.70176 0.0
H1218 H 0.58581 0.17343 0.46015 0.0
H1219 H 0.58288 0.17404 0.57832 0.0
H1220 H 0.61854 0.10192 0.49385 0.0
H1221 H 0.61371 0.10062 0.61154 0.0
H1222 H 0.62954 0.12507 0.38903 0.0
H1223 H 0.62113 0.14046 0.32711 0.0
C1224 C 0.94205 0.47967 0.49668 0.0
C1225 C 0.92319 0.46282 0.45635 0.0
C1226 C 0.90075 0.46743 0.56856 0.0
C1227 C 0.91964 0.48375 0.61011 0.0
N1228 N 0.95704 0.51031 0.59844 0.0
N1229 N 0.88478 0.44603 0.43389 0.0
C1230 C 0.93987 0.49165 0.56792 0.0
C1231 C 0.90254 0.45842 0.48582 0.0
N1232 N 0.96191 0.48322 0.47202 0.0
N1233 N 0.88134 0.45966 0.61066 0.0
H1234 H 0.8856 0.43978 0.37116 0.0
H1235 H 0.86962 0.44386 0.44835 0.0
H1236 H 0.87936 0.46642 0.66979 0.0
H1237 H 0.86747 0.44588 0.58935 0.0
H1238 H 0.97599 0.49383 0.50609 0.0
H1239 H 0.96428 0.47425 0.42261 0.0
H1240 H 0.97191 0.51791 0.56615 0.0
H1241 H 0.95558 0.51924 0.65102 0.0
C1242 C 0.57054 0.47055 0.76049 0.0
C1243 C 0.5771 0.49209 0.78324 0.0
C1244 C 0.56185 0.48023 0.93359 0.0
C1245 C 0.54894 0.45927 0.89768 0.0
N1246 N 0.54304 0.43349 0.77932 0.0
N1247 N 0.58455 0.51818 0.8994 0.0
C1248 C 0.5543 0.45388 0.81298 0.0
C1249 C 0.57502 0.49717 0.87369 0.0
N1250 N 0.57973 0.46611 0.68932 0.0
N1251 N 0.56064 0.48375 0.02371 0.0
H1252 H 0.59498 0.53049 0.85611 0.0
H1253 H 0.58187 0.52333 0.96143 0.0
H1254 H 0.55105 0.47119 0.06772 0.0
H1255 H 0.57032 0.49842 0.05559 0.0
H1256 H 0.5764 0.45064 0.67287 0.0
H1257 H 0.59291 0.47821 0.65568 0.0
H1258 H 0.5444 0.42968 0.71242 0.0
H1259 H 0.53184 0.42044 0.8168 0.0
C1260 C 0.5511 0.79449 0.51956 0.0
C1261 C 0.55721 0.79784 0.42739 0.0
C1262 C 0.55571 0.76311 0.42099 0.0
C1263 C 0.55423 0.76226 0.51617 0.0
N1264 N 0.53998 0.77003 0.6481 0.0
N1265 N 0.55761 0.78236 0.28283 0.0
C1266 C 0.5478 0.77535 0.56219 0.0
C1267 C 0.55647 0.78086 0.37507 0.0
N1268 N 0.54971 0.8101 0.56659 0.0
N1269 N 0.5586 0.74803 0.3772 0.0
H1270 H 0.55825 0.7953 0.24838 0.0
H1271 H 0.55631 0.77023 0.24024 0.0
H1272 H 0.55786 0.73506 0.41242 0.0
H1273 H 0.56196 0.74842 0.30847 0.0
H1274 H 0.54744 0.80971 0.63635 0.0
H1275 H 0.55134 0.82381 0.53475 0.0
H1276 H 0.53427 0.77843 0.68538 0.0
H1277 H 0.53746 0.75582 0.67816 0.0
C1278 C 0.22137 0.84659 0.613 0.0
C1279 C 0.23667 0.84135 0.64726 0.0
C1280 C 0.22029 0.80871 0.55461 0.0
C1281 C 0.20312 0.81246 0.53141 0.0
N1282 N 0.1851 0.83272 0.55799 0.0
N1283 N 0.24782 0.81484 0.66425 0.0
C1284 C 0.20297 0.83071 0.56685 0.0
C1285 C 0.23534 0.82167 0.62217 0.0
N1286 N 0.22476 0.86699 0.62167 0.0
N1287 N 0.22328 0.79386 0.50897 0.0
H1288 H 0.25915 0.8237 0.71383 0.0
H1289 H 0.2455 0.79944 0.65536 0.0
H1290 H 0.21352 0.78442 0.45624 0.0
H1291 H 0.23696 0.79249 0.51727 0.0
H1292 H 0.2149 0.87201 0.59121 0.0
H1293 H 0.23875 0.8795 0.65009 0.0
H1294 H 0.18361 0.84492 0.58923 0.0
H1295 H 0.17092 0.82086 0.52813 0.0
C1296 C 0.2094 0.38756 0.66839 0.0
C1297 C 0.18753 0.37953 0.64646 0.0
C1298 C 0.1919 0.36374 0.50725 0.0
C1299 C 0.21259 0.36822 0.53821 0.0
N1300 N 0.24091 0.38378 0.64978 0.0
N1301 N 0.15763 0.36081 0.54507 0.0
C1302 C 0.22145 0.38022 0.61877 0.0
C1303 C 0.17874 0.36802 0.56533 0.0
N1304 N 0.21861 0.40244 0.73583 0.0
N1305 N 0.18513 0.35618 0.42133 0.0
H1306 H 0.14794 0.36472 0.58404 0.0
H1307 H 0.14952 0.35047 0.49159 0.0
H1308 H 0.19415 0.35292 0.37562 0.0
H1309 H 0.1714 0.35493 0.39167 0.0
H1310 H 0.23497 0.41031 0.75088 0.0
H1311 H 0.21007 0.40842 0.77072 0.0
H1312 H 0.24724 0.3906 0.71266 0.0
H1313 H 0.24997 0.37829 0.61573 0.0
C1314 C 0.39982 0.90004 0.54953 0.0
C1315 C 0.40744 0.88558 0.56454 0.0
C1316 C 0.40741 0.87995 0.40241 0.0
C1317 C 0.40872 0.90007 0.39115 0.0
N1318 N 0.40013 0.92631 0.44489 0.0
N1319 N 0.4089 0.85501 0.51023 0.0
C1320 C 0.40208 0.90871 0.46142 0.0
C1321 C 0.40723 0.8727 0.49194 0.0
N1322 N 0.39153 0.90592 0.61956 0.0
N1323 N 0.4086 0.86937 0.32792 0.0
H1324 H 0.40877 0.85012 0.57703 0.0
H1325 H 0.40998 0.84522 0.46104 0.0
H1326 H 0.40911 0.87531 0.26279 0.0
H1327 H 0.40813 0.85468 0.33004 0.0
H1328 H 0.38499 0.91591 0.61212 0.0
H1329 H 0.38928 0.8988 0.68315 0.0
H1330 H 0.39752 0.93488 0.49531 0.0
H1331 H 0.40165 0.93239 0.37934 0.0
C1332 C 0.10943 0.56424 0.3883 0.0
C1333 C 0.09089 0.56352 0.42545 0.0
C1334 C 0.07032 0.52504 0.39922 0.0
C1335 C 0.08848 0.52553 0.3585 0.0
N1336 N 0.12368 0.5472 0.29093 0.0
N1337 N 0.05217 0.545 0.42914 0.0
C1338 C 0.10765 0.5456 0.34588 0.0
C1339 C 0.07079 0.54453 0.41759 0.0
N1340 N 0.12884 0.58263 0.39613 0.0
N1341 N 0.05287 0.50594 0.4238 0.0
H1342 H 0.05197 0.55929 0.43748 0.0
H1343 H 0.03703 0.53161 0.41837 0.0
H1344 H 0.05235 0.49125 0.41683 0.0
H1345 H 0.04004 0.50501 0.46058 0.0
H1346 H 0.14341 0.5835 0.38065 0.0
H1347 H 0.1302 0.59679 0.42196 0.0
H1348 H 0.13696 0.56185 0.2732 0.0
H1349 H 0.12281 0.53425 0.2557 0.0
C1350 C 0.43887 0.49936 0.19525 0.0
C1351 C 0.43858 0.50506 0.28669 0.0
C1352 C 0.46225 0.54292 0.25154 0.0
C1353 C 0.46602 0.53667 0.16569 0.0
N1354 N 0.45223 0.51158 0.04256 0.0
N1355 N 0.43939 0.53231 0.38459 0.0
C1356 C 0.45192 0.51572 0.13262 0.0
C1357 C 0.44658 0.52694 0.30906 0.0
N1358 N 0.42767 0.47823 0.17087 0.0
N1359 N 0.47468 0.56358 0.28073 0.0
H1360 H 0.42665 0.52083 0.42299 0.0
H1361 H 0.44395 0.54808 0.40164 0.0
H1362 H 0.48558 0.57577 0.23851 0.0
H1363 H 0.47461 0.56838 0.34726 0.0
H1364 H 0.42864 0.47245 0.10745 0.0
H1365 H 0.41737 0.46643 0.21632 0.0
H1366 H 0.44191 0.49689 0.01216 0.0
H1367 H 0.46201 0.52374 -0.0027 0.0
C1368 C 0.08391 0.53348 0.82952 0.0
C1369 C 0.09667 0.55639 0.82984 0.0
C1370 C 0.10361 0.55532 0.99162 0.0
C1371 C 0.09196 0.53256 0.98801 0.0
N1372 N 0.07749 0.50034 0.89742 0.0
N1373 N 0.12259 0.58863 0.90713 0.0
C1374 C 0.08477 0.52185 0.90448 0.0
C1375 C 0.10783 0.56722 0.90975 0.0
N1376 N 0.06897 0.52269 0.76343 0.0
N1377 N 0.11015 0.56548 0.07336 0.0
H1378 H 0.12634 0.59762 0.84764 0.0
H1379 H 0.13249 0.59697 0.96166 0.0
H1380 H 0.1082 0.55713 0.13364 0.0
H1381 H 0.11652 0.58195 0.08169 0.0
H1382 H 0.05814 0.50624 0.76606 0.0
H1383 H 0.06486 0.53015 0.71368 0.0
H1384 H 0.07402 0.4924 0.83521 0.0
H1385 H 0.07705 0.49093 0.95181 0.0
C1386 C 0.51769 0.52075 0.7889 0.0
C1387 C 0.52268 0.54212 0.80617 0.0
C1388 C 0.49899 0.53983 0.68167 0.0
C1389 C 0.49052 0.51727 0.67938 0.0
N1390 N 0.4915 0.48582 0.73118 0.0
N1391 N 0.527 0.57437 0.73892 0.0
C1392 C 0.50006 0.50763 0.7318 0.0
C1393 C 0.51603 0.55249 0.7431 0.0
N1394 N 0.53036 0.51337 0.82448 0.0
N1395 N 0.49031 0.54895 0.62736 0.0
H1396 H 0.5406 0.58359 0.77875 0.0
H1397 H 0.52438 0.58314 0.68956 0.0
H1398 H 0.47838 0.54018 0.57948 0.0
H1399 H 0.49417 0.56493 0.63236 0.0
H1400 H 0.5283 0.49825 0.81053 0.0
H1401 H 0.54474 0.52357 0.85794 0.0
H1402 H 0.49626 0.47777 0.7759 0.0
H1403 H 0.47837 0.47546 0.69128 0.0
C1404 C 0.46148 0.87 0.00292 0.0
C1405 C 0.47637 0.8811 0.93365 0.0
C1406 C 0.49749 0.91114 0.03375 0.0
C1407 C 0.47913 0.90325 0.09001 0.0
N1408 N 0.44734 0.87273 0.1493 0.0
N1409 N 0.51375 0.90382 0.90346 0.0
C1410 C 0.46249 0.88152 0.08277 0.0
C1411 C 0.49653 0.89851 0.958 0.0
N1412 N 0.44515 0.84975 0.98545 0.0
N1413 N 0.51476 0.93104 0.04863 0.0
H1414 H 0.51232 0.89447 0.84675 0.0
H1415 H 0.52927 0.91607 0.91821 0.0
H1416 H 0.51571 0.94029 0.10485 0.0
H1417 H 0.52777 0.93847 0.00461 0.0
H1418 H 0.43293 0.84047 0.03082 0.0
H1419 H 0.44457 0.84226 0.92392 0.0
H1420 H 0.43435 0.85715 0.1476 0.0
H1421 H 0.44841 0.88116 0.20858 0.0
C1422 C 0.18774 0.39448 0.1513 0.0
C1423 C 0.18802 0.38916 0.0592 0.0
C1424 C 0.22501 0.39638 0.07556 0.0
C1425 C 0.22283 0.39691 0.16993 0.0
N1426 N 0.20443 0.39977 0.29998 0.0
N1427 N 0.20658 0.38442 0.93247 0.0
C1428 C 0.20507 0.39756 0.20829 0.0
C1429 C 0.20679 0.39052 0.02028 0.0
N1430 N 0.17065 0.3958 0.18404 0.0
N1431 N 0.24425 0.40062 0.03971 0.0
H1432 H 0.19362 0.38015 0.88916 0.0
H1433 H 0.21861 0.3822 0.90423 0.0
H1434 H 0.25768 0.40476 0.08031 0.0
H1435 H 0.24748 0.40217 0.9705 0.0
H1436 H 0.16989 0.40087 0.24924 0.0
H1437 H 0.15757 0.3929 0.14339 0.0
H1438 H 0.19118 0.39824 0.33503 0.0
H1439 H 0.21748 0.40284 0.34142 0.0
C1440 C 0.60698 0.81648 0.93397 0.0
C1441 C 0.58999 0.79656 0.90252 0.0
C1442 C 0.56498 0.79977 0.00597 0.0
C1443 C 0.58176 0.82032 0.03244 0.0
N1444 N 0.61688 0.85065 0.00345 0.0
N1445 N 0.55171 0.77171 0.89245 0.0
C1446 C 0.60218 0.82943 0.99037 0.0
C1447 C 0.56863 0.78883 0.9339 0.0
N1448 N 0.62783 0.82263 0.91322 0.0
N1449 N 0.54589 0.7903 0.05154 0.0
H1450 H 0.5535 0.76343 0.83835 0.0
H1451 H 0.53571 0.76696 0.90622 0.0
H1452 H 0.54232 0.79804 0.10263 0.0
H1453 H 0.53415 0.77427 0.0426 0.0
H1454 H 0.64096 0.83605 0.94173 0.0
H1455 H 0.63211 0.81313 0.87503 0.0
H1456 H 0.63129 0.85867 0.96784 0.0
H1457 H 0.61357 0.86074 0.04256 0.0
C1458 C 0.25257 0.83045 0.13594 0.0
C1459 C 0.24948 0.83135 0.0417 0.0
C1460 C 0.21842 0.79488 0.0445 0.0
C1461 C 0.21968 0.79544 0.13981 0.0
N1462 N 0.2414 0.80892 0.27347 0.0
N1463 N 0.23411 0.81221 0.90166 0.0
C1464 C 0.23823 0.81154 0.1843 0.0
C1465 C 0.23414 0.81265 0.99418 0.0
N1466 N 0.26853 0.84802 0.17907 0.0
N1467 N 0.20114 0.77803 0.00367 0.0
H1468 H 0.24512 0.82502 0.86268 0.0
H1469 H 0.22435 0.79861 0.86322 0.0
H1470 H 0.19009 0.76466 0.04068 0.0
H1471 H 0.19743 0.77741 0.93518 0.0
H1472 H 0.2704 0.8494 0.2491 0.0
H1473 H 0.27974 0.8616 0.14374 0.0
H1474 H 0.25502 0.81949 0.31014 0.0
H1475 H 0.23101 0.79489 0.30826 0.0
C1476 C 0.34533 0.08913 0.86093 0.0
C1477 C 0.36687 0.10586 0.85385 0.0
C1478 C 0.36404 0.12011 0.00037 0.0
C1479 C 0.34132 0.10667 0.99638 0.0
N1480 N 0.31016 0.07686 0.92597 0.0
N1481 N 0.39883 0.12855 0.93886 0.0
C1482 C 0.33195 0.09015 0.92954 0.0
C1483 C 0.377 0.11857 0.93113 0.0
N1484 N 0.3379 0.07255 0.80055 0.0
N1485 N 0.373 0.13501 0.06786 0.0
H1486 H 0.40814 0.12578 0.89241 0.0
H1487 H 0.40732 0.13718 0.9958 0.0
H1488 H 0.36389 0.13573 0.12114 0.0
H1489 H 0.38909 0.14702 0.06936 0.0
H1490 H 0.32283 0.05879 0.8047 0.0
H1491 H 0.34799 0.07186 0.75134 0.0
H1492 H 0.30225 0.06647 0.87229 0.0
H1493 H 0.29963 0.07685 0.97437 0.0
C1494 C 0.92608 0.26745 0.95544 0.0
C1495 C 0.93321 0.25263 0.9389 0.0
C1496 C 0.92457 0.25153 0.7791 0.0
C1497 C 0.91183 0.26083 0.80176 0.0
N1498 N 0.91038 0.28787 0.8926 0.0
N1499 N 0.95088 0.24184 0.83078 0.0
C1500 C 0.91621 0.2726 0.88355 0.0
C1501 C 0.93677 0.24883 0.84848 0.0
N1502 N 0.92704 0.27472 0.04159 0.0
N1503 N 0.92358 0.24401 0.69336 0.0
H1504 H 0.96027 0.24071 0.88219 0.0
H1505 H 0.95475 0.23933 0.76567 0.0
H1506 H 0.9151 0.24668 0.64221 0.0
H1507 H 0.93069 0.23508 0.67388 0.0
H1508 H 0.92022 0.28388 0.06173 0.0
H1509 H 0.93459 0.27095 0.09316 0.0
H1510 H 0.91364 0.29744 0.95 0.0
H1511 H 0.90434 0.29248 0.83807 0.0
C1512 C 0.75592 0.67883 0.81388 0.0
C1513 C 0.74789 0.65633 0.81162 0.0
C1514 C 0.74619 0.65514 0.97702 0.0
C1515 C 0.75915 0.67788 0.97864 0.0
N1516 N 0.76471 0.71028 0.9059 0.0
N1517 N 0.72365 0.62326 0.88717 0.0
C1518 C 0.76025 0.68951 0.89927 0.0
C1519 C 0.7391 0.6444 0.89215 0.0
N1520 N 0.75956 0.68979 0.73439 0.0
N1521 N 0.74111 0.64399 0.05652 0.0
H1522 H 0.71658 0.61595 0.82574 0.0
H1523 H 0.71588 0.61388 0.9435 0.0
H1524 H 0.74434 0.65175 0.11924 0.0
H1525 H 0.73407 0.62737 0.06022 0.0
H1526 H 0.76786 0.70646 0.72971 0.0
H1527 H 0.75416 0.68182 0.67245 0.0
H1528 H 0.76497 0.71943 0.85081 0.0
H1529 H 0.7653 0.71741 0.96811 0.0
C1530 C 0.08821 0.33807 0.65166 0.0
C1531 C 0.0893 0.32835 0.73312 0.0
C1532 C 0.07905 0.29496 0.65231 0.0
C1533 C 0.08481 0.30686 0.57023 0.0
N1534 N 0.08949 0.33759 0.48701 0.0
N1535 N 0.07355 0.29528 0.8153 0.0
C1536 C 0.08701 0.32759 0.56831 0.0
C1537 C 0.08032 0.30583 0.73473 0.0
N1538 N 0.08855 0.35719 0.65522 0.0
N1539 N 0.07434 0.27406 0.65228 0.0
H1540 H 0.07404 0.30347 0.87458 0.0
H1541 H 0.06577 0.27866 0.82186 0.0
H1542 H 0.07238 0.26548 0.59275 0.0
H1543 H 0.07264 0.26531 0.7109 0.0
H1544 H 0.08696 0.36494 0.59874 0.0
H1545 H 0.08837 0.36412 0.7172 0.0
H1546 H 0.09345 0.35356 0.48027 0.0
H1547 H 0.08782 0.32962 0.42572 0.0
C1548 C 0.68822 0.77099 0.67352 0.0
C1549 C 0.69295 0.77614 0.58078 0.0
C1550 C 0.65445 0.75633 0.5463 0.0
C1551 C 0.65024 0.75698 0.63939 0.0
N1552 N 0.66188 0.76122 0.79403 0.0
N1553 N 0.68089 0.77041 0.42549 0.0
C1554 C 0.66672 0.76254 0.70405 0.0
C1555 C 0.67615 0.76712 0.51564 0.0
N1556 N 0.70459 0.77498 0.73165 0.0
N1557 N 0.63753 0.74621 0.48784 0.0
H1558 H 0.69656 0.77729 0.40113 0.0
H1559 H 0.66945 0.76663 0.37488 0.0
H1560 H 0.62166 0.73849 0.51083 0.0
H1561 H 0.63913 0.74389 0.41932 0.0
H1562 H 0.70239 0.77072 0.7998 0.0
H1563 H 0.7203 0.781 0.70838 0.0
H1564 H 0.67337 0.76721 0.84538 0.0
H1565 H 0.64602 0.75439 0.81654 0.0
C1566 C 0.24964 0.94162 0.69019 0.0
C1567 C 0.25599 0.939 0.60159 0.0
C1568 C 0.2866 0.93747 0.66797 0.0
C1569 C 0.27673 0.93428 0.75383 0.0
N1570 N 0.25842 0.94653 0.85101 0.0
N1571 N 0.28331 0.93992 0.50467 0.0
C1572 C 0.26143 0.9409 0.76633 0.0
C1573 C 0.27574 0.93919 0.59018 0.0
N1574 N 0.23142 0.94281 0.70287 0.0
N1575 N 0.30631 0.93906 0.66229 0.0
H1576 H 0.2761 0.94236 0.44791 0.0
H1577 H 0.2964 0.938 0.48964 0.0
H1578 H 0.31477 0.93934 0.72041 0.0
H1579 H 0.31505 0.94208 0.60264 0.0
H1580 H 0.22443 0.94137 0.76617 0.0
H1581 H 0.22276 0.94462 0.65056 0.0
H1582 H 0.24865 0.95309 0.86453 0.0
H1583 H 0.26784 0.94689 0.90574 0.0
C1584 C 0.65015 0.90874 0.02268 0.0
C1585 C 0.67047 0.91224 0.05218 0.0
C1586 C 0.66019 0.91345 0.20987 0.0
C1587 C 0.63868 0.90471 0.18093 0.0
N1588 N 0.61637 0.90665 0.06424 0.0
N1589 N 0.69621 0.92096 0.17407 0.0
C1590 C 0.63464 0.90647 0.08832 0.0
C1591 C 0.6762 0.91627 0.14569 0.0
N1592 N 0.64542 0.9066 0.9323 0.0
N1593 N 0.66507 0.91917 0.29864 0.0
H1594 H 0.70862 0.92375 0.12997 0.0
H1595 H 0.70037 0.92121 0.24181 0.0
H1596 H 0.65336 0.91787 0.34426 0.0
H1597 H 0.68064 0.92713 0.32453 0.0
H1598 H 0.63008 0.90137 0.90664 0.0
H1599 H 0.65693 0.90938 0.88293 0.0
H1600 H 0.6129 0.90905 -0.00175 0.0
H1601 H 0.60605 0.9071 0.11279 0.0
C1602 C 0.09397 0.75952 0.21247 0.0
C1603 C 0.10854 0.75187 0.19947 0.0
C1604 C 0.09713 0.74355 0.04139 0.0
C1605 C 0.08733 0.75638 0.04983 0.0
N1606 N 0.06514 0.7638 0.14796 0.0
N1607 N 0.11505 0.72668 0.11737 0.0
C1608 C 0.08178 0.75995 0.13746 0.0
C1609 C 0.10699 0.74031 0.11913 0.0
N1610 N 0.09283 0.76741 0.29507 0.0
N1611 N 0.09756 0.73537 0.95854 0.0
H1612 H 0.12061 0.72285 0.1757 0.0
H1613 H 0.11408 0.71742 0.06148 0.0
H1614 H 0.08893 0.73648 0.90378 0.0
H1615 H 0.10622 0.72767 0.94405 0.0
H1616 H 0.08449 0.77558 0.30665 0.0
H1617 H 0.10091 0.7661 0.35147 0.0
H1618 H 0.05966 0.76559 0.21085 0.0
H1619 H 0.05532 0.76262 0.09344 0.0
C1620 C 0.25855 0.3116 0.16087 0.0
C1621 C 0.26486 0.3337 0.1557 0.0
C1622 C 0.26783 0.33207 0.9906 0.0
C1623 C 0.25489 0.30949 0.99592 0.0
N1624 N 0.24967 0.27871 0.07917 0.0
N1625 N 0.28163 0.36636 0.06681 0.0
C1626 C 0.25413 0.29949 0.07937 0.0
C1627 C 0.27205 0.34454 0.07113 0.0
N1628 N 0.25581 0.30227 0.24398 0.0
N1629 N 0.2764 0.34128 0.90906 0.0
H1630 H 0.28761 0.37619 0.1236 0.0
H1631 H 0.28399 0.37479 0.00659 0.0
H1632 H 0.27448 0.33192 0.85185 0.0
H1633 H 0.28714 0.35759 0.90033 0.0
H1634 H 0.24924 0.28585 0.25427 0.0
H1635 H 0.26024 0.31138 0.30346 0.0
H1636 H 0.24932 0.27022 0.13679 0.0
H1637 H 0.24858 0.27087 0.01836 0.0
C1638 C 0.92771 0.6878 0.3111 0.0
C1639 C 0.91463 0.66506 0.31021 0.0
C1640 C 0.91919 0.66431 0.47431 0.0
C1641 C 0.92715 0.68681 0.4767 0.0
N1642 N 0.95081 0.71979 0.39951 0.0
N1643 N 0.90982 0.6328 0.38163 0.0
C1644 C 0.93534 0.69864 0.39552 0.0
C1645 C 0.91417 0.65352 0.38898 0.0
N1646 N 0.9325 0.69884 0.23138 0.0
N1647 N 0.91637 0.65346 0.55356 0.0
H1648 H 0.90889 0.62568 0.31901 0.0
H1649 H 0.90999 0.62371 0.43607 0.0
H1650 H 0.92248 0.6615 0.61487 0.0
H1651 H 0.90813 0.63679 0.5586 0.0
H1652 H 0.93959 0.71547 0.22734 0.0
H1653 H 0.92912 0.69102 0.1688 0.0
H1654 H 0.95819 0.72915 0.34269 0.0
H1655 H 0.95823 0.72714 0.46042 0.0
C1656 C 0.29833 0.2246 0.35029 0.0
C1657 C 0.29956 0.21383 0.42821 0.0
C1658 C 0.33694 0.22491 0.39321 0.0
C1659 C 0.33363 0.23048 0.30493 0.0
N1660 N 0.31322 0.23911 0.20187 0.0
N1661 N 0.32039 0.20632 0.53376 0.0
C1662 C 0.31514 0.23199 0.28518 0.0
C1663 C 0.31925 0.21535 0.45397 0.0
N1664 N 0.2807 0.22681 0.33764 0.0
N1665 N 0.35668 0.22798 0.41679 0.0
H1666 H 0.30779 0.20007 0.5804 0.0
H1667 H 0.33338 0.20458 0.55307 0.0
H1668 H 0.36976 0.23494 0.37278 0.0
H1669 H 0.36064 0.22539 0.48157 0.0
H1670 H 0.27906 0.23541 0.28458 0.0
H1671 H 0.2683 0.22122 0.38513 0.0
H1672 H 0.29928 0.23855 0.17837 0.0
H1673 H 0.32583 0.24528 0.15524 0.0
C1674 C 0.73889 0.06128 0.39434 0.0
C1675 C 0.74092 0.07202 0.47768 0.0
C1676 C 0.71619 0.08326 0.41841 0.0
C1677 C 0.72201 0.08063 0.32952 0.0
N1678 N 0.73145 0.05973 0.23271 0.0
N1679 N 0.72461 0.08591 0.57923 0.0
C1680 C 0.73073 0.06692 0.31742 0.0
C1681 C 0.72706 0.08044 0.49339 0.0
N1682 N 0.74404 0.04542 0.39009 0.0
N1683 N 0.7001 0.08789 0.43025 0.0
H1684 H 0.73048 0.08162 0.63547 0.0
H1685 H 0.71688 0.09453 0.59432 0.0
H1686 H 0.69082 0.08794 0.37582 0.0
H1687 H 0.69435 0.08909 0.4934 0.0
H1688 H 0.74207 0.03632 0.33228 0.0
H1689 H 0.74768 0.03959 0.44824 0.0
H1690 H 0.73986 0.05184 0.2169 0.0
H1691 H 0.72345 0.06189 0.17814 0.0
C1692 C 0.99232 0.45247 0.13723 0.0
C1693 C 0.97786 0.43184 0.17377 0.0
C1694 C 0.00865 0.42667 0.20444 0.0
C1695 C 0.02243 0.44675 0.16284 0.0
N1696 N 0.02547 0.47333 0.05567 0.0
N1697 N 0.9721 0.39693 0.21751 0.0
C1698 C 0.01344 0.45753 0.11641 0.0
C1699 C 0.98594 0.41809 0.19952 0.0
N1700 N 0.987 0.46824 0.13132 0.0
N1701 N 0.01706 0.41631 0.25208 0.0
H1702 H 0.95548 0.38995 0.21044 0.0
H1703 H 0.97724 0.38593 0.22961 0.0
H1704 H 0.03349 0.42181 0.25534 0.0
H1705 H 0.00772 0.40293 0.29234 0.0
H1706 H 0.99794 0.48382 0.11045 0.0
H1707 H 0.97322 0.46708 0.16001 0.0
H1708 H 0.01906 0.48083 0.01624 0.0
H1709 H 0.04102 0.47699 0.03804 0.0
C1710 C 0.55904 0.5871 0.36039 0.0
C1711 C 0.5698 0.58706 0.27968 0.0
C1712 C 0.59622 0.58306 0.36963 0.0
C1713 C 0.5818 0.57671 0.44353 0.0
N1714 N 0.55823 0.58531 0.52529 0.0
N1715 N 0.60124 0.59032 0.20777 0.0
C1716 C 0.5661 0.58309 0.44442 0.0
C1717 C 0.58967 0.58741 0.28502 0.0
N1718 N 0.54107 0.589 0.35568 0.0
N1719 N 0.61585 0.58477 0.38142 0.0
H1720 H 0.59679 0.59423 0.14636 0.0
H1721 H 0.61477 0.5886 0.20405 0.0
H1722 H 0.62089 0.58267 0.44512 0.0
H1723 H 0.62768 0.59015 0.3317 0.0
H1724 H 0.53087 0.58627 0.41034 0.0
H1725 H 0.53609 0.5929 0.29587 0.0
H1726 H 0.54755 0.59106 0.5316 0.0
H1727 H 0.56448 0.58364 0.58675 0.0
C1728 C 0.48968 0.01427 0.33368 0.0
C1729 C 0.48619 0.00495 0.24579 0.0
C1730 C 0.50216 0.04091 0.17931 0.0
C1731 C 0.50909 0.05016 0.26676 0.0
N1732 N 0.51175 0.04531 0.42723 0.0
N1733 N 0.49167 0.00984 0.08398 0.0
C1734 C 0.50335 0.03677 0.34423 0.0
C1735 C 0.49294 0.01836 0.16809 0.0
N1736 N 0.4794 0.00167 0.40693 0.0
N1737 N 0.50388 0.05361 0.10726 0.0
H1738 H 0.48572 0.99353 0.0724 0.0
H1739 H 0.49835 0.01921 0.02643 0.0
H1740 H 0.50989 0.0701 0.11324 0.0
H1741 H 0.49723 0.04749 0.04388 0.0
H1742 H 0.47987 0.00788 0.47124 0.0
H1743 H 0.46848 0.98526 0.40145 0.0
H1744 H 0.50992 0.03592 0.48397 0.0
H1745 H 0.5222 0.06165 0.43782 0.0
C1746 C 0.52444 0.00329 0.82915 0.0
C1747 C 0.53018 0.01692 0.7522 0.0
C1748 C 0.51177 0.9854 0.65257 0.0
C1749 C 0.50602 0.97183 0.72942 0.0
N1750 N 0.51308 0.9675 0.88544 0.0
N1751 N 0.53584 0.02061 0.59057 0.0
C1752 C 0.51447 0.98071 0.81599 0.0
C1753 C 0.52599 0.00781 0.66377 0.0
N1754 N 0.5271 0.01156 0.91464 0.0
N1755 N 0.50273 0.97725 0.56997 0.0
H1756 H 0.54698 0.03695 0.59693 0.0
H1757 H 0.53481 0.01463 0.52531 0.0
H1758 H 0.49206 0.961 0.55868 0.0
H1759 H 0.50453 0.98687 0.51416 0.0
H1760 H 0.52106 0.00201 0.97218 0.0
H1761 H 0.5338 0.02786 0.92833 0.0
H1762 H 0.52066 0.97316 0.94778 0.0
H1763 H 0.50633 0.95094 0.87727 0.0
C1764 C 0.00528 0.56562 0.76472 0.0
C1765 C 0.02336 0.56362 0.78804 0.0
C1766 C 0.00487 0.54378 0.92584 0.0
C1767 C 0.98591 0.54331 0.89523 0.0
N1768 N 0.97281 0.56424 0.81926 0.0
N1769 N 0.04315 0.5573 0.90449 0.0
C1770 C 0.9876 0.55766 0.8255 0.0
C1771 C 0.02406 0.55481 0.87353 0.0
N1772 N 0.00432 0.5739 0.68276 0.0
N1773 N 0.00428 0.53351 0.00453 0.0
H1774 H 0.05751 0.56602 0.86899 0.0
H1775 H 0.04527 0.5523 0.96783 0.0
H1776 H 0.99118 0.52773 0.04852 0.0
H1777 H 0.01648 0.53078 0.0265 0.0
H1778 H 0.99041 0.57335 0.65854 0.0
H1779 H 0.01689 0.57989 0.63618 0.0
H1780 H 0.97405 0.57572 0.77285 0.0
H1781 H 0.96125 0.56064 0.86924 0.0
C1782 C 0.44483 0.41015 0.62743 0.0
C1783 C 0.42996 0.41755 0.63264 0.0
C1784 C 0.42501 0.40874 0.79434 0.0
C1785 C 0.44442 0.40798 0.79343 0.0
N1786 N 0.47174 0.40552 0.70634 0.0
N1787 N 0.39846 0.41315 0.70766 0.0
C1788 C 0.45362 0.40719 0.70897 0.0
C1789 C 0.41746 0.41316 0.71218 0.0
N1790 N 0.45016 0.40567 0.54482 0.0
N1791 N 0.41465 0.40629 0.87475 0.0
H1792 H 0.39241 0.41497 0.64593 0.0
H1793 H 0.38799 0.40969 0.76181 0.0
H1794 H 0.41952 0.40202 0.93411 0.0
H1795 H 0.40145 0.40841 0.88321 0.0
H1796 H 0.45984 0.39879 0.53644 0.0
H1797 H 0.44252 0.40628 0.48559 0.0
H1798 H 0.48074 0.40801 0.64769 0.0
H1799 H 0.47841 0.4025 0.76312 0.0
loop_
_geom_bond_atom_site_label_1
_geom_bond_atom_site_label_2
_geom_bond_distance
_geom_bond_site_symmetry_2
_ccdc_geom_bond_type
Zn0 O3 2.031 . S
Zn0 O5 2.049 . S
Zn0 O10 2.067 . S
Zn1 O2 1.962 . S
Zn1 O4 1.986 . S
Zn1 O6 1.996 . S
Zn1 O9 1.943 . S
O2 Zn1 1.962 . S
O2 C7 1.254 . S
O3 Zn0 2.031 . S
O3 C7 1.269 . S
O4 Zn1 1.986 . S
O4 C11 1.262 . S
O5 Zn0 2.049 . S
O5 C13 1.260 . S
O6 Zn1 1.996 . S
O6 C13 1.257 . S
C7 O2 1.254 . S
C7 O3 1.269 . S
C8 O9 1.249 1_556 S
C8 O10 1.270 1_556 S
O9 Zn1 1.943 . S
O9 C8 1.249 1_554 S
O10 Zn0 2.067 . S
O10 C8 1.270 1_554 S
C11 O4 1.262 . S
C11 O12 1.232 . S
O12 C11 1.232 . S
C13 O5 1.260 . S
C13 O6 1.257 . S
Zn14 O17 2.031 . S
Zn14 O19 2.049 . S
Zn14 O24 2.067 . S
Zn15 O16 1.962 . S
Zn15 O18 1.986 . S
Zn15 O20 1.996 . S
Zn15 O23 1.943 . S
O16 Zn15 1.962 . S
O16 C21 1.254 . S
O17 Zn14 2.031 . S
O17 C21 1.269 . S
O18 Zn15 1.986 . S
O18 C25 1.262 . S
O19 Zn14 2.049 . S
O19 C27 1.260 . S
O20 Zn15 1.996 . S
O20 C27 1.257 . S
C21 O16 1.254 . S
C21 O17 1.269 . S
C22 O23 1.249 1_556 S
C22 O24 1.270 1_556 S
O23 Zn15 1.943 . S
O23 C22 1.249 1_554 S
O24 Zn14 2.067 . S
O24 C22 1.270 1_554 S
C25 O18 1.262 . S
C25 O26 1.232 . S
O26 C25 1.232 . S
C27 O19 1.260 . S
C27 O20 1.257 . S
Zn28 O31 2.031 . S
Zn28 O33 2.049 . S
Zn28 O38 2.067 . S
Zn29 O30 1.962 . S
Zn29 O32 1.986 . S
Zn29 O34 1.996 . S
Zn29 O37 1.943 . S
O30 Zn29 1.962 . S
O30 C35 1.254 . S
O31 Zn28 2.031 . S
O31 C35 1.269 . S
O32 Zn29 1.986 . S
O32 C39 1.262 . S
O33 Zn28 2.049 . S
O33 C41 1.260 . S
O34 Zn29 1.996 . S
O34 C41 1.257 . S
C35 O30 1.254 . S
C35 O31 1.269 . S
C36 O37 1.249 1_556 S
C36 O38 1.270 1_556 S
O37 Zn29 1.943 . S
O37 C36 1.249 1_554 S
O38 Zn28 2.067 . S
O38 C36 1.270 1_554 S
C39 O32 1.262 . S
C39 O40 1.232 . S
O40 C39 1.232 . S
C41 O33 1.260 . S
C41 O34 1.257 . S
Zn42 O45 2.031 . S
Zn42 O47 2.049 . S
Zn42 O52 2.067 . S
Zn43 O44 1.962 . S
Zn43 O46 1.986 . S
Zn43 O48 1.996 . S
Zn43 O51 1.943 . S
O44 Zn43 1.962 . S
O44 C49 1.254 . S
O45 Zn42 2.031 . S
O45 C49 1.269 . S
O46 Zn43 1.986 . S
O46 C53 1.262 . S
O47 Zn42 2.049 . S
O47 C55 1.260 . S
O48 Zn43 1.996 . S
O48 C55 1.257 . S
C49 O44 1.254 . S
C49 O45 1.269 . S
C50 O51 1.249 . S
C50 O52 1.270 . S
O51 Zn43 1.943 . S
O51 C50 1.249 . S
O52 Zn42 2.067 . S
O52 C50 1.270 . S
C53 O46 1.262 . S
C53 O54 1.232 . S
O54 C53 1.232 . S
C55 O47 1.260 . S
C55 O48 1.257 . S
Zn56 O59 2.031 . S
Zn56 O61 2.049 . S
Zn56 O66 2.067 . S
Zn57 O58 1.962 . S
Zn57 O60 1.986 . S
Zn57 O62 1.996 . S
Zn57 O65 1.943 . S
O58 Zn57 1.962 . S
O58 C63 1.254 . S
O59 Zn56 2.031 . S
O59 C63 1.269 . S
O60 Zn57 1.986 . S
O60 C67 1.262 . S
O61 Zn56 2.049 . S
O61 C69 1.260 . S
O62 Zn57 1.996 . S
O62 C69 1.257 . S
C63 O58 1.254 . S
C63 O59 1.269 . S
C64 O65 1.249 . S
C64 O66 1.270 . S
O65 Zn57 1.943 . S
O65 C64 1.249 . S
O66 Zn56 2.067 . S
O66 C64 1.270 . S
C67 O60 1.262 . S
C67 O68 1.232 . S
O68 C67 1.232 . S
C69 O61 1.260 . S
C69 O62 1.257 . S
Zn70 O73 2.031 . S
Zn70 O75 2.049 . S
Zn70 O80 2.067 . S
Zn71 O72 1.962 . S
Zn71 O74 1.986 . S
Zn71 O76 1.996 . S
Zn71 O79 1.943 . S
O72 Zn71 1.962 . S
O72 C77 1.254 . S
O73 Zn70 2.031 . S
O73 C77 1.269 . S
O74 Zn71 1.986 . S
O74 C81 1.262 . S
O75 Zn70 2.049 . S
O75 C83 1.260 . S
O76 Zn71 1.996 . S
O76 C83 1.257 . S
C77 O72 1.254 . S
C77 O73 1.269 . S
C78 O79 1.249 . S
C78 O80 1.270 . S
O79 Zn71 1.943 . S
O79 C78 1.249 . S
O80 Zn70 2.067 . S
O80 C78 1.270 . S
C81 O74 1.262 . S
C81 O82 1.232 . S
O82 C81 1.232 . S
C83 O75 1.260 . S
C83 O76 1.257 . S
Zn84 O87 2.031 . S
Zn84 O89 2.049 . S
Zn84 O94 2.067 . S
Zn85 O86 1.962 . S
Zn85 O88 1.986 . S
Zn85 O90 1.996 . S
Zn85 O93 1.943 . S
O86 Zn85 1.962 . S
O86 C91 1.254 . S
O87 Zn84 2.031 . S
O87 C91 1.269 . S
O88 Zn85 1.986 . S
O88 C95 1.262 . S
O89 Zn84 2.049 . S
O89 C97 1.260 . S
O90 Zn85 1.996 . S
O90 C97 1.257 . S
C91 O86 1.254 . S
C91 O87 1.269 . S
C92 O93 1.249 1_554 S
C92 O94 1.270 1_554 S
O93 Zn85 1.943 . S
O93 C92 1.249 1_556 S
O94 Zn84 2.067 . S
O94 C92 1.270 1_556 S
C95 O88 1.262 . S
C95 O96 1.232 . S
O96 C95 1.232 . S
C97 O89 1.260 . S
C97 O90 1.257 . S
Zn98 O101 2.031 . S
Zn98 O103 2.049 . S
Zn98 O108 2.067 . S
Zn99 O100 1.962 . S
Zn99 O102 1.986 . S
Zn99 O104 1.996 . S
Zn99 O107 1.943 . S
O100 Zn99 1.962 . S
O100 C105 1.254 . S
O101 Zn98 2.031 . S
O101 C105 1.269 . S
O102 Zn99 1.986 . S
O102 C109 1.262 . S
O103 Zn98 2.049 . S
O103 C111 1.260 . S
O104 Zn99 1.996 . S
O104 C111 1.257 . S
C105 O100 1.254 . S
C105 O101 1.269 . S
C106 O107 1.249 1_554 S
C106 O108 1.270 1_554 S
O107 Zn99 1.943 . S
O107 C106 1.249 1_556 S
O108 Zn98 2.067 . S
O108 C106 1.270 1_556 S
C109 O102 1.262 . S
C109 O110 1.232 . S
O110 C109 1.232 . S
C111 O103 1.260 . S
C111 O104 1.257 . S
Zn112 O115 2.031 . S
Zn112 O117 2.049 . S
Zn112 O122 2.067 . S
Zn113 O114 1.962 . S
Zn113 O116 1.986 . S
Zn113 O118 1.996 . S
Zn113 O121 1.943 . S
O114 Zn113 1.962 . S
O114 C119 1.254 . S
O115 Zn112 2.031 . S
O115 C119 1.269 . S
O116 Zn113 1.986 . S
O116 C123 1.262 . S
O117 Zn112 2.049 . S
O117 C125 1.260 . S
O118 Zn113 1.996 . S
O118 C125 1.257 . S
C119 O114 1.254 . S
C119 O115 1.269 . S
C120 O121 1.249 1_554 S
C120 O122 1.270 1_554 S
O121 Zn113 1.943 . S
O121 C120 1.249 1_556 S
O122 Zn112 2.067 . S
O122 C120 1.270 1_556 S
C123 O116 1.262 . S
C123 O124 1.232 . S
O124 C123 1.232 . S
C125 O117 1.260 . S
C125 O118 1.257 . S
Zn126 O129 2.031 . S
Zn126 O131 2.049 . S
Zn126 O136 2.067 . S
Zn127 O128 1.962 . S
Zn127 O130 1.986 . S
Zn127 O132 1.996 . S
Zn127 O135 1.943 . S
O128 Zn127 1.962 . S
O128 C133 1.254 . S
O129 Zn126 2.031 . S
O129 C133 1.269 . S
O130 Zn127 1.986 . S
O130 C137 1.262 . S
O131 Zn126 2.049 . S
O131 C139 1.260 . S
O132 Zn127 1.996 . S
O132 C139 1.257 . S
C133 O128 1.254 . S
C133 O129 1.269 . S
C134 O135 1.249 . S
C134 O136 1.270 . S
O135 Zn127 1.943 . S
O135 C134 1.249 . S
O136 Zn126 2.067 . S
O136 C134 1.270 . S
C137 O130 1.262 . S
C137 O138 1.232 . S
O138 C137 1.232 . S
C139 O131 1.260 . S
C139 O132 1.257 . S
Zn140 O143 2.031 . S
Zn140 O145 2.049 . S
Zn140 O150 2.067 . S
Zn141 O142 1.962 . S
Zn141 O144 1.986 . S
Zn141 O146 1.996 . S
Zn141 O149 1.943 . S
O142 Zn141 1.962 . S
O142 C147 1.254 . S
O143 Zn140 2.031 . S
O143 C147 1.269 . S
O144 Zn141 1.986 . S
O144 C151 1.262 . S
O145 Zn140 2.049 . S
O145 C153 1.260 . S
O146 Zn141 1.996 . S
O146 C153 1.257 . S
C147 O142 1.254 . S
C147 O143 1.269 . S
C148 O149 1.249 . S
C148 O150 1.270 . S
O149 Zn141 1.943 . S
O149 C148 1.249 . S
O150 Zn140 2.067 . S
O150 C148 1.270 . S
C151 O144 1.262 . S
C151 O152 1.232 . S
O152 C151 1.232 . S
C153 O145 1.260 . S
C153 O146 1.257 . S
Zn154 O157 2.031 . S
Zn154 O159 2.049 . S
Zn154 O164 2.067 . S
Zn155 O156 1.962 . S
Zn155 O158 1.986 . S
Zn155 O160 1.996 . S
Zn155 O163 1.943 . S
O156 Zn155 1.962 . S
O156 C161 1.254 . S
O157 Zn154 2.031 . S
O157 C161 1.269 . S
O158 Zn155 1.986 . S
O158 C165 1.262 . S
O159 Zn154 2.049 . S
O159 C167 1.260 . S
O160 Zn155 1.996 . S
O160 C167 1.257 . S
C161 O156 1.254 . S
C161 O157 1.269 . S
C162 O163 1.249 . S
C162 O164 1.270 . S
O163 Zn155 1.943 . S
O163 C162 1.249 . S
O164 Zn154 2.067 . S
O164 C162 1.270 . S
C165 O158 1.262 . S
C165 O166 1.232 . S
O166 C165 1.232 . S
C167 O159 1.260 . S
C167 O160 1.257 . S
Zn168 O171 2.031 . S
Zn168 O173 2.049 . S
Zn168 O178 2.067 . S
Zn169 O170 1.962 . S
Zn169 O172 1.986 . S
Zn169 O174 1.996 . S
Zn169 O177 1.943 . S
O170 Zn169 1.962 . S
O170 C175 1.254 . S
O171 Zn168 2.031 . S
O171 C175 1.269 . S
O172 Zn169 1.986 . S
O172 C179 1.262 . S
O173 Zn168 2.049 . S
O173 C181 1.260 . S
O174 Zn169 1.996 . S
O174 C181 1.257 . S
C175 O170 1.254 . S
C175 O171 1.269 . S
C176 O177 1.249 . S
C176 O178 1.270 . S
O177 Zn169 1.943 . S
O177 C176 1.249 . S
O178 Zn168 2.067 . S
O178 C176 1.270 . S
C179 O172 1.262 . S
C179 O180 1.232 . S
O180 C179 1.232 . S
C181 O173 1.260 . S
C181 O174 1.257 . S
Zn182 O185 2.031 . S
Zn182 O187 2.049 . S
Zn182 O192 2.067 . S
Zn183 O184 1.962 . S
Zn183 O186 1.986 . S
Zn183 O188 1.996 . S
Zn183 O191 1.943 . S
O184 Zn183 1.962 . S
O184 C189 1.254 . S
O185 Zn182 2.031 . S
O185 C189 1.269 . S
O186 Zn183 1.986 . S
O186 C193 1.262 . S
O187 Zn182 2.049 . S
O187 C195 1.260 . S
O188 Zn183 1.996 . S
O188 C195 1.257 . S
C189 O184 1.254 . S
C189 O185 1.269 . S
C190 O191 1.249 . S
C190 O192 1.270 . S
O191 Zn183 1.943 . S
O191 C190 1.249 . S
O192 Zn182 2.067 . S
O192 C190 1.270 . S
C193 O186 1.262 . S
C193 O194 1.232 . S
O194 C193 1.232 . S
C195 O187 1.260 . S
C195 O188 1.257 . S
Zn196 O199 2.031 . S
Zn196 O201 2.049 . S
Zn196 O206 2.067 . S
Zn197 O198 1.962 . S
Zn197 O200 1.986 . S
Zn197 O202 1.996 . S
Zn197 O205 1.943 . S
O198 Zn197 1.962 . S
O198 C203 1.254 . S
O199 Zn196 2.031 . S
O199 C203 1.269 . S
O200 Zn197 1.986 . S
O200 C207 1.262 . S
O201 Zn196 2.049 . S
O201 C209 1.260 . S
O202 Zn197 1.996 . S
O202 C209 1.257 . S
C203 O198 1.254 . S
C203 O199 1.269 . S
C204 O205 1.249 . S
C204 O206 1.270 . S
O205 Zn197 1.943 . S
O205 C204 1.249 . S
O206 Zn196 2.067 . S
O206 C204 1.270 . S
C207 O200 1.262 . S
C207 O208 1.232 . S
O208 C207 1.232 . S
C209 O201 1.260 . S
C209 O202 1.257 . S
Zn210 O213 2.031 . S
Zn210 O215 2.049 . S
Zn210 O220 2.067 . S
Zn211 O212 1.962 . S
Zn211 O214 1.986 . S
Zn211 O216 1.996 . S
Zn211 O219 1.943 . S
O212 Zn211 1.962 . S
O212 C217 1.254 . S
O213 Zn210 2.031 . S
O213 C217 1.269 . S
O214 Zn211 1.986 . S
O214 C221 1.262 . S
O215 Zn210 2.049 . S
O215 C223 1.260 . S
O216 Zn211 1.996 . S
O216 C223 1.257 . S
C217 O212 1.254 . S
C217 O213 1.269 . S
C218 O219 1.249 . S
C218 O220 1.270 . S
O219 Zn211 1.943 . S
O219 C218 1.249 . S
O220 Zn210 2.067 . S
O220 C218 1.270 . S
C221 O214 1.262 . S
C221 O222 1.232 . S
O222 C221 1.232 . S
C223 O215 1.260 . S
C223 O216 1.257 . S
Zn224 O227 2.031 . S
Zn224 O229 2.049 . S
Zn224 O234 2.067 . S
Zn225 O226 1.962 . S
Zn225 O228 1.986 . S
Zn225 O230 1.996 . S
Zn225 O233 1.943 . S
O226 Zn225 1.962 . S
O226 C231 1.254 . S
O227 Zn224 2.031 . S
O227 C231 1.269 . S
O228 Zn225 1.986 . S
O228 C235 1.262 . S
O229 Zn224 2.049 . S
O229 C237 1.260 . S
O230 Zn225 1.996 . S
O230 C237 1.257 . S
C231 O226 1.254 . S
C231 O227 1.269 . S
C232 O233 1.249 . S
C232 O234 1.270 . S
O233 Zn225 1.943 . S
O233 C232 1.249 . S
O234 Zn224 2.067 . S
O234 C232 1.270 . S
C235 O228 1.262 . S
C235 O236 1.232 . S
O236 C235 1.232 . S
C237 O229 1.260 . S
C237 O230 1.257 . S
Zn238 O241 2.031 . S
Zn238 O243 2.049 . S
Zn238 O248 2.067 . S
Zn239 O240 1.962 . S
Zn239 O242 1.986 . S
Zn239 O244 1.996 . S
Zn239 O247 1.943 . S
O240 Zn239 1.962 . S
O240 C245 1.254 . S
O241 Zn238 2.031 . S
O241 C245 1.269 . S
O242 Zn239 1.986 . S
O242 C249 1.262 . S
O243 Zn238 2.049 . S
O243 C251 1.260 . S
O244 Zn239 1.996 . S
O244 C251 1.257 . S
C245 O240 1.254 . S
C245 O241 1.269 . S
C246 O247 1.249 . S
C246 O248 1.270 . S
O247 Zn239 1.943 . S
O247 C246 1.249 . S
O248 Zn238 2.067 . S
O248 C246 1.270 . S
C249 O242 1.262 . S
C249 O250 1.232 . S
O250 C249 1.232 . S
C251 O243 1.260 . S
C251 O244 1.257 . S
Zn252 O255 2.031 . S
Zn252 O257 2.049 . S
Zn252 O262 2.067 . S
Zn253 O254 1.962 . S
Zn253 O256 1.986 . S
Zn253 O258 1.996 . S
Zn253 O261 1.943 . S
O254 Zn253 1.962 . S
O254 C259 1.254 . S
O255 Zn252 2.031 . S
O255 C259 1.269 . S
O256 Zn253 1.986 . S
O256 C263 1.262 . S
O257 Zn252 2.049 . S
O257 C265 1.260 . S
O258 Zn253 1.996 . S
O258 C265 1.257 . S
C259 O254 1.254 . S
C259 O255 1.269 . S
C260 O261 1.249 . S
C260 O262 1.270 . S
O261 Zn253 1.943 . S
O261 C260 1.249 . S
O262 Zn252 2.067 . S
O262 C260 1.270 . S
C263 O256 1.262 . S
C263 O264 1.232 . S
O264 C263 1.232 . S
C265 O257 1.260 . S
C265 O258 1.257 . S
Zn266 O269 2.031 . S
Zn266 O271 2.049 . S
Zn266 O276 2.067 . S
Zn267 O268 1.962 . S
Zn267 O270 1.986 . S
Zn267 O272 1.996 . S
Zn267 O275 1.943 . S
O268 Zn267 1.962 . S
O268 C273 1.254 . S
O269 Zn266 2.031 . S
O269 C273 1.269 . S
O270 Zn267 1.986 . S
O270 C277 1.262 . S
O271 Zn266 2.049 . S
O271 C279 1.260 . S
O272 Zn267 1.996 . S
O272 C279 1.257 . S
C273 O268 1.254 . S
C273 O269 1.269 . S
C274 O275 1.249 . S
C274 O276 1.270 . S
O275 Zn267 1.943 . S
O275 C274 1.249 . S
O276 Zn266 2.067 . S
O276 C274 1.270 . S
C277 O270 1.262 . S
C277 O278 1.232 . S
O278 C277 1.232 . S
C279 O271 1.260 . S
C279 O272 1.257 . S
Zn280 O283 2.031 . S
Zn280 O285 2.049 . S
Zn280 O290 2.067 . S
Zn281 O282 1.962 . S
Zn281 O284 1.986 . S
Zn281 O286 1.996 . S
Zn281 O289 1.943 . S
O282 Zn281 1.962 . S
O282 C287 1.254 . S
O283 Zn280 2.031 . S
O283 C287 1.269 . S
O284 Zn281 1.986 . S
O284 C291 1.262 . S
O285 Zn280 2.049 . S
O285 C293 1.260 . S
O286 Zn281 1.996 . S
O286 C293 1.257 . S
C287 O282 1.254 . S
C287 O283 1.269 . S
C288 O289 1.249 . S
C288 O290 1.270 . S
O289 Zn281 1.943 . S
O289 C288 1.249 . S
O290 Zn280 2.067 . S
O290 C288 1.270 . S
C291 O284 1.262 . S
C291 O292 1.232 . S
O292 C291 1.232 . S
C293 O285 1.260 . S
C293 O286 1.257 . S
Zn294 O297 2.031 . S
Zn294 O299 2.049 1_556 S
Zn294 O304 2.067 . S
Zn295 O296 1.962 . S
Zn295 O298 1.986 1_556 S
Zn295 O300 1.996 1_556 S
Zn295 O303 1.943 . S
O296 Zn295 1.962 . S
O296 C301 1.254 . S
O297 Zn294 2.031 . S
O297 C301 1.269 . S
O298 Zn295 1.986 1_554 S
O298 C305 1.262 1_554 S
O299 Zn294 2.049 1_554 S
O299 C307 1.260 . S
O300 Zn295 1.996 1_554 S
O300 C307 1.257 . S
C301 O296 1.254 . S
C301 O297 1.269 . S
C302 O303 1.249 . S
C302 O304 1.270 . S
O303 Zn295 1.943 . S
O303 C302 1.249 . S
O304 Zn294 2.067 . S
O304 C302 1.270 . S
C305 O298 1.262 1_556 S
C305 O306 1.232 . S
O306 C305 1.232 . S
C307 O299 1.260 . S
C307 O300 1.257 . S
Zn308 O311 2.031 . S
Zn308 O313 2.049 1_556 S
Zn308 O318 2.067 . S
Zn309 O310 1.962 . S
Zn309 O312 1.986 1_556 S
Zn309 O314 1.996 1_556 S
Zn309 O317 1.943 . S
O310 Zn309 1.962 . S
O310 C315 1.254 . S
O311 Zn308 2.031 . S
O311 C315 1.269 . S
O312 Zn309 1.986 1_554 S
O312 C319 1.262 1_554 S
O313 Zn308 2.049 1_554 S
O313 C321 1.260 . S
O314 Zn309 1.996 1_554 S
O314 C321 1.257 . S
C315 O310 1.254 . S
C315 O311 1.269 . S
C316 O317 1.249 . S
C316 O318 1.270 . S
O317 Zn309 1.943 . S
O317 C316 1.249 . S
O318 Zn308 2.067 . S
O318 C316 1.270 . S
C319 O312 1.262 1_556 S
C319 O320 1.232 . S
O320 C319 1.232 . S
C321 O313 1.260 . S
C321 O314 1.257 . S
Zn322 O325 2.031 . S
Zn322 O327 2.049 1_556 S
Zn322 O332 2.067 . S
Zn323 O324 1.962 . S
Zn323 O326 1.986 1_556 S
Zn323 O328 1.996 1_556 S
Zn323 O331 1.943 . S
O324 Zn323 1.962 . S
O324 C329 1.254 . S
O325 Zn322 2.031 . S
O325 C329 1.269 . S
O326 Zn323 1.986 1_554 S
O326 C333 1.262 1_554 S
O327 Zn322 2.049 1_554 S
O327 C335 1.260 . S
O328 Zn323 1.996 1_554 S
O328 C335 1.257 . S
C329 O324 1.254 . S
C329 O325 1.269 . S
C330 O331 1.249 . S
C330 O332 1.270 . S
O331 Zn323 1.943 . S
O331 C330 1.249 . S
O332 Zn322 2.067 . S
O332 C330 1.270 . S
C333 O326 1.262 1_556 S
C333 O334 1.232 . S
O334 C333 1.232 . S
C335 O327 1.260 . S
C335 O328 1.257 . S
Zn336 O339 2.031 . S
Zn336 O341 2.049 . S
Zn336 O346 2.067 . S
Zn337 O338 1.962 . S
Zn337 O340 1.986 . S
Zn337 O342 1.996 . S
Zn337 O345 1.943 . S
O338 Zn337 1.962 . S
O338 C343 1.254 . S
O339 Zn336 2.031 . S
O339 C343 1.269 . S
O340 Zn337 1.986 . S
O340 C347 1.262 . S
O341 Zn336 2.049 . S
O341 C349 1.260 . S
O342 Zn337 1.996 . S
O342 C349 1.257 . S
C343 O338 1.254 . S
C343 O339 1.269 . S
C344 O345 1.249 . S
C344 O346 1.270 . S
O345 Zn337 1.943 . S
O345 C344 1.249 . S
O346 Zn336 2.067 . S
O346 C344 1.270 . S
C347 O340 1.262 . S
C347 O348 1.232 . S
O348 C347 1.232 . S
C349 O341 1.260 . S
C349 O342 1.257 . S
Zn350 O353 2.031 . S
Zn350 O355 2.049 . S
Zn350 O360 2.067 . S
Zn351 O352 1.962 . S
Zn351 O354 1.986 . S
Zn351 O356 1.996 . S
Zn351 O359 1.943 . S
O352 Zn351 1.962 . S
O352 C357 1.254 . S
O353 Zn350 2.031 . S
O353 C357 1.269 . S
O354 Zn351 1.986 . S
O354 C361 1.262 . S
O355 Zn350 2.049 . S
O355 C363 1.260 . S
O356 Zn351 1.996 . S
O356 C363 1.257 . S
C357 O352 1.254 . S
C357 O353 1.269 . S
C358 O359 1.249 . S
C358 O360 1.270 . S
O359 Zn351 1.943 . S
O359 C358 1.249 . S
O360 Zn350 2.067 . S
O360 C358 1.270 . S
C361 O354 1.262 . S
C361 O362 1.232 . S
O362 C361 1.232 . S
C363 O355 1.260 . S
C363 O356 1.257 . S
Zn364 O367 2.031 . S
Zn364 O369 2.049 . S
Zn364 O374 2.067 . S
Zn365 O366 1.962 . S
Zn365 O368 1.986 . S
Zn365 O370 1.996 . S
Zn365 O373 1.943 . S
O366 Zn365 1.962 . S
O366 C371 1.254 . S
O367 Zn364 2.031 . S
O367 C371 1.269 . S
O368 Zn365 1.986 . S
O368 C375 1.262 . S
O369 Zn364 2.049 . S
O369 C377 1.260 . S
O370 Zn365 1.996 . S
O370 C377 1.257 . S
C371 O366 1.254 . S
C371 O367 1.269 . S
C372 O373 1.249 . S
C372 O374 1.270 . S
O373 Zn365 1.943 . S
O373 C372 1.249 . S
O374 Zn364 2.067 . S
O374 C372 1.270 . S
C375 O368 1.262 . S
C375 O376 1.232 . S
O376 C375 1.232 . S
C377 O369 1.260 . S
C377 O370 1.257 . S
Zn378 O381 2.031 . S
Zn378 O383 2.049 1_554 S
Zn378 O388 2.067 . S
Zn379 O380 1.962 . S
Zn379 O382 1.986 1_554 S
Zn379 O384 1.996 1_554 S
Zn379 O387 1.943 . S
O380 Zn379 1.962 . S
O380 C385 1.254 . S
O381 Zn378 2.031 . S
O381 C385 1.269 . S
O382 Zn379 1.986 1_556 S
O382 C389 1.262 1_556 S
O383 Zn378 2.049 1_556 S
O383 C391 1.260 . S
O384 Zn379 1.996 1_556 S
O384 C391 1.257 . S
C385 O380 1.254 . S
C385 O381 1.269 . S
C386 O387 1.249 . S
C386 O388 1.270 . S
O387 Zn379 1.943 . S
O387 C386 1.249 . S
O388 Zn378 2.067 . S
O388 C386 1.270 . S
C389 O382 1.262 1_554 S
C389 O390 1.232 . S
O390 C389 1.232 . S
C391 O383 1.260 . S
C391 O384 1.257 . S
Zn392 O395 2.031 . S
Zn392 O397 2.049 1_554 S
Zn392 O402 2.067 . S
Zn393 O394 1.962 . S
Zn393 O396 1.986 1_554 S
Zn393 O398 1.996 1_554 S
Zn393 O401 1.943 . S
O394 Zn393 1.962 . S
O394 C399 1.254 . S
O395 Zn392 2.031 . S
O395 C399 1.269 . S
O396 Zn393 1.986 1_556 S
O396 C403 1.262 1_556 S
O397 Zn392 2.049 1_556 S
O397 C405 1.260 . S
O398 Zn393 1.996 1_556 S
O398 C405 1.257 . S
C399 O394 1.254 . S
C399 O395 1.269 . S
C400 O401 1.249 . S
C400 O402 1.270 . S
O401 Zn393 1.943 . S
O401 C400 1.249 . S
O402 Zn392 2.067 . S
O402 C400 1.270 . S
C403 O396 1.262 1_554 S
C403 O404 1.232 . S
O404 C403 1.232 . S
C405 O397 1.260 . S
C405 O398 1.257 . S
Zn406 O409 2.031 . S
Zn406 O411 2.049 1_554 S
Zn406 O416 2.067 . S
Zn407 O408 1.962 . S
Zn407 O410 1.986 1_554 S
Zn407 O412 1.996 1_554 S
Zn407 O415 1.943 . S
O408 Zn407 1.962 . S
O408 C413 1.254 . S
O409 Zn406 2.031 . S
O409 C413 1.269 . S
O410 Zn407 1.986 1_556 S
O410 C417 1.262 1_556 S
O411 Zn406 2.049 1_556 S
O411 C419 1.260 . S
O412 Zn407 1.996 1_556 S
O412 C419 1.257 . S
C413 O408 1.254 . S
C413 O409 1.269 . S
C414 O415 1.249 . S
C414 O416 1.270 . S
O415 Zn407 1.943 . S
O415 C414 1.249 . S
O416 Zn406 2.067 . S
O416 C414 1.270 . S
C417 O410 1.262 1_554 S
C417 O418 1.232 . S
O418 C417 1.232 . S
C419 O411 1.260 . S
C419 O412 1.257 . S
Zn420 O423 2.031 . S
Zn420 O425 2.049 . S
Zn420 O430 2.067 . S
Zn421 O422 1.962 . S
Zn421 O424 1.986 . S
Zn421 O426 1.996 . S
Zn421 O429 1.943 . S
O422 Zn421 1.962 . S
O422 C427 1.254 . S
O423 Zn420 2.031 . S
O423 C427 1.269 . S
O424 Zn421 1.986 . S
O424 C431 1.262 . S
O425 Zn420 2.049 . S
O425 C433 1.260 . S
O426 Zn421 1.996 . S
O426 C433 1.257 . S
C427 O422 1.254 . S
C427 O423 1.269 . S
C428 O429 1.249 . S
C428 O430 1.270 . S
O429 Zn421 1.943 . S
O429 C428 1.249 . S
O430 Zn420 2.067 . S
O430 C428 1.270 . S
C431 O424 1.262 . S
C431 O432 1.232 . S
O432 C431 1.232 . S
C433 O425 1.260 . S
C433 O426 1.257 . S
Zn434 O437 2.031 . S
Zn434 O439 2.049 . S
Zn434 O444 2.067 . S
Zn435 O436 1.962 . S
Zn435 O438 1.986 . S
Zn435 O440 1.996 . S
Zn435 O443 1.943 . S
O436 Zn435 1.962 . S
O436 C441 1.254 . S
O437 Zn434 2.031 . S
O437 C441 1.269 . S
O438 Zn435 1.986 . S
O438 C445 1.262 . S
O439 Zn434 2.049 . S
O439 C447 1.260 . S
O440 Zn435 1.996 . S
O440 C447 1.257 . S
C441 O436 1.254 . S
C441 O437 1.269 . S
C442 O443 1.249 . S
C442 O444 1.270 . S
O443 Zn435 1.943 . S
O443 C442 1.249 . S
O444 Zn434 2.067 . S
O444 C442 1.270 . S
C445 O438 1.262 . S
C445 O446 1.232 . S
O446 C445 1.232 . S
C447 O439 1.260 . S
C447 O440 1.257 . S
Zn448 O451 2.031 . S
Zn448 O453 2.049 . S
Zn448 O458 2.067 . S
Zn449 O450 1.962 . S
Zn449 O452 1.986 . S
Zn449 O454 1.996 . S
Zn449 O457 1.943 . S
O450 Zn449 1.962 . S
O450 C455 1.254 . S
O451 Zn448 2.031 . S
O451 C455 1.269 . S
O452 Zn449 1.986 . S
O452 C459 1.262 . S
O453 Zn448 2.049 . S
O453 C461 1.260 . S
O454 Zn449 1.996 . S
O454 C461 1.257 . S
C455 O450 1.254 . S
C455 O451 1.269 . S
C456 O457 1.249 . S
C456 O458 1.270 . S
O457 Zn449 1.943 . S
O457 C456 1.249 . S
O458 Zn448 2.067 . S
O458 C456 1.270 . S
C459 O452 1.262 . S
C459 O460 1.232 . S
O460 C459 1.232 . S
C461 O453 1.260 . S
C461 O454 1.257 . S
Zn462 O465 2.031 . S
Zn462 O467 2.049 . S
Zn462 O472 2.067 . S
Zn463 O464 1.962 . S
Zn463 O466 1.986 . S
Zn463 O468 1.996 . S
Zn463 O471 1.943 . S
O464 Zn463 1.962 . S
O464 C469 1.254 . S
O465 Zn462 2.031 . S
O465 C469 1.269 . S
O466 Zn463 1.986 . S
O466 C473 1.262 . S
O467 Zn462 2.049 . S
O467 C475 1.260 . S
O468 Zn463 1.996 . S
O468 C475 1.257 . S
C469 O464 1.254 . S
C469 O465 1.269 . S
C470 O471 1.249 . S
C470 O472 1.270 . S
O471 Zn463 1.943 . S
O471 C470 1.249 . S
O472 Zn462 2.067 . S
O472 C470 1.270 . S
C473 O466 1.262 . S
C473 O474 1.232 . S
O474 C473 1.232 . S
C475 O467 1.260 . S
C475 O468 1.257 . S
Zn476 O479 2.031 . S
Zn476 O481 2.049 . S
Zn476 O486 2.067 . S
Zn477 O478 1.962 . S
Zn477 O480 1.986 . S
Zn477 O482 1.996 . S
Zn477 O485 1.943 . S
O478 Zn477 1.962 . S
O478 C483 1.254 . S
O479 Zn476 2.031 . S
O479 C483 1.269 . S
O480 Zn477 1.986 . S
O480 C487 1.262 . S
O481 Zn476 2.049 . S
O481 C489 1.260 . S
O482 Zn477 1.996 . S
O482 C489 1.257 . S
C483 O478 1.254 . S
C483 O479 1.269 . S
C484 O485 1.249 . S
C484 O486 1.270 . S
O485 Zn477 1.943 . S
O485 C484 1.249 . S
O486 Zn476 2.067 . S
O486 C484 1.270 . S
C487 O480 1.262 . S
C487 O488 1.232 . S
O488 C487 1.232 . S
C489 O481 1.260 . S
C489 O482 1.257 . S
Zn490 O493 2.031 . S
Zn490 O495 2.049 . S
Zn490 O500 2.067 . S
Zn491 O492 1.962 . S
Zn491 O494 1.986 . S
Zn491 O496 1.996 . S
Zn491 O499 1.943 . S
O492 Zn491 1.962 . S
O492 C497 1.254 . S
O493 Zn490 2.031 . S
O493 C497 1.269 . S
O494 Zn491 1.986 . S
O494 C501 1.262 . S
O495 Zn490 2.049 . S
O495 C503 1.260 . S
O496 Zn491 1.996 . S
O496 C503 1.257 . S
C497 O492 1.254 . S
C497 O493 1.269 . S
C498 O499 1.249 . S
C498 O500 1.270 . S
O499 Zn491 1.943 . S
O499 C498 1.249 . S
O500 Zn490 2.067 . S
O500 C498 1.270 . S
C501 O494 1.262 . S
C501 O502 1.232 . S
O502 C501 1.232 . S
C503 O495 1.260 . S
C503 O496 1.257 . S
C504 C505 1.363 1_545 S
C504 C510 1.379 . S
C504 N512 1.356 1_545 S
C505 C504 1.363 1_565 S
C505 C511 1.363 . S
C506 C507 1.363 1_565 S
C506 C511 1.379 . S
C506 N513 1.356 1_565 S
C507 C506 1.363 1_545 S
C507 C510 1.363 . S
N508 C510 1.356 . S
N508 H520 0.984 . S
N508 H521 0.985 . S
N509 C511 1.356 . S
N509 H514 0.984 . S
N509 H515 0.985 . S
C510 C504 1.379 . S
C510 C507 1.363 . S
C510 N508 1.356 . S
C511 C505 1.363 . S
C511 C506 1.379 . S
C511 N509 1.356 . S
N512 C504 1.356 1_565 S
N512 H518 0.987 1_565 S
N512 H519 0.982 . S
N513 C506 1.356 1_545 S
N513 H516 0.981 . S
N513 H517 0.987 1_545 S
H514 N509 0.984 . S
H515 N509 0.985 . S
H516 N513 0.981 . S
H517 N513 0.987 1_565 S
H518 N512 0.987 1_545 S
H519 N512 0.982 . S
H520 N508 0.984 . S
H521 N508 0.985 . S
C522 C523 1.363 . S
C522 C528 1.379 . S
C522 N530 1.356 . S
C523 C522 1.363 . S
C523 C529 1.363 1_655 S
C524 C525 1.363 . S
C524 C529 1.379 . S
C524 N531 1.356 . S
C525 C524 1.363 . S
C525 C528 1.363 1_455 S
N526 C528 1.358 . S
N526 H538 0.990 . S
N526 H539 0.978 1_655 S
N527 C529 1.358 . S
N527 H532 0.977 1_455 S
N527 H533 0.991 . S
C528 C522 1.379 . S
C528 C525 1.363 1_655 S
C528 N526 1.358 . S
C529 C523 1.363 1_455 S
C529 C524 1.379 . S
C529 N527 1.358 . S
N530 C522 1.356 . S
N530 H536 0.984 . S
N530 H537 0.984 . S
N531 C524 1.356 . S
N531 H534 0.984 . S
N531 H535 0.985 . S
H532 N527 0.977 1_655 S
H533 N527 0.991 . S
H534 N531 0.984 . S
H535 N531 0.985 . S
H536 N530 0.984 . S
H537 N530 0.984 . S
H538 N526 0.990 . S
H539 N526 0.978 1_455 S
C540 C541 1.363 . S
C540 C546 1.379 . S
C540 N548 1.356 . S
C541 C540 1.363 . S
C541 C547 1.363 . S
C542 C543 1.363 . S
C542 C547 1.379 . S
C542 N549 1.356 . S
C543 C542 1.363 . S
C543 C546 1.363 . S
N544 C546 1.356 . S
N544 H556 0.984 . S
N544 H557 0.985 . S
N545 C547 1.356 . S
N545 H550 0.984 . S
N545 H551 0.985 . S
C546 C540 1.379 . S
C546 C543 1.363 . S
C546 N544 1.356 . S
C547 C541 1.363 . S
C547 C542 1.379 . S
C547 N545 1.356 . S
N548 C540 1.356 . S
N548 H554 0.984 . S
N548 H555 0.984 . S
N549 C542 1.356 . S
N549 H552 0.984 . S
N549 H553 0.985 . S
H550 N545 0.984 . S
H551 N545 0.985 . S
H552 N549 0.984 . S
H553 N549 0.985 . S
H554 N548 0.984 . S
H555 N548 0.984 . S
H556 N544 0.984 . S
H557 N544 0.985 . S
C558 C559 1.363 1_545 S
C558 C564 1.379 . S
C558 N566 1.356 1_545 S
C559 C558 1.363 1_565 S
C559 C565 1.363 . S
C560 C561 1.363 1_565 S
C560 C565 1.379 . S
C560 N567 1.356 1_565 S
C561 C560 1.363 1_545 S
C561 C564 1.363 . S
N562 C564 1.356 . S
N562 H574 0.984 . S
N562 H575 0.985 . S
N563 C565 1.356 . S
N563 H568 0.984 . S
N563 H569 0.985 . S
C564 C558 1.379 . S
C564 C561 1.363 . S
C564 N562 1.356 . S
C565 C559 1.363 . S
C565 C560 1.379 . S
C565 N563 1.356 . S
N566 C558 1.356 1_565 S
N566 H572 0.984 1_565 S
N566 H573 0.984 . S
N567 C560 1.356 1_545 S
N567 H570 0.984 . S
N567 H571 0.985 1_545 S
H568 N563 0.984 . S
H569 N563 0.985 . S
H570 N567 0.984 . S
H571 N567 0.985 1_565 S
H572 N566 0.984 1_545 S
H573 N566 0.984 . S
H574 N562 0.984 . S
H575 N562 0.985 . S
C576 C577 1.363 . S
C576 C582 1.379 1_455 S
C576 N584 1.356 . S
C577 C576 1.363 . S
C577 C583 1.363 . S
C578 C579 1.363 . S
C578 C583 1.379 1_655 S
C578 N585 1.356 . S
C579 C578 1.363 . S
C579 C582 1.363 . S
N580 C582 1.356 . S
N580 H592 0.984 . S
N580 H593 0.985 . S
N581 C583 1.356 . S
N581 H586 0.984 . S
N581 H587 0.985 . S
C582 C576 1.379 1_655 S
C582 C579 1.363 . S
C582 N580 1.356 . S
C583 C577 1.363 . S
C583 C578 1.379 1_455 S
C583 N581 1.356 . S
N584 C576 1.356 . S
N584 H590 0.984 . S
N584 H591 0.984 . S
N585 C578 1.356 . S
N585 H588 0.984 . S
N585 H589 0.985 . S
H586 N581 0.984 . S
H587 N581 0.985 . S
H588 N585 0.984 . S
H589 N585 0.985 . S
H590 N584 0.984 . S
H591 N584 0.984 . S
H592 N580 0.984 . S
H593 N580 0.985 . S
C594 C595 1.363 . S
C594 C600 1.379 . S
C594 N602 1.356 . S
C595 C594 1.363 . S
C595 C601 1.363 . S
C596 C597 1.363 . S
C596 C601 1.379 . S
C596 N603 1.356 . S
C597 C596 1.363 . S
C597 C600 1.363 . S
N598 C600 1.356 . S
N598 H610 0.984 . S
N598 H611 0.985 . S
N599 C601 1.356 . S
N599 H604 0.984 . S
N599 H605 0.985 . S
C600 C594 1.379 . S
C600 C597 1.363 . S
C600 N598 1.356 . S
C601 C595 1.363 . S
C601 C596 1.379 . S
C601 N599 1.356 . S
N602 C594 1.356 . S
N602 H608 0.984 . S
N602 H609 0.984 . S
N603 C596 1.356 . S
N603 H606 0.984 . S
N603 H607 0.985 . S
H604 N599 0.984 . S
H605 N599 0.985 . S
H606 N603 0.984 . S
H607 N603 0.985 . S
H608 N602 0.984 . S
H609 N602 0.984 . S
H610 N598 0.984 . S
H611 N598 0.985 . S
C612 C613 1.363 . S
C612 C618 1.379 . S
C612 N620 1.356 . S
C613 C612 1.363 . S
C613 C619 1.363 . S
C614 C615 1.363 . S
C614 C619 1.379 . S
C614 N621 1.356 . S
C615 C614 1.363 . S
C615 C618 1.363 . S
N616 C618 1.356 . S
N616 H628 0.984 . S
N616 H629 0.985 . S
N617 C619 1.356 . S
N617 H622 0.984 . S
N617 H623 0.985 . S
C618 C612 1.379 . S
C618 C615 1.363 . S
C618 N616 1.356 . S
C619 C613 1.363 . S
C619 C614 1.379 . S
C619 N617 1.356 . S
N620 C612 1.356 . S
N620 H626 0.984 . S
N620 H627 0.984 . S
N621 C614 1.356 . S
N621 H624 0.984 . S
N621 H625 0.985 . S
H622 N617 0.984 . S
H623 N617 0.985 . S
H624 N621 0.984 . S
H625 N621 0.985 . S
H626 N620 0.984 . S
H627 N620 0.984 . S
H628 N616 0.984 . S
H629 N616 0.985 . S
C630 C631 1.363 . S
C630 C636 1.379 . S
C630 N638 1.356 . S
C631 C630 1.363 . S
C631 C637 1.363 . S
C632 C633 1.363 . S
C632 C637 1.379 . S
C632 N639 1.356 . S
C633 C632 1.363 . S
C633 C636 1.363 . S
N634 C636 1.356 . S
N634 H646 0.984 . S
N634 H647 0.985 . S
N635 C637 1.356 . S
N635 H640 0.984 . S
N635 H641 0.985 . S
C636 C630 1.379 . S
C636 C633 1.363 . S
C636 N634 1.356 . S
C637 C631 1.363 . S
C637 C632 1.379 . S
C637 N635 1.356 . S
N638 C630 1.356 . S
N638 H644 0.984 . S
N638 H645 0.984 . S
N639 C632 1.356 . S
N639 H642 0.984 . S
N639 H643 0.985 . S
H640 N635 0.984 . S
H641 N635 0.985 . S
H642 N639 0.984 . S
H643 N639 0.985 . S
H644 N638 0.984 . S
H645 N638 0.984 . S
H646 N634 0.984 . S
H647 N634 0.985 . S
C648 C649 1.363 . S
C648 C654 1.379 . S
C648 N656 1.356 . S
C649 C648 1.363 . S
C649 C655 1.363 . S
C650 C651 1.363 . S
C650 C655 1.379 . S
C650 N657 1.356 . S
C651 C650 1.363 . S
C651 C654 1.363 . S
N652 C654 1.356 . S
N652 H664 0.984 . S
N652 H665 0.985 . S
N653 C655 1.356 . S
N653 H658 0.984 . S
N653 H659 0.985 . S
C654 C648 1.379 . S
C654 C651 1.363 . S
C654 N652 1.356 . S
C655 C649 1.363 . S
C655 C650 1.379 . S
C655 N653 1.356 . S
N656 C648 1.356 . S
N656 H662 0.984 . S
N656 H663 0.984 . S
N657 C650 1.356 . S
N657 H660 0.984 . S
N657 H661 0.985 . S
H658 N653 0.984 . S
H659 N653 0.985 . S
H660 N657 0.984 . S
H661 N657 0.985 . S
H662 N656 0.984 . S
H663 N656 0.984 . S
H664 N652 0.984 . S
H665 N652 0.985 . S
C666 C667 1.363 . S
C666 C672 1.379 1_554 S
C666 N674 1.356 . S
C667 C666 1.363 . S
C667 C673 1.363 . S
C668 C669 1.363 . S
C668 C673 1.379 . S
C668 N675 1.356 . S
C669 C668 1.363 . S
C669 C672 1.363 1_554 S
N670 C672 1.356 . S
N670 H682 0.984 . S
N670 H683 0.985 . S
N671 C673 1.356 . S
N671 H676 0.984 . S
N671 H677 0.985 . S
C672 C666 1.379 1_556 S
C672 C669 1.363 1_556 S
C672 N670 1.356 . S
C673 C667 1.363 . S
C673 C668 1.379 . S
C673 N671 1.356 . S
N674 C666 1.356 . S
N674 H680 0.984 . S
N674 H681 0.984 . S
N675 C668 1.356 . S
N675 H678 0.984 . S
N675 H679 0.985 . S
H676 N671 0.984 . S
H677 N671 0.985 . S
H678 N675 0.984 . S
H679 N675 0.985 . S
H680 N674 0.984 . S
H681 N674 0.984 . S
H682 N670 0.984 . S
H683 N670 0.985 . S
C684 C685 1.363 . S
C684 C690 1.379 . S
C684 N692 1.356 . S
C685 C684 1.363 . S
C685 C691 1.363 . S
C686 C687 1.363 . S
C686 C691 1.379 . S
C686 N693 1.356 . S
C687 C686 1.363 . S
C687 C690 1.363 . S
N688 C690 1.356 1_556 S
N688 H700 0.984 . S
N688 H701 0.985 . S
N689 C691 1.356 . S
N689 H694 0.984 . S
N689 H695 0.985 . S
C690 C684 1.379 . S
C690 C687 1.363 . S
C690 N688 1.356 1_554 S
C691 C685 1.363 . S
C691 C686 1.379 . S
C691 N689 1.356 . S
N692 C684 1.356 . S
N692 H698 0.984 . S
N692 H699 0.984 . S
N693 C686 1.356 . S
N693 H696 0.984 . S
N693 H697 0.985 . S
H694 N689 0.984 . S
H695 N689 0.985 . S
H696 N693 0.984 . S
H697 N693 0.985 . S
H698 N692 0.984 . S
H699 N692 0.984 . S
H700 N688 0.984 . S
H701 N688 0.985 . S
C702 C703 1.363 . S
C702 C708 1.379 . S
C702 N710 1.356 . S
C703 C702 1.363 . S
C703 C709 1.363 . S
C704 C705 1.363 . S
C704 C709 1.379 . S
C704 N711 1.356 . S
C705 C704 1.363 . S
C705 C708 1.363 . S
N706 C708 1.356 1_556 S
N706 H718 0.984 . S
N706 H719 0.985 . S
N707 C709 1.356 . S
N707 H712 0.984 . S
N707 H713 0.985 . S
C708 C702 1.379 . S
C708 C705 1.363 . S
C708 N706 1.356 1_554 S
C709 C703 1.363 . S
C709 C704 1.379 . S
C709 N707 1.356 . S
N710 C702 1.356 . S
N710 H716 0.984 . S
N710 H717 0.984 . S
N711 C704 1.356 . S
N711 H714 0.984 . S
N711 H715 0.985 . S
H712 N707 0.984 . S
H713 N707 0.985 . S
H714 N711 0.984 . S
H715 N711 0.985 . S
H716 N710 0.984 . S
H717 N710 0.984 . S
H718 N706 0.984 . S
H719 N706 0.985 . S
C720 C721 1.363 . S
C720 C726 1.379 1_556 S
C720 N728 1.356 . S
C721 C720 1.363 . S
C721 C727 1.363 . S
C722 C723 1.363 . S
C722 C727 1.379 . S
C722 N729 1.356 . S
C723 C722 1.363 . S
C723 C726 1.363 1_556 S
N724 C726 1.356 . S
N724 H736 0.984 . S
N724 H737 0.985 . S
N725 C727 1.356 . S
N725 H730 0.984 . S
N725 H731 0.985 . S
C726 C720 1.379 1_554 S
C726 C723 1.363 1_554 S
C726 N724 1.356 . S
C727 C721 1.363 . S
C727 C722 1.379 . S
C727 N725 1.356 . S
N728 C720 1.356 . S
N728 H734 0.984 1_556 S
N728 H735 0.984 . S
N729 C722 1.356 . S
N729 H732 0.984 . S
N729 H733 0.985 . S
H730 N725 0.984 . S
H731 N725 0.985 . S
H732 N729 0.984 . S
H733 N729 0.985 . S
H734 N728 0.984 1_554 S
H735 N728 0.984 . S
H736 N724 0.984 . S
H737 N724 0.985 . S
C738 C739 1.363 . S
C738 C744 1.379 . S
C738 N746 1.356 . S
C739 C738 1.363 . S
C739 C745 1.363 . S
C740 C741 1.363 . S
C740 C745 1.379 . S
C740 N747 1.356 . S
C741 C740 1.363 . S
C741 C744 1.363 . S
N742 C744 1.356 . S
N742 H754 0.984 . S
N742 H755 0.985 . S
N743 C745 1.356 1_554 S
N743 H748 0.984 . S
N743 H749 0.985 . S
C744 C738 1.379 . S
C744 C741 1.363 . S
C744 N742 1.356 . S
C745 C739 1.363 . S
C745 C740 1.379 . S
C745 N743 1.356 1_556 S
N746 C738 1.356 . S
N746 H752 0.984 . S
N746 H753 0.984 1_556 S
N747 C740 1.356 . S
N747 H750 0.984 . S
N747 H751 0.985 . S
H748 N743 0.984 . S
H749 N743 0.985 . S
H750 N747 0.984 . S
H751 N747 0.985 . S
H752 N746 0.984 . S
H753 N746 0.984 1_554 S
H754 N742 0.984 . S
H755 N742 0.985 . S
C756 C757 1.363 . S
C756 C762 1.379 . S
C756 N764 1.356 . S
C757 C756 1.363 . S
C757 C763 1.363 . S
C758 C759 1.363 . S
C758 C763 1.379 . S
C758 N765 1.356 . S
C759 C758 1.363 . S
C759 C762 1.363 . S
N760 C762 1.356 . S
N760 H772 0.984 . S
N760 H773 0.985 1_556 S
N761 C763 1.356 . S
N761 H766 0.984 . S
N761 H767 0.985 . S
C762 C756 1.379 . S
C762 C759 1.363 . S
C762 N760 1.356 . S
C763 C757 1.363 . S
C763 C758 1.379 . S
C763 N761 1.356 . S
N764 C756 1.356 . S
N764 H770 0.984 . S
N764 H771 0.984 . S
N765 C758 1.356 . S
N765 H768 0.984 1_556 S
N765 H769 0.985 . S
H766 N761 0.984 . S
H767 N761 0.985 . S
H768 N765 0.984 1_554 S
H769 N765 0.985 . S
H770 N764 0.984 . S
H771 N764 0.984 . S
H772 N760 0.984 . S
H773 N760 0.985 1_554 S
C774 C775 1.363 . S
C774 C780 1.379 . S
C774 N782 1.356 . S
C775 C774 1.363 . S
C775 C781 1.363 . S
C776 C777 1.363 . S
C776 C781 1.379 . S
C776 N783 1.356 . S
C777 C776 1.363 . S
C777 C780 1.363 . S
N778 C780 1.356 . S
N778 H790 0.984 . S
N778 H791 0.985 . S
N779 C781 1.356 . S
N779 H784 0.984 . S
N779 H785 0.985 . S
C780 C774 1.379 . S
C780 C777 1.363 . S
C780 N778 1.356 . S
C781 C775 1.363 . S
C781 C776 1.379 . S
C781 N779 1.356 . S
N782 C774 1.356 . S
N782 H788 0.984 . S
N782 H789 0.984 . S
N783 C776 1.356 . S
N783 H786 0.984 . S
N783 H787 0.985 . S
H784 N779 0.984 . S
H785 N779 0.985 . S
H786 N783 0.984 . S
H787 N783 0.985 . S
H788 N782 0.984 . S
H789 N782 0.984 . S
H790 N778 0.984 . S
H791 N778 0.985 . S
C792 C793 1.363 . S
C792 C798 1.379 . S
C792 N800 1.356 . S
C793 C792 1.363 . S
C793 C799 1.363 . S
C794 C795 1.363 . S
C794 C799 1.379 . S
C794 N801 1.356 . S
C795 C794 1.363 . S
C795 C798 1.363 . S
N796 C798 1.356 . S
N796 H808 0.984 . S
N796 H809 0.985 . S
N797 C799 1.356 . S
N797 H802 0.984 . S
N797 H803 0.985 . S
C798 C792 1.379 . S
C798 C795 1.363 . S
C798 N796 1.356 . S
C799 C793 1.363 . S
C799 C794 1.379 . S
C799 N797 1.356 . S
N800 C792 1.356 . S
N800 H806 0.984 . S
N800 H807 0.984 . S
N801 C794 1.356 . S
N801 H804 0.984 . S
N801 H805 0.985 . S
H802 N797 0.984 . S
H803 N797 0.985 . S
H804 N801 0.984 . S
H805 N801 0.985 . S
H806 N800 0.984 . S
H807 N800 0.984 . S
H808 N796 0.984 . S
H809 N796 0.985 . S
C810 C811 1.363 . S
C810 C816 1.379 . S
C810 N818 1.356 . S
C811 C810 1.363 . S
C811 C817 1.363 . S
C812 C813 1.363 . S
C812 C817 1.379 . S
C812 N819 1.356 . S
C813 C812 1.363 . S
C813 C816 1.363 . S
N814 C816 1.356 . S
N814 H826 0.984 . S
N814 H827 0.985 . S
N815 C817 1.356 . S
N815 H820 0.984 . S
N815 H821 0.985 . S
C816 C810 1.379 . S
C816 C813 1.363 . S
C816 N814 1.356 . S
C817 C811 1.363 . S
C817 C812 1.379 . S
C817 N815 1.356 . S
N818 C810 1.356 . S
N818 H824 0.984 . S
N818 H825 0.984 . S
N819 C812 1.356 . S
N819 H822 0.984 . S
N819 H823 0.985 . S
H820 N815 0.984 . S
H821 N815 0.985 . S
H822 N819 0.984 . S
H823 N819 0.985 . S
H824 N818 0.984 . S
H825 N818 0.984 . S
H826 N814 0.984 . S
H827 N814 0.985 . S
C828 C829 1.363 . S
C828 C834 1.379 . S
C828 N836 1.356 . S
C829 C828 1.363 . S
C829 C835 1.363 . S
C830 C831 1.363 . S
C830 C835 1.379 . S
C830 N837 1.356 . S
C831 C830 1.363 . S
C831 C834 1.363 . S
N832 C834 1.356 1_554 S
N832 H844 0.984 . S
N832 H845 0.985 . S
N833 C835 1.356 . S
N833 H838 0.984 . S
N833 H839 0.985 . S
C834 C828 1.379 . S
C834 C831 1.363 . S
C834 N832 1.356 1_556 S
C835 C829 1.363 . S
C835 C830 1.379 . S
C835 N833 1.356 . S
N836 C828 1.356 . S
N836 H842 0.984 . S
N836 H843 0.984 . S
N837 C830 1.356 . S
N837 H840 0.984 . S
N837 H841 0.985 . S
H838 N833 0.984 . S
H839 N833 0.985 . S
H840 N837 0.984 . S
H841 N837 0.985 . S
H842 N836 0.984 . S
H843 N836 0.984 . S
H844 N832 0.984 . S
H845 N832 0.985 . S
C846 C847 1.363 . S
C846 C852 1.379 . S
C846 N854 1.356 . S
C847 C846 1.363 . S
C847 C853 1.363 . S
C848 C849 1.363 . S
C848 C853 1.379 . S
C848 N855 1.356 . S
C849 C848 1.363 . S
C849 C852 1.363 . S
N850 C852 1.356 1_554 S
N850 H862 0.984 . S
N850 H863 0.985 . S
N851 C853 1.356 . S
N851 H856 0.984 . S
N851 H857 0.985 . S
C852 C846 1.379 . S
C852 C849 1.363 . S
C852 N850 1.356 1_556 S
C853 C847 1.363 . S
C853 C848 1.379 . S
C853 N851 1.356 . S
N854 C846 1.356 . S
N854 H860 0.984 . S
N854 H861 0.984 . S
N855 C848 1.356 . S
N855 H858 0.984 . S
N855 H859 0.985 . S
H856 N851 0.984 . S
H857 N851 0.985 . S
H858 N855 0.984 . S
H859 N855 0.985 . S
H860 N854 0.984 . S
H861 N854 0.984 . S
H862 N850 0.984 . S
H863 N850 0.985 . S
C864 C865 1.363 . S
C864 C870 1.379 . S
C864 N872 1.356 . S
C865 C864 1.363 . S
C865 C871 1.363 . S
C866 C867 1.363 . S
C866 C871 1.379 . S
C866 N873 1.356 . S
C867 C866 1.363 . S
C867 C870 1.363 . S
N868 C870 1.356 . S
N868 H880 0.984 . S
N868 H881 0.985 . S
N869 C871 1.356 . S
N869 H874 0.984 . S
N869 H875 0.985 . S
C870 C864 1.379 . S
C870 C867 1.363 . S
C870 N868 1.356 . S
C871 C865 1.363 . S
C871 C866 1.379 . S
C871 N869 1.356 . S
N872 C864 1.356 . S
N872 H878 0.984 . S
N872 H879 0.984 . S
N873 C866 1.356 . S
N873 H876 0.984 . S
N873 H877 0.985 . S
H874 N869 0.984 . S
H875 N869 0.985 . S
H876 N873 0.984 . S
H877 N873 0.985 . S
H878 N872 0.984 . S
H879 N872 0.984 . S
H880 N868 0.984 . S
H881 N868 0.985 . S
C882 C883 1.363 . S
C882 C888 1.379 . S
C882 N890 1.356 . S
C883 C882 1.363 . S
C883 C889 1.363 . S
C884 C885 1.363 . S
C884 C889 1.379 . S
C884 N891 1.356 . S
C885 C884 1.363 . S
C885 C888 1.363 . S
N886 C888 1.356 . S
N886 H898 0.984 . S
N886 H899 0.985 . S
N887 C889 1.356 . S
N887 H892 0.984 . S
N887 H893 0.985 . S
C888 C882 1.379 . S
C888 C885 1.363 . S
C888 N886 1.356 . S
C889 C883 1.363 . S
C889 C884 1.379 . S
C889 N887 1.356 . S
N890 C882 1.356 . S
N890 H896 0.984 . S
N890 H897 0.984 . S
N891 C884 1.356 . S
N891 H894 0.984 . S
N891 H895 0.985 . S
H892 N887 0.984 . S
H893 N887 0.985 . S
H894 N891 0.984 . S
H895 N891 0.985 . S
H896 N890 0.984 . S
H897 N890 0.984 . S
H898 N886 0.984 . S
H899 N886 0.985 . S
C900 C901 1.363 . S
C900 C906 1.379 . S
C900 N908 1.356 . S
C901 C900 1.363 . S
C901 C907 1.363 . S
C902 C903 1.363 . S
C902 C907 1.379 . S
C902 N909 1.356 . S
C903 C902 1.363 . S
C903 C906 1.363 . S
N904 C906 1.356 . S
N904 H916 0.984 . S
N904 H917 0.985 . S
N905 C907 1.356 . S
N905 H910 0.984 . S
N905 H911 0.985 . S
C906 C900 1.379 . S
C906 C903 1.363 . S
C906 N904 1.356 . S
C907 C901 1.363 . S
C907 C902 1.379 . S
C907 N905 1.356 . S
N908 C900 1.356 . S
N908 H914 0.984 . S
N908 H915 0.984 . S
N909 C902 1.356 . S
N909 H912 0.984 . S
N909 H913 0.985 . S
H910 N905 0.984 . S
H911 N905 0.985 . S
H912 N909 0.984 . S
H913 N909 0.985 . S
H914 N908 0.984 . S
H915 N908 0.984 . S
H916 N904 0.984 . S
H917 N904 0.985 . S
C918 C919 1.363 . S
C918 C924 1.379 . S
C918 N926 1.356 . S
C919 C918 1.363 . S
C919 C925 1.363 . S
C920 C921 1.363 . S
C920 C925 1.379 . S
C920 N927 1.356 . S
C921 C920 1.363 . S
C921 C924 1.363 . S
N922 C924 1.356 . S
N922 H934 0.984 . S
N922 H935 0.985 . S
N923 C925 1.356 . S
N923 H928 0.984 . S
N923 H929 0.985 . S
C924 C918 1.379 . S
C924 C921 1.363 . S
C924 N922 1.356 . S
C925 C919 1.363 . S
C925 C920 1.379 . S
C925 N923 1.356 . S
N926 C918 1.356 . S
N926 H932 0.984 . S
N926 H933 0.984 . S
N927 C920 1.356 . S
N927 H930 0.984 . S
N927 H931 0.985 . S
H928 N923 0.984 . S
H929 N923 0.985 . S
H930 N927 0.984 . S
H931 N927 0.985 . S
H932 N926 0.984 . S
H933 N926 0.984 . S
H934 N922 0.984 . S
H935 N922 0.985 . S
C936 C937 1.363 . S
C936 C942 1.379 . S
C936 N944 1.356 . S
C937 C936 1.363 . S
C937 C943 1.363 . S
C938 C939 1.363 . S
C938 C943 1.379 . S
C938 N945 1.356 . S
C939 C938 1.363 . S
C939 C942 1.363 . S
N940 C942 1.356 . S
N940 H952 0.984 . S
N940 H953 0.985 . S
N941 C943 1.356 . S
N941 H946 0.984 . S
N941 H947 0.985 . S
C942 C936 1.379 . S
C942 C939 1.363 . S
C942 N940 1.356 . S
C943 C937 1.363 . S
C943 C938 1.379 . S
C943 N941 1.356 . S
N944 C936 1.356 . S
N944 H950 0.984 . S
N944 H951 0.984 . S
N945 C938 1.356 . S
N945 H948 0.984 . S
N945 H949 0.985 . S
H946 N941 0.984 . S
H947 N941 0.985 . S
H948 N945 0.984 . S
H949 N945 0.985 . S
H950 N944 0.984 . S
H951 N944 0.984 . S
H952 N940 0.984 . S
H953 N940 0.985 . S
C954 C955 1.363 . S
C954 C960 1.379 . S
C954 N962 1.356 1_554 S
C955 C954 1.363 . S
C955 C961 1.363 . S
C956 C957 1.363 . S
C956 C961 1.379 . S
C956 N963 1.356 . S
C957 C956 1.363 . S
C957 C960 1.363 . S
N958 C960 1.356 . S
N958 H970 0.984 . S
N958 H971 0.985 . S
N959 C961 1.356 . S
N959 H964 0.984 . S
N959 H965 0.985 . S
C960 C954 1.379 . S
C960 C957 1.363 . S
C960 N958 1.356 . S
C961 C955 1.363 . S
C961 C956 1.379 . S
C961 N959 1.356 . S
N962 C954 1.356 1_556 S
N962 H968 0.984 . S
N962 H969 0.984 . S
N963 C956 1.356 . S
N963 H966 0.984 . S
N963 H967 0.985 . S
H964 N959 0.984 . S
H965 N959 0.985 . S
H966 N963 0.984 . S
H967 N963 0.985 . S
H968 N962 0.984 . S
H969 N962 0.984 . S
H970 N958 0.984 . S
H971 N958 0.985 . S
C972 C973 1.363 . S
C972 C978 1.379 . S
C972 N980 1.356 . S
C973 C972 1.363 . S
C973 C979 1.363 . S
C974 C975 1.363 . S
C974 C979 1.379 . S
C974 N981 1.356 . S
C975 C974 1.363 . S
C975 C978 1.363 . S
N976 C978 1.356 . S
N976 H988 0.984 . S
N976 H989 0.985 . S
N977 C979 1.356 . S
N977 H982 0.984 . S
N977 H983 0.985 . S
C978 C972 1.379 . S
C978 C975 1.363 . S
C978 N976 1.356 . S
C979 C973 1.363 . S
C979 C974 1.379 . S
C979 N977 1.356 . S
N980 C972 1.356 . S
N980 H986 0.984 1_554 S
N980 H987 0.984 1_554 S
N981 C974 1.356 . S
N981 H984 0.984 . S
N981 H985 0.985 . S
H982 N977 0.984 . S
H983 N977 0.985 . S
H984 N981 0.984 . S
H985 N981 0.985 . S
H986 N980 0.984 1_556 S
H987 N980 0.984 1_556 S
H988 N976 0.984 . S
H989 N976 0.985 . S
C990 C991 1.363 . S
C990 C996 1.379 . S
C990 N998 1.356 . S
C991 C990 1.363 . S
C991 C997 1.363 . S
C992 C993 1.363 . S
C992 C997 1.379 . S
C992 N999 1.356 . S
C993 C992 1.363 . S
C993 C996 1.363 . S
N994 C996 1.356 . S
N994 H1006 0.984 . S
N994 H1007 0.985 . S
N995 C997 1.356 . S
N995 H1000 0.984 . S
N995 H1001 0.985 . S
C996 C990 1.379 . S
C996 C993 1.363 . S
C996 N994 1.356 . S
C997 C991 1.363 . S
C997 C992 1.379 . S
C997 N995 1.356 . S
N998 C990 1.356 . S
N998 H1004 0.984 . S
N998 H1005 0.984 . S
N999 C992 1.356 . S
N999 H1002 0.984 . S
N999 H1003 0.985 . S
H1000 N995 0.984 . S
H1001 N995 0.985 . S
H1002 N999 0.984 . S
H1003 N999 0.985 . S
H1004 N998 0.984 . S
H1005 N998 0.984 . S
H1006 N994 0.984 . S
H1007 N994 0.985 . S
C1008 C1009 1.363 . S
C1008 C1014 1.379 . S
C1008 N1016 1.356 . S
C1009 C1008 1.363 . S
C1009 C1015 1.363 . S
C1010 C1011 1.363 . S
C1010 C1015 1.379 . S
C1010 N1017 1.356 . S
C1011 C1010 1.363 . S
C1011 C1014 1.363 . S
N1012 C1014 1.356 . S
N1012 H1024 0.984 . S
N1012 H1025 0.985 . S
N1013 C1015 1.356 . S
N1013 H1018 0.984 . S
N1013 H1019 0.985 . S
C1014 C1008 1.379 . S
C1014 C1011 1.363 . S
C1014 N1012 1.356 . S
C1015 C1009 1.363 . S
C1015 C1010 1.379 . S
C1015 N1013 1.356 . S
N1016 C1008 1.356 . S
N1016 H1022 0.984 . S
N1016 H1023 0.984 . S
N1017 C1010 1.356 . S
N1017 H1020 0.984 . S
N1017 H1021 0.985 . S
H1018 N1013 0.984 . S
H1019 N1013 0.985 . S
H1020 N1017 0.984 . S
H1021 N1017 0.985 . S
H1022 N1016 0.984 . S
H1023 N1016 0.984 . S
H1024 N1012 0.984 . S
H1025 N1012 0.985 . S
C1026 C1027 1.363 . S
C1026 C1032 1.379 . S
C1026 N1034 1.356 . S
C1027 C1026 1.363 . S
C1027 C1033 1.363 . S
C1028 C1029 1.363 . S
C1028 C1033 1.379 . S
C1028 N1035 1.356 . S
C1029 C1028 1.363 . S
C1029 C1032 1.363 . S
N1030 C1032 1.356 . S
N1030 H1042 0.984 . S
N1030 H1043 0.985 . S
N1031 C1033 1.356 . S
N1031 H1036 0.984 . S
N1031 H1037 0.985 . S
C1032 C1026 1.379 . S
C1032 C1029 1.363 . S
C1032 N1030 1.356 . S
C1033 C1027 1.363 . S
C1033 C1028 1.379 . S
C1033 N1031 1.356 . S
N1034 C1026 1.356 . S
N1034 H1040 0.984 . S
N1034 H1041 0.984 . S
N1035 C1028 1.356 . S
N1035 H1038 0.984 . S
N1035 H1039 0.985 . S
H1036 N1031 0.984 . S
H1037 N1031 0.985 . S
H1038 N1035 0.984 . S
H1039 N1035 0.985 . S
H1040 N1034 0.984 . S
H1041 N1034 0.984 . S
H1042 N1030 0.984 . S
H1043 N1030 0.985 . S
C1044 C1045 1.363 . S
C1044 C1050 1.379 . S
C1044 N1052 1.356 . S
C1045 C1044 1.363 . S
C1045 C1051 1.363 . S
C1046 C1047 1.363 . S
C1046 C1051 1.379 . S
C1046 N1053 1.356 . S
C1047 C1046 1.363 . S
C1047 C1050 1.363 . S
N1048 C1050 1.356 . S
N1048 H1060 0.984 . S
N1048 H1061 0.985 . S
N1049 C1051 1.356 . S
N1049 H1054 0.984 . S
N1049 H1055 0.985 . S
C1050 C1044 1.379 . S
C1050 C1047 1.363 . S
C1050 N1048 1.356 . S
C1051 C1045 1.363 . S
C1051 C1046 1.379 . S
C1051 N1049 1.356 . S
N1052 C1044 1.356 . S
N1052 H1058 0.984 . S
N1052 H1059 0.984 . S
N1053 C1046 1.356 . S
N1053 H1056 0.984 . S
N1053 H1057 0.988 . S
H1054 N1049 0.984 . S
H1055 N1049 0.985 . S
H1056 N1053 0.984 . S
H1057 N1053 0.988 . S
H1058 N1052 0.984 . S
H1059 N1052 0.984 . S
H1060 N1048 0.984 . S
H1061 N1048 0.985 . S
C1062 C1063 1.363 . S
C1062 C1068 1.379 . S
C1062 N1070 1.356 . S
C1063 C1062 1.363 . S
C1063 C1069 1.363 . S
C1064 C1065 1.363 . S
C1064 C1069 1.379 . S
C1064 N1071 1.356 . S
C1065 C1064 1.363 . S
C1065 C1068 1.363 . S
N1066 C1068 1.356 . S
N1066 H1078 0.984 . S
N1066 H1079 0.985 . S
N1067 C1069 1.356 . S
N1067 H1072 0.984 . S
N1067 H1073 0.985 . S
C1068 C1062 1.379 . S
C1068 C1065 1.363 . S
C1068 N1066 1.356 . S
C1069 C1063 1.363 . S
C1069 C1064 1.379 . S
C1069 N1067 1.356 . S
N1070 C1062 1.356 . S
N1070 H1076 0.984 . S
N1070 H1077 0.984 . S
N1071 C1064 1.356 . S
N1071 H1074 0.984 . S
N1071 H1075 0.985 . S
H1072 N1067 0.984 . S
H1073 N1067 0.985 . S
H1074 N1071 0.984 . S
H1075 N1071 0.985 . S
H1076 N1070 0.984 . S
H1077 N1070 0.984 . S
H1078 N1066 0.984 . S
H1079 N1066 0.985 . S
C1080 C1081 1.363 . S
C1080 C1086 1.379 . S
C1080 N1088 1.356 . S
C1081 C1080 1.363 . S
C1081 C1087 1.363 . S
C1082 C1083 1.363 . S
C1082 C1087 1.379 . S
C1082 N1089 1.356 . S
C1083 C1082 1.363 . S
C1083 C1086 1.363 . S
N1084 C1086 1.356 . S
N1084 H1096 0.984 . S
N1084 H1097 0.985 . S
N1085 C1087 1.356 . S
N1085 H1090 0.984 . S
N1085 H1091 0.985 . S
C1086 C1080 1.379 . S
C1086 C1083 1.363 . S
C1086 N1084 1.356 . S
C1087 C1081 1.363 . S
C1087 C1082 1.379 . S
C1087 N1085 1.356 . S
N1088 C1080 1.356 . S
N1088 H1094 0.984 . S
N1088 H1095 0.984 . S
N1089 C1082 1.356 . S
N1089 H1092 0.984 . S
N1089 H1093 0.985 . S
H1090 N1085 0.984 . S
H1091 N1085 0.985 . S
H1092 N1089 0.984 . S
H1093 N1089 0.985 . S
H1094 N1088 0.984 . S
H1095 N1088 0.984 . S
H1096 N1084 0.984 . S
H1097 N1084 0.985 . S
C1098 C1099 1.363 . S
C1098 C1104 1.379 1_556 S
C1098 N1106 1.356 . S
C1099 C1098 1.363 . S
C1099 C1105 1.363 . S
C1100 C1101 1.363 1_556 S
C1100 C1105 1.379 . S
C1100 N1107 1.356 . S
C1101 C1100 1.363 1_554 S
C1101 C1104 1.363 . S
N1102 C1104 1.356 . S
N1102 H1114 0.984 . S
N1102 H1115 0.985 . S
N1103 C1105 1.356 . S
N1103 H1108 0.984 . S
N1103 H1109 0.985 . S
C1104 C1098 1.379 1_554 S
C1104 C1101 1.363 . S
C1104 N1102 1.356 . S
C1105 C1099 1.363 . S
C1105 C1100 1.379 . S
C1105 N1103 1.356 . S
N1106 C1098 1.356 . S
N1106 H1112 0.984 1_556 S
N1106 H1113 0.984 . S
N1107 C1100 1.356 . S
N1107 H1110 0.984 1_556 S
N1107 H1111 0.985 . S
H1108 N1103 0.984 . S
H1109 N1103 0.985 . S
H1110 N1107 0.984 1_554 S
H1111 N1107 0.985 . S
H1112 N1106 0.984 1_554 S
H1113 N1106 0.984 . S
H1114 N1102 0.984 . S
H1115 N1102 0.985 . S
C1116 C1117 1.363 . S
C1116 C1122 1.379 . S
C1116 N1124 1.356 . S
C1117 C1116 1.363 . S
C1117 C1123 1.363 . S
C1118 C1119 1.363 . S
C1118 C1123 1.379 1_554 S
C1118 N1125 1.356 . S
C1119 C1118 1.363 . S
C1119 C1122 1.363 1_554 S
N1120 C1122 1.356 . S
N1120 H1132 0.984 . S
N1120 H1133 0.985 1_556 S
N1121 C1123 1.356 . S
N1121 H1126 0.984 . S
N1121 H1127 0.985 . S
C1122 C1116 1.379 . S
C1122 C1119 1.363 1_556 S
C1122 N1120 1.356 . S
C1123 C1117 1.363 . S
C1123 C1118 1.379 1_556 S
C1123 N1121 1.356 . S
N1124 C1116 1.356 . S
N1124 H1130 0.984 . S
N1124 H1131 0.984 . S
N1125 C1118 1.356 . S
N1125 H1128 0.984 . S
N1125 H1129 0.985 . S
H1126 N1121 0.984 . S
H1127 N1121 0.985 . S
H1128 N1125 0.984 . S
H1129 N1125 0.985 . S
H1130 N1124 0.984 . S
H1131 N1124 0.984 . S
H1132 N1120 0.984 . S
H1133 N1120 0.985 1_554 S
C1134 C1135 1.363 . S
C1134 C1140 1.379 . S
C1134 N1142 1.356 . S
C1135 C1134 1.363 . S
C1135 C1141 1.363 . S
C1136 C1137 1.363 . S
C1136 C1141 1.379 1_554 S
C1136 N1143 1.356 . S
C1137 C1136 1.363 . S
C1137 C1140 1.363 1_554 S
N1138 C1140 1.356 . S
N1138 H1150 0.984 . S
N1138 H1151 0.985 . S
N1139 C1141 1.356 . S
N1139 H1144 0.984 . S
N1139 H1145 0.985 1_556 S
C1140 C1134 1.379 . S
C1140 C1137 1.363 1_556 S
C1140 N1138 1.356 . S
C1141 C1135 1.363 . S
C1141 C1136 1.379 1_556 S
C1141 N1139 1.356 . S
N1142 C1134 1.356 . S
N1142 H1148 0.984 . S
N1142 H1149 0.984 . S
N1143 C1136 1.356 . S
N1143 H1146 0.984 . S
N1143 H1147 0.985 . S
H1144 N1139 0.984 . S
H1145 N1139 0.985 1_554 S
H1146 N1143 0.984 . S
H1147 N1143 0.985 . S
H1148 N1142 0.984 . S
H1149 N1142 0.984 . S
H1150 N1138 0.984 . S
H1151 N1138 0.985 . S
C1152 C1153 1.363 . S
C1152 C1158 1.379 . S
C1152 N1160 1.356 . S
C1153 C1152 1.363 . S
C1153 C1159 1.363 . S
C1154 C1155 1.363 . S
C1154 C1159 1.379 . S
C1154 N1161 1.356 . S
C1155 C1154 1.363 . S
C1155 C1158 1.363 . S
N1156 C1158 1.356 . S
N1156 H1168 0.984 . S
N1156 H1169 0.985 . S
N1157 C1159 1.356 . S
N1157 H1162 0.984 . S
N1157 H1163 0.985 . S
C1158 C1152 1.379 . S
C1158 C1155 1.363 . S
C1158 N1156 1.356 . S
C1159 C1153 1.363 . S
C1159 C1154 1.379 . S
C1159 N1157 1.356 . S
N1160 C1152 1.356 . S
N1160 H1166 0.984 . S
N1160 H1167 0.984 . S
N1161 C1154 1.356 . S
N1161 H1164 0.984 . S
N1161 H1165 0.985 . S
H1162 N1157 0.984 . S
H1163 N1157 0.985 . S
H1164 N1161 0.984 . S
H1165 N1161 0.985 . S
H1166 N1160 0.984 . S
H1167 N1160 0.984 . S
H1168 N1156 0.984 . S
H1169 N1156 0.985 . S
C1170 C1171 1.363 . S
C1170 C1176 1.379 . S
C1170 N1178 1.356 . S
C1171 C1170 1.363 . S
C1171 C1177 1.363 . S
C1172 C1173 1.363 . S
C1172 C1177 1.379 . S
C1172 N1179 1.356 . S
C1173 C1172 1.363 . S
C1173 C1176 1.363 . S
N1174 C1176 1.356 . S
N1174 H1186 0.984 . S
N1174 H1187 0.985 . S
N1175 C1177 1.356 . S
N1175 H1180 0.984 . S
N1175 H1181 0.985 . S
C1176 C1170 1.379 . S
C1176 C1173 1.363 . S
C1176 N1174 1.356 . S
C1177 C1171 1.363 . S
C1177 C1172 1.379 . S
C1177 N1175 1.356 . S
N1178 C1170 1.356 . S
N1178 H1184 0.984 . S
N1178 H1185 0.984 . S
N1179 C1172 1.356 . S
N1179 H1182 0.984 . S
N1179 H1183 0.985 . S
H1180 N1175 0.984 . S
H1181 N1175 0.985 . S
H1182 N1179 0.984 . S
H1183 N1179 0.985 . S
H1184 N1178 0.984 . S
H1185 N1178 0.984 . S
H1186 N1174 0.984 . S
H1187 N1174 0.985 . S
C1188 C1189 1.363 . S
C1188 C1194 1.379 . S
C1188 N1196 1.356 . S
C1189 C1188 1.363 . S
C1189 C1195 1.363 . S
C1190 C1191 1.363 . S
C1190 C1195 1.379 . S
C1190 N1197 1.356 . S
C1191 C1190 1.363 . S
C1191 C1194 1.363 . S
N1192 C1194 1.356 . S
N1192 H1204 0.984 . S
N1192 H1205 0.985 . S
N1193 C1195 1.356 . S
N1193 H1198 0.984 . S
N1193 H1199 0.985 . S
C1194 C1188 1.379 . S
C1194 C1191 1.363 . S
C1194 N1192 1.356 . S
C1195 C1189 1.363 . S
C1195 C1190 1.379 . S
C1195 N1193 1.356 . S
N1196 C1188 1.356 . S
N1196 H1202 0.984 . S
N1196 H1203 0.984 . S
N1197 C1190 1.356 . S
N1197 H1200 0.984 . S
N1197 H1201 0.985 . S
H1198 N1193 0.984 . S
H1199 N1193 0.985 . S
H1200 N1197 0.984 . S
H1201 N1197 0.985 . S
H1202 N1196 0.984 . S
H1203 N1196 0.984 . S
H1204 N1192 0.984 . S
H1205 N1192 0.985 . S
C1206 C1207 1.363 . S
C1206 C1212 1.379 . S
C1206 N1214 1.356 . S
C1207 C1206 1.363 . S
C1207 C1213 1.363 . S
C1208 C1209 1.363 . S
C1208 C1213 1.379 . S
C1208 N1215 1.356 . S
C1209 C1208 1.363 . S
C1209 C1212 1.363 . S
N1210 C1212 1.356 . S
N1210 H1222 0.984 . S
N1210 H1223 0.985 . S
N1211 C1213 1.356 . S
N1211 H1216 0.984 . S
N1211 H1217 0.985 . S
C1212 C1206 1.379 . S
C1212 C1209 1.363 . S
C1212 N1210 1.356 . S
C1213 C1207 1.363 . S
C1213 C1208 1.379 . S
C1213 N1211 1.356 . S
N1214 C1206 1.356 . S
N1214 H1220 0.984 . S
N1214 H1221 0.984 . S
N1215 C1208 1.356 . S
N1215 H1218 0.984 . S
N1215 H1219 0.985 . S
H1216 N1211 0.984 . S
H1217 N1211 0.985 . S
H1218 N1215 0.984 . S
H1219 N1215 0.985 . S
H1220 N1214 0.984 . S
H1221 N1214 0.984 . S
H1222 N1210 0.984 . S
H1223 N1210 0.985 . S
C1224 C1225 1.363 . S
C1224 C1230 1.379 . S
C1224 N1232 1.356 . S
C1225 C1224 1.363 . S
C1225 C1231 1.363 . S
C1226 C1227 1.363 . S
C1226 C1231 1.379 . S
C1226 N1233 1.356 . S
C1227 C1226 1.363 . S
C1227 C1230 1.363 . S
N1228 C1230 1.356 . S
N1228 H1240 0.984 . S
N1228 H1241 0.985 . S
N1229 C1231 1.356 . S
N1229 H1234 0.984 . S
N1229 H1235 0.985 . S
C1230 C1224 1.379 . S
C1230 C1227 1.363 . S
C1230 N1228 1.356 . S
C1231 C1225 1.363 . S
C1231 C1226 1.379 . S
C1231 N1229 1.356 . S
N1232 C1224 1.356 . S
N1232 H1238 0.984 . S
N1232 H1239 0.984 . S
N1233 C1226 1.356 . S
N1233 H1236 0.984 . S
N1233 H1237 0.985 . S
H1234 N1229 0.984 . S
H1235 N1229 0.985 . S
H1236 N1233 0.984 . S
H1237 N1233 0.985 . S
H1238 N1232 0.984 . S
H1239 N1232 0.984 . S
H1240 N1228 0.984 . S
H1241 N1228 0.985 . S
C1242 C1243 1.363 . S
C1242 C1248 1.379 . S
C1242 N1250 1.356 . S
C1243 C1242 1.363 . S
C1243 C1249 1.363 . S
C1244 C1245 1.363 . S
C1244 C1249 1.379 . S
C1244 N1251 1.356 . S
C1245 C1244 1.363 . S
C1245 C1248 1.363 . S
N1246 C1248 1.356 . S
N1246 H1258 0.984 . S
N1246 H1259 0.985 . S
N1247 C1249 1.356 . S
N1247 H1252 0.984 . S
N1247 H1253 0.985 . S
C1248 C1242 1.379 . S
C1248 C1245 1.363 . S
C1248 N1246 1.356 . S
C1249 C1243 1.363 . S
C1249 C1244 1.379 . S
C1249 N1247 1.356 . S
N1250 C1242 1.356 . S
N1250 H1256 0.984 . S
N1250 H1257 0.984 . S
N1251 C1244 1.356 . S
N1251 H1254 0.984 . S
N1251 H1255 0.985 . S
H1252 N1247 0.984 . S
H1253 N1247 0.985 . S
H1254 N1251 0.984 . S
H1255 N1251 0.985 . S
H1256 N1250 0.984 . S
H1257 N1250 0.984 . S
H1258 N1246 0.984 . S
H1259 N1246 0.985 . S
C1260 C1261 1.363 . S
C1260 C1266 1.379 . S
C1260 N1268 1.356 . S
C1261 C1260 1.363 . S
C1261 C1267 1.363 . S
C1262 C1263 1.363 . S
C1262 C1267 1.379 . S
C1262 N1269 1.356 . S
C1263 C1262 1.363 . S
C1263 C1266 1.363 . S
N1264 C1266 1.356 . S
N1264 H1276 0.984 . S
N1264 H1277 0.985 . S
N1265 C1267 1.356 . S
N1265 H1270 0.984 . S
N1265 H1271 0.985 . S
C1266 C1260 1.379 . S
C1266 C1263 1.363 . S
C1266 N1264 1.356 . S
C1267 C1261 1.363 . S
C1267 C1262 1.379 . S
C1267 N1265 1.356 . S
N1268 C1260 1.356 . S
N1268 H1274 0.984 . S
N1268 H1275 0.984 . S
N1269 C1262 1.356 . S
N1269 H1272 0.984 . S
N1269 H1273 0.985 . S
H1270 N1265 0.984 . S
H1271 N1265 0.985 . S
H1272 N1269 0.984 . S
H1273 N1269 0.985 . S
H1274 N1268 0.984 . S
H1275 N1268 0.984 . S
H1276 N1264 0.984 . S
H1277 N1264 0.985 . S
C1278 C1279 1.363 . S
C1278 C1284 1.379 . S
C1278 N1286 1.356 . S
C1279 C1278 1.363 . S
C1279 C1285 1.363 . S
C1280 C1281 1.363 . S
C1280 C1285 1.379 . S
C1280 N1287 1.356 . S
C1281 C1280 1.363 . S
C1281 C1284 1.363 . S
N1282 C1284 1.356 . S
N1282 H1294 0.984 . S
N1282 H1295 0.985 . S
N1283 C1285 1.356 . S
N1283 H1288 0.984 . S
N1283 H1289 0.985 . S
C1284 C1278 1.379 . S
C1284 C1281 1.363 . S
C1284 N1282 1.356 . S
C1285 C1279 1.363 . S
C1285 C1280 1.379 . S
C1285 N1283 1.356 . S
N1286 C1278 1.356 . S
N1286 H1292 0.984 . S
N1286 H1293 0.984 . S
N1287 C1280 1.356 . S
N1287 H1290 0.984 . S
N1287 H1291 0.985 . S
H1288 N1283 0.984 . S
H1289 N1283 0.985 . S
H1290 N1287 0.984 . S
H1291 N1287 0.985 . S
H1292 N1286 0.984 . S
H1293 N1286 0.984 . S
H1294 N1282 0.984 . S
H1295 N1282 0.985 . S
C1296 C1297 1.363 . S
C1296 C1302 1.379 . S
C1296 N1304 1.356 . S
C1297 C1296 1.363 . S
C1297 C1303 1.363 . S
C1298 C1299 1.363 . S
C1298 C1303 1.379 . S
C1298 N1305 1.356 . S
C1299 C1298 1.363 . S
C1299 C1302 1.363 . S
N1300 C1302 1.356 . S
N1300 H1312 0.984 . S
N1300 H1313 0.985 . S
N1301 C1303 1.356 . S
N1301 H1306 0.984 . S
N1301 H1307 0.985 . S
C1302 C1296 1.379 . S
C1302 C1299 1.363 . S
C1302 N1300 1.356 . S
C1303 C1297 1.363 . S
C1303 C1298 1.379 . S
C1303 N1301 1.356 . S
N1304 C1296 1.356 . S
N1304 H1310 0.984 . S
N1304 H1311 0.984 . S
N1305 C1298 1.356 . S
N1305 H1308 0.984 . S
N1305 H1309 0.985 . S
H1306 N1301 0.984 . S
H1307 N1301 0.985 . S
H1308 N1305 0.984 . S
H1309 N1305 0.985 . S
H1310 N1304 0.984 . S
H1311 N1304 0.984 . S
H1312 N1300 0.984 . S
H1313 N1300 0.985 . S
C1314 C1315 1.363 . S
C1314 C1320 1.379 . S
C1314 N1322 1.356 . S
C1315 C1314 1.363 . S
C1315 C1321 1.363 . S
C1316 C1317 1.363 . S
C1316 C1321 1.379 . S
C1316 N1323 1.356 . S
C1317 C1316 1.363 . S
C1317 C1320 1.363 . S
N1318 C1320 1.356 . S
N1318 H1330 0.984 . S
N1318 H1331 0.985 . S
N1319 C1321 1.356 . S
N1319 H1324 0.984 . S
N1319 H1325 0.985 . S
C1320 C1314 1.379 . S
C1320 C1317 1.363 . S
C1320 N1318 1.356 . S
C1321 C1315 1.363 . S
C1321 C1316 1.379 . S
C1321 N1319 1.356 . S
N1322 C1314 1.356 . S
N1322 H1328 0.984 . S
N1322 H1329 0.984 . S
N1323 C1316 1.356 . S
N1323 H1326 0.984 . S
N1323 H1327 0.985 . S
H1324 N1319 0.984 . S
H1325 N1319 0.985 . S
H1326 N1323 0.984 . S
H1327 N1323 0.985 . S
H1328 N1322 0.984 . S
H1329 N1322 0.984 . S
H1330 N1318 0.984 . S
H1331 N1318 0.985 . S
C1332 C1333 1.363 . S
C1332 C1338 1.379 . S
C1332 N1340 1.356 . S
C1333 C1332 1.363 . S
C1333 C1339 1.363 . S
C1334 C1335 1.363 . S
C1334 C1339 1.379 . S
C1334 N1341 1.356 . S
C1335 C1334 1.363 . S
C1335 C1338 1.363 . S
N1336 C1338 1.356 . S
N1336 H1348 0.984 . S
N1336 H1349 0.985 . S
N1337 C1339 1.356 . S
N1337 H1342 0.984 . S
N1337 H1343 0.985 . S
C1338 C1332 1.379 . S
C1338 C1335 1.363 . S
C1338 N1336 1.356 . S
C1339 C1333 1.363 . S
C1339 C1334 1.379 . S
C1339 N1337 1.356 . S
N1340 C1332 1.356 . S
N1340 H1346 0.984 . S
N1340 H1347 0.984 . S
N1341 C1334 1.356 . S
N1341 H1344 0.984 . S
N1341 H1345 0.985 . S
H1342 N1337 0.984 . S
H1343 N1337 0.985 . S
H1344 N1341 0.984 . S
H1345 N1341 0.985 . S
H1346 N1340 0.984 . S
H1347 N1340 0.984 . S
H1348 N1336 0.984 . S
H1349 N1336 0.985 . S
C1350 C1351 1.363 . S
C1350 C1356 1.379 . S
C1350 N1358 1.356 . S
C1351 C1350 1.363 . S
C1351 C1357 1.363 . S
C1352 C1353 1.363 . S
C1352 C1357 1.379 . S
C1352 N1359 1.356 . S
C1353 C1352 1.363 . S
C1353 C1356 1.363 . S
N1354 C1356 1.356 . S
N1354 H1366 0.984 . S
N1354 H1367 0.985 . S
N1355 C1357 1.356 . S
N1355 H1360 0.984 . S
N1355 H1361 0.985 . S
C1356 C1350 1.379 . S
C1356 C1353 1.363 . S
C1356 N1354 1.356 . S
C1357 C1351 1.363 . S
C1357 C1352 1.379 . S
C1357 N1355 1.356 . S
N1358 C1350 1.356 . S
N1358 H1364 0.984 . S
N1358 H1365 0.984 . S
N1359 C1352 1.356 . S
N1359 H1362 0.984 . S
N1359 H1363 0.985 . S
H1360 N1355 0.984 . S
H1361 N1355 0.985 . S
H1362 N1359 0.984 . S
H1363 N1359 0.985 . S
H1364 N1358 0.984 . S
H1365 N1358 0.984 . S
H1366 N1354 0.984 . S
H1367 N1354 0.985 . S
C1368 C1369 1.363 . S
C1368 C1374 1.379 . S
C1368 N1376 1.356 . S
C1369 C1368 1.363 . S
C1369 C1375 1.363 . S
C1370 C1371 1.363 . S
C1370 C1375 1.379 . S
C1370 N1377 1.356 . S
C1371 C1370 1.363 . S
C1371 C1374 1.363 . S
N1372 C1374 1.356 . S
N1372 H1384 0.984 . S
N1372 H1385 0.985 . S
N1373 C1375 1.356 . S
N1373 H1378 0.984 . S
N1373 H1379 0.985 . S
C1374 C1368 1.379 . S
C1374 C1371 1.363 . S
C1374 N1372 1.356 . S
C1375 C1369 1.363 . S
C1375 C1370 1.379 . S
C1375 N1373 1.356 . S
N1376 C1368 1.356 . S
N1376 H1382 0.984 . S
N1376 H1383 0.984 . S
N1377 C1370 1.356 . S
N1377 H1380 0.984 . S
N1377 H1381 0.985 1_556 S
H1378 N1373 0.984 . S
H1379 N1373 0.985 . S
H1380 N1377 0.984 . S
H1381 N1377 0.985 1_554 S
H1382 N1376 0.984 . S
H1383 N1376 0.984 . S
H1384 N1372 0.984 . S
H1385 N1372 0.985 . S
C1386 C1387 1.363 . S
C1386 C1392 1.379 . S
C1386 N1394 1.356 . S
C1387 C1386 1.363 . S
C1387 C1393 1.363 . S
C1388 C1389 1.363 . S
C1388 C1393 1.379 . S
C1388 N1395 1.356 . S
C1389 C1388 1.363 . S
C1389 C1392 1.363 . S
N1390 C1392 1.356 . S
N1390 H1402 0.984 . S
N1390 H1403 0.985 . S
N1391 C1393 1.356 . S
N1391 H1396 0.984 . S
N1391 H1397 0.985 . S
C1392 C1386 1.379 . S
C1392 C1389 1.363 . S
C1392 N1390 1.356 . S
C1393 C1387 1.363 . S
C1393 C1388 1.379 . S
C1393 N1391 1.356 . S
N1394 C1386 1.356 . S
N1394 H1400 0.984 . S
N1394 H1401 0.984 . S
N1395 C1388 1.356 . S
N1395 H1398 0.984 . S
N1395 H1399 0.985 . S
H1396 N1391 0.984 . S
H1397 N1391 0.985 . S
H1398 N1395 0.984 . S
H1399 N1395 0.985 . S
H1400 N1394 0.984 . S
H1401 N1394 0.984 . S
H1402 N1390 0.984 . S
H1403 N1390 0.985 . S
C1404 C1405 1.363 . S
C1404 C1410 1.379 . S
C1404 N1412 1.356 . S
C1405 C1404 1.363 . S
C1405 C1411 1.363 . S
C1406 C1407 1.363 . S
C1406 C1411 1.379 . S
C1406 N1413 1.356 . S
C1407 C1406 1.363 . S
C1407 C1410 1.363 . S
N1408 C1410 1.356 . S
N1408 H1420 0.984 . S
N1408 H1421 0.985 . S
N1409 C1411 1.356 . S
N1409 H1414 0.984 . S
N1409 H1415 0.985 . S
C1410 C1404 1.379 . S
C1410 C1407 1.363 . S
C1410 N1408 1.356 . S
C1411 C1405 1.363 . S
C1411 C1406 1.379 . S
C1411 N1409 1.356 . S
N1412 C1404 1.356 . S
N1412 H1418 0.984 . S
N1412 H1419 0.984 . S
N1413 C1406 1.356 . S
N1413 H1416 0.984 . S
N1413 H1417 0.985 . S
H1414 N1409 0.984 . S
H1415 N1409 0.985 . S
H1416 N1413 0.984 . S
H1417 N1413 0.985 . S
H1418 N1412 0.984 . S
H1419 N1412 0.984 . S
H1420 N1408 0.984 . S
H1421 N1408 0.985 . S
C1422 C1423 1.363 1_554 S
C1422 C1428 1.379 . S
C1422 N1430 1.356 . S
C1423 C1422 1.363 1_556 S
C1423 C1429 1.363 . S
C1424 C1425 1.363 . S
C1424 C1429 1.379 1_554 S
C1424 N1431 1.356 1_554 S
C1425 C1424 1.363 . S
C1425 C1428 1.363 . S
N1426 C1428 1.356 . S
N1426 H1438 0.984 . S
N1426 H1439 0.985 . S
N1427 C1429 1.356 . S
N1427 H1432 0.984 . S
N1427 H1433 0.985 . S
C1428 C1422 1.379 . S
C1428 C1425 1.363 . S
C1428 N1426 1.356 . S
C1429 C1423 1.363 . S
C1429 C1424 1.379 1_556 S
C1429 N1427 1.356 . S
N1430 C1422 1.356 . S
N1430 H1436 0.984 . S
N1430 H1437 0.984 . S
N1431 C1424 1.356 1_556 S
N1431 H1434 0.984 1_556 S
N1431 H1435 0.985 . S
H1432 N1427 0.984 . S
H1433 N1427 0.985 . S
H1434 N1431 0.984 1_554 S
H1435 N1431 0.985 . S
H1436 N1430 0.984 . S
H1437 N1430 0.984 . S
H1438 N1426 0.984 . S
H1439 N1426 0.985 . S
C1440 C1441 1.363 . S
C1440 C1446 1.379 1_556 S
C1440 N1448 1.356 . S
C1441 C1440 1.363 . S
C1441 C1447 1.363 1_556 S
C1442 C1443 1.363 . S
C1442 C1447 1.379 . S
C1442 N1449 1.356 . S
C1443 C1442 1.363 . S
C1443 C1446 1.363 . S
N1444 C1446 1.356 . S
N1444 H1456 0.984 . S
N1444 H1457 0.985 . S
N1445 C1447 1.356 . S
N1445 H1450 0.984 1_554 S
N1445 H1451 0.985 . S
C1446 C1440 1.379 1_554 S
C1446 C1443 1.363 . S
C1446 N1444 1.356 . S
C1447 C1441 1.363 1_554 S
C1447 C1442 1.379 . S
C1447 N1445 1.356 . S
N1448 C1440 1.356 . S
N1448 H1454 0.984 . S
N1448 H1455 0.984 . S
N1449 C1442 1.356 . S
N1449 H1452 0.984 . S
N1449 H1453 0.985 . S
H1450 N1445 0.984 1_556 S
H1451 N1445 0.985 . S
H1452 N1449 0.984 . S
H1453 N1449 0.985 . S
H1454 N1448 0.984 . S
H1455 N1448 0.984 . S
H1456 N1444 0.984 . S
H1457 N1444 0.985 . S
C1458 C1459 1.363 1_554 S
C1458 C1464 1.379 . S
C1458 N1466 1.356 . S
C1459 C1458 1.363 1_556 S
C1459 C1465 1.363 . S
C1460 C1461 1.363 . S
C1460 C1465 1.379 1_554 S
C1460 N1467 1.356 1_554 S
C1461 C1460 1.363 . S
C1461 C1464 1.363 . S
N1462 C1464 1.356 . S
N1462 H1474 0.984 . S
N1462 H1475 0.985 . S
N1463 C1465 1.356 . S
N1463 H1468 0.984 . S
N1463 H1469 0.985 . S
C1464 C1458 1.379 . S
C1464 C1461 1.363 . S
C1464 N1462 1.356 . S
C1465 C1459 1.363 . S
C1465 C1460 1.379 1_556 S
C1465 N1463 1.356 . S
N1466 C1458 1.356 . S
N1466 H1472 0.984 . S
N1466 H1473 0.984 . S
N1467 C1460 1.356 1_556 S
N1467 H1470 0.984 1_556 S
N1467 H1471 0.985 . S
H1468 N1463 0.984 . S
H1469 N1463 0.985 . S
H1470 N1467 0.984 1_554 S
H1471 N1467 0.985 . S
H1472 N1466 0.984 . S
H1473 N1466 0.984 . S
H1474 N1462 0.984 . S
H1475 N1462 0.985 . S
C1476 C1477 1.363 . S
C1476 C1482 1.379 . S
C1476 N1484 1.356 . S
C1477 C1476 1.363 . S
C1477 C1483 1.363 . S
C1478 C1479 1.363 1_554 S
C1478 C1483 1.379 1_554 S
C1478 N1485 1.356 . S
C1479 C1478 1.363 1_556 S
C1479 C1482 1.363 . S
N1480 C1482 1.356 . S
N1480 H1492 0.984 . S
N1480 H1493 0.985 . S
N1481 C1483 1.356 . S
N1481 H1486 0.984 . S
N1481 H1487 0.985 . S
C1482 C1476 1.379 . S
C1482 C1479 1.363 . S
C1482 N1480 1.356 . S
C1483 C1477 1.363 . S
C1483 C1478 1.379 1_556 S
C1483 N1481 1.356 . S
N1484 C1476 1.356 . S
N1484 H1490 0.984 . S
N1484 H1491 0.984 . S
N1485 C1478 1.356 . S
N1485 H1488 0.984 . S
N1485 H1489 0.985 . S
H1486 N1481 0.984 . S
H1487 N1481 0.985 . S
H1488 N1485 0.984 . S
H1489 N1485 0.985 . S
H1490 N1484 0.984 . S
H1491 N1484 0.984 . S
H1492 N1480 0.984 . S
H1493 N1480 0.985 . S
C1494 C1495 1.363 1_554 S
C1494 C1500 1.379 1_554 S
C1494 N1502 1.356 . S
C1495 C1494 1.363 1_556 S
C1495 C1501 1.363 . S
C1496 C1497 1.363 . S
C1496 C1501 1.379 . S
C1496 N1503 1.356 . S
C1497 C1496 1.363 . S
C1497 C1500 1.363 . S
N1498 C1500 1.356 . S
N1498 H1510 0.984 . S
N1498 H1511 0.985 . S
N1499 C1501 1.356 . S
N1499 H1504 0.984 . S
N1499 H1505 0.985 . S
C1500 C1494 1.379 1_556 S
C1500 C1497 1.363 . S
C1500 N1498 1.356 . S
C1501 C1495 1.363 . S
C1501 C1496 1.379 . S
C1501 N1499 1.356 . S
N1502 C1494 1.356 . S
N1502 H1508 0.984 . S
N1502 H1509 0.984 . S
N1503 C1496 1.356 . S
N1503 H1506 0.984 . S
N1503 H1507 0.985 . S
H1504 N1499 0.984 . S
H1505 N1499 0.985 . S
H1506 N1503 0.984 . S
H1507 N1503 0.985 . S
H1508 N1502 0.984 . S
H1509 N1502 0.984 . S
H1510 N1498 0.984 . S
H1511 N1498 0.985 . S
C1512 C1513 1.363 . S
C1512 C1518 1.379 . S
C1512 N1520 1.356 . S
C1513 C1512 1.363 . S
C1513 C1519 1.363 . S
C1514 C1515 1.363 . S
C1514 C1519 1.379 . S
C1514 N1521 1.356 1_556 S
C1515 C1514 1.363 . S
C1515 C1518 1.363 . S
N1516 C1518 1.356 . S
N1516 H1528 0.984 . S
N1516 H1529 0.985 . S
N1517 C1519 1.356 . S
N1517 H1522 0.984 . S
N1517 H1523 0.985 . S
C1518 C1512 1.379 . S
C1518 C1515 1.363 . S
C1518 N1516 1.356 . S
C1519 C1513 1.363 . S
C1519 C1514 1.379 . S
C1519 N1517 1.356 . S
N1520 C1512 1.356 . S
N1520 H1526 0.984 . S
N1520 H1527 0.984 . S
N1521 C1514 1.356 1_554 S
N1521 H1524 0.984 . S
N1521 H1525 0.985 . S
H1522 N1517 0.984 . S
H1523 N1517 0.985 . S
H1524 N1521 0.984 . S
H1525 N1521 0.985 . S
H1526 N1520 0.984 . S
H1527 N1520 0.984 . S
H1528 N1516 0.984 . S
H1529 N1516 0.985 . S
C1530 C1531 1.363 . S
C1530 C1536 1.379 . S
C1530 N1538 1.356 . S
C1531 C1530 1.363 . S
C1531 C1537 1.363 . S
C1532 C1533 1.363 . S
C1532 C1537 1.379 . S
C1532 N1539 1.356 . S
C1533 C1532 1.363 . S
C1533 C1536 1.363 . S
N1534 C1536 1.356 . S
N1534 H1546 0.984 . S
N1534 H1547 0.985 . S
N1535 C1537 1.356 . S
N1535 H1540 0.984 . S
N1535 H1541 0.985 . S
C1536 C1530 1.379 . S
C1536 C1533 1.363 . S
C1536 N1534 1.356 . S
C1537 C1531 1.363 . S
C1537 C1532 1.379 . S
C1537 N1535 1.356 . S
N1538 C1530 1.356 . S
N1538 H1544 0.984 . S
N1538 H1545 0.984 . S
N1539 C1532 1.356 . S
N1539 H1542 0.984 . S
N1539 H1543 0.985 . S
H1540 N1535 0.984 . S
H1541 N1535 0.985 . S
H1542 N1539 0.984 . S
H1543 N1539 0.985 . S
H1544 N1538 0.984 . S
H1545 N1538 0.984 . S
H1546 N1534 0.984 . S
H1547 N1534 0.985 . S
C1548 C1549 1.363 . S
C1548 C1554 1.379 . S
C1548 N1556 1.356 . S
C1549 C1548 1.363 . S
C1549 C1555 1.363 . S
C1550 C1551 1.363 . S
C1550 C1555 1.379 . S
C1550 N1557 1.356 . S
C1551 C1550 1.363 . S
C1551 C1554 1.363 . S
N1552 C1554 1.356 . S
N1552 H1564 0.984 . S
N1552 H1565 0.985 . S
N1553 C1555 1.356 . S
N1553 H1558 0.984 . S
N1553 H1559 0.985 . S
C1554 C1548 1.379 . S
C1554 C1551 1.363 . S
C1554 N1552 1.356 . S
C1555 C1549 1.363 . S
C1555 C1550 1.379 . S
C1555 N1553 1.356 . S
N1556 C1548 1.356 . S
N1556 H1562 0.984 . S
N1556 H1563 0.984 . S
N1557 C1550 1.356 . S
N1557 H1560 0.984 . S
N1557 H1561 0.985 . S
H1558 N1553 0.984 . S
H1559 N1553 0.985 . S
H1560 N1557 0.984 . S
H1561 N1557 0.985 . S
H1562 N1556 0.984 . S
H1563 N1556 0.984 . S
H1564 N1552 0.984 . S
H1565 N1552 0.985 . S
C1566 C1567 1.363 . S
C1566 C1572 1.379 . S
C1566 N1574 1.356 . S
C1567 C1566 1.363 . S
C1567 C1573 1.363 . S
C1568 C1569 1.363 . S
C1568 C1573 1.379 . S
C1568 N1575 1.356 . S
C1569 C1568 1.363 . S
C1569 C1572 1.363 . S
N1570 C1572 1.356 . S
N1570 H1582 0.984 . S
N1570 H1583 0.985 . S
N1571 C1573 1.356 . S
N1571 H1576 0.984 . S
N1571 H1577 0.985 . S
C1572 C1566 1.379 . S
C1572 C1569 1.363 . S
C1572 N1570 1.356 . S
C1573 C1567 1.363 . S
C1573 C1568 1.379 . S
C1573 N1571 1.356 . S
N1574 C1566 1.356 . S
N1574 H1580 0.984 . S
N1574 H1581 0.984 . S
N1575 C1568 1.356 . S
N1575 H1578 0.984 . S
N1575 H1579 0.985 . S
H1576 N1571 0.984 . S
H1577 N1571 0.985 . S
H1578 N1575 0.984 . S
H1579 N1575 0.985 . S
H1580 N1574 0.984 . S
H1581 N1574 0.984 . S
H1582 N1570 0.984 . S
H1583 N1570 0.985 . S
C1584 C1585 1.363 . S
C1584 C1590 1.379 . S
C1584 N1592 1.356 1_554 S
C1585 C1584 1.363 . S
C1585 C1591 1.363 . S
C1586 C1587 1.363 . S
C1586 C1591 1.379 . S
C1586 N1593 1.356 . S
C1587 C1586 1.363 . S
C1587 C1590 1.363 . S
N1588 C1590 1.356 . S
N1588 H1600 0.984 . S
N1588 H1601 0.985 . S
N1589 C1591 1.356 . S
N1589 H1594 0.984 . S
N1589 H1595 0.985 . S
C1590 C1584 1.379 . S
C1590 C1587 1.363 . S
C1590 N1588 1.356 . S
C1591 C1585 1.363 . S
C1591 C1586 1.379 . S
C1591 N1589 1.356 . S
N1592 C1584 1.356 1_556 S
N1592 H1598 0.984 . S
N1592 H1599 0.984 . S
N1593 C1586 1.356 . S
N1593 H1596 0.984 . S
N1593 H1597 0.985 . S
H1594 N1589 0.984 . S
H1595 N1589 0.985 . S
H1596 N1593 0.984 . S
H1597 N1593 0.985 . S
H1598 N1592 0.984 . S
H1599 N1592 0.984 . S
H1600 N1588 0.984 . S
H1601 N1588 0.985 . S
C1602 C1603 1.363 . S
C1602 C1608 1.379 . S
C1602 N1610 1.356 . S
C1603 C1602 1.363 . S
C1603 C1609 1.363 . S
C1604 C1605 1.363 1_556 S
C1604 C1609 1.379 1_556 S
C1604 N1611 1.356 . S
C1605 C1604 1.363 1_554 S
C1605 C1608 1.363 . S
N1606 C1608 1.356 . S
N1606 H1618 0.984 . S
N1606 H1619 0.985 . S
N1607 C1609 1.356 . S
N1607 H1612 0.984 . S
N1607 H1613 0.985 . S
C1608 C1602 1.379 . S
C1608 C1605 1.363 . S
C1608 N1606 1.356 . S
C1609 C1603 1.363 . S
C1609 C1604 1.379 1_554 S
C1609 N1607 1.356 . S
N1610 C1602 1.356 . S
N1610 H1616 0.984 . S
N1610 H1617 0.984 . S
N1611 C1604 1.356 . S
N1611 H1614 0.984 . S
N1611 H1615 0.985 . S
H1612 N1607 0.984 . S
H1613 N1607 0.985 . S
H1614 N1611 0.984 . S
H1615 N1611 0.985 . S
H1616 N1610 0.984 . S
H1617 N1610 0.984 . S
H1618 N1606 0.984 . S
H1619 N1606 0.985 . S
C1620 C1621 1.363 . S
C1620 C1626 1.379 . S
C1620 N1628 1.356 . S
C1621 C1620 1.363 . S
C1621 C1627 1.363 . S
C1622 C1623 1.363 . S
C1622 C1627 1.379 . S
C1622 N1629 1.356 1_554 S
C1623 C1622 1.363 . S
C1623 C1626 1.363 . S
N1624 C1626 1.356 . S
N1624 H1636 0.984 . S
N1624 H1637 0.985 . S
N1625 C1627 1.356 . S
N1625 H1630 0.984 . S
N1625 H1631 0.985 . S
C1626 C1620 1.379 . S
C1626 C1623 1.363 . S
C1626 N1624 1.356 . S
C1627 C1621 1.363 . S
C1627 C1622 1.379 . S
C1627 N1625 1.356 . S
N1628 C1620 1.356 . S
N1628 H1634 0.984 . S
N1628 H1635 0.984 . S
N1629 C1622 1.356 1_556 S
N1629 H1632 0.984 . S
N1629 H1633 0.985 . S
H1630 N1625 0.984 . S
H1631 N1625 0.985 . S
H1632 N1629 0.984 . S
H1633 N1629 0.985 . S
H1634 N1628 0.984 . S
H1635 N1628 0.984 . S
H1636 N1624 0.984 . S
H1637 N1624 0.985 . S
C1638 C1639 1.363 . S
C1638 C1644 1.379 . S
C1638 N1646 1.356 . S
C1639 C1638 1.363 . S
C1639 C1645 1.363 . S
C1640 C1641 1.363 . S
C1640 C1645 1.379 . S
C1640 N1647 1.356 . S
C1641 C1640 1.363 . S
C1641 C1644 1.363 . S
N1642 C1644 1.356 . S
N1642 H1654 0.984 . S
N1642 H1655 0.985 . S
N1643 C1645 1.356 . S
N1643 H1648 0.984 . S
N1643 H1649 0.985 . S
C1644 C1638 1.379 . S
C1644 C1641 1.363 . S
C1644 N1642 1.356 . S
C1645 C1639 1.363 . S
C1645 C1640 1.379 . S
C1645 N1643 1.356 . S
N1646 C1638 1.356 . S
N1646 H1652 0.984 . S
N1646 H1653 0.984 . S
N1647 C1640 1.356 . S
N1647 H1650 0.984 . S
N1647 H1651 0.985 . S
H1648 N1643 0.984 . S
H1649 N1643 0.985 . S
H1650 N1647 0.984 . S
H1651 N1647 0.985 . S
H1652 N1646 0.984 . S
H1653 N1646 0.984 . S
H1654 N1642 0.984 . S
H1655 N1642 0.985 . S
C1656 C1657 1.363 . S
C1656 C1662 1.379 . S
C1656 N1664 1.356 . S
C1657 C1656 1.363 . S
C1657 C1663 1.363 . S
C1658 C1659 1.363 . S
C1658 C1663 1.379 . S
C1658 N1665 1.356 . S
C1659 C1658 1.363 . S
C1659 C1662 1.363 . S
N1660 C1662 1.356 . S
N1660 H1672 0.984 . S
N1660 H1673 0.985 . S
N1661 C1663 1.356 . S
N1661 H1666 0.984 . S
N1661 H1667 0.985 . S
C1662 C1656 1.379 . S
C1662 C1659 1.363 . S
C1662 N1660 1.356 . S
C1663 C1657 1.363 . S
C1663 C1658 1.379 . S
C1663 N1661 1.356 . S
N1664 C1656 1.356 . S
N1664 H1670 0.984 . S
N1664 H1671 0.984 . S
N1665 C1658 1.356 . S
N1665 H1668 0.984 . S
N1665 H1669 0.985 . S
H1666 N1661 0.984 . S
H1667 N1661 0.985 . S
H1668 N1665 0.984 . S
H1669 N1665 0.985 . S
H1670 N1664 0.984 . S
H1671 N1664 0.984 . S
H1672 N1660 0.984 . S
H1673 N1660 0.985 . S
C1674 C1675 1.363 . S
C1674 C1680 1.379 . S
C1674 N1682 1.356 . S
C1675 C1674 1.363 . S
C1675 C1681 1.363 . S
C1676 C1677 1.363 . S
C1676 C1681 1.379 . S
C1676 N1683 1.356 . S
C1677 C1676 1.363 . S
C1677 C1680 1.363 . S
N1678 C1680 1.356 . S
N1678 H1690 0.984 . S
N1678 H1691 0.985 . S
N1679 C1681 1.356 . S
N1679 H1684 0.984 . S
N1679 H1685 0.985 . S
C1680 C1674 1.379 . S
C1680 C1677 1.363 . S
C1680 N1678 1.356 . S
C1681 C1675 1.363 . S
C1681 C1676 1.379 . S
C1681 N1679 1.356 . S
N1682 C1674 1.356 . S
N1682 H1688 0.984 . S
N1682 H1689 0.984 . S
N1683 C1676 1.356 . S
N1683 H1686 0.984 . S
N1683 H1687 0.985 . S
H1684 N1679 0.984 . S
H1685 N1679 0.985 . S
H1686 N1683 0.984 . S
H1687 N1683 0.985 . S
H1688 N1682 0.984 . S
H1689 N1682 0.984 . S
H1690 N1678 0.984 . S
H1691 N1678 0.985 . S
C1692 C1693 1.363 . S
C1692 C1698 1.379 1_655 S
C1692 N1700 1.356 . S
C1693 C1692 1.363 . S
C1693 C1699 1.363 . S
C1694 C1695 1.363 . S
C1694 C1699 1.379 1_455 S
C1694 N1701 1.356 . S
C1695 C1694 1.363 . S
C1695 C1698 1.363 . S
N1696 C1698 1.356 . S
N1696 H1708 0.984 . S
N1696 H1709 0.985 . S
N1697 C1699 1.356 . S
N1697 H1702 0.984 . S
N1697 H1703 0.985 . S
C1698 C1692 1.379 1_455 S
C1698 C1695 1.363 . S
C1698 N1696 1.356 . S
C1699 C1693 1.363 . S
C1699 C1694 1.379 1_655 S
C1699 N1697 1.356 . S
N1700 C1692 1.356 . S
N1700 H1706 0.984 . S
N1700 H1707 0.984 . S
N1701 C1694 1.356 . S
N1701 H1704 0.984 . S
N1701 H1705 0.985 . S
H1702 N1697 0.984 . S
H1703 N1697 0.985 . S
H1704 N1701 0.984 . S
H1705 N1701 0.985 . S
H1706 N1700 0.984 . S
H1707 N1700 0.984 . S
H1708 N1696 0.984 . S
H1709 N1696 0.985 . S
C1710 C1711 1.363 . S
C1710 C1716 1.379 . S
C1710 N1718 1.356 . S
C1711 C1710 1.363 . S
C1711 C1717 1.363 . S
C1712 C1713 1.363 . S
C1712 C1717 1.379 . S
C1712 N1719 1.356 . S
C1713 C1712 1.363 . S
C1713 C1716 1.363 . S
N1714 C1716 1.356 . S
N1714 H1726 0.984 . S
N1714 H1727 0.985 . S
N1715 C1717 1.356 . S
N1715 H1720 0.984 . S
N1715 H1721 0.985 . S
C1716 C1710 1.379 . S
C1716 C1713 1.363 . S
C1716 N1714 1.356 . S
C1717 C1711 1.363 . S
C1717 C1712 1.379 . S
C1717 N1715 1.356 . S
N1718 C1710 1.356 . S
N1718 H1724 0.984 . S
N1718 H1725 0.984 . S
N1719 C1712 1.356 . S
N1719 H1722 0.984 . S
N1719 H1723 0.985 . S
H1720 N1715 0.984 . S
H1721 N1715 0.985 . S
H1722 N1719 0.984 . S
H1723 N1719 0.985 . S
H1724 N1718 0.984 . S
H1725 N1718 0.984 . S
H1726 N1714 0.984 . S
H1727 N1714 0.985 . S
C1728 C1729 1.363 . S
C1728 C1734 1.379 . S
C1728 N1736 1.356 . S
C1729 C1728 1.363 . S
C1729 C1735 1.363 1_565 S
C1730 C1731 1.363 . S
C1730 C1735 1.379 . S
C1730 N1737 1.356 . S
C1731 C1730 1.363 . S
C1731 C1734 1.363 1_545 S
N1732 C1734 1.356 1_545 S
N1732 H1744 0.984 1_545 S
N1732 H1745 0.985 . S
N1733 C1735 1.356 1_565 S
N1733 H1738 0.984 . S
N1733 H1739 0.985 1_565 S
C1734 C1728 1.379 . S
C1734 C1731 1.363 1_565 S
C1734 N1732 1.356 1_565 S
C1735 C1729 1.363 1_545 S
C1735 C1730 1.379 . S
C1735 N1733 1.356 1_545 S
N1736 C1728 1.356 . S
N1736 H1742 0.984 . S
N1736 H1743 0.984 . S
N1737 C1730 1.356 . S
N1737 H1740 0.984 . S
N1737 H1741 0.985 . S
H1738 N1733 0.984 . S
H1739 N1733 0.985 1_545 S
H1740 N1737 0.984 . S
H1741 N1737 0.985 . S
H1742 N1736 0.984 . S
H1743 N1736 0.984 . S
H1744 N1732 0.984 1_565 S
H1745 N1732 0.985 . S
C1746 C1747 1.363 1_565 S
C1746 C1752 1.379 . S
C1746 N1754 1.359 1_565 S
C1747 C1746 1.363 1_545 S
C1747 C1753 1.363 . S
C1748 C1749 1.363 1_545 S
C1748 C1753 1.379 . S
C1748 N1755 1.359 1_545 S
C1749 C1748 1.363 1_565 S
C1749 C1752 1.363 . S
N1750 C1752 1.356 . S
N1750 H1762 0.984 . S
N1750 H1763 0.985 . S
N1751 C1753 1.356 . S
N1751 H1756 0.984 . S
N1751 H1757 0.985 . S
C1752 C1746 1.379 . S
C1752 C1749 1.363 . S
C1752 N1750 1.356 . S
C1753 C1747 1.363 . S
C1753 C1748 1.379 . S
C1753 N1751 1.356 . S
N1754 C1746 1.359 1_545 S
N1754 H1760 0.956 1_545 S
N1754 H1761 1.011 . S
N1755 C1748 1.359 1_565 S
N1755 H1758 1.012 . S
N1755 H1759 0.955 1_565 S
H1756 N1751 0.984 . S
H1757 N1751 0.985 . S
H1758 N1755 1.012 . S
H1759 N1755 0.955 1_545 S
H1760 N1754 0.956 1_565 S
H1761 N1754 1.011 . S
H1762 N1750 0.984 . S
H1763 N1750 0.985 . S
C1764 C1765 1.363 1_655 S
C1764 C1770 1.379 . S
C1764 N1772 1.356 1_655 S
C1765 C1764 1.363 1_455 S
C1765 C1771 1.363 . S
C1766 C1767 1.363 1_455 S
C1766 C1771 1.379 . S
C1766 N1773 1.356 1_455 S
C1767 C1766 1.363 1_655 S
C1767 C1770 1.363 . S
N1768 C1770 1.356 . S
N1768 H1780 0.984 . S
N1768 H1781 0.985 . S
N1769 C1771 1.356 . S
N1769 H1774 0.984 . S
N1769 H1775 0.985 . S
C1770 C1764 1.379 . S
C1770 C1767 1.363 . S
C1770 N1768 1.356 . S
C1771 C1765 1.363 . S
C1771 C1766 1.379 . S
C1771 N1769 1.356 . S
N1772 C1764 1.356 1_455 S
N1772 H1778 0.984 1_455 S
N1772 H1779 0.984 . S
N1773 C1766 1.356 1_655 S
N1773 H1776 0.984 . S
N1773 H1777 0.985 1_655 S
H1774 N1769 0.984 . S
H1775 N1769 0.985 . S
H1776 N1773 0.984 . S
H1777 N1773 0.985 1_455 S
H1778 N1772 0.984 1_655 S
H1779 N1772 0.984 . S
H1780 N1768 0.984 . S
H1781 N1768 0.985 . S
C1782 C1783 1.363 . S
C1782 C1788 1.379 . S
C1782 N1790 1.356 . S
C1783 C1782 1.363 . S
C1783 C1789 1.363 . S
C1784 C1785 1.363 . S
C1784 C1789 1.379 . S
C1784 N1791 1.356 . S
C1785 C1784 1.363 . S
C1785 C1788 1.363 . S
N1786 C1788 1.356 . S
N1786 H1798 0.984 . S
N1786 H1799 0.985 . S
N1787 C1789 1.356 . S
N1787 H1792 0.984 . S
N1787 H1793 0.985 . S
C1788 C1782 1.379 . S
C1788 C1785 1.363 . S
C1788 N1786 1.356 . S
C1789 C1783 1.363 . S
C1789 C1784 1.379 . S
C1789 N1787 1.356 . S
N1790 C1782 1.356 . S
N1790 H1796 0.984 . S
N1790 H1797 0.984 . S
N1791 C1784 1.356 . S
N1791 H1794 0.984 . S
N1791 H1795 0.985 . S
H1792 N1787 0.984 . S
H1793 N1787 0.985 . S
H1794 N1791 0.984 . S
H1795 N1791 0.985 . S
H1796 N1790 0.984 . S
H1797 N1790 0.984 . S
H1798 N1786 0.984 . S
H1799 N1786 0.985 . S
C505 C81 1.363 . S
C507 C11 1.363 . S
C523 C25 1.363 . S
C525 C53 1.363 . S
C541 C67 1.363 . S
C543 C39 1.363 . S
C559 C95 1.363 . S
C561 C165 1.363 . S
C577 C109 1.363 . S
C579 C137 1.363 . S
C595 C151 1.363 . S
C597 C123 1.363 . S
C613 C249 1.363 . S
C615 C179 1.364 . S
C631 C193 1.363 . S
C633 C221 1.363 . S
C649 C235 1.363 . S
C651 C207 1.363 . S
C667 C263 1.363 . S
C669 C333 1.363 1_554 S
C685 C277 1.364 . S
C687 C305 1.364 1_554 S
C703 C291 1.363 . S
C705 C319 1.363 1_554 S
C721 C347 1.363 . S
C723 C417 1.363 1_556 S
C739 C389 1.364 1_556 S
C741 C361 1.364 . S
C757 C375 1.363 . S
C759 C403 1.363 1_556 S
C775 C431 1.363 . S
C777 C501 1.363 . S
C793 C445 1.363 . S
C795 C473 1.363 . S
C811 C459 1.363 . S
C813 C487 1.363 . S
C829 C153 1.131 . S
C831 C8 1.079 . S
C847 C167 1.131 . S
C849 C22 1.080 . S
C865 C139 1.131 . S
C867 C36 1.080 . S
C883 C125 1.131 . S
C885 C50 1.080 . S
C901 C64 1.080 . S
C903 C97 1.131 . S
C919 C78 1.080 . S
C921 C111 1.131 . S
C937 C92 1.079 . S
C939 C69 1.131 . S
C955 C106 1.080 . S
C957 C83 1.131 . S
C973 C120 1.080 . S
C975 C55 1.131 . S
C991 C41 1.131 . S
C993 C134 1.079 . S
C1009 C13 1.131 . S
C1011 C148 1.080 . S
C1027 C162 1.080 . S
C1029 C27 1.131 . S
C1045 C176 1.080 . S
C1047 C321 1.131 . S
C1063 C190 1.080 . S
C1065 C335 1.131 . S
C1081 C307 1.131 . S
C1083 C204 1.080 . S
C1099 C218 1.079 . S
C1101 C293 1.131 . S
C1117 C232 1.080 . S
C1119 C265 1.131 . S
C1135 C246 1.080 . S
C1137 C279 1.131 . S
C1153 C260 1.080 . S
C1155 C237 1.131 . S
C1171 C251 1.131 . S
C1173 C274 1.080 . S
C1189 C223 1.131 . S
C1191 C288 1.080 . S
C1207 C302 1.080 . S
C1209 C209 1.131 . S
C1225 C181 1.131 . S
C1227 C316 1.080 . S
C1243 C195 1.131 . S
C1245 C330 1.080 . S
C1261 C489 1.131 . S
C1263 C344 1.080 . S
C1279 C358 1.080 . S
C1281 C503 1.131 . S
C1297 C372 1.080 . S
C1299 C475 1.131 . S
C1315 C461 1.131 . S
C1317 C386 1.080 . S
C1333 C433 1.131 . S
C1335 C400 1.080 . S
C1351 C447 1.131 . S
C1353 C414 1.080 . S
C1369 C428 1.080 . S
C1371 C405 1.131 . S
C1387 C419 1.131 . S
C1389 C442 1.080 . S
C1405 C456 1.080 . S
C1407 C391 1.131 . S
C1423 C377 1.131 . S
C1425 C470 1.079 . S
C1441 C349 1.131 . S
C1443 C484 1.080 . S
C1459 C363 1.131 . S
C1461 C498 1.080 . S
C1477 C231 1.482 . S
C1479 C7 1.482 1_556 S
C1495 C21 1.483 1_556 S
C1497 C245 1.483 . S
C1513 C217 1.482 . S
C1515 C35 1.482 1_556 S
C1531 C371 1.482 . S
C1533 C49 1.482 . S
C1549 C63 1.482 . S
C1551 C343 1.482 . S
C1567 C77 1.483 . S
C1569 C357 1.483 . S
C1585 C91 1.482 1_554 S
C1587 C483 1.482 . S
C1603 C497 1.483 . S
C1605 C105 1.483 1_554 S
C1621 C469 1.482 . S
C1623 C119 1.482 1_554 S
C1639 C287 1.482 . S
C1641 C133 1.482 . S
C1657 C147 1.482 . S
C1659 C259 1.482 . S
C1675 C161 1.483 . S
C1677 C273 1.483 . S
C1693 C175 1.482 . S
C1695 C399 1.482 . S
C1711 C413 1.483 . S
C1713 C189 1.483 . S
C1729 C385 1.482 . S
C1731 C203 1.482 . S
C1747 C301 1.482 . S
C1749 C455 1.482 . S
C1765 C427 1.482 . S
C1767 C315 1.482 . S
C1783 C441 1.483 . S
C1785 C329 1.483 . S
