# Generated by pormake.
# Topology zfw, (5)-cn, num edge types: 1
# Building blocks:
#     Node 0, Type 0, BuildingBlock: XOMCOT_clean_sbu_0, # of connection points: 5
#     Node 1, Type 0, BuildingBlock: XOMCOT_clean_sbu_0, # of connection points: 5
#     Node 2, Type 0, BuildingBlock: XOMCOT_clean_sbu_0, # of connection points: 5
#     Node 3, Type 0, BuildingBlock: XOMCOT_clean_sbu_0, # of connection points: 5
#     Node 4, Type 0, BuildingBlock: XOMCOT_clean_sbu_0, # of connection points: 5
#     Node 5, Type 0, BuildingBlock: XOMCOT_clean_sbu_0, # of connection points: 5
#     Node 6, Type 0, BuildingBlock: XOMCOT_clean_sbu_0, # of connection points: 5
#     Node 7, Type 0, BuildingBlock: XOMCOT_clean_sbu_0, # of connection points: 5
#     Node 8, Type 0, BuildingBlock: XOMCOT_clean_sbu_0, # of connection points: 5
#     Node 9, Type 0, BuildingBlock: XOMCOT_clean_sbu_0, # of connection points: 5
#     Node 10, Type 0, BuildingBlock: XOMCOT_clean_sbu_0, # of connection points: 5
#     Node 11, Type 0, BuildingBlock: XOMCOT_clean_sbu_0, # of connection points: 5
#     Node 12, Type 0, BuildingBlock: XOMCOT_clean_sbu_0, # of connection points: 5
#     Node 13, Type 0, BuildingBlock: XOMCOT_clean_sbu_0, # of connection points: 5
#     Node 14, Type 0, BuildingBlock: XOMCOT_clean_sbu_0, # of connection points: 5
#     Node 15, Type 0, BuildingBlock: XOMCOT_clean_sbu_0, # of connection points: 5
#     Edge 16, Type (0, 0), BuildingBlock: ZUJKAS_clean_linker_0, # of connection points: 2
#     Edge 17, Type (0, 0), BuildingBlock: ZUJKAS_clean_linker_0, # of connection points: 2
#     Edge 18, Type (0, 0), BuildingBlock: ZUJKAS_clean_linker_0, # of connection points: 2
#     Edge 19, Type (0, 0), BuildingBlock: ZUJKAS_clean_linker_0, # of connection points: 2
#     Edge 20, Type (0, 0), BuildingBlock: ZUJKAS_clean_linker_0, # of connection points: 2
#     Edge 21, Type (0, 0), BuildingBlock: ZUJKAS_clean_linker_0, # of connection points: 2
#     Edge 22, Type (0, 0), BuildingBlock: ZUJKAS_clean_linker_0, # of connection points: 2
#     Edge 23, Type (0, 0), BuildingBlock: ZUJKAS_clean_linker_0, # of connection points: 2
#     Edge 24, Type (0, 0), BuildingBlock: ZUJKAS_clean_linker_0, # of connection points: 2
#     Edge 25, Type (0, 0), BuildingBlock: ZUJKAS_clean_linker_0, # of connection points: 2
#     Edge 26, Type (0, 0), BuildingBlock: ZUJKAS_clean_linker_0, # of connection points: 2
#     Edge 27, Type (0, 0), BuildingBlock: ZUJKAS_clean_linker_0, # of connection points: 2
#     Edge 28, Type (0, 0), BuildingBlock: ZUJKAS_clean_linker_0, # of connection points: 2
#     Edge 29, Type (0, 0), BuildingBlock: ZUJKAS_clean_linker_0, # of connection points: 2
#     Edge 30, Type (0, 0), BuildingBlock: ZUJKAS_clean_linker_0, # of connection points: 2
#     Edge 31, Type (0, 0), BuildingBlock: ZUJKAS_clean_linker_0, # of connection points: 2
#     Edge 32, Type (0, 0), BuildingBlock: ZUJKAS_clean_linker_0, # of connection points: 2
#     Edge 33, Type (0, 0), BuildingBlock: ZUJKAS_clean_linker_0, # of connection points: 2
#     Edge 34, Type (0, 0), BuildingBlock: ZUJKAS_clean_linker_0, # of connection points: 2
#     Edge 35, Type (0, 0), BuildingBlock: ZUJKAS_clean_linker_0, # of connection points: 2
#     Edge 36, Type (0, 0), BuildingBlock: ZUJKAS_clean_linker_0, # of connection points: 2
#     Edge 37, Type (0, 0), BuildingBlock: ZUJKAS_clean_linker_0, # of connection points: 2
#     Edge 38, Type (0, 0), BuildingBlock: ZUJKAS_clean_linker_0, # of connection points: 2
#     Edge 39, Type (0, 0), BuildingBlock: ZUJKAS_clean_linker_0, # of connection points: 2
#     Edge 40, Type (0, 0), BuildingBlock: ZUJKAS_clean_linker_0, # of connection points: 2
#     Edge 41, Type (0, 0), BuildingBlock: ZUJKAS_clean_linker_0, # of connection points: 2
#     Edge 42, Type (0, 0), BuildingBlock: ZUJKAS_clean_linker_0, # of connection points: 2
#     Edge 43, Type (0, 0), BuildingBlock: ZUJKAS_clean_linker_0, # of connection points: 2
#     Edge 44, Type (0, 0), BuildingBlock: ZUJKAS_clean_linker_0, # of connection points: 2
#     Edge 45, Type (0, 0), BuildingBlock: ZUJKAS_clean_linker_0, # of connection points: 2
#     Edge 46, Type (0, 0), BuildingBlock: ZUJKAS_clean_linker_0, # of connection points: 2
#     Edge 47, Type (0, 0), BuildingBlock: ZUJKAS_clean_linker_0, # of connection points: 2
#     Edge 48, Type (0, 0), BuildingBlock: ZUJKAS_clean_linker_0, # of connection points: 2
#     Edge 49, Type (0, 0), BuildingBlock: ZUJKAS_clean_linker_0, # of connection points: 2
#     Edge 50, Type (0, 0), BuildingBlock: ZUJKAS_clean_linker_0, # of connection points: 2
#     Edge 51, Type (0, 0), BuildingBlock: ZUJKAS_clean_linker_0, # of connection points: 2
#     Edge 52, Type (0, 0), BuildingBlock: ZUJKAS_clean_linker_0, # of connection points: 2
#     Edge 53, Type (0, 0), BuildingBlock: ZUJKAS_clean_linker_0, # of connection points: 2
#     Edge 54, Type (0, 0), BuildingBlock: ZUJKAS_clean_linker_0, # of connection points: 2
#     Edge 55, Type (0, 0), BuildingBlock: ZUJKAS_clean_linker_0, # of connection points: 2
# Relax obj value: 0.248
# Max RMSD: 0.215
# Mean RMSD: 0.199
data_MOF--net-zfw--node1-XOMCOT_clean_sbu_0--edge1-ZUJKAS_clean_linker_0
_symmetry_space_group_name_H-M    P1
_symmetry_Int_Tables_number       1
_symmetry_cell_setting            triclinic
loop_
_symmetry_equiv_pos_as_xyz
'x, y, z'
_cell_length_a     88.664878
_cell_length_b     87.711504
_cell_length_c     21.325828
_cell_angle_alpha  89.991334
_cell_angle_beta   89.971342
_cell_angle_gamma 90.011591
loop_
_atom_site_label
_atom_site_type_symbol
_atom_site_fract_x
_atom_site_fract_y
_atom_site_fract_z
_atom_type_partial_charge
Co0 Co 0.08617 0.09258 0.26555 0.0
C1 C 0.08311 0.08316 0.39865 0.0
C2 C 0.09494 0.06662 0.34366 0.0
C3 C 0.09483 0.06177 0.40511 0.0
N4 N 0.08744 0.07997 0.33965 0.0
N5 N 0.0873 0.0722 0.43925 0.0
H6 H 0.07793 0.09365 0.41319 0.0
H7 H 0.10051 0.06104 0.3048 0.0
C8 C 0.07233 0.06267 0.22578 0.0
O9 O 0.06469 0.06207 0.27856 0.0
N10 N 0.08537 0.10466 0.19075 0.0
C11 C 0.07845 0.11809 0.18033 0.0
C12 C 0.07807 0.12057 0.11637 0.0
C13 C 0.08942 0.0994 0.13424 0.0
N14 N 0.0848 0.10865 0.08772 0.0
C15 C 0.06246 0.10841 0.32825 0.0
C16 C 0.03884 0.09954 0.25231 0.0
C17 C 0.03613 0.11011 0.3004 0.0
C18 C 0.04817 0.11433 0.33893 0.0
C19 C 0.05348 0.0938 0.24319 0.0
N20 N 0.06506 0.0979 0.28223 0.0
H21 H 0.07157 0.11295 0.35583 0.0
H22 H 0.05554 0.08677 0.20261 0.0
H23 H 0.07316 0.12503 0.21602 0.0
H24 H 0.09497 0.08855 0.12742 0.0
O25 O 0.09561 0.10923 0.30946 0.0
O26 O 0.10802 0.09141 0.25743 0.0
O27 O 0.08081 0.07407 0.2139 0.0
C28 C 0.10848 0.10377 0.29122 0.0
H29 H 0.10018 0.05162 0.42346 0.0
H30 H 0.07232 0.12983 0.09282 0.0
H31 H 0.02992 0.09635 0.22019 0.0
H32 H 0.04667 0.12257 0.3763 0.0
Co33 Co 0.23059 0.76734 0.53089 0.0
C34 C 0.23691 0.77277 0.66481 0.0
C35 C 0.25722 0.77411 0.6112 0.0
C36 C 0.26056 0.77754 0.67274 0.0
N37 N 0.24242 0.77054 0.60658 0.0
N38 N 0.24769 0.77678 0.70595 0.0
H39 H 0.22512 0.77201 0.67703 0.0
H40 H 0.26502 0.775 0.57252 0.0
C41 C 0.26007 0.7535 0.48828 0.0
O42 O 0.26 0.74444 0.53737 0.0
N43 N 0.21907 0.76489 0.4554 0.0
C44 C 0.20508 0.75921 0.44742 0.0
C45 C 0.20192 0.7591 0.3839 0.0
C46 C 0.22413 0.76832 0.39787 0.0
N47 N 0.21404 0.76469 0.35332 0.0
C48 C 0.22092 0.74191 0.60503 0.0
C49 C 0.22482 0.71968 0.51478 0.0
C50 C 0.21803 0.71571 0.57198 0.0
C51 C 0.21632 0.72705 0.61755 0.0
C52 C 0.22947 0.73477 0.50441 0.0
N53 N 0.22759 0.74571 0.54955 0.0
H54 H 0.21808 0.75047 0.63878 0.0
H55 H 0.23397 0.73778 0.45895 0.0
H56 H 0.19788 0.75512 0.4848 0.0
H57 H 0.23505 0.77333 0.38864 0.0
O58 O 0.21293 0.7751 0.57252 0.0
O59 O 0.22943 0.78932 0.52046 0.0
O60 O 0.24954 0.76328 0.48072 0.0
C61 C 0.21711 0.78855 0.55375 0.0
H62 H 0.27144 0.78091 0.69111 0.0
H63 H 0.19179 0.75478 0.36187 0.0
H64 H 0.22616 0.71133 0.47781 0.0
H65 H 0.21057 0.72472 0.66136 0.0
Co66 Co 0.55408 0.91451 0.78593 0.0
C67 C 0.5505 0.92119 0.92039 0.0
C68 C 0.54763 0.94146 0.86616 0.0
C69 C 0.54462 0.94485 0.92809 0.0
N70 N 0.55184 0.92667 0.86159 0.0
N71 N 0.54631 0.93198 0.96153 0.0
H72 H 0.55161 0.90933 0.93297 0.0
H73 H 0.54583 0.94909 0.82715 0.0
C74 C 0.56705 0.94449 0.74081 0.0
O75 O 0.57568 0.94528 0.79081 0.0
N76 N 0.55558 0.90269 0.71056 0.0
C77 C 0.56318 0.88972 0.69894 0.0
C78 C 0.56196 0.88655 0.63568 0.0
C79 C 0.54959 0.907 0.65569 0.0
N80 N 0.55347 0.89754 0.60856 0.0
C81 C 0.57956 0.90365 0.85483 0.0
C82 C 0.60132 0.90958 0.76547 0.0
C83 C 0.6055 0.90188 0.82053 0.0
C84 C 0.59435 0.89909 0.86559 0.0
C85 C 0.58627 0.91408 0.75669 0.0
N86 N 0.57558 0.91127 0.80158 0.0
H87 H 0.57118 0.90007 0.88793 0.0
H88 H 0.58311 0.91913 0.71241 0.0
H89 H 0.5696 0.88339 0.7333 0.0
H90 H 0.54272 0.9171 0.65083 0.0
O91 O 0.54642 0.8969 0.82953 0.0
O92 O 0.53223 0.91374 0.77915 0.0
O93 O 0.55792 0.93335 0.73371 0.0
C94 C 0.53304 0.90138 0.81294 0.0
H95 H 0.54063 0.95562 0.94647 0.0
H96 H 0.56745 0.87725 0.61145 0.0
H97 H 0.60948 0.91176 0.72877 0.0
H98 H 0.5968 0.89257 0.90751 0.0
Co99 Co 0.40976 0.23817 -0.00056 0.0
C100 C 0.40413 0.23225 0.13346 0.0
C101 C 0.38347 0.23156 0.08208 0.0
C102 C 0.38047 0.22772 0.14354 0.0
N103 N 0.39829 0.23494 0.07614 0.0
N104 N 0.39356 0.22807 0.17527 0.0
H105 H 0.416 0.23279 0.14445 0.0
H106 H 0.37542 0.23097 0.04425 0.0
C107 C 0.38012 0.25196 0.95822 0.0
O108 O 0.38034 0.26122 0.00666 0.0
N109 N 0.42092 0.24063 0.92305 0.0
C110 C 0.43496 0.24612 0.91422 0.0
C111 C 0.43813 0.24564 0.85078 0.0
C112 C 0.41583 0.23678 0.86605 0.0
N113 N 0.42598 0.23988 0.82101 0.0
C114 C 0.4193 0.26359 0.07364 0.0
C115 C 0.41505 0.28593 0.9841 0.0
C116 C 0.42159 0.28994 0.04173 0.0
C117 C 0.42354 0.27852 0.08682 0.0
C118 C 0.41076 0.27076 0.97304 0.0
N119 N 0.41275 0.25978 0.01795 0.0
H120 H 0.4222 0.255 0.10725 0.0
H121 H 0.40631 0.26775 0.92751 0.0
H122 H 0.44226 0.25028 0.95108 0.0
H123 H 0.40493 0.23161 0.8577 0.0
O124 O 0.42768 0.23042 0.03919 0.0
O125 O 0.41087 0.21619 0.9893 0.0
O126 O 0.3906 0.24213 0.95072 0.0
C127 C 0.42342 0.21695 0.02105 0.0
H128 H 0.36969 0.22428 0.1627 0.0
H129 H 0.44839 0.2495 0.82825 0.0
H130 H 0.41354 0.29434 0.94748 0.0
H131 H 0.42913 0.2809 0.13092 0.0
Co132 Co 0.08286 0.91292 0.71932 0.0
C133 C 0.08741 0.91904 0.58487 0.0
C134 C 0.08819 0.93981 0.63703 0.0
C135 C 0.09171 0.943 0.5754 0.0
N136 N 0.08503 0.92478 0.64269 0.0
N137 N 0.09134 0.92983 0.54317 0.0
H138 H 0.08697 0.90705 0.57352 0.0
H139 H 0.08895 0.94785 0.67518 0.0
C140 C 0.06892 0.94241 0.76417 0.0
O141 O 0.05923 0.94199 0.71758 0.0
N142 N 0.08146 0.90135 0.79553 0.0
C143 C 0.07671 0.8869 0.80418 0.0
C144 C 0.07757 0.88359 0.86746 0.0
C145 C 0.08527 0.90655 0.8525 0.0
N146 N 0.08283 0.89606 0.89732 0.0
C147 C 0.05705 0.90298 0.64923 0.0
C148 C 0.03625 0.90565 0.74507 0.0
C149 C 0.03176 0.89893 0.68834 0.0
C150 C 0.04233 0.89792 0.6398 0.0
C151 C 0.05111 0.91081 0.75226 0.0
N152 N 0.06137 0.90944 0.70458 0.0
H153 H 0.06513 0.90072 0.61303 0.0
H154 H 0.05454 0.91529 0.79726 0.0
H155 H 0.07272 0.87944 0.76738 0.0
H156 H 0.08983 0.9178 0.86108 0.0
O157 O 0.09053 0.89512 0.67714 0.0
O158 O 0.10469 0.91225 0.72611 0.0
O159 O 0.07898 0.93207 0.76948 0.0
C160 C 0.1039 0.89967 0.69371 0.0
H161 H 0.0951 0.95393 0.55656 0.0
H162 H 0.07422 0.87305 0.88989 0.0
H163 H 0.02848 0.90651 0.78409 0.0
H164 H 0.03956 0.89233 0.59599 0.0
Co165 Co 0.40886 0.76794 0.98615 0.0
C166 C 0.40268 0.7738 0.85243 0.0
C167 C 0.38203 0.7726 0.90383 0.0
C168 C 0.37873 0.77619 0.84239 0.0
N169 N 0.39709 0.77058 0.90978 0.0
N170 N 0.39181 0.77703 0.81061 0.0
H171 H 0.41456 0.77412 0.84121 0.0
H172 H 0.37393 0.77235 0.94153 0.0
C173 C 0.38008 0.75287 0.03103 0.0
O174 O 0.38069 0.74309 0.98442 0.0
N175 N 0.42027 0.76609 0.06228 0.0
C176 C 0.43459 0.76135 0.07091 0.0
C177 C 0.43774 0.76189 0.13439 0.0
C178 C 0.41501 0.76959 0.11943 0.0
N179 N 0.4253 0.76695 0.16435 0.0
C180 C 0.41919 0.74293 0.91179 0.0
C181 C 0.41799 0.72092 0.00434 0.0
C182 C 0.4252 0.71751 0.94746 0.0
C183 C 0.42524 0.72858 0.90027 0.0
C184 C 0.4119 0.73553 0.01387 0.0
N185 N 0.41271 0.74644 0.968 0.0
H186 H 0.42082 0.75148 0.8766 0.0
H187 H 0.40734 0.73832 0.05946 0.0
H188 H 0.44207 0.7576 0.03394 0.0
H189 H 0.40386 0.77415 0.12806 0.0
O190 O 0.42636 0.77621 0.94515 0.0
O191 O 0.40929 0.78999 0.99587 0.0
O192 O 0.38999 0.76337 0.03593 0.0
C193 C 0.42174 0.78955 0.96334 0.0
H194 H 0.36768 0.77858 0.82318 0.0
H195 H 0.44817 0.75853 0.15682 0.0
H196 H 0.41786 0.71275 0.04241 0.0
H197 H 0.43063 0.72644 0.85551 0.0
Co198 Co 0.55316 0.09163 0.21987 0.0
C199 C 0.54852 0.08505 0.08568 0.0
C200 C 0.54696 0.06458 0.13955 0.0
C201 C 0.54372 0.06116 0.0779 0.0
N202 N 0.55051 0.07954 0.14413 0.0
N203 N 0.54462 0.07413 0.04453 0.0
H204 H 0.5493 0.09696 0.07336 0.0
H205 H 0.54585 0.05676 0.17832 0.0
C206 C 0.56637 0.06182 0.26557 0.0
O207 O 0.57553 0.06148 0.2171 0.0
N208 N 0.55505 0.10344 0.29528 0.0
C209 C 0.56111 0.11738 0.30383 0.0
C210 C 0.56102 0.12056 0.36736 0.0
C211 C 0.55113 0.09849 0.35247 0.0
N212 N 0.55488 0.10853 0.3974 0.0
C213 C 0.57893 0.10091 0.1482 0.0
C214 C 0.60015 0.0974 0.24185 0.0
C215 C 0.60455 0.10394 0.18464 0.0
C216 C 0.59375 0.1054 0.13726 0.0
C217 C 0.58515 0.09273 0.25046 0.0
N218 N 0.57469 0.0945 0.20379 0.0
H219 H 0.57074 0.10359 0.11301 0.0
H220 H 0.5818 0.08838 0.29579 0.0
H221 H 0.56575 0.12443 0.26692 0.0
H222 H 0.54581 0.0876 0.36124 0.0
O223 O 0.54581 0.10947 0.17712 0.0
O224 O 0.53137 0.09282 0.22724 0.0
O225 O 0.55679 0.07261 0.27136 0.0
C226 C 0.53236 0.1053 0.19419 0.0
H227 H 0.54031 0.05017 0.05962 0.0
H228 H 0.56571 0.13055 0.38986 0.0
H229 H 0.60811 0.0963 0.2801 0.0
H230 H 0.59648 0.11092 0.09324 0.0
Co231 Co 0.23022 0.23649 0.46187 0.0
C232 C 0.23839 0.23841 0.32733 0.0
C233 C 0.25647 0.22955 0.38272 0.0
C234 C 0.26063 0.22886 0.32049 0.0
N235 N 0.2426 0.23582 0.38704 0.0
N236 N 0.24921 0.23452 0.28602 0.0
H237 H 0.22722 0.24173 0.31322 0.0
H238 H 0.26285 0.22509 0.42185 0.0
C239 C 0.25948 0.2506 0.50456 0.0
O240 O 0.25967 0.25915 0.45396 0.0
N241 N 0.21825 0.23663 0.53674 0.0
C242 C 0.20433 0.24236 0.54583 0.0
C243 C 0.20086 0.24107 0.60874 0.0
C244 C 0.22295 0.23173 0.59303 0.0
N245 N 0.21262 0.23437 0.63803 0.0
C246 C 0.21552 0.26135 0.40063 0.0
C247 C 0.22345 0.28411 0.48363 0.0
C248 C 0.21434 0.28779 0.43197 0.0
C249 C 0.21035 0.27611 0.39059 0.0
C250 C 0.22859 0.26908 0.49154 0.0
N251 N 0.22511 0.25798 0.44873 0.0
H252 H 0.21099 0.25252 0.3713 0.0
H253 H 0.2348 0.26632 0.53352 0.0
H254 H 0.19743 0.24752 0.50981 0.0
H255 H 0.23403 0.22699 0.60132 0.0
O256 O 0.21366 0.22747 0.41673 0.0
O257 O 0.23131 0.21436 0.46642 0.0
O258 O 0.24856 0.2414 0.51431 0.0
C259 C 0.21904 0.21427 0.43284 0.0
H260 H 0.27097 0.2241 0.30199 0.0
H261 H 0.19066 0.24504 0.6313 0.0
H262 H 0.22638 0.29268 0.51808 0.0
H263 H 0.20261 0.27816 0.35222 0.0
Co264 Co 0.90617 0.26756 0.45455 0.0
C265 C 0.89763 0.2654 0.32034 0.0
C266 C 0.8801 0.27529 0.376 0.0
C267 C 0.87587 0.27604 0.31389 0.0
N268 N 0.89368 0.2684 0.38009 0.0
N269 N 0.88694 0.26975 0.27921 0.0
H270 H 0.90856 0.2614 0.30598 0.0
H271 H 0.87403 0.28015 0.4152 0.0
C272 C 0.87672 0.25391 0.49737 0.0
O273 O 0.87632 0.24555 0.44625 0.0
N274 N 0.91827 0.26725 0.52915 0.0
C275 C 0.93206 0.26117 0.53797 0.0
C276 C 0.93551 0.26212 0.60099 0.0
C277 C 0.91366 0.27205 0.58579 0.0
N278 N 0.92389 0.26898 0.63067 0.0
C279 C 0.92111 0.24276 0.39422 0.0
C280 C 0.91338 0.22011 0.47822 0.0
C281 C 0.92359 0.21679 0.42995 0.0
C282 C 0.92722 0.22827 0.38723 0.0
C283 C 0.9075 0.23492 0.48377 0.0
N284 N 0.91111 0.24603 0.44109 0.0
H285 H 0.92544 0.25155 0.36416 0.0
H286 H 0.90086 0.2376 0.52471 0.0
H287 H 0.93883 0.25592 0.50175 0.0
H288 H 0.90266 0.27695 0.59446 0.0
O289 O 0.92267 0.27642 0.40849 0.0
O290 O 0.90536 0.28972 0.45963 0.0
O291 O 0.88787 0.26281 0.50751 0.0
C292 C 0.91746 0.28964 0.42495 0.0
H293 H 0.86574 0.28128 0.29559 0.0
H294 H 0.94557 0.25775 0.6234 0.0
H295 H 0.91071 0.21163 0.51344 0.0
H296 H 0.93534 0.22627 0.3501 0.0
Co297 Co 0.72541 0.73643 0.9928 0.0
C298 C 0.73362 0.73761 0.85801 0.0
C299 C 0.7512 0.72787 0.91371 0.0
C300 C 0.75531 0.72684 0.85149 0.0
N301 N 0.73768 0.73489 0.91783 0.0
N302 N 0.74421 0.73306 0.81683 0.0
H303 H 0.72267 0.74156 0.84373 0.0
H304 H 0.75734 0.72318 0.95304 0.0
C305 C 0.75524 0.74957 0.0333 0.0
O306 O 0.75567 0.75775 0.98167 0.0
N307 N 0.71351 0.73741 0.06782 0.0
C308 C 0.69984 0.74375 0.07656 0.0
C309 C 0.69625 0.74268 0.13943 0.0
C310 C 0.71795 0.73238 0.12431 0.0
N311 N 0.70768 0.7355 0.16906 0.0
C312 C 0.7116 0.76149 0.92939 0.0
C313 C 0.72085 0.78448 0.00884 0.0
C314 C 0.71201 0.7882 0.95645 0.0
C315 C 0.7073 0.77642 0.917 0.0
C316 C 0.72516 0.76926 0.01897 0.0
N317 N 0.72109 0.75802 0.9777 0.0
H318 H 0.70655 0.75267 0.90145 0.0
H319 H 0.73127 0.76652 0.06124 0.0
H320 H 0.69317 0.7491 0.04028 0.0
H321 H 0.72879 0.72711 0.13284 0.0
O322 O 0.7085 0.72779 0.94854 0.0
O323 O 0.72569 0.71431 -0.00076 0.0
O324 O 0.74397 0.74092 0.04452 0.0
C325 C 0.71345 0.71449 0.9655 0.0
H326 H 0.7654 0.72151 0.83315 0.0
H327 H 0.68616 0.74703 0.16168 0.0
H328 H 0.72424 0.79319 0.04196 0.0
H329 H 0.69971 0.77861 0.87821 0.0
Co330 Co 0.72791 0.2663 0.00216 0.0
C331 C 0.73432 0.27121 0.13628 0.0
C332 C 0.7547 0.27208 0.0829 0.0
C333 C 0.75807 0.27542 0.14449 0.0
N334 N 0.73981 0.26891 0.07806 0.0
N335 N 0.74516 0.27496 0.17754 0.0
H336 H 0.72251 0.27069 0.14837 0.0
H337 H 0.76254 0.27285 0.04435 0.0
C338 C 0.75712 0.25228 0.95712 0.0
O339 O 0.75688 0.24268 0.00445 0.0
N340 N 0.71632 0.26446 0.92653 0.0
C341 C 0.70223 0.25905 0.91831 0.0
C342 C 0.69906 0.25916 0.85482 0.0
C343 C 0.72141 0.26799 0.86914 0.0
N344 N 0.71126 0.26465 0.82444 0.0
C345 C 0.71838 0.24044 0.07441 0.0
C346 C 0.72124 0.21894 0.98057 0.0
C347 C 0.71474 0.21461 0.03789 0.0
C348 C 0.7136 0.22555 0.08536 0.0
C349 C 0.72613 0.234 0.97186 0.0
N350 N 0.7247 0.2446 0.01862 0.0
H351 H 0.71599 0.24877 0.10978 0.0
H352 H 0.73046 0.23729 0.92644 0.0
H353 H 0.69499 0.25492 0.95548 0.0
H354 H 0.73244 0.27279 0.86009 0.0
O355 O 0.71035 0.27403 0.04461 0.0
O356 O 0.72702 0.28833 0.99395 0.0
O357 O 0.74679 0.26235 0.95147 0.0
C358 C 0.71467 0.28753 0.02706 0.0
H359 H 0.76901 0.27858 0.16295 0.0
H360 H 0.68888 0.25501 0.83262 0.0
H361 H 0.72216 0.21088 0.94227 0.0
H362 H 0.70815 0.22291 0.12951 0.0
Co363 Co 0.90638 0.73583 0.52524 0.0
C364 C 0.90001 0.73111 0.65941 0.0
C365 C 0.87961 0.73033 0.60625 0.0
C366 C 0.87623 0.72701 0.66784 0.0
N367 N 0.89451 0.73345 0.60128 0.0
N368 N 0.88916 0.72741 0.70074 0.0
H369 H 0.91183 0.73153 0.67133 0.0
H370 H 0.87176 0.72957 0.56774 0.0
C371 C 0.87731 0.75031 0.48136 0.0
O372 O 0.8778 0.75986 0.52878 0.0
N373 N 0.91795 0.73745 0.4495 0.0
C374 C 0.93217 0.74251 0.44126 0.0
C375 C 0.93539 0.74216 0.37785 0.0
C376 C 0.91282 0.73392 0.39225 0.0
N377 N 0.9231 0.73689 0.34759 0.0
C378 C 0.91652 0.76155 0.5969 0.0
C379 C 0.91388 0.78303 0.50278 0.0
C380 C 0.92059 0.78727 0.55974 0.0
C381 C 0.9216 0.77636 0.60739 0.0
C382 C 0.90866 0.76806 0.49457 0.0
N383 N 0.91 0.75748 0.54143 0.0
H384 H 0.91882 0.75322 0.63231 0.0
H385 H 0.90418 0.76482 0.44939 0.0
H386 H 0.93948 0.74651 0.47838 0.0
H387 H 0.9017 0.72931 0.38329 0.0
O388 O 0.92388 0.72774 0.56706 0.0
O389 O 0.90682 0.7138 0.51724 0.0
O390 O 0.88751 0.74013 0.47503 0.0
C391 C 0.91929 0.71432 0.54959 0.0
H392 H 0.86529 0.72389 0.68641 0.0
H393 H 0.9457 0.74597 0.35563 0.0
H394 H 0.91305 0.79106 0.46437 0.0
H395 H 0.9272 0.77895 0.65127 0.0
Co396 Co 0.58392 0.58957 0.77734 0.0
C397 C 0.58873 0.58287 0.91172 0.0
C398 C 0.58789 0.56213 0.85926 0.0
C399 C 0.59056 0.55858 0.92131 0.0
N400 N 0.58616 0.5774 0.85347 0.0
N401 N 0.59117 0.57171 0.95368 0.0
H402 H 0.58912 0.59483 0.92368 0.0
H403 H 0.58803 0.55403 0.82128 0.0
C404 C 0.5699 0.56033 0.72887 0.0
O405 O 0.56032 0.5602 0.77591 0.0
N406 N 0.5824 0.60149 0.70194 0.0
C407 C 0.57541 0.61496 0.69284 0.0
C408 C 0.57644 0.61864 0.63002 0.0
C409 C 0.58792 0.59739 0.64576 0.0
N410 N 0.58437 0.60758 0.60096 0.0
C411 C 0.55854 0.59921 0.85002 0.0
C412 C 0.53694 0.59638 0.75744 0.0
C413 C 0.53282 0.60273 0.81539 0.0
C414 C 0.54382 0.60388 0.86213 0.0
C415 C 0.55184 0.59154 0.74758 0.0
N416 N 0.56248 0.59296 0.79377 0.0
H417 H 0.5669 0.60155 0.88501 0.0
H418 H 0.55498 0.5873 0.70181 0.0
H419 H 0.56962 0.62138 0.72885 0.0
H420 H 0.59396 0.58686 0.63742 0.0
O421 O 0.59173 0.6072 0.82022 0.0
O422 O 0.60573 0.59018 0.77007 0.0
O423 O 0.57994 0.57076 0.72506 0.0
C424 C 0.60507 0.60267 0.80309 0.0
H425 H 0.59252 0.54735 0.94068 0.0
H426 H 0.57162 0.62855 0.60735 0.0
H427 H 0.52883 0.5955 0.71966 0.0
H428 H 0.54133 0.60925 0.9067 0.0
Co429 Co 0.05222 0.41366 0.27439 0.0
C430 C 0.04745 0.41998 0.40867 0.0
C431 C 0.04548 0.44043 0.35484 0.0
C432 C 0.0422 0.4438 0.41649 0.0
N433 N 0.0493 0.42555 0.35026 0.0
N434 N 0.04335 0.43083 0.44982 0.0
H435 H 0.04838 0.40809 0.42092 0.0
H436 H 0.04427 0.44823 0.316 0.0
C437 C 0.06618 0.44354 0.23324 0.0
O438 O 0.07506 0.44348 0.28258 0.0
N439 N 0.05449 0.40207 0.19872 0.0
C440 C 0.05993 0.38786 0.19072 0.0
C441 C 0.06013 0.38471 0.1272 0.0
C442 C 0.0513 0.40728 0.14116 0.0
N443 N 0.05483 0.39706 0.09659 0.0
C444 C 0.077 0.40228 0.34663 0.0
C445 C 0.09935 0.40761 0.25914 0.0
C446 C 0.10304 0.39965 0.3142 0.0
C447 C 0.09161 0.39719 0.35837 0.0
C448 C 0.08449 0.41254 0.2492 0.0
N449 N 0.07351 0.41006 0.29319 0.0
H450 H 0.06836 0.39892 0.37892 0.0
H451 H 0.0817 0.41773 0.20476 0.0
H452 H 0.06381 0.38051 0.22812 0.0
H453 H 0.04656 0.41842 0.13193 0.0
O454 O 0.04394 0.39594 0.31527 0.0
O455 O 0.03049 0.41312 0.26341 0.0
O456 O 0.05666 0.4328 0.22491 0.0
C457 C 0.03081 0.40057 0.29609 0.0
H458 H 0.0386 0.45471 0.43484 0.0
H459 H 0.06431 0.37442 0.10518 0.0
H460 H 0.10773 0.40965 0.22315 0.0
H461 H 0.09363 0.39051 0.40024 0.0
Co462 Co 0.58299 0.41261 0.21011 0.0
C463 C 0.58124 0.42156 0.07624 0.0
C464 C 0.5929 0.4382 0.13128 0.0
C465 C 0.59388 0.44238 0.06906 0.0
N466 N 0.58478 0.42523 0.13582 0.0
N467 N 0.58648 0.43187 0.03475 0.0
H468 H 0.57615 0.41099 0.06222 0.0
H469 H 0.59837 0.44382 0.17024 0.0
C470 C 0.57155 0.44333 0.25288 0.0
O471 O 0.56441 0.44506 0.19938 0.0
N472 N 0.58173 0.40031 0.28443 0.0
C473 C 0.57465 0.38688 0.29306 0.0
C474 C 0.5753 0.38327 0.35603 0.0
C475 C 0.58681 0.40452 0.34116 0.0
N476 N 0.58296 0.39442 0.38595 0.0
C477 C 0.55781 0.39897 0.14817 0.0
C478 C 0.53535 0.40949 0.22658 0.0
C479 C 0.53144 0.39991 0.17643 0.0
C480 C 0.54296 0.39463 0.13729 0.0
C481 C 0.55049 0.41372 0.2355 0.0
N482 N 0.5615 0.4089 0.19504 0.0
H483 H 0.56639 0.39358 0.12027 0.0
H484 H 0.55331 0.42024 0.2767 0.0
H485 H 0.56896 0.38049 0.25674 0.0
H486 H 0.59254 0.4152 0.3499 0.0
O487 O 0.59104 0.39556 0.16403 0.0
O488 O 0.6049 0.41223 0.2165 0.0
O489 O 0.57905 0.43118 0.2637 0.0
C490 C 0.60432 0.40013 0.18119 0.0
H491 H 0.6 0.45204 0.05041 0.0
H492 H 0.57024 0.37342 0.37823 0.0
H493 H 0.52687 0.41345 0.25932 0.0
H494 H 0.54067 0.38653 0.10016 0.0
Co495 Co 0.05303 0.59335 0.72638 0.0
C496 C 0.05536 0.58475 0.59228 0.0
C497 C 0.04531 0.56708 0.64742 0.0
C498 C 0.0448 0.56277 0.5853 0.0
N499 N 0.05217 0.58078 0.65183 0.0
N500 N 0.0512 0.57392 0.55098 0.0
H501 H 0.05941 0.59578 0.57816 0.0
H502 H 0.04038 0.56095 0.68638 0.0
C503 C 0.06618 0.56341 0.76943 0.0
O504 O 0.07451 0.56283 0.71848 0.0
N505 N 0.05339 0.60552 0.80105 0.0
C506 C 0.05945 0.61943 0.80995 0.0
C507 C 0.05851 0.6229 0.87298 0.0
C508 C 0.04863 0.60085 0.8576 0.0
N509 N 0.05169 0.61116 0.90257 0.0
C510 C 0.07795 0.60792 0.66589 0.0
C511 C 0.10031 0.59878 0.74758 0.0
C512 C 0.10418 0.60818 0.69676 0.0
C513 C 0.09269 0.61281 0.65607 0.0
C514 C 0.0853 0.59405 0.75553 0.0
N515 N 0.07439 0.59809 0.71326 0.0
H516 H 0.06931 0.61282 0.63685 0.0
H517 H 0.08245 0.5877 0.79718 0.0
H518 H 0.06466 0.62628 0.77375 0.0
H519 H 0.04374 0.58973 0.86614 0.0
O520 O 0.04439 0.6102 0.68076 0.0
O521 O 0.03114 0.59264 0.73097 0.0
O522 O 0.05749 0.57478 0.77917 0.0
C523 C 0.03125 0.60498 0.697 0.0
H524 H 0.03967 0.55253 0.56672 0.0
H525 H 0.06284 0.63306 0.89544 0.0
H526 H 0.10872 0.59531 0.78149 0.0
H527 H 0.09489 0.62079 0.61839 0.0
H528 H 0.19367 0.21175 0.36232 0.0
H529 H 0.17942 0.18879 0.33778 0.0
H530 H 0.21213 0.16152 0.43689 0.0
H531 H 0.22644 0.18468 0.46287 0.0
H532 H 0.18709 0.16243 0.27374 0.0
H533 H 0.17236 0.15014 0.5226 0.0
H534 H 0.18046 0.16809 0.49857 0.0
H535 H 0.1921 0.1514 0.50408 0.0
C536 C 0.19791 0.20088 0.37885 0.0
C537 C 0.21113 0.20005 0.41507 0.0
C538 C 0.18976 0.18774 0.36452 0.0
C539 C 0.19459 0.17345 0.38607 0.0
C540 C 0.20805 0.17247 0.42065 0.0
H541 H 0.13748 0.09636 0.25629 0.0
H542 H 0.16064 0.11066 0.28018 0.0
C543 C 0.21625 0.18569 0.4352 0.0
C544 C 0.18503 0.15987 0.37373 0.0
H545 H 0.16099 0.13496 0.44564 0.0
C546 C 0.18156 0.15622 0.31125 0.0
C547 C 0.17779 0.15186 0.42284 0.0
C548 C 0.18073 0.15557 0.49086 0.0
C549 C 0.17049 0.14533 0.29652 0.0
C550 C 0.16286 0.1377 0.34568 0.0
C551 C 0.1669 0.14078 0.40808 0.0
C552 C 0.1493 0.12819 0.33389 0.0
C553 C 0.16636 0.14279 0.22866 0.0
C554 C 0.13535 0.13304 0.35756 0.0
C555 C 0.12222 0.12491 0.34439 0.0
C556 C 0.12271 0.11169 0.30723 0.0
C557 C 0.13674 0.10656 0.28476 0.0
C558 C 0.14996 0.11474 0.29812 0.0
H559 H 0.17162 0.15138 0.19719 0.0
H560 H 0.17028 0.13133 0.21385 0.0
H561 H 0.15394 0.14324 0.22238 0.0
H562 H 0.13456 0.14338 0.38524 0.0
H563 H 0.11163 0.12916 0.3627 0.0
H564 H 0.21404 0.81535 0.48874 0.0
H565 H 0.19675 0.83641 0.51311 0.0
H566 H 0.18325 0.81339 0.68305 0.0
H567 H 0.19987 0.79214 0.65725 0.0
H568 H 0.15965 0.82151 0.62171 0.0
H569 H 0.19767 0.87152 0.63209 0.0
H570 H 0.19897 0.86157 0.55884 0.0
H571 H 0.20468 0.85221 0.63015 0.0
C572 C 0.20752 0.81496 0.53167 0.0
C573 C 0.20817 0.80211 0.57089 0.0
C574 C 0.19772 0.82703 0.54586 0.0
C575 C 0.18876 0.82661 0.60036 0.0
C576 C 0.18997 0.814 0.64066 0.0
H577 H 0.13141 0.89889 0.75229 0.0
H578 H 0.15259 0.88175 0.72847 0.0
C579 C 0.19947 0.80185 0.62587 0.0
C580 C 0.17713 0.83846 0.61307 0.0
H581 H 0.1712 0.8768 0.62896 0.0
C582 C 0.16225 0.83359 0.62367 0.0
C583 C 0.18047 0.85424 0.61636 0.0
C584 C 0.19634 0.8602 0.60941 0.0
C585 C 0.15066 0.84394 0.63716 0.0
C586 C 0.15384 0.85976 0.63756 0.0
C587 C 0.16873 0.86469 0.62775 0.0
C588 C 0.14176 0.87123 0.64843 0.0
C589 C 0.1352 0.83772 0.65233 0.0
C590 C 0.12889 0.87139 0.61014 0.0
C591 C 0.11675 0.8809 0.62436 0.0
C592 C 0.11738 0.89075 0.6762 0.0
C593 C 0.13063 0.89134 0.71221 0.0
C594 C 0.14272 0.88159 0.69859 0.0
H595 H 0.13579 0.82574 0.66912 0.0
H596 H 0.12949 0.84468 0.68878 0.0
H597 H 0.12816 0.83785 0.60931 0.0
H598 H 0.12808 0.86387 0.57001 0.0
H599 H 0.10678 0.88042 0.59506 0.0
H600 H 0.50581 0.89878 0.75312 0.0
H601 H 0.4847 0.88217 0.78292 0.0
H602 H 0.50877 0.8687 0.94992 0.0
H603 H 0.53006 0.8846 0.91859 0.0
H604 H 0.49945 0.84485 0.89307 0.0
H605 H 0.45113 0.88459 0.90672 0.0
H606 H 0.46026 0.88534 0.83175 0.0
H607 H 0.47037 0.89116 0.90096 0.0
C608 C 0.50644 0.8924 0.79655 0.0
C609 C 0.51957 0.89283 0.8333 0.0
C610 C 0.49433 0.88301 0.81389 0.0
C611 C 0.49502 0.87426 0.86916 0.0
C612 C 0.50794 0.87527 0.90703 0.0
H613 H 0.42284 0.81697 0.02544 0.0
H614 H 0.43997 0.8384 0.00333 0.0
C615 C 0.52012 0.88435 0.88905 0.0
C616 C 0.48309 0.86291 0.88476 0.0
H617 H 0.44509 0.85789 0.90352 0.0
C618 C 0.48759 0.8478 0.8959 0.0
C619 C 0.46759 0.8667 0.8893 0.0
C620 C 0.46206 0.88286 0.88221 0.0
C621 C 0.47711 0.83637 0.91039 0.0
C622 C 0.46155 0.83995 0.91138 0.0
C623 C 0.457 0.85511 0.90176 0.0
C624 C 0.44998 0.82794 0.92129 0.0
C625 C 0.48291 0.8206 0.92539 0.0
C626 C 0.44951 0.81526 0.88125 0.0
C627 C 0.44 0.803 0.89436 0.0
C628 C 0.43046 0.80332 0.94695 0.0
C629 C 0.43013 0.81644 0.98474 0.0
C630 C 0.43989 0.82866 0.97213 0.0
H631 H 0.49479 0.82093 0.942 0.0
H632 H 0.47592 0.81498 0.96191 0.0
H633 H 0.48259 0.8135 0.88234 0.0
H634 H 0.45684 0.81464 0.84069 0.0
H635 H 0.44027 0.79315 0.86372 0.0
H636 H 0.53197 0.13092 0.12264 0.0
H637 H 0.51031 0.14641 0.09302 0.0
H638 H 0.48073 0.11568 0.19212 0.0
H639 H 0.50255 0.10011 0.22297 0.0
H640 H 0.48446 0.13876 0.02508 0.0
H641 H 0.47055 0.15756 0.26767 0.0
H642 H 0.48822 0.14849 0.24844 0.0
H643 H 0.4713 0.13733 0.2545 0.0
C644 C 0.52088 0.12742 0.13834 0.0
C645 C 0.51899 0.11435 0.17567 0.0
C646 C 0.50849 0.13627 0.12108 0.0
C647 C 0.49392 0.1323 0.14083 0.0
C648 C 0.49191 0.11908 0.17717 0.0
H649 H 0.41792 0.18697 0.99058 0.0
H650 H 0.43316 0.16464 0.0195 0.0
C651 C 0.50436 0.11018 0.19457 0.0
C652 C 0.48107 0.14233 0.12393 0.0
H653 H 0.45615 0.16793 0.18579 0.0
C654 C 0.4781 0.14499 0.06016 0.0
C655 C 0.47288 0.15051 0.16986 0.0
C656 C 0.4759 0.14847 0.23899 0.0
C657 C 0.46756 0.15601 0.04102 0.0
C658 C 0.45963 0.16445 0.08696 0.0
C659 C 0.46219 0.16138 0.15071 0.0
C660 C 0.44996 0.17764 0.07018 0.0
C661 C 0.46558 0.15911 0.9719 0.0
C662 C 0.45418 0.19227 0.08998 0.0
C663 C 0.44553 0.20495 0.0738 0.0
C664 C 0.4324 0.2033 0.03754 0.0
C665 C 0.42803 0.18861 0.01822 0.0
C666 C 0.43675 0.17587 0.03452 0.0
H667 H 0.4744 0.15346 0.94313 0.0
H668 H 0.45442 0.15477 0.95656 0.0
H669 H 0.46591 0.17156 0.96244 0.0
H670 H 0.46433 0.19391 0.11751 0.0
H671 H 0.44919 0.21608 0.08974 0.0
H672 H 0.93936 0.80195 0.47785 0.0
H673 H 0.95533 0.82413 0.49971 0.0
H674 H 0.93526 0.82838 0.68297 0.0
H675 H 0.91918 0.80624 0.66143 0.0
H676 H 0.94212 0.85799 0.60299 0.0
H677 H 0.98916 0.81708 0.64434 0.0
H678 H 0.97811 0.81468 0.57417 0.0
H679 H 0.9696 0.81145 0.64929 0.0
C680 C 0.93801 0.80788 0.52206 0.0
C681 C 0.92807 0.80231 0.56807 0.0
C682 C 0.9472 0.82049 0.53458 0.0
C683 C 0.94651 0.82779 0.59306 0.0
C684 C 0.93594 0.82288 0.63756 0.0
H685 H 0.0174 0.88025 0.77177 0.0
H686 H 0.99511 0.86444 0.7525 0.0
C687 C 0.92682 0.81021 0.62527 0.0
C688 C 0.95788 0.83942 0.61026 0.0
H689 H 0.99486 0.84322 0.65178 0.0
C690 C 0.95366 0.85482 0.61365 0.0
C691 C 0.97284 0.83516 0.62493 0.0
C692 C 0.97779 0.8187 0.6235 0.0
C693 C 0.96418 0.86614 0.63037 0.0
C694 C 0.97922 0.86189 0.64392 0.0
C695 C 0.98332 0.84645 0.64144 0.0
C696 C 0.99111 0.8732 0.65915 0.0
C697 C 0.95912 0.88253 0.63407 0.0
C698 C 0.99605 0.88359 0.61355 0.0
C699 C 0.00878 0.89264 0.62445 0.0
C700 C 0.01681 0.89145 0.68116 0.0
C701 C 0.01136 0.88158 0.72796 0.0
C702 C 0.99869 0.87247 0.71687 0.0
H703 H 0.94664 0.88349 0.63671 0.0
H704 H 0.96413 0.88826 0.67555 0.0
H705 H 0.96298 0.88867 0.59151 0.0
H706 H 0.99051 0.88418 0.56836 0.0
H707 H 0.01267 0.90018 0.58759 0.0
H708 H 0.95382 0.21303 0.42817 0.0
H709 H 0.96801 0.18953 0.41168 0.0
H710 H 0.92652 0.16389 0.40767 0.0
H711 H 0.91212 0.18765 0.42437 0.0
H712 H 0.96717 0.16082 0.48556 0.0
H713 H 0.94946 0.15495 0.2357 0.0
H714 H 0.94809 0.17299 0.27612 0.0
H715 H 0.9354 0.15781 0.29567 0.0
C716 C 0.94771 0.20237 0.42423 0.0
C717 C 0.93188 0.20214 0.42697 0.0
C718 C 0.95582 0.18897 0.41497 0.0
C719 C 0.94831 0.17502 0.40781 0.0
C720 C 0.9325 0.17459 0.41257 0.0
H721 H 0.00781 0.09712 0.30337 0.0
H722 H 0.98385 0.10994 0.32988 0.0
C723 C 0.92432 0.18809 0.42247 0.0
C724 C 0.95736 0.16126 0.3933 0.0
H725 H 0.97024 0.1404 0.26892 0.0
C726 C 0.96755 0.15602 0.43871 0.0
C727 C 0.95785 0.15505 0.33208 0.0
C728 C 0.94717 0.16043 0.28169 0.0
C729 C 0.97885 0.14546 0.42343 0.0
C730 C 0.98008 0.14016 0.36106 0.0
C731 C 0.96922 0.1445 0.31671 0.0
C732 C 0.99391 0.13228 0.33955 0.0
C733 C 0.98999 0.14073 0.47316 0.0
C734 C 0.00726 0.14072 0.33431 0.0
C735 C 0.02077 0.13353 0.31903 0.0
C736 C 0.02128 0.1177 0.30884 0.0
C737 C 0.00774 0.10932 0.31104 0.0
C738 C 0.99411 0.1166 0.32639 0.0
H739 H 0.9855 0.14272 0.52112 0.0
H740 H 0.99298 0.12849 0.46817 0.0
H741 H 1.00048 0.14751 0.46771 0.0
H742 H 0.00728 0.15287 0.34342 0.0
H743 H 0.03094 0.14036 0.31634 0.0
H744 H 0.61969 0.12286 0.26459 0.0
H745 H 0.64186 0.1385 0.24015 0.0
H746 H 0.64534 0.117 0.05905 0.0
H747 H 0.62322 0.10128 0.08314 0.0
H748 H 0.67501 0.12447 0.1375 0.0
H749 H 0.63436 0.17154 0.09031 0.0
H750 H 0.63211 0.1609 0.16196 0.0
H751 H 0.62883 0.15173 0.0881 0.0
C752 C 0.62547 0.12111 0.22042 0.0
C753 C 0.61968 0.11091 0.17563 0.0
C754 C 0.63807 0.1301 0.20641 0.0
C755 C 0.64513 0.12894 0.14769 0.0
C756 C 0.64004 0.11803 0.10463 0.0
H757 H 0.69627 0.19933 0.95679 0.0
H758 H 0.68087 0.17682 0.97945 0.0
C759 C 0.62738 0.10911 0.11838 0.0
C760 C 0.6566 0.14028 0.12836 0.0
H761 H 0.66017 0.17723 0.08049 0.0
C762 C 0.67183 0.13601 0.12507 0.0
C763 C 0.65231 0.15524 0.11132 0.0
C764 C 0.63602 0.16021 0.11259 0.0
C765 C 0.68297 0.14649 0.1061 0.0
C766 C 0.67869 0.16155 0.0902 0.0
C767 C 0.66341 0.16568 0.09261 0.0
C768 C 0.68982 0.17346 0.07279 0.0
C769 C 0.69918 0.14138 0.10257 0.0
C770 C 0.7002 0.17883 0.11722 0.0
C771 C 0.70902 0.19168 0.10438 0.0
C772 C 0.7076 0.19942 0.04686 0.0
C773 C 0.69777 0.19353 0.00118 0.0
C774 C 0.68889 0.18072 0.01421 0.0
H775 H 0.70013 0.12875 0.10149 0.0
H776 H 0.70479 0.14614 0.06033 0.0
H777 H 0.70531 0.14559 0.14448 0.0
H778 H 0.70095 0.17356 0.16304 0.0
H779 H 0.71653 0.19593 0.14041 0.0
H780 H 0.62222 0.90048 0.92844 0.0
H781 H 0.64446 0.88484 0.94773 0.0
H782 H 0.64603 0.87267 0.75189 0.0
H783 H 0.62328 0.8877 0.7328 0.0
H784 H 0.64569 0.84811 0.82416 0.0
H785 H 0.68896 0.88741 0.91775 0.0
H786 H 0.67152 0.88885 0.95989 0.0
H787 H 0.67222 0.89414 0.87833 0.0
C788 C 0.62742 0.89466 0.8892 0.0
C789 C 0.62083 0.89522 0.82917 0.0
C790 C 0.64029 0.88587 0.9002 0.0
C791 C 0.64705 0.87765 0.85122 0.0
C792 C 0.64106 0.87896 0.79042 0.0
H793 H 0.712 0.80354 0.84544 0.0
H794 H 0.69799 0.82675 0.82001 0.0
C795 C 0.6281 0.88767 0.77945 0.0
C796 C 0.65894 0.86616 0.86495 0.0
H797 H 0.69281 0.86066 0.93852 0.0
C798 C 0.65609 0.85094 0.84831 0.0
C799 C 0.67247 0.86977 0.8971 0.0
C800 C 0.67655 0.88596 0.91374 0.0
C801 C 0.66615 0.83922 0.86412 0.0
C802 C 0.67952 0.84279 0.89709 0.0
C803 C 0.68252 0.85799 0.91339 0.0
C804 C 0.69033 0.83066 0.91491 0.0
C805 C 0.66222 0.82301 0.84678 0.0
C806 C 0.69122 0.8256 0.97727 0.0
C807 C 0.69926 0.81231 0.99202 0.0
C808 C 0.70644 0.80391 0.94445 0.0
C809 C 0.70642 0.80969 0.88291 0.0
C810 C 0.69845 0.82295 0.86831 0.0
H811 H 0.65029 0.82185 0.83166 0.0
H812 H 0.66956 0.81925 0.80753 0.0
H813 H 0.66423 0.81523 0.88703 0.0
H814 H 0.68499 0.83142 0.01385 0.0
H815 H 0.69899 0.80807 0.03972 0.0
H816 H 0.71934 0.68489 0.00041 0.0
H817 H 0.70493 0.66199 0.97145 0.0
H818 H 0.67465 0.6897 0.86175 0.0
H819 H 0.68894 0.71241 0.88967 0.0
H820 H 0.67476 0.65594 0.9954 0.0
H821 H 0.6851 0.65558 0.73992 0.0
H822 H 0.69646 0.66659 0.7937 0.0
H823 H 0.67865 0.67387 0.76635 0.0
C824 C 0.7097 0.68604 0.96962 0.0
C825 C 0.7053 0.70045 0.94722 0.0
C826 C 0.70149 0.67297 0.95314 0.0
C827 C 0.68888 0.6741 0.91347 0.0
C828 C 0.68455 0.68848 0.8911 0.0
H829 H 0.60633 0.62786 0.87712 0.0
H830 H 0.62843 0.64276 0.90604 0.0
C831 C 0.69268 0.70149 0.90759 0.0
C832 C 0.67954 0.66056 0.89819 0.0
H833 H 0.66269 0.64237 0.77518 0.0
C834 C 0.67234 0.65276 0.94729 0.0
C835 C 0.67658 0.6562 0.83548 0.0
C836 C 0.68474 0.6634 0.7809 0.0
C837 C 0.66148 0.64148 0.93517 0.0
C838 C 0.65755 0.6381 0.87235 0.0
C839 C 0.66553 0.64511 0.82335 0.0
C840 C 0.64434 0.62843 0.85656 0.0
C841 C 0.65409 0.63351 0.98984 0.0
C842 C 0.64585 0.61558 0.81771 0.0
C843 C 0.63313 0.60704 0.80056 0.0
C844 C 0.6187 0.61133 0.82149 0.0
C845 C 0.61727 0.62421 0.86028 0.0
C846 C 0.62994 0.63268 0.8774 0.0
H847 H 0.6616 0.6334 0.03154 0.0
H848 H 0.64365 0.63972 0.00288 0.0
H849 H 0.65103 0.62158 0.97788 0.0
H850 H 0.65685 0.61218 0.80057 0.0
H851 H 0.63458 0.59719 0.77052 0.0
H852 H 0.63133 0.39721 0.24266 0.0
H853 H 0.65232 0.38034 0.21393 0.0
H854 H 0.62886 0.36767 0.04442 0.0
H855 H 0.60769 0.38383 0.07459 0.0
H856 H 0.63731 0.34351 0.10203 0.0
H857 H 0.68655 0.38224 0.09274 0.0
H858 H 0.67704 0.38302 0.16689 0.0
H859 H 0.66743 0.38921 0.097 0.0
C860 C 0.63083 0.39099 0.19883 0.0
C861 C 0.61789 0.39171 0.16102 0.0
C862 C 0.64286 0.38144 0.18216 0.0
C863 C 0.64229 0.3728 0.12658 0.0
C864 C 0.6296 0.37414 0.08758 0.0
H865 H 0.71374 0.31537 0.96844 0.0
H866 H 0.69678 0.33675 0.99287 0.0
C867 C 0.61749 0.38339 0.10486 0.0
C868 C 0.65403 0.3612 0.11167 0.0
H869 H 0.69194 0.35545 0.09387 0.0
C870 C 0.64924 0.34621 0.09979 0.0
C871 C 0.66961 0.36467 0.10799 0.0
C872 C 0.67546 0.38069 0.11618 0.0
C873 C 0.6595 0.33461 0.08496 0.0
C874 C 0.67513 0.33788 0.08443 0.0
C875 C 0.67998 0.3529 0.09521 0.0
C876 C 0.68649 0.32572 0.07304 0.0
C877 C 0.65338 0.31903 0.06879 0.0
C878 C 0.68671 0.31269 0.11119 0.0
C879 C 0.69613 0.30044 0.09669 0.0
C880 C 0.70581 0.30113 0.04462 0.0
C881 C 0.70632 0.31454 0.00867 0.0
C882 C 0.69667 0.32674 0.02264 0.0
H883 H 0.64152 0.31966 0.05216 0.0
H884 H 0.66027 0.31344 0.03188 0.0
H885 H 0.65355 0.31174 0.11131 0.0
H886 H 0.67931 0.31182 0.15146 0.0
H887 H 0.69571 0.29036 0.12597 0.0
H888 H 0.02705 0.38037 0.39106 0.0
H889 H 0.0053 0.36405 0.41152 0.0
H890 H 0.98191 0.38406 0.25446 0.0
H891 H 0.00358 0.40091 0.23505 0.0
H892 H 0.96279 0.37856 0.35361 0.0
H893 H 0.99709 0.32726 0.30359 0.0
H894 H 0.00498 0.33853 0.36556 0.0
H895 H 0.00378 0.34627 0.28747 0.0
C896 C 0.01724 0.38137 0.36106 0.0
C897 C 0.01708 0.39173 0.31085 0.0
C898 C 0.00483 0.372 0.3727 0.0
C899 C 0.99213 0.37253 0.33349 0.0
C900 C 0.99164 0.38338 0.285 0.0
H901 H 0.93309 0.29411 0.31779 0.0
H902 H 0.94921 0.3157 0.29088 0.0
C903 C 0.00402 0.39297 0.2739 0.0
C904 C 0.97978 0.36125 0.34165 0.0
H905 H 0.97319 0.32301 0.35087 0.0
C906 C 0.965 0.3664 0.35254 0.0
C907 C 0.98261 0.34539 0.33902 0.0
C908 C 0.99794 0.33902 0.3226 0.0
C909 C 0.95306 0.35608 0.36247 0.0
C910 C 0.95608 0.34022 0.36303 0.0
C911 C 0.97082 0.33515 0.35095 0.0
C912 C 0.94429 0.32849 0.37534 0.0
C913 C 0.93733 0.36229 0.37113 0.0
C914 C 0.93573 0.32863 0.43094 0.0
C915 C 0.92619 0.31638 0.44568 0.0
C916 C 0.92541 0.30366 0.40586 0.0
C917 C 0.93357 0.30376 0.34947 0.0
C918 C 0.94279 0.31609 0.33411 0.0
H919 H 0.93615 0.37378 0.34973 0.0
H920 H 0.92876 0.3546 0.35015 0.0
H921 H 0.93494 0.3634 0.422 0.0
H922 H 0.93694 0.33783 0.46435 0.0
H923 H 0.92012 0.31646 0.48978 0.0
H924 H 0.91397 0.68467 0.51415 0.0
H925 H 0.92914 0.66211 0.54053 0.0
H926 H 0.95944 0.69038 0.64772 0.0
H927 H 0.94438 0.71277 0.62243 0.0
H928 H 0.95909 0.65681 0.51266 0.0
H929 H 0.95085 0.65579 0.76943 0.0
H930 H 0.93888 0.6667 0.71767 0.0
H931 H 0.95678 0.67424 0.74276 0.0
C932 C 0.92379 0.68602 0.54383 0.0
C933 C 0.92797 0.70049 0.56627 0.0
C934 C 0.93243 0.67314 0.55885 0.0
C935 C 0.94527 0.67452 0.59707 0.0
C936 C 0.94939 0.68896 0.6195 0.0
H937 H 0.02892 0.62986 0.62161 0.0
H938 H 0.00631 0.64422 0.595 0.0
C939 C 0.94082 0.70179 0.60449 0.0
C940 C 0.95504 0.66117 0.61063 0.0
H941 H 0.97316 0.64303 0.73059 0.0
C942 C 0.96196 0.65359 0.5603 0.0
C943 C 0.95858 0.65675 0.67275 0.0
C944 C 0.95075 0.66369 0.7287 0.0
C945 C 0.97308 0.64246 0.5705 0.0
C946 C 0.97756 0.63902 0.63261 0.0
C947 C 0.96989 0.64582 0.68294 0.0
C948 C 0.99104 0.62953 0.64623 0.0
C949 C 0.98014 0.63472 0.51456 0.0
C950 C 0.99006 0.61662 0.68505 0.0
C951 C 0.00307 0.60838 0.7008 0.0
C952 C 0.01727 0.61304 0.6785 0.0
C953 C 0.01816 0.62592 0.63942 0.0
C954 C 0.00521 0.63409 0.62367 0.0
H955 H 0.9723 0.63457 0.47395 0.0
H956 H 0.99037 0.64113 0.50026 0.0
H957 H 0.98348 0.62283 0.52569 0.0
H958 H 0.97926 0.613 0.70349 0.0
H959 H 1.00204 0.59854 0.73118 0.0
H960 H 0.43811 0.30791 0.96204 0.0
H961 H 0.45241 0.3309 0.9893 0.0
H962 H 0.43396 0.32964 0.17624 0.0
H963 H 0.4195 0.3068 0.14927 0.0
H964 H 0.44391 0.36128 0.05084 0.0
H965 H 0.48125 0.3233 0.19127 0.0
H966 H 0.46872 0.31604 0.13165 0.0
H967 H 0.4613 0.32205 0.20594 0.0
C968 C 0.43673 0.31279 0.00833 0.0
C969 C 0.4278 0.30543 0.05373 0.0
C970 C 0.44495 0.32589 0.0239 0.0
C971 C 0.44438 0.33181 0.085 0.0
C972 C 0.43467 0.32514 0.12903 0.0
H973 H 0.5115 0.38979 0.26577 0.0
H974 H 0.48799 0.37579 0.248 0.0
C975 C 0.42645 0.31207 0.11356 0.0
C976 C 0.4551 0.34387 0.10453 0.0
H977 H 0.48738 0.34926 0.18867 0.0
C978 C 0.45337 0.35873 0.0813 0.0
C979 C 0.46737 0.34049 0.14452 0.0
C980 C 0.46992 0.3246 0.16966 0.0
C981 C 0.46369 0.37032 0.09681 0.0
C982 C 0.47625 0.36682 0.13527 0.0
C983 C 0.47773 0.35201 0.15955 0.0
C984 C 0.48874 0.37779 0.14685 0.0
C985 C 0.46098 0.38619 0.07208 0.0
C986 C 0.49678 0.38397 0.09615 0.0
C987 C 0.51009 0.39212 0.10625 0.0
C988 C 0.51583 0.39408 0.16725 0.0
C989 C 0.50734 0.38863 0.21828 0.0
C990 C 0.49395 0.38052 0.20812 0.0
H991 H 0.44877 0.38827 0.06401 0.0
H992 H 0.46532 0.395 0.10482 0.0
H993 H 0.46683 0.3875 0.02639 0.0
H994 H 0.49324 0.38178 0.0484 0.0
H995 H 0.51628 0.3963 0.06596 0.0
H996 H 0.45342 0.71497 0.89907 0.0
H997 H 0.46811 0.69194 0.88098 0.0
H998 H 0.4323 0.66469 0.9595 0.0
H999 H 0.41725 0.68793 0.97707 0.0
H1000 H 0.47716 0.67019 0.97452 0.0
H1001 H 0.44228 0.6448 0.78401 0.0
H1002 H 0.44111 0.66475 0.80449 0.0
H1003 H 0.43291 0.65067 0.855 0.0
C1004 C 0.44854 0.70408 0.91189 0.0
C1005 C 0.43406 0.70326 0.93867 0.0
C1006 C 0.45701 0.69093 0.90184 0.0
C1007 C 0.45123 0.6766 0.91815 0.0
C1008 C 0.43686 0.67565 0.94578 0.0
H1009 H 0.51474 0.60003 0.91874 0.0
H1010 H 0.49285 0.61577 0.94541 0.0
C1011 C 0.42834 0.68891 0.95622 0.0
C1012 C 0.46065 0.6629 0.90705 0.0
H1013 H 0.46493 0.63223 0.80972 0.0
C1014 C 0.4744 0.66174 0.93921 0.0
C1015 C 0.45706 0.65204 0.86036 0.0
C1016 C 0.44259 0.65306 0.8235 0.0
C1017 C 0.48486 0.65027 0.92481 0.0
C1018 C 0.48139 0.63949 0.87753 0.0
C1019 C 0.46749 0.64043 0.84625 0.0
C1020 C 0.49263 0.62796 0.85725 0.0
C1021 C 0.49987 0.65023 0.9583 0.0
C1022 C 0.49921 0.62898 0.79747 0.0
C1023 C 0.51167 0.61993 0.78194 0.0
C1024 C 0.51777 0.60973 0.82606 0.0
C1025 C 0.51042 0.60794 0.88411 0.0
C1026 C 0.49793 0.61692 0.89945 0.0
H1027 H 0.50192 0.66105 0.98405 0.0
H1028 H 0.50008 0.64076 0.99277 0.0
H1029 H 0.50926 0.64844 0.92461 0.0
H1030 H 0.49526 0.63741 0.76416 0.0
H1031 H 0.51713 0.62166 0.73705 0.0
H1032 H 0.20118 0.69864 0.49023 0.0
H1033 H 0.18582 0.67622 0.51534 0.0
H1034 H 0.20342 0.67619 0.70366 0.0
H1035 H 0.21898 0.69844 0.67882 0.0
H1036 H 0.19293 0.64527 0.57722 0.0
H1037 H 0.15618 0.68463 0.714 0.0
H1038 H 0.16925 0.69142 0.65536 0.0
H1039 H 0.17609 0.68515 0.73021 0.0
C1040 C 0.20216 0.69358 0.53637 0.0
C1041 C 0.21118 0.70043 0.58275 0.0
C1042 C 0.19332 0.68081 0.55071 0.0
C1043 C 0.19336 0.67471 0.61155 0.0
C1044 C 0.20314 0.68084 0.65661 0.0
H1045 H 0.12372 0.61873 0.78684 0.0
H1046 H 0.14741 0.63249 0.77019 0.0
C1047 C 0.21198 0.69357 0.64235 0.0
C1048 C 0.18205 0.66309 0.62971 0.0
H1049 H 0.14906 0.65892 0.71036 0.0
C1050 C 0.18337 0.64818 0.60662 0.0
C1051 C 0.16965 0.66694 0.66833 0.0
C1052 C 0.16756 0.68291 0.69329 0.0
C1053 C 0.17253 0.63698 0.62103 0.0
C1054 C 0.15987 0.64096 0.65817 0.0
C1055 C 0.15878 0.65582 0.68221 0.0
C1056 C 0.14701 0.63038 0.66905 0.0
C1057 C 0.17484 0.62101 0.5967 0.0
C1058 C 0.13906 0.6243 0.61797 0.0
C1059 C 0.12564 0.61627 0.62743 0.0
C1060 C 0.1197 0.61436 0.68815 0.0
C1061 C 0.12802 0.61985 0.73954 0.0
C1062 C 0.14152 0.62782 0.73003 0.0
H1063 H 0.187 0.61852 0.58949 0.0
H1064 H 0.17008 0.61238 0.62927 0.0
H1065 H 0.16913 0.61985 0.55065 0.0
H1066 H 0.14281 0.62638 0.57041 0.0
H1067 H 0.11961 0.61205 0.58684 0.0
H1068 H 0.21181 0.30372 0.32263 0.0
H1069 H 0.19638 0.32633 0.30331 0.0
H1070 H 0.18621 0.32937 0.50056 0.0
H1071 H 0.20147 0.30652 0.52028 0.0
H1072 H 0.16428 0.3249 0.3419 0.0
H1073 H 0.19515 0.37476 0.4397 0.0
H1074 H 0.20471 0.35766 0.41398 0.0
H1075 H 0.19441 0.35764 0.48632 0.0
C1076 C 0.20652 0.30936 0.36213 0.0
C1077 C 0.20773 0.30323 0.42292 0.0
C1078 C 0.19776 0.32231 0.351 0.0
C1079 C 0.1902 0.32952 0.40047 0.0
C1080 C 0.19214 0.32407 0.46185 0.0
H1081 H 0.11906 0.39662 0.42376 0.0
H1082 H 0.1411 0.38054 0.44214 0.0
C1083 C 0.20088 0.31103 0.47307 0.0
C1084 C 0.17873 0.34134 0.38643 0.0
H1085 H 0.17033 0.37913 0.40288 0.0
C1086 C 0.16562 0.33678 0.35482 0.0
C1087 C 0.18049 0.35675 0.40411 0.0
C1088 C 0.19447 0.36213 0.43765 0.0
C1089 C 0.15407 0.34718 0.34115 0.0
C1090 C 0.15588 0.36271 0.35772 0.0
C1091 C 0.16902 0.36727 0.38954 0.0
C1092 C 0.14387 0.37414 0.34486 0.0
C1093 C 0.1398 0.34125 0.3111 0.0
C1094 C 0.13849 0.37647 0.28366 0.0
C1095 C 0.12568 0.38543 0.27307 0.0
C1096 C 0.11813 0.39245 0.32346 0.0
C1097 C 0.12434 0.39109 0.38402 0.0
C1098 C 0.13704 0.38199 0.39461 0.0
H1099 H 0.13858 0.32873 0.31731 0.0
H1100 H 0.12967 0.34689 0.33109 0.0
H1101 H 0.14014 0.34362 0.26002 0.0
H1102 H 0.14383 0.37084 0.24428 0.0
H1103 H 0.12127 0.38615 0.22584 0.0
H1104 H 0.05206 0.03898 0.22346 0.0
H1105 H 0.05 0.01874 0.14481 0.0
H1106 H 0.08757 0.038 0.04354 0.0
H1107 H 0.08943 0.05843 0.1207 0.0
H1108 H 0.06573 0.03001 0.96488 0.0
H1109 H 0.07671 0.982 0.12779 0.0
H1110 H 0.0608 0.9934 0.15009 0.0
H1111 H 0.07939 1.00163 0.15024 0.0
C1112 C 0.0599 0.03888 0.18452 0.0
C1113 C 0.07095 0.0503 0.17861 0.0
C1114 C 0.05877 0.02724 0.13975 0.0
C1115 C 0.06882 0.02665 0.08878 0.0
C1116 C 0.07972 0.03815 0.08249 0.0
H1117 H 0.08955 0.94887 0.85559 0.0
H1118 H 0.08888 0.96951 0.93221 0.0
C1119 C 0.08077 0.04984 0.1268 0.0
C1120 C 0.06799 0.01418 0.04149 0.0
H1121 H 0.06962 0.97548 0.02413 0.0
C1122 C 0.06658 0.01808 0.97785 0.0
C1123 C 0.0693 0.99861 0.05824 0.0
C1124 C 0.07179 0.99363 0.12521 0.0
C1125 C 0.06649 0.00691 0.9306 0.0
C1126 C 0.06741 0.99131 0.94749 0.0
C1127 C 0.06877 0.98741 0.01115 0.0
C1128 C 0.06768 0.97888 0.89993 0.0
C1129 C 0.06594 0.01198 0.86301 0.0
C1130 C 0.05591 0.97713 0.85634 0.0
C1131 C 0.05635 0.96539 0.81178 0.0
C1132 C 0.06845 0.95502 0.81057 0.0
C1133 C 0.08007 0.95666 0.85495 0.0
C1134 C 0.0797 0.96846 0.89899 0.0
H1135 H 0.06954 0.02405 0.85763 0.0
H1136 H 0.07325 0.00473 0.83304 0.0
H1137 H 0.05418 0.01106 0.84562 0.0
H1138 H 0.04631 0.98475 0.8571 0.0
H1139 H 0.04713 0.96436 0.77879 0.0
H1140 H 0.37381 0.77309 0.1251 0.0
H1141 H 0.35358 0.77183 0.2024 0.0
H1142 H 0.33819 0.72948 0.12203 0.0
H1143 H 0.35824 0.73085 0.04315 0.0
H1144 H 0.31495 0.74823 0.14584 0.0
H1145 H 0.35137 0.74547 0.35619 0.0
H1146 H 0.35536 0.76187 0.30881 0.0
H1147 H 0.35871 0.74307 0.27789 0.0
C1148 C 0.36616 0.76347 0.12379 0.0
C1149 C 0.3677 0.75204 0.07788 0.0
C1150 C 0.35465 0.7627 0.16849 0.0
C1151 C 0.34452 0.75039 0.16902 0.0
C1152 C 0.34592 0.73904 0.12287 0.0
H1153 H 0.28324 0.73281 0.48291 0.0
H1154 H 0.30333 0.7312 0.40436 0.0
C1155 C 0.35739 0.73984 0.07777 0.0
C1156 C 0.33223 0.74964 0.21654 0.0
H1157 H 0.3253 0.75097 0.37412 0.0
C1158 C 0.31722 0.74871 0.19577 0.0
C1159 C 0.33517 0.75002 0.28181 0.0
C1160 C 0.35103 0.75 0.30756 0.0
C1161 C 0.30509 0.74858 0.23826 0.0
C1162 C 0.30801 0.74976 0.30339 0.0
C1163 C 0.32303 0.75025 0.32423 0.0
C1164 C 0.29567 0.75065 0.35064 0.0
C1165 C 0.28929 0.74697 0.21285 0.0
C1166 C 0.28477 0.76223 0.34721 0.0
C1167 C 0.27323 0.76312 0.39178 0.0
C1168 C 0.27244 0.75257 0.44142 0.0
C1169 C 0.2835 0.74112 0.44536 0.0
C1170 C 0.295 0.74018 0.40046 0.0
H1171 H 0.28926 0.74149 0.16589 0.0
H1172 H 0.28207 0.74015 0.24487 0.0
H1173 H 0.28419 0.75846 0.20774 0.0
H1174 H 0.28525 0.7707 0.3103 0.0
H1175 H 0.26498 0.77216 0.38744 0.0
H1176 H 0.55111 0.06065 0.37693 0.0
H1177 H 0.55241 0.04109 0.45782 0.0
H1178 H 0.58381 0.01548 0.34479 0.0
H1179 H 0.58299 0.03537 0.26429 0.0
H1180 H 0.54459 0.01196 0.45399 0.0
H1181 H 0.60545 0.01576 0.51064 0.0
H1182 H 0.59595 0.02982 0.46323 0.0
H1183 H 0.60195 0.01205 0.4292 0.0
C1184 C 0.55841 0.05095 0.36929 0.0
C1185 C 0.56704 0.04968 0.31413 0.0
C1186 C 0.55911 0.03972 0.41569 0.0
C1187 C 0.56839 0.02689 0.40807 0.0
C1188 C 0.57686 0.02545 0.35264 0.0
H1189 H 0.55643 0.94303 0.62097 0.0
H1190 H 0.55713 0.96281 0.54055 0.0
C1191 C 0.57629 0.03679 0.30635 0.0
C1192 C 0.56869 0.01484 0.4573 0.0
H1193 H 0.59206 0.99479 0.55457 0.0
C1194 C 0.55497 0.00825 0.47609 0.0
C1195 C 0.58221 0.01013 0.48698 0.0
C1196 C 0.5972 0.01741 0.47201 0.0
C1197 C 0.55438 0.99703 0.52304 0.0
C1198 C 0.56796 0.99188 0.55092 0.0
C1199 C 0.58167 0.9986 0.53278 0.0
C1200 C 0.56812 0.97961 0.59923 0.0
C1201 C 0.53915 0.9911 0.54323 0.0
C1202 C 0.57466 0.98216 0.65836 0.0
C1203 C 0.5745 0.97073 0.70429 0.0
C1204 C 0.56774 0.95654 0.69203 0.0
C1205 C 0.5615 0.95392 0.63235 0.0
C1206 C 0.56182 0.96526 0.58633 0.0
H1207 H 0.53001 0.99933 0.532 0.0
H1208 H 0.5367 0.98035 0.51781 0.0
H1209 H 0.53888 0.98873 0.59436 0.0
H1210 H 0.57968 0.9931 0.66933 0.0
H1211 H 0.57944 0.9731 0.74969 0.0
H1212 H 0.37451 0.23242 0.86104 0.0
H1213 H 0.35405 0.23355 0.78479 0.0
H1214 H 0.33706 0.27433 0.87295 0.0
H1215 H 0.35732 0.27305 0.95079 0.0
H1216 H 0.31459 0.25497 0.84669 0.0
H1217 H 0.35043 0.26126 0.63577 0.0
H1218 H 0.35514 0.24456 0.68011 0.0
H1219 H 0.35784 0.26315 0.71415 0.0
C1220 C 0.36646 0.24167 0.86428 0.0
C1221 C 0.36761 0.25268 0.91206 0.0
C1222 C 0.35481 0.24236 0.8202 0.0
C1223 C 0.34417 0.25421 0.82216 0.0
C1224 C 0.34519 0.26514 0.87019 0.0
H1225 H 0.2821 0.2719 0.51132 0.0
H1226 H 0.30216 0.27369 0.58991 0.0
C1227 C 0.35678 0.26438 0.91468 0.0
C1228 C 0.33176 0.25493 0.77523 0.0
H1229 H 0.32457 0.25486 0.61781 0.0
C1230 C 0.31678 0.25508 0.79664 0.0
C1231 C 0.33458 0.25531 0.70985 0.0
C1232 C 0.35037 0.25623 0.68358 0.0
C1233 C 0.30456 0.25517 0.75463 0.0
C1234 C 0.30738 0.25473 0.68924 0.0
C1235 C 0.32237 0.25502 0.66785 0.0
C1236 C 0.29499 0.25381 0.64223 0.0
C1237 C 0.28877 0.25593 0.78094 0.0
C1238 C 0.28438 0.24194 0.64483 0.0
C1239 C 0.27282 0.24099 0.60042 0.0
C1240 C 0.27177 0.25173 0.55157 0.0
C1241 C 0.28256 0.26345 0.54831 0.0
C1242 C 0.29404 0.26449 0.59323 0.0
H1243 H 0.28865 0.26105 0.8286 0.0
H1244 H 0.2812 0.26269 0.75019 0.0
H1245 H 0.28417 0.2442 0.78483 0.0
H1246 H 0.2851 0.23328 0.68089 0.0
H1247 H 0.2648 0.23171 0.60405 0.0
H1248 H 0.77919 0.23056 0.9444 0.0
H1249 H 0.7994 0.22969 0.86629 0.0
H1250 H 0.78353 0.27197 0.78682 0.0
H1251 H 0.76307 0.27268 0.86331 0.0
H1252 H 0.79004 0.25213 0.69681 0.0
H1253 H 0.83776 0.25402 0.86453 0.0
H1254 H 0.82523 0.2383 0.87793 0.0
H1255 H 0.81853 0.2575 0.88822 0.0
C1256 C 0.78004 0.23971 0.91048 0.0
C1257 C 0.76955 0.25175 0.91051 0.0
C1258 C 0.79167 0.23925 0.86602 0.0
C1259 C 0.79321 0.25092 0.82132 0.0
C1260 C 0.78265 0.26286 0.82095 0.0
H1261 H 0.87227 0.27211 0.59973 0.0
H1262 H 0.85185 0.27087 0.67631 0.0
C1263 C 0.77095 0.26326 0.86491 0.0
C1264 C 0.8056 0.25065 0.7741 0.0
H1265 H 0.84393 0.24944 0.75795 0.0
C1266 C 0.80183 0.25156 0.71021 0.0
C1267 C 0.821 0.25011 0.7915 0.0
C1268 C 0.82591 0.25008 0.85926 0.0
C1269 C 0.81299 0.25194 0.66337 0.0
C1270 C 0.82838 0.25095 0.68067 0.0
C1271 C 0.83214 0.25004 0.74456 0.0
C1272 C 0.84079 0.25148 0.63359 0.0
C1273 C 0.80815 0.2539 0.596 0.0
C1274 C 0.84153 0.24088 0.58425 0.0
C1275 C 0.85315 0.24167 0.53978 0.0
C1276 C 0.8644 0.25292 0.54436 0.0
C1277 C 0.86379 0.26331 0.5946 0.0
C1278 C 0.85212 0.2626 0.63859 0.0
H1279 H 0.79661 0.25878 0.59253 0.0
H1280 H 0.81605 0.26145 0.57011 0.0
H1281 H 0.80802 0.24261 0.57261 0.0
H1282 H 0.83317 0.23194 0.58025 0.0
H1283 H 0.85336 0.23339 0.50211 0.0
H1284 H 0.77879 0.76987 0.0364 0.0
H1285 H 0.79935 0.77107 0.1128 0.0
H1286 H 0.78077 0.73222 0.20994 0.0
H1287 H 0.75996 0.73126 0.13514 0.0
H1288 H 0.78938 0.75335 0.29127 0.0
H1289 H 0.83569 0.74394 0.12101 0.0
H1290 H 0.82436 0.76026 0.10249 0.0
H1291 H 0.81612 0.7415 0.10037 0.0
C1292 C 0.7791 0.76156 0.07394 0.0
C1293 C 0.76777 0.75041 0.07935 0.0
C1294 C 0.79093 0.76219 0.11741 0.0
C1295 C 0.79182 0.75154 0.16651 0.0
C1296 C 0.7804 0.74053 0.17238 0.0
H1297 H 0.87086 0.73 0.38785 0.0
H1298 H 0.84994 0.73073 0.31364 0.0
C1299 C 0.7685 0.73998 0.12941 0.0
C1300 C 0.80448 0.7519 0.21239 0.0
H1301 H 0.84289 0.75059 0.22459 0.0
C1302 C 0.80108 0.75273 0.27667 0.0
C1303 C 0.81977 0.75086 0.19351 0.0
C1304 C 0.82423 0.74893 0.12566 0.0
C1305 C 0.81249 0.75258 0.32246 0.0
C1306 C 0.82779 0.75203 0.30347 0.0
C1307 C 0.83119 0.75117 0.23921 0.0
C1308 C 0.84045 0.75174 0.34937 0.0
C1309 C 0.80796 0.75252 0.39071 0.0
C1310 C 0.84225 0.7634 0.39397 0.0
C1311 C 0.85415 0.76292 0.43711 0.0
C1312 C 0.86465 0.7509 0.43589 0.0
C1313 C 0.86298 0.73941 0.39037 0.0
C1314 C 0.85101 0.73982 0.34773 0.0
H1315 H 0.79616 0.74855 0.39712 0.0
H1316 H 0.81552 0.74508 0.41878 0.0
H1317 H 0.80873 0.76429 0.40949 0.0
H1318 H 0.83451 0.77294 0.39518 0.0
H1319 H 0.85519 0.77205 0.47104 0.0
H1320 H 0.55311 0.53402 0.72906 0.0
H1321 H 0.55294 0.51381 0.64971 0.0
H1322 H 0.58511 0.5391 0.53921 0.0
H1323 H 0.5856 0.55911 0.61859 0.0
H1324 H 0.54536 0.51421 0.52561 0.0
H1325 H 0.60538 0.49791 0.55161 0.0
H1326 H 0.59586 0.51009 0.60713 0.0
H1327 H 0.60293 0.51778 0.53459 0.0
C1328 C 0.56019 0.53525 0.68798 0.0
C1329 C 0.56949 0.54813 0.68061 0.0
C1330 C 0.56007 0.5237 0.6426 0.0
C1331 C 0.56923 0.52478 0.58901 0.0
C1332 C 0.57824 0.53779 0.58088 0.0
H1333 H 0.56043 0.47243 0.24275 0.0
H1334 H 0.55939 0.49203 0.32441 0.0
C1335 C 0.57845 0.54928 0.6263 0.0
C1336 C 0.56928 0.51241 0.54124 0.0
H1337 H 0.59247 0.48778 0.46309 0.0
C1338 C 0.55564 0.50837 0.51213 0.0
C1339 C 0.58266 0.50462 0.52427 0.0
C1340 C 0.59751 0.50769 0.55646 0.0
C1341 C 0.55507 0.49699 0.46572 0.0
C1342 C 0.56857 0.48965 0.4469 0.0
C1343 C 0.58214 0.49351 0.47689 0.0
C1344 C 0.56888 0.47774 0.39717 0.0
C1345 C 0.53997 0.49273 0.43826 0.0
C1346 C 0.57492 0.46328 0.41022 0.0
C1347 C 0.57573 0.45215 0.36344 0.0
C1348 C 0.57051 0.45519 0.30239 0.0
C1349 C 0.56444 0.46966 0.28934 0.0
C1350 C 0.56374 0.48086 0.33615 0.0
H1351 H 0.53054 0.49605 0.46978 0.0
H1352 H 0.53842 0.49881 0.3931 0.0
H1353 H 0.53924 0.48029 0.42921 0.0
H1354 H 0.579 0.4606 0.45681 0.0
H1355 H 0.58042 0.44112 0.37533 0.0
H1356 H 0.08679 0.54014 0.77729 0.0
H1357 H 0.08814 0.52007 0.85688 0.0
H1358 H 0.04878 0.53862 0.94811 0.0
H1359 H 0.04766 0.55896 0.87018 0.0
H1360 H 0.06935 0.53119 0.03235 0.0
H1361 H 0.0623 0.48272 0.86822 0.0
H1362 H 0.07827 0.49444 0.84977 0.0
H1363 H 0.05954 0.50224 0.84437 0.0
C1364 C 0.07839 0.53991 0.81419 0.0
C1365 C 0.06706 0.55111 0.81706 0.0
C1366 C 0.07912 0.52837 0.8595 0.0
C1367 C 0.06838 0.52761 0.9079 0.0
C1368 C 0.05717 0.53889 0.91116 0.0
H1369 H 0.04685 0.4492 0.13629 0.0
H1370 H 0.04793 0.46986 0.05992 0.0
C1371 C 0.05653 0.55052 0.86639 0.0
C1372 C 0.0688 0.51522 0.95566 0.0
H1373 H 0.06826 0.47651 0.97351 0.0
C1374 C 0.0691 0.51923 0.01947 0.0
C1375 C 0.06826 0.4996 0.939 0.0
C1376 C 0.06692 0.49446 0.87167 0.0
C1377 C 0.06885 0.5081 0.06692 0.0
C1378 C 0.06875 0.49247 0.0502 0.0
C1379 C 0.06849 0.48847 0.98641 0.0
C1380 C 0.0682 0.48006 0.09785 0.0
C1381 C 0.06818 0.51325 0.1344 0.0
C1382 C 0.07931 0.47877 0.14459 0.0
C1383 C 0.07862 0.46701 0.18902 0.0
C1384 C 0.06695 0.45616 0.18695 0.0
C1385 C 0.05599 0.45736 0.13948 0.0
C1386 C 0.05661 0.46917 0.09559 0.0
H1387 H 0.06404 0.52517 0.13849 0.0
H1388 H 0.06071 0.50575 0.16257 0.0
H1389 H 0.07967 0.51282 0.15485 0.0
H1390 H 0.0886 0.48677 0.1464 0.0
H1391 H 0.08733 0.46633 0.2245 0.0
H1392 H 0.08394 0.12828 0.98947 0.0
H1393 H 0.08293 0.1215 0.87782 0.0
H1394 H 0.08458 0.07379 0.92655 0.0
H1395 H 0.08485 0.08033 0.03684 0.0
H1396 H 0.10366 0.10506 0.80812 0.0
H1397 H 0.04834 0.07567 0.81114 0.0
H1398 H 0.0547 0.08758 0.87486 0.0
H1399 H 0.06122 0.06821 0.86829 0.0
C1400 C 0.08394 0.11637 0.97622 0.0
C1401 C 0.08459 0.10489 0.02208 0.0
C1402 C 0.08343 0.11252 0.91264 0.0
C1403 C 0.08344 0.09714 0.89429 0.0
C1404 C 0.08426 0.08571 0.93986 0.0
H1405 H 0.1067 0.06152 0.52704 0.0
H1406 H 0.10543 0.06642 0.64011 0.0
C1407 C 0.08469 0.08952 0.00306 0.0
C1408 C 0.08308 0.09291 0.82746 0.0
H1409 H 0.06373 0.07159 0.72062 0.0
C1410 C 0.09489 0.09784 0.78876 0.0
C1411 C 0.07155 0.08356 0.80256 0.0
C1412 C 0.05816 0.07857 0.84124 0.0
C1413 C 0.09563 0.09344 0.72572 0.0
C1414 C 0.08441 0.08361 0.7015 0.0
C1415 C 0.07245 0.0789 0.73989 0.0
C1416 C 0.0844 0.07889 0.63522 0.0
C1417 C 0.10825 0.09956 0.68535 0.0
C1418 C 0.07259 0.08357 0.59615 0.0
C1419 C 0.07319 0.08063 0.5321 0.0
C1420 C 0.08563 0.07297 0.50609 0.0
C1421 C 0.09699 0.06744 0.5459 0.0
C1422 C 0.09636 0.07037 0.6102 0.0
H1423 H 0.11381 0.1096 0.7071 0.0
H1424 H 0.1169 0.09055 0.67895 0.0
H1425 H 0.104 0.10288 0.63832 0.0
H1426 H 0.06318 0.09002 0.61486 0.0
H1427 H 0.06415 0.08475 0.50251 0.0
H1428 H 0.24031 0.75994 0.29344 0.0
H1429 H 0.2454 0.76353 0.182 0.0
H1430 H 0.19871 0.77512 0.1511 0.0
H1431 H 0.19355 0.77168 0.26373 0.0
H1432 H 0.22985 0.74832 0.07698 0.0
H1433 H 0.22497 0.81167 0.07871 0.0
H1434 H 0.22829 0.80078 0.14929 0.0
H1435 H 0.20994 0.80083 0.11403 0.0
C1436 C 0.23114 0.76332 0.26299 0.0
C1437 C 0.21657 0.76573 0.28706 0.0
C1438 C 0.23404 0.76529 0.19945 0.0
C1439 C 0.22247 0.76978 0.15894 0.0
C1440 C 0.20779 0.77183 0.18221 0.0
H1441 H 0.22303 0.78845 0.7627 0.0
H1442 H 0.21744 0.7877 0.87475 0.0
C1443 C 0.20484 0.76975 0.24607 0.0
C1444 C 0.22595 0.77224 0.09227 0.0
H1445 H 0.2309 0.8 0.98218 0.0
C1446 C 0.23005 0.75959 0.05602 0.0
C1447 C 0.22621 0.78699 0.06574 0.0
C1448 C 0.22221 0.80091 0.10377 0.0
C1449 C 0.23434 0.76128 0.99324 0.0
C1450 C 0.23489 0.77607 0.96687 0.0
C1451 C 0.23062 0.78872 0.003 0.0
C1452 C 0.23917 0.77846 0.90081 0.0
C1453 C 0.23796 0.7472 0.95541 0.0
C1454 C 0.25349 0.77416 0.87898 0.0
C1455 C 0.25666 0.77444 0.81485 0.0
C1456 C 0.24555 0.77906 0.77199 0.0
C1457 C 0.23165 0.78446 0.79464 0.0
C1458 C 0.22848 0.78415 0.85857 0.0
H1459 H 0.23355 0.73669 0.978 0.0
H1460 H 0.23317 0.74803 0.90743 0.0
H1461 H 0.25038 0.74603 0.95117 0.0
H1462 H 0.26198 0.77003 0.91129 0.0
H1463 H 0.26746 0.77026 0.79856 0.0
H1464 H 0.55381 0.95073 0.05671 0.0
H1465 H 0.55255 0.94456 0.16918 0.0
H1466 H 0.5314 0.90158 0.12535 0.0
H1467 H 0.53257 0.90772 0.01353 0.0
H1468 H 0.5191 0.91954 0.2348 0.0
H1469 H 0.58099 0.90857 0.23548 0.0
H1470 H 0.57478 0.92641 0.2027 0.0
H1471 H 0.56999 0.90889 0.1642 0.0
C1472 C 0.54861 0.94015 0.07148 0.0
C1473 C 0.54349 0.92959 0.02694 0.0
C1474 C 0.54797 0.9366 0.1353 0.0
C1475 C 0.54206 0.92254 0.15493 0.0
C1476 C 0.53607 0.91243 0.11076 0.0
H1477 H 0.55632 0.87687 0.51373 0.0
H1478 H 0.55252 0.88161 0.40167 0.0
C1479 C 0.53682 0.91591 0.04715 0.0
C1480 C 0.54309 0.91782 0.22096 0.0
H1481 H 0.56825 0.90645 0.33239 0.0
C1482 C 0.52981 0.91666 0.25631 0.0
C1483 C 0.55708 0.9138 0.24795 0.0
C1484 C 0.57156 0.91434 0.21074 0.0
C1485 C 0.53025 0.91198 0.31912 0.0
C1486 C 0.5443 0.90841 0.34664 0.0
C1487 C 0.55752 0.90917 0.31075 0.0
C1488 C 0.5457 0.90508 0.414 0.0
C1489 C 0.51573 0.91094 0.3558 0.0
C1490 C 0.54324 0.91677 0.4573 0.0
C1491 C 0.54559 0.91421 0.52087 0.0
C1492 C 0.55044 0.89986 0.54274 0.0
C1493 C 0.55273 0.88808 0.49889 0.0
C1494 C 0.55047 0.89072 0.43489 0.0
H1495 H 0.50572 0.91062 0.32451 0.0
H1496 H 0.51568 0.90063 0.38604 0.0
H1497 H 0.51471 0.92108 0.38667 0.0
H1498 H 0.53985 0.92802 0.4417 0.0
H1499 H 0.54396 0.92373 0.55218 0.0
H1500 H 0.37486 0.23431 0.27186 0.0
H1501 H 0.38124 0.23288 0.38372 0.0
H1502 H 0.42448 0.21343 0.33712 0.0
H1503 H 0.41814 0.21469 0.22569 0.0
H1504 H 0.39264 0.20731 0.46444 0.0
H1505 H 0.4331 0.25515 0.42843 0.0
H1506 H 0.41845 0.25069 0.3726 0.0
H1507 H 0.43499 0.23896 0.37727 0.0
C1508 C 0.38556 0.2294 0.28572 0.0
C1509 C 0.39613 0.22489 0.24037 0.0
C1510 C 0.3892 0.22863 0.34934 0.0
C1511 C 0.40342 0.22332 0.36807 0.0
C1512 C 0.41356 0.21781 0.32318 0.0
H1513 H 0.44696 0.23189 0.73474 0.0
H1514 H 0.44235 0.22645 0.62325 0.0
C1515 C 0.40995 0.21859 0.25974 0.0
C1516 C 0.40812 0.2247 0.43397 0.0
H1517 H 0.43099 0.2453 0.53059 0.0
C1518 C 0.40107 0.21554 0.47907 0.0
C1519 C 0.41919 0.2354 0.45232 0.0
C1520 C 0.42685 0.24571 0.40536 0.0
C1521 C 0.40474 0.21691 0.54271 0.0
C1522 C 0.41546 0.22798 0.56134 0.0
C1523 C 0.4228 0.23684 0.51595 0.0
C1524 C 0.41843 0.23129 0.62798 0.0
C1525 C 0.39711 0.20652 0.58935 0.0
C1526 C 0.40661 0.23626 0.66647 0.0
C1527 C 0.40922 0.23934 0.72948 0.0
C1528 C 0.42373 0.23768 0.75505 0.0
C1529 C 0.4357 0.23327 0.71597 0.0
C1530 C 0.43306 0.23008 0.65268 0.0
H1531 H 0.39311 0.19585 0.56672 0.0
H1532 H 0.40482 0.20349 0.62843 0.0
H1533 H 0.38713 0.21241 0.60931 0.0
H1534 H 0.39536 0.23777 0.64772 0.0
H1535 H 0.39986 0.24309 0.75827 0.0
H1536 H 0.1048 0.90504 0.49316 0.0
H1537 H 0.10688 0.8989 0.38182 0.0
H1538 H 0.08787 0.94269 0.33462 0.0
H1539 H 0.08559 0.94884 0.44646 0.0
H1540 H 0.08051 0.89807 0.30565 0.0
H1541 H 0.12401 0.93758 0.21197 0.0
H1542 H 0.12255 0.93291 0.29431 0.0
H1543 H 0.10974 0.94636 0.25976 0.0
C1544 C 0.10118 0.91341 0.45905 0.0
C1545 C 0.09478 0.92732 0.47823 0.0
C1546 C 0.10249 0.90993 0.3956 0.0
C1547 C 0.09757 0.92036 0.35032 0.0
C1548 C 0.09193 0.9346 0.36909 0.0
H1549 H 0.07792 0.92212 0.96049 0.0
H1550 H 0.08235 0.92676 0.07166 0.0
C1551 C 0.09062 0.9381 0.43277 0.0
C1552 C 0.09669 0.91562 0.28416 0.0
H1553 H 0.1089 0.92446 0.13713 0.0
C1554 C 0.08683 0.9037 0.2687 0.0
C1555 C 0.10495 0.92305 0.23658 0.0
C1556 C 0.11601 0.93562 0.2513 0.0
C1557 C 0.08452 0.89937 0.20624 0.0
C1558 C 0.09258 0.90698 0.15839 0.0
C1559 C 0.10276 0.91865 0.17409 0.0
C1560 C 0.08985 0.90378 0.09143 0.0
C1561 C 0.073 0.88718 0.19191 0.0
C1562 C 0.09254 0.88927 0.06588 0.0
C1563 C 0.08989 0.88656 0.00222 0.0
C1564 C 0.08478 0.89839 0.96337 0.0
C1565 C 0.08207 0.91286 0.98929 0.0
C1566 C 0.08457 0.91552 0.05271 0.0
H1567 H 0.0654 0.88501 0.2324 0.0
H1568 H 0.06601 0.89041 0.1508 0.0
H1569 H 0.07891 0.87637 0.18065 0.0
H1570 H 0.09686 0.88014 0.09492 0.0
H1571 H 0.0922 0.87538 0.983 0.0
H1572 H 0.3736 0.76904 0.71453 0.0
H1573 H 0.37983 0.77057 0.60254 0.0
H1574 H 0.42152 0.79342 0.64751 0.0
H1575 H 0.4153 0.79208 0.75907 0.0
H1576 H 0.38927 0.7967 0.52039 0.0
H1577 H 0.43321 0.75223 0.55796 0.0
H1578 H 0.41827 0.75568 0.61374 0.0
H1579 H 0.43388 0.76863 0.60847 0.0
C1580 C 0.38389 0.77471 0.70029 0.0
C1581 C 0.3941 0.78018 0.74528 0.0
C1582 C 0.38746 0.77552 0.63658 0.0
C1583 C 0.40125 0.78184 0.61736 0.0
C1584 C 0.41095 0.78827 0.66183 0.0
H1585 H 0.4456 0.77619 0.25124 0.0
H1586 H 0.44047 0.78116 0.36279 0.0
C1587 C 0.40741 0.78745 0.72536 0.0
C1588 C 0.40601 0.78064 0.55143 0.0
H1589 H 0.43043 0.76171 0.45546 0.0
C1590 C 0.3983 0.78912 0.50602 0.0
C1591 C 0.41787 0.77079 0.53341 0.0
C1592 C 0.42627 0.76121 0.58071 0.0
C1593 C 0.4021 0.78793 0.44242 0.0
C1594 C 0.41365 0.77772 0.42411 0.0
C1595 C 0.4216 0.76952 0.46981 0.0
C1596 C 0.41696 0.7746 0.35754 0.0
C1597 C 0.39373 0.79764 0.3955 0.0
C1598 C 0.40558 0.76882 0.31872 0.0
C1599 C 0.40848 0.76602 0.25568 0.0
C1600 C 0.42286 0.76879 0.2304 0.0
C1601 C 0.43445 0.77398 0.26981 0.0
C1602 C 0.4315 0.77689 0.33312 0.0
H1603 H 0.38894 0.80801 0.41785 0.0
H1604 H 0.40121 0.80119 0.35634 0.0
H1605 H 0.38422 0.79098 0.3757 0.0
H1606 H 0.39444 0.76646 0.33719 0.0
H1607 H 0.39944 0.76167 0.22658 0.0
H1608 H 0.54846 0.12903 0.48846 0.0
H1609 H 0.54559 0.12354 0.60124 0.0
H1610 H 0.55634 0.07631 0.56694 0.0
H1611 H 0.55938 0.08173 0.45554 0.0
H1612 H 0.52472 0.09955 0.65366 0.0
H1613 H 0.58526 0.09073 0.71096 0.0
H1614 H 0.57912 0.10149 0.64335 0.0
H1615 H 0.57861 0.08102 0.64207 0.0
C1616 C 0.55035 0.11756 0.50546 0.0
C1617 C 0.55399 0.10578 0.46357 0.0
C1618 C 0.54864 0.11443 0.56941 0.0
C1619 C 0.55083 0.09955 0.59192 0.0
C1620 C 0.55471 0.08787 0.55029 0.0
H1621 H 0.55106 0.05425 0.95159 0.0
H1622 H 0.55051 0.05964 0.83872 0.0
C1623 C 0.55631 0.09096 0.48672 0.0
C1624 C 0.5487 0.09592 0.6587 0.0
H1625 H 0.56746 0.08307 0.78762 0.0
C1626 C 0.53404 0.09607 0.68333 0.0
C1627 C 0.56091 0.09122 0.6965 0.0
C1628 C 0.5769 0.09119 0.67222 0.0
C1629 C 0.53122 0.09133 0.74503 0.0
C1630 C 0.54344 0.0866 0.78288 0.0
C1631 C 0.55811 0.08656 0.75816 0.0
C1632 C 0.5415 0.08243 0.8494 0.0
C1633 C 0.51518 0.0911 0.76867 0.0
C1634 C 0.53631 0.09333 0.89224 0.0
C1635 C 0.53654 0.09025 0.95628 0.0
C1636 C 0.54214 0.07627 0.97861 0.0
C1637 C 0.54662 0.06506 0.9355 0.0
C1638 C 0.54639 0.06816 0.87125 0.0
H1639 H 0.50695 0.09063 0.72942 0.0
H1640 H 0.51319 0.0812 0.80009 0.0
H1641 H 0.51297 0.10168 0.79568 0.0
H1642 H 0.53272 0.10449 0.87642 0.0
H1643 H 0.53277 0.09899 0.98847 0.0
H1644 H 0.20124 0.25162 0.73216 0.0
H1645 H 0.20808 0.25009 0.84321 0.0
H1646 H 0.23631 0.21118 0.80451 0.0
H1647 H 0.22944 0.21256 0.69365 0.0
H1648 H 0.2057 0.22564 0.93134 0.0
H1649 H 0.26521 0.24251 0.88589 0.0
H1650 H 0.25046 0.24496 0.82844 0.0
H1651 H 0.25852 0.22645 0.84157 0.0
C1652 C 0.20866 0.24257 0.74751 0.0
C1653 C 0.21495 0.23231 0.70417 0.0
C1654 C 0.21264 0.24177 0.81078 0.0
C1655 C 0.22295 0.23074 0.83146 0.0
C1656 C 0.22862 0.22 0.78898 0.0
H1657 H 0.26122 0.21449 0.20279 0.0
H1658 H 0.25561 0.21311 0.0902 0.0
C1659 C 0.22467 0.22079 0.72582 0.0
C1660 C 0.22801 0.23068 0.89732 0.0
H1661 H 0.25883 0.23631 0.99044 0.0
C1662 C 0.21731 0.22795 0.94435 0.0
C1663 C 0.24319 0.23366 0.91376 0.0
C1664 C 0.25502 0.23719 0.86492 0.0
C1665 C 0.22139 0.22813 0.00777 0.0
C1666 C 0.23649 0.23137 0.02426 0.0
C1667 C 0.24727 0.23383 0.97728 0.0
C1668 C 0.24107 0.23292 0.09036 0.0
C1669 C 0.20952 0.22484 0.05671 0.0
C1670 C 0.2352 0.24483 0.12656 0.0
C1671 C 0.23843 0.24569 0.19033 0.0
C1672 C 0.24761 0.23465 0.21898 0.0
C1673 C 0.25416 0.22317 0.18188 0.0
C1674 C 0.2509 0.22232 0.11782 0.0
H1675 H 0.19956 0.21898 0.0363 0.0
H1676 H 0.21418 0.21766 0.09497 0.0
H1677 H 0.20564 0.23575 0.0776 0.0
H1678 H 0.22784 0.25329 0.10569 0.0
H1679 H 0.23349 0.25482 0.21761 0.0
H1680 H 0.9015 0.24864 0.21034 0.0
H1681 H 0.90673 0.24967 0.0979 0.0
H1682 H 0.88077 0.29109 0.08309 0.0
H1683 H 0.87577 0.29031 0.19619 0.0
H1684 H 0.88682 0.25085 0.99319 0.0
H1685 H 0.92298 0.30251 0.01334 0.0
H1686 H 0.91759 0.29124 0.08055 0.0
H1687 H 0.90428 0.30406 0.04531 0.0
C1688 C 0.89689 0.25795 0.18309 0.0
C1689 C 0.88839 0.26949 0.21208 0.0
C1690 C 0.89982 0.25848 0.11893 0.0
C1691 C 0.89435 0.27059 0.08265 0.0
C1692 C 0.88529 0.28179 0.11072 0.0
H1693 H 0.90803 0.29116 0.68846 0.0
H1694 H 0.90087 0.29199 0.7993 0.0
C1695 C 0.88231 0.28124 0.17507 0.0
C1696 C 0.89859 0.2716 0.01582 0.0
H1697 H 0.91955 0.29231 0.91196 0.0
C1698 C 0.89394 0.25992 0.97529 0.0
C1699 C 0.9079 0.28346 0.99296 0.0
C1700 C 0.91361 0.29599 0.03522 0.0
C1701 C 0.89837 0.25979 0.91221 0.0
C1702 C 0.90789 0.2715 0.88966 0.0
C1703 C 0.91233 0.28332 0.92982 0.0
C1704 C 0.91326 0.27165 0.8242 0.0
C1705 C 0.89273 0.24722 0.86996 0.0
C1706 C 0.923 0.26021 0.80234 0.0
C1707 C 0.92712 0.25972 0.73915 0.0
C1708 C 0.92151 0.27064 0.69698 0.0
C1709 C 0.91233 0.28248 0.71981 0.0
C1710 C 0.90828 0.28301 0.78298 0.0
H1711 H 0.88299 0.24106 0.89083 0.0
H1712 H 0.88931 0.25185 0.82363 0.0
H1713 H 0.90194 0.23886 0.86208 0.0
H1714 H 0.92711 0.25147 0.83389 0.0
H1715 H 0.93412 0.25043 0.72282 0.0
H1716 H 0.75497 0.71224 0.73398 0.0
H1717 H 0.74947 0.71121 0.62131 0.0
H1718 H 0.72425 0.75311 0.63599 0.0
H1719 H 0.72976 0.75424 0.7481 0.0
H1720 H 0.70846 0.72822 0.57975 0.0
H1721 H 0.76504 0.7378 0.4734 0.0
H1722 H 0.76389 0.72336 0.53314 0.0
H1723 H 0.76075 0.74296 0.55344 0.0
C1724 C 0.74856 0.72139 0.71281 0.0
C1725 C 0.74269 0.73327 0.74975 0.0
C1726 C 0.74541 0.72078 0.6486 0.0
C1727 C 0.73648 0.7321 0.62059 0.0
C1728 C 0.73111 0.74424 0.65694 0.0
H1729 H 0.69692 0.75311 0.26322 0.0
H1730 H 0.70309 0.75087 0.37462 0.0
C1731 C 0.73423 0.74485 0.72088 0.0
C1732 C 0.73183 0.7309 0.55437 0.0
H1733 H 0.74494 0.73253 0.40424 0.0
C1734 C 0.71642 0.72913 0.54126 0.0
C1735 C 0.74229 0.73199 0.50463 0.0
C1736 C 0.75892 0.73424 0.51647 0.0
C1737 C 0.71114 0.72851 0.47941 0.0
C1738 C 0.72155 0.72997 0.42961 0.0
C1739 C 0.73701 0.73142 0.44271 0.0
C1740 C 0.71664 0.73051 0.36347 0.0
C1741 C 0.6945 0.72619 0.46795 0.0
C1742 C 0.72219 0.7198 0.32053 0.0
C1743 C 0.7187 0.72109 0.25701 0.0
C1744 C 0.70967 0.73316 0.23526 0.0
C1745 C 0.70371 0.74358 0.2787 0.0
C1746 C 0.70725 0.74232 0.3423 0.0
H1747 H 0.68884 0.721 0.50925 0.0
H1748 H 0.68914 0.7374 0.45889 0.0
H1749 H 0.69255 0.71879 0.42649 0.0
H1750 H 0.72945 0.71061 0.33605 0.0
H1751 H 0.72328 0.71278 0.22469 0.0
H1752 H 0.69092 0.27181 0.73443 0.0
H1753 H 0.69613 0.27475 0.62156 0.0
H1754 H 0.74267 0.26271 0.65342 0.0
H1755 H 0.73754 0.2596 0.76497 0.0
H1756 H 0.72021 0.29535 0.56863 0.0
H1757 H 0.72729 0.23405 0.50928 0.0
H1758 H 0.71697 0.24042 0.5775 0.0
H1759 H 0.73722 0.24038 0.57799 0.0
C1760 C 0.70218 0.26964 0.71691 0.0
C1761 C 0.71385 0.26559 0.75818 0.0
C1762 C 0.70516 0.27139 0.65288 0.0
C1763 C 0.71975 0.26887 0.62966 0.0
C1764 C 0.73132 0.2646 0.67065 0.0
H1765 H 0.76457 0.26808 0.27088 0.0
H1766 H 0.75909 0.26872 0.38357 0.0
C1767 C 0.72839 0.26295 0.73431 0.0
C1768 C 0.72323 0.27104 0.56282 0.0
H1769 H 0.73536 0.25198 0.43314 0.0
C1770 C 0.72339 0.2859 0.53861 0.0
C1771 C 0.72751 0.25865 0.52454 0.0
C1772 C 0.72715 0.24244 0.5483 0.0
C1773 C 0.7281 0.28874 0.47692 0.0
C1774 C 0.73248 0.27634 0.4387 0.0
C1775 C 0.73215 0.26147 0.46292 0.0
C1776 C 0.73675 0.2783 0.37238 0.0
C1777 C 0.72869 0.30498 0.45369 0.0
C1778 C 0.72615 0.28382 0.32934 0.0
C1779 C 0.72929 0.28354 0.26538 0.0
C1780 C 0.74303 0.27757 0.24337 0.0
C1781 C 0.75396 0.27281 0.28672 0.0
C1782 C 0.7508 0.27309 0.35086 0.0
H1783 H 0.72923 0.31324 0.49313 0.0
H1784 H 0.73858 0.30682 0.42265 0.0
H1785 H 0.71833 0.30744 0.42633 0.0
H1786 H 0.71517 0.28767 0.34493 0.0
H1787 H 0.72077 0.28753 0.23298 0.0
H1788 H 0.89704 0.74225 0.2871 0.0
H1789 H 0.89205 0.73877 0.17562 0.0
H1790 H 0.9384 0.72568 0.14595 0.0
H1791 H 0.94347 0.72899 0.2587 0.0
H1792 H 0.90866 0.75378 0.07203 0.0
H1793 H 0.91078 0.69025 0.07112 0.0
H1794 H 0.90753 0.70106 0.14198 0.0
H1795 H 0.92603 0.70044 0.1081 0.0
C1796 C 0.90616 0.73853 0.25697 0.0
C1797 C 0.9206 0.73569 0.28138 0.0
C1798 C 0.9033 0.73663 0.19341 0.0
C1799 C 0.91481 0.7318 0.15322 0.0
C1800 C 0.92936 0.72925 0.17685 0.0
H1801 H 0.91345 0.71459 0.75584 0.0
H1802 H 0.9192 0.71462 0.86779 0.0
C1803 C 0.93227 0.73125 0.24076 0.0
C1804 C 0.9114 0.72966 0.0864 0.0
H1805 H 0.90518 0.70242 0.97533 0.0
C1806 C 0.90794 0.74258 0.05063 0.0
C1807 C 0.91048 0.715 0.05935 0.0
C1808 C 0.91381 0.70083 0.09691 0.0
C1809 C 0.90358 0.74124 0.98786 0.0
C1810 C 0.90232 0.72656 0.96102 0.0
C1811 C 0.906 0.71363 -0.00342 0.0
C1812 C 0.89785 0.72455 0.89506 0.0
C1813 C 0.90062 0.75557 0.95056 0.0
C1814 C 0.88368 0.72949 0.874 0.0
C1815 C 0.88042 0.72963 0.80997 0.0
C1816 C 0.89131 0.7248 0.76651 0.0
C1817 C 0.90503 0.71876 0.78832 0.0
C1818 C 0.90828 0.71865 0.85216 0.0
H1819 H 0.9055 0.76581 0.97352 0.0
H1820 H 0.90537 0.75462 0.90253 0.0
H1821 H 0.88826 0.75731 0.9464 0.0
H1822 H 0.8754 0.73381 0.90686 0.0
H1823 H 0.86977 0.73429 0.79428 0.0
H1824 H 0.60959 0.59644 0.54771 0.0
H1825 H 0.61364 0.59116 0.43623 0.0
H1826 H 0.5692 0.60857 0.3949 0.0
H1827 H 0.56543 0.61437 0.50608 0.0
H1828 H 0.5992 0.572 0.36463 0.0
H1829 H 0.59299 0.62952 0.262 0.0
H1830 H 0.59486 0.62651 0.34529 0.0
H1831 H 0.57678 0.62445 0.30765 0.0
C1832 C 0.60082 0.59935 0.51448 0.0
C1833 C 0.58725 0.60589 0.53511 0.0
C1834 C 0.60312 0.59632 0.45096 0.0
C1835 C 0.59181 0.59965 0.40699 0.0
C1836 C 0.57827 0.60632 0.42758 0.0
H1837 H 0.57849 0.55594 0.04827 0.0
H1838 H 0.5801 0.56205 0.16023 0.0
C1839 C 0.57609 0.60959 0.49104 0.0
C1840 C 0.5938 0.59524 0.3404 0.0
H1841 H 0.59068 0.6085 0.19074 0.0
C1842 C 0.59752 0.58003 0.32657 0.0
C1843 C 0.59187 0.60575 0.29076 0.0
C1844 C 0.58907 0.62249 0.3022 0.0
C1845 C 0.59897 0.57496 0.26448 0.0
C1846 C 0.59608 0.58525 0.21484 0.0
C1847 C 0.59275 0.60054 0.22872 0.0
C1848 C 0.59616 0.58047 0.1481 0.0
C1849 C 0.60377 0.55869 0.25302 0.0
C1850 C 0.60447 0.58886 0.10392 0.0
C1851 C 0.60323 0.58561 0.04013 0.0
C1852 C 0.59382 0.57377 0.01943 0.0
C1853 C 0.58598 0.56495 0.06354 0.0
C1854 C 0.58697 0.56841 0.12739 0.0
H1855 H 0.61048 0.55419 0.29294 0.0
H1856 H 0.59359 0.55141 0.24828 0.0
H1857 H 0.61059 0.55764 0.20956 0.0
H1858 H 0.61164 0.5982 0.11869 0.0
H1859 H 0.60941 0.5925 0.00671 0.0
H1860 H 0.04799 0.37644 0.00652 0.0
H1861 H 0.04505 0.3817 0.89371 0.0
H1862 H 0.0567 0.42881 0.92566 0.0
H1863 H 0.05982 0.42363 0.03719 0.0
H1864 H 0.02447 0.40541 0.8416 0.0
H1865 H 0.0848 0.41411 0.7804 0.0
H1866 H 0.07887 0.40369 0.84923 0.0
H1867 H 0.07845 0.42417 0.84893 0.0
C1868 C 0.0501 0.38783 0.98902 0.0
C1869 C 0.05402 0.39965 0.0303 0.0
C1870 C 0.04835 0.39083 0.92502 0.0
C1871 C 0.05075 0.40561 0.90184 0.0
C1872 C 0.05493 0.41732 0.94283 0.0
H1873 H 0.0496 0.4508 0.54254 0.0
H1874 H 0.0493 0.44538 0.65539 0.0
C1875 C 0.05658 0.41437 0.00648 0.0
C1876 C 0.04842 0.40913 0.83512 0.0
H1877 H 0.06674 0.42191 0.70491 0.0
C1878 C 0.03368 0.40889 0.81133 0.0
C1879 C 0.0605 0.4138 0.79651 0.0
C1880 C 0.07657 0.41387 0.81973 0.0
C1881 C 0.03065 0.41354 0.74973 0.0
C1882 C 0.04274 0.4183 0.71117 0.0
C1883 C 0.05749 0.41841 0.73497 0.0
C1884 C 0.04058 0.42247 0.64484 0.0
C1885 C 0.01455 0.41366 0.72691 0.0
C1886 C 0.03545 0.41151 0.60216 0.0
C1887 C 0.03555 0.41461 0.53814 0.0
C1888 C 0.04094 0.42866 0.51574 0.0
C1889 C 0.04532 0.43993 0.55873 0.0
C1890 C 0.04523 0.43682 0.62294 0.0
H1891 H 0.00642 0.41398 0.76655 0.0
H1892 H 0.0124 0.4236 0.6959 0.0
H1893 H 0.01237 0.40312 0.69962 0.0
H1894 H 0.03203 0.4003 0.61808 0.0
H1895 H 0.03186 0.40581 0.506 0.0
H1896 H 0.60583 0.40913 0.44371 0.0
H1897 H 0.60758 0.41549 0.5551 0.0
H1898 H 0.56607 0.39126 0.58988 0.0
H1899 H 0.56427 0.38487 0.4785 0.0
H1900 H 0.58681 0.43245 0.62167 0.0
H1901 H 0.59365 0.37508 0.72733 0.0
H1902 H 0.59641 0.37862 0.64472 0.0
H1903 H 0.57768 0.37654 0.67598 0.0
C1904 C 0.59715 0.40505 0.47522 0.0
C1905 C 0.5849 0.39652 0.45237 0.0
C1906 C 0.59818 0.40866 0.53878 0.0
C1907 C 0.58703 0.40374 0.58075 0.0
C1908 C 0.57497 0.3949 0.55845 0.0
H1909 H 0.56427 0.4189 0.96692 0.0
H1910 H 0.5647 0.41321 0.85478 0.0
C1911 C 0.57396 0.39123 0.49483 0.0
C1912 C 0.58751 0.40867 0.64705 0.0
H1913 H 0.58779 0.3954 0.79736 0.0
C1914 C 0.58716 0.42437 0.66016 0.0
C1915 C 0.58798 0.39809 0.69699 0.0
C1916 C 0.5891 0.38115 0.6857 0.0
C1917 C 0.58683 0.42975 0.7221 0.0
C1918 C 0.58701 0.41915 0.77194 0.0
C1919 C 0.58757 0.40348 0.75885 0.0
C1920 C 0.58628 0.42397 0.83826 0.0
C1921 C 0.58586 0.44669 0.73381 0.0
C1922 C 0.59819 0.43213 0.86574 0.0
C1923 C 0.59799 0.43537 0.92997 0.0
C1924 C 0.58594 0.43037 0.96759 0.0
C1925 C 0.5738 0.42269 0.93926 0.0
C1926 C 0.57401 0.41948 0.87527 0.0
H1927 H 0.58271 0.45308 0.69078 0.0
H1928 H 0.57748 0.44922 0.77111 0.0
H1929 H 0.597 0.45091 0.74989 0.0
H1930 H 0.60787 0.4355 0.83801 0.0
H1931 H 0.60757 0.44114 0.9506 0.0
H1932 H 0.07242 0.58854 0.48355 0.0
H1933 H 0.07164 0.59417 0.37135 0.0
H1934 H 0.0305 0.5683 0.35395 0.0
H1935 H 0.03114 0.5627 0.46667 0.0
H1936 H 0.05329 0.56385 0.25483 0.0
H1937 H 0.03953 0.62463 0.30136 0.0
H1938 H 0.05576 0.61749 0.34238 0.0
H1939 H 0.03742 0.60991 0.35992 0.0
C1940 C 0.06325 0.584 0.45576 0.0
C1941 C 0.05173 0.57538 0.4839 0.0
C1942 C 0.06283 0.58721 0.39183 0.0
C1943 C 0.05086 0.58189 0.355 0.0
C1944 C 0.03977 0.57257 0.38201 0.0
H1945 H 0.02998 0.5947 0.95999 0.0
H1946 H 0.02905 0.5876 0.0708 0.0
C1947 C 0.04019 0.56932 0.44618 0.0
C1948 C 0.04969 0.58665 0.2889 0.0
H1949 H 0.04539 0.61806 0.19625 0.0
C1950 C 0.05144 0.57566 0.24179 0.0
C1951 C 0.04728 0.60208 0.27255 0.0
C1952 C 0.04476 0.61422 0.32161 0.0
C1953 C 0.05131 0.5798 0.17826 0.0
C1954 C 0.04908 0.59529 0.16195 0.0
C1955 C 0.04712 0.60622 0.20914 0.0
C1956 C 0.04899 0.6004 0.09605 0.0
C1957 C 0.054 0.56768 0.12926 0.0
C1958 C 0.06011 0.61051 0.07445 0.0
C1959 C 0.06062 0.61464 0.01124 0.0
C1960 C 0.05001 0.60872 0.96884 0.0
C1961 C 0.03846 0.59919 0.99142 0.0
C1962 C 0.03794 0.5951 0.05454 0.0
H1963 H 0.059 0.55719 0.14981 0.0
H1964 H 0.04309 0.56453 0.10733 0.0
H1965 H 0.0616 0.57195 0.09176 0.0
H1966 H 0.06866 0.61481 0.10611 0.0
H1967 H 0.06971 0.6219 0.99514 0.0
loop_
_geom_bond_atom_site_label_1
_geom_bond_atom_site_label_2
_geom_bond_distance
_geom_bond_site_symmetry_2
_ccdc_geom_bond_type
Co0 N4 2.148 . S
Co0 N10 2.128 . S
Co0 N20 2.194 . S
Co0 O25 2.351 . S
Co0 O26 2.155 . S
Co0 O27 2.096 . S
C1 N4 1.301 . S
C1 N5 1.328 . S
C1 H6 0.930 . S
C2 C3 1.333 . S
C2 N4 1.317 . S
C2 H7 0.930 . S
C3 C2 1.333 . S
C3 N5 1.350 . S
C3 H29 0.931 . S
N4 Co0 2.148 . S
N4 C1 1.301 . S
N4 C2 1.317 . S
N5 C1 1.328 . S
N5 C3 1.350 . S
H6 C1 0.930 . S
H7 C2 0.930 . S
C8 O9 1.224 . S
C8 O27 1.247 . S
O9 C8 1.224 . S
N10 Co0 2.128 . S
N10 C11 1.355 . S
N10 C13 1.311 . S
C11 N10 1.355 . S
C11 C12 1.363 . S
C11 H23 0.929 . S
C12 C11 1.363 . S
C12 N14 1.375 . S
C12 H30 0.931 . S
C13 N10 1.311 . S
C13 N14 1.347 . S
C13 H24 0.929 . S
N14 C12 1.375 . S
N14 C13 1.347 . S
C15 C18 1.365 . S
C15 N20 1.328 . S
C15 H21 0.929 . S
C16 C17 1.362 . S
C16 C19 1.378 . S
C16 H31 0.929 . S
C17 C16 1.362 . S
C17 C18 1.366 . S
C18 C15 1.365 . S
C18 C17 1.366 . S
C18 H32 0.930 . S
C19 C16 1.378 . S
C19 N20 1.315 . S
C19 H22 0.930 . S
N20 Co0 2.194 . S
N20 C15 1.328 . S
N20 C19 1.315 . S
H21 C15 0.929 . S
H22 C19 0.930 . S
H23 C11 0.929 . S
H24 C13 0.929 . S
O25 Co0 2.351 . S
O25 C28 1.244 . S
O26 Co0 2.155 . S
O26 C28 1.240 . S
O27 Co0 2.096 . S
O27 C8 1.247 . S
C28 O25 1.244 . S
C28 O26 1.240 . S
H29 C3 0.931 . S
H30 C12 0.931 . S
H31 C16 0.929 . S
H32 C18 0.930 . S
Co33 N37 2.148 . S
Co33 N43 2.128 . S
Co33 N53 2.194 . S
Co33 O58 2.351 . S
Co33 O59 2.155 . S
Co33 O60 2.096 . S
C34 N37 1.301 . S
C34 N38 1.328 . S
C34 H39 0.930 . S
C35 C36 1.333 . S
C35 N37 1.317 . S
C35 H40 0.930 . S
C36 C35 1.333 . S
C36 N38 1.350 . S
C36 H62 0.931 . S
N37 Co33 2.148 . S
N37 C34 1.301 . S
N37 C35 1.317 . S
N38 C34 1.328 . S
N38 C36 1.350 . S
H39 C34 0.930 . S
H40 C35 0.930 . S
C41 O42 1.224 . S
C41 O60 1.247 . S
O42 C41 1.224 . S
N43 Co33 2.128 . S
N43 C44 1.355 . S
N43 C46 1.311 . S
C44 N43 1.355 . S
C44 C45 1.363 . S
C44 H56 0.929 . S
C45 C44 1.363 . S
C45 N47 1.375 . S
C45 H63 0.931 . S
C46 N43 1.311 . S
C46 N47 1.347 . S
C46 H57 0.929 . S
N47 C45 1.375 . S
N47 C46 1.347 . S
C48 C51 1.365 . S
C48 N53 1.328 . S
C48 H54 0.929 . S
C49 C50 1.362 . S
C49 C52 1.378 . S
C49 H64 0.929 . S
C50 C49 1.362 . S
C50 C51 1.366 . S
C51 C48 1.365 . S
C51 C50 1.366 . S
C51 H65 0.930 . S
C52 C49 1.378 . S
C52 N53 1.315 . S
C52 H55 0.930 . S
N53 Co33 2.194 . S
N53 C48 1.328 . S
N53 C52 1.315 . S
H54 C48 0.929 . S
H55 C52 0.930 . S
H56 C44 0.929 . S
H57 C46 0.929 . S
O58 Co33 2.351 . S
O58 C61 1.244 . S
O59 Co33 2.155 . S
O59 C61 1.240 . S
O60 Co33 2.096 . S
O60 C41 1.247 . S
C61 O58 1.244 . S
C61 O59 1.240 . S
H62 C36 0.931 . S
H63 C45 0.931 . S
H64 C49 0.929 . S
H65 C51 0.930 . S
Co66 N70 2.148 . S
Co66 N76 2.128 . S
Co66 N86 2.194 . S
Co66 O91 2.351 . S
Co66 O92 2.155 . S
Co66 O93 2.096 . S
C67 N70 1.301 . S
C67 N71 1.328 1_556 S
C67 H72 0.930 . S
C68 C69 1.333 . S
C68 N70 1.317 . S
C68 H73 0.930 . S
C69 C68 1.333 . S
C69 N71 1.350 1_556 S
C69 H95 0.931 1_556 S
N70 Co66 2.148 . S
N70 C67 1.301 . S
N70 C68 1.317 . S
N71 C67 1.328 1_554 S
N71 C69 1.350 1_554 S
H72 C67 0.930 . S
H73 C68 0.930 . S
C74 O75 1.224 . S
C74 O93 1.247 . S
O75 C74 1.224 . S
N76 Co66 2.128 . S
N76 C77 1.355 . S
N76 C79 1.311 . S
C77 N76 1.355 . S
C77 C78 1.363 . S
C77 H89 0.929 . S
C78 C77 1.363 . S
C78 N80 1.375 . S
C78 H96 0.931 . S
C79 N76 1.311 . S
C79 N80 1.347 . S
C79 H90 0.929 . S
N80 C78 1.375 . S
N80 C79 1.347 . S
C81 C84 1.365 . S
C81 N86 1.328 . S
C81 H87 0.929 . S
C82 C83 1.362 . S
C82 C85 1.378 . S
C82 H97 0.929 . S
C83 C82 1.362 . S
C83 C84 1.366 . S
C84 C81 1.365 . S
C84 C83 1.366 . S
C84 H98 0.930 . S
C85 C82 1.378 . S
C85 N86 1.315 . S
C85 H88 0.930 . S
N86 Co66 2.194 . S
N86 C81 1.328 . S
N86 C85 1.315 . S
H87 C81 0.929 . S
H88 C85 0.930 . S
H89 C77 0.929 . S
H90 C79 0.929 . S
O91 Co66 2.351 . S
O91 C94 1.244 . S
O92 Co66 2.155 . S
O92 C94 1.240 . S
O93 Co66 2.096 . S
O93 C74 1.247 . S
C94 O91 1.244 . S
C94 O92 1.240 . S
H95 C69 0.931 1_554 S
H96 C78 0.931 . S
H97 C82 0.929 . S
H98 C84 0.930 . S
Co99 N103 2.148 1_556 S
Co99 N109 2.128 . S
Co99 N119 2.194 1_556 S
Co99 O124 2.351 1_556 S
Co99 O125 2.155 1_556 S
Co99 O126 2.096 . S
C100 N103 1.301 . S
C100 N104 1.328 . S
C100 H105 0.930 . S
C101 C102 1.333 . S
C101 N103 1.317 . S
C101 H106 0.930 . S
C102 C101 1.333 . S
C102 N104 1.350 . S
C102 H128 0.931 . S
N103 Co99 2.148 1_554 S
N103 C100 1.301 . S
N103 C101 1.317 . S
N104 C100 1.328 . S
N104 C102 1.350 . S
H105 C100 0.930 . S
H106 C101 0.930 . S
C107 O108 1.224 . S
C107 O126 1.247 . S
O108 C107 1.224 . S
N109 Co99 2.128 . S
N109 C110 1.355 . S
N109 C112 1.311 . S
C110 N109 1.355 . S
C110 C111 1.363 . S
C110 H122 0.929 . S
C111 C110 1.363 . S
C111 N113 1.375 . S
C111 H129 0.931 . S
C112 N109 1.311 . S
C112 N113 1.347 . S
C112 H123 0.929 . S
N113 C111 1.375 . S
N113 C112 1.347 . S
C114 C117 1.365 . S
C114 N119 1.328 . S
C114 H120 0.929 . S
C115 C116 1.362 . S
C115 C118 1.377 . S
C115 H130 0.929 1_554 S
C116 C115 1.362 . S
C116 C117 1.366 . S
C117 C114 1.365 . S
C117 C116 1.366 . S
C117 H131 0.930 . S
C118 C115 1.377 . S
C118 N119 1.315 . S
C118 H121 0.931 1_554 S
N119 Co99 2.194 1_554 S
N119 C114 1.328 . S
N119 C118 1.315 . S
H120 C114 0.929 . S
H121 C118 0.931 1_556 S
H122 C110 0.929 . S
H123 C112 0.929 . S
O124 Co99 2.351 1_554 S
O124 C127 1.244 . S
O125 Co99 2.155 1_554 S
O125 C127 1.240 . S
O126 Co99 2.096 . S
O126 C107 1.247 . S
C127 O124 1.244 . S
C127 O125 1.240 . S
H128 C102 0.931 . S
H129 C111 0.931 . S
H130 C115 0.929 1_556 S
H131 C117 0.930 . S
Co132 N136 2.148 . S
Co132 N142 2.128 . S
Co132 N152 2.194 . S
Co132 O157 2.351 . S
Co132 O158 2.155 . S
Co132 O159 2.096 . S
C133 N136 1.301 . S
C133 N137 1.328 . S
C133 H138 0.930 . S
C134 C135 1.333 . S
C134 N136 1.317 . S
C134 H139 0.930 . S
C135 C134 1.333 . S
C135 N137 1.350 . S
C135 H161 0.931 . S
N136 Co132 2.148 . S
N136 C133 1.301 . S
N136 C134 1.317 . S
N137 C133 1.328 . S
N137 C135 1.350 . S
H138 C133 0.930 . S
H139 C134 0.930 . S
C140 O141 1.224 . S
C140 O159 1.247 . S
O141 C140 1.224 . S
N142 Co132 2.128 . S
N142 C143 1.355 . S
N142 C145 1.311 . S
C143 N142 1.355 . S
C143 C144 1.363 . S
C143 H155 0.929 . S
C144 C143 1.363 . S
C144 N146 1.375 . S
C144 H162 0.931 . S
C145 N142 1.311 . S
C145 N146 1.347 . S
C145 H156 0.929 . S
N146 C144 1.375 . S
N146 C145 1.347 . S
C147 C150 1.365 . S
C147 N152 1.328 . S
C147 H153 0.929 . S
C148 C149 1.362 . S
C148 C151 1.378 . S
C148 H163 0.929 . S
C149 C148 1.362 . S
C149 C150 1.366 . S
C150 C147 1.365 . S
C150 C149 1.366 . S
C150 H164 0.930 . S
C151 C148 1.378 . S
C151 N152 1.315 . S
C151 H154 0.930 . S
N152 Co132 2.194 . S
N152 C147 1.328 . S
N152 C151 1.315 . S
H153 C147 0.929 . S
H154 C151 0.930 . S
H155 C143 0.929 . S
H156 C145 0.929 . S
O157 Co132 2.351 . S
O157 C160 1.244 . S
O158 Co132 2.155 . S
O158 C160 1.240 . S
O159 Co132 2.096 . S
O159 C140 1.247 . S
C160 O157 1.244 . S
C160 O158 1.240 . S
H161 C135 0.931 . S
H162 C144 0.931 . S
H163 C148 0.929 . S
H164 C150 0.930 . S
Co165 N169 2.148 1_554 S
Co165 N175 2.128 . S
Co165 N185 2.194 1_554 S
Co165 O190 2.351 1_554 S
Co165 O191 2.155 1_554 S
Co165 O192 2.096 . S
C166 N169 1.301 . S
C166 N170 1.328 . S
C166 H171 0.930 . S
C167 C168 1.333 . S
C167 N169 1.317 . S
C167 H172 0.930 . S
C168 C167 1.333 . S
C168 N170 1.350 . S
C168 H194 0.931 . S
N169 Co165 2.148 1_556 S
N169 C166 1.301 . S
N169 C167 1.317 . S
N170 C166 1.328 . S
N170 C168 1.350 . S
H171 C166 0.930 . S
H172 C167 0.930 . S
C173 O174 1.224 . S
C173 O192 1.247 . S
O174 C173 1.224 . S
N175 Co165 2.128 . S
N175 C176 1.355 . S
N175 C178 1.311 . S
C176 N175 1.355 . S
C176 C177 1.363 . S
C176 H188 0.929 . S
C177 C176 1.363 . S
C177 N179 1.375 . S
C177 H195 0.931 . S
C178 N175 1.311 . S
C178 N179 1.347 . S
C178 H189 0.929 . S
N179 C177 1.375 . S
N179 C178 1.347 . S
C180 C183 1.365 . S
C180 N185 1.328 . S
C180 H186 0.929 . S
C181 C182 1.362 . S
C181 C184 1.377 . S
C181 H196 0.929 1_556 S
C182 C181 1.362 . S
C182 C183 1.366 . S
C183 C180 1.365 . S
C183 C182 1.366 . S
C183 H197 0.930 . S
C184 C181 1.377 . S
C184 N185 1.315 . S
C184 H187 0.931 1_556 S
N185 Co165 2.194 1_556 S
N185 C180 1.328 . S
N185 C184 1.315 . S
H186 C180 0.929 . S
H187 C184 0.931 1_554 S
H188 C176 0.929 . S
H189 C178 0.929 . S
O190 Co165 2.351 1_556 S
O190 C193 1.244 . S
O191 Co165 2.155 1_556 S
O191 C193 1.240 . S
O192 Co165 2.096 . S
O192 C173 1.247 . S
C193 O190 1.244 . S
C193 O191 1.240 . S
H194 C168 0.931 . S
H195 C177 0.931 . S
H196 C181 0.929 1_554 S
H197 C183 0.930 . S
Co198 N202 2.148 . S
Co198 N208 2.128 . S
Co198 N218 2.194 . S
Co198 O223 2.351 . S
Co198 O224 2.155 . S
Co198 O225 2.096 . S
C199 N202 1.301 . S
C199 N203 1.328 1_554 S
C199 H204 0.930 . S
C200 C201 1.333 . S
C200 N202 1.317 . S
C200 H205 0.930 . S
C201 C200 1.333 . S
C201 N203 1.350 1_554 S
C201 H227 0.931 1_554 S
N202 Co198 2.148 . S
N202 C199 1.301 . S
N202 C200 1.317 . S
N203 C199 1.328 1_556 S
N203 C201 1.350 1_556 S
H204 C199 0.930 . S
H205 C200 0.930 . S
C206 O207 1.224 . S
C206 O225 1.247 . S
O207 C206 1.224 . S
N208 Co198 2.128 . S
N208 C209 1.355 . S
N208 C211 1.311 . S
C209 N208 1.355 . S
C209 C210 1.363 . S
C209 H221 0.929 . S
C210 C209 1.363 . S
C210 N212 1.375 . S
C210 H228 0.931 . S
C211 N208 1.311 . S
C211 N212 1.347 . S
C211 H222 0.929 . S
N212 C210 1.375 . S
N212 C211 1.347 . S
C213 C216 1.365 . S
C213 N218 1.328 . S
C213 H219 0.929 . S
C214 C215 1.362 . S
C214 C217 1.378 . S
C214 H229 0.929 . S
C215 C214 1.362 . S
C215 C216 1.366 . S
C216 C213 1.365 . S
C216 C215 1.366 . S
C216 H230 0.930 . S
C217 C214 1.378 . S
C217 N218 1.315 . S
C217 H220 0.930 . S
N218 Co198 2.194 . S
N218 C213 1.328 . S
N218 C217 1.315 . S
H219 C213 0.929 . S
H220 C217 0.930 . S
H221 C209 0.929 . S
H222 C211 0.929 . S
O223 Co198 2.351 . S
O223 C226 1.244 . S
O224 Co198 2.155 . S
O224 C226 1.240 . S
O225 Co198 2.096 . S
O225 C206 1.247 . S
C226 O223 1.244 . S
C226 O224 1.240 . S
H227 C201 0.931 1_556 S
H228 C210 0.931 . S
H229 C214 0.929 . S
H230 C216 0.930 . S
Co231 N235 2.148 . S
Co231 N241 2.128 . S
Co231 N251 2.194 . S
Co231 O256 2.351 . S
Co231 O257 2.155 . S
Co231 O258 2.096 . S
C232 N235 1.301 . S
C232 N236 1.328 . S
C232 H237 0.930 . S
C233 C234 1.333 . S
C233 N235 1.317 . S
C233 H238 0.930 . S
C234 C233 1.333 . S
C234 N236 1.350 . S
C234 H260 0.931 . S
N235 Co231 2.148 . S
N235 C232 1.301 . S
N235 C233 1.317 . S
N236 C232 1.328 . S
N236 C234 1.350 . S
H237 C232 0.930 . S
H238 C233 0.930 . S
C239 O240 1.224 . S
C239 O258 1.247 . S
O240 C239 1.224 . S
N241 Co231 2.128 . S
N241 C242 1.355 . S
N241 C244 1.311 . S
C242 N241 1.355 . S
C242 C243 1.363 . S
C242 H254 0.929 . S
C243 C242 1.363 . S
C243 N245 1.375 . S
C243 H261 0.931 . S
C244 N241 1.311 . S
C244 N245 1.347 . S
C244 H255 0.929 . S
N245 C243 1.375 . S
N245 C244 1.347 . S
C246 C249 1.365 . S
C246 N251 1.328 . S
C246 H252 0.929 . S
C247 C248 1.362 . S
C247 C250 1.378 . S
C247 H262 0.929 . S
C248 C247 1.362 . S
C248 C249 1.366 . S
C249 C246 1.365 . S
C249 C248 1.366 . S
C249 H263 0.930 . S
C250 C247 1.378 . S
C250 N251 1.315 . S
C250 H253 0.930 . S
N251 Co231 2.194 . S
N251 C246 1.328 . S
N251 C250 1.315 . S
H252 C246 0.929 . S
H253 C250 0.930 . S
H254 C242 0.929 . S
H255 C244 0.929 . S
O256 Co231 2.351 . S
O256 C259 1.244 . S
O257 Co231 2.155 . S
O257 C259 1.240 . S
O258 Co231 2.096 . S
O258 C239 1.247 . S
C259 O256 1.244 . S
C259 O257 1.240 . S
H260 C234 0.931 . S
H261 C243 0.931 . S
H262 C247 0.929 . S
H263 C249 0.930 . S
Co264 N268 2.148 . S
Co264 N274 2.128 . S
Co264 N284 2.194 . S
Co264 O289 2.351 . S
Co264 O290 2.155 . S
Co264 O291 2.096 . S
C265 N268 1.301 . S
C265 N269 1.328 . S
C265 H270 0.930 . S
C266 C267 1.333 . S
C266 N268 1.317 . S
C266 H271 0.930 . S
C267 C266 1.333 . S
C267 N269 1.350 . S
C267 H293 0.931 . S
N268 Co264 2.148 . S
N268 C265 1.301 . S
N268 C266 1.317 . S
N269 C265 1.328 . S
N269 C267 1.350 . S
H270 C265 0.930 . S
H271 C266 0.930 . S
C272 O273 1.224 . S
C272 O291 1.247 . S
O273 C272 1.224 . S
N274 Co264 2.128 . S
N274 C275 1.355 . S
N274 C277 1.311 . S
C275 N274 1.355 . S
C275 C276 1.363 . S
C275 H287 0.929 . S
C276 C275 1.363 . S
C276 N278 1.375 . S
C276 H294 0.931 . S
C277 N274 1.311 . S
C277 N278 1.347 . S
C277 H288 0.929 . S
N278 C276 1.375 . S
N278 C277 1.347 . S
C279 C282 1.365 . S
C279 N284 1.328 . S
C279 H285 0.929 . S
C280 C281 1.362 . S
C280 C283 1.378 . S
C280 H295 0.929 . S
C281 C280 1.362 . S
C281 C282 1.366 . S
C282 C279 1.365 . S
C282 C281 1.366 . S
C282 H296 0.930 . S
C283 C280 1.378 . S
C283 N284 1.315 . S
C283 H286 0.930 . S
N284 Co264 2.194 . S
N284 C279 1.328 . S
N284 C283 1.315 . S
H285 C279 0.929 . S
H286 C283 0.930 . S
H287 C275 0.929 . S
H288 C277 0.929 . S
O289 Co264 2.351 . S
O289 C292 1.244 . S
O290 Co264 2.155 . S
O290 C292 1.240 . S
O291 Co264 2.096 . S
O291 C272 1.247 . S
C292 O289 1.244 . S
C292 O290 1.240 . S
H293 C267 0.931 . S
H294 C276 0.931 . S
H295 C280 0.929 . S
H296 C282 0.930 . S
Co297 N301 2.148 1_554 S
Co297 N307 2.128 . S
Co297 N317 2.194 1_554 S
Co297 O322 2.351 1_554 S
Co297 O323 2.155 1_554 S
Co297 O324 2.096 . S
C298 N301 1.301 . S
C298 N302 1.328 . S
C298 H303 0.930 . S
C299 C300 1.333 . S
C299 N301 1.317 . S
C299 H304 0.930 . S
C300 C299 1.333 . S
C300 N302 1.350 . S
C300 H326 0.931 . S
N301 Co297 2.148 1_556 S
N301 C298 1.301 . S
N301 C299 1.317 . S
N302 C298 1.328 . S
N302 C300 1.350 . S
H303 C298 0.930 . S
H304 C299 0.930 . S
C305 O306 1.224 . S
C305 O324 1.247 . S
O306 C305 1.224 . S
N307 Co297 2.128 . S
N307 C308 1.355 . S
N307 C310 1.311 . S
C308 N307 1.355 . S
C308 C309 1.363 . S
C308 H320 0.929 . S
C309 C308 1.363 . S
C309 N311 1.375 . S
C309 H327 0.931 . S
C310 N307 1.311 . S
C310 N311 1.347 . S
C310 H321 0.929 . S
N311 C309 1.375 . S
N311 C310 1.347 . S
C312 C315 1.365 . S
C312 N317 1.328 . S
C312 H318 0.929 . S
C313 C314 1.362 . S
C313 C316 1.377 . S
C313 H328 0.929 1_556 S
C314 C313 1.362 . S
C314 C315 1.366 . S
C315 C312 1.365 . S
C315 C314 1.366 . S
C315 H329 0.930 . S
C316 C313 1.377 . S
C316 N317 1.315 . S
C316 H319 0.931 1_556 S
N317 Co297 2.194 1_556 S
N317 C312 1.328 . S
N317 C316 1.315 . S
H318 C312 0.929 . S
H319 C316 0.931 1_554 S
H320 C308 0.929 . S
H321 C310 0.929 . S
O322 Co297 2.351 1_556 S
O322 C325 1.244 . S
O323 Co297 2.155 1_556 S
O323 C325 1.240 . S
O324 Co297 2.096 . S
O324 C305 1.247 . S
C325 O322 1.244 . S
C325 O323 1.240 . S
H326 C300 0.931 . S
H327 C309 0.931 . S
H328 C313 0.929 1_554 S
H329 C315 0.930 . S
Co330 N334 2.148 1_556 S
Co330 N340 2.128 . S
Co330 N350 2.194 1_556 S
Co330 O355 2.351 1_556 S
Co330 O356 2.155 1_556 S
Co330 O357 2.096 . S
C331 N334 1.301 . S
C331 N335 1.328 . S
C331 H336 0.930 . S
C332 C333 1.333 . S
C332 N334 1.317 . S
C332 H337 0.930 . S
C333 C332 1.333 . S
C333 N335 1.350 . S
C333 H359 0.931 . S
N334 Co330 2.148 1_554 S
N334 C331 1.301 . S
N334 C332 1.317 . S
N335 C331 1.328 . S
N335 C333 1.350 . S
H336 C331 0.930 . S
H337 C332 0.930 . S
C338 O339 1.224 . S
C338 O357 1.247 . S
O339 C338 1.224 . S
N340 Co330 2.128 . S
N340 C341 1.355 . S
N340 C343 1.311 . S
C341 N340 1.355 . S
C341 C342 1.363 . S
C341 H353 0.929 . S
C342 C341 1.363 . S
C342 N344 1.375 . S
C342 H360 0.931 . S
C343 N340 1.311 . S
C343 N344 1.347 . S
C343 H354 0.929 . S
N344 C342 1.375 . S
N344 C343 1.347 . S
C345 C348 1.365 . S
C345 N350 1.328 . S
C345 H351 0.929 . S
C346 C347 1.362 . S
C346 C349 1.377 . S
C346 H361 0.929 1_554 S
C347 C346 1.362 . S
C347 C348 1.366 . S
C348 C345 1.365 . S
C348 C347 1.366 . S
C348 H362 0.930 . S
C349 C346 1.377 . S
C349 N350 1.315 . S
C349 H352 0.931 1_554 S
N350 Co330 2.194 1_554 S
N350 C345 1.328 . S
N350 C349 1.315 . S
H351 C345 0.929 . S
H352 C349 0.931 1_556 S
H353 C341 0.929 . S
H354 C343 0.929 . S
O355 Co330 2.351 1_554 S
O355 C358 1.244 . S
O356 Co330 2.155 1_554 S
O356 C358 1.240 . S
O357 Co330 2.096 . S
O357 C338 1.247 . S
C358 O355 1.244 . S
C358 O356 1.240 . S
H359 C333 0.931 . S
H360 C342 0.931 . S
H361 C346 0.929 1_556 S
H362 C348 0.930 . S
Co363 N367 2.148 . S
Co363 N373 2.128 . S
Co363 N383 2.194 . S
Co363 O388 2.351 . S
Co363 O389 2.155 . S
Co363 O390 2.096 . S
C364 N367 1.301 . S
C364 N368 1.328 . S
C364 H369 0.930 . S
C365 C366 1.333 . S
C365 N367 1.317 . S
C365 H370 0.930 . S
C366 C365 1.333 . S
C366 N368 1.350 . S
C366 H392 0.931 . S
N367 Co363 2.148 . S
N367 C364 1.301 . S
N367 C365 1.317 . S
N368 C364 1.328 . S
N368 C366 1.350 . S
H369 C364 0.930 . S
H370 C365 0.930 . S
C371 O372 1.224 . S
C371 O390 1.247 . S
O372 C371 1.224 . S
N373 Co363 2.128 . S
N373 C374 1.355 . S
N373 C376 1.311 . S
C374 N373 1.355 . S
C374 C375 1.363 . S
C374 H386 0.929 . S
C375 C374 1.363 . S
C375 N377 1.375 . S
C375 H393 0.931 . S
C376 N373 1.311 . S
C376 N377 1.347 . S
C376 H387 0.929 . S
N377 C375 1.375 . S
N377 C376 1.347 . S
C378 C381 1.365 . S
C378 N383 1.328 . S
C378 H384 0.929 . S
C379 C380 1.362 . S
C379 C382 1.378 . S
C379 H394 0.929 . S
C380 C379 1.362 . S
C380 C381 1.366 . S
C381 C378 1.365 . S
C381 C380 1.366 . S
C381 H395 0.930 . S
C382 C379 1.378 . S
C382 N383 1.315 . S
C382 H385 0.930 . S
N383 Co363 2.194 . S
N383 C378 1.328 . S
N383 C382 1.315 . S
H384 C378 0.929 . S
H385 C382 0.930 . S
H386 C374 0.929 . S
H387 C376 0.929 . S
O388 Co363 2.351 . S
O388 C391 1.244 . S
O389 Co363 2.155 . S
O389 C391 1.240 . S
O390 Co363 2.096 . S
O390 C371 1.247 . S
C391 O388 1.244 . S
C391 O389 1.240 . S
H392 C366 0.931 . S
H393 C375 0.931 . S
H394 C379 0.929 . S
H395 C381 0.930 . S
Co396 N400 2.148 . S
Co396 N406 2.128 . S
Co396 N416 2.194 . S
Co396 O421 2.351 . S
Co396 O422 2.155 . S
Co396 O423 2.096 . S
C397 N400 1.301 . S
C397 N401 1.328 1_556 S
C397 H402 0.930 . S
C398 C399 1.333 . S
C398 N400 1.317 . S
C398 H403 0.930 . S
C399 C398 1.333 . S
C399 N401 1.350 1_556 S
C399 H425 0.931 1_556 S
N400 Co396 2.148 . S
N400 C397 1.301 . S
N400 C398 1.317 . S
N401 C397 1.328 1_554 S
N401 C399 1.350 1_554 S
H402 C397 0.930 . S
H403 C398 0.930 . S
C404 O405 1.224 . S
C404 O423 1.247 . S
O405 C404 1.224 . S
N406 Co396 2.128 . S
N406 C407 1.355 . S
N406 C409 1.311 . S
C407 N406 1.355 . S
C407 C408 1.363 . S
C407 H419 0.929 . S
C408 C407 1.363 . S
C408 N410 1.375 . S
C408 H426 0.931 . S
C409 N406 1.311 . S
C409 N410 1.347 . S
C409 H420 0.929 . S
N410 C408 1.375 . S
N410 C409 1.347 . S
C411 C414 1.365 . S
C411 N416 1.328 . S
C411 H417 0.929 . S
C412 C413 1.362 . S
C412 C415 1.378 . S
C412 H427 0.929 . S
C413 C412 1.362 . S
C413 C414 1.366 . S
C414 C411 1.365 . S
C414 C413 1.366 . S
C414 H428 0.930 . S
C415 C412 1.378 . S
C415 N416 1.315 . S
C415 H418 0.930 . S
N416 Co396 2.194 . S
N416 C411 1.328 . S
N416 C415 1.315 . S
H417 C411 0.929 . S
H418 C415 0.930 . S
H419 C407 0.929 . S
H420 C409 0.929 . S
O421 Co396 2.351 . S
O421 C424 1.244 . S
O422 Co396 2.155 . S
O422 C424 1.240 . S
O423 Co396 2.096 . S
O423 C404 1.247 . S
C424 O421 1.244 . S
C424 O422 1.240 . S
H425 C399 0.931 1_554 S
H426 C408 0.931 . S
H427 C412 0.929 . S
H428 C414 0.930 . S
Co429 N433 2.148 . S
Co429 N439 2.128 . S
Co429 N449 2.194 . S
Co429 O454 2.351 . S
Co429 O455 2.155 . S
Co429 O456 2.096 . S
C430 N433 1.301 . S
C430 N434 1.328 . S
C430 H435 0.930 . S
C431 C432 1.333 . S
C431 N433 1.317 . S
C431 H436 0.930 . S
C432 C431 1.333 . S
C432 N434 1.350 . S
C432 H458 0.931 . S
N433 Co429 2.148 . S
N433 C430 1.301 . S
N433 C431 1.317 . S
N434 C430 1.328 . S
N434 C432 1.350 . S
H435 C430 0.930 . S
H436 C431 0.930 . S
C437 O438 1.224 . S
C437 O456 1.247 . S
O438 C437 1.224 . S
N439 Co429 2.128 . S
N439 C440 1.355 . S
N439 C442 1.311 . S
C440 N439 1.355 . S
C440 C441 1.363 . S
C440 H452 0.929 . S
C441 C440 1.363 . S
C441 N443 1.375 . S
C441 H459 0.931 . S
C442 N439 1.311 . S
C442 N443 1.347 . S
C442 H453 0.929 . S
N443 C441 1.375 . S
N443 C442 1.347 . S
C444 C447 1.365 . S
C444 N449 1.328 . S
C444 H450 0.929 . S
C445 C446 1.362 . S
C445 C448 1.378 . S
C445 H460 0.929 . S
C446 C445 1.362 . S
C446 C447 1.366 . S
C447 C444 1.365 . S
C447 C446 1.366 . S
C447 H461 0.930 . S
C448 C445 1.378 . S
C448 N449 1.315 . S
C448 H451 0.930 . S
N449 Co429 2.194 . S
N449 C444 1.328 . S
N449 C448 1.315 . S
H450 C444 0.929 . S
H451 C448 0.930 . S
H452 C440 0.929 . S
H453 C442 0.929 . S
O454 Co429 2.351 . S
O454 C457 1.244 . S
O455 Co429 2.155 . S
O455 C457 1.240 . S
O456 Co429 2.096 . S
O456 C437 1.247 . S
C457 O454 1.244 . S
C457 O455 1.240 . S
H458 C432 0.931 . S
H459 C441 0.931 . S
H460 C445 0.929 . S
H461 C447 0.930 . S
Co462 N466 2.148 . S
Co462 N472 2.128 . S
Co462 N482 2.194 . S
Co462 O487 2.351 . S
Co462 O488 2.155 . S
Co462 O489 2.096 . S
C463 N466 1.301 . S
C463 N467 1.328 1_554 S
C463 H468 0.930 . S
C464 C465 1.333 . S
C464 N466 1.317 . S
C464 H469 0.930 . S
C465 C464 1.333 . S
C465 N467 1.350 1_554 S
C465 H491 0.931 1_554 S
N466 Co462 2.148 . S
N466 C463 1.301 . S
N466 C464 1.317 . S
N467 C463 1.328 1_556 S
N467 C465 1.350 1_556 S
H468 C463 0.930 . S
H469 C464 0.930 . S
C470 O471 1.224 . S
C470 O489 1.247 . S
O471 C470 1.224 . S
N472 Co462 2.128 . S
N472 C473 1.355 . S
N472 C475 1.311 . S
C473 N472 1.355 . S
C473 C474 1.363 . S
C473 H485 0.929 . S
C474 C473 1.363 . S
C474 N476 1.375 . S
C474 H492 0.931 . S
C475 N472 1.311 . S
C475 N476 1.347 . S
C475 H486 0.929 . S
N476 C474 1.375 . S
N476 C475 1.347 . S
C477 C480 1.365 . S
C477 N482 1.328 . S
C477 H483 0.929 . S
C478 C479 1.362 . S
C478 C481 1.378 . S
C478 H493 0.929 . S
C479 C478 1.362 . S
C479 C480 1.366 . S
C480 C477 1.365 . S
C480 C479 1.366 . S
C480 H494 0.930 . S
C481 C478 1.378 . S
C481 N482 1.315 . S
C481 H484 0.930 . S
N482 Co462 2.194 . S
N482 C477 1.328 . S
N482 C481 1.315 . S
H483 C477 0.929 . S
H484 C481 0.930 . S
H485 C473 0.929 . S
H486 C475 0.929 . S
O487 Co462 2.351 . S
O487 C490 1.244 . S
O488 Co462 2.155 . S
O488 C490 1.240 . S
O489 Co462 2.096 . S
O489 C470 1.247 . S
C490 O487 1.244 . S
C490 O488 1.240 . S
H491 C465 0.931 1_556 S
H492 C474 0.931 . S
H493 C478 0.929 . S
H494 C480 0.930 . S
Co495 N499 2.148 . S
Co495 N505 2.128 . S
Co495 N515 2.194 . S
Co495 O520 2.351 . S
Co495 O521 2.155 . S
Co495 O522 2.096 . S
C496 N499 1.301 . S
C496 N500 1.328 . S
C496 H501 0.930 . S
C497 C498 1.333 . S
C497 N499 1.317 . S
C497 H502 0.930 . S
C498 C497 1.333 . S
C498 N500 1.350 . S
C498 H524 0.931 . S
N499 Co495 2.148 . S
N499 C496 1.301 . S
N499 C497 1.317 . S
N500 C496 1.328 . S
N500 C498 1.350 . S
H501 C496 0.930 . S
H502 C497 0.930 . S
C503 O504 1.224 . S
C503 O522 1.247 . S
O504 C503 1.224 . S
N505 Co495 2.128 . S
N505 C506 1.355 . S
N505 C508 1.311 . S
C506 N505 1.355 . S
C506 C507 1.363 . S
C506 H518 0.929 . S
C507 C506 1.363 . S
C507 N509 1.375 . S
C507 H525 0.931 . S
C508 N505 1.311 . S
C508 N509 1.347 . S
C508 H519 0.929 . S
N509 C507 1.375 . S
N509 C508 1.347 . S
C510 C513 1.365 . S
C510 N515 1.328 . S
C510 H516 0.929 . S
C511 C512 1.362 . S
C511 C514 1.378 . S
C511 H526 0.929 . S
C512 C511 1.362 . S
C512 C513 1.366 . S
C513 C510 1.365 . S
C513 C512 1.366 . S
C513 H527 0.930 . S
C514 C511 1.378 . S
C514 N515 1.315 . S
C514 H517 0.930 . S
N515 Co495 2.194 . S
N515 C510 1.328 . S
N515 C514 1.315 . S
H516 C510 0.929 . S
H517 C514 0.930 . S
H518 C506 0.929 . S
H519 C508 0.929 . S
O520 Co495 2.351 . S
O520 C523 1.244 . S
O521 Co495 2.155 . S
O521 C523 1.240 . S
O522 Co495 2.096 . S
O522 C503 1.247 . S
C523 O520 1.244 . S
C523 O521 1.240 . S
H524 C498 0.931 . S
H525 C507 0.931 . S
H526 C511 0.929 . S
H527 C513 0.930 . S
H528 C536 0.929 . S
H529 C538 0.930 . S
H530 C540 0.930 . S
H531 C543 0.929 . S
H532 C546 0.930 . S
H533 C548 0.960 . S
H534 C548 0.960 . S
H535 C548 0.960 . S
C536 H528 0.929 . S
C536 C537 1.377 . S
C536 C538 1.384 . S
C537 C536 1.377 . S
C537 C543 1.390 . S
C538 H529 0.930 . S
C538 C536 1.384 . S
C538 C539 1.372 . S
C539 C538 1.372 . S
C539 C540 1.400 . S
C539 C544 1.490 . S
C540 H530 0.930 . S
C540 C539 1.400 . S
C540 C543 1.386 . S
H541 C557 0.930 . S
H542 C558 0.931 . S
C543 H531 0.929 . S
C543 C537 1.390 . S
C543 C540 1.386 . S
C544 C539 1.490 . S
C544 C546 1.395 . S
C544 C547 1.403 . S
H545 C551 0.930 . S
C546 H532 0.930 . S
C546 C544 1.395 . S
C546 C549 1.403 . S
C547 C544 1.403 . S
C547 C548 1.524 . S
C547 C551 1.400 . S
C548 H533 0.960 . S
C548 H534 0.960 . S
C548 H535 0.960 . S
C548 C547 1.524 . S
C549 C546 1.403 . S
C549 C550 1.392 . S
C549 C553 1.495 . S
C550 C549 1.392 . S
C550 C551 1.385 . S
C550 C552 1.478 . S
C551 H545 0.930 . S
C551 C547 1.400 . S
C551 C550 1.385 . S
C552 C550 1.478 . S
C552 C554 1.381 . S
C552 C558 1.383 . S
C553 C549 1.495 . S
C553 H559 0.959 . S
C553 H560 0.961 . S
C553 H561 0.960 . S
C554 C552 1.381 . S
C554 C555 1.394 . S
C554 H562 0.930 . S
C555 C554 1.394 . S
C555 C556 1.383 . S
C555 H563 0.929 . S
C556 C555 1.383 . S
C556 C557 1.377 . S
C557 H541 0.930 . S
C557 C556 1.377 . S
C557 C558 1.379 . S
C558 H542 0.931 . S
C558 C552 1.383 . S
C558 C557 1.379 . S
H559 C553 0.959 . S
H560 C553 0.961 . S
H561 C553 0.960 . S
H562 C554 0.930 . S
H563 C555 0.929 . S
H564 C572 0.929 . S
H565 C574 0.930 . S
H566 C576 0.930 . S
H567 C579 0.929 . S
H568 C582 0.930 . S
H569 C584 0.960 . S
H570 C584 0.960 . S
H571 C584 0.960 . S
C572 H564 0.929 . S
C572 C573 1.377 . S
C572 C574 1.384 . S
C573 C572 1.377 . S
C573 C579 1.390 . S
C574 H565 0.930 . S
C574 C572 1.384 . S
C574 C575 1.372 . S
C575 C574 1.372 . S
C575 C576 1.400 . S
C575 C580 1.490 . S
C576 H566 0.930 . S
C576 C575 1.400 . S
C576 C579 1.386 . S
H577 C593 0.930 . S
H578 C594 0.931 . S
C579 H567 0.929 . S
C579 C573 1.390 . S
C579 C576 1.386 . S
C580 C575 1.490 . S
C580 C582 1.395 . S
C580 C583 1.403 . S
H581 C587 0.930 . S
C582 H568 0.930 . S
C582 C580 1.395 . S
C582 C585 1.403 . S
C583 C580 1.403 . S
C583 C584 1.524 . S
C583 C587 1.400 . S
C584 H569 0.960 . S
C584 H570 0.960 . S
C584 H571 0.960 . S
C584 C583 1.524 . S
C585 C582 1.403 . S
C585 C586 1.392 . S
C585 C589 1.495 . S
C586 C585 1.392 . S
C586 C587 1.385 . S
C586 C588 1.478 . S
C587 H581 0.930 . S
C587 C583 1.400 . S
C587 C586 1.385 . S
C588 C586 1.478 . S
C588 C590 1.381 . S
C588 C594 1.383 . S
C589 C585 1.495 . S
C589 H595 0.959 . S
C589 H596 0.961 . S
C589 H597 0.960 . S
C590 C588 1.381 . S
C590 C591 1.394 . S
C590 H598 0.930 . S
C591 C590 1.394 . S
C591 C592 1.383 . S
C591 H599 0.929 . S
C592 C591 1.383 . S
C592 C593 1.377 . S
C593 H577 0.930 . S
C593 C592 1.377 . S
C593 C594 1.379 . S
C594 H578 0.931 . S
C594 C588 1.383 . S
C594 C593 1.379 . S
H595 C589 0.959 . S
H596 C589 0.961 . S
H597 C589 0.960 . S
H598 C590 0.930 . S
H599 C591 0.929 . S
H600 C608 0.929 . S
H601 C610 0.930 . S
H602 C612 0.930 . S
H603 C615 0.929 . S
H604 C618 0.930 . S
H605 C620 0.960 . S
H606 C620 0.960 . S
H607 C620 0.960 . S
C608 H600 0.929 . S
C608 C609 1.377 . S
C608 C610 1.384 . S
C609 C608 1.377 . S
C609 C615 1.390 . S
C610 H601 0.930 . S
C610 C608 1.384 . S
C610 C611 1.372 . S
C611 C610 1.372 . S
C611 C612 1.400 . S
C611 C616 1.490 . S
C612 H602 0.930 . S
C612 C611 1.400 . S
C612 C615 1.386 . S
H613 C629 0.930 . S
H614 C630 0.931 1_554 S
C615 H603 0.929 . S
C615 C609 1.390 . S
C615 C612 1.386 . S
C616 C611 1.490 . S
C616 C618 1.395 . S
C616 C619 1.403 . S
H617 C623 0.930 . S
C618 H604 0.930 . S
C618 C616 1.395 . S
C618 C621 1.403 . S
C619 C616 1.403 . S
C619 C620 1.524 . S
C619 C623 1.400 . S
C620 H605 0.960 . S
C620 H606 0.960 . S
C620 H607 0.960 . S
C620 C619 1.524 . S
C621 C618 1.403 . S
C621 C622 1.392 . S
C621 C625 1.495 . S
C622 C621 1.392 . S
C622 C623 1.385 . S
C622 C624 1.478 . S
C623 H617 0.930 . S
C623 C619 1.400 . S
C623 C622 1.385 . S
C624 C622 1.478 . S
C624 C626 1.381 . S
C624 C630 1.383 . S
C625 C621 1.495 . S
C625 H631 0.959 . S
C625 H632 0.961 . S
C625 H633 0.960 . S
C626 C624 1.381 . S
C626 C627 1.394 . S
C626 H634 0.930 . S
C627 C626 1.394 . S
C627 C628 1.383 . S
C627 H635 0.929 . S
C628 C627 1.383 . S
C628 C629 1.377 1_556 S
C629 H613 0.930 . S
C629 C628 1.377 1_554 S
C629 C630 1.379 1_554 S
C630 H614 0.931 1_556 S
C630 C624 1.383 . S
C630 C629 1.379 1_556 S
H631 C625 0.959 . S
H632 C625 0.961 . S
H633 C625 0.960 . S
H634 C626 0.930 . S
H635 C627 0.929 . S
H636 C644 0.929 . S
H637 C646 0.930 . S
H638 C648 0.930 . S
H639 C651 0.929 . S
H640 C654 0.930 . S
H641 C656 0.960 . S
H642 C656 0.960 . S
H643 C656 0.960 . S
C644 H636 0.929 . S
C644 C645 1.377 . S
C644 C646 1.384 . S
C645 C644 1.377 . S
C645 C651 1.390 . S
C646 H637 0.930 . S
C646 C644 1.384 . S
C646 C647 1.372 . S
C647 C646 1.372 . S
C647 C648 1.400 . S
C647 C652 1.490 . S
C648 H638 0.930 . S
C648 C647 1.400 . S
C648 C651 1.386 . S
H649 C665 0.930 1_556 S
H650 C666 0.931 1_556 S
C651 H639 0.929 . S
C651 C645 1.390 . S
C651 C648 1.386 . S
C652 C647 1.490 . S
C652 C654 1.395 . S
C652 C655 1.403 . S
H653 C659 0.930 . S
C654 H640 0.930 . S
C654 C652 1.395 . S
C654 C657 1.403 . S
C655 C652 1.403 . S
C655 C656 1.524 . S
C655 C659 1.400 . S
C656 H641 0.960 . S
C656 H642 0.960 . S
C656 H643 0.960 . S
C656 C655 1.524 . S
C657 C654 1.403 . S
C657 C658 1.392 . S
C657 C661 1.495 . S
C658 C657 1.392 . S
C658 C659 1.385 . S
C658 C660 1.478 . S
C659 H653 0.930 . S
C659 C655 1.400 . S
C659 C658 1.385 . S
C660 C658 1.478 . S
C660 C662 1.381 . S
C660 C666 1.383 . S
C661 C657 1.495 . S
C661 H667 0.959 . S
C661 H668 0.961 . S
C661 H669 0.960 . S
C662 C660 1.381 . S
C662 C663 1.394 . S
C662 H670 0.930 . S
C663 C662 1.394 . S
C663 C664 1.383 . S
C663 H671 0.929 . S
C664 C663 1.383 . S
C664 C665 1.377 . S
C665 H649 0.930 1_554 S
C665 C664 1.377 . S
C665 C666 1.379 . S
C666 H650 0.931 1_554 S
C666 C660 1.383 . S
C666 C665 1.379 . S
H667 C661 0.959 . S
H668 C661 0.961 . S
H669 C661 0.960 . S
H670 C662 0.930 . S
H671 C663 0.929 . S
H672 C680 0.929 . S
H673 C682 0.930 . S
H674 C684 0.930 . S
H675 C687 0.929 . S
H676 C690 0.930 . S
H677 C692 0.960 . S
H678 C692 0.960 . S
H679 C692 0.960 . S
C680 H672 0.929 . S
C680 C681 1.377 . S
C680 C682 1.384 . S
C681 C680 1.377 . S
C681 C687 1.390 . S
C682 H673 0.930 . S
C682 C680 1.384 . S
C682 C683 1.372 . S
C683 C682 1.372 . S
C683 C684 1.400 . S
C683 C688 1.490 . S
C684 H674 0.930 . S
C684 C683 1.400 . S
C684 C687 1.386 . S
H685 C701 0.930 . S
H686 C702 0.931 . S
C687 H675 0.929 . S
C687 C681 1.390 . S
C687 C684 1.386 . S
C688 C683 1.490 . S
C688 C690 1.395 . S
C688 C691 1.403 . S
H689 C695 0.930 1_455 S
C690 H676 0.930 . S
C690 C688 1.395 . S
C690 C693 1.403 . S
C691 C688 1.403 . S
C691 C692 1.524 . S
C691 C695 1.400 . S
C692 H677 0.960 . S
C692 H678 0.960 . S
C692 H679 0.960 . S
C692 C691 1.524 . S
C693 C690 1.403 . S
C693 C694 1.392 . S
C693 C697 1.495 . S
C694 C693 1.392 . S
C694 C695 1.385 . S
C694 C696 1.478 . S
C695 H689 0.930 1_655 S
C695 C691 1.400 . S
C695 C694 1.385 . S
C696 C694 1.478 . S
C696 C698 1.380 1_655 S
C696 C702 1.383 1_655 S
C697 C693 1.495 . S
C697 H703 0.959 . S
C697 H704 0.961 . S
C697 H705 0.960 . S
C698 C696 1.380 1_455 S
C698 C699 1.399 . S
C698 H706 0.926 1_455 S
C699 C698 1.399 . S
C699 C700 1.383 . S
C699 H707 0.929 . S
C700 C699 1.383 . S
C700 C701 1.377 . S
C701 H685 0.930 . S
C701 C700 1.377 . S
C701 C702 1.379 . S
C702 H686 0.931 . S
C702 C696 1.383 1_455 S
C702 C701 1.379 . S
H703 C697 0.959 . S
H704 C697 0.961 . S
H705 C697 0.960 . S
H706 C698 0.926 1_655 S
H707 C699 0.929 . S
H708 C716 0.929 . S
H709 C718 0.930 . S
H710 C720 0.930 . S
H711 C723 0.929 . S
H712 C726 0.930 . S
H713 C728 0.960 . S
H714 C728 0.960 . S
H715 C728 0.960 . S
C716 H708 0.929 . S
C716 C717 1.377 . S
C716 C718 1.384 . S
C717 C716 1.377 . S
C717 C723 1.390 . S
C718 H709 0.930 . S
C718 C716 1.384 . S
C718 C719 1.372 . S
C719 C718 1.372 . S
C719 C720 1.400 . S
C719 C724 1.490 . S
C720 H710 0.930 . S
C720 C719 1.400 . S
C720 C723 1.386 . S
H721 C737 0.930 . S
H722 C738 0.931 . S
C723 H711 0.929 . S
C723 C717 1.390 . S
C723 C720 1.386 . S
C724 C719 1.490 . S
C724 C726 1.395 . S
C724 C727 1.403 . S
H725 C731 0.930 . S
C726 H712 0.930 . S
C726 C724 1.395 . S
C726 C729 1.403 . S
C727 C724 1.403 . S
C727 C728 1.524 . S
C727 C731 1.400 . S
C728 H713 0.960 . S
C728 H714 0.960 . S
C728 H715 0.960 . S
C728 C727 1.524 . S
C729 C726 1.403 . S
C729 C730 1.392 . S
C729 C733 1.495 . S
C730 C729 1.392 . S
C730 C731 1.385 . S
C730 C732 1.478 1_655 S
C731 H725 0.930 . S
C731 C727 1.400 . S
C731 C730 1.385 . S
C732 C730 1.478 1_455 S
C732 C734 1.381 . S
C732 C738 1.383 1_455 S
C733 C729 1.495 . S
C733 H739 0.959 . S
C733 H740 0.961 . S
C733 H741 0.960 1_655 S
C734 C732 1.381 . S
C734 C735 1.394 . S
C734 H742 0.930 . S
C735 C734 1.394 . S
C735 C736 1.383 . S
C735 H743 0.929 . S
C736 C735 1.383 . S
C736 C737 1.377 . S
C737 H721 0.930 . S
C737 C736 1.377 . S
C737 C738 1.379 1_455 S
C738 H722 0.931 . S
C738 C732 1.383 1_655 S
C738 C737 1.379 1_655 S
H739 C733 0.959 . S
H740 C733 0.961 . S
H741 C733 0.960 1_455 S
H742 C734 0.930 . S
H743 C735 0.929 . S
H744 C752 0.929 . S
H745 C754 0.930 . S
H746 C756 0.930 . S
H747 C759 0.929 . S
H748 C762 0.930 . S
H749 C764 0.960 . S
H750 C764 0.960 . S
H751 C764 0.960 . S
C752 H744 0.929 . S
C752 C753 1.377 . S
C752 C754 1.384 . S
C753 C752 1.377 . S
C753 C759 1.390 . S
C754 H745 0.930 . S
C754 C752 1.384 . S
C754 C755 1.372 . S
C755 C754 1.372 . S
C755 C756 1.400 . S
C755 C760 1.490 . S
C756 H746 0.930 . S
C756 C755 1.400 . S
C756 C759 1.386 . S
H757 C773 0.930 . S
H758 C774 0.931 1_556 S
C759 H747 0.929 . S
C759 C753 1.390 . S
C759 C756 1.386 . S
C760 C755 1.490 . S
C760 C762 1.395 . S
C760 C763 1.403 . S
H761 C767 0.930 . S
C762 H748 0.930 . S
C762 C760 1.395 . S
C762 C765 1.403 . S
C763 C760 1.403 . S
C763 C764 1.524 . S
C763 C767 1.400 . S
C764 H749 0.960 . S
C764 H750 0.960 . S
C764 H751 0.960 . S
C764 C763 1.524 . S
C765 C762 1.403 . S
C765 C766 1.392 . S
C765 C769 1.495 . S
C766 C765 1.392 . S
C766 C767 1.385 . S
C766 C768 1.478 . S
C767 H761 0.930 . S
C767 C763 1.400 . S
C767 C766 1.385 . S
C768 C766 1.478 . S
C768 C770 1.381 . S
C768 C774 1.383 . S
C769 C765 1.495 . S
C769 H775 0.959 . S
C769 H776 0.961 . S
C769 H777 0.960 . S
C770 C768 1.381 . S
C770 C771 1.394 . S
C770 H778 0.930 . S
C771 C770 1.394 . S
C771 C772 1.383 . S
C771 H779 0.929 . S
C772 C771 1.383 . S
C772 C773 1.377 1_554 S
C773 H757 0.930 . S
C773 C772 1.377 1_556 S
C773 C774 1.379 1_556 S
C774 H758 0.931 1_554 S
C774 C768 1.383 . S
C774 C773 1.379 1_554 S
H775 C769 0.959 . S
H776 C769 0.961 . S
H777 C769 0.960 . S
H778 C770 0.930 . S
H779 C771 0.929 . S
H780 C788 0.929 . S
H781 C790 0.930 . S
H782 C792 0.930 . S
H783 C795 0.929 . S
H784 C798 0.930 . S
H785 C800 0.960 . S
H786 C800 0.960 . S
H787 C800 0.960 . S
C788 H780 0.929 . S
C788 C789 1.377 . S
C788 C790 1.384 . S
C789 C788 1.377 . S
C789 C795 1.390 . S
C790 H781 0.930 . S
C790 C788 1.384 . S
C790 C791 1.372 . S
C791 C790 1.372 . S
C791 C792 1.400 . S
C791 C796 1.490 . S
C792 H782 0.930 . S
C792 C791 1.400 . S
C792 C795 1.386 . S
H793 C809 0.930 . S
H794 C810 0.931 . S
C795 H783 0.929 . S
C795 C789 1.390 . S
C795 C792 1.386 . S
C796 C791 1.490 . S
C796 C798 1.395 . S
C796 C799 1.403 . S
H797 C803 0.930 . S
C798 H784 0.930 . S
C798 C796 1.395 . S
C798 C801 1.403 . S
C799 C796 1.403 . S
C799 C800 1.524 . S
C799 C803 1.400 . S
C800 H785 0.960 . S
C800 H786 0.960 . S
C800 H787 0.960 . S
C800 C799 1.524 . S
C801 C798 1.403 . S
C801 C802 1.392 . S
C801 C805 1.495 . S
C802 C801 1.392 . S
C802 C803 1.385 . S
C802 C804 1.478 . S
C803 H797 0.930 . S
C803 C799 1.400 . S
C803 C802 1.385 . S
C804 C802 1.478 . S
C804 C806 1.381 . S
C804 C810 1.383 . S
C805 C801 1.495 . S
C805 H811 0.959 . S
C805 H812 0.961 . S
C805 H813 0.960 . S
C806 C804 1.381 . S
C806 C807 1.394 1_556 S
C806 H814 0.930 1_556 S
C807 C806 1.394 1_554 S
C807 C808 1.383 1_554 S
C807 H815 0.930 . S
C808 C807 1.383 1_556 S
C808 C809 1.377 . S
C809 H793 0.930 . S
C809 C808 1.377 . S
C809 C810 1.379 . S
C810 H794 0.931 . S
C810 C804 1.383 . S
C810 C809 1.379 . S
H811 C805 0.959 . S
H812 C805 0.961 . S
H813 C805 0.960 . S
H814 C806 0.930 1_554 S
H815 C807 0.930 . S
H816 C824 0.932 . S
H817 C826 0.930 . S
H818 C828 0.930 . S
H819 C831 0.929 . S
H820 C834 0.930 1_554 S
H821 C836 0.960 . S
H822 C836 0.960 . S
H823 C836 0.960 . S
C824 H816 0.932 . S
C824 C825 1.377 . S
C824 C826 1.384 . S
C825 C824 1.377 . S
C825 C831 1.390 . S
C826 H817 0.930 . S
C826 C824 1.384 . S
C826 C827 1.372 . S
C827 C826 1.372 . S
C827 C828 1.400 . S
C827 C832 1.490 . S
C828 H818 0.930 . S
C828 C827 1.400 . S
C828 C831 1.386 . S
H829 C845 0.930 . S
H830 C846 0.931 . S
C831 H819 0.929 . S
C831 C825 1.390 . S
C831 C828 1.386 . S
C832 C827 1.490 . S
C832 C834 1.395 . S
C832 C835 1.403 . S
H833 C839 0.930 . S
C834 H820 0.930 1_556 S
C834 C832 1.395 . S
C834 C837 1.403 . S
C835 C832 1.403 . S
C835 C836 1.524 . S
C835 C839 1.400 . S
C836 H821 0.960 . S
C836 H822 0.960 . S
C836 H823 0.960 . S
C836 C835 1.524 . S
C837 C834 1.403 . S
C837 C838 1.392 . S
C837 C841 1.495 1_556 S
C838 C837 1.392 . S
C838 C839 1.385 . S
C838 C840 1.478 . S
C839 H833 0.930 . S
C839 C835 1.400 . S
C839 C838 1.385 . S
C840 C838 1.478 . S
C840 C842 1.381 . S
C840 C846 1.383 . S
C841 C837 1.495 1_554 S
C841 H847 0.959 . S
C841 H848 0.961 . S
C841 H849 0.960 . S
C842 C840 1.381 . S
C842 C843 1.394 . S
C842 H850 0.930 . S
C843 C842 1.394 . S
C843 C844 1.383 . S
C843 H851 0.929 . S
C844 C843 1.383 . S
C844 C845 1.377 . S
C845 H829 0.930 . S
C845 C844 1.377 . S
C845 C846 1.379 . S
C846 H830 0.931 . S
C846 C840 1.383 . S
C846 C845 1.379 . S
H847 C841 0.959 . S
H848 C841 0.961 . S
H849 C841 0.960 . S
H850 C842 0.930 . S
H851 C843 0.929 . S
H852 C860 0.929 . S
H853 C862 0.930 . S
H854 C864 0.930 . S
H855 C867 0.929 . S
H856 C870 0.930 . S
H857 C872 0.960 . S
H858 C872 0.960 . S
H859 C872 0.960 . S
C860 H852 0.929 . S
C860 C861 1.377 . S
C860 C862 1.384 . S
C861 C860 1.377 . S
C861 C867 1.390 . S
C862 H853 0.930 . S
C862 C860 1.384 . S
C862 C863 1.372 . S
C863 C862 1.372 . S
C863 C864 1.400 . S
C863 C868 1.490 . S
C864 H854 0.930 . S
C864 C863 1.400 . S
C864 C867 1.386 . S
H865 C881 0.930 . S
H866 C882 0.931 1_556 S
C867 H855 0.929 . S
C867 C861 1.390 . S
C867 C864 1.386 . S
C868 C863 1.490 . S
C868 C870 1.395 . S
C868 C871 1.403 . S
H869 C875 0.930 . S
C870 H856 0.930 . S
C870 C868 1.395 . S
C870 C873 1.403 . S
C871 C868 1.403 . S
C871 C872 1.524 . S
C871 C875 1.400 . S
C872 H857 0.960 . S
C872 H858 0.960 . S
C872 H859 0.960 . S
C872 C871 1.524 . S
C873 C870 1.403 . S
C873 C874 1.392 . S
C873 C877 1.495 . S
C874 C873 1.392 . S
C874 C875 1.385 . S
C874 C876 1.478 . S
C875 H869 0.930 . S
C875 C871 1.400 . S
C875 C874 1.385 . S
C876 C874 1.478 . S
C876 C878 1.381 . S
C876 C882 1.383 . S
C877 C873 1.495 . S
C877 H883 0.959 . S
C877 H884 0.961 . S
C877 H885 0.960 . S
C878 C876 1.381 . S
C878 C879 1.394 . S
C878 H886 0.930 . S
C879 C878 1.394 . S
C879 C880 1.383 . S
C879 H887 0.929 . S
C880 C879 1.383 . S
C880 C881 1.377 1_554 S
C881 H865 0.930 . S
C881 C880 1.377 1_556 S
C881 C882 1.379 1_556 S
C882 H866 0.931 1_554 S
C882 C876 1.383 . S
C882 C881 1.379 1_554 S
H883 C877 0.959 . S
H884 C877 0.961 . S
H885 C877 0.960 . S
H886 C878 0.930 . S
H887 C879 0.929 . S
H888 C896 0.929 . S
H889 C898 0.930 . S
H890 C900 0.930 . S
H891 C903 0.929 . S
H892 C906 0.930 . S
H893 C908 0.960 . S
H894 C908 0.960 1_455 S
H895 C908 0.960 . S
C896 H888 0.929 . S
C896 C897 1.377 . S
C896 C898 1.384 1_455 S
C897 C896 1.377 . S
C897 C903 1.390 . S
C898 H889 0.930 . S
C898 C896 1.384 1_655 S
C898 C899 1.372 . S
C899 C898 1.372 . S
C899 C900 1.400 . S
C899 C904 1.490 . S
C900 H890 0.930 . S
C900 C899 1.400 . S
C900 C903 1.386 1_655 S
H901 C917 0.930 . S
H902 C918 0.931 . S
C903 H891 0.929 . S
C903 C897 1.390 . S
C903 C900 1.386 1_455 S
C904 C899 1.490 . S
C904 C906 1.395 . S
C904 C907 1.403 . S
H905 C911 0.930 . S
C906 H892 0.930 . S
C906 C904 1.395 . S
C906 C909 1.403 . S
C907 C904 1.403 . S
C907 C908 1.524 . S
C907 C911 1.400 . S
C908 H893 0.960 . S
C908 H894 0.960 1_655 S
C908 H895 0.960 . S
C908 C907 1.524 . S
C909 C906 1.403 . S
C909 C910 1.392 . S
C909 C913 1.495 . S
C910 C909 1.392 . S
C910 C911 1.385 . S
C910 C912 1.478 . S
C911 H905 0.930 . S
C911 C907 1.400 . S
C911 C910 1.385 . S
C912 C910 1.478 . S
C912 C914 1.381 . S
C912 C918 1.383 . S
C913 C909 1.495 . S
C913 H919 0.959 . S
C913 H920 0.961 . S
C913 H921 0.960 . S
C914 C912 1.381 . S
C914 C915 1.394 . S
C914 H922 0.930 . S
C915 C914 1.394 . S
C915 C916 1.383 . S
C915 H923 0.929 . S
C916 C915 1.383 . S
C916 C917 1.377 . S
C917 H901 0.930 . S
C917 C916 1.377 . S
C917 C918 1.379 . S
C918 H902 0.931 . S
C918 C912 1.383 . S
C918 C917 1.379 . S
H919 C913 0.959 . S
H920 C913 0.961 . S
H921 C913 0.960 . S
H922 C914 0.930 . S
H923 C915 0.929 . S
H924 C932 0.929 . S
H925 C934 0.930 . S
H926 C936 0.930 . S
H927 C939 0.929 . S
H928 C942 0.930 . S
H929 C944 0.960 . S
H930 C944 0.960 . S
H931 C944 0.960 . S
C932 H924 0.929 . S
C932 C933 1.377 . S
C932 C934 1.384 . S
C933 C932 1.377 . S
C933 C939 1.390 . S
C934 H925 0.930 . S
C934 C932 1.384 . S
C934 C935 1.372 . S
C935 C934 1.372 . S
C935 C936 1.400 . S
C935 C940 1.490 . S
C936 H926 0.930 . S
C936 C935 1.400 . S
C936 C939 1.386 . S
H937 C953 0.930 . S
H938 C954 0.931 . S
C939 H927 0.929 . S
C939 C933 1.390 . S
C939 C936 1.386 . S
C940 C935 1.490 . S
C940 C942 1.395 . S
C940 C943 1.403 . S
H941 C947 0.930 . S
C942 H928 0.930 . S
C942 C940 1.395 . S
C942 C945 1.403 . S
C943 C940 1.403 . S
C943 C944 1.524 . S
C943 C947 1.400 . S
C944 H929 0.960 . S
C944 H930 0.960 . S
C944 H931 0.960 . S
C944 C943 1.524 . S
C945 C942 1.403 . S
C945 C946 1.392 . S
C945 C949 1.495 . S
C946 C945 1.392 . S
C946 C947 1.385 . S
C946 C948 1.478 . S
C947 H941 0.930 . S
C947 C943 1.400 . S
C947 C946 1.385 . S
C948 C946 1.478 . S
C948 C950 1.381 . S
C948 C954 1.383 1_655 S
C949 C945 1.495 . S
C949 H955 0.959 . S
C949 H956 0.961 . S
C949 H957 0.960 . S
C950 C948 1.381 . S
C950 C951 1.394 . S
C950 H958 0.930 . S
C951 C950 1.394 . S
C951 C952 1.383 1_655 S
C951 H959 0.929 . S
C952 C951 1.383 1_455 S
C952 C953 1.377 . S
C953 H937 0.930 . S
C953 C952 1.377 . S
C953 C954 1.379 . S
C954 H938 0.931 . S
C954 C948 1.383 1_455 S
C954 C953 1.379 . S
H955 C949 0.959 . S
H956 C949 0.961 . S
H957 C949 0.960 . S
H958 C950 0.930 . S
H959 C951 0.929 . S
H960 C968 0.929 . S
H961 C970 0.930 1_556 S
H962 C972 0.930 . S
H963 C975 0.929 . S
H964 C978 0.930 . S
H965 C980 0.960 . S
H966 C980 0.960 . S
H967 C980 0.960 . S
C968 H960 0.929 . S
C968 C969 1.377 1_556 S
C968 C970 1.384 1_556 S
C969 C968 1.377 1_554 S
C969 C975 1.390 . S
C970 H961 0.930 1_554 S
C970 C968 1.384 1_554 S
C970 C971 1.372 . S
C971 C970 1.372 . S
C971 C972 1.400 . S
C971 C976 1.490 . S
C972 H962 0.930 . S
C972 C971 1.400 . S
C972 C975 1.386 . S
H973 C989 0.930 . S
H974 C990 0.931 . S
C975 H963 0.929 . S
C975 C969 1.390 . S
C975 C972 1.386 . S
C976 C971 1.490 . S
C976 C978 1.395 . S
C976 C979 1.403 . S
H977 C983 0.930 . S
C978 H964 0.930 . S
C978 C976 1.395 . S
C978 C981 1.403 . S
C979 C976 1.403 . S
C979 C980 1.524 . S
C979 C983 1.400 . S
C980 H965 0.960 . S
C980 H966 0.960 . S
C980 H967 0.960 . S
C980 C979 1.524 . S
C981 C978 1.403 . S
C981 C982 1.392 . S
C981 C985 1.495 . S
C982 C981 1.392 . S
C982 C983 1.385 . S
C982 C984 1.478 . S
C983 H977 0.930 . S
C983 C979 1.400 . S
C983 C982 1.385 . S
C984 C982 1.478 . S
C984 C986 1.381 . S
C984 C990 1.383 . S
C985 C981 1.495 . S
C985 H991 0.959 . S
C985 H992 0.961 . S
C985 H993 0.960 . S
C986 C984 1.381 . S
C986 C987 1.394 . S
C986 H994 0.930 . S
C987 C986 1.394 . S
C987 C988 1.383 . S
C987 H995 0.929 . S
C988 C987 1.383 . S
C988 C989 1.377 . S
C989 H973 0.930 . S
C989 C988 1.377 . S
C989 C990 1.379 . S
C990 H974 0.931 . S
C990 C984 1.383 . S
C990 C989 1.379 . S
H991 C985 0.959 . S
H992 C985 0.961 . S
H993 C985 0.960 . S
H994 C986 0.930 . S
H995 C987 0.929 . S
H996 C1004 0.929 . S
H997 C1006 0.930 . S
H998 C1008 0.930 . S
H999 C1011 0.929 1_554 S
H1000 C1014 0.930 . S
H1001 C1016 0.960 . S
H1002 C1016 0.960 . S
H1003 C1016 0.960 . S
C1004 H996 0.929 . S
C1004 C1005 1.377 . S
C1004 C1006 1.384 . S
C1005 C1004 1.377 . S
C1005 C1011 1.390 . S
C1006 H997 0.930 . S
C1006 C1004 1.384 . S
C1006 C1007 1.372 . S
C1007 C1006 1.372 . S
C1007 C1008 1.400 . S
C1007 C1012 1.490 . S
C1008 H998 0.930 . S
C1008 C1007 1.400 . S
C1008 C1011 1.386 . S
H1009 C1025 0.930 . S
H1010 C1026 0.931 . S
C1011 H999 0.929 1_556 S
C1011 C1005 1.390 . S
C1011 C1008 1.386 . S
C1012 C1007 1.490 . S
C1012 C1014 1.395 . S
C1012 C1015 1.403 . S
H1013 C1019 0.930 . S
C1014 H1000 0.930 . S
C1014 C1012 1.395 . S
C1014 C1017 1.403 . S
C1015 C1012 1.403 . S
C1015 C1016 1.524 . S
C1015 C1019 1.400 . S
C1016 H1001 0.960 . S
C1016 H1002 0.960 . S
C1016 H1003 0.960 . S
C1016 C1015 1.524 . S
C1017 C1014 1.403 . S
C1017 C1018 1.392 . S
C1017 C1021 1.495 . S
C1018 C1017 1.392 . S
C1018 C1019 1.385 . S
C1018 C1020 1.478 . S
C1019 H1013 0.930 . S
C1019 C1015 1.400 . S
C1019 C1018 1.385 . S
C1020 C1018 1.478 . S
C1020 C1022 1.381 . S
C1020 C1026 1.383 . S
C1021 C1017 1.495 . S
C1021 H1027 0.959 . S
C1021 H1028 0.961 . S
C1021 H1029 0.960 . S
C1022 C1020 1.381 . S
C1022 C1023 1.394 . S
C1022 H1030 0.930 . S
C1023 C1022 1.394 . S
C1023 C1024 1.383 . S
C1023 H1031 0.929 . S
C1024 C1023 1.383 . S
C1024 C1025 1.377 . S
C1025 H1009 0.930 . S
C1025 C1024 1.377 . S
C1025 C1026 1.379 . S
C1026 H1010 0.931 . S
C1026 C1020 1.383 . S
C1026 C1025 1.379 . S
H1027 C1021 0.959 . S
H1028 C1021 0.961 . S
H1029 C1021 0.960 . S
H1030 C1022 0.930 . S
H1031 C1023 0.929 . S
H1032 C1040 0.929 . S
H1033 C1042 0.930 . S
H1034 C1044 0.930 . S
H1035 C1047 0.929 . S
H1036 C1050 0.930 . S
H1037 C1052 0.960 . S
H1038 C1052 0.960 . S
H1039 C1052 0.960 . S
C1040 H1032 0.929 . S
C1040 C1041 1.377 . S
C1040 C1042 1.384 . S
C1041 C1040 1.377 . S
C1041 C1047 1.390 . S
C1042 H1033 0.930 . S
C1042 C1040 1.384 . S
C1042 C1043 1.372 . S
C1043 C1042 1.372 . S
C1043 C1044 1.400 . S
C1043 C1048 1.490 . S
C1044 H1034 0.930 . S
C1044 C1043 1.400 . S
C1044 C1047 1.386 . S
H1045 C1061 0.930 . S
H1046 C1062 0.931 . S
C1047 H1035 0.929 . S
C1047 C1041 1.390 . S
C1047 C1044 1.386 . S
C1048 C1043 1.490 . S
C1048 C1050 1.395 . S
C1048 C1051 1.403 . S
H1049 C1055 0.930 . S
C1050 H1036 0.930 . S
C1050 C1048 1.395 . S
C1050 C1053 1.403 . S
C1051 C1048 1.403 . S
C1051 C1052 1.524 . S
C1051 C1055 1.400 . S
C1052 H1037 0.960 . S
C1052 H1038 0.960 . S
C1052 H1039 0.960 . S
C1052 C1051 1.524 . S
C1053 C1050 1.403 . S
C1053 C1054 1.392 . S
C1053 C1057 1.495 . S
C1054 C1053 1.392 . S
C1054 C1055 1.385 . S
C1054 C1056 1.478 . S
C1055 H1049 0.930 . S
C1055 C1051 1.400 . S
C1055 C1054 1.385 . S
C1056 C1054 1.478 . S
C1056 C1058 1.381 . S
C1056 C1062 1.383 . S
C1057 C1053 1.495 . S
C1057 H1063 0.959 . S
C1057 H1064 0.961 . S
C1057 H1065 0.960 . S
C1058 C1056 1.381 . S
C1058 C1059 1.394 . S
C1058 H1066 0.930 . S
C1059 C1058 1.394 . S
C1059 C1060 1.383 . S
C1059 H1067 0.929 . S
C1060 C1059 1.383 . S
C1060 C1061 1.377 . S
C1061 H1045 0.930 . S
C1061 C1060 1.377 . S
C1061 C1062 1.379 . S
C1062 H1046 0.931 . S
C1062 C1056 1.383 . S
C1062 C1061 1.379 . S
H1063 C1057 0.959 . S
H1064 C1057 0.961 . S
H1065 C1057 0.960 . S
H1066 C1058 0.930 . S
H1067 C1059 0.929 . S
H1068 C1076 0.929 . S
H1069 C1078 0.930 . S
H1070 C1080 0.930 . S
H1071 C1083 0.929 . S
H1072 C1086 0.930 . S
H1073 C1088 0.960 . S
H1074 C1088 0.960 . S
H1075 C1088 0.960 . S
C1076 H1068 0.929 . S
C1076 C1077 1.377 . S
C1076 C1078 1.384 . S
C1077 C1076 1.377 . S
C1077 C1083 1.390 . S
C1078 H1069 0.930 . S
C1078 C1076 1.384 . S
C1078 C1079 1.372 . S
C1079 C1078 1.372 . S
C1079 C1080 1.400 . S
C1079 C1084 1.490 . S
C1080 H1070 0.930 . S
C1080 C1079 1.400 . S
C1080 C1083 1.386 . S
H1081 C1097 0.930 . S
H1082 C1098 0.931 . S
C1083 H1071 0.929 . S
C1083 C1077 1.390 . S
C1083 C1080 1.386 . S
C1084 C1079 1.490 . S
C1084 C1086 1.395 . S
C1084 C1087 1.403 . S
H1085 C1091 0.930 . S
C1086 H1072 0.930 . S
C1086 C1084 1.395 . S
C1086 C1089 1.403 . S
C1087 C1084 1.403 . S
C1087 C1088 1.524 . S
C1087 C1091 1.400 . S
C1088 H1073 0.960 . S
C1088 H1074 0.960 . S
C1088 H1075 0.960 . S
C1088 C1087 1.524 . S
C1089 C1086 1.403 . S
C1089 C1090 1.392 . S
C1089 C1093 1.495 . S
C1090 C1089 1.392 . S
C1090 C1091 1.385 . S
C1090 C1092 1.478 . S
C1091 H1085 0.930 . S
C1091 C1087 1.400 . S
C1091 C1090 1.385 . S
C1092 C1090 1.478 . S
C1092 C1094 1.381 . S
C1092 C1098 1.383 . S
C1093 C1089 1.495 . S
C1093 H1099 0.959 . S
C1093 H1100 0.961 . S
C1093 H1101 0.960 . S
C1094 C1092 1.381 . S
C1094 C1095 1.394 . S
C1094 H1102 0.930 . S
C1095 C1094 1.394 . S
C1095 C1096 1.383 . S
C1095 H1103 0.929 . S
C1096 C1095 1.383 . S
C1096 C1097 1.377 . S
C1097 H1081 0.930 . S
C1097 C1096 1.377 . S
C1097 C1098 1.379 . S
C1098 H1082 0.931 . S
C1098 C1092 1.383 . S
C1098 C1097 1.379 . S
H1099 C1093 0.959 . S
H1100 C1093 0.961 . S
H1101 C1093 0.960 . S
H1102 C1094 0.930 . S
H1103 C1095 0.929 . S
H1104 C1112 0.929 . S
H1105 C1114 0.930 . S
H1106 C1116 0.930 . S
H1107 C1119 0.929 . S
H1108 C1122 0.930 . S
H1109 C1124 0.960 . S
H1110 C1124 0.960 . S
H1111 C1124 0.960 . S
C1112 H1104 0.929 . S
C1112 C1113 1.377 . S
C1112 C1114 1.384 . S
C1113 C1112 1.377 . S
C1113 C1119 1.390 . S
C1114 H1105 0.930 . S
C1114 C1112 1.384 . S
C1114 C1115 1.372 . S
C1115 C1114 1.372 . S
C1115 C1116 1.400 . S
C1115 C1120 1.490 . S
C1116 H1106 0.930 . S
C1116 C1115 1.400 . S
C1116 C1119 1.386 . S
H1117 C1133 0.930 . S
H1118 C1134 0.931 . S
C1119 H1107 0.929 . S
C1119 C1113 1.390 . S
C1119 C1116 1.386 . S
C1120 C1115 1.490 . S
C1120 C1122 1.395 1_554 S
C1120 C1123 1.403 1_545 S
H1121 C1127 0.930 1_554 S
C1122 H1108 0.930 . S
C1122 C1120 1.395 1_556 S
C1122 C1125 1.403 . S
C1123 C1120 1.403 1_565 S
C1123 C1124 1.524 . S
C1123 C1127 1.394 1_554 S
C1124 H1109 0.960 . S
C1124 H1110 0.960 . S
C1124 H1111 0.960 . S
C1124 C1123 1.524 . S
C1125 C1122 1.403 . S
C1125 C1126 1.392 1_545 S
C1125 C1129 1.495 . S
C1126 C1125 1.392 1_565 S
C1126 C1127 1.392 . S
C1126 C1128 1.478 . S
C1127 H1121 0.930 1_556 S
C1127 C1123 1.394 1_556 S
C1127 C1126 1.392 . S
C1128 C1126 1.478 . S
C1128 C1130 1.381 . S
C1128 C1134 1.383 . S
C1129 C1125 1.495 . S
C1129 H1135 0.959 . S
C1129 H1136 0.961 . S
C1129 H1137 0.960 . S
C1130 C1128 1.381 . S
C1130 C1131 1.394 . S
C1130 H1138 0.930 . S
C1131 C1130 1.394 . S
C1131 C1132 1.383 . S
C1131 H1139 0.929 . S
C1132 C1131 1.383 . S
C1132 C1133 1.377 . S
C1133 H1117 0.930 . S
C1133 C1132 1.377 . S
C1133 C1134 1.379 . S
C1134 H1118 0.931 . S
C1134 C1128 1.383 . S
C1134 C1133 1.379 . S
H1135 C1129 0.959 . S
H1136 C1129 0.961 . S
H1137 C1129 0.960 . S
H1138 C1130 0.930 . S
H1139 C1131 0.929 . S
H1140 C1148 0.929 . S
H1141 C1150 0.930 . S
H1142 C1152 0.930 . S
H1143 C1155 0.929 . S
H1144 C1158 0.930 . S
H1145 C1160 0.960 . S
H1146 C1160 0.960 . S
H1147 C1160 0.960 . S
C1148 H1140 0.929 . S
C1148 C1149 1.377 . S
C1148 C1150 1.384 . S
C1149 C1148 1.377 . S
C1149 C1155 1.390 . S
C1150 H1141 0.930 . S
C1150 C1148 1.384 . S
C1150 C1151 1.372 . S
C1151 C1150 1.372 . S
C1151 C1152 1.400 . S
C1151 C1156 1.490 . S
C1152 H1142 0.930 . S
C1152 C1151 1.400 . S
C1152 C1155 1.386 . S
H1153 C1169 0.930 . S
H1154 C1170 0.931 . S
C1155 H1143 0.929 . S
C1155 C1149 1.390 . S
C1155 C1152 1.386 . S
C1156 C1151 1.490 . S
C1156 C1158 1.395 . S
C1156 C1159 1.403 . S
H1157 C1163 0.930 . S
C1158 H1144 0.930 . S
C1158 C1156 1.395 . S
C1158 C1161 1.403 . S
C1159 C1156 1.403 . S
C1159 C1160 1.524 . S
C1159 C1163 1.400 . S
C1160 H1145 0.960 . S
C1160 H1146 0.960 . S
C1160 H1147 0.960 . S
C1160 C1159 1.524 . S
C1161 C1158 1.403 . S
C1161 C1162 1.392 . S
C1161 C1165 1.495 . S
C1162 C1161 1.392 . S
C1162 C1163 1.385 . S
C1162 C1164 1.478 . S
C1163 H1157 0.930 . S
C1163 C1159 1.400 . S
C1163 C1162 1.385 . S
C1164 C1162 1.478 . S
C1164 C1166 1.381 . S
C1164 C1170 1.383 . S
C1165 C1161 1.495 . S
C1165 H1171 0.959 . S
C1165 H1172 0.961 . S
C1165 H1173 0.960 . S
C1166 C1164 1.381 . S
C1166 C1167 1.394 . S
C1166 H1174 0.930 . S
C1167 C1166 1.394 . S
C1167 C1168 1.383 . S
C1167 H1175 0.929 . S
C1168 C1167 1.383 . S
C1168 C1169 1.377 . S
C1169 H1153 0.930 . S
C1169 C1168 1.377 . S
C1169 C1170 1.379 . S
C1170 H1154 0.931 . S
C1170 C1164 1.383 . S
C1170 C1169 1.379 . S
H1171 C1165 0.959 . S
H1172 C1165 0.961 . S
H1173 C1165 0.960 . S
H1174 C1166 0.930 . S
H1175 C1167 0.929 . S
H1176 C1184 0.929 . S
H1177 C1186 0.930 . S
H1178 C1188 0.930 . S
H1179 C1191 0.929 . S
H1180 C1194 0.930 . S
H1181 C1196 0.939 1_565 S
H1182 C1196 0.960 . S
H1183 C1196 0.960 . S
C1184 H1176 0.929 . S
C1184 C1185 1.377 . S
C1184 C1186 1.384 . S
C1185 C1184 1.377 . S
C1185 C1191 1.390 . S
C1186 H1177 0.930 . S
C1186 C1184 1.384 . S
C1186 C1187 1.372 . S
C1187 C1186 1.372 . S
C1187 C1188 1.400 . S
C1187 C1192 1.490 . S
C1188 H1178 0.930 . S
C1188 C1187 1.400 . S
C1188 C1191 1.386 . S
H1189 C1205 0.930 . S
H1190 C1206 0.931 . S
C1191 H1179 0.929 . S
C1191 C1185 1.390 . S
C1191 C1188 1.386 . S
C1192 C1187 1.490 . S
C1192 C1194 1.395 . S
C1192 C1195 1.403 . S
H1193 C1199 0.930 . S
C1194 H1180 0.930 . S
C1194 C1192 1.395 . S
C1194 C1197 1.403 1_545 S
C1195 C1192 1.403 . S
C1195 C1196 1.524 . S
C1195 C1199 1.400 1_545 S
C1196 H1181 0.939 1_545 S
C1196 H1182 0.960 . S
C1196 H1183 0.960 . S
C1196 C1195 1.524 . S
C1197 C1194 1.403 1_565 S
C1197 C1198 1.392 . S
C1197 C1201 1.495 . S
C1198 C1197 1.392 . S
C1198 C1199 1.385 . S
C1198 C1200 1.478 . S
C1199 H1193 0.930 . S
C1199 C1195 1.400 1_565 S
C1199 C1198 1.385 . S
C1200 C1198 1.478 . S
C1200 C1202 1.381 . S
C1200 C1206 1.383 . S
C1201 C1197 1.495 . S
C1201 H1207 0.959 1_565 S
C1201 H1208 0.961 . S
C1201 H1209 0.952 1_565 S
C1202 C1200 1.381 . S
C1202 C1203 1.394 . S
C1202 H1210 0.930 . S
C1203 C1202 1.394 . S
C1203 C1204 1.383 . S
C1203 H1211 0.929 . S
C1204 C1203 1.383 . S
C1204 C1205 1.377 . S
C1205 H1189 0.930 . S
C1205 C1204 1.377 . S
C1205 C1206 1.379 . S
C1206 H1190 0.931 . S
C1206 C1200 1.383 . S
C1206 C1205 1.379 . S
H1207 C1201 0.959 1_545 S
H1208 C1201 0.961 . S
H1209 C1201 0.952 1_545 S
H1210 C1202 0.930 . S
H1211 C1203 0.929 . S
H1212 C1220 0.929 . S
H1213 C1222 0.930 . S
H1214 C1224 0.930 . S
H1215 C1227 0.929 . S
H1216 C1230 0.930 . S
H1217 C1232 0.960 . S
H1218 C1232 0.960 . S
H1219 C1232 0.960 . S
C1220 H1212 0.929 . S
C1220 C1221 1.377 . S
C1220 C1222 1.384 . S
C1221 C1220 1.377 . S
C1221 C1227 1.390 . S
C1222 H1213 0.930 . S
C1222 C1220 1.384 . S
C1222 C1223 1.372 . S
C1223 C1222 1.372 . S
C1223 C1224 1.400 . S
C1223 C1228 1.490 . S
C1224 H1214 0.930 . S
C1224 C1223 1.400 . S
C1224 C1227 1.386 . S
H1225 C1241 0.930 . S
H1226 C1242 0.931 . S
C1227 H1215 0.929 . S
C1227 C1221 1.390 . S
C1227 C1224 1.386 . S
C1228 C1223 1.490 . S
C1228 C1230 1.395 . S
C1228 C1231 1.403 . S
H1229 C1235 0.930 . S
C1230 H1216 0.930 . S
C1230 C1228 1.395 . S
C1230 C1233 1.403 . S
C1231 C1228 1.403 . S
C1231 C1232 1.524 . S
C1231 C1235 1.400 . S
C1232 H1217 0.960 . S
C1232 H1218 0.960 . S
C1232 H1219 0.960 . S
C1232 C1231 1.524 . S
C1233 C1230 1.403 . S
C1233 C1234 1.392 . S
C1233 C1237 1.495 . S
C1234 C1233 1.392 . S
C1234 C1235 1.385 . S
C1234 C1236 1.478 . S
C1235 H1229 0.930 . S
C1235 C1231 1.400 . S
C1235 C1234 1.385 . S
C1236 C1234 1.478 . S
C1236 C1238 1.381 . S
C1236 C1242 1.383 . S
C1237 C1233 1.495 . S
C1237 H1243 0.959 . S
C1237 H1244 0.961 . S
C1237 H1245 0.960 . S
C1238 C1236 1.381 . S
C1238 C1239 1.394 . S
C1238 H1246 0.930 . S
C1239 C1238 1.394 . S
C1239 C1240 1.383 . S
C1239 H1247 0.929 . S
C1240 C1239 1.383 . S
C1240 C1241 1.377 . S
C1241 H1225 0.930 . S
C1241 C1240 1.377 . S
C1241 C1242 1.379 . S
C1242 H1226 0.931 . S
C1242 C1236 1.383 . S
C1242 C1241 1.379 . S
H1243 C1237 0.959 . S
H1244 C1237 0.961 . S
H1245 C1237 0.960 . S
H1246 C1238 0.930 . S
H1247 C1239 0.929 . S
H1248 C1256 0.929 . S
H1249 C1258 0.930 . S
H1250 C1260 0.930 . S
H1251 C1263 0.929 . S
H1252 C1266 0.930 . S
H1253 C1268 0.960 . S
H1254 C1268 0.960 . S
H1255 C1268 0.960 . S
C1256 H1248 0.929 . S
C1256 C1257 1.377 . S
C1256 C1258 1.384 . S
C1257 C1256 1.377 . S
C1257 C1263 1.390 . S
C1258 H1249 0.930 . S
C1258 C1256 1.384 . S
C1258 C1259 1.372 . S
C1259 C1258 1.372 . S
C1259 C1260 1.400 . S
C1259 C1264 1.490 . S
C1260 H1250 0.930 . S
C1260 C1259 1.400 . S
C1260 C1263 1.386 . S
H1261 C1277 0.930 . S
H1262 C1278 0.931 . S
C1263 H1251 0.929 . S
C1263 C1257 1.390 . S
C1263 C1260 1.386 . S
C1264 C1259 1.490 . S
C1264 C1266 1.395 . S
C1264 C1267 1.403 . S
H1265 C1271 0.930 . S
C1266 H1252 0.930 . S
C1266 C1264 1.395 . S
C1266 C1269 1.403 . S
C1267 C1264 1.403 . S
C1267 C1268 1.524 . S
C1267 C1271 1.400 . S
C1268 H1253 0.960 . S
C1268 H1254 0.960 . S
C1268 H1255 0.960 . S
C1268 C1267 1.524 . S
C1269 C1266 1.403 . S
C1269 C1270 1.392 . S
C1269 C1273 1.495 . S
C1270 C1269 1.392 . S
C1270 C1271 1.385 . S
C1270 C1272 1.478 . S
C1271 H1265 0.930 . S
C1271 C1267 1.400 . S
C1271 C1270 1.385 . S
C1272 C1270 1.478 . S
C1272 C1274 1.381 . S
C1272 C1278 1.383 . S
C1273 C1269 1.495 . S
C1273 H1279 0.959 . S
C1273 H1280 0.961 . S
C1273 H1281 0.960 . S
C1274 C1272 1.381 . S
C1274 C1275 1.394 . S
C1274 H1282 0.930 . S
C1275 C1274 1.394 . S
C1275 C1276 1.383 . S
C1275 H1283 0.929 . S
C1276 C1275 1.383 . S
C1276 C1277 1.377 . S
C1277 H1261 0.930 . S
C1277 C1276 1.377 . S
C1277 C1278 1.379 . S
C1278 H1262 0.931 . S
C1278 C1272 1.383 . S
C1278 C1277 1.379 . S
H1279 C1273 0.959 . S
H1280 C1273 0.961 . S
H1281 C1273 0.960 . S
H1282 C1274 0.930 . S
H1283 C1275 0.929 . S
H1284 C1292 0.929 . S
H1285 C1294 0.930 . S
H1286 C1296 0.930 . S
H1287 C1299 0.929 . S
H1288 C1302 0.930 . S
H1289 C1304 0.960 . S
H1290 C1304 0.960 . S
H1291 C1304 0.960 . S
C1292 H1284 0.929 . S
C1292 C1293 1.377 . S
C1292 C1294 1.384 . S
C1293 C1292 1.377 . S
C1293 C1299 1.390 . S
C1294 H1285 0.930 . S
C1294 C1292 1.384 . S
C1294 C1295 1.372 . S
C1295 C1294 1.372 . S
C1295 C1296 1.400 . S
C1295 C1300 1.490 . S
C1296 H1286 0.930 . S
C1296 C1295 1.400 . S
C1296 C1299 1.386 . S
H1297 C1313 0.930 . S
H1298 C1314 0.931 . S
C1299 H1287 0.929 . S
C1299 C1293 1.390 . S
C1299 C1296 1.386 . S
C1300 C1295 1.490 . S
C1300 C1302 1.395 . S
C1300 C1303 1.403 . S
H1301 C1307 0.930 . S
C1302 H1288 0.930 . S
C1302 C1300 1.395 . S
C1302 C1305 1.403 . S
C1303 C1300 1.403 . S
C1303 C1304 1.524 . S
C1303 C1307 1.400 . S
C1304 H1289 0.960 . S
C1304 H1290 0.960 . S
C1304 H1291 0.960 . S
C1304 C1303 1.524 . S
C1305 C1302 1.403 . S
C1305 C1306 1.392 . S
C1305 C1309 1.495 . S
C1306 C1305 1.392 . S
C1306 C1307 1.385 . S
C1306 C1308 1.478 . S
C1307 H1301 0.930 . S
C1307 C1303 1.400 . S
C1307 C1306 1.385 . S
C1308 C1306 1.478 . S
C1308 C1310 1.381 . S
C1308 C1314 1.383 . S
C1309 C1305 1.495 . S
C1309 H1315 0.959 . S
C1309 H1316 0.961 . S
C1309 H1317 0.960 . S
C1310 C1308 1.381 . S
C1310 C1311 1.394 . S
C1310 H1318 0.930 . S
C1311 C1310 1.394 . S
C1311 C1312 1.383 . S
C1311 H1319 0.929 . S
C1312 C1311 1.383 . S
C1312 C1313 1.377 . S
C1313 H1297 0.930 . S
C1313 C1312 1.377 . S
C1313 C1314 1.379 . S
C1314 H1298 0.931 . S
C1314 C1308 1.383 . S
C1314 C1313 1.379 . S
H1315 C1309 0.959 . S
H1316 C1309 0.961 . S
H1317 C1309 0.960 . S
H1318 C1310 0.930 . S
H1319 C1311 0.929 . S
H1320 C1328 0.929 . S
H1321 C1330 0.930 . S
H1322 C1332 0.930 . S
H1323 C1335 0.929 . S
H1324 C1338 0.930 . S
H1325 C1340 0.960 . S
H1326 C1340 0.960 . S
H1327 C1340 0.960 . S
C1328 H1320 0.929 . S
C1328 C1329 1.377 . S
C1328 C1330 1.384 . S
C1329 C1328 1.377 . S
C1329 C1335 1.390 . S
C1330 H1321 0.930 . S
C1330 C1328 1.384 . S
C1330 C1331 1.372 . S
C1331 C1330 1.372 . S
C1331 C1332 1.400 . S
C1331 C1336 1.490 . S
C1332 H1322 0.930 . S
C1332 C1331 1.400 . S
C1332 C1335 1.386 . S
H1333 C1349 0.930 . S
H1334 C1350 0.931 . S
C1335 H1323 0.929 . S
C1335 C1329 1.390 . S
C1335 C1332 1.386 . S
C1336 C1331 1.490 . S
C1336 C1338 1.395 . S
C1336 C1339 1.403 . S
H1337 C1343 0.930 . S
C1338 H1324 0.930 . S
C1338 C1336 1.395 . S
C1338 C1341 1.403 . S
C1339 C1336 1.403 . S
C1339 C1340 1.524 . S
C1339 C1343 1.400 . S
C1340 H1325 0.960 . S
C1340 H1326 0.960 . S
C1340 H1327 0.960 . S
C1340 C1339 1.524 . S
C1341 C1338 1.403 . S
C1341 C1342 1.392 . S
C1341 C1345 1.495 . S
C1342 C1341 1.392 . S
C1342 C1343 1.385 . S
C1342 C1344 1.478 . S
C1343 H1337 0.930 . S
C1343 C1339 1.400 . S
C1343 C1342 1.385 . S
C1344 C1342 1.478 . S
C1344 C1346 1.381 . S
C1344 C1350 1.383 . S
C1345 C1341 1.495 . S
C1345 H1351 0.959 . S
C1345 H1352 0.961 . S
C1345 H1353 0.960 . S
C1346 C1344 1.381 . S
C1346 C1347 1.394 . S
C1346 H1354 0.930 . S
C1347 C1346 1.394 . S
C1347 C1348 1.383 . S
C1347 H1355 0.929 . S
C1348 C1347 1.383 . S
C1348 C1349 1.377 . S
C1349 H1333 0.930 . S
C1349 C1348 1.377 . S
C1349 C1350 1.379 . S
C1350 H1334 0.931 . S
C1350 C1344 1.383 . S
C1350 C1349 1.379 . S
H1351 C1345 0.959 . S
H1352 C1345 0.961 . S
H1353 C1345 0.960 . S
H1354 C1346 0.930 . S
H1355 C1347 0.929 . S
H1356 C1364 0.929 . S
H1357 C1366 0.930 . S
H1358 C1368 0.930 . S
H1359 C1371 0.929 . S
H1360 C1374 0.930 . S
H1361 C1376 0.960 . S
H1362 C1376 0.960 . S
H1363 C1376 0.960 . S
C1364 H1356 0.929 . S
C1364 C1365 1.377 . S
C1364 C1366 1.384 . S
C1365 C1364 1.377 . S
C1365 C1371 1.390 . S
C1366 H1357 0.930 . S
C1366 C1364 1.384 . S
C1366 C1367 1.372 . S
C1367 C1366 1.372 . S
C1367 C1368 1.400 . S
C1367 C1372 1.490 . S
C1368 H1358 0.930 . S
C1368 C1367 1.400 . S
C1368 C1371 1.386 . S
H1369 C1385 0.930 . S
H1370 C1386 0.931 . S
C1371 H1359 0.929 . S
C1371 C1365 1.390 . S
C1371 C1368 1.386 . S
C1372 C1367 1.490 . S
C1372 C1374 1.395 1_556 S
C1372 C1375 1.403 . S
H1373 C1379 0.930 1_556 S
C1374 H1360 0.930 . S
C1374 C1372 1.395 1_554 S
C1374 C1377 1.403 . S
C1375 C1372 1.403 . S
C1375 C1376 1.524 . S
C1375 C1379 1.393 1_556 S
C1376 H1361 0.960 . S
C1376 H1362 0.960 . S
C1376 H1363 0.960 . S
C1376 C1375 1.524 . S
C1377 C1374 1.403 . S
C1377 C1378 1.392 . S
C1377 C1381 1.495 . S
C1378 C1377 1.392 . S
C1378 C1379 1.392 . S
C1378 C1380 1.478 . S
C1379 H1373 0.930 1_554 S
C1379 C1375 1.393 1_554 S
C1379 C1378 1.392 . S
C1380 C1378 1.478 . S
C1380 C1382 1.381 . S
C1380 C1386 1.383 . S
C1381 C1377 1.495 . S
C1381 H1387 0.959 . S
C1381 H1388 0.961 . S
C1381 H1389 0.960 . S
C1382 C1380 1.381 . S
C1382 C1383 1.394 . S
C1382 H1390 0.930 . S
C1383 C1382 1.394 . S
C1383 C1384 1.383 . S
C1383 H1391 0.929 . S
C1384 C1383 1.383 . S
C1384 C1385 1.377 . S
C1385 H1369 0.930 . S
C1385 C1384 1.377 . S
C1385 C1386 1.379 . S
C1386 H1370 0.931 . S
C1386 C1380 1.383 . S
C1386 C1385 1.379 . S
H1387 C1381 0.959 . S
H1388 C1381 0.961 . S
H1389 C1381 0.960 . S
H1390 C1382 0.930 . S
H1391 C1383 0.929 . S
H1392 C1400 0.929 . S
H1393 C1402 0.930 . S
H1394 C1404 0.930 . S
H1395 C1407 0.929 . S
H1396 C1410 0.930 . S
H1397 C1412 0.960 . S
H1398 C1412 0.960 . S
H1399 C1412 0.960 . S
C1400 H1392 0.929 . S
C1400 C1401 1.377 . S
C1400 C1402 1.384 1_554 S
C1401 C1400 1.377 . S
C1401 C1407 1.390 . S
C1402 H1393 0.930 . S
C1402 C1400 1.384 1_556 S
C1402 C1403 1.372 . S
C1403 C1402 1.372 . S
C1403 C1404 1.400 . S
C1403 C1408 1.490 . S
C1404 H1394 0.930 . S
C1404 C1403 1.400 . S
C1404 C1407 1.386 1_556 S
H1405 C1421 0.930 . S
H1406 C1422 0.931 . S
C1407 H1395 0.929 . S
C1407 C1401 1.390 . S
C1407 C1404 1.386 1_554 S
C1408 C1403 1.490 . S
C1408 C1410 1.395 . S
C1408 C1411 1.403 . S
H1409 C1415 0.930 . S
C1410 H1396 0.930 . S
C1410 C1408 1.395 . S
C1410 C1413 1.403 . S
C1411 C1408 1.403 . S
C1411 C1412 1.524 . S
C1411 C1415 1.400 . S
C1412 H1397 0.960 . S
C1412 H1398 0.960 . S
C1412 H1399 0.960 . S
C1412 C1411 1.524 . S
C1413 C1410 1.403 . S
C1413 C1414 1.392 . S
C1413 C1417 1.495 . S
C1414 C1413 1.392 . S
C1414 C1415 1.385 . S
C1414 C1416 1.478 . S
C1415 H1409 0.930 . S
C1415 C1411 1.400 . S
C1415 C1414 1.385 . S
C1416 C1414 1.478 . S
C1416 C1418 1.381 . S
C1416 C1422 1.383 . S
C1417 C1413 1.495 . S
C1417 H1423 0.959 . S
C1417 H1424 0.961 . S
C1417 H1425 0.960 . S
C1418 C1416 1.381 . S
C1418 C1419 1.394 . S
C1418 H1426 0.930 . S
C1419 C1418 1.394 . S
C1419 C1420 1.383 . S
C1419 H1427 0.929 . S
C1420 C1419 1.383 . S
C1420 C1421 1.377 . S
C1421 H1405 0.930 . S
C1421 C1420 1.377 . S
C1421 C1422 1.379 . S
C1422 H1406 0.931 . S
C1422 C1416 1.383 . S
C1422 C1421 1.379 . S
H1423 C1417 0.959 . S
H1424 C1417 0.961 . S
H1425 C1417 0.960 . S
H1426 C1418 0.930 . S
H1427 C1419 0.929 . S
H1428 C1436 0.929 . S
H1429 C1438 0.930 . S
H1430 C1440 0.930 . S
H1431 C1443 0.929 . S
H1432 C1446 0.930 . S
H1433 C1448 0.960 . S
H1434 C1448 0.960 . S
H1435 C1448 0.960 . S
C1436 H1428 0.929 . S
C1436 C1437 1.377 . S
C1436 C1438 1.384 . S
C1437 C1436 1.377 . S
C1437 C1443 1.390 . S
C1438 H1429 0.930 . S
C1438 C1436 1.384 . S
C1438 C1439 1.372 . S
C1439 C1438 1.372 . S
C1439 C1440 1.400 . S
C1439 C1444 1.490 . S
C1440 H1430 0.930 . S
C1440 C1439 1.400 . S
C1440 C1443 1.386 . S
H1441 C1457 0.930 . S
H1442 C1458 0.931 . S
C1443 H1431 0.929 . S
C1443 C1437 1.390 . S
C1443 C1440 1.386 . S
C1444 C1439 1.490 . S
C1444 C1446 1.395 . S
C1444 C1447 1.403 . S
H1445 C1451 0.930 1_556 S
C1446 H1432 0.930 . S
C1446 C1444 1.395 . S
C1446 C1449 1.403 . S
C1447 C1444 1.403 . S
C1447 C1448 1.524 . S
C1447 C1451 1.400 . S
C1448 H1433 0.960 . S
C1448 H1434 0.960 . S
C1448 H1435 0.960 . S
C1448 C1447 1.524 . S
C1449 C1446 1.403 . S
C1449 C1450 1.392 1_554 S
C1449 C1453 1.495 1_554 S
C1450 C1449 1.392 1_556 S
C1450 C1451 1.385 1_556 S
C1450 C1452 1.478 . S
C1451 H1445 0.930 1_554 S
C1451 C1447 1.400 . S
C1451 C1450 1.385 1_554 S
C1452 C1450 1.478 . S
C1452 C1454 1.381 . S
C1452 C1458 1.383 . S
C1453 C1449 1.495 1_556 S
C1453 H1459 0.959 1_556 S
C1453 H1460 0.961 . S
C1453 H1461 0.960 . S
C1454 C1452 1.381 . S
C1454 C1455 1.394 . S
C1454 H1462 0.930 . S
C1455 C1454 1.394 . S
C1455 C1456 1.383 . S
C1455 H1463 0.929 . S
C1456 C1455 1.383 . S
C1456 C1457 1.377 . S
C1457 H1441 0.930 . S
C1457 C1456 1.377 . S
C1457 C1458 1.379 . S
C1458 H1442 0.931 . S
C1458 C1452 1.383 . S
C1458 C1457 1.379 . S
H1459 C1453 0.959 1_554 S
H1460 C1453 0.961 . S
H1461 C1453 0.960 . S
H1462 C1454 0.930 . S
H1463 C1455 0.929 . S
H1464 C1472 0.929 . S
H1465 C1474 0.930 . S
H1466 C1476 0.930 . S
H1467 C1479 0.929 . S
H1468 C1482 0.930 . S
H1469 C1484 0.960 . S
H1470 C1484 0.960 . S
H1471 C1484 0.960 . S
C1472 H1464 0.929 . S
C1472 C1473 1.377 . S
C1472 C1474 1.384 . S
C1473 C1472 1.377 . S
C1473 C1479 1.390 . S
C1474 H1465 0.930 . S
C1474 C1472 1.384 . S
C1474 C1475 1.372 . S
C1475 C1474 1.372 . S
C1475 C1476 1.400 . S
C1475 C1480 1.490 . S
C1476 H1466 0.930 . S
C1476 C1475 1.400 . S
C1476 C1479 1.386 . S
H1477 C1493 0.930 . S
H1478 C1494 0.931 . S
C1479 H1467 0.929 . S
C1479 C1473 1.390 . S
C1479 C1476 1.386 . S
C1480 C1475 1.490 . S
C1480 C1482 1.395 . S
C1480 C1483 1.403 . S
H1481 C1487 0.930 . S
C1482 H1468 0.930 . S
C1482 C1480 1.395 . S
C1482 C1485 1.403 . S
C1483 C1480 1.403 . S
C1483 C1484 1.524 . S
C1483 C1487 1.400 . S
C1484 H1469 0.960 . S
C1484 H1470 0.960 . S
C1484 H1471 0.960 . S
C1484 C1483 1.524 . S
C1485 C1482 1.403 . S
C1485 C1486 1.392 . S
C1485 C1489 1.495 . S
C1486 C1485 1.392 . S
C1486 C1487 1.385 . S
C1486 C1488 1.478 . S
C1487 H1481 0.930 . S
C1487 C1483 1.400 . S
C1487 C1486 1.385 . S
C1488 C1486 1.478 . S
C1488 C1490 1.381 . S
C1488 C1494 1.383 . S
C1489 C1485 1.495 . S
C1489 H1495 0.959 . S
C1489 H1496 0.961 . S
C1489 H1497 0.960 . S
C1490 C1488 1.381 . S
C1490 C1491 1.394 . S
C1490 H1498 0.930 . S
C1491 C1490 1.394 . S
C1491 C1492 1.383 . S
C1491 H1499 0.929 . S
C1492 C1491 1.383 . S
C1492 C1493 1.377 . S
C1493 H1477 0.930 . S
C1493 C1492 1.377 . S
C1493 C1494 1.379 . S
C1494 H1478 0.931 . S
C1494 C1488 1.383 . S
C1494 C1493 1.379 . S
H1495 C1489 0.959 . S
H1496 C1489 0.961 . S
H1497 C1489 0.960 . S
H1498 C1490 0.930 . S
H1499 C1491 0.929 . S
H1500 C1508 0.929 . S
H1501 C1510 0.930 . S
H1502 C1512 0.930 . S
H1503 C1515 0.929 . S
H1504 C1518 0.930 . S
H1505 C1520 0.960 . S
H1506 C1520 0.960 . S
H1507 C1520 0.960 . S
C1508 H1500 0.929 . S
C1508 C1509 1.377 . S
C1508 C1510 1.384 . S
C1509 C1508 1.377 . S
C1509 C1515 1.390 . S
C1510 H1501 0.930 . S
C1510 C1508 1.384 . S
C1510 C1511 1.372 . S
C1511 C1510 1.372 . S
C1511 C1512 1.400 . S
C1511 C1516 1.490 . S
C1512 H1502 0.930 . S
C1512 C1511 1.400 . S
C1512 C1515 1.386 . S
H1513 C1529 0.930 . S
H1514 C1530 0.931 . S
C1515 H1503 0.929 . S
C1515 C1509 1.390 . S
C1515 C1512 1.386 . S
C1516 C1511 1.490 . S
C1516 C1518 1.395 . S
C1516 C1519 1.403 . S
H1517 C1523 0.930 . S
C1518 H1504 0.930 . S
C1518 C1516 1.395 . S
C1518 C1521 1.403 . S
C1519 C1516 1.403 . S
C1519 C1520 1.524 . S
C1519 C1523 1.400 . S
C1520 H1505 0.960 . S
C1520 H1506 0.960 . S
C1520 H1507 0.960 . S
C1520 C1519 1.524 . S
C1521 C1518 1.403 . S
C1521 C1522 1.392 . S
C1521 C1525 1.495 . S
C1522 C1521 1.392 . S
C1522 C1523 1.385 . S
C1522 C1524 1.478 . S
C1523 H1517 0.930 . S
C1523 C1519 1.400 . S
C1523 C1522 1.385 . S
C1524 C1522 1.478 . S
C1524 C1526 1.381 . S
C1524 C1530 1.383 . S
C1525 C1521 1.495 . S
C1525 H1531 0.959 . S
C1525 H1532 0.961 . S
C1525 H1533 0.960 . S
C1526 C1524 1.381 . S
C1526 C1527 1.394 . S
C1526 H1534 0.930 . S
C1527 C1526 1.394 . S
C1527 C1528 1.383 . S
C1527 H1535 0.929 . S
C1528 C1527 1.383 . S
C1528 C1529 1.377 . S
C1529 H1513 0.930 . S
C1529 C1528 1.377 . S
C1529 C1530 1.379 . S
C1530 H1514 0.931 . S
C1530 C1524 1.383 . S
C1530 C1529 1.379 . S
H1531 C1525 0.959 . S
H1532 C1525 0.961 . S
H1533 C1525 0.960 . S
H1534 C1526 0.930 . S
H1535 C1527 0.929 . S
H1536 C1544 0.929 . S
H1537 C1546 0.930 . S
H1538 C1548 0.930 . S
H1539 C1551 0.929 . S
H1540 C1554 0.930 . S
H1541 C1556 0.960 . S
H1542 C1556 0.960 . S
H1543 C1556 0.960 . S
C1544 H1536 0.929 . S
C1544 C1545 1.377 . S
C1544 C1546 1.384 . S
C1545 C1544 1.377 . S
C1545 C1551 1.390 . S
C1546 H1537 0.930 . S
C1546 C1544 1.384 . S
C1546 C1547 1.372 . S
C1547 C1546 1.372 . S
C1547 C1548 1.400 . S
C1547 C1552 1.490 . S
C1548 H1538 0.930 . S
C1548 C1547 1.400 . S
C1548 C1551 1.386 . S
H1549 C1565 0.930 . S
H1550 C1566 0.931 . S
C1551 H1539 0.929 . S
C1551 C1545 1.390 . S
C1551 C1548 1.386 . S
C1552 C1547 1.490 . S
C1552 C1554 1.395 . S
C1552 C1555 1.403 . S
H1553 C1559 0.930 . S
C1554 H1540 0.930 . S
C1554 C1552 1.395 . S
C1554 C1557 1.403 . S
C1555 C1552 1.403 . S
C1555 C1556 1.524 . S
C1555 C1559 1.400 . S
C1556 H1541 0.960 . S
C1556 H1542 0.960 . S
C1556 H1543 0.960 . S
C1556 C1555 1.524 . S
C1557 C1554 1.403 . S
C1557 C1558 1.392 . S
C1557 C1561 1.495 . S
C1558 C1557 1.392 . S
C1558 C1559 1.385 . S
C1558 C1560 1.478 . S
C1559 H1553 0.930 . S
C1559 C1555 1.400 . S
C1559 C1558 1.385 . S
C1560 C1558 1.478 . S
C1560 C1562 1.381 . S
C1560 C1566 1.383 . S
C1561 C1557 1.495 . S
C1561 H1567 0.959 . S
C1561 H1568 0.961 . S
C1561 H1569 0.960 . S
C1562 C1560 1.381 . S
C1562 C1563 1.394 1_554 S
C1562 H1570 0.930 . S
C1563 C1562 1.394 1_556 S
C1563 C1564 1.383 . S
C1563 H1571 0.929 . S
C1564 C1563 1.383 . S
C1564 C1565 1.377 . S
C1565 H1549 0.930 . S
C1565 C1564 1.377 . S
C1565 C1566 1.379 1_556 S
C1566 H1550 0.931 . S
C1566 C1560 1.383 . S
C1566 C1565 1.379 1_554 S
H1567 C1561 0.959 . S
H1568 C1561 0.961 . S
H1569 C1561 0.960 . S
H1570 C1562 0.930 . S
H1571 C1563 0.929 . S
H1572 C1580 0.929 . S
H1573 C1582 0.930 . S
H1574 C1584 0.930 . S
H1575 C1587 0.929 . S
H1576 C1590 0.930 . S
H1577 C1592 0.960 . S
H1578 C1592 0.960 . S
H1579 C1592 0.960 . S
C1580 H1572 0.929 . S
C1580 C1581 1.377 . S
C1580 C1582 1.384 . S
C1581 C1580 1.377 . S
C1581 C1587 1.390 . S
C1582 H1573 0.930 . S
C1582 C1580 1.384 . S
C1582 C1583 1.372 . S
C1583 C1582 1.372 . S
C1583 C1584 1.400 . S
C1583 C1588 1.490 . S
C1584 H1574 0.930 . S
C1584 C1583 1.400 . S
C1584 C1587 1.386 . S
H1585 C1601 0.930 . S
H1586 C1602 0.931 . S
C1587 H1575 0.929 . S
C1587 C1581 1.390 . S
C1587 C1584 1.386 . S
C1588 C1583 1.490 . S
C1588 C1590 1.395 . S
C1588 C1591 1.403 . S
H1589 C1595 0.930 . S
C1590 H1576 0.930 . S
C1590 C1588 1.395 . S
C1590 C1593 1.403 . S
C1591 C1588 1.403 . S
C1591 C1592 1.524 . S
C1591 C1595 1.400 . S
C1592 H1577 0.960 . S
C1592 H1578 0.960 . S
C1592 H1579 0.960 . S
C1592 C1591 1.524 . S
C1593 C1590 1.403 . S
C1593 C1594 1.392 . S
C1593 C1597 1.495 . S
C1594 C1593 1.392 . S
C1594 C1595 1.385 . S
C1594 C1596 1.478 . S
C1595 H1589 0.930 . S
C1595 C1591 1.400 . S
C1595 C1594 1.385 . S
C1596 C1594 1.478 . S
C1596 C1598 1.381 . S
C1596 C1602 1.383 . S
C1597 C1593 1.495 . S
C1597 H1603 0.959 . S
C1597 H1604 0.961 . S
C1597 H1605 0.960 . S
C1598 C1596 1.381 . S
C1598 C1599 1.394 . S
C1598 H1606 0.930 . S
C1599 C1598 1.394 . S
C1599 C1600 1.383 . S
C1599 H1607 0.929 . S
C1600 C1599 1.383 . S
C1600 C1601 1.377 . S
C1601 H1585 0.930 . S
C1601 C1600 1.377 . S
C1601 C1602 1.379 . S
C1602 H1586 0.931 . S
C1602 C1596 1.383 . S
C1602 C1601 1.379 . S
H1603 C1597 0.959 . S
H1604 C1597 0.961 . S
H1605 C1597 0.960 . S
H1606 C1598 0.930 . S
H1607 C1599 0.929 . S
H1608 C1616 0.929 . S
H1609 C1618 0.930 . S
H1610 C1620 0.930 . S
H1611 C1623 0.929 . S
H1612 C1626 0.930 . S
H1613 C1628 0.960 . S
H1614 C1628 0.960 . S
H1615 C1628 0.960 . S
C1616 H1608 0.929 . S
C1616 C1617 1.377 . S
C1616 C1618 1.384 . S
C1617 C1616 1.377 . S
C1617 C1623 1.390 . S
C1618 H1609 0.930 . S
C1618 C1616 1.384 . S
C1618 C1619 1.372 . S
C1619 C1618 1.372 . S
C1619 C1620 1.400 . S
C1619 C1624 1.490 . S
C1620 H1610 0.930 . S
C1620 C1619 1.400 . S
C1620 C1623 1.386 . S
H1621 C1637 0.930 . S
H1622 C1638 0.931 . S
C1623 H1611 0.929 . S
C1623 C1617 1.390 . S
C1623 C1620 1.386 . S
C1624 C1619 1.490 . S
C1624 C1626 1.395 . S
C1624 C1627 1.403 . S
H1625 C1631 0.930 . S
C1626 H1612 0.930 . S
C1626 C1624 1.395 . S
C1626 C1629 1.403 . S
C1627 C1624 1.403 . S
C1627 C1628 1.524 . S
C1627 C1631 1.400 . S
C1628 H1613 0.960 . S
C1628 H1614 0.960 . S
C1628 H1615 0.960 . S
C1628 C1627 1.524 . S
C1629 C1626 1.403 . S
C1629 C1630 1.392 . S
C1629 C1633 1.495 . S
C1630 C1629 1.392 . S
C1630 C1631 1.385 . S
C1630 C1632 1.478 . S
C1631 H1625 0.930 . S
C1631 C1627 1.400 . S
C1631 C1630 1.385 . S
C1632 C1630 1.478 . S
C1632 C1634 1.381 . S
C1632 C1638 1.383 . S
C1633 C1629 1.495 . S
C1633 H1639 0.959 . S
C1633 H1640 0.961 . S
C1633 H1641 0.960 . S
C1634 C1632 1.381 . S
C1634 C1635 1.394 . S
C1634 H1642 0.930 . S
C1635 C1634 1.394 . S
C1635 C1636 1.383 . S
C1635 H1643 0.929 . S
C1636 C1635 1.383 . S
C1636 C1637 1.377 . S
C1637 H1621 0.930 . S
C1637 C1636 1.377 . S
C1637 C1638 1.379 . S
C1638 H1622 0.931 . S
C1638 C1632 1.383 . S
C1638 C1637 1.379 . S
H1639 C1633 0.959 . S
H1640 C1633 0.961 . S
H1641 C1633 0.960 . S
H1642 C1634 0.930 . S
H1643 C1635 0.929 . S
H1644 C1652 0.929 . S
H1645 C1654 0.930 . S
H1646 C1656 0.930 . S
H1647 C1659 0.929 . S
H1648 C1662 0.930 . S
H1649 C1664 0.960 . S
H1650 C1664 0.960 . S
H1651 C1664 0.960 . S
C1652 H1644 0.929 . S
C1652 C1653 1.377 . S
C1652 C1654 1.384 . S
C1653 C1652 1.377 . S
C1653 C1659 1.390 . S
C1654 H1645 0.930 . S
C1654 C1652 1.384 . S
C1654 C1655 1.372 . S
C1655 C1654 1.372 . S
C1655 C1656 1.400 . S
C1655 C1660 1.490 . S
C1656 H1646 0.930 . S
C1656 C1655 1.400 . S
C1656 C1659 1.386 . S
H1657 C1673 0.930 . S
H1658 C1674 0.931 . S
C1659 H1647 0.929 . S
C1659 C1653 1.390 . S
C1659 C1656 1.386 . S
C1660 C1655 1.490 . S
C1660 C1662 1.395 . S
C1660 C1663 1.403 . S
H1661 C1667 0.930 1_554 S
C1662 H1648 0.930 . S
C1662 C1660 1.395 . S
C1662 C1665 1.403 . S
C1663 C1660 1.403 . S
C1663 C1664 1.524 . S
C1663 C1667 1.400 . S
C1664 H1649 0.960 . S
C1664 H1650 0.960 . S
C1664 H1651 0.960 . S
C1664 C1663 1.524 . S
C1665 C1662 1.403 . S
C1665 C1666 1.392 1_556 S
C1665 C1669 1.495 1_556 S
C1666 C1665 1.392 1_554 S
C1666 C1667 1.385 1_554 S
C1666 C1668 1.478 . S
C1667 H1661 0.930 1_556 S
C1667 C1663 1.400 . S
C1667 C1666 1.385 1_556 S
C1668 C1666 1.478 . S
C1668 C1670 1.381 . S
C1668 C1674 1.383 . S
C1669 C1665 1.495 1_554 S
C1669 H1675 0.959 1_554 S
C1669 H1676 0.961 . S
C1669 H1677 0.960 . S
C1670 C1668 1.381 . S
C1670 C1671 1.394 . S
C1670 H1678 0.930 . S
C1671 C1670 1.394 . S
C1671 C1672 1.383 . S
C1671 H1679 0.929 . S
C1672 C1671 1.383 . S
C1672 C1673 1.377 . S
C1673 H1657 0.930 . S
C1673 C1672 1.377 . S
C1673 C1674 1.379 . S
C1674 H1658 0.931 . S
C1674 C1668 1.383 . S
C1674 C1673 1.379 . S
H1675 C1669 0.959 1_556 S
H1676 C1669 0.961 . S
H1677 C1669 0.960 . S
H1678 C1670 0.930 . S
H1679 C1671 0.929 . S
H1680 C1688 0.929 . S
H1681 C1690 0.930 . S
H1682 C1692 0.930 . S
H1683 C1695 0.929 . S
H1684 C1698 0.930 1_554 S
H1685 C1700 0.960 1_556 S
H1686 C1700 0.960 . S
H1687 C1700 0.960 . S
C1688 H1680 0.929 . S
C1688 C1689 1.377 . S
C1688 C1690 1.384 . S
C1689 C1688 1.377 . S
C1689 C1695 1.390 . S
C1690 H1681 0.930 . S
C1690 C1688 1.384 . S
C1690 C1691 1.372 . S
C1691 C1690 1.372 . S
C1691 C1692 1.400 . S
C1691 C1696 1.490 . S
C1692 H1682 0.930 . S
C1692 C1691 1.400 . S
C1692 C1695 1.386 . S
H1693 C1709 0.930 . S
H1694 C1710 0.931 . S
C1695 H1683 0.929 . S
C1695 C1689 1.390 . S
C1695 C1692 1.386 . S
C1696 C1691 1.490 . S
C1696 C1698 1.395 1_554 S
C1696 C1699 1.403 1_554 S
H1697 C1703 0.930 . S
C1698 H1684 0.930 1_556 S
C1698 C1696 1.395 1_556 S
C1698 C1701 1.403 . S
C1699 C1696 1.403 1_556 S
C1699 C1700 1.524 1_556 S
C1699 C1703 1.400 . S
C1700 H1685 0.960 1_554 S
C1700 H1686 0.960 . S
C1700 H1687 0.960 . S
C1700 C1699 1.524 1_554 S
C1701 C1698 1.403 . S
C1701 C1702 1.392 . S
C1701 C1705 1.495 . S
C1702 C1701 1.392 . S
C1702 C1703 1.385 . S
C1702 C1704 1.478 . S
C1703 H1697 0.930 . S
C1703 C1699 1.400 . S
C1703 C1702 1.385 . S
C1704 C1702 1.478 . S
C1704 C1706 1.381 . S
C1704 C1710 1.383 . S
C1705 C1701 1.495 . S
C1705 H1711 0.959 . S
C1705 H1712 0.961 . S
C1705 H1713 0.960 . S
C1706 C1704 1.381 . S
C1706 C1707 1.394 . S
C1706 H1714 0.930 . S
C1707 C1706 1.394 . S
C1707 C1708 1.383 . S
C1707 H1715 0.929 . S
C1708 C1707 1.383 . S
C1708 C1709 1.377 . S
C1709 H1693 0.930 . S
C1709 C1708 1.377 . S
C1709 C1710 1.379 . S
C1710 H1694 0.931 . S
C1710 C1704 1.383 . S
C1710 C1709 1.379 . S
H1711 C1705 0.959 . S
H1712 C1705 0.961 . S
H1713 C1705 0.960 . S
H1714 C1706 0.930 . S
H1715 C1707 0.929 . S
H1716 C1724 0.929 . S
H1717 C1726 0.930 . S
H1718 C1728 0.930 . S
H1719 C1731 0.929 . S
H1720 C1734 0.930 . S
H1721 C1736 0.960 . S
H1722 C1736 0.960 . S
H1723 C1736 0.960 . S
C1724 H1716 0.929 . S
C1724 C1725 1.377 . S
C1724 C1726 1.384 . S
C1725 C1724 1.377 . S
C1725 C1731 1.390 . S
C1726 H1717 0.930 . S
C1726 C1724 1.384 . S
C1726 C1727 1.372 . S
C1727 C1726 1.372 . S
C1727 C1728 1.400 . S
C1727 C1732 1.490 . S
C1728 H1718 0.930 . S
C1728 C1727 1.400 . S
C1728 C1731 1.386 . S
H1729 C1745 0.930 . S
H1730 C1746 0.931 . S
C1731 H1719 0.929 . S
C1731 C1725 1.390 . S
C1731 C1728 1.386 . S
C1732 C1727 1.490 . S
C1732 C1734 1.395 . S
C1732 C1735 1.403 . S
H1733 C1739 0.930 . S
C1734 H1720 0.930 . S
C1734 C1732 1.395 . S
C1734 C1737 1.403 . S
C1735 C1732 1.403 . S
C1735 C1736 1.524 . S
C1735 C1739 1.400 . S
C1736 H1721 0.960 . S
C1736 H1722 0.960 . S
C1736 H1723 0.960 . S
C1736 C1735 1.524 . S
C1737 C1734 1.403 . S
C1737 C1738 1.392 . S
C1737 C1741 1.495 . S
C1738 C1737 1.392 . S
C1738 C1739 1.385 . S
C1738 C1740 1.478 . S
C1739 H1733 0.930 . S
C1739 C1735 1.400 . S
C1739 C1738 1.385 . S
C1740 C1738 1.478 . S
C1740 C1742 1.381 . S
C1740 C1746 1.383 . S
C1741 C1737 1.495 . S
C1741 H1747 0.959 . S
C1741 H1748 0.961 . S
C1741 H1749 0.960 . S
C1742 C1740 1.381 . S
C1742 C1743 1.394 . S
C1742 H1750 0.930 . S
C1743 C1742 1.394 . S
C1743 C1744 1.383 . S
C1743 H1751 0.929 . S
C1744 C1743 1.383 . S
C1744 C1745 1.377 . S
C1745 H1729 0.930 . S
C1745 C1744 1.377 . S
C1745 C1746 1.379 . S
C1746 H1730 0.931 . S
C1746 C1740 1.383 . S
C1746 C1745 1.379 . S
H1747 C1741 0.959 . S
H1748 C1741 0.961 . S
H1749 C1741 0.960 . S
H1750 C1742 0.930 . S
H1751 C1743 0.929 . S
H1752 C1760 0.929 . S
H1753 C1762 0.930 . S
H1754 C1764 0.930 . S
H1755 C1767 0.929 . S
H1756 C1770 0.930 . S
H1757 C1772 0.960 . S
H1758 C1772 0.960 . S
H1759 C1772 0.960 . S
C1760 H1752 0.929 . S
C1760 C1761 1.377 . S
C1760 C1762 1.384 . S
C1761 C1760 1.377 . S
C1761 C1767 1.390 . S
C1762 H1753 0.930 . S
C1762 C1760 1.384 . S
C1762 C1763 1.372 . S
C1763 C1762 1.372 . S
C1763 C1764 1.400 . S
C1763 C1768 1.490 . S
C1764 H1754 0.930 . S
C1764 C1763 1.400 . S
C1764 C1767 1.386 . S
H1765 C1781 0.930 . S
H1766 C1782 0.931 . S
C1767 H1755 0.929 . S
C1767 C1761 1.390 . S
C1767 C1764 1.386 . S
C1768 C1763 1.490 . S
C1768 C1770 1.395 . S
C1768 C1771 1.403 . S
H1769 C1775 0.930 . S
C1770 H1756 0.930 . S
C1770 C1768 1.395 . S
C1770 C1773 1.403 . S
C1771 C1768 1.403 . S
C1771 C1772 1.524 . S
C1771 C1775 1.400 . S
C1772 H1757 0.960 . S
C1772 H1758 0.960 . S
C1772 H1759 0.960 . S
C1772 C1771 1.524 . S
C1773 C1770 1.403 . S
C1773 C1774 1.392 . S
C1773 C1777 1.495 . S
C1774 C1773 1.392 . S
C1774 C1775 1.385 . S
C1774 C1776 1.478 . S
C1775 H1769 0.930 . S
C1775 C1771 1.400 . S
C1775 C1774 1.385 . S
C1776 C1774 1.478 . S
C1776 C1778 1.381 . S
C1776 C1782 1.383 . S
C1777 C1773 1.495 . S
C1777 H1783 0.959 . S
C1777 H1784 0.961 . S
C1777 H1785 0.960 . S
C1778 C1776 1.381 . S
C1778 C1779 1.394 . S
C1778 H1786 0.930 . S
C1779 C1778 1.394 . S
C1779 C1780 1.383 . S
C1779 H1787 0.929 . S
C1780 C1779 1.383 . S
C1780 C1781 1.377 . S
C1781 H1765 0.930 . S
C1781 C1780 1.377 . S
C1781 C1782 1.379 . S
C1782 H1766 0.931 . S
C1782 C1776 1.383 . S
C1782 C1781 1.379 . S
H1783 C1777 0.959 . S
H1784 C1777 0.961 . S
H1785 C1777 0.960 . S
H1786 C1778 0.930 . S
H1787 C1779 0.929 . S
H1788 C1796 0.929 . S
H1789 C1798 0.930 . S
H1790 C1800 0.930 . S
H1791 C1803 0.929 . S
H1792 C1806 0.930 . S
H1793 C1808 0.960 . S
H1794 C1808 0.960 . S
H1795 C1808 0.960 . S
C1796 H1788 0.929 . S
C1796 C1797 1.377 . S
C1796 C1798 1.384 . S
C1797 C1796 1.377 . S
C1797 C1803 1.390 . S
C1798 H1789 0.930 . S
C1798 C1796 1.384 . S
C1798 C1799 1.372 . S
C1799 C1798 1.372 . S
C1799 C1800 1.400 . S
C1799 C1804 1.490 . S
C1800 H1790 0.930 . S
C1800 C1799 1.400 . S
C1800 C1803 1.386 . S
H1801 C1817 0.930 . S
H1802 C1818 0.931 . S
C1803 H1791 0.929 . S
C1803 C1797 1.390 . S
C1803 C1800 1.386 . S
C1804 C1799 1.490 . S
C1804 C1806 1.395 . S
C1804 C1807 1.403 . S
H1805 C1811 0.930 1_556 S
C1806 H1792 0.930 . S
C1806 C1804 1.395 . S
C1806 C1809 1.403 . S
C1807 C1804 1.403 . S
C1807 C1808 1.524 . S
C1807 C1811 1.400 . S
C1808 H1793 0.960 . S
C1808 H1794 0.960 . S
C1808 H1795 0.960 . S
C1808 C1807 1.524 . S
C1809 C1806 1.403 . S
C1809 C1810 1.392 1_554 S
C1809 C1813 1.495 1_554 S
C1810 C1809 1.392 1_556 S
C1810 C1811 1.385 1_556 S
C1810 C1812 1.478 . S
C1811 H1805 0.930 1_554 S
C1811 C1807 1.400 . S
C1811 C1810 1.385 1_554 S
C1812 C1810 1.478 . S
C1812 C1814 1.381 . S
C1812 C1818 1.383 . S
C1813 C1809 1.495 1_556 S
C1813 H1819 0.959 1_556 S
C1813 H1820 0.961 . S
C1813 H1821 0.960 . S
C1814 C1812 1.381 . S
C1814 C1815 1.394 . S
C1814 H1822 0.930 . S
C1815 C1814 1.394 . S
C1815 C1816 1.383 . S
C1815 H1823 0.929 . S
C1816 C1815 1.383 . S
C1816 C1817 1.377 . S
C1817 H1801 0.930 . S
C1817 C1816 1.377 . S
C1817 C1818 1.379 . S
C1818 H1802 0.931 . S
C1818 C1812 1.383 . S
C1818 C1817 1.379 . S
H1819 C1813 0.959 1_554 S
H1820 C1813 0.961 . S
H1821 C1813 0.960 . S
H1822 C1814 0.930 . S
H1823 C1815 0.929 . S
H1824 C1832 0.929 . S
H1825 C1834 0.930 . S
H1826 C1836 0.930 . S
H1827 C1839 0.929 . S
H1828 C1842 0.930 . S
H1829 C1844 0.960 . S
H1830 C1844 0.960 . S
H1831 C1844 0.960 . S
C1832 H1824 0.929 . S
C1832 C1833 1.377 . S
C1832 C1834 1.384 . S
C1833 C1832 1.377 . S
C1833 C1839 1.390 . S
C1834 H1825 0.930 . S
C1834 C1832 1.384 . S
C1834 C1835 1.372 . S
C1835 C1834 1.372 . S
C1835 C1836 1.400 . S
C1835 C1840 1.490 . S
C1836 H1826 0.930 . S
C1836 C1835 1.400 . S
C1836 C1839 1.386 . S
H1837 C1853 0.930 . S
H1838 C1854 0.931 . S
C1839 H1827 0.929 . S
C1839 C1833 1.390 . S
C1839 C1836 1.386 . S
C1840 C1835 1.490 . S
C1840 C1842 1.395 . S
C1840 C1843 1.403 . S
H1841 C1847 0.930 . S
C1842 H1828 0.930 . S
C1842 C1840 1.395 . S
C1842 C1845 1.403 . S
C1843 C1840 1.403 . S
C1843 C1844 1.524 . S
C1843 C1847 1.400 . S
C1844 H1829 0.960 . S
C1844 H1830 0.960 . S
C1844 H1831 0.960 . S
C1844 C1843 1.524 . S
C1845 C1842 1.403 . S
C1845 C1846 1.392 . S
C1845 C1849 1.495 . S
C1846 C1845 1.392 . S
C1846 C1847 1.385 . S
C1846 C1848 1.478 . S
C1847 H1841 0.930 . S
C1847 C1843 1.400 . S
C1847 C1846 1.385 . S
C1848 C1846 1.478 . S
C1848 C1850 1.381 . S
C1848 C1854 1.383 . S
C1849 C1845 1.495 . S
C1849 H1855 0.959 . S
C1849 H1856 0.961 . S
C1849 H1857 0.960 . S
C1850 C1848 1.381 . S
C1850 C1851 1.394 . S
C1850 H1858 0.930 . S
C1851 C1850 1.394 . S
C1851 C1852 1.383 . S
C1851 H1859 0.929 . S
C1852 C1851 1.383 . S
C1852 C1853 1.377 . S
C1853 H1837 0.930 . S
C1853 C1852 1.377 . S
C1853 C1854 1.379 . S
C1854 H1838 0.931 . S
C1854 C1848 1.383 . S
C1854 C1853 1.379 . S
H1855 C1849 0.959 . S
H1856 C1849 0.961 . S
H1857 C1849 0.960 . S
H1858 C1850 0.930 . S
H1859 C1851 0.929 . S
H1860 C1868 0.929 . S
H1861 C1870 0.930 . S
H1862 C1872 0.930 . S
H1863 C1875 0.929 . S
H1864 C1878 0.930 . S
H1865 C1880 0.960 . S
H1866 C1880 0.960 . S
H1867 C1880 0.960 . S
C1868 H1860 0.929 . S
C1868 C1869 1.377 . S
C1868 C1870 1.384 1_554 S
C1869 C1868 1.377 . S
C1869 C1875 1.390 . S
C1870 H1861 0.930 . S
C1870 C1868 1.384 1_556 S
C1870 C1871 1.372 . S
C1871 C1870 1.372 . S
C1871 C1872 1.400 . S
C1871 C1876 1.490 . S
C1872 H1862 0.930 . S
C1872 C1871 1.400 . S
C1872 C1875 1.386 1_556 S
H1873 C1889 0.930 . S
H1874 C1890 0.931 . S
C1875 H1863 0.929 . S
C1875 C1869 1.390 . S
C1875 C1872 1.386 1_554 S
C1876 C1871 1.490 . S
C1876 C1878 1.395 . S
C1876 C1879 1.403 . S
H1877 C1883 0.930 . S
C1878 H1864 0.930 . S
C1878 C1876 1.395 . S
C1878 C1881 1.403 . S
C1879 C1876 1.403 . S
C1879 C1880 1.524 . S
C1879 C1883 1.400 . S
C1880 H1865 0.960 . S
C1880 H1866 0.960 . S
C1880 H1867 0.960 . S
C1880 C1879 1.524 . S
C1881 C1878 1.403 . S
C1881 C1882 1.392 . S
C1881 C1885 1.495 . S
C1882 C1881 1.392 . S
C1882 C1883 1.385 . S
C1882 C1884 1.478 . S
C1883 H1877 0.930 . S
C1883 C1879 1.400 . S
C1883 C1882 1.385 . S
C1884 C1882 1.478 . S
C1884 C1886 1.381 . S
C1884 C1890 1.383 . S
C1885 C1881 1.495 . S
C1885 H1891 0.959 . S
C1885 H1892 0.961 . S
C1885 H1893 0.960 . S
C1886 C1884 1.381 . S
C1886 C1887 1.394 . S
C1886 H1894 0.930 . S
C1887 C1886 1.394 . S
C1887 C1888 1.383 . S
C1887 H1895 0.929 . S
C1888 C1887 1.383 . S
C1888 C1889 1.377 . S
C1889 H1873 0.930 . S
C1889 C1888 1.377 . S
C1889 C1890 1.379 . S
C1890 H1874 0.931 . S
C1890 C1884 1.383 . S
C1890 C1889 1.379 . S
H1891 C1885 0.959 . S
H1892 C1885 0.961 . S
H1893 C1885 0.960 . S
H1894 C1886 0.930 . S
H1895 C1887 0.929 . S
H1896 C1904 0.929 . S
H1897 C1906 0.930 . S
H1898 C1908 0.930 . S
H1899 C1911 0.929 . S
H1900 C1914 0.930 . S
H1901 C1916 0.960 . S
H1902 C1916 0.960 . S
H1903 C1916 0.960 . S
C1904 H1896 0.929 . S
C1904 C1905 1.377 . S
C1904 C1906 1.384 . S
C1905 C1904 1.377 . S
C1905 C1911 1.390 . S
C1906 H1897 0.930 . S
C1906 C1904 1.384 . S
C1906 C1907 1.372 . S
C1907 C1906 1.372 . S
C1907 C1908 1.400 . S
C1907 C1912 1.490 . S
C1908 H1898 0.930 . S
C1908 C1907 1.400 . S
C1908 C1911 1.386 . S
H1909 C1925 0.930 . S
H1910 C1926 0.931 . S
C1911 H1899 0.929 . S
C1911 C1905 1.390 . S
C1911 C1908 1.386 . S
C1912 C1907 1.490 . S
C1912 C1914 1.395 . S
C1912 C1915 1.403 . S
H1913 C1919 0.930 . S
C1914 H1900 0.930 . S
C1914 C1912 1.395 . S
C1914 C1917 1.403 . S
C1915 C1912 1.403 . S
C1915 C1916 1.524 . S
C1915 C1919 1.400 . S
C1916 H1901 0.960 . S
C1916 H1902 0.960 . S
C1916 H1903 0.960 . S
C1916 C1915 1.524 . S
C1917 C1914 1.403 . S
C1917 C1918 1.392 . S
C1917 C1921 1.495 . S
C1918 C1917 1.392 . S
C1918 C1919 1.385 . S
C1918 C1920 1.478 . S
C1919 H1913 0.930 . S
C1919 C1915 1.400 . S
C1919 C1918 1.385 . S
C1920 C1918 1.478 . S
C1920 C1922 1.381 . S
C1920 C1926 1.383 . S
C1921 C1917 1.495 . S
C1921 H1927 0.959 . S
C1921 H1928 0.961 . S
C1921 H1929 0.960 . S
C1922 C1920 1.381 . S
C1922 C1923 1.394 . S
C1922 H1930 0.930 . S
C1923 C1922 1.394 . S
C1923 C1924 1.383 . S
C1923 H1931 0.929 . S
C1924 C1923 1.383 . S
C1924 C1925 1.377 . S
C1925 H1909 0.930 . S
C1925 C1924 1.377 . S
C1925 C1926 1.379 . S
C1926 H1910 0.931 . S
C1926 C1920 1.383 . S
C1926 C1925 1.379 . S
H1927 C1921 0.959 . S
H1928 C1921 0.961 . S
H1929 C1921 0.960 . S
H1930 C1922 0.930 . S
H1931 C1923 0.929 . S
H1932 C1940 0.929 . S
H1933 C1942 0.930 . S
H1934 C1944 0.930 . S
H1935 C1947 0.929 . S
H1936 C1950 0.930 . S
H1937 C1952 0.960 . S
H1938 C1952 0.960 . S
H1939 C1952 0.960 . S
C1940 H1932 0.929 . S
C1940 C1941 1.377 . S
C1940 C1942 1.384 . S
C1941 C1940 1.377 . S
C1941 C1947 1.390 . S
C1942 H1933 0.930 . S
C1942 C1940 1.384 . S
C1942 C1943 1.372 . S
C1943 C1942 1.372 . S
C1943 C1944 1.400 . S
C1943 C1948 1.490 . S
C1944 H1934 0.930 . S
C1944 C1943 1.400 . S
C1944 C1947 1.386 . S
H1945 C1961 0.930 . S
H1946 C1962 0.931 . S
C1947 H1935 0.929 . S
C1947 C1941 1.390 . S
C1947 C1944 1.386 . S
C1948 C1943 1.490 . S
C1948 C1950 1.395 . S
C1948 C1951 1.403 . S
H1949 C1955 0.930 . S
C1950 H1936 0.930 . S
C1950 C1948 1.395 . S
C1950 C1953 1.403 . S
C1951 C1948 1.403 . S
C1951 C1952 1.524 . S
C1951 C1955 1.400 . S
C1952 H1937 0.960 . S
C1952 H1938 0.960 . S
C1952 H1939 0.960 . S
C1952 C1951 1.524 . S
C1953 C1950 1.403 . S
C1953 C1954 1.392 . S
C1953 C1957 1.495 . S
C1954 C1953 1.392 . S
C1954 C1955 1.385 . S
C1954 C1956 1.478 . S
C1955 H1949 0.930 . S
C1955 C1951 1.400 . S
C1955 C1954 1.385 . S
C1956 C1954 1.478 . S
C1956 C1958 1.381 . S
C1956 C1962 1.383 . S
C1957 C1953 1.495 . S
C1957 H1963 0.959 . S
C1957 H1964 0.961 . S
C1957 H1965 0.960 . S
C1958 C1956 1.381 . S
C1958 C1959 1.394 1_554 S
C1958 H1966 0.930 . S
C1959 C1958 1.394 1_556 S
C1959 C1960 1.383 . S
C1959 H1967 0.929 . S
C1960 C1959 1.383 . S
C1960 C1961 1.377 . S
C1961 H1945 0.930 . S
C1961 C1960 1.377 . S
C1961 C1962 1.379 1_556 S
C1962 H1946 0.931 . S
C1962 C1956 1.383 . S
C1962 C1961 1.379 1_554 S
H1963 C1957 0.959 . S
H1964 C1957 0.961 . S
H1965 C1957 0.960 . S
H1966 C1958 0.930 . S
H1967 C1959 0.929 . S
C537 C259 1.450 . S
C556 C28 1.437 . S
C573 C61 1.454 . S
C592 C160 1.444 . S
C609 C94 1.522 . S
C628 C193 1.512 . S
C645 C226 1.520 . S
C664 C127 1.509 . S
C681 C380 1.548 . S
C700 C149 1.560 . S
C717 C281 1.543 . S
C736 C17 1.534 . S
C753 C215 1.602 . S
C772 C347 1.613 . S
C789 C83 1.600 . S
C808 C314 1.587 . S
C825 C325 1.527 . S
C844 C424 1.521 . S
C861 C490 1.522 . S
C880 C358 1.511 . S
C897 C457 1.452 . S
C916 C292 1.459 . S
C933 C391 1.454 . S
C952 C523 1.460 . S
C969 C116 1.605 . S
C988 C479 1.610 . S
C1005 C182 1.602 . S
C1024 C413 1.582 . S
C1041 C50 1.544 . S
C1060 C512 1.548 . S
C1077 C248 1.549 . S
C1096 C446 1.547 . S
C1113 C8 1.076 . S
C1132 C140 1.110 . S
C1149 C173 1.098 . S
C1168 C41 1.060 . S
C1185 C206 1.319 . S
C1204 C74 1.327 . S
C1221 C107 1.094 . S
C1240 C239 1.074 . S
C1257 C338 1.106 . S
C1276 C272 1.131 . S
C1293 C305 1.108 . S
C1312 C371 1.126 . S
C1329 C404 1.332 . S
C1348 C470 1.326 . S
C1365 C503 1.076 . S
C1384 C437 1.110 . S
C1401 N14 0.772 . S
C1420 N5 0.788 . S
C1437 N47 0.770 . S
C1456 N38 0.764 . S
C1473 N71 0.794 . S
C1492 N80 0.795 . S
C1509 N104 0.772 . S
C1528 N113 0.783 . S
C1545 N137 0.774 . S
C1564 N146 0.757 . S
C1581 N170 0.773 . S
C1600 N179 0.791 . S
C1617 N212 0.793 . S
C1636 N203 0.800 . S
C1653 N245 0.766 . S
C1672 N236 0.784 . S
C1689 N269 0.769 . S
C1708 N278 0.782 . S
C1725 N302 0.773 . S
C1744 N311 0.755 . S
C1761 N344 0.770 . S
C1780 N335 0.776 . S
C1797 N377 0.768 . S
C1816 N368 0.753 . S
C1833 N410 0.793 . S
C1852 N401 0.792 . S
C1869 N443 0.768 . S
C1888 N434 0.771 . S
C1905 N476 0.793 . S
C1924 N467 0.791 . S
C1941 N500 0.774 . S
C1960 N509 0.792 . S
