# Generated by pormake.
# Topology wjv, (5)-cn, num edge types: 1
# Building blocks:
#     Node 0, Type 0, BuildingBlock: XOMCOT_clean_sbu_0, # of connection points: 5
#     Node 1, Type 0, BuildingBlock: XOMCOT_clean_sbu_0, # of connection points: 5
#     Node 2, Type 0, BuildingBlock: XOMCOT_clean_sbu_0, # of connection points: 5
#     Node 3, Type 0, BuildingBlock: XOMCOT_clean_sbu_0, # of connection points: 5
#     Node 4, Type 0, BuildingBlock: XOMCOT_clean_sbu_0, # of connection points: 5
#     Node 5, Type 0, BuildingBlock: XOMCOT_clean_sbu_0, # of connection points: 5
#     Node 6, Type 0, BuildingBlock: XOMCOT_clean_sbu_0, # of connection points: 5
#     Node 7, Type 0, BuildingBlock: XOMCOT_clean_sbu_0, # of connection points: 5
#     Node 8, Type 0, BuildingBlock: XOMCOT_clean_sbu_0, # of connection points: 5
#     Node 9, Type 0, BuildingBlock: XOMCOT_clean_sbu_0, # of connection points: 5
#     Node 10, Type 0, BuildingBlock: XOMCOT_clean_sbu_0, # of connection points: 5
#     Node 11, Type 0, BuildingBlock: XOMCOT_clean_sbu_0, # of connection points: 5
#     Edge 12, Type (0, 0), None
#     Edge 13, Type (0, 0), None
#     Edge 14, Type (0, 0), None
#     Edge 15, Type (0, 0), None
#     Edge 16, Type (0, 0), None
#     Edge 17, Type (0, 0), None
#     Edge 18, Type (0, 0), None
#     Edge 19, Type (0, 0), None
#     Edge 20, Type (0, 0), None
#     Edge 21, Type (0, 0), None
#     Edge 22, Type (0, 0), None
#     Edge 23, Type (0, 0), None
#     Edge 24, Type (0, 0), None
#     Edge 25, Type (0, 0), None
#     Edge 26, Type (0, 0), None
#     Edge 27, Type (0, 0), None
#     Edge 28, Type (0, 0), None
#     Edge 29, Type (0, 0), None
#     Edge 30, Type (0, 0), None
#     Edge 31, Type (0, 0), None
#     Edge 32, Type (0, 0), None
#     Edge 33, Type (0, 0), None
#     Edge 34, Type (0, 0), None
#     Edge 35, Type (0, 0), None
#     Edge 36, Type (0, 0), None
#     Edge 37, Type (0, 0), None
#     Edge 38, Type (0, 0), None
#     Edge 39, Type (0, 0), None
#     Edge 40, Type (0, 0), None
#     Edge 41, Type (0, 0), None
# Relax obj value: 0.123
# Max RMSD: 0.183
# Mean RMSD: 0.183
data_MOF--net-wjv--node1-XOMCOT_clean_sbu_0--edge1-none
_symmetry_space_group_name_H-M    P1
_symmetry_Int_Tables_number       1
_symmetry_cell_setting            triclinic
loop_
_symmetry_equiv_pos_as_xyz
'x, y, z'
_cell_length_a     18.804082
_cell_length_b     18.804088
_cell_length_c     27.617578
_cell_angle_alpha  89.999994
_cell_angle_beta   90.000013
_cell_angle_gamma 119.99983
loop_
_atom_site_label
_atom_site_type_symbol
_atom_site_fract_x
_atom_site_fract_y
_atom_site_fract_z
_atom_type_partial_charge
Co0 Co 0.18818 0.2506 0.18895 0.0
C1 C 0.14977 0.26218 0.08537 0.0
C2 C 0.17242 0.16276 0.09895 0.0
C3 C 0.15162 0.16005 0.05127 0.0
N4 N 0.1726 0.22741 0.1203 0.0
N5 N 0.13857 0.22297 0.04274 0.0
H6 H 0.13589 0.31075 0.09169 0.0
H7 H 0.18034 0.11668 0.11746 0.0
C8 C 0.32283 0.20059 0.19135 0.0
O9 O 0.39005 0.27185 0.19653 0.0
N10 N 0.20015 0.26624 0.2592 0.0
C11 C 0.16387 0.29645 0.28848 0.0
C12 C 0.18203 0.28943 0.33611 0.0
C13 C 0.23872 0.24007 0.28977 0.0
N14 N 0.22855 0.25345 0.33656 0.0
C15 C 0.32463 0.41461 0.21205 0.0
C16 C 0.42064 0.42089 0.13457 0.0
C17 C 0.45827 0.47411 0.17338 0.0
C18 C 0.40882 0.47291 0.2117 0.0
C19 C 0.33751 0.36174 0.13718 0.0
N20 N 0.29069 0.35544 0.17691 0.0
H21 H 0.28863 0.41516 0.24217 0.0
H22 H 0.31495 0.3164 0.10891 0.0
H23 H 0.12588 0.32107 0.27632 0.0
H24 H 0.27177 0.20986 0.27867 0.0
O25 O 0.09855 0.27798 0.18712 0.0
O26 O 0.08357 0.15517 0.19886 0.0
O27 O 0.25147 0.19252 0.19076 0.0
C28 C 0.04886 0.19894 0.19278 0.0
H29 H 0.13852 0.11098 0.02599 0.0
H30 H 0.16045 0.30701 0.36771 0.0
H31 H 0.45652 0.42078 0.10389 0.0
H32 H 0.43524 0.51584 0.24147 0.0
Co33 Co 0.93984 0.18705 0.52229 0.0
C34 C 0.88984 0.14864 0.41871 0.0
C35 C 0.01192 0.17129 0.43229 0.0
C36 C 0.99383 0.15049 0.3846 0.0
N37 N 0.94745 0.17147 0.45363 0.0
N38 N 0.91787 0.13745 0.37607 0.0
H39 H 0.8274 0.13476 0.42502 0.0
H40 H 0.06592 0.17922 0.45079 0.0
C41 C 0.1245 0.32171 0.52469 0.0
O42 O 0.12045 0.38892 0.52986 0.0
N43 N 0.93617 0.19902 0.59253 0.0
C44 C 0.86969 0.16275 0.62181 0.0
C45 C 0.89486 0.1809 0.66944 0.0
C46 C 1.00091 0.2376 0.62311 0.0
N47 N 0.97736 0.22742 0.66989 0.0
C48 C 0.91228 0.3235 0.54538 0.0
C49 C 1.00201 0.41951 0.4679 0.0
C50 C 0.98642 0.45714 0.50672 0.0
C51 C 0.93818 0.40769 0.54503 0.0
C52 C 0.97804 0.33639 0.47051 0.0
N53 N 0.93751 0.28956 0.51025 0.0
H54 H 0.87573 0.2875 0.5755 0.0
H55 H 1.00081 0.31382 0.44224 0.0
H56 H 0.80708 0.12475 0.60966 0.0
H57 H 0.06416 0.27064 0.612 0.0
O58 O 0.82283 0.09742 0.52046 0.0
O59 O 0.93065 0.08244 0.53219 0.0
O60 O 0.06121 0.25034 0.5241 0.0
C61 C 0.85219 0.04774 0.52612 0.0
H62 H 0.0298 0.13739 0.35932 0.0
H63 H 0.8557 0.15932 0.70105 0.0
H64 H 0.038 0.45539 0.43722 0.0
H65 H 0.92166 0.43411 0.5748 0.0
Co66 Co 0.75505 0.93872 0.85562 0.0
C67 C 0.74347 0.88872 0.75204 0.0
C68 C 0.84289 0.01079 0.76562 0.0
C69 C 0.8456 0.9927 0.71794 0.0
N70 N 0.77824 0.94632 0.78697 0.0
N71 N 0.78268 0.91674 0.70941 0.0
H72 H 0.6949 0.82627 0.75835 0.0
H73 H 0.88897 0.0648 0.78413 0.0
C74 C 0.80506 0.12338 0.85802 0.0
O75 O 0.7338 0.11933 0.86319 0.0
N76 N 0.73941 0.93505 0.92587 0.0
C77 C 0.7092 0.86856 0.95515 0.0
C78 C 0.71622 0.89373 1.00278 0.0
C79 C 0.76558 0.99979 0.95644 0.0
N80 N 0.7522 0.97624 1.00322 0.0
C81 C 0.59104 0.91115 0.87872 0.0
C82 C 0.58476 1.00089 0.80123 0.0
C83 C 0.53154 0.98529 0.84005 0.0
C84 C 0.53274 0.93705 0.87837 0.0
C85 C 0.64391 0.97691 0.80384 0.0
N86 N 0.65021 0.93638 0.84358 0.0
H87 H 0.5905 0.87461 0.90883 0.0
H88 H 0.68925 0.99968 0.77558 0.0
H89 H 0.68459 0.80595 0.94299 0.0
H90 H 0.79579 0.06304 0.94534 0.0
O91 O 0.72767 0.8217 0.85379 0.0
O92 O 0.85048 0.92953 0.86552 0.0
O93 O 0.81313 0.06009 0.85743 0.0
C94 C 0.80671 0.85106 0.85945 0.0
H95 H 0.89467 0.02867 0.69266 0.0
H96 H 0.69864 0.85458 0.03438 0.0
H97 H 0.58487 0.03688 0.77055 0.0
H98 H 0.48981 0.92053 0.90814 0.0
Co99 Co 0.8186 0.75393 0.18895 0.0
C100 C 0.85701 0.74234 0.08537 0.0
C101 C 0.83436 0.84177 0.09895 0.0
C102 C 0.85516 0.84447 0.05127 0.0
N103 N 0.83418 0.77711 0.1203 0.0
N104 N 0.8682 0.78155 0.04274 0.0
H105 H 0.87089 0.69377 0.09169 0.0
H106 H 0.82643 0.88784 0.11746 0.0
C107 C 0.68394 0.80393 0.19135 0.0
O108 O 0.61673 0.73267 0.19653 0.0
N109 N 0.80663 0.73829 0.2592 0.0
C110 C 0.84291 0.70808 0.28848 0.0
C111 C 0.82475 0.71509 0.33611 0.0
C112 C 0.76805 0.76445 0.28977 0.0
N113 N 0.77823 0.75107 0.33656 0.0
C114 C 0.68215 0.58991 0.21205 0.0
C115 C 0.58614 0.58364 0.13457 0.0
C116 C 0.54851 0.53041 0.17338 0.0
C117 C 0.59796 0.53162 0.2117 0.0
C118 C 0.66926 0.64278 0.13718 0.0
N119 N 0.71609 0.64909 0.17691 0.0
H120 H 0.71815 0.58937 0.24217 0.0
H121 H 0.69183 0.68812 0.10891 0.0
H122 H 0.8809 0.68346 0.27632 0.0
H123 H 0.73501 0.79466 0.27867 0.0
O124 O 0.90823 0.72654 0.18712 0.0
O125 O 0.92321 0.84935 0.19886 0.0
O126 O 0.75531 0.81201 0.19076 0.0
C127 C 0.95791 0.80559 0.19278 0.0
H128 H 0.86826 0.89354 0.02599 0.0
H129 H 0.84633 0.69751 0.36771 0.0
H130 H 0.55026 0.58374 0.10389 0.0
H131 H 0.57154 0.48868 0.24147 0.0
Co132 Co 0.06694 0.81747 0.52229 0.0
C133 C 0.11694 0.85589 0.41871 0.0
C134 C 0.99486 0.83323 0.43229 0.0
C135 C 0.01295 0.85403 0.3846 0.0
N136 N 0.05933 0.83305 0.45363 0.0
N137 N 0.08891 0.86708 0.37607 0.0
H138 H 0.17938 0.86976 0.42502 0.0
H139 H 0.94085 0.82531 0.45079 0.0
C140 C 0.88228 0.68282 0.52469 0.0
O141 O 0.88632 0.61561 0.52986 0.0
N142 N 0.0706 0.8055 0.59253 0.0
C143 C 0.13709 0.84178 0.62181 0.0
C144 C 0.11192 0.82362 0.66944 0.0
C145 C 0.00586 0.76693 0.62311 0.0
N146 N 0.02942 0.7771 0.66989 0.0
C147 C 0.0945 0.68102 0.54538 0.0
C148 C 0.00476 0.58501 0.4679 0.0
C149 C 0.02036 0.54738 0.50672 0.0
C150 C 0.0686 0.59683 0.54503 0.0
C151 C 0.02874 0.66814 0.47051 0.0
N152 N 0.06927 0.71496 0.51025 0.0
H153 H 0.13104 0.71702 0.5755 0.0
H154 H 0.00597 0.6907 0.44224 0.0
H155 H 0.1997 0.87977 0.60966 0.0
H156 H 0.94261 0.73388 0.612 0.0
O157 O 0.18395 0.9071 0.52046 0.0
O158 O 0.07612 0.92209 0.53219 0.0
O159 O 0.94556 0.75418 0.5241 0.0
C160 C 0.15459 0.95679 0.52612 0.0
H161 H 0.97698 0.86714 0.35932 0.0
H162 H 0.15108 0.8452 0.70105 0.0
H163 H 0.96878 0.54913 0.43722 0.0
H164 H 0.08512 0.57041 0.5748 0.0
Co165 Co 0.25172 0.06581 0.85562 0.0
C166 C 0.26331 0.11581 0.75204 0.0
C167 C 0.16388 0.99373 0.76562 0.0
C168 C 0.16118 0.01182 0.71794 0.0
N169 N 0.22854 0.0582 0.78697 0.0
N170 N 0.2241 0.08778 0.70941 0.0
H171 H 0.31188 0.17825 0.75835 0.0
H172 H 0.11781 0.93973 0.78413 0.0
C173 C 0.20172 0.88115 0.85802 0.0
O174 O 0.27298 0.8852 0.86319 0.0
N175 N 0.26736 0.06948 0.92587 0.0
C176 C 0.29758 0.13596 0.95515 0.0
C177 C 0.29056 0.11079 1.00278 0.0
C178 C 0.2412 0.00474 0.95644 0.0
N179 N 0.25458 0.02829 1.00322 0.0
C180 C 0.41574 0.09337 0.87872 0.0
C181 C 0.42201 0.00364 0.80123 0.0
C182 C 0.47524 0.01923 0.84005 0.0
C183 C 0.47403 0.06748 0.87837 0.0
C184 C 0.36287 0.02761 0.80384 0.0
N185 N 0.35656 0.06814 0.84358 0.0
H186 H 0.41628 0.12992 0.90883 0.0
H187 H 0.31753 0.00484 0.77558 0.0
H188 H 0.32219 0.19857 0.94299 0.0
H189 H 0.21099 0.94149 0.94534 0.0
O190 O 0.27911 0.18282 0.85379 0.0
O191 O 0.1563 0.075 0.86552 0.0
O192 O 0.19364 0.94444 0.85743 0.0
C193 C 0.20006 0.15346 0.85945 0.0
H194 H 0.11211 0.97585 0.69266 0.0
H195 H 0.30814 0.14995 0.03438 0.0
H196 H 0.42191 0.96765 0.77055 0.0
H197 H 0.51697 0.08399 0.90814 0.0
Co198 Co 0.75504 0.81749 0.52528 0.0
C199 C 0.74345 0.85617 0.62879 0.0
C200 C 0.84268 0.83313 0.61536 0.0
C201 C 0.84546 0.85416 0.66302 0.0
N202 N 0.77812 0.83307 0.59395 0.0
N203 N 0.78274 0.86754 0.67141 0.0
H204 H 0.69498 0.87016 0.62242 0.0
H205 H 0.88866 0.82496 0.59693 0.0
C206 C 0.80502 0.68283 0.52293 0.0
O207 O 0.73376 0.61563 0.51772 0.0
N208 N 0.7395 0.80554 0.45503 0.0
C209 C 0.7093 0.84181 0.42574 0.0
C210 C 0.71633 0.82365 0.37811 0.0
C211 C 0.76568 0.76697 0.42446 0.0
N212 N 0.75235 0.77717 0.37768 0.0
C213 C 0.59107 0.68102 0.5021 0.0
C214 C 0.58467 0.58505 0.57964 0.0
C215 C 0.53153 0.54739 0.54079 0.0
C216 C 0.5328 0.59682 0.50245 0.0
C217 C 0.6438 0.66818 0.57704 0.0
N218 N 0.65018 0.71499 0.53728 0.0
H219 H 0.59058 0.717 0.47196 0.0
H220 H 0.68906 0.69076 0.60535 0.0
H221 H 0.68463 0.87977 0.43788 0.0
H222 H 0.79584 0.73388 0.43558 0.0
O223 O 0.72767 0.90714 0.52706 0.0
O224 O 0.85049 0.9221 0.51541 0.0
O225 O 0.81311 0.7542 0.52351 0.0
C226 C 0.80673 0.95681 0.52145 0.0
H227 H 0.89446 0.86718 0.68834 0.0
H228 H 0.6987 0.84517 0.3465 0.0
H229 H 0.58473 0.54919 0.61034 0.0
H230 H 0.48993 0.57038 0.47265 0.0
Co231 Co 0.93981 0.75391 0.85861 0.0
C232 C 0.88955 0.74233 0.96213 0.0
C233 C 0.01181 0.84155 0.9487 0.0
C234 C 0.99357 0.84434 0.99635 0.0
N235 N 0.94731 0.777 0.92728 0.0
N236 N 0.91746 0.78161 1.00474 0.0
H237 H 0.82708 0.69385 0.95575 0.0
H238 H 0.06596 0.88753 0.93026 0.0
C239 C 0.12445 0.80389 0.85627 0.0
O240 O 0.12039 0.73263 0.85105 0.0
N241 N 0.93622 0.73837 0.78836 0.0
C242 C 0.86975 0.70817 0.75907 0.0
C243 C 0.89494 0.7152 0.71144 0.0
C244 C 1.00098 0.76456 0.7578 0.0
N245 N 0.97744 0.75122 0.71101 0.0
C246 C 0.91232 0.58995 0.83544 0.0
C247 C 1.00189 0.58355 0.91297 0.0
C248 C 0.98641 0.5304 0.87412 0.0
C249 C 0.93824 0.53167 0.83578 0.0
C250 C 0.97789 0.64267 0.91037 0.0
N251 N 0.93745 0.64905 0.87061 0.0
H252 H 0.87584 0.58945 0.8053 0.0
H253 H 1.00056 0.68794 0.93868 0.0
H254 H 0.80712 0.68351 0.77122 0.0
H255 H 0.06422 0.79471 0.76891 0.0
O256 O 0.82279 0.72654 0.8604 0.0
O257 O 0.93065 0.84936 0.84874 0.0
O258 O 0.06118 0.81199 0.85685 0.0
C259 C 0.85218 0.8056 0.85478 0.0
H260 H 0.02954 0.89333 1.02167 0.0
H261 H 0.85579 0.69757 0.67984 0.0
H262 H 0.03781 0.58361 0.94368 0.0
H263 H 0.9218 0.4888 0.80598 0.0
Co264 Co 0.18816 0.93868 0.19195 0.0
C265 C 0.14948 0.88842 0.29546 0.0
C266 C 0.17252 0.01069 0.28203 0.0
C267 C 0.15149 0.99244 0.32968 0.0
N268 N 0.17258 0.94619 0.26061 0.0
N269 N 0.13811 0.91633 0.33808 0.0
H270 H 0.1355 0.82596 0.28908 0.0
H271 H 0.18069 0.06483 0.26359 0.0
C272 C 0.32282 0.12332 0.1896 0.0
O273 O 0.39002 0.11926 0.18438 0.0
N274 N 0.20011 0.93509 0.12169 0.0
C275 C 0.16384 0.86862 0.0924 0.0
C276 C 0.182 0.89381 0.04478 0.0
C277 C 0.23868 0.99985 0.09113 0.0
N278 N 0.22848 0.97632 0.04434 0.0
C279 C 0.32464 0.91119 0.16877 0.0
C280 C 0.4206 1.00076 0.24631 0.0
C281 C 0.45826 0.98528 0.20746 0.0
C282 C 0.40883 0.93712 0.16911 0.0
C283 C 0.33747 0.97676 0.24371 0.0
N284 N 0.29067 0.93633 0.20395 0.0
H285 H 0.28865 0.87471 0.13863 0.0
H286 H 0.31489 0.99943 0.27201 0.0
H287 H 0.12588 0.806 0.10455 0.0
H288 H 0.27177 0.0631 0.10225 0.0
O289 O 0.09851 0.82166 0.19373 0.0
O290 O 0.08355 0.92952 0.18208 0.0
O291 O 0.25145 0.06005 0.19018 0.0
C292 C 0.04884 0.85105 0.18812 0.0
H293 H 0.13847 0.02841 0.35501 0.0
H294 H 0.16048 0.85466 1.01317 0.0
H295 H 0.45647 0.03668 0.27701 0.0
H296 H 0.43527 0.92068 0.13932 0.0
Co297 Co 0.25174 0.18703 0.52528 0.0
C298 C 0.26333 0.14835 0.62879 0.0
C299 C 0.1641 0.1714 0.61536 0.0
C300 C 0.16131 0.15037 0.66302 0.0
N301 N 0.22866 0.17145 0.59395 0.0
N302 N 0.22404 0.13698 0.67141 0.0
H303 H 0.3118 0.13437 0.62242 0.0
H304 H 0.11812 0.17957 0.59693 0.0
C305 C 0.20176 0.3217 0.52293 0.0
O306 O 0.27302 0.38889 0.51771 0.0
N307 N 0.26728 0.19898 0.45503 0.0
C308 C 0.29748 0.16271 0.42574 0.0
C309 C 0.29045 0.18087 0.37811 0.0
C310 C 0.2411 0.23756 0.42446 0.0
N311 N 0.25443 0.22736 0.37768 0.0
C312 C 0.4157 0.32351 0.5021 0.0
C313 C 0.4221 0.41948 0.57964 0.0
C314 C 0.47525 0.45714 0.54079 0.0
C315 C 0.47398 0.40771 0.50245 0.0
C316 C 0.36298 0.33635 0.57704 0.0
N317 N 0.3566 0.28954 0.53728 0.0
H318 H 0.4162 0.28753 0.47196 0.0
H319 H 0.31771 0.31376 0.60535 0.0
H320 H 0.32214 0.12475 0.43788 0.0
H321 H 0.21094 0.27065 0.43558 0.0
O322 O 0.27911 0.09739 0.52706 0.0
O323 O 0.15629 0.08242 0.51541 0.0
O324 O 0.19367 0.25033 0.52351 0.0
C325 C 0.20005 0.04771 0.52145 0.0
H326 H 0.11232 0.13735 0.68834 0.0
H327 H 0.30808 0.15935 0.3465 0.0
H328 H 0.42204 0.45534 0.61034 0.0
H329 H 0.51685 0.43414 0.47265 0.0
Co330 Co 0.06697 0.25061 0.85861 0.0
C331 C 0.11723 0.2622 0.96213 0.0
C332 C 0.99496 0.16297 0.9487 0.0
C333 C 0.01321 0.16019 0.99635 0.0
N334 N 0.05946 0.22753 0.92728 0.0
N335 N 0.08932 0.22292 1.00474 0.0
H336 H 0.17969 0.31067 0.95575 0.0
H337 H 0.94082 0.11699 0.93026 0.0
C338 C 0.88233 0.20064 0.85627 0.0
O339 O 0.88639 0.27189 0.85105 0.0
N340 N 0.07056 0.26615 0.78836 0.0
C341 C 0.13703 0.29636 0.75907 0.0
C342 C 0.11184 0.28932 0.71144 0.0
C343 C 0.0058 0.23997 0.7578 0.0
N344 N 0.02933 0.2533 0.71101 0.0
C345 C 0.09446 0.41458 0.83544 0.0
C346 C 0.00489 0.42098 0.91297 0.0
C347 C 0.02037 0.47412 0.87412 0.0
C348 C 0.06854 0.47285 0.83578 0.0
C349 C 0.02889 0.36185 0.91037 0.0
N350 N 0.06933 0.35547 0.87061 0.0
H351 H 0.13094 0.41508 0.8053 0.0
H352 H 0.00622 0.31659 0.93868 0.0
H353 H 0.19965 0.32102 0.77122 0.0
H354 H 0.94255 0.20981 0.76891 0.0
O355 O 0.18399 0.27798 0.8604 0.0
O356 O 0.07613 0.15516 0.84874 0.0
O357 O 0.9456 0.19254 0.85685 0.0
C358 C 0.1546 0.19893 0.85478 0.0
H359 H 0.97724 0.1112 1.02167 0.0
H360 H 0.15099 0.30695 0.67984 0.0
H361 H 0.96897 0.42092 0.94367 0.0
H362 H 0.08497 0.51573 0.80598 0.0
Co363 Co 0.81862 0.06584 0.19195 0.0
C364 C 0.8573 0.11611 0.29546 0.0
C365 C 0.83425 0.99384 0.28203 0.0
C366 C 0.85529 0.01208 0.32968 0.0
N367 N 0.8342 0.05834 0.26061 0.0
N368 N 0.86867 0.0882 0.33808 0.0
H369 H 0.87128 0.17857 0.28908 0.0
H370 H 0.82608 0.93969 0.26359 0.0
C371 C 0.68395 0.8812 0.1896 0.0
O372 O 0.61676 0.88526 0.18438 0.0
N373 N 0.80667 0.06943 0.12169 0.0
C374 C 0.84294 0.13591 0.0924 0.0
C375 C 0.82478 0.11071 0.04478 0.0
C376 C 0.76809 0.00467 0.09113 0.0
N377 N 0.7783 0.02821 0.04434 0.0
C378 C 0.68214 0.09333 0.16877 0.0
C379 C 0.58617 0.00376 0.24631 0.0
C380 C 0.54851 0.01925 0.20746 0.0
C381 C 0.59794 0.06741 0.16911 0.0
C382 C 0.6693 0.02776 0.24371 0.0
N383 N 0.71611 0.0682 0.20395 0.0
H384 H 0.71812 0.12981 0.13863 0.0
H385 H 0.69189 0.00509 0.27201 0.0
H386 H 0.8809 0.19853 0.10455 0.0
H387 H 0.735 0.94143 0.10225 0.0
O388 O 0.90827 0.18286 0.19373 0.0
O389 O 0.92323 0.075 0.18208 0.0
O390 O 0.75533 0.94448 0.19018 0.0
C391 C 0.95794 0.15348 0.18812 0.0
H392 H 0.8683 0.97611 0.35501 0.0
H393 H 0.8463 0.14986 1.01317 0.0
H394 H 0.55031 0.96784 0.27701 0.0
H395 H 0.57151 0.08385 0.13932 0.0
loop_
_geom_bond_atom_site_label_1
_geom_bond_atom_site_label_2
_geom_bond_distance
_geom_bond_site_symmetry_2
_ccdc_geom_bond_type
Co0 N4 2.148 . S
Co0 N10 2.128 . S
Co0 N20 2.194 . S
Co0 O25 2.351 . S
Co0 O26 2.155 . S
Co0 O27 2.096 . S
C1 N4 1.301 . S
C1 N5 1.328 . S
C1 H6 0.930 . S
C2 C3 1.333 . S
C2 N4 1.317 . S
C2 H7 0.930 . S
C3 C2 1.333 . S
C3 N5 1.350 . S
C3 H29 0.931 1_554 S
N4 Co0 2.148 . S
N4 C1 1.301 . S
N4 C2 1.317 . S
N5 C1 1.328 . S
N5 C3 1.350 . S
H6 C1 0.930 . S
H7 C2 0.930 . S
C8 O9 1.224 . S
C8 O27 1.247 . S
O9 C8 1.224 . S
N10 Co0 2.128 . S
N10 C11 1.355 . S
N10 C13 1.311 . S
C11 N10 1.355 . S
C11 C12 1.363 . S
C11 H23 0.929 . S
C12 C11 1.363 . S
C12 N14 1.375 . S
C12 H30 0.931 . S
C13 N10 1.311 . S
C13 N14 1.347 . S
C13 H24 0.929 . S
N14 C12 1.375 . S
N14 C13 1.347 . S
C15 C18 1.365 . S
C15 N20 1.328 . S
C15 H21 0.929 . S
C16 C17 1.362 . S
C16 C19 1.378 . S
C16 H31 0.929 . S
C17 C16 1.362 . S
C17 C18 1.366 . S
C18 C15 1.365 . S
C18 C17 1.366 . S
C18 H32 0.930 . S
C19 C16 1.378 . S
C19 N20 1.315 . S
C19 H22 0.930 . S
N20 Co0 2.194 . S
N20 C15 1.328 . S
N20 C19 1.315 . S
H21 C15 0.929 . S
H22 C19 0.930 . S
H23 C11 0.929 . S
H24 C13 0.929 . S
O25 Co0 2.351 . S
O25 C28 1.244 . S
O26 Co0 2.155 . S
O26 C28 1.240 . S
O27 Co0 2.096 . S
O27 C8 1.247 . S
C28 O25 1.244 . S
C28 O26 1.240 . S
H29 C3 0.931 1_556 S
H30 C12 0.931 . S
H31 C16 0.929 . S
H32 C18 0.930 . S
Co33 N37 2.148 . S
Co33 N43 2.128 . S
Co33 N53 2.194 . S
Co33 O58 2.351 . S
Co33 O59 2.155 . S
Co33 O60 2.096 1_655 S
C34 N37 1.301 . S
C34 N38 1.328 . S
C34 H39 0.930 . S
C35 C36 1.333 . S
C35 N37 1.317 . S
C35 H40 0.930 1_655 S
C36 C35 1.333 . S
C36 N38 1.350 . S
C36 H62 0.931 . S
N37 Co33 2.148 . S
N37 C34 1.301 . S
N37 C35 1.317 . S
N38 C34 1.328 . S
N38 C36 1.350 . S
H39 C34 0.930 . S
H40 C35 0.930 1_455 S
C41 O42 1.224 . S
C41 O60 1.247 . S
O42 C41 1.224 . S
N43 Co33 2.128 . S
N43 C44 1.355 . S
N43 C46 1.311 . S
C44 N43 1.355 . S
C44 C45 1.363 . S
C44 H56 0.929 . S
C45 C44 1.363 . S
C45 N47 1.375 . S
C45 H63 0.931 . S
C46 N43 1.311 . S
C46 N47 1.347 . S
C46 H57 0.929 1_655 S
N47 C45 1.375 . S
N47 C46 1.347 . S
C48 C51 1.365 . S
C48 N53 1.328 . S
C48 H54 0.929 . S
C49 C50 1.362 . S
C49 C52 1.378 . S
C49 H64 0.929 1_655 S
C50 C49 1.362 . S
C50 C51 1.366 . S
C51 C48 1.365 . S
C51 C50 1.366 . S
C51 H65 0.930 . S
C52 C49 1.378 . S
C52 N53 1.315 . S
C52 H55 0.930 1_655 S
N53 Co33 2.194 . S
N53 C48 1.328 . S
N53 C52 1.315 . S
H54 C48 0.929 . S
H55 C52 0.930 1_455 S
H56 C44 0.929 . S
H57 C46 0.929 1_455 S
O58 Co33 2.351 . S
O58 C61 1.244 . S
O59 Co33 2.155 . S
O59 C61 1.240 . S
O60 Co33 2.096 1_455 S
O60 C41 1.247 . S
C61 O58 1.244 . S
C61 O59 1.240 . S
H62 C36 0.931 . S
H63 C45 0.931 . S
H64 C49 0.929 1_455 S
H65 C51 0.930 . S
Co66 N70 2.148 . S
Co66 N76 2.128 . S
Co66 N86 2.194 . S
Co66 O91 2.351 . S
Co66 O92 2.155 . S
Co66 O93 2.096 1_565 S
C67 N70 1.301 . S
C67 N71 1.328 . S
C67 H72 0.930 . S
C68 C69 1.333 . S
C68 N70 1.317 . S
C68 H73 0.930 1_565 S
C69 C68 1.333 . S
C69 N71 1.350 . S
C69 H95 0.931 . S
N70 Co66 2.148 . S
N70 C67 1.301 . S
N70 C68 1.317 . S
N71 C67 1.328 . S
N71 C69 1.350 . S
H72 C67 0.930 . S
H73 C68 0.930 1_545 S
C74 O75 1.224 . S
C74 O93 1.247 . S
O75 C74 1.224 . S
N76 Co66 2.128 . S
N76 C77 1.355 . S
N76 C79 1.311 . S
C77 N76 1.355 . S
C77 C78 1.363 . S
C77 H89 0.929 . S
C78 C77 1.363 . S
C78 N80 1.375 . S
C78 H96 0.931 . S
C79 N76 1.311 . S
C79 N80 1.347 . S
C79 H90 0.929 1_565 S
N80 C78 1.375 . S
N80 C79 1.347 . S
C81 C84 1.365 . S
C81 N86 1.328 . S
C81 H87 0.929 . S
C82 C83 1.362 . S
C82 C85 1.378 . S
C82 H97 0.929 1_565 S
C83 C82 1.362 . S
C83 C84 1.366 . S
C84 C81 1.365 . S
C84 C83 1.366 . S
C84 H98 0.930 . S
C85 C82 1.378 . S
C85 N86 1.315 . S
C85 H88 0.930 1_565 S
N86 Co66 2.194 . S
N86 C81 1.328 . S
N86 C85 1.315 . S
H87 C81 0.929 . S
H88 C85 0.930 1_545 S
H89 C77 0.929 . S
H90 C79 0.929 1_545 S
O91 Co66 2.351 . S
O91 C94 1.244 . S
O92 Co66 2.155 . S
O92 C94 1.240 . S
O93 Co66 2.096 1_545 S
O93 C74 1.247 . S
C94 O91 1.244 . S
C94 O92 1.240 . S
H95 C69 0.931 . S
H96 C78 0.931 . S
H97 C82 0.929 1_545 S
H98 C84 0.930 . S
Co99 N103 2.148 . S
Co99 N109 2.128 . S
Co99 N119 2.194 . S
Co99 O124 2.351 . S
Co99 O125 2.155 . S
Co99 O126 2.096 . S
C100 N103 1.301 . S
C100 N104 1.328 . S
C100 H105 0.930 . S
C101 C102 1.333 . S
C101 N103 1.317 . S
C101 H106 0.930 . S
C102 C101 1.333 . S
C102 N104 1.350 . S
C102 H128 0.931 1_554 S
N103 Co99 2.148 . S
N103 C100 1.301 . S
N103 C101 1.317 . S
N104 C100 1.328 . S
N104 C102 1.350 . S
H105 C100 0.930 . S
H106 C101 0.930 . S
C107 O108 1.224 . S
C107 O126 1.247 . S
O108 C107 1.224 . S
N109 Co99 2.128 . S
N109 C110 1.355 . S
N109 C112 1.311 . S
C110 N109 1.355 . S
C110 C111 1.363 . S
C110 H122 0.929 . S
C111 C110 1.363 . S
C111 N113 1.375 . S
C111 H129 0.931 . S
C112 N109 1.311 . S
C112 N113 1.347 . S
C112 H123 0.929 . S
N113 C111 1.375 . S
N113 C112 1.347 . S
C114 C117 1.365 . S
C114 N119 1.328 . S
C114 H120 0.929 . S
C115 C116 1.362 . S
C115 C118 1.378 . S
C115 H130 0.929 . S
C116 C115 1.362 . S
C116 C117 1.366 . S
C117 C114 1.365 . S
C117 C116 1.366 . S
C117 H131 0.930 . S
C118 C115 1.378 . S
C118 N119 1.315 . S
C118 H121 0.930 . S
N119 Co99 2.194 . S
N119 C114 1.328 . S
N119 C118 1.315 . S
H120 C114 0.929 . S
H121 C118 0.930 . S
H122 C110 0.929 . S
H123 C112 0.929 . S
O124 Co99 2.351 . S
O124 C127 1.244 . S
O125 Co99 2.155 . S
O125 C127 1.240 . S
O126 Co99 2.096 . S
O126 C107 1.247 . S
C127 O124 1.244 . S
C127 O125 1.240 . S
H128 C102 0.931 1_556 S
H129 C111 0.931 . S
H130 C115 0.929 . S
H131 C117 0.930 . S
Co132 N136 2.148 . S
Co132 N142 2.128 . S
Co132 N152 2.194 . S
Co132 O157 2.351 . S
Co132 O158 2.155 . S
Co132 O159 2.096 1_455 S
C133 N136 1.301 . S
C133 N137 1.328 . S
C133 H138 0.930 . S
C134 C135 1.333 . S
C134 N136 1.317 . S
C134 H139 0.930 1_455 S
C135 C134 1.333 . S
C135 N137 1.350 . S
C135 H161 0.931 . S
N136 Co132 2.148 . S
N136 C133 1.301 . S
N136 C134 1.317 . S
N137 C133 1.328 . S
N137 C135 1.350 . S
H138 C133 0.930 . S
H139 C134 0.930 1_655 S
C140 O141 1.224 . S
C140 O159 1.247 . S
O141 C140 1.224 . S
N142 Co132 2.128 . S
N142 C143 1.355 . S
N142 C145 1.311 . S
C143 N142 1.355 . S
C143 C144 1.363 . S
C143 H155 0.929 . S
C144 C143 1.363 . S
C144 N146 1.375 . S
C144 H162 0.931 . S
C145 N142 1.311 . S
C145 N146 1.347 . S
C145 H156 0.929 1_455 S
N146 C144 1.375 . S
N146 C145 1.347 . S
C147 C150 1.365 . S
C147 N152 1.328 . S
C147 H153 0.929 . S
C148 C149 1.362 . S
C148 C151 1.378 . S
C148 H163 0.929 1_455 S
C149 C148 1.362 . S
C149 C150 1.366 . S
C150 C147 1.365 . S
C150 C149 1.366 . S
C150 H164 0.930 . S
C151 C148 1.378 . S
C151 N152 1.315 . S
C151 H154 0.930 1_455 S
N152 Co132 2.194 . S
N152 C147 1.328 . S
N152 C151 1.315 . S
H153 C147 0.929 . S
H154 C151 0.930 1_655 S
H155 C143 0.929 . S
H156 C145 0.929 1_655 S
O157 Co132 2.351 . S
O157 C160 1.244 . S
O158 Co132 2.155 . S
O158 C160 1.240 . S
O159 Co132 2.096 1_655 S
O159 C140 1.247 . S
C160 O157 1.244 . S
C160 O158 1.240 . S
H161 C135 0.931 . S
H162 C144 0.931 . S
H163 C148 0.929 1_655 S
H164 C150 0.930 . S
Co165 N169 2.148 . S
Co165 N175 2.128 . S
Co165 N185 2.194 . S
Co165 O190 2.351 . S
Co165 O191 2.155 . S
Co165 O192 2.096 1_545 S
C166 N169 1.301 . S
C166 N170 1.328 . S
C166 H171 0.930 . S
C167 C168 1.333 . S
C167 N169 1.317 . S
C167 H172 0.930 1_545 S
C168 C167 1.333 . S
C168 N170 1.350 . S
C168 H194 0.931 . S
N169 Co165 2.148 . S
N169 C166 1.301 . S
N169 C167 1.317 . S
N170 C166 1.328 . S
N170 C168 1.350 . S
H171 C166 0.930 . S
H172 C167 0.930 1_565 S
C173 O174 1.224 . S
C173 O192 1.247 . S
O174 C173 1.224 . S
N175 Co165 2.128 . S
N175 C176 1.355 . S
N175 C178 1.311 . S
C176 N175 1.355 . S
C176 C177 1.363 . S
C176 H188 0.929 . S
C177 C176 1.363 . S
C177 N179 1.375 . S
C177 H195 0.931 . S
C178 N175 1.311 . S
C178 N179 1.347 . S
C178 H189 0.929 1_545 S
N179 C177 1.375 . S
N179 C178 1.347 . S
C180 C183 1.365 . S
C180 N185 1.328 . S
C180 H186 0.929 . S
C181 C182 1.362 . S
C181 C184 1.378 . S
C181 H196 0.929 1_545 S
C182 C181 1.362 . S
C182 C183 1.366 . S
C183 C180 1.365 . S
C183 C182 1.366 . S
C183 H197 0.930 . S
C184 C181 1.378 . S
C184 N185 1.315 . S
C184 H187 0.930 1_545 S
N185 Co165 2.194 . S
N185 C180 1.328 . S
N185 C184 1.315 . S
H186 C180 0.929 . S
H187 C184 0.930 1_565 S
H188 C176 0.929 . S
H189 C178 0.929 1_565 S
O190 Co165 2.351 . S
O190 C193 1.244 . S
O191 Co165 2.155 . S
O191 C193 1.240 . S
O192 Co165 2.096 1_565 S
O192 C173 1.247 . S
C193 O190 1.244 . S
C193 O191 1.240 . S
H194 C168 0.931 . S
H195 C177 0.931 . S
H196 C181 0.929 1_565 S
H197 C183 0.930 . S
Co198 N202 2.148 . S
Co198 N208 2.128 . S
Co198 N218 2.194 . S
Co198 O223 2.351 . S
Co198 O224 2.155 . S
Co198 O225 2.096 . S
C199 N202 1.301 . S
C199 N203 1.328 . S
C199 H204 0.930 . S
C200 C201 1.333 . S
C200 N202 1.317 . S
C200 H205 0.930 . S
C201 C200 1.333 . S
C201 N203 1.350 . S
C201 H227 0.931 . S
N202 Co198 2.148 . S
N202 C199 1.301 . S
N202 C200 1.317 . S
N203 C199 1.328 . S
N203 C201 1.350 . S
H204 C199 0.930 . S
H205 C200 0.930 . S
C206 O207 1.224 . S
C206 O225 1.247 . S
O207 C206 1.224 . S
N208 Co198 2.128 . S
N208 C209 1.355 . S
N208 C211 1.311 . S
C209 N208 1.355 . S
C209 C210 1.363 . S
C209 H221 0.929 . S
C210 C209 1.363 . S
C210 N212 1.375 . S
C210 H228 0.931 . S
C211 N208 1.311 . S
C211 N212 1.347 . S
C211 H222 0.929 . S
N212 C210 1.375 . S
N212 C211 1.347 . S
C213 C216 1.365 . S
C213 N218 1.328 . S
C213 H219 0.929 . S
C214 C215 1.362 . S
C214 C217 1.378 . S
C214 H229 0.929 . S
C215 C214 1.362 . S
C215 C216 1.366 . S
C216 C213 1.365 . S
C216 C215 1.366 . S
C216 H230 0.930 . S
C217 C214 1.378 . S
C217 N218 1.315 . S
C217 H220 0.930 . S
N218 Co198 2.194 . S
N218 C213 1.328 . S
N218 C217 1.315 . S
H219 C213 0.929 . S
H220 C217 0.930 . S
H221 C209 0.929 . S
H222 C211 0.929 . S
O223 Co198 2.351 . S
O223 C226 1.244 . S
O224 Co198 2.155 . S
O224 C226 1.240 . S
O225 Co198 2.096 . S
O225 C206 1.247 . S
C226 O223 1.244 . S
C226 O224 1.240 . S
H227 C201 0.931 . S
H228 C210 0.931 . S
H229 C214 0.929 . S
H230 C216 0.930 . S
Co231 N235 2.148 . S
Co231 N241 2.128 . S
Co231 N251 2.194 . S
Co231 O256 2.351 . S
Co231 O257 2.155 . S
Co231 O258 2.096 1_655 S
C232 N235 1.301 . S
C232 N236 1.328 . S
C232 H237 0.930 . S
C233 C234 1.333 . S
C233 N235 1.317 . S
C233 H238 0.930 1_655 S
C234 C233 1.333 . S
C234 N236 1.350 . S
C234 H260 0.931 1_556 S
N235 Co231 2.148 . S
N235 C232 1.301 . S
N235 C233 1.317 . S
N236 C232 1.328 . S
N236 C234 1.350 . S
H237 C232 0.930 . S
H238 C233 0.930 1_455 S
C239 O240 1.224 . S
C239 O258 1.247 . S
O240 C239 1.224 . S
N241 Co231 2.128 . S
N241 C242 1.355 . S
N241 C244 1.311 . S
C242 N241 1.355 . S
C242 C243 1.363 . S
C242 H254 0.929 . S
C243 C242 1.363 . S
C243 N245 1.375 . S
C243 H261 0.931 . S
C244 N241 1.311 . S
C244 N245 1.347 . S
C244 H255 0.929 1_655 S
N245 C243 1.375 . S
N245 C244 1.347 . S
C246 C249 1.365 . S
C246 N251 1.328 . S
C246 H252 0.929 . S
C247 C248 1.362 . S
C247 C250 1.378 . S
C247 H262 0.929 1_655 S
C248 C247 1.362 . S
C248 C249 1.366 . S
C249 C246 1.365 . S
C249 C248 1.366 . S
C249 H263 0.930 . S
C250 C247 1.378 . S
C250 N251 1.315 . S
C250 H253 0.930 1_655 S
N251 Co231 2.194 . S
N251 C246 1.328 . S
N251 C250 1.315 . S
H252 C246 0.929 . S
H253 C250 0.930 1_455 S
H254 C242 0.929 . S
H255 C244 0.929 1_455 S
O256 Co231 2.351 . S
O256 C259 1.244 . S
O257 Co231 2.155 . S
O257 C259 1.240 . S
O258 Co231 2.096 1_455 S
O258 C239 1.247 . S
C259 O256 1.244 . S
C259 O257 1.240 . S
H260 C234 0.931 1_554 S
H261 C243 0.931 . S
H262 C247 0.929 1_455 S
H263 C249 0.930 . S
Co264 N268 2.148 . S
Co264 N274 2.128 . S
Co264 N284 2.194 . S
Co264 O289 2.351 . S
Co264 O290 2.155 . S
Co264 O291 2.096 1_565 S
C265 N268 1.301 . S
C265 N269 1.328 . S
C265 H270 0.930 . S
C266 C267 1.333 . S
C266 N268 1.317 . S
C266 H271 0.930 1_565 S
C267 C266 1.333 . S
C267 N269 1.350 . S
C267 H293 0.931 . S
N268 Co264 2.148 . S
N268 C265 1.301 . S
N268 C266 1.317 . S
N269 C265 1.328 . S
N269 C267 1.350 . S
H270 C265 0.930 . S
H271 C266 0.930 1_545 S
C272 O273 1.224 . S
C272 O291 1.247 . S
O273 C272 1.224 . S
N274 Co264 2.128 . S
N274 C275 1.355 . S
N274 C277 1.311 . S
C275 N274 1.355 . S
C275 C276 1.363 . S
C275 H287 0.929 . S
C276 C275 1.363 . S
C276 N278 1.375 . S
C276 H294 0.931 . S
C277 N274 1.311 . S
C277 N278 1.347 . S
C277 H288 0.929 1_565 S
N278 C276 1.375 . S
N278 C277 1.347 . S
C279 C282 1.365 . S
C279 N284 1.328 . S
C279 H285 0.929 . S
C280 C281 1.362 . S
C280 C283 1.378 . S
C280 H295 0.929 1_565 S
C281 C280 1.362 . S
C281 C282 1.366 . S
C282 C279 1.365 . S
C282 C281 1.366 . S
C282 H296 0.930 . S
C283 C280 1.378 . S
C283 N284 1.315 . S
C283 H286 0.930 1_565 S
N284 Co264 2.194 . S
N284 C279 1.328 . S
N284 C283 1.315 . S
H285 C279 0.929 . S
H286 C283 0.930 1_545 S
H287 C275 0.929 . S
H288 C277 0.929 1_545 S
O289 Co264 2.351 . S
O289 C292 1.244 . S
O290 Co264 2.155 . S
O290 C292 1.240 . S
O291 Co264 2.096 1_545 S
O291 C272 1.247 . S
C292 O289 1.244 . S
C292 O290 1.240 . S
H293 C267 0.931 . S
H294 C276 0.931 . S
H295 C280 0.929 1_545 S
H296 C282 0.930 . S
Co297 N301 2.148 . S
Co297 N307 2.128 . S
Co297 N317 2.194 . S
Co297 O322 2.351 . S
Co297 O323 2.155 . S
Co297 O324 2.096 . S
C298 N301 1.301 . S
C298 N302 1.328 . S
C298 H303 0.930 . S
C299 C300 1.333 . S
C299 N301 1.317 . S
C299 H304 0.930 . S
C300 C299 1.333 . S
C300 N302 1.350 . S
C300 H326 0.931 . S
N301 Co297 2.148 . S
N301 C298 1.301 . S
N301 C299 1.317 . S
N302 C298 1.328 . S
N302 C300 1.350 . S
H303 C298 0.930 . S
H304 C299 0.930 . S
C305 O306 1.224 . S
C305 O324 1.247 . S
O306 C305 1.224 . S
N307 Co297 2.128 . S
N307 C308 1.355 . S
N307 C310 1.311 . S
C308 N307 1.355 . S
C308 C309 1.363 . S
C308 H320 0.929 . S
C309 C308 1.363 . S
C309 N311 1.375 . S
C309 H327 0.931 . S
C310 N307 1.311 . S
C310 N311 1.347 . S
C310 H321 0.929 . S
N311 C309 1.375 . S
N311 C310 1.347 . S
C312 C315 1.365 . S
C312 N317 1.328 . S
C312 H318 0.929 . S
C313 C314 1.362 . S
C313 C316 1.378 . S
C313 H328 0.929 . S
C314 C313 1.362 . S
C314 C315 1.366 . S
C315 C312 1.365 . S
C315 C314 1.366 . S
C315 H329 0.930 . S
C316 C313 1.378 . S
C316 N317 1.315 . S
C316 H319 0.930 . S
N317 Co297 2.194 . S
N317 C312 1.328 . S
N317 C316 1.315 . S
H318 C312 0.929 . S
H319 C316 0.930 . S
H320 C308 0.929 . S
H321 C310 0.929 . S
O322 Co297 2.351 . S
O322 C325 1.244 . S
O323 Co297 2.155 . S
O323 C325 1.240 . S
O324 Co297 2.096 . S
O324 C305 1.247 . S
C325 O322 1.244 . S
C325 O323 1.240 . S
H326 C300 0.931 . S
H327 C309 0.931 . S
H328 C313 0.929 . S
H329 C315 0.930 . S
Co330 N334 2.148 . S
Co330 N340 2.128 . S
Co330 N350 2.194 . S
Co330 O355 2.351 . S
Co330 O356 2.155 . S
Co330 O357 2.096 1_455 S
C331 N334 1.301 . S
C331 N335 1.328 . S
C331 H336 0.930 . S
C332 C333 1.333 . S
C332 N334 1.317 . S
C332 H337 0.930 1_455 S
C333 C332 1.333 . S
C333 N335 1.350 . S
C333 H359 0.931 1_556 S
N334 Co330 2.148 . S
N334 C331 1.301 . S
N334 C332 1.317 . S
N335 C331 1.328 . S
N335 C333 1.350 . S
H336 C331 0.930 . S
H337 C332 0.930 1_655 S
C338 O339 1.224 . S
C338 O357 1.247 . S
O339 C338 1.224 . S
N340 Co330 2.128 . S
N340 C341 1.355 . S
N340 C343 1.311 . S
C341 N340 1.355 . S
C341 C342 1.363 . S
C341 H353 0.929 . S
C342 C341 1.363 . S
C342 N344 1.375 . S
C342 H360 0.931 . S
C343 N340 1.311 . S
C343 N344 1.347 . S
C343 H354 0.929 1_455 S
N344 C342 1.375 . S
N344 C343 1.347 . S
C345 C348 1.365 . S
C345 N350 1.328 . S
C345 H351 0.929 . S
C346 C347 1.362 . S
C346 C349 1.378 . S
C346 H361 0.929 1_455 S
C347 C346 1.362 . S
C347 C348 1.366 . S
C348 C345 1.365 . S
C348 C347 1.366 . S
C348 H362 0.930 . S
C349 C346 1.378 . S
C349 N350 1.315 . S
C349 H352 0.930 1_455 S
N350 Co330 2.194 . S
N350 C345 1.328 . S
N350 C349 1.315 . S
H351 C345 0.929 . S
H352 C349 0.930 1_655 S
H353 C341 0.929 . S
H354 C343 0.929 1_655 S
O355 Co330 2.351 . S
O355 C358 1.244 . S
O356 Co330 2.155 . S
O356 C358 1.240 . S
O357 Co330 2.096 1_655 S
O357 C338 1.247 . S
C358 O355 1.244 . S
C358 O356 1.240 . S
H359 C333 0.931 1_554 S
H360 C342 0.931 . S
H361 C346 0.929 1_655 S
H362 C348 0.930 . S
Co363 N367 2.148 . S
Co363 N373 2.128 . S
Co363 N383 2.194 . S
Co363 O388 2.351 . S
Co363 O389 2.155 . S
Co363 O390 2.096 1_545 S
C364 N367 1.301 . S
C364 N368 1.328 . S
C364 H369 0.930 . S
C365 C366 1.333 . S
C365 N367 1.317 . S
C365 H370 0.930 1_545 S
C366 C365 1.333 . S
C366 N368 1.350 . S
C366 H392 0.931 . S
N367 Co363 2.148 . S
N367 C364 1.301 . S
N367 C365 1.317 . S
N368 C364 1.328 . S
N368 C366 1.350 . S
H369 C364 0.930 . S
H370 C365 0.930 1_565 S
C371 O372 1.224 . S
C371 O390 1.247 . S
O372 C371 1.224 . S
N373 Co363 2.128 . S
N373 C374 1.355 . S
N373 C376 1.311 . S
C374 N373 1.355 . S
C374 C375 1.363 . S
C374 H386 0.929 . S
C375 C374 1.363 . S
C375 N377 1.375 . S
C375 H393 0.931 . S
C376 N373 1.311 . S
C376 N377 1.347 . S
C376 H387 0.929 1_545 S
N377 C375 1.375 . S
N377 C376 1.347 . S
C378 C381 1.365 . S
C378 N383 1.328 . S
C378 H384 0.929 . S
C379 C380 1.362 . S
C379 C382 1.378 . S
C379 H394 0.929 1_545 S
C380 C379 1.362 . S
C380 C381 1.366 . S
C381 C378 1.365 . S
C381 C380 1.366 . S
C381 H395 0.930 . S
C382 C379 1.378 . S
C382 N383 1.315 . S
C382 H385 0.930 1_545 S
N383 Co363 2.194 . S
N383 C378 1.328 . S
N383 C382 1.315 . S
H384 C378 0.929 . S
H385 C382 0.930 1_565 S
H386 C374 0.929 . S
H387 C376 0.929 1_565 S
O388 Co363 2.351 . S
O388 C391 1.244 . S
O389 Co363 2.155 . S
O389 C391 1.240 . S
O390 Co363 2.096 1_565 S
O390 C371 1.247 . S
C391 O388 1.244 . S
C391 O389 1.240 . S
H392 C366 0.931 . S
H393 C375 0.931 . S
H394 C379 0.929 1_565 S
H395 C381 0.930 . S
N311 N14 1.549 . S
N47 N344 1.549 1_655 S
N80 N377 1.549 1_566 S
N113 N212 1.549 . S
N146 N245 1.549 1_455 S
N179 N278 1.548 1_546 S
N335 N5 1.306 1_556 S
N368 N38 1.306 . S
N71 N203 1.306 . S
N236 N104 1.306 1_556 S
N137 N269 1.306 . S
N170 N302 1.306 . S
C116 C17 3.040 . S
C50 C149 3.040 1_655 S
C182 C83 3.040 1_545 S
C314 C215 3.040 . S
C248 C347 3.040 1_655 S
C380 C281 3.040 1_545 S
C28 C391 1.348 1_455 S
C226 C61 1.348 1_565 S
C94 C259 1.348 . S
C127 C292 1.348 1_655 S
C160 C325 1.348 1_565 S
C358 C193 1.348 . S
C8 C272 0.805 . S
C305 C41 0.805 . S
C74 C338 0.805 . S
C371 C107 0.805 . S
C206 C140 0.805 . S
C173 C239 0.805 . S
