# Generated by pormake.
# Topology zfl, (5)-cn, num edge types: 1
# Building blocks:
#     Node 0, Type 0, BuildingBlock: BEQFEK_clean_sbu_0, # of connection points: 5
#     Node 1, Type 0, BuildingBlock: BEQFEK_clean_sbu_0, # of connection points: 5
#     Node 2, Type 0, BuildingBlock: BEQFEK_clean_sbu_0, # of connection points: 5
#     Node 3, Type 0, BuildingBlock: BEQFEK_clean_sbu_0, # of connection points: 5
#     Node 4, Type 0, BuildingBlock: BEQFEK_clean_sbu_0, # of connection points: 5
#     Node 5, Type 0, BuildingBlock: BEQFEK_clean_sbu_0, # of connection points: 5
#     Node 6, Type 0, BuildingBlock: BEQFEK_clean_sbu_0, # of connection points: 5
#     Node 7, Type 0, BuildingBlock: BEQFEK_clean_sbu_0, # of connection points: 5
#     Node 8, Type 0, BuildingBlock: BEQFEK_clean_sbu_0, # of connection points: 5
#     Node 9, Type 0, BuildingBlock: BEQFEK_clean_sbu_0, # of connection points: 5
#     Node 10, Type 0, BuildingBlock: BEQFEK_clean_sbu_0, # of connection points: 5
#     Node 11, Type 0, BuildingBlock: BEQFEK_clean_sbu_0, # of connection points: 5
#     Node 12, Type 0, BuildingBlock: BEQFEK_clean_sbu_0, # of connection points: 5
#     Node 13, Type 0, BuildingBlock: BEQFEK_clean_sbu_0, # of connection points: 5
#     Node 14, Type 0, BuildingBlock: BEQFEK_clean_sbu_0, # of connection points: 5
#     Node 15, Type 0, BuildingBlock: BEQFEK_clean_sbu_0, # of connection points: 5
#     Edge 16, Type (0, 0), BuildingBlock: ZUJKAS_clean_linker_0, # of connection points: 2
#     Edge 17, Type (0, 0), BuildingBlock: ZUJKAS_clean_linker_0, # of connection points: 2
#     Edge 18, Type (0, 0), BuildingBlock: ZUJKAS_clean_linker_0, # of connection points: 2
#     Edge 19, Type (0, 0), BuildingBlock: ZUJKAS_clean_linker_0, # of connection points: 2
#     Edge 20, Type (0, 0), BuildingBlock: ZUJKAS_clean_linker_0, # of connection points: 2
#     Edge 21, Type (0, 0), BuildingBlock: ZUJKAS_clean_linker_0, # of connection points: 2
#     Edge 22, Type (0, 0), BuildingBlock: ZUJKAS_clean_linker_0, # of connection points: 2
#     Edge 23, Type (0, 0), BuildingBlock: ZUJKAS_clean_linker_0, # of connection points: 2
#     Edge 24, Type (0, 0), BuildingBlock: ZUJKAS_clean_linker_0, # of connection points: 2
#     Edge 25, Type (0, 0), BuildingBlock: ZUJKAS_clean_linker_0, # of connection points: 2
#     Edge 26, Type (0, 0), BuildingBlock: ZUJKAS_clean_linker_0, # of connection points: 2
#     Edge 27, Type (0, 0), BuildingBlock: ZUJKAS_clean_linker_0, # of connection points: 2
#     Edge 28, Type (0, 0), BuildingBlock: ZUJKAS_clean_linker_0, # of connection points: 2
#     Edge 29, Type (0, 0), BuildingBlock: ZUJKAS_clean_linker_0, # of connection points: 2
#     Edge 30, Type (0, 0), BuildingBlock: ZUJKAS_clean_linker_0, # of connection points: 2
#     Edge 31, Type (0, 0), BuildingBlock: ZUJKAS_clean_linker_0, # of connection points: 2
#     Edge 32, Type (0, 0), BuildingBlock: ZUJKAS_clean_linker_0, # of connection points: 2
#     Edge 33, Type (0, 0), BuildingBlock: ZUJKAS_clean_linker_0, # of connection points: 2
#     Edge 34, Type (0, 0), BuildingBlock: ZUJKAS_clean_linker_0, # of connection points: 2
#     Edge 35, Type (0, 0), BuildingBlock: ZUJKAS_clean_linker_0, # of connection points: 2
#     Edge 36, Type (0, 0), BuildingBlock: ZUJKAS_clean_linker_0, # of connection points: 2
#     Edge 37, Type (0, 0), BuildingBlock: ZUJKAS_clean_linker_0, # of connection points: 2
#     Edge 38, Type (0, 0), BuildingBlock: ZUJKAS_clean_linker_0, # of connection points: 2
#     Edge 39, Type (0, 0), BuildingBlock: ZUJKAS_clean_linker_0, # of connection points: 2
#     Edge 40, Type (0, 0), BuildingBlock: ZUJKAS_clean_linker_0, # of connection points: 2
#     Edge 41, Type (0, 0), BuildingBlock: ZUJKAS_clean_linker_0, # of connection points: 2
#     Edge 42, Type (0, 0), BuildingBlock: ZUJKAS_clean_linker_0, # of connection points: 2
#     Edge 43, Type (0, 0), BuildingBlock: ZUJKAS_clean_linker_0, # of connection points: 2
#     Edge 44, Type (0, 0), BuildingBlock: ZUJKAS_clean_linker_0, # of connection points: 2
#     Edge 45, Type (0, 0), BuildingBlock: ZUJKAS_clean_linker_0, # of connection points: 2
#     Edge 46, Type (0, 0), BuildingBlock: ZUJKAS_clean_linker_0, # of connection points: 2
#     Edge 47, Type (0, 0), BuildingBlock: ZUJKAS_clean_linker_0, # of connection points: 2
#     Edge 48, Type (0, 0), BuildingBlock: ZUJKAS_clean_linker_0, # of connection points: 2
#     Edge 49, Type (0, 0), BuildingBlock: ZUJKAS_clean_linker_0, # of connection points: 2
#     Edge 50, Type (0, 0), BuildingBlock: ZUJKAS_clean_linker_0, # of connection points: 2
#     Edge 51, Type (0, 0), BuildingBlock: ZUJKAS_clean_linker_0, # of connection points: 2
#     Edge 52, Type (0, 0), BuildingBlock: ZUJKAS_clean_linker_0, # of connection points: 2
#     Edge 53, Type (0, 0), BuildingBlock: ZUJKAS_clean_linker_0, # of connection points: 2
#     Edge 54, Type (0, 0), BuildingBlock: ZUJKAS_clean_linker_0, # of connection points: 2
#     Edge 55, Type (0, 0), BuildingBlock: ZUJKAS_clean_linker_0, # of connection points: 2
# Relax obj value: 0.204
# Max RMSD: 0.235
# Mean RMSD: 0.222
data_MOF--net-zfl--node1-BEQFEK_clean_sbu_0--edge1-ZUJKAS_clean_linker_0
_symmetry_space_group_name_H-M    P1
_symmetry_Int_Tables_number       1
_symmetry_cell_setting            triclinic
loop_
_symmetry_equiv_pos_as_xyz
'x, y, z'
_cell_length_a     35.044096
_cell_length_b     35.038299
_cell_length_c     93.838415
_cell_angle_alpha  90.00556
_cell_angle_beta   89.993154
_cell_angle_gamma 90.037509
loop_
_atom_site_label
_atom_site_type_symbol
_atom_site_fract_x
_atom_site_fract_y
_atom_site_fract_z
_atom_type_partial_charge
Co0 Co 0.56077 0.03577 0.1552 0.0
Co1 Co 0.57194 0.03828 0.12166 0.0
C2 C 0.5004 0.06634 0.13538 0.0
O3 O 0.51251 0.05818 0.14781 0.0
O4 O 0.52054 0.05985 0.12436 0.0
C5 C 0.52074 0.01628 0.18086 0.0
O6 O 0.49187 0.0137 0.17198 0.0
C7 C 0.5559 0.02732 0.09098 0.0
C8 C 0.61387 0.02815 0.08176 0.0
C9 C 0.57567 0.02446 0.07816 0.0
N10 N 0.58128 0.03259 0.10159 0.0
N11 N 0.61585 0.03324 0.09597 0.0
C12 C 0.51402 0.02196 0.09336 0.0
H13 H 0.49968 0.05015 0.09286 0.0
H14 H 0.5088 0.00949 0.10405 0.0
H15 H 0.5015 0.00307 0.0851 0.0
C16 C 0.57965 0.95448 0.14997 0.0
N17 N 0.57349 0.99029 0.1453 0.0
N18 N 0.5773 0.99107 0.13134 0.0
C19 C 0.58555 0.95566 0.12667 0.0
C20 C 0.58758 0.93133 0.13834 0.0
C21 C 0.57914 0.94307 0.16534 0.0
H22 H 0.59437 0.96476 0.1718 0.0
H23 H 0.54913 0.94174 0.16908 0.0
H24 H 0.59277 0.91484 0.16698 0.0
O25 O 0.60196 0.07432 0.15278 0.0
O26 O 0.60922 0.0759 0.12923 0.0
H27 H 0.61522 0.95712 0.10679 0.0
H28 H 0.58848 0.91366 0.10967 0.0
C29 C 0.58854 0.945 0.11126 0.0
H30 H 0.56411 0.95726 0.10534 0.0
H31 H 0.64084 0.03682 0.10186 0.0
O32 O 0.55348 0.02526 0.17601 0.0
C33 C 0.61812 0.08768 0.14166 0.0
Co34 Co 0.45736 0.56249 0.65633 0.0
Co35 Co 0.45551 0.57124 0.62277 0.0
C36 C 0.4281 0.5002 0.63724 0.0
O37 O 0.43603 0.51306 0.64959 0.0
O38 O 0.4345 0.51986 0.62609 0.0
C39 C 0.48191 0.52786 0.68246 0.0
O40 O 0.49327 0.50071 0.67378 0.0
C41 C 0.46953 0.55176 0.59263 0.0
C42 C 0.45932 0.60692 0.58188 0.0
C43 C 0.46865 0.56912 0.57931 0.0
N44 N 0.46137 0.57822 0.60259 0.0
N45 N 0.45542 0.61113 0.59608 0.0
C46 C 0.47432 0.51023 0.59591 0.0
H47 H 0.49037 0.50672 0.60602 0.0
H48 H 0.48893 0.49468 0.58722 0.0
H49 H 0.4457 0.4973 0.59739 0.0
C50 C 0.53871 0.5827 0.65115 0.0
N51 N 0.50305 0.57541 0.64651 0.0
N52 N 0.50239 0.57826 0.63252 0.0
C53 C 0.53766 0.58694 0.6278 0.0
C54 C 0.56183 0.59022 0.63947 0.0
C55 C 0.5502 0.58369 0.6665 0.0
H56 H 0.52737 0.59712 0.67296 0.0
H57 H 0.55449 0.55407 0.67034 0.0
H58 H 0.57716 0.59984 0.66799 0.0
O59 O 0.41836 0.60272 0.65324 0.0
O60 O 0.41738 0.60884 0.62965 0.0
H61 H 0.53331 0.6135 0.60736 0.0
H62 H 0.57943 0.59224 0.61076 0.0
C63 C 0.54828 0.58906 0.61236 0.0
H64 H 0.53888 0.56261 0.60693 0.0
H65 H 0.44809 0.63635 0.60132 0.0
O66 O 0.46617 0.55748 0.67727 0.0
C67 C 0.4052 0.61822 0.64197 0.0
Co68 Co 0.934 0.45727 0.15466 0.0
Co69 Co 0.92056 0.45529 0.12123 0.0
C70 C 0.99226 0.42511 0.13459 0.0
O71 O 0.98137 0.43358 0.14714 0.0
O72 O 0.97144 0.43218 0.1238 0.0
C73 C 0.97406 0.46898 0.18117 0.0
O74 O 0.00411 0.46328 0.17308 0.0
C75 C 0.93872 0.47046 0.0912 0.0
C76 C 0.88319 0.46178 0.08057 0.0
C77 C 0.92106 0.4709 0.07793 0.0
N78 N 0.91258 0.46131 0.10114 0.0
N79 N 0.87946 0.45602 0.0947 0.0
C80 C 0.97909 0.48084 0.09464 0.0
H81 H 0.98097 0.49239 0.10564 0.0
H82 H 0.99022 0.50221 0.08696 0.0
H83 H 0.99707 0.45484 0.09404 0.0
C84 C 0.91832 0.53927 0.14956 0.0
N85 N 0.9227 0.50326 0.14482 0.0
N86 N 0.91654 0.50246 0.13098 0.0
C87 C 0.90755 0.53785 0.12651 0.0
C88 C 0.90837 0.5624 0.13813 0.0
C89 C 0.92594 0.55131 0.16461 0.0
H90 H 0.90408 0.53851 0.17171 0.0
H91 H 0.95423 0.5404 0.16796 0.0
H92 H 0.92574 0.58277 0.16585 0.0
O93 O 0.89139 0.41987 0.15221 0.0
O94 O 0.88228 0.41901 0.12874 0.0
H95 H 0.87518 0.52631 0.10766 0.0
H96 H 0.88365 0.57634 0.11075 0.0
C97 C 0.89632 0.54742 0.11154 0.0
H98 H 0.92185 0.54587 0.10457 0.0
H99 H 0.85429 0.44857 0.09996 0.0
O100 O 0.94099 0.4677 0.17555 0.0
C101 C 0.87392 0.40731 0.14122 0.0
Co102 Co 0.0351 0.93356 0.65481 0.0
Co103 Co 0.03831 0.92143 0.6213 0.0
C104 C 0.06755 0.99291 0.63539 0.0
O105 O 0.05849 0.98165 0.64784 0.0
O106 O 0.06114 0.97231 0.62448 0.0
C107 C 0.0207 0.97135 0.68163 0.0
O108 O 0.0228 0.00222 0.67373 0.0
C109 C 0.02211 0.93779 0.59085 0.0
C110 C 0.04295 0.885 0.58064 0.0
C111 C 0.02755 0.92053 0.57762 0.0
N112 N 0.0338 0.91349 0.6011 0.0
N113 N 0.04594 0.88192 0.59489 0.0
C114 C 0.00842 0.97751 0.59373 0.0
H115 H 0.01506 0.9863 0.60478 0.0
H116 H 0.97699 0.97855 0.59241 0.0
H117 H 0.02145 0.99782 0.58606 0.0
C118 C 0.9534 0.91722 0.64919 0.0
N119 N 0.98953 0.92213 0.64465 0.0
N120 N 0.99096 0.91606 0.63081 0.0
C121 C 0.95597 0.90621 0.62616 0.0
C122 C 0.9309 0.9067 0.63763 0.0
C123 C 0.94063 0.92512 0.66413 0.0
H124 H 0.95232 0.90289 0.67132 0.0
H125 H 0.95209 0.9531 0.6676 0.0
H126 H 0.90913 0.92584 0.6651 0.0
O127 O 0.07323 0.8917 0.65224 0.0
O128 O 0.07469 0.88349 0.62874 0.0
H129 H 0.97045 0.87566 0.60712 0.0
H130 H 0.91988 0.8786 0.6105 0.0
C131 C 0.94733 0.89428 0.61118 0.0
H132 H 0.94579 0.91999 0.60432 0.0
H133 H 0.05717 0.85858 0.60037 0.0
O134 O 0.02467 0.93885 0.67573 0.0
C135 C 0.08625 0.87484 0.6412 0.0
Co136 Co 0.56353 0.46071 0.86038 0.0
Co137 Co 0.56985 0.46057 0.894 0.0
C138 C 0.50039 0.43127 0.8792 0.0
O139 O 0.51418 0.43888 0.86697 0.0
O140 O 0.51896 0.43852 0.89054 0.0
C141 C 0.52972 0.48515 0.83417 0.0
O142 O 0.50302 0.49758 0.84284 0.0
C143 C 0.54977 0.47404 0.92415 0.0
C144 C 0.60613 0.47079 0.9346 0.0
C145 C 0.56765 0.47633 0.93738 0.0
N146 N 0.57646 0.4673 0.91414 0.0
N147 N 0.61005 0.46526 0.92048 0.0
C148 C 0.50862 0.48108 0.9208 0.0
H149 H 0.50557 0.49209 0.90977 0.0
H150 H 0.49606 0.50186 0.92839 0.0
H151 H 0.4927 0.45378 0.92159 0.0
C152 C 0.58384 0.54219 0.86512 0.0
N153 N 0.57541 0.50698 0.86998 0.0
N154 N 0.57672 0.50719 0.88401 0.0
C155 C 0.58523 0.54269 0.88852 0.0
C156 C 0.5903 0.56602 0.8767 0.0
C157 C 0.58788 0.55223 0.8497 0.0
H158 H 0.60086 0.52811 0.84379 0.0
H159 H 0.55922 0.55796 0.84517 0.0
H160 H 0.60585 0.57804 0.84827 0.0
O161 O 0.6041 0.42241 0.86395 0.0
O162 O 0.6083 0.42262 0.88759 0.0
H163 H 0.612 0.54232 0.90898 0.0
H164 H 0.58607 0.58575 0.90518 0.0
C165 C 0.58611 0.55432 0.90387 0.0
H166 H 0.56077 0.54264 0.9094 0.0
H167 H 0.63568 0.46025 0.91515 0.0
O168 O 0.55892 0.46873 0.83939 0.0
C169 C 0.61884 0.40998 0.87547 0.0
Co170 Co 0.03349 0.5658 0.3588 0.0
Co171 Co 0.0363 0.57159 0.39253 0.0
C172 C 0.06301 0.50196 0.3774 0.0
O173 O 0.0561 0.51673 0.36527 0.0
O174 O 0.05569 0.51971 0.38891 0.0
C175 C 0.04672 0.54821 0.32938 0.0
O176 O 0.0811 0.5404 0.33413 0.0
C177 C 0.03184 0.55483 0.42357 0.0
C178 C 0.02299 0.61255 0.43243 0.0
C179 C 0.02638 0.57453 0.43629 0.0
N180 N 0.03106 0.58008 0.41273 0.0
N181 N 0.02595 0.61451 0.41815 0.0
C182 C 0.041 0.51341 0.4217 0.0
H183 H 0.06789 0.51069 0.41556 0.0
H184 H 0.01795 0.49949 0.41547 0.0
H185 H 0.04483 0.49852 0.43201 0.0
C186 C 0.95297 0.58586 0.36446 0.0
N187 N 0.9885 0.57795 0.36903 0.0
N188 N 0.98914 0.57908 0.38305 0.0
C189 C 0.95375 0.58676 0.38787 0.0
C190 C 0.9297 0.59175 0.37624 0.0
C191 C 0.94223 0.58927 0.34908 0.0
H192 H 0.96461 0.60539 0.34327 0.0
H193 H 0.94041 0.56031 0.34434 0.0
H194 H 0.91447 0.60403 0.34772 0.0
O195 O 0.07229 0.60611 0.36163 0.0
O196 O 0.07497 0.60869 0.3853 0.0
H197 H 0.94993 0.61392 0.40819 0.0
H198 H 0.91158 0.58094 0.4046 0.0
C199 C 0.94261 0.58609 0.40327 0.0
H200 H 0.95844 0.56327 0.40891 0.0
H201 H 0.0244 0.63939 0.41207 0.0
O202 O 0.02167 0.56022 0.3381 0.0
C203 C 0.08644 0.61974 0.37306 0.0
Co204 Co 0.9292 0.03899 0.85905 0.0
Co205 Co 0.92518 0.03813 0.89283 0.0
C206 C 0.99414 0.06638 0.87779 0.0
O207 O 0.9787 0.06078 0.86566 0.0
O208 O 0.97691 0.05792 0.8893 0.0
C209 C 0.96352 0.01479 0.83299 0.0
O210 O 0.99044 0.0037 0.84181 0.0
C211 C 0.94215 0.0319 0.92381 0.0
C212 C 0.88489 0.01962 0.93254 0.0
C213 C 0.92269 0.02457 0.93646 0.0
N214 N 0.91703 0.03068 0.91295 0.0
N215 N 0.88286 0.0235 0.91828 0.0
C216 C 0.98304 0.04334 0.9221 0.0
H217 H 0.98444 0.07052 0.91608 0.0
H218 H 0.99826 0.02123 0.91583 0.0
H219 H 0.99752 0.04762 0.93247 0.0
C220 C 0.90872 0.9576 0.86371 0.0
N221 N 0.91723 0.99272 0.86863 0.0
N222 N 0.91753 0.99196 0.88266 0.0
C223 C 0.91067 0.95604 0.88709 0.0
C224 C 0.90432 0.93311 0.87524 0.0
C225 C 0.90303 0.94825 0.8483 0.0
H226 H 0.88978 0.97276 0.84271 0.0
H227 H 0.93115 0.94237 0.84333 0.0
H228 H 0.8846 0.92271 0.84699 0.0
O229 O 0.88913 0.07737 0.86277 0.0
O230 O 0.88772 0.07746 0.88647 0.0
H231 H 0.88623 0.94833 0.90776 0.0
H232 H 0.92094 0.91256 0.90302 0.0
C233 C 0.91383 0.94334 0.90229 0.0
H234 H 0.93638 0.95984 0.90782 0.0
H235 H 0.8581 0.02124 0.91216 0.0
O236 O 0.93377 0.03062 0.83804 0.0
C237 C 0.87604 0.09022 0.8745 0.0
Co238 Co 0.45774 0.93342 0.35924 0.0
Co239 Co 0.45412 0.9248 0.39283 0.0
C240 C 0.42503 0.99461 0.37781 0.0
O241 O 0.43335 0.98148 0.36554 0.0
O242 O 0.43219 0.97588 0.38912 0.0
C243 C 0.44349 0.94486 0.3294 0.0
O244 O 0.40793 0.94729 0.33375 0.0
C245 C 0.47054 0.94253 0.42319 0.0
C246 C 0.4477 0.89109 0.43378 0.0
C247 C 0.46438 0.92622 0.43653 0.0
N248 N 0.45806 0.91807 0.41311 0.0
N249 N 0.44471 0.88731 0.41956 0.0
C250 C 0.48552 0.98165 0.42005 0.0
H251 H 0.47934 0.98999 0.40891 0.0
H252 H 0.51692 0.98189 0.4215 0.0
H253 H 0.47295 0.00272 0.42753 0.0
C254 C 0.53909 0.91746 0.36515 0.0
N255 N 0.50308 0.92319 0.36965 0.0
N256 N 0.50162 0.91839 0.38355 0.0
C257 C 0.53654 0.9086 0.38831 0.0
C258 C 0.5615 0.90771 0.37681 0.0
C259 C 0.55185 0.92346 0.35008 0.0
H260 H 0.54147 0.89945 0.34341 0.0
H261 H 0.53922 0.95021 0.34589 0.0
H262 H 0.58334 0.9254 0.34923 0.0
O263 O 0.42015 0.89139 0.36195 0.0
O264 O 0.41742 0.88642 0.38556 0.0
H265 H 0.52173 0.88008 0.40775 0.0
H266 H 0.57232 0.8817 0.40421 0.0
C267 C 0.54518 0.89783 0.4034 0.0
H268 H 0.54744 0.9241 0.40993 0.0
H269 H 0.4327 0.86406 0.41425 0.0
O270 O 0.46956 0.93848 0.33852 0.0
C271 C 0.40652 0.87606 0.37319 0.0
Co272 Co 0.43052 0.96278 0.90533 0.0
Co273 Co 0.41672 0.95946 0.87196 0.0
C274 C 0.48936 0.93169 0.88507 0.0
O275 O 0.47838 0.94054 0.89758 0.0
O276 O 0.46832 0.93786 0.87426 0.0
C277 C 0.46027 0.95207 0.93345 0.0
O278 O 0.47525 0.92172 0.92743 0.0
C279 C 0.43108 0.97333 0.84141 0.0
C280 C 0.37395 0.96443 0.83207 0.0
C281 C 0.4113 0.97357 0.82852 0.0
N282 N 0.40652 0.96441 0.85194 0.0
N283 N 0.37248 0.95894 0.84626 0.0
C284 C 0.47179 0.9842 0.84402 0.0
H285 H 0.47559 0.99421 0.85515 0.0
H286 H 0.48092 0.00698 0.83654 0.0
H287 H 0.49019 0.9588 0.8424 0.0
C288 C 0.41011 0.04355 0.90015 0.0
N289 N 0.41673 0.00788 0.89544 0.0
N290 N 0.41138 0.00678 0.88155 0.0
C291 C 0.40123 0.04179 0.87699 0.0
C292 C 0.39992 0.06624 0.88864 0.0
C293 C 0.41212 0.05502 0.9155 0.0
H294 H 0.39577 0.03432 0.92204 0.0
H295 H 0.44229 0.05412 0.91908 0.0
H296 H 0.40045 0.08407 0.91725 0.0
O297 O 0.38939 0.924 0.90344 0.0
O298 O 0.38008 0.92206 0.87999 0.0
H299 H 0.37022 0.0358 0.85749 0.0
H300 H 0.3904 0.08283 0.86006 0.0
C301 C 0.39512 0.05187 0.86165 0.0
H302 H 0.42053 0.04337 0.8554 0.0
H303 H 0.34816 0.9517 0.85209 0.0
O304 O 0.43927 0.97396 0.92599 0.0
C305 C 0.37228 0.91049 0.89254 0.0
Co306 Co 0.52936 0.42969 0.40649 0.0
Co307 Co 0.53489 0.41354 0.37336 0.0
C308 C 0.56435 0.48617 0.38669 0.0
O309 O 0.55392 0.4766 0.39918 0.0
O310 O 0.55847 0.46439 0.37605 0.0
C311 C 0.5421 0.43635 0.43673 0.0
O312 O 0.57696 0.4261 0.4333 0.0
C313 C 0.51651 0.42738 0.34305 0.0
C314 C 0.53839 0.37495 0.33288 0.0
C315 C 0.52069 0.40942 0.32988 0.0
N316 N 0.53081 0.40439 0.35324 0.0
N317 N 0.54379 0.3731 0.34707 0.0
C318 C 0.50119 0.46651 0.34593 0.0
H319 H 0.51051 0.47691 0.35651 0.0
H320 H 0.46957 0.46554 0.34594 0.0
H321 H 0.51062 0.48671 0.33752 0.0
C322 C 0.44796 0.4134 0.40038 0.0
N323 N 0.48436 0.41793 0.3961 0.0
N324 N 0.48688 0.40951 0.38246 0.0
C325 C 0.45244 0.39804 0.37774 0.0
C326 C 0.42648 0.40036 0.3889 0.0
C327 C 0.43406 0.42324 0.41501 0.0
H328 H 0.44809 0.4498 0.41873 0.0
H329 H 0.4027 0.42745 0.41522 0.0
H330 H 0.44181 0.3999 0.42246 0.0
O331 O 0.56689 0.38683 0.40498 0.0
O332 O 0.57002 0.37575 0.38166 0.0
H333 H 0.47014 0.36413 0.35988 0.0
H334 H 0.41946 0.3635 0.3631 0.0
C335 C 0.44541 0.38165 0.36324 0.0
H336 H 0.44165 0.40521 0.35549 0.0
H337 H 0.55666 0.3506 0.35253 0.0
O338 O 0.51703 0.43895 0.42697 0.0
C339 C 0.58043 0.36843 0.39438 0.0
Co340 Co 0.06879 0.53162 0.9058 0.0
Co341 Co 0.08445 0.53477 0.87252 0.0
C342 C 0.01181 0.56453 0.88562 0.0
O343 O 0.02141 0.55473 0.89818 0.0
O344 O 0.03362 0.55828 0.87503 0.0
C345 C 0.04045 0.54408 0.93394 0.0
O346 O 0.02587 0.57437 0.92774 0.0
C347 C 0.07032 0.51533 0.84225 0.0
C348 C 0.12324 0.53595 0.83206 0.0
C349 C 0.0884 0.51892 0.82908 0.0
N350 N 0.09358 0.52938 0.85242 0.0
N351 N 0.12518 0.54155 0.84623 0.0
C352 C 0.03085 0.50089 0.84513 0.0
H353 H 0.02075 0.51016 0.85575 0.0
H354 H 0.031 0.46925 0.84502 0.0
H355 H 0.01085 0.51101 0.83677 0.0
C356 C 0.08592 0.44996 0.90053 0.0
N357 N 0.0812 0.48603 0.8959 0.0
N358 N 0.08882 0.48749 0.88217 0.0
C359 C 0.09964 0.4526 0.87771 0.0
C360 C 0.09795 0.42756 0.88916 0.0
C361 C 0.07712 0.43722 0.9154 0.0
H362 H 0.10056 0.44637 0.92258 0.0
H363 H 0.0504 0.45094 0.91911 0.0
H364 H 0.07381 0.40579 0.91607 0.0
O365 O 0.11071 0.56992 0.90373 0.0
O366 O 0.12186 0.57118 0.88039 0.0
H367 H 0.13248 0.46789 0.85928 0.0
H368 H 0.13123 0.41737 0.86287 0.0
C369 C 0.11427 0.44409 0.86306 0.0
H370 H 0.08981 0.44098 0.85566 0.0
H371 H 0.1479 0.55415 0.85166 0.0
O372 O 0.06078 0.52136 0.92657 0.0
C373 C 0.12887 0.58292 0.89298 0.0
Co374 Co 0.95821 0.06378 0.40488 0.0
Co375 Co 0.95286 0.07921 0.37166 0.0
C376 C 0.92718 0.00536 0.38456 0.0
O377 O 0.93526 0.01651 0.39711 0.0
O378 O 0.93349 0.02647 0.37377 0.0
C379 C 0.97329 0.02191 0.43063 0.0
O380 O 0.97128 0.99265 0.42191 0.0
C381 C 0.97038 0.06583 0.34147 0.0
C382 C 0.9514 0.11943 0.33135 0.0
C383 C 0.96738 0.0841 0.32834 0.0
N384 N 0.95671 0.08921 0.35163 0.0
N385 N 0.94526 0.12114 0.3455 0.0
C386 C 0.9881 0.02793 0.34464 0.0
H387 H 0.99794 0.02688 0.35588 0.0
H388 H 0.01248 0.0224 0.33738 0.0
H389 H 0.96644 0.00519 0.34311 0.0
C390 C 0.03898 0.08389 0.39904 0.0
N391 N 0.00286 0.07798 0.39467 0.0
N392 N 0.00033 0.086 0.381 0.0
C393 C 0.03453 0.0983 0.37631 0.0
C394 C 0.06029 0.09723 0.38756 0.0
C395 C 0.05293 0.07448 0.4137 0.0
H396 H 0.04241 0.09637 0.42129 0.0
H397 H 0.04127 0.04646 0.41703 0.0
H398 H 0.08449 0.07315 0.41422 0.0
O399 O 0.91896 0.10465 0.40334 0.0
O400 O 0.91449 0.11416 0.37995 0.0
H401 H 0.01714 0.13095 0.35812 0.0
H402 H 0.06788 0.13099 0.36118 0.0
C403 C 0.04163 0.11331 0.36161 0.0
H404 H 0.04471 0.089 0.35413 0.0
H405 H 0.93337 0.1442 0.351 0.0
O406 O 0.96933 0.05546 0.42562 0.0
C407 C 0.90391 0.12146 0.39266 0.0
Co408 Co 0.42384 0.53025 0.11001 0.0
Co409 Co 0.4152 0.53209 0.14368 0.0
C410 C 0.48473 0.56259 0.12906 0.0
O411 O 0.4721 0.55369 0.11678 0.0
O412 O 0.46559 0.55551 0.14028 0.0
C413 C 0.43983 0.54636 0.0808 0.0
O414 O 0.44332 0.58121 0.08582 0.0
C415 C 0.43109 0.51765 0.17452 0.0
C416 C 0.37319 0.52333 0.18356 0.0
C417 C 0.41064 0.51538 0.18723 0.0
N418 N 0.4066 0.52589 0.16385 0.0
N419 N 0.37212 0.52941 0.16941 0.0
C420 C 0.47329 0.51331 0.17262 0.0
H421 H 0.47998 0.48297 0.17035 0.0
H422 H 0.48878 0.52214 0.18239 0.0
H423 H 0.48355 0.53063 0.16357 0.0
C424 C 0.40431 0.44938 0.1151 0.0
N425 N 0.41231 0.48466 0.11993 0.0
N426 N 0.40969 0.48498 0.13392 0.0
C427 C 0.4004 0.4497 0.13847 0.0
C428 C 0.39637 0.42601 0.12668 0.0
C429 C 0.402 0.43919 0.09964 0.0
H430 H 0.38573 0.46147 0.09385 0.0
H431 H 0.43125 0.43832 0.09511 0.0
H432 H 0.38795 0.41116 0.09798 0.0
O433 O 0.38226 0.56788 0.11282 0.0
O434 O 0.37657 0.56874 0.13645 0.0
H435 H 0.37139 0.45175 0.15849 0.0
H436 H 0.3962 0.4073 0.15529 0.0
C437 C 0.39738 0.43866 0.15384 0.0
H438 H 0.42249 0.44968 0.15969 0.0
H439 H 0.34773 0.5358 0.16349 0.0
O440 O 0.43072 0.51961 0.08931 0.0
C441 C 0.36659 0.58056 0.12415 0.0
Co442 Co 0.96498 0.42809 0.60883 0.0
Co443 Co 0.96339 0.41977 0.64256 0.0
C444 C 0.93359 0.48944 0.6281 0.0
O445 O 0.94188 0.47639 0.61582 0.0
O446 O 0.9409 0.47053 0.63934 0.0
C447 C 0.99022 0.46598 0.58375 0.0
O448 O 0.00145 0.49101 0.5933 0.0
C449 C 0.9774 0.43475 0.67353 0.0
C450 C 0.97254 0.37639 0.68223 0.0
C451 C 0.97995 0.41381 0.68612 0.0
N452 N 0.96955 0.41058 0.66272 0.0
N453 N 0.96648 0.37582 0.66807 0.0
C454 C 0.98107 0.47711 0.67189 0.0
H455 H 0.01102 0.4843 0.66916 0.0
H456 H 0.97318 0.49203 0.68189 0.0
H457 H 0.96255 0.48755 0.66321 0.0
C458 C 0.04585 0.40672 0.61395 0.0
N459 N 0.01069 0.41577 0.61868 0.0
N460 N 0.01028 0.41368 0.6327 0.0
C461 C 0.04534 0.40398 0.63733 0.0
C462 C 0.06896 0.39885 0.6256 0.0
C463 C 0.05632 0.40318 0.59855 0.0
H464 H 0.03211 0.39094 0.59246 0.0
H465 H 0.06267 0.43196 0.59422 0.0
H466 H 0.08183 0.38483 0.59711 0.0
O467 O 0.92684 0.38695 0.61171 0.0
O468 O 0.92588 0.38185 0.63535 0.0
H469 H 0.04388 0.37562 0.65749 0.0
H470 H 0.0877 0.40143 0.6542 0.0
C471 C 0.05633 0.40178 0.65272 0.0
H472 H 0.04476 0.42685 0.65845 0.0
H473 H 0.96047 0.35158 0.66201 0.0
O474 O 0.9742 0.43539 0.58797 0.0
C475 C 0.91386 0.37177 0.62308 0.0
Co476 Co 0.06577 0.95924 0.1092 0.0
Co477 Co 0.07529 0.95995 0.14278 0.0
C478 C 0.0045 0.9305 0.12923 0.0
O479 O 0.01773 0.93691 0.11681 0.0
O480 O 0.02347 0.93901 0.14035 0.0
C481 C 0.02714 0.9824 0.08389 0.0
O482 O 0.00139 0.99303 0.09327 0.0
C483 C 0.06032 0.97548 0.17326 0.0
C484 C 0.11807 0.97054 0.18248 0.0
C485 C 0.08039 0.97792 0.18605 0.0
N486 N 0.08505 0.96699 0.16274 0.0
N487 N 0.11948 0.96388 0.16836 0.0
C488 C 0.01905 0.98412 0.17075 0.0
H489 H 0.0145 0.99359 0.15959 0.0
H490 H 0.00891 0.00661 0.17816 0.0
H491 H 0.00202 0.95785 0.17255 0.0
C492 C 0.08789 0.04029 0.11335 0.0
N493 N 0.07908 0.00549 0.1185 0.0
N494 N 0.08195 0.00608 0.13249 0.0
C495 C 0.09198 0.04145 0.1367 0.0
C496 C 0.0964 0.06425 0.1247 0.0
C497 C 0.09035 0.04968 0.09782 0.0
H498 H 0.10271 0.02527 0.09189 0.0
H499 H 0.06123 0.05511 0.09366 0.0
H500 H 0.10815 0.07541 0.09597 0.0
O501 O 0.10656 0.92104 0.11209 0.0
O502 O 0.11194 0.92092 0.13572 0.0
H503 H 0.12108 0.0408 0.15672 0.0
H504 H 0.09615 0.08495 0.15314 0.0
C505 C 0.09503 0.0535 0.15197 0.0
H506 H 0.06997 0.04286 0.15795 0.0
H507 H 0.144 0.95754 0.16252 0.0
O508 O 0.05798 0.96736 0.08832 0.0
C509 C 0.12163 0.90824 0.1235 0.0
Co510 Co 0.53415 0.07107 0.60901 0.0
Co511 Co 0.53378 0.07987 0.64266 0.0
C512 C 0.56318 0.0095 0.62884 0.0
O513 O 0.55688 0.02312 0.61648 0.0
O514 O 0.55456 0.02807 0.64004 0.0
C515 C 0.5156 0.03137 0.58334 0.0
O516 O 0.50987 0.00342 0.59243 0.0
C517 C 0.51839 0.06387 0.67308 0.0
C518 C 0.52486 0.12105 0.68266 0.0
C519 C 0.51684 0.08333 0.68603 0.0
N520 N 0.52702 0.08898 0.66269 0.0
N521 N 0.53099 0.12306 0.66852 0.0
C522 C 0.50901 0.02287 0.67029 0.0
H523 H 0.49942 0.019 0.65911 0.0
H524 H 0.48636 0.01278 0.67765 0.0
H525 H 0.53497 0.00532 0.67195 0.0
C526 C 0.45295 0.09176 0.61338 0.0
N527 N 0.48797 0.08371 0.61846 0.0
N528 N 0.48759 0.08673 0.63245 0.0
C529 C 0.45218 0.09634 0.63673 0.0
C530 C 0.42909 0.10015 0.62477 0.0
C531 C 0.4432 0.09314 0.59786 0.0
H532 H 0.46651 0.10736 0.59188 0.0
H533 H 0.44032 0.06357 0.59377 0.0
H534 H 0.41611 0.10871 0.59598 0.0
O535 O 0.57226 0.112 0.61201 0.0
O536 O 0.57284 0.11665 0.63567 0.0
H537 H 0.45383 0.1251 0.65681 0.0
H538 H 0.40902 0.10124 0.65328 0.0
C539 C 0.4404 0.09944 0.65202 0.0
H540 H 0.45056 0.07406 0.65792 0.0
H541 H 0.53771 0.14773 0.66283 0.0
O542 O 0.52577 0.06386 0.58808 0.0
C543 C 0.58531 0.1267 0.62345 0.0
H544 H 0.45334 0.00409 0.19473 0.0
H545 H 0.44337 0.99164 0.22006 0.0
H546 H 0.5648 0.99735 0.22722 0.0
H547 H 0.575 0.01067 0.20187 0.0
H548 H 0.4685 0.93277 0.23642 0.0
H549 H 0.52518 0.06955 0.25751 0.0
H550 H 0.51485 0.06246 0.23886 0.0
H551 H 0.55816 0.04392 0.24645 0.0
C552 C 0.47798 0.00288 0.20168 0.0
C553 C 0.51498 0.00861 0.19627 0.0
C554 C 0.47221 0.99572 0.21618 0.0
C555 C 0.50325 0.99413 0.22561 0.0
C556 C 0.54031 -0.00065 0.22022 0.0
H557 H 0.51447 0.94742 0.31709 0.0
H558 H 0.52993 0.95795 0.29192 0.0
C559 C 0.54612 0.00675 0.20571 0.0
C560 C 0.49661 0.98607 0.24098 0.0
H561 H 0.50886 0.02226 0.27452 0.0
C562 C 0.47729 0.95239 0.24474 0.0
C563 C 0.50813 0.01163 0.25186 0.0
C564 C 0.52742 0.04909 0.24851 0.0
C565 C 0.4693 0.94352 0.25903 0.0
C566 C 0.48057 0.96918 0.26988 0.0
C567 C 0.50034 0.0026 0.26617 0.0
C568 C 0.47116 0.96233 0.2851 0.0
C569 C 0.44917 0.90655 0.26243 0.0
C570 C 0.43299 0.96166 0.28962 0.0
C571 C 0.42404 0.95577 0.30398 0.0
C572 C 0.45311 0.95047 0.31413 0.0
C573 C 0.49137 0.95125 0.30956 0.0
C574 C 0.50028 0.95733 0.29519 0.0
H575 H 0.45097 0.88593 0.25346 0.0
H576 H 0.46142 0.89309 0.27212 0.0
H577 H 0.41856 0.91245 0.26451 0.0
H578 H 0.41009 0.96609 0.28205 0.0
H579 H 0.3943 0.95551 0.30712 0.0
H580 H 0.57377 0.45422 0.81298 0.0
H581 H 0.56626 0.46231 0.78718 0.0
H582 H 0.46976 0.53613 0.79421 0.0
H583 H 0.47676 0.52804 0.82 0.0
H584 H 0.49163 0.44711 0.77086 0.0
H585 H 0.54824 0.59525 0.76696 0.0
H586 H 0.56088 0.56357 0.7814 0.0
H587 H 0.51455 0.5852 0.78096 0.0
C588 C 0.55103 0.47229 0.80905 0.0
C589 C 0.52587 0.4905 0.81856 0.0
C590 C 0.54676 0.47681 0.79431 0.0
C591 C 0.51764 0.5 0.78884 0.0
C592 C 0.49261 0.51836 0.79826 0.0
H593 H 0.45248 0.57271 0.7037 0.0
H594 H 0.46063 0.56502 0.72944 0.0
C595 C 0.49661 0.51359 0.81299 0.0
C596 C 0.51282 0.50436 0.77324 0.0
H597 H 0.52306 0.56805 0.74597 0.0
C598 C 0.4986 0.47346 0.76537 0.0
C599 C 0.52161 0.5389 0.7662 0.0
C600 C 0.53739 0.5727 0.77423 0.0
C601 C 0.49239 0.47633 0.75061 0.0
C602 C 0.50177 0.51074 0.74348 0.0
C603 C 0.51597 0.54167 0.75141 0.0
C604 C 0.497 0.5153 0.72781 0.0
C605 C 0.47481 0.44283 0.74292 0.0
C606 C 0.5152 0.49032 0.71829 0.0
C607 C 0.51027 0.4944 0.70357 0.0
C608 C 0.48755 0.52399 0.69805 0.0
C609 C 0.47011 0.54957 0.70759 0.0
C610 C 0.47476 0.54522 0.72232 0.0
H611 H 0.4589 0.42394 0.75035 0.0
H612 H 0.45501 0.45244 0.73441 0.0
H613 H 0.49777 0.4256 0.73794 0.0
H614 H 0.53341 0.4677 0.72222 0.0
H615 H 0.52448 0.47447 0.69653 0.0
H616 H 0.91932 0.48975 0.20067 0.0
H617 H 0.92875 0.50587 0.22587 0.0
H618 H 0.04923 0.48375 0.2216 0.0
H619 H 0.04025 0.46824 0.19648 0.0
H620 H 0.95789 0.46239 0.24806 0.0
H621 H 0.04848 0.58978 0.23911 0.0
H622 H 0.02118 0.56775 0.22502 0.0
H623 H 0.06631 0.5479 0.23036 0.0
C624 C 0.94783 0.48839 0.2051 0.0
C625 C 0.97907 0.47795 0.19652 0.0
C626 C 0.95316 0.49762 0.2195 0.0
C627 C 0.98981 0.49675 0.22556 0.0
C628 C 0.02085 0.48559 0.21708 0.0
H629 H 0.09424 0.52489 0.30797 0.0
H630 H 0.07816 0.51315 0.283 0.0
C631 C 0.01559 0.47649 0.20271 0.0
C632 C 0.99573 0.50673 0.2408 0.0
H633 H 0.04694 0.56519 0.26282 0.0
C634 C 0.97703 0.48513 0.2513 0.0
C635 C 0.02068 0.53646 0.24502 0.0
C636 C 0.04003 0.56206 0.23429 0.0
C637 C 0.98366 0.49156 0.26589 0.0
C638 C 0.0093 0.5207 0.27008 0.0
C639 C 0.02744 0.54275 0.25959 0.0
C640 C 0.01859 0.52808 0.28527 0.0
C641 C 0.9642 0.4663 0.2767 0.0
C642 C 0.99052 0.54087 0.29482 0.0
C643 C -0.00036 0.54772 0.30913 0.0
C644 C 0.03705 0.54195 0.31415 0.0
C645 C 0.06514 0.52955 0.3045 0.0
C646 C 0.05602 0.52284 0.2902 0.0
H647 H 0.95189 0.44028 0.27173 0.0
H648 H 0.9845 0.45752 0.28517 0.0
H649 H 0.94064 0.48241 0.28182 0.0
H650 H 0.9616 0.54575 0.29119 0.0
H651 H 0.97733 0.55737 0.31626 0.0
H652 H 0.01217 0.03653 0.69731 0.0
H653 H 0.00151 0.04221 0.72294 0.0
H654 H 0.00263 0.91964 0.72694 0.0
H655 H 0.01288 0.91359 0.7012 0.0
H656 H 0.94297 0.95475 0.74207 0.0
H657 H 0.08203 0.02364 0.75384 0.0
H658 H 0.05474 0.04749 0.74032 0.0
H659 H 0.07229 5e-05 0.73713 0.0
C660 C 0.01019 0.01071 0.70361 0.0
C661 C 0.01366 0.97458 0.69718 0.0
C662 C 0.00428 0.01405 0.71829 0.0
C663 C 0.0019 0.98139 0.7269 0.0
C664 C 0.00461 0.94524 0.72051 0.0
H665 H 0.02169 0.97835 0.81918 0.0
H666 H 0.02959 0.96887 0.79355 0.0
C667 C 0.01055 0.94185 0.7058 0.0
C668 C 0.99642 0.98503 0.74254 0.0
H669 H 0.03665 0.02242 0.77262 0.0
C670 C 0.96349 0.96942 0.74877 0.0
C671 C 0.02345 0.00377 0.7513 0.0
C672 C 0.06031 0.0194 0.74536 0.0
C673 C 0.95653 0.97264 0.76348 0.0
C674 C 0.98296 0.9925 0.77216 0.0
C675 C 0.0162 0.00752 0.76596 0.0
C676 C 0.97716 0.99749 0.78776 0.0
C677 C 0.92127 0.95418 0.76963 0.0
C678 C 0.94513 0.01697 0.79306 0.0
C679 C 0.94043 0.02234 0.80775 0.0
C680 C 0.96788 0.00864 0.81742 0.0
C681 C -3e-05 0.98928 0.81206 0.0
C682 C 0.00457 0.98384 0.79739 0.0
H683 H 0.90971 0.93177 0.76245 0.0
H684 H 0.92734 0.94117 0.78018 0.0
H685 H 0.89886 0.9762 0.77107 0.0
H686 H 0.92401 0.02851 0.78583 0.0
H687 H 0.91549 0.03756 0.8115 0.0
H688 H 0.37064 0.00586 0.80701 0.0
H689 H 0.39163 0.02025 0.78275 0.0
H690 H 0.50334 0.97586 0.79241 0.0
H691 H 0.48232 0.96033 0.81658 0.0
H692 H 0.50223 0.04982 0.77836 0.0
H693 H 0.41375 0.94146 0.75055 0.0
H694 H 0.38805 0.97111 0.76289 0.0
H695 H 0.42406 0.93908 0.7694 0.0
C696 C 0.39968 -0.00097 0.80399 0.0
C697 C 0.42499 0.98269 0.8139 0.0
C698 C 0.41158 0.0072 0.7901 0.0
C699 C 0.44897 -0.00105 0.78576 0.0
C700 C 0.47439 0.98262 0.79557 0.0
H701 H 0.53241 0.01262 0.69782 0.0
H702 H 0.51737 0.99068 0.72192 0.0
C703 C 0.46242 0.97422 0.80948 0.0
C704 C 0.46157 0.00812 0.77105 0.0
H705 H 0.44332 0.9887 0.73601 0.0
C706 C 0.48959 0.03628 0.76909 0.0
C707 C 0.44535 0.99008 0.75899 0.0
C708 C 0.41637 0.95849 0.76049 0.0
C709 C 0.50083 0.04783 0.75538 0.0
C710 C 0.4834 0.03096 0.74332 0.0
C711 C 0.45639 0.00184 0.74527 0.0
C712 C 0.49202 0.044 0.72862 0.0
C713 C 0.53123 0.07806 0.75387 0.0
C714 C 0.48229 0.08107 0.72432 0.0
C715 C 0.49019 0.09347 0.71047 0.0
C716 C 0.50775 0.06898 0.70056 0.0
C717 C 0.5176 0.03184 0.70493 0.0
C718 C 0.50947 0.01937 0.71879 0.0
H719 H 0.54817 0.08132 0.76381 0.0
H720 H 0.5509 0.07119 0.74496 0.0
H721 H 0.51748 0.10587 0.75151 0.0
H722 H 0.46837 0.1004 0.73168 0.0
H723 H 0.48228 0.12226 0.70749 0.0
H724 H 0.5567 0.3928 0.30498 0.0
H725 H 0.5393 0.41269 0.28085 0.0
H726 H 0.4436 0.4755 0.29759 0.0
H727 H 0.45998 0.45486 0.32166 0.0
H728 H 0.46591 0.39909 0.26715 0.0
H729 H 0.50174 0.55332 0.27142 0.0
H730 H 0.521 0.51793 0.28344 0.0
H731 H 0.47265 0.53387 0.28546 0.0
C732 C 0.53204 0.41103 0.30356 0.0
C733 C 0.51039 0.42304 0.31537 0.0
C734 C 0.52221 0.42241 0.28976 0.0
C735 C 0.4906 0.44614 0.28747 0.0
C736 C 0.4687 0.45797 0.29918 0.0
H737 H 0.38356 0.54331 0.21231 0.0
H738 H 0.40302 0.52607 0.23652 0.0
C739 C 0.47838 0.4464 0.31299 0.0
C740 C 0.47958 0.45703 0.27276 0.0
H741 H 0.4713 0.53313 0.25023 0.0
C742 C 0.4672 0.42836 0.26341 0.0
C743 C 0.48111 0.49526 0.26798 0.0
C744 C 0.49508 0.52696 0.27752 0.0
C745 C 0.45566 0.43694 0.24943 0.0
C746 C 0.45756 0.47516 0.24456 0.0
C747 C 0.46994 0.50385 0.25395 0.0
C748 C 0.44643 0.48601 0.22982 0.0
C749 C 0.44055 0.4051 0.24018 0.0
C750 C 0.4646 0.46957 0.21797 0.0
C751 C 0.45328 0.47911 0.20412 0.0
C752 C 0.42412 0.50598 0.20182 0.0
C753 C 0.40625 0.52267 0.21371 0.0
C754 C 0.41742 0.51295 0.22755 0.0
H755 H 0.43066 0.38046 0.24666 0.0
H756 H 0.41649 0.41505 0.23344 0.0
H757 H 0.46368 0.39486 0.23307 0.0
H758 H 0.48742 0.44912 0.21943 0.0
H759 H 0.46678 0.46464 0.19529 0.0
H760 H 0.10559 0.5548 0.80421 0.0
H761 H 0.08511 0.53811 0.78008 0.0
H762 H 0.02043 0.44347 0.79675 0.0
H763 H 0.04158 0.45921 0.82083 0.0
H764 H 0.0972 0.46564 0.76612 0.0
H765 H 0.94339 0.50239 0.77085 0.0
H766 H 0.97903 0.52065 0.78299 0.0
H767 H 0.96249 0.47236 0.78466 0.0
C768 C 0.08683 0.53052 0.80278 0.0
C769 C 0.07446 0.509 0.81457 0.0
C770 C 0.07511 0.5211 0.78897 0.0
C771 C 0.05068 0.49 0.78666 0.0
C772 C 0.03849 0.4682 0.79835 0.0
H773 H 0.95219 0.38574 0.71108 0.0
H774 H 0.96968 0.40426 0.73538 0.0
C775 C 0.05037 0.4775 0.81217 0.0
C776 C 0.03944 0.4794 0.77193 0.0
H777 H 0.96298 0.47225 0.74952 0.0
C778 C 0.06789 0.4672 0.76245 0.0
C779 C 0.00116 0.48127 0.76723 0.0
C780 C 0.96967 0.49513 0.77689 0.0
C781 C 0.05903 0.45622 0.74844 0.0
C782 C 0.02077 0.45847 0.74365 0.0
C783 C 0.99229 0.47063 0.75317 0.0
C784 C 0.00967 0.44798 0.72886 0.0
C785 C 0.09064 0.44133 0.73903 0.0
C786 C 0.02597 0.46666 0.7171 0.0
C787 C 0.01626 0.4559 0.7032 0.0
C788 C 0.98939 0.42678 0.70078 0.0
C789 C 0.97282 0.40842 0.71258 0.0
C790 C 0.98269 0.41905 0.72648 0.0
H791 H 0.11535 0.43114 0.7454 0.0
H792 H 0.08047 0.41753 0.7322 0.0
H793 H 0.10085 0.46468 0.73201 0.0
H794 H 0.04646 0.48943 0.71865 0.0
H795 H 0.03061 0.46977 0.69441 0.0
H796 H 0.01136 0.96 0.1986 0.0
H797 H 0.99005 0.97621 0.22268 0.0
H798 H 0.09773 0.03158 0.23086 0.0
H799 H 0.11903 0.01604 0.20673 0.0
H800 H 0.07407 0.98161 0.2527 0.0
H801 H 0.959 0.08286 0.23746 0.0
H802 H 0.95667 0.03663 0.2292 0.0
H803 H 0.99574 0.06801 0.22517 0.0
C804 C 0.03016 0.97648 0.20536 0.0
C805 C 0.06654 0.98767 0.20057 0.0
C806 C 0.01802 0.98547 0.21919 0.0
C807 C 0.04207 0.00566 0.22849 0.0
C808 C 0.07862 0.01618 0.22383 0.0
H809 H 0.99335 0.12733 0.30633 0.0
H810 H 0.01088 0.10659 0.28232 0.0
C811 C 0.09074 0.00727 0.21003 0.0
C812 C 0.02958 0.01539 0.24318 0.0
H813 H 0.96531 0.0687 0.26197 0.0
C814 C 0.05021 0.00054 0.25475 0.0
C815 C -0.00135 0.04035 0.2458 0.0
C816 C 0.97633 0.05821 0.23378 0.0
C817 C 0.0408 0.01003 0.26887 0.0
C818 C 0.00968 0.03476 0.2715 0.0
C819 C 0.98901 0.04956 0.25993 0.0
C820 C -0.00094 0.04687 0.28614 0.0
C821 C 0.06484 0.99435 0.28085 0.0
C822 C 0.98615 0.02024 0.29623 0.0
C823 C 0.97605 0.03204 0.30999 0.0
C824 C 0.97883 0.0707 0.31393 0.0
C825 C 0.99118 0.09731 0.30369 0.0
C826 C 0.00121 0.08552 0.28996 0.0
H827 H 0.09239 0.98267 0.27694 0.0
H828 H 0.07084 0.01679 0.2889 0.0
H829 H 0.04906 0.97094 0.28621 0.0
H830 H 0.98334 0.99041 0.2934 0.0
H831 H 0.96514 0.01097 0.31735 0.0
H832 H 0.65409 0.12669 0.12027 0.0
H833 H 0.69666 0.18153 0.12247 0.0
H834 H 0.68805 0.17571 0.16824 0.0
H835 H 0.64534 0.12062 0.16621 0.0
H836 H 0.67671 0.25241 0.137 0.0
H837 H 0.80523 0.18152 0.15971 0.0
H838 H 0.7685 0.1553 0.15039 0.0
H839 H 0.76021 0.17189 0.16821 0.0
C840 C 0.66147 0.13671 0.13084 0.0
C841 C 0.64623 0.11915 0.14307 0.0
C842 C 0.68576 0.16815 0.13206 0.0
C843 C 0.69563 0.18248 0.14551 0.0
C844 C 0.6811 0.16475 0.15777 0.0
H845 H 0.84913 0.37267 0.16583 0.0
H846 H 0.80334 0.32011 0.168 0.0
C847 C 0.65662 0.13333 0.15657 0.0
C848 C 0.71984 0.21701 0.14658 0.0
H849 H 0.80847 0.24804 0.15626 0.0
C850 C 0.70547 0.25155 0.14127 0.0
C851 C 0.75713 0.21577 0.15228 0.0
C852 C 0.77398 0.17916 0.15791 0.0
C853 C 0.72763 0.28491 0.14133 0.0
C854 C 0.76549 0.28342 0.14655 0.0
C855 C 0.77947 0.2491 0.15225 0.0
C856 C 0.79174 0.3165 0.1454 0.0
C857 C 0.71021 0.32146 0.13586 0.0
C858 C 0.8005 0.33179 0.13197 0.0
C859 C 0.82644 0.36184 0.13069 0.0
C860 C 0.84457 0.37705 0.14281 0.0
C861 C 0.83561 0.36178 0.15628 0.0
C862 C 0.80952 0.33168 0.15755 0.0
H863 H 0.67857 0.32082 0.13662 0.0
H864 H 0.72093 0.34659 0.14186 0.0
H865 H 0.71784 0.32512 0.12447 0.0
H866 H 0.78784 0.31995 0.12242 0.0
H867 H 0.83278 0.37263 0.12014 0.0
H868 H 0.12083 0.84947 0.66574 0.0
H869 H 0.17574 0.80638 0.66763 0.0
H870 H 0.17684 0.793 0.62197 0.0
H871 H 0.12229 0.83577 0.61991 0.0
H872 H 0.18479 0.72774 0.65659 0.0
H873 H 0.28603 0.83191 0.63286 0.0
H874 H 0.24039 0.84582 0.64014 0.0
H875 H 0.24306 0.82426 0.6228 0.0
C876 C 0.13257 0.83715 0.65611 0.0
C877 C 0.11728 0.84635 0.64267 0.0
C878 C 0.16392 0.81258 0.65722 0.0
C879 C 0.18061 0.79712 0.64492 0.0
C880 C 0.16469 0.8052 0.63156 0.0
H881 H 0.36735 0.65418 0.6203 0.0
H882 H 0.31335 0.69786 0.62217 0.0
C883 C 0.13337 0.82956 0.63043 0.0
C884 C 0.21502 0.77286 0.64589 0.0
H885 H 0.30825 0.76828 0.63553 0.0
C886 C 0.21194 0.73664 0.65214 0.0
C887 C 0.25028 0.78472 0.64006 0.0
C888 C 0.25542 0.82392 0.63368 0.0
C889 C 0.24295 0.71124 0.6522 0.0
C890 C 0.27806 0.72284 0.6461 0.0
C891 C 0.2813 0.75945 0.64017 0.0
C892 C 0.31135 0.6969 0.64521 0.0
C893 C 0.23743 0.67174 0.65826 0.0
C894 C 0.3286 0.68244 0.65757 0.0
C895 C 0.35949 0.65732 0.65655 0.0
C896 C 0.37386 0.64646 0.64314 0.0
C897 C 0.35703 0.66183 0.6308 0.0
C898 C 0.32613 0.68682 0.63184 0.0
H899 H 0.20674 0.66441 0.65944 0.0
H900 H 0.25122 0.64993 0.65139 0.0
H901 H 0.25082 0.6703 0.66897 0.0
H902 H 0.31816 0.69053 0.668 0.0
H903 H 0.37188 0.64623 0.66628 0.0
H904 H 0.84473 0.1255 0.85119 0.0
H905 H 0.80177 0.18049 0.85093 0.0
H906 H 0.80093 0.18184 0.89687 0.0
H907 H 0.84407 0.12711 0.8973 0.0
H908 H 0.72811 0.18894 0.86338 0.0
H909 H 0.83301 0.29138 0.88591 0.0
H910 H 0.84681 0.24567 0.87868 0.0
H911 H 0.82644 0.24868 0.89622 0.0
C912 C 0.83536 0.13737 0.86126 0.0
C913 C 0.84809 0.12198 0.87427 0.0
C914 C 0.81081 0.16881 0.86107 0.0
C915 C 0.79876 0.18558 0.87387 0.0
C916 C 0.81055 0.16975 0.88687 0.0
H917 H 0.65437 0.37441 0.89779 0.0
H918 H 0.69814 0.32026 0.89682 0.0
C919 C 0.83503 0.13829 0.88708 0.0
C920 C 0.7737 0.21959 0.87364 0.0
H921 H 0.76922 0.31318 0.88363 0.0
C922 C 0.7371 0.2162 0.86772 0.0
C923 C 0.78563 0.25504 0.87932 0.0
C924 C 0.82523 0.26068 0.88528 0.0
C925 C 0.71166 0.24713 0.86766 0.0
C926 C 0.7235 0.28254 0.87342 0.0
C927 C 0.76024 0.28599 0.87923 0.0
C928 C 0.69788 0.31615 0.87382 0.0
C929 C 0.67197 0.24134 0.8618 0.0
C930 C 0.68389 0.33232 0.86118 0.0
C931 C 0.65878 0.36328 0.86168 0.0
C932 C 0.64739 0.37881 0.87485 0.0
C933 C 0.6624 0.36316 0.88747 0.0
C934 C 0.68744 0.33218 0.88695 0.0
H935 H 0.66442 0.2106 0.86106 0.0
H936 H 0.65042 0.25593 0.86855 0.0
H937 H 0.67038 0.25368 0.85093 0.0
H938 H 0.69228 0.32087 0.85093 0.0
H939 H 0.64799 0.37473 0.85175 0.0
H940 H 0.11958 0.64966 0.34903 0.0
H941 H 0.17513 0.69189 0.3477 0.0
H942 H 0.18121 0.69478 0.39357 0.0
H943 H 0.12595 0.65249 0.39507 0.0
H944 H 0.18631 0.76624 0.35975 0.0
H945 H 0.2889 0.65995 0.38104 0.0
H946 H 0.24228 0.64685 0.37445 0.0
H947 H 0.24737 0.66706 0.39195 0.0
C948 C 0.13259 0.65937 0.35885 0.0
C949 C 0.11839 0.64743 0.37216 0.0
C950 C 0.16435 0.68349 0.35805 0.0
C951 C 0.18262 0.69585 0.37052 0.0
C952 C 0.16793 0.68491 0.38381 0.0
H953 H 0.37052 0.83807 0.3948 0.0
H954 H 0.31697 0.79384 0.393 0.0
C955 C 0.13617 0.6609 0.38464 0.0
C956 C 0.21704 0.72027 0.3697 0.0
H957 H 0.31112 0.72385 0.37904 0.0
C958 C 0.21372 0.75694 0.36383 0.0
C959 C 0.25271 0.7079 0.37501 0.0
C960 C 0.25828 0.66817 0.38086 0.0
C961 C 0.24488 0.78219 0.36363 0.0
C962 C 0.28039 0.77005 0.3692 0.0
C963 C 0.28385 0.73307 0.37479 0.0
C964 C 0.31381 0.7959 0.37 0.0
C965 C 0.23914 0.82207 0.35795 0.0
C966 C 0.33034 0.81113 0.35761 0.0
C967 C 0.36103 0.83658 0.35858 0.0
C968 C 0.37584 0.84706 0.37197 0.0
C969 C 0.35983 0.83079 0.38431 0.0
C970 C 0.32919 0.80545 0.38332 0.0
H971 H 0.20842 0.82953 0.35707 0.0
H972 H 0.25337 0.8434 0.36491 0.0
H973 H 0.25197 0.82417 0.34717 0.0
H974 H 0.31938 0.8035 0.34721 0.0
H975 H 0.37276 0.84841 0.34886 0.0
H976 H 0.16912 0.62031 0.87232 0.0
H977 H 0.20962 0.67644 0.87508 0.0
H978 H 0.19176 0.6741 0.92051 0.0
H979 H 0.15086 0.61771 0.91792 0.0
H980 H 0.18161 0.74787 0.88919 0.0
H981 H 0.31149 0.68427 0.9139 0.0
H982 H 0.27852 0.65616 0.90345 0.0
H983 H 0.26549 0.6714 0.92102 0.0
C984 C 0.17406 0.63131 0.88295 0.0
C985 C 0.15659 0.61448 0.89491 0.0
C986 C 0.19719 0.66347 0.88448 0.0
C987 C 0.20366 0.67924 0.89798 0.0
C988 C 0.18728 0.66205 0.91001 0.0
H989 H 0.34846 0.87677 0.91743 0.0
H990 H 0.30465 0.82273 0.92005 0.0
C991 C 0.16391 0.62988 0.9085 0.0
C992 C 0.2259 0.71493 0.89923 0.0
H993 H 0.31272 0.75019 0.90911 0.0
C994 C 0.21018 0.74852 0.89363 0.0
C995 C 0.2629 0.71559 0.90518 0.0
C996 C 0.28092 0.68 0.9112 0.0
C997 C 0.23087 0.78279 0.89356 0.0
C998 C 0.2686 0.78315 0.89891 0.0
C999 C 0.28382 0.7498 0.90498 0.0
C1000 C 0.29356 0.81709 0.89747 0.0
C1001 C 0.21208 0.81825 0.88773 0.0
C1002 C 0.30193 0.8317 0.88391 0.0
C1003 C 0.32672 0.8626 0.88237 0.0
C1004 C 0.34407 0.87932 0.89436 0.0
C1005 C 0.3355 0.8647 0.90797 0.0
C1006 C 0.31055 0.83377 0.9095 0.0
H1007 H 0.18049 0.8164 0.88846 0.0
H1008 H 0.22174 0.84418 0.89351 0.0
H1009 H 0.21968 0.82145 0.87632 0.0
H1010 H 0.28986 0.81869 0.87446 0.0
H1011 H 0.33282 0.87286 0.87172 0.0
H1012 H 0.87396 0.14646 0.41807 0.0
H1013 H 0.81736 0.18656 0.42153 0.0
H1014 H 0.80416 0.19639 0.37601 0.0
H1015 H 0.86048 0.15668 0.37239 0.0
H1016 H 0.80182 0.26471 0.40931 0.0
H1017 H 0.70026 0.15205 0.39208 0.0
H1018 H 0.74804 0.14153 0.39816 0.0
H1019 H 0.74038 0.15941 0.38046 0.0
C1020 C 0.85919 0.15737 0.40879 0.0
C1021 C 0.87168 0.14814 0.39494 0.0
C1022 C 0.82688 0.18022 0.4108 0.0
C1023 C 0.80642 0.19385 0.39902 0.0
C1024 C 0.81937 0.18564 0.38523 0.0
H1025 H 0.61552 0.3245 0.37427 0.0
H1026 H 0.66899 0.28106 0.37751 0.0
C1027 C 0.85169 0.16306 0.3832 0.0
C1028 C 0.77121 0.21643 0.40097 0.0
H1029 H 0.67587 0.21527 0.39367 0.0
C1030 C 0.77411 0.25387 0.40612 0.0
C1031 C 0.73527 0.20195 0.39681 0.0
C1032 C 0.73054 0.16141 0.39167 0.0
C1033 C 0.74216 0.27806 0.40647 0.0
C1034 C 0.70639 0.26398 0.40181 0.0
C1035 C 0.70332 0.22598 0.39723 0.0
C1036 C 0.67263 0.28909 0.40033 0.0
C1037 C 0.74736 0.31898 0.4111 0.0
C1038 C 0.65634 0.30743 0.41215 0.0
C1039 C 0.62567 0.33256 0.41034 0.0
C1040 C 0.61068 0.33953 0.39667 0.0
C1041 C 0.62634 0.32 0.38495 0.0
C1042 C 0.65694 0.29507 0.38677 0.0
H1043 H 0.77795 0.32718 0.41168 0.0
H1044 H 0.73259 0.33868 0.40366 0.0
H1045 H 0.7347 0.32286 0.42184 0.0
H1046 H 0.66756 0.30259 0.42275 0.0
H1047 H 0.61418 0.34697 0.41961 0.0
H1048 H 0.15579 0.8703 0.14555 0.0
H1049 H 0.19703 0.81426 0.14418 0.0
H1050 H 0.19049 0.81685 0.09832 0.0
H1051 H 0.14929 0.87309 0.09951 0.0
H1052 H 0.17598 0.74329 0.13072 0.0
H1053 H 0.30648 0.80804 0.10708 0.0
H1054 H 0.27005 0.83621 0.11572 0.0
H1055 H 0.26226 0.81795 0.09808 0.0
C1056 C 0.16342 0.85931 0.13515 0.0
C1057 C 0.14918 0.87625 0.12263 0.0
C1058 C 0.18693 0.82721 0.1344 0.0
C1059 C 0.19694 0.81164 0.12116 0.0
C1060 C 0.18345 0.8288 0.10864 0.0
H1061 H 0.33954 0.61547 0.10001 0.0
H1062 H 0.29568 0.66966 0.0986 0.0
C1063 C 0.15982 0.86087 0.10936 0.0
C1064 C 0.22002 0.77637 0.12054 0.0
H1065 H 0.30659 0.74123 0.11033 0.0
C1066 C 0.20454 0.74276 0.12626 0.0
C1067 C 0.25705 0.77584 0.11459 0.0
C1068 C 0.27522 0.81143 0.10859 0.0
C1069 C 0.22522 0.70851 0.12623 0.0
C1070 C 0.26266 0.70814 0.1206 0.0
C1071 C 0.27786 0.74162 0.11464 0.0
C1072 C 0.28721 0.67382 0.12138 0.0
C1073 C 0.20665 0.67297 0.13211 0.0
C1074 C 0.29692 0.65822 0.13466 0.0
C1075 C 0.32179 0.62722 0.13551 0.0
C1076 C 0.33781 0.6114 0.1231 0.0
C1077 C 0.32766 0.62684 0.10978 0.0
C1078 C 0.30268 0.65786 0.10895 0.0
H1079 H 0.17502 0.67515 0.13191 0.0
H1080 H 0.21532 0.64727 0.12599 0.0
H1081 H 0.21557 0.66904 0.14336 0.0
H1082 H 0.28597 0.67062 0.14441 0.0
H1083 H 0.32911 0.61625 0.14595 0.0
H1084 H 0.62039 0.15479 0.59951 0.0
H1085 H 0.67704 0.19558 0.59838 0.0
H1086 H 0.67988 0.20129 0.64425 0.0
H1087 H 0.62347 0.16049 0.64556 0.0
H1088 H 0.68974 0.27073 0.61028 0.0
H1089 H 0.7871 0.16108 0.63272 0.0
H1090 H 0.74056 0.14954 0.62565 0.0
H1091 H 0.74499 0.1701 0.64312 0.0
C1092 C 0.63288 0.16489 0.60937 0.0
C1093 C 0.61749 0.15409 0.62263 0.0
C1094 C 0.66525 0.18817 0.60869 0.0
C1095 C 0.68294 0.20081 0.62123 0.0
C1096 C 0.66699 0.19119 0.63446 0.0
H1097 H 0.87713 0.33585 0.64503 0.0
H1098 H 0.82177 0.29376 0.64362 0.0
C1099 C 0.6346 0.16804 0.63516 0.0
C1100 C 0.71827 0.22385 0.62055 0.0
H1101 H 0.81218 0.22366 0.63018 0.0
C1102 C 0.71663 0.26043 0.61452 0.0
C1103 C 0.7532 0.21015 0.62607 0.0
C1104 C 0.75685 0.17044 0.63215 0.0
C1105 C 0.74883 0.28429 0.6143 0.0
C1106 C 0.78369 0.27077 0.62001 0.0
C1107 C 0.78542 0.23392 0.62582 0.0
C1108 C 0.8183 0.295 0.62061 0.0
C1109 C 0.74493 0.3242 0.60844 0.0
C1110 C 0.83528 0.3089 0.6081 0.0
C1111 C 0.86696 0.3331 0.60885 0.0
C1112 C 0.88237 0.34362 0.62213 0.0
C1113 C 0.866 0.3285 0.63461 0.0
C1114 C 0.83432 0.30441 0.63384 0.0
H1115 H 0.71458 0.33308 0.6076 0.0
H1116 H 0.7603 0.34509 0.61524 0.0
H1117 H 0.7576 0.32527 0.59761 0.0
H1118 H 0.82384 0.30127 0.59776 0.0
H1119 H 0.87897 0.34402 0.59902 0.0
H1120 H 0.53366 0.58424 0.10772 0.0
H1121 H 0.57706 0.63876 0.10829 0.0
H1122 H 0.554 0.65363 0.15312 0.0
H1123 H 0.51201 0.59863 0.15277 0.0
H1124 H 0.54703 0.70488 0.11278 0.0
H1125 H 0.66146 0.68912 0.15242 0.0
H1126 H 0.63546 0.64847 0.14562 0.0
H1127 H 0.61711 0.67567 0.16045 0.0
C1128 C 0.53904 0.59817 0.11782 0.0
C1129 C 0.51873 0.58756 0.13013 0.0
C1130 C 0.56393 0.62935 0.11814 0.0
C1131 C 0.56884 0.65046 0.13073 0.0
C1132 C 0.55146 0.63752 0.14332 0.0
H1133 H 0.54235 0.87781 0.1506 0.0
H1134 H 0.54733 0.80836 0.14828 0.0
C1135 C 0.52698 0.60612 0.14306 0.0
C1136 C 0.58443 0.68982 0.13017 0.0
H1137 H 0.63561 0.75448 0.14963 0.0
C1138 C 0.56744 0.71538 0.12054 0.0
C1139 C 0.61104 0.70381 0.14026 0.0
C1140 C 0.63255 0.6776 0.15015 0.0
C1141 C 0.57388 0.75471 0.1215 0.0
C1142 C 0.59761 0.76884 0.13242 0.0
C1143 C 0.61696 0.74337 0.14138 0.0
C1144 C 0.59871 0.81002 0.13552 0.0
C1145 C 0.55335 0.78126 0.11142 0.0
C1146 C 0.62645 0.83356 0.12932 0.0
C1147 C 0.62369 0.87322 0.13068 0.0
C1148 C 0.5931 0.88958 0.13819 0.0
C1149 C 0.56632 0.8658 0.14486 0.0
C1150 C 0.56913 0.82627 0.14354 0.0
H1151 H 0.54014 0.76571 0.10236 0.0
H1152 H 0.53053 0.79658 0.1173 0.0
H1153 H 0.57341 0.80298 0.10715 0.0
H1154 H 0.6493 0.82135 0.12303 0.0
H1155 H 0.64481 0.89115 0.12554 0.0
H1156 H 0.89907 0.5178 0.65198 0.0
H1157 H 0.84209 0.55737 0.65237 0.0
H1158 H 0.85345 0.57787 0.60727 0.0
H1159 H 0.9101 0.53721 0.60663 0.0
H1160 H 0.81197 0.62875 0.64378 0.0
H1161 H 0.76031 0.50745 0.61044 0.0
H1162 H 0.80632 0.50684 0.61898 0.0
H1163 H 0.79896 0.53496 0.6032 0.0
C1164 C 0.89031 0.53165 0.64219 0.0
C1165 C 0.90834 0.52319 0.62917 0.0
C1166 C 0.85773 0.55448 0.64246 0.0
C1167 C 0.84295 0.56949 0.62977 0.0
C1168 C 0.86399 0.56572 0.61712 0.0
H1169 H 0.60302 0.64664 0.6265 0.0
H1170 H 0.67287 0.64964 0.62386 0.0
C1171 C 0.8964 0.54249 0.61679 0.0
C1172 C 0.80254 0.58169 0.62943 0.0
H1173 H 0.71478 0.55001 0.61897 0.0
C1174 C 0.7907 0.61213 0.63812 0.0
C1175 C 0.77485 0.55941 0.62221 0.0
C1176 C 0.78551 0.52516 0.61326 0.0
C1177 C 0.75173 0.62001 0.64014 0.0
C1178 C 0.72434 0.59684 0.63331 0.0
C1179 C 0.73615 0.56765 0.62414 0.0
C1180 C 0.68328 0.59926 0.63659 0.0
C1181 C 0.73982 0.65155 0.65011 0.0
C1182 C 0.66643 0.57023 0.64473 0.0
C1183 C 0.62688 0.56829 0.64612 0.0
C1184 C 0.60362 0.59527 0.63933 0.0
C1185 C 0.62056 0.62537 0.63171 0.0
C1186 C 0.66026 0.62728 0.63029 0.0
H1187 H 0.7647 0.66675 0.65478 0.0
H1188 H 0.72187 0.67246 0.64429 0.0
H1189 H 0.72225 0.63956 0.65889 0.0
H1190 H 0.68386 0.5482 0.64954 0.0
H1191 H 0.61443 0.54471 0.65197 0.0
H1192 H 0.94177 0.6146 0.12083 0.0
H1193 H 0.93473 0.68412 0.12158 0.0
H1194 H 0.8552 0.67374 0.15643 0.0
H1195 H 0.86146 0.60378 0.15548 0.0
H1196 H 0.85222 0.73354 0.12404 0.0
H1197 H 0.96175 0.73952 0.16711 0.0
H1198 H 0.96358 0.70163 0.1541 0.0
H1199 H 0.92549 0.70291 0.16683 0.0
C1200 C 0.92222 0.62713 0.12845 0.0
C1201 C 0.90225 0.60408 0.13813 0.0
C1202 C 0.9182 0.6667 0.12886 0.0
C1203 C 0.89431 0.68377 0.139 0.0
C1204 C 0.87355 0.66086 0.14848 0.0
H1205 H 0.96252 0.91715 0.15336 0.0
H1206 H 0.9196 0.86321 0.15728 0.0
C1207 C 0.8774 0.62114 0.14801 0.0
C1208 C 0.89452 0.72564 0.1404 0.0
H1209 H 0.948 0.79644 0.15506 0.0
C1210 C 0.87243 0.74762 0.13104 0.0
C1211 C 0.92041 0.74368 0.14972 0.0
C1212 C 0.94424 0.72096 0.16008 0.0
C1213 C 0.87747 0.78732 0.13013 0.0
C1214 C 0.90616 0.80499 0.13848 0.0
C1215 C 0.926 0.78313 0.14862 0.0
C1216 C 0.92088 0.84387 0.13537 0.0
C1217 C 0.85277 0.80963 0.11996 0.0
C1218 C 0.93401 0.85242 0.12159 0.0
C1219 C 0.95804 0.88358 0.11928 0.0
C1220 C 0.9702 0.9062 0.13079 0.0
C1221 C 0.95404 0.89996 0.14431 0.0
C1222 C 0.92946 0.86911 0.14656 0.0
H1223 H 0.82354 0.79735 0.11954 0.0
H1224 H 0.85074 0.84016 0.12303 0.0
H1225 H 0.86496 0.80765 0.10907 0.0
H1226 H 0.9287 0.83309 0.11281 0.0
H1227 H 0.96989 0.88757 0.10873 0.0
H1228 H 0.57417 0.96475 0.65247 0.0
H1229 H 0.62828 0.92194 0.6565 0.0
H1230 H 0.66319 0.93666 0.61276 0.0
H1231 H 0.6084 0.97754 0.60846 0.0
H1232 H 0.68557 0.86827 0.62254 0.0
H1233 H 0.72468 0.98211 0.66146 0.0
H1234 H 0.68218 0.95574 0.66552 0.0
H1235 H 0.68359 0.98612 0.65007 0.0
C1236 C 0.59265 0.95775 0.64359 0.0
C1237 C 0.58768 0.97538 0.63025 0.0
C1238 C 0.62369 0.93348 0.64594 0.0
C1239 C 0.65064 0.92747 0.6351 0.0
C1240 C 0.64305 0.94129 0.62135 0.0
H1241 H 0.8797 0.93712 0.61916 0.0
H1242 H 0.81021 0.93056 0.61962 0.0
C1243 C 0.61164 0.96481 0.61891 0.0
C1244 C 0.68937 0.91281 0.63832 0.0
H1245 H 0.77175 0.93854 0.65528 0.0
C1246 C 0.7042 0.88304 0.62994 0.0
C1247 C 0.71384 0.93241 0.64791 0.0
C1248 C 0.70051 0.96604 0.65669 0.0
C1249 C 0.74321 0.87394 0.63029 0.0
C1250 C 0.76763 0.8948 0.63934 0.0
C1251 C 0.75254 0.92256 0.64844 0.0
C1252 C 0.80943 0.89303 0.63791 0.0
C1253 C 0.75865 0.84363 0.62047 0.0
C1254 C 0.83172 0.87376 0.648 0.0
C1255 C 0.8715 0.87705 0.64763 0.0
C1256 C 0.88923 0.90027 0.63736 0.0
C1257 C 0.86676 0.91872 0.62708 0.0
C1258 C 0.82716 0.91501 0.62733 0.0
H1259 H 0.73555 0.82588 0.6158 0.0
H1260 H 0.77464 0.85749 0.61166 0.0
H1261 H 0.77887 0.82486 0.62629 0.0
H1262 H 0.81833 0.85702 0.65632 0.0
H1263 H 0.88835 0.86216 0.65555 0.0
H1264 H 0.64556 0.60485 0.89126 0.0
H1265 H 0.65276 0.67451 0.89314 0.0
H1266 H 0.56022 0.68966 0.86341 0.0
H1267 H 0.55222 0.62038 0.86181 0.0
H1268 H 0.63887 0.74159 0.86219 0.0
H1269 H 0.55358 0.73356 0.91234 0.0
H1270 H 0.59138 0.69988 0.90889 0.0
H1271 H 0.54811 0.6975 0.89876 0.0
C1272 C 0.62706 0.62317 0.88504 0.0
C1273 C 0.59806 0.60747 0.87651 0.0
C1274 C 0.63143 0.66276 0.88603 0.0
C1275 C 0.60709 0.68695 0.87837 0.0
C1276 C 0.57948 0.67127 0.86928 0.0
H1277 H 0.51264 0.89401 0.86116 0.0
H1278 H 0.55589 0.84016 0.86033 0.0
C1279 C 0.57493 0.63179 0.86837 0.0
C1280 C 0.60663 0.72837 0.88109 0.0
H1281 H 0.56078 0.79349 0.90178 0.0
C1282 C 0.62259 0.75323 0.87101 0.0
C1283 C 0.58595 0.74324 0.89272 0.0
C1284 C 0.56867 0.71738 0.90386 0.0
C1285 C 0.61633 0.79277 0.87184 0.0
C1286 C 0.59246 0.80736 0.88274 0.0
C1287 C 0.57906 0.78254 0.8934 0.0
C1288 C 0.57551 0.84617 0.88212 0.0
C1289 C 0.63453 0.81824 0.86082 0.0
C1290 C 0.57267 0.8685 0.89452 0.0
C1291 C 0.54695 0.89894 0.89515 0.0
C1292 C 0.5238 0.90766 0.88334 0.0
C1293 C 0.52984 0.88799 0.87048 0.0
C1294 C 0.55507 0.85725 0.86993 0.0
H1295 H 0.66318 0.8073 0.85782 0.0
H1296 H 0.61674 0.81821 0.85104 0.0
H1297 H 0.63753 0.84804 0.86469 0.0
H1298 H 0.5882 0.86058 0.90405 0.0
H1299 H 0.5433 0.9138 0.90518 0.0
H1300 H 0.58238 0.54104 0.40645 0.0
H1301 H 0.63541 0.5862 0.40505 0.0
H1302 H 0.65697 0.55099 0.36172 0.0
H1303 H 0.60339 0.50736 0.36281 0.0
H1304 H 0.70324 0.55987 0.40305 0.0
H1305 H 0.68722 0.65907 0.35819 0.0
H1306 H 0.64702 0.63313 0.36537 0.0
H1307 H 0.67706 0.61198 0.35187 0.0
C1308 C 0.59752 0.54401 0.39644 0.0
C1309 C 0.58909 0.52007 0.38482 0.0
C1310 C 0.62782 0.5699 0.39566 0.0
C1311 C 0.65029 0.57216 0.38328 0.0
C1312 C 0.63971 0.55065 0.37129 0.0
H1313 H 0.87499 0.55354 0.36148 0.0
H1314 H 0.80576 0.56058 0.36362 0.0
C1315 C 0.60915 0.52521 0.37199 0.0
C1316 C 0.6887 0.59001 0.38375 0.0
H1317 H 0.75336 0.63636 0.36271 0.0
C1318 C 0.71381 0.57782 0.3945 0.0
C1319 C 0.70272 0.61348 0.37264 0.0
C1320 C 0.67682 0.63044 0.36148 0.0
C1321 C 0.75298 0.58539 0.39371 0.0
C1322 C 0.76736 0.60559 0.38186 0.0
C1323 C 0.74212 0.62045 0.3717 0.0
C1324 C 0.80869 0.60649 0.379 0.0
C1325 C 0.77923 0.56922 0.40494 0.0
C1326 C 0.83298 0.63057 0.38674 0.0
C1327 C 0.87254 0.62677 0.38545 0.0
C1328 C 0.88814 0.5987 0.37648 0.0
C1329 C 0.86367 0.57569 0.36834 0.0
C1330 C 0.82421 0.57966 0.36955 0.0
H1331 H 0.76347 0.5536 0.4134 0.0
H1332 H 0.80002 0.54942 0.39994 0.0
H1333 H 0.7957 0.59268 0.40999 0.0
H1334 H 0.82135 0.6513 0.39412 0.0
H1335 H 0.89094 0.64508 0.39172 0.0
H1336 H 0.9386 0.8801 0.85831 0.0
H1337 H 0.93293 0.81067 0.85989 0.0
H1338 H 0.8511 0.82242 0.8939 0.0
H1339 H 0.85528 0.89219 0.89192 0.0
H1340 H 0.93002 0.78022 0.89792 0.0
H1341 H 0.83798 0.72966 0.85351 0.0
H1342 H 0.87013 0.76863 0.84985 0.0
H1343 H 0.83136 0.77549 0.86205 0.0
C1344 C 0.91838 0.86797 0.86577 0.0
C1345 C 0.89749 0.89145 0.87504 0.0
C1346 C 0.91521 0.82834 0.86667 0.0
C1347 C 0.89133 0.81165 0.87691 0.0
C1348 C 0.86934 0.83495 0.88583 0.0
H1349 H 0.9565 0.58318 0.90516 0.0
H1350 H 0.91362 0.63814 0.90384 0.0
C1351 C 0.87208 0.87464 0.88479 0.0
C1352 C 0.8944 0.77037 0.87967 0.0
H1353 H 0.87789 0.68336 0.86462 0.0
C1354 C 0.91794 0.75877 0.8909 0.0
C1355 C 0.87874 0.74296 0.87035 0.0
C1356 C 0.8529 0.75456 0.85827 0.0
C1357 C 0.92868 0.72052 0.89248 0.0
C1358 C 0.91417 0.69292 0.88282 0.0
C1359 C 0.88868 0.7044 0.87208 0.0
C1360 C 0.93005 0.65375 0.88238 0.0
C1361 C 0.95796 0.71075 0.90372 0.0
C1362 C 0.95046 0.64215 0.87027 0.0
C1363 C 0.97425 0.61031 0.87087 0.0
C1364 C 0.97843 0.58985 0.88367 0.0
C1365 C 0.95452 0.59883 0.89524 0.0
C1366 C 0.93016 0.63037 0.89453 0.0
H1367 H 0.97157 0.73661 0.90833 0.0
H1368 H 0.94392 0.69502 0.91254 0.0
H1369 H 0.98078 0.69236 0.89923 0.0
H1370 H 0.95047 0.65949 0.86071 0.0
H1371 H 0.99179 0.60388 0.86167 0.0
H1372 H 0.6142 0.93896 0.39449 0.0
H1373 H 0.68358 0.93121 0.39353 0.0
H1374 H 0.67176 0.85293 0.35836 0.0
H1375 H 0.60196 0.85981 0.35952 0.0
H1376 H 0.73412 0.84859 0.38975 0.0
H1377 H 0.73489 0.96191 0.348 0.0
H1378 H 0.69827 0.96237 0.36152 0.0
H1379 H 0.69865 0.92528 0.34837 0.0
C1380 C 0.62634 0.91937 0.3868 0.0
C1381 C 0.60294 0.90016 0.37702 0.0
C1382 C 0.66586 0.91496 0.38627 0.0
C1383 C 0.6825 0.8914 0.37592 0.0
C1384 C 0.65922 0.87101 0.36647 0.0
H1385 H 0.91262 0.96619 0.35987 0.0
H1386 H 0.85965 0.92208 0.35591 0.0
C1387 C 0.61957 0.87525 0.36705 0.0
C1388 C 0.72422 0.89229 0.37407 0.0
H1389 H 0.79289 0.94818 0.35928 0.0
C1390 C 0.74729 0.86966 0.38286 0.0
C1391 C 0.74109 0.91927 0.36487 0.0
C1392 C 0.71717 0.94367 0.35508 0.0
C1393 C 0.78699 0.8752 0.38335 0.0
C1394 C 0.80351 0.90495 0.37519 0.0
C1395 C 0.7805 0.92537 0.36557 0.0
C1396 C 0.84234 0.92014 0.37805 0.0
C1397 C 0.81051 0.84982 0.39289 0.0
C1398 C 0.85184 0.93181 0.39193 0.0
C1399 C 0.88252 0.95642 0.39425 0.0
C1400 C 0.90363 0.97069 0.38268 0.0
C1401 C 0.89656 0.95605 0.36898 0.0
C1402 C 0.86628 0.93079 0.36671 0.0
H1403 H 0.79884 0.82033 0.39295 0.0
H1404 H 0.84084 0.84878 0.38949 0.0
H1405 H 0.80905 0.86069 0.40398 0.0
H1406 H 0.83351 0.92492 0.40085 0.0
H1407 H 0.8872 0.96708 0.40495 0.0
H1408 H 0.45072 0.41186 0.85779 0.0
H1409 H 0.40548 0.3588 0.85821 0.0
H1410 H 0.42819 0.34224 0.90299 0.0
H1411 H 0.47176 0.3959 0.9028 0.0
H1412 H 0.43313 0.29235 0.86209 0.0
H1413 H 0.321 0.3078 0.9025 0.0
H1414 H 0.34746 0.34846 0.89596 0.0
H1415 H 0.36551 0.32026 0.9106 0.0
C1416 C 0.44485 0.39789 0.86786 0.0
C1417 C 0.46551 0.40755 0.88019 0.0
C1418 C 0.4189 0.36757 0.86809 0.0
C1419 C 0.41338 0.34629 0.88062 0.0
C1420 C 0.43112 0.35849 0.89324 0.0
H1421 H 0.44612 0.12121 0.89928 0.0
H1422 H 0.43897 0.19041 0.89677 0.0
C1423 C 0.45657 0.38911 0.89307 0.0
C1424 C 0.3971 0.3072 0.87992 0.0
H1425 H 0.34772 0.2422 0.89986 0.0
C1426 C 0.4133 0.28178 0.87004 0.0
C1427 C 0.37112 0.29304 0.89021 0.0
C1428 C 0.35004 0.31908 0.90029 0.0
C1429 C 0.40715 0.24243 0.87105 0.0
C1430 C 0.38461 0.22811 0.88229 0.0
C1431 C 0.36558 0.25343 0.8914 0.0
C1432 C 0.38502 0.18705 0.88563 0.0
C1433 C 0.42696 0.21607 0.8607 0.0
C1434 C 0.35654 0.16263 0.88046 0.0
C1435 C 0.36056 0.1231 0.88193 0.0
C1436 C 0.39315 0.10778 0.88852 0.0
C1437 C 0.42069 0.13244 0.89424 0.0
C1438 C 0.41664 0.17182 0.89281 0.0
H1439 H 0.43786 0.23159 0.85121 0.0
H1440 H 0.45146 0.20219 0.86612 0.0
H1441 H 0.4072 0.19321 0.85711 0.0
H1442 H 0.3321 0.17405 0.87483 0.0
H1443 H 0.33884 0.10445 0.87756 0.0
H1444 H 0.06828 0.45077 0.3994 0.0
H1445 H 0.12082 0.40591 0.40332 0.0
H1446 H 0.16541 0.43233 0.36161 0.0
H1447 H 0.11218 0.47528 0.35735 0.0
H1448 H 0.18456 0.36127 0.36905 0.0
H1449 H 0.21654 0.46086 0.41391 0.0
H1450 H 0.17312 0.43408 0.41541 0.0
H1451 H 0.17806 0.46953 0.40165 0.0
C1452 C 0.08864 0.44597 0.3909 0.0
C1453 C 0.08674 0.46725 0.37822 0.0
C1454 C 0.11876 0.42053 0.39319 0.0
C1455 C 0.14791 0.41705 0.38301 0.0
C1456 C 0.14351 0.43487 0.36971 0.0
H1457 H 0.37615 0.42273 0.36858 0.0
H1458 H 0.30715 0.41308 0.36826 0.0
C1459 C 0.11299 0.45953 0.36728 0.0
C1460 C 0.18559 0.40056 0.38672 0.0
H1461 H 0.2647 0.41985 0.40674 0.0
C1462 C 0.20181 0.37342 0.37751 0.0
C1463 C 0.20822 0.41648 0.39778 0.0
C1464 C 0.19335 0.44702 0.40771 0.0
C1465 C 0.24064 0.36393 0.3784 0.0
C1466 C 0.26356 0.38181 0.3888 0.0
C1467 C 0.24677 0.40622 0.3988 0.0
C1468 C 0.30561 0.38129 0.38802 0.0
C1469 C 0.2574 0.33643 0.36775 0.0
C1470 C 0.3275 0.3666 0.39926 0.0
C1471 C 0.36709 0.37169 0.39937 0.0
C1472 C 0.38509 0.39227 0.3884 0.0
C1473 C 0.3631 0.40627 0.37705 0.0
C1474 C 0.32373 0.40068 0.37684 0.0
H1475 H 0.2352 0.31732 0.36321 0.0
H1476 H 0.27039 0.35281 0.35886 0.0
H1477 H 0.2801 0.31877 0.37272 0.0
H1478 H 0.31385 0.352 0.40807 0.0
H1479 H 0.38354 0.36014 0.40813 0.0
H1480 H 0.02419 0.11285 0.8574 0.0
H1481 H 0.06896 0.16456 0.86136 0.0
H1482 H 0.08949 0.12405 0.90411 0.0
H1483 H 0.04334 0.07272 0.90035 0.0
H1484 H 0.06386 0.19223 0.90507 0.0
H1485 H 0.17718 0.19447 0.86478 0.0
H1486 H 0.13276 0.1876 0.85574 0.0
H1487 H 0.1494 0.15198 0.86819 0.0
C1488 C 0.03927 0.11397 0.86747 0.0
C1489 C 0.02953 0.08925 0.87868 0.0
C1490 C 0.06531 0.14352 0.86969 0.0
C1491 C 0.08279 0.14835 0.88305 0.0
C1492 C 0.07629 0.12102 0.89373 0.0
H1493 H 0.14116 0.38546 0.90768 0.0
H1494 H 0.14894 0.31565 0.90792 0.0
C1495 C 0.04979 0.09176 0.89158 0.0
C1496 C 0.10018 0.18578 0.88666 0.0
H1497 H 0.15171 0.25823 0.87178 0.0
C1498 C 0.08425 0.20617 0.89811 0.0
C1499 C 0.12689 0.20414 0.87766 0.0
C1500 C 0.14777 0.18309 0.86602 0.0
C1501 C 0.09114 0.24527 0.89986 0.0
C1502 C 0.11462 0.26437 0.88993 0.0
C1503 C 0.13332 0.24346 0.87927 0.0
C1504 C 0.11457 0.30641 0.88909 0.0
C1505 C 0.07063 0.26661 0.91156 0.0
C1506 C 0.09312 0.32401 0.87833 0.0
C1507 C 0.08825 0.36347 0.8783 0.0
C1508 C 0.10499 0.38601 0.88896 0.0
C1509 C 0.12757 0.36852 0.89947 0.0
C1510 C 0.13228 0.32886 0.89955 0.0
H1511 H 0.05186 0.24771 0.91798 0.0
H1512 H 0.09181 0.28 0.91879 0.0
H1513 H 0.05298 0.2898 0.90691 0.0
H1514 H 0.07892 0.30702 0.87027 0.0
H1515 H 0.07042 0.37625 0.87017 0.0
H1516 H 0.41668 0.04288 0.40056 0.0
H1517 H 0.36386 0.08753 0.40435 0.0
H1518 H 0.3233 0.06505 0.36174 0.0
H1519 H 0.37704 0.02262 0.35761 0.0
H1520 H 0.3038 0.13508 0.3695 0.0
H1521 H 0.26678 0.03365 0.41321 0.0
H1522 H 0.31021 0.05994 0.41559 0.0
H1523 H 0.30645 0.02538 0.40146 0.0
C1524 C 0.39716 0.04855 0.39186 0.0
C1525 C 0.40044 0.02867 0.3789 0.0
C1526 C 0.36684 0.0738 0.39407 0.0
C1527 C 0.33872 0.07835 0.38354 0.0
C1528 C 0.34437 0.0617 0.3701 0.0
H1529 H 0.11133 0.07355 0.36769 0.0
H1530 H 0.18039 0.08288 0.36771 0.0
C1531 C 0.37517 0.03733 0.36775 0.0
C1532 C 0.30087 0.09504 0.38692 0.0
H1533 H 0.22 0.07617 0.40599 0.0
C1534 C 0.28574 0.1228 0.3777 0.0
C1535 C 0.27716 0.07895 0.39762 0.0
C1536 C 0.29073 0.04766 0.40748 0.0
C1537 C 0.24698 0.1328 0.37823 0.0
C1538 C 0.22308 0.11493 0.38832 0.0
C1539 C 0.23873 0.08982 0.39832 0.0
C1540 C 0.18113 0.11616 0.38713 0.0
C1541 C 0.23131 0.16079 0.36754 0.0
C1542 C 0.15879 0.13199 0.39803 0.0
C1543 C 0.11917 0.12717 0.39791 0.0
C1544 C 0.10161 0.10566 0.38709 0.0
C1545 C 0.12405 0.09071 0.37604 0.0
C1546 C 0.16345 0.09607 0.37602 0.0
H1547 H 0.25417 0.17914 0.36301 0.0
H1548 H 0.21779 0.14482 0.35865 0.0
H1549 H 0.20918 0.17921 0.37248 0.0
H1550 H 0.17211 0.14714 0.40678 0.0
H1551 H 0.10235 0.13943 0.40644 0.0
H1552 H 0.44607 0.08134 0.15568 0.0
H1553 H 0.39833 0.1321 0.15479 0.0
H1554 H 0.4297 0.15569 0.11118 0.0
H1555 H 0.47566 0.10422 0.11177 0.0
H1556 H 0.42134 0.20024 0.15307 0.0
H1557 H 0.32157 0.18401 0.10855 0.0
H1558 H 0.34878 0.14404 0.11521 0.0
H1559 H 0.36836 0.17517 0.1017 0.0
C1560 C 0.44167 0.09639 0.14573 0.0
C1561 C 0.46518 0.08925 0.13388 0.0
C1562 C 0.41429 0.12537 0.14522 0.0
C1563 C 0.41024 0.14789 0.13292 0.0
C1564 C 0.43134 0.13834 0.1207 0.0
H1565 H 0.43551 0.37021 0.11302 0.0
H1566 H 0.42579 0.30121 0.11493 0.0
C1567 C 0.45816 0.10901 0.12112 0.0
C1568 C 0.39141 0.1858 0.13369 0.0
H1569 H 0.34529 0.25065 0.11269 0.0
C1570 C 0.40337 0.21079 0.14453 0.0
C1571 C 0.36776 0.19989 0.12263 0.0
C1572 C 0.35062 0.17406 0.11149 0.0
C1573 C 0.39584 0.24995 0.14377 0.0
C1574 C 0.3761 0.26446 0.13185 0.0
C1575 C 0.36099 0.23931 0.1217 0.0
C1576 C 0.37669 0.30568 0.1288 0.0
C1577 C 0.41188 0.27613 0.15507 0.0
C1578 C 0.3517 0.33073 0.13574 0.0
C1579 C 0.35707 0.37016 0.13458 0.0
C1580 C 0.38771 0.38479 0.12659 0.0
C1581 C 0.41156 0.35959 0.11915 0.0
C1582 C 0.40602 0.32029 0.12023 0.0
H1583 H 0.42526 0.26015 0.16398 0.0
H1584 H 0.43366 0.29522 0.15025 0.0
H1585 H 0.38884 0.29443 0.15944 0.0
H1586 H 0.32908 0.31979 0.14247 0.0
H1587 H 0.33805 0.3892 0.14025 0.0
H1588 H 0.4105 0.4481 0.6581 0.0
H1589 H 0.35943 0.40061 0.65713 0.0
H1590 H 0.34126 0.42711 0.61272 0.0
H1591 H 0.39287 0.47283 0.61345 0.0
H1592 H 0.29176 0.4241 0.65387 0.0
H1593 H 0.31206 0.31897 0.61136 0.0
H1594 H 0.35153 0.34654 0.61825 0.0
H1595 H 0.32235 0.36481 0.60391 0.0
C1596 C 0.39662 0.44264 0.64799 0.0
C1597 C 0.4053 0.46479 0.63592 0.0
C1598 C 0.36745 0.4154 0.64744 0.0
C1599 C 0.34633 0.41009 0.63486 0.0
C1600 C 0.3575 0.42971 0.62249 0.0
H1601 H 0.12599 0.43506 0.61144 0.0
H1602 H 0.19471 0.4247 0.61407 0.0
C1603 C 0.38695 0.45642 0.62297 0.0
C1604 C 0.30814 0.39172 0.63528 0.0
H1605 H 0.2453 0.34379 0.61395 0.0
C1606 C 0.28202 0.40524 0.64547 0.0
C1607 C 0.2951 0.36695 0.62438 0.0
C1608 C 0.32202 0.34824 0.61399 0.0
C1609 C 0.24289 0.39806 0.64415 0.0
C1610 C 0.22958 0.37702 0.63233 0.0
C1611 C 0.25574 0.36047 0.62288 0.0
C1612 C 0.18872 0.3773 0.62868 0.0
C1613 C 0.21559 0.41568 0.65471 0.0
C1614 C 0.16291 0.35331 0.63573 0.0
C1615 C 0.12366 0.35904 0.63416 0.0
C1616 C 0.10994 0.38908 0.62565 0.0
C1617 C 0.13589 0.41162 0.61799 0.0
C1618 C 0.17504 0.40572 0.61948 0.0
H1619 H 0.23065 0.43024 0.6636 0.0
H1620 H 0.19715 0.43681 0.64921 0.0
H1621 H 0.19672 0.3933 0.65924 0.0
H1622 H 0.17311 0.33139 0.64292 0.0
H1623 H 0.10405 0.34096 0.64 0.0
H1624 H 0.04775 0.40862 0.15428 0.0
H1625 H 0.09483 0.35737 0.15269 0.0
H1626 H 0.05976 0.33508 0.10939 0.0
H1627 H 0.01442 0.38707 0.11065 0.0
H1628 H 0.0715 0.28926 0.15093 0.0
H1629 H 0.16777 0.30711 0.10538 0.0
H1630 H 0.14101 0.34677 0.11254 0.0
H1631 H 0.12036 0.31593 0.09916 0.0
C1632 C 0.05115 0.39372 0.14424 0.0
C1633 C 0.02683 0.40144 0.13268 0.0
C1634 C 0.07815 0.36446 0.14334 0.0
C1635 C 0.08105 0.34223 0.13092 0.0
C1636 C 0.05902 0.35221 0.11898 0.0
H1637 H 0.05823 0.11937 0.11027 0.0
H1638 H 0.0677 0.18843 0.11188 0.0
C1639 C 0.03256 0.38182 0.11979 0.0
C1640 C 0.09995 0.30432 0.13131 0.0
H1641 H 0.14531 0.24031 0.10971 0.0
C1642 C 0.08896 0.27902 0.14219 0.0
C1643 C 0.1229 0.29066 0.11998 0.0
C1644 C 0.13895 0.31684 0.10873 0.0
C1645 C 0.09686 0.23995 0.14127 0.0
C1646 C 0.11607 0.22585 0.12915 0.0
C1647 C 0.13008 0.25133 0.1189 0.0
C1648 C 0.11614 0.18462 0.12609 0.0
C1649 C 0.08184 0.21344 0.15265 0.0
C1650 C 0.14097 0.15987 0.13327 0.0
C1651 C 0.13575 0.1204 0.13227 0.0
C1652 C 0.1054 0.1054 0.12423 0.0
C1653 C 0.08194 0.13025 0.11646 0.0
C1654 C 0.08733 0.1696 0.11737 0.0
H1655 H 0.06769 0.22907 0.16149 0.0
H1656 H 0.06099 0.19321 0.14791 0.0
H1657 H 0.10565 0.19636 0.15714 0.0
H1658 H 0.16323 0.17112 0.14009 0.0
H1659 H 0.15454 0.10164 0.13818 0.0
H1660 H 0.39093 0.15834 0.63785 0.0
H1661 H 0.32135 0.1654 0.64013 0.0
H1662 H 0.30515 0.0673 0.61306 0.0
H1663 H 0.37437 0.05952 0.61107 0.0
H1664 H 0.25183 0.14809 0.61131 0.0
H1665 H 0.26595 0.06499 0.66174 0.0
H1666 H 0.29979 0.10173 0.65703 0.0
H1667 H 0.29979 0.05736 0.64753 0.0
C1668 C 0.37237 0.13868 0.63225 0.0
C1669 C 0.38775 0.10813 0.62443 0.0
C1670 C 0.33284 0.14295 0.63346 0.0
C1671 C 0.30842 0.11693 0.62671 0.0
C1672 C 0.32374 0.08783 0.61821 0.0
H1673 H 0.10406 0.01752 0.61143 0.0
H1674 H 0.15635 0.06261 0.61036 0.0
C1675 C 0.36316 0.0834 0.61709 0.0
C1676 C 0.26735 0.11615 0.63002 0.0
H1677 H 0.20516 0.06883 0.65149 0.0
C1678 C 0.24132 0.13162 0.62027 0.0
C1679 C 0.25395 0.09533 0.64187 0.0
C1680 C 0.28112 0.07886 0.65273 0.0
C1681 C 0.20203 0.12439 0.62157 0.0
C1682 C 0.18897 0.10002 0.6326 0.0
C1683 C 0.21493 0.08742 0.643 0.0
C1684 C 0.15084 0.08154 0.63226 0.0
C1685 C 0.17521 0.14197 0.61087 0.0
C1686 C 0.1294 0.0775 0.64483 0.0
C1687 C 0.09991 0.05067 0.6456 0.0
C1688 C 0.09125 0.02763 0.63376 0.0
C1689 C 0.11007 0.03461 0.62078 0.0
C1690 C 0.13986 0.06093 0.6201 0.0
H1691 H 0.185 0.17106 0.60789 0.0
H1692 H 0.17517 0.12446 0.60101 0.0
H1693 H 0.14561 0.14383 0.61504 0.0
H1694 H 0.13729 0.09309 0.65436 0.0
H1695 H 0.08566 0.04631 0.65571 0.0
H1696 H 0.51071 0.91584 0.951 0.0
H1697 H 0.52644 0.93134 0.97571 0.0
H1698 H 0.44559 0.02393 0.97499 0.0
H1699 H 0.42974 0.00887 0.95012 0.0
H1700 H 0.55212 0.01072 0.98559 0.0
H1701 H 0.42087 0.95407 0.01163 0.0
H1702 H 0.43713 0.93665 0.99455 0.0
H1703 H 0.41588 0.98301 0.99586 0.0
C1704 C 0.49607 0.93942 0.95608 0.0
C1705 C 0.4689 0.96108 0.94857 0.0
C1706 C 0.50516 0.94824 0.9702 0.0
C1707 C 0.487 0.97858 0.97718 0.0
C1708 C 0.45967 0.00018 0.9698 0.0
H1709 H 0.51081 0.05394 0.06583 0.0
H1710 H 0.48848 0.04459 0.04132 0.0
C1711 C 0.45074 0.99158 0.9556 0.0
C1712 C 0.49773 0.98812 0.99204 0.0
H1713 H 0.46785 0.98065 0.02658 0.0
C1714 C 0.53369 0.00432 0.99456 0.0
C1715 C 0.47343 0.98004 1.00367 0.0
C1716 C 0.43466 0.96233 1.00143 0.0
C1717 C 0.54617 0.01246 0.00846 0.0
C1718 C 0.52249 0.00306 0.02019 0.0
C1719 C 0.48609 0.98765 0.01761 0.0
C1720 C 0.53544 0.00803 0.03518 0.0
C1721 C 0.58445 0.03153 0.0104 0.0
C1722 C 0.56885 0.99004 0.03998 0.0
C1723 C 0.58161 0.99531 0.05396 0.0
C1724 C 0.56081 0.01802 0.06355 0.0
C1725 C 0.52699 0.03551 0.05882 0.0
C1726 C 0.51436 0.03044 0.04478 0.0
H1727 H 0.59309 0.04752 1.00069 0.0
H1728 H 0.58413 0.05157 0.01957 0.0
H1729 H 0.60644 0.00941 0.01243 0.0
H1730 H 0.58512 0.97183 0.03291 0.0
H1731 H 0.60769 0.98136 0.05731 0.0
H1732 H 0.42369 0.57698 0.55596 0.0
H1733 H 0.43432 0.55099 0.53203 0.0
H1734 H 0.53913 0.4992 0.54638 0.0
H1735 H 0.52841 0.52501 0.57032 0.0
H1736 H 0.4927 0.56477 0.51393 0.0
H1737 H 0.48835 0.41017 0.52644 0.0
H1738 H 0.47222 0.4461 0.53884 0.0
H1739 H 0.52233 0.43617 0.53696 0.0
C1740 C 0.44874 0.55964 0.55402 0.0
C1741 C 0.47465 0.55202 0.56507 0.0
C1742 C 0.45481 0.54483 0.54036 0.0
C1743 C 0.48708 0.52236 0.53746 0.0
C1744 C 0.51337 0.51532 0.54846 0.0
H1745 H 0.58776 0.43033 0.46029 0.0
H1746 H 0.57337 0.45053 0.48468 0.0
C1747 C 0.50719 0.52997 0.56215 0.0
C1748 C 0.49411 0.50806 0.52276 0.0
H1749 H 0.51018 0.42721 0.50325 0.0
C1750 C 0.49623 0.53467 0.51159 0.0
C1751 C 0.49879 0.46875 0.5197 0.0
C1752 C 0.49495 0.43859 0.53109 0.0
C1753 C 0.50356 0.52315 0.49752 0.0
C1754 C 0.50852 0.48393 0.49449 0.0
C1755 C 0.50639 0.45727 0.50562 0.0
C1756 C 0.51636 0.4702 0.47982 0.0
C1757 C 0.50675 0.55309 0.48602 0.0
C1758 C 0.48878 0.4739 0.46907 0.0
C1759 C 0.49683 0.46225 0.45512 0.0
C1760 C 0.53269 0.44674 0.45166 0.0
C1761 C 0.55994 0.44232 0.46255 0.0
C1762 C 0.55176 0.45378 0.47651 0.0
H1763 H 0.51002 0.58223 0.49052 0.0
H1764 H 0.53143 0.54708 0.47894 0.0
H1765 H 0.48052 0.55262 0.4794 0.0
H1766 H 0.46109 0.48604 0.47145 0.0
H1767 H 0.47513 0.46593 0.44702 0.0
H1768 H 0.88756 0.50864 0.05594 0.0
H1769 H 0.91337 0.52015 0.03203 0.0
H1770 H 0.017 0.46171 0.04358 0.0
H1771 H 0.99131 0.44977 0.06748 0.0
H1772 H 0.99832 0.55606 0.0262 0.0
H1773 H 0.96347 0.41169 1.00484 0.0
H1774 H 0.9353 0.43312 0.01885 0.0
H1775 H 0.9826 0.41662 0.0226 0.0
C1776 C 0.91593 0.4984 0.05341 0.0
C1777 C 0.93767 0.47894 0.06369 0.0
C1778 C 0.93062 0.50506 0.03978 0.0
C1779 C 0.96706 0.49184 0.0361 0.0
C1780 C 0.98887 0.47228 0.04628 0.0
H1781 H 0.07049 0.48782 0.95099 0.0
H1782 H 0.05629 0.47551 0.97616 0.0
C1783 C 0.97429 0.46585 0.05997 0.0
C1784 C 0.98194 0.49826 0.02152 0.0
H1785 H 0.99026 0.45599 0.98889 0.0
C1786 C 0.9968 0.5342 0.01803 0.0
C1787 C 0.98025 0.46949 0.011 0.0
C1788 C 0.96452 0.43045 0.01438 0.0
C1789 C 0.00968 0.54232 1.00417 0.0
C1790 C 0.00653 0.51404 0.99343 0.0
C1791 C 0.99254 0.47773 0.99708 0.0
C1792 C 0.01605 0.52203 0.97826 0.0
C1793 C 0.02687 0.58103 1.00125 0.0
C1794 C 0.99784 0.55191 0.97098 0.0
C1795 C 0.00612 0.55919 0.95667 0.0
C1796 C 0.03239 0.53636 0.94921 0.0
C1797 C 0.05024 0.50605 0.95643 0.0
C1798 C 0.04212 0.49896 0.97082 0.0
H1799 H 0.03879 0.59395 0.01111 0.0
H1800 H 0.0499 0.5793 0.99315 0.0
H1801 H 0.00433 0.60043 0.9972 0.0
H1802 H 0.97677 0.5694 0.97633 0.0
H1803 H 0.9915 0.5825 0.95142 0.0
H1804 H 0.97765 0.95371 0.44457 0.0
H1805 H 0.98585 0.94266 0.47007 0.0
H1806 H 0.9909 0.06402 0.47737 0.0
H1807 H 0.98281 0.07549 0.45174 0.0
H1808 H 0.0487 0.02022 0.49182 0.0
H1809 H 0.90332 0.96233 0.50084 0.0
H1810 H 0.92856 0.94006 0.4864 0.0
H1811 H 0.91581 0.98963 0.48519 0.0
C1812 C 0.9805 0.97815 0.45156 0.0
C1813 C 0.97932 0.01553 0.4461 0.0
C1814 C 0.98499 0.97174 0.46616 0.0
C1815 C 0.98837 0.00251 0.47564 0.0
C1816 C 0.98806 0.03988 0.47024 0.0
H1817 H 0.97112 0.96923 0.56793 0.0
H1818 H 0.96267 0.99371 0.54375 0.0
C1819 C 0.98339 0.04637 0.4556 0.0
C1820 C 0.99256 0.99534 0.49115 0.0
H1821 H 0.94853 0.95281 0.51947 0.0
C1822 C 0.02669 0.00581 0.49792 0.0
C1823 C 0.96359 0.97703 0.49912 0.0
C1824 C 0.92559 0.96689 0.49258 0.0
C1825 C 0.03321 0.99712 0.51234 0.0
C1826 C 0.005 0.97701 0.52013 0.0
C1827 C 0.97028 0.9679 0.51348 0.0
C1828 C 0.01141 0.96392 0.53501 0.0
C1829 C 0.07024 0.00955 0.5191 0.0
C1830 C 0.04134 0.9387 0.53813 0.0
C1831 C 0.04652 0.92505 0.55199 0.0
C1832 C 0.02187 0.93627 0.56306 0.0
C1833 C 0.99156 0.96113 0.55987 0.0
C1834 C 0.98639 0.97481 0.54597 0.0
H1835 H 0.08323 0.03391 0.51327 0.0
H1836 H 0.06596 0.01798 0.5304 0.0
H1837 H 0.09078 0.98548 0.5188 0.0
H1838 H 0.06038 0.92903 0.52979 0.0
H1839 H 0.06994 0.90565 0.55404 0.0
H1840 H 0.49796 0.45322 0.94804 0.0
H1841 H 0.47238 0.46461 0.97192 0.0
H1842 H 0.57518 0.52492 0.98335 0.0
H1843 H 0.60073 0.51419 0.95942 0.0
H1844 H 0.5526 0.46966 1.00332 0.0
H1845 H 0.43246 0.56575 0.98895 0.0
H1846 H 0.43418 0.52128 0.97942 0.0
H1847 H 0.47144 0.55585 0.97692 0.0
C1848 C 0.51471 0.46984 0.95547 0.0
C1849 C 0.55101 0.4837 0.95168 0.0
C1850 C 0.50012 0.47609 0.96917 0.0
C1851 C 0.5216 0.49616 0.97934 0.0
C1852 C 0.55801 0.50957 0.97564 0.0
H1853 H 0.46008 0.59709 0.05999 0.0
H1854 H 0.47813 0.5832 0.03536 0.0
C1855 C 0.57256 0.50339 0.96196 0.0
C1856 C 0.50689 0.50219 0.99401 0.0
H1857 H 0.4369 0.54686 0.01311 0.0
C1858 C 0.52724 0.48643 1.00547 0.0
C1859 C 0.47398 0.52436 0.99678 0.0
C1860 C 0.45182 0.54311 0.98491 0.0
C1861 C 0.51562 0.49227 0.01963 0.0
C1862 C 0.48247 0.51408 0.0224 0.0
C1863 C 0.4621 0.52987 0.01094 0.0
C1864 C 0.46956 0.52226 0.03716 0.0
C1865 C 0.5395 0.47591 0.03153 0.0
C1866 C 0.45803 0.49266 0.04628 0.0
C1867 C 0.44768 0.50048 0.0604 0.0
C1868 C 0.44859 0.53812 0.06564 0.0
C1869 C 0.45919 0.56778 0.05634 0.0
C1870 C 0.46946 0.55992 0.04223 0.0
H1871 H 0.56826 0.46714 0.02778 0.0
H1872 H 0.54293 0.49696 0.04029 0.0
H1873 H 0.52501 0.45034 0.03595 0.0
H1874 H 0.4573 0.46345 0.04251 0.0
H1875 H 0.43947 0.47698 0.06724 0.0
H1876 H 0.05592 0.60696 0.46016 0.0
H1877 H 0.05 0.58495 0.48484 0.0
H1878 H 0.9841 0.48816 0.47067 0.0
H1879 H 0.98947 0.51037 0.44598 0.0
H1880 H 0.98154 0.57328 0.50003 0.0
H1881 H 0.06624 0.43951 0.49649 0.0
H1882 H 0.06928 0.47676 0.48324 0.0
H1883 H 0.02919 0.44482 0.4834 0.0
C1884 C 0.04049 0.58078 0.4623 0.0
C1885 C 0.02414 0.55979 0.45109 0.0
C1886 C 0.03714 0.56824 0.47639 0.0
C1887 C 0.01727 0.5345 0.47957 0.0
C1888 C 0.00049 0.51367 0.46842 0.0
H1889 H 0.96523 0.42365 0.56093 0.0
H1890 H 0.97088 0.4395 0.53555 0.0
C1891 C 0.00379 0.52627 0.45431 0.0
C1892 C 0.01262 0.52232 0.49464 0.0
H1893 H 0.03463 0.45153 0.51832 0.0
C1894 C 0.99319 0.54668 0.50403 0.0
C1895 C 0.02756 0.48746 0.49982 0.0
C1896 C 0.04951 0.46067 0.49028 0.0
C1897 C 0.98821 0.53715 0.51845 0.0
C1898 C 0.00384 0.50267 0.52372 0.0
C1899 C 0.02276 0.47799 0.51428 0.0
C1900 C 0.00154 0.49229 0.53906 0.0
C1901 C 0.9657 0.56388 0.52785 0.0
C1902 C 0.01766 0.51621 0.54944 0.0
C1903 C 0.01437 0.50734 0.56391 0.0
C1904 C 0.99518 0.47411 0.56833 0.0
C1905 C 0.98006 0.44953 0.55789 0.0
C1906 C 0.98328 0.45853 0.54339 0.0
H1907 H 0.94664 0.58265 0.52151 0.0
H1908 H 0.94811 0.54782 0.53566 0.0
H1909 H 0.98575 0.58243 0.53385 0.0
H1910 H 0.03271 0.54192 0.54635 0.0
H1911 H 0.0267 0.52673 0.57163 0.0
H1912 H 0.96535 0.01585 0.07129 0.0
H1913 H 0.9526 0.02341 0.04585 0.0
H1914 H 0.05984 0.96932 0.03596 0.0
H1915 H 0.0728 0.96133 0.06145 0.0
H1916 H 0.99658 0.06211 0.02489 0.0
H1917 H 0.98117 0.90754 0.01266 0.0
H1918 H 0.97973 0.92588 0.03064 0.0
H1919 H 0.02456 0.92112 0.02154 0.0
C1920 C 0.98628 0.00549 0.06373 0.0
C1921 C 0.02002 0.98776 0.06843 0.0
C1922 C 0.97894 0.00991 0.04918 0.0
C1923 C 0.00501 0.99649 0.039 0.0
C1924 C 0.03901 0.97929 0.04363 0.0
H1925 H 0.98846 0.99031 0.94589 0.0
H1926 H 0.01137 0.98556 0.97052 0.0
C1927 C 0.04645 0.97492 0.0582 0.0
C1928 C 0.99645 0.00078 0.02359 0.0
H1929 H 0.97656 0.95029 0.99333 0.0
C1930 C 0.99229 0.03768 0.01798 0.0
C1931 C 0.99102 0.96886 0.01457 0.0
C1932 C 0.99402 0.92856 0.02012 0.0
C1933 C 0.98279 0.04355 1.00359 0.0
C1934 C 0.97648 0.01163 0.99465 0.0
C1935 C 0.98137 0.97473 1.00019 0.0
C1936 C 0.96345 0.01587 0.97965 0.0
C1937 C 0.97998 0.08391 0.99808 0.0
C1938 C 0.9287 0.03405 0.9766 0.0
C1939 C 0.91583 0.03717 0.96255 0.0
C1940 C 0.93748 0.02227 0.95124 0.0
C1941 C 0.97191 0.00342 0.95432 0.0
C1942 C 0.9848 0.00029 0.9684 0.0
H1943 H 0.99639 0.10412 1.00485 0.0
H1944 H 0.99064 0.086 0.98697 0.0
H1945 H 0.94966 0.093 0.99822 0.0
H1946 H 0.91119 0.04534 0.98513 0.0
H1947 H 0.88887 0.05128 0.96052 0.0
H1948 H 0.52402 0.97113 0.44602 0.0
H1949 H 0.53433 0.99535 0.47019 0.0
H1950 H 0.43083 0.9402 0.4841 0.0
H1951 H 0.41984 0.91669 0.45992 0.0
H1952 H 0.44023 0.0172 0.49418 0.0
H1953 H 0.56774 0.92628 0.50392 0.0
H1954 H 0.56902 0.95565 0.48821 0.0
H1955 H 0.53501 0.91746 0.48943 0.0
C1956 C 0.50299 0.96488 0.45411 0.0
C1957 C 0.47078 0.94243 0.45096 0.0
C1958 C 0.50921 0.97831 0.46799 0.0
C1959 C 0.48345 0.96938 0.47896 0.0
C1960 C 0.45106 0.94746 0.4758 0.0
H1961 H 0.50058 0.96378 0.57001 0.0
H1962 H 0.49369 0.95194 0.54449 0.0
C1963 C 0.44492 0.93391 0.46198 0.0
C1964 C 0.49045 0.98189 0.49386 0.0
H1965 H 0.54874 0.96722 0.52252 0.0
C1966 C 0.46412 0.00657 0.50036 0.0
C1967 C 0.52143 0.96763 0.50192 0.0
C1968 C 0.54985 0.94006 0.49561 0.0
C1969 C 0.46776 0.0171 0.51476 0.0
C1970 C 0.49867 0.00273 0.52282 0.0
C1971 C 0.52521 0.97837 0.51628 0.0
C1972 C 0.50272 0.0107 0.53829 0.0
C1973 C 0.43784 0.04246 0.52138 0.0
C1974 C 0.51026 0.04772 0.5433 0.0
C1975 C 0.51432 0.05463 0.55793 0.0
C1976 C 0.51087 0.02461 0.56782 0.0
C1977 C 0.5033 0.98761 0.56272 0.0
C1978 C 0.49944 0.98073 0.54813 0.0
H1979 H 0.41231 0.0455 0.51446 0.0
H1980 H 0.42873 0.03096 0.53187 0.0
H1981 H 0.4501 0.07127 0.52318 0.0
H1982 H 0.51336 0.07118 0.53587 0.0
H1983 H 0.52022 0.08344 0.56149 0.0
loop_
_geom_bond_atom_site_label_1
_geom_bond_atom_site_label_2
_geom_bond_distance
_geom_bond_site_symmetry_2
_ccdc_geom_bond_type
Co0 O3 1.970 . S
Co0 N17 1.989 . S
Co0 O25 1.967 . S
Co0 O32 1.920 . S
Co1 O4 1.966 . S
Co1 N10 2.022 . S
Co1 N18 1.993 . S
Co1 O26 1.941 . S
C2 O3 1.258 . S
C2 O4 1.263 . S
O3 Co0 1.970 . S
O3 C2 1.258 . S
O4 Co1 1.966 . S
O4 C2 1.263 . S
C5 O6 1.235 . S
C5 O32 1.289 . S
O6 C5 1.235 . S
C7 C9 1.400 . S
C7 N10 1.351 . S
C7 C12 1.501 . S
C8 C9 1.387 . S
C8 N11 1.341 . S
C9 C7 1.400 . S
C9 C8 1.387 . S
N10 Co1 2.022 . S
N10 C7 1.351 . S
N10 N11 1.365 . S
N11 C8 1.341 . S
N11 N10 1.365 . S
N11 H31 0.862 . S
C12 C7 1.501 . S
C12 H13 0.961 . S
C12 H14 0.961 . S
C12 H15 0.960 . S
H13 C12 0.961 . S
H14 C12 0.961 . S
H15 C12 0.960 . S
C16 N17 1.342 1_565 S
C16 C20 1.401 . S
C16 C21 1.499 . S
N17 Co0 1.989 . S
N17 C16 1.342 1_545 S
N17 N18 1.388 . S
N18 Co1 1.993 . S
N18 N17 1.388 . S
N18 C19 1.346 1_545 S
C19 N18 1.346 1_565 S
C19 C20 1.396 . S
C19 C29 1.510 . S
C20 C16 1.401 . S
C20 C19 1.396 . S
C21 C16 1.499 . S
C21 H22 0.959 . S
C21 H23 0.960 . S
C21 H24 0.961 . S
H22 C21 0.959 . S
H23 C21 0.960 . S
H24 C21 0.961 . S
O25 Co0 1.967 . S
O25 C33 1.258 . S
O26 Co1 1.941 . S
O26 C33 1.266 . S
H27 C29 0.959 . S
H28 C29 0.961 . S
C29 C19 1.510 . S
C29 H27 0.959 . S
C29 H28 0.961 . S
C29 H30 0.960 . S
H30 C29 0.960 . S
H31 N11 0.862 . S
O32 Co0 1.920 . S
O32 C5 1.289 . S
C33 O25 1.258 . S
C33 O26 1.266 . S
Co34 O37 1.970 . S
Co34 N51 1.989 . S
Co34 O59 1.967 . S
Co34 O66 1.920 . S
Co35 O38 1.966 . S
Co35 N44 2.022 . S
Co35 N52 1.993 . S
Co35 O60 1.941 . S
C36 O37 1.258 . S
C36 O38 1.263 . S
O37 Co34 1.970 . S
O37 C36 1.258 . S
O38 Co35 1.966 . S
O38 C36 1.263 . S
C39 O40 1.235 . S
C39 O66 1.289 . S
O40 C39 1.235 . S
C41 C43 1.400 . S
C41 N44 1.351 . S
C41 C46 1.501 . S
C42 C43 1.387 . S
C42 N45 1.341 . S
C43 C41 1.400 . S
C43 C42 1.387 . S
N44 Co35 2.022 . S
N44 C41 1.351 . S
N44 N45 1.365 . S
N45 C42 1.341 . S
N45 N44 1.365 . S
N45 H65 0.862 . S
C46 C41 1.501 . S
C46 H47 0.961 . S
C46 H48 0.961 . S
C46 H49 0.960 . S
H47 C46 0.961 . S
H48 C46 0.961 . S
H49 C46 0.960 . S
C50 N51 1.342 . S
C50 C54 1.401 . S
C50 C55 1.499 . S
N51 Co34 1.989 . S
N51 C50 1.342 . S
N51 N52 1.388 . S
N52 Co35 1.993 . S
N52 N51 1.388 . S
N52 C53 1.346 . S
C53 N52 1.346 . S
C53 C54 1.396 . S
C53 C63 1.510 . S
C54 C50 1.401 . S
C54 C53 1.396 . S
C55 C50 1.499 . S
C55 H56 0.959 . S
C55 H57 0.960 . S
C55 H58 0.961 . S
H56 C55 0.959 . S
H57 C55 0.960 . S
H58 C55 0.961 . S
O59 Co34 1.967 . S
O59 C67 1.258 . S
O60 Co35 1.941 . S
O60 C67 1.266 . S
H61 C63 0.959 . S
H62 C63 0.961 . S
C63 C53 1.510 . S
C63 H61 0.959 . S
C63 H62 0.961 . S
C63 H64 0.960 . S
H64 C63 0.960 . S
H65 N45 0.862 . S
O66 Co34 1.920 . S
O66 C39 1.289 . S
C67 O59 1.258 . S
C67 O60 1.266 . S
Co68 O71 1.955 1_655 S
Co68 N85 1.989 . S
Co68 O93 1.967 . S
Co68 O100 1.920 . S
Co69 O72 1.966 . S
Co69 N78 2.022 . S
Co69 N86 1.993 . S
Co69 O94 1.941 . S
C70 O71 1.260 . S
C70 O72 1.263 1_455 S
O71 Co68 1.955 1_455 S
O71 C70 1.260 . S
O72 Co69 1.966 . S
O72 C70 1.263 1_655 S
C73 O74 1.235 1_655 S
C73 O100 1.289 . S
O74 C73 1.235 1_455 S
C75 C77 1.400 . S
C75 N78 1.351 . S
C75 C80 1.501 1_655 S
C76 C77 1.387 . S
C76 N79 1.341 . S
C77 C75 1.400 . S
C77 C76 1.387 . S
N78 Co69 2.022 . S
N78 C75 1.351 . S
N78 N79 1.365 . S
N79 C76 1.341 . S
N79 N78 1.365 . S
N79 H99 0.862 . S
C80 C75 1.501 1_455 S
C80 H81 0.961 . S
C80 H82 0.961 . S
C80 H83 0.960 . S
H81 C80 0.961 . S
H82 C80 0.961 . S
H83 C80 0.960 . S
C84 N85 1.342 . S
C84 C88 1.401 . S
C84 C89 1.499 . S
N85 Co68 1.989 . S
N85 C84 1.342 . S
N85 N86 1.388 . S
N86 Co69 1.993 . S
N86 N85 1.388 . S
N86 C87 1.346 . S
C87 N86 1.346 . S
C87 C88 1.396 . S
C87 C97 1.510 . S
C88 C84 1.401 . S
C88 C87 1.396 . S
C89 C84 1.499 . S
C89 H90 0.959 . S
C89 H91 0.949 1_655 S
C89 H92 0.961 . S
H90 C89 0.959 . S
H91 C89 0.949 1_455 S
H92 C89 0.961 . S
O93 Co68 1.967 . S
O93 C101 1.258 . S
O94 Co69 1.941 . S
O94 C101 1.266 . S
H95 C97 0.959 . S
H96 C97 0.961 1_455 S
C97 C87 1.510 . S
C97 H95 0.959 . S
C97 H96 0.961 1_655 S
C97 H98 0.960 . S
H98 C97 0.960 . S
H99 N79 0.862 . S
O100 Co68 1.920 . S
O100 C73 1.289 . S
C101 O93 1.258 . S
C101 O94 1.266 . S
Co102 O105 1.955 1_565 S
Co102 N119 1.989 . S
Co102 O127 1.967 . S
Co102 O134 1.920 . S
Co103 O106 1.966 . S
Co103 N112 2.022 . S
Co103 N120 1.993 . S
Co103 O128 1.941 . S
C104 O105 1.260 . S
C104 O106 1.263 1_545 S
O105 Co102 1.955 1_545 S
O105 C104 1.260 . S
O106 Co103 1.966 . S
O106 C104 1.263 1_565 S
C107 O108 1.235 1_565 S
C107 O134 1.289 . S
O108 C107 1.235 1_545 S
C109 C111 1.400 . S
C109 N112 1.351 . S
C109 C114 1.501 1_565 S
C110 C111 1.387 . S
C110 N113 1.341 . S
C111 C109 1.400 . S
C111 C110 1.387 . S
N112 Co103 2.022 . S
N112 C109 1.351 . S
N112 N113 1.365 . S
N113 C110 1.341 . S
N113 N112 1.365 . S
N113 H133 0.862 . S
C114 C109 1.501 1_545 S
C114 H115 0.961 . S
C114 H116 0.961 . S
C114 H117 0.960 . S
H115 C114 0.961 . S
H116 C114 0.961 . S
H117 C114 0.960 . S
C118 N119 1.342 1_655 S
C118 C122 1.401 . S
C118 C123 1.499 . S
N119 Co102 1.989 . S
N119 C118 1.342 1_455 S
N119 N120 1.388 . S
N120 Co103 1.993 . S
N120 N119 1.388 . S
N120 C121 1.346 1_455 S
C121 N120 1.346 1_655 S
C121 C122 1.396 . S
C121 C131 1.510 . S
C122 C118 1.401 . S
C122 C121 1.396 . S
C123 C118 1.499 . S
C123 H124 0.959 . S
C123 H125 0.948 1_565 S
C123 H126 0.961 . S
H124 C123 0.959 . S
H125 C123 0.948 1_545 S
H126 C123 0.961 . S
O127 Co102 1.967 . S
O127 C135 1.258 . S
O128 Co103 1.941 . S
O128 C135 1.266 . S
H129 C131 0.959 . S
H130 C131 0.961 1_545 S
C131 C121 1.510 . S
C131 H129 0.959 . S
C131 H130 0.961 1_565 S
C131 H132 0.960 . S
H132 C131 0.960 . S
H133 N113 0.862 . S
O134 Co102 1.920 . S
O134 C107 1.289 . S
C135 O127 1.258 . S
C135 O128 1.266 . S
Co136 O139 1.970 . S
Co136 N153 1.989 . S
Co136 O161 1.967 . S
Co136 O168 1.920 . S
Co137 O140 1.966 . S
Co137 N146 2.022 . S
Co137 N154 1.993 . S
Co137 O162 1.941 . S
C138 O139 1.258 . S
C138 O140 1.263 . S
O139 Co136 1.970 . S
O139 C138 1.258 . S
O140 Co137 1.966 . S
O140 C138 1.263 . S
C141 O142 1.235 . S
C141 O168 1.289 . S
O142 C141 1.235 . S
C143 C145 1.400 . S
C143 N146 1.351 . S
C143 C148 1.501 . S
C144 C145 1.387 . S
C144 N147 1.341 . S
C145 C143 1.400 . S
C145 C144 1.387 . S
N146 Co137 2.022 . S
N146 C143 1.351 . S
N146 N147 1.365 . S
N147 C144 1.341 . S
N147 N146 1.365 . S
N147 H167 0.862 . S
C148 C143 1.501 . S
C148 H149 0.961 . S
C148 H150 0.961 . S
C148 H151 0.960 . S
H149 C148 0.961 . S
H150 C148 0.961 . S
H151 C148 0.960 . S
C152 N153 1.342 . S
C152 C156 1.401 . S
C152 C157 1.499 . S
N153 Co136 1.989 . S
N153 C152 1.342 . S
N153 N154 1.388 . S
N154 Co137 1.993 . S
N154 N153 1.388 . S
N154 C155 1.346 . S
C155 N154 1.346 . S
C155 C156 1.396 . S
C155 C165 1.510 . S
C156 C152 1.401 . S
C156 C155 1.396 . S
C157 C152 1.499 . S
C157 H158 0.959 . S
C157 H159 0.960 . S
C157 H160 0.961 . S
H158 C157 0.959 . S
H159 C157 0.960 . S
H160 C157 0.961 . S
O161 Co136 1.967 . S
O161 C169 1.258 . S
O162 Co137 1.941 . S
O162 C169 1.266 . S
H163 C165 0.959 . S
H164 C165 0.961 . S
C165 C155 1.510 . S
C165 H163 0.959 . S
C165 H164 0.961 . S
C165 H166 0.960 . S
H166 C165 0.960 . S
H167 N147 0.862 . S
O168 Co136 1.920 . S
O168 C141 1.289 . S
C169 O161 1.258 . S
C169 O162 1.266 . S
Co170 O173 1.970 . S
Co170 N187 1.989 . S
Co170 O195 1.967 . S
Co170 O202 1.920 . S
Co171 O174 1.966 . S
Co171 N180 2.022 . S
Co171 N188 1.993 . S
Co171 O196 1.941 . S
C172 O173 1.258 . S
C172 O174 1.263 . S
O173 Co170 1.970 . S
O173 C172 1.258 . S
O174 Co171 1.966 . S
O174 C172 1.263 . S
C175 O176 1.235 . S
C175 O202 1.289 . S
O176 C175 1.235 . S
C177 C179 1.400 . S
C177 N180 1.351 . S
C177 C182 1.501 . S
C178 C179 1.387 . S
C178 N181 1.341 . S
C179 C177 1.400 . S
C179 C178 1.387 . S
N180 Co171 2.022 . S
N180 C177 1.351 . S
N180 N181 1.365 . S
N181 C178 1.341 . S
N181 N180 1.365 . S
N181 H201 0.862 . S
C182 C177 1.501 . S
C182 H183 0.961 . S
C182 H184 0.961 . S
C182 H185 0.960 . S
H183 C182 0.961 . S
H184 C182 0.961 . S
H185 C182 0.960 . S
C186 N187 1.342 1_655 S
C186 C190 1.401 . S
C186 C191 1.499 . S
N187 Co170 1.989 . S
N187 C186 1.342 1_455 S
N187 N188 1.388 . S
N188 Co171 1.993 . S
N188 N187 1.388 . S
N188 C189 1.346 1_455 S
C189 N188 1.346 1_655 S
C189 C190 1.396 . S
C189 C199 1.510 . S
C190 C186 1.401 . S
C190 C189 1.396 . S
C191 C186 1.499 . S
C191 H192 0.959 . S
C191 H193 0.960 . S
C191 H194 0.961 . S
H192 C191 0.959 . S
H193 C191 0.960 . S
H194 C191 0.961 . S
O195 Co170 1.967 . S
O195 C203 1.258 . S
O196 Co171 1.941 . S
O196 C203 1.266 . S
H197 C199 0.959 . S
H198 C199 0.961 . S
C199 C189 1.510 . S
C199 H197 0.959 . S
C199 H198 0.961 . S
C199 H200 0.960 . S
H200 C199 0.960 . S
H201 N181 0.862 . S
O202 Co170 1.920 . S
O202 C175 1.289 . S
C203 O195 1.258 . S
C203 O196 1.266 . S
Co204 O207 1.955 1_655 S
Co204 N221 1.989 . S
Co204 O229 1.967 . S
Co204 O236 1.920 . S
Co205 O208 1.966 . S
Co205 N214 2.022 . S
Co205 N222 1.993 . S
Co205 O230 1.941 . S
C206 O207 1.260 . S
C206 O208 1.263 1_455 S
O207 Co204 1.955 1_455 S
O207 C206 1.260 . S
O208 Co205 1.966 . S
O208 C206 1.263 1_655 S
C209 O210 1.235 1_655 S
C209 O236 1.289 . S
O210 C209 1.235 1_455 S
C211 C213 1.400 . S
C211 N214 1.351 . S
C211 C216 1.501 1_655 S
C212 C213 1.387 . S
C212 N215 1.341 . S
C213 C211 1.400 . S
C213 C212 1.387 . S
N214 Co205 2.022 . S
N214 C211 1.351 . S
N214 N215 1.365 . S
N215 C212 1.341 . S
N215 N214 1.365 . S
N215 H235 0.862 . S
C216 C211 1.501 1_455 S
C216 H217 0.961 . S
C216 H218 0.961 . S
C216 H219 0.960 . S
H217 C216 0.961 . S
H218 C216 0.961 . S
H219 C216 0.960 . S
C220 N221 1.342 1_565 S
C220 C224 1.401 . S
C220 C225 1.499 . S
N221 Co204 1.989 . S
N221 C220 1.342 1_545 S
N221 N222 1.388 . S
N222 Co205 1.993 . S
N222 N221 1.388 . S
N222 C223 1.346 1_545 S
C223 N222 1.346 1_565 S
C223 C224 1.396 . S
C223 C233 1.510 . S
C224 C220 1.401 . S
C224 C223 1.396 . S
C225 C220 1.499 . S
C225 H226 0.959 . S
C225 H227 0.948 1_655 S
C225 H228 0.961 . S
H226 C225 0.959 . S
H227 C225 0.948 1_455 S
H228 C225 0.961 . S
O229 Co204 1.967 . S
O229 C237 1.258 . S
O230 Co205 1.941 . S
O230 C237 1.266 . S
H231 C233 0.959 . S
H232 C233 0.961 1_455 S
C233 C223 1.510 . S
C233 H231 0.959 . S
C233 H232 0.961 1_655 S
C233 H234 0.960 . S
H234 C233 0.960 . S
H235 N215 0.862 . S
O236 Co204 1.920 . S
O236 C209 1.289 . S
C237 O229 1.258 . S
C237 O230 1.266 . S
Co238 O241 1.955 1_565 S
Co238 N255 1.989 . S
Co238 O263 1.967 . S
Co238 O270 1.920 . S
Co239 O242 1.966 . S
Co239 N248 2.022 . S
Co239 N256 1.993 . S
Co239 O264 1.941 . S
C240 O241 1.260 . S
C240 O242 1.263 1_545 S
O241 Co238 1.955 1_545 S
O241 C240 1.260 . S
O242 Co239 1.966 . S
O242 C240 1.263 1_565 S
C243 O244 1.235 1_565 S
C243 O270 1.289 . S
O244 C243 1.235 1_545 S
C245 C247 1.400 . S
C245 N248 1.351 . S
C245 C250 1.501 1_565 S
C246 C247 1.387 . S
C246 N249 1.341 . S
C247 C245 1.400 . S
C247 C246 1.387 . S
N248 Co239 2.022 . S
N248 C245 1.351 . S
N248 N249 1.365 . S
N249 C246 1.341 . S
N249 N248 1.365 . S
N249 H269 0.862 . S
C250 C245 1.501 1_545 S
C250 H251 0.961 . S
C250 H252 0.961 . S
C250 H253 0.960 . S
H251 C250 0.961 . S
H252 C250 0.961 . S
H253 C250 0.960 . S
C254 N255 1.342 . S
C254 C258 1.401 . S
C254 C259 1.499 . S
N255 Co238 1.989 . S
N255 C254 1.342 . S
N255 N256 1.388 . S
N256 Co239 1.993 . S
N256 N255 1.388 . S
N256 C257 1.346 . S
C257 N256 1.346 . S
C257 C258 1.396 . S
C257 C267 1.510 . S
C258 C254 1.401 . S
C258 C257 1.396 . S
C259 C254 1.499 . S
C259 H260 0.959 . S
C259 H261 0.949 1_565 S
C259 H262 0.961 . S
H260 C259 0.959 . S
H261 C259 0.949 1_545 S
H262 C259 0.961 . S
O263 Co238 1.967 . S
O263 C271 1.258 . S
O264 Co239 1.941 . S
O264 C271 1.266 . S
H265 C267 0.959 . S
H266 C267 0.961 1_545 S
C267 C257 1.510 . S
C267 H265 0.959 . S
C267 H266 0.961 1_565 S
C267 H268 0.960 . S
H268 C267 0.960 . S
H269 N249 0.862 . S
O270 Co238 1.920 . S
O270 C243 1.289 . S
C271 O263 1.258 . S
C271 O264 1.266 . S
Co272 O275 1.970 . S
Co272 N289 1.989 . S
Co272 O297 1.967 . S
Co272 O304 1.920 . S
Co273 O276 1.966 . S
Co273 N282 2.022 . S
Co273 N290 1.993 . S
Co273 O298 1.941 . S
C274 O275 1.258 . S
C274 O276 1.263 . S
O275 Co272 1.970 . S
O275 C274 1.258 . S
O276 Co273 1.966 . S
O276 C274 1.263 . S
C277 O278 1.235 . S
C277 O304 1.289 . S
O278 C277 1.235 . S
C279 C281 1.400 . S
C279 N282 1.351 . S
C279 C284 1.501 . S
C280 C281 1.387 . S
C280 N283 1.341 . S
C281 C279 1.400 . S
C281 C280 1.387 . S
N282 Co273 2.022 . S
N282 C279 1.351 . S
N282 N283 1.365 . S
N283 C280 1.341 . S
N283 N282 1.365 . S
N283 H303 0.862 . S
C284 C279 1.501 . S
C284 H285 0.961 . S
C284 H286 0.961 . S
C284 H287 0.960 . S
H285 C284 0.961 . S
H286 C284 0.961 . S
H287 C284 0.960 . S
C288 N289 1.342 1_545 S
C288 C292 1.401 . S
C288 C293 1.499 . S
N289 Co272 1.989 . S
N289 C288 1.342 1_565 S
N289 N290 1.388 . S
N290 Co273 1.993 . S
N290 N289 1.388 . S
N290 C291 1.346 1_565 S
C291 N290 1.346 1_545 S
C291 C292 1.396 . S
C291 C301 1.510 . S
C292 C288 1.401 . S
C292 C291 1.396 . S
C293 C288 1.499 . S
C293 H294 0.959 . S
C293 H295 0.960 . S
C293 H296 0.961 . S
H294 C293 0.959 . S
H295 C293 0.960 . S
H296 C293 0.961 . S
O297 Co272 1.967 . S
O297 C305 1.258 . S
O298 Co273 1.941 . S
O298 C305 1.266 . S
H299 C301 0.959 . S
H300 C301 0.961 . S
C301 C291 1.510 . S
C301 H299 0.959 . S
C301 H300 0.961 . S
C301 H302 0.960 . S
H302 C301 0.960 . S
H303 N283 0.862 . S
O304 Co272 1.920 . S
O304 C277 1.289 . S
C305 O297 1.258 . S
C305 O298 1.266 . S
Co306 O309 1.970 . S
Co306 N323 1.989 . S
Co306 O331 1.967 . S
Co306 O338 1.920 . S
Co307 O310 1.966 . S
Co307 N316 2.022 . S
Co307 N324 1.993 . S
Co307 O332 1.941 . S
C308 O309 1.258 . S
C308 O310 1.263 . S
O309 Co306 1.970 . S
O309 C308 1.258 . S
O310 Co307 1.966 . S
O310 C308 1.263 . S
C311 O312 1.235 . S
C311 O338 1.289 . S
O312 C311 1.235 . S
C313 C315 1.400 . S
C313 N316 1.351 . S
C313 C318 1.501 . S
C314 C315 1.387 . S
C314 N317 1.341 . S
C315 C313 1.400 . S
C315 C314 1.387 . S
N316 Co307 2.022 . S
N316 C313 1.351 . S
N316 N317 1.365 . S
N317 C314 1.341 . S
N317 N316 1.365 . S
N317 H337 0.862 . S
C318 C313 1.501 . S
C318 H319 0.961 . S
C318 H320 0.961 . S
C318 H321 0.960 . S
H319 C318 0.961 . S
H320 C318 0.961 . S
H321 C318 0.960 . S
C322 N323 1.342 . S
C322 C326 1.401 . S
C322 C327 1.499 . S
N323 Co306 1.989 . S
N323 C322 1.342 . S
N323 N324 1.388 . S
N324 Co307 1.993 . S
N324 N323 1.388 . S
N324 C325 1.346 . S
C325 N324 1.346 . S
C325 C326 1.396 . S
C325 C335 1.510 . S
C326 C322 1.401 . S
C326 C325 1.396 . S
C327 C322 1.499 . S
C327 H328 0.959 . S
C327 H329 0.960 . S
C327 H330 0.961 . S
H328 C327 0.959 . S
H329 C327 0.960 . S
H330 C327 0.961 . S
O331 Co306 1.967 . S
O331 C339 1.258 . S
O332 Co307 1.941 . S
O332 C339 1.266 . S
H333 C335 0.959 . S
H334 C335 0.961 . S
C335 C325 1.510 . S
C335 H333 0.959 . S
C335 H334 0.961 . S
C335 H336 0.960 . S
H336 C335 0.960 . S
H337 N317 0.862 . S
O338 Co306 1.920 . S
O338 C311 1.289 . S
C339 O331 1.258 . S
C339 O332 1.266 . S
Co340 O343 1.970 . S
Co340 N357 1.989 . S
Co340 O365 1.967 . S
Co340 O372 1.920 . S
Co341 O344 1.966 . S
Co341 N350 2.022 . S
Co341 N358 1.993 . S
Co341 O366 1.941 . S
C342 O343 1.258 . S
C342 O344 1.263 . S
O343 Co340 1.970 . S
O343 C342 1.258 . S
O344 Co341 1.966 . S
O344 C342 1.263 . S
C345 O346 1.235 . S
C345 O372 1.289 . S
O346 C345 1.235 . S
C347 C349 1.400 . S
C347 N350 1.351 . S
C347 C352 1.501 . S
C348 C349 1.387 . S
C348 N351 1.341 . S
C349 C347 1.400 . S
C349 C348 1.387 . S
N350 Co341 2.022 . S
N350 C347 1.351 . S
N350 N351 1.365 . S
N351 C348 1.341 . S
N351 N350 1.365 . S
N351 H371 0.862 . S
C352 C347 1.501 . S
C352 H353 0.961 . S
C352 H354 0.961 1_455 S
C352 H355 0.960 . S
H353 C352 0.961 . S
H354 C352 0.961 1_655 S
H355 C352 0.960 . S
C356 N357 1.342 . S
C356 C360 1.401 . S
C356 C361 1.499 . S
N357 Co340 1.989 . S
N357 C356 1.342 . S
N357 N358 1.388 . S
N358 Co341 1.993 . S
N358 N357 1.388 . S
N358 C359 1.346 . S
C359 N358 1.346 . S
C359 C360 1.396 . S
C359 C369 1.510 . S
C360 C356 1.401 . S
C360 C359 1.396 . S
C361 C356 1.499 . S
C361 H362 0.959 . S
C361 H363 0.960 . S
C361 H364 0.961 . S
H362 C361 0.959 . S
H363 C361 0.960 . S
H364 C361 0.961 . S
O365 Co340 1.967 . S
O365 C373 1.258 . S
O366 Co341 1.941 . S
O366 C373 1.266 . S
H367 C369 0.959 . S
H368 C369 0.961 . S
C369 C359 1.510 . S
C369 H367 0.959 . S
C369 H368 0.961 . S
C369 H370 0.960 . S
H370 C369 0.960 . S
H371 N351 0.862 . S
O372 Co340 1.920 . S
O372 C345 1.289 . S
C373 O365 1.258 . S
C373 O366 1.266 . S
Co374 O377 1.970 . S
Co374 N391 1.989 . S
Co374 O399 1.967 . S
Co374 O406 1.920 . S
Co375 O378 1.966 . S
Co375 N384 2.022 . S
Co375 N392 1.993 . S
Co375 O400 1.941 . S
C376 O377 1.258 . S
C376 O378 1.263 . S
O377 Co374 1.970 . S
O377 C376 1.258 . S
O378 Co375 1.966 . S
O378 C376 1.263 . S
C379 O380 1.235 . S
C379 O406 1.289 . S
O380 C379 1.235 . S
C381 C383 1.400 . S
C381 N384 1.351 . S
C381 C386 1.501 . S
C382 C383 1.387 . S
C382 N385 1.341 . S
C383 C381 1.400 . S
C383 C382 1.387 . S
N384 Co375 2.022 . S
N384 C381 1.351 . S
N384 N385 1.365 . S
N385 C382 1.341 . S
N385 N384 1.365 . S
N385 H405 0.862 . S
C386 C381 1.501 . S
C386 H387 0.961 . S
C386 H388 0.961 1_545 S
C386 H389 0.960 . S
H387 C386 0.961 . S
H388 C386 0.961 1_565 S
H389 C386 0.960 . S
C390 N391 1.342 1_455 S
C390 C394 1.401 . S
C390 C395 1.499 . S
N391 Co374 1.989 . S
N391 C390 1.342 1_655 S
N391 N392 1.388 . S
N392 Co375 1.993 . S
N392 N391 1.388 . S
N392 C393 1.346 1_655 S
C393 N392 1.346 1_455 S
C393 C394 1.396 . S
C393 C403 1.510 . S
C394 C390 1.401 . S
C394 C393 1.396 . S
C395 C390 1.499 . S
C395 H396 0.959 . S
C395 H397 0.960 . S
C395 H398 0.961 . S
H396 C395 0.959 . S
H397 C395 0.960 . S
H398 C395 0.961 . S
O399 Co374 1.967 . S
O399 C407 1.258 . S
O400 Co375 1.941 . S
O400 C407 1.266 . S
H401 C403 0.959 . S
H402 C403 0.961 . S
C403 C393 1.510 . S
C403 H401 0.959 . S
C403 H402 0.961 . S
C403 H404 0.960 . S
H404 C403 0.960 . S
H405 N385 0.862 . S
O406 Co374 1.920 . S
O406 C379 1.289 . S
C407 O399 1.258 . S
C407 O400 1.266 . S
Co408 O411 1.970 . S
Co408 N425 1.989 . S
Co408 O433 1.967 . S
Co408 O440 1.920 . S
Co409 O412 1.966 . S
Co409 N418 2.022 . S
Co409 N426 1.993 . S
Co409 O434 1.941 . S
C410 O411 1.258 . S
C410 O412 1.263 . S
O411 Co408 1.970 . S
O411 C410 1.258 . S
O412 Co409 1.966 . S
O412 C410 1.263 . S
C413 O414 1.235 . S
C413 O440 1.289 . S
O414 C413 1.235 . S
C415 C417 1.400 . S
C415 N418 1.351 . S
C415 C420 1.501 . S
C416 C417 1.387 . S
C416 N419 1.341 . S
C417 C415 1.400 . S
C417 C416 1.387 . S
N418 Co409 2.022 . S
N418 C415 1.351 . S
N418 N419 1.365 . S
N419 C416 1.341 . S
N419 N418 1.365 . S
N419 H439 0.862 . S
C420 C415 1.501 . S
C420 H421 0.961 . S
C420 H422 0.961 . S
C420 H423 0.960 . S
H421 C420 0.961 . S
H422 C420 0.961 . S
H423 C420 0.960 . S
C424 N425 1.342 . S
C424 C428 1.401 . S
C424 C429 1.499 . S
N425 Co408 1.989 . S
N425 C424 1.342 . S
N425 N426 1.388 . S
N426 Co409 1.993 . S
N426 N425 1.388 . S
N426 C427 1.346 . S
C427 N426 1.346 . S
C427 C428 1.396 . S
C427 C437 1.510 . S
C428 C424 1.401 . S
C428 C427 1.396 . S
C429 C424 1.499 . S
C429 H430 0.959 . S
C429 H431 0.960 . S
C429 H432 0.961 . S
H430 C429 0.959 . S
H431 C429 0.960 . S
H432 C429 0.961 . S
O433 Co408 1.967 . S
O433 C441 1.258 . S
O434 Co409 1.941 . S
O434 C441 1.266 . S
H435 C437 0.959 . S
H436 C437 0.961 . S
C437 C427 1.510 . S
C437 H435 0.959 . S
C437 H436 0.961 . S
C437 H438 0.960 . S
H438 C437 0.960 . S
H439 N419 0.862 . S
O440 Co408 1.920 . S
O440 C413 1.289 . S
C441 O433 1.258 . S
C441 O434 1.266 . S
Co442 O445 1.970 . S
Co442 N459 1.989 . S
Co442 O467 1.967 . S
Co442 O474 1.920 . S
Co443 O446 1.966 . S
Co443 N452 2.022 . S
Co443 N460 1.993 . S
Co443 O468 1.941 . S
C444 O445 1.258 . S
C444 O446 1.263 . S
O445 Co442 1.970 . S
O445 C444 1.258 . S
O446 Co443 1.966 . S
O446 C444 1.263 . S
C447 O448 1.235 . S
C447 O474 1.289 . S
O448 C447 1.235 . S
C449 C451 1.400 . S
C449 N452 1.351 . S
C449 C454 1.501 . S
C450 C451 1.387 . S
C450 N453 1.341 . S
C451 C449 1.400 . S
C451 C450 1.387 . S
N452 Co443 2.022 . S
N452 C449 1.351 . S
N452 N453 1.365 . S
N453 C450 1.341 . S
N453 N452 1.365 . S
N453 H473 0.862 . S
C454 C449 1.501 . S
C454 H455 0.961 . S
C454 H456 0.961 . S
C454 H457 0.960 . S
H455 C454 0.961 . S
H456 C454 0.961 . S
H457 C454 0.960 . S
C458 N459 1.342 1_455 S
C458 C462 1.401 . S
C458 C463 1.499 . S
N459 Co442 1.989 . S
N459 C458 1.342 1_655 S
N459 N460 1.388 . S
N460 Co443 1.993 . S
N460 N459 1.388 . S
N460 C461 1.346 1_655 S
C461 N460 1.346 1_455 S
C461 C462 1.396 . S
C461 C471 1.510 . S
C462 C458 1.401 . S
C462 C461 1.396 . S
C463 C458 1.499 . S
C463 H464 0.959 . S
C463 H465 0.960 . S
C463 H466 0.961 . S
H464 C463 0.959 . S
H465 C463 0.960 . S
H466 C463 0.961 . S
O467 Co442 1.967 . S
O467 C475 1.258 . S
O468 Co443 1.941 . S
O468 C475 1.266 . S
H469 C471 0.959 . S
H470 C471 0.961 . S
C471 C461 1.510 . S
C471 H469 0.959 . S
C471 H470 0.961 . S
C471 H472 0.960 . S
H472 C471 0.960 . S
H473 N453 0.862 . S
O474 Co442 1.920 . S
O474 C447 1.289 . S
C475 O467 1.258 . S
C475 O468 1.266 . S
Co476 O479 1.970 . S
Co476 N493 1.989 . S
Co476 O501 1.967 . S
Co476 O508 1.920 . S
Co477 O480 1.966 . S
Co477 N486 2.022 . S
Co477 N494 1.993 . S
Co477 O502 1.941 . S
C478 O479 1.258 . S
C478 O480 1.263 . S
O479 Co476 1.970 . S
O479 C478 1.258 . S
O480 Co477 1.966 . S
O480 C478 1.263 . S
C481 O482 1.235 . S
C481 O508 1.289 . S
O482 C481 1.235 . S
C483 C485 1.400 . S
C483 N486 1.351 . S
C483 C488 1.501 . S
C484 C485 1.387 . S
C484 N487 1.341 . S
C485 C483 1.400 . S
C485 C484 1.387 . S
N486 Co477 2.022 . S
N486 C483 1.351 . S
N486 N487 1.365 . S
N487 C484 1.341 . S
N487 N486 1.365 . S
N487 H507 0.862 . S
C488 C483 1.501 . S
C488 H489 0.961 . S
C488 H490 0.961 1_455 S
C488 H491 0.960 . S
H489 C488 0.961 . S
H490 C488 0.961 1_655 S
H491 C488 0.960 . S
C492 N493 1.342 1_545 S
C492 C496 1.401 . S
C492 C497 1.499 . S
N493 Co476 1.989 . S
N493 C492 1.342 1_565 S
N493 N494 1.388 . S
N494 Co477 1.993 . S
N494 N493 1.388 . S
N494 C495 1.346 1_565 S
C495 N494 1.346 1_545 S
C495 C496 1.396 . S
C495 C505 1.510 . S
C496 C492 1.401 . S
C496 C495 1.396 . S
C497 C492 1.499 . S
C497 H498 0.959 . S
C497 H499 0.960 . S
C497 H500 0.961 . S
H498 C497 0.959 . S
H499 C497 0.960 . S
H500 C497 0.961 . S
O501 Co476 1.967 . S
O501 C509 1.258 . S
O502 Co477 1.941 . S
O502 C509 1.266 . S
H503 C505 0.959 . S
H504 C505 0.961 . S
C505 C495 1.510 . S
C505 H503 0.959 . S
C505 H504 0.961 . S
C505 H506 0.960 . S
H506 C505 0.960 . S
H507 N487 0.862 . S
O508 Co476 1.920 . S
O508 C481 1.289 . S
C509 O501 1.258 . S
C509 O502 1.266 . S
Co510 O513 1.970 . S
Co510 N527 1.989 . S
Co510 O535 1.967 . S
Co510 O542 1.920 . S
Co511 O514 1.966 . S
Co511 N520 2.022 . S
Co511 N528 1.993 . S
Co511 O536 1.941 . S
C512 O513 1.258 . S
C512 O514 1.263 . S
O513 Co510 1.970 . S
O513 C512 1.258 . S
O514 Co511 1.966 . S
O514 C512 1.263 . S
C515 O516 1.235 . S
C515 O542 1.289 . S
O516 C515 1.235 . S
C517 C519 1.400 . S
C517 N520 1.351 . S
C517 C522 1.501 . S
C518 C519 1.387 . S
C518 N521 1.341 . S
C519 C517 1.400 . S
C519 C518 1.387 . S
N520 Co511 2.022 . S
N520 C517 1.351 . S
N520 N521 1.365 . S
N521 C518 1.341 . S
N521 N520 1.365 . S
N521 H541 0.862 . S
C522 C517 1.501 . S
C522 H523 0.961 . S
C522 H524 0.961 1_545 S
C522 H525 0.960 . S
H523 C522 0.961 . S
H524 C522 0.961 1_565 S
H525 C522 0.960 . S
C526 N527 1.342 . S
C526 C530 1.401 . S
C526 C531 1.499 . S
N527 Co510 1.989 . S
N527 C526 1.342 . S
N527 N528 1.388 . S
N528 Co511 1.993 . S
N528 N527 1.388 . S
N528 C529 1.346 . S
C529 N528 1.346 . S
C529 C530 1.396 . S
C529 C539 1.510 . S
C530 C526 1.401 . S
C530 C529 1.396 . S
C531 C526 1.499 . S
C531 H532 0.959 . S
C531 H533 0.960 . S
C531 H534 0.961 . S
H532 C531 0.959 . S
H533 C531 0.960 . S
H534 C531 0.961 . S
O535 Co510 1.967 . S
O535 C543 1.258 . S
O536 Co511 1.941 . S
O536 C543 1.266 . S
H537 C539 0.959 . S
H538 C539 0.961 . S
C539 C529 1.510 . S
C539 H537 0.959 . S
C539 H538 0.961 . S
C539 H540 0.960 . S
H540 C539 0.960 . S
H541 N521 0.862 . S
O542 Co510 1.920 . S
O542 C515 1.289 . S
C543 O535 1.258 . S
C543 O536 1.266 . S
H544 C552 0.929 . S
H545 C554 0.930 . S
H546 C556 0.930 . S
H547 C559 0.929 . S
H548 C562 0.930 . S
H549 C564 0.960 . S
H550 C564 0.960 . S
H551 C564 0.960 . S
C552 H544 0.929 . S
C552 C553 1.377 . S
C552 C554 1.384 . S
C553 C552 1.377 . S
C553 C559 1.390 . S
C554 H545 0.930 . S
C554 C552 1.384 . S
C554 C555 1.372 . S
C555 C554 1.372 . S
C555 C556 1.400 . S
C555 C560 1.490 . S
C556 H546 0.930 . S
C556 C555 1.400 . S
C556 C559 1.386 . S
H557 C573 0.930 . S
H558 C574 0.932 . S
C559 H547 0.929 . S
C559 C553 1.390 . S
C559 C556 1.386 . S
C560 C555 1.490 . S
C560 C562 1.395 1_545 S
C560 C563 1.403 . S
H561 C567 0.930 . S
C562 H548 0.930 . S
C562 C560 1.395 1_565 S
C562 C565 1.403 . S
C563 C560 1.403 . S
C563 C564 1.524 . S
C563 C567 1.400 . S
C564 H549 0.960 . S
C564 H550 0.960 . S
C564 H551 0.960 . S
C564 C563 1.524 . S
C565 C562 1.403 . S
C565 C566 1.392 1_565 S
C565 C569 1.495 . S
C566 C565 1.392 1_545 S
C566 C567 1.385 . S
C566 C568 1.477 1_545 S
C567 H561 0.930 . S
C567 C563 1.400 . S
C567 C566 1.385 . S
C568 C566 1.477 1_565 S
C568 C570 1.382 . S
C568 C574 1.382 1_565 S
C569 C565 1.495 . S
C569 H575 0.959 . S
C569 H576 0.961 . S
C569 H577 0.960 . S
C570 C568 1.382 . S
C570 C571 1.394 . S
C570 H578 0.930 . S
C571 C570 1.394 . S
C571 C572 1.383 . S
C571 H579 0.929 . S
C572 C571 1.383 . S
C572 C573 1.377 . S
C573 H557 0.930 . S
C573 C572 1.377 . S
C573 C574 1.379 1_565 S
C574 H558 0.932 . S
C574 C568 1.382 1_545 S
C574 C573 1.379 1_545 S
H575 C569 0.959 . S
H576 C569 0.961 . S
H577 C569 0.960 . S
H578 C570 0.930 . S
H579 C571 0.929 . S
H580 C588 0.929 . S
H581 C590 0.930 . S
H582 C592 0.930 . S
H583 C595 0.929 . S
H584 C598 0.930 . S
H585 C600 0.960 . S
H586 C600 0.960 . S
H587 C600 0.960 . S
C588 H580 0.929 . S
C588 C589 1.377 . S
C588 C590 1.384 . S
C589 C588 1.377 . S
C589 C595 1.390 . S
C590 H581 0.930 . S
C590 C588 1.384 . S
C590 C591 1.372 . S
C591 C590 1.372 . S
C591 C592 1.400 . S
C591 C596 1.490 . S
C592 H582 0.930 . S
C592 C591 1.400 . S
C592 C595 1.386 . S
H593 C609 0.930 . S
H594 C610 0.931 . S
C595 H583 0.929 . S
C595 C589 1.390 . S
C595 C592 1.386 . S
C596 C591 1.490 . S
C596 C598 1.395 . S
C596 C599 1.403 . S
H597 C603 0.930 . S
C598 H584 0.930 . S
C598 C596 1.395 . S
C598 C601 1.403 . S
C599 C596 1.403 . S
C599 C600 1.524 . S
C599 C603 1.400 . S
C600 H585 0.960 . S
C600 H586 0.960 . S
C600 H587 0.960 . S
C600 C599 1.524 . S
C601 C598 1.403 . S
C601 C602 1.392 . S
C601 C605 1.495 . S
C602 C601 1.392 . S
C602 C603 1.385 . S
C602 C604 1.478 . S
C603 H597 0.930 . S
C603 C599 1.400 . S
C603 C602 1.385 . S
C604 C602 1.478 . S
C604 C606 1.381 . S
C604 C610 1.383 . S
C605 C601 1.495 . S
C605 H611 0.959 . S
C605 H612 0.961 . S
C605 H613 0.960 . S
C606 C604 1.381 . S
C606 C607 1.394 . S
C606 H614 0.930 . S
C607 C606 1.394 . S
C607 C608 1.383 . S
C607 H615 0.929 . S
C608 C607 1.383 . S
C608 C609 1.377 . S
C609 H593 0.930 . S
C609 C608 1.377 . S
C609 C610 1.379 . S
C610 H594 0.931 . S
C610 C604 1.383 . S
C610 C609 1.379 . S
H611 C605 0.959 . S
H612 C605 0.961 . S
H613 C605 0.960 . S
H614 C606 0.930 . S
H615 C607 0.929 . S
H616 C624 0.929 . S
H617 C626 0.930 . S
H618 C628 0.930 . S
H619 C631 0.929 . S
H620 C634 0.930 . S
H621 C636 0.960 . S
H622 C636 0.960 . S
H623 C636 0.960 . S
C624 H616 0.929 . S
C624 C625 1.377 . S
C624 C626 1.384 . S
C625 C624 1.377 . S
C625 C631 1.390 1_655 S
C626 H617 0.930 . S
C626 C624 1.384 . S
C626 C627 1.372 1_655 S
C627 C626 1.372 1_455 S
C627 C628 1.400 . S
C627 C632 1.490 . S
C628 H618 0.930 . S
C628 C627 1.400 . S
C628 C631 1.386 . S
H629 C645 0.930 . S
H630 C646 0.931 . S
C631 H619 0.929 . S
C631 C625 1.390 1_455 S
C631 C628 1.386 . S
C632 C627 1.490 . S
C632 C634 1.395 1_455 S
C632 C635 1.403 . S
H633 C639 0.930 . S
C634 H620 0.930 . S
C634 C632 1.395 1_655 S
C634 C637 1.403 1_655 S
C635 C632 1.403 . S
C635 C636 1.524 . S
C635 C639 1.400 . S
C636 H621 0.960 . S
C636 H622 0.960 . S
C636 H623 0.960 . S
C636 C635 1.524 . S
C637 C634 1.403 1_455 S
C637 C638 1.392 . S
C637 C641 1.495 1_455 S
C638 C637 1.392 . S
C638 C639 1.385 . S
C638 C640 1.478 . S
C639 H633 0.930 . S
C639 C635 1.400 . S
C639 C638 1.385 . S
C640 C638 1.478 . S
C640 C642 1.381 . S
C640 C646 1.383 . S
C641 C637 1.495 1_655 S
C641 H647 0.959 . S
C641 H648 0.961 1_655 S
C641 H649 0.960 . S
C642 C640 1.381 . S
C642 C643 1.394 . S
C642 H650 0.930 1_455 S
C643 C642 1.394 . S
C643 C644 1.383 . S
C643 H651 0.929 1_455 S
C644 C643 1.383 . S
C644 C645 1.377 . S
C645 H629 0.930 . S
C645 C644 1.377 . S
C645 C646 1.379 . S
C646 H630 0.931 . S
C646 C640 1.383 . S
C646 C645 1.379 . S
H647 C641 0.959 . S
H648 C641 0.961 1_455 S
H649 C641 0.960 . S
H650 C642 0.930 1_655 S
H651 C643 0.929 1_655 S
H652 C660 0.929 . S
H653 C662 0.930 . S
H654 C664 0.930 . S
H655 C667 0.929 . S
H656 C670 0.930 . S
H657 C672 0.960 . S
H658 C672 0.960 . S
H659 C672 0.960 . S
C660 H652 0.929 . S
C660 C661 1.377 1_545 S
C660 C662 1.384 . S
C661 C660 1.377 1_565 S
C661 C667 1.390 . S
C662 H653 0.930 . S
C662 C660 1.384 . S
C662 C663 1.372 . S
C663 C662 1.372 . S
C663 C664 1.400 1_545 S
C663 C668 1.490 . S
C664 H654 0.930 . S
C664 C663 1.400 1_565 S
C664 C667 1.386 . S
H665 C681 0.930 . S
H666 C682 0.931 1_565 S
C667 H655 0.929 . S
C667 C661 1.390 . S
C667 C664 1.386 . S
C668 C663 1.490 . S
C668 C670 1.395 1_455 S
C668 C671 1.403 . S
H669 C675 0.930 . S
C670 H656 0.930 . S
C670 C668 1.395 1_655 S
C670 C673 1.403 . S
C671 C668 1.403 . S
C671 C672 1.524 . S
C671 C675 1.400 . S
C672 H657 0.960 . S
C672 H658 0.960 . S
C672 H659 0.960 . S
C672 C671 1.524 . S
C673 C670 1.403 . S
C673 C674 1.392 1_655 S
C673 C677 1.495 . S
C674 C673 1.392 1_455 S
C674 C675 1.385 . S
C674 C676 1.474 1_455 S
C675 H669 0.930 . S
C675 C671 1.400 . S
C675 C674 1.385 . S
C676 C674 1.474 1_655 S
C676 C678 1.390 . S
C676 C682 1.377 1_655 S
C677 C673 1.495 . S
C677 H683 0.959 . S
C677 H684 0.943 1_545 S
C677 H685 0.960 . S
C678 C676 1.390 . S
C678 C679 1.394 . S
C678 H686 0.930 . S
C679 C678 1.394 . S
C679 C680 1.383 . S
C679 H687 0.929 . S
C680 C679 1.383 . S
C680 C681 1.377 1_655 S
C681 H665 0.930 . S
C681 C680 1.377 1_455 S
C681 C682 1.379 . S
C682 H666 0.931 1_545 S
C682 C676 1.377 1_455 S
C682 C681 1.379 . S
H683 C677 0.959 . S
H684 C677 0.943 1_565 S
H685 C677 0.960 . S
H686 C678 0.930 . S
H687 C679 0.929 . S
H688 C696 0.929 . S
H689 C698 0.930 1_545 S
H690 C700 0.930 . S
H691 C703 0.929 . S
H692 C706 0.930 . S
H693 C708 0.960 . S
H694 C708 0.960 . S
H695 C708 0.960 . S
C696 H688 0.929 . S
C696 C697 1.377 . S
C696 C698 1.384 . S
C697 C696 1.377 . S
C697 C703 1.390 . S
C698 H689 0.930 1_565 S
C698 C696 1.384 . S
C698 C699 1.372 . S
C699 C698 1.372 . S
C699 C700 1.400 . S
C699 C704 1.490 . S
C700 H690 0.930 . S
C700 C699 1.400 . S
C700 C703 1.386 . S
H701 C717 0.930 1_565 S
H702 C718 0.931 . S
C703 H691 0.929 . S
C703 C697 1.390 . S
C703 C700 1.386 . S
C704 C699 1.490 . S
C704 C706 1.395 1_565 S
C704 C707 1.403 . S
H705 C711 0.930 . S
C706 H692 0.930 . S
C706 C704 1.395 1_545 S
C706 C709 1.403 . S
C707 C704 1.403 . S
C707 C708 1.524 . S
C707 C711 1.400 . S
C708 H693 0.960 . S
C708 H694 0.960 . S
C708 H695 0.960 . S
C708 C707 1.524 . S
C709 C706 1.403 . S
C709 C710 1.392 . S
C709 C713 1.495 . S
C710 C709 1.392 . S
C710 C711 1.385 1_545 S
C710 C712 1.478 . S
C711 H705 0.930 . S
C711 C707 1.400 . S
C711 C710 1.385 1_565 S
C712 C710 1.478 . S
C712 C714 1.381 . S
C712 C718 1.383 1_545 S
C713 C709 1.495 . S
C713 H719 0.959 . S
C713 H720 0.961 . S
C713 H721 0.960 . S
C714 C712 1.381 . S
C714 C715 1.394 . S
C714 H722 0.930 . S
C715 C714 1.394 . S
C715 C716 1.383 . S
C715 H723 0.929 . S
C716 C715 1.383 . S
C716 C717 1.377 . S
C717 H701 0.930 1_545 S
C717 C716 1.377 . S
C717 C718 1.379 1_545 S
C718 H702 0.931 . S
C718 C712 1.383 1_565 S
C718 C717 1.379 1_565 S
H719 C713 0.959 . S
H720 C713 0.961 . S
H721 C713 0.960 . S
H722 C714 0.930 . S
H723 C715 0.929 . S
H724 C732 0.929 . S
H725 C734 0.930 . S
H726 C736 0.930 . S
H727 C739 0.929 . S
H728 C742 0.930 . S
H729 C744 0.960 . S
H730 C744 0.960 . S
H731 C744 0.960 . S
C732 H724 0.929 . S
C732 C733 1.377 . S
C732 C734 1.384 . S
C733 C732 1.377 . S
C733 C739 1.390 . S
C734 H725 0.930 . S
C734 C732 1.384 . S
C734 C735 1.372 . S
C735 C734 1.372 . S
C735 C736 1.400 . S
C735 C740 1.490 . S
C736 H726 0.930 . S
C736 C735 1.400 . S
C736 C739 1.386 . S
H737 C753 0.930 . S
H738 C754 0.931 . S
C739 H727 0.929 . S
C739 C733 1.390 . S
C739 C736 1.386 . S
C740 C735 1.490 . S
C740 C742 1.395 . S
C740 C743 1.403 . S
H741 C747 0.930 . S
C742 H728 0.930 . S
C742 C740 1.395 . S
C742 C745 1.403 . S
C743 C740 1.403 . S
C743 C744 1.524 . S
C743 C747 1.400 . S
C744 H729 0.960 . S
C744 H730 0.960 . S
C744 H731 0.960 . S
C744 C743 1.524 . S
C745 C742 1.403 . S
C745 C746 1.392 . S
C745 C749 1.495 . S
C746 C745 1.392 . S
C746 C747 1.385 . S
C746 C748 1.478 . S
C747 H741 0.930 . S
C747 C743 1.400 . S
C747 C746 1.385 . S
C748 C746 1.478 . S
C748 C750 1.381 . S
C748 C754 1.383 . S
C749 C745 1.495 . S
C749 H755 0.959 . S
C749 H756 0.961 . S
C749 H757 0.960 . S
C750 C748 1.381 . S
C750 C751 1.394 . S
C750 H758 0.930 . S
C751 C750 1.394 . S
C751 C752 1.383 . S
C751 H759 0.929 . S
C752 C751 1.383 . S
C752 C753 1.377 . S
C753 H737 0.930 . S
C753 C752 1.377 . S
C753 C754 1.379 . S
C754 H738 0.931 . S
C754 C748 1.383 . S
C754 C753 1.379 . S
H755 C749 0.959 . S
H756 C749 0.961 . S
H757 C749 0.960 . S
H758 C750 0.930 . S
H759 C751 0.929 . S
H760 C768 0.929 . S
H761 C770 0.930 . S
H762 C772 0.930 . S
H763 C775 0.929 1_655 S
H764 C778 0.930 . S
H765 C780 0.960 . S
H766 C780 0.960 . S
H767 C780 0.960 . S
C768 H760 0.929 . S
C768 C769 1.377 . S
C768 C770 1.384 . S
C769 C768 1.377 . S
C769 C775 1.390 . S
C770 H761 0.930 . S
C770 C768 1.384 . S
C770 C771 1.372 . S
C771 C770 1.372 . S
C771 C772 1.400 1_455 S
C771 C776 1.489 1_455 S
C772 H762 0.930 . S
C772 C771 1.400 1_655 S
C772 C775 1.386 1_655 S
H773 C789 0.930 . S
H774 C790 0.931 . S
C775 H763 0.929 1_455 S
C775 C769 1.390 . S
C775 C772 1.386 1_455 S
C776 C771 1.489 1_655 S
C776 C778 1.392 1_655 S
C776 C779 1.406 . S
H777 C783 0.930 . S
C778 H764 0.930 . S
C778 C776 1.392 1_455 S
C778 C781 1.403 . S
C779 C776 1.406 . S
C779 C780 1.524 . S
C779 C783 1.400 . S
C780 H765 0.960 . S
C780 H766 0.960 . S
C780 H767 0.960 . S
C780 C779 1.524 . S
C781 C778 1.403 . S
C781 C782 1.392 1_455 S
C781 C785 1.495 . S
C782 C781 1.392 1_655 S
C782 C783 1.385 . S
C782 C784 1.478 . S
C783 H777 0.930 . S
C783 C779 1.400 . S
C783 C782 1.385 . S
C784 C782 1.478 . S
C784 C786 1.381 . S
C784 C790 1.383 . S
C785 C781 1.495 . S
C785 H791 0.959 . S
C785 H792 0.961 . S
C785 H793 0.960 . S
C786 C784 1.381 . S
C786 C787 1.394 . S
C786 H794 0.932 1_655 S
C787 C786 1.394 . S
C787 C788 1.383 . S
C787 H795 0.929 . S
C788 C787 1.383 . S
C788 C789 1.377 . S
C789 H773 0.930 . S
C789 C788 1.377 . S
C789 C790 1.379 . S
C790 H774 0.931 . S
C790 C784 1.383 . S
C790 C789 1.379 . S
H791 C785 0.959 . S
H792 C785 0.961 . S
H793 C785 0.960 . S
H794 C786 0.932 1_455 S
H795 C787 0.929 . S
H796 C804 0.929 1_655 S
H797 C806 0.930 . S
H798 C808 0.930 1_545 S
H799 C811 0.929 1_545 S
H800 C814 0.930 . S
H801 C816 0.960 . S
H802 C816 0.960 . S
H803 C816 0.960 . S
C804 H796 0.929 1_455 S
C804 C805 1.377 . S
C804 C806 1.384 1_455 S
C805 C804 1.377 . S
C805 C811 1.390 . S
C806 H797 0.930 . S
C806 C804 1.384 1_655 S
C806 C807 1.372 1_655 S
C807 C806 1.372 1_455 S
C807 C808 1.400 . S
C807 C812 1.490 1_455 S
C808 H798 0.930 1_565 S
C808 C807 1.400 . S
C808 C811 1.386 . S
H809 C825 0.930 . S
H810 C826 0.931 1_455 S
C811 H799 0.929 1_565 S
C811 C805 1.390 . S
C811 C808 1.386 . S
C812 C807 1.490 1_655 S
C812 C814 1.395 1_655 S
C812 C815 1.403 1_565 S
H813 C819 0.930 . S
C814 H800 0.930 . S
C814 C812 1.395 1_455 S
C814 C817 1.403 . S
C815 C812 1.403 1_545 S
C815 C816 1.524 . S
C815 C819 1.400 . S
C816 H801 0.960 . S
C816 H802 0.960 . S
C816 H803 0.960 . S
C816 C815 1.524 . S
C817 C814 1.403 . S
C817 C818 1.392 1_455 S
C817 C821 1.495 . S
C818 C817 1.392 1_655 S
C818 C819 1.385 1_565 S
C818 C820 1.473 1_565 S
C819 H813 0.930 . S
C819 C815 1.400 . S
C819 C818 1.385 1_545 S
C820 C818 1.473 1_545 S
C820 C822 1.368 1_545 S
C820 C826 1.402 . S
C821 C817 1.495 . S
C821 H827 0.959 . S
C821 H828 0.961 . S
C821 H829 0.960 . S
C822 C820 1.368 1_565 S
C822 C823 1.394 . S
C822 H830 0.930 . S
C823 C822 1.394 . S
C823 C824 1.383 1_565 S
C823 H831 0.929 . S
C824 C823 1.383 1_545 S
C824 C825 1.377 . S
C825 H809 0.930 . S
C825 C824 1.377 . S
C825 C826 1.379 . S
C826 H810 0.931 1_655 S
C826 C820 1.402 . S
C826 C825 1.379 . S
H827 C821 0.959 . S
H828 C821 0.961 . S
H829 C821 0.960 . S
H830 C822 0.930 . S
H831 C823 0.929 . S
H832 C840 0.929 . S
H833 C842 0.930 . S
H834 C844 0.930 . S
H835 C847 0.929 . S
H836 C850 0.930 . S
H837 C852 0.960 . S
H838 C852 0.960 . S
H839 C852 0.960 . S
C840 H832 0.929 . S
C840 C841 1.377 . S
C840 C842 1.384 . S
C841 C840 1.377 . S
C841 C847 1.390 . S
C842 H833 0.930 . S
C842 C840 1.384 . S
C842 C843 1.372 . S
C843 C842 1.372 . S
C843 C844 1.400 . S
C843 C848 1.490 . S
C844 H834 0.930 . S
C844 C843 1.400 . S
C844 C847 1.386 . S
H845 C861 0.930 . S
H846 C862 0.931 . S
C847 H835 0.929 . S
C847 C841 1.390 . S
C847 C844 1.386 . S
C848 C843 1.490 . S
C848 C850 1.395 . S
C848 C851 1.403 . S
H849 C855 0.930 . S
C850 H836 0.930 . S
C850 C848 1.395 . S
C850 C853 1.403 . S
C851 C848 1.403 . S
C851 C852 1.524 . S
C851 C855 1.400 . S
C852 H837 0.960 . S
C852 H838 0.960 . S
C852 H839 0.960 . S
C852 C851 1.524 . S
C853 C850 1.403 . S
C853 C854 1.392 . S
C853 C857 1.495 . S
C854 C853 1.392 . S
C854 C855 1.385 . S
C854 C856 1.478 . S
C855 H849 0.930 . S
C855 C851 1.400 . S
C855 C854 1.385 . S
C856 C854 1.478 . S
C856 C858 1.381 . S
C856 C862 1.383 . S
C857 C853 1.495 . S
C857 H863 0.959 . S
C857 H864 0.961 . S
C857 H865 0.960 . S
C858 C856 1.381 . S
C858 C859 1.394 . S
C858 H866 0.930 . S
C859 C858 1.394 . S
C859 C860 1.383 . S
C859 H867 0.929 . S
C860 C859 1.383 . S
C860 C861 1.377 . S
C861 H845 0.930 . S
C861 C860 1.377 . S
C861 C862 1.379 . S
C862 H846 0.931 . S
C862 C856 1.383 . S
C862 C861 1.379 . S
H863 C857 0.959 . S
H864 C857 0.961 . S
H865 C857 0.960 . S
H866 C858 0.930 . S
H867 C859 0.929 . S
H868 C876 0.929 . S
H869 C878 0.930 . S
H870 C880 0.930 . S
H871 C883 0.929 . S
H872 C886 0.930 . S
H873 C888 0.960 . S
H874 C888 0.960 . S
H875 C888 0.960 . S
C876 H868 0.929 . S
C876 C877 1.377 . S
C876 C878 1.384 . S
C877 C876 1.377 . S
C877 C883 1.390 . S
C878 H869 0.930 . S
C878 C876 1.384 . S
C878 C879 1.372 . S
C879 C878 1.372 . S
C879 C880 1.400 . S
C879 C884 1.490 . S
C880 H870 0.930 . S
C880 C879 1.400 . S
C880 C883 1.386 . S
H881 C897 0.930 . S
H882 C898 0.931 . S
C883 H871 0.929 . S
C883 C877 1.390 . S
C883 C880 1.386 . S
C884 C879 1.490 . S
C884 C886 1.395 . S
C884 C887 1.403 . S
H885 C891 0.930 . S
C886 H872 0.930 . S
C886 C884 1.395 . S
C886 C889 1.403 . S
C887 C884 1.403 . S
C887 C888 1.524 . S
C887 C891 1.400 . S
C888 H873 0.960 . S
C888 H874 0.960 . S
C888 H875 0.960 . S
C888 C887 1.524 . S
C889 C886 1.403 . S
C889 C890 1.392 . S
C889 C893 1.495 . S
C890 C889 1.392 . S
C890 C891 1.385 . S
C890 C892 1.478 . S
C891 H885 0.930 . S
C891 C887 1.400 . S
C891 C890 1.385 . S
C892 C890 1.478 . S
C892 C894 1.381 . S
C892 C898 1.383 . S
C893 C889 1.495 . S
C893 H899 0.959 . S
C893 H900 0.961 . S
C893 H901 0.960 . S
C894 C892 1.381 . S
C894 C895 1.394 . S
C894 H902 0.930 . S
C895 C894 1.394 . S
C895 C896 1.383 . S
C895 H903 0.929 . S
C896 C895 1.383 . S
C896 C897 1.377 . S
C897 H881 0.930 . S
C897 C896 1.377 . S
C897 C898 1.379 . S
C898 H882 0.931 . S
C898 C892 1.383 . S
C898 C897 1.379 . S
H899 C893 0.959 . S
H900 C893 0.961 . S
H901 C893 0.960 . S
H902 C894 0.930 . S
H903 C895 0.929 . S
H904 C912 0.929 . S
H905 C914 0.930 . S
H906 C916 0.930 . S
H907 C919 0.929 . S
H908 C922 0.930 . S
H909 C924 0.960 . S
H910 C924 0.960 . S
H911 C924 0.960 . S
C912 H904 0.929 . S
C912 C913 1.377 . S
C912 C914 1.384 . S
C913 C912 1.377 . S
C913 C919 1.390 . S
C914 H905 0.930 . S
C914 C912 1.384 . S
C914 C915 1.372 . S
C915 C914 1.372 . S
C915 C916 1.400 . S
C915 C920 1.490 . S
C916 H906 0.930 . S
C916 C915 1.400 . S
C916 C919 1.386 . S
H917 C933 0.930 . S
H918 C934 0.931 . S
C919 H907 0.929 . S
C919 C913 1.390 . S
C919 C916 1.386 . S
C920 C915 1.490 . S
C920 C922 1.395 . S
C920 C923 1.403 . S
H921 C927 0.930 . S
C922 H908 0.930 . S
C922 C920 1.395 . S
C922 C925 1.403 . S
C923 C920 1.403 . S
C923 C924 1.524 . S
C923 C927 1.400 . S
C924 H909 0.960 . S
C924 H910 0.960 . S
C924 H911 0.960 . S
C924 C923 1.524 . S
C925 C922 1.403 . S
C925 C926 1.392 . S
C925 C929 1.495 . S
C926 C925 1.392 . S
C926 C927 1.385 . S
C926 C928 1.478 . S
C927 H921 0.930 . S
C927 C923 1.400 . S
C927 C926 1.385 . S
C928 C926 1.478 . S
C928 C930 1.381 . S
C928 C934 1.383 . S
C929 C925 1.495 . S
C929 H935 0.959 . S
C929 H936 0.961 . S
C929 H937 0.960 . S
C930 C928 1.381 . S
C930 C931 1.394 . S
C930 H938 0.930 . S
C931 C930 1.394 . S
C931 C932 1.383 . S
C931 H939 0.929 . S
C932 C931 1.383 . S
C932 C933 1.377 . S
C933 H917 0.930 . S
C933 C932 1.377 . S
C933 C934 1.379 . S
C934 H918 0.931 . S
C934 C928 1.383 . S
C934 C933 1.379 . S
H935 C929 0.959 . S
H936 C929 0.961 . S
H937 C929 0.960 . S
H938 C930 0.930 . S
H939 C931 0.929 . S
H940 C948 0.929 . S
H941 C950 0.930 . S
H942 C952 0.930 . S
H943 C955 0.929 . S
H944 C958 0.930 . S
H945 C960 0.960 . S
H946 C960 0.960 . S
H947 C960 0.960 . S
C948 H940 0.929 . S
C948 C949 1.377 . S
C948 C950 1.384 . S
C949 C948 1.377 . S
C949 C955 1.390 . S
C950 H941 0.930 . S
C950 C948 1.384 . S
C950 C951 1.372 . S
C951 C950 1.372 . S
C951 C952 1.400 . S
C951 C956 1.490 . S
C952 H942 0.930 . S
C952 C951 1.400 . S
C952 C955 1.386 . S
H953 C969 0.930 . S
H954 C970 0.931 . S
C955 H943 0.929 . S
C955 C949 1.390 . S
C955 C952 1.386 . S
C956 C951 1.490 . S
C956 C958 1.395 . S
C956 C959 1.403 . S
H957 C963 0.930 . S
C958 H944 0.930 . S
C958 C956 1.395 . S
C958 C961 1.403 . S
C959 C956 1.403 . S
C959 C960 1.524 . S
C959 C963 1.400 . S
C960 H945 0.960 . S
C960 H946 0.960 . S
C960 H947 0.960 . S
C960 C959 1.524 . S
C961 C958 1.403 . S
C961 C962 1.392 . S
C961 C965 1.495 . S
C962 C961 1.392 . S
C962 C963 1.385 . S
C962 C964 1.478 . S
C963 H957 0.930 . S
C963 C959 1.400 . S
C963 C962 1.385 . S
C964 C962 1.478 . S
C964 C966 1.381 . S
C964 C970 1.383 . S
C965 C961 1.495 . S
C965 H971 0.959 . S
C965 H972 0.961 . S
C965 H973 0.960 . S
C966 C964 1.381 . S
C966 C967 1.394 . S
C966 H974 0.930 . S
C967 C966 1.394 . S
C967 C968 1.383 . S
C967 H975 0.929 . S
C968 C967 1.383 . S
C968 C969 1.377 . S
C969 H953 0.930 . S
C969 C968 1.377 . S
C969 C970 1.379 . S
C970 H954 0.931 . S
C970 C964 1.383 . S
C970 C969 1.379 . S
H971 C965 0.959 . S
H972 C965 0.961 . S
H973 C965 0.960 . S
H974 C966 0.930 . S
H975 C967 0.929 . S
H976 C984 0.929 . S
H977 C986 0.930 . S
H978 C988 0.930 . S
H979 C991 0.929 . S
H980 C994 0.930 . S
H981 C996 0.960 . S
H982 C996 0.960 . S
H983 C996 0.960 . S
C984 H976 0.929 . S
C984 C985 1.377 . S
C984 C986 1.384 . S
C985 C984 1.377 . S
C985 C991 1.390 . S
C986 H977 0.930 . S
C986 C984 1.384 . S
C986 C987 1.372 . S
C987 C986 1.372 . S
C987 C988 1.400 . S
C987 C992 1.490 . S
C988 H978 0.930 . S
C988 C987 1.400 . S
C988 C991 1.386 . S
H989 C1005 0.930 . S
H990 C1006 0.931 . S
C991 H979 0.929 . S
C991 C985 1.390 . S
C991 C988 1.386 . S
C992 C987 1.490 . S
C992 C994 1.395 . S
C992 C995 1.403 . S
H993 C999 0.930 . S
C994 H980 0.930 . S
C994 C992 1.395 . S
C994 C997 1.403 . S
C995 C992 1.403 . S
C995 C996 1.524 . S
C995 C999 1.400 . S
C996 H981 0.960 . S
C996 H982 0.960 . S
C996 H983 0.960 . S
C996 C995 1.524 . S
C997 C994 1.403 . S
C997 C998 1.392 . S
C997 C1001 1.495 . S
C998 C997 1.392 . S
C998 C999 1.385 . S
C998 C1000 1.478 . S
C999 H993 0.930 . S
C999 C995 1.400 . S
C999 C998 1.385 . S
C1000 C998 1.478 . S
C1000 C1002 1.381 . S
C1000 C1006 1.383 . S
C1001 C997 1.495 . S
C1001 H1007 0.959 . S
C1001 H1008 0.961 . S
C1001 H1009 0.960 . S
C1002 C1000 1.381 . S
C1002 C1003 1.394 . S
C1002 H1010 0.930 . S
C1003 C1002 1.394 . S
C1003 C1004 1.383 . S
C1003 H1011 0.929 . S
C1004 C1003 1.383 . S
C1004 C1005 1.377 . S
C1005 H989 0.930 . S
C1005 C1004 1.377 . S
C1005 C1006 1.379 . S
C1006 H990 0.931 . S
C1006 C1000 1.383 . S
C1006 C1005 1.379 . S
H1007 C1001 0.959 . S
H1008 C1001 0.961 . S
H1009 C1001 0.960 . S
H1010 C1002 0.930 . S
H1011 C1003 0.929 . S
H1012 C1020 0.929 . S
H1013 C1022 0.930 . S
H1014 C1024 0.930 . S
H1015 C1027 0.929 . S
H1016 C1030 0.930 . S
H1017 C1032 0.960 . S
H1018 C1032 0.960 . S
H1019 C1032 0.960 . S
C1020 H1012 0.929 . S
C1020 C1021 1.377 . S
C1020 C1022 1.384 . S
C1021 C1020 1.377 . S
C1021 C1027 1.390 . S
C1022 H1013 0.930 . S
C1022 C1020 1.384 . S
C1022 C1023 1.372 . S
C1023 C1022 1.372 . S
C1023 C1024 1.400 . S
C1023 C1028 1.490 . S
C1024 H1014 0.930 . S
C1024 C1023 1.400 . S
C1024 C1027 1.386 . S
H1025 C1041 0.930 . S
H1026 C1042 0.931 . S
C1027 H1015 0.929 . S
C1027 C1021 1.390 . S
C1027 C1024 1.386 . S
C1028 C1023 1.490 . S
C1028 C1030 1.395 . S
C1028 C1031 1.403 . S
H1029 C1035 0.930 . S
C1030 H1016 0.930 . S
C1030 C1028 1.395 . S
C1030 C1033 1.403 . S
C1031 C1028 1.403 . S
C1031 C1032 1.524 . S
C1031 C1035 1.400 . S
C1032 H1017 0.960 . S
C1032 H1018 0.960 . S
C1032 H1019 0.960 . S
C1032 C1031 1.524 . S
C1033 C1030 1.403 . S
C1033 C1034 1.392 . S
C1033 C1037 1.495 . S
C1034 C1033 1.392 . S
C1034 C1035 1.385 . S
C1034 C1036 1.478 . S
C1035 H1029 0.930 . S
C1035 C1031 1.400 . S
C1035 C1034 1.385 . S
C1036 C1034 1.478 . S
C1036 C1038 1.381 . S
C1036 C1042 1.383 . S
C1037 C1033 1.495 . S
C1037 H1043 0.959 . S
C1037 H1044 0.961 . S
C1037 H1045 0.960 . S
C1038 C1036 1.381 . S
C1038 C1039 1.394 . S
C1038 H1046 0.930 . S
C1039 C1038 1.394 . S
C1039 C1040 1.383 . S
C1039 H1047 0.929 . S
C1040 C1039 1.383 . S
C1040 C1041 1.377 . S
C1041 H1025 0.930 . S
C1041 C1040 1.377 . S
C1041 C1042 1.379 . S
C1042 H1026 0.931 . S
C1042 C1036 1.383 . S
C1042 C1041 1.379 . S
H1043 C1037 0.959 . S
H1044 C1037 0.961 . S
H1045 C1037 0.960 . S
H1046 C1038 0.930 . S
H1047 C1039 0.929 . S
H1048 C1056 0.929 . S
H1049 C1058 0.930 . S
H1050 C1060 0.930 . S
H1051 C1063 0.929 . S
H1052 C1066 0.930 . S
H1053 C1068 0.960 . S
H1054 C1068 0.960 . S
H1055 C1068 0.960 . S
C1056 H1048 0.929 . S
C1056 C1057 1.377 . S
C1056 C1058 1.384 . S
C1057 C1056 1.377 . S
C1057 C1063 1.390 . S
C1058 H1049 0.930 . S
C1058 C1056 1.384 . S
C1058 C1059 1.372 . S
C1059 C1058 1.372 . S
C1059 C1060 1.400 . S
C1059 C1064 1.490 . S
C1060 H1050 0.930 . S
C1060 C1059 1.400 . S
C1060 C1063 1.386 . S
H1061 C1077 0.930 . S
H1062 C1078 0.931 . S
C1063 H1051 0.929 . S
C1063 C1057 1.390 . S
C1063 C1060 1.386 . S
C1064 C1059 1.490 . S
C1064 C1066 1.395 . S
C1064 C1067 1.403 . S
H1065 C1071 0.930 . S
C1066 H1052 0.930 . S
C1066 C1064 1.395 . S
C1066 C1069 1.403 . S
C1067 C1064 1.403 . S
C1067 C1068 1.524 . S
C1067 C1071 1.400 . S
C1068 H1053 0.960 . S
C1068 H1054 0.960 . S
C1068 H1055 0.960 . S
C1068 C1067 1.524 . S
C1069 C1066 1.403 . S
C1069 C1070 1.392 . S
C1069 C1073 1.495 . S
C1070 C1069 1.392 . S
C1070 C1071 1.385 . S
C1070 C1072 1.478 . S
C1071 H1065 0.930 . S
C1071 C1067 1.400 . S
C1071 C1070 1.385 . S
C1072 C1070 1.478 . S
C1072 C1074 1.381 . S
C1072 C1078 1.383 . S
C1073 C1069 1.495 . S
C1073 H1079 0.959 . S
C1073 H1080 0.961 . S
C1073 H1081 0.960 . S
C1074 C1072 1.381 . S
C1074 C1075 1.394 . S
C1074 H1082 0.930 . S
C1075 C1074 1.394 . S
C1075 C1076 1.383 . S
C1075 H1083 0.929 . S
C1076 C1075 1.383 . S
C1076 C1077 1.377 . S
C1077 H1061 0.930 . S
C1077 C1076 1.377 . S
C1077 C1078 1.379 . S
C1078 H1062 0.931 . S
C1078 C1072 1.383 . S
C1078 C1077 1.379 . S
H1079 C1073 0.959 . S
H1080 C1073 0.961 . S
H1081 C1073 0.960 . S
H1082 C1074 0.930 . S
H1083 C1075 0.929 . S
H1084 C1092 0.929 . S
H1085 C1094 0.930 . S
H1086 C1096 0.930 . S
H1087 C1099 0.929 . S
H1088 C1102 0.930 . S
H1089 C1104 0.960 . S
H1090 C1104 0.960 . S
H1091 C1104 0.960 . S
C1092 H1084 0.929 . S
C1092 C1093 1.377 . S
C1092 C1094 1.384 . S
C1093 C1092 1.377 . S
C1093 C1099 1.390 . S
C1094 H1085 0.930 . S
C1094 C1092 1.384 . S
C1094 C1095 1.372 . S
C1095 C1094 1.372 . S
C1095 C1096 1.400 . S
C1095 C1100 1.490 . S
C1096 H1086 0.930 . S
C1096 C1095 1.400 . S
C1096 C1099 1.386 . S
H1097 C1113 0.930 . S
H1098 C1114 0.931 . S
C1099 H1087 0.929 . S
C1099 C1093 1.390 . S
C1099 C1096 1.386 . S
C1100 C1095 1.490 . S
C1100 C1102 1.395 . S
C1100 C1103 1.403 . S
H1101 C1107 0.930 . S
C1102 H1088 0.930 . S
C1102 C1100 1.395 . S
C1102 C1105 1.403 . S
C1103 C1100 1.403 . S
C1103 C1104 1.524 . S
C1103 C1107 1.400 . S
C1104 H1089 0.960 . S
C1104 H1090 0.960 . S
C1104 H1091 0.960 . S
C1104 C1103 1.524 . S
C1105 C1102 1.403 . S
C1105 C1106 1.392 . S
C1105 C1109 1.495 . S
C1106 C1105 1.392 . S
C1106 C1107 1.385 . S
C1106 C1108 1.478 . S
C1107 H1101 0.930 . S
C1107 C1103 1.400 . S
C1107 C1106 1.385 . S
C1108 C1106 1.478 . S
C1108 C1110 1.381 . S
C1108 C1114 1.383 . S
C1109 C1105 1.495 . S
C1109 H1115 0.959 . S
C1109 H1116 0.961 . S
C1109 H1117 0.960 . S
C1110 C1108 1.381 . S
C1110 C1111 1.394 . S
C1110 H1118 0.930 . S
C1111 C1110 1.394 . S
C1111 C1112 1.383 . S
C1111 H1119 0.929 . S
C1112 C1111 1.383 . S
C1112 C1113 1.377 . S
C1113 H1097 0.930 . S
C1113 C1112 1.377 . S
C1113 C1114 1.379 . S
C1114 H1098 0.931 . S
C1114 C1108 1.383 . S
C1114 C1113 1.379 . S
H1115 C1109 0.959 . S
H1116 C1109 0.961 . S
H1117 C1109 0.960 . S
H1118 C1110 0.930 . S
H1119 C1111 0.929 . S
H1120 C1128 0.929 . S
H1121 C1130 0.930 . S
H1122 C1132 0.930 . S
H1123 C1135 0.929 . S
H1124 C1138 0.930 . S
H1125 C1140 0.960 . S
H1126 C1140 0.960 . S
H1127 C1140 0.960 . S
C1128 H1120 0.929 . S
C1128 C1129 1.377 . S
C1128 C1130 1.384 . S
C1129 C1128 1.377 . S
C1129 C1135 1.390 . S
C1130 H1121 0.930 . S
C1130 C1128 1.384 . S
C1130 C1131 1.372 . S
C1131 C1130 1.372 . S
C1131 C1132 1.400 . S
C1131 C1136 1.490 . S
C1132 H1122 0.930 . S
C1132 C1131 1.400 . S
C1132 C1135 1.386 . S
H1133 C1149 0.930 . S
H1134 C1150 0.931 . S
C1135 H1123 0.929 . S
C1135 C1129 1.390 . S
C1135 C1132 1.386 . S
C1136 C1131 1.490 . S
C1136 C1138 1.395 . S
C1136 C1139 1.403 . S
H1137 C1143 0.930 . S
C1138 H1124 0.930 . S
C1138 C1136 1.395 . S
C1138 C1141 1.403 . S
C1139 C1136 1.403 . S
C1139 C1140 1.524 . S
C1139 C1143 1.400 . S
C1140 H1125 0.960 . S
C1140 H1126 0.960 . S
C1140 H1127 0.960 . S
C1140 C1139 1.524 . S
C1141 C1138 1.403 . S
C1141 C1142 1.392 . S
C1141 C1145 1.495 . S
C1142 C1141 1.392 . S
C1142 C1143 1.385 . S
C1142 C1144 1.478 . S
C1143 H1137 0.930 . S
C1143 C1139 1.400 . S
C1143 C1142 1.385 . S
C1144 C1142 1.478 . S
C1144 C1146 1.381 . S
C1144 C1150 1.383 . S
C1145 C1141 1.495 . S
C1145 H1151 0.959 . S
C1145 H1152 0.961 . S
C1145 H1153 0.960 . S
C1146 C1144 1.381 . S
C1146 C1147 1.394 . S
C1146 H1154 0.930 . S
C1147 C1146 1.394 . S
C1147 C1148 1.383 . S
C1147 H1155 0.929 . S
C1148 C1147 1.383 . S
C1148 C1149 1.377 . S
C1149 H1133 0.930 . S
C1149 C1148 1.377 . S
C1149 C1150 1.379 . S
C1150 H1134 0.931 . S
C1150 C1144 1.383 . S
C1150 C1149 1.379 . S
H1151 C1145 0.959 . S
H1152 C1145 0.961 . S
H1153 C1145 0.960 . S
H1154 C1146 0.930 . S
H1155 C1147 0.929 . S
H1156 C1164 0.929 . S
H1157 C1166 0.930 . S
H1158 C1168 0.930 . S
H1159 C1171 0.929 . S
H1160 C1174 0.930 . S
H1161 C1176 0.960 . S
H1162 C1176 0.960 . S
H1163 C1176 0.960 . S
C1164 H1156 0.929 . S
C1164 C1165 1.377 . S
C1164 C1166 1.384 . S
C1165 C1164 1.377 . S
C1165 C1171 1.390 . S
C1166 H1157 0.930 . S
C1166 C1164 1.384 . S
C1166 C1167 1.372 . S
C1167 C1166 1.372 . S
C1167 C1168 1.400 . S
C1167 C1172 1.490 . S
C1168 H1158 0.930 . S
C1168 C1167 1.400 . S
C1168 C1171 1.386 . S
H1169 C1185 0.930 . S
H1170 C1186 0.931 . S
C1171 H1159 0.929 . S
C1171 C1165 1.390 . S
C1171 C1168 1.386 . S
C1172 C1167 1.490 . S
C1172 C1174 1.395 . S
C1172 C1175 1.403 . S
H1173 C1179 0.930 . S
C1174 H1160 0.930 . S
C1174 C1172 1.395 . S
C1174 C1177 1.403 . S
C1175 C1172 1.403 . S
C1175 C1176 1.524 . S
C1175 C1179 1.400 . S
C1176 H1161 0.960 . S
C1176 H1162 0.960 . S
C1176 H1163 0.960 . S
C1176 C1175 1.524 . S
C1177 C1174 1.403 . S
C1177 C1178 1.392 . S
C1177 C1181 1.495 . S
C1178 C1177 1.392 . S
C1178 C1179 1.385 . S
C1178 C1180 1.478 . S
C1179 H1173 0.930 . S
C1179 C1175 1.400 . S
C1179 C1178 1.385 . S
C1180 C1178 1.478 . S
C1180 C1182 1.381 . S
C1180 C1186 1.383 . S
C1181 C1177 1.495 . S
C1181 H1187 0.959 . S
C1181 H1188 0.961 . S
C1181 H1189 0.960 . S
C1182 C1180 1.381 . S
C1182 C1183 1.394 . S
C1182 H1190 0.930 . S
C1183 C1182 1.394 . S
C1183 C1184 1.383 . S
C1183 H1191 0.929 . S
C1184 C1183 1.383 . S
C1184 C1185 1.377 . S
C1185 H1169 0.930 . S
C1185 C1184 1.377 . S
C1185 C1186 1.379 . S
C1186 H1170 0.931 . S
C1186 C1180 1.383 . S
C1186 C1185 1.379 . S
H1187 C1181 0.959 . S
H1188 C1181 0.961 . S
H1189 C1181 0.960 . S
H1190 C1182 0.930 . S
H1191 C1183 0.929 . S
H1192 C1200 0.929 . S
H1193 C1202 0.930 . S
H1194 C1204 0.930 . S
H1195 C1207 0.929 . S
H1196 C1210 0.930 . S
H1197 C1212 0.960 . S
H1198 C1212 0.960 . S
H1199 C1212 0.960 1_655 S
C1200 H1192 0.929 . S
C1200 C1201 1.377 1_455 S
C1200 C1202 1.384 . S
C1201 C1200 1.377 1_655 S
C1201 C1207 1.390 . S
C1202 H1193 0.930 . S
C1202 C1200 1.384 . S
C1202 C1203 1.372 1_455 S
C1203 C1202 1.372 1_655 S
C1203 C1204 1.400 . S
C1203 C1208 1.490 . S
C1204 H1194 0.930 . S
C1204 C1203 1.400 . S
C1204 C1207 1.386 . S
H1205 C1221 0.930 . S
H1206 C1222 0.931 . S
C1207 H1195 0.929 . S
C1207 C1201 1.390 . S
C1207 C1204 1.386 . S
C1208 C1203 1.490 . S
C1208 C1210 1.395 . S
C1208 C1211 1.403 1_655 S
H1209 C1215 0.930 . S
C1210 H1196 0.930 . S
C1210 C1208 1.395 . S
C1210 C1213 1.403 . S
C1211 C1208 1.403 1_455 S
C1211 C1212 1.524 . S
C1211 C1215 1.400 . S
C1212 H1197 0.960 . S
C1212 H1198 0.960 . S
C1212 H1199 0.960 1_455 S
C1212 C1211 1.524 . S
C1213 C1210 1.403 . S
C1213 C1214 1.392 1_655 S
C1213 C1217 1.495 . S
C1214 C1213 1.392 1_455 S
C1214 C1215 1.385 . S
C1214 C1216 1.478 . S
C1215 H1209 0.930 . S
C1215 C1211 1.400 . S
C1215 C1214 1.385 . S
C1216 C1214 1.478 . S
C1216 C1218 1.381 . S
C1216 C1222 1.383 1_455 S
C1217 C1213 1.495 . S
C1217 H1223 0.959 . S
C1217 H1224 0.961 . S
C1217 H1225 0.960 1_655 S
C1218 C1216 1.381 . S
C1218 C1219 1.394 . S
C1218 H1226 0.930 . S
C1219 C1218 1.394 . S
C1219 C1220 1.383 . S
C1219 H1227 0.929 . S
C1220 C1219 1.383 . S
C1220 C1221 1.377 1_455 S
C1221 H1205 0.930 . S
C1221 C1220 1.377 1_655 S
C1221 C1222 1.379 . S
C1222 H1206 0.931 . S
C1222 C1216 1.383 1_655 S
C1222 C1221 1.379 . S
H1223 C1217 0.959 . S
H1224 C1217 0.961 . S
H1225 C1217 0.960 1_455 S
H1226 C1218 0.930 . S
H1227 C1219 0.929 . S
H1228 C1236 0.929 . S
H1229 C1238 0.930 . S
H1230 C1240 0.930 . S
H1231 C1243 0.929 . S
H1232 C1246 0.930 . S
H1233 C1248 0.960 . S
H1234 C1248 0.960 . S
H1235 C1248 0.960 . S
C1236 H1228 0.929 . S
C1236 C1237 1.377 1_565 S
C1236 C1238 1.384 . S
C1237 C1236 1.377 1_545 S
C1237 C1243 1.390 . S
C1238 H1229 0.930 . S
C1238 C1236 1.384 . S
C1238 C1239 1.372 1_565 S
C1239 C1238 1.372 1_545 S
C1239 C1240 1.400 . S
C1239 C1244 1.491 . S
C1240 H1230 0.930 . S
C1240 C1239 1.400 . S
C1240 C1243 1.386 . S
H1241 C1257 0.930 . S
H1242 C1258 0.931 . S
C1243 H1231 0.929 . S
C1243 C1237 1.390 . S
C1243 C1240 1.386 . S
C1244 C1239 1.491 . S
C1244 C1246 1.390 1_545 S
C1244 C1247 1.406 . S
H1245 C1251 0.930 . S
C1246 H1232 0.930 . S
C1246 C1244 1.390 1_565 S
C1246 C1249 1.403 . S
C1247 C1244 1.406 . S
C1247 C1248 1.524 . S
C1247 C1251 1.400 . S
C1248 H1233 0.960 . S
C1248 H1234 0.960 . S
C1248 H1235 0.960 . S
C1248 C1247 1.524 . S
C1249 C1246 1.403 . S
C1249 C1250 1.392 . S
C1249 C1253 1.495 . S
C1250 C1249 1.392 . S
C1250 C1251 1.385 1_565 S
C1250 C1252 1.478 . S
C1251 H1245 0.930 . S
C1251 C1247 1.400 . S
C1251 C1250 1.385 1_545 S
C1252 C1250 1.478 . S
C1252 C1254 1.381 . S
C1252 C1258 1.383 1_565 S
C1253 C1249 1.495 . S
C1253 H1259 0.959 . S
C1253 H1260 0.961 . S
C1253 H1261 0.960 . S
C1254 C1252 1.381 . S
C1254 C1255 1.394 . S
C1254 H1262 0.930 . S
C1255 C1254 1.394 . S
C1255 C1256 1.383 . S
C1255 H1263 0.929 . S
C1256 C1255 1.383 . S
C1256 C1257 1.377 1_565 S
C1257 H1241 0.930 . S
C1257 C1256 1.377 1_545 S
C1257 C1258 1.379 . S
C1258 H1242 0.931 . S
C1258 C1252 1.383 1_545 S
C1258 C1257 1.379 . S
H1259 C1253 0.959 . S
H1260 C1253 0.961 . S
H1261 C1253 0.960 . S
H1262 C1254 0.930 . S
H1263 C1255 0.929 . S
H1264 C1272 0.929 . S
H1265 C1274 0.930 . S
H1266 C1276 0.930 . S
H1267 C1279 0.929 . S
H1268 C1282 0.930 . S
H1269 C1284 0.960 . S
H1270 C1284 0.960 . S
H1271 C1284 0.960 . S
C1272 H1264 0.929 . S
C1272 C1273 1.377 . S
C1272 C1274 1.384 . S
C1273 C1272 1.377 . S
C1273 C1279 1.390 . S
C1274 H1265 0.930 . S
C1274 C1272 1.384 . S
C1274 C1275 1.372 . S
C1275 C1274 1.372 . S
C1275 C1276 1.400 . S
C1275 C1280 1.490 . S
C1276 H1266 0.930 . S
C1276 C1275 1.400 . S
C1276 C1279 1.386 . S
H1277 C1293 0.930 . S
H1278 C1294 0.931 . S
C1279 H1267 0.929 . S
C1279 C1273 1.390 . S
C1279 C1276 1.386 . S
C1280 C1275 1.490 . S
C1280 C1282 1.395 . S
C1280 C1283 1.403 . S
H1281 C1287 0.930 . S
C1282 H1268 0.930 . S
C1282 C1280 1.395 . S
C1282 C1285 1.403 . S
C1283 C1280 1.403 . S
C1283 C1284 1.524 . S
C1283 C1287 1.400 . S
C1284 H1269 0.960 . S
C1284 H1270 0.960 . S
C1284 H1271 0.960 . S
C1284 C1283 1.524 . S
C1285 C1282 1.403 . S
C1285 C1286 1.392 . S
C1285 C1289 1.495 . S
C1286 C1285 1.392 . S
C1286 C1287 1.385 . S
C1286 C1288 1.478 . S
C1287 H1281 0.930 . S
C1287 C1283 1.400 . S
C1287 C1286 1.385 . S
C1288 C1286 1.478 . S
C1288 C1290 1.381 . S
C1288 C1294 1.383 . S
C1289 C1285 1.495 . S
C1289 H1295 0.959 . S
C1289 H1296 0.961 . S
C1289 H1297 0.960 . S
C1290 C1288 1.381 . S
C1290 C1291 1.394 . S
C1290 H1298 0.930 . S
C1291 C1290 1.394 . S
C1291 C1292 1.383 . S
C1291 H1299 0.929 . S
C1292 C1291 1.383 . S
C1292 C1293 1.377 . S
C1293 H1277 0.930 . S
C1293 C1292 1.377 . S
C1293 C1294 1.379 . S
C1294 H1278 0.931 . S
C1294 C1288 1.383 . S
C1294 C1293 1.379 . S
H1295 C1289 0.959 . S
H1296 C1289 0.961 . S
H1297 C1289 0.960 . S
H1298 C1290 0.930 . S
H1299 C1291 0.929 . S
H1300 C1308 0.929 . S
H1301 C1310 0.930 . S
H1302 C1312 0.930 . S
H1303 C1315 0.929 . S
H1304 C1318 0.930 . S
H1305 C1320 0.960 . S
H1306 C1320 0.960 . S
H1307 C1320 0.960 . S
C1308 H1300 0.929 . S
C1308 C1309 1.377 . S
C1308 C1310 1.384 . S
C1309 C1308 1.377 . S
C1309 C1315 1.390 . S
C1310 H1301 0.930 . S
C1310 C1308 1.384 . S
C1310 C1311 1.372 . S
C1311 C1310 1.372 . S
C1311 C1312 1.400 . S
C1311 C1316 1.490 . S
C1312 H1302 0.930 . S
C1312 C1311 1.400 . S
C1312 C1315 1.386 . S
H1313 C1329 0.930 . S
H1314 C1330 0.931 . S
C1315 H1303 0.929 . S
C1315 C1309 1.390 . S
C1315 C1312 1.386 . S
C1316 C1311 1.490 . S
C1316 C1318 1.395 . S
C1316 C1319 1.403 . S
H1317 C1323 0.930 . S
C1318 H1304 0.930 . S
C1318 C1316 1.395 . S
C1318 C1321 1.403 . S
C1319 C1316 1.403 . S
C1319 C1320 1.524 . S
C1319 C1323 1.400 . S
C1320 H1305 0.960 . S
C1320 H1306 0.960 . S
C1320 H1307 0.960 . S
C1320 C1319 1.524 . S
C1321 C1318 1.403 . S
C1321 C1322 1.392 . S
C1321 C1325 1.495 . S
C1322 C1321 1.392 . S
C1322 C1323 1.385 . S
C1322 C1324 1.478 . S
C1323 H1317 0.930 . S
C1323 C1319 1.400 . S
C1323 C1322 1.385 . S
C1324 C1322 1.478 . S
C1324 C1326 1.381 . S
C1324 C1330 1.383 . S
C1325 C1321 1.495 . S
C1325 H1331 0.959 . S
C1325 H1332 0.961 . S
C1325 H1333 0.960 . S
C1326 C1324 1.381 . S
C1326 C1327 1.394 . S
C1326 H1334 0.930 . S
C1327 C1326 1.394 . S
C1327 C1328 1.383 . S
C1327 H1335 0.929 . S
C1328 C1327 1.383 . S
C1328 C1329 1.377 . S
C1329 H1313 0.930 . S
C1329 C1328 1.377 . S
C1329 C1330 1.379 . S
C1330 H1314 0.931 . S
C1330 C1324 1.383 . S
C1330 C1329 1.379 . S
H1331 C1325 0.959 . S
H1332 C1325 0.961 . S
H1333 C1325 0.960 . S
H1334 C1326 0.930 . S
H1335 C1327 0.929 . S
H1336 C1344 0.929 . S
H1337 C1346 0.930 . S
H1338 C1348 0.930 . S
H1339 C1351 0.929 . S
H1340 C1354 0.930 . S
H1341 C1356 0.960 . S
H1342 C1356 0.960 . S
H1343 C1356 0.960 . S
C1344 H1336 0.929 . S
C1344 C1345 1.377 1_455 S
C1344 C1346 1.384 . S
C1345 C1344 1.377 1_655 S
C1345 C1351 1.390 . S
C1346 H1337 0.930 . S
C1346 C1344 1.384 . S
C1346 C1347 1.372 1_455 S
C1347 C1346 1.372 1_655 S
C1347 C1348 1.400 . S
C1347 C1352 1.490 . S
C1348 H1338 0.930 . S
C1348 C1347 1.400 . S
C1348 C1351 1.386 . S
H1349 C1365 0.936 . S
H1350 C1366 0.931 . S
C1351 H1339 0.929 . S
C1351 C1345 1.390 . S
C1351 C1348 1.386 . S
C1352 C1347 1.490 . S
C1352 C1354 1.395 1_655 S
C1352 C1355 1.403 . S
H1353 C1359 0.930 . S
C1354 H1340 0.930 . S
C1354 C1352 1.395 1_455 S
C1354 C1357 1.403 . S
C1355 C1352 1.403 . S
C1355 C1356 1.524 . S
C1355 C1359 1.400 . S
C1356 H1341 0.960 . S
C1356 H1342 0.960 . S
C1356 H1343 0.960 . S
C1356 C1355 1.524 . S
C1357 C1354 1.403 . S
C1357 C1358 1.392 . S
C1357 C1361 1.495 . S
C1358 C1357 1.392 . S
C1358 C1359 1.385 1_455 S
C1358 C1360 1.478 . S
C1359 H1353 0.930 . S
C1359 C1355 1.400 . S
C1359 C1358 1.385 1_655 S
C1360 C1358 1.478 . S
C1360 C1362 1.381 . S
C1360 C1366 1.383 1_455 S
C1361 C1357 1.495 . S
C1361 H1367 0.959 . S
C1361 H1368 0.961 . S
C1361 H1369 0.960 . S
C1362 C1360 1.381 . S
C1362 C1363 1.394 . S
C1362 H1370 0.930 . S
C1363 C1362 1.394 . S
C1363 C1364 1.383 . S
C1363 H1371 0.929 . S
C1364 C1363 1.383 . S
C1364 C1365 1.370 1_455 S
C1365 H1349 0.936 . S
C1365 C1364 1.370 1_655 S
C1365 C1366 1.380 . S
C1366 H1350 0.931 . S
C1366 C1360 1.383 1_655 S
C1366 C1365 1.380 . S
H1367 C1361 0.959 . S
H1368 C1361 0.961 . S
H1369 C1361 0.960 . S
H1370 C1362 0.930 . S
H1371 C1363 0.929 . S
H1372 C1380 0.929 . S
H1373 C1382 0.930 . S
H1374 C1384 0.930 . S
H1375 C1387 0.929 . S
H1376 C1390 0.930 . S
H1377 C1392 0.960 . S
H1378 C1392 0.960 . S
H1379 C1392 0.960 1_565 S
C1380 H1372 0.929 . S
C1380 C1381 1.377 1_545 S
C1380 C1382 1.384 . S
C1381 C1380 1.377 1_565 S
C1381 C1387 1.390 . S
C1382 H1373 0.930 . S
C1382 C1380 1.384 . S
C1382 C1383 1.372 1_545 S
C1383 C1382 1.372 1_565 S
C1383 C1384 1.400 . S
C1383 C1388 1.490 . S
C1384 H1374 0.930 . S
C1384 C1383 1.400 . S
C1384 C1387 1.386 . S
H1385 C1401 0.930 . S
H1386 C1402 0.931 . S
C1387 H1375 0.929 . S
C1387 C1381 1.390 . S
C1387 C1384 1.386 . S
C1388 C1383 1.490 . S
C1388 C1390 1.395 . S
C1388 C1391 1.403 1_565 S
H1389 C1395 0.930 . S
C1390 H1376 0.930 . S
C1390 C1388 1.395 . S
C1390 C1393 1.403 . S
C1391 C1388 1.403 1_545 S
C1391 C1392 1.524 . S
C1391 C1395 1.400 . S
C1392 H1377 0.960 . S
C1392 H1378 0.960 . S
C1392 H1379 0.960 1_545 S
C1392 C1391 1.524 . S
C1393 C1390 1.403 . S
C1393 C1394 1.392 1_565 S
C1393 C1397 1.495 . S
C1394 C1393 1.392 1_545 S
C1394 C1395 1.385 . S
C1394 C1396 1.478 . S
C1395 H1389 0.930 . S
C1395 C1391 1.400 . S
C1395 C1394 1.385 . S
C1396 C1394 1.478 . S
C1396 C1398 1.381 . S
C1396 C1402 1.383 1_545 S
C1397 C1393 1.495 . S
C1397 H1403 0.959 . S
C1397 H1404 0.961 . S
C1397 H1405 0.960 1_565 S
C1398 C1396 1.381 . S
C1398 C1399 1.394 . S
C1398 H1406 0.930 . S
C1399 C1398 1.394 . S
C1399 C1400 1.383 . S
C1399 H1407 0.929 . S
C1400 C1399 1.383 . S
C1400 C1401 1.377 1_545 S
C1401 H1385 0.930 . S
C1401 C1400 1.377 1_565 S
C1401 C1402 1.379 . S
C1402 H1386 0.931 . S
C1402 C1396 1.383 1_565 S
C1402 C1401 1.379 . S
H1403 C1397 0.959 . S
H1404 C1397 0.961 . S
H1405 C1397 0.960 1_545 S
H1406 C1398 0.930 . S
H1407 C1399 0.929 . S
H1408 C1416 0.929 . S
H1409 C1418 0.930 . S
H1410 C1420 0.930 . S
H1411 C1423 0.929 . S
H1412 C1426 0.930 . S
H1413 C1428 0.960 . S
H1414 C1428 0.960 . S
H1415 C1428 0.960 . S
C1416 H1408 0.929 . S
C1416 C1417 1.377 . S
C1416 C1418 1.384 . S
C1417 C1416 1.377 . S
C1417 C1423 1.390 . S
C1418 H1409 0.930 . S
C1418 C1416 1.384 . S
C1418 C1419 1.372 . S
C1419 C1418 1.372 . S
C1419 C1420 1.400 . S
C1419 C1424 1.490 . S
C1420 H1410 0.930 . S
C1420 C1419 1.400 . S
C1420 C1423 1.386 . S
H1421 C1437 0.930 . S
H1422 C1438 0.931 . S
C1423 H1411 0.929 . S
C1423 C1417 1.390 . S
C1423 C1420 1.386 . S
C1424 C1419 1.490 . S
C1424 C1426 1.395 . S
C1424 C1427 1.403 . S
H1425 C1431 0.930 . S
C1426 H1412 0.930 . S
C1426 C1424 1.395 . S
C1426 C1429 1.403 . S
C1427 C1424 1.403 . S
C1427 C1428 1.524 . S
C1427 C1431 1.400 . S
C1428 H1413 0.960 . S
C1428 H1414 0.960 . S
C1428 H1415 0.960 . S
C1428 C1427 1.524 . S
C1429 C1426 1.403 . S
C1429 C1430 1.392 . S
C1429 C1433 1.495 . S
C1430 C1429 1.392 . S
C1430 C1431 1.385 . S
C1430 C1432 1.478 . S
C1431 H1425 0.930 . S
C1431 C1427 1.400 . S
C1431 C1430 1.385 . S
C1432 C1430 1.478 . S
C1432 C1434 1.381 . S
C1432 C1438 1.383 . S
C1433 C1429 1.495 . S
C1433 H1439 0.959 . S
C1433 H1440 0.961 . S
C1433 H1441 0.960 . S
C1434 C1432 1.381 . S
C1434 C1435 1.394 . S
C1434 H1442 0.930 . S
C1435 C1434 1.394 . S
C1435 C1436 1.383 . S
C1435 H1443 0.929 . S
C1436 C1435 1.383 . S
C1436 C1437 1.377 . S
C1437 H1421 0.930 . S
C1437 C1436 1.377 . S
C1437 C1438 1.379 . S
C1438 H1422 0.931 . S
C1438 C1432 1.383 . S
C1438 C1437 1.379 . S
H1439 C1433 0.959 . S
H1440 C1433 0.961 . S
H1441 C1433 0.960 . S
H1442 C1434 0.930 . S
H1443 C1435 0.929 . S
H1444 C1452 0.929 . S
H1445 C1454 0.930 . S
H1446 C1456 0.930 . S
H1447 C1459 0.929 . S
H1448 C1462 0.930 . S
H1449 C1464 0.960 . S
H1450 C1464 0.960 . S
H1451 C1464 0.960 . S
C1452 H1444 0.929 . S
C1452 C1453 1.377 . S
C1452 C1454 1.384 . S
C1453 C1452 1.377 . S
C1453 C1459 1.390 . S
C1454 H1445 0.930 . S
C1454 C1452 1.384 . S
C1454 C1455 1.372 . S
C1455 C1454 1.372 . S
C1455 C1456 1.400 . S
C1455 C1460 1.490 . S
C1456 H1446 0.930 . S
C1456 C1455 1.400 . S
C1456 C1459 1.386 . S
H1457 C1473 0.930 . S
H1458 C1474 0.931 . S
C1459 H1447 0.929 . S
C1459 C1453 1.390 . S
C1459 C1456 1.386 . S
C1460 C1455 1.490 . S
C1460 C1462 1.395 . S
C1460 C1463 1.403 . S
H1461 C1467 0.930 . S
C1462 H1448 0.930 . S
C1462 C1460 1.395 . S
C1462 C1465 1.403 . S
C1463 C1460 1.403 . S
C1463 C1464 1.524 . S
C1463 C1467 1.400 . S
C1464 H1449 0.960 . S
C1464 H1450 0.960 . S
C1464 H1451 0.960 . S
C1464 C1463 1.524 . S
C1465 C1462 1.403 . S
C1465 C1466 1.392 . S
C1465 C1469 1.495 . S
C1466 C1465 1.392 . S
C1466 C1467 1.385 . S
C1466 C1468 1.478 . S
C1467 H1461 0.930 . S
C1467 C1463 1.400 . S
C1467 C1466 1.385 . S
C1468 C1466 1.478 . S
C1468 C1470 1.381 . S
C1468 C1474 1.383 . S
C1469 C1465 1.495 . S
C1469 H1475 0.959 . S
C1469 H1476 0.961 . S
C1469 H1477 0.960 . S
C1470 C1468 1.381 . S
C1470 C1471 1.394 . S
C1470 H1478 0.930 . S
C1471 C1470 1.394 . S
C1471 C1472 1.383 . S
C1471 H1479 0.929 . S
C1472 C1471 1.383 . S
C1472 C1473 1.377 . S
C1473 H1457 0.930 . S
C1473 C1472 1.377 . S
C1473 C1474 1.379 . S
C1474 H1458 0.931 . S
C1474 C1468 1.383 . S
C1474 C1473 1.379 . S
H1475 C1469 0.959 . S
H1476 C1469 0.961 . S
H1477 C1469 0.960 . S
H1478 C1470 0.930 . S
H1479 C1471 0.929 . S
H1480 C1488 0.929 . S
H1481 C1490 0.930 . S
H1482 C1492 0.930 . S
H1483 C1495 0.929 . S
H1484 C1498 0.930 1_655 S
H1485 C1500 0.960 . S
H1486 C1500 0.960 . S
H1487 C1500 0.960 . S
C1488 H1480 0.929 . S
C1488 C1489 1.377 1_655 S
C1488 C1490 1.384 . S
C1489 C1488 1.377 1_455 S
C1489 C1495 1.390 . S
C1490 H1481 0.930 . S
C1490 C1488 1.384 . S
C1490 C1491 1.372 1_655 S
C1491 C1490 1.372 1_455 S
C1491 C1492 1.400 . S
C1491 C1496 1.490 . S
C1492 H1482 0.930 . S
C1492 C1491 1.400 . S
C1492 C1495 1.386 . S
H1493 C1509 0.930 . S
H1494 C1510 0.931 . S
C1495 H1483 0.929 . S
C1495 C1489 1.390 . S
C1495 C1492 1.386 . S
C1496 C1491 1.490 . S
C1496 C1498 1.395 . S
C1496 C1499 1.403 . S
H1497 C1503 0.930 . S
C1498 H1484 0.930 1_455 S
C1498 C1496 1.395 . S
C1498 C1501 1.403 . S
C1499 C1496 1.403 . S
C1499 C1500 1.524 . S
C1499 C1503 1.400 . S
C1500 H1485 0.960 . S
C1500 H1486 0.960 . S
C1500 H1487 0.960 . S
C1500 C1499 1.524 . S
C1501 C1498 1.403 . S
C1501 C1502 1.392 . S
C1501 C1505 1.495 . S
C1502 C1501 1.392 . S
C1502 C1503 1.385 . S
C1502 C1504 1.478 . S
C1503 H1497 0.930 . S
C1503 C1499 1.400 . S
C1503 C1502 1.385 . S
C1504 C1502 1.478 . S
C1504 C1506 1.381 . S
C1504 C1510 1.383 . S
C1505 C1501 1.495 . S
C1505 H1511 0.959 1_455 S
C1505 H1512 0.961 . S
C1505 H1513 0.960 1_455 S
C1506 C1504 1.381 . S
C1506 C1507 1.394 . S
C1506 H1514 0.930 1_455 S
C1507 C1506 1.394 . S
C1507 C1508 1.383 . S
C1507 H1515 0.929 1_455 S
C1508 C1507 1.383 . S
C1508 C1509 1.377 . S
C1509 H1493 0.930 . S
C1509 C1508 1.377 . S
C1509 C1510 1.379 . S
C1510 H1494 0.931 . S
C1510 C1504 1.383 . S
C1510 C1509 1.379 . S
H1511 C1505 0.959 1_655 S
H1512 C1505 0.961 . S
H1513 C1505 0.960 1_655 S
H1514 C1506 0.930 1_655 S
H1515 C1507 0.929 1_655 S
H1516 C1524 0.929 . S
H1517 C1526 0.930 . S
H1518 C1528 0.930 . S
H1519 C1531 0.929 . S
H1520 C1534 0.930 . S
H1521 C1536 0.960 . S
H1522 C1536 0.960 1_545 S
H1523 C1536 0.960 . S
C1524 H1516 0.929 . S
C1524 C1525 1.377 . S
C1524 C1526 1.384 . S
C1525 C1524 1.377 . S
C1525 C1531 1.390 1_545 S
C1526 H1517 0.930 . S
C1526 C1524 1.384 . S
C1526 C1527 1.372 . S
C1527 C1526 1.372 . S
C1527 C1528 1.400 1_545 S
C1527 C1532 1.490 . S
C1528 H1518 0.930 . S
C1528 C1527 1.400 1_565 S
C1528 C1531 1.386 . S
H1529 C1545 0.930 1_565 S
H1530 C1546 0.931 1_565 S
C1531 H1519 0.929 . S
C1531 C1525 1.390 1_565 S
C1531 C1528 1.386 . S
C1532 C1527 1.490 . S
C1532 C1534 1.395 . S
C1532 C1535 1.403 . S
H1533 C1539 0.930 . S
C1534 H1520 0.930 . S
C1534 C1532 1.395 . S
C1534 C1537 1.403 . S
C1535 C1532 1.403 . S
C1535 C1536 1.524 1_545 S
C1535 C1539 1.400 . S
C1536 H1521 0.960 . S
C1536 H1522 0.960 1_565 S
C1536 H1523 0.960 . S
C1536 C1535 1.524 1_565 S
C1537 C1534 1.403 . S
C1537 C1538 1.392 . S
C1537 C1541 1.495 . S
C1538 C1537 1.392 . S
C1538 C1539 1.385 . S
C1538 C1540 1.478 . S
C1539 H1533 0.930 . S
C1539 C1535 1.400 . S
C1539 C1538 1.385 . S
C1540 C1538 1.478 . S
C1540 C1542 1.381 . S
C1540 C1546 1.383 . S
C1541 C1537 1.495 . S
C1541 H1547 0.959 . S
C1541 H1548 0.961 . S
C1541 H1549 0.960 . S
C1542 C1540 1.381 . S
C1542 C1543 1.394 . S
C1542 H1550 0.930 . S
C1543 C1542 1.394 . S
C1543 C1544 1.383 . S
C1543 H1551 0.929 . S
C1544 C1543 1.383 . S
C1544 C1545 1.377 . S
C1545 H1529 0.930 1_545 S
C1545 C1544 1.377 . S
C1545 C1546 1.379 . S
C1546 H1530 0.931 1_545 S
C1546 C1540 1.383 . S
C1546 C1545 1.379 . S
H1547 C1541 0.959 . S
H1548 C1541 0.961 . S
H1549 C1541 0.960 . S
H1550 C1542 0.930 . S
H1551 C1543 0.929 . S
H1552 C1560 0.929 . S
H1553 C1562 0.930 . S
H1554 C1564 0.930 . S
H1555 C1567 0.929 . S
H1556 C1570 0.930 . S
H1557 C1572 0.960 . S
H1558 C1572 0.960 . S
H1559 C1572 0.960 . S
C1560 H1552 0.929 . S
C1560 C1561 1.377 . S
C1560 C1562 1.384 . S
C1561 C1560 1.377 . S
C1561 C1567 1.390 . S
C1562 H1553 0.930 . S
C1562 C1560 1.384 . S
C1562 C1563 1.372 . S
C1563 C1562 1.372 . S
C1563 C1564 1.400 . S
C1563 C1568 1.490 . S
C1564 H1554 0.930 . S
C1564 C1563 1.400 . S
C1564 C1567 1.386 . S
H1565 C1581 0.930 . S
H1566 C1582 0.931 . S
C1567 H1555 0.929 . S
C1567 C1561 1.390 . S
C1567 C1564 1.386 . S
C1568 C1563 1.490 . S
C1568 C1570 1.395 . S
C1568 C1571 1.403 . S
H1569 C1575 0.930 . S
C1570 H1556 0.930 . S
C1570 C1568 1.395 . S
C1570 C1573 1.403 . S
C1571 C1568 1.403 . S
C1571 C1572 1.524 . S
C1571 C1575 1.400 . S
C1572 H1557 0.960 . S
C1572 H1558 0.960 . S
C1572 H1559 0.960 . S
C1572 C1571 1.524 . S
C1573 C1570 1.403 . S
C1573 C1574 1.392 . S
C1573 C1577 1.495 . S
C1574 C1573 1.392 . S
C1574 C1575 1.385 . S
C1574 C1576 1.478 . S
C1575 H1569 0.930 . S
C1575 C1571 1.400 . S
C1575 C1574 1.385 . S
C1576 C1574 1.478 . S
C1576 C1578 1.381 . S
C1576 C1582 1.383 . S
C1577 C1573 1.495 . S
C1577 H1583 0.959 . S
C1577 H1584 0.961 . S
C1577 H1585 0.960 . S
C1578 C1576 1.381 . S
C1578 C1579 1.394 . S
C1578 H1586 0.930 . S
C1579 C1578 1.394 . S
C1579 C1580 1.383 . S
C1579 H1587 0.929 . S
C1580 C1579 1.383 . S
C1580 C1581 1.377 . S
C1581 H1565 0.930 . S
C1581 C1580 1.377 . S
C1581 C1582 1.379 . S
C1582 H1566 0.931 . S
C1582 C1576 1.383 . S
C1582 C1581 1.379 . S
H1583 C1577 0.959 . S
H1584 C1577 0.961 . S
H1585 C1577 0.960 . S
H1586 C1578 0.930 . S
H1587 C1579 0.929 . S
H1588 C1596 0.929 . S
H1589 C1598 0.930 . S
H1590 C1600 0.930 . S
H1591 C1603 0.929 . S
H1592 C1606 0.930 . S
H1593 C1608 0.960 . S
H1594 C1608 0.960 . S
H1595 C1608 0.960 . S
C1596 H1588 0.929 . S
C1596 C1597 1.377 . S
C1596 C1598 1.384 . S
C1597 C1596 1.377 . S
C1597 C1603 1.390 . S
C1598 H1589 0.930 . S
C1598 C1596 1.384 . S
C1598 C1599 1.372 . S
C1599 C1598 1.372 . S
C1599 C1600 1.400 . S
C1599 C1604 1.490 . S
C1600 H1590 0.930 . S
C1600 C1599 1.400 . S
C1600 C1603 1.386 . S
H1601 C1617 0.930 . S
H1602 C1618 0.931 . S
C1603 H1591 0.929 . S
C1603 C1597 1.390 . S
C1603 C1600 1.386 . S
C1604 C1599 1.490 . S
C1604 C1606 1.395 . S
C1604 C1607 1.403 . S
H1605 C1611 0.930 . S
C1606 H1592 0.930 . S
C1606 C1604 1.395 . S
C1606 C1609 1.403 . S
C1607 C1604 1.403 . S
C1607 C1608 1.524 . S
C1607 C1611 1.400 . S
C1608 H1593 0.960 . S
C1608 H1594 0.960 . S
C1608 H1595 0.960 . S
C1608 C1607 1.524 . S
C1609 C1606 1.403 . S
C1609 C1610 1.392 . S
C1609 C1613 1.495 . S
C1610 C1609 1.392 . S
C1610 C1611 1.385 . S
C1610 C1612 1.478 . S
C1611 H1605 0.930 . S
C1611 C1607 1.400 . S
C1611 C1610 1.385 . S
C1612 C1610 1.478 . S
C1612 C1614 1.381 . S
C1612 C1618 1.383 . S
C1613 C1609 1.495 . S
C1613 H1619 0.959 . S
C1613 H1620 0.961 . S
C1613 H1621 0.960 . S
C1614 C1612 1.381 . S
C1614 C1615 1.394 . S
C1614 H1622 0.930 . S
C1615 C1614 1.394 . S
C1615 C1616 1.383 . S
C1615 H1623 0.929 . S
C1616 C1615 1.383 . S
C1616 C1617 1.377 . S
C1617 H1601 0.930 . S
C1617 C1616 1.377 . S
C1617 C1618 1.379 . S
C1618 H1602 0.931 . S
C1618 C1612 1.383 . S
C1618 C1617 1.379 . S
H1619 C1613 0.959 . S
H1620 C1613 0.961 . S
H1621 C1613 0.960 . S
H1622 C1614 0.930 . S
H1623 C1615 0.929 . S
H1624 C1632 0.929 . S
H1625 C1634 0.930 . S
H1626 C1636 0.930 . S
H1627 C1639 0.929 1_655 S
H1628 C1642 0.930 1_655 S
H1629 C1644 0.960 . S
H1630 C1644 0.960 . S
H1631 C1644 0.960 . S
C1632 H1624 0.929 . S
C1632 C1633 1.377 . S
C1632 C1634 1.384 . S
C1633 C1632 1.377 . S
C1633 C1639 1.390 . S
C1634 H1625 0.930 . S
C1634 C1632 1.384 . S
C1634 C1635 1.372 . S
C1635 C1634 1.372 . S
C1635 C1636 1.400 . S
C1635 C1640 1.490 . S
C1636 H1626 0.930 . S
C1636 C1635 1.400 . S
C1636 C1639 1.386 . S
H1637 C1653 0.930 . S
H1638 C1654 0.931 . S
C1639 H1627 0.929 1_455 S
C1639 C1633 1.390 . S
C1639 C1636 1.386 . S
C1640 C1635 1.490 . S
C1640 C1642 1.395 . S
C1640 C1643 1.403 . S
H1641 C1647 0.930 . S
C1642 H1628 0.930 1_455 S
C1642 C1640 1.395 . S
C1642 C1645 1.403 . S
C1643 C1640 1.403 . S
C1643 C1644 1.524 . S
C1643 C1647 1.400 . S
C1644 H1629 0.960 . S
C1644 H1630 0.960 . S
C1644 H1631 0.960 . S
C1644 C1643 1.524 . S
C1645 C1642 1.403 . S
C1645 C1646 1.392 . S
C1645 C1649 1.495 1_455 S
C1646 C1645 1.392 . S
C1646 C1647 1.385 . S
C1646 C1648 1.478 . S
C1647 H1641 0.930 . S
C1647 C1643 1.400 . S
C1647 C1646 1.385 . S
C1648 C1646 1.478 . S
C1648 C1650 1.381 . S
C1648 C1654 1.383 . S
C1649 C1645 1.495 1_655 S
C1649 H1655 0.959 . S
C1649 H1656 0.961 . S
C1649 H1657 0.960 . S
C1650 C1648 1.381 . S
C1650 C1651 1.394 . S
C1650 H1658 0.930 . S
C1651 C1650 1.394 . S
C1651 C1652 1.383 . S
C1651 H1659 0.929 . S
C1652 C1651 1.383 . S
C1652 C1653 1.377 . S
C1653 H1637 0.930 . S
C1653 C1652 1.377 . S
C1653 C1654 1.379 . S
C1654 H1638 0.931 . S
C1654 C1648 1.383 . S
C1654 C1653 1.379 . S
H1655 C1649 0.959 . S
H1656 C1649 0.961 . S
H1657 C1649 0.960 . S
H1658 C1650 0.930 . S
H1659 C1651 0.929 . S
H1660 C1668 0.929 . S
H1661 C1670 0.930 . S
H1662 C1672 0.930 . S
H1663 C1675 0.929 . S
H1664 C1678 0.930 . S
H1665 C1680 0.960 . S
H1666 C1680 0.960 . S
H1667 C1680 0.960 . S
C1668 H1660 0.929 . S
C1668 C1669 1.377 . S
C1668 C1670 1.384 . S
C1669 C1668 1.377 . S
C1669 C1675 1.390 . S
C1670 H1661 0.930 . S
C1670 C1668 1.384 . S
C1670 C1671 1.372 . S
C1671 C1670 1.372 . S
C1671 C1672 1.400 . S
C1671 C1676 1.490 . S
C1672 H1662 0.930 . S
C1672 C1671 1.400 . S
C1672 C1675 1.386 . S
H1673 C1689 0.930 . S
H1674 C1690 0.931 . S
C1675 H1663 0.929 . S
C1675 C1669 1.390 . S
C1675 C1672 1.386 . S
C1676 C1671 1.490 . S
C1676 C1678 1.395 . S
C1676 C1679 1.403 . S
H1677 C1683 0.930 1_565 S
C1678 H1664 0.930 . S
C1678 C1676 1.395 . S
C1678 C1681 1.403 . S
C1679 C1676 1.403 . S
C1679 C1680 1.524 1_545 S
C1679 C1683 1.400 . S
C1680 H1665 0.960 . S
C1680 H1666 0.960 . S
C1680 H1667 0.960 . S
C1680 C1679 1.524 1_565 S
C1681 C1678 1.403 . S
C1681 C1682 1.392 . S
C1681 C1685 1.495 . S
C1682 C1681 1.392 . S
C1682 C1683 1.385 . S
C1682 C1684 1.478 . S
C1683 H1677 0.930 1_545 S
C1683 C1679 1.400 . S
C1683 C1682 1.385 . S
C1684 C1682 1.478 . S
C1684 C1686 1.381 . S
C1684 C1690 1.383 . S
C1685 C1681 1.495 . S
C1685 H1691 0.959 . S
C1685 H1692 0.961 . S
C1685 H1693 0.960 . S
C1686 C1684 1.381 . S
C1686 C1687 1.394 . S
C1686 H1694 0.930 . S
C1687 C1686 1.394 . S
C1687 C1688 1.383 . S
C1687 H1695 0.929 . S
C1688 C1687 1.383 . S
C1688 C1689 1.377 . S
C1689 H1673 0.930 . S
C1689 C1688 1.377 . S
C1689 C1690 1.379 . S
C1690 H1674 0.931 . S
C1690 C1684 1.383 . S
C1690 C1689 1.379 . S
H1691 C1685 0.959 . S
H1692 C1685 0.961 . S
H1693 C1685 0.960 . S
H1694 C1686 0.930 . S
H1695 C1687 0.929 . S
H1696 C1704 0.929 . S
H1697 C1706 0.930 . S
H1698 C1708 0.930 1_545 S
H1699 C1711 0.929 1_545 S
H1700 C1714 0.930 . S
H1701 C1716 0.960 1_545 S
H1702 C1716 0.960 . S
H1703 C1716 0.960 1_545 S
C1704 H1696 0.929 . S
C1704 C1705 1.377 . S
C1704 C1706 1.384 . S
C1705 C1704 1.377 . S
C1705 C1711 1.390 . S
C1706 H1697 0.930 . S
C1706 C1704 1.384 . S
C1706 C1707 1.372 . S
C1707 C1706 1.372 . S
C1707 C1708 1.400 . S
C1707 C1712 1.490 . S
C1708 H1698 0.930 1_565 S
C1708 C1707 1.400 . S
C1708 C1711 1.386 . S
H1709 C1725 0.930 . S
H1710 C1726 0.931 . S
C1711 H1699 0.929 1_565 S
C1711 C1705 1.390 . S
C1711 C1708 1.386 . S
C1712 C1707 1.490 . S
C1712 C1714 1.395 . S
C1712 C1715 1.403 . S
H1713 C1719 0.930 . S
C1714 H1700 0.930 . S
C1714 C1712 1.395 . S
C1714 C1717 1.403 1_556 S
C1715 C1712 1.403 . S
C1715 C1716 1.524 . S
C1715 C1719 1.400 1_566 S
C1716 H1701 0.960 1_565 S
C1716 H1702 0.960 . S
C1716 H1703 0.960 1_565 S
C1716 C1715 1.524 . S
C1717 C1714 1.403 1_554 S
C1717 C1718 1.392 1_565 S
C1717 C1721 1.495 . S
C1718 C1717 1.392 1_545 S
C1718 C1719 1.385 . S
C1718 C1720 1.478 . S
C1719 H1713 0.930 . S
C1719 C1715 1.400 1_544 S
C1719 C1718 1.385 . S
C1720 C1718 1.478 . S
C1720 C1722 1.381 1_545 S
C1720 C1726 1.383 . S
C1721 C1717 1.495 . S
C1721 H1727 1.004 . S
C1721 H1728 0.961 1_565 S
C1721 H1729 0.960 . S
C1722 C1720 1.381 1_565 S
C1722 C1723 1.394 . S
C1722 H1730 0.930 . S
C1723 C1722 1.394 . S
C1723 C1724 1.383 1_565 S
C1723 H1731 0.929 . S
C1724 C1723 1.383 1_545 S
C1724 C1725 1.377 . S
C1725 H1709 0.930 . S
C1725 C1724 1.377 . S
C1725 C1726 1.379 . S
C1726 H1710 0.931 . S
C1726 C1720 1.383 . S
C1726 C1725 1.379 . S
H1727 C1721 1.004 . S
H1728 C1721 0.961 1_545 S
H1729 C1721 0.960 . S
H1730 C1722 0.930 . S
H1731 C1723 0.929 . S
H1732 C1740 0.929 . S
H1733 C1742 0.930 . S
H1734 C1744 0.930 . S
H1735 C1747 0.929 . S
H1736 C1750 0.930 . S
H1737 C1752 0.960 . S
H1738 C1752 0.960 . S
H1739 C1752 0.960 . S
C1740 H1732 0.929 . S
C1740 C1741 1.377 . S
C1740 C1742 1.384 . S
C1741 C1740 1.377 . S
C1741 C1747 1.390 . S
C1742 H1733 0.930 . S
C1742 C1740 1.384 . S
C1742 C1743 1.372 . S
C1743 C1742 1.372 . S
C1743 C1744 1.400 . S
C1743 C1748 1.490 . S
C1744 H1734 0.930 . S
C1744 C1743 1.400 . S
C1744 C1747 1.386 . S
H1745 C1761 0.930 . S
H1746 C1762 0.931 . S
C1747 H1735 0.929 . S
C1747 C1741 1.390 . S
C1747 C1744 1.386 . S
C1748 C1743 1.490 . S
C1748 C1750 1.395 . S
C1748 C1751 1.403 . S
H1749 C1755 0.930 . S
C1750 H1736 0.930 . S
C1750 C1748 1.395 . S
C1750 C1753 1.403 . S
C1751 C1748 1.403 . S
C1751 C1752 1.524 . S
C1751 C1755 1.400 . S
C1752 H1737 0.960 . S
C1752 H1738 0.960 . S
C1752 H1739 0.960 . S
C1752 C1751 1.524 . S
C1753 C1750 1.403 . S
C1753 C1754 1.392 . S
C1753 C1757 1.495 . S
C1754 C1753 1.392 . S
C1754 C1755 1.385 . S
C1754 C1756 1.478 . S
C1755 H1749 0.930 . S
C1755 C1751 1.400 . S
C1755 C1754 1.385 . S
C1756 C1754 1.478 . S
C1756 C1758 1.381 . S
C1756 C1762 1.383 . S
C1757 C1753 1.495 . S
C1757 H1763 0.959 . S
C1757 H1764 0.961 . S
C1757 H1765 0.960 . S
C1758 C1756 1.381 . S
C1758 C1759 1.394 . S
C1758 H1766 0.930 . S
C1759 C1758 1.394 . S
C1759 C1760 1.383 . S
C1759 H1767 0.929 . S
C1760 C1759 1.383 . S
C1760 C1761 1.377 . S
C1761 H1745 0.930 . S
C1761 C1760 1.377 . S
C1761 C1762 1.379 . S
C1762 H1746 0.931 . S
C1762 C1756 1.383 . S
C1762 C1761 1.379 . S
H1763 C1757 0.959 . S
H1764 C1757 0.961 . S
H1765 C1757 0.960 . S
H1766 C1758 0.930 . S
H1767 C1759 0.929 . S
H1768 C1776 0.929 . S
H1769 C1778 0.930 . S
H1770 C1780 0.930 . S
H1771 C1783 0.929 . S
H1772 C1786 0.930 . S
H1773 C1788 0.890 1_556 S
H1774 C1788 0.996 . S
H1775 C1788 1.008 1_455 S
C1776 H1768 0.929 . S
C1776 C1777 1.377 1_655 S
C1776 C1778 1.384 . S
C1777 C1776 1.377 1_455 S
C1777 C1783 1.390 . S
C1778 H1769 0.930 . S
C1778 C1776 1.384 . S
C1778 C1779 1.372 1_655 S
C1779 C1778 1.372 1_455 S
C1779 C1780 1.400 . S
C1779 C1784 1.490 . S
C1780 H1770 0.930 . S
C1780 C1779 1.400 . S
C1780 C1783 1.386 . S
H1781 C1797 0.930 . S
H1782 C1798 0.931 . S
C1783 H1771 0.929 . S
C1783 C1777 1.390 . S
C1783 C1780 1.386 . S
C1784 C1779 1.490 . S
C1784 C1786 1.395 . S
C1784 C1787 1.355 1_554 S
H1785 C1791 0.930 . S
C1786 H1772 0.930 . S
C1786 C1784 1.395 . S
C1786 C1789 1.403 1_554 S
C1787 C1784 1.355 1_556 S
C1787 C1788 1.515 1_456 S
C1787 C1791 1.458 . S
C1788 H1773 0.890 1_554 S
C1788 H1774 0.996 . S
C1788 H1775 1.008 1_655 S
C1788 C1787 1.515 1_654 S
C1789 C1786 1.403 1_556 S
C1789 C1790 1.392 . S
C1789 C1793 1.495 . S
C1790 C1789 1.392 . S
C1790 C1791 1.385 . S
C1790 C1792 1.478 . S
C1791 H1785 0.930 . S
C1791 C1787 1.458 . S
C1791 C1790 1.385 . S
C1792 C1790 1.478 . S
C1792 C1794 1.381 . S
C1792 C1798 1.383 . S
C1793 C1789 1.495 . S
C1793 H1799 0.959 1_556 S
C1793 H1800 0.961 . S
C1793 H1801 0.960 . S
C1794 C1792 1.381 . S
C1794 C1795 1.394 . S
C1794 H1802 0.930 1_455 S
C1795 C1794 1.394 . S
C1795 C1796 1.383 . S
C1795 H1803 0.929 1_455 S
C1796 C1795 1.383 . S
C1796 C1797 1.377 . S
C1797 H1781 0.930 . S
C1797 C1796 1.377 . S
C1797 C1798 1.379 . S
C1798 H1782 0.931 . S
C1798 C1792 1.383 . S
C1798 C1797 1.379 . S
H1799 C1793 0.959 1_554 S
H1800 C1793 0.961 . S
H1801 C1793 0.960 . S
H1802 C1794 0.930 1_655 S
H1803 C1795 0.929 1_655 S
H1804 C1812 0.929 1_565 S
H1805 C1814 0.939 . S
H1806 C1816 0.930 . S
H1807 C1819 0.929 . S
H1808 C1822 0.930 1_565 S
H1809 C1824 0.960 . S
H1810 C1824 0.960 . S
H1811 C1824 0.960 . S
C1812 H1804 0.929 1_545 S
C1812 C1813 1.377 . S
C1812 C1814 1.382 1_545 S
C1813 C1812 1.377 . S
C1813 C1819 1.390 . S
C1814 H1805 0.939 . S
C1814 C1812 1.382 1_565 S
C1814 C1815 1.364 1_565 S
C1815 C1814 1.364 1_545 S
C1815 C1816 1.400 . S
C1815 C1820 1.490 . S
C1816 H1806 0.930 . S
C1816 C1815 1.400 . S
C1816 C1819 1.386 . S
H1817 C1833 0.930 . S
H1818 C1834 0.931 . S
C1819 H1807 0.929 . S
C1819 C1813 1.390 . S
C1819 C1816 1.386 . S
C1820 C1815 1.490 . S
C1820 C1822 1.395 1_655 S
C1820 C1823 1.403 . S
H1821 C1827 0.930 . S
C1822 H1808 0.930 1_545 S
C1822 C1820 1.395 1_455 S
C1822 C1825 1.403 1_545 S
C1823 C1820 1.403 . S
C1823 C1824 1.524 . S
C1823 C1827 1.400 . S
C1824 H1809 0.960 . S
C1824 H1810 0.960 . S
C1824 H1811 0.960 . S
C1824 C1823 1.524 . S
C1825 C1822 1.403 1_565 S
C1825 C1826 1.392 1_565 S
C1825 C1829 1.495 . S
C1826 C1825 1.392 1_545 S
C1826 C1827 1.385 1_455 S
C1826 C1828 1.478 . S
C1827 H1821 0.930 . S
C1827 C1823 1.400 . S
C1827 C1826 1.385 1_655 S
C1828 C1826 1.478 . S
C1828 C1830 1.381 1_545 S
C1828 C1834 1.383 . S
C1829 C1825 1.495 . S
C1829 H1835 0.959 . S
C1829 H1836 0.961 . S
C1829 H1837 0.960 . S
C1830 C1828 1.381 1_565 S
C1830 C1831 1.394 . S
C1830 H1838 0.930 . S
C1831 C1830 1.394 . S
C1831 C1832 1.369 1_565 S
C1831 H1839 0.929 . S
C1832 C1831 1.369 1_545 S
C1832 C1833 1.393 . S
C1833 H1817 0.930 . S
C1833 C1832 1.393 . S
C1833 C1834 1.379 . S
C1834 H1818 0.931 . S
C1834 C1828 1.383 . S
C1834 C1833 1.379 . S
H1835 C1829 0.959 . S
H1836 C1829 0.961 . S
H1837 C1829 0.960 . S
H1838 C1830 0.930 . S
H1839 C1831 0.929 . S
H1840 C1848 0.929 . S
H1841 C1850 0.930 . S
H1842 C1852 0.930 . S
H1843 C1855 0.929 . S
H1844 C1858 0.933 . S
H1845 C1860 0.960 . S
H1846 C1860 0.960 . S
H1847 C1860 0.960 . S
C1848 H1840 0.929 . S
C1848 C1849 1.377 . S
C1848 C1850 1.384 . S
C1849 C1848 1.377 . S
C1849 C1855 1.390 . S
C1850 H1841 0.930 . S
C1850 C1848 1.384 . S
C1850 C1851 1.372 . S
C1851 C1850 1.372 . S
C1851 C1852 1.400 . S
C1851 C1856 1.490 . S
C1852 H1842 0.930 . S
C1852 C1851 1.400 . S
C1852 C1855 1.386 . S
H1853 C1869 0.930 . S
H1854 C1870 0.931 . S
C1855 H1843 0.929 . S
C1855 C1849 1.390 . S
C1855 C1852 1.386 . S
C1856 C1851 1.490 . S
C1856 C1858 1.401 . S
C1856 C1859 1.403 . S
H1857 C1863 0.930 . S
C1858 H1844 0.933 . S
C1858 C1856 1.401 . S
C1858 C1861 1.394 1_556 S
C1859 C1856 1.403 . S
C1859 C1860 1.524 . S
C1859 C1863 1.400 1_556 S
C1860 H1845 0.960 . S
C1860 H1846 0.960 . S
C1860 H1847 0.960 . S
C1860 C1859 1.524 . S
C1861 C1858 1.394 1_554 S
C1861 C1862 1.392 . S
C1861 C1865 1.495 . S
C1862 C1861 1.392 . S
C1862 C1863 1.385 . S
C1862 C1864 1.478 . S
C1863 H1857 0.930 . S
C1863 C1859 1.400 1_554 S
C1863 C1862 1.385 . S
C1864 C1862 1.478 . S
C1864 C1866 1.381 . S
C1864 C1870 1.383 . S
C1865 C1861 1.495 . S
C1865 H1871 0.959 . S
C1865 H1872 0.961 . S
C1865 H1873 0.960 . S
C1866 C1864 1.381 . S
C1866 C1867 1.394 . S
C1866 H1874 0.930 . S
C1867 C1866 1.394 . S
C1867 C1868 1.383 . S
C1867 H1875 0.929 . S
C1868 C1867 1.383 . S
C1868 C1869 1.377 . S
C1869 H1853 0.930 . S
C1869 C1868 1.377 . S
C1869 C1870 1.379 . S
C1870 H1854 0.931 . S
C1870 C1864 1.383 . S
C1870 C1869 1.379 . S
H1871 C1865 0.959 . S
H1872 C1865 0.961 . S
H1873 C1865 0.960 . S
H1874 C1866 0.930 . S
H1875 C1867 0.929 . S
H1876 C1884 0.929 . S
H1877 C1886 0.930 . S
H1878 C1888 0.930 . S
H1879 C1891 0.929 1_655 S
H1880 C1894 0.930 . S
H1881 C1896 0.960 . S
H1882 C1896 0.960 1_455 S
H1883 C1896 0.960 . S
C1884 H1876 0.929 . S
C1884 C1885 1.377 . S
C1884 C1886 1.384 . S
C1885 C1884 1.377 . S
C1885 C1891 1.390 . S
C1886 H1877 0.930 . S
C1886 C1884 1.384 . S
C1886 C1887 1.372 . S
C1887 C1886 1.372 . S
C1887 C1888 1.400 1_455 S
C1887 C1892 1.490 . S
C1888 H1878 0.930 . S
C1888 C1887 1.400 1_655 S
C1888 C1891 1.386 1_655 S
H1889 C1905 0.930 . S
H1890 C1906 0.931 . S
C1891 H1879 0.929 1_455 S
C1891 C1885 1.390 . S
C1891 C1888 1.386 1_455 S
C1892 C1887 1.490 . S
C1892 C1894 1.395 . S
C1892 C1895 1.403 1_455 S
H1893 C1899 0.930 . S
C1894 H1880 0.930 . S
C1894 C1892 1.395 . S
C1894 C1897 1.403 1_455 S
C1895 C1892 1.403 1_655 S
C1895 C1896 1.524 . S
C1895 C1899 1.400 . S
C1896 H1881 0.960 . S
C1896 H1882 0.960 1_655 S
C1896 H1883 0.960 . S
C1896 C1895 1.524 . S
C1897 C1894 1.403 1_655 S
C1897 C1898 1.392 . S
C1897 C1901 1.495 . S
C1898 C1897 1.392 . S
C1898 C1899 1.385 . S
C1898 C1900 1.478 . S
C1899 H1893 0.930 . S
C1899 C1895 1.400 . S
C1899 C1898 1.385 . S
C1900 C1898 1.478 . S
C1900 C1902 1.381 . S
C1900 C1906 1.383 . S
C1901 C1897 1.495 . S
C1901 H1907 0.959 . S
C1901 H1908 0.961 . S
C1901 H1909 0.960 1_655 S
C1902 C1900 1.381 . S
C1902 C1903 1.394 . S
C1902 H1910 0.930 1_655 S
C1903 C1902 1.394 . S
C1903 C1904 1.383 . S
C1903 H1911 0.929 1_655 S
C1904 C1903 1.383 . S
C1904 C1905 1.377 . S
C1905 H1889 0.930 . S
C1905 C1904 1.377 . S
C1905 C1906 1.379 . S
C1906 H1890 0.931 . S
C1906 C1900 1.383 . S
C1906 C1905 1.379 . S
H1907 C1901 0.959 . S
H1908 C1901 0.961 . S
H1909 C1901 0.960 1_455 S
H1910 C1902 0.930 1_455 S
H1911 C1903 0.929 1_455 S
H1912 C1920 0.929 1_655 S
H1913 C1922 0.907 1_655 S
H1914 C1924 0.930 . S
H1915 C1927 0.929 . S
H1916 C1930 0.930 . S
H1917 C1932 0.960 1_556 S
H1918 C1932 0.960 . S
H1919 C1932 0.960 . S
C1920 H1912 0.929 1_455 S
C1920 C1921 1.377 . S
C1920 C1922 1.388 . S
C1921 C1920 1.377 . S
C1921 C1927 1.390 . S
C1922 H1913 0.907 1_455 S
C1922 C1920 1.388 . S
C1922 C1923 1.391 . S
C1923 C1922 1.391 . S
C1923 C1924 1.400 . S
C1923 C1928 1.490 . S
C1924 H1914 0.930 . S
C1924 C1923 1.400 . S
C1924 C1927 1.386 . S
H1925 C1941 0.930 . S
H1926 C1942 0.931 . S
C1927 H1915 0.929 . S
C1927 C1921 1.390 . S
C1927 C1924 1.386 . S
C1928 C1923 1.490 . S
C1928 C1930 1.395 1_565 S
C1928 C1931 1.403 . S
H1929 C1935 0.930 . S
C1930 H1916 0.930 . S
C1930 C1928 1.395 1_545 S
C1930 C1933 1.403 . S
C1931 C1928 1.403 . S
C1931 C1932 1.524 . S
C1931 C1935 1.400 1_554 S
C1932 H1917 0.960 1_554 S
C1932 H1918 0.960 . S
C1932 H1919 0.960 . S
C1932 C1931 1.524 . S
C1933 C1930 1.403 . S
C1933 C1934 1.392 1_554 S
C1933 C1937 1.490 1_454 S
C1934 C1933 1.392 1_556 S
C1934 C1935 1.385 1_545 S
C1934 C1936 1.478 . S
C1935 H1929 0.930 . S
C1935 C1931 1.400 1_556 S
C1935 C1934 1.385 1_565 S
C1936 C1934 1.478 . S
C1936 C1938 1.381 1_455 S
C1936 C1942 1.383 . S
C1937 C1933 1.490 1_656 S
C1937 H1943 0.921 1_556 S
C1937 H1944 0.985 1_655 S
C1937 H1945 0.981 . S
C1938 C1936 1.381 1_655 S
C1938 C1939 1.394 . S
C1938 H1946 0.930 . S
C1939 C1938 1.394 . S
C1939 C1940 1.383 1_655 S
C1939 H1947 0.929 . S
C1940 C1939 1.383 1_455 S
C1940 C1941 1.377 . S
C1941 H1925 0.930 . S
C1941 C1940 1.377 . S
C1941 C1942 1.379 . S
C1942 H1926 0.931 . S
C1942 C1936 1.383 . S
C1942 C1941 1.379 . S
H1943 C1937 0.921 1_554 S
H1944 C1937 0.985 1_455 S
H1945 C1937 0.981 . S
H1946 C1938 0.930 . S
H1947 C1939 0.929 . S
H1948 C1956 0.929 . S
H1949 C1958 0.930 . S
H1950 C1960 0.930 . S
H1951 C1963 0.929 . S
H1952 C1966 0.930 . S
H1953 C1968 0.960 . S
H1954 C1968 0.960 1_545 S
H1955 C1968 0.960 . S
C1956 H1948 0.929 . S
C1956 C1957 1.377 . S
C1956 C1958 1.384 . S
C1957 C1956 1.377 . S
C1957 C1963 1.390 1_545 S
C1958 H1949 0.930 . S
C1958 C1956 1.384 . S
C1958 C1959 1.372 . S
C1959 C1958 1.372 . S
C1959 C1960 1.400 1_545 S
C1959 C1964 1.490 . S
C1960 H1950 0.930 . S
C1960 C1959 1.400 1_565 S
C1960 C1963 1.386 . S
H1961 C1977 0.930 1_565 S
H1962 C1978 0.931 1_565 S
C1963 H1951 0.929 . S
C1963 C1957 1.390 1_565 S
C1963 C1960 1.386 . S
C1964 C1959 1.490 . S
C1964 C1966 1.395 . S
C1964 C1967 1.403 . S
H1965 C1971 0.930 . S
C1966 H1952 0.930 . S
C1966 C1964 1.395 . S
C1966 C1969 1.403 . S
C1967 C1964 1.403 . S
C1967 C1968 1.524 1_545 S
C1967 C1971 1.400 . S
C1968 H1953 0.960 . S
C1968 H1954 0.960 1_565 S
C1968 H1955 0.960 . S
C1968 C1967 1.524 1_565 S
C1969 C1966 1.403 . S
C1969 C1970 1.392 . S
C1969 C1973 1.495 . S
C1970 C1969 1.392 . S
C1970 C1971 1.385 . S
C1970 C1972 1.478 . S
C1971 H1965 0.930 . S
C1971 C1967 1.400 . S
C1971 C1970 1.385 . S
C1972 C1970 1.478 . S
C1972 C1974 1.381 . S
C1972 C1978 1.383 . S
C1973 C1969 1.495 . S
C1973 H1979 0.959 . S
C1973 H1980 0.961 . S
C1973 H1981 0.960 . S
C1974 C1972 1.381 . S
C1974 C1975 1.394 . S
C1974 H1982 0.930 . S
C1975 C1974 1.394 . S
C1975 C1976 1.383 . S
C1975 H1983 0.929 . S
C1976 C1975 1.383 . S
C1976 C1977 1.377 . S
C1977 H1961 0.930 1_545 S
C1977 C1976 1.377 . S
C1977 C1978 1.379 . S
C1978 H1962 0.931 1_545 S
C1978 C1972 1.383 . S
C1978 C1977 1.379 . S
H1979 C1973 0.959 . S
H1980 C1973 0.961 . S
H1981 C1973 0.960 . S
H1982 C1974 0.930 . S
H1983 C1975 0.929 . S
C553 C5 1.930 . S
C572 C243 1.942 . S
C589 C141 1.934 . S
C608 C39 1.917 . S
C625 C73 1.931 . S
C644 C175 1.911 . S
C661 C107 1.928 . S
C680 C209 1.939 . S
C697 C281 1.330 . S
C716 C519 1.309 . S
C733 C315 1.334 . S
C752 C417 1.304 . S
C769 C349 1.339 . S
C788 C451 1.318 . S
C805 C485 1.341 . S
C824 C383 1.346 . S
C841 C33 1.912 . S
C860 C101 1.926 . S
C877 C135 1.909 . S
C896 C67 1.888 . S
C913 C237 1.908 . S
C932 C169 1.890 . S
C949 C203 1.910 . S
C968 C271 1.886 . S
C985 C373 1.193 . S
C1004 C305 1.223 . S
C1021 C407 1.182 . S
C1040 C339 1.175 . S
C1057 C509 1.194 . S
C1076 C441 1.221 . S
C1093 C543 1.183 . S
C1112 C475 1.202 . S
C1129 C410 0.362 . S
C1148 C20 0.226 . S
C1165 C444 0.335 . S
C1184 C54 0.260 . S
C1201 C88 0.226 . S
C1220 C478 0.373 . S
C1237 C512 0.361 . S
C1256 C122 0.245 . S
C1273 C156 0.228 . S
C1292 C274 0.432 . S
C1309 C308 0.364 . S
C1328 C190 0.240 . S
C1345 C224 0.232 . S
C1364 C342 0.261 . S
C1381 C258 0.226 . S
C1400 C376 0.378 . S
C1417 C138 0.380 . S
C1436 C292 0.279 . S
C1453 C172 0.360 . S
C1472 C326 0.309 . S
C1489 C206 0.350 . S
C1508 C360 0.284 . S
C1525 C240 0.374 . S
C1544 C394 0.300 . S
C1561 C2 0.380 . S
C1580 C428 0.285 . S
C1597 C36 0.374 . S
C1616 C462 0.270 . S
C1633 C70 0.378 . S
C1652 C496 0.274 . S
C1669 C530 0.276 . S
C1688 C104 0.442 . S
C1705 C277 1.673 . S
C1724 C9 1.592 . S
C1741 C43 1.627 . S
C1760 C311 1.651 . S
C1777 C77 1.617 1_455 S
C1796 C345 1.682 . S
C1813 C379 1.670 . S
C1832 C111 1.610 1_545 S
C1849 C145 1.628 . S
C1868 C413 1.647 . S
C1885 C179 1.627 . S
C1904 C447 1.651 . S
C1921 C481 1.668 . S
C1940 C213 1.626 1_455 S
C1957 C247 1.624 1_545 S
C1976 C515 1.659 . S
