# Generated by pormake.
# Topology fcn, (5)-cn, num edge types: 1
# Building blocks:
#     Node 0, Type 0, BuildingBlock: XOMCOT_clean_sbu_1, # of connection points: 5
#     Node 1, Type 0, BuildingBlock: XOMCOT_clean_sbu_1, # of connection points: 5
#     Node 2, Type 0, BuildingBlock: XOMCOT_clean_sbu_1, # of connection points: 5
#     Node 3, Type 0, BuildingBlock: XOMCOT_clean_sbu_1, # of connection points: 5
#     Node 4, Type 0, BuildingBlock: XOMCOT_clean_sbu_1, # of connection points: 5
#     Node 5, Type 0, BuildingBlock: XOMCOT_clean_sbu_1, # of connection points: 5
#     Node 6, Type 0, BuildingBlock: XOMCOT_clean_sbu_1, # of connection points: 5
#     Node 7, Type 0, BuildingBlock: XOMCOT_clean_sbu_1, # of connection points: 5
#     Node 8, Type 0, BuildingBlock: XOMCOT_clean_sbu_1, # of connection points: 5
#     Node 9, Type 0, BuildingBlock: XOMCOT_clean_sbu_1, # of connection points: 5
#     Node 10, Type 0, BuildingBlock: XOMCOT_clean_sbu_1, # of connection points: 5
#     Node 11, Type 0, BuildingBlock: XOMCOT_clean_sbu_1, # of connection points: 5
#     Node 12, Type 0, BuildingBlock: XOMCOT_clean_sbu_1, # of connection points: 5
#     Node 13, Type 0, BuildingBlock: XOMCOT_clean_sbu_1, # of connection points: 5
#     Node 14, Type 0, BuildingBlock: XOMCOT_clean_sbu_1, # of connection points: 5
#     Node 15, Type 0, BuildingBlock: XOMCOT_clean_sbu_1, # of connection points: 5
#     Node 16, Type 0, BuildingBlock: XOMCOT_clean_sbu_1, # of connection points: 5
#     Node 17, Type 0, BuildingBlock: XOMCOT_clean_sbu_1, # of connection points: 5
#     Node 18, Type 0, BuildingBlock: XOMCOT_clean_sbu_1, # of connection points: 5
#     Node 19, Type 0, BuildingBlock: XOMCOT_clean_sbu_1, # of connection points: 5
#     Node 20, Type 0, BuildingBlock: XOMCOT_clean_sbu_1, # of connection points: 5
#     Node 21, Type 0, BuildingBlock: XOMCOT_clean_sbu_1, # of connection points: 5
#     Node 22, Type 0, BuildingBlock: XOMCOT_clean_sbu_1, # of connection points: 5
#     Node 23, Type 0, BuildingBlock: XOMCOT_clean_sbu_1, # of connection points: 5
#     Node 24, Type 0, BuildingBlock: XOMCOT_clean_sbu_1, # of connection points: 5
#     Node 25, Type 0, BuildingBlock: XOMCOT_clean_sbu_1, # of connection points: 5
#     Node 26, Type 0, BuildingBlock: XOMCOT_clean_sbu_1, # of connection points: 5
#     Node 27, Type 0, BuildingBlock: XOMCOT_clean_sbu_1, # of connection points: 5
#     Node 28, Type 0, BuildingBlock: XOMCOT_clean_sbu_1, # of connection points: 5
#     Node 29, Type 0, BuildingBlock: XOMCOT_clean_sbu_1, # of connection points: 5
#     Node 30, Type 0, BuildingBlock: XOMCOT_clean_sbu_1, # of connection points: 5
#     Node 31, Type 0, BuildingBlock: XOMCOT_clean_sbu_1, # of connection points: 5
#     Node 32, Type 0, BuildingBlock: XOMCOT_clean_sbu_1, # of connection points: 5
#     Node 33, Type 0, BuildingBlock: XOMCOT_clean_sbu_1, # of connection points: 5
#     Node 34, Type 0, BuildingBlock: XOMCOT_clean_sbu_1, # of connection points: 5
#     Node 35, Type 0, BuildingBlock: XOMCOT_clean_sbu_1, # of connection points: 5
#     Node 36, Type 0, BuildingBlock: XOMCOT_clean_sbu_1, # of connection points: 5
#     Node 37, Type 0, BuildingBlock: XOMCOT_clean_sbu_1, # of connection points: 5
#     Node 38, Type 0, BuildingBlock: XOMCOT_clean_sbu_1, # of connection points: 5
#     Node 39, Type 0, BuildingBlock: XOMCOT_clean_sbu_1, # of connection points: 5
#     Node 40, Type 0, BuildingBlock: XOMCOT_clean_sbu_1, # of connection points: 5
#     Node 41, Type 0, BuildingBlock: XOMCOT_clean_sbu_1, # of connection points: 5
#     Node 42, Type 0, BuildingBlock: XOMCOT_clean_sbu_1, # of connection points: 5
#     Node 43, Type 0, BuildingBlock: XOMCOT_clean_sbu_1, # of connection points: 5
#     Node 44, Type 0, BuildingBlock: XOMCOT_clean_sbu_1, # of connection points: 5
#     Node 45, Type 0, BuildingBlock: XOMCOT_clean_sbu_1, # of connection points: 5
#     Node 46, Type 0, BuildingBlock: XOMCOT_clean_sbu_1, # of connection points: 5
#     Node 47, Type 0, BuildingBlock: XOMCOT_clean_sbu_1, # of connection points: 5
#     Edge 48, Type (0, 0), BuildingBlock: CIFDUS_clean_linker_0, # of connection points: 2
#     Edge 49, Type (0, 0), BuildingBlock: CIFDUS_clean_linker_0, # of connection points: 2
#     Edge 50, Type (0, 0), BuildingBlock: CIFDUS_clean_linker_0, # of connection points: 2
#     Edge 51, Type (0, 0), BuildingBlock: CIFDUS_clean_linker_0, # of connection points: 2
#     Edge 52, Type (0, 0), BuildingBlock: CIFDUS_clean_linker_0, # of connection points: 2
#     Edge 53, Type (0, 0), BuildingBlock: CIFDUS_clean_linker_0, # of connection points: 2
#     Edge 54, Type (0, 0), BuildingBlock: CIFDUS_clean_linker_0, # of connection points: 2
#     Edge 55, Type (0, 0), BuildingBlock: CIFDUS_clean_linker_0, # of connection points: 2
#     Edge 56, Type (0, 0), BuildingBlock: CIFDUS_clean_linker_0, # of connection points: 2
#     Edge 57, Type (0, 0), BuildingBlock: CIFDUS_clean_linker_0, # of connection points: 2
#     Edge 58, Type (0, 0), BuildingBlock: CIFDUS_clean_linker_0, # of connection points: 2
#     Edge 59, Type (0, 0), BuildingBlock: CIFDUS_clean_linker_0, # of connection points: 2
#     Edge 60, Type (0, 0), BuildingBlock: CIFDUS_clean_linker_0, # of connection points: 2
#     Edge 61, Type (0, 0), BuildingBlock: CIFDUS_clean_linker_0, # of connection points: 2
#     Edge 62, Type (0, 0), BuildingBlock: CIFDUS_clean_linker_0, # of connection points: 2
#     Edge 63, Type (0, 0), BuildingBlock: CIFDUS_clean_linker_0, # of connection points: 2
#     Edge 64, Type (0, 0), BuildingBlock: CIFDUS_clean_linker_0, # of connection points: 2
#     Edge 65, Type (0, 0), BuildingBlock: CIFDUS_clean_linker_0, # of connection points: 2
#     Edge 66, Type (0, 0), BuildingBlock: CIFDUS_clean_linker_0, # of connection points: 2
#     Edge 67, Type (0, 0), BuildingBlock: CIFDUS_clean_linker_0, # of connection points: 2
#     Edge 68, Type (0, 0), BuildingBlock: CIFDUS_clean_linker_0, # of connection points: 2
#     Edge 69, Type (0, 0), BuildingBlock: CIFDUS_clean_linker_0, # of connection points: 2
#     Edge 70, Type (0, 0), BuildingBlock: CIFDUS_clean_linker_0, # of connection points: 2
#     Edge 71, Type (0, 0), BuildingBlock: CIFDUS_clean_linker_0, # of connection points: 2
#     Edge 72, Type (0, 0), BuildingBlock: CIFDUS_clean_linker_0, # of connection points: 2
#     Edge 73, Type (0, 0), BuildingBlock: CIFDUS_clean_linker_0, # of connection points: 2
#     Edge 74, Type (0, 0), BuildingBlock: CIFDUS_clean_linker_0, # of connection points: 2
#     Edge 75, Type (0, 0), BuildingBlock: CIFDUS_clean_linker_0, # of connection points: 2
#     Edge 76, Type (0, 0), BuildingBlock: CIFDUS_clean_linker_0, # of connection points: 2
#     Edge 77, Type (0, 0), BuildingBlock: CIFDUS_clean_linker_0, # of connection points: 2
#     Edge 78, Type (0, 0), BuildingBlock: CIFDUS_clean_linker_0, # of connection points: 2
#     Edge 79, Type (0, 0), BuildingBlock: CIFDUS_clean_linker_0, # of connection points: 2
#     Edge 80, Type (0, 0), BuildingBlock: CIFDUS_clean_linker_0, # of connection points: 2
#     Edge 81, Type (0, 0), BuildingBlock: CIFDUS_clean_linker_0, # of connection points: 2
#     Edge 82, Type (0, 0), BuildingBlock: CIFDUS_clean_linker_0, # of connection points: 2
#     Edge 83, Type (0, 0), BuildingBlock: CIFDUS_clean_linker_0, # of connection points: 2
#     Edge 84, Type (0, 0), BuildingBlock: CIFDUS_clean_linker_0, # of connection points: 2
#     Edge 85, Type (0, 0), BuildingBlock: CIFDUS_clean_linker_0, # of connection points: 2
#     Edge 86, Type (0, 0), BuildingBlock: CIFDUS_clean_linker_0, # of connection points: 2
#     Edge 87, Type (0, 0), BuildingBlock: CIFDUS_clean_linker_0, # of connection points: 2
#     Edge 88, Type (0, 0), BuildingBlock: CIFDUS_clean_linker_0, # of connection points: 2
#     Edge 89, Type (0, 0), BuildingBlock: CIFDUS_clean_linker_0, # of connection points: 2
#     Edge 90, Type (0, 0), BuildingBlock: CIFDUS_clean_linker_0, # of connection points: 2
#     Edge 91, Type (0, 0), BuildingBlock: CIFDUS_clean_linker_0, # of connection points: 2
#     Edge 92, Type (0, 0), BuildingBlock: CIFDUS_clean_linker_0, # of connection points: 2
#     Edge 93, Type (0, 0), BuildingBlock: CIFDUS_clean_linker_0, # of connection points: 2
#     Edge 94, Type (0, 0), BuildingBlock: CIFDUS_clean_linker_0, # of connection points: 2
#     Edge 95, Type (0, 0), BuildingBlock: CIFDUS_clean_linker_0, # of connection points: 2
#     Edge 96, Type (0, 0), BuildingBlock: CIFDUS_clean_linker_0, # of connection points: 2
#     Edge 97, Type (0, 0), BuildingBlock: CIFDUS_clean_linker_0, # of connection points: 2
#     Edge 98, Type (0, 0), BuildingBlock: CIFDUS_clean_linker_0, # of connection points: 2
#     Edge 99, Type (0, 0), BuildingBlock: CIFDUS_clean_linker_0, # of connection points: 2
#     Edge 100, Type (0, 0), BuildingBlock: CIFDUS_clean_linker_0, # of connection points: 2
#     Edge 101, Type (0, 0), BuildingBlock: CIFDUS_clean_linker_0, # of connection points: 2
#     Edge 102, Type (0, 0), BuildingBlock: CIFDUS_clean_linker_0, # of connection points: 2
#     Edge 103, Type (0, 0), BuildingBlock: CIFDUS_clean_linker_0, # of connection points: 2
#     Edge 104, Type (0, 0), BuildingBlock: CIFDUS_clean_linker_0, # of connection points: 2
#     Edge 105, Type (0, 0), BuildingBlock: CIFDUS_clean_linker_0, # of connection points: 2
#     Edge 106, Type (0, 0), BuildingBlock: CIFDUS_clean_linker_0, # of connection points: 2
#     Edge 107, Type (0, 0), BuildingBlock: CIFDUS_clean_linker_0, # of connection points: 2
#     Edge 108, Type (0, 0), BuildingBlock: CIFDUS_clean_linker_0, # of connection points: 2
#     Edge 109, Type (0, 0), BuildingBlock: CIFDUS_clean_linker_0, # of connection points: 2
#     Edge 110, Type (0, 0), BuildingBlock: CIFDUS_clean_linker_0, # of connection points: 2
#     Edge 111, Type (0, 0), BuildingBlock: CIFDUS_clean_linker_0, # of connection points: 2
#     Edge 112, Type (0, 0), BuildingBlock: CIFDUS_clean_linker_0, # of connection points: 2
#     Edge 113, Type (0, 0), BuildingBlock: CIFDUS_clean_linker_0, # of connection points: 2
#     Edge 114, Type (0, 0), BuildingBlock: CIFDUS_clean_linker_0, # of connection points: 2
#     Edge 115, Type (0, 0), BuildingBlock: CIFDUS_clean_linker_0, # of connection points: 2
#     Edge 116, Type (0, 0), BuildingBlock: CIFDUS_clean_linker_0, # of connection points: 2
#     Edge 117, Type (0, 0), BuildingBlock: CIFDUS_clean_linker_0, # of connection points: 2
#     Edge 118, Type (0, 0), BuildingBlock: CIFDUS_clean_linker_0, # of connection points: 2
#     Edge 119, Type (0, 0), BuildingBlock: CIFDUS_clean_linker_0, # of connection points: 2
#     Edge 120, Type (0, 0), BuildingBlock: CIFDUS_clean_linker_0, # of connection points: 2
#     Edge 121, Type (0, 0), BuildingBlock: CIFDUS_clean_linker_0, # of connection points: 2
#     Edge 122, Type (0, 0), BuildingBlock: CIFDUS_clean_linker_0, # of connection points: 2
#     Edge 123, Type (0, 0), BuildingBlock: CIFDUS_clean_linker_0, # of connection points: 2
#     Edge 124, Type (0, 0), BuildingBlock: CIFDUS_clean_linker_0, # of connection points: 2
#     Edge 125, Type (0, 0), BuildingBlock: CIFDUS_clean_linker_0, # of connection points: 2
#     Edge 126, Type (0, 0), BuildingBlock: CIFDUS_clean_linker_0, # of connection points: 2
#     Edge 127, Type (0, 0), BuildingBlock: CIFDUS_clean_linker_0, # of connection points: 2
#     Edge 128, Type (0, 0), BuildingBlock: CIFDUS_clean_linker_0, # of connection points: 2
#     Edge 129, Type (0, 0), BuildingBlock: CIFDUS_clean_linker_0, # of connection points: 2
#     Edge 130, Type (0, 0), BuildingBlock: CIFDUS_clean_linker_0, # of connection points: 2
#     Edge 131, Type (0, 0), BuildingBlock: CIFDUS_clean_linker_0, # of connection points: 2
#     Edge 132, Type (0, 0), BuildingBlock: CIFDUS_clean_linker_0, # of connection points: 2
#     Edge 133, Type (0, 0), BuildingBlock: CIFDUS_clean_linker_0, # of connection points: 2
#     Edge 134, Type (0, 0), BuildingBlock: CIFDUS_clean_linker_0, # of connection points: 2
#     Edge 135, Type (0, 0), BuildingBlock: CIFDUS_clean_linker_0, # of connection points: 2
#     Edge 136, Type (0, 0), BuildingBlock: CIFDUS_clean_linker_0, # of connection points: 2
#     Edge 137, Type (0, 0), BuildingBlock: CIFDUS_clean_linker_0, # of connection points: 2
#     Edge 138, Type (0, 0), BuildingBlock: CIFDUS_clean_linker_0, # of connection points: 2
#     Edge 139, Type (0, 0), BuildingBlock: CIFDUS_clean_linker_0, # of connection points: 2
#     Edge 140, Type (0, 0), BuildingBlock: CIFDUS_clean_linker_0, # of connection points: 2
#     Edge 141, Type (0, 0), BuildingBlock: CIFDUS_clean_linker_0, # of connection points: 2
#     Edge 142, Type (0, 0), BuildingBlock: CIFDUS_clean_linker_0, # of connection points: 2
#     Edge 143, Type (0, 0), BuildingBlock: CIFDUS_clean_linker_0, # of connection points: 2
#     Edge 144, Type (0, 0), BuildingBlock: CIFDUS_clean_linker_0, # of connection points: 2
#     Edge 145, Type (0, 0), BuildingBlock: CIFDUS_clean_linker_0, # of connection points: 2
#     Edge 146, Type (0, 0), BuildingBlock: CIFDUS_clean_linker_0, # of connection points: 2
#     Edge 147, Type (0, 0), BuildingBlock: CIFDUS_clean_linker_0, # of connection points: 2
#     Edge 148, Type (0, 0), BuildingBlock: CIFDUS_clean_linker_0, # of connection points: 2
#     Edge 149, Type (0, 0), BuildingBlock: CIFDUS_clean_linker_0, # of connection points: 2
#     Edge 150, Type (0, 0), BuildingBlock: CIFDUS_clean_linker_0, # of connection points: 2
#     Edge 151, Type (0, 0), BuildingBlock: CIFDUS_clean_linker_0, # of connection points: 2
#     Edge 152, Type (0, 0), BuildingBlock: CIFDUS_clean_linker_0, # of connection points: 2
#     Edge 153, Type (0, 0), BuildingBlock: CIFDUS_clean_linker_0, # of connection points: 2
#     Edge 154, Type (0, 0), BuildingBlock: CIFDUS_clean_linker_0, # of connection points: 2
#     Edge 155, Type (0, 0), BuildingBlock: CIFDUS_clean_linker_0, # of connection points: 2
#     Edge 156, Type (0, 0), BuildingBlock: CIFDUS_clean_linker_0, # of connection points: 2
#     Edge 157, Type (0, 0), BuildingBlock: CIFDUS_clean_linker_0, # of connection points: 2
#     Edge 158, Type (0, 0), BuildingBlock: CIFDUS_clean_linker_0, # of connection points: 2
#     Edge 159, Type (0, 0), BuildingBlock: CIFDUS_clean_linker_0, # of connection points: 2
#     Edge 160, Type (0, 0), BuildingBlock: CIFDUS_clean_linker_0, # of connection points: 2
#     Edge 161, Type (0, 0), BuildingBlock: CIFDUS_clean_linker_0, # of connection points: 2
#     Edge 162, Type (0, 0), BuildingBlock: CIFDUS_clean_linker_0, # of connection points: 2
#     Edge 163, Type (0, 0), BuildingBlock: CIFDUS_clean_linker_0, # of connection points: 2
#     Edge 164, Type (0, 0), BuildingBlock: CIFDUS_clean_linker_0, # of connection points: 2
#     Edge 165, Type (0, 0), BuildingBlock: CIFDUS_clean_linker_0, # of connection points: 2
#     Edge 166, Type (0, 0), BuildingBlock: CIFDUS_clean_linker_0, # of connection points: 2
#     Edge 167, Type (0, 0), BuildingBlock: CIFDUS_clean_linker_0, # of connection points: 2
# Relax obj value: 0.273
# Max RMSD: 0.220
# Mean RMSD: 0.220
data_MOF--net-fcn--node1-XOMCOT_clean_sbu_1--edge1-CIFDUS_clean_linker_0
_symmetry_space_group_name_H-M    P1
_symmetry_Int_Tables_number       1
_symmetry_cell_setting            triclinic
loop_
_symmetry_equiv_pos_as_xyz
'x, y, z'
_cell_length_a     66.404585
_cell_length_b     66.410057
_cell_length_c     66.398446
_cell_angle_alpha  89.990668
_cell_angle_beta   89.953429
_cell_angle_gamma 90.037248
loop_
_atom_site_label
_atom_site_type_symbol
_atom_site_fract_x
_atom_site_fract_y
_atom_site_fract_z
_atom_type_partial_charge
C0 C 0.09766 0.21846 0.30111 0.0
C1 C 0.08215 0.23202 0.30248 0.0
N2 N 0.06506 0.22302 0.29619 0.0
N3 N 0.09068 0.20077 0.29398 0.0
C4 C 0.0707 0.20401 0.29123 0.0
H5 H 0.11321 0.22157 0.30472 0.0
Co6 Co 0.10684 0.17835 0.28686 0.0
C7 C 0.07662 0.15829 0.26902 0.0
O8 O 0.0756 0.15135 0.28753 0.0
N9 N 0.12297 0.15635 0.27916 0.0
C10 C 0.13875 0.12675 0.2793 0.0
C11 C 0.12285 0.13767 0.28715 0.0
C12 C 0.13878 0.15629 0.26628 0.0
N13 N 0.14881 0.13869 0.26636 0.0
O14 O 0.12122 0.19567 0.26902 0.0
H15 H 0.11258 0.1327 0.29879 0.0
H16 H 0.14381 0.16926 0.25783 0.0
O17 O 0.08927 0.17214 0.26509 0.0
C18 C 0.13389 0.20967 0.26579 0.0
O19 O 0.14385 0.21794 0.28073 0.0
N20 N 0.12393 0.18273 0.30914 0.0
C21 C 0.14452 0.16897 0.34312 0.0
C22 C 0.12428 0.17501 0.3444 0.0
C23 C 0.11411 0.18109 0.3271 0.0
C24 C 0.14437 0.18045 0.30837 0.0
C25 C 0.15492 0.17315 0.32512 0.0
H26 H 0.0979 0.18248 0.3277 0.0
H27 H 0.15227 0.18171 0.29423 0.0
H28 H 0.06057 0.19274 0.28536 0.0
H29 H 0.08367 0.24756 0.30708 0.0
H30 H 0.14337 0.11178 0.28378 0.0
H31 H 0.11571 0.17321 0.35816 0.0
H32 H 0.17056 0.16902 0.3232 0.0
C33 C 0.034 0.82334 0.55117 0.0
C34 C 0.02034 0.80773 0.5516 0.0
N35 N 0.02618 0.79384 0.53804 0.0
N36 N 0.04829 0.81937 0.53731 0.0
C37 C 0.04319 0.80121 0.52962 0.0
H38 H 0.03336 0.83694 0.56011 0.0
Co39 Co 0.0686 0.83729 0.52978 0.0
C40 C 0.09929 0.80394 0.51857 0.0
O41 O 0.11131 0.8047 0.53424 0.0
N42 N 0.08886 0.8555 0.52186 0.0
C43 C 0.11845 0.87005 0.51591 0.0
C44 C 0.10894 0.8538 0.52451 0.0
C45 C 0.08653 0.87313 0.51191 0.0
N46 N 0.10434 0.88219 0.50791 0.0
O47 O 0.05583 0.8412 0.50455 0.0
H48 H 0.11629 0.84179 0.53256 0.0
H49 H 0.07206 0.87912 0.50749 0.0
O50 O 0.08401 0.81557 0.51736 0.0
C51 C 0.03964 0.8514 0.50455 0.0
O52 O 0.03214 0.85787 0.52167 0.0
N53 N 0.0802 0.83484 0.55528 0.0
C54 C 0.09792 0.83784 0.59308 0.0
C55 C 0.09526 0.81893 0.584 0.0
C56 C 0.08559 0.81769 0.56524 0.0
C57 C 0.08107 0.853 0.56476 0.0
C58 C 0.09002 0.85489 0.58355 0.0
H59 H 0.0828 0.80311 0.55858 0.0
H60 H 0.07528 0.8663 0.55736 0.0
H61 H 0.05141 0.79377 0.51767 0.0
H62 H 0.00723 0.8066 0.56123 0.0
H63 H 0.1345 0.87292 0.51594 0.0
H64 H 0.10071 0.80537 0.59122 0.0
H65 H 0.0916 0.86975 0.59009 0.0
C66 C 0.39975 0.77789 0.8025 0.0
C67 C 0.41615 0.76524 0.80185 0.0
N68 N 0.4289 0.7721 0.78761 0.0
N69 N 0.40221 0.79263 0.78877 0.0
C70 C 0.42002 0.78864 0.77985 0.0
H71 H 0.38687 0.77653 0.8124 0.0
Co72 Co 0.38403 0.81313 0.78347 0.0
C73 C 0.41177 0.84844 0.77485 0.0
O74 O 0.40314 0.86063 0.78773 0.0
N75 N 0.36495 0.83378 0.77791 0.0
C76 C 0.34688 0.86213 0.77808 0.0
C77 C 0.3619 0.85158 0.78745 0.0
C78 C 0.35085 0.83371 0.76317 0.0
N79 N 0.33998 0.85084 0.76287 0.0
O80 O 0.38091 0.8031 0.75697 0.0
H81 H 0.3697 0.85671 0.80075 0.0
H82 H 0.34853 0.82147 0.75269 0.0
O83 O 0.40585 0.83021 0.77303 0.0
C84 C 0.37324 0.78588 0.75367 0.0
O85 O 0.3671 0.7748 0.76888 0.0
N86 N 0.38699 0.82201 0.80985 0.0
C87 C 0.38764 0.83901 0.84805 0.0
C88 C 0.40567 0.83564 0.8374 0.0
C89 C 0.40499 0.82721 0.81818 0.0
C90 C 0.36993 0.82186 0.82121 0.0
C91 C 0.36973 0.83094 0.84009 0.0
H92 H 0.41881 0.82544 0.80975 0.0
H93 H 0.35602 0.8163 0.81482 0.0
H94 H 0.42622 0.79752 0.76769 0.0
H95 H 0.41872 0.75232 0.81145 0.0
H96 H 0.34109 0.87676 0.78238 0.0
H97 H 0.42011 0.84026 0.84336 0.0
H98 H 0.35534 0.83275 0.84748 0.0
C99 C 0.46213 0.18545 0.04876 0.0
C100 C 0.47497 0.20172 0.04892 0.0
N101 N 0.46883 0.21485 0.03469 0.0
N102 N 0.44794 0.18836 0.03458 0.0
C103 C 0.45244 0.20631 0.0262 0.0
H104 H 0.463 0.17233 0.05838 0.0
Co105 Co 0.42742 0.17068 0.02796 0.0
C106 C 0.39487 0.20355 0.02315 0.0
O107 O 0.38505 0.20091 0.0401 0.0
N108 N 0.40679 0.15294 0.02105 0.0
C109 C 0.37748 0.13682 0.01982 0.0
C110 C 0.38739 0.15332 0.02725 0.0
C111 C 0.40824 0.13619 0.00964 0.0
N112 N 0.39061 0.1262 0.00871 0.0
O113 O 0.43773 0.16893 0.00064 0.0
H114 H 0.38102 0.1642 0.03746 0.0
H115 H 0.42212 0.13092 0.0029 0.0
O116 O 0.41032 0.19286 0.0189 0.0
C117 C 0.45499 0.16122 0.99729 0.0
O118 O 0.46587 0.15497 0.01257 0.0
N119 N 0.41823 0.17126 0.055 0.0
C120 C 0.40021 0.16756 0.09278 0.0
C121 C 0.40456 0.18665 0.08474 0.0
C122 C 0.41431 0.18815 0.06604 0.0
C123 C 0.41648 0.15275 0.06377 0.0
C124 C 0.40726 0.15053 0.08252 0.0
H125 H 0.41764 0.20287 0.05992 0.0
H126 H 0.42118 0.13946 0.05561 0.0
H127 H 0.44403 0.21279 0.01385 0.0
H128 H 0.48761 0.20384 0.05898 0.0
H129 H 0.36201 0.13259 0.02279 0.0
H130 H 0.39996 0.20021 0.09255 0.0
H131 H 0.40456 0.13551 0.0883 0.0
C132 C 0.08144 0.78819 0.21253 0.0
C133 C 0.06747 0.77359 0.20786 0.0
N134 N 0.05133 0.77607 0.21992 0.0
N135 N 0.07416 0.79979 0.2275 0.0
C136 C 0.05573 0.7921 0.23165 0.0
H137 H 0.09641 0.78955 0.20626 0.0
Co138 Co 0.08929 0.81807 0.24237 0.0
C139 C 0.06159 0.85151 0.25151 0.0
O140 O 0.07578 0.86424 0.24612 0.0
N141 N 0.10493 0.83599 0.25854 0.0
C142 C 0.11399 0.85233 0.28648 0.0
C143 C 0.0989 0.84183 0.27711 0.0
C144 C 0.12424 0.84266 0.25741 0.0
N145 N 0.13002 0.85284 0.27413 0.0
O146 O 0.08662 0.80127 0.26522 0.0
H147 H 0.08465 0.83786 0.28393 0.0
H148 H 0.1343 0.83948 0.24509 0.0
O149 O 0.06474 0.83255 0.25007 0.0
C150 C 0.10145 0.7893 0.2669 0.0
O151 O 0.11517 0.78921 0.25262 0.0
N152 N 0.09314 0.83369 0.21905 0.0
C153 C 0.10387 0.85703 0.18596 0.0
C154 C 0.08362 0.85541 0.19174 0.0
C155 C 0.07848 0.84327 0.20823 0.0
C156 C 0.1123 0.83296 0.2118 0.0
C157 C 0.11819 0.84504 0.19569 0.0
H158 H 0.06283 0.84189 0.21245 0.0
H159 H 0.12315 0.82303 0.21871 0.0
H160 H 0.04639 0.79714 0.24402 0.0
H161 H 0.06931 0.7616 0.19696 0.0
H162 H 0.11355 0.85805 0.30174 0.0
H163 H 0.07204 0.86392 0.18405 0.0
H164 H 0.13381 0.84513 0.19096 0.0
C165 C 0.49266 0.83794 0.46387 0.0
C166 C 0.50617 0.82297 0.45921 0.0
N167 N 0.49977 0.80571 0.46778 0.0
N168 N 0.47777 0.83019 0.47527 0.0
C169 C 0.48248 0.81051 0.47744 0.0
H170 H 0.49373 0.85359 0.45949 0.0
Co171 Co 0.45734 0.84553 0.48638 0.0
C172 C 0.4221 0.8185 0.49076 0.0
O173 O 0.41061 0.83262 0.483 0.0
N174 N 0.43711 0.86149 0.49836 0.0
C175 C 0.41458 0.87205 0.52085 0.0
C176 C 0.4274 0.85675 0.51563 0.0
C177 C 0.43059 0.88027 0.49403 0.0
N178 N 0.41659 0.88693 0.50721 0.0
O179 O 0.46951 0.84334 0.51237 0.0
H180 H 0.42971 0.84306 0.52415 0.0
H181 H 0.43676 0.8895 0.48224 0.0
O182 O 0.44117 0.82129 0.49199 0.0
C183 C 0.48069 0.85837 0.51646 0.0
O184 O 0.48433 0.87151 0.5021 0.0
N185 N 0.4463 0.84913 0.46039 0.0
C186 C 0.426 0.86191 0.42614 0.0
C187 C 0.4255 0.84156 0.43183 0.0
C188 C 0.43625 0.83532 0.44891 0.0
C189 C 0.44988 0.86785 0.45283 0.0
C190 C 0.43932 0.87485 0.43611 0.0
H191 H 0.43559 0.8197 0.45337 0.0
H192 H 0.45999 0.8779 0.46071 0.0
H193 H 0.47377 0.80006 0.48642 0.0
H194 H 0.51962 0.82465 0.45015 0.0
H195 H 0.40484 0.8722 0.5339 0.0
H196 H 0.41598 0.8309 0.42398 0.0
H197 H 0.44085 0.89044 0.43158 0.0
C198 C 0.41021 0.23863 0.7034 0.0
C199 C 0.4264 0.25152 0.70311 0.0
N200 N 0.44076 0.24403 0.71532 0.0
N201 N 0.41429 0.22302 0.71569 0.0
C202 C 0.43304 0.22668 0.72276 0.0
H203 H 0.39618 0.2406 0.69539 0.0
Co204 Co 0.39527 0.20333 0.72159 0.0
C205 C 0.42061 0.16684 0.73246 0.0
O206 O 0.41102 0.15426 0.72068 0.0
N207 N 0.37503 0.18373 0.7276 0.0
C208 C 0.35454 0.15705 0.72648 0.0
C209 C 0.37086 0.1663 0.71784 0.0
C210 C 0.36035 0.18489 0.74181 0.0
N211 N 0.34792 0.1688 0.74151 0.0
O212 O 0.39299 0.21401 0.74772 0.0
H213 H 0.37866 0.16071 0.7047 0.0
H214 H 0.35853 0.19732 0.75213 0.0
O215 O 0.41617 0.18558 0.73253 0.0
C216 C 0.38273 0.22978 0.75107 0.0
O217 O 0.37287 0.23831 0.7362 0.0
N218 N 0.3974 0.19387 0.69535 0.0
C219 C 0.39546 0.17927 0.65611 0.0
C220 C 0.4136 0.17851 0.66708 0.0
C221 C 0.41427 0.18598 0.68676 0.0
C222 C 0.38043 0.1968 0.68427 0.0
C223 C 0.37894 0.1892 0.66481 0.0
H224 H 0.42819 0.1852 0.69515 0.0
H225 H 0.36753 0.20408 0.69108 0.0
H226 H 0.44064 0.2172 0.73359 0.0
H227 H 0.42755 0.26529 0.69446 0.0
H228 H 0.34756 0.14315 0.72158 0.0
H229 H 0.42706 0.17185 0.66073 0.0
H230 H 0.36458 0.19026 0.6572 0.0
C231 C 0.03581 0.17345 0.96819 0.0
C232 C 0.02115 0.18725 0.96349 0.0
N233 N 0.02497 0.20434 0.97374 0.0
N234 N 0.04883 0.18179 0.98129 0.0
C235 C 0.04188 0.20063 0.98444 0.0
H236 H 0.03681 0.15816 0.96267 0.0
Co237 Co 0.06964 0.16749 0.99274 0.0
C238 C 0.10093 0.19704 0.00378 0.0
O239 O 0.1144 0.18543 0.99505 0.0
N240 N 0.09031 0.1521 0.00494 0.0
C241 C 0.11035 0.14025 0.02909 0.0
C242 C 0.09743 0.15542 0.02372 0.0
C243 C 0.09876 0.13434 0.99954 0.0
N244 N 0.11116 0.12691 0.01387 0.0
O245 O 0.05466 0.16593 0.01737 0.0
H246 H 0.0928 0.1677 0.03337 0.0
H247 H 0.09531 0.12641 0.98584 0.0
O248 O 0.08227 0.19222 0.00303 0.0
C249 C 0.0464 0.14945 0.02259 0.0
O250 O 0.04807 0.13374 0.01067 0.0
N251 N 0.08354 0.16872 0.96779 0.0
C252 C 0.1049 0.1672 0.93158 0.0
C253 C 0.10207 0.18555 0.94163 0.0
C254 C 0.09072 0.1861 0.95937 0.0
C255 C 0.08385 0.15138 0.95682 0.0
C256 C 0.09484 0.15012 0.9389 0.0
H257 H 0.08805 0.20049 0.96644 0.0
H258 H 0.07565 0.13835 0.9621 0.0
H259 H 0.04869 0.21119 0.99481 0.0
H260 H 0.00869 0.18491 0.95324 0.0
H261 H 0.11756 0.13856 0.04361 0.0
H262 H 0.10868 0.19933 0.9359 0.0
H263 H 0.09597 0.13576 0.93126 0.0
C264 C 0.2868 0.06917 0.21789 0.0
C265 C 0.28869 0.05279 0.23033 0.0
N266 N 0.28124 0.03659 0.22071 0.0
N267 N 0.27815 0.06349 0.20038 0.0
C268 C 0.27511 0.04344 0.20253 0.0
H269 H 0.29157 0.08429 0.22149 0.0
Co270 Co 0.27084 0.08062 0.17899 0.0
C271 C 0.25125 0.05204 0.15698 0.0
O272 O 0.2689 0.0516 0.14803 0.0
N273 N 0.26355 0.09768 0.15786 0.0
C274 C 0.2671 0.11602 0.13006 0.0
C275 C 0.27267 0.0985 0.13972 0.0
C276 C 0.25216 0.11449 0.15866 0.0
N277 N 0.25447 0.12619 0.14223 0.0
O278 O 0.25254 0.09423 0.19734 0.0
H279 H 0.28409 0.08804 0.13469 0.0
H280 H 0.24375 0.11911 0.1718 0.0
O281 O 0.2489 0.06341 0.17223 0.0
C282 C 0.25079 0.10567 0.21267 0.0
O283 O 0.26678 0.11342 0.22132 0.0
N284 N 0.29327 0.09729 0.18379 0.0
C285 C 0.32798 0.1192 0.17412 0.0
C286 C 0.32818 0.09806 0.17449 0.0
C287 C 0.31067 0.08747 0.17919 0.0
C288 C 0.29301 0.11784 0.18493 0.0
C289 C 0.31028 0.12908 0.18026 0.0
H290 H 0.31051 0.07129 0.17729 0.0
H291 H 0.27909 0.12578 0.18752 0.0
H292 H 0.26809 0.03408 0.19121 0.0
H293 H 0.29525 0.05279 0.24525 0.0
H294 H 0.2734 0.12174 0.11614 0.0
H295 H 0.34119 0.08964 0.16944 0.0
H296 H 0.30938 0.14536 0.18025 0.0
C297 C 0.17869 0.012 0.47397 0.0
C298 C 0.19483 0.01183 0.48678 0.0
N299 N 0.21178 0.01009 0.47575 0.0
N300 N 0.18521 0.01031 0.45486 0.0
C301 C 0.20553 0.00932 0.45631 0.0
H302 H 0.16308 0.01366 0.47829 0.0
Co303 Co 0.16672 0.01058 0.43397 0.0
C304 C 0.18738 0.99727 0.39619 0.0
O305 O 0.17437 0.00715 0.3851 0.0
N306 N 0.14655 0.01115 0.41338 0.0
C307 C 0.1237 0.02211 0.39132 0.0
C308 C 0.13977 0.0274 0.40305 0.0
C309 C 0.13411 0.99608 0.40729 0.0
N310 N 0.11992 0.00245 0.39417 0.0
O311 O 0.15869 0.98388 0.44163 0.0
H312 H 0.14556 0.0425 0.404 0.0
H313 H 0.13471 0.98087 0.41301 0.0
O314 O 0.18652 0.99843 0.41545 0.0
C315 C 0.14332 0.98119 0.45284 0.0
O316 O 0.13229 0.99681 0.45789 0.0
N317 N 0.1743 0.0372 0.42805 0.0
C318 C 0.17161 0.07725 0.41625 0.0
C319 C 0.18541 0.06427 0.40684 0.0
C320 C 0.18676 0.04417 0.41321 0.0
C321 C 0.16329 0.05034 0.43931 0.0
C322 C 0.16175 0.07049 0.43369 0.0
H323 H 0.19665 0.03416 0.40517 0.0
H324 H 0.15397 0.04467 0.45142 0.0
H325 H 0.21547 0.00815 0.44344 0.0
H326 H 0.19412 0.01355 0.50297 0.0
H327 H 0.11502 0.0322 0.38191 0.0
H328 H 0.19364 0.069 0.39357 0.0
H329 H 0.15138 0.08018 0.44174 0.0
C330 C 0.21382 0.93472 0.69848 0.0
C331 C 0.21116 0.94937 0.71285 0.0
N332 N 0.22346 0.96483 0.7085 0.0
N333 N 0.22793 0.94066 0.68497 0.0
C334 C 0.23335 0.95926 0.69157 0.0
H335 H 0.20601 0.92046 0.69835 0.0
Co336 Co 0.23893 0.92588 0.6627 0.0
C337 C 0.25605 0.95906 0.64505 0.0
O338 O 0.23876 0.959 0.63545 0.0
N339 N 0.24978 0.91164 0.64087 0.0
C340 C 0.25319 0.89908 0.60999 0.0
C341 C 0.244 0.9137 0.62151 0.0
C342 C 0.26256 0.89579 0.64073 0.0
N343 N 0.26468 0.88769 0.62219 0.0
O344 O 0.25717 0.91248 0.68113 0.0
H345 H 0.23291 0.9244 0.6163 0.0
H346 H 0.26943 0.88955 0.65411 0.0
O347 O 0.25906 0.94603 0.65881 0.0
C348 C 0.2554 0.90253 0.69747 0.0
O349 O 0.23759 0.89867 0.70513 0.0
N350 N 0.21876 0.90606 0.66455 0.0
C351 C 0.18825 0.87851 0.65558 0.0
C352 C 0.18479 0.89932 0.65427 0.0
C353 C 0.20035 0.91279 0.65851 0.0
C354 C 0.22228 0.88584 0.66637 0.0
C355 C 0.20714 0.87185 0.6622 0.0
H356 H 0.19807 0.92872 0.65598 0.0
H357 H 0.23712 0.88024 0.66976 0.0
H358 H 0.24469 0.96852 0.68447 0.0
H359 H 0.20081 0.94876 0.72544 0.0
H360 H 0.25051 0.89619 0.59417 0.0
H361 H 0.17065 0.90515 0.64863 0.0
H362 H 0.21053 0.85592 0.66315 0.0
C363 C 0.33558 0.96723 0.98401 0.0
C364 C 0.31803 0.96448 0.99461 0.0
N365 N 0.30378 0.97641 0.98652 0.0
N366 N 0.33245 0.98078 0.96922 0.0
C367 C 0.31293 0.98627 0.97123 0.0
H368 H 0.34965 0.95944 0.98653 0.0
Co369 Co 0.35157 0.98704 0.94968 0.0
C370 C 0.33073 0.01304 0.92154 0.0
O371 O 0.34583 0.02561 0.92388 0.0
N372 N 0.37091 0.99292 0.92977 0.0
C373 C 0.38431 0.996 0.89922 0.0
C374 C 0.36946 0.98698 0.91034 0.0
C375 C 0.38716 0.00526 0.93016 0.0
N376 N 0.39536 0.0075 0.91166 0.0
O377 O 0.35419 0.01328 0.96048 0.0
H378 H 0.35761 0.97756 0.90434 0.0
H379 H 0.3921 0.01339 0.94338 0.0
O380 O 0.33045 0.99642 0.93131 0.0
C381 C 0.3626 0.01509 0.97755 0.0
O382 O 0.36862 0.99898 0.9873 0.0
N383 N 0.3501 0.96091 0.94045 0.0
C384 C 0.35482 0.92185 0.92682 0.0
C385 C 0.33682 0.9323 0.92311 0.0
C386 C 0.33468 0.95202 0.93021 0.0
C387 C 0.36697 0.95045 0.94542 0.0
C388 C 0.3697 0.93088 0.93868 0.0
H389 H 0.32105 0.96029 0.92697 0.0
H390 H 0.37869 0.95773 0.95408 0.0
H391 H 0.30534 0.99661 0.9612 0.0
H392 H 0.31583 0.95429 0.00715 0.0
H393 H 0.38645 0.99481 0.8831 0.0
H394 H 0.32503 0.92571 0.91396 0.0
H395 H 0.38366 0.92314 0.94202 0.0
C396 C 0.29143 0.90234 0.28577 0.0
C397 C 0.29246 0.91852 0.27291 0.0
N398 N 0.28197 0.93385 0.28108 0.0
N399 N 0.28036 0.90738 0.30201 0.0
C400 C 0.27477 0.92667 0.29875 0.0
H401 H 0.29839 0.88779 0.28353 0.0
Co402 Co 0.27487 0.88976 0.32298 0.0
C403 C 0.26941 0.91765 0.35855 0.0
O404 O 0.28276 0.90813 0.36953 0.0
N405 N 0.26925 0.8712 0.34426 0.0
C406 C 0.27229 0.85142 0.37129 0.0
C407 C 0.28081 0.86676 0.36051 0.0
C408 C 0.25361 0.85813 0.34579 0.0
N409 N 0.25521 0.84599 0.362 0.0
O410 O 0.24765 0.8874 0.31348 0.0
H411 H 0.29505 0.87363 0.36424 0.0
H412 H 0.2417 0.85671 0.33482 0.0
O413 O 0.26614 0.91216 0.34036 0.0
C414 C 0.24522 0.87536 0.29871 0.0
O415 O 0.26108 0.86597 0.2915 0.0
N416 N 0.30203 0.89107 0.33058 0.0
C417 C 0.34133 0.88595 0.34444 0.0
C418 C 0.33201 0.905 0.34506 0.0
C419 C 0.31236 0.90733 0.33768 0.0
C420 C 0.31174 0.87329 0.32736 0.0
C421 C 0.33118 0.87024 0.33458 0.0
H422 H 0.30525 0.92195 0.33835 0.0
H423 H 0.30368 0.86088 0.32053 0.0
H424 H 0.26543 0.93522 0.309 0.0
H425 H 0.30068 0.91907 0.25884 0.0
H426 H 0.27846 0.84437 0.38463 0.0
H427 H 0.33959 0.91786 0.35162 0.0
H428 H 0.33758 0.8553 0.33348 0.0
C429 C 0.3529 0.04764 0.51682 0.0
C430 C 0.33738 0.04696 0.5032 0.0
N431 N 0.32363 0.03347 0.50969 0.0
N432 N 0.34901 0.03485 0.53208 0.0
C433 C 0.33114 0.02632 0.52729 0.0
H434 H 0.36631 0.05679 0.51556 0.0
Co435 Co 0.36662 0.03002 0.5534 0.0
C436 C 0.34003 0.02472 0.59 0.0
O437 O 0.35334 0.03198 0.60261 0.0
N438 N 0.38547 0.02507 0.57477 0.0
C439 C 0.40683 0.02959 0.60036 0.0
C440 C 0.39184 0.03813 0.58914 0.0
C441 C 0.39719 0.00856 0.5778 0.0
N442 N 0.41026 0.01102 0.59321 0.0
O443 O 0.36671 0.00232 0.54703 0.0
H444 H 0.38593 0.05302 0.59178 0.0
H445 H 0.39681 0.99522 0.5685 0.0
O446 O 0.34366 0.02441 0.57109 0.0
C447 C 0.37501 0.99579 0.53109 0.0
O448 O 0.38269 0.00868 0.51817 0.0
N449 N 0.3671 0.05751 0.55887 0.0
C450 C 0.37732 0.09499 0.57371 0.0
C451 C 0.3579 0.08727 0.57689 0.0
C452 C 0.35295 0.06834 0.5691 0.0
C453 C 0.38478 0.06618 0.55307 0.0
C454 C 0.39038 0.0849 0.56061 0.0
H455 H 0.33842 0.0619 0.57253 0.0
H456 H 0.3955 0.05751 0.54437 0.0
H457 H 0.32409 0.01474 0.53633 0.0
H458 H 0.33633 0.05594 0.48966 0.0
H459 H 0.41463 0.03652 0.61289 0.0
H460 H 0.34739 0.09488 0.58678 0.0
H461 H 0.4054 0.09057 0.55772 0.0
C462 C 0.21835 0.09023 0.79002 0.0
C463 C 0.21627 0.07566 0.7755 0.0
N464 N 0.22336 0.05821 0.78292 0.0
N465 N 0.22684 0.08219 0.80667 0.0
C466 C 0.22953 0.06251 0.80187 0.0
H467 H 0.21396 0.10579 0.7884 0.0
Co468 Co 0.23471 0.09688 0.82988 0.0
C469 C 0.25434 0.06545 0.84621 0.0
O470 O 0.23595 0.06241 0.85291 0.0
N471 N 0.2429 0.11153 0.85264 0.0
C472 C 0.24429 0.12364 0.88387 0.0
C473 C 0.23671 0.10853 0.87176 0.0
C474 C 0.25439 0.12834 0.85355 0.0
N475 N 0.25521 0.1362 0.87226 0.0
O476 O 0.25143 0.11346 0.81255 0.0
H477 H 0.2266 0.09663 0.8764 0.0
H478 H 0.26138 0.13535 0.84063 0.0
O479 O 0.2573 0.07968 0.83367 0.0
C480 C 0.25195 0.12775 0.7997 0.0
O481 O 0.23543 0.13713 0.79429 0.0
N482 N 0.21154 0.11312 0.82828 0.0
C483 C 0.17646 0.13171 0.84235 0.0
C484 C 0.17682 0.11101 0.83817 0.0
C485 C 0.19453 0.10203 0.83133 0.0
C486 C 0.21114 0.13354 0.83087 0.0
C487 C 0.19366 0.14315 0.83769 0.0
H488 H 0.1952 0.08579 0.83039 0.0
H489 H 0.22475 0.14232 0.82966 0.0
H490 H 0.23641 0.0516 0.81179 0.0
H491 H 0.20988 0.07773 0.76065 0.0
H492 H 0.24108 0.12585 0.8997 0.0
H493 H 0.16418 0.10141 0.84191 0.0
H494 H 0.19408 0.15918 0.84061 0.0
C495 C 0.15987 0.95364 0.03013 0.0
C496 C 0.17736 0.94754 0.0208 0.0
N497 N 0.19143 0.96189 0.02364 0.0
N498 N 0.16304 0.97158 0.03907 0.0
C499 C 0.18232 0.97634 0.03466 0.0
H500 H 0.14579 0.94545 0.03052 0.0
Co501 Co 0.14466 0.9864 0.05401 0.0
C502 C 0.16658 0.99832 0.09092 0.0
O503 O 0.15053 0.99402 0.10172 0.0
N504 N 0.12597 0.00235 0.06866 0.0
C505 C 0.11383 0.03021 0.08294 0.0
C506 C 0.13004 0.02174 0.07345 0.0
C507 C 0.10671 0.99969 0.07499 0.0
N508 N 0.09915 0.01632 0.08395 0.0
O509 O 0.14925 0.00904 0.03715 0.0
H510 H 0.14401 0.02942 0.07009 0.0
H511 H 0.09812 0.98607 0.07306 0.0
O512 O 0.16636 0.99557 0.07184 0.0
C513 C 0.13724 0.01167 0.02249 0.0
O514 O 0.12461 0.99713 0.01789 0.0
N515 N 0.13953 0.96344 0.06999 0.0
C516 C 0.12878 0.93029 0.09358 0.0
C517 C 0.14856 0.93783 0.09382 0.0
C518 C 0.15371 0.9542 0.08167 0.0
C519 C 0.12118 0.95462 0.06749 0.0
C520 C 0.11521 0.93847 0.07958 0.0
H521 H 0.16912 0.9594 0.0817 0.0
H522 H 0.11096 0.96038 0.05621 0.0
H523 H 0.18967 0.98998 0.03973 0.0
H524 H 0.17954 0.9337 0.01247 0.0
H525 H 0.11276 0.04559 0.08823 0.0
H526 H 0.16 0.9312 0.10334 0.0
H527 H 0.09996 0.93287 0.07825 0.0
C528 C 0.2278 0.29705 0.09495 0.0
C529 C 0.23786 0.30172 0.07737 0.0
N530 N 0.23053 0.28987 0.06262 0.0
N531 N 0.2143 0.28237 0.09114 0.0
C532 C 0.21647 0.27822 0.07142 0.0
H533 H 0.23018 0.30382 0.10957 0.0
Co534 Co 0.19733 0.26976 0.10912 0.0
C535 C 0.16 0.26194 0.08469 0.0
O536 O 0.14802 0.26811 0.09921 0.0
N537 N 0.18062 0.25626 0.12765 0.0
C538 C 0.16296 0.23128 0.14143 0.0
C539 C 0.17099 0.2387 0.12392 0.0
C540 C 0.17886 0.25866 0.14782 0.0
N541 N 0.16796 0.24386 0.15649 0.0
O542 O 0.21118 0.24506 0.10485 0.0
H543 H 0.17087 0.23101 0.10957 0.0
H544 H 0.18625 0.27032 0.15631 0.0
O545 O 0.1791 0.26245 0.08711 0.0
C546 C 0.2229 0.239 0.11868 0.0
O547 O 0.22615 0.25079 0.13425 0.0
N548 N 0.18432 0.2945 0.11377 0.0
C549 C 0.16309 0.32866 0.12524 0.0
C550 C 0.16205 0.32164 0.10536 0.0
C551 C 0.17318 0.30469 0.09979 0.0
C552 C 0.18793 0.30307 0.13205 0.0
C553 C 0.17694 0.31979 0.1384 0.0
H554 H 0.17243 0.29956 0.08439 0.0
H555 H 0.19913 0.29666 0.14191 0.0
H556 H 0.20831 0.26646 0.0637 0.0
H557 H 0.24946 0.31303 0.07553 0.0
H558 H 0.15513 0.21708 0.14311 0.0
H559 H 0.15205 0.32858 0.09451 0.0
H560 H 0.17895 0.32547 0.15356 0.0
C561 C 0.718 0.22631 0.91293 0.0
C562 C 0.7319 0.22492 0.92813 0.0
N563 N 0.72238 0.22792 0.94579 0.0
N564 N 0.69967 0.23018 0.92084 0.0
C565 C 0.70286 0.23103 0.94092 0.0
H566 H 0.72102 0.22399 0.89712 0.0
Co567 Co 0.67556 0.23276 0.90628 0.0
C568 C 0.65647 0.2493 0.93688 0.0
O569 O 0.653 0.22996 0.93932 0.0
N570 N 0.65165 0.23561 0.89179 0.0
C571 C 0.62279 0.22669 0.87748 0.0
C572 C 0.63577 0.22303 0.89323 0.0
C573 C 0.64769 0.24724 0.87557 0.0
N574 N 0.63042 0.24186 0.86636 0.0
O575 O 0.68959 0.25151 0.889 0.0
H576 H 0.63459 0.21088 0.90402 0.0
H577 H 0.65817 0.25807 0.86937 0.0
O578 O 0.66773 0.25497 0.92246 0.0
C579 C 0.7011 0.2541 0.87385 0.0
O580 O 0.70699 0.23869 0.86296 0.0
N581 N 0.68158 0.20933 0.89135 0.0
C582 C 0.66758 0.17196 0.87872 0.0
C583 C 0.67594 0.17426 0.89788 0.0
C584 C 0.68261 0.19313 0.90399 0.0
C585 C 0.67648 0.2066 0.87157 0.0
C586 C 0.66926 0.18789 0.86494 0.0
H587 H 0.68569 0.19524 0.91982 0.0
H588 H 0.6748 0.21938 0.86167 0.0
H589 H 0.6911 0.23379 0.9518 0.0
H590 H 0.74767 0.22129 0.92627 0.0
H591 H 0.60947 0.21805 0.87378 0.0
H592 H 0.67486 0.16228 0.90892 0.0
H593 H 0.66271 0.18669 0.85005 0.0
C594 C 0.03417 0.46711 0.16798 0.0
C595 C 0.03603 0.47808 0.18548 0.0
N596 N 0.02277 0.47083 0.19908 0.0
N597 N 0.01993 0.45289 0.17056 0.0
C598 C 0.01316 0.4556 0.18955 0.0
H599 H 0.04266 0.4693 0.15425 0.0
Co600 Co 0.01117 0.43456 0.15125 0.0
C601 C 0.00999 0.39629 0.17506 0.0
O602 O 0.02019 0.38648 0.16121 0.0
N603 N 0.00134 0.4168 0.13129 0.0
C604 C 0.98162 0.39473 0.11549 0.0
C605 C 0.98838 0.40127 0.13382 0.0
C606 C 0.00108 0.4201 0.11113 0.0
N607 N 0.98951 0.40666 0.10114 0.0
O608 O 0.98445 0.44398 0.15394 0.0
H609 H 0.98256 0.39595 0.14801 0.0
H610 H 0.00782 0.43313 0.10405 0.0
O611 O 0.00573 0.4149 0.17256 0.0
C612 C 0.97871 0.46126 0.14815 0.0
O613 O 0.9921 0.47454 0.14214 0.0
N614 N 0.03797 0.42531 0.14808 0.0
C615 C 0.07665 0.40988 0.14187 0.0
C616 C 0.06868 0.41161 0.1614 0.0
C617 C 0.04939 0.4195 0.16419 0.0
C618 C 0.04638 0.42587 0.12936 0.0
C619 C 0.06541 0.41777 0.12581 0.0
H620 H 0.04348 0.42061 0.17932 0.0
H621 H 0.03839 0.43251 0.11697 0.0
H622 H 0.00109 0.4468 0.19607 0.0
H623 H 0.04655 0.49026 0.18799 0.0
H624 H 0.97099 0.38261 0.11307 0.0
H625 H 0.07711 0.40667 0.17444 0.0
H626 H 0.0709 0.41721 0.11047 0.0
C627 C 0.76308 0.77824 0.40384 0.0
C628 C 0.75081 0.78026 0.42043 0.0
N629 N 0.76204 0.77723 0.43703 0.0
N630 N 0.7819 0.77374 0.40993 0.0
C631 C 0.78084 0.77341 0.43026 0.0
H632 H 0.75857 0.78006 0.38831 0.0
Co633 Co 0.80357 0.76925 0.39276 0.0
C634 C 0.83705 0.7555 0.4204 0.0
O635 O 0.85122 0.76512 0.41056 0.0
N636 N 0.82567 0.76475 0.3746 0.0
C637 C 0.85377 0.76836 0.35627 0.0
C638 C 0.84211 0.77647 0.3713 0.0
C639 C 0.82789 0.74964 0.36102 0.0
N640 N 0.84468 0.75156 0.34975 0.0
O641 O 0.79299 0.74337 0.38692 0.0
H642 H 0.84571 0.79018 0.37926 0.0
H643 H 0.81749 0.73733 0.35911 0.0
O644 O 0.81868 0.75697 0.41485 0.0
C645 C 0.78107 0.74183 0.372 0.0
O646 O 0.77726 0.75789 0.3611 0.0
N647 N 0.81245 0.79523 0.3978 0.0
C648 C 0.82891 0.83362 0.39677 0.0
C649 C 0.83062 0.82162 0.41416 0.0
C650 C 0.82207 0.80239 0.41446 0.0
C651 C 0.80835 0.80758 0.38197 0.0
C652 C 0.81667 0.82679 0.38098 0.0
H653 H 0.82389 0.7931 0.42766 0.0
H654 H 0.79995 0.80179 0.36927 0.0
H655 H 0.79353 0.77031 0.43997 0.0
H656 H 0.73496 0.78404 0.4203 0.0
H657 H 0.86747 0.77472 0.3501 0.0
H658 H 0.8393 0.82666 0.42702 0.0
H659 H 0.81481 0.83545 0.3673 0.0
C660 C 0.97254 0.03828 0.18164 0.0
C661 C 0.97101 0.02589 0.19806 0.0
N662 N 0.97465 0.03687 0.21469 0.0
N663 N 0.97721 0.05712 0.18772 0.0
C664 C 0.97824 0.05577 0.20803 0.0
H665 H 0.96965 0.03386 0.16631 0.0
Co666 Co 0.98048 0.07969 0.17083 0.0
C667 C 0.99817 0.10083 0.19912 0.0
O668 O 0.97907 0.10576 0.20058 0.0
N669 N 0.98438 0.10199 0.15382 0.0
C670 C 0.9789 0.12856 0.1341 0.0
C671 C 0.97221 0.11797 0.15078 0.0
C672 C 0.99867 0.10366 0.13943 0.0
N673 N 0.9954 0.11923 0.12687 0.0
O674 O 0.9978 0.06362 0.15382 0.0
H675 H 0.95849 0.12079 0.15911 0.0
H676 H 0.01078 0.09301 0.13736 0.0
O677 O 0.00341 0.08789 0.18598 0.0
C678 C 0.99901 0.05037 0.13996 0.0
O679 O 0.98266 0.04241 0.13219 0.0
N680 N 0.95656 0.07327 0.15704 0.0
C681 C 0.91785 0.08048 0.14275 0.0
C682 C 0.921 0.07532 0.1629 0.0
C683 C 0.94048 0.07238 0.16983 0.0
C684 C 0.95356 0.07574 0.13682 0.0
C685 C 0.93417 0.07945 0.12932 0.0
H686 H 0.94274 0.0716 0.18592 0.0
H687 H 0.96627 0.07738 0.12677 0.0
H688 H 0.98151 0.06835 0.2178 0.0
H689 H 0.9669 0.01012 0.19778 0.0
H690 H 0.97132 0.14108 0.12695 0.0
H691 H 0.90878 0.0759 0.17371 0.0
H692 H 0.93236 0.08363 0.11366 0.0
C693 C 0.28548 0.7306 0.5853 0.0
C694 C 0.27248 0.72703 0.56963 0.0
N695 N 0.28176 0.73227 0.55237 0.0
N696 N 0.30281 0.73822 0.57799 0.0
C697 C 0.30014 0.73903 0.55784 0.0
H698 H 0.28271 0.72732 0.60101 0.0
Co699 Co 0.32484 0.74408 0.59401 0.0
C700 C 0.35757 0.74734 0.56204 0.0
O701 O 0.36848 0.73247 0.56905 0.0
N702 N 0.34717 0.74997 0.61089 0.0
C703 C 0.37524 0.74681 0.6291 0.0
C704 C 0.36482 0.73986 0.61271 0.0
C705 C 0.34751 0.76313 0.62644 0.0
N706 N 0.36432 0.76147 0.63763 0.0
O707 O 0.31575 0.77159 0.59605 0.0
H708 H 0.36907 0.72669 0.60424 0.0
H709 H 0.33502 0.77254 0.63079 0.0
O710 O 0.34083 0.75195 0.5704 0.0
C711 C 0.30246 0.77463 0.60959 0.0
O712 O 0.29666 0.75928 0.62067 0.0
N713 N 0.33216 0.71685 0.59313 0.0
C714 C 0.34528 0.6773 0.5978 0.0
C715 C 0.34332 0.68581 0.57849 0.0
C716 C 0.3363 0.7056 0.57644 0.0
C717 C 0.33158 0.70804 0.61164 0.0
C718 C 0.3385 0.68847 0.6144 0.0
H719 H 0.3349 0.71207 0.56158 0.0
H720 H 0.3269 0.71677 0.62458 0.0
H721 H 0.31149 0.74416 0.54733 0.0
H722 H 0.25765 0.72034 0.57077 0.0
H723 H 0.38895 0.74049 0.63526 0.0
H724 H 0.34758 0.67745 0.56515 0.0
H725 H 0.33951 0.68267 0.6296 0.0
C726 C 0.01602 0.5223 0.34001 0.0
C727 C 0.01622 0.5105 0.323 0.0
N728 N 0.01735 0.52263 0.30673 0.0
N729 N 0.01696 0.54181 0.33462 0.0
C730 C 0.01781 0.54157 0.31427 0.0
H731 H 0.01569 0.51698 0.3554 0.0
Co732 Co 0.01836 0.56294 0.35291 0.0
C733 C 0.01983 0.59997 0.3266 0.0
O734 O 0.03374 0.6089 0.33741 0.0
N735 N 0.01997 0.58455 0.37236 0.0
C736 C 0.03265 0.60715 0.39393 0.0
C737 C 0.0366 0.59527 0.37755 0.0
C738 C 0.00595 0.59089 0.3859 0.0
N739 N 0.0134 0.60426 0.39929 0.0
O740 O 0.99007 0.561 0.35656 0.0
H741 H 0.05112 0.59443 0.37036 0.0
H742 H 0.99076 0.58522 0.38679 0.0
O743 O 0.01368 0.58234 0.33125 0.0
C744 C 0.98551 0.55014 0.37168 0.0
O745 O 0.99998 0.54337 0.38335 0.0
N746 N 0.04619 0.5626 0.35032 0.0
C747 C 0.08626 0.56799 0.35962 0.0
C748 C 0.0788 0.57449 0.34091 0.0
C749 C 0.05846 0.57125 0.3363 0.0
C750 C 0.05409 0.55296 0.36659 0.0
C751 C 0.07421 0.55555 0.37163 0.0
H752 H 0.05241 0.57717 0.32244 0.0
H753 H 0.04415 0.54526 0.37696 0.0
H754 H 0.01892 0.55503 0.30517 0.0
H755 H 0.0162 0.49421 0.32276 0.0
H756 H 0.04334 0.6167 0.40171 0.0
H757 H 0.08788 0.58377 0.33102 0.0
H758 H 0.07962 0.54992 0.38596 0.0
C759 C 0.46681 0.47407 0.82561 0.0
C760 C 0.46385 0.48581 0.80887 0.0
N761 N 0.47028 0.47546 0.7927 0.0
N762 N 0.47484 0.4562 0.82006 0.0
C763 C 0.4769 0.4576 0.79983 0.0
H764 H 0.46321 0.47829 0.84091 0.0
Co765 Co 0.48202 0.43526 0.83776 0.0
C766 C 0.50312 0.4153 0.81008 0.0
O767 O 0.48511 0.40724 0.80845 0.0
N768 N 0.49004 0.41479 0.85562 0.0
C769 C 0.48835 0.38995 0.87802 0.0
C770 C 0.48035 0.39756 0.86036 0.0
C771 C 0.5045 0.41662 0.86979 0.0
N772 N 0.50327 0.4023 0.88411 0.0
O773 O 0.49714 0.4548 0.85283 0.0
H774 H 0.46701 0.39213 0.85276 0.0
H775 H 0.51495 0.42905 0.87053 0.0
O776 O 0.50554 0.42992 0.82226 0.0
C777 C 0.49764 0.46806 0.86666 0.0
O778 O 0.48144 0.47234 0.87717 0.0
N779 N 0.45769 0.4386 0.85255 0.0
C780 C 0.42183 0.42311 0.86826 0.0
C781 C 0.4227 0.43058 0.84852 0.0
C782 C 0.44094 0.43729 0.84073 0.0
C783 C 0.45609 0.4352 0.87283 0.0
C784 C 0.43838 0.42691 0.88093 0.0
H785 H 0.44197 0.43923 0.82462 0.0
H786 H 0.46926 0.43595 0.88233 0.0
H787 H 0.48302 0.4458 0.79044 0.0
H788 H 0.45781 0.50094 0.80862 0.0
H789 H 0.48235 0.37749 0.88666 0.0
H790 H 0.41006 0.4291 0.83835 0.0
H791 H 0.43852 0.42169 0.89637 0.0
C792 C 0.56542 0.71455 0.77975 0.0
C793 C 0.54863 0.72635 0.78167 0.0
N794 N 0.53253 0.71542 0.77604 0.0
N795 N 0.56008 0.6962 0.77278 0.0
C796 C 0.53982 0.69714 0.77084 0.0
H797 H 0.58057 0.71897 0.78366 0.0
Co798 Co 0.57831 0.6752 0.7678 0.0
C799 C 0.55279 0.65638 0.74368 0.0
O800 O 0.54882 0.64892 0.76159 0.0
N801 N 0.59713 0.65459 0.76232 0.0
C802 C 0.61205 0.62489 0.75728 0.0
C803 C 0.59451 0.63443 0.76324 0.0
C804 C 0.61637 0.65684 0.75594 0.0
N805 N 0.62574 0.63916 0.75288 0.0
O806 O 0.59571 0.69457 0.75533 0.0
H807 H 0.58079 0.62706 0.768 0.0
H808 H 0.6237 0.67113 0.75355 0.0
O809 O 0.56601 0.67023 0.7423 0.0
C810 C 0.60823 0.70861 0.75159 0.0
O811 O 0.61707 0.7182 0.76645 0.0
N812 N 0.58904 0.6783 0.79368 0.0
C813 C 0.60009 0.66783 0.8328 0.0
C814 C 0.57979 0.66985 0.82751 0.0
C815 C 0.57465 0.67436 0.80778 0.0
C816 C 0.60887 0.67912 0.79904 0.0
C817 C 0.61477 0.67366 0.81861 0.0
H818 H 0.55903 0.67311 0.80339 0.0
H819 H 0.62029 0.68222 0.7879 0.0
H820 H 0.53057 0.68477 0.76571 0.0
H821 H 0.54823 0.74162 0.78735 0.0
H822 H 0.6147 0.60882 0.75667 0.0
H823 H 0.56787 0.66622 0.83805 0.0
H824 H 0.63067 0.67241 0.82197 0.0
C825 C 0.53204 0.34954 0.02139 0.0
C826 C 0.51904 0.33354 0.02281 0.0
N827 N 0.52987 0.31641 0.02203 0.0
N828 N 0.55107 0.34262 0.01967 0.0
C829 C 0.54926 0.32236 0.02014 0.0
H830 H 0.5279 0.36527 0.02211 0.0
Co831 Co 0.5743 0.35855 0.01792 0.0
C832 C 0.59543 0.3306 1.0 0.0
O833 O 0.59964 0.32857 0.01924 0.0
N834 N 0.5975 0.37453 0.01548 0.0
C835 C 0.62557 0.39093 0.02338 0.0
C836 C 0.61336 0.3748 0.02814 0.0
C837 C 0.60084 0.38999 0.00267 0.0
N838 N 0.61752 0.40055 0.00742 0.0
O839 O 0.55927 0.37614 0.00076 0.0
H840 H 0.61514 0.36479 0.04087 0.0
H841 H 0.59056 0.39435 0.99089 0.0
O842 O 0.58271 0.34394 0.99482 0.0
C843 C 0.55034 0.39161 0.9939 0.0
O844 O 0.55052 0.40853 0.00414 0.0
N845 N 0.56738 0.37206 0.04225 0.0
C846 C 0.58248 0.38135 0.08013 0.0
C847 C 0.57159 0.36358 0.07707 0.0
C848 C 0.56474 0.35892 0.05787 0.0
C849 C 0.57334 0.3914 0.04622 0.0
C850 C 0.58169 0.39621 0.06508 0.0
H851 H 0.56028 0.34354 0.05524 0.0
H852 H 0.57519 0.40202 0.03405 0.0
H853 H 0.56193 0.31218 0.01928 0.0
H854 H 0.50292 0.33453 0.02497 0.0
H855 H 0.63883 0.39568 0.03158 0.0
H856 H 0.57112 0.35199 0.08856 0.0
H857 H 0.5896 0.41036 0.06691 0.0
C858 C 0.92078 0.26467 0.27413 0.0
C859 C 0.93614 0.25102 0.27639 0.0
N860 N 0.95371 0.26089 0.27452 0.0
N861 N 0.92852 0.28315 0.27052 0.0
C862 C 0.94874 0.28036 0.27117 0.0
H863 H 0.90499 0.26122 0.2754 0.0
Co864 Co 0.914 0.30701 0.26501 0.0
C865 C 0.94529 0.32744 0.2489 0.0
O866 O 0.94509 0.33461 0.26734 0.0
N867 N 0.89981 0.33084 0.25933 0.0
C868 C 0.88389 0.35953 0.26584 0.0
C869 C 0.89922 0.34689 0.27174 0.0
C870 C 0.88522 0.33442 0.24553 0.0
N871 N 0.87503 0.35157 0.24942 0.0
O872 O 0.8984 0.29236 0.24501 0.0
H873 H 0.90816 0.34837 0.28528 0.0
H874 H 0.88067 0.3237 0.23414 0.0
O875 O 0.93275 0.31369 0.24424 0.0
C876 C 0.88386 0.27992 0.24315 0.0
O877 O 0.87415 0.27323 0.25903 0.0
N878 N 0.89606 0.30197 0.28665 0.0
C879 C 0.87588 0.31371 0.32164 0.0
C880 C 0.89558 0.30612 0.32255 0.0
C881 C 0.90553 0.30076 0.30483 0.0
C882 C 0.87599 0.30659 0.28587 0.0
C883 C 0.86564 0.3126 0.3032 0.0
H884 H 0.92153 0.29787 0.30553 0.0
H885 H 0.86846 0.30829 0.27158 0.0
H886 H 0.95963 0.29225 0.26884 0.0
H887 H 0.93453 0.23509 0.27948 0.0
H888 H 0.87878 0.37282 0.27377 0.0
H889 H 0.90397 0.30622 0.33653 0.0
H890 H 0.85049 0.3184 0.30164 0.0
C891 C 0.95052 0.66608 0.53887 0.0
C892 C 0.96376 0.68178 0.54124 0.0
N893 N 0.95748 0.69719 0.5297 0.0
N894 N 0.93603 0.6714 0.52572 0.0
C895 C 0.94053 0.6906 0.52048 0.0
H896 H 0.95143 0.65154 0.54617 0.0
Co897 Co 0.91622 0.65313 0.51792 0.0
C898 C 0.88335 0.6811 0.50281 0.0
O899 O 0.8692 0.67365 0.5144 0.0
N900 N 0.8967 0.63356 0.51023 0.0
C901 C 0.86982 0.61339 0.5084 0.0
C902 C 0.87751 0.63081 0.51658 0.0
C903 C 0.90035 0.61716 0.49863 0.0
N904 N 0.88427 0.60476 0.49717 0.0
O905 O 0.93027 0.64868 0.49306 0.0
H906 H 0.86987 0.63994 0.52763 0.0
H907 H 0.91475 0.6139 0.49182 0.0
O908 O 0.90136 0.67442 0.50395 0.0
C909 C 0.94683 0.63906 0.4924 0.0
O910 O 0.95464 0.63212 0.50919 0.0
N911 N 0.90328 0.65722 0.54277 0.0
C912 C 0.88613 0.65963 0.58106 0.0
C913 C 0.88694 0.67664 0.56856 0.0
C914 C 0.8961 0.67525 0.5496 0.0
C915 C 0.90345 0.64082 0.5551 0.0
C916 C 0.89483 0.64165 0.57424 0.0
H917 H 0.89749 0.68865 0.54049 0.0
H918 H 0.91013 0.62691 0.54988 0.0
H919 H 0.93183 0.69946 0.50995 0.0
H920 H 0.97685 0.68199 0.55096 0.0
H921 H 0.85518 0.60694 0.51153 0.0
H922 H 0.88082 0.69092 0.57353 0.0
H923 H 0.89462 0.6282 0.58348 0.0
C924 C 0.58654 0.27942 0.71134 0.0
C925 C 0.57031 0.26664 0.71093 0.0
N926 N 0.5553 0.27501 0.7217 0.0
N927 N 0.58198 0.29574 0.72248 0.0
C928 C 0.5627 0.29276 0.72849 0.0
H929 H 0.60087 0.27702 0.70398 0.0
Co930 Co 0.60079 0.31608 0.72662 0.0
C931 C 0.58169 0.34388 0.7546 0.0
O932 O 0.59833 0.34323 0.76528 0.0
N933 N 0.62023 0.33618 0.73019 0.0
C934 C 0.63552 0.36592 0.73084 0.0
C935 C 0.61822 0.35589 0.72561 0.0
C936 C 0.63905 0.33451 0.7378 0.0
N937 N 0.6486 0.35248 0.73851 0.0
O938 O 0.60628 0.30581 0.75311 0.0
H939 H 0.60486 0.36266 0.71926 0.0
H940 H 0.64539 0.32052 0.74325 0.0
O941 O 0.58026 0.33351 0.73843 0.0
C942 C 0.61308 0.28851 0.75774 0.0
O943 O 0.61721 0.27542 0.74351 0.0
N944 N 0.59585 0.32572 0.70057 0.0
C945 C 0.59542 0.34304 0.66224 0.0
C946 C 0.5796 0.34651 0.67589 0.0
C947 C 0.57996 0.3375 0.69494 0.0
C948 C 0.61055 0.32099 0.68711 0.0
C949 C 0.61055 0.32934 0.66783 0.0
H950 H 0.5679 0.34078 0.70535 0.0
H951 H 0.62279 0.31128 0.6917 0.0
H952 H 0.55432 0.30323 0.73774 0.0
H953 H 0.56944 0.25245 0.70294 0.0
H954 H 0.63824 0.38191 0.72922 0.0
H955 H 0.56754 0.35689 0.67236 0.0
H956 H 0.62273 0.32557 0.65765 0.0
C957 C 0.96936 0.34399 0.95672 0.0
C958 C 0.98475 0.33026 0.95748 0.0
N959 N 0.97758 0.31318 0.96566 0.0
N960 N 0.9524 0.33577 0.96445 0.0
C961 C 0.95796 0.31685 0.96966 0.0
H962 H 0.97056 0.35906 0.95072 0.0
Co963 Co 0.92753 0.34929 0.96784 0.0
C964 C 0.91053 0.31778 0.98395 0.0
O965 O 0.90759 0.3156 0.9645 0.0
N966 N 0.90318 0.36303 0.97144 0.0
C967 C 0.87337 0.37678 0.96492 0.0
C968 C 0.88675 0.36178 0.95959 0.0
C969 C 0.89927 0.3785 0.98407 0.0
N970 N 0.88137 0.38725 0.98035 0.0
O971 O 0.94082 0.36742 0.98611 0.0
H972 H 0.88517 0.35147 0.94709 0.0
H973 H 0.90991 0.38447 0.99477 0.0
O974 O 0.92088 0.33267 0.99014 0.0
C975 C 0.95401 0.38082 0.98994 0.0
O976 O 0.96577 0.38773 0.97562 0.0
N977 N 0.93207 0.36429 0.94464 0.0
C978 C 0.91862 0.37929 0.90777 0.0
C979 C 0.92327 0.35881 0.91013 0.0
C980 C 0.92994 0.35169 0.92862 0.0
C981 C 0.92978 0.38456 0.94238 0.0
C982 C 0.92336 0.39243 0.92384 0.0
H983 H 0.9309 0.33559 0.93087 0.0
H984 H 0.93062 0.39438 0.95533 0.0
H985 H 0.94805 0.30601 0.97665 0.0
H986 H 0.99998 0.33258 0.95214 0.0
H987 H 0.85929 0.38023 0.95748 0.0
H988 H 0.9197 0.34779 0.8987 0.0
H989 H 0.92056 0.40844 0.92273 0.0
C990 C 0.92237 0.70169 0.20491 0.0
C991 C 0.93533 0.71777 0.20327 0.0
N992 N 0.94801 0.71726 0.21901 0.0
N993 N 0.92693 0.69093 0.22155 0.0
C994 C 0.94245 0.70111 0.23006 0.0
H995 H 0.91013 0.6983 0.19476 0.0
Co996 Co 0.91154 0.66908 0.23081 0.0
C997 C 0.95407 0.65408 0.24191 0.0
O998 O 0.96468 0.66459 0.22891 0.0
N999 N 0.89562 0.64758 0.23997 0.0
C1000 C 0.88523 0.61666 0.24756 0.0
C1001 C 0.90077 0.62793 0.23979 0.0
C1002 C 0.8767 0.64783 0.24756 0.0
N1003 N 0.87007 0.6292 0.25246 0.0
O1004 O 0.908 0.68253 0.25588 0.0
H1005 H 0.91484 0.62207 0.23406 0.0
H1006 H 0.86794 0.66139 0.24957 0.0
O1007 O 0.9349 0.65546 0.2423 0.0
C1008 C 0.89321 0.69465 0.25671 0.0
O1009 O 0.88206 0.69726 0.24058 0.0
N1010 N 0.91363 0.65634 0.20566 0.0
C1011 C 0.90919 0.63855 0.16775 0.0
C1012 C 0.92716 0.63635 0.1787 0.0
C1013 C 0.92911 0.64539 0.19768 0.0
C1014 C 0.89618 0.65872 0.19519 0.0
C1015 C 0.89363 0.65001 0.17629 0.0
H1016 H 0.94288 0.6432 0.20585 0.0
H1017 H 0.88401 0.66731 0.20179 0.0
H1018 H 0.94926 0.69709 0.24431 0.0
H1019 H 0.93559 0.72888 0.19133 0.0
H1020 H 0.88494 0.60043 0.24905 0.0
H1021 H 0.93959 0.62767 0.17269 0.0
H1022 H 0.87931 0.6518 0.1687 0.0
C1023 C 0.54084 0.66099 0.44819 0.0
C1024 C 0.52754 0.67674 0.4474 0.0
N1025 N 0.53603 0.6927 0.45651 0.0
N1026 N 0.55788 0.66681 0.45772 0.0
C1027 C 0.55445 0.68638 0.46248 0.0
H1028 H 0.53793 0.64607 0.44242 0.0
Co1029 Co 0.57967 0.64987 0.4652 0.0
C1030 C 0.60195 0.6794 0.48139 0.0
O1031 O 0.60956 0.67814 0.46316 0.0
N1032 N 0.60087 0.63286 0.47311 0.0
C1033 C 0.6297 0.61578 0.47345 0.0
C1034 C 0.61921 0.63135 0.4645 0.0
C1035 C 0.60061 0.61816 0.48725 0.0
N1036 N 0.61781 0.60741 0.48761 0.0
O1037 O 0.56212 0.63681 0.48389 0.0
H1038 H 0.62432 0.64047 0.45201 0.0
H1039 H 0.58789 0.61489 0.49686 0.0
O1040 O 0.58712 0.66813 0.48599 0.0
C1041 C 0.5463 0.62634 0.48655 0.0
O1042 O 0.53553 0.62022 0.47114 0.0
N1043 N 0.57426 0.63236 0.44387 0.0
C1044 C 0.5804 0.60927 0.40936 0.0
C1045 C 0.58051 0.63036 0.40843 0.0
C1046 C 0.57779 0.64154 0.42589 0.0
C1047 C 0.57277 0.61187 0.44504 0.0
C1048 C 0.5758 0.59999 0.42784 0.0
H1049 H 0.58005 0.65767 0.42536 0.0
H1050 H 0.57106 0.60455 0.45947 0.0
H1051 H 0.56482 0.69565 0.47091 0.0
H1052 H 0.51265 0.6764 0.44079 0.0
H1053 H 0.64449 0.61043 0.46919 0.0
H1054 H 0.5846 0.63822 0.39473 0.0
H1055 H 0.57584 0.58374 0.42925 0.0
C1056 C 0.77725 0.59 0.72089 0.0
C1057 C 0.77861 0.57545 0.73556 0.0
N1058 N 0.76977 0.5586 0.72865 0.0
N1059 N 0.76756 0.5825 0.70459 0.0
C1060 C 0.76308 0.56334 0.71002 0.0
H1061 H 0.78343 0.605 0.7221 0.0
Co1062 Co 0.76261 0.5951 0.67923 0.0
C1063 C 0.75531 0.55952 0.66108 0.0
O1064 O 0.77507 0.55962 0.66019 0.0
N1065 N 0.75811 0.60703 0.65432 0.0
C1066 C 0.76571 0.62005 0.62446 0.0
C1067 C 0.77157 0.60661 0.63911 0.0
C1068 C 0.74392 0.62033 0.64841 0.0
N1069 N 0.74833 0.62862 0.63039 0.0
O1070 O 0.7385 0.60735 0.69046 0.0
H1071 H 0.78548 0.59816 0.63937 0.0
H1072 H 0.73159 0.62526 0.65785 0.0
O1073 O 0.74629 0.57336 0.67075 0.0
C1074 C 0.73404 0.6173 0.70628 0.0
O1075 O 0.74833 0.62343 0.71847 0.0
N1076 N 0.77989 0.61646 0.68536 0.0
C1077 C 0.80877 0.64241 0.66937 0.0
C1078 C 0.81389 0.62272 0.67516 0.0
C1079 C 0.79921 0.61001 0.68305 0.0
C1080 C 0.77515 0.63627 0.68253 0.0
C1081 C 0.78949 0.64958 0.67457 0.0
H1082 H 0.80256 0.59413 0.68443 0.0
H1083 H 0.7597 0.64124 0.68352 0.0
H1084 H 0.7551 0.55287 0.70054 0.0
H1085 H 0.78624 0.577 0.74987 0.0
H1086 H 0.77408 0.62398 0.61102 0.0
H1087 H 0.82833 0.61622 0.67132 0.0
H1088 H 0.7849 0.66473 0.67072 0.0
C1089 C 0.67465 0.53902 0.94733 0.0
C1090 C 0.69085 0.53751 0.95994 0.0
N1091 N 0.70314 0.52327 0.95263 0.0
N1092 N 0.67636 0.52551 0.93212 0.0
C1093 C 0.69427 0.51634 0.9357 0.0
H1094 H 0.66217 0.54917 0.94966 0.0
Co1095 Co 0.6572 0.52047 0.91147 0.0
C1096 C 0.68162 0.49795 0.88757 0.0
O1097 O 0.68326 0.5154 0.87841 0.0
N1098 N 0.63834 0.51583 0.89114 0.0
C1099 C 0.62202 0.5186 0.86205 0.0
C1100 C 0.63919 0.52372 0.87244 0.0
C1101 C 0.62033 0.50634 0.89193 0.0
N1102 N 0.61016 0.50778 0.87442 0.0
O1103 O 0.64188 0.50366 0.9299 0.0
H1104 H 0.65116 0.53329 0.86693 0.0
H1105 H 0.61447 0.49891 0.90516 0.0
O1106 O 0.67124 0.49671 0.90363 0.0
C1107 C 0.63664 0.503 0.94837 0.0
O1108 O 0.64 0.51838 0.96028 0.0
N1109 N 0.6439 0.54428 0.91716 0.0
C1110 C 0.62548 0.58121 0.90985 0.0
C1111 C 0.64599 0.57834 0.90571 0.0
C1112 C 0.65479 0.55975 0.90931 0.0
C1113 C 0.62432 0.5469 0.92273 0.0
C1114 C 0.61484 0.56548 0.91941 0.0
H1115 H 0.67004 0.55706 0.90423 0.0
H1116 H 0.61553 0.5343 0.92811 0.0
H1117 H 0.7006 0.50456 0.92641 0.0
H1118 H 0.69351 0.5463 0.97342 0.0
H1119 H 0.61819 0.52314 0.84687 0.0
H1120 H 0.65483 0.58959 0.89789 0.0
H1121 H 0.599 0.567 0.92296 0.0
C1122 C 0.7113 0.40564 0.22612 0.0
C1123 C 0.70989 0.42293 0.2374 0.0
N1124 N 0.7247 0.43548 0.23155 0.0
N1125 N 0.72675 0.40748 0.21307 0.0
C1126 C 0.73482 0.42574 0.21689 0.0
H1127 H 0.70123 0.39286 0.22676 0.0
Co1128 Co 0.73228 0.389 0.19301 0.0
C1129 C 0.7605 0.41017 0.16666 0.0
O1130 O 0.77261 0.39454 0.16731 0.0
N1131 N 0.73742 0.37016 0.17295 0.0
C1132 C 0.74046 0.35533 0.14316 0.0
C1133 C 0.73429 0.37243 0.15298 0.0
C1134 C 0.74506 0.35144 0.17498 0.0
N1135 N 0.74721 0.34218 0.15702 0.0
O1136 O 0.75842 0.38385 0.20467 0.0
H1137 H 0.72816 0.38579 0.14599 0.0
H1138 H 0.74944 0.34494 0.18927 0.0
O1139 O 0.74401 0.40996 0.17648 0.0
C1140 C 0.7611 0.37685 0.22232 0.0
O1141 O 0.74537 0.37287 0.23366 0.0
N1142 N 0.70667 0.39378 0.18189 0.0
C1143 C 0.66966 0.39695 0.16218 0.0
C1144 C 0.68272 0.41353 0.16335 0.0
C1145 C 0.7011 0.41171 0.17346 0.0
C1146 C 0.69361 0.37798 0.18221 0.0
C1147 C 0.67503 0.37923 0.17246 0.0
H1148 H 0.711 0.4246 0.174 0.0
H1149 H 0.69798 0.36407 0.18949 0.0
H1150 H 0.74715 0.43225 0.20842 0.0
H1151 H 0.69854 0.42629 0.24862 0.0
H1152 H 0.74004 0.35273 0.12707 0.0
H1153 H 0.67924 0.42755 0.15579 0.0
H1154 H 0.6652 0.36621 0.17255 0.0
C1155 C 0.82906 0.44753 0.45907 0.0
C1156 C 0.81233 0.4474 0.47129 0.0
N1157 N 0.79903 0.46093 0.46409 0.0
N1158 N 0.82627 0.46089 0.44406 0.0
C1159 C 0.80798 0.469 0.44767 0.0
H1160 H 0.84242 0.43847 0.46109 0.0
Co1161 Co 0.84461 0.46698 0.42387 0.0
C1162 C 0.82041 0.47949 0.38775 0.0
O1163 O 0.8344 0.47401 0.37492 0.0
N1164 N 0.86391 0.47324 0.40347 0.0
C1165 C 0.88552 0.47132 0.37771 0.0
C1166 C 0.87236 0.46078 0.38963 0.0
C1167 C 0.87255 0.49132 0.39951 0.0
N1168 N 0.88564 0.49049 0.38401 0.0
O1169 O 0.84652 0.49376 0.43453 0.0
H1170 H 0.86928 0.44495 0.38781 0.0
H1171 H 0.86951 0.505 0.40775 0.0
O1172 O 0.82272 0.47644 0.40662 0.0
C1173 C 0.86039 0.49857 0.44687 0.0
O1174 O 0.87396 0.48505 0.4518 0.0
N1175 N 0.84305 0.44028 0.41475 0.0
C1176 C 0.85077 0.40216 0.39904 0.0
C1177 C 0.83387 0.41319 0.39266 0.0
C1178 C 0.83006 0.43222 0.40099 0.0
C1179 C 0.8581 0.42885 0.4227 0.0
C1180 C 0.86214 0.40971 0.41517 0.0
H1181 H 0.81734 0.44068 0.39555 0.0
H1182 H 0.86796 0.43529 0.43395 0.0
H1183 H 0.80159 0.48099 0.43874 0.0
H1184 H 0.8101 0.43784 0.4843 0.0
H1185 H 0.89494 0.46518 0.3659 0.0
H1186 H 0.82445 0.40785 0.38048 0.0
H1187 H 0.87489 0.40145 0.4211 0.0
C1188 C 0.78643 0.41296 0.76607 0.0
C1189 C 0.78602 0.42897 0.75306 0.0
N1190 N 0.77718 0.44461 0.76245 0.0
N1191 N 0.77793 0.41837 0.78373 0.0
C1192 C 0.77253 0.43785 0.78112 0.0
H1193 H 0.7925 0.39822 0.76282 0.0
Co1194 Co 0.77387 0.40076 0.80547 0.0
C1195 C 0.74862 0.42268 0.82564 0.0
O1196 O 0.76586 0.42435 0.8352 0.0
N1197 N 0.7691 0.38251 0.82662 0.0
C1198 C 0.77109 0.36408 0.85457 0.0
C1199 C 0.77834 0.38091 0.84466 0.0
C1200 C 0.75616 0.36681 0.82609 0.0
N1201 N 0.75732 0.3552 0.84263 0.0
O1202 O 0.76248 0.38191 0.78673 0.0
H1203 H 0.79014 0.39085 0.84987 0.0
H1204 H 0.74617 0.36356 0.81367 0.0
O1205 O 0.74784 0.412 0.80973 0.0
C1206 C 0.76202 0.3675 0.7741 0.0
O1207 O 0.77865 0.35796 0.76923 0.0
N1208 N 0.80048 0.39136 0.80331 0.0
C1209 C 0.83913 0.38426 0.81803 0.0
C1210 C 0.83305 0.4037 0.81282 0.0
C1211 C 0.8136 0.40696 0.80601 0.0
C1212 C 0.80679 0.37196 0.80603 0.0
C1213 C 0.82623 0.36806 0.81351 0.0
H1214 H 0.80841 0.42234 0.80503 0.0
H1215 H 0.79616 0.35968 0.80487 0.0
H1216 H 0.76487 0.4467 0.79245 0.0
H1217 H 0.79192 0.42908 0.73786 0.0
H1218 H 0.77625 0.35827 0.8689 0.0
H1219 H 0.84258 0.41659 0.81592 0.0
H1220 H 0.83034 0.35281 0.81753 0.0
C1221 C 0.8256 0.53064 0.03264 0.0
C1222 C 0.81154 0.53038 0.0175 0.0
N1223 N 0.79792 0.51608 0.02183 0.0
N1224 N 0.82116 0.51626 0.04645 0.0
C1225 C 0.80399 0.50782 0.03937 0.0
H1226 H 0.83826 0.54083 0.03332 0.0
Co1227 Co 0.83451 0.51037 0.07107 0.0
C1228 C 0.80154 0.49158 0.08893 0.0
O1229 O 0.79696 0.50985 0.09497 0.0
N1230 N 0.84682 0.50531 0.09555 0.0
C1231 C 0.85612 0.51215 0.12691 0.0
C1232 C 0.84183 0.51554 0.11237 0.0
C1233 C 0.86395 0.49547 0.10027 0.0
N1234 N 0.86998 0.49955 0.11923 0.0
O1235 O 0.85101 0.49001 0.05754 0.0
H1236 H 0.82948 0.52609 0.1134 0.0
H1237 H 0.87292 0.48714 0.0895 0.0
O1238 O 0.81616 0.48921 0.07678 0.0
C1239 C 0.85804 0.4885 0.03968 0.0
O1240 O 0.85744 0.50395 0.0274 0.0
N1241 N 0.85285 0.53142 0.06737 0.0
C1242 C 0.87797 0.56147 0.08243 0.0
C1243 C 0.85709 0.5645 0.08111 0.0
C1244 C 0.8448 0.5492 0.07364 0.0
C1245 C 0.87325 0.52897 0.06642 0.0
C1246 C 0.88611 0.54393 0.07385 0.0
H1247 H 0.82863 0.55059 0.07506 0.0
H1248 H 0.87972 0.51466 0.06231 0.0
H1249 H 0.79572 0.49605 0.04698 0.0
H1250 H 0.81086 0.54055 0.00477 0.0
H1251 H 0.85698 0.51935 0.14152 0.0
H1252 H 0.85002 0.57758 0.08778 0.0
H1253 H 0.90215 0.54103 0.07444 0.0
C1254 C 0.71186 0.58061 0.27293 0.0
C1255 C 0.70854 0.56529 0.25943 0.0
N1256 N 0.7189 0.54903 0.26567 0.0
N1257 N 0.72407 0.57395 0.28768 0.0
C1258 C 0.72834 0.55469 0.28273 0.0
H1259 H 0.70492 0.59534 0.27269 0.0
Co1260 Co 0.72918 0.5886 0.31078 0.0
C1261 C 0.74097 0.55493 0.33949 0.0
O1262 O 0.72654 0.55849 0.35248 0.0
N1263 N 0.73418 0.6042 0.33417 0.0
C1264 C 0.73314 0.61775 0.36492 0.0
C1265 C 0.72625 0.60244 0.3529 0.0
C1266 C 0.74543 0.62116 0.33522 0.0
N1267 N 0.74514 0.62953 0.35372 0.0
O1268 O 0.7551 0.59596 0.30008 0.0
H1269 H 0.7149 0.59174 0.3574 0.0
H1270 H 0.75329 0.62772 0.32258 0.0
O1271 O 0.74242 0.56539 0.32338 0.0
C1272 C 0.75664 0.6098 0.28687 0.0
O1273 O 0.74026 0.61918 0.28095 0.0
N1274 N 0.70332 0.58187 0.32018 0.0
C1275 C 0.66545 0.57602 0.3371 0.0
C1276 C 0.67761 0.55949 0.33221 0.0
C1277 C 0.69634 0.56273 0.3231 0.0
C1278 C 0.6908 0.5979 0.32281 0.0
C1279 C 0.67184 0.59535 0.33147 0.0
H1280 H 0.70556 0.5499 0.31926 0.0
H1281 H 0.69604 0.6129 0.31918 0.0
H1282 H 0.73689 0.54452 0.29215 0.0
H1283 H 0.6986 0.56576 0.24652 0.0
H1284 H 0.72864 0.62075 0.38031 0.0
H1285 H 0.67292 0.5443 0.33587 0.0
H1286 H 0.66282 0.60851 0.33483 0.0
C1287 C 0.66236 0.47613 0.52418 0.0
C1288 C 0.67833 0.47409 0.51113 0.0
N1289 N 0.69547 0.47392 0.52198 0.0
N1290 N 0.66935 0.47732 0.54322 0.0
C1291 C 0.68955 0.47588 0.54136 0.0
H1292 H 0.64667 0.47602 0.51998 0.0
Co1293 Co 0.65486 0.47927 0.56736 0.0
C1294 C 0.68526 0.49525 0.5884 0.0
O1295 O 0.68749 0.47597 0.59225 0.0
N1296 N 0.64104 0.48141 0.59172 0.0
C1297 C 0.62752 0.47217 0.6209 0.0
C1298 C 0.64179 0.46757 0.60658 0.0
C1299 C 0.62685 0.4947 0.59764 0.0
N1300 N 0.61822 0.48924 0.61521 0.0
O1301 O 0.63777 0.4994 0.55448 0.0
H1302 H 0.65114 0.45424 0.60626 0.0
H1303 H 0.62177 0.50723 0.58855 0.0
O1304 O 0.67172 0.50065 0.57598 0.0
C1305 C 0.62243 0.50125 0.54306 0.0
O1306 O 0.61239 0.4853 0.53711 0.0
N1307 N 0.6387 0.45664 0.56034 0.0
C1308 C 0.62523 0.4192 0.57374 0.0
C1309 C 0.64314 0.42086 0.56266 0.0
C1310 C 0.64986 0.43979 0.55657 0.0
C1311 C 0.61933 0.45461 0.56718 0.0
C1312 C 0.61242 0.43601 0.57438 0.0
H1313 H 0.66528 0.44101 0.55156 0.0
H1314 H 0.61038 0.46777 0.57048 0.0
H1315 H 0.69973 0.4761 0.55402 0.0
H1316 H 0.67729 0.47218 0.49498 0.0
H1317 H 0.62359 0.4632 0.63394 0.0
H1318 H 0.65318 0.40812 0.56101 0.0
H1319 H 0.59834 0.43553 0.5826 0.0
C1320 C 0.70398 0.78938 0.57479 0.0
C1321 C 0.71394 0.79312 0.55699 0.0
N1322 N 0.70846 0.77895 0.54354 0.0
N1323 N 0.6923 0.77294 0.57254 0.0
C1324 C 0.69533 0.7669 0.55336 0.0
H1325 H 0.70539 0.79786 0.58862 0.0
Co1326 Co 0.67743 0.76083 0.59284 0.0
C1327 C 0.64001 0.74659 0.57343 0.0
O1328 O 0.6296 0.75378 0.58866 0.0
N1329 N 0.66304 0.74776 0.61376 0.0
C1330 C 0.6491 0.72176 0.62981 0.0
C1331 C 0.65741 0.72824 0.61213 0.0
C1332 C 0.65854 0.75251 0.63314 0.0
N1333 N 0.64977 0.73703 0.64307 0.0
O1334 O 0.69395 0.7374 0.5911 0.0
H1335 H 0.65969 0.71897 0.59894 0.0
H1336 H 0.66202 0.76669 0.6402 0.0
O1337 O 0.65916 0.74885 0.57293 0.0
C1338 C 0.71239 0.7367 0.59619 0.0
O1339 O 0.72173 0.75335 0.60137 0.0
N1340 N 0.66168 0.78449 0.59471 0.0
C1341 C 0.63885 0.81957 0.59908 0.0
C1342 C 0.63898 0.80898 0.58081 0.0
C1343 C 0.65079 0.79172 0.5788 0.0
C1344 C 0.66366 0.79592 0.61162 0.0
C1345 C 0.65196 0.81319 0.61441 0.0
H1346 H 0.65117 0.78424 0.56437 0.0
H1347 H 0.67448 0.79172 0.62299 0.0
H1348 H 0.68861 0.75352 0.54693 0.0
H1349 H 0.72438 0.80533 0.55417 0.0
H1350 H 0.64376 0.70668 0.63292 0.0
H1351 H 0.63005 0.81396 0.56811 0.0
H1352 H 0.65293 0.82116 0.62859 0.0
C1353 C 0.21493 0.69662 0.42333 0.0
C1354 C 0.22787 0.6975 0.43951 0.0
N1355 N 0.22138 0.71211 0.45201 0.0
N1356 N 0.20043 0.71062 0.42568 0.0
C1357 C 0.20483 0.71987 0.44321 0.0
H1358 H 0.21595 0.68641 0.41068 0.0
Co1359 Co 0.17948 0.71611 0.40811 0.0
C1360 C 0.15396 0.7433 0.43097 0.0
O1361 O 0.15379 0.75502 0.41502 0.0
N1362 N 0.15836 0.72141 0.3904 0.0
C1363 C 0.12792 0.72324 0.37669 0.0
C1364 C 0.13868 0.71712 0.39325 0.0
C1365 C 0.15927 0.72982 0.37195 0.0
N1366 N 0.14092 0.73123 0.36332 0.0
O1367 O 0.19059 0.7421 0.40329 0.0
H1368 H 0.13253 0.71003 0.40658 0.0
H1369 H 0.1731 0.73509 0.36512 0.0
O1370 O 0.16348 0.72659 0.43047 0.0
C1371 C 0.20624 0.74166 0.39224 0.0
O1372 O 0.21271 0.72427 0.38539 0.0
N1373 N 0.16987 0.69023 0.41146 0.0
C1374 C 0.15377 0.6516 0.40903 0.0
C1375 C 0.15349 0.66235 0.42737 0.0
C1376 C 0.16156 0.68184 0.42824 0.0
C1377 C 0.17186 0.67948 0.39417 0.0
C1378 C 0.16361 0.66038 0.39247 0.0
H1379 H 0.16078 0.69027 0.44215 0.0
H1380 H 0.17899 0.68634 0.38122 0.0
H1381 H 0.19624 0.73229 0.44931 0.0
H1382 H 0.24077 0.68789 0.4421 0.0
H1383 H 0.11184 0.72172 0.37458 0.0
H1384 H 0.14665 0.65608 0.44077 0.0
H1385 H 0.16407 0.65321 0.37786 0.0
C1386 C 0.53596 0.95576 0.68845 0.0
C1387 C 0.53571 0.97108 0.70234 0.0
N1388 N 0.51875 0.96947 0.71319 0.0
N1389 N 0.51902 0.94445 0.69016 0.0
C1390 C 0.50896 0.95329 0.70565 0.0
H1391 H 0.54781 0.95352 0.67753 0.0
Co1392 Co 0.51083 0.9215 0.67437 0.0
C1393 C 0.49003 0.9067 0.70499 0.0
O1394 O 0.50836 0.89997 0.70819 0.0
N1395 N 0.50286 0.89897 0.65932 0.0
C1396 C 0.49997 0.8671 0.64933 0.0
C1397 C 0.50537 0.87961 0.66497 0.0
C1398 C 0.49594 0.89784 0.64019 0.0
N1399 N 0.49426 0.87864 0.6337 0.0
O1400 O 0.49622 0.93944 0.65595 0.0
H1401 H 0.51169 0.87484 0.67917 0.0
H1402 H 0.49292 0.91081 0.63082 0.0
O1403 O 0.48705 0.91866 0.69028 0.0
C1404 C 0.50127 0.95615 0.64783 0.0
O1405 O 0.51954 0.96321 0.65041 0.0
N1406 N 0.53486 0.9218 0.65958 0.0
C1407 C 0.56967 0.90753 0.64096 0.0
C1408 C 0.5678 0.90722 0.66196 0.0
C1409 C 0.5501 0.91403 0.67089 0.0
C1410 C 0.53678 0.92323 0.63912 0.0
C1411 C 0.55415 0.91614 0.6295 0.0
H1412 H 0.54794 0.91197 0.68691 0.0
H1413 H 0.52438 0.92822 0.62993 0.0
H1414 H 0.49459 0.9482 0.71137 0.0
H1415 H 0.54736 0.98227 0.70461 0.0
H1416 H 0.50131 0.85085 0.64905 0.0
H1417 H 0.57918 0.90021 0.6713 0.0
H1418 H 0.55495 0.91631 0.61321 0.0
C1419 C 0.27732 0.28745 0.92055 0.0
C1420 C 0.26626 0.29031 0.93779 0.0
N1421 N 0.27818 0.28639 0.95372 0.0
N1422 N 0.29605 0.28158 0.92559 0.0
C1423 C 0.29621 0.2812 0.9459 0.0
H1424 H 0.27222 0.29004 0.90532 0.0
Co1425 Co 0.31636 0.27767 0.9072 0.0
C1426 C 0.34208 0.24749 0.92537 0.0
O1427 O 0.34069 0.23753 0.90832 0.0
N1428 N 0.33672 0.27446 0.88825 0.0
C1429 C 0.3665 0.27381 0.87298 0.0
C1430 C 0.35679 0.27654 0.89102 0.0
C1431 C 0.33459 0.27103 0.86837 0.0
N1432 N 0.35247 0.27039 0.85879 0.0
O1433 O 0.30483 0.25188 0.90023 0.0
H1434 H 0.36395 0.2798 0.90526 0.0
H1435 H 0.32025 0.26889 0.86103 0.0
O1436 O 0.33289 0.26427 0.92747 0.0
C1437 C 0.29159 0.24967 0.88656 0.0
O1438 O 0.28519 0.26559 0.87671 0.0
N1439 N 0.32675 0.30305 0.9133 0.0
C1440 C 0.3455 0.34051 0.91208 0.0
C1441 C 0.35058 0.32647 0.92707 0.0
C1442 C 0.34089 0.30771 0.9275 0.0
C1443 C 0.32034 0.31715 0.89993 0.0
C1444 C 0.32944 0.33602 0.8991 0.0
H1445 H 0.34574 0.29663 0.93836 0.0
H1446 H 0.30895 0.3132 0.88898 0.0
H1447 H 0.30931 0.27739 0.95479 0.0
H1448 H 0.25082 0.29548 0.93852 0.0
H1449 H 0.38259 0.27447 0.87046 0.0
H1450 H 0.36286 0.32936 0.9374 0.0
H1451 H 0.32475 0.34658 0.88759 0.0
C1452 C 0.44796 0.53441 0.65514 0.0
C1453 C 0.4415 0.52526 0.67258 0.0
N1454 N 0.45649 0.52634 0.68615 0.0
N1455 N 0.46678 0.54158 0.65791 0.0
C1456 C 0.47165 0.53623 0.67692 0.0
H1457 H 0.43948 0.53564 0.64131 0.0
Co1458 Co 0.4826 0.555 0.6391 0.0
C1459 C 0.4953 0.59293 0.65933 0.0
O1460 O 0.49239 0.60321 0.64266 0.0
N1461 N 0.49926 0.56794 0.61998 0.0
C1462 C 0.52724 0.58098 0.60679 0.0
C1463 C 0.51853 0.57328 0.62383 0.0
C1464 C 0.49692 0.57203 0.60013 0.0
N1465 N 0.51359 0.58022 0.59187 0.0
O1466 O 0.50505 0.53846 0.64579 0.0
H1467 H 0.52593 0.57159 0.63823 0.0
H1468 H 0.4835 0.56898 0.5916 0.0
O1469 O 0.49133 0.57407 0.65988 0.0
C1470 C 0.50667 0.52003 0.64093 0.0
O1471 O 0.49114 0.51067 0.63302 0.0
N1472 N 0.46011 0.57086 0.63192 0.0
C1473 C 0.42772 0.5934 0.61785 0.0
C1474 C 0.43493 0.59618 0.63748 0.0
C1475 C 0.45102 0.58452 0.64436 0.0
C1476 C 0.45157 0.56632 0.61382 0.0
C1477 C 0.43582 0.5779 0.60613 0.0
H1478 H 0.45602 0.58648 0.65968 0.0
H1479 H 0.4572 0.55372 0.60518 0.0
H1480 H 0.486 0.53958 0.68389 0.0
H1481 H 0.42709 0.51801 0.675 0.0
H1482 H 0.5426 0.58629 0.60539 0.0
H1483 H 0.42854 0.60761 0.64721 0.0
H1484 H 0.43002 0.57477 0.5912 0.0
C1485 C 0.79331 0.20853 0.07602 0.0
C1486 C 0.77997 0.20798 0.06028 0.0
N1487 N 0.78762 0.21899 0.04508 0.0
N1488 N 0.80951 0.21979 0.0709 0.0
C1489 C 0.80551 0.22592 0.05188 0.0
H1490 H 0.79121 0.201 0.09028 0.0
Co1491 Co 0.8318 0.22588 0.08751 0.0
C1492 C 0.85118 0.24566 0.05877 0.0
O1493 O 0.85702 0.22695 0.05609 0.0
N1494 N 0.85362 0.23195 0.10405 0.0
C1495 C 0.88428 0.2322 0.11749 0.0
C1496 C 0.87277 0.22568 0.10148 0.0
C1497 C 0.85381 0.24213 0.12165 0.0
N1498 N 0.87221 0.2424 0.13019 0.0
O1499 O 0.81428 0.24231 0.10369 0.0
H1500 H 0.8779 0.21646 0.08909 0.0
H1501 H 0.84068 0.24896 0.12841 0.0
O1502 O 0.8378 0.24922 0.07203 0.0
C1503 C 0.79875 0.24303 0.11494 0.0
O1504 O 0.78872 0.22659 0.11947 0.0
N1505 N 0.82808 0.20226 0.10197 0.0
C1506 C 0.83822 0.1657 0.12 0.0
C1507 C 0.83923 0.16816 0.099 0.0
C1508 C 0.83408 0.18649 0.09038 0.0
C1509 C 0.82579 0.2001 0.12225 0.0
C1510 C 0.83018 0.18167 0.13149 0.0
H1511 H 0.83672 0.18878 0.07446 0.0
H1512 H 0.82234 0.21293 0.13161 0.0
H1513 H 0.8153 0.2356 0.04323 0.0
H1514 H 0.76586 0.19983 0.06003 0.0
H1515 H 0.90006 0.22899 0.11999 0.0
H1516 H 0.84573 0.15684 0.08927 0.0
H1517 H 0.82868 0.18056 0.14767 0.0
C1518 C 0.52323 0.05331 0.83424 0.0
C1519 C 0.52373 0.03899 0.8194 0.0
N1520 N 0.5137 0.04613 0.80339 0.0
N1521 N 0.51267 0.06953 0.82791 0.0
C1522 C 0.50732 0.06473 0.80875 0.0
H1523 H 0.53072 0.05201 0.84855 0.0
Co1524 Co 0.50642 0.09263 0.84382 0.0
C1525 C 0.486 0.11064 0.81605 0.0
O1526 O 0.50426 0.11829 0.81571 0.0
N1527 N 0.49993 0.11517 0.85983 0.0
C1528 C 0.50339 0.14423 0.87611 0.0
C1529 C 0.5103 0.13264 0.86035 0.0
C1530 C 0.48646 0.11672 0.8751 0.0
N1531 N 0.48841 0.13416 0.88541 0.0
O1532 O 0.492 0.07512 0.86272 0.0
H1533 H 0.52288 0.13618 0.85061 0.0
H1534 H 0.47625 0.1048 0.87947 0.0
O1535 O 0.48222 0.09664 0.8287 0.0
C1536 C 0.49536 0.06173 0.87616 0.0
O1537 O 0.51383 0.05616 0.88036 0.0
N1538 N 0.53139 0.09112 0.8569 0.0
C1539 C 0.56945 0.10355 0.87024 0.0
C1540 C 0.56547 0.10074 0.84966 0.0
C1541 C 0.54646 0.09458 0.8434 0.0
C1542 C 0.5349 0.09318 0.87705 0.0
C1543 C 0.55403 0.09869 0.88404 0.0
H1544 H 0.5432 0.09437 0.82744 0.0
H1545 H 0.52262 0.09224 0.88769 0.0
H1546 H 0.49871 0.07447 0.79895 0.0
H1547 H 0.53137 0.0246 0.82009 0.0
H1548 H 0.50939 0.15865 0.88081 0.0
H1549 H 0.57626 0.10485 0.83817 0.0
H1550 H 0.55618 0.10034 0.9001 0.0
C1551 C 0.95941 0.97111 0.3488 0.0
C1552 C 0.95762 0.98417 0.33275 0.0
N1553 N 0.97046 0.97817 0.31821 0.0
N1554 N 0.97328 0.95699 0.3443 0.0
C1555 C 0.97986 0.96182 0.32573 0.0
H1556 H 0.95097 0.97167 0.36273 0.0
Co1557 Co 0.9816 0.93537 0.35995 0.0
C1558 C 0.98344 0.90463 0.32473 0.0
O1559 O 0.96827 0.89284 0.32937 0.0
N1560 N 0.99008 0.91335 0.37555 0.0
C1561 C 0.99077 0.88295 0.38957 0.0
C1562 C 0.98244 0.89448 0.37473 0.0
C1563 C 0.0032 0.91284 0.39112 0.0
N1564 N 0.00379 0.89449 0.39985 0.0
O1565 O 0.00853 0.94541 0.35942 0.0
H1566 H 0.97034 0.88966 0.36512 0.0
H1567 H 0.01123 0.92587 0.39671 0.0
O1568 O 0.98779 0.91985 0.33569 0.0
C1569 C 0.01074 0.96083 0.37057 0.0
O1570 O 0.99513 0.96765 0.38065 0.0
N1571 N 0.95498 0.92683 0.36222 0.0
C1572 C 0.91922 0.90876 0.37349 0.0
C1573 C 0.92371 0.9115 0.35299 0.0
C1574 C 0.94175 0.92112 0.3476 0.0
C1575 C 0.94924 0.92708 0.38191 0.0
C1576 C 0.93155 0.91776 0.38795 0.0
H1577 H 0.94555 0.92301 0.33188 0.0
H1578 H 0.95933 0.9331 0.39319 0.0
H1579 H 0.99145 0.95357 0.31787 0.0
H1580 H 0.94728 0.99671 0.33165 0.0
H1581 H 0.98686 0.86754 0.39322 0.0
H1582 H 0.91413 0.90517 0.34141 0.0
H1583 H 0.92821 0.91643 0.40387 0.0
H1584 H 0.04385 0.13488 0.27431 0.0
H1585 H 0.08124 0.16109 0.22806 0.0
H1586 H 0.06128 0.14409 0.20208 0.0
H1587 H 0.03269 0.12187 0.19259 0.0
H1588 H 0.9944 0.09794 0.23926 0.0
H1589 H 0.01543 0.11357 0.26506 0.0
C1590 C 0.04766 0.1369 0.25854 0.0
C1591 C 0.06399 0.14919 0.25311 0.0
C1592 C 0.03608 0.12725 0.24379 0.0
C1593 C 0.06863 0.15179 0.23261 0.0
C1594 C 0.05731 0.14197 0.21777 0.0
C1595 C 0.02926 0.11991 0.20844 0.0
C1596 C 0.01234 0.10858 0.21418 0.0
C1597 C 0.04101 0.12961 0.22318 0.0
C1598 C 0.00755 0.10646 0.23464 0.0
C1599 C 0.01947 0.11547 0.24935 0.0
H1600 H 0.12248 0.76885 0.43366 0.0
H1601 H 0.1628 0.73319 0.46994 0.0
H1602 H 0.14863 0.74804 0.5006 0.0
H1603 H 0.12651 0.7732 0.51682 0.0
H1604 H 0.08547 0.80778 0.48013 0.0
H1605 H 0.09805 0.79114 0.44995 0.0
C1606 C 0.12805 0.76421 0.4483 0.0
C1607 C 0.14384 0.75019 0.44956 0.0
C1608 C 0.11974 0.77266 0.46578 0.0
C1609 C 0.15069 0.74402 0.4686 0.0
C1610 C 0.14264 0.75257 0.48612 0.0
C1611 C 0.12019 0.77694 0.50224 0.0
C1612 C 0.10524 0.79191 0.50075 0.0
C1613 C 0.12744 0.76722 0.48486 0.0
C1614 C 0.09701 0.79638 0.48176 0.0
C1615 C 0.10425 0.78693 0.46445 0.0
H1616 H 0.48733 0.86988 0.72157 0.0
H1617 H 0.45528 0.92602 0.71583 0.0
H1618 H 0.42831 0.91298 0.73756 0.0
H1619 H 0.41424 0.88561 0.75848 0.0
H1620 H 0.4453 0.82871 0.76189 0.0
H1621 H 0.4724 0.842 0.7407 0.0
C1622 C 0.47444 0.87927 0.72513 0.0
C1623 C 0.47331 0.89894 0.71738 0.0
C1624 C 0.45892 0.87151 0.73717 0.0
C1625 C 0.45641 0.91084 0.7217 0.0
C1626 C 0.44107 0.9034 0.73413 0.0
C1627 C 0.427 0.87618 0.75459 0.0
C1628 C 0.42794 0.85628 0.76181 0.0
C1629 C 0.44224 0.88379 0.74202 0.0
C1630 C 0.44428 0.84404 0.75643 0.0
C1631 C 0.45978 0.85166 0.74439 0.0
H1632 H 0.40106 0.20107 0.98295 0.0
H1633 H 0.36778 0.23412 0.02792 0.0
H1634 H 0.34942 0.25201 0.00146 0.0
H1635 H 0.34094 0.25618 0.9655 0.0
H1636 H 0.37281 0.221 0.92109 0.0
H1637 H 0.39359 0.20608 0.94734 0.0
C1638 C 0.39003 0.21243 0.98698 0.0
C1639 C 0.38577 0.21626 0.00735 0.0
C1640 C 0.37909 0.22211 0.97177 0.0
C1641 C 0.37127 0.23086 0.01232 0.0
C1642 C 0.36074 0.24105 0.99721 0.0
C1643 C 0.35256 0.24538 0.96161 0.0
C1644 C 0.35522 0.23958 0.94143 0.0
C1645 C 0.3642 0.23646 0.97687 0.0
C1646 C 0.37029 0.22553 0.93656 0.0
C1647 C 0.38223 0.21703 0.95154 0.0
H1648 H 0.05466 0.88964 0.26415 0.0
H1649 H 0.02799 0.83036 0.26284 0.0
H1650 H 1.00015 0.84226 0.28384 0.0
H1651 H 0.98515 0.8687 0.30502 0.0
H1652 H 0.01347 0.92719 0.3079 0.0
H1653 H 0.03877 0.91642 0.28365 0.0
C1654 C 0.04264 0.87934 0.2682 0.0
C1655 C 0.04348 0.8591 0.26202 0.0
C1656 C 0.02701 0.88613 0.28067 0.0
C1657 C 0.02776 0.846 0.26748 0.0
C1658 C 0.01187 0.85278 0.27952 0.0
C1659 C 0.99668 0.87919 0.30014 0.0
C1660 C 0.99737 0.89874 0.30833 0.0
C1661 C 0.01159 0.8727 0.28659 0.0
C1662 C 0.01251 0.91208 0.30189 0.0
C1663 C 0.02706 0.90591 0.28804 0.0
H1664 H 0.39562 0.74691 0.54696 0.0
H1665 H 0.33813 0.77658 0.54054 0.0
H1666 H 0.35277 0.79987 0.51608 0.0
H1667 H 0.38239 0.81353 0.4989 0.0
H1668 H 0.44034 0.78518 0.50683 0.0
H1669 H 0.4249 0.75943 0.52819 0.0
C1670 C 0.38619 0.7583 0.54004 0.0
C1671 C 0.36581 0.76007 0.54569 0.0
C1672 C 0.39481 0.77192 0.52634 0.0
C1673 C 0.35387 0.77496 0.53658 0.0
C1674 C 0.36224 0.78829 0.5226 0.0
C1675 C 0.39165 0.80157 0.50503 0.0
C1676 C 0.41254 0.80135 0.50134 0.0
C1677 C 0.38278 0.78717 0.51771 0.0
C1678 C 0.42426 0.78575 0.50949 0.0
C1679 C 0.41544 0.77106 0.52175 0.0
H1680 H 0.41948 0.13036 0.75087 0.0
H1681 H 0.45333 0.18577 0.74833 0.0
H1682 H 0.47616 0.17323 0.77432 0.0
H1683 H 0.48647 0.14667 0.79758 0.0
H1684 H 0.452 0.09175 0.80176 0.0
H1685 H 0.42914 0.10406 0.77543 0.0
C1686 C 0.43198 0.13959 0.7559 0.0
C1687 C 0.4349 0.15889 0.74753 0.0
C1688 C 0.44472 0.13246 0.77123 0.0
C1689 C 0.45084 0.17088 0.75449 0.0
C1690 C 0.46386 0.16372 0.76936 0.0
C1691 C 0.47393 0.13736 0.79278 0.0
C1692 C 0.47097 0.11826 0.8015 0.0
C1693 C 0.46091 0.14458 0.77783 0.0
C1694 C 0.45452 0.10653 0.79532 0.0
C1695 C 0.44156 0.11352 0.7802 0.0
H1696 H 0.13889 0.2114 0.00752 0.0
H1697 H 0.07868 0.21896 0.03084 0.0
H1698 H 0.09152 0.24135 0.05712 0.0
H1699 H 0.12037 0.25576 0.07554 0.0
H1700 H 0.18054 0.24682 0.05245 0.0
H1701 H 0.16713 0.2281 0.02401 0.0
C1702 C 0.12849 0.21814 0.01817 0.0
C1703 C 0.10789 0.2133 0.01735 0.0
C1704 C 0.13601 0.23062 0.03344 0.0
C1705 C 0.09463 0.22237 0.03115 0.0
C1706 C 0.10198 0.23508 0.04627 0.0
C1707 C 0.13054 0.24992 0.06418 0.0
C1708 C 0.15148 0.25257 0.06631 0.0
C1709 C 0.12273 0.23883 0.0479 0.0
C1710 C 0.16439 0.24498 0.05133 0.0
C1711 C 0.15674 0.2342 0.03502 0.0
H1712 H 0.24942 0.03433 0.12025 0.0
H1713 H 0.2143 0.04522 0.17389 0.0
H1714 H 0.18523 0.02876 0.15839 0.0
H1715 H 0.16948 0.01252 0.12915 0.0
H1716 H 0.20427 0.00298 0.07502 0.0
H1717 H 0.23383 0.01771 0.09122 0.0
C1718 C 0.23547 0.03295 0.12865 0.0
C1719 C 0.23404 0.04096 0.14822 0.0
C1720 C 0.21874 0.02383 0.11951 0.0
C1721 C 0.21579 0.0392 0.1588 0.0
C1722 C 0.19916 0.02981 0.14994 0.0
C1723 C 0.18356 0.01354 0.12092 0.0
C1724 C 0.18466 0.00667 0.10089 0.0
C1725 C 0.20041 0.02227 0.13023 0.0
C1726 C 0.20298 0.00823 0.09042 0.0
C1727 C 0.2199 0.01663 0.09968 0.0
H1728 H 0.21896 0.97701 0.41321 0.0
H1729 H 0.19 0.98864 0.35618 0.0
H1730 H 0.2133 0.96594 0.33933 0.0
H1731 H 0.24084 0.94136 0.34087 0.0
H1732 H 0.2701 0.9299 0.39778 0.0
H1733 H 0.24794 0.95396 0.41437 0.0
C1734 C 0.21782 0.97467 0.39708 0.0
C1735 C 0.20263 0.98446 0.38607 0.0
C1736 C 0.23134 0.96154 0.38737 0.0
C1737 C 0.20149 0.98132 0.36512 0.0
C1738 C 0.21482 0.96828 0.35541 0.0
C1739 C 0.24249 0.94423 0.35686 0.0
C1740 C 0.25706 0.93368 0.36802 0.0
C1741 C 0.22964 0.9581 0.36641 0.0
C1742 C 0.25901 0.93772 0.38875 0.0
C1743 C 0.24629 0.95147 0.39832 0.0
H1744 H 0.33412 0.01026 0.62769 0.0
H1745 H 0.30488 0.01683 0.57004 0.0
H1746 H 0.27563 0.99826 0.5826 0.0
H1747 H 0.25926 0.97858 0.60935 0.0
H1748 H 0.28956 0.97007 0.66618 0.0
H1749 H 0.31752 0.9911 0.65459 0.0
C1750 C 0.32125 0.00786 0.61794 0.0
C1751 C 0.32165 0.01495 0.59796 0.0
C1752 C 0.30474 0.99674 0.6251 0.0
C1753 C 0.30496 0.01147 0.58544 0.0
C1754 C 0.28825 0.00085 0.59263 0.0
C1755 C 0.27188 0.98151 0.61929 0.0
C1756 C 0.27234 0.97282 0.63862 0.0
C1757 C 0.2881 0.99318 0.61233 0.0
C1758 C 0.28889 0.97655 0.65123 0.0
C1759 C 0.30487 0.98857 0.6446 0.0
H1760 H 0.25256 0.03369 0.87199 0.0
H1761 H 0.29449 0.07356 0.84222 0.0
H1762 H 0.32204 0.05977 0.86224 0.0
H1763 H 0.33359 0.03879 0.89024 0.0
H1764 H 0.29199 0.99881 0.9202 0.0
H1765 H 0.26485 0.01022 0.89794 0.0
C1766 C 0.26777 0.03919 0.86968 0.0
C1767 C 0.27141 0.05481 0.85577 0.0
C1768 C 0.28351 0.03134 0.88141 0.0
C1769 C 0.29124 0.0616 0.85283 0.0
C1770 C 0.30699 0.0538 0.86437 0.0
C1771 C 0.31859 0.03249 0.89187 0.0
C1772 C 0.31467 0.01824 0.90706 0.0
C1773 C 0.30318 0.03908 0.87905 0.0
C1774 C 0.29532 0.00989 0.90869 0.0
C1775 C 0.27982 0.01644 0.896 0.0
H1776 H 0.61575 0.29648 0.00764 0.0
H1777 H 0.59861 0.33608 0.95909 0.0
H1778 H 0.61755 0.3152 0.9352 0.0
H1779 H 0.63874 0.28516 0.92825 0.0
H1780 H 0.6536 0.24499 0.97704 0.0
H1781 H 0.63611 0.26685 0.00086 0.0
C1782 C 0.61616 0.30061 0.99183 0.0
C1783 C 0.60586 0.3178 0.98513 0.0
C1784 C 0.62684 0.28852 0.9783 0.0
C1785 C 0.60636 0.32282 0.96458 0.0
C1786 C 0.61727 0.31096 0.95096 0.0
C1787 C 0.63831 0.28146 0.94415 0.0
C1788 C 0.64753 0.2637 0.95104 0.0
C1789 C 0.6276 0.29377 0.95767 0.0
C1790 C 0.64661 0.25867 0.97153 0.0
C1791 C 0.63658 0.27109 0.98511 0.0
H1792 H 0.99666 0.35768 0.17466 0.0
H1793 H 0.0012 0.4103 0.21246 0.0
H1794 H 0.98268 0.39297 0.2392 0.0
H1795 H 0.9637 0.36367 0.25103 0.0
H1796 H 0.9566 0.31194 0.21237 0.0
H1797 H 0.97766 0.32809 0.18669 0.0
C1798 C 0.99383 0.36521 0.18888 0.0
C1799 C 0.00038 0.38516 0.19171 0.0
C1800 C 0.9826 0.35538 0.20391 0.0
C1801 C 0.99629 0.39493 0.21 0.0
C1802 C 0.9857 0.38505 0.22525 0.0
C1803 C 0.96691 0.35582 0.23707 0.0
C1804 C 0.95868 0.3366 0.23362 0.0
C1805 C 0.97854 0.36539 0.22225 0.0
C1806 C 0.96275 0.32676 0.21535 0.0
C1807 C 0.97479 0.33598 0.20069 0.0
H1808 H 0.84604 0.69487 0.49308 0.0
H1809 H 0.90897 0.7024 0.47847 0.0
H1810 H 0.9002 0.72683 0.45244 0.0
H1811 H 0.87463 0.74496 0.43286 0.0
H1812 H 0.81164 0.73642 0.44667 0.0
H1813 H 0.82053 0.71354 0.47402 0.0
C1814 C 0.85788 0.70194 0.48432 0.0
C1815 C 0.87815 0.69676 0.48777 0.0
C1816 C 0.85272 0.71576 0.46916 0.0
C1817 C 0.89325 0.70606 0.47617 0.0
C1818 C 0.88825 0.72003 0.46124 0.0
C1819 C 0.86282 0.73823 0.44193 0.0
C1820 C 0.84248 0.74244 0.43767 0.0
C1821 C 0.86802 0.72484 0.45747 0.0
C1822 C 0.82741 0.73346 0.44956 0.0
C1823 C 0.83248 0.72035 0.46521 0.0
H1824 H 0.98307 0.59409 0.30973 0.0
H1825 H 0.03698 0.62997 0.30442 0.0
H1826 H 0.02196 0.64895 0.2767 0.0
H1827 H 0.99283 0.65647 0.25504 0.0
H1828 H 0.93802 0.62233 0.26248 0.0
H1829 H 0.95404 0.60156 0.28812 0.0
C1830 C 0.99159 0.60593 0.30236 0.0
C1831 C 0.0111 0.6106 0.30909 0.0
C1832 C 0.98265 0.61717 0.28682 0.0
C1833 C 0.02188 0.62615 0.29957 0.0
C1834 C 0.01331 0.637 0.28371 0.0
C1835 C 0.98447 0.64435 0.26213 0.0
C1836 C 0.96429 0.6409 0.25671 0.0
C1837 C 0.9936 0.63281 0.27736 0.0
C1838 C 0.95357 0.62532 0.26628 0.0
C1839 C 0.96272 0.61342 0.28099 0.0
H1840 H 0.50161 0.38827 0.77955 0.0
H1841 H 0.54329 0.42108 0.8171 0.0
H1842 H 0.57141 0.40225 0.80258 0.0
H1843 H 0.58377 0.37491 0.78099 0.0
H1844 H 0.54219 0.34238 0.74309 0.0
H1845 H 0.51431 0.36273 0.756 0.0
C1846 C 0.51687 0.39144 0.78444 0.0
C1847 C 0.52035 0.40592 0.79953 0.0
C1848 C 0.53291 0.3805 0.7761 0.0
C1849 C 0.54021 0.41001 0.80552 0.0
C1850 C 0.55627 0.39917 0.7973 0.0
C1851 C 0.56861 0.37229 0.77551 0.0
C1852 C 0.56499 0.35696 0.76131 0.0
C1853 C 0.55274 0.38411 0.78289 0.0
C1854 C 0.54534 0.35401 0.75408 0.0
C1855 C 0.52941 0.36562 0.76148 0.0
H1856 H 0.51586 0.62839 0.66046 0.0
H1857 H 0.49461 0.57985 0.6982 0.0
H1858 H 0.51002 0.5957 0.72756 0.0
H1859 H 0.53005 0.62271 0.74234 0.0
H1860 H 0.55289 0.67064 0.70481 0.0
H1861 H 0.53628 0.65563 0.67545 0.0
C1862 C 0.51448 0.62137 0.67515 0.0
C1863 C 0.50403 0.603 0.67716 0.0
C1864 C 0.5237 0.6304 0.69194 0.0
C1865 C 0.50258 0.59396 0.69623 0.0
C1866 C 0.51138 0.60302 0.71303 0.0
C1867 C 0.53135 0.62999 0.72777 0.0
C1868 C 0.54262 0.64784 0.72578 0.0
C1869 C 0.52206 0.62114 0.71102 0.0
C1870 C 0.54428 0.65691 0.70674 0.0
C1871 C 0.53479 0.64833 0.68997 0.0
H1872 H 0.87605 0.2414 0.02701 0.0
H1873 H 0.84814 0.28652 0.06452 0.0
H1874 H 0.8657 0.31308 0.0458 0.0
H1875 H 0.8886 0.32339 0.01803 0.0
H1876 H 0.91451 0.27777 0.97982 0.0
H1877 H 0.89849 0.25138 0.99984 0.0
C1878 C 0.87377 0.25704 0.03114 0.0
C1879 C 0.8608 0.26198 0.0471 0.0
C1880 C 0.88377 0.2721 0.02031 0.0
C1881 C 0.85797 0.28233 0.05218 0.0
C1882 C 0.86808 0.29751 0.04156 0.0
C1883 C 0.89092 0.30763 0.01441 0.0
C1884 C 0.90281 0.30235 0.99772 0.0
C1885 C 0.88104 0.29256 0.02558 0.0
C1886 C 0.90546 0.28202 0.99272 0.0
C1887 C 0.89624 0.26699 0.00408 0.0
H1888 H 0.58645 0.69155 0.51741 0.0
H1889 H 0.63834 0.69797 0.47873 0.0
H1890 H 0.65457 0.71958 0.50356 0.0
H1891 H 0.65449 0.73599 0.53663 0.0
H1892 H 0.60228 0.73051 0.57499 0.0
H1893 H 0.58573 0.70936 0.54991 0.0
C1894 C 0.60129 0.69772 0.51443 0.0
C1895 C 0.6112 0.69307 0.49632 0.0
C1896 C 0.61051 0.71032 0.52871 0.0
C1897 C 0.63035 0.70132 0.49256 0.0
C1898 C 0.63969 0.71366 0.50676 0.0
C1899 C 0.63948 0.7302 0.53948 0.0
C1900 C 0.6297 0.73473 0.55768 0.0
C1901 C 0.62998 0.71815 0.52494 0.0
C1902 C 0.61015 0.72729 0.56107 0.0
C1903 C 0.60068 0.71512 0.54676 0.0
H1904 H 0.71945 0.48881 0.60942 0.0
H1905 H 0.67651 0.53506 0.59405 0.0
H1906 H 0.69376 0.55875 0.61637 0.0
H1907 H 0.72084 0.56611 0.64062 0.0
H1908 H 0.76484 0.5204 0.65429 0.0
H1909 H 0.74717 0.49649 0.6325 0.0
C1910 C 0.71392 0.50411 0.61088 0.0
C1911 C 0.69673 0.51018 0.60016 0.0
C1912 C 0.72393 0.51761 0.62363 0.0
C1913 C 0.68981 0.53008 0.60205 0.0
C1914 C 0.69956 0.54357 0.61492 0.0
C1915 C 0.72636 0.55082 0.63898 0.0
C1916 C 0.74386 0.5448 0.64919 0.0
C1917 C 0.71652 0.53743 0.62592 0.0
C1918 C 0.75127 0.5252 0.64662 0.0
C1919 C 0.74124 0.51161 0.63413 0.0
H1920 H 0.73697 0.42523 0.86412 0.0
H1921 H 0.7222 0.44578 0.80438 0.0
H1922 H 0.69875 0.47059 0.81857 0.0
H1923 H 0.6859 0.48893 0.84824 0.0
H1924 H 0.69972 0.46734 0.9079 0.0
H1925 H 0.72015 0.44019 0.89352 0.0
C1926 C 0.72822 0.43486 0.85424 0.0
C1927 C 0.73126 0.43393 0.83333 0.0
C1928 C 0.71493 0.44898 0.86251 0.0
C1929 C 0.71989 0.44626 0.82053 0.0
C1930 C 0.7067 0.46053 0.82866 0.0
C1931 C 0.69325 0.47812 0.85803 0.0
C1932 C 0.69174 0.48022 0.87905 0.0
C1933 C 0.70465 0.46245 0.84964 0.0
C1934 C 0.70085 0.46598 0.89167 0.0
C1935 C 0.71253 0.45054 0.88346 0.0
H1936 H 0.78457 0.40991 0.13375 0.0
H1937 H 0.74619 0.44857 0.16915 0.0
H1938 H 0.75409 0.47697 0.14704 0.0
H1939 H 0.77332 0.49113 0.11871 0.0
H1940 H 0.81114 0.45207 0.08302 0.0
H1941 H 0.80169 0.42345 0.10395 0.0
C1942 C 0.77798 0.42457 0.13665 0.0
C1943 C 0.76508 0.42725 0.15321 0.0
C1944 C 0.78234 0.44072 0.12373 0.0
C1945 C 0.75629 0.4462 0.15655 0.0
C1946 C 0.76077 0.46242 0.14391 0.0
C1947 C 0.77927 0.47631 0.11532 0.0
C1948 C 0.79306 0.47383 0.09941 0.0
C1949 C 0.77393 0.45989 0.12756 0.0
C1950 C 0.80055 0.45447 0.09519 0.0
C1951 C 0.79525 0.43808 0.10724 0.0
H1952 H 0.81573 0.49771 0.35143 0.0
H1953 H 0.78506 0.48642 0.40765 0.0
H1954 H 0.75722 0.50784 0.39703 0.0
H1955 H 0.7427 0.53143 0.37283 0.0
H1956 H 0.77358 0.54356 0.31686 0.0
H1957 H 0.80016 0.51992 0.32627 0.0
C1958 C 0.80285 0.49972 0.36127 0.0
C1959 C 0.8026 0.49065 0.38043 0.0
C1960 C 0.78698 0.51227 0.35514 0.0
C1961 C 0.7858 0.49346 0.39299 0.0
C1962 C 0.76984 0.50568 0.38689 0.0
C1963 C 0.75514 0.52883 0.36258 0.0
C1964 C 0.75621 0.5394 0.34423 0.0
C1965 C 0.77047 0.51546 0.36818 0.0
C1966 C 0.77242 0.53572 0.33112 0.0
C1967 C 0.78764 0.52222 0.3365 0.0
H1968 H 0.13623 0.22479 0.17238 0.0
H1969 H 0.19077 0.25625 0.18819 0.0
H1970 H 0.18455 0.24952 0.22385 0.0
H1971 H 0.16432 0.23302 0.25049 0.0
H1972 H 0.11044 0.20063 0.23365 0.0
H1973 H 0.11586 0.20919 0.19854 0.0
C1974 C 0.14682 0.23008 0.18361 0.0
C1975 C 0.16396 0.24088 0.1776 0.0
C1976 C 0.14333 0.22589 0.20396 0.0
C1977 C 0.17733 0.24805 0.19239 0.0
C1978 C 0.17386 0.24408 0.21279 0.0
C1979 C 0.15372 0.22798 0.23914 0.0
C1980 C 0.13709 0.21611 0.24473 0.0
C1981 C 0.157 0.23281 0.21876 0.0
C1982 C 0.12349 0.20965 0.22981 0.0
C1983 C 0.12653 0.21455 0.20968 0.0
H1984 H 0.98606 0.87721 0.43124 0.0
H1985 H 0.04298 0.89918 0.40939 0.0
H1986 H 0.05983 0.8864 0.43983 0.0
H1987 H 0.058 0.86829 0.4724 0.0
H1988 H 1.00026 0.84912 0.4951 0.0
H1989 H 0.98387 0.86111 0.46434 0.0
C1990 C 0.00215 0.87918 0.43327 0.0
C1991 C 0.01343 0.88885 0.41826 0.0
C1992 C 0.01146 0.87207 0.45073 0.0
C1993 C 0.03416 0.89176 0.42094 0.0
C1994 C 0.04372 0.88435 0.43819 0.0
C1995 C 0.04187 0.86663 0.47042 0.0
C1996 C 0.03026 0.8576 0.48562 0.0
C1997 C 0.03252 0.8743 0.4531 0.0
C1998 C 0.00936 0.8559 0.48336 0.0
C1999 C 1.00004 0.8628 0.46589 0.0
H2000 H 0.36987 0.73992 0.67091 0.0
H2001 H 0.36348 0.80038 0.6486 0.0
H2002 H 0.36633 0.8137 0.68303 0.0
H2003 H 0.37006 0.80772 0.71945 0.0
H2004 H 0.37356 0.74679 0.74174 0.0
H2005 H 0.37237 0.73386 0.7073 0.0
C2006 C 0.36938 0.75601 0.6737 0.0
C2007 C 0.36689 0.76931 0.65751 0.0
C2008 C 0.37034 0.76333 0.69343 0.0
C2009 C 0.36562 0.79006 0.66104 0.0
C2010 C 0.3672 0.79758 0.68063 0.0
C2011 C 0.3706 0.79162 0.7167 0.0
C2012 C 0.37197 0.77818 0.73298 0.0
C2013 C 0.36947 0.78432 0.69694 0.0
C2014 C 0.3724 0.75737 0.72937 0.0
C2015 C 0.37181 0.74999 0.70973 0.0
H2016 H 0.43574 0.14821 0.9633 0.0
H2017 H 0.49296 0.16948 0.98534 0.0
H2018 H 0.50809 0.16423 0.95219 0.0
H2019 H 0.50564 0.15192 0.91743 0.0
H2020 H 0.44953 0.12772 0.89579 0.0
H2021 H 0.43339 0.13555 0.92813 0.0
C2022 C 0.45144 0.15192 0.96067 0.0
C2023 C 0.46321 0.15941 0.97664 0.0
C2024 C 0.46027 0.14813 0.94169 0.0
C2025 C 0.48363 0.16376 0.97324 0.0
C2026 C 0.49229 0.16073 0.95431 0.0
C2027 C 0.48981 0.14863 0.91972 0.0
C2028 C 0.47873 0.13944 0.90418 0.0
C2029 C 0.48084 0.1527 0.93849 0.0
C2030 C 0.45835 0.13478 0.90754 0.0
C2031 C 0.44913 0.1393 0.92601 0.0
H2032 H 0.10638 0.74972 0.35299 0.0
H2033 H 0.16473 0.73234 0.33031 0.0
H2034 H 0.15708 0.74797 0.29794 0.0
H2035 H 0.13432 0.76733 0.27655 0.0
H2036 H 0.07613 0.78545 0.29924 0.0
H2037 H 0.08306 0.76832 0.33111 0.0
C2038 C 0.1173 0.74912 0.34088 0.0
C2039 C 0.13611 0.73992 0.34406 0.0
C2040 C 0.11282 0.75819 0.32234 0.0
C2041 C 0.15026 0.73957 0.32833 0.0
C2042 C 0.14585 0.74839 0.30979 0.0
C2043 C 0.12304 0.76741 0.28838 0.0
C2044 C 0.10474 0.77765 0.28554 0.0
C2045 C 0.12725 0.75787 0.3067 0.0
C2046 C 0.09035 0.77766 0.30106 0.0
C2047 C 0.09432 0.76793 0.31929 0.0
H2048 H 0.46985 0.8389 0.55127 0.0
H2049 H 0.50482 0.88898 0.52886 0.0
H2050 H 0.51177 0.89985 0.56315 0.0
H2051 H 0.50705 0.89601 0.59956 0.0
H2052 H 0.47307 0.84577 0.62254 0.0
H2053 H 0.46659 0.83407 0.58808 0.0
C2054 C 0.4792 0.85203 0.5539 0.0
C2055 C 0.48672 0.86312 0.53744 0.0
C2056 C 0.48313 0.85832 0.57379 0.0
C2057 C 0.49876 0.88016 0.54118 0.0
C2058 C 0.50271 0.88647 0.56082 0.0
C2059 C 0.49808 0.88261 0.59697 0.0
C2060 C 0.49026 0.87192 0.61348 0.0
C2061 C 0.49473 0.87586 0.57722 0.0
C2062 C 0.47914 0.85426 0.61 0.0
C2063 C 0.47546 0.84759 0.59033 0.0
H2064 H 0.38349 0.24973 0.84355 0.0
H2065 H 0.32891 0.28081 0.82733 0.0
H2066 H 0.33402 0.27184 0.79194 0.0
H2067 H 0.35349 0.25411 0.76593 0.0
H2068 H 0.4074 0.22191 0.78269 0.0
H2069 H 0.40324 0.23261 0.8176 0.0
C2070 C 0.37289 0.25476 0.8322 0.0
C2071 C 0.3559 0.26591 0.83793 0.0
C2072 C 0.3758 0.24933 0.81205 0.0
C2073 C 0.34202 0.27204 0.82321 0.0
C2074 C 0.34497 0.26699 0.80302 0.0
C2075 C 0.36442 0.24961 0.77721 0.0
C2076 C 0.3807 0.23727 0.77181 0.0
C2077 C 0.36173 0.25548 0.79731 0.0
C2078 C 0.39466 0.23136 0.78655 0.0
C2079 C 0.39232 0.23746 0.80649 0.0
H2080 H 0.03631 0.11501 0.0419 0.0
H2081 H 0.03378 0.17963 0.04782 0.0
H2082 H 0.01725 0.17614 0.08065 0.0
H2083 H 0.00371 0.1544 0.10801 0.0
H2084 H 0.00772 0.08989 0.10176 0.0
H2085 H 0.02349 0.09364 0.0689 0.0
C2086 C 0.03207 0.12836 0.0503 0.0
C2087 C 0.03617 0.14754 0.04235 0.0
C2088 C 0.0229 0.12624 0.06923 0.0
C2089 C 0.03078 0.16467 0.05359 0.0
C2090 C 0.02131 0.16268 0.07237 0.0
C2091 C 0.00803 0.14125 0.09937 0.0
C2092 C 0.00472 0.12193 0.10742 0.0
C2093 C 0.01732 0.14351 0.08039 0.0
C2094 C 0.01044 0.10494 0.09612 0.0
C2095 C 0.01935 0.10706 0.07723 0.0
H2096 H 0.23823 0.1373 0.23557 0.0
H2097 H 0.21774 0.08163 0.20913 0.0
H2098 H 0.18444 0.08645 0.22402 0.0
H2099 H 0.16089 0.10662 0.24479 0.0
H2100 H 0.18076 0.16332 0.26908 0.0
H2101 H 0.2144 0.15807 0.25496 0.0
C2102 C 0.22647 0.12623 0.23311 0.0
C2103 C 0.23051 0.1091 0.22136 0.0
C2104 C 0.20719 0.12931 0.24137 0.0
C2105 C 0.21502 0.095 0.21807 0.0
C2106 C 0.19597 0.0977 0.22664 0.0
C2107 C 0.17268 0.11771 0.24695 0.0
C2108 C 0.16848 0.13528 0.25792 0.0
C2109 C 0.19186 0.11478 0.23835 0.0
C2110 C 0.18371 0.14975 0.26054 0.0
C2111 C 0.20292 0.14672 0.25252 0.0
H2112 H 0.13657 0.89207 0.48536 0.0
H2113 H 0.07973 0.91469 0.50711 0.0
H2114 H 0.08641 0.94723 0.49118 0.0
H2115 H 0.10917 0.96973 0.47246 0.0
H2116 H 0.16598 0.94693 0.45057 0.0
H2117 H 0.15858 0.91401 0.46523 0.0
C2118 C 0.12569 0.90415 0.48668 0.0
C2119 C 0.10777 0.90101 0.4976 0.0
C2120 C 0.12965 0.9228 0.47751 0.0
C2121 C 0.09359 0.91667 0.49875 0.0
C2122 C 0.09746 0.93532 0.48973 0.0
C2123 C 0.11991 0.95755 0.47082 0.0
C2124 C 0.13819 0.96087 0.46055 0.0
C2125 C 0.11555 0.93862 0.47927 0.0
C2126 C 0.15182 0.94483 0.45841 0.0
C2127 C 0.14762 0.926 0.46684 0.0
H2128 H 0.33714 0.88478 0.74179 0.0
H2129 H 0.30707 0.8288 0.75439 0.0
H2130 H 0.27768 0.83983 0.73482 0.0
H2131 H 0.25999 0.86649 0.71586 0.0
H2132 H 0.29133 0.92147 0.70122 0.0
H2133 H 0.32095 0.90987 0.71982 0.0
C2134 C 0.32416 0.87502 0.73999 0.0
C2135 C 0.32396 0.85618 0.7495 0.0
C2136 C 0.30764 0.88137 0.72855 0.0
C2137 C 0.30736 0.84336 0.74705 0.0
C2138 C 0.29061 0.84972 0.73602 0.0
C2139 C 0.27337 0.87584 0.71675 0.0
C2140 C 0.27352 0.89488 0.70756 0.0
C2141 C 0.29046 0.86885 0.727 0.0
C2142 C 0.29097 0.90678 0.70832 0.0
C2143 C 0.30784 0.90018 0.71895 0.0
H2144 H 0.37493 0.09449 0.02735 0.0
H2145 H 0.39854 0.11501 0.9706 0.0
H2146 H 0.39076 0.08224 0.95519 0.0
H2147 H 0.377 0.0478 0.95824 0.0
H2148 H 0.35668 0.02649 0.01613 0.0
H2149 H 0.36318 0.05962 0.03094 0.0
C2150 C 0.37829 0.09165 0.01161 0.0
C2151 C 0.38701 0.1069 0.99993 0.0
C2152 C 0.37427 0.07279 0.00319 0.0
C2153 C 0.39178 0.10327 0.97969 0.0
C2154 C 0.38727 0.08466 0.97095 0.0
C2155 C 0.37394 0.05056 0.97406 0.0
C2156 C 0.36619 0.03504 0.98614 0.0
C2157 C 0.37844 0.06934 0.98257 0.0
C2158 C 0.3626 0.03841 0.00667 0.0
C2159 C 0.36632 0.05726 0.01509 0.0
H2160 H 0.20883 0.89096 0.31027 0.0
H2161 H 0.23593 0.84839 0.26928 0.0
H2162 H 0.20278 0.83834 0.25732 0.0
H2163 H 0.166 0.84022 0.25966 0.0
H2164 H 0.13866 0.88309 0.30008 0.0
H2165 H 0.17187 0.8943 0.31107 0.0
C2166 C 0.20749 0.87958 0.29864 0.0
C2167 C 0.22491 0.8704 0.29082 0.0
C2168 C 0.18827 0.87379 0.29176 0.0
C2169 C 0.22284 0.85571 0.27567 0.0
C2170 C 0.20384 0.8499 0.26879 0.0
C2171 C 0.16724 0.85224 0.2706 0.0
C2172 C 0.14974 0.86062 0.27912 0.0
C2173 C 0.18643 0.85867 0.27686 0.0
C2174 C 0.15181 0.87607 0.29351 0.0
C2175 C 0.17083 0.88257 0.29976 0.0
H2176 H 0.38792 0.97627 0.49759 0.0
H2177 H 0.37037 0.96651 0.55947 0.0
H2178 H 0.38085 0.93144 0.55718 0.0
H2179 H 0.39773 0.90468 0.5387 0.0
H2180 H 0.41386 0.91369 0.47626 0.0
H2181 H 0.40135 0.94804 0.47784 0.0
C2182 C 0.3862 0.9664 0.5105 0.0
C2183 C 0.37867 0.97404 0.52873 0.0
C2184 C 0.39225 0.94623 0.50911 0.0
C2185 C 0.37623 0.96103 0.54526 0.0
C2186 C 0.3823 0.94098 0.54401 0.0
C2187 C 0.39828 0.9139 0.52528 0.0
C2188 C 0.40728 0.90656 0.50755 0.0
C2189 C 0.39074 0.93357 0.52615 0.0
C2190 C 0.40769 0.919 0.49037 0.0
C2191 C 0.40036 0.93866 0.49117 0.0
H2192 H 0.26435 0.16427 0.78558 0.0
H2193 H 0.28315 0.10249 0.79255 0.0
H2194 H 0.31491 0.10994 0.7756 0.0
H2195 H 0.33688 0.13369 0.7577 0.0
H2196 H 0.3195 0.19587 0.75226 0.0
H2197 H 0.28778 0.18879 0.76994 0.0
C2198 C 0.27544 0.1525 0.78336 0.0
C2199 C 0.27135 0.13282 0.79008 0.0
C2200 C 0.29392 0.15699 0.77397 0.0
C2201 C 0.28596 0.11774 0.78748 0.0
C2202 C 0.3041 0.12197 0.77777 0.0
C2203 C 0.32614 0.14565 0.76051 0.0
C2204 C 0.33032 0.16519 0.75361 0.0
C2205 C 0.30817 0.14148 0.77081 0.0
C2206 C 0.31654 0.18073 0.75756 0.0
C2207 C 0.2984 0.17664 0.76752 0.0
H2208 H 0.15536 0.04643 0.03447 0.0
H2209 H 0.11096 0.02319 0.99307 0.0
H2210 H 0.1001 0.05738 0.98524 0.0
H2211 H 0.10019 0.09331 0.99355 0.0
H2212 H 0.14424 0.11657 0.03527 0.0
H2213 H 0.15809 0.08286 0.03971 0.0
C2214 C 0.14358 0.04883 0.02343 0.0
C2215 C 0.13381 0.03223 0.01459 0.0
C2216 C 0.13706 0.06851 0.01935 0.0
C2217 C 0.11864 0.03567 1.00023 0.0
C2218 C 0.11233 0.05523 0.99581 0.0
C2219 C 0.1131 0.09117 0.00325 0.0
C2220 C 0.12092 0.10749 0.01431 0.0
C2221 C 0.12096 0.07171 0.0058 0.0
C2222 C 0.1376 0.10424 0.02694 0.0
C2223 C 0.14562 0.08497 0.02941 0.0
H2224 H 0.2441 0.14663 0.10871 0.0
H2225 H 0.25399 0.15315 0.17257 0.0
H2226 H 0.24616 0.18885 0.17055 0.0
H2227 H 0.23606 0.21815 0.15097 0.0
H2228 H 0.22463 0.21224 0.08731 0.0
H2229 H 0.23376 0.17652 0.08881 0.0
C2230 C 0.2445 0.15595 0.12211 0.0
C2231 C 0.24933 0.14719 0.14078 0.0
C2232 C 0.23988 0.17659 0.12086 0.0
C2233 C 0.24985 0.15938 0.1581 0.0
C2234 C 0.24556 0.17986 0.15693 0.0
C2235 C 0.23578 0.20914 0.13735 0.0
C2236 C 0.22984 0.21786 0.11904 0.0
C2237 C 0.24051 0.18861 0.13844 0.0
C2238 C 0.22923 0.20587 0.1016 0.0
C2239 C 0.23439 0.18544 0.10246 0.0
H2240 H 0.71906 0.26876 0.8399 0.0
H2241 H 0.70373 0.28468 0.90104 0.0
H2242 H 0.72037 0.31716 0.89707 0.0
H2243 H 0.7398 0.34116 0.87632 0.0
H2244 H 0.75335 0.32616 0.81471 0.0
H2245 H 0.73703 0.29336 0.81871 0.0
C2246 C 0.71932 0.27937 0.85232 0.0
C2247 C 0.71021 0.27423 0.87072 0.0
C2248 C 0.7287 0.29823 0.84987 0.0
C2249 C 0.71053 0.28825 0.88663 0.0
C2250 C 0.72014 0.30683 0.88444 0.0
C2251 C 0.73919 0.33061 0.86388 0.0
C2252 C 0.74778 0.33593 0.84532 0.0
C2253 C 0.72938 0.31196 0.86617 0.0
C2254 C 0.74671 0.32234 0.82912 0.0
C2255 C 0.73743 0.3036 0.83141 0.0
H2256 H 0.95872 0.49676 0.15066 0.0
H2257 H 0.95062 0.43371 0.13734 0.0
H2258 H 0.91578 0.43991 0.12742 0.0
H2259 H 0.88816 0.46374 0.12054 0.0
H2260 H 0.89524 0.52617 0.13631 0.0
H2261 H 0.92986 0.51991 0.14731 0.0
C2262 C 0.9492 0.48441 0.1458 0.0
C2263 C 0.95715 0.46488 0.14462 0.0
C2264 C 0.92907 0.48801 0.14046 0.0
C2265 C 0.94473 0.44888 0.13848 0.0
C2266 C 0.92486 0.45241 0.13269 0.0
C2267 C 0.89733 0.47582 0.12659 0.0
C2268 C 0.88945 0.49535 0.1275 0.0
C2269 C 0.91697 0.47196 0.13332 0.0
C2270 C 0.90117 0.51102 0.13552 0.0
C2271 C 0.92092 0.50744 0.14174 0.0
H2272 H 0.74698 0.66311 0.33143 0.0
H2273 H 0.76171 0.63851 0.38959 0.0
H2274 H 0.77458 0.67132 0.40053 0.0
H2275 H 0.78094 0.70712 0.3936 0.0
H2276 H 0.76472 0.73191 0.33574 0.0
H2277 H 0.75312 0.6989 0.32457 0.0
C2278 C 0.75327 0.66493 0.34638 0.0
C2279 C 0.75359 0.64851 0.35968 0.0
C2280 C 0.7602 0.68386 0.35263 0.0
C2281 C 0.76133 0.65105 0.37918 0.0
C2282 C 0.76866 0.66975 0.3854 0.0
C2283 C 0.77488 0.70527 0.37855 0.0
C2284 C 0.77366 0.72192 0.36554 0.0
C2285 C 0.76803 0.6863 0.37229 0.0
C2286 C 0.76569 0.71935 0.3461 0.0
C2287 C 0.75913 0.70047 0.33966 0.0
H2288 H 0.00837 0.02369 0.10988 0.0
H2289 H 0.03519 0.06478 0.15263 0.0
H2290 H 0.06844 0.05732 0.13937 0.0
H2291 H 0.08999 0.03989 0.11533 0.0
H2292 H 0.06404 0.99891 0.07225 0.0
H2293 H 0.03045 0.00526 0.08618 0.0
C2294 C 0.02149 0.03094 0.11634 0.0
C2295 C 0.01918 0.04487 0.13217 0.0
C2296 C 0.04076 0.02657 0.10863 0.0
C2297 C 0.03641 0.05406 0.1404 0.0
C2298 C 0.0555 0.04982 0.13283 0.0
C2299 C 0.07698 0.03244 0.1089 0.0
C2300 C 0.07948 0.01911 0.09268 0.0
C2301 C 0.05783 0.03626 0.11688 0.0
C2302 C 0.06252 0.00916 0.08482 0.0
C2303 C 0.04331 0.01289 0.09271 0.0
H2304 H 0.30425 0.80908 0.58673 0.0
H2305 H 0.28461 0.78625 0.64438 0.0
H2306 H 0.27224 0.81939 0.65371 0.0
H2307 H 0.26585 0.8546 0.64535 0.0
H2308 H 0.28372 0.87788 0.58749 0.0
H2309 H 0.29782 0.84496 0.57835 0.0
C2310 C 0.29732 0.81143 0.60133 0.0
C2311 C 0.29533 0.79514 0.61478 0.0
C2312 C 0.28988 0.83062 0.60658 0.0
C2313 C 0.28622 0.79841 0.63364 0.0
C2314 C 0.27917 0.81742 0.63905 0.0
C2315 C 0.27313 0.85257 0.63087 0.0
C2316 C 0.27395 0.86869 0.61719 0.0
C2317 C 0.2808 0.83359 0.62564 0.0
C2318 C 0.28293 0.86566 0.59825 0.0
C2319 C 0.29099 0.84686 0.59305 0.0
H2320 H 0.9066 0.51474 0.40826 0.0
H2321 H 0.8969 0.49929 0.34607 0.0
H2322 H 0.92573 0.52008 0.33604 0.0
H2323 H 0.95658 0.53828 0.34574 0.0
H2324 H 0.96819 0.55006 0.40848 0.0
H2325 H 0.93561 0.53551 0.41765 0.0
C2326 C 0.9105 0.51646 0.39249 0.0
C2327 C 0.89982 0.50559 0.37788 0.0
C2328 C 0.92757 0.52762 0.38704 0.0
C2329 C 0.90511 0.50753 0.3575 0.0
C2330 C 0.92157 0.51933 0.35181 0.0
C2331 C 0.95164 0.5381 0.36132 0.0
C2332 C 0.96456 0.5451 0.37646 0.0
C2333 C 0.93336 0.52881 0.36654 0.0
C2334 C 0.95836 0.54459 0.39666 0.0
C2335 C 0.93981 0.53625 0.40189 0.0
H2336 H 0.52971 0.47108 0.84189 0.0
H2337 H 0.50958 0.48627 0.90178 0.0
H2338 H 0.54305 0.49974 0.9097 0.0
H2339 H 0.57831 0.50655 0.89959 0.0
H2340 H 0.59758 0.49209 0.83931 0.0
H2341 H 0.56411 0.47891 0.83148 0.0
C2342 C 0.5326 0.47739 0.85668 0.0
C2343 C 0.51722 0.47764 0.87126 0.0
C2344 C 0.55173 0.48514 0.86104 0.0
C2345 C 0.52115 0.48604 0.89027 0.0
C2346 C 0.5403 0.49362 0.89482 0.0
C2347 C 0.57514 0.50039 0.88481 0.0
C2348 C 0.59037 0.50013 0.87005 0.0
C2349 C 0.55575 0.49311 0.88036 0.0
C2350 C 0.58604 0.4925 0.85083 0.0
C2351 C 0.56695 0.48494 0.84639 0.0
H2352 H 0.63615 0.73533 0.73681 0.0
H2353 H 0.59092 0.69233 0.71831 0.0
H2354 H 0.59904 0.69841 0.68324 0.0
H2355 H 0.61955 0.7148 0.65771 0.0
H2356 H 0.66559 0.75709 0.67511 0.0
H2357 H 0.65628 0.75282 0.7106 0.0
C2358 C 0.62803 0.72738 0.72509 0.0
C2359 C 0.61302 0.7133 0.7303 0.0
C2360 C 0.63285 0.73086 0.70471 0.0
C2361 C 0.6026 0.70317 0.71488 0.0
C2362 C 0.60721 0.70663 0.69473 0.0
C2363 C 0.62762 0.72303 0.66926 0.0
C2364 C 0.64337 0.73605 0.66379 0.0
C2365 C 0.62242 0.72025 0.6895 0.0
C2366 C 0.65333 0.74704 0.67891 0.0
C2367 C 0.64811 0.74447 0.69921 0.0
H2368 H 0.53967 0.42253 0.96909 0.0
H2369 H 0.53983 0.35769 0.97335 0.0
H2370 H 0.52527 0.35513 0.93973 0.0
H2371 H 0.51277 0.37133 0.90868 0.0
H2372 H 0.51318 0.43617 0.90456 0.0
H2373 H 0.52736 0.43863 0.93819 0.0
C2374 C 0.5364 0.40785 0.96271 0.0
C2375 C 0.54079 0.39038 0.97377 0.0
C2376 C 0.52829 0.40644 0.9432 0.0
C2377 C 0.53664 0.37144 0.96517 0.0
C2378 C 0.52831 0.36993 0.94591 0.0
C2379 C 0.51598 0.38595 0.91519 0.0
C2380 C 0.51216 0.40345 0.90392 0.0
C2381 C 0.52414 0.38732 0.93472 0.0
C2382 C 0.51641 0.42236 0.91258 0.0
C2383 C 0.52436 0.42384 0.93197 0.0
H2384 H 0.90692 0.28056 0.20933 0.0
H2385 H 0.84859 0.26237 0.23161 0.0
H2386 H 0.83967 0.24953 0.1983 0.0
H2387 H 0.84868 0.24289 0.16309 0.0
H2388 H 0.90735 0.25978 0.14101 0.0
H2389 H 0.91605 0.27357 0.17411 0.0
C2390 C 0.89221 0.27388 0.20687 0.0
C2391 C 0.8784 0.27246 0.2229 0.0
C2392 C 0.88732 0.26621 0.18778 0.0
C2393 C 0.85951 0.26357 0.21954 0.0
C2394 C 0.85439 0.25625 0.2005 0.0
C2395 C 0.86329 0.24978 0.16548 0.0
C2396 C 0.87732 0.25049 0.14963 0.0
C2397 C 0.8682 0.25743 0.18455 0.0
C2398 C 0.89637 0.25901 0.15304 0.0
C2399 C 0.90129 0.26695 0.17191 0.0
H2400 H 0.98578 0.62926 0.48596 0.0
H2401 H 0.92932 0.63795 0.45513 0.0
H2402 H 0.94492 0.62778 0.42327 0.0
H2403 H 0.9747 0.61552 0.40432 0.0
H2404 H 0.03116 0.60826 0.43546 0.0
H2405 H 0.01556 0.61881 0.46698 0.0
C2406 C 0.9769 0.62899 0.47225 0.0
C2407 C 0.95644 0.63424 0.4729 0.0
C2408 C 0.986 0.62336 0.45403 0.0
C2409 C 0.94516 0.63404 0.45499 0.0
C2410 C 0.95404 0.62814 0.43679 0.0
C2411 C 0.98349 0.6163 0.41805 0.0
C2412 C 0.00403 0.61117 0.41758 0.0
C2413 C 0.97444 0.62262 0.43616 0.0
C2414 C 0.01539 0.61238 0.43539 0.0
C2415 C 0.00646 0.6183 0.45345 0.0
H2416 H 0.63139 0.27908 0.85062 0.0
H2417 H 0.61675 0.21737 0.83698 0.0
H2418 H 0.61014 0.22635 0.8019 0.0
H2419 H 0.60992 0.25156 0.77474 0.0
H2420 H 0.62284 0.31367 0.78859 0.0
H2421 H 0.62883 0.30482 0.82387 0.0
C2422 C 0.62658 0.26771 0.83993 0.0
C2423 C 0.62451 0.24764 0.84633 0.0
C2424 C 0.6227 0.27303 0.81982 0.0
C2425 C 0.61817 0.23297 0.83246 0.0
C2426 C 0.61457 0.23807 0.81237 0.0
C2427 C 0.61406 0.26313 0.78551 0.0
C2428 C 0.61615 0.28318 0.7791 0.0
C2429 C 0.61703 0.258 0.80583 0.0
C2430 C 0.62116 0.29812 0.79322 0.0
C2431 C 0.62461 0.29306 0.81337 0.0
H2432 H 0.98547 0.40199 0.00654 0.0
H2433 H 0.92932 0.37264 0.0216 0.0
H2434 H 0.93461 0.37983 0.05693 0.0
H2435 H 0.95579 0.39236 0.08388 0.0
H2436 H 0.01323 0.41945 0.0703 0.0
H2437 H 0.00667 0.41557 0.03418 0.0
C2438 C 0.9743 0.39739 0.01754 0.0
C2439 C 0.95695 0.3869 0.01125 0.0
C2440 C 0.97771 0.40104 0.03818 0.0
C2441 C 0.94273 0.3809 0.0258 0.0
C2442 C 0.94577 0.3849 0.04613 0.0
C2443 C 0.967 0.39729 0.0731 0.0
C2444 C 0.98512 0.40589 0.07986 0.0
C2445 C 0.96334 0.39459 0.05252 0.0
C2446 C 0.99914 0.4128 0.06553 0.0
C2447 C 0.99543 0.41047 0.04487 0.0
H2448 H 0.85576 0.70414 0.26904 0.0
H2449 H 0.91805 0.70706 0.28703 0.0
H2450 H 0.90848 0.72494 0.31792 0.0
H2451 H 0.88223 0.74066 0.33923 0.0
H2452 H 0.81991 0.73574 0.32184 0.0
H2453 H 0.82955 0.71751 0.29135 0.0
C2454 C 0.86723 0.70872 0.27974 0.0
C2455 C 0.88758 0.7046 0.27573 0.0
C2456 C 0.86156 0.71854 0.29755 0.0
C2457 C 0.90229 0.71018 0.28985 0.0
C2458 C 0.89682 0.72041 0.30745 0.0
C2459 C 0.87084 0.7355 0.32874 0.0
C2460 C 0.85043 0.73958 0.33265 0.0
C2461 C 0.8765 0.72481 0.31137 0.0
C2462 C 0.8357 0.73263 0.31917 0.0
C2463 C 0.84121 0.72233 0.3017 0.0
H2464 H 0.51899 0.59803 0.49902 0.0
H2465 H 0.5619 0.64177 0.52098 0.0
H2466 H 0.55517 0.63155 0.55543 0.0
H2467 H 0.53783 0.60992 0.57938 0.0
H2468 H 0.49549 0.56547 0.55827 0.0
H2469 H 0.501 0.57646 0.52352 0.0
C2470 C 0.52673 0.6054 0.51137 0.0
C2471 C 0.54097 0.62057 0.50737 0.0
C2472 C 0.52292 0.59935 0.53131 0.0
C2473 C 0.55094 0.62995 0.52355 0.0
C2474 C 0.54712 0.62414 0.54331 0.0
C2475 C 0.52994 0.6025 0.56718 0.0
C2476 C 0.5164 0.58683 0.57141 0.0
C2477 C 0.53331 0.60875 0.54734 0.0
C2478 C 0.5059 0.57769 0.55545 0.0
C2479 C 0.50913 0.5839 0.53556 0.0
H2480 H 0.6402 0.6148 0.7239 0.0
H2481 H 0.65758 0.6585 0.76848 0.0
H2482 H 0.69279 0.65594 0.75784 0.0
H2483 H 0.71862 0.64132 0.73576 0.0
H2484 H 0.70111 0.59888 0.68977 0.0
H2485 H 0.66609 0.60104 0.70079 0.0
C2486 C 0.65181 0.62356 0.73131 0.0
C2487 C 0.64646 0.63667 0.74703 0.0
C2488 C 0.67195 0.62239 0.72472 0.0
C2489 C 0.66146 0.64831 0.75635 0.0
C2490 C 0.68154 0.64686 0.75026 0.0
C2491 C 0.70715 0.63261 0.72808 0.0
C2492 C 0.71257 0.61993 0.712 0.0
C2493 C 0.68697 0.63402 0.7344 0.0
C2494 C 0.69742 0.60884 0.70215 0.0
C2495 C 0.67735 0.60997 0.70851 0.0
H2496 H 0.64151 0.48977 0.98679 0.0
H2497 H 0.61814 0.47192 0.92886 0.0
H2498 H 0.61051 0.43844 0.94197 0.0
H2499 H 0.6114 0.41387 0.9696 0.0
H2500 H 0.63567 0.43128 0.02725 0.0
H2501 H 0.64254 0.46506 0.01441 0.0
C2502 C 0.63447 0.47864 0.97712 0.0
C2503 C 0.63016 0.48345 0.95694 0.0
C2504 C 0.63067 0.45919 0.9846 0.0
C2505 C 0.62146 0.4687 0.94449 0.0
C2506 C 0.6172 0.44949 0.95195 0.0
C2507 C 0.61813 0.42507 0.97937 0.0
C2508 C 0.62302 0.41999 0.99936 0.0
C2509 C 0.62192 0.44451 0.97192 0.0
C2510 C 0.63203 0.43463 0.01173 0.0
C2511 C 0.63577 0.45404 0.00445 0.0
H2512 H 0.8421 0.36251 0.27007 0.0
H2513 H 0.86463 0.35232 0.21015 0.0
H2514 H 0.83137 0.36026 0.19605 0.0
H2515 H 0.79551 0.36925 0.20106 0.0
H2516 H 0.77281 0.37679 0.26149 0.0
H2517 H 0.80642 0.37087 0.27513 0.0
C2518 C 0.83975 0.36235 0.25391 0.0
C2519 C 0.8558 0.35718 0.24109 0.0
C2520 C 0.82052 0.36635 0.24606 0.0
C2521 C 0.85247 0.35639 0.22023 0.0
C2522 C 0.83349 0.36091 0.21222 0.0
C2523 C 0.79799 0.36971 0.2172 0.0
C2524 C 0.78169 0.37353 0.23025 0.0
C2525 C 0.81733 0.36579 0.22501 0.0
C2526 C 0.78507 0.37381 0.25113 0.0
C2527 C 0.8043 0.37047 0.25895 0.0
H2528 H 0.85191 0.58756 0.4798 0.0
H2529 H 0.91469 0.57795 0.49313 0.0
H2530 H 0.9129 0.54424 0.47854 0.0
H2531 H 0.89322 0.51703 0.46292 0.0
H2532 H 0.83064 0.52686 0.4486 0.0
H2533 H 0.83256 0.56084 0.46271 0.0
C2534 C 0.86516 0.57805 0.47951 0.0
C2535 C 0.88338 0.58525 0.48761 0.0
C2536 C 0.86403 0.55867 0.47101 0.0
C2537 C 0.90054 0.57288 0.48685 0.0
C2538 C 0.89949 0.55353 0.47862 0.0
C2539 C 0.87999 0.52659 0.46291 0.0
C2540 C 0.86176 0.51935 0.45489 0.0
C2541 C 0.88128 0.5462 0.47081 0.0
C2542 C 0.84485 0.53206 0.4547 0.0
C2543 C 0.84592 0.55148 0.4628 0.0
H2544 H 0.68274 0.33047 0.73541 0.0
H2545 H 0.65807 0.38498 0.76055 0.0
H2546 H 0.69104 0.39429 0.77372 0.0
H2547 H 0.72675 0.38745 0.7776 0.0
H2548 H 0.75262 0.33359 0.75207 0.0
H2549 H 0.71939 0.32354 0.73945 0.0
C2550 C 0.68466 0.34426 0.74392 0.0
C2551 C 0.66804 0.35707 0.74696 0.0
C2552 C 0.70385 0.3497 0.75123 0.0
C2553 C 0.67069 0.37502 0.75783 0.0
C2554 C 0.68952 0.38033 0.7654 0.0
C2555 C 0.72522 0.37347 0.76929 0.0
C2556 C 0.74221 0.3613 0.7658 0.0
C2557 C 0.7062 0.36788 0.76205 0.0
C2558 C 0.73983 0.3433 0.7549 0.0
C2559 C 0.72081 0.33751 0.74775 0.0
H2560 H 0.88575 0.39984 0.01863 0.0
H2561 H 0.86207 0.41718 0.96075 0.0
H2562 H 0.85349 0.45044 0.97396 0.0
H2563 H 0.85351 0.47487 0.00168 0.0
H2564 H 0.87533 0.45725 0.06023 0.0
H2565 H 0.88418 0.42388 0.04704 0.0
C2566 C 0.87863 0.41091 0.00899 0.0
C2567 C 0.87454 0.40607 0.98874 0.0
C2568 C 0.87367 0.42999 0.01674 0.0
C2569 C 0.86513 0.42045 0.97642 0.0
C2570 C 0.86041 0.43953 0.98393 0.0
C2571 C 0.86037 0.46378 0.01151 0.0
C2572 C 0.86411 0.46858 0.0318 0.0
C2573 C 0.8648 0.44452 0.00399 0.0
C2574 C 0.87249 0.45391 0.04451 0.0
C2575 C 0.87748 0.43485 0.03699 0.0
H2576 H 0.79319 0.59224 0.2937 0.0
H2577 H 0.76506 0.64185 0.26255 0.0
H2578 H 0.79774 0.65266 0.24968 0.0
H2579 H 0.83435 0.64773 0.24666 0.0
H2580 H 0.8624 0.59789 0.27734 0.0
H2581 H 0.82982 0.58747 0.29087 0.0
C2582 C 0.7942 0.60543 0.28412 0.0
C2583 C 0.77664 0.61617 0.27911 0.0
C2584 C 0.81308 0.61153 0.27661 0.0
C2585 C 0.77828 0.63322 0.26662 0.0
C2586 C 0.79699 0.63946 0.25925 0.0
C2587 C 0.83335 0.63472 0.25647 0.0
C2588 C 0.85082 0.6236 0.26092 0.0
C2589 C 0.8145 0.62871 0.2641 0.0
C2590 C 0.84919 0.60658 0.27345 0.0
C2591 C 0.83055 0.60065 0.28127 0.0
H2592 H 0.64837 0.53228 0.53646 0.0
H2593 H 0.58633 0.51462 0.5288 0.0
H2594 H 0.57919 0.5465 0.51175 0.0
H2595 H 0.59095 0.57869 0.49763 0.0
H2596 H 0.65338 0.59546 0.50332 0.0
H2597 H 0.6601 0.56457 0.52237 0.0
C2598 C 0.63323 0.53552 0.53127 0.0
C2599 C 0.61784 0.52115 0.53402 0.0
C2600 C 0.62938 0.55363 0.52095 0.0
C2601 C 0.5984 0.52542 0.52688 0.0
C2602 C 0.59433 0.54364 0.51711 0.0
C2603 C 0.60597 0.57569 0.50326 0.0
C2604 C 0.62165 0.58941 0.49918 0.0
C2605 C 0.60975 0.55775 0.51386 0.0
C2606 C 0.64112 0.58509 0.50619 0.0
C2607 C 0.64493 0.56747 0.51713 0.0
H2608 H 0.76671 0.6613 0.61535 0.0
H2609 H 0.70854 0.63502 0.62681 0.0
H2610 H 0.69201 0.66586 0.61505 0.0
H2611 H 0.69434 0.70096 0.60388 0.0
H2612 H 0.75264 0.72844 0.59558 0.0
H2613 H 0.76904 0.6964 0.60357 0.0
C2614 C 0.75043 0.66228 0.61493 0.0
C2615 C 0.73877 0.64598 0.62175 0.0
C2616 C 0.74115 0.68027 0.60884 0.0
C2617 C 0.7177 0.64746 0.62157 0.0
C2618 C 0.70831 0.66505 0.61489 0.0
C2619 C 0.71062 0.69987 0.60351 0.0
C2620 C 0.72228 0.71699 0.59905 0.0
C2621 C 0.7199 0.68165 0.60881 0.0
C2622 C 0.74337 0.71544 0.59898 0.0
C2623 C 0.75274 0.69715 0.60356 0.0
H2624 H 0.19181 0.77883 0.38285 0.0
H2625 H 0.24657 0.74506 0.39159 0.0
H2626 H 0.26664 0.77474 0.38336 0.0
H2627 H 0.26867 0.80993 0.37307 0.0
H2628 H 0.21456 0.84364 0.36158 0.0
H2629 H 0.194 0.81433 0.37118 0.0
C2630 C 0.20814 0.77815 0.38306 0.0
C2631 C 0.21781 0.75998 0.38793 0.0
C2632 C 0.21959 0.79513 0.37766 0.0
C2633 C 0.2389 0.75897 0.38785 0.0
C2634 C 0.25036 0.77589 0.38316 0.0
C2635 C 0.25237 0.81084 0.37282 0.0
C2636 C 0.24304 0.82883 0.36693 0.0
C2637 C 0.24087 0.79397 0.37795 0.0
C2638 C 0.22195 0.82983 0.36612 0.0
C2639 C 0.21027 0.81315 0.37167 0.0
H2640 H 0.4649 0.94417 0.63202 0.0
H2641 H 0.50472 0.99538 0.63729 0.0
H2642 H 0.48049 0.01643 0.6198 0.0
H2643 H 0.44746 0.021 0.6045 0.0
H2644 H 0.40727 0.97056 0.59804 0.0
H2645 H 0.43222 0.9484 0.61412 0.0
C2646 C 0.46826 0.95991 0.62926 0.0
C2647 C 0.48657 0.96819 0.63614 0.0
C2648 C 0.45422 0.97206 0.61894 0.0
C2649 C 0.49079 0.98856 0.63221 0.0
C2650 C 0.47692 0.00068 0.62222 0.0
C2651 C 0.44422 0.00513 0.60658 0.0
C2652 C 0.42553 0.99743 0.60039 0.0
C2653 C 0.45853 0.99267 0.61576 0.0
C2654 C 0.42161 0.97677 0.60271 0.0
C2655 C 0.43581 0.96418 0.61201 0.0
H2656 H 0.2934 0.21497 0.90876 0.0
H2657 H 0.27278 0.23875 0.85189 0.0
H2658 H 0.2603 0.2056 0.84226 0.0
H2659 H 0.25472 0.16996 0.85002 0.0
H2660 H 0.27359 0.14603 0.90726 0.0
H2661 H 0.28715 0.17908 0.91681 0.0
C2662 C 0.28621 0.21286 0.89425 0.0
C2663 C 0.28406 0.22936 0.88106 0.0
C2664 C 0.27871 0.19373 0.88889 0.0
C2665 C 0.27456 0.22639 0.86238 0.0
C2666 C 0.26744 0.2074 0.85682 0.0
C2667 C 0.26201 0.17193 0.86449 0.0
C2668 C 0.26338 0.15554 0.87784 0.0
C2669 C 0.2694 0.19099 0.86994 0.0
C2670 C 0.27238 0.15845 0.89676 0.0
C2671 C 0.28015 0.17731 0.90218 0.0
H2672 H 0.58503 0.46884 0.62561 0.0
H2673 H 0.61072 0.52827 0.6224 0.0
H2674 H 0.57859 0.54304 0.63304 0.0
H2675 H 0.54272 0.53907 0.64022 0.0
H2676 H 0.51585 0.47991 0.6397 0.0
H2677 H 0.549 0.46481 0.63395 0.0
C2678 C 0.58359 0.48497 0.62768 0.0
C2679 C 0.60009 0.49755 0.62348 0.0
C2680 C 0.5649 0.4933 0.63302 0.0
C2681 C 0.59811 0.51844 0.62566 0.0
C2682 C 0.5798 0.52682 0.63169 0.0
C2683 C 0.54411 0.52285 0.63917 0.0
C2684 C 0.52684 0.51062 0.64037 0.0
C2685 C 0.56299 0.51441 0.63499 0.0
C2686 C 0.52892 0.48964 0.63879 0.0
C2687 C 0.54785 0.48102 0.63544 0.0
H2688 H 0.77255 0.33324 0.12722 0.0
H2689 H 0.7414 0.30779 0.17807 0.0
H2690 H 0.75466 0.27427 0.16971 0.0
H2691 H 0.77433 0.25214 0.1469 0.0
H2692 H 0.80657 0.27883 0.09706 0.0
H2693 H 0.79365 0.3119 0.10598 0.0
C2694 C 0.76868 0.32031 0.13641 0.0
C2695 C 0.75589 0.32279 0.15303 0.0
C2696 C 0.7765 0.30133 0.13164 0.0
C2697 C 0.75127 0.30611 0.16519 0.0
C2698 C 0.75876 0.287 0.16035 0.0
C2699 C 0.7785 0.26522 0.13805 0.0
C2700 C 0.79126 0.26299 0.12127 0.0
C2701 C 0.77125 0.28439 0.14345 0.0
C2702 C 0.79679 0.2801 0.11007 0.0
C2703 C 0.78938 0.29905 0.11511 0.0
H2704 H 0.43298 0.00974 0.92619 0.0
H2705 H 0.39241 0.03534 0.88269 0.0
H2706 H 0.41968 0.05582 0.86864 0.0
H2707 H 0.45552 0.06436 0.86704 0.0
H2708 H 0.49685 0.03714 0.90914 0.0
H2709 H 0.469 0.01945 0.92543 0.0
C2710 C 0.4302 0.02011 0.91388 0.0
C2711 C 0.41089 0.02117 0.90543 0.0
C2712 C 0.44612 0.03132 0.90549 0.0
C2713 C 0.40729 0.03436 0.8893 0.0
C2714 C 0.42284 0.04599 0.88127 0.0
C2715 C 0.45844 0.05469 0.87988 0.0
C2716 C 0.47828 0.05199 0.88674 0.0
C2717 C 0.44242 0.04426 0.88895 0.0
C2718 C 0.48175 0.03938 0.90341 0.0
C2719 C 0.46582 0.02926 0.91278 0.0
H2720 H 0.04849 0.94448 0.37102 0.0
H2721 H 0.01622 0.00072 0.37468 0.0
H2722 H 0.04756 0.01872 0.38104 0.0
H2723 H 0.0834 0.01829 0.38793 0.0
H2724 H 0.11637 0.96245 0.38634 0.0
H2725 H 0.08548 0.94434 0.37707 0.0
C2726 C 0.04848 0.9607 0.37292 0.0
C2727 C 0.03017 0.97133 0.37237 0.0
C2728 C 0.06657 0.97094 0.37719 0.0
C2729 C 0.03017 0.99227 0.37515 0.0
C2730 C 0.04805 0.00256 0.37879 0.0
C2731 C 0.08399 0.00223 0.38516 0.0
C2732 C 0.10219 0.99176 0.38765 0.0
C2733 C 0.06625 0.99202 0.38018 0.0
C2734 C 0.1025 0.97082 0.38459 0.0
C2735 C 0.08487 0.9605 0.37923 0.0
H2736 H 0.19351 0.10758 0.39794 0.0
H2737 H 0.13283 0.08759 0.41022 0.0
H2738 H 0.11939 0.11491 0.39014 0.0
H2739 H 0.12456 0.14199 0.3667 0.0
H2740 H 0.18453 0.16429 0.3547 0.0
H2741 H 0.19848 0.13824 0.3767 0.0
C2742 C 0.17737 0.10944 0.39639 0.0
C2743 C 0.16423 0.09562 0.40578 0.0
C2744 C 0.16957 0.12536 0.38465 0.0
C2745 C 0.14332 0.09818 0.40358 0.0
C2746 C 0.13557 0.11373 0.39191 0.0
C2747 C 0.14065 0.1419 0.36929 0.0
C2748 C 0.15333 0.15538 0.35887 0.0
C2749 C 0.14853 0.12717 0.38214 0.0
C2750 C 0.17426 0.15406 0.36218 0.0
C2751 C 0.18229 0.13917 0.37486 0.0
H2752 H 0.14759 0.87863 0.66106 0.0
H2753 H 0.19529 0.84644 0.63089 0.0
H2754 H 0.17059 0.82743 0.61151 0.0
H2755 H 0.13598 0.82467 0.59871 0.0
H2756 H 0.08849 0.85839 0.62733 0.0
H2757 H 0.1124 0.87185 0.65186 0.0
C2758 C 0.15253 0.8672 0.65049 0.0
C2759 C 0.17324 0.86417 0.64725 0.0
C2760 C 0.13825 0.8567 0.63896 0.0
C2761 C 0.17945 0.84905 0.63377 0.0
C2762 C 0.16532 0.83827 0.62252 0.0
C2763 C 0.13077 0.83436 0.6108 0.0
C2764 C 0.11061 0.8407 0.61116 0.0
C2765 C 0.14474 0.84259 0.62438 0.0
C2766 C 0.10403 0.85344 0.62673 0.0
C2767 C 0.11771 0.86124 0.64065 0.0
H2768 H 0.36046 0.84003 0.87956 0.0
H2769 H 0.41318 0.87058 0.8561 0.0
H2770 H 0.40881 0.89713 0.88045 0.0
H2771 H 0.38758 0.91448 0.90464 0.0
H2772 H 0.33215 0.88734 0.9248 0.0
H2773 H 0.33946 0.85717 0.90468 0.0
C2774 C 0.37097 0.85251 0.87953 0.0
C2775 C 0.38699 0.85311 0.86555 0.0
C2776 C 0.3676 0.8687 0.89268 0.0
C2777 C 0.40084 0.86917 0.86665 0.0
C2778 C 0.3982 0.88472 0.88043 0.0
C2779 C 0.37728 0.90179 0.90491 0.0
C2780 C 0.35944 0.90295 0.91616 0.0
C2781 C 0.38127 0.88498 0.89294 0.0
C2782 C 0.34596 0.88668 0.91613 0.0
C2783 C 0.35018 0.86948 0.9047 0.0
H2784 H 0.40574 0.1439 0.1259 0.0
H2785 H 0.36364 0.185 0.09856 0.0
H2786 H 0.33799 0.17553 0.12323 0.0
H2787 H 0.32615 0.15193 0.14916 0.0
H2788 H 0.36847 0.1113 0.17715 0.0
H2789 H 0.39534 0.12422 0.15565 0.0
C2790 C 0.39107 0.15106 0.12564 0.0
C2791 C 0.38654 0.165 0.11034 0.0
C2792 C 0.37632 0.1454 0.13978 0.0
C2793 C 0.36754 0.17432 0.11025 0.0
C2794 C 0.3528 0.16877 0.12426 0.0
C2795 C 0.34135 0.14631 0.15109 0.0
C2796 C 0.34509 0.13032 0.16456 0.0
C2797 C 0.35681 0.15382 0.13866 0.0
C2798 C 0.36497 0.12323 0.16659 0.0
C2799 C 0.38039 0.13064 0.15431 0.0
H2800 H 0.09069 0.86084 0.14724 0.0
H2801 H 0.13181 0.88618 0.1906 0.0
H2802 H 0.14314 0.91099 0.1659 0.0
H2803 H 0.14093 0.92581 0.13242 0.0
H2804 H 0.10173 0.89923 0.08785 0.0
H2805 H 0.08986 0.87482 0.11265 0.0
C2806 C 0.10209 0.87186 0.15118 0.0
C2807 C 0.11041 0.8718 0.17064 0.0
C2808 C 0.10882 0.88586 0.13676 0.0
C2809 C 0.12531 0.88595 0.17564 0.0
C2810 C 0.13175 0.90013 0.16156 0.0
C2811 C 0.13009 0.91447 0.1279 0.0
C2812 C 0.12228 0.91451 0.1082 0.0
C2813 C 0.12364 0.90021 0.14208 0.0
C2814 C 0.10783 0.89989 0.10295 0.0
C2815 C 0.10109 0.8858 0.11711 0.0
H2816 H 0.35369 0.90204 0.38014 0.0
H2817 H 0.37212 0.86014 0.33395 0.0
H2818 H 0.40006 0.84899 0.35498 0.0
H2819 H 0.41798 0.84945 0.38769 0.0
H2820 H 0.40053 0.8929 0.43266 0.0
H2821 H 0.37379 0.90536 0.41076 0.0
C2822 C 0.36407 0.89087 0.37434 0.0
C2823 C 0.36045 0.88178 0.35553 0.0
C2824 C 0.38029 0.88466 0.38641 0.0
C2825 C 0.37411 0.8671 0.34855 0.0
C2826 C 0.39019 0.86073 0.36055 0.0
C2827 C 0.4084 0.86176 0.39253 0.0
C2828 C 0.41113 0.87021 0.41174 0.0
C2829 C 0.39315 0.86905 0.37973 0.0
C2830 C 0.39876 0.88625 0.41786 0.0
C2831 C 0.38343 0.89333 0.40539 0.0
H2832 H 0.36426 0.13365 0.57882 0.0
H2833 H 0.40816 0.09054 0.59942 0.0
H2834 H 0.41915 0.11368 0.62572 0.0
H2835 H 0.41356 0.14419 0.64505 0.0
H2836 H 0.37156 0.18893 0.62346 0.0
H2837 H 0.36252 0.16707 0.5954 0.0
C2838 C 0.37645 0.12959 0.58889 0.0
C2839 C 0.38541 0.11053 0.58732 0.0
C2840 C 0.38285 0.14307 0.60392 0.0
C2841 C 0.40121 0.10527 0.60034 0.0
C2842 C 0.40741 0.11842 0.61543 0.0
C2843 C 0.4029 0.1496 0.63395 0.0
C2844 C 0.39297 0.16809 0.6368 0.0
C2845 C 0.39802 0.13716 0.61764 0.0
C2846 C 0.37902 0.17451 0.62215 0.0
C2847 C 0.37388 0.16206 0.60598 0.0
H2848 H 0.09949 0.14755 0.89577 0.0
H2849 H 0.14257 0.18302 0.92903 0.0
H2850 H 0.1679 0.17713 0.90305 0.0
H2851 H 0.1789 0.1588 0.87307 0.0
H2852 H 0.13597 0.12357 0.83928 0.0
H2853 H 0.10956 0.13243 0.86332 0.0
C2854 C 0.11438 0.15412 0.89721 0.0
C2855 C 0.11918 0.16558 0.91439 0.0
C2856 C 0.12896 0.15059 0.88223 0.0
C2857 C 0.13843 0.17425 0.91591 0.0
C2858 C 0.15298 0.17078 0.90112 0.0
C2859 C 0.16366 0.15352 0.87053 0.0
C2860 C 0.15956 0.14034 0.85441 0.0
C2861 C 0.14855 0.1586 0.88445 0.0
C2862 C 0.13969 0.13345 0.85171 0.0
C2863 C 0.12455 0.13852 0.86546 0.0
H2864 H 0.15357 0.36489 0.1084 0.0
H2865 H 0.13984 0.32601 0.15861 0.0
H2866 H 0.11275 0.34851 0.16907 0.0
H2867 H 0.09101 0.37719 0.16202 0.0
H2868 H 0.10555 0.41744 0.11298 0.0
H2869 H 0.1341 0.39625 0.10385 0.0
C2870 C 0.14474 0.36153 0.12174 0.0
C2871 C 0.14857 0.34382 0.13267 0.0
C2872 C 0.1292 0.37457 0.12772 0.0
C2873 C 0.13723 0.33965 0.15005 0.0
C2874 C 0.12166 0.35243 0.15596 0.0
C2875 C 0.10067 0.38175 0.14967 0.0
C2876 C 0.0958 0.39881 0.13806 0.0
C2877 C 0.11726 0.36971 0.14468 0.0
C2878 C 0.1085 0.40412 0.1219 0.0
C2879 C 0.12495 0.39207 0.11672 0.0
H2880 H 0.60687 0.10393 0.85183 0.0
H2881 H 0.57473 0.12821 0.90316 0.0
H2882 H 0.60325 0.14933 0.91113 0.0
H2883 H 0.63546 0.16408 0.90166 0.0
H2884 H 0.66601 0.14408 0.84802 0.0
H2885 H 0.6395 0.11881 0.84229 0.0
C2886 C 0.60588 0.11391 0.86469 0.0
C2887 C 0.58826 0.11427 0.87671 0.0
C2888 C 0.62196 0.12716 0.86857 0.0
C2889 C 0.58794 0.12698 0.89371 0.0
C2890 C 0.60422 0.13945 0.89817 0.0
C2891 C 0.6365 0.15392 0.88889 0.0
C2892 C 0.65275 0.15564 0.87542 0.0
C2893 C 0.62102 0.14004 0.88544 0.0
C2894 C 0.65368 0.14286 0.85863 0.0
C2895 C 0.63854 0.12847 0.8554 0.0
H2896 H 0.87875 0.9086 0.3657 0.0
H2897 H 0.92588 0.87614 0.39633 0.0
H2898 H 0.90169 0.85106 0.40789 0.0
H2899 H 0.86785 0.83734 0.40769 0.0
H2900 H 0.81986 0.86954 0.37804 0.0
H2901 H 0.84362 0.89582 0.3678 0.0
C2902 C 0.88357 0.89602 0.37493 0.0
C2903 C 0.90395 0.8941 0.38018 0.0
C2904 C 0.86949 0.8817 0.38174 0.0
C2905 C 0.91017 0.87789 0.39224 0.0
C2906 C 0.89639 0.86357 0.39884 0.0
C2907 C 0.86238 0.85036 0.3995 0.0
C2908 C 0.8421 0.85142 0.39365 0.0
C2909 C 0.87607 0.86526 0.3936 0.0
C2910 C 0.83547 0.86824 0.38259 0.0
C2911 C 0.84904 0.88326 0.37669 0.0
H2912 H 0.8445 0.12734 0.10506 0.0
H2913 H 0.8569 0.16487 0.15696 0.0
H2914 H 0.88018 0.14001 0.16952 0.0
H2915 H 0.90126 0.11092 0.16337 0.0
H2916 H 0.89339 0.07546 0.10955 0.0
H2917 H 0.86488 0.09687 0.09961 0.0
C2918 C 0.8523 0.13025 0.11908 0.0
C2919 C 0.84891 0.1484 0.1297 0.0
C2920 C 0.86697 0.11649 0.12565 0.0
C2921 C 0.85868 0.15117 0.14833 0.0
C2922 C 0.87241 0.13704 0.15547 0.0
C2923 C 0.89299 0.10749 0.1497 0.0
C2924 C 0.89924 0.0915 0.1373 0.0
C2925 C 0.87723 0.12013 0.14388 0.0
C2926 C 0.88879 0.08767 0.11934 0.0
C2927 C 0.87253 0.09989 0.11371 0.0
H2928 H 0.37818 0.66313 0.57778 0.0
H2929 H 0.33668 0.64775 0.62547 0.0
H2930 H 0.35822 0.61976 0.63547 0.0
H2931 H 0.39059 0.60175 0.63276 0.0
H2932 H 0.43111 0.61606 0.58411 0.0
H2933 H 0.40801 0.64214 0.57211 0.0
C2934 C 0.37349 0.65335 0.58999 0.0
C2935 C 0.35599 0.65787 0.60109 0.0
C2936 C 0.38589 0.63718 0.59561 0.0
C2937 C 0.35033 0.645 0.61697 0.0
C2938 C 0.36261 0.62894 0.62269 0.0
C2939 C 0.39416 0.61046 0.6194 0.0
C2940 C 0.41251 0.60724 0.6094 0.0
C2941 C 0.38074 0.62528 0.61252 0.0
C2942 C 0.417 0.61836 0.59198 0.0
C2943 C 0.40385 0.63328 0.58518 0.0
H2944 H 0.16148 0.62017 0.38309 0.0
H2945 H 0.11895 0.64013 0.4283 0.0
H2946 H 0.09615 0.61327 0.41887 0.0
H2947 H 0.08559 0.58828 0.39428 0.0
H2948 H 0.12494 0.57202 0.34527 0.0
H2949 H 0.15139 0.59391 0.35914 0.0
C2950 C 0.14719 0.61883 0.39087 0.0
C2951 C 0.14195 0.63267 0.40616 0.0
C2952 C 0.13336 0.60424 0.38437 0.0
C2953 C 0.1237 0.62984 0.41661 0.0
C2954 C 0.11041 0.61459 0.41101 0.0
C2955 C 0.10017 0.58911 0.38692 0.0
C2956 C 0.10352 0.57844 0.36895 0.0
C2957 C 0.11474 0.60231 0.39442 0.0
C2958 C 0.12218 0.58005 0.3592 0.0
C2959 C 0.1372 0.59256 0.36711 0.0
H2960 H 0.35918 0.35226 0.87592 0.0
H2961 H 0.36188 0.36792 0.93884 0.0
H2962 H 0.38491 0.39586 0.93095 0.0
H2963 H 0.40496 0.41524 0.90581 0.0
H2964 H 0.40301 0.39636 0.84342 0.0
H2965 H 0.37848 0.37098 0.85149 0.0
C2966 C 0.36444 0.36201 0.88793 0.0
C2967 C 0.35857 0.35821 0.90788 0.0
C2968 C 0.37774 0.37769 0.88334 0.0
C2969 C 0.36614 0.37059 0.92331 0.0
C2970 C 0.37927 0.38656 0.91879 0.0
C2971 C 0.39915 0.40564 0.89396 0.0
C2972 C 0.40567 0.4084 0.87388 0.0
C2973 C 0.38533 0.39018 0.8988 0.0
C2974 C 0.39788 0.39553 0.85886 0.0
C2975 C 0.38396 0.38062 0.86348 0.0
H2976 H 0.6393 0.61998 0.90497 0.0
H2977 H 0.588 0.58172 0.89287 0.0
H2978 H 0.5746 0.60671 0.86991 0.0
H2979 H 0.58037 0.63585 0.84881 0.0
H2980 H 0.63239 0.6737 0.85843 0.0
H2981 H 0.64307 0.6518 0.88614 0.0
C2982 C 0.62507 0.61717 0.89748 0.0
C2983 C 0.61493 0.5987 0.90052 0.0
C2984 C 0.61789 0.6312 0.88334 0.0
C2985 C 0.59619 0.59571 0.89111 0.0
C2986 C 0.58861 0.60991 0.87764 0.0
C2987 C 0.59371 0.63988 0.85731 0.0
C2988 C 0.60552 0.65654 0.85145 0.0
C2989 C 0.59978 0.62721 0.87301 0.0
C2990 C 0.6231 0.66089 0.8624 0.0
C2991 C 0.62916 0.64842 0.87832 0.0
H2992 H 0.65567 0.36697 0.13844 0.0
H2993 H 0.64305 0.42832 0.15563 0.0
H2994 H 0.61475 0.42923 0.13197 0.0
H2995 H 0.59384 0.41243 0.1056 0.0
H2996 H 0.60768 0.35092 0.08958 0.0
H2997 H 0.63474 0.35019 0.11389 0.0
C2998 C 0.64651 0.38045 0.13744 0.0
C2999 C 0.65149 0.39747 0.14897 0.0
C3000 C 0.6303 0.38084 0.12397 0.0
C3001 C 0.63971 0.41498 0.14686 0.0
C3002 C 0.62345 0.4155 0.13336 0.0
C3003 C 0.60271 0.39888 0.10759 0.0
C3004 C 0.59829 0.38163 0.09604 0.0
C3005 C 0.61866 0.39852 0.12168 0.0
C3006 C 0.61017 0.36424 0.09865 0.0
C3007 C 0.62587 0.36382 0.11245 0.0
H3008 H 0.89679 0.33963 0.34506 0.0
H3009 H 0.83663 0.31706 0.33528 0.0
H3010 H 0.82341 0.34183 0.35924 0.0
H3011 H 0.82895 0.37148 0.38139 0.0
H3012 H 0.88962 0.39359 0.38962 0.0
H3013 H 0.90257 0.36692 0.3684 0.0
C3014 C 0.88084 0.33956 0.34855 0.0
C3015 C 0.8678 0.3263 0.33841 0.0
C3016 C 0.87337 0.35387 0.36212 0.0
C3017 C 0.84706 0.32711 0.34277 0.0
C3018 C 0.83948 0.34129 0.35648 0.0
C3019 C 0.845 0.37037 0.37862 0.0
C3020 C 0.85824 0.38452 0.38734 0.0
C3021 C 0.85248 0.35505 0.36595 0.0
C3022 C 0.87903 0.38274 0.3836 0.0
C3023 C 0.88651 0.36757 0.37125 0.0
H3024 H 0.85004 0.64297 0.66696 0.0
H3025 H 0.79677 0.66584 0.63751 0.0
H3026 H 0.81684 0.67598 0.60862 0.0
H3027 H 0.84839 0.67314 0.58924 0.0
H3028 H 0.90072 0.64692 0.61722 0.0
H3029 H 0.88216 0.64292 0.64881 0.0
C3030 C 0.84279 0.65033 0.65432 0.0
C3031 C 0.82176 0.65325 0.65447 0.0
C3032 C 0.85426 0.65515 0.63718 0.0
C3033 C 0.81287 0.66341 0.6381 0.0
C3034 C 0.82433 0.66899 0.62132 0.0
C3035 C 0.85581 0.66697 0.60241 0.0
C3036 C 0.87582 0.66018 0.6009 0.0
C3037 C 0.84486 0.66416 0.62034 0.0
C3038 C 0.88525 0.65204 0.618 0.0
C3039 C 0.87466 0.64978 0.63604 0.0
H3040 H 0.59003 0.40035 0.58581 0.0
H3041 H 0.65446 0.40023 0.59522 0.0
H3042 H 0.65085 0.37582 0.62193 0.0
H3043 H 0.6297 0.35718 0.64499 0.0
H3044 H 0.56522 0.35643 0.63683 0.0
H3045 H 0.56861 0.37893 0.60782 0.0
C3046 C 0.60328 0.39481 0.59356 0.0
C3047 C 0.6225 0.4021 0.58812 0.0
C3048 C 0.60113 0.38089 0.60949 0.0
C3049 C 0.63948 0.39464 0.59845 0.0
C3050 C 0.63746 0.38081 0.61404 0.0
C3051 C 0.61634 0.36138 0.63663 0.0
C3052 C 0.59724 0.355 0.64324 0.0
C3053 C 0.61838 0.37414 0.61994 0.0
C3054 C 0.58014 0.36127 0.63236 0.0
C3055 C 0.58207 0.37408 0.61566 0.0
H3056 H 0.9167 0.3635 0.86921 0.0
H3057 H 0.89025 0.40941 0.90722 0.0
H3058 H 0.86474 0.41568 0.88202 0.0
H3059 H 0.84726 0.4056 0.85145 0.0
H3060 H 0.87055 0.35728 0.81489 0.0
H3061 H 0.89927 0.35366 0.83797 0.0
C3062 C 0.90534 0.37482 0.87217 0.0
C3063 C 0.90561 0.38576 0.89048 0.0
C3064 C 0.88974 0.37755 0.8581 0.0
C3065 C 0.891 0.40087 0.89337 0.0
C3066 C 0.87604 0.40428 0.87904 0.0
C3067 C 0.8588 0.39446 0.84831 0.0
C3068 C 0.85693 0.38185 0.83136 0.0
C3069 C 0.87492 0.39231 0.86171 0.0
C3070 C 0.87168 0.36714 0.82783 0.0
C3071 C 0.88811 0.36517 0.84096 0.0
H3072 H 0.87646 0.60245 0.08642 0.0
H3073 H 0.90664 0.54974 0.10945 0.0
H3074 H 0.92087 0.56951 0.13684 0.0
H3075 H 0.92073 0.60057 0.15699 0.0
H3076 H 0.89026 0.65325 0.13423 0.0
H3077 H 0.88002 0.63467 0.10426 0.0
C3078 C 0.88639 0.59536 0.09726 0.0
C3079 C 0.8902 0.57455 0.09596 0.0
C3080 C 0.8942 0.60675 0.11331 0.0
C3081 C 0.90344 0.56571 0.10995 0.0
C3082 C 0.91145 0.57699 0.1258 0.0
C3083 C 0.91228 0.60816 0.14526 0.0
C3084 C 0.90596 0.62819 0.14811 0.0
C3085 C 0.90636 0.59735 0.12803 0.0
C3086 C 0.89491 0.6377 0.13272 0.0
C3087 C 0.88912 0.62711 0.1155 0.0
H3088 H 0.60797 0.57912 0.41084 0.0
H3089 H 0.57267 0.61426 0.36918 0.0
H3090 H 0.5948 0.60421 0.34157 0.0
H3091 H 0.62789 0.59115 0.33103 0.0
H3092 H 0.66326 0.55638 0.37286 0.0
H3093 H 0.63715 0.56011 0.39852 0.0
C3094 C 0.60458 0.58391 0.3956 0.0
C3095 C 0.58896 0.5978 0.39215 0.0
C3096 C 0.61763 0.57841 0.37988 0.0
C3097 C 0.58486 0.60389 0.37228 0.0
C3098 C 0.59757 0.59823 0.3565 0.0
C3099 C 0.62956 0.58395 0.3456 0.0
C3100 C 0.64753 0.57377 0.35019 0.0
C3101 C 0.61463 0.58643 0.36037 0.0
C3102 C 0.64952 0.56428 0.369 0.0
C3103 C 0.63467 0.56656 0.38373 0.0
H3104 H 0.6453 0.85464 0.61994 0.0
H3105 H 0.6001 0.82277 0.58569 0.0
H3106 H 0.57564 0.84898 0.59315 0.0
H3107 H 0.5659 0.87887 0.61241 0.0
H3108 H 0.61003 0.90948 0.64885 0.0
H3109 H 0.63602 0.88584 0.63763 0.0
C3110 C 0.6301 0.85339 0.61411 0.0
C3111 C 0.62462 0.83661 0.60234 0.0
C3112 C 0.61585 0.86829 0.61892 0.0
C3113 C 0.60492 0.83556 0.59458 0.0
C3114 C 0.59081 0.85049 0.59897 0.0
C3115 C 0.58134 0.88069 0.61745 0.0
C3116 C 0.58611 0.89592 0.63133 0.0
C3117 C 0.59598 0.86668 0.61146 0.0
C3118 C 0.60605 0.89785 0.63812 0.0
C3119 C 0.62086 0.88429 0.63179 0.0
H3120 H 0.98601 0.27578 0.29395 0.0
H3121 H 0.96553 0.22579 0.25813 0.0
H3122 H 0.99839 0.20946 0.26147 0.0
H3123 H 0.0328 0.20928 0.27487 0.0
H3124 H 0.05239 0.25831 0.31294 0.0
H3125 H 0.02028 0.27504 0.30829 0.0
C3126 C 0.9889 0.26141 0.28675 0.0
C3127 C 0.97347 0.25203 0.27574 0.0
C3128 C 0.00769 0.25187 0.28918 0.0
C3129 C 0.97721 0.23324 0.26674 0.0
C3130 C 0.99598 0.22391 0.26865 0.0
C3131 C 0.03013 0.2235 0.28236 0.0
C3132 C 0.04542 0.23242 0.2941 0.0
C3133 C 0.01131 0.23301 0.27998 0.0
C3134 C 0.04133 0.25105 0.30347 0.0
C3135 C 0.02281 0.2607 0.30092 0.0
H3136 H 0.98632 0.787 0.53536 0.0
H3137 H 0.04426 0.75815 0.53151 0.0
H3138 H 0.02791 0.72532 0.52747 0.0
H3139 H 0.99706 0.70465 0.52722 0.0
H3140 H 0.93903 0.73342 0.52952 0.0
H3141 H 0.95533 0.76654 0.53176 0.0
C3142 C 0.99529 0.77349 0.53355 0.0
C3143 C 0.01644 0.77488 0.53395 0.0
C3144 C 0.98574 0.75474 0.53097 0.0
C3145 C 0.02797 0.75739 0.53121 0.0
C3146 C 0.01862 0.73865 0.52899 0.0
C3147 C 0.98805 0.71823 0.52805 0.0
C3148 C 0.96692 0.71668 0.52841 0.0
C3149 C 0.99754 0.73711 0.52916 0.0
C3150 C 0.95531 0.73432 0.52915 0.0
C3151 C 0.96463 0.7532 0.53057 0.0
H3152 H 0.51919 0.75276 0.76876 0.0
H3153 H 0.49953 0.69291 0.78439 0.0
H3154 H 0.46495 0.7051 0.78848 0.0
H3155 H 0.44085 0.73336 0.78963 0.0
H3156 H 0.46111 0.79322 0.77453 0.0
H3157 H 0.49494 0.78048 0.76815 0.0
C3158 C 0.50732 0.7424 0.77307 0.0
C3159 C 0.51191 0.72204 0.77651 0.0
C3160 C 0.48763 0.74955 0.77554 0.0
C3161 C 0.49633 0.70864 0.7816 0.0
C3162 C 0.47661 0.71565 0.78407 0.0
C3163 C 0.45269 0.74358 0.78497 0.0
C3164 C 0.44849 0.76423 0.78269 0.0
C3165 C 0.47217 0.73615 0.78143 0.0
C3166 C 0.46388 0.77726 0.77624 0.0
C3167 C 0.48327 0.77 0.7727 0.0
H3168 H 0.49263 0.30348 0.0125 0.0
H3169 H 0.54979 0.28358 0.03608 0.0
H3170 H 0.53608 0.24986 0.04128 0.0
H3171 H 0.50741 0.22643 0.04043 0.0
H3172 H 0.4499 0.24704 0.0183 0.0
H3173 H 0.46421 0.28007 0.01126 0.0
C3174 C 0.50208 0.29184 0.01891 0.0
C3175 C 0.52218 0.29618 0.02403 0.0
C3176 C 0.49402 0.27258 0.02215 0.0
C3177 C 0.53433 0.2807 0.03184 0.0
C3178 C 0.52645 0.26142 0.03496 0.0
C3179 C 0.49796 0.23817 0.0342 0.0
C3180 C 0.47756 0.23419 0.02999 0.0
C3181 C 0.50624 0.25727 0.0304 0.0
C3182 C 0.46567 0.24952 0.0215 0.0
C3183 C 0.47382 0.2685 0.01758 0.0
H3184 H 0.98676 0.7068 0.22248 0.0
H3185 H 0.94668 0.7576 0.22164 0.0
H3186 H 0.97544 0.7808 0.22347 0.0
H3187 H 0.01232 0.78653 0.22315 0.0
H3188 H 0.05226 0.73557 0.22044 0.0
H3189 H 0.02354 0.7125 0.22214 0.0
C3190 C 0.98446 0.72295 0.22306 0.0
C3191 C 0.96477 0.7306 0.22223 0.0
C3192 C 0.00109 0.73612 0.22323 0.0
C3193 C 0.96178 0.75152 0.22244 0.0
C3194 C 0.9782 0.76472 0.2234 0.0
C3195 C 0.01463 0.77037 0.2231 0.0
C3196 C 0.03431 0.76271 0.22164 0.0
C3197 C 0.99796 0.75721 0.22347 0.0
C3198 C 0.03721 0.74176 0.22137 0.0
C3199 C 0.0208 0.72858 0.22241 0.0
H3200 H 0.55437 0.72892 0.45857 0.0
H3201 H 0.49644 0.69983 0.4626 0.0
H3202 H 0.48005 0.73236 0.46715 0.0
H3203 H 0.48196 0.76926 0.46883 0.0
H3204 H 0.53976 0.79854 0.46451 0.0
H3205 H 0.55638 0.76591 0.46129 0.0
C3206 C 0.5382 0.72973 0.46065 0.0
C3207 C 0.52666 0.71197 0.46008 0.0
C3208 C 0.52881 0.74856 0.46311 0.0
C3209 C 0.50566 0.71328 0.46261 0.0
C3210 C 0.49627 0.73188 0.46533 0.0
C3211 C 0.4982 0.76847 0.46742 0.0
C3212 C 0.50956 0.78634 0.46682 0.0
C3213 C 0.50766 0.74964 0.46542 0.0
C3214 C 0.53061 0.78506 0.46472 0.0
C3215 C 0.54015 0.76638 0.46297 0.0
H3216 H 0.52011 0.29522 0.72183 0.0
H3217 H 0.54583 0.23591 0.72684 0.0
H3218 H 0.51221 0.22091 0.72692 0.0
H3219 H 0.47554 0.22446 0.72275 0.0
H3220 H 0.44984 0.2837 0.71645 0.0
H3221 H 0.48318 0.2989 0.71973 0.0
C3222 C 0.51827 0.27907 0.72331 0.0
C3223 C 0.5354 0.26668 0.72422 0.0
C3224 C 0.49886 0.2705 0.72288 0.0
C3225 C 0.53285 0.24572 0.72589 0.0
C3226 C 0.51364 0.23714 0.72594 0.0
C3227 C 0.47723 0.2407 0.72242 0.0
C3228 C 0.46024 0.25289 0.71918 0.0
C3229 C 0.49653 0.24934 0.72401 0.0
C3230 C 0.46271 0.27394 0.71859 0.0
C3231 C 0.48177 0.28266 0.72055 0.0
H3232 H 0.03863 0.24224 0.97829 0.0
H3233 H 0.98477 0.20743 0.96815 0.0
H3234 H 0.96497 0.23828 0.96555 0.0
H3235 H 0.9632 0.27525 0.96477 0.0
H3236 H 0.01715 0.31005 0.97455 0.0
H3237 H 0.03665 0.27919 0.97876 0.0
C3238 C 0.02253 0.24142 0.97577 0.0
C3239 C 0.01322 0.22257 0.97331 0.0
C3240 C 0.01126 0.25924 0.97411 0.0
C3241 C 0.99236 0.22176 0.96979 0.0
C3242 C 0.981 0.23939 0.96839 0.0
C3243 C 0.97916 0.27606 0.96807 0.0
C3244 C 0.98872 0.29491 0.96923 0.0
C3245 C 0.99033 0.25823 0.97031 0.0
C3246 C 0.00949 0.29572 0.97327 0.0
C3247 C 0.02064 0.27808 0.97578 0.0
H3248 H 0.27683 0.02569 0.25952 0.0
H3249 H 0.28288 0.00183 0.19943 0.0
H3250 H 0.2827 0.96753 0.21286 0.0
H3251 H 0.28225 0.94445 0.24185 0.0
H3252 H 0.27681 0.96849 0.30196 0.0
H3253 H 0.27521 0.00261 0.28836 0.0
C3254 C 0.27822 0.01299 0.24937 0.0
C3255 C 0.28008 0.01634 0.2285 0.0
C3256 C 0.2782 0.99336 0.25721 0.0
C3257 C 0.28135 0.99969 0.21551 0.0
C3258 C 0.28136 0.98008 0.22321 0.0
C3259 C 0.2808 0.95715 0.25198 0.0
C3260 C 0.27981 0.95388 0.27293 0.0
C3261 C 0.28003 0.97675 0.24405 0.0
C3262 C 0.27746 0.97052 0.2858 0.0
C3263 C 0.27668 0.99006 0.27803 0.0
H3264 H 0.24555 0.0233 0.45701 0.0
H3265 H 0.22381 0.99748 0.51254 0.0
H3266 H 0.25679 0.00191 0.52789 0.0
H3267 H 0.29111 0.01524 0.52641 0.0
H3268 H 0.31353 0.03967 0.47042 0.0
H3269 H 0.28112 0.03365 0.45456 0.0
C3270 C 0.24812 0.01833 0.47233 0.0
C3271 C 0.23204 0.01042 0.48366 0.0
C3272 C 0.26724 0.02088 0.48115 0.0
C3273 C 0.23571 0.00409 0.50358 0.0
C3274 C 0.25463 0.00654 0.51238 0.0
C3275 C 0.28912 0.019 0.51067 0.0
C3276 C 0.30486 0.02827 0.49988 0.0
C3277 C 0.27041 0.01529 0.50146 0.0
C3278 C 0.30169 0.03303 0.47942 0.0
C3279 C 0.28312 0.02945 0.4702 0.0
H3280 H 0.21989 0.96994 0.74868 0.0
H3281 H 0.23142 0.00173 0.69325 0.0
H3282 H 0.233 0.03361 0.71161 0.0
H3283 H 0.22992 0.0526 0.74328 0.0
H3284 H 0.21899 0.02094 0.79889 0.0
H3285 H 0.21847 0.98884 0.7807 0.0
C3286 C 0.2227 0.98386 0.74064 0.0
C3287 C 0.22538 0.98346 0.71957 0.0
C3288 C 0.22369 0.00214 0.75135 0.0
C3289 C 0.22942 0.00159 0.70943 0.0
C3290 C 0.23021 0.01984 0.71992 0.0
C3291 C 0.22737 0.03868 0.7514 0.0
C3292 C 0.22429 0.03919 0.7724 0.0
C3293 C 0.22718 0.02032 0.74085 0.0
C3294 C 0.22147 0.02096 0.78277 0.0
C3295 C 0.22106 0.00262 0.77234 0.0
H3296 H 0.28105 0.94539 0.99887 0.0
H3297 H 0.27946 0.00907 0.98668 0.0
H3298 H 0.24412 0.01041 0.99743 0.0
H3299 H 0.21377 0.99329 0.01079 0.0
H3300 H 0.21548 0.92933 0.02164 0.0
H3301 H 0.25069 0.92819 0.01099 0.0
C3302 C 0.27298 0.95957 0.9987 0.0
C3303 C 0.28286 0.97715 0.99221 0.0
C3304 C 0.25271 0.96013 0.00465 0.0
C3305 C 0.27212 0.99535 0.99158 0.0
C3306 C 0.25197 0.99612 0.9978 0.0
C3307 C 0.22194 0.97917 0.01088 0.0
C3308 C 0.21209 0.96142 0.01705 0.0
C3309 C 0.24214 0.9786 0.00446 0.0
C3310 C 0.2227 0.94313 0.0168 0.0
C3311 C 0.24284 0.9425 0.0108 0.0
H3312 H 0.24144 0.28092 0.96955 0.0
H3313 H 0.30284 0.29528 0.98506 0.0
H3314 H 0.29339 0.29818 0.02054 0.0
H3315 H 0.26749 0.29644 0.0472 0.0
H3316 H 0.20622 0.28211 0.03116 0.0
H3317 H 0.21572 0.27964 0.99578 0.0
C3318 C 0.25272 0.2849 0.98065 0.0
C3319 C 0.27277 0.28793 0.97466 0.0
C3320 C 0.24718 0.28658 0.00092 0.0
C3321 C 0.28732 0.29265 0.9893 0.0
C3322 C 0.2819 0.29444 0.00957 0.0
C3323 C 0.25624 0.293 0.03589 0.0
C3324 C 0.23622 0.28941 0.04175 0.0
C3325 C 0.26186 0.29145 0.01555 0.0
C3326 C 0.22178 0.28469 0.02702 0.0
C3327 C 0.22718 0.28333 0.0068 0.0
H3328 H 0.74803 0.21745 0.03607 0.0
H3329 H 0.80664 0.22851 0.01014 0.0
H3330 H 0.79132 0.2334 0.97715 0.0
H3331 H 0.76148 0.23343 0.95551 0.0
H3332 H 0.70314 0.22029 0.98114 0.0
H3333 H 0.71821 0.21742 0.01443 0.0
C3334 C 0.75752 0.22074 0.02321 0.0
C3335 C 0.77851 0.22248 0.02567 0.0
C3336 C 0.74865 0.2232 0.0042 0.0
C3337 C 0.79045 0.22726 0.00882 0.0
C3338 C 0.78171 0.22993 0.98989 0.0
C3339 C 0.75203 0.22976 0.96829 0.0
C3340 C 0.73117 0.22698 0.96565 0.0
C3341 C 0.76085 0.22775 0.98738 0.0
C3342 C 0.71917 0.22272 0.98261 0.0
C3343 C 0.72781 0.22093 0.00169 0.0
H3344 H 0.03194 0.50752 0.21437 0.0
H3345 H 0.00665 0.44973 0.23023 0.0
H3346 H 0.00189 0.46109 0.26478 0.0
H3347 H 0.00553 0.48707 0.29071 0.0
H3348 H 0.03252 0.54422 0.27533 0.0
H3349 H 0.03586 0.53344 0.24043 0.0
C3350 C 0.02555 0.4973 0.22537 0.0
C3351 C 0.0197 0.47774 0.21953 0.0
C3352 C 0.0231 0.50383 0.24537 0.0
C3353 C 0.01108 0.46493 0.23407 0.0
C3354 C 0.00846 0.47138 0.25393 0.0
C3355 C 0.01232 0.49716 0.27984 0.0
C3356 C 0.01881 0.51646 0.28587 0.0
C3357 C 0.01452 0.49075 0.25978 0.0
C3358 C 0.02716 0.52939 0.27128 0.0
C3359 C 0.02922 0.52317 0.25126 0.0
H3360 H 0.74528 0.78842 0.52943 0.0
H3361 H 0.68752 0.76467 0.51173 0.0
H3362 H 0.69913 0.76185 0.47687 0.0
H3363 H 0.72561 0.76668 0.45133 0.0
H3364 H 0.78354 0.78989 0.46918 0.0
H3365 H 0.77203 0.79237 0.50409 0.0
C3366 C 0.73521 0.78276 0.5179 0.0
C3367 C 0.71552 0.7769 0.52311 0.0
C3368 C 0.74205 0.78107 0.49795 0.0
C3369 C 0.70277 0.76917 0.50811 0.0
C3370 C 0.70937 0.76765 0.48817 0.0
C3371 C 0.73565 0.77238 0.46286 0.0
C3372 C 0.75536 0.7782 0.45767 0.0
C3373 C 0.72895 0.77364 0.4829 0.0
C3374 C 0.76836 0.78519 0.47282 0.0
C3375 C 0.76175 0.7867 0.49276 0.0
H3376 H 0.98299 0.99941 0.22723 0.0
H3377 H 0.9654 0.05822 0.24835 0.0
H3378 H 0.96292 0.04529 0.28279 0.0
H3379 H 0.96471 0.01678 0.30669 0.0
H3380 H 0.98142 0.95797 0.28465 0.0
H3381 H 0.98516 0.97137 0.25078 0.0
C3382 C 0.97846 0.00939 0.23932 0.0
C3383 C 0.97419 0.0297 0.23517 0.0
C3384 C 0.97688 0.00183 0.25894 0.0
C3385 C 0.96887 0.04255 0.25113 0.0
C3386 C 0.96732 0.03513 0.27081 0.0
C3387 C 0.96907 0.00692 0.29444 0.0
C3388 C 0.97282 0.98641 0.29827 0.0
C3389 C 0.97109 0.01472 0.27485 0.0
C3390 C 0.97873 0.97386 0.28226 0.0
C3391 C 0.98076 0.98148 0.26282 0.0
H3392 H 0.24329 0.73568 0.54069 0.0
H3393 H 0.30303 0.72258 0.51897 0.0
H3394 H 0.28957 0.7155 0.48542 0.0
H3395 H 0.26048 0.71171 0.46265 0.0
H3396 H 0.20083 0.72497 0.48461 0.0
H3397 H 0.21451 0.73332 0.51768 0.0
C3398 C 0.25332 0.73125 0.52859 0.0
C3399 C 0.27407 0.72953 0.5323 0.0
C3400 C 0.24547 0.72719 0.50943 0.0
C3401 C 0.28701 0.72416 0.51643 0.0
C3402 C 0.2793 0.71998 0.4973 0.0
C3403 C 0.25053 0.71637 0.47472 0.0
C3404 C 0.22969 0.71763 0.47124 0.0
C3405 C 0.25852 0.72121 0.49369 0.0
C3406 C 0.21694 0.72405 0.48688 0.0
C3407 C 0.22474 0.72872 0.50581 0.0
H3408 H 0.44158 0.49713 0.77461 0.0
H3409 H 0.49954 0.46973 0.76501 0.0
H3410 H 0.50086 0.48381 0.73086 0.0
H3411 H 0.4855 0.50454 0.70391 0.0
H3412 H 0.42662 0.53004 0.7131 0.0
H3413 H 0.4256 0.51631 0.74733 0.0
C3414 C 0.45447 0.49429 0.76499 0.0
C3415 C 0.47049 0.48257 0.77224 0.0
C3416 C 0.45495 0.5022 0.74541 0.0
C3417 C 0.487 0.47863 0.75962 0.0
C3418 C 0.48779 0.48678 0.74019 0.0
C3419 C 0.47256 0.50711 0.71355 0.0
C3420 C 0.45622 0.51838 0.70624 0.0
C3421 C 0.4719 0.4987 0.73298 0.0
C3422 C 0.43931 0.52138 0.71855 0.0
C3423 C 0.43875 0.51356 0.73805 0.0
H3424 H 0.76701 0.52239 0.7104 0.0
H3425 H 0.77191 0.55058 0.76874 0.0
H3426 H 0.77376 0.51749 0.78474 0.0
H3427 H 0.77562 0.48039 0.7819 0.0
H3428 H 0.77001 0.45285 0.72333 0.0
H3429 H 0.7665 0.48583 0.70777 0.0
C3430 C 0.76808 0.52142 0.72664 0.0
C3431 C 0.76938 0.53907 0.73827 0.0
C3432 C 0.76912 0.50238 0.73574 0.0
C3433 C 0.77117 0.5373 0.75933 0.0
C3434 C 0.77214 0.51836 0.76852 0.0
C3435 C 0.77336 0.48163 0.76579 0.0
C3436 C 0.77338 0.46416 0.75379 0.0
C3437 C 0.77138 0.50077 0.75685 0.0
C3438 C 0.77052 0.46604 0.73288 0.0
C3439 C 0.7684 0.48491 0.72396 0.0
H3440 H 0.79203 0.5159 0.9818 0.0
H3441 H 0.76176 0.5091 0.03882 0.0
H3442 H 0.72916 0.50847 0.0218 0.0
H3443 H 0.70923 0.51385 0.9911 0.0
H3444 H 0.73901 0.52006 0.93389 0.0
H3445 H 0.77196 0.51666 0.95037 0.0
C3446 C 0.77826 0.51403 0.99038 0.0
C3447 C 0.77919 0.51277 0.0115 0.0
C3448 C 0.75959 0.51366 0.98046 0.0
C3449 C 0.76137 0.51002 0.02255 0.0
C3450 C 0.74274 0.50979 0.01284 0.0
C3451 C 0.72299 0.51406 0.9823 0.0
C3452 C 0.72192 0.51738 0.96146 0.0
C3453 C 0.74167 0.51216 0.99189 0.0
C3454 C 0.73965 0.51745 0.94997 0.0
C3455 C 0.75841 0.51568 0.95942 0.0
H3456 H 0.74861 0.52194 0.26143 0.0
H3457 H 0.68491 0.53097 0.25318 0.0
H3458 H 0.68104 0.49615 0.24198 0.0
H3459 H 0.69567 0.46294 0.23519 0.0
H3460 H 0.75954 0.45395 0.24118 0.0
H3461 H 0.76367 0.48893 0.25259 0.0
C3462 C 0.73396 0.51618 0.25709 0.0
C3463 C 0.71707 0.52887 0.25808 0.0
C3464 C 0.73193 0.49622 0.25037 0.0
C3465 C 0.69813 0.52147 0.2523 0.0
C3466 C 0.69589 0.50156 0.24603 0.0
C3467 C 0.71044 0.46871 0.23909 0.0
C3468 C 0.72726 0.45603 0.23769 0.0
C3469 C 0.71266 0.48879 0.24512 0.0
C3470 C 0.74644 0.4636 0.24227 0.0
C3471 C 0.74876 0.4835 0.24879 0.0
H3472 H 0.78598 0.45528 0.50221 0.0
H3473 H 0.76729 0.4768 0.4438 0.0
H3474 H 0.73365 0.48349 0.45687 0.0
H3475 H 0.70925 0.4824 0.48463 0.0
H3476 H 0.72761 0.45922 0.54253 0.0
H3477 H 0.76162 0.45405 0.52987 0.0
C3478 C 0.77456 0.46127 0.49225 0.0
C3479 C 0.77928 0.46544 0.472 0.0
C3480 C 0.75512 0.46481 0.49978 0.0
C3481 C 0.76427 0.47363 0.45949 0.0
C3482 C 0.74493 0.47734 0.46692 0.0
C3483 C 0.72061 0.47606 0.49446 0.0
C3484 C 0.71573 0.47122 0.51453 0.0
C3485 C 0.74015 0.47284 0.487 0.0
C3486 C 0.73086 0.46337 0.52711 0.0
C3487 C 0.75035 0.46026 0.51984 0.0
H3488 H 0.52235 0.00968 0.71682 0.0
H3489 H 0.50342 0.95625 0.74837 0.0
H3490 H 0.49862 0.97586 0.77925 0.0
H3491 H 0.50287 0.00769 0.79796 0.0
H3492 H 0.52034 0.0615 0.76633 0.0
H3493 H 0.52245 0.04248 0.73467 0.0
C3494 C 0.51697 0.00245 0.73044 0.0
C3495 C 0.51343 0.98153 0.73045 0.0
C3496 C 0.51406 0.0139 0.74806 0.0
C3497 C 0.50617 0.97232 0.74804 0.0
C3498 C 0.50355 0.98351 0.76569 0.0
C3499 C 0.50683 0.01523 0.78402 0.0
C3500 C 0.51161 0.03588 0.78439 0.0
C3501 C 0.50787 0.00421 0.76598 0.0
C3502 C 0.51652 0.04565 0.7663 0.0
C3503 C 0.51787 0.03473 0.74829 0.0
loop_
_geom_bond_atom_site_label_1
_geom_bond_atom_site_label_2
_geom_bond_distance
_geom_bond_site_symmetry_2
_ccdc_geom_bond_type
C0 C1 1.351 . S
C0 N3 1.368 . S
C0 H5 0.931 . S
C1 C0 1.351 . S
C1 N2 1.373 . S
C1 H29 0.930 . S
N2 C1 1.373 . S
N2 C4 1.340 . S
N3 C0 1.368 . S
N3 C4 1.321 . S
N3 Co6 2.135 . S
C4 N2 1.340 . S
C4 N3 1.321 . S
C4 H28 0.930 . S
H5 C0 0.931 . S
Co6 N3 2.135 . S
Co6 N9 2.121 . S
Co6 O14 2.055 . S
Co6 O17 2.039 . S
Co6 N20 2.140 . S
C7 O8 1.227 . S
C7 O17 1.265 . S
O8 C7 1.227 . S
N9 Co6 2.121 . S
N9 C11 1.375 . S
N9 C12 1.313 . S
C10 C11 1.338 . S
C10 N13 1.377 . S
C10 H30 0.930 . S
C11 N9 1.375 . S
C11 C10 1.338 . S
C11 H15 0.931 . S
C12 N9 1.313 . S
C12 N13 1.344 . S
C12 H16 0.930 . S
N13 C10 1.377 . S
N13 C12 1.344 . S
O14 Co6 2.055 . S
O14 C18 1.253 . S
H15 C11 0.931 . S
H16 C12 0.930 . S
O17 Co6 2.039 . S
O17 C7 1.265 . S
C18 O14 1.253 . S
C18 O19 1.227 . S
O19 C18 1.227 . S
N20 Co6 2.140 . S
N20 C23 1.346 . S
N20 C24 1.345 . S
C21 C22 1.387 . S
C21 C25 1.391 . S
C22 C21 1.387 . S
C22 C23 1.369 . S
C22 H31 0.929 . S
C23 N20 1.346 . S
C23 C22 1.369 . S
C23 H26 0.928 . S
C24 N20 1.345 . S
C24 C25 1.371 . S
C24 H27 0.931 . S
C25 C21 1.391 . S
C25 C24 1.371 . S
C25 H32 0.930 . S
H26 C23 0.928 . S
H27 C24 0.931 . S
H28 C4 0.930 . S
H29 C1 0.930 . S
H30 C10 0.930 . S
H31 C22 0.929 . S
H32 C25 0.930 . S
C33 C34 1.351 . S
C33 N36 1.368 . S
C33 H38 0.931 . S
C34 C33 1.351 . S
C34 N35 1.373 . S
C34 H62 0.921 1_455 S
N35 C34 1.373 . S
N35 C37 1.340 . S
N36 C33 1.368 . S
N36 C37 1.321 . S
N36 Co39 2.135 . S
C37 N35 1.340 . S
C37 N36 1.321 . S
C37 H61 0.930 . S
H38 C33 0.931 . S
Co39 N36 2.135 . S
Co39 N42 2.121 . S
Co39 O47 2.055 . S
Co39 O50 2.039 . S
Co39 N53 2.140 . S
C40 O41 1.227 . S
C40 O50 1.265 . S
O41 C40 1.227 . S
N42 Co39 2.121 . S
N42 C44 1.375 . S
N42 C45 1.313 . S
C43 C44 1.338 . S
C43 N46 1.377 . S
C43 H63 0.930 . S
C44 N42 1.375 . S
C44 C43 1.338 . S
C44 H48 0.931 . S
C45 N42 1.313 . S
C45 N46 1.344 . S
C45 H49 0.930 . S
N46 C43 1.377 . S
N46 C45 1.344 . S
O47 Co39 2.055 . S
O47 C51 1.253 . S
H48 C44 0.931 . S
H49 C45 0.930 . S
O50 Co39 2.039 . S
O50 C40 1.265 . S
C51 O47 1.253 . S
C51 O52 1.227 . S
O52 C51 1.227 . S
N53 Co39 2.140 . S
N53 C56 1.346 . S
N53 C57 1.345 . S
C54 C55 1.387 . S
C54 C58 1.391 . S
C55 C54 1.387 . S
C55 C56 1.369 . S
C55 H64 0.929 . S
C56 N53 1.346 . S
C56 C55 1.369 . S
C56 H59 0.928 . S
C57 N53 1.345 . S
C57 C58 1.371 . S
C57 H60 0.931 . S
C58 C54 1.391 . S
C58 C57 1.371 . S
C58 H65 0.930 . S
H59 C56 0.928 . S
H60 C57 0.931 . S
H61 C37 0.930 . S
H62 C34 0.921 1_655 S
H63 C43 0.930 . S
H64 C55 0.929 . S
H65 C58 0.930 . S
C66 C67 1.351 . S
C66 N69 1.368 . S
C66 H71 0.931 . S
C67 C66 1.351 . S
C67 N68 1.373 . S
C67 H95 0.930 . S
N68 C67 1.373 . S
N68 C70 1.340 . S
N69 C66 1.368 . S
N69 C70 1.321 . S
N69 Co72 2.135 . S
C70 N68 1.340 . S
C70 N69 1.321 . S
C70 H94 0.930 . S
H71 C66 0.931 . S
Co72 N69 2.135 . S
Co72 N75 2.121 . S
Co72 O80 2.055 . S
Co72 O83 2.039 . S
Co72 N86 2.140 . S
C73 O74 1.227 . S
C73 O83 1.265 . S
O74 C73 1.227 . S
N75 Co72 2.121 . S
N75 C77 1.375 . S
N75 C78 1.313 . S
C76 C77 1.338 . S
C76 N79 1.377 . S
C76 H96 0.930 . S
C77 N75 1.375 . S
C77 C76 1.338 . S
C77 H81 0.931 . S
C78 N75 1.313 . S
C78 N79 1.344 . S
C78 H82 0.930 . S
N79 C76 1.377 . S
N79 C78 1.344 . S
O80 Co72 2.055 . S
O80 C84 1.253 . S
H81 C77 0.931 . S
H82 C78 0.930 . S
O83 Co72 2.039 . S
O83 C73 1.265 . S
C84 O80 1.253 . S
C84 O85 1.227 . S
O85 C84 1.227 . S
N86 Co72 2.140 . S
N86 C89 1.346 . S
N86 C90 1.345 . S
C87 C88 1.387 . S
C87 C91 1.391 . S
C88 C87 1.387 . S
C88 C89 1.369 . S
C88 H97 0.929 . S
C89 N86 1.346 . S
C89 C88 1.369 . S
C89 H92 0.928 . S
C90 N86 1.345 . S
C90 C91 1.371 . S
C90 H93 0.931 . S
C91 C87 1.391 . S
C91 C90 1.371 . S
C91 H98 0.930 . S
H92 C89 0.928 . S
H93 C90 0.931 . S
H94 C70 0.930 . S
H95 C67 0.930 . S
H96 C76 0.930 . S
H97 C88 0.929 . S
H98 C91 0.930 . S
C99 C100 1.351 . S
C99 N102 1.368 . S
C99 H104 0.931 . S
C100 C99 1.351 . S
C100 N101 1.373 . S
C100 H128 0.930 . S
N101 C100 1.373 . S
N101 C103 1.340 . S
N102 C99 1.368 . S
N102 C103 1.321 . S
N102 Co105 2.135 . S
C103 N101 1.340 . S
C103 N102 1.321 . S
C103 H127 0.930 . S
H104 C99 0.931 . S
Co105 N102 2.135 . S
Co105 N108 2.121 . S
Co105 O113 2.074 . S
Co105 O116 2.062 . S
Co105 N119 2.140 . S
C106 O107 1.227 . S
C106 O116 1.282 . S
O107 C106 1.227 . S
N108 Co105 2.121 . S
N108 C110 1.375 . S
N108 C111 1.313 . S
C109 C110 1.338 . S
C109 N112 1.390 . S
C109 H129 0.930 . S
C110 N108 1.375 . S
C110 C109 1.338 . S
C110 H114 0.931 . S
C111 N108 1.313 . S
C111 N112 1.351 . S
C111 H115 0.930 . S
N112 C109 1.390 . S
N112 C111 1.351 . S
O113 Co105 2.074 . S
O113 C117 1.270 . S
H114 C110 0.931 . S
H115 C111 0.930 . S
O116 Co105 2.062 . S
O116 C106 1.282 . S
C117 O113 1.270 . S
C117 O118 1.227 . S
O118 C117 1.227 . S
N119 Co105 2.140 . S
N119 C122 1.346 . S
N119 C123 1.345 . S
C120 C121 1.387 . S
C120 C124 1.391 . S
C121 C120 1.387 . S
C121 C122 1.369 . S
C121 H130 0.929 . S
C122 N119 1.346 . S
C122 C121 1.369 . S
C122 H125 0.928 . S
C123 N119 1.345 . S
C123 C124 1.371 . S
C123 H126 0.931 . S
C124 C120 1.391 . S
C124 C123 1.371 . S
C124 H131 0.930 . S
H125 C122 0.928 . S
H126 C123 0.931 . S
H127 C103 0.930 . S
H128 C100 0.930 . S
H129 C109 0.930 . S
H130 C121 0.929 . S
H131 C124 0.930 . S
C132 C133 1.351 . S
C132 N135 1.368 . S
C132 H137 0.931 . S
C133 C132 1.351 . S
C133 N134 1.373 . S
C133 H161 0.930 . S
N134 C133 1.373 . S
N134 C136 1.340 . S
N135 C132 1.368 . S
N135 C136 1.321 . S
N135 Co138 2.135 . S
C136 N134 1.340 . S
C136 N135 1.321 . S
C136 H160 0.930 . S
H137 C132 0.931 . S
Co138 N135 2.135 . S
Co138 N141 2.121 . S
Co138 O146 2.055 . S
Co138 O149 2.039 . S
Co138 N152 2.140 . S
C139 O140 1.227 . S
C139 O149 1.265 . S
O140 C139 1.227 . S
N141 Co138 2.121 . S
N141 C143 1.375 . S
N141 C144 1.313 . S
C142 C143 1.338 . S
C142 N145 1.377 . S
C142 H162 0.930 . S
C143 N141 1.375 . S
C143 C142 1.338 . S
C143 H147 0.931 . S
C144 N141 1.313 . S
C144 N145 1.344 . S
C144 H148 0.930 . S
N145 C142 1.377 . S
N145 C144 1.344 . S
O146 Co138 2.055 . S
O146 C150 1.253 . S
H147 C143 0.931 . S
H148 C144 0.930 . S
O149 Co138 2.039 . S
O149 C139 1.265 . S
C150 O146 1.253 . S
C150 O151 1.227 . S
O151 C150 1.227 . S
N152 Co138 2.140 . S
N152 C155 1.346 . S
N152 C156 1.345 . S
C153 C154 1.387 . S
C153 C157 1.391 . S
C154 C153 1.387 . S
C154 C155 1.369 . S
C154 H163 0.929 . S
C155 N152 1.346 . S
C155 C154 1.369 . S
C155 H158 0.928 . S
C156 N152 1.345 . S
C156 C157 1.371 . S
C156 H159 0.931 . S
C157 C153 1.391 . S
C157 C156 1.371 . S
C157 H164 0.930 . S
H158 C155 0.928 . S
H159 C156 0.931 . S
H160 C136 0.930 . S
H161 C133 0.930 . S
H162 C142 0.930 . S
H163 C154 0.929 . S
H164 C157 0.930 . S
C165 C166 1.351 . S
C165 N168 1.368 . S
C165 H170 0.931 . S
C166 C165 1.351 . S
C166 N167 1.373 . S
C166 H194 0.930 . S
N167 C166 1.373 . S
N167 C169 1.340 . S
N168 C165 1.368 . S
N168 C169 1.321 . S
N168 Co171 2.135 . S
C169 N167 1.340 . S
C169 N168 1.321 . S
C169 H193 0.930 . S
H170 C165 0.931 . S
Co171 N168 2.135 . S
Co171 N174 2.121 . S
Co171 O179 2.055 . S
Co171 O182 2.039 . S
Co171 N185 2.140 . S
C172 O173 1.227 . S
C172 O182 1.265 . S
O173 C172 1.227 . S
N174 Co171 2.121 . S
N174 C176 1.375 . S
N174 C177 1.313 . S
C175 C176 1.338 . S
C175 N178 1.377 . S
C175 H195 0.930 . S
C176 N174 1.375 . S
C176 C175 1.338 . S
C176 H180 0.931 . S
C177 N174 1.313 . S
C177 N178 1.344 . S
C177 H181 0.930 . S
N178 C175 1.377 . S
N178 C177 1.344 . S
O179 Co171 2.055 . S
O179 C183 1.253 . S
H180 C176 0.931 . S
H181 C177 0.930 . S
O182 Co171 2.039 . S
O182 C172 1.265 . S
C183 O179 1.253 . S
C183 O184 1.227 . S
O184 C183 1.227 . S
N185 Co171 2.140 . S
N185 C188 1.346 . S
N185 C189 1.345 . S
C186 C187 1.387 . S
C186 C190 1.391 . S
C187 C186 1.387 . S
C187 C188 1.369 . S
C187 H196 0.929 . S
C188 N185 1.346 . S
C188 C187 1.369 . S
C188 H191 0.928 . S
C189 N185 1.345 . S
C189 C190 1.371 . S
C189 H192 0.931 . S
C190 C186 1.391 . S
C190 C189 1.371 . S
C190 H197 0.930 . S
H191 C188 0.928 . S
H192 C189 0.931 . S
H193 C169 0.930 . S
H194 C166 0.930 . S
H195 C175 0.930 . S
H196 C187 0.929 . S
H197 C190 0.930 . S
C198 C199 1.351 . S
C198 N201 1.368 . S
C198 H203 0.931 . S
C199 C198 1.351 . S
C199 N200 1.373 . S
C199 H227 0.930 . S
N200 C199 1.373 . S
N200 C202 1.340 . S
N201 C198 1.368 . S
N201 C202 1.321 . S
N201 Co204 2.135 . S
C202 N200 1.340 . S
C202 N201 1.321 . S
C202 H226 0.930 . S
H203 C198 0.931 . S
Co204 N201 2.135 . S
Co204 N207 2.121 . S
Co204 O212 2.055 . S
Co204 O215 2.039 . S
Co204 N218 2.140 . S
C205 O206 1.227 . S
C205 O215 1.265 . S
O206 C205 1.227 . S
N207 Co204 2.121 . S
N207 C209 1.375 . S
N207 C210 1.313 . S
C208 C209 1.338 . S
C208 N211 1.377 . S
C208 H228 0.930 . S
C209 N207 1.375 . S
C209 C208 1.338 . S
C209 H213 0.931 . S
C210 N207 1.313 . S
C210 N211 1.344 . S
C210 H214 0.930 . S
N211 C208 1.377 . S
N211 C210 1.344 . S
O212 Co204 2.055 . S
O212 C216 1.253 . S
H213 C209 0.931 . S
H214 C210 0.930 . S
O215 Co204 2.039 . S
O215 C205 1.265 . S
C216 O212 1.253 . S
C216 O217 1.227 . S
O217 C216 1.227 . S
N218 Co204 2.140 . S
N218 C221 1.346 . S
N218 C222 1.345 . S
C219 C220 1.387 . S
C219 C223 1.391 . S
C220 C219 1.387 . S
C220 C221 1.369 . S
C220 H229 0.929 . S
C221 N218 1.346 . S
C221 C220 1.369 . S
C221 H224 0.928 . S
C222 N218 1.345 . S
C222 C223 1.371 . S
C222 H225 0.931 . S
C223 C219 1.391 . S
C223 C222 1.371 . S
C223 H230 0.930 . S
H224 C221 0.928 . S
H225 C222 0.931 . S
H226 C202 0.930 . S
H227 C199 0.930 . S
H228 C208 0.930 . S
H229 C220 0.929 . S
H230 C223 0.930 . S
C231 C232 1.351 . S
C231 N234 1.368 . S
C231 H236 0.931 . S
C232 C231 1.351 . S
C232 N233 1.373 . S
C232 H260 0.922 1_455 S
N233 C232 1.373 . S
N233 C235 1.340 . S
N234 C231 1.368 . S
N234 C235 1.321 . S
N234 Co237 2.135 . S
C235 N233 1.340 . S
C235 N234 1.321 . S
C235 H259 0.930 . S
H236 C231 0.931 . S
Co237 N234 2.135 . S
Co237 N240 2.121 . S
Co237 O245 2.074 . S
Co237 O248 2.062 . S
Co237 N251 2.140 . S
C238 O239 1.227 . S
C238 O248 1.282 . S
O239 C238 1.227 . S
N240 Co237 2.121 . S
N240 C242 1.375 . S
N240 C243 1.313 . S
C241 C242 1.338 . S
C241 N244 1.390 . S
C241 H261 0.930 . S
C242 N240 1.375 . S
C242 C241 1.338 . S
C242 H246 0.931 . S
C243 N240 1.313 . S
C243 N244 1.351 . S
C243 H247 0.930 . S
N244 C241 1.390 . S
N244 C243 1.351 . S
O245 Co237 2.074 . S
O245 C249 1.269 . S
H246 C242 0.931 . S
H247 C243 0.930 . S
O248 Co237 2.062 . S
O248 C238 1.282 . S
C249 O245 1.269 . S
C249 O250 1.227 . S
O250 C249 1.227 . S
N251 Co237 2.140 . S
N251 C254 1.346 . S
N251 C255 1.345 . S
C252 C253 1.387 . S
C252 C256 1.391 . S
C253 C252 1.387 . S
C253 C254 1.369 . S
C253 H262 0.929 . S
C254 N251 1.346 . S
C254 C253 1.369 . S
C254 H257 0.928 . S
C255 N251 1.345 . S
C255 C256 1.371 . S
C255 H258 0.931 . S
C256 C252 1.391 . S
C256 C255 1.371 . S
C256 H263 0.930 . S
H257 C254 0.928 . S
H258 C255 0.931 . S
H259 C235 0.930 . S
H260 C232 0.922 1_655 S
H261 C241 0.930 . S
H262 C253 0.929 . S
H263 C256 0.930 . S
C264 C265 1.351 . S
C264 N267 1.368 . S
C264 H269 0.931 . S
C265 C264 1.351 . S
C265 N266 1.373 . S
C265 H293 0.930 . S
N266 C265 1.373 . S
N266 C268 1.340 . S
N267 C264 1.368 . S
N267 C268 1.321 . S
N267 Co270 2.135 . S
C268 N266 1.340 . S
C268 N267 1.321 . S
C268 H292 0.930 . S
H269 C264 0.931 . S
Co270 N267 2.135 . S
Co270 N273 2.121 . S
Co270 O278 2.055 . S
Co270 O281 2.039 . S
Co270 N284 2.140 . S
C271 O272 1.227 . S
C271 O281 1.265 . S
O272 C271 1.227 . S
N273 Co270 2.121 . S
N273 C275 1.375 . S
N273 C276 1.313 . S
C274 C275 1.338 . S
C274 N277 1.377 . S
C274 H294 0.930 . S
C275 N273 1.375 . S
C275 C274 1.338 . S
C275 H279 0.931 . S
C276 N273 1.313 . S
C276 N277 1.344 . S
C276 H280 0.930 . S
N277 C274 1.377 . S
N277 C276 1.344 . S
O278 Co270 2.055 . S
O278 C282 1.253 . S
H279 C275 0.931 . S
H280 C276 0.930 . S
O281 Co270 2.039 . S
O281 C271 1.265 . S
C282 O278 1.253 . S
C282 O283 1.227 . S
O283 C282 1.227 . S
N284 Co270 2.140 . S
N284 C287 1.346 . S
N284 C288 1.345 . S
C285 C286 1.387 . S
C285 C289 1.391 . S
C286 C285 1.387 . S
C286 C287 1.369 . S
C286 H295 0.929 . S
C287 N284 1.346 . S
C287 C286 1.369 . S
C287 H290 0.928 . S
C288 N284 1.345 . S
C288 C289 1.371 . S
C288 H291 0.931 . S
C289 C285 1.391 . S
C289 C288 1.371 . S
C289 H296 0.930 . S
H290 C287 0.928 . S
H291 C288 0.931 . S
H292 C268 0.930 . S
H293 C265 0.930 . S
H294 C274 0.930 . S
H295 C286 0.929 . S
H296 C289 0.930 . S
C297 C298 1.351 . S
C297 N300 1.368 . S
C297 H302 0.931 . S
C298 C297 1.351 . S
C298 N299 1.373 . S
C298 H326 0.930 . S
N299 C298 1.373 . S
N299 C301 1.340 . S
N300 C297 1.368 . S
N300 C301 1.321 . S
N300 Co303 2.135 . S
C301 N299 1.340 . S
C301 N300 1.321 . S
C301 H325 0.930 . S
H302 C297 0.931 . S
Co303 N300 2.135 . S
Co303 N306 2.121 . S
Co303 O311 2.074 . S
Co303 O314 2.062 . S
Co303 N317 2.140 . S
C304 O305 1.227 . S
C304 O314 1.282 . S
O305 C304 1.227 . S
N306 Co303 2.121 . S
N306 C308 1.375 . S
N306 C309 1.313 . S
C307 C308 1.338 . S
C307 N310 1.390 . S
C307 H327 0.930 . S
C308 N306 1.375 . S
C308 C307 1.338 . S
C308 H312 0.931 . S
C309 N306 1.313 . S
C309 N310 1.351 . S
C309 H313 0.930 . S
N310 C307 1.390 . S
N310 C309 1.351 . S
O311 Co303 2.074 . S
O311 C315 1.270 . S
H312 C308 0.931 . S
H313 C309 0.930 . S
O314 Co303 2.062 . S
O314 C304 1.282 . S
C315 O311 1.270 . S
C315 O316 1.227 . S
O316 C315 1.227 . S
N317 Co303 2.140 . S
N317 C320 1.346 . S
N317 C321 1.345 . S
C318 C319 1.387 . S
C318 C322 1.391 . S
C319 C318 1.387 . S
C319 C320 1.369 . S
C319 H328 0.929 . S
C320 N317 1.346 . S
C320 C319 1.369 . S
C320 H323 0.928 . S
C321 N317 1.345 . S
C321 C322 1.371 . S
C321 H324 0.931 . S
C322 C318 1.391 . S
C322 C321 1.371 . S
C322 H329 0.930 . S
H323 C320 0.928 . S
H324 C321 0.931 . S
H325 C301 0.930 . S
H326 C298 0.930 . S
H327 C307 0.930 . S
H328 C319 0.929 . S
H329 C322 0.930 . S
C330 C331 1.351 . S
C330 N333 1.368 . S
C330 H335 0.931 . S
C331 C330 1.351 . S
C331 N332 1.373 . S
C331 H359 0.930 . S
N332 C331 1.373 . S
N332 C334 1.340 . S
N333 C330 1.368 . S
N333 C334 1.321 . S
N333 Co336 2.135 . S
C334 N332 1.340 . S
C334 N333 1.321 . S
C334 H358 0.930 . S
H335 C330 0.931 . S
Co336 N333 2.135 . S
Co336 N339 2.121 . S
Co336 O344 2.055 . S
Co336 O347 2.039 . S
Co336 N350 2.140 . S
C337 O338 1.227 . S
C337 O347 1.265 . S
O338 C337 1.227 . S
N339 Co336 2.121 . S
N339 C341 1.375 . S
N339 C342 1.313 . S
C340 C341 1.338 . S
C340 N343 1.377 . S
C340 H360 0.930 . S
C341 N339 1.375 . S
C341 C340 1.338 . S
C341 H345 0.931 . S
C342 N339 1.313 . S
C342 N343 1.344 . S
C342 H346 0.930 . S
N343 C340 1.377 . S
N343 C342 1.344 . S
O344 Co336 2.055 . S
O344 C348 1.253 . S
H345 C341 0.931 . S
H346 C342 0.930 . S
O347 Co336 2.039 . S
O347 C337 1.265 . S
C348 O344 1.253 . S
C348 O349 1.227 . S
O349 C348 1.227 . S
N350 Co336 2.140 . S
N350 C353 1.346 . S
N350 C354 1.345 . S
C351 C352 1.387 . S
C351 C355 1.391 . S
C352 C351 1.387 . S
C352 C353 1.369 . S
C352 H361 0.929 . S
C353 N350 1.346 . S
C353 C352 1.369 . S
C353 H356 0.928 . S
C354 N350 1.345 . S
C354 C355 1.371 . S
C354 H357 0.931 . S
C355 C351 1.391 . S
C355 C354 1.371 . S
C355 H362 0.930 . S
H356 C353 0.928 . S
H357 C354 0.931 . S
H358 C334 0.930 . S
H359 C331 0.930 . S
H360 C340 0.930 . S
H361 C352 0.929 . S
H362 C355 0.930 . S
C363 C364 1.351 . S
C363 N366 1.368 . S
C363 H368 0.931 . S
C364 C363 1.351 . S
C364 N365 1.373 . S
C364 H392 0.921 1_556 S
N365 C364 1.373 . S
N365 C367 1.340 . S
N366 C363 1.368 . S
N366 C367 1.321 . S
N366 Co369 2.135 . S
C367 N365 1.340 . S
C367 N366 1.321 . S
C367 H391 0.930 . S
H368 C363 0.931 . S
Co369 N366 2.135 . S
Co369 N372 2.121 . S
Co369 O377 2.074 . S
Co369 O380 2.062 . S
Co369 N383 2.140 . S
C370 O371 1.227 . S
C370 O380 1.282 . S
O371 C370 1.227 . S
N372 Co369 2.121 . S
N372 C374 1.375 . S
N372 C375 1.313 . S
C373 C374 1.338 . S
C373 N376 1.390 . S
C373 H393 0.930 . S
C374 N372 1.375 . S
C374 C373 1.338 . S
C374 H378 0.931 . S
C375 N372 1.313 . S
C375 N376 1.351 . S
C375 H379 0.930 . S
N376 C373 1.390 . S
N376 C375 1.351 . S
O377 Co369 2.074 . S
O377 C381 1.270 . S
H378 C374 0.931 . S
H379 C375 0.930 . S
O380 Co369 2.062 . S
O380 C370 1.282 . S
C381 O377 1.270 . S
C381 O382 1.227 . S
O382 C381 1.227 . S
N383 Co369 2.140 . S
N383 C386 1.346 . S
N383 C387 1.345 . S
C384 C385 1.387 . S
C384 C388 1.391 . S
C385 C384 1.387 . S
C385 C386 1.369 . S
C385 H394 0.929 . S
C386 N383 1.346 . S
C386 C385 1.369 . S
C386 H389 0.928 . S
C387 N383 1.345 . S
C387 C388 1.371 . S
C387 H390 0.931 . S
C388 C384 1.391 . S
C388 C387 1.371 . S
C388 H395 0.930 . S
H389 C386 0.928 . S
H390 C387 0.931 . S
H391 C367 0.930 . S
H392 C364 0.921 1_554 S
H393 C373 0.930 . S
H394 C385 0.929 . S
H395 C388 0.930 . S
C396 C397 1.351 . S
C396 N399 1.368 . S
C396 H401 0.931 . S
C397 C396 1.351 . S
C397 N398 1.373 . S
C397 H425 0.930 . S
N398 C397 1.373 . S
N398 C400 1.340 . S
N399 C396 1.368 . S
N399 C400 1.321 . S
N399 Co402 2.135 . S
C400 N398 1.340 . S
C400 N399 1.321 . S
C400 H424 0.930 . S
H401 C396 0.931 . S
Co402 N399 2.135 . S
Co402 N405 2.121 . S
Co402 O410 2.055 . S
Co402 O413 2.039 . S
Co402 N416 2.140 . S
C403 O404 1.227 . S
C403 O413 1.265 . S
O404 C403 1.227 . S
N405 Co402 2.121 . S
N405 C407 1.375 . S
N405 C408 1.313 . S
C406 C407 1.338 . S
C406 N409 1.377 . S
C406 H426 0.930 . S
C407 N405 1.375 . S
C407 C406 1.338 . S
C407 H411 0.931 . S
C408 N405 1.313 . S
C408 N409 1.344 . S
C408 H412 0.930 . S
N409 C406 1.377 . S
N409 C408 1.344 . S
O410 Co402 2.055 . S
O410 C414 1.253 . S
H411 C407 0.931 . S
H412 C408 0.930 . S
O413 Co402 2.039 . S
O413 C403 1.265 . S
C414 O410 1.253 . S
C414 O415 1.227 . S
O415 C414 1.227 . S
N416 Co402 2.140 . S
N416 C419 1.346 . S
N416 C420 1.345 . S
C417 C418 1.387 . S
C417 C421 1.391 . S
C418 C417 1.387 . S
C418 C419 1.369 . S
C418 H427 0.929 . S
C419 N416 1.346 . S
C419 C418 1.369 . S
C419 H422 0.928 . S
C420 N416 1.345 . S
C420 C421 1.371 . S
C420 H423 0.931 . S
C421 C417 1.391 . S
C421 C420 1.371 . S
C421 H428 0.930 . S
H422 C419 0.928 . S
H423 C420 0.931 . S
H424 C400 0.930 . S
H425 C397 0.930 . S
H426 C406 0.930 . S
H427 C418 0.929 . S
H428 C421 0.930 . S
C429 C430 1.351 . S
C429 N432 1.368 . S
C429 H434 0.931 . S
C430 C429 1.351 . S
C430 N431 1.373 . S
C430 H458 0.930 . S
N431 C430 1.373 . S
N431 C433 1.340 . S
N432 C429 1.368 . S
N432 C433 1.321 . S
N432 Co435 2.135 . S
C433 N431 1.340 . S
C433 N432 1.321 . S
C433 H457 0.930 . S
H434 C429 0.931 . S
Co435 N432 2.135 . S
Co435 N438 2.121 . S
Co435 O443 2.074 . S
Co435 O446 2.062 . S
Co435 N449 2.140 . S
C436 O437 1.227 . S
C436 O446 1.282 . S
O437 C436 1.227 . S
N438 Co435 2.121 . S
N438 C440 1.375 . S
N438 C441 1.313 . S
C439 C440 1.338 . S
C439 N442 1.390 . S
C439 H459 0.930 . S
C440 N438 1.375 . S
C440 C439 1.338 . S
C440 H444 0.931 . S
C441 N438 1.313 . S
C441 N442 1.351 . S
C441 H445 0.930 . S
N442 C439 1.390 . S
N442 C441 1.351 . S
O443 Co435 2.074 . S
O443 C447 1.270 . S
H444 C440 0.931 . S
H445 C441 0.930 . S
O446 Co435 2.062 . S
O446 C436 1.282 . S
C447 O443 1.270 . S
C447 O448 1.227 . S
O448 C447 1.227 . S
N449 Co435 2.140 . S
N449 C452 1.346 . S
N449 C453 1.345 . S
C450 C451 1.387 . S
C450 C454 1.391 . S
C451 C450 1.387 . S
C451 C452 1.369 . S
C451 H460 0.929 . S
C452 N449 1.346 . S
C452 C451 1.369 . S
C452 H455 0.928 . S
C453 N449 1.345 . S
C453 C454 1.371 . S
C453 H456 0.931 . S
C454 C450 1.391 . S
C454 C453 1.371 . S
C454 H461 0.930 . S
H455 C452 0.928 . S
H456 C453 0.931 . S
H457 C433 0.930 . S
H458 C430 0.930 . S
H459 C439 0.930 . S
H460 C451 0.929 . S
H461 C454 0.930 . S
C462 C463 1.351 . S
C462 N465 1.368 . S
C462 H467 0.931 . S
C463 C462 1.351 . S
C463 N464 1.373 . S
C463 H491 0.930 . S
N464 C463 1.373 . S
N464 C466 1.340 . S
N465 C462 1.368 . S
N465 C466 1.321 . S
N465 Co468 2.135 . S
C466 N464 1.340 . S
C466 N465 1.321 . S
C466 H490 0.930 . S
H467 C462 0.931 . S
Co468 N465 2.135 . S
Co468 N471 2.121 . S
Co468 O476 2.055 . S
Co468 O479 2.039 . S
Co468 N482 2.140 . S
C469 O470 1.227 . S
C469 O479 1.265 . S
O470 C469 1.227 . S
N471 Co468 2.121 . S
N471 C473 1.375 . S
N471 C474 1.313 . S
C472 C473 1.338 . S
C472 N475 1.377 . S
C472 H492 0.930 . S
C473 N471 1.375 . S
C473 C472 1.338 . S
C473 H477 0.931 . S
C474 N471 1.313 . S
C474 N475 1.344 . S
C474 H478 0.930 . S
N475 C472 1.377 . S
N475 C474 1.344 . S
O476 Co468 2.055 . S
O476 C480 1.253 . S
H477 C473 0.931 . S
H478 C474 0.930 . S
O479 Co468 2.039 . S
O479 C469 1.265 . S
C480 O476 1.253 . S
C480 O481 1.227 . S
O481 C480 1.227 . S
N482 Co468 2.140 . S
N482 C485 1.346 . S
N482 C486 1.345 . S
C483 C484 1.387 . S
C483 C487 1.391 . S
C484 C483 1.387 . S
C484 C485 1.369 . S
C484 H493 0.929 . S
C485 N482 1.346 . S
C485 C484 1.369 . S
C485 H488 0.928 . S
C486 N482 1.345 . S
C486 C487 1.371 . S
C486 H489 0.931 . S
C487 C483 1.391 . S
C487 C486 1.371 . S
C487 H494 0.930 . S
H488 C485 0.928 . S
H489 C486 0.931 . S
H490 C466 0.930 . S
H491 C463 0.930 . S
H492 C472 0.930 . S
H493 C484 0.929 . S
H494 C487 0.930 . S
C495 C496 1.351 . S
C495 N498 1.368 . S
C495 H500 0.931 . S
C496 C495 1.351 . S
C496 N497 1.373 . S
C496 H524 0.922 1_554 S
N497 C496 1.373 . S
N497 C499 1.340 . S
N498 C495 1.368 . S
N498 C499 1.321 . S
N498 Co501 2.135 . S
C499 N497 1.340 . S
C499 N498 1.321 . S
C499 H523 0.930 . S
H500 C495 0.931 . S
Co501 N498 2.135 . S
Co501 N504 2.121 . S
Co501 O509 2.074 . S
Co501 O512 2.062 . S
Co501 N515 2.140 . S
C502 O503 1.227 . S
C502 O512 1.282 . S
O503 C502 1.227 . S
N504 Co501 2.121 . S
N504 C506 1.375 . S
N504 C507 1.313 . S
C505 C506 1.338 . S
C505 N508 1.390 . S
C505 H525 0.930 . S
C506 N504 1.375 . S
C506 C505 1.338 . S
C506 H510 0.931 . S
C507 N504 1.313 . S
C507 N508 1.351 . S
C507 H511 0.930 . S
N508 C505 1.390 . S
N508 C507 1.351 . S
O509 Co501 2.074 . S
O509 C513 1.269 . S
H510 C506 0.931 . S
H511 C507 0.930 . S
O512 Co501 2.062 . S
O512 C502 1.282 . S
C513 O509 1.269 . S
C513 O514 1.227 . S
O514 C513 1.227 . S
N515 Co501 2.140 . S
N515 C518 1.346 . S
N515 C519 1.345 . S
C516 C517 1.387 . S
C516 C520 1.391 . S
C517 C516 1.387 . S
C517 C518 1.369 . S
C517 H526 0.929 . S
C518 N515 1.346 . S
C518 C517 1.369 . S
C518 H521 0.928 . S
C519 N515 1.345 . S
C519 C520 1.371 . S
C519 H522 0.931 . S
C520 C516 1.391 . S
C520 C519 1.371 . S
C520 H527 0.930 . S
H521 C518 0.928 . S
H522 C519 0.931 . S
H523 C499 0.930 . S
H524 C496 0.922 1_556 S
H525 C505 0.930 . S
H526 C517 0.929 . S
H527 C520 0.930 . S
C528 C529 1.351 . S
C528 N531 1.368 . S
C528 H533 0.931 . S
C529 C528 1.351 . S
C529 N530 1.373 . S
C529 H557 0.930 . S
N530 C529 1.373 . S
N530 C532 1.340 . S
N531 C528 1.368 . S
N531 C532 1.321 . S
N531 Co534 2.135 . S
C532 N530 1.340 . S
C532 N531 1.321 . S
C532 H556 0.930 . S
H533 C528 0.931 . S
Co534 N531 2.135 . S
Co534 N537 2.121 . S
Co534 O542 2.055 . S
Co534 O545 2.039 . S
Co534 N548 2.140 . S
C535 O536 1.227 . S
C535 O545 1.265 . S
O536 C535 1.227 . S
N537 Co534 2.121 . S
N537 C539 1.375 . S
N537 C540 1.313 . S
C538 C539 1.338 . S
C538 N541 1.377 . S
C538 H558 0.930 . S
C539 N537 1.375 . S
C539 C538 1.338 . S
C539 H543 0.931 . S
C540 N537 1.313 . S
C540 N541 1.344 . S
C540 H544 0.930 . S
N541 C538 1.377 . S
N541 C540 1.344 . S
O542 Co534 2.055 . S
O542 C546 1.253 . S
H543 C539 0.931 . S
H544 C540 0.930 . S
O545 Co534 2.039 . S
O545 C535 1.265 . S
C546 O542 1.253 . S
C546 O547 1.227 . S
O547 C546 1.227 . S
N548 Co534 2.140 . S
N548 C551 1.346 . S
N548 C552 1.345 . S
C549 C550 1.387 . S
C549 C553 1.391 . S
C550 C549 1.387 . S
C550 C551 1.369 . S
C550 H559 0.929 . S
C551 N548 1.346 . S
C551 C550 1.369 . S
C551 H554 0.928 . S
C552 N548 1.345 . S
C552 C553 1.371 . S
C552 H555 0.931 . S
C553 C549 1.391 . S
C553 C552 1.371 . S
C553 H560 0.930 . S
H554 C551 0.928 . S
H555 C552 0.931 . S
H556 C532 0.930 . S
H557 C529 0.930 . S
H558 C538 0.930 . S
H559 C550 0.929 . S
H560 C553 0.930 . S
C561 C562 1.351 . S
C561 N564 1.368 . S
C561 H566 0.931 . S
C562 C561 1.351 . S
C562 N563 1.373 . S
C562 H590 0.930 . S
N563 C562 1.373 . S
N563 C565 1.340 . S
N564 C561 1.368 . S
N564 C565 1.321 . S
N564 Co567 2.135 . S
C565 N563 1.340 . S
C565 N564 1.321 . S
C565 H589 0.930 . S
H566 C561 0.931 . S
Co567 N564 2.135 . S
Co567 N570 2.121 . S
Co567 O575 2.055 . S
Co567 O578 2.039 . S
Co567 N581 2.140 . S
C568 O569 1.227 . S
C568 O578 1.265 . S
O569 C568 1.227 . S
N570 Co567 2.121 . S
N570 C572 1.375 . S
N570 C573 1.313 . S
C571 C572 1.338 . S
C571 N574 1.377 . S
C571 H591 0.930 . S
C572 N570 1.375 . S
C572 C571 1.338 . S
C572 H576 0.931 . S
C573 N570 1.313 . S
C573 N574 1.344 . S
C573 H577 0.930 . S
N574 C571 1.377 . S
N574 C573 1.344 . S
O575 Co567 2.055 . S
O575 C579 1.253 . S
H576 C572 0.931 . S
H577 C573 0.930 . S
O578 Co567 2.039 . S
O578 C568 1.265 . S
C579 O575 1.253 . S
C579 O580 1.227 . S
O580 C579 1.227 . S
N581 Co567 2.140 . S
N581 C584 1.346 . S
N581 C585 1.345 . S
C582 C583 1.387 . S
C582 C586 1.391 . S
C583 C582 1.387 . S
C583 C584 1.369 . S
C583 H592 0.929 . S
C584 N581 1.346 . S
C584 C583 1.369 . S
C584 H587 0.928 . S
C585 N581 1.345 . S
C585 C586 1.371 . S
C585 H588 0.931 . S
C586 C582 1.391 . S
C586 C585 1.371 . S
C586 H593 0.930 . S
H587 C584 0.928 . S
H588 C585 0.931 . S
H589 C565 0.930 . S
H590 C562 0.930 . S
H591 C571 0.930 . S
H592 C583 0.929 . S
H593 C586 0.930 . S
C594 C595 1.351 . S
C594 N597 1.368 . S
C594 H599 0.931 . S
C595 C594 1.351 . S
C595 N596 1.373 . S
C595 H623 0.930 . S
N596 C595 1.373 . S
N596 C598 1.340 . S
N597 C594 1.368 . S
N597 C598 1.321 . S
N597 Co600 2.135 . S
C598 N596 1.340 . S
C598 N597 1.321 . S
C598 H622 0.930 . S
H599 C594 0.931 . S
Co600 N597 2.135 . S
Co600 N603 2.121 . S
Co600 O608 2.074 . S
Co600 O611 2.062 . S
Co600 N614 2.140 . S
C601 O602 1.227 . S
C601 O611 1.282 . S
O602 C601 1.227 . S
N603 Co600 2.121 . S
N603 C605 1.375 . S
N603 C606 1.313 . S
C604 C605 1.338 . S
C604 N607 1.390 . S
C604 H624 0.930 . S
C605 N603 1.375 . S
C605 C604 1.338 . S
C605 H609 0.931 . S
C606 N603 1.313 . S
C606 N607 1.351 . S
C606 H610 0.930 . S
N607 C604 1.390 . S
N607 C606 1.351 . S
O608 Co600 2.074 . S
O608 C612 1.270 . S
H609 C605 0.931 . S
H610 C606 0.930 . S
O611 Co600 2.062 . S
O611 C601 1.282 . S
C612 O608 1.270 . S
C612 O613 1.227 . S
O613 C612 1.227 . S
N614 Co600 2.140 . S
N614 C617 1.346 . S
N614 C618 1.345 . S
C615 C616 1.387 . S
C615 C619 1.391 . S
C616 C615 1.387 . S
C616 C617 1.369 . S
C616 H625 0.929 . S
C617 N614 1.346 . S
C617 C616 1.369 . S
C617 H620 0.928 . S
C618 N614 1.345 . S
C618 C619 1.371 . S
C618 H621 0.931 . S
C619 C615 1.391 . S
C619 C618 1.371 . S
C619 H626 0.930 . S
H620 C617 0.928 . S
H621 C618 0.931 . S
H622 C598 0.930 . S
H623 C595 0.930 . S
H624 C604 0.930 . S
H625 C616 0.929 . S
H626 C619 0.930 . S
C627 C628 1.351 . S
C627 N630 1.368 . S
C627 H632 0.931 . S
C628 C627 1.351 . S
C628 N629 1.373 . S
C628 H656 0.930 . S
N629 C628 1.373 . S
N629 C631 1.340 . S
N630 C627 1.368 . S
N630 C631 1.321 . S
N630 Co633 2.135 . S
C631 N629 1.340 . S
C631 N630 1.321 . S
C631 H655 0.930 . S
H632 C627 0.931 . S
Co633 N630 2.135 . S
Co633 N636 2.121 . S
Co633 O641 2.055 . S
Co633 O644 2.039 . S
Co633 N647 2.140 . S
C634 O635 1.227 . S
C634 O644 1.265 . S
O635 C634 1.227 . S
N636 Co633 2.121 . S
N636 C638 1.375 . S
N636 C639 1.313 . S
C637 C638 1.338 . S
C637 N640 1.377 . S
C637 H657 0.930 . S
C638 N636 1.375 . S
C638 C637 1.338 . S
C638 H642 0.931 . S
C639 N636 1.313 . S
C639 N640 1.344 . S
C639 H643 0.930 . S
N640 C637 1.377 . S
N640 C639 1.344 . S
O641 Co633 2.055 . S
O641 C645 1.253 . S
H642 C638 0.931 . S
H643 C639 0.930 . S
O644 Co633 2.039 . S
O644 C634 1.265 . S
C645 O641 1.253 . S
C645 O646 1.227 . S
O646 C645 1.227 . S
N647 Co633 2.140 . S
N647 C650 1.346 . S
N647 C651 1.345 . S
C648 C649 1.387 . S
C648 C652 1.391 . S
C649 C648 1.387 . S
C649 C650 1.369 . S
C649 H658 0.929 . S
C650 N647 1.346 . S
C650 C649 1.369 . S
C650 H653 0.928 . S
C651 N647 1.345 . S
C651 C652 1.371 . S
C651 H654 0.931 . S
C652 C648 1.391 . S
C652 C651 1.371 . S
C652 H659 0.930 . S
H653 C650 0.928 . S
H654 C651 0.931 . S
H655 C631 0.930 . S
H656 C628 0.930 . S
H657 C637 0.930 . S
H658 C649 0.929 . S
H659 C652 0.930 . S
C660 C661 1.351 . S
C660 N663 1.368 . S
C660 H665 0.931 . S
C661 C660 1.351 . S
C661 N662 1.373 . S
C661 H689 0.922 1_545 S
N662 C661 1.373 . S
N662 C664 1.340 . S
N663 C660 1.368 . S
N663 C664 1.321 . S
N663 Co666 2.135 . S
C664 N662 1.340 . S
C664 N663 1.321 . S
C664 H688 0.930 . S
H665 C660 0.931 . S
Co666 N663 2.135 . S
Co666 N669 2.121 . S
Co666 O674 2.074 . S
Co666 O677 2.062 . S
Co666 N680 2.140 . S
C667 O668 1.227 . S
C667 O677 1.282 . S
O668 C667 1.227 . S
N669 Co666 2.121 . S
N669 C671 1.375 . S
N669 C672 1.313 . S
C670 C671 1.338 . S
C670 N673 1.390 . S
C670 H690 0.930 . S
C671 N669 1.375 . S
C671 C670 1.338 . S
C671 H675 0.931 . S
C672 N669 1.313 . S
C672 N673 1.351 . S
C672 H676 0.930 . S
N673 C670 1.390 . S
N673 C672 1.351 . S
O674 Co666 2.074 . S
O674 C678 1.269 . S
H675 C671 0.931 . S
H676 C672 0.930 . S
O677 Co666 2.062 . S
O677 C667 1.282 . S
C678 O674 1.269 . S
C678 O679 1.227 . S
O679 C678 1.227 . S
N680 Co666 2.140 . S
N680 C683 1.346 . S
N680 C684 1.345 . S
C681 C682 1.387 . S
C681 C685 1.391 . S
C682 C681 1.387 . S
C682 C683 1.369 . S
C682 H691 0.929 . S
C683 N680 1.346 . S
C683 C682 1.369 . S
C683 H686 0.928 . S
C684 N680 1.345 . S
C684 C685 1.371 . S
C684 H687 0.931 . S
C685 C681 1.391 . S
C685 C684 1.371 . S
C685 H692 0.930 . S
H686 C683 0.928 . S
H687 C684 0.931 . S
H688 C664 0.930 . S
H689 C661 0.922 1_565 S
H690 C670 0.930 . S
H691 C682 0.929 . S
H692 C685 0.930 . S
C693 C694 1.351 . S
C693 N696 1.368 . S
C693 H698 0.931 . S
C694 C693 1.351 . S
C694 N695 1.373 . S
C694 H722 0.930 . S
N695 C694 1.373 . S
N695 C697 1.340 . S
N696 C693 1.368 . S
N696 C697 1.321 . S
N696 Co699 2.135 . S
C697 N695 1.340 . S
C697 N696 1.321 . S
C697 H721 0.930 . S
H698 C693 0.931 . S
Co699 N696 2.135 . S
Co699 N702 2.121 . S
Co699 O707 2.055 . S
Co699 O710 2.039 . S
Co699 N713 2.140 . S
C700 O701 1.227 . S
C700 O710 1.265 . S
O701 C700 1.227 . S
N702 Co699 2.121 . S
N702 C704 1.375 . S
N702 C705 1.313 . S
C703 C704 1.338 . S
C703 N706 1.377 . S
C703 H723 0.930 . S
C704 N702 1.375 . S
C704 C703 1.338 . S
C704 H708 0.931 . S
C705 N702 1.313 . S
C705 N706 1.344 . S
C705 H709 0.930 . S
N706 C703 1.377 . S
N706 C705 1.344 . S
O707 Co699 2.055 . S
O707 C711 1.253 . S
H708 C704 0.931 . S
H709 C705 0.930 . S
O710 Co699 2.039 . S
O710 C700 1.265 . S
C711 O707 1.253 . S
C711 O712 1.227 . S
O712 C711 1.227 . S
N713 Co699 2.140 . S
N713 C716 1.346 . S
N713 C717 1.345 . S
C714 C715 1.387 . S
C714 C718 1.391 . S
C715 C714 1.387 . S
C715 C716 1.369 . S
C715 H724 0.929 . S
C716 N713 1.346 . S
C716 C715 1.369 . S
C716 H719 0.928 . S
C717 N713 1.345 . S
C717 C718 1.371 . S
C717 H720 0.931 . S
C718 C714 1.391 . S
C718 C717 1.371 . S
C718 H725 0.930 . S
H719 C716 0.928 . S
H720 C717 0.931 . S
H721 C697 0.930 . S
H722 C694 0.930 . S
H723 C703 0.930 . S
H724 C715 0.929 . S
H725 C718 0.930 . S
C726 C727 1.351 . S
C726 N729 1.368 . S
C726 H731 0.931 . S
C727 C726 1.351 . S
C727 N728 1.373 . S
C727 H755 0.930 . S
N728 C727 1.373 . S
N728 C730 1.340 . S
N729 C726 1.368 . S
N729 C730 1.321 . S
N729 Co732 2.135 . S
C730 N728 1.340 . S
C730 N729 1.321 . S
C730 H754 0.930 . S
H731 C726 0.931 . S
Co732 N729 2.135 . S
Co732 N735 2.121 . S
Co732 O740 2.074 . S
Co732 O743 2.062 . S
Co732 N746 2.140 . S
C733 O734 1.227 . S
C733 O743 1.282 . S
O734 C733 1.227 . S
N735 Co732 2.121 . S
N735 C737 1.375 . S
N735 C738 1.313 . S
C736 C737 1.338 . S
C736 N739 1.390 . S
C736 H756 0.930 . S
C737 N735 1.375 . S
C737 C736 1.338 . S
C737 H741 0.931 . S
C738 N735 1.313 . S
C738 N739 1.351 . S
C738 H742 0.930 . S
N739 C736 1.390 . S
N739 C738 1.351 . S
O740 Co732 2.074 . S
O740 C744 1.270 . S
H741 C737 0.931 . S
H742 C738 0.930 . S
O743 Co732 2.062 . S
O743 C733 1.282 . S
C744 O740 1.270 . S
C744 O745 1.227 . S
O745 C744 1.227 . S
N746 Co732 2.140 . S
N746 C749 1.346 . S
N746 C750 1.345 . S
C747 C748 1.387 . S
C747 C751 1.391 . S
C748 C747 1.387 . S
C748 C749 1.369 . S
C748 H757 0.929 . S
C749 N746 1.346 . S
C749 C748 1.369 . S
C749 H752 0.928 . S
C750 N746 1.345 . S
C750 C751 1.371 . S
C750 H753 0.931 . S
C751 C747 1.391 . S
C751 C750 1.371 . S
C751 H758 0.930 . S
H752 C749 0.928 . S
H753 C750 0.931 . S
H754 C730 0.930 . S
H755 C727 0.930 . S
H756 C736 0.930 . S
H757 C748 0.929 . S
H758 C751 0.930 . S
C759 C760 1.351 . S
C759 N762 1.368 . S
C759 H764 0.931 . S
C760 C759 1.351 . S
C760 N761 1.373 . S
C760 H788 0.930 . S
N761 C760 1.373 . S
N761 C763 1.340 . S
N762 C759 1.368 . S
N762 C763 1.321 . S
N762 Co765 2.135 . S
C763 N761 1.340 . S
C763 N762 1.321 . S
C763 H787 0.930 . S
H764 C759 0.931 . S
Co765 N762 2.135 . S
Co765 N768 2.121 . S
Co765 O773 2.055 . S
Co765 O776 2.039 . S
Co765 N779 2.140 . S
C766 O767 1.227 . S
C766 O776 1.265 . S
O767 C766 1.227 . S
N768 Co765 2.121 . S
N768 C770 1.375 . S
N768 C771 1.313 . S
C769 C770 1.338 . S
C769 N772 1.377 . S
C769 H789 0.930 . S
C770 N768 1.375 . S
C770 C769 1.338 . S
C770 H774 0.931 . S
C771 N768 1.313 . S
C771 N772 1.344 . S
C771 H775 0.930 . S
N772 C769 1.377 . S
N772 C771 1.344 . S
O773 Co765 2.055 . S
O773 C777 1.253 . S
H774 C770 0.931 . S
H775 C771 0.930 . S
O776 Co765 2.039 . S
O776 C766 1.265 . S
C777 O773 1.253 . S
C777 O778 1.227 . S
O778 C777 1.227 . S
N779 Co765 2.140 . S
N779 C782 1.346 . S
N779 C783 1.345 . S
C780 C781 1.387 . S
C780 C784 1.391 . S
C781 C780 1.387 . S
C781 C782 1.369 . S
C781 H790 0.929 . S
C782 N779 1.346 . S
C782 C781 1.369 . S
C782 H785 0.928 . S
C783 N779 1.345 . S
C783 C784 1.371 . S
C783 H786 0.931 . S
C784 C780 1.391 . S
C784 C783 1.371 . S
C784 H791 0.930 . S
H785 C782 0.928 . S
H786 C783 0.931 . S
H787 C763 0.930 . S
H788 C760 0.930 . S
H789 C769 0.930 . S
H790 C781 0.929 . S
H791 C784 0.930 . S
C792 C793 1.351 . S
C792 N795 1.368 . S
C792 H797 0.931 . S
C793 C792 1.351 . S
C793 N794 1.373 . S
C793 H821 0.930 . S
N794 C793 1.373 . S
N794 C796 1.340 . S
N795 C792 1.368 . S
N795 C796 1.321 . S
N795 Co798 2.135 . S
C796 N794 1.340 . S
C796 N795 1.321 . S
C796 H820 0.930 . S
H797 C792 0.931 . S
Co798 N795 2.135 . S
Co798 N801 2.121 . S
Co798 O806 2.055 . S
Co798 O809 2.039 . S
Co798 N812 2.140 . S
C799 O800 1.227 . S
C799 O809 1.265 . S
O800 C799 1.227 . S
N801 Co798 2.121 . S
N801 C803 1.375 . S
N801 C804 1.313 . S
C802 C803 1.338 . S
C802 N805 1.377 . S
C802 H822 0.930 . S
C803 N801 1.375 . S
C803 C802 1.338 . S
C803 H807 0.931 . S
C804 N801 1.313 . S
C804 N805 1.344 . S
C804 H808 0.930 . S
N805 C802 1.377 . S
N805 C804 1.344 . S
O806 Co798 2.055 . S
O806 C810 1.253 . S
H807 C803 0.931 . S
H808 C804 0.930 . S
O809 Co798 2.039 . S
O809 C799 1.265 . S
C810 O806 1.253 . S
C810 O811 1.227 . S
O811 C810 1.227 . S
N812 Co798 2.140 . S
N812 C815 1.346 . S
N812 C816 1.345 . S
C813 C814 1.387 . S
C813 C817 1.391 . S
C814 C813 1.387 . S
C814 C815 1.369 . S
C814 H823 0.929 . S
C815 N812 1.346 . S
C815 C814 1.369 . S
C815 H818 0.928 . S
C816 N812 1.345 . S
C816 C817 1.371 . S
C816 H819 0.931 . S
C817 C813 1.391 . S
C817 C816 1.371 . S
C817 H824 0.930 . S
H818 C815 0.928 . S
H819 C816 0.931 . S
H820 C796 0.930 . S
H821 C793 0.930 . S
H822 C802 0.930 . S
H823 C814 0.929 . S
H824 C817 0.930 . S
C825 C826 1.351 . S
C825 N828 1.368 . S
C825 H830 0.931 . S
C826 C825 1.351 . S
C826 N827 1.373 . S
C826 H854 0.930 . S
N827 C826 1.373 . S
N827 C829 1.340 . S
N828 C825 1.368 . S
N828 C829 1.321 . S
N828 Co831 2.135 . S
C829 N827 1.340 . S
C829 N828 1.321 . S
C829 H853 0.930 . S
H830 C825 0.931 . S
Co831 N828 2.135 . S
Co831 N834 2.121 . S
Co831 O839 2.074 . S
Co831 O842 2.062 . S
Co831 N845 2.140 . S
C832 O833 1.227 . S
C832 O842 1.282 . S
O833 C832 1.227 . S
N834 Co831 2.121 . S
N834 C836 1.375 . S
N834 C837 1.313 . S
C835 C836 1.338 . S
C835 N838 1.390 . S
C835 H855 0.930 . S
C836 N834 1.375 . S
C836 C835 1.338 . S
C836 H840 0.931 . S
C837 N834 1.313 . S
C837 N838 1.351 . S
C837 H841 0.930 . S
N838 C835 1.390 . S
N838 C837 1.351 . S
O839 Co831 2.074 . S
O839 C843 1.270 . S
H840 C836 0.931 . S
H841 C837 0.930 . S
O842 Co831 2.062 . S
O842 C832 1.282 . S
C843 O839 1.270 . S
C843 O844 1.227 . S
O844 C843 1.227 . S
N845 Co831 2.140 . S
N845 C848 1.346 . S
N845 C849 1.345 . S
C846 C847 1.387 . S
C846 C850 1.391 . S
C847 C846 1.387 . S
C847 C848 1.369 . S
C847 H856 0.929 . S
C848 N845 1.346 . S
C848 C847 1.369 . S
C848 H851 0.928 . S
C849 N845 1.345 . S
C849 C850 1.371 . S
C849 H852 0.931 . S
C850 C846 1.391 . S
C850 C849 1.371 . S
C850 H857 0.930 . S
H851 C848 0.928 . S
H852 C849 0.931 . S
H853 C829 0.930 . S
H854 C826 0.930 . S
H855 C835 0.930 . S
H856 C847 0.929 . S
H857 C850 0.930 . S
C858 C859 1.351 . S
C858 N861 1.368 . S
C858 H863 0.931 . S
C859 C858 1.351 . S
C859 N860 1.373 . S
C859 H887 0.930 . S
N860 C859 1.373 . S
N860 C862 1.340 . S
N861 C858 1.368 . S
N861 C862 1.321 . S
N861 Co864 2.135 . S
C862 N860 1.340 . S
C862 N861 1.321 . S
C862 H886 0.930 . S
H863 C858 0.931 . S
Co864 N861 2.135 . S
Co864 N867 2.121 . S
Co864 O872 2.055 . S
Co864 O875 2.039 . S
Co864 N878 2.140 . S
C865 O866 1.227 . S
C865 O875 1.265 . S
O866 C865 1.227 . S
N867 Co864 2.121 . S
N867 C869 1.375 . S
N867 C870 1.313 . S
C868 C869 1.338 . S
C868 N871 1.377 . S
C868 H888 0.930 . S
C869 N867 1.375 . S
C869 C868 1.338 . S
C869 H873 0.931 . S
C870 N867 1.313 . S
C870 N871 1.344 . S
C870 H874 0.930 . S
N871 C868 1.377 . S
N871 C870 1.344 . S
O872 Co864 2.055 . S
O872 C876 1.253 . S
H873 C869 0.931 . S
H874 C870 0.930 . S
O875 Co864 2.039 . S
O875 C865 1.265 . S
C876 O872 1.253 . S
C876 O877 1.227 . S
O877 C876 1.227 . S
N878 Co864 2.140 . S
N878 C881 1.346 . S
N878 C882 1.345 . S
C879 C880 1.387 . S
C879 C883 1.391 . S
C880 C879 1.387 . S
C880 C881 1.369 . S
C880 H889 0.929 . S
C881 N878 1.346 . S
C881 C880 1.369 . S
C881 H884 0.928 . S
C882 N878 1.345 . S
C882 C883 1.371 . S
C882 H885 0.931 . S
C883 C879 1.391 . S
C883 C882 1.371 . S
C883 H890 0.930 . S
H884 C881 0.928 . S
H885 C882 0.931 . S
H886 C862 0.930 . S
H887 C859 0.930 . S
H888 C868 0.930 . S
H889 C880 0.929 . S
H890 C883 0.930 . S
C891 C892 1.351 . S
C891 N894 1.368 . S
C891 H896 0.931 . S
C892 C891 1.351 . S
C892 N893 1.373 . S
C892 H920 0.921 1_655 S
N893 C892 1.373 . S
N893 C895 1.340 . S
N894 C891 1.368 . S
N894 C895 1.321 . S
N894 Co897 2.135 . S
C895 N893 1.340 . S
C895 N894 1.321 . S
C895 H919 0.930 . S
H896 C891 0.931 . S
Co897 N894 2.135 . S
Co897 N900 2.121 . S
Co897 O905 2.055 . S
Co897 O908 2.039 . S
Co897 N911 2.140 . S
C898 O899 1.227 . S
C898 O908 1.265 . S
O899 C898 1.227 . S
N900 Co897 2.121 . S
N900 C902 1.375 . S
N900 C903 1.313 . S
C901 C902 1.338 . S
C901 N904 1.377 . S
C901 H921 0.930 . S
C902 N900 1.375 . S
C902 C901 1.338 . S
C902 H906 0.931 . S
C903 N900 1.313 . S
C903 N904 1.344 . S
C903 H907 0.930 . S
N904 C901 1.377 . S
N904 C903 1.344 . S
O905 Co897 2.055 . S
O905 C909 1.253 . S
H906 C902 0.931 . S
H907 C903 0.930 . S
O908 Co897 2.039 . S
O908 C898 1.265 . S
C909 O905 1.253 . S
C909 O910 1.227 . S
O910 C909 1.227 . S
N911 Co897 2.140 . S
N911 C914 1.346 . S
N911 C915 1.345 . S
C912 C913 1.387 . S
C912 C916 1.391 . S
C913 C912 1.387 . S
C913 C914 1.369 . S
C913 H922 0.929 . S
C914 N911 1.346 . S
C914 C913 1.369 . S
C914 H917 0.928 . S
C915 N911 1.345 . S
C915 C916 1.371 . S
C915 H918 0.931 . S
C916 C912 1.391 . S
C916 C915 1.371 . S
C916 H923 0.930 . S
H917 C914 0.928 . S
H918 C915 0.931 . S
H919 C895 0.930 . S
H920 C892 0.921 1_455 S
H921 C901 0.930 . S
H922 C913 0.929 . S
H923 C916 0.930 . S
C924 C925 1.351 . S
C924 N927 1.368 . S
C924 H929 0.931 . S
C925 C924 1.351 . S
C925 N926 1.373 . S
C925 H953 0.930 . S
N926 C925 1.373 . S
N926 C928 1.340 . S
N927 C924 1.368 . S
N927 C928 1.321 . S
N927 Co930 2.135 . S
C928 N926 1.340 . S
C928 N927 1.321 . S
C928 H952 0.930 . S
H929 C924 0.931 . S
Co930 N927 2.135 . S
Co930 N933 2.121 . S
Co930 O938 2.055 . S
Co930 O941 2.039 . S
Co930 N944 2.140 . S
C931 O932 1.227 . S
C931 O941 1.265 . S
O932 C931 1.227 . S
N933 Co930 2.121 . S
N933 C935 1.375 . S
N933 C936 1.313 . S
C934 C935 1.338 . S
C934 N937 1.377 . S
C934 H954 0.930 . S
C935 N933 1.375 . S
C935 C934 1.338 . S
C935 H939 0.931 . S
C936 N933 1.313 . S
C936 N937 1.344 . S
C936 H940 0.930 . S
N937 C934 1.377 . S
N937 C936 1.344 . S
O938 Co930 2.055 . S
O938 C942 1.253 . S
H939 C935 0.931 . S
H940 C936 0.930 . S
O941 Co930 2.039 . S
O941 C931 1.265 . S
C942 O938 1.253 . S
C942 O943 1.227 . S
O943 C942 1.227 . S
N944 Co930 2.140 . S
N944 C947 1.346 . S
N944 C948 1.345 . S
C945 C946 1.387 . S
C945 C949 1.391 . S
C946 C945 1.387 . S
C946 C947 1.369 . S
C946 H955 0.929 . S
C947 N944 1.346 . S
C947 C946 1.369 . S
C947 H950 0.928 . S
C948 N944 1.345 . S
C948 C949 1.371 . S
C948 H951 0.931 . S
C949 C945 1.391 . S
C949 C948 1.371 . S
C949 H956 0.930 . S
H950 C947 0.928 . S
H951 C948 0.931 . S
H952 C928 0.930 . S
H953 C925 0.930 . S
H954 C934 0.930 . S
H955 C946 0.929 . S
H956 C949 0.930 . S
C957 C958 1.351 . S
C957 N960 1.368 . S
C957 H962 0.931 . S
C958 C957 1.351 . S
C958 N959 1.373 . S
C958 H986 0.921 1_655 S
N959 C958 1.373 . S
N959 C961 1.340 . S
N960 C957 1.368 . S
N960 C961 1.321 . S
N960 Co963 2.135 . S
C961 N959 1.340 . S
C961 N960 1.321 . S
C961 H985 0.930 . S
H962 C957 0.931 . S
Co963 N960 2.135 . S
Co963 N966 2.121 . S
Co963 O971 2.074 . S
Co963 O974 2.062 . S
Co963 N977 2.140 . S
C964 O965 1.227 . S
C964 O974 1.282 . S
O965 C964 1.227 . S
N966 Co963 2.121 . S
N966 C968 1.375 . S
N966 C969 1.313 . S
C967 C968 1.338 . S
C967 N970 1.390 . S
C967 H987 0.930 . S
C968 N966 1.375 . S
C968 C967 1.338 . S
C968 H972 0.931 . S
C969 N966 1.313 . S
C969 N970 1.351 . S
C969 H973 0.930 . S
N970 C967 1.390 . S
N970 C969 1.351 . S
O971 Co963 2.074 . S
O971 C975 1.270 . S
H972 C968 0.931 . S
H973 C969 0.930 . S
O974 Co963 2.062 . S
O974 C964 1.282 . S
C975 O971 1.270 . S
C975 O976 1.227 . S
O976 C975 1.227 . S
N977 Co963 2.140 . S
N977 C980 1.346 . S
N977 C981 1.345 . S
C978 C979 1.387 . S
C978 C982 1.391 . S
C979 C978 1.387 . S
C979 C980 1.369 . S
C979 H988 0.929 . S
C980 N977 1.346 . S
C980 C979 1.369 . S
C980 H983 0.928 . S
C981 N977 1.345 . S
C981 C982 1.371 . S
C981 H984 0.931 . S
C982 C978 1.391 . S
C982 C981 1.371 . S
C982 H989 0.930 . S
H983 C980 0.928 . S
H984 C981 0.931 . S
H985 C961 0.930 . S
H986 C958 0.921 1_455 S
H987 C967 0.930 . S
H988 C979 0.929 . S
H989 C982 0.930 . S
C990 C991 1.351 . S
C990 N993 1.368 . S
C990 H995 0.931 . S
C991 C990 1.351 . S
C991 N992 1.373 . S
C991 H1019 0.930 . S
N992 C991 1.373 . S
N992 C994 1.340 . S
N993 C990 1.368 . S
N993 C994 1.321 . S
N993 Co996 2.135 . S
C994 N992 1.340 . S
C994 N993 1.321 . S
C994 H1018 0.930 . S
H995 C990 0.931 . S
Co996 N993 2.135 . S
Co996 N999 2.121 . S
Co996 O1004 2.055 . S
Co996 O1007 2.039 . S
Co996 N1010 2.140 . S
C997 O998 1.227 . S
C997 O1007 1.265 . S
O998 C997 1.227 . S
N999 Co996 2.121 . S
N999 C1001 1.375 . S
N999 C1002 1.313 . S
C1000 C1001 1.338 . S
C1000 N1003 1.377 . S
C1000 H1020 0.930 . S
C1001 N999 1.375 . S
C1001 C1000 1.338 . S
C1001 H1005 0.931 . S
C1002 N999 1.313 . S
C1002 N1003 1.344 . S
C1002 H1006 0.930 . S
N1003 C1000 1.377 . S
N1003 C1002 1.344 . S
O1004 Co996 2.055 . S
O1004 C1008 1.253 . S
H1005 C1001 0.931 . S
H1006 C1002 0.930 . S
O1007 Co996 2.039 . S
O1007 C997 1.265 . S
C1008 O1004 1.253 . S
C1008 O1009 1.227 . S
O1009 C1008 1.227 . S
N1010 Co996 2.140 . S
N1010 C1013 1.346 . S
N1010 C1014 1.345 . S
C1011 C1012 1.387 . S
C1011 C1015 1.391 . S
C1012 C1011 1.387 . S
C1012 C1013 1.369 . S
C1012 H1021 0.929 . S
C1013 N1010 1.346 . S
C1013 C1012 1.369 . S
C1013 H1016 0.928 . S
C1014 N1010 1.345 . S
C1014 C1015 1.371 . S
C1014 H1017 0.931 . S
C1015 C1011 1.391 . S
C1015 C1014 1.371 . S
C1015 H1022 0.930 . S
H1016 C1013 0.928 . S
H1017 C1014 0.931 . S
H1018 C994 0.930 . S
H1019 C991 0.930 . S
H1020 C1000 0.930 . S
H1021 C1012 0.929 . S
H1022 C1015 0.930 . S
C1023 C1024 1.351 . S
C1023 N1026 1.368 . S
C1023 H1028 0.931 . S
C1024 C1023 1.351 . S
C1024 N1025 1.373 . S
C1024 H1052 0.930 . S
N1025 C1024 1.373 . S
N1025 C1027 1.340 . S
N1026 C1023 1.368 . S
N1026 C1027 1.321 . S
N1026 Co1029 2.135 . S
C1027 N1025 1.340 . S
C1027 N1026 1.321 . S
C1027 H1051 0.930 . S
H1028 C1023 0.931 . S
Co1029 N1026 2.135 . S
Co1029 N1032 2.121 . S
Co1029 O1037 2.055 . S
Co1029 O1040 2.039 . S
Co1029 N1043 2.140 . S
C1030 O1031 1.227 . S
C1030 O1040 1.265 . S
O1031 C1030 1.227 . S
N1032 Co1029 2.121 . S
N1032 C1034 1.375 . S
N1032 C1035 1.313 . S
C1033 C1034 1.338 . S
C1033 N1036 1.377 . S
C1033 H1053 0.930 . S
C1034 N1032 1.375 . S
C1034 C1033 1.338 . S
C1034 H1038 0.931 . S
C1035 N1032 1.313 . S
C1035 N1036 1.344 . S
C1035 H1039 0.930 . S
N1036 C1033 1.377 . S
N1036 C1035 1.344 . S
O1037 Co1029 2.055 . S
O1037 C1041 1.253 . S
H1038 C1034 0.931 . S
H1039 C1035 0.930 . S
O1040 Co1029 2.039 . S
O1040 C1030 1.265 . S
C1041 O1037 1.253 . S
C1041 O1042 1.227 . S
O1042 C1041 1.227 . S
N1043 Co1029 2.140 . S
N1043 C1046 1.346 . S
N1043 C1047 1.345 . S
C1044 C1045 1.387 . S
C1044 C1048 1.391 . S
C1045 C1044 1.387 . S
C1045 C1046 1.369 . S
C1045 H1054 0.929 . S
C1046 N1043 1.346 . S
C1046 C1045 1.369 . S
C1046 H1049 0.928 . S
C1047 N1043 1.345 . S
C1047 C1048 1.371 . S
C1047 H1050 0.931 . S
C1048 C1044 1.391 . S
C1048 C1047 1.371 . S
C1048 H1055 0.930 . S
H1049 C1046 0.928 . S
H1050 C1047 0.931 . S
H1051 C1027 0.930 . S
H1052 C1024 0.930 . S
H1053 C1033 0.930 . S
H1054 C1045 0.929 . S
H1055 C1048 0.930 . S
C1056 C1057 1.351 . S
C1056 N1059 1.368 . S
C1056 H1061 0.931 . S
C1057 C1056 1.351 . S
C1057 N1058 1.373 . S
C1057 H1085 0.930 . S
N1058 C1057 1.373 . S
N1058 C1060 1.340 . S
N1059 C1056 1.368 . S
N1059 C1060 1.321 . S
N1059 Co1062 2.135 . S
C1060 N1058 1.340 . S
C1060 N1059 1.321 . S
C1060 H1084 0.930 . S
H1061 C1056 0.931 . S
Co1062 N1059 2.135 . S
Co1062 N1065 2.121 . S
Co1062 O1070 2.055 . S
Co1062 O1073 2.039 . S
Co1062 N1076 2.140 . S
C1063 O1064 1.227 . S
C1063 O1073 1.265 . S
O1064 C1063 1.227 . S
N1065 Co1062 2.121 . S
N1065 C1067 1.375 . S
N1065 C1068 1.313 . S
C1066 C1067 1.338 . S
C1066 N1069 1.377 . S
C1066 H1086 0.930 . S
C1067 N1065 1.375 . S
C1067 C1066 1.338 . S
C1067 H1071 0.931 . S
C1068 N1065 1.313 . S
C1068 N1069 1.344 . S
C1068 H1072 0.930 . S
N1069 C1066 1.377 . S
N1069 C1068 1.344 . S
O1070 Co1062 2.055 . S
O1070 C1074 1.253 . S
H1071 C1067 0.931 . S
H1072 C1068 0.930 . S
O1073 Co1062 2.039 . S
O1073 C1063 1.265 . S
C1074 O1070 1.253 . S
C1074 O1075 1.227 . S
O1075 C1074 1.227 . S
N1076 Co1062 2.140 . S
N1076 C1079 1.346 . S
N1076 C1080 1.345 . S
C1077 C1078 1.387 . S
C1077 C1081 1.391 . S
C1078 C1077 1.387 . S
C1078 C1079 1.369 . S
C1078 H1087 0.929 . S
C1079 N1076 1.346 . S
C1079 C1078 1.369 . S
C1079 H1082 0.928 . S
C1080 N1076 1.345 . S
C1080 C1081 1.371 . S
C1080 H1083 0.931 . S
C1081 C1077 1.391 . S
C1081 C1080 1.371 . S
C1081 H1088 0.930 . S
H1082 C1079 0.928 . S
H1083 C1080 0.931 . S
H1084 C1060 0.930 . S
H1085 C1057 0.930 . S
H1086 C1066 0.930 . S
H1087 C1078 0.929 . S
H1088 C1081 0.930 . S
C1089 C1090 1.351 . S
C1089 N1092 1.368 . S
C1089 H1094 0.931 . S
C1090 C1089 1.351 . S
C1090 N1091 1.373 . S
C1090 H1118 0.921 1_556 S
N1091 C1090 1.373 . S
N1091 C1093 1.340 . S
N1092 C1089 1.368 . S
N1092 C1093 1.321 . S
N1092 Co1095 2.135 . S
C1093 N1091 1.340 . S
C1093 N1092 1.321 . S
C1093 H1117 0.930 . S
H1094 C1089 0.931 . S
Co1095 N1092 2.135 . S
Co1095 N1098 2.121 . S
Co1095 O1103 2.055 . S
Co1095 O1106 2.039 . S
Co1095 N1109 2.140 . S
C1096 O1097 1.227 . S
C1096 O1106 1.265 . S
O1097 C1096 1.227 . S
N1098 Co1095 2.121 . S
N1098 C1100 1.375 . S
N1098 C1101 1.313 . S
C1099 C1100 1.338 . S
C1099 N1102 1.377 . S
C1099 H1119 0.930 . S
C1100 N1098 1.375 . S
C1100 C1099 1.338 . S
C1100 H1104 0.931 . S
C1101 N1098 1.313 . S
C1101 N1102 1.344 . S
C1101 H1105 0.930 . S
N1102 C1099 1.377 . S
N1102 C1101 1.344 . S
O1103 Co1095 2.055 . S
O1103 C1107 1.253 . S
H1104 C1100 0.931 . S
H1105 C1101 0.930 . S
O1106 Co1095 2.039 . S
O1106 C1096 1.265 . S
C1107 O1103 1.253 . S
C1107 O1108 1.227 . S
O1108 C1107 1.227 . S
N1109 Co1095 2.140 . S
N1109 C1112 1.346 . S
N1109 C1113 1.345 . S
C1110 C1111 1.387 . S
C1110 C1114 1.391 . S
C1111 C1110 1.387 . S
C1111 C1112 1.369 . S
C1111 H1120 0.929 . S
C1112 N1109 1.346 . S
C1112 C1111 1.369 . S
C1112 H1115 0.928 . S
C1113 N1109 1.345 . S
C1113 C1114 1.371 . S
C1113 H1116 0.931 . S
C1114 C1110 1.391 . S
C1114 C1113 1.371 . S
C1114 H1121 0.930 . S
H1115 C1112 0.928 . S
H1116 C1113 0.931 . S
H1117 C1093 0.930 . S
H1118 C1090 0.921 1_554 S
H1119 C1099 0.930 . S
H1120 C1111 0.929 . S
H1121 C1114 0.930 . S
C1122 C1123 1.351 . S
C1122 N1125 1.368 . S
C1122 H1127 0.931 . S
C1123 C1122 1.351 . S
C1123 N1124 1.373 . S
C1123 H1151 0.930 . S
N1124 C1123 1.373 . S
N1124 C1126 1.340 . S
N1125 C1122 1.368 . S
N1125 C1126 1.321 . S
N1125 Co1128 2.135 . S
C1126 N1124 1.340 . S
C1126 N1125 1.321 . S
C1126 H1150 0.930 . S
H1127 C1122 0.931 . S
Co1128 N1125 2.135 . S
Co1128 N1131 2.121 . S
Co1128 O1136 2.055 . S
Co1128 O1139 2.039 . S
Co1128 N1142 2.140 . S
C1129 O1130 1.227 . S
C1129 O1139 1.265 . S
O1130 C1129 1.227 . S
N1131 Co1128 2.121 . S
N1131 C1133 1.375 . S
N1131 C1134 1.313 . S
C1132 C1133 1.338 . S
C1132 N1135 1.377 . S
C1132 H1152 0.930 . S
C1133 N1131 1.375 . S
C1133 C1132 1.338 . S
C1133 H1137 0.931 . S
C1134 N1131 1.313 . S
C1134 N1135 1.344 . S
C1134 H1138 0.930 . S
N1135 C1132 1.377 . S
N1135 C1134 1.344 . S
O1136 Co1128 2.055 . S
O1136 C1140 1.253 . S
H1137 C1133 0.931 . S
H1138 C1134 0.930 . S
O1139 Co1128 2.039 . S
O1139 C1129 1.265 . S
C1140 O1136 1.253 . S
C1140 O1141 1.227 . S
O1141 C1140 1.227 . S
N1142 Co1128 2.140 . S
N1142 C1145 1.346 . S
N1142 C1146 1.345 . S
C1143 C1144 1.387 . S
C1143 C1147 1.391 . S
C1144 C1143 1.387 . S
C1144 C1145 1.369 . S
C1144 H1153 0.929 . S
C1145 N1142 1.346 . S
C1145 C1144 1.369 . S
C1145 H1148 0.928 . S
C1146 N1142 1.345 . S
C1146 C1147 1.371 . S
C1146 H1149 0.931 . S
C1147 C1143 1.391 . S
C1147 C1146 1.371 . S
C1147 H1154 0.930 . S
H1148 C1145 0.928 . S
H1149 C1146 0.931 . S
H1150 C1126 0.930 . S
H1151 C1123 0.930 . S
H1152 C1132 0.930 . S
H1153 C1144 0.929 . S
H1154 C1147 0.930 . S
C1155 C1156 1.351 . S
C1155 N1158 1.368 . S
C1155 H1160 0.931 . S
C1156 C1155 1.351 . S
C1156 N1157 1.373 . S
C1156 H1184 0.930 . S
N1157 C1156 1.373 . S
N1157 C1159 1.340 . S
N1158 C1155 1.368 . S
N1158 C1159 1.321 . S
N1158 Co1161 2.135 . S
C1159 N1157 1.340 . S
C1159 N1158 1.321 . S
C1159 H1183 0.930 . S
H1160 C1155 0.931 . S
Co1161 N1158 2.135 . S
Co1161 N1164 2.121 . S
Co1161 O1169 2.055 . S
Co1161 O1172 2.039 . S
Co1161 N1175 2.140 . S
C1162 O1163 1.227 . S
C1162 O1172 1.265 . S
O1163 C1162 1.227 . S
N1164 Co1161 2.121 . S
N1164 C1166 1.375 . S
N1164 C1167 1.313 . S
C1165 C1166 1.338 . S
C1165 N1168 1.377 . S
C1165 H1185 0.930 . S
C1166 N1164 1.375 . S
C1166 C1165 1.338 . S
C1166 H1170 0.931 . S
C1167 N1164 1.313 . S
C1167 N1168 1.344 . S
C1167 H1171 0.930 . S
N1168 C1165 1.377 . S
N1168 C1167 1.344 . S
O1169 Co1161 2.055 . S
O1169 C1173 1.253 . S
H1170 C1166 0.931 . S
H1171 C1167 0.930 . S
O1172 Co1161 2.039 . S
O1172 C1162 1.265 . S
C1173 O1169 1.253 . S
C1173 O1174 1.227 . S
O1174 C1173 1.227 . S
N1175 Co1161 2.140 . S
N1175 C1178 1.346 . S
N1175 C1179 1.345 . S
C1176 C1177 1.387 . S
C1176 C1180 1.391 . S
C1177 C1176 1.387 . S
C1177 C1178 1.369 . S
C1177 H1186 0.929 . S
C1178 N1175 1.346 . S
C1178 C1177 1.369 . S
C1178 H1181 0.928 . S
C1179 N1175 1.345 . S
C1179 C1180 1.371 . S
C1179 H1182 0.931 . S
C1180 C1176 1.391 . S
C1180 C1179 1.371 . S
C1180 H1187 0.930 . S
H1181 C1178 0.928 . S
H1182 C1179 0.931 . S
H1183 C1159 0.930 . S
H1184 C1156 0.930 . S
H1185 C1165 0.930 . S
H1186 C1177 0.929 . S
H1187 C1180 0.930 . S
C1188 C1189 1.351 . S
C1188 N1191 1.368 . S
C1188 H1193 0.931 . S
C1189 C1188 1.351 . S
C1189 N1190 1.373 . S
C1189 H1217 0.930 . S
N1190 C1189 1.373 . S
N1190 C1192 1.340 . S
N1191 C1188 1.368 . S
N1191 C1192 1.321 . S
N1191 Co1194 2.135 . S
C1192 N1190 1.340 . S
C1192 N1191 1.321 . S
C1192 H1216 0.930 . S
H1193 C1188 0.931 . S
Co1194 N1191 2.135 . S
Co1194 N1197 2.121 . S
Co1194 O1202 2.055 . S
Co1194 O1205 2.039 . S
Co1194 N1208 2.140 . S
C1195 O1196 1.227 . S
C1195 O1205 1.265 . S
O1196 C1195 1.227 . S
N1197 Co1194 2.121 . S
N1197 C1199 1.375 . S
N1197 C1200 1.313 . S
C1198 C1199 1.338 . S
C1198 N1201 1.377 . S
C1198 H1218 0.930 . S
C1199 N1197 1.375 . S
C1199 C1198 1.338 . S
C1199 H1203 0.931 . S
C1200 N1197 1.313 . S
C1200 N1201 1.344 . S
C1200 H1204 0.930 . S
N1201 C1198 1.377 . S
N1201 C1200 1.344 . S
O1202 Co1194 2.055 . S
O1202 C1206 1.253 . S
H1203 C1199 0.931 . S
H1204 C1200 0.930 . S
O1205 Co1194 2.039 . S
O1205 C1195 1.265 . S
C1206 O1202 1.253 . S
C1206 O1207 1.227 . S
O1207 C1206 1.227 . S
N1208 Co1194 2.140 . S
N1208 C1211 1.346 . S
N1208 C1212 1.345 . S
C1209 C1210 1.387 . S
C1209 C1213 1.391 . S
C1210 C1209 1.387 . S
C1210 C1211 1.369 . S
C1210 H1219 0.929 . S
C1211 N1208 1.346 . S
C1211 C1210 1.369 . S
C1211 H1214 0.928 . S
C1212 N1208 1.345 . S
C1212 C1213 1.371 . S
C1212 H1215 0.931 . S
C1213 C1209 1.391 . S
C1213 C1212 1.371 . S
C1213 H1220 0.930 . S
H1214 C1211 0.928 . S
H1215 C1212 0.931 . S
H1216 C1192 0.930 . S
H1217 C1189 0.930 . S
H1218 C1198 0.930 . S
H1219 C1210 0.929 . S
H1220 C1213 0.930 . S
C1221 C1222 1.351 . S
C1221 N1224 1.368 . S
C1221 H1226 0.931 . S
C1222 C1221 1.351 . S
C1222 N1223 1.373 . S
C1222 H1250 0.921 1_554 S
N1223 C1222 1.373 . S
N1223 C1225 1.340 . S
N1224 C1221 1.368 . S
N1224 C1225 1.321 . S
N1224 Co1227 2.135 . S
C1225 N1223 1.340 . S
C1225 N1224 1.321 . S
C1225 H1249 0.930 . S
H1226 C1221 0.931 . S
Co1227 N1224 2.135 . S
Co1227 N1230 2.121 . S
Co1227 O1235 2.055 . S
Co1227 O1238 2.039 . S
Co1227 N1241 2.140 . S
C1228 O1229 1.227 . S
C1228 O1238 1.265 . S
O1229 C1228 1.227 . S
N1230 Co1227 2.121 . S
N1230 C1232 1.375 . S
N1230 C1233 1.313 . S
C1231 C1232 1.338 . S
C1231 N1234 1.377 . S
C1231 H1251 0.930 . S
C1232 N1230 1.375 . S
C1232 C1231 1.338 . S
C1232 H1236 0.931 . S
C1233 N1230 1.313 . S
C1233 N1234 1.344 . S
C1233 H1237 0.930 . S
N1234 C1231 1.377 . S
N1234 C1233 1.344 . S
O1235 Co1227 2.055 . S
O1235 C1239 1.253 . S
H1236 C1232 0.931 . S
H1237 C1233 0.930 . S
O1238 Co1227 2.039 . S
O1238 C1228 1.265 . S
C1239 O1235 1.253 . S
C1239 O1240 1.227 . S
O1240 C1239 1.227 . S
N1241 Co1227 2.140 . S
N1241 C1244 1.346 . S
N1241 C1245 1.345 . S
C1242 C1243 1.387 . S
C1242 C1246 1.391 . S
C1243 C1242 1.387 . S
C1243 C1244 1.369 . S
C1243 H1252 0.929 . S
C1244 N1241 1.346 . S
C1244 C1243 1.369 . S
C1244 H1247 0.928 . S
C1245 N1241 1.345 . S
C1245 C1246 1.371 . S
C1245 H1248 0.931 . S
C1246 C1242 1.391 . S
C1246 C1245 1.371 . S
C1246 H1253 0.930 . S
H1247 C1244 0.928 . S
H1248 C1245 0.931 . S
H1249 C1225 0.930 . S
H1250 C1222 0.921 1_556 S
H1251 C1231 0.930 . S
H1252 C1243 0.929 . S
H1253 C1246 0.930 . S
C1254 C1255 1.351 . S
C1254 N1257 1.368 . S
C1254 H1259 0.931 . S
C1255 C1254 1.351 . S
C1255 N1256 1.373 . S
C1255 H1283 0.930 . S
N1256 C1255 1.373 . S
N1256 C1258 1.340 . S
N1257 C1254 1.368 . S
N1257 C1258 1.321 . S
N1257 Co1260 2.135 . S
C1258 N1256 1.340 . S
C1258 N1257 1.321 . S
C1258 H1282 0.930 . S
H1259 C1254 0.931 . S
Co1260 N1257 2.135 . S
Co1260 N1263 2.121 . S
Co1260 O1268 2.055 . S
Co1260 O1271 2.039 . S
Co1260 N1274 2.140 . S
C1261 O1262 1.227 . S
C1261 O1271 1.265 . S
O1262 C1261 1.227 . S
N1263 Co1260 2.121 . S
N1263 C1265 1.375 . S
N1263 C1266 1.313 . S
C1264 C1265 1.338 . S
C1264 N1267 1.377 . S
C1264 H1284 0.930 . S
C1265 N1263 1.375 . S
C1265 C1264 1.338 . S
C1265 H1269 0.931 . S
C1266 N1263 1.313 . S
C1266 N1267 1.344 . S
C1266 H1270 0.930 . S
N1267 C1264 1.377 . S
N1267 C1266 1.344 . S
O1268 Co1260 2.055 . S
O1268 C1272 1.253 . S
H1269 C1265 0.931 . S
H1270 C1266 0.930 . S
O1271 Co1260 2.039 . S
O1271 C1261 1.265 . S
C1272 O1268 1.253 . S
C1272 O1273 1.227 . S
O1273 C1272 1.227 . S
N1274 Co1260 2.140 . S
N1274 C1277 1.346 . S
N1274 C1278 1.345 . S
C1275 C1276 1.387 . S
C1275 C1279 1.391 . S
C1276 C1275 1.387 . S
C1276 C1277 1.369 . S
C1276 H1285 0.929 . S
C1277 N1274 1.346 . S
C1277 C1276 1.369 . S
C1277 H1280 0.928 . S
C1278 N1274 1.345 . S
C1278 C1279 1.371 . S
C1278 H1281 0.931 . S
C1279 C1275 1.391 . S
C1279 C1278 1.371 . S
C1279 H1286 0.930 . S
H1280 C1277 0.928 . S
H1281 C1278 0.931 . S
H1282 C1258 0.930 . S
H1283 C1255 0.930 . S
H1284 C1264 0.930 . S
H1285 C1276 0.929 . S
H1286 C1279 0.930 . S
C1287 C1288 1.351 . S
C1287 N1290 1.368 . S
C1287 H1292 0.931 . S
C1288 C1287 1.351 . S
C1288 N1289 1.373 . S
C1288 H1316 0.930 . S
N1289 C1288 1.373 . S
N1289 C1291 1.340 . S
N1290 C1287 1.368 . S
N1290 C1291 1.321 . S
N1290 Co1293 2.135 . S
C1291 N1289 1.340 . S
C1291 N1290 1.321 . S
C1291 H1315 0.930 . S
H1292 C1287 0.931 . S
Co1293 N1290 2.135 . S
Co1293 N1296 2.121 . S
Co1293 O1301 2.055 . S
Co1293 O1304 2.039 . S
Co1293 N1307 2.140 . S
C1294 O1295 1.227 . S
C1294 O1304 1.265 . S
O1295 C1294 1.227 . S
N1296 Co1293 2.121 . S
N1296 C1298 1.375 . S
N1296 C1299 1.313 . S
C1297 C1298 1.338 . S
C1297 N1300 1.377 . S
C1297 H1317 0.930 . S
C1298 N1296 1.375 . S
C1298 C1297 1.338 . S
C1298 H1302 0.931 . S
C1299 N1296 1.313 . S
C1299 N1300 1.344 . S
C1299 H1303 0.930 . S
N1300 C1297 1.377 . S
N1300 C1299 1.344 . S
O1301 Co1293 2.055 . S
O1301 C1305 1.253 . S
H1302 C1298 0.931 . S
H1303 C1299 0.930 . S
O1304 Co1293 2.039 . S
O1304 C1294 1.265 . S
C1305 O1301 1.253 . S
C1305 O1306 1.227 . S
O1306 C1305 1.227 . S
N1307 Co1293 2.140 . S
N1307 C1310 1.346 . S
N1307 C1311 1.345 . S
C1308 C1309 1.387 . S
C1308 C1312 1.391 . S
C1309 C1308 1.387 . S
C1309 C1310 1.369 . S
C1309 H1318 0.929 . S
C1310 N1307 1.346 . S
C1310 C1309 1.369 . S
C1310 H1313 0.928 . S
C1311 N1307 1.345 . S
C1311 C1312 1.371 . S
C1311 H1314 0.931 . S
C1312 C1308 1.391 . S
C1312 C1311 1.371 . S
C1312 H1319 0.930 . S
H1313 C1310 0.928 . S
H1314 C1311 0.931 . S
H1315 C1291 0.930 . S
H1316 C1288 0.930 . S
H1317 C1297 0.930 . S
H1318 C1309 0.929 . S
H1319 C1312 0.930 . S
C1320 C1321 1.351 . S
C1320 N1323 1.368 . S
C1320 H1325 0.931 . S
C1321 C1320 1.351 . S
C1321 N1322 1.373 . S
C1321 H1349 0.930 . S
N1322 C1321 1.373 . S
N1322 C1324 1.340 . S
N1323 C1320 1.368 . S
N1323 C1324 1.321 . S
N1323 Co1326 2.135 . S
C1324 N1322 1.340 . S
C1324 N1323 1.321 . S
C1324 H1348 0.930 . S
H1325 C1320 0.931 . S
Co1326 N1323 2.135 . S
Co1326 N1329 2.121 . S
Co1326 O1334 2.055 . S
Co1326 O1337 2.039 . S
Co1326 N1340 2.140 . S
C1327 O1328 1.227 . S
C1327 O1337 1.265 . S
O1328 C1327 1.227 . S
N1329 Co1326 2.121 . S
N1329 C1331 1.375 . S
N1329 C1332 1.313 . S
C1330 C1331 1.338 . S
C1330 N1333 1.377 . S
C1330 H1350 0.930 . S
C1331 N1329 1.375 . S
C1331 C1330 1.338 . S
C1331 H1335 0.931 . S
C1332 N1329 1.313 . S
C1332 N1333 1.344 . S
C1332 H1336 0.930 . S
N1333 C1330 1.377 . S
N1333 C1332 1.344 . S
O1334 Co1326 2.055 . S
O1334 C1338 1.253 . S
H1335 C1331 0.931 . S
H1336 C1332 0.930 . S
O1337 Co1326 2.039 . S
O1337 C1327 1.265 . S
C1338 O1334 1.253 . S
C1338 O1339 1.227 . S
O1339 C1338 1.227 . S
N1340 Co1326 2.140 . S
N1340 C1343 1.346 . S
N1340 C1344 1.345 . S
C1341 C1342 1.387 . S
C1341 C1345 1.391 . S
C1342 C1341 1.387 . S
C1342 C1343 1.369 . S
C1342 H1351 0.929 . S
C1343 N1340 1.346 . S
C1343 C1342 1.369 . S
C1343 H1346 0.928 . S
C1344 N1340 1.345 . S
C1344 C1345 1.371 . S
C1344 H1347 0.931 . S
C1345 C1341 1.391 . S
C1345 C1344 1.371 . S
C1345 H1352 0.930 . S
H1346 C1343 0.928 . S
H1347 C1344 0.931 . S
H1348 C1324 0.930 . S
H1349 C1321 0.930 . S
H1350 C1330 0.930 . S
H1351 C1342 0.929 . S
H1352 C1345 0.930 . S
C1353 C1354 1.351 . S
C1353 N1356 1.368 . S
C1353 H1358 0.931 . S
C1354 C1353 1.351 . S
C1354 N1355 1.373 . S
C1354 H1382 0.930 . S
N1355 C1354 1.373 . S
N1355 C1357 1.340 . S
N1356 C1353 1.368 . S
N1356 C1357 1.321 . S
N1356 Co1359 2.135 . S
C1357 N1355 1.340 . S
C1357 N1356 1.321 . S
C1357 H1381 0.930 . S
H1358 C1353 0.931 . S
Co1359 N1356 2.135 . S
Co1359 N1362 2.121 . S
Co1359 O1367 2.055 . S
Co1359 O1370 2.039 . S
Co1359 N1373 2.140 . S
C1360 O1361 1.227 . S
C1360 O1370 1.265 . S
O1361 C1360 1.227 . S
N1362 Co1359 2.121 . S
N1362 C1364 1.375 . S
N1362 C1365 1.313 . S
C1363 C1364 1.338 . S
C1363 N1366 1.377 . S
C1363 H1383 0.930 . S
C1364 N1362 1.375 . S
C1364 C1363 1.338 . S
C1364 H1368 0.931 . S
C1365 N1362 1.313 . S
C1365 N1366 1.344 . S
C1365 H1369 0.930 . S
N1366 C1363 1.377 . S
N1366 C1365 1.344 . S
O1367 Co1359 2.055 . S
O1367 C1371 1.253 . S
H1368 C1364 0.931 . S
H1369 C1365 0.930 . S
O1370 Co1359 2.039 . S
O1370 C1360 1.265 . S
C1371 O1367 1.253 . S
C1371 O1372 1.227 . S
O1372 C1371 1.227 . S
N1373 Co1359 2.140 . S
N1373 C1376 1.346 . S
N1373 C1377 1.345 . S
C1374 C1375 1.387 . S
C1374 C1378 1.391 . S
C1375 C1374 1.387 . S
C1375 C1376 1.369 . S
C1375 H1384 0.929 . S
C1376 N1373 1.346 . S
C1376 C1375 1.369 . S
C1376 H1379 0.928 . S
C1377 N1373 1.345 . S
C1377 C1378 1.371 . S
C1377 H1380 0.931 . S
C1378 C1374 1.391 . S
C1378 C1377 1.371 . S
C1378 H1385 0.930 . S
H1379 C1376 0.928 . S
H1380 C1377 0.931 . S
H1381 C1357 0.930 . S
H1382 C1354 0.930 . S
H1383 C1363 0.930 . S
H1384 C1375 0.929 . S
H1385 C1378 0.930 . S
C1386 C1387 1.351 . S
C1386 N1389 1.368 . S
C1386 H1391 0.931 . S
C1387 C1386 1.351 . S
C1387 N1388 1.373 . S
C1387 H1415 0.921 1_565 S
N1388 C1387 1.373 . S
N1388 C1390 1.340 . S
N1389 C1386 1.368 . S
N1389 C1390 1.321 . S
N1389 Co1392 2.135 . S
C1390 N1388 1.340 . S
C1390 N1389 1.321 . S
C1390 H1414 0.930 . S
H1391 C1386 0.931 . S
Co1392 N1389 2.135 . S
Co1392 N1395 2.121 . S
Co1392 O1400 2.055 . S
Co1392 O1403 2.039 . S
Co1392 N1406 2.140 . S
C1393 O1394 1.227 . S
C1393 O1403 1.265 . S
O1394 C1393 1.227 . S
N1395 Co1392 2.121 . S
N1395 C1397 1.375 . S
N1395 C1398 1.313 . S
C1396 C1397 1.338 . S
C1396 N1399 1.377 . S
C1396 H1416 0.930 . S
C1397 N1395 1.375 . S
C1397 C1396 1.338 . S
C1397 H1401 0.931 . S
C1398 N1395 1.313 . S
C1398 N1399 1.344 . S
C1398 H1402 0.930 . S
N1399 C1396 1.377 . S
N1399 C1398 1.344 . S
O1400 Co1392 2.055 . S
O1400 C1404 1.253 . S
H1401 C1397 0.931 . S
H1402 C1398 0.930 . S
O1403 Co1392 2.039 . S
O1403 C1393 1.265 . S
C1404 O1400 1.253 . S
C1404 O1405 1.227 . S
O1405 C1404 1.227 . S
N1406 Co1392 2.140 . S
N1406 C1409 1.346 . S
N1406 C1410 1.345 . S
C1407 C1408 1.387 . S
C1407 C1411 1.391 . S
C1408 C1407 1.387 . S
C1408 C1409 1.369 . S
C1408 H1417 0.929 . S
C1409 N1406 1.346 . S
C1409 C1408 1.369 . S
C1409 H1412 0.928 . S
C1410 N1406 1.345 . S
C1410 C1411 1.371 . S
C1410 H1413 0.931 . S
C1411 C1407 1.391 . S
C1411 C1410 1.371 . S
C1411 H1418 0.930 . S
H1412 C1409 0.928 . S
H1413 C1410 0.931 . S
H1414 C1390 0.930 . S
H1415 C1387 0.921 1_545 S
H1416 C1396 0.930 . S
H1417 C1408 0.929 . S
H1418 C1411 0.930 . S
C1419 C1420 1.351 . S
C1419 N1422 1.368 . S
C1419 H1424 0.931 . S
C1420 C1419 1.351 . S
C1420 N1421 1.373 . S
C1420 H1448 0.930 . S
N1421 C1420 1.373 . S
N1421 C1423 1.340 . S
N1422 C1419 1.368 . S
N1422 C1423 1.321 . S
N1422 Co1425 2.135 . S
C1423 N1421 1.340 . S
C1423 N1422 1.321 . S
C1423 H1447 0.930 . S
H1424 C1419 0.931 . S
Co1425 N1422 2.135 . S
Co1425 N1428 2.121 . S
Co1425 O1433 2.055 . S
Co1425 O1436 2.039 . S
Co1425 N1439 2.140 . S
C1426 O1427 1.227 . S
C1426 O1436 1.265 . S
O1427 C1426 1.227 . S
N1428 Co1425 2.121 . S
N1428 C1430 1.375 . S
N1428 C1431 1.313 . S
C1429 C1430 1.338 . S
C1429 N1432 1.377 . S
C1429 H1449 0.930 . S
C1430 N1428 1.375 . S
C1430 C1429 1.338 . S
C1430 H1434 0.931 . S
C1431 N1428 1.313 . S
C1431 N1432 1.344 . S
C1431 H1435 0.930 . S
N1432 C1429 1.377 . S
N1432 C1431 1.344 . S
O1433 Co1425 2.055 . S
O1433 C1437 1.253 . S
H1434 C1430 0.931 . S
H1435 C1431 0.930 . S
O1436 Co1425 2.039 . S
O1436 C1426 1.265 . S
C1437 O1433 1.253 . S
C1437 O1438 1.227 . S
O1438 C1437 1.227 . S
N1439 Co1425 2.140 . S
N1439 C1442 1.346 . S
N1439 C1443 1.345 . S
C1440 C1441 1.387 . S
C1440 C1444 1.391 . S
C1441 C1440 1.387 . S
C1441 C1442 1.369 . S
C1441 H1450 0.929 . S
C1442 N1439 1.346 . S
C1442 C1441 1.369 . S
C1442 H1445 0.928 . S
C1443 N1439 1.345 . S
C1443 C1444 1.371 . S
C1443 H1446 0.931 . S
C1444 C1440 1.391 . S
C1444 C1443 1.371 . S
C1444 H1451 0.930 . S
H1445 C1442 0.928 . S
H1446 C1443 0.931 . S
H1447 C1423 0.930 . S
H1448 C1420 0.930 . S
H1449 C1429 0.930 . S
H1450 C1441 0.929 . S
H1451 C1444 0.930 . S
C1452 C1453 1.351 . S
C1452 N1455 1.368 . S
C1452 H1457 0.931 . S
C1453 C1452 1.351 . S
C1453 N1454 1.373 . S
C1453 H1481 0.930 . S
N1454 C1453 1.373 . S
N1454 C1456 1.340 . S
N1455 C1452 1.368 . S
N1455 C1456 1.321 . S
N1455 Co1458 2.135 . S
C1456 N1454 1.340 . S
C1456 N1455 1.321 . S
C1456 H1480 0.930 . S
H1457 C1452 0.931 . S
Co1458 N1455 2.135 . S
Co1458 N1461 2.121 . S
Co1458 O1466 2.055 . S
Co1458 O1469 2.039 . S
Co1458 N1472 2.140 . S
C1459 O1460 1.227 . S
C1459 O1469 1.265 . S
O1460 C1459 1.227 . S
N1461 Co1458 2.121 . S
N1461 C1463 1.375 . S
N1461 C1464 1.313 . S
C1462 C1463 1.338 . S
C1462 N1465 1.377 . S
C1462 H1482 0.930 . S
C1463 N1461 1.375 . S
C1463 C1462 1.338 . S
C1463 H1467 0.931 . S
C1464 N1461 1.313 . S
C1464 N1465 1.344 . S
C1464 H1468 0.930 . S
N1465 C1462 1.377 . S
N1465 C1464 1.344 . S
O1466 Co1458 2.055 . S
O1466 C1470 1.253 . S
H1467 C1463 0.931 . S
H1468 C1464 0.930 . S
O1469 Co1458 2.039 . S
O1469 C1459 1.265 . S
C1470 O1466 1.253 . S
C1470 O1471 1.227 . S
O1471 C1470 1.227 . S
N1472 Co1458 2.140 . S
N1472 C1475 1.346 . S
N1472 C1476 1.345 . S
C1473 C1474 1.387 . S
C1473 C1477 1.391 . S
C1474 C1473 1.387 . S
C1474 C1475 1.369 . S
C1474 H1483 0.929 . S
C1475 N1472 1.346 . S
C1475 C1474 1.369 . S
C1475 H1478 0.928 . S
C1476 N1472 1.345 . S
C1476 C1477 1.371 . S
C1476 H1479 0.931 . S
C1477 C1473 1.391 . S
C1477 C1476 1.371 . S
C1477 H1484 0.930 . S
H1478 C1475 0.928 . S
H1479 C1476 0.931 . S
H1480 C1456 0.930 . S
H1481 C1453 0.930 . S
H1482 C1462 0.930 . S
H1483 C1474 0.929 . S
H1484 C1477 0.930 . S
C1485 C1486 1.351 . S
C1485 N1488 1.368 . S
C1485 H1490 0.931 . S
C1486 C1485 1.351 . S
C1486 N1487 1.373 . S
C1486 H1514 0.930 . S
N1487 C1486 1.373 . S
N1487 C1489 1.340 . S
N1488 C1485 1.368 . S
N1488 C1489 1.321 . S
N1488 Co1491 2.135 . S
C1489 N1487 1.340 . S
C1489 N1488 1.321 . S
C1489 H1513 0.930 . S
H1490 C1485 0.931 . S
Co1491 N1488 2.135 . S
Co1491 N1494 2.121 . S
Co1491 O1499 2.055 . S
Co1491 O1502 2.039 . S
Co1491 N1505 2.140 . S
C1492 O1493 1.227 . S
C1492 O1502 1.265 . S
O1493 C1492 1.227 . S
N1494 Co1491 2.121 . S
N1494 C1496 1.375 . S
N1494 C1497 1.313 . S
C1495 C1496 1.338 . S
C1495 N1498 1.377 . S
C1495 H1515 0.930 . S
C1496 N1494 1.375 . S
C1496 C1495 1.338 . S
C1496 H1500 0.931 . S
C1497 N1494 1.313 . S
C1497 N1498 1.344 . S
C1497 H1501 0.930 . S
N1498 C1495 1.377 . S
N1498 C1497 1.344 . S
O1499 Co1491 2.055 . S
O1499 C1503 1.253 . S
H1500 C1496 0.931 . S
H1501 C1497 0.930 . S
O1502 Co1491 2.039 . S
O1502 C1492 1.265 . S
C1503 O1499 1.253 . S
C1503 O1504 1.227 . S
O1504 C1503 1.227 . S
N1505 Co1491 2.140 . S
N1505 C1508 1.346 . S
N1505 C1509 1.345 . S
C1506 C1507 1.387 . S
C1506 C1510 1.391 . S
C1507 C1506 1.387 . S
C1507 C1508 1.369 . S
C1507 H1516 0.929 . S
C1508 N1505 1.346 . S
C1508 C1507 1.369 . S
C1508 H1511 0.928 . S
C1509 N1505 1.345 . S
C1509 C1510 1.371 . S
C1509 H1512 0.931 . S
C1510 C1506 1.391 . S
C1510 C1509 1.371 . S
C1510 H1517 0.930 . S
H1511 C1508 0.928 . S
H1512 C1509 0.931 . S
H1513 C1489 0.930 . S
H1514 C1486 0.930 . S
H1515 C1495 0.930 . S
H1516 C1507 0.929 . S
H1517 C1510 0.930 . S
C1518 C1519 1.351 . S
C1518 N1521 1.368 . S
C1518 H1523 0.931 . S
C1519 C1518 1.351 . S
C1519 N1520 1.373 . S
C1519 H1547 0.921 1_545 S
N1520 C1519 1.373 . S
N1520 C1522 1.340 . S
N1521 C1518 1.368 . S
N1521 C1522 1.321 . S
N1521 Co1524 2.135 . S
C1522 N1520 1.340 . S
C1522 N1521 1.321 . S
C1522 H1546 0.930 . S
H1523 C1518 0.931 . S
Co1524 N1521 2.135 . S
Co1524 N1527 2.121 . S
Co1524 O1532 2.055 . S
Co1524 O1535 2.039 . S
Co1524 N1538 2.140 . S
C1525 O1526 1.227 . S
C1525 O1535 1.265 . S
O1526 C1525 1.227 . S
N1527 Co1524 2.121 . S
N1527 C1529 1.375 . S
N1527 C1530 1.313 . S
C1528 C1529 1.338 . S
C1528 N1531 1.377 . S
C1528 H1548 0.930 . S
C1529 N1527 1.375 . S
C1529 C1528 1.338 . S
C1529 H1533 0.931 . S
C1530 N1527 1.313 . S
C1530 N1531 1.344 . S
C1530 H1534 0.930 . S
N1531 C1528 1.377 . S
N1531 C1530 1.344 . S
O1532 Co1524 2.055 . S
O1532 C1536 1.253 . S
H1533 C1529 0.931 . S
H1534 C1530 0.930 . S
O1535 Co1524 2.039 . S
O1535 C1525 1.265 . S
C1536 O1532 1.253 . S
C1536 O1537 1.227 . S
O1537 C1536 1.227 . S
N1538 Co1524 2.140 . S
N1538 C1541 1.346 . S
N1538 C1542 1.345 . S
C1539 C1540 1.387 . S
C1539 C1543 1.391 . S
C1540 C1539 1.387 . S
C1540 C1541 1.369 . S
C1540 H1549 0.929 . S
C1541 N1538 1.346 . S
C1541 C1540 1.369 . S
C1541 H1544 0.928 . S
C1542 N1538 1.345 . S
C1542 C1543 1.371 . S
C1542 H1545 0.931 . S
C1543 C1539 1.391 . S
C1543 C1542 1.371 . S
C1543 H1550 0.930 . S
H1544 C1541 0.928 . S
H1545 C1542 0.931 . S
H1546 C1522 0.930 . S
H1547 C1519 0.921 1_565 S
H1548 C1528 0.930 . S
H1549 C1540 0.929 . S
H1550 C1543 0.930 . S
C1551 C1552 1.351 . S
C1551 N1554 1.368 . S
C1551 H1556 0.931 . S
C1552 C1551 1.351 . S
C1552 N1553 1.373 . S
C1552 H1580 0.921 1_565 S
N1553 C1552 1.373 . S
N1553 C1555 1.340 . S
N1554 C1551 1.368 . S
N1554 C1555 1.321 . S
N1554 Co1557 2.135 . S
C1555 N1553 1.340 . S
C1555 N1554 1.321 . S
C1555 H1579 0.930 . S
H1556 C1551 0.931 . S
Co1557 N1554 2.135 . S
Co1557 N1560 2.121 . S
Co1557 O1565 2.074 . S
Co1557 O1568 2.062 . S
Co1557 N1571 2.140 . S
C1558 O1559 1.227 . S
C1558 O1568 1.282 . S
O1559 C1558 1.227 . S
N1560 Co1557 2.121 . S
N1560 C1562 1.375 . S
N1560 C1563 1.313 . S
C1561 C1562 1.338 . S
C1561 N1564 1.390 . S
C1561 H1581 0.930 . S
C1562 N1560 1.375 . S
C1562 C1561 1.338 . S
C1562 H1566 0.931 . S
C1563 N1560 1.313 . S
C1563 N1564 1.351 . S
C1563 H1567 0.930 . S
N1564 C1561 1.390 . S
N1564 C1563 1.351 . S
O1565 Co1557 2.074 . S
O1565 C1569 1.270 . S
H1566 C1562 0.931 . S
H1567 C1563 0.930 . S
O1568 Co1557 2.062 . S
O1568 C1558 1.282 . S
C1569 O1565 1.270 . S
C1569 O1570 1.227 . S
O1570 C1569 1.227 . S
N1571 Co1557 2.140 . S
N1571 C1574 1.346 . S
N1571 C1575 1.345 . S
C1572 C1573 1.387 . S
C1572 C1576 1.391 . S
C1573 C1572 1.387 . S
C1573 C1574 1.369 . S
C1573 H1582 0.929 . S
C1574 N1571 1.346 . S
C1574 C1573 1.369 . S
C1574 H1577 0.928 . S
C1575 N1571 1.345 . S
C1575 C1576 1.371 . S
C1575 H1578 0.931 . S
C1576 C1572 1.391 . S
C1576 C1575 1.371 . S
C1576 H1583 0.930 . S
H1577 C1574 0.928 . S
H1578 C1575 0.931 . S
H1579 C1555 0.930 . S
H1580 C1552 0.921 1_545 S
H1581 C1561 0.930 . S
H1582 C1573 0.929 . S
H1583 C1576 0.930 . S
H1584 C1590 0.930 . S
H1585 C1593 0.930 . S
H1586 C1594 0.930 . S
H1587 C1595 0.930 . S
H1588 C1598 0.930 . S
H1589 C1599 0.930 1_655 S
C1590 H1584 0.930 . S
C1590 C1591 1.355 . S
C1590 C1592 1.415 . S
C1591 C1590 1.355 . S
C1591 C1593 1.419 . S
C1592 C1590 1.415 . S
C1592 C1597 1.425 . S
C1592 C1599 1.409 . S
C1593 H1585 0.930 . S
C1593 C1591 1.419 . S
C1593 C1594 1.362 . S
C1594 H1586 0.930 . S
C1594 C1593 1.362 . S
C1594 C1597 1.409 . S
C1595 H1587 0.930 . S
C1595 C1596 1.355 . S
C1595 C1597 1.415 . S
C1596 C1595 1.355 . S
C1596 C1598 1.419 1_455 S
C1597 C1592 1.425 . S
C1597 C1594 1.409 . S
C1597 C1595 1.415 . S
C1598 H1588 0.930 . S
C1598 C1596 1.419 1_655 S
C1598 C1599 1.362 1_655 S
C1599 H1589 0.930 1_455 S
C1599 C1592 1.409 . S
C1599 C1598 1.362 1_455 S
H1600 C1606 0.930 . S
H1601 C1609 0.930 . S
H1602 C1610 0.930 . S
H1603 C1611 0.930 . S
H1604 C1614 0.930 . S
H1605 C1615 0.930 . S
C1606 H1600 0.930 . S
C1606 C1607 1.355 . S
C1606 C1608 1.415 . S
C1607 C1606 1.355 . S
C1607 C1609 1.419 . S
C1608 C1606 1.415 . S
C1608 C1613 1.425 . S
C1608 C1615 1.409 . S
C1609 H1601 0.930 . S
C1609 C1607 1.419 . S
C1609 C1610 1.362 . S
C1610 H1602 0.930 . S
C1610 C1609 1.362 . S
C1610 C1613 1.409 . S
C1611 H1603 0.930 . S
C1611 C1612 1.355 . S
C1611 C1613 1.415 . S
C1612 C1611 1.355 . S
C1612 C1614 1.419 . S
C1613 C1608 1.425 . S
C1613 C1610 1.409 . S
C1613 C1611 1.415 . S
C1614 H1604 0.930 . S
C1614 C1612 1.419 . S
C1614 C1615 1.362 . S
C1615 H1605 0.930 . S
C1615 C1608 1.409 . S
C1615 C1614 1.362 . S
H1616 C1622 0.930 . S
H1617 C1625 0.930 . S
H1618 C1626 0.930 . S
H1619 C1627 0.930 . S
H1620 C1630 0.930 . S
H1621 C1631 0.930 . S
C1622 H1616 0.930 . S
C1622 C1623 1.355 . S
C1622 C1624 1.415 . S
C1623 C1622 1.355 . S
C1623 C1625 1.419 . S
C1624 C1622 1.415 . S
C1624 C1629 1.425 . S
C1624 C1631 1.409 . S
C1625 H1617 0.930 . S
C1625 C1623 1.419 . S
C1625 C1626 1.362 . S
C1626 H1618 0.930 . S
C1626 C1625 1.362 . S
C1626 C1629 1.409 . S
C1627 H1619 0.930 . S
C1627 C1628 1.355 . S
C1627 C1629 1.415 . S
C1628 C1627 1.355 . S
C1628 C1630 1.419 . S
C1629 C1624 1.425 . S
C1629 C1626 1.409 . S
C1629 C1627 1.415 . S
C1630 H1620 0.930 . S
C1630 C1628 1.419 . S
C1630 C1631 1.362 . S
C1631 H1621 0.930 . S
C1631 C1624 1.409 . S
C1631 C1630 1.362 . S
H1632 C1638 0.930 . S
H1633 C1641 0.930 1_554 S
H1634 C1642 0.930 . S
H1635 C1643 0.930 . S
H1636 C1646 0.930 . S
H1637 C1647 0.930 . S
C1638 H1632 0.930 . S
C1638 C1639 1.355 . S
C1638 C1640 1.415 . S
C1639 C1638 1.355 . S
C1639 C1641 1.419 . S
C1640 C1638 1.415 . S
C1640 C1645 1.425 . S
C1640 C1647 1.409 . S
C1641 H1633 0.930 1_556 S
C1641 C1639 1.419 . S
C1641 C1642 1.362 . S
C1642 H1634 0.930 . S
C1642 C1641 1.362 . S
C1642 C1645 1.409 . S
C1643 H1635 0.930 . S
C1643 C1644 1.355 . S
C1643 C1645 1.415 . S
C1644 C1643 1.355 . S
C1644 C1646 1.419 . S
C1645 C1640 1.425 . S
C1645 C1642 1.409 . S
C1645 C1643 1.415 . S
C1646 H1636 0.930 . S
C1646 C1644 1.419 . S
C1646 C1647 1.362 . S
C1647 H1637 0.930 . S
C1647 C1640 1.409 . S
C1647 C1646 1.362 . S
H1648 C1654 0.930 . S
H1649 C1657 0.930 . S
H1650 C1658 0.930 . S
H1651 C1659 0.930 1_655 S
H1652 C1662 0.930 . S
H1653 C1663 0.930 . S
C1654 H1648 0.930 . S
C1654 C1655 1.355 . S
C1654 C1656 1.415 . S
C1655 C1654 1.355 . S
C1655 C1657 1.419 . S
C1656 C1654 1.415 . S
C1656 C1661 1.425 . S
C1656 C1663 1.409 . S
C1657 H1649 0.930 . S
C1657 C1655 1.419 . S
C1657 C1658 1.362 . S
C1658 H1650 0.930 . S
C1658 C1657 1.362 . S
C1658 C1661 1.409 . S
C1659 H1651 0.930 1_455 S
C1659 C1660 1.355 . S
C1659 C1661 1.415 . S
C1660 C1659 1.355 . S
C1660 C1662 1.419 . S
C1661 C1656 1.425 . S
C1661 C1658 1.409 . S
C1661 C1659 1.415 . S
C1662 H1652 0.930 . S
C1662 C1660 1.419 . S
C1662 C1663 1.362 . S
C1663 H1653 0.930 . S
C1663 C1656 1.409 . S
C1663 C1662 1.362 . S
H1664 C1670 0.930 . S
H1665 C1673 0.930 . S
H1666 C1674 0.930 . S
H1667 C1675 0.930 . S
H1668 C1678 0.930 . S
H1669 C1679 0.930 . S
C1670 H1664 0.930 . S
C1670 C1671 1.355 . S
C1670 C1672 1.415 . S
C1671 C1670 1.355 . S
C1671 C1673 1.419 . S
C1672 C1670 1.415 . S
C1672 C1677 1.425 . S
C1672 C1679 1.409 . S
C1673 H1665 0.930 . S
C1673 C1671 1.419 . S
C1673 C1674 1.362 . S
C1674 H1666 0.930 . S
C1674 C1673 1.362 . S
C1674 C1677 1.409 . S
C1675 H1667 0.930 . S
C1675 C1676 1.355 . S
C1675 C1677 1.415 . S
C1676 C1675 1.355 . S
C1676 C1678 1.419 . S
C1677 C1672 1.425 . S
C1677 C1674 1.409 . S
C1677 C1675 1.415 . S
C1678 H1668 0.930 . S
C1678 C1676 1.419 . S
C1678 C1679 1.362 . S
C1679 H1669 0.930 . S
C1679 C1672 1.409 . S
C1679 C1678 1.362 . S
H1680 C1686 0.930 . S
H1681 C1689 0.930 . S
H1682 C1690 0.930 . S
H1683 C1691 0.930 . S
H1684 C1694 0.930 . S
H1685 C1695 0.930 . S
C1686 H1680 0.930 . S
C1686 C1687 1.355 . S
C1686 C1688 1.415 . S
C1687 C1686 1.355 . S
C1687 C1689 1.419 . S
C1688 C1686 1.415 . S
C1688 C1693 1.425 . S
C1688 C1695 1.409 . S
C1689 H1681 0.930 . S
C1689 C1687 1.419 . S
C1689 C1690 1.362 . S
C1690 H1682 0.930 . S
C1690 C1689 1.362 . S
C1690 C1693 1.409 . S
C1691 H1683 0.930 . S
C1691 C1692 1.355 . S
C1691 C1693 1.415 . S
C1692 C1691 1.355 . S
C1692 C1694 1.419 . S
C1693 C1688 1.425 . S
C1693 C1690 1.409 . S
C1693 C1691 1.415 . S
C1694 H1684 0.930 . S
C1694 C1692 1.419 . S
C1694 C1695 1.362 . S
C1695 H1685 0.930 . S
C1695 C1688 1.409 . S
C1695 C1694 1.362 . S
H1696 C1702 0.930 1_556 S
H1697 C1705 0.930 . S
H1698 C1706 0.930 . S
H1699 C1707 0.930 . S
H1700 C1710 0.930 . S
H1701 C1711 0.930 . S
C1702 H1696 0.930 1_554 S
C1702 C1703 1.355 . S
C1702 C1704 1.415 . S
C1703 C1702 1.355 . S
C1703 C1705 1.419 . S
C1704 C1702 1.415 . S
C1704 C1709 1.425 . S
C1704 C1711 1.409 . S
C1705 H1697 0.930 . S
C1705 C1703 1.419 . S
C1705 C1706 1.362 . S
C1706 H1698 0.930 . S
C1706 C1705 1.362 . S
C1706 C1709 1.409 . S
C1707 H1699 0.930 . S
C1707 C1708 1.355 . S
C1707 C1709 1.415 . S
C1708 C1707 1.355 . S
C1708 C1710 1.419 . S
C1709 C1704 1.425 . S
C1709 C1706 1.409 . S
C1709 C1707 1.415 . S
C1710 H1700 0.930 . S
C1710 C1708 1.419 . S
C1710 C1711 1.362 . S
C1711 H1701 0.930 . S
C1711 C1704 1.409 . S
C1711 C1710 1.362 . S
H1712 C1718 0.930 . S
H1713 C1721 0.930 . S
H1714 C1722 0.930 . S
H1715 C1723 0.930 . S
H1716 C1726 0.930 . S
H1717 C1727 0.930 . S
C1718 H1712 0.930 . S
C1718 C1719 1.355 . S
C1718 C1720 1.415 . S
C1719 C1718 1.355 . S
C1719 C1721 1.419 . S
C1720 C1718 1.415 . S
C1720 C1725 1.425 . S
C1720 C1727 1.409 . S
C1721 H1713 0.930 . S
C1721 C1719 1.419 . S
C1721 C1722 1.362 . S
C1722 H1714 0.930 . S
C1722 C1721 1.362 . S
C1722 C1725 1.409 . S
C1723 H1715 0.930 . S
C1723 C1724 1.355 . S
C1723 C1725 1.415 . S
C1724 C1723 1.355 . S
C1724 C1726 1.419 . S
C1725 C1720 1.425 . S
C1725 C1722 1.409 . S
C1725 C1723 1.415 . S
C1726 H1716 0.930 . S
C1726 C1724 1.419 . S
C1726 C1727 1.362 . S
C1727 H1717 0.930 . S
C1727 C1720 1.409 . S
C1727 C1726 1.362 . S
H1728 C1734 0.930 . S
H1729 C1737 0.930 . S
H1730 C1738 0.930 . S
H1731 C1739 0.930 . S
H1732 C1742 0.930 . S
H1733 C1743 0.930 . S
C1734 H1728 0.930 . S
C1734 C1735 1.355 . S
C1734 C1736 1.415 . S
C1735 C1734 1.355 . S
C1735 C1737 1.419 . S
C1736 C1734 1.415 . S
C1736 C1741 1.425 . S
C1736 C1743 1.409 . S
C1737 H1729 0.930 . S
C1737 C1735 1.419 . S
C1737 C1738 1.362 . S
C1738 H1730 0.930 . S
C1738 C1737 1.362 . S
C1738 C1741 1.409 . S
C1739 H1731 0.930 . S
C1739 C1740 1.355 . S
C1739 C1741 1.415 . S
C1740 C1739 1.355 . S
C1740 C1742 1.419 . S
C1741 C1736 1.425 . S
C1741 C1738 1.409 . S
C1741 C1739 1.415 . S
C1742 H1732 0.930 . S
C1742 C1740 1.419 . S
C1742 C1743 1.362 . S
C1743 H1733 0.930 . S
C1743 C1736 1.409 . S
C1743 C1742 1.362 . S
H1744 C1750 0.930 . S
H1745 C1753 0.930 . S
H1746 C1754 0.930 . S
H1747 C1755 0.930 . S
H1748 C1758 0.930 . S
H1749 C1759 0.930 . S
C1750 H1744 0.930 . S
C1750 C1751 1.355 . S
C1750 C1752 1.415 . S
C1751 C1750 1.355 . S
C1751 C1753 1.419 . S
C1752 C1750 1.415 . S
C1752 C1757 1.425 . S
C1752 C1759 1.409 . S
C1753 H1745 0.930 . S
C1753 C1751 1.419 . S
C1753 C1754 1.362 . S
C1754 H1746 0.930 . S
C1754 C1753 1.362 . S
C1754 C1757 1.409 . S
C1755 H1747 0.930 . S
C1755 C1756 1.355 . S
C1755 C1757 1.415 . S
C1756 C1755 1.355 . S
C1756 C1758 1.419 . S
C1757 C1752 1.425 . S
C1757 C1754 1.409 . S
C1757 C1755 1.415 . S
C1758 H1748 0.930 . S
C1758 C1756 1.419 . S
C1758 C1759 1.362 . S
C1759 H1749 0.930 . S
C1759 C1752 1.409 . S
C1759 C1758 1.362 . S
H1760 C1766 0.930 . S
H1761 C1769 0.930 . S
H1762 C1770 0.930 . S
H1763 C1771 0.930 . S
H1764 C1774 0.955 . S
H1765 C1775 0.930 . S
C1766 H1760 0.930 . S
C1766 C1767 1.355 . S
C1766 C1768 1.415 . S
C1767 C1766 1.355 . S
C1767 C1769 1.419 . S
C1768 C1766 1.415 . S
C1768 C1773 1.425 . S
C1768 C1775 1.409 . S
C1769 H1761 0.930 . S
C1769 C1767 1.419 . S
C1769 C1770 1.362 . S
C1770 H1762 0.930 . S
C1770 C1769 1.362 . S
C1770 C1773 1.409 . S
C1771 H1763 0.930 . S
C1771 C1772 1.355 . S
C1771 C1773 1.415 . S
C1772 C1771 1.355 . S
C1772 C1774 1.407 1_545 S
C1773 C1768 1.425 . S
C1773 C1770 1.409 . S
C1773 C1771 1.415 . S
C1774 H1764 0.955 . S
C1774 C1772 1.407 1_565 S
C1774 C1775 1.350 1_565 S
C1775 H1765 0.930 . S
C1775 C1768 1.409 . S
C1775 C1774 1.350 1_545 S
H1776 C1782 0.930 1_554 S
H1777 C1785 0.930 . S
H1778 C1786 0.930 . S
H1779 C1787 0.930 . S
H1780 C1790 0.930 . S
H1781 C1791 0.930 . S
C1782 H1776 0.930 1_556 S
C1782 C1783 1.355 . S
C1782 C1784 1.415 . S
C1783 C1782 1.355 . S
C1783 C1785 1.419 . S
C1784 C1782 1.415 . S
C1784 C1789 1.425 . S
C1784 C1791 1.409 . S
C1785 H1777 0.930 . S
C1785 C1783 1.419 . S
C1785 C1786 1.362 . S
C1786 H1778 0.930 . S
C1786 C1785 1.362 . S
C1786 C1789 1.409 . S
C1787 H1779 0.930 . S
C1787 C1788 1.355 . S
C1787 C1789 1.415 . S
C1788 C1787 1.355 . S
C1788 C1790 1.419 . S
C1789 C1784 1.425 . S
C1789 C1786 1.409 . S
C1789 C1787 1.415 . S
C1790 H1780 0.930 . S
C1790 C1788 1.419 . S
C1790 C1791 1.362 . S
C1791 H1781 0.930 . S
C1791 C1784 1.409 . S
C1791 C1790 1.362 . S
H1792 C1798 0.930 . S
H1793 C1801 0.964 . S
H1794 C1802 0.930 . S
H1795 C1803 0.930 . S
H1796 C1806 0.930 . S
H1797 C1807 0.930 . S
C1798 H1792 0.930 . S
C1798 C1799 1.355 . S
C1798 C1800 1.415 . S
C1799 C1798 1.355 . S
C1799 C1801 1.403 1_655 S
C1800 C1798 1.415 . S
C1800 C1805 1.425 . S
C1800 C1807 1.409 . S
C1801 H1793 0.964 . S
C1801 C1799 1.403 1_455 S
C1801 C1802 1.346 1_455 S
C1802 H1794 0.930 . S
C1802 C1801 1.346 1_655 S
C1802 C1805 1.409 . S
C1803 H1795 0.930 . S
C1803 C1804 1.355 . S
C1803 C1805 1.415 . S
C1804 C1803 1.355 . S
C1804 C1806 1.419 . S
C1805 C1800 1.425 . S
C1805 C1802 1.409 . S
C1805 C1803 1.415 . S
C1806 H1796 0.930 . S
C1806 C1804 1.419 . S
C1806 C1807 1.362 . S
C1807 H1797 0.930 . S
C1807 C1800 1.409 . S
C1807 C1806 1.362 . S
H1808 C1814 0.930 . S
H1809 C1817 0.930 . S
H1810 C1818 0.930 . S
H1811 C1819 0.930 . S
H1812 C1822 0.930 . S
H1813 C1823 0.930 . S
C1814 H1808 0.930 . S
C1814 C1815 1.355 . S
C1814 C1816 1.415 . S
C1815 C1814 1.355 . S
C1815 C1817 1.419 . S
C1816 C1814 1.415 . S
C1816 C1821 1.425 . S
C1816 C1823 1.409 . S
C1817 H1809 0.930 . S
C1817 C1815 1.419 . S
C1817 C1818 1.362 . S
C1818 H1810 0.930 . S
C1818 C1817 1.362 . S
C1818 C1821 1.409 . S
C1819 H1811 0.930 . S
C1819 C1820 1.355 . S
C1819 C1821 1.415 . S
C1820 C1819 1.355 . S
C1820 C1822 1.419 . S
C1821 C1816 1.425 . S
C1821 C1818 1.409 . S
C1821 C1819 1.415 . S
C1822 H1812 0.930 . S
C1822 C1820 1.419 . S
C1822 C1823 1.362 . S
C1823 H1813 0.930 . S
C1823 C1816 1.409 . S
C1823 C1822 1.362 . S
H1824 C1830 0.930 . S
H1825 C1833 0.930 . S
H1826 C1834 0.930 1_455 S
H1827 C1835 0.930 . S
H1828 C1838 0.930 . S
H1829 C1839 0.930 . S
C1830 H1824 0.930 . S
C1830 C1831 1.355 . S
C1830 C1832 1.415 . S
C1831 C1830 1.355 . S
C1831 C1833 1.419 1_655 S
C1832 C1830 1.415 . S
C1832 C1837 1.425 . S
C1832 C1839 1.409 . S
C1833 H1825 0.930 . S
C1833 C1831 1.419 1_455 S
C1833 C1834 1.362 1_455 S
C1834 H1826 0.930 1_655 S
C1834 C1833 1.362 1_655 S
C1834 C1837 1.409 . S
C1835 H1827 0.930 . S
C1835 C1836 1.355 . S
C1835 C1837 1.415 . S
C1836 C1835 1.355 . S
C1836 C1838 1.419 . S
C1837 C1832 1.425 . S
C1837 C1834 1.409 . S
C1837 C1835 1.415 . S
C1838 H1828 0.930 . S
C1838 C1836 1.419 . S
C1838 C1839 1.362 . S
C1839 H1829 0.930 . S
C1839 C1832 1.409 . S
C1839 C1838 1.362 . S
H1840 C1846 0.930 . S
H1841 C1849 0.930 . S
H1842 C1850 0.930 . S
H1843 C1851 0.930 . S
H1844 C1854 0.930 . S
H1845 C1855 0.930 . S
C1846 H1840 0.930 . S
C1846 C1847 1.355 . S
C1846 C1848 1.415 . S
C1847 C1846 1.355 . S
C1847 C1849 1.419 . S
C1848 C1846 1.415 . S
C1848 C1853 1.425 . S
C1848 C1855 1.409 . S
C1849 H1841 0.930 . S
C1849 C1847 1.419 . S
C1849 C1850 1.362 . S
C1850 H1842 0.930 . S
C1850 C1849 1.362 . S
C1850 C1853 1.409 . S
C1851 H1843 0.930 . S
C1851 C1852 1.355 . S
C1851 C1853 1.415 . S
C1852 C1851 1.355 . S
C1852 C1854 1.419 . S
C1853 C1848 1.425 . S
C1853 C1850 1.409 . S
C1853 C1851 1.415 . S
C1854 H1844 0.930 . S
C1854 C1852 1.419 . S
C1854 C1855 1.362 . S
C1855 H1845 0.930 . S
C1855 C1848 1.409 . S
C1855 C1854 1.362 . S
H1856 C1862 0.930 . S
H1857 C1865 0.930 . S
H1858 C1866 0.930 . S
H1859 C1867 0.930 . S
H1860 C1870 0.930 . S
H1861 C1871 0.930 . S
C1862 H1856 0.930 . S
C1862 C1863 1.355 . S
C1862 C1864 1.415 . S
C1863 C1862 1.355 . S
C1863 C1865 1.419 . S
C1864 C1862 1.415 . S
C1864 C1869 1.425 . S
C1864 C1871 1.409 . S
C1865 H1857 0.930 . S
C1865 C1863 1.419 . S
C1865 C1866 1.362 . S
C1866 H1858 0.930 . S
C1866 C1865 1.362 . S
C1866 C1869 1.409 . S
C1867 H1859 0.930 . S
C1867 C1868 1.355 . S
C1867 C1869 1.415 . S
C1868 C1867 1.355 . S
C1868 C1870 1.419 . S
C1869 C1864 1.425 . S
C1869 C1866 1.409 . S
C1869 C1867 1.415 . S
C1870 H1860 0.930 . S
C1870 C1868 1.419 . S
C1870 C1871 1.362 . S
C1871 H1861 0.930 . S
C1871 C1864 1.409 . S
C1871 C1870 1.362 . S
H1872 C1878 0.930 . S
H1873 C1881 0.930 . S
H1874 C1882 0.930 . S
H1875 C1883 0.930 . S
H1876 C1886 0.930 1_556 S
H1877 C1887 0.930 . S
C1878 H1872 0.930 . S
C1878 C1879 1.355 . S
C1878 C1880 1.415 . S
C1879 C1878 1.355 . S
C1879 C1881 1.419 . S
C1880 C1878 1.415 . S
C1880 C1885 1.425 . S
C1880 C1887 1.409 . S
C1881 H1873 0.930 . S
C1881 C1879 1.419 . S
C1881 C1882 1.362 . S
C1882 H1874 0.930 . S
C1882 C1881 1.362 . S
C1882 C1885 1.409 . S
C1883 H1875 0.930 . S
C1883 C1884 1.355 . S
C1883 C1885 1.415 . S
C1884 C1883 1.355 . S
C1884 C1886 1.419 . S
C1885 C1880 1.425 . S
C1885 C1882 1.409 . S
C1885 C1883 1.415 . S
C1886 H1876 0.930 1_554 S
C1886 C1884 1.419 . S
C1886 C1887 1.362 . S
C1887 H1877 0.930 . S
C1887 C1880 1.409 . S
C1887 C1886 1.362 . S
H1888 C1894 0.930 . S
H1889 C1897 0.930 . S
H1890 C1898 0.930 . S
H1891 C1899 0.930 . S
H1892 C1902 0.930 . S
H1893 C1903 0.930 . S
C1894 H1888 0.930 . S
C1894 C1895 1.355 . S
C1894 C1896 1.415 . S
C1895 C1894 1.355 . S
C1895 C1897 1.419 . S
C1896 C1894 1.415 . S
C1896 C1901 1.425 . S
C1896 C1903 1.409 . S
C1897 H1889 0.930 . S
C1897 C1895 1.419 . S
C1897 C1898 1.362 . S
C1898 H1890 0.930 . S
C1898 C1897 1.362 . S
C1898 C1901 1.409 . S
C1899 H1891 0.930 . S
C1899 C1900 1.355 . S
C1899 C1901 1.415 . S
C1900 C1899 1.355 . S
C1900 C1902 1.419 . S
C1901 C1896 1.425 . S
C1901 C1898 1.409 . S
C1901 C1899 1.415 . S
C1902 H1892 0.930 . S
C1902 C1900 1.419 . S
C1902 C1903 1.362 . S
C1903 H1893 0.930 . S
C1903 C1896 1.409 . S
C1903 C1902 1.362 . S
H1904 C1910 0.930 . S
H1905 C1913 0.930 . S
H1906 C1914 0.930 . S
H1907 C1915 0.930 . S
H1908 C1918 0.930 . S
H1909 C1919 0.930 . S
C1910 H1904 0.930 . S
C1910 C1911 1.355 . S
C1910 C1912 1.415 . S
C1911 C1910 1.355 . S
C1911 C1913 1.419 . S
C1912 C1910 1.415 . S
C1912 C1917 1.425 . S
C1912 C1919 1.409 . S
C1913 H1905 0.930 . S
C1913 C1911 1.419 . S
C1913 C1914 1.362 . S
C1914 H1906 0.930 . S
C1914 C1913 1.362 . S
C1914 C1917 1.409 . S
C1915 H1907 0.930 . S
C1915 C1916 1.355 . S
C1915 C1917 1.415 . S
C1916 C1915 1.355 . S
C1916 C1918 1.419 . S
C1917 C1912 1.425 . S
C1917 C1914 1.409 . S
C1917 C1915 1.415 . S
C1918 H1908 0.930 . S
C1918 C1916 1.419 . S
C1918 C1919 1.362 . S
C1919 H1909 0.930 . S
C1919 C1912 1.409 . S
C1919 C1918 1.362 . S
H1920 C1926 0.930 . S
H1921 C1929 0.930 . S
H1922 C1930 0.930 . S
H1923 C1931 0.930 . S
H1924 C1934 0.930 . S
H1925 C1935 0.930 . S
C1926 H1920 0.930 . S
C1926 C1927 1.355 . S
C1926 C1928 1.415 . S
C1927 C1926 1.355 . S
C1927 C1929 1.419 . S
C1928 C1926 1.415 . S
C1928 C1933 1.425 . S
C1928 C1935 1.409 . S
C1929 H1921 0.930 . S
C1929 C1927 1.419 . S
C1929 C1930 1.362 . S
C1930 H1922 0.930 . S
C1930 C1929 1.362 . S
C1930 C1933 1.409 . S
C1931 H1923 0.930 . S
C1931 C1932 1.355 . S
C1931 C1933 1.415 . S
C1932 C1931 1.355 . S
C1932 C1934 1.419 . S
C1933 C1928 1.425 . S
C1933 C1930 1.409 . S
C1933 C1931 1.415 . S
C1934 H1924 0.930 . S
C1934 C1932 1.419 . S
C1934 C1935 1.362 . S
C1935 H1925 0.930 . S
C1935 C1928 1.409 . S
C1935 C1934 1.362 . S
H1936 C1942 0.930 . S
H1937 C1945 0.930 . S
H1938 C1946 0.930 . S
H1939 C1947 0.930 . S
H1940 C1950 0.930 . S
H1941 C1951 0.930 . S
C1942 H1936 0.930 . S
C1942 C1943 1.355 . S
C1942 C1944 1.415 . S
C1943 C1942 1.355 . S
C1943 C1945 1.419 . S
C1944 C1942 1.415 . S
C1944 C1949 1.425 . S
C1944 C1951 1.409 . S
C1945 H1937 0.930 . S
C1945 C1943 1.419 . S
C1945 C1946 1.362 . S
C1946 H1938 0.930 . S
C1946 C1945 1.362 . S
C1946 C1949 1.409 . S
C1947 H1939 0.930 . S
C1947 C1948 1.355 . S
C1947 C1949 1.415 . S
C1948 C1947 1.355 . S
C1948 C1950 1.419 . S
C1949 C1944 1.425 . S
C1949 C1946 1.409 . S
C1949 C1947 1.415 . S
C1950 H1940 0.930 . S
C1950 C1948 1.419 . S
C1950 C1951 1.362 . S
C1951 H1941 0.930 . S
C1951 C1944 1.409 . S
C1951 C1950 1.362 . S
H1952 C1958 0.930 . S
H1953 C1961 0.930 . S
H1954 C1962 0.930 . S
H1955 C1963 0.930 . S
H1956 C1966 0.930 . S
H1957 C1967 0.930 . S
C1958 H1952 0.930 . S
C1958 C1959 1.355 . S
C1958 C1960 1.415 . S
C1959 C1958 1.355 . S
C1959 C1961 1.419 . S
C1960 C1958 1.415 . S
C1960 C1965 1.425 . S
C1960 C1967 1.409 . S
C1961 H1953 0.930 . S
C1961 C1959 1.419 . S
C1961 C1962 1.362 . S
C1962 H1954 0.930 . S
C1962 C1961 1.362 . S
C1962 C1965 1.409 . S
C1963 H1955 0.930 . S
C1963 C1964 1.355 . S
C1963 C1965 1.415 . S
C1964 C1963 1.355 . S
C1964 C1966 1.419 . S
C1965 C1960 1.425 . S
C1965 C1962 1.409 . S
C1965 C1963 1.415 . S
C1966 H1956 0.930 . S
C1966 C1964 1.419 . S
C1966 C1967 1.362 . S
C1967 H1957 0.930 . S
C1967 C1960 1.409 . S
C1967 C1966 1.362 . S
H1968 C1974 0.930 . S
H1969 C1977 0.930 . S
H1970 C1978 0.930 . S
H1971 C1979 0.930 . S
H1972 C1982 0.930 . S
H1973 C1983 0.930 . S
C1974 H1968 0.930 . S
C1974 C1975 1.355 . S
C1974 C1976 1.415 . S
C1975 C1974 1.355 . S
C1975 C1977 1.419 . S
C1976 C1974 1.415 . S
C1976 C1981 1.425 . S
C1976 C1983 1.409 . S
C1977 H1969 0.930 . S
C1977 C1975 1.419 . S
C1977 C1978 1.362 . S
C1978 H1970 0.930 . S
C1978 C1977 1.362 . S
C1978 C1981 1.409 . S
C1979 H1971 0.930 . S
C1979 C1980 1.355 . S
C1979 C1981 1.415 . S
C1980 C1979 1.355 . S
C1980 C1982 1.419 . S
C1981 C1976 1.425 . S
C1981 C1978 1.409 . S
C1981 C1979 1.415 . S
C1982 H1972 0.930 . S
C1982 C1980 1.419 . S
C1982 C1983 1.362 . S
C1983 H1973 0.930 . S
C1983 C1976 1.409 . S
C1983 C1982 1.362 . S
H1984 C1990 0.930 . S
H1985 C1993 0.930 . S
H1986 C1994 0.930 . S
H1987 C1995 0.930 . S
H1988 C1998 0.930 . S
H1989 C1999 0.930 . S
C1990 H1984 0.930 . S
C1990 C1991 1.355 1_655 S
C1990 C1992 1.415 1_655 S
C1991 C1990 1.355 1_455 S
C1991 C1993 1.419 . S
C1992 C1990 1.415 1_455 S
C1992 C1997 1.425 . S
C1992 C1999 1.409 1_455 S
C1993 H1985 0.930 . S
C1993 C1991 1.419 . S
C1993 C1994 1.362 . S
C1994 H1986 0.930 . S
C1994 C1993 1.362 . S
C1994 C1997 1.409 . S
C1995 H1987 0.930 . S
C1995 C1996 1.355 . S
C1995 C1997 1.415 . S
C1996 C1995 1.355 . S
C1996 C1998 1.419 1_455 S
C1997 C1992 1.425 . S
C1997 C1994 1.409 . S
C1997 C1995 1.415 . S
C1998 H1988 0.930 . S
C1998 C1996 1.419 1_655 S
C1998 C1999 1.362 . S
C1999 H1989 0.930 . S
C1999 C1992 1.409 1_655 S
C1999 C1998 1.362 . S
H2000 C2006 0.930 . S
H2001 C2009 0.930 . S
H2002 C2010 0.930 . S
H2003 C2011 0.930 . S
H2004 C2014 0.930 . S
H2005 C2015 0.930 . S
C2006 H2000 0.930 . S
C2006 C2007 1.355 . S
C2006 C2008 1.415 . S
C2007 C2006 1.355 . S
C2007 C2009 1.419 . S
C2008 C2006 1.415 . S
C2008 C2013 1.425 . S
C2008 C2015 1.409 . S
C2009 H2001 0.930 . S
C2009 C2007 1.419 . S
C2009 C2010 1.362 . S
C2010 H2002 0.930 . S
C2010 C2009 1.362 . S
C2010 C2013 1.409 . S
C2011 H2003 0.930 . S
C2011 C2012 1.355 . S
C2011 C2013 1.415 . S
C2012 C2011 1.355 . S
C2012 C2014 1.419 . S
C2013 C2008 1.425 . S
C2013 C2010 1.409 . S
C2013 C2011 1.415 . S
C2014 H2004 0.930 . S
C2014 C2012 1.419 . S
C2014 C2015 1.362 . S
C2015 H2005 0.930 . S
C2015 C2008 1.409 . S
C2015 C2014 1.362 . S
H2016 C2022 0.930 . S
H2017 C2025 0.899 1_554 S
H2018 C2026 0.930 . S
H2019 C2027 0.930 . S
H2020 C2030 0.930 . S
H2021 C2031 0.930 . S
C2022 H2016 0.930 . S
C2022 C2023 1.355 . S
C2022 C2024 1.415 . S
C2023 C2022 1.355 . S
C2023 C2025 1.419 . S
C2024 C2022 1.415 . S
C2024 C2029 1.425 . S
C2024 C2031 1.409 . S
C2025 H2017 0.899 1_556 S
C2025 C2023 1.419 . S
C2025 C2026 1.362 . S
C2026 H2018 0.930 . S
C2026 C2025 1.362 . S
C2026 C2029 1.409 . S
C2027 H2019 0.930 . S
C2027 C2028 1.355 . S
C2027 C2029 1.415 . S
C2028 C2027 1.355 . S
C2028 C2030 1.419 . S
C2029 C2024 1.425 . S
C2029 C2026 1.409 . S
C2029 C2027 1.415 . S
C2030 H2020 0.930 . S
C2030 C2028 1.419 . S
C2030 C2031 1.362 . S
C2031 H2021 0.930 . S
C2031 C2024 1.409 . S
C2031 C2030 1.362 . S
H2032 C2038 0.930 . S
H2033 C2041 0.930 . S
H2034 C2042 0.930 . S
H2035 C2043 0.930 . S
H2036 C2046 0.930 . S
H2037 C2047 0.930 . S
C2038 H2032 0.930 . S
C2038 C2039 1.355 . S
C2038 C2040 1.415 . S
C2039 C2038 1.355 . S
C2039 C2041 1.419 . S
C2040 C2038 1.415 . S
C2040 C2045 1.425 . S
C2040 C2047 1.409 . S
C2041 H2033 0.930 . S
C2041 C2039 1.419 . S
C2041 C2042 1.362 . S
C2042 H2034 0.930 . S
C2042 C2041 1.362 . S
C2042 C2045 1.409 . S
C2043 H2035 0.930 . S
C2043 C2044 1.355 . S
C2043 C2045 1.415 . S
C2044 C2043 1.355 . S
C2044 C2046 1.419 . S
C2045 C2040 1.425 . S
C2045 C2042 1.409 . S
C2045 C2043 1.415 . S
C2046 H2036 0.930 . S
C2046 C2044 1.419 . S
C2046 C2047 1.362 . S
C2047 H2037 0.930 . S
C2047 C2040 1.409 . S
C2047 C2046 1.362 . S
H2048 C2054 0.930 . S
H2049 C2057 0.930 . S
H2050 C2058 0.930 . S
H2051 C2059 0.930 . S
H2052 C2062 0.930 . S
H2053 C2063 0.930 . S
C2054 H2048 0.930 . S
C2054 C2055 1.355 . S
C2054 C2056 1.415 . S
C2055 C2054 1.355 . S
C2055 C2057 1.419 . S
C2056 C2054 1.415 . S
C2056 C2061 1.425 . S
C2056 C2063 1.409 . S
C2057 H2049 0.930 . S
C2057 C2055 1.419 . S
C2057 C2058 1.362 . S
C2058 H2050 0.930 . S
C2058 C2057 1.362 . S
C2058 C2061 1.409 . S
C2059 H2051 0.930 . S
C2059 C2060 1.355 . S
C2059 C2061 1.415 . S
C2060 C2059 1.355 . S
C2060 C2062 1.419 . S
C2061 C2056 1.425 . S
C2061 C2058 1.409 . S
C2061 C2059 1.415 . S
C2062 H2052 0.930 . S
C2062 C2060 1.419 . S
C2062 C2063 1.362 . S
C2063 H2053 0.930 . S
C2063 C2056 1.409 . S
C2063 C2062 1.362 . S
H2064 C2070 0.930 . S
H2065 C2073 0.930 . S
H2066 C2074 0.930 . S
H2067 C2075 0.930 . S
H2068 C2078 0.930 . S
H2069 C2079 0.930 . S
C2070 H2064 0.930 . S
C2070 C2071 1.355 . S
C2070 C2072 1.415 . S
C2071 C2070 1.355 . S
C2071 C2073 1.419 . S
C2072 C2070 1.415 . S
C2072 C2077 1.425 . S
C2072 C2079 1.409 . S
C2073 H2065 0.930 . S
C2073 C2071 1.419 . S
C2073 C2074 1.362 . S
C2074 H2066 0.930 . S
C2074 C2073 1.362 . S
C2074 C2077 1.409 . S
C2075 H2067 0.930 . S
C2075 C2076 1.355 . S
C2075 C2077 1.415 . S
C2076 C2075 1.355 . S
C2076 C2078 1.419 . S
C2077 C2072 1.425 . S
C2077 C2074 1.409 . S
C2077 C2075 1.415 . S
C2078 H2068 0.930 . S
C2078 C2076 1.419 . S
C2078 C2079 1.362 . S
C2079 H2069 0.930 . S
C2079 C2072 1.409 . S
C2079 C2078 1.362 . S
H2080 C2086 0.930 . S
H2081 C2089 0.930 1_655 S
H2082 C2090 0.930 . S
H2083 C2091 0.959 . S
H2084 C2094 0.930 . S
H2085 C2095 0.930 . S
C2086 H2080 0.930 . S
C2086 C2087 1.355 . S
C2086 C2088 1.415 . S
C2087 C2086 1.355 . S
C2087 C2089 1.419 . S
C2088 C2086 1.415 . S
C2088 C2093 1.425 . S
C2088 C2095 1.409 . S
C2089 H2081 0.930 1_455 S
C2089 C2087 1.419 . S
C2089 C2090 1.362 1_455 S
C2090 H2082 0.930 . S
C2090 C2089 1.362 1_655 S
C2090 C2093 1.409 1_655 S
C2091 H2083 0.959 . S
C2091 C2092 1.339 1_655 S
C2091 C2093 1.403 1_655 S
C2092 C2091 1.339 1_455 S
C2092 C2094 1.419 . S
C2093 C2088 1.425 . S
C2093 C2090 1.409 1_455 S
C2093 C2091 1.403 1_455 S
C2094 H2084 0.930 . S
C2094 C2092 1.419 . S
C2094 C2095 1.362 . S
C2095 H2085 0.930 . S
C2095 C2088 1.409 . S
C2095 C2094 1.362 . S
H2096 C2102 0.930 . S
H2097 C2105 0.930 . S
H2098 C2106 0.930 . S
H2099 C2107 0.930 . S
H2100 C2110 0.930 . S
H2101 C2111 0.930 . S
C2102 H2096 0.930 . S
C2102 C2103 1.355 . S
C2102 C2104 1.415 . S
C2103 C2102 1.355 . S
C2103 C2105 1.419 . S
C2104 C2102 1.415 . S
C2104 C2109 1.425 . S
C2104 C2111 1.409 . S
C2105 H2097 0.930 . S
C2105 C2103 1.419 . S
C2105 C2106 1.362 . S
C2106 H2098 0.930 . S
C2106 C2105 1.362 . S
C2106 C2109 1.409 . S
C2107 H2099 0.930 . S
C2107 C2108 1.355 . S
C2107 C2109 1.415 . S
C2108 C2107 1.355 . S
C2108 C2110 1.419 . S
C2109 C2104 1.425 . S
C2109 C2106 1.409 . S
C2109 C2107 1.415 . S
C2110 H2100 0.930 . S
C2110 C2108 1.419 . S
C2110 C2111 1.362 . S
C2111 H2101 0.930 . S
C2111 C2104 1.409 . S
C2111 C2110 1.362 . S
H2112 C2118 0.930 . S
H2113 C2121 0.930 . S
H2114 C2122 0.930 . S
H2115 C2123 0.930 . S
H2116 C2126 0.930 . S
H2117 C2127 0.930 . S
C2118 H2112 0.930 . S
C2118 C2119 1.355 . S
C2118 C2120 1.415 . S
C2119 C2118 1.355 . S
C2119 C2121 1.419 . S
C2120 C2118 1.415 . S
C2120 C2125 1.425 . S
C2120 C2127 1.409 . S
C2121 H2113 0.930 . S
C2121 C2119 1.419 . S
C2121 C2122 1.362 . S
C2122 H2114 0.930 . S
C2122 C2121 1.362 . S
C2122 C2125 1.409 . S
C2123 H2115 0.930 . S
C2123 C2124 1.355 . S
C2123 C2125 1.415 . S
C2124 C2123 1.355 . S
C2124 C2126 1.419 . S
C2125 C2120 1.425 . S
C2125 C2122 1.409 . S
C2125 C2123 1.415 . S
C2126 H2116 0.930 . S
C2126 C2124 1.419 . S
C2126 C2127 1.362 . S
C2127 H2117 0.930 . S
C2127 C2120 1.409 . S
C2127 C2126 1.362 . S
H2128 C2134 0.930 . S
H2129 C2137 0.930 . S
H2130 C2138 0.930 . S
H2131 C2139 0.930 . S
H2132 C2142 0.930 . S
H2133 C2143 0.930 . S
C2134 H2128 0.930 . S
C2134 C2135 1.355 . S
C2134 C2136 1.415 . S
C2135 C2134 1.355 . S
C2135 C2137 1.419 . S
C2136 C2134 1.415 . S
C2136 C2141 1.425 . S
C2136 C2143 1.409 . S
C2137 H2129 0.930 . S
C2137 C2135 1.419 . S
C2137 C2138 1.362 . S
C2138 H2130 0.930 . S
C2138 C2137 1.362 . S
C2138 C2141 1.409 . S
C2139 H2131 0.930 . S
C2139 C2140 1.355 . S
C2139 C2141 1.415 . S
C2140 C2139 1.355 . S
C2140 C2142 1.419 . S
C2141 C2136 1.425 . S
C2141 C2138 1.409 . S
C2141 C2139 1.415 . S
C2142 H2132 0.930 . S
C2142 C2140 1.419 . S
C2142 C2143 1.362 . S
C2143 H2133 0.930 . S
C2143 C2136 1.409 . S
C2143 C2142 1.362 . S
H2144 C2150 0.930 . S
H2145 C2153 0.930 . S
H2146 C2154 0.930 . S
H2147 C2155 0.930 . S
H2148 C2158 0.930 1_565 S
H2149 C2159 0.930 . S
C2150 H2144 0.930 . S
C2150 C2151 1.355 1_554 S
C2150 C2152 1.401 1_554 S
C2151 C2150 1.355 1_556 S
C2151 C2153 1.419 . S
C2152 C2150 1.401 1_556 S
C2152 C2157 1.469 . S
C2152 C2159 1.383 1_556 S
C2153 H2145 0.930 . S
C2153 C2151 1.419 . S
C2153 C2154 1.362 . S
C2154 H2146 0.930 . S
C2154 C2153 1.362 . S
C2154 C2157 1.409 . S
C2155 H2147 0.930 . S
C2155 C2156 1.355 . S
C2155 C2157 1.415 . S
C2156 C2155 1.355 . S
C2156 C2158 1.419 1_556 S
C2157 C2152 1.469 . S
C2157 C2154 1.409 . S
C2157 C2155 1.415 . S
C2158 H2148 0.930 1_545 S
C2158 C2156 1.419 1_554 S
C2158 C2159 1.362 . S
C2159 H2149 0.930 . S
C2159 C2152 1.383 1_554 S
C2159 C2158 1.362 . S
H2160 C2166 0.930 . S
H2161 C2169 0.930 . S
H2162 C2170 0.930 . S
H2163 C2171 0.930 . S
H2164 C2174 0.930 . S
H2165 C2175 0.930 . S
C2166 H2160 0.930 . S
C2166 C2167 1.355 . S
C2166 C2168 1.415 . S
C2167 C2166 1.355 . S
C2167 C2169 1.419 . S
C2168 C2166 1.415 . S
C2168 C2173 1.425 . S
C2168 C2175 1.409 . S
C2169 H2161 0.930 . S
C2169 C2167 1.419 . S
C2169 C2170 1.362 . S
C2170 H2162 0.930 . S
C2170 C2169 1.362 . S
C2170 C2173 1.409 . S
C2171 H2163 0.930 . S
C2171 C2172 1.355 . S
C2171 C2173 1.415 . S
C2172 C2171 1.355 . S
C2172 C2174 1.419 . S
C2173 C2168 1.425 . S
C2173 C2170 1.409 . S
C2173 C2171 1.415 . S
C2174 H2164 0.930 . S
C2174 C2172 1.419 . S
C2174 C2175 1.362 . S
C2175 H2165 0.930 . S
C2175 C2168 1.409 . S
C2175 C2174 1.362 . S
H2176 C2182 0.930 . S
H2177 C2185 0.930 . S
H2178 C2186 0.930 . S
H2179 C2187 0.930 . S
H2180 C2190 0.930 . S
H2181 C2191 0.930 . S
C2182 H2176 0.930 . S
C2182 C2183 1.355 . S
C2182 C2184 1.415 . S
C2183 C2182 1.355 . S
C2183 C2185 1.419 . S
C2184 C2182 1.415 . S
C2184 C2189 1.425 . S
C2184 C2191 1.409 . S
C2185 H2177 0.930 . S
C2185 C2183 1.419 . S
C2185 C2186 1.362 . S
C2186 H2178 0.930 . S
C2186 C2185 1.362 . S
C2186 C2189 1.409 . S
C2187 H2179 0.930 . S
C2187 C2188 1.355 . S
C2187 C2189 1.415 . S
C2188 C2187 1.355 . S
C2188 C2190 1.419 . S
C2189 C2184 1.425 . S
C2189 C2186 1.409 . S
C2189 C2187 1.415 . S
C2190 H2180 0.930 . S
C2190 C2188 1.419 . S
C2190 C2191 1.362 . S
C2191 H2181 0.930 . S
C2191 C2184 1.409 . S
C2191 C2190 1.362 . S
H2192 C2198 0.930 . S
H2193 C2201 0.930 . S
H2194 C2202 0.930 . S
H2195 C2203 0.930 . S
H2196 C2206 0.930 . S
H2197 C2207 0.930 . S
C2198 H2192 0.930 . S
C2198 C2199 1.355 . S
C2198 C2200 1.415 . S
C2199 C2198 1.355 . S
C2199 C2201 1.419 . S
C2200 C2198 1.415 . S
C2200 C2205 1.425 . S
C2200 C2207 1.409 . S
C2201 H2193 0.930 . S
C2201 C2199 1.419 . S
C2201 C2202 1.362 . S
C2202 H2194 0.930 . S
C2202 C2201 1.362 . S
C2202 C2205 1.409 . S
C2203 H2195 0.930 . S
C2203 C2204 1.355 . S
C2203 C2205 1.415 . S
C2204 C2203 1.355 . S
C2204 C2206 1.419 . S
C2205 C2200 1.425 . S
C2205 C2202 1.409 . S
C2205 C2203 1.415 . S
C2206 H2196 0.930 . S
C2206 C2204 1.419 . S
C2206 C2207 1.362 . S
C2207 H2197 0.930 . S
C2207 C2200 1.409 . S
C2207 C2206 1.362 . S
H2208 C2214 0.930 . S
H2209 C2217 0.930 1_565 S
H2210 C2218 0.930 . S
H2211 C2219 0.930 . S
H2212 C2222 0.930 . S
H2213 C2223 0.930 . S
C2214 H2208 0.930 . S
C2214 C2215 1.355 . S
C2214 C2216 1.415 . S
C2215 C2214 1.355 . S
C2215 C2217 1.419 . S
C2216 C2214 1.415 . S
C2216 C2221 1.425 . S
C2216 C2223 1.409 . S
C2217 H2209 0.930 1_545 S
C2217 C2215 1.419 . S
C2217 C2218 1.362 . S
C2218 H2210 0.930 . S
C2218 C2217 1.362 . S
C2218 C2221 1.409 . S
C2219 H2211 0.930 . S
C2219 C2220 1.355 . S
C2219 C2221 1.415 . S
C2220 C2219 1.355 . S
C2220 C2222 1.419 . S
C2221 C2216 1.425 . S
C2221 C2218 1.409 . S
C2221 C2219 1.415 . S
C2222 H2212 0.930 . S
C2222 C2220 1.419 . S
C2222 C2223 1.362 . S
C2223 H2213 0.930 . S
C2223 C2216 1.409 . S
C2223 C2222 1.362 . S
H2224 C2230 0.930 . S
H2225 C2233 0.930 . S
H2226 C2234 0.930 . S
H2227 C2235 0.930 . S
H2228 C2238 0.930 . S
H2229 C2239 0.930 . S
C2230 H2224 0.930 . S
C2230 C2231 1.355 . S
C2230 C2232 1.415 . S
C2231 C2230 1.355 . S
C2231 C2233 1.419 . S
C2232 C2230 1.415 . S
C2232 C2237 1.425 . S
C2232 C2239 1.409 . S
C2233 H2225 0.930 . S
C2233 C2231 1.419 . S
C2233 C2234 1.362 . S
C2234 H2226 0.930 . S
C2234 C2233 1.362 . S
C2234 C2237 1.409 . S
C2235 H2227 0.930 . S
C2235 C2236 1.355 . S
C2235 C2237 1.415 . S
C2236 C2235 1.355 . S
C2236 C2238 1.419 . S
C2237 C2232 1.425 . S
C2237 C2234 1.409 . S
C2237 C2235 1.415 . S
C2238 H2228 0.930 . S
C2238 C2236 1.419 . S
C2238 C2239 1.362 . S
C2239 H2229 0.930 . S
C2239 C2232 1.409 . S
C2239 C2238 1.362 . S
H2240 C2246 0.930 . S
H2241 C2249 0.930 . S
H2242 C2250 0.930 . S
H2243 C2251 0.930 . S
H2244 C2254 0.930 . S
H2245 C2255 0.930 . S
C2246 H2240 0.930 . S
C2246 C2247 1.355 . S
C2246 C2248 1.415 . S
C2247 C2246 1.355 . S
C2247 C2249 1.419 . S
C2248 C2246 1.415 . S
C2248 C2253 1.425 . S
C2248 C2255 1.409 . S
C2249 H2241 0.930 . S
C2249 C2247 1.419 . S
C2249 C2250 1.362 . S
C2250 H2242 0.930 . S
C2250 C2249 1.362 . S
C2250 C2253 1.409 . S
C2251 H2243 0.930 . S
C2251 C2252 1.355 . S
C2251 C2253 1.415 . S
C2252 C2251 1.355 . S
C2252 C2254 1.419 . S
C2253 C2248 1.425 . S
C2253 C2250 1.409 . S
C2253 C2251 1.415 . S
C2254 H2244 0.930 . S
C2254 C2252 1.419 . S
C2254 C2255 1.362 . S
C2255 H2245 0.930 . S
C2255 C2248 1.409 . S
C2255 C2254 1.362 . S
H2256 C2262 0.930 . S
H2257 C2265 0.930 . S
H2258 C2266 0.930 . S
H2259 C2267 0.930 . S
H2260 C2270 0.930 . S
H2261 C2271 0.930 . S
C2262 H2256 0.930 . S
C2262 C2263 1.355 . S
C2262 C2264 1.415 . S
C2263 C2262 1.355 . S
C2263 C2265 1.419 . S
C2264 C2262 1.415 . S
C2264 C2269 1.425 . S
C2264 C2271 1.409 . S
C2265 H2257 0.930 . S
C2265 C2263 1.419 . S
C2265 C2266 1.362 . S
C2266 H2258 0.930 . S
C2266 C2265 1.362 . S
C2266 C2269 1.409 . S
C2267 H2259 0.930 . S
C2267 C2268 1.355 . S
C2267 C2269 1.415 . S
C2268 C2267 1.355 . S
C2268 C2270 1.419 . S
C2269 C2264 1.425 . S
C2269 C2266 1.409 . S
C2269 C2267 1.415 . S
C2270 H2260 0.930 . S
C2270 C2268 1.419 . S
C2270 C2271 1.362 . S
C2271 H2261 0.930 . S
C2271 C2264 1.409 . S
C2271 C2270 1.362 . S
H2272 C2278 0.930 . S
H2273 C2281 0.930 . S
H2274 C2282 0.930 . S
H2275 C2283 0.930 . S
H2276 C2286 0.930 . S
H2277 C2287 0.930 . S
C2278 H2272 0.930 . S
C2278 C2279 1.355 . S
C2278 C2280 1.415 . S
C2279 C2278 1.355 . S
C2279 C2281 1.419 . S
C2280 C2278 1.415 . S
C2280 C2285 1.425 . S
C2280 C2287 1.409 . S
C2281 H2273 0.930 . S
C2281 C2279 1.419 . S
C2281 C2282 1.362 . S
C2282 H2274 0.930 . S
C2282 C2281 1.362 . S
C2282 C2285 1.409 . S
C2283 H2275 0.930 . S
C2283 C2284 1.355 . S
C2283 C2285 1.415 . S
C2284 C2283 1.355 . S
C2284 C2286 1.419 . S
C2285 C2280 1.425 . S
C2285 C2282 1.409 . S
C2285 C2283 1.415 . S
C2286 H2276 0.930 . S
C2286 C2284 1.419 . S
C2286 C2287 1.362 . S
C2287 H2277 0.930 . S
C2287 C2280 1.409 . S
C2287 C2286 1.362 . S
H2288 C2294 0.930 1_565 S
H2289 C2297 0.930 . S
H2290 C2298 0.930 . S
H2291 C2299 0.930 . S
H2292 C2302 0.930 . S
H2293 C2303 0.930 . S
C2294 H2288 0.930 1_545 S
C2294 C2295 1.355 . S
C2294 C2296 1.415 . S
C2295 C2294 1.355 . S
C2295 C2297 1.419 . S
C2296 C2294 1.415 . S
C2296 C2301 1.425 . S
C2296 C2303 1.409 1_545 S
C2297 H2289 0.930 . S
C2297 C2295 1.419 . S
C2297 C2298 1.362 . S
C2298 H2290 0.930 . S
C2298 C2297 1.362 . S
C2298 C2301 1.409 . S
C2299 H2291 0.930 . S
C2299 C2300 1.355 . S
C2299 C2301 1.415 . S
C2300 C2299 1.355 . S
C2300 C2302 1.419 1_545 S
C2301 C2296 1.425 . S
C2301 C2298 1.409 . S
C2301 C2299 1.415 . S
C2302 H2292 0.930 . S
C2302 C2300 1.419 1_565 S
C2302 C2303 1.362 . S
C2303 H2293 0.930 . S
C2303 C2296 1.409 1_565 S
C2303 C2302 1.362 . S
H2304 C2310 0.930 . S
H2305 C2313 0.930 . S
H2306 C2314 0.930 . S
H2307 C2315 0.930 . S
H2308 C2318 0.930 . S
H2309 C2319 0.930 . S
C2310 H2304 0.930 . S
C2310 C2311 1.355 . S
C2310 C2312 1.415 . S
C2311 C2310 1.355 . S
C2311 C2313 1.419 . S
C2312 C2310 1.415 . S
C2312 C2317 1.425 . S
C2312 C2319 1.409 . S
C2313 H2305 0.930 . S
C2313 C2311 1.419 . S
C2313 C2314 1.362 . S
C2314 H2306 0.930 . S
C2314 C2313 1.362 . S
C2314 C2317 1.409 . S
C2315 H2307 0.930 . S
C2315 C2316 1.355 . S
C2315 C2317 1.415 . S
C2316 C2315 1.355 . S
C2316 C2318 1.419 . S
C2317 C2312 1.425 . S
C2317 C2314 1.409 . S
C2317 C2315 1.415 . S
C2318 H2308 0.930 . S
C2318 C2316 1.419 . S
C2318 C2319 1.362 . S
C2319 H2309 0.930 . S
C2319 C2312 1.409 . S
C2319 C2318 1.362 . S
H2320 C2326 0.930 . S
H2321 C2329 0.930 . S
H2322 C2330 0.930 . S
H2323 C2331 0.930 . S
H2324 C2334 0.930 1_455 S
H2325 C2335 0.930 . S
C2326 H2320 0.930 . S
C2326 C2327 1.355 . S
C2326 C2328 1.415 . S
C2327 C2326 1.355 . S
C2327 C2329 1.419 . S
C2328 C2326 1.415 . S
C2328 C2333 1.425 . S
C2328 C2335 1.409 . S
C2329 H2321 0.930 . S
C2329 C2327 1.419 . S
C2329 C2330 1.362 . S
C2330 H2322 0.930 . S
C2330 C2329 1.362 . S
C2330 C2333 1.409 . S
C2331 H2323 0.930 . S
C2331 C2332 1.355 . S
C2331 C2333 1.415 . S
C2332 C2331 1.355 . S
C2332 C2334 1.419 . S
C2333 C2328 1.425 . S
C2333 C2330 1.409 . S
C2333 C2331 1.415 . S
C2334 H2324 0.930 1_655 S
C2334 C2332 1.419 . S
C2334 C2335 1.362 . S
C2335 H2325 0.930 . S
C2335 C2328 1.409 . S
C2335 C2334 1.362 . S
H2336 C2342 0.930 . S
H2337 C2345 0.930 . S
H2338 C2346 0.930 . S
H2339 C2347 0.930 . S
H2340 C2350 0.930 . S
H2341 C2351 0.930 . S
C2342 H2336 0.930 . S
C2342 C2343 1.355 . S
C2342 C2344 1.415 . S
C2343 C2342 1.355 . S
C2343 C2345 1.419 . S
C2344 C2342 1.415 . S
C2344 C2349 1.425 . S
C2344 C2351 1.409 . S
C2345 H2337 0.930 . S
C2345 C2343 1.419 . S
C2345 C2346 1.362 . S
C2346 H2338 0.930 . S
C2346 C2345 1.362 . S
C2346 C2349 1.409 . S
C2347 H2339 0.930 . S
C2347 C2348 1.355 . S
C2347 C2349 1.415 . S
C2348 C2347 1.355 . S
C2348 C2350 1.419 . S
C2349 C2344 1.425 . S
C2349 C2346 1.409 . S
C2349 C2347 1.415 . S
C2350 H2340 0.930 . S
C2350 C2348 1.419 . S
C2350 C2351 1.362 . S
C2351 H2341 0.930 . S
C2351 C2344 1.409 . S
C2351 C2350 1.362 . S
H2352 C2358 0.930 . S
H2353 C2361 0.930 . S
H2354 C2362 0.930 . S
H2355 C2363 0.930 . S
H2356 C2366 0.930 . S
H2357 C2367 0.930 . S
C2358 H2352 0.930 . S
C2358 C2359 1.355 . S
C2358 C2360 1.415 . S
C2359 C2358 1.355 . S
C2359 C2361 1.419 . S
C2360 C2358 1.415 . S
C2360 C2365 1.425 . S
C2360 C2367 1.409 . S
C2361 H2353 0.930 . S
C2361 C2359 1.419 . S
C2361 C2362 1.362 . S
C2362 H2354 0.930 . S
C2362 C2361 1.362 . S
C2362 C2365 1.409 . S
C2363 H2355 0.930 . S
C2363 C2364 1.355 . S
C2363 C2365 1.415 . S
C2364 C2363 1.355 . S
C2364 C2366 1.419 . S
C2365 C2360 1.425 . S
C2365 C2362 1.409 . S
C2365 C2363 1.415 . S
C2366 H2356 0.930 . S
C2366 C2364 1.419 . S
C2366 C2367 1.362 . S
C2367 H2357 0.930 . S
C2367 C2360 1.409 . S
C2367 C2366 1.362 . S
H2368 C2374 0.930 . S
H2369 C2377 0.930 . S
H2370 C2378 0.930 . S
H2371 C2379 0.930 . S
H2372 C2382 0.930 . S
H2373 C2383 0.930 . S
C2374 H2368 0.930 . S
C2374 C2375 1.355 . S
C2374 C2376 1.415 . S
C2375 C2374 1.355 . S
C2375 C2377 1.419 . S
C2376 C2374 1.415 . S
C2376 C2381 1.425 . S
C2376 C2383 1.409 . S
C2377 H2369 0.930 . S
C2377 C2375 1.419 . S
C2377 C2378 1.362 . S
C2378 H2370 0.930 . S
C2378 C2377 1.362 . S
C2378 C2381 1.409 . S
C2379 H2371 0.930 . S
C2379 C2380 1.355 . S
C2379 C2381 1.415 . S
C2380 C2379 1.355 . S
C2380 C2382 1.419 . S
C2381 C2376 1.425 . S
C2381 C2378 1.409 . S
C2381 C2379 1.415 . S
C2382 H2372 0.930 . S
C2382 C2380 1.419 . S
C2382 C2383 1.362 . S
C2383 H2373 0.930 . S
C2383 C2376 1.409 . S
C2383 C2382 1.362 . S
H2384 C2390 0.930 . S
H2385 C2393 0.930 . S
H2386 C2394 0.930 . S
H2387 C2395 0.930 . S
H2388 C2398 0.930 . S
H2389 C2399 0.930 . S
C2390 H2384 0.930 . S
C2390 C2391 1.355 . S
C2390 C2392 1.415 . S
C2391 C2390 1.355 . S
C2391 C2393 1.419 . S
C2392 C2390 1.415 . S
C2392 C2397 1.425 . S
C2392 C2399 1.409 . S
C2393 H2385 0.930 . S
C2393 C2391 1.419 . S
C2393 C2394 1.362 . S
C2394 H2386 0.930 . S
C2394 C2393 1.362 . S
C2394 C2397 1.409 . S
C2395 H2387 0.930 . S
C2395 C2396 1.355 . S
C2395 C2397 1.415 . S
C2396 C2395 1.355 . S
C2396 C2398 1.419 . S
C2397 C2392 1.425 . S
C2397 C2394 1.409 . S
C2397 C2395 1.415 . S
C2398 H2388 0.930 . S
C2398 C2396 1.419 . S
C2398 C2399 1.362 . S
C2399 H2389 0.930 . S
C2399 C2392 1.409 . S
C2399 C2398 1.362 . S
H2400 C2406 0.930 1_455 S
H2401 C2409 0.930 . S
H2402 C2410 0.930 . S
H2403 C2411 0.930 . S
H2404 C2414 0.930 . S
H2405 C2415 0.930 . S
C2406 H2400 0.930 1_655 S
C2406 C2407 1.355 . S
C2406 C2408 1.415 . S
C2407 C2406 1.355 . S
C2407 C2409 1.419 . S
C2408 C2406 1.415 . S
C2408 C2413 1.425 . S
C2408 C2415 1.409 1_655 S
C2409 H2401 0.930 . S
C2409 C2407 1.419 . S
C2409 C2410 1.362 . S
C2410 H2402 0.930 . S
C2410 C2409 1.362 . S
C2410 C2413 1.409 . S
C2411 H2403 0.930 . S
C2411 C2412 1.355 . S
C2411 C2413 1.415 . S
C2412 C2411 1.355 . S
C2412 C2414 1.419 1_655 S
C2413 C2408 1.425 . S
C2413 C2410 1.409 . S
C2413 C2411 1.415 . S
C2414 H2404 0.930 . S
C2414 C2412 1.419 1_455 S
C2414 C2415 1.362 . S
C2415 H2405 0.930 . S
C2415 C2408 1.409 1_455 S
C2415 C2414 1.362 . S
H2416 C2422 0.930 . S
H2417 C2425 0.930 . S
H2418 C2426 0.930 . S
H2419 C2427 0.930 . S
H2420 C2430 0.930 . S
H2421 C2431 0.930 . S
C2422 H2416 0.930 . S
C2422 C2423 1.355 . S
C2422 C2424 1.415 . S
C2423 C2422 1.355 . S
C2423 C2425 1.419 . S
C2424 C2422 1.415 . S
C2424 C2429 1.425 . S
C2424 C2431 1.409 . S
C2425 H2417 0.930 . S
C2425 C2423 1.419 . S
C2425 C2426 1.362 . S
C2426 H2418 0.930 . S
C2426 C2425 1.362 . S
C2426 C2429 1.409 . S
C2427 H2419 0.930 . S
C2427 C2428 1.355 . S
C2427 C2429 1.415 . S
C2428 C2427 1.355 . S
C2428 C2430 1.419 . S
C2429 C2424 1.425 . S
C2429 C2426 1.409 . S
C2429 C2427 1.415 . S
C2430 H2420 0.930 . S
C2430 C2428 1.419 . S
C2430 C2431 1.362 . S
C2431 H2421 0.930 . S
C2431 C2424 1.409 . S
C2431 C2430 1.362 . S
H2432 C2438 0.930 1_455 S
H2433 C2441 0.930 . S
H2434 C2442 0.930 . S
H2435 C2443 0.930 . S
H2436 C2446 0.930 . S
H2437 C2447 0.930 . S
C2438 H2432 0.930 1_655 S
C2438 C2439 1.355 . S
C2438 C2440 1.415 . S
C2439 C2438 1.355 . S
C2439 C2441 1.419 . S
C2440 C2438 1.415 . S
C2440 C2445 1.425 . S
C2440 C2447 1.409 1_655 S
C2441 H2433 0.930 . S
C2441 C2439 1.419 . S
C2441 C2442 1.362 . S
C2442 H2434 0.930 . S
C2442 C2441 1.362 . S
C2442 C2445 1.409 . S
C2443 H2435 0.930 . S
C2443 C2444 1.355 . S
C2443 C2445 1.415 . S
C2444 C2443 1.355 . S
C2444 C2446 1.419 1_655 S
C2445 C2440 1.425 . S
C2445 C2442 1.409 . S
C2445 C2443 1.415 . S
C2446 H2436 0.930 . S
C2446 C2444 1.419 1_455 S
C2446 C2447 1.362 . S
C2447 H2437 0.930 . S
C2447 C2440 1.409 1_455 S
C2447 C2446 1.362 . S
H2448 C2454 0.930 . S
H2449 C2457 0.930 . S
H2450 C2458 0.930 . S
H2451 C2459 0.930 . S
H2452 C2462 0.930 . S
H2453 C2463 0.930 . S
C2454 H2448 0.930 . S
C2454 C2455 1.355 . S
C2454 C2456 1.415 . S
C2455 C2454 1.355 . S
C2455 C2457 1.419 . S
C2456 C2454 1.415 . S
C2456 C2461 1.425 . S
C2456 C2463 1.409 . S
C2457 H2449 0.930 . S
C2457 C2455 1.419 . S
C2457 C2458 1.362 . S
C2458 H2450 0.930 . S
C2458 C2457 1.362 . S
C2458 C2461 1.409 . S
C2459 H2451 0.930 . S
C2459 C2460 1.355 . S
C2459 C2461 1.415 . S
C2460 C2459 1.355 . S
C2460 C2462 1.419 . S
C2461 C2456 1.425 . S
C2461 C2458 1.409 . S
C2461 C2459 1.415 . S
C2462 H2452 0.930 . S
C2462 C2460 1.419 . S
C2462 C2463 1.362 . S
C2463 H2453 0.930 . S
C2463 C2456 1.409 . S
C2463 C2462 1.362 . S
H2464 C2470 0.930 . S
H2465 C2473 0.930 . S
H2466 C2474 0.930 . S
H2467 C2475 0.930 . S
H2468 C2478 0.930 . S
H2469 C2479 0.930 . S
C2470 H2464 0.930 . S
C2470 C2471 1.355 . S
C2470 C2472 1.415 . S
C2471 C2470 1.355 . S
C2471 C2473 1.419 . S
C2472 C2470 1.415 . S
C2472 C2477 1.425 . S
C2472 C2479 1.409 . S
C2473 H2465 0.930 . S
C2473 C2471 1.419 . S
C2473 C2474 1.362 . S
C2474 H2466 0.930 . S
C2474 C2473 1.362 . S
C2474 C2477 1.409 . S
C2475 H2467 0.930 . S
C2475 C2476 1.355 . S
C2475 C2477 1.415 . S
C2476 C2475 1.355 . S
C2476 C2478 1.419 . S
C2477 C2472 1.425 . S
C2477 C2474 1.409 . S
C2477 C2475 1.415 . S
C2478 H2468 0.930 . S
C2478 C2476 1.419 . S
C2478 C2479 1.362 . S
C2479 H2469 0.930 . S
C2479 C2472 1.409 . S
C2479 C2478 1.362 . S
H2480 C2486 0.930 . S
H2481 C2489 0.930 . S
H2482 C2490 0.930 . S
H2483 C2491 0.930 . S
H2484 C2494 0.930 . S
H2485 C2495 0.930 . S
C2486 H2480 0.930 . S
C2486 C2487 1.355 . S
C2486 C2488 1.415 . S
C2487 C2486 1.355 . S
C2487 C2489 1.419 . S
C2488 C2486 1.415 . S
C2488 C2493 1.425 . S
C2488 C2495 1.409 . S
C2489 H2481 0.930 . S
C2489 C2487 1.419 . S
C2489 C2490 1.362 . S
C2490 H2482 0.930 . S
C2490 C2489 1.362 . S
C2490 C2493 1.409 . S
C2491 H2483 0.930 . S
C2491 C2492 1.355 . S
C2491 C2493 1.415 . S
C2492 C2491 1.355 . S
C2492 C2494 1.419 . S
C2493 C2488 1.425 . S
C2493 C2490 1.409 . S
C2493 C2491 1.415 . S
C2494 H2484 0.930 . S
C2494 C2492 1.419 . S
C2494 C2495 1.362 . S
C2495 H2485 0.930 . S
C2495 C2488 1.409 . S
C2495 C2494 1.362 . S
H2496 C2502 0.930 1_554 S
H2497 C2505 0.930 . S
H2498 C2506 0.930 . S
H2499 C2507 0.930 . S
H2500 C2510 0.930 . S
H2501 C2511 0.930 . S
C2502 H2496 0.930 1_556 S
C2502 C2503 1.355 . S
C2502 C2504 1.415 . S
C2503 C2502 1.355 . S
C2503 C2505 1.419 . S
C2504 C2502 1.415 . S
C2504 C2509 1.425 . S
C2504 C2511 1.409 1_556 S
C2505 H2497 0.930 . S
C2505 C2503 1.419 . S
C2505 C2506 1.362 . S
C2506 H2498 0.930 . S
C2506 C2505 1.362 . S
C2506 C2509 1.409 . S
C2507 H2499 0.930 . S
C2507 C2508 1.355 . S
C2507 C2509 1.415 . S
C2508 C2507 1.355 . S
C2508 C2510 1.419 1_556 S
C2509 C2504 1.425 . S
C2509 C2506 1.409 . S
C2509 C2507 1.415 . S
C2510 H2500 0.930 . S
C2510 C2508 1.419 1_554 S
C2510 C2511 1.362 . S
C2511 H2501 0.930 . S
C2511 C2504 1.409 1_554 S
C2511 C2510 1.362 . S
H2512 C2518 0.930 . S
H2513 C2521 0.930 . S
H2514 C2522 0.930 . S
H2515 C2523 0.930 . S
H2516 C2526 0.930 . S
H2517 C2527 0.930 . S
C2518 H2512 0.930 . S
C2518 C2519 1.355 . S
C2518 C2520 1.415 . S
C2519 C2518 1.355 . S
C2519 C2521 1.419 . S
C2520 C2518 1.415 . S
C2520 C2525 1.425 . S
C2520 C2527 1.409 . S
C2521 H2513 0.930 . S
C2521 C2519 1.419 . S
C2521 C2522 1.362 . S
C2522 H2514 0.930 . S
C2522 C2521 1.362 . S
C2522 C2525 1.409 . S
C2523 H2515 0.930 . S
C2523 C2524 1.355 . S
C2523 C2525 1.415 . S
C2524 C2523 1.355 . S
C2524 C2526 1.419 . S
C2525 C2520 1.425 . S
C2525 C2522 1.409 . S
C2525 C2523 1.415 . S
C2526 H2516 0.930 . S
C2526 C2524 1.419 . S
C2526 C2527 1.362 . S
C2527 H2517 0.930 . S
C2527 C2520 1.409 . S
C2527 C2526 1.362 . S
H2528 C2534 0.930 . S
H2529 C2537 0.930 . S
H2530 C2538 0.930 . S
H2531 C2539 0.930 . S
H2532 C2542 0.930 . S
H2533 C2543 0.930 . S
C2534 H2528 0.930 . S
C2534 C2535 1.355 . S
C2534 C2536 1.415 . S
C2535 C2534 1.355 . S
C2535 C2537 1.419 . S
C2536 C2534 1.415 . S
C2536 C2541 1.425 . S
C2536 C2543 1.409 . S
C2537 H2529 0.930 . S
C2537 C2535 1.419 . S
C2537 C2538 1.362 . S
C2538 H2530 0.930 . S
C2538 C2537 1.362 . S
C2538 C2541 1.409 . S
C2539 H2531 0.930 . S
C2539 C2540 1.355 . S
C2539 C2541 1.415 . S
C2540 C2539 1.355 . S
C2540 C2542 1.419 . S
C2541 C2536 1.425 . S
C2541 C2538 1.409 . S
C2541 C2539 1.415 . S
C2542 H2532 0.930 . S
C2542 C2540 1.419 . S
C2542 C2543 1.362 . S
C2543 H2533 0.930 . S
C2543 C2536 1.409 . S
C2543 C2542 1.362 . S
H2544 C2550 0.930 . S
H2545 C2553 0.930 . S
H2546 C2554 0.930 . S
H2547 C2555 0.930 . S
H2548 C2558 0.930 . S
H2549 C2559 0.930 . S
C2550 H2544 0.930 . S
C2550 C2551 1.355 . S
C2550 C2552 1.415 . S
C2551 C2550 1.355 . S
C2551 C2553 1.419 . S
C2552 C2550 1.415 . S
C2552 C2557 1.425 . S
C2552 C2559 1.409 . S
C2553 H2545 0.930 . S
C2553 C2551 1.419 . S
C2553 C2554 1.362 . S
C2554 H2546 0.930 . S
C2554 C2553 1.362 . S
C2554 C2557 1.409 . S
C2555 H2547 0.930 . S
C2555 C2556 1.355 . S
C2555 C2557 1.415 . S
C2556 C2555 1.355 . S
C2556 C2558 1.419 . S
C2557 C2552 1.425 . S
C2557 C2554 1.409 . S
C2557 C2555 1.415 . S
C2558 H2548 0.930 . S
C2558 C2556 1.419 . S
C2558 C2559 1.362 . S
C2559 H2549 0.930 . S
C2559 C2552 1.409 . S
C2559 C2558 1.362 . S
H2560 C2566 0.930 . S
H2561 C2569 0.930 . S
H2562 C2570 0.930 . S
H2563 C2571 0.930 1_556 S
H2564 C2574 0.930 . S
H2565 C2575 0.930 . S
C2566 H2560 0.930 . S
C2566 C2567 1.355 . S
C2566 C2568 1.415 . S
C2567 C2566 1.355 . S
C2567 C2569 1.419 1_554 S
C2568 C2566 1.415 . S
C2568 C2573 1.425 . S
C2568 C2575 1.409 . S
C2569 H2561 0.930 . S
C2569 C2567 1.419 1_556 S
C2569 C2570 1.362 . S
C2570 H2562 0.930 . S
C2570 C2569 1.362 . S
C2570 C2573 1.409 1_556 S
C2571 H2563 0.930 1_554 S
C2571 C2572 1.355 . S
C2571 C2573 1.415 . S
C2572 C2571 1.355 . S
C2572 C2574 1.419 . S
C2573 C2568 1.425 . S
C2573 C2570 1.409 1_554 S
C2573 C2571 1.415 . S
C2574 H2564 0.930 . S
C2574 C2572 1.419 . S
C2574 C2575 1.362 . S
C2575 H2565 0.930 . S
C2575 C2568 1.409 . S
C2575 C2574 1.362 . S
H2576 C2582 0.930 . S
H2577 C2585 0.930 . S
H2578 C2586 0.930 . S
H2579 C2587 0.930 . S
H2580 C2590 0.930 . S
H2581 C2591 0.930 . S
C2582 H2576 0.930 . S
C2582 C2583 1.355 . S
C2582 C2584 1.415 . S
C2583 C2582 1.355 . S
C2583 C2585 1.419 . S
C2584 C2582 1.415 . S
C2584 C2589 1.425 . S
C2584 C2591 1.409 . S
C2585 H2577 0.930 . S
C2585 C2583 1.419 . S
C2585 C2586 1.362 . S
C2586 H2578 0.930 . S
C2586 C2585 1.362 . S
C2586 C2589 1.409 . S
C2587 H2579 0.930 . S
C2587 C2588 1.355 . S
C2587 C2589 1.415 . S
C2588 C2587 1.355 . S
C2588 C2590 1.419 . S
C2589 C2584 1.425 . S
C2589 C2586 1.409 . S
C2589 C2587 1.415 . S
C2590 H2580 0.930 . S
C2590 C2588 1.419 . S
C2590 C2591 1.362 . S
C2591 H2581 0.930 . S
C2591 C2584 1.409 . S
C2591 C2590 1.362 . S
H2592 C2598 0.930 . S
H2593 C2601 0.930 . S
H2594 C2602 0.930 . S
H2595 C2603 0.930 . S
H2596 C2606 0.930 . S
H2597 C2607 0.930 . S
C2598 H2592 0.930 . S
C2598 C2599 1.355 . S
C2598 C2600 1.415 . S
C2599 C2598 1.355 . S
C2599 C2601 1.419 . S
C2600 C2598 1.415 . S
C2600 C2605 1.425 . S
C2600 C2607 1.409 . S
C2601 H2593 0.930 . S
C2601 C2599 1.419 . S
C2601 C2602 1.362 . S
C2602 H2594 0.930 . S
C2602 C2601 1.362 . S
C2602 C2605 1.409 . S
C2603 H2595 0.930 . S
C2603 C2604 1.355 . S
C2603 C2605 1.415 . S
C2604 C2603 1.355 . S
C2604 C2606 1.419 . S
C2605 C2600 1.425 . S
C2605 C2602 1.409 . S
C2605 C2603 1.415 . S
C2606 H2596 0.930 . S
C2606 C2604 1.419 . S
C2606 C2607 1.362 . S
C2607 H2597 0.930 . S
C2607 C2600 1.409 . S
C2607 C2606 1.362 . S
H2608 C2614 0.930 . S
H2609 C2617 0.930 . S
H2610 C2618 0.930 . S
H2611 C2619 0.930 . S
H2612 C2622 0.930 . S
H2613 C2623 0.930 . S
C2614 H2608 0.930 . S
C2614 C2615 1.355 . S
C2614 C2616 1.415 . S
C2615 C2614 1.355 . S
C2615 C2617 1.419 . S
C2616 C2614 1.415 . S
C2616 C2621 1.425 . S
C2616 C2623 1.409 . S
C2617 H2609 0.930 . S
C2617 C2615 1.419 . S
C2617 C2618 1.362 . S
C2618 H2610 0.930 . S
C2618 C2617 1.362 . S
C2618 C2621 1.409 . S
C2619 H2611 0.930 . S
C2619 C2620 1.355 . S
C2619 C2621 1.415 . S
C2620 C2619 1.355 . S
C2620 C2622 1.419 . S
C2621 C2616 1.425 . S
C2621 C2618 1.409 . S
C2621 C2619 1.415 . S
C2622 H2612 0.930 . S
C2622 C2620 1.419 . S
C2622 C2623 1.362 . S
C2623 H2613 0.930 . S
C2623 C2616 1.409 . S
C2623 C2622 1.362 . S
H2624 C2630 0.930 . S
H2625 C2633 0.930 . S
H2626 C2634 0.930 . S
H2627 C2635 0.930 . S
H2628 C2638 0.930 . S
H2629 C2639 0.930 . S
C2630 H2624 0.930 . S
C2630 C2631 1.355 . S
C2630 C2632 1.415 . S
C2631 C2630 1.355 . S
C2631 C2633 1.419 . S
C2632 C2630 1.415 . S
C2632 C2637 1.425 . S
C2632 C2639 1.409 . S
C2633 H2625 0.930 . S
C2633 C2631 1.419 . S
C2633 C2634 1.362 . S
C2634 H2626 0.930 . S
C2634 C2633 1.362 . S
C2634 C2637 1.409 . S
C2635 H2627 0.930 . S
C2635 C2636 1.355 . S
C2635 C2637 1.415 . S
C2636 C2635 1.355 . S
C2636 C2638 1.419 . S
C2637 C2632 1.425 . S
C2637 C2634 1.409 . S
C2637 C2635 1.415 . S
C2638 H2628 0.930 . S
C2638 C2636 1.419 . S
C2638 C2639 1.362 . S
C2639 H2629 0.930 . S
C2639 C2632 1.409 . S
C2639 C2638 1.362 . S
H2640 C2646 0.930 . S
H2641 C2649 0.930 . S
H2642 C2650 0.930 1_545 S
H2643 C2651 0.914 1_545 S
H2644 C2654 0.930 . S
H2645 C2655 0.930 . S
C2646 H2640 0.930 . S
C2646 C2647 1.355 . S
C2646 C2648 1.415 . S
C2647 C2646 1.355 . S
C2647 C2649 1.419 . S
C2648 C2646 1.415 . S
C2648 C2653 1.425 . S
C2648 C2655 1.409 . S
C2649 H2641 0.930 . S
C2649 C2647 1.419 . S
C2649 C2650 1.362 . S
C2650 H2642 0.930 1_565 S
C2650 C2649 1.362 . S
C2650 C2653 1.409 . S
C2651 H2643 0.914 1_565 S
C2651 C2652 1.362 . S
C2651 C2653 1.425 . S
C2652 C2651 1.362 . S
C2652 C2654 1.419 . S
C2653 C2648 1.425 . S
C2653 C2650 1.409 . S
C2653 C2651 1.425 . S
C2654 H2644 0.930 . S
C2654 C2652 1.419 . S
C2654 C2655 1.362 . S
C2655 H2645 0.930 . S
C2655 C2648 1.409 . S
C2655 C2654 1.362 . S
H2656 C2662 0.930 . S
H2657 C2665 0.930 . S
H2658 C2666 0.930 . S
H2659 C2667 0.930 . S
H2660 C2670 0.930 . S
H2661 C2671 0.930 . S
C2662 H2656 0.930 . S
C2662 C2663 1.355 . S
C2662 C2664 1.415 . S
C2663 C2662 1.355 . S
C2663 C2665 1.419 . S
C2664 C2662 1.415 . S
C2664 C2669 1.425 . S
C2664 C2671 1.409 . S
C2665 H2657 0.930 . S
C2665 C2663 1.419 . S
C2665 C2666 1.362 . S
C2666 H2658 0.930 . S
C2666 C2665 1.362 . S
C2666 C2669 1.409 . S
C2667 H2659 0.930 . S
C2667 C2668 1.355 . S
C2667 C2669 1.415 . S
C2668 C2667 1.355 . S
C2668 C2670 1.419 . S
C2669 C2664 1.425 . S
C2669 C2666 1.409 . S
C2669 C2667 1.415 . S
C2670 H2660 0.930 . S
C2670 C2668 1.419 . S
C2670 C2671 1.362 . S
C2671 H2661 0.930 . S
C2671 C2664 1.409 . S
C2671 C2670 1.362 . S
H2672 C2678 0.930 . S
H2673 C2681 0.930 . S
H2674 C2682 0.930 . S
H2675 C2683 0.930 . S
H2676 C2686 0.930 . S
H2677 C2687 0.930 . S
C2678 H2672 0.930 . S
C2678 C2679 1.355 . S
C2678 C2680 1.415 . S
C2679 C2678 1.355 . S
C2679 C2681 1.419 . S
C2680 C2678 1.415 . S
C2680 C2685 1.425 . S
C2680 C2687 1.409 . S
C2681 H2673 0.930 . S
C2681 C2679 1.419 . S
C2681 C2682 1.362 . S
C2682 H2674 0.930 . S
C2682 C2681 1.362 . S
C2682 C2685 1.409 . S
C2683 H2675 0.930 . S
C2683 C2684 1.355 . S
C2683 C2685 1.415 . S
C2684 C2683 1.355 . S
C2684 C2686 1.419 . S
C2685 C2680 1.425 . S
C2685 C2682 1.409 . S
C2685 C2683 1.415 . S
C2686 H2676 0.930 . S
C2686 C2684 1.419 . S
C2686 C2687 1.362 . S
C2687 H2677 0.930 . S
C2687 C2680 1.409 . S
C2687 C2686 1.362 . S
H2688 C2694 0.930 . S
H2689 C2697 0.930 . S
H2690 C2698 0.930 . S
H2691 C2699 0.930 . S
H2692 C2702 0.930 . S
H2693 C2703 0.930 . S
C2694 H2688 0.930 . S
C2694 C2695 1.355 . S
C2694 C2696 1.415 . S
C2695 C2694 1.355 . S
C2695 C2697 1.419 . S
C2696 C2694 1.415 . S
C2696 C2701 1.425 . S
C2696 C2703 1.409 . S
C2697 H2689 0.930 . S
C2697 C2695 1.419 . S
C2697 C2698 1.362 . S
C2698 H2690 0.930 . S
C2698 C2697 1.362 . S
C2698 C2701 1.409 . S
C2699 H2691 0.930 . S
C2699 C2700 1.355 . S
C2699 C2701 1.415 . S
C2700 C2699 1.355 . S
C2700 C2702 1.419 . S
C2701 C2696 1.425 . S
C2701 C2698 1.409 . S
C2701 C2699 1.415 . S
C2702 H2692 0.930 . S
C2702 C2700 1.419 . S
C2702 C2703 1.362 . S
C2703 H2693 0.930 . S
C2703 C2696 1.409 . S
C2703 C2702 1.362 . S
H2704 C2710 0.930 1_565 S
H2705 C2713 0.930 . S
H2706 C2714 0.930 . S
H2707 C2715 0.930 . S
H2708 C2718 0.930 . S
H2709 C2719 0.930 1_565 S
C2710 H2704 0.930 1_545 S
C2710 C2711 1.355 . S
C2710 C2712 1.415 . S
C2711 C2710 1.355 . S
C2711 C2713 1.419 . S
C2712 C2710 1.415 . S
C2712 C2717 1.425 . S
C2712 C2719 1.409 . S
C2713 H2705 0.930 . S
C2713 C2711 1.419 . S
C2713 C2714 1.362 . S
C2714 H2706 0.930 . S
C2714 C2713 1.362 . S
C2714 C2717 1.409 . S
C2715 H2707 0.930 . S
C2715 C2716 1.355 . S
C2715 C2717 1.415 . S
C2716 C2715 1.355 . S
C2716 C2718 1.419 . S
C2717 C2712 1.425 . S
C2717 C2714 1.409 . S
C2717 C2715 1.415 . S
C2718 H2708 0.930 . S
C2718 C2716 1.419 . S
C2718 C2719 1.362 . S
C2719 H2709 0.930 1_545 S
C2719 C2712 1.409 . S
C2719 C2718 1.362 . S
H2720 C2726 0.930 . S
H2721 C2729 0.930 1_655 S
H2722 C2730 0.930 . S
H2723 C2731 0.930 . S
H2724 C2734 0.930 . S
H2725 C2735 0.930 . S
C2726 H2720 0.930 . S
C2726 C2727 1.355 . S
C2726 C2728 1.415 . S
C2727 C2726 1.355 . S
C2727 C2729 1.419 1_565 S
C2728 C2726 1.415 . S
C2728 C2733 1.425 . S
C2728 C2735 1.409 . S
C2729 H2721 0.930 1_455 S
C2729 C2727 1.419 1_545 S
C2729 C2730 1.362 . S
C2730 H2722 0.930 . S
C2730 C2729 1.362 . S
C2730 C2733 1.409 1_545 S
C2731 H2723 0.930 . S
C2731 C2732 1.355 1_545 S
C2731 C2733 1.415 1_545 S
C2732 C2731 1.355 1_565 S
C2732 C2734 1.419 . S
C2733 C2728 1.425 . S
C2733 C2730 1.409 1_565 S
C2733 C2731 1.415 1_565 S
C2734 H2724 0.930 . S
C2734 C2732 1.419 . S
C2734 C2735 1.362 . S
C2735 H2725 0.930 . S
C2735 C2728 1.409 . S
C2735 C2734 1.362 . S
H2736 C2742 0.930 . S
H2737 C2745 0.930 . S
H2738 C2746 0.930 . S
H2739 C2747 0.930 . S
H2740 C2750 0.930 . S
H2741 C2751 0.930 . S
C2742 H2736 0.930 . S
C2742 C2743 1.355 . S
C2742 C2744 1.415 . S
C2743 C2742 1.355 . S
C2743 C2745 1.419 . S
C2744 C2742 1.415 . S
C2744 C2749 1.425 . S
C2744 C2751 1.409 . S
C2745 H2737 0.930 . S
C2745 C2743 1.419 . S
C2745 C2746 1.362 . S
C2746 H2738 0.930 . S
C2746 C2745 1.362 . S
C2746 C2749 1.409 . S
C2747 H2739 0.930 . S
C2747 C2748 1.355 . S
C2747 C2749 1.415 . S
C2748 C2747 1.355 . S
C2748 C2750 1.419 . S
C2749 C2744 1.425 . S
C2749 C2746 1.409 . S
C2749 C2747 1.415 . S
C2750 H2740 0.930 . S
C2750 C2748 1.419 . S
C2750 C2751 1.362 . S
C2751 H2741 0.930 . S
C2751 C2744 1.409 . S
C2751 C2750 1.362 . S
H2752 C2758 0.930 . S
H2753 C2761 0.930 . S
H2754 C2762 0.930 . S
H2755 C2763 0.930 . S
H2756 C2766 0.930 . S
H2757 C2767 0.930 . S
C2758 H2752 0.930 . S
C2758 C2759 1.355 . S
C2758 C2760 1.415 . S
C2759 C2758 1.355 . S
C2759 C2761 1.419 . S
C2760 C2758 1.415 . S
C2760 C2765 1.425 . S
C2760 C2767 1.409 . S
C2761 H2753 0.930 . S
C2761 C2759 1.419 . S
C2761 C2762 1.362 . S
C2762 H2754 0.930 . S
C2762 C2761 1.362 . S
C2762 C2765 1.409 . S
C2763 H2755 0.930 . S
C2763 C2764 1.355 . S
C2763 C2765 1.415 . S
C2764 C2763 1.355 . S
C2764 C2766 1.419 . S
C2765 C2760 1.425 . S
C2765 C2762 1.409 . S
C2765 C2763 1.415 . S
C2766 H2756 0.930 . S
C2766 C2764 1.419 . S
C2766 C2767 1.362 . S
C2767 H2757 0.930 . S
C2767 C2760 1.409 . S
C2767 C2766 1.362 . S
H2768 C2774 0.930 . S
H2769 C2777 0.930 . S
H2770 C2778 0.930 . S
H2771 C2779 0.930 . S
H2772 C2782 0.930 . S
H2773 C2783 0.930 . S
C2774 H2768 0.930 . S
C2774 C2775 1.355 . S
C2774 C2776 1.415 . S
C2775 C2774 1.355 . S
C2775 C2777 1.419 . S
C2776 C2774 1.415 . S
C2776 C2781 1.425 . S
C2776 C2783 1.409 . S
C2777 H2769 0.930 . S
C2777 C2775 1.419 . S
C2777 C2778 1.362 . S
C2778 H2770 0.930 . S
C2778 C2777 1.362 . S
C2778 C2781 1.409 . S
C2779 H2771 0.930 . S
C2779 C2780 1.355 . S
C2779 C2781 1.415 . S
C2780 C2779 1.355 . S
C2780 C2782 1.419 . S
C2781 C2776 1.425 . S
C2781 C2778 1.409 . S
C2781 C2779 1.415 . S
C2782 H2772 0.930 . S
C2782 C2780 1.419 . S
C2782 C2783 1.362 . S
C2783 H2773 0.930 . S
C2783 C2776 1.409 . S
C2783 C2782 1.362 . S
H2784 C2790 0.930 . S
H2785 C2793 0.930 . S
H2786 C2794 0.930 . S
H2787 C2795 0.930 . S
H2788 C2798 0.930 . S
H2789 C2799 0.930 . S
C2790 H2784 0.930 . S
C2790 C2791 1.355 . S
C2790 C2792 1.415 . S
C2791 C2790 1.355 . S
C2791 C2793 1.419 . S
C2792 C2790 1.415 . S
C2792 C2797 1.425 . S
C2792 C2799 1.409 . S
C2793 H2785 0.930 . S
C2793 C2791 1.419 . S
C2793 C2794 1.362 . S
C2794 H2786 0.930 . S
C2794 C2793 1.362 . S
C2794 C2797 1.409 . S
C2795 H2787 0.930 . S
C2795 C2796 1.355 . S
C2795 C2797 1.415 . S
C2796 C2795 1.355 . S
C2796 C2798 1.419 . S
C2797 C2792 1.425 . S
C2797 C2794 1.409 . S
C2797 C2795 1.415 . S
C2798 H2788 0.930 . S
C2798 C2796 1.419 . S
C2798 C2799 1.362 . S
C2799 H2789 0.930 . S
C2799 C2792 1.409 . S
C2799 C2798 1.362 . S
H2800 C2806 0.930 . S
H2801 C2809 0.930 . S
H2802 C2810 0.930 . S
H2803 C2811 0.930 . S
H2804 C2814 0.930 . S
H2805 C2815 0.930 . S
C2806 H2800 0.930 . S
C2806 C2807 1.355 . S
C2806 C2808 1.415 . S
C2807 C2806 1.355 . S
C2807 C2809 1.419 . S
C2808 C2806 1.415 . S
C2808 C2813 1.425 . S
C2808 C2815 1.409 . S
C2809 H2801 0.930 . S
C2809 C2807 1.419 . S
C2809 C2810 1.362 . S
C2810 H2802 0.930 . S
C2810 C2809 1.362 . S
C2810 C2813 1.409 . S
C2811 H2803 0.930 . S
C2811 C2812 1.355 . S
C2811 C2813 1.415 . S
C2812 C2811 1.355 . S
C2812 C2814 1.419 . S
C2813 C2808 1.425 . S
C2813 C2810 1.409 . S
C2813 C2811 1.415 . S
C2814 H2804 0.930 . S
C2814 C2812 1.419 . S
C2814 C2815 1.362 . S
C2815 H2805 0.930 . S
C2815 C2808 1.409 . S
C2815 C2814 1.362 . S
H2816 C2822 0.930 . S
H2817 C2825 0.930 . S
H2818 C2826 0.930 . S
H2819 C2827 0.930 . S
H2820 C2830 0.930 . S
H2821 C2831 0.930 . S
C2822 H2816 0.930 . S
C2822 C2823 1.355 . S
C2822 C2824 1.415 . S
C2823 C2822 1.355 . S
C2823 C2825 1.419 . S
C2824 C2822 1.415 . S
C2824 C2829 1.425 . S
C2824 C2831 1.409 . S
C2825 H2817 0.930 . S
C2825 C2823 1.419 . S
C2825 C2826 1.362 . S
C2826 H2818 0.930 . S
C2826 C2825 1.362 . S
C2826 C2829 1.409 . S
C2827 H2819 0.930 . S
C2827 C2828 1.355 . S
C2827 C2829 1.415 . S
C2828 C2827 1.355 . S
C2828 C2830 1.419 . S
C2829 C2824 1.425 . S
C2829 C2826 1.409 . S
C2829 C2827 1.415 . S
C2830 H2820 0.930 . S
C2830 C2828 1.419 . S
C2830 C2831 1.362 . S
C2831 H2821 0.930 . S
C2831 C2824 1.409 . S
C2831 C2830 1.362 . S
H2832 C2838 0.930 . S
H2833 C2841 0.930 . S
H2834 C2842 0.930 . S
H2835 C2843 0.930 . S
H2836 C2846 0.930 . S
H2837 C2847 0.930 . S
C2838 H2832 0.930 . S
C2838 C2839 1.355 . S
C2838 C2840 1.415 . S
C2839 C2838 1.355 . S
C2839 C2841 1.419 . S
C2840 C2838 1.415 . S
C2840 C2845 1.425 . S
C2840 C2847 1.409 . S
C2841 H2833 0.930 . S
C2841 C2839 1.419 . S
C2841 C2842 1.362 . S
C2842 H2834 0.930 . S
C2842 C2841 1.362 . S
C2842 C2845 1.409 . S
C2843 H2835 0.930 . S
C2843 C2844 1.355 . S
C2843 C2845 1.415 . S
C2844 C2843 1.355 . S
C2844 C2846 1.419 . S
C2845 C2840 1.425 . S
C2845 C2842 1.409 . S
C2845 C2843 1.415 . S
C2846 H2836 0.930 . S
C2846 C2844 1.419 . S
C2846 C2847 1.362 . S
C2847 H2837 0.930 . S
C2847 C2840 1.409 . S
C2847 C2846 1.362 . S
H2848 C2854 0.930 . S
H2849 C2857 0.930 . S
H2850 C2858 0.930 . S
H2851 C2859 0.930 . S
H2852 C2862 0.930 . S
H2853 C2863 0.930 . S
C2854 H2848 0.930 . S
C2854 C2855 1.355 . S
C2854 C2856 1.415 . S
C2855 C2854 1.355 . S
C2855 C2857 1.419 . S
C2856 C2854 1.415 . S
C2856 C2861 1.425 . S
C2856 C2863 1.409 . S
C2857 H2849 0.930 . S
C2857 C2855 1.419 . S
C2857 C2858 1.362 . S
C2858 H2850 0.930 . S
C2858 C2857 1.362 . S
C2858 C2861 1.409 . S
C2859 H2851 0.930 . S
C2859 C2860 1.355 . S
C2859 C2861 1.415 . S
C2860 C2859 1.355 . S
C2860 C2862 1.419 . S
C2861 C2856 1.425 . S
C2861 C2858 1.409 . S
C2861 C2859 1.415 . S
C2862 H2852 0.930 . S
C2862 C2860 1.419 . S
C2862 C2863 1.362 . S
C2863 H2853 0.930 . S
C2863 C2856 1.409 . S
C2863 C2862 1.362 . S
H2864 C2870 0.930 . S
H2865 C2873 0.930 . S
H2866 C2874 0.930 . S
H2867 C2875 0.930 . S
H2868 C2878 0.930 . S
H2869 C2879 0.930 . S
C2870 H2864 0.930 . S
C2870 C2871 1.355 . S
C2870 C2872 1.415 . S
C2871 C2870 1.355 . S
C2871 C2873 1.419 . S
C2872 C2870 1.415 . S
C2872 C2877 1.425 . S
C2872 C2879 1.409 . S
C2873 H2865 0.930 . S
C2873 C2871 1.419 . S
C2873 C2874 1.362 . S
C2874 H2866 0.930 . S
C2874 C2873 1.362 . S
C2874 C2877 1.409 . S
C2875 H2867 0.930 . S
C2875 C2876 1.355 . S
C2875 C2877 1.415 . S
C2876 C2875 1.355 . S
C2876 C2878 1.419 . S
C2877 C2872 1.425 . S
C2877 C2874 1.409 . S
C2877 C2875 1.415 . S
C2878 H2868 0.930 . S
C2878 C2876 1.419 . S
C2878 C2879 1.362 . S
C2879 H2869 0.930 . S
C2879 C2872 1.409 . S
C2879 C2878 1.362 . S
H2880 C2886 0.930 . S
H2881 C2889 0.930 . S
H2882 C2890 0.930 . S
H2883 C2891 0.930 . S
H2884 C2894 0.930 . S
H2885 C2895 0.930 . S
C2886 H2880 0.930 . S
C2886 C2887 1.355 . S
C2886 C2888 1.415 . S
C2887 C2886 1.355 . S
C2887 C2889 1.419 . S
C2888 C2886 1.415 . S
C2888 C2893 1.425 . S
C2888 C2895 1.409 . S
C2889 H2881 0.930 . S
C2889 C2887 1.419 . S
C2889 C2890 1.362 . S
C2890 H2882 0.930 . S
C2890 C2889 1.362 . S
C2890 C2893 1.409 . S
C2891 H2883 0.930 . S
C2891 C2892 1.355 . S
C2891 C2893 1.415 . S
C2892 C2891 1.355 . S
C2892 C2894 1.419 . S
C2893 C2888 1.425 . S
C2893 C2890 1.409 . S
C2893 C2891 1.415 . S
C2894 H2884 0.930 . S
C2894 C2892 1.419 . S
C2894 C2895 1.362 . S
C2895 H2885 0.930 . S
C2895 C2888 1.409 . S
C2895 C2894 1.362 . S
H2896 C2902 0.930 . S
H2897 C2905 0.930 . S
H2898 C2906 0.930 . S
H2899 C2907 0.930 . S
H2900 C2910 0.930 . S
H2901 C2911 0.930 . S
C2902 H2896 0.930 . S
C2902 C2903 1.355 . S
C2902 C2904 1.415 . S
C2903 C2902 1.355 . S
C2903 C2905 1.419 . S
C2904 C2902 1.415 . S
C2904 C2909 1.425 . S
C2904 C2911 1.409 . S
C2905 H2897 0.930 . S
C2905 C2903 1.419 . S
C2905 C2906 1.362 . S
C2906 H2898 0.930 . S
C2906 C2905 1.362 . S
C2906 C2909 1.409 . S
C2907 H2899 0.930 . S
C2907 C2908 1.355 . S
C2907 C2909 1.415 . S
C2908 C2907 1.355 . S
C2908 C2910 1.419 . S
C2909 C2904 1.425 . S
C2909 C2906 1.409 . S
C2909 C2907 1.415 . S
C2910 H2900 0.930 . S
C2910 C2908 1.419 . S
C2910 C2911 1.362 . S
C2911 H2901 0.930 . S
C2911 C2904 1.409 . S
C2911 C2910 1.362 . S
H2912 C2918 0.930 . S
H2913 C2921 0.930 . S
H2914 C2922 0.930 . S
H2915 C2923 0.930 . S
H2916 C2926 0.930 . S
H2917 C2927 0.930 . S
C2918 H2912 0.930 . S
C2918 C2919 1.355 . S
C2918 C2920 1.415 . S
C2919 C2918 1.355 . S
C2919 C2921 1.419 . S
C2920 C2918 1.415 . S
C2920 C2925 1.425 . S
C2920 C2927 1.409 . S
C2921 H2913 0.930 . S
C2921 C2919 1.419 . S
C2921 C2922 1.362 . S
C2922 H2914 0.930 . S
C2922 C2921 1.362 . S
C2922 C2925 1.409 . S
C2923 H2915 0.930 . S
C2923 C2924 1.355 . S
C2923 C2925 1.415 . S
C2924 C2923 1.355 . S
C2924 C2926 1.419 . S
C2925 C2920 1.425 . S
C2925 C2922 1.409 . S
C2925 C2923 1.415 . S
C2926 H2916 0.930 . S
C2926 C2924 1.419 . S
C2926 C2927 1.362 . S
C2927 H2917 0.930 . S
C2927 C2920 1.409 . S
C2927 C2926 1.362 . S
H2928 C2934 0.930 . S
H2929 C2937 0.930 . S
H2930 C2938 0.930 . S
H2931 C2939 0.930 . S
H2932 C2942 0.930 . S
H2933 C2943 0.930 . S
C2934 H2928 0.930 . S
C2934 C2935 1.355 . S
C2934 C2936 1.415 . S
C2935 C2934 1.355 . S
C2935 C2937 1.419 . S
C2936 C2934 1.415 . S
C2936 C2941 1.425 . S
C2936 C2943 1.409 . S
C2937 H2929 0.930 . S
C2937 C2935 1.419 . S
C2937 C2938 1.362 . S
C2938 H2930 0.930 . S
C2938 C2937 1.362 . S
C2938 C2941 1.409 . S
C2939 H2931 0.930 . S
C2939 C2940 1.355 . S
C2939 C2941 1.415 . S
C2940 C2939 1.355 . S
C2940 C2942 1.419 . S
C2941 C2936 1.425 . S
C2941 C2938 1.409 . S
C2941 C2939 1.415 . S
C2942 H2932 0.930 . S
C2942 C2940 1.419 . S
C2942 C2943 1.362 . S
C2943 H2933 0.930 . S
C2943 C2936 1.409 . S
C2943 C2942 1.362 . S
H2944 C2950 0.930 . S
H2945 C2953 0.930 . S
H2946 C2954 0.930 . S
H2947 C2955 0.930 . S
H2948 C2958 0.930 . S
H2949 C2959 0.930 . S
C2950 H2944 0.930 . S
C2950 C2951 1.355 . S
C2950 C2952 1.415 . S
C2951 C2950 1.355 . S
C2951 C2953 1.419 . S
C2952 C2950 1.415 . S
C2952 C2957 1.425 . S
C2952 C2959 1.409 . S
C2953 H2945 0.930 . S
C2953 C2951 1.419 . S
C2953 C2954 1.362 . S
C2954 H2946 0.930 . S
C2954 C2953 1.362 . S
C2954 C2957 1.409 . S
C2955 H2947 0.930 . S
C2955 C2956 1.355 . S
C2955 C2957 1.415 . S
C2956 C2955 1.355 . S
C2956 C2958 1.419 . S
C2957 C2952 1.425 . S
C2957 C2954 1.409 . S
C2957 C2955 1.415 . S
C2958 H2948 0.930 . S
C2958 C2956 1.419 . S
C2958 C2959 1.362 . S
C2959 H2949 0.930 . S
C2959 C2952 1.409 . S
C2959 C2958 1.362 . S
H2960 C2966 0.930 . S
H2961 C2969 0.930 . S
H2962 C2970 0.930 . S
H2963 C2971 0.930 . S
H2964 C2974 0.930 . S
H2965 C2975 0.930 . S
C2966 H2960 0.930 . S
C2966 C2967 1.355 . S
C2966 C2968 1.415 . S
C2967 C2966 1.355 . S
C2967 C2969 1.419 . S
C2968 C2966 1.415 . S
C2968 C2973 1.425 . S
C2968 C2975 1.409 . S
C2969 H2961 0.930 . S
C2969 C2967 1.419 . S
C2969 C2970 1.362 . S
C2970 H2962 0.930 . S
C2970 C2969 1.362 . S
C2970 C2973 1.409 . S
C2971 H2963 0.930 . S
C2971 C2972 1.355 . S
C2971 C2973 1.415 . S
C2972 C2971 1.355 . S
C2972 C2974 1.419 . S
C2973 C2968 1.425 . S
C2973 C2970 1.409 . S
C2973 C2971 1.415 . S
C2974 H2964 0.930 . S
C2974 C2972 1.419 . S
C2974 C2975 1.362 . S
C2975 H2965 0.930 . S
C2975 C2968 1.409 . S
C2975 C2974 1.362 . S
H2976 C2982 0.930 . S
H2977 C2985 0.930 . S
H2978 C2986 0.930 . S
H2979 C2987 0.930 . S
H2980 C2990 0.930 . S
H2981 C2991 0.930 . S
C2982 H2976 0.930 . S
C2982 C2983 1.355 . S
C2982 C2984 1.415 . S
C2983 C2982 1.355 . S
C2983 C2985 1.419 . S
C2984 C2982 1.415 . S
C2984 C2989 1.425 . S
C2984 C2991 1.409 . S
C2985 H2977 0.930 . S
C2985 C2983 1.419 . S
C2985 C2986 1.362 . S
C2986 H2978 0.930 . S
C2986 C2985 1.362 . S
C2986 C2989 1.409 . S
C2987 H2979 0.930 . S
C2987 C2988 1.355 . S
C2987 C2989 1.415 . S
C2988 C2987 1.355 . S
C2988 C2990 1.419 . S
C2989 C2984 1.425 . S
C2989 C2986 1.409 . S
C2989 C2987 1.415 . S
C2990 H2980 0.930 . S
C2990 C2988 1.419 . S
C2990 C2991 1.362 . S
C2991 H2981 0.930 . S
C2991 C2984 1.409 . S
C2991 C2990 1.362 . S
H2992 C2998 0.930 . S
H2993 C3001 0.930 . S
H2994 C3002 0.930 . S
H2995 C3003 0.930 . S
H2996 C3006 0.930 . S
H2997 C3007 0.930 . S
C2998 H2992 0.930 . S
C2998 C2999 1.355 . S
C2998 C3000 1.415 . S
C2999 C2998 1.355 . S
C2999 C3001 1.419 . S
C3000 C2998 1.415 . S
C3000 C3005 1.425 . S
C3000 C3007 1.409 . S
C3001 H2993 0.930 . S
C3001 C2999 1.419 . S
C3001 C3002 1.362 . S
C3002 H2994 0.930 . S
C3002 C3001 1.362 . S
C3002 C3005 1.409 . S
C3003 H2995 0.930 . S
C3003 C3004 1.355 . S
C3003 C3005 1.415 . S
C3004 C3003 1.355 . S
C3004 C3006 1.419 . S
C3005 C3000 1.425 . S
C3005 C3002 1.409 . S
C3005 C3003 1.415 . S
C3006 H2996 0.930 . S
C3006 C3004 1.419 . S
C3006 C3007 1.362 . S
C3007 H2997 0.930 . S
C3007 C3000 1.409 . S
C3007 C3006 1.362 . S
H3008 C3014 0.930 . S
H3009 C3017 0.930 . S
H3010 C3018 0.930 . S
H3011 C3019 0.930 . S
H3012 C3022 0.930 . S
H3013 C3023 0.930 . S
C3014 H3008 0.930 . S
C3014 C3015 1.355 . S
C3014 C3016 1.415 . S
C3015 C3014 1.355 . S
C3015 C3017 1.419 . S
C3016 C3014 1.415 . S
C3016 C3021 1.425 . S
C3016 C3023 1.409 . S
C3017 H3009 0.930 . S
C3017 C3015 1.419 . S
C3017 C3018 1.362 . S
C3018 H3010 0.930 . S
C3018 C3017 1.362 . S
C3018 C3021 1.409 . S
C3019 H3011 0.930 . S
C3019 C3020 1.355 . S
C3019 C3021 1.415 . S
C3020 C3019 1.355 . S
C3020 C3022 1.419 . S
C3021 C3016 1.425 . S
C3021 C3018 1.409 . S
C3021 C3019 1.415 . S
C3022 H3012 0.930 . S
C3022 C3020 1.419 . S
C3022 C3023 1.362 . S
C3023 H3013 0.930 . S
C3023 C3016 1.409 . S
C3023 C3022 1.362 . S
H3024 C3030 0.930 . S
H3025 C3033 0.930 . S
H3026 C3034 0.930 . S
H3027 C3035 0.930 . S
H3028 C3038 0.930 . S
H3029 C3039 0.930 . S
C3030 H3024 0.930 . S
C3030 C3031 1.355 . S
C3030 C3032 1.415 . S
C3031 C3030 1.355 . S
C3031 C3033 1.419 . S
C3032 C3030 1.415 . S
C3032 C3037 1.425 . S
C3032 C3039 1.409 . S
C3033 H3025 0.930 . S
C3033 C3031 1.419 . S
C3033 C3034 1.362 . S
C3034 H3026 0.930 . S
C3034 C3033 1.362 . S
C3034 C3037 1.409 . S
C3035 H3027 0.930 . S
C3035 C3036 1.355 . S
C3035 C3037 1.415 . S
C3036 C3035 1.355 . S
C3036 C3038 1.419 . S
C3037 C3032 1.425 . S
C3037 C3034 1.409 . S
C3037 C3035 1.415 . S
C3038 H3028 0.930 . S
C3038 C3036 1.419 . S
C3038 C3039 1.362 . S
C3039 H3029 0.930 . S
C3039 C3032 1.409 . S
C3039 C3038 1.362 . S
H3040 C3046 0.930 . S
H3041 C3049 0.930 . S
H3042 C3050 0.930 . S
H3043 C3051 0.930 . S
H3044 C3054 0.930 . S
H3045 C3055 0.930 . S
C3046 H3040 0.930 . S
C3046 C3047 1.355 . S
C3046 C3048 1.415 . S
C3047 C3046 1.355 . S
C3047 C3049 1.419 . S
C3048 C3046 1.415 . S
C3048 C3053 1.425 . S
C3048 C3055 1.409 . S
C3049 H3041 0.930 . S
C3049 C3047 1.419 . S
C3049 C3050 1.362 . S
C3050 H3042 0.930 . S
C3050 C3049 1.362 . S
C3050 C3053 1.409 . S
C3051 H3043 0.930 . S
C3051 C3052 1.355 . S
C3051 C3053 1.415 . S
C3052 C3051 1.355 . S
C3052 C3054 1.419 . S
C3053 C3048 1.425 . S
C3053 C3050 1.409 . S
C3053 C3051 1.415 . S
C3054 H3044 0.930 . S
C3054 C3052 1.419 . S
C3054 C3055 1.362 . S
C3055 H3045 0.930 . S
C3055 C3048 1.409 . S
C3055 C3054 1.362 . S
H3056 C3062 0.930 . S
H3057 C3065 0.930 . S
H3058 C3066 0.930 . S
H3059 C3067 0.930 . S
H3060 C3070 0.930 . S
H3061 C3071 0.930 . S
C3062 H3056 0.930 . S
C3062 C3063 1.355 . S
C3062 C3064 1.415 . S
C3063 C3062 1.355 . S
C3063 C3065 1.419 . S
C3064 C3062 1.415 . S
C3064 C3069 1.425 . S
C3064 C3071 1.409 . S
C3065 H3057 0.930 . S
C3065 C3063 1.419 . S
C3065 C3066 1.362 . S
C3066 H3058 0.930 . S
C3066 C3065 1.362 . S
C3066 C3069 1.409 . S
C3067 H3059 0.930 . S
C3067 C3068 1.355 . S
C3067 C3069 1.415 . S
C3068 C3067 1.355 . S
C3068 C3070 1.419 . S
C3069 C3064 1.425 . S
C3069 C3066 1.409 . S
C3069 C3067 1.415 . S
C3070 H3060 0.930 . S
C3070 C3068 1.419 . S
C3070 C3071 1.362 . S
C3071 H3061 0.930 . S
C3071 C3064 1.409 . S
C3071 C3070 1.362 . S
H3072 C3078 0.930 . S
H3073 C3081 0.930 . S
H3074 C3082 0.930 . S
H3075 C3083 0.930 . S
H3076 C3086 0.930 . S
H3077 C3087 0.930 . S
C3078 H3072 0.930 . S
C3078 C3079 1.355 . S
C3078 C3080 1.415 . S
C3079 C3078 1.355 . S
C3079 C3081 1.419 . S
C3080 C3078 1.415 . S
C3080 C3085 1.425 . S
C3080 C3087 1.409 . S
C3081 H3073 0.930 . S
C3081 C3079 1.419 . S
C3081 C3082 1.362 . S
C3082 H3074 0.930 . S
C3082 C3081 1.362 . S
C3082 C3085 1.409 . S
C3083 H3075 0.930 . S
C3083 C3084 1.355 . S
C3083 C3085 1.415 . S
C3084 C3083 1.355 . S
C3084 C3086 1.419 . S
C3085 C3080 1.425 . S
C3085 C3082 1.409 . S
C3085 C3083 1.415 . S
C3086 H3076 0.930 . S
C3086 C3084 1.419 . S
C3086 C3087 1.362 . S
C3087 H3077 0.930 . S
C3087 C3080 1.409 . S
C3087 C3086 1.362 . S
H3088 C3094 0.930 . S
H3089 C3097 0.930 . S
H3090 C3098 0.930 . S
H3091 C3099 0.930 . S
H3092 C3102 0.930 . S
H3093 C3103 0.930 . S
C3094 H3088 0.930 . S
C3094 C3095 1.355 . S
C3094 C3096 1.415 . S
C3095 C3094 1.355 . S
C3095 C3097 1.419 . S
C3096 C3094 1.415 . S
C3096 C3101 1.425 . S
C3096 C3103 1.409 . S
C3097 H3089 0.930 . S
C3097 C3095 1.419 . S
C3097 C3098 1.362 . S
C3098 H3090 0.930 . S
C3098 C3097 1.362 . S
C3098 C3101 1.409 . S
C3099 H3091 0.930 . S
C3099 C3100 1.355 . S
C3099 C3101 1.415 . S
C3100 C3099 1.355 . S
C3100 C3102 1.419 . S
C3101 C3096 1.425 . S
C3101 C3098 1.409 . S
C3101 C3099 1.415 . S
C3102 H3092 0.930 . S
C3102 C3100 1.419 . S
C3102 C3103 1.362 . S
C3103 H3093 0.930 . S
C3103 C3096 1.409 . S
C3103 C3102 1.362 . S
H3104 C3110 0.930 . S
H3105 C3113 0.930 . S
H3106 C3114 0.930 . S
H3107 C3115 0.930 . S
H3108 C3118 0.930 . S
H3109 C3119 0.930 . S
C3110 H3104 0.930 . S
C3110 C3111 1.355 . S
C3110 C3112 1.415 . S
C3111 C3110 1.355 . S
C3111 C3113 1.419 . S
C3112 C3110 1.415 . S
C3112 C3117 1.425 . S
C3112 C3119 1.409 . S
C3113 H3105 0.930 . S
C3113 C3111 1.419 . S
C3113 C3114 1.362 . S
C3114 H3106 0.930 . S
C3114 C3113 1.362 . S
C3114 C3117 1.409 . S
C3115 H3107 0.930 . S
C3115 C3116 1.355 . S
C3115 C3117 1.415 . S
C3116 C3115 1.355 . S
C3116 C3118 1.419 . S
C3117 C3112 1.425 . S
C3117 C3114 1.409 . S
C3117 C3115 1.415 . S
C3118 H3108 0.930 . S
C3118 C3116 1.419 . S
C3118 C3119 1.362 . S
C3119 H3109 0.930 . S
C3119 C3112 1.409 . S
C3119 C3118 1.362 . S
H3120 C3126 0.930 . S
H3121 C3129 0.930 . S
H3122 C3130 0.930 . S
H3123 C3131 0.930 . S
H3124 C3134 0.930 . S
H3125 C3135 0.930 . S
C3126 H3120 0.930 . S
C3126 C3127 1.355 . S
C3126 C3128 1.415 1_655 S
C3127 C3126 1.355 . S
C3127 C3129 1.419 . S
C3128 C3126 1.415 1_455 S
C3128 C3133 1.425 1_455 S
C3128 C3135 1.409 . S
C3129 H3121 0.930 . S
C3129 C3127 1.419 . S
C3129 C3130 1.362 . S
C3130 H3122 0.930 . S
C3130 C3129 1.362 . S
C3130 C3133 1.409 . S
C3131 H3123 0.930 . S
C3131 C3132 1.355 . S
C3131 C3133 1.415 1_455 S
C3132 C3131 1.355 . S
C3132 C3134 1.419 . S
C3133 C3128 1.425 1_655 S
C3133 C3130 1.409 . S
C3133 C3131 1.415 1_655 S
C3134 H3124 0.930 . S
C3134 C3132 1.419 . S
C3134 C3135 1.362 . S
C3135 H3125 0.930 . S
C3135 C3128 1.409 . S
C3135 C3134 1.362 . S
H3136 C3142 0.926 . S
H3137 C3145 0.930 . S
H3138 C3146 0.930 . S
H3139 C3147 0.926 . S
H3140 C3150 0.930 . S
H3141 C3151 0.930 . S
C3142 H3136 0.926 . S
C3142 C3143 1.360 1_655 S
C3142 C3144 1.413 . S
C3143 C3142 1.360 1_455 S
C3143 C3145 1.419 . S
C3144 C3142 1.413 . S
C3144 C3149 1.425 1_655 S
C3144 C3151 1.409 . S
C3145 H3137 0.930 . S
C3145 C3143 1.419 . S
C3145 C3146 1.362 . S
C3146 H3138 0.930 . S
C3146 C3145 1.362 . S
C3146 C3149 1.409 . S
C3147 H3139 0.926 . S
C3147 C3148 1.360 1_455 S
C3147 C3149 1.413 . S
C3148 C3147 1.360 1_655 S
C3148 C3150 1.419 . S
C3149 C3144 1.425 1_455 S
C3149 C3146 1.409 . S
C3149 C3147 1.413 . S
C3150 H3140 0.930 . S
C3150 C3148 1.419 . S
C3150 C3151 1.362 . S
C3151 H3141 0.930 . S
C3151 C3144 1.409 . S
C3151 C3150 1.362 . S
H3152 C3158 0.930 . S
H3153 C3161 0.930 . S
H3154 C3162 0.930 . S
H3155 C3163 0.930 . S
H3156 C3166 0.930 . S
H3157 C3167 0.930 . S
C3158 H3152 0.930 . S
C3158 C3159 1.355 . S
C3158 C3160 1.415 . S
C3159 C3158 1.355 . S
C3159 C3161 1.419 . S
C3160 C3158 1.415 . S
C3160 C3165 1.425 . S
C3160 C3167 1.409 . S
C3161 H3153 0.930 . S
C3161 C3159 1.419 . S
C3161 C3162 1.362 . S
C3162 H3154 0.930 . S
C3162 C3161 1.362 . S
C3162 C3165 1.409 . S
C3163 H3155 0.930 . S
C3163 C3164 1.355 . S
C3163 C3165 1.415 . S
C3164 C3163 1.355 . S
C3164 C3166 1.419 . S
C3165 C3160 1.425 . S
C3165 C3162 1.409 . S
C3165 C3163 1.415 . S
C3166 H3156 0.930 . S
C3166 C3164 1.419 . S
C3166 C3167 1.362 . S
C3167 H3157 0.930 . S
C3167 C3160 1.409 . S
C3167 C3166 1.362 . S
H3168 C3174 0.930 . S
H3169 C3177 0.930 . S
H3170 C3178 0.930 . S
H3171 C3179 0.930 . S
H3172 C3182 0.930 . S
H3173 C3183 0.930 . S
C3174 H3168 0.930 . S
C3174 C3175 1.355 . S
C3174 C3176 1.415 . S
C3175 C3174 1.355 . S
C3175 C3177 1.419 . S
C3176 C3174 1.415 . S
C3176 C3181 1.425 . S
C3176 C3183 1.409 . S
C3177 H3169 0.930 . S
C3177 C3175 1.419 . S
C3177 C3178 1.362 . S
C3178 H3170 0.930 . S
C3178 C3177 1.362 . S
C3178 C3181 1.409 . S
C3179 H3171 0.930 . S
C3179 C3180 1.355 . S
C3179 C3181 1.415 . S
C3180 C3179 1.355 . S
C3180 C3182 1.419 . S
C3181 C3176 1.425 . S
C3181 C3178 1.409 . S
C3181 C3179 1.415 . S
C3182 H3172 0.930 . S
C3182 C3180 1.419 . S
C3182 C3183 1.362 . S
C3183 H3173 0.930 . S
C3183 C3176 1.409 . S
C3183 C3182 1.362 . S
H3184 C3190 0.930 . S
H3185 C3193 0.930 . S
H3186 C3194 0.930 . S
H3187 C3195 0.930 . S
H3188 C3198 0.930 . S
H3189 C3199 0.930 . S
C3190 H3184 0.930 . S
C3190 C3191 1.355 . S
C3190 C3192 1.415 1_655 S
C3191 C3190 1.355 . S
C3191 C3193 1.419 . S
C3192 C3190 1.415 1_455 S
C3192 C3197 1.425 1_455 S
C3192 C3199 1.409 . S
C3193 H3185 0.930 . S
C3193 C3191 1.419 . S
C3193 C3194 1.362 . S
C3194 H3186 0.930 . S
C3194 C3193 1.362 . S
C3194 C3197 1.409 . S
C3195 H3187 0.930 . S
C3195 C3196 1.355 . S
C3195 C3197 1.415 1_455 S
C3196 C3195 1.355 . S
C3196 C3198 1.419 . S
C3197 C3192 1.425 1_655 S
C3197 C3194 1.409 . S
C3197 C3195 1.415 1_655 S
C3198 H3188 0.930 . S
C3198 C3196 1.419 . S
C3198 C3199 1.362 . S
C3199 H3189 0.930 . S
C3199 C3192 1.409 . S
C3199 C3198 1.362 . S
H3200 C3206 0.930 . S
H3201 C3209 0.930 . S
H3202 C3210 0.930 . S
H3203 C3211 0.930 . S
H3204 C3214 0.930 . S
H3205 C3215 0.930 . S
C3206 H3200 0.930 . S
C3206 C3207 1.355 . S
C3206 C3208 1.415 . S
C3207 C3206 1.355 . S
C3207 C3209 1.419 . S
C3208 C3206 1.415 . S
C3208 C3213 1.425 . S
C3208 C3215 1.409 . S
C3209 H3201 0.930 . S
C3209 C3207 1.419 . S
C3209 C3210 1.362 . S
C3210 H3202 0.930 . S
C3210 C3209 1.362 . S
C3210 C3213 1.409 . S
C3211 H3203 0.930 . S
C3211 C3212 1.355 . S
C3211 C3213 1.415 . S
C3212 C3211 1.355 . S
C3212 C3214 1.419 . S
C3213 C3208 1.425 . S
C3213 C3210 1.409 . S
C3213 C3211 1.415 . S
C3214 H3204 0.930 . S
C3214 C3212 1.419 . S
C3214 C3215 1.362 . S
C3215 H3205 0.930 . S
C3215 C3208 1.409 . S
C3215 C3214 1.362 . S
H3216 C3222 0.930 . S
H3217 C3225 0.930 . S
H3218 C3226 0.930 . S
H3219 C3227 0.930 . S
H3220 C3230 0.930 . S
H3221 C3231 0.930 . S
C3222 H3216 0.930 . S
C3222 C3223 1.355 . S
C3222 C3224 1.415 . S
C3223 C3222 1.355 . S
C3223 C3225 1.419 . S
C3224 C3222 1.415 . S
C3224 C3229 1.425 . S
C3224 C3231 1.409 . S
C3225 H3217 0.930 . S
C3225 C3223 1.419 . S
C3225 C3226 1.362 . S
C3226 H3218 0.930 . S
C3226 C3225 1.362 . S
C3226 C3229 1.409 . S
C3227 H3219 0.930 . S
C3227 C3228 1.355 . S
C3227 C3229 1.415 . S
C3228 C3227 1.355 . S
C3228 C3230 1.419 . S
C3229 C3224 1.425 . S
C3229 C3226 1.409 . S
C3229 C3227 1.415 . S
C3230 H3220 0.930 . S
C3230 C3228 1.419 . S
C3230 C3231 1.362 . S
C3231 H3221 0.930 . S
C3231 C3224 1.409 . S
C3231 C3230 1.362 . S
H3232 C3238 0.930 . S
H3233 C3241 0.930 . S
H3234 C3242 0.930 . S
H3235 C3243 0.930 . S
H3236 C3246 0.930 . S
H3237 C3247 0.930 . S
C3238 H3232 0.930 . S
C3238 C3239 1.355 . S
C3238 C3240 1.415 . S
C3239 C3238 1.355 . S
C3239 C3241 1.419 1_455 S
C3240 C3238 1.415 . S
C3240 C3245 1.425 1_455 S
C3240 C3247 1.409 . S
C3241 H3233 0.930 . S
C3241 C3239 1.419 1_655 S
C3241 C3242 1.362 . S
C3242 H3234 0.930 . S
C3242 C3241 1.362 . S
C3242 C3245 1.409 . S
C3243 H3235 0.930 . S
C3243 C3244 1.355 . S
C3243 C3245 1.415 . S
C3244 C3243 1.355 . S
C3244 C3246 1.419 1_655 S
C3245 C3240 1.425 1_655 S
C3245 C3242 1.409 . S
C3245 C3243 1.415 . S
C3246 H3236 0.930 . S
C3246 C3244 1.419 1_455 S
C3246 C3247 1.362 . S
C3247 H3237 0.930 . S
C3247 C3240 1.409 . S
C3247 C3246 1.362 . S
H3248 C3254 0.930 . S
H3249 C3257 0.930 . S
H3250 C3258 0.930 . S
H3251 C3259 0.930 . S
H3252 C3262 0.930 . S
H3253 C3263 0.930 . S
C3254 H3248 0.930 . S
C3254 C3255 1.355 . S
C3254 C3256 1.419 1_545 S
C3255 C3254 1.355 . S
C3255 C3257 1.419 . S
C3256 C3254 1.419 1_565 S
C3256 C3261 1.425 1_565 S
C3256 C3263 1.404 . S
C3257 H3249 0.930 . S
C3257 C3255 1.419 . S
C3257 C3258 1.362 . S
C3258 H3250 0.930 . S
C3258 C3257 1.362 . S
C3258 C3261 1.404 . S
C3259 H3251 0.930 . S
C3259 C3260 1.355 . S
C3259 C3261 1.419 1_565 S
C3260 C3259 1.355 . S
C3260 C3262 1.419 . S
C3261 C3256 1.425 1_545 S
C3261 C3258 1.404 . S
C3261 C3259 1.419 1_545 S
C3262 H3252 0.930 . S
C3262 C3260 1.419 . S
C3262 C3263 1.362 . S
C3263 H3253 0.930 . S
C3263 C3256 1.404 . S
C3263 C3262 1.362 . S
H3264 C3270 0.930 . S
H3265 C3273 0.930 . S
H3266 C3274 0.930 . S
H3267 C3275 0.930 . S
H3268 C3278 0.930 . S
H3269 C3279 0.930 . S
C3270 H3264 0.930 . S
C3270 C3271 1.355 . S
C3270 C3272 1.415 . S
C3271 C3270 1.355 . S
C3271 C3273 1.419 . S
C3272 C3270 1.415 . S
C3272 C3277 1.425 . S
C3272 C3279 1.409 . S
C3273 H3265 0.930 . S
C3273 C3271 1.419 . S
C3273 C3274 1.362 . S
C3274 H3266 0.930 . S
C3274 C3273 1.362 . S
C3274 C3277 1.409 . S
C3275 H3267 0.930 . S
C3275 C3276 1.355 . S
C3275 C3277 1.415 . S
C3276 C3275 1.355 . S
C3276 C3278 1.419 . S
C3277 C3272 1.425 . S
C3277 C3274 1.409 . S
C3277 C3275 1.415 . S
C3278 H3268 0.930 . S
C3278 C3276 1.419 . S
C3278 C3279 1.362 . S
C3279 H3269 0.930 . S
C3279 C3272 1.409 . S
C3279 C3278 1.362 . S
H3280 C3286 0.930 . S
H3281 C3289 0.930 . S
H3282 C3290 0.943 . S
H3283 C3291 0.930 . S
H3284 C3294 0.930 . S
H3285 C3295 0.943 . S
C3286 H3280 0.930 . S
C3286 C3287 1.355 . S
C3286 C3288 1.415 . S
C3287 C3286 1.355 . S
C3287 C3289 1.419 . S
C3288 C3286 1.415 . S
C3288 C3293 1.425 1_565 S
C3288 C3295 1.409 1_565 S
C3289 H3281 0.930 . S
C3289 C3287 1.419 . S
C3289 C3290 1.362 . S
C3290 H3282 0.943 . S
C3290 C3289 1.362 . S
C3290 C3293 1.409 1_565 S
C3291 H3283 0.930 . S
C3291 C3292 1.355 . S
C3291 C3293 1.415 . S
C3292 C3291 1.355 . S
C3292 C3294 1.419 . S
C3293 C3288 1.425 1_545 S
C3293 C3290 1.409 1_545 S
C3293 C3291 1.415 . S
C3294 H3284 0.930 . S
C3294 C3292 1.419 . S
C3294 C3295 1.362 . S
C3295 H3285 0.943 . S
C3295 C3288 1.409 1_545 S
C3295 C3294 1.362 . S
H3296 C3302 0.930 . S
H3297 C3305 0.930 . S
H3298 C3306 0.930 . S
H3299 C3307 0.930 . S
H3300 C3310 0.930 . S
H3301 C3311 0.930 . S
C3302 H3296 0.930 . S
C3302 C3303 1.355 . S
C3302 C3304 1.415 . S
C3303 C3302 1.355 . S
C3303 C3305 1.419 . S
C3304 C3302 1.415 . S
C3304 C3309 1.425 1_556 S
C3304 C3311 1.409 . S
C3305 H3297 0.930 . S
C3305 C3303 1.419 . S
C3305 C3306 1.362 1_556 S
C3306 H3298 0.930 . S
C3306 C3305 1.362 1_554 S
C3306 C3309 1.409 . S
C3307 H3299 0.930 . S
C3307 C3308 1.355 . S
C3307 C3309 1.415 . S
C3308 C3307 1.355 . S
C3308 C3310 1.419 . S
C3309 C3304 1.425 1_554 S
C3309 C3306 1.409 . S
C3309 C3307 1.415 . S
C3310 H3300 0.930 . S
C3310 C3308 1.419 . S
C3310 C3311 1.362 1_554 S
C3311 H3301 0.930 . S
C3311 C3304 1.409 . S
C3311 C3310 1.362 1_556 S
H3312 C3318 0.930 . S
H3313 C3321 0.930 . S
H3314 C3322 0.930 . S
H3315 C3323 0.930 . S
H3316 C3326 0.930 . S
H3317 C3327 0.930 . S
C3318 H3312 0.930 . S
C3318 C3319 1.355 . S
C3318 C3320 1.415 . S
C3319 C3318 1.355 . S
C3319 C3321 1.419 . S
C3320 C3318 1.415 . S
C3320 C3325 1.425 1_556 S
C3320 C3327 1.409 . S
C3321 H3313 0.930 . S
C3321 C3319 1.419 . S
C3321 C3322 1.362 1_556 S
C3322 H3314 0.930 . S
C3322 C3321 1.362 1_554 S
C3322 C3325 1.409 . S
C3323 H3315 0.930 . S
C3323 C3324 1.355 . S
C3323 C3325 1.415 . S
C3324 C3323 1.355 . S
C3324 C3326 1.419 . S
C3325 C3320 1.425 1_554 S
C3325 C3322 1.409 . S
C3325 C3323 1.415 . S
C3326 H3316 0.930 . S
C3326 C3324 1.419 . S
C3326 C3327 1.362 1_554 S
C3327 H3317 0.930 . S
C3327 C3320 1.409 . S
C3327 C3326 1.362 1_556 S
H3328 C3334 0.930 . S
H3329 C3337 0.930 . S
H3330 C3338 0.930 . S
H3331 C3339 0.930 . S
H3332 C3342 0.930 . S
H3333 C3343 0.930 . S
C3334 H3328 0.930 . S
C3334 C3335 1.355 . S
C3334 C3336 1.415 . S
C3335 C3334 1.355 . S
C3335 C3337 1.419 . S
C3336 C3334 1.415 . S
C3336 C3341 1.425 1_554 S
C3336 C3343 1.409 . S
C3337 H3329 0.930 . S
C3337 C3335 1.419 . S
C3337 C3338 1.362 1_554 S
C3338 H3330 0.930 . S
C3338 C3337 1.362 1_556 S
C3338 C3341 1.409 . S
C3339 H3331 0.930 . S
C3339 C3340 1.355 . S
C3339 C3341 1.415 . S
C3340 C3339 1.355 . S
C3340 C3342 1.419 . S
C3341 C3336 1.425 1_556 S
C3341 C3338 1.409 . S
C3341 C3339 1.415 . S
C3342 H3332 0.930 . S
C3342 C3340 1.419 . S
C3342 C3343 1.362 1_556 S
C3343 H3333 0.930 . S
C3343 C3336 1.409 . S
C3343 C3342 1.362 1_554 S
H3344 C3350 0.930 . S
H3345 C3353 0.930 . S
H3346 C3354 0.930 . S
H3347 C3355 0.930 . S
H3348 C3358 0.930 . S
H3349 C3359 0.930 . S
C3350 H3344 0.930 . S
C3350 C3351 1.355 . S
C3350 C3352 1.415 . S
C3351 C3350 1.355 . S
C3351 C3353 1.419 . S
C3352 C3350 1.415 . S
C3352 C3357 1.425 . S
C3352 C3359 1.409 . S
C3353 H3345 0.930 . S
C3353 C3351 1.419 . S
C3353 C3354 1.362 . S
C3354 H3346 0.930 . S
C3354 C3353 1.362 . S
C3354 C3357 1.409 . S
C3355 H3347 0.930 . S
C3355 C3356 1.355 . S
C3355 C3357 1.415 . S
C3356 C3355 1.355 . S
C3356 C3358 1.419 . S
C3357 C3352 1.425 . S
C3357 C3354 1.409 . S
C3357 C3355 1.415 . S
C3358 H3348 0.930 . S
C3358 C3356 1.419 . S
C3358 C3359 1.362 . S
C3359 H3349 0.930 . S
C3359 C3352 1.409 . S
C3359 C3358 1.362 . S
H3360 C3366 0.930 . S
H3361 C3369 0.930 . S
H3362 C3370 0.930 . S
H3363 C3371 0.930 . S
H3364 C3374 0.930 . S
H3365 C3375 0.930 . S
C3366 H3360 0.930 . S
C3366 C3367 1.355 . S
C3366 C3368 1.415 . S
C3367 C3366 1.355 . S
C3367 C3369 1.419 . S
C3368 C3366 1.415 . S
C3368 C3373 1.425 . S
C3368 C3375 1.409 . S
C3369 H3361 0.930 . S
C3369 C3367 1.419 . S
C3369 C3370 1.362 . S
C3370 H3362 0.930 . S
C3370 C3369 1.362 . S
C3370 C3373 1.409 . S
C3371 H3363 0.930 . S
C3371 C3372 1.355 . S
C3371 C3373 1.415 . S
C3372 C3371 1.355 . S
C3372 C3374 1.419 . S
C3373 C3368 1.425 . S
C3373 C3370 1.409 . S
C3373 C3371 1.415 . S
C3374 H3364 0.930 . S
C3374 C3372 1.419 . S
C3374 C3375 1.362 . S
C3375 H3365 0.930 . S
C3375 C3368 1.409 . S
C3375 C3374 1.362 . S
H3376 C3382 0.930 . S
H3377 C3385 0.930 . S
H3378 C3386 0.930 . S
H3379 C3387 0.930 . S
H3380 C3390 0.930 . S
H3381 C3391 0.930 . S
C3382 H3376 0.930 . S
C3382 C3383 1.355 . S
C3382 C3384 1.415 1_545 S
C3383 C3382 1.355 . S
C3383 C3385 1.419 . S
C3384 C3382 1.415 1_565 S
C3384 C3389 1.425 1_565 S
C3384 C3391 1.409 . S
C3385 H3377 0.930 . S
C3385 C3383 1.419 . S
C3385 C3386 1.362 . S
C3386 H3378 0.930 . S
C3386 C3385 1.362 . S
C3386 C3389 1.409 . S
C3387 H3379 0.930 . S
C3387 C3388 1.355 . S
C3387 C3389 1.415 1_565 S
C3388 C3387 1.355 . S
C3388 C3390 1.419 . S
C3389 C3384 1.425 1_545 S
C3389 C3386 1.409 . S
C3389 C3387 1.415 1_545 S
C3390 H3380 0.930 . S
C3390 C3388 1.419 . S
C3390 C3391 1.362 . S
C3391 H3381 0.930 . S
C3391 C3384 1.409 . S
C3391 C3390 1.362 . S
H3392 C3398 0.930 . S
H3393 C3401 0.930 . S
H3394 C3402 0.930 . S
H3395 C3403 0.930 . S
H3396 C3406 0.930 . S
H3397 C3407 0.930 . S
C3398 H3392 0.930 . S
C3398 C3399 1.355 . S
C3398 C3400 1.415 . S
C3399 C3398 1.355 . S
C3399 C3401 1.419 . S
C3400 C3398 1.415 . S
C3400 C3405 1.425 . S
C3400 C3407 1.409 . S
C3401 H3393 0.930 . S
C3401 C3399 1.419 . S
C3401 C3402 1.362 . S
C3402 H3394 0.930 . S
C3402 C3401 1.362 . S
C3402 C3405 1.409 . S
C3403 H3395 0.930 . S
C3403 C3404 1.355 . S
C3403 C3405 1.415 . S
C3404 C3403 1.355 . S
C3404 C3406 1.419 . S
C3405 C3400 1.425 . S
C3405 C3402 1.409 . S
C3405 C3403 1.415 . S
C3406 H3396 0.930 . S
C3406 C3404 1.419 . S
C3406 C3407 1.362 . S
C3407 H3397 0.930 . S
C3407 C3400 1.409 . S
C3407 C3406 1.362 . S
H3408 C3414 0.930 . S
H3409 C3417 0.930 . S
H3410 C3418 0.930 . S
H3411 C3419 0.930 . S
H3412 C3422 0.930 . S
H3413 C3423 0.930 . S
C3414 H3408 0.930 . S
C3414 C3415 1.355 . S
C3414 C3416 1.415 . S
C3415 C3414 1.355 . S
C3415 C3417 1.419 . S
C3416 C3414 1.415 . S
C3416 C3421 1.425 . S
C3416 C3423 1.409 . S
C3417 H3409 0.930 . S
C3417 C3415 1.419 . S
C3417 C3418 1.362 . S
C3418 H3410 0.930 . S
C3418 C3417 1.362 . S
C3418 C3421 1.409 . S
C3419 H3411 0.930 . S
C3419 C3420 1.355 . S
C3419 C3421 1.415 . S
C3420 C3419 1.355 . S
C3420 C3422 1.419 . S
C3421 C3416 1.425 . S
C3421 C3418 1.409 . S
C3421 C3419 1.415 . S
C3422 H3412 0.930 . S
C3422 C3420 1.419 . S
C3422 C3423 1.362 . S
C3423 H3413 0.930 . S
C3423 C3416 1.409 . S
C3423 C3422 1.362 . S
H3424 C3430 0.930 . S
H3425 C3433 0.930 . S
H3426 C3434 0.930 . S
H3427 C3435 0.930 . S
H3428 C3438 0.930 . S
H3429 C3439 0.930 . S
C3430 H3424 0.930 . S
C3430 C3431 1.355 . S
C3430 C3432 1.415 . S
C3431 C3430 1.355 . S
C3431 C3433 1.419 . S
C3432 C3430 1.415 . S
C3432 C3437 1.425 . S
C3432 C3439 1.409 . S
C3433 H3425 0.930 . S
C3433 C3431 1.419 . S
C3433 C3434 1.362 . S
C3434 H3426 0.930 . S
C3434 C3433 1.362 . S
C3434 C3437 1.409 . S
C3435 H3427 0.930 . S
C3435 C3436 1.355 . S
C3435 C3437 1.415 . S
C3436 C3435 1.355 . S
C3436 C3438 1.419 . S
C3437 C3432 1.425 . S
C3437 C3434 1.409 . S
C3437 C3435 1.415 . S
C3438 H3428 0.930 . S
C3438 C3436 1.419 . S
C3438 C3439 1.362 . S
C3439 H3429 0.930 . S
C3439 C3432 1.409 . S
C3439 C3438 1.362 . S
H3440 C3446 0.930 . S
H3441 C3449 0.930 . S
H3442 C3450 0.930 1_556 S
H3443 C3451 0.930 . S
H3444 C3454 0.930 . S
H3445 C3455 0.930 1_554 S
C3446 H3440 0.930 . S
C3446 C3447 1.355 . S
C3446 C3448 1.415 . S
C3447 C3446 1.355 . S
C3447 C3449 1.419 . S
C3448 C3446 1.415 . S
C3448 C3453 1.425 1_554 S
C3448 C3455 1.409 1_554 S
C3449 H3441 0.930 . S
C3449 C3447 1.419 . S
C3449 C3450 1.362 . S
C3450 H3442 0.930 1_554 S
C3450 C3449 1.362 . S
C3450 C3453 1.409 1_554 S
C3451 H3443 0.930 . S
C3451 C3452 1.355 . S
C3451 C3453 1.415 . S
C3452 C3451 1.355 . S
C3452 C3454 1.419 . S
C3453 C3448 1.425 1_556 S
C3453 C3450 1.409 1_556 S
C3453 C3451 1.415 . S
C3454 H3444 0.930 . S
C3454 C3452 1.419 . S
C3454 C3455 1.362 . S
C3455 H3445 0.930 1_556 S
C3455 C3448 1.409 1_556 S
C3455 C3454 1.362 . S
H3456 C3462 0.930 . S
H3457 C3465 0.930 . S
H3458 C3466 0.930 . S
H3459 C3467 0.930 . S
H3460 C3470 0.930 . S
H3461 C3471 0.930 . S
C3462 H3456 0.930 . S
C3462 C3463 1.355 . S
C3462 C3464 1.415 . S
C3463 C3462 1.355 . S
C3463 C3465 1.419 . S
C3464 C3462 1.415 . S
C3464 C3469 1.425 . S
C3464 C3471 1.409 . S
C3465 H3457 0.930 . S
C3465 C3463 1.419 . S
C3465 C3466 1.362 . S
C3466 H3458 0.930 . S
C3466 C3465 1.362 . S
C3466 C3469 1.409 . S
C3467 H3459 0.930 . S
C3467 C3468 1.355 . S
C3467 C3469 1.415 . S
C3468 C3467 1.355 . S
C3468 C3470 1.419 . S
C3469 C3464 1.425 . S
C3469 C3466 1.409 . S
C3469 C3467 1.415 . S
C3470 H3460 0.930 . S
C3470 C3468 1.419 . S
C3470 C3471 1.362 . S
C3471 H3461 0.930 . S
C3471 C3464 1.409 . S
C3471 C3470 1.362 . S
H3472 C3478 0.930 . S
H3473 C3481 0.930 . S
H3474 C3482 0.930 . S
H3475 C3483 0.930 . S
H3476 C3486 0.930 . S
H3477 C3487 0.930 . S
C3478 H3472 0.930 . S
C3478 C3479 1.355 . S
C3478 C3480 1.415 . S
C3479 C3478 1.355 . S
C3479 C3481 1.419 . S
C3480 C3478 1.415 . S
C3480 C3485 1.425 . S
C3480 C3487 1.409 . S
C3481 H3473 0.930 . S
C3481 C3479 1.419 . S
C3481 C3482 1.362 . S
C3482 H3474 0.930 . S
C3482 C3481 1.362 . S
C3482 C3485 1.409 . S
C3483 H3475 0.930 . S
C3483 C3484 1.355 . S
C3483 C3485 1.415 . S
C3484 C3483 1.355 . S
C3484 C3486 1.419 . S
C3485 C3480 1.425 . S
C3485 C3482 1.409 . S
C3485 C3483 1.415 . S
C3486 H3476 0.930 . S
C3486 C3484 1.419 . S
C3486 C3487 1.362 . S
C3487 H3477 0.930 . S
C3487 C3480 1.409 . S
C3487 C3486 1.362 . S
H3488 C3494 0.930 1_545 S
H3489 C3497 0.930 . S
H3490 C3498 0.930 . S
H3491 C3499 0.930 1_565 S
H3492 C3502 0.930 . S
H3493 C3503 0.930 . S
C3494 H3488 0.930 1_565 S
C3494 C3495 1.355 . S
C3494 C3496 1.415 1_565 S
C3495 C3494 1.355 . S
C3495 C3497 1.419 . S
C3496 C3494 1.415 1_545 S
C3496 C3501 1.425 1_545 S
C3496 C3503 1.409 . S
C3497 H3489 0.930 . S
C3497 C3495 1.419 . S
C3497 C3498 1.362 . S
C3498 H3490 0.930 . S
C3498 C3497 1.362 . S
C3498 C3501 1.409 . S
C3499 H3491 0.930 1_545 S
C3499 C3500 1.355 . S
C3499 C3501 1.415 1_545 S
C3500 C3499 1.355 . S
C3500 C3502 1.419 . S
C3501 C3496 1.425 1_565 S
C3501 C3498 1.409 . S
C3501 C3499 1.415 1_565 S
C3502 H3492 0.930 . S
C3502 C3500 1.419 . S
C3502 C3503 1.362 . S
C3503 H3493 0.930 . S
C3503 C3496 1.409 . S
C3503 C3502 1.362 . S
C1591 C7 2.144 . S
C1596 C667 2.142 1_455 S
C1607 C1360 2.138 . S
C1612 C40 2.142 . S
C1623 C1393 2.141 . S
C1628 C73 2.138 . S
C1639 C106 2.142 1_556 S
C1644 C1426 2.144 . S
C1655 C139 2.138 . S
C1660 C1558 2.142 1_455 S
C1671 C700 2.144 . S
C1676 C172 2.140 . S
C1687 C205 2.144 . S
C1692 C1525 2.139 . S
C1703 C238 2.142 1_554 S
C1708 C535 2.138 . S
C1719 C271 2.140 . S
C1724 C502 2.138 1_545 S
C1735 C304 2.144 1_565 S
C1740 C403 2.143 . S
C1751 C436 2.139 1_565 S
C1756 C337 2.139 . S
C1767 C469 2.144 . S
C1772 C370 2.139 1_545 S
C1783 C832 2.144 1_556 S
C1788 C568 2.140 . S
C1799 C601 2.141 1_655 S
C1804 C865 2.144 . S
C1815 C898 2.142 . S
C1820 C634 2.138 . S
C1831 C733 2.139 1_655 S
C1836 C997 2.144 . S
C1847 C766 2.138 . S
C1852 C931 2.142 . S
C1863 C1459 2.139 . S
C1868 C799 2.139 . S
C1879 C1492 2.143 . S
C1884 C964 2.144 1_554 S
C1895 C1030 2.143 . S
C1900 C1327 2.143 . S
C1911 C1294 2.143 . S
C1916 C1063 2.144 . S
C1927 C1195 2.140 . S
C1932 C1096 2.138 . S
C1943 C1129 2.139 . S
C1948 C1228 2.139 . S
C1959 C1162 2.143 . S
C1964 C1261 2.138 . S
C1975 N541 1.380 . S
C1980 C18 1.200 . S
C1991 N1564 1.372 1_455 S
C1996 C51 1.265 . S
C2007 N706 1.386 . S
C2012 C84 1.280 . S
C2023 C117 1.299 1_556 S
C2028 N1531 1.384 . S
C2039 N1366 1.362 . S
C2044 C150 1.206 . S
C2055 C183 1.194 . S
C2060 N1399 1.364 . S
C2071 N1432 1.362 . S
C2076 C216 1.208 . S
C2087 C249 1.278 1_554 S
C2092 N673 1.371 1_455 S
C2103 C282 1.207 . S
C2108 N13 1.381 . S
C2119 N46 1.363 . S
C2124 C315 1.200 1_565 S
C2135 N79 1.378 . S
C2140 C348 1.194 . S
C2151 N112 1.366 1_556 S
C2156 C381 1.303 1_545 S
C2167 C414 1.243 . S
C2172 N145 1.361 . S
C2183 C447 1.184 1_565 S
C2188 N178 1.371 . S
C2199 C480 1.216 . S
C2204 N211 1.383 . S
C2215 C513 1.261 1_545 S
C2220 N244 1.352 1_554 S
C2231 N277 1.364 . S
C2236 C546 1.197 . S
C2247 C579 1.188 . S
C2252 N1201 1.375 . S
C2263 C612 1.190 1_655 S
C2268 N1234 1.366 . S
C2279 N1267 1.370 . S
C2284 C645 1.301 . S
C2295 C678 1.201 1_455 S
C2300 N508 1.370 1_545 S
C2311 C711 1.223 . S
C2316 N343 1.361 . S
C2327 N1168 1.363 . S
C2332 C744 1.267 1_655 S
C2343 C777 1.280 . S
C2348 N1102 1.365 . S
C2359 C810 1.237 . S
C2364 N1333 1.386 . S
C2375 C843 1.212 1_556 S
C2380 N772 1.382 . S
C2391 C876 1.292 . S
C2396 N1498 1.367 . S
C2407 C909 1.199 . S
C2412 N739 1.357 1_655 S
C2423 N574 1.361 . S
C2428 C942 1.220 . S
C2439 C975 1.185 1_554 S
C2444 N607 1.365 1_655 S
C2455 C1008 1.276 . S
C2460 N640 1.386 . S
C2471 C1041 1.229 . S
C2476 N1465 1.385 . S
C2487 N805 1.371 . S
C2492 C1074 1.184 . S
C2503 C1107 1.190 . S
C2508 N838 1.368 1_556 S
C2519 N871 1.385 . S
C2524 C1140 1.229 . S
C2535 N904 1.362 . S
C2540 C1173 1.204 . S
C2551 N937 1.374 . S
C2556 C1206 1.308 . S
C2567 N970 1.363 1_554 S
C2572 C1239 1.184 . S
C2583 C1272 1.226 . S
C2588 N1003 1.361 . S
C2599 C1305 1.277 . S
C2604 N1036 1.364 . S
C2615 N1069 1.387 . S
C2620 C1338 1.257 . S
C2631 C1371 1.310 . S
C2636 N409 1.376 . S
C2647 C1404 1.280 . S
C2652 N442 1.353 1_565 S
C2663 C1437 1.242 . S
C2668 N475 1.361 . S
C2679 N1300 1.383 . S
C2684 C1470 1.301 . S
C2695 N1135 1.368 . S
C2700 C1503 1.186 . S
C2711 N376 1.358 1_545 S
C2716 C1536 1.307 . S
C2727 C1569 1.305 1_455 S
C2732 N310 1.357 1_565 S
C2743 C318 1.370 . S
C2748 C21 1.349 . S
C2759 C351 1.365 . S
C2764 C54 1.354 . S
C2775 C87 1.323 . S
C2780 C384 1.393 . S
C2791 C120 1.323 . S
C2796 C285 1.394 . S
C2807 C153 1.351 . S
C2812 C516 1.368 . S
C2823 C417 1.381 . S
C2828 C186 1.338 . S
C2839 C450 1.339 . S
C2844 C219 1.380 . S
C2855 C252 1.327 . S
C2860 C483 1.390 . S
C2871 C549 1.343 . S
C2876 C615 1.376 . S
C2887 C1539 1.346 . S
C2892 C582 1.373 . S
C2903 C1572 1.343 . S
C2908 C648 1.376 . S
C2919 C1506 1.327 . S
C2924 C681 1.388 . S
C2935 C714 1.391 . S
C2940 C1473 1.327 . S
C2951 C1374 1.332 . S
C2956 C747 1.386 . S
C2967 C1440 1.381 . S
C2972 C780 1.335 . S
C2983 C1110 1.327 . S
C2988 C813 1.390 . S
C2999 C1143 1.370 . S
C3004 C846 1.345 . S
C3015 C879 1.376 . S
C3020 C1176 1.343 . S
C3031 C1077 1.331 . S
C3036 C912 1.387 . S
C3047 C1308 1.344 . S
C3052 C945 1.371 . S
C3063 C978 1.325 . S
C3068 C1209 1.390 . S
C3079 C1242 1.371 . S
C3084 C1011 1.348 . S
C3095 C1044 1.382 . S
C3100 C1275 1.334 . S
C3111 C1341 1.331 . S
C3116 C1407 1.385 . S
C3127 N860 1.412 . S
C3132 N2 1.441 . S
C3143 N35 1.478 . S
C3148 N893 1.468 . S
C3159 N794 1.422 . S
C3164 N68 1.415 . S
C3175 N827 1.468 . S
C3180 N101 1.478 . S
C3191 N992 1.412 . S
C3196 N134 1.437 . S
C3207 N1025 1.416 . S
C3212 N167 1.421 . S
C3223 N926 1.412 . S
C3228 N200 1.434 . S
C3239 N233 1.412 . S
C3244 N959 1.434 . S
C3255 N266 1.433 . S
C3260 N398 1.412 . S
C3271 N299 1.423 . S
C3276 N431 1.415 . S
C3287 N332 1.444 . S
C3292 N464 1.479 . S
C3303 N365 1.426 . S
C3308 N497 1.467 . S
C3319 N1421 1.480 . S
C3324 N530 1.451 . S
C3335 N1487 1.481 . S
C3340 N563 1.454 . S
C3351 N596 1.481 . S
C3356 N728 1.453 . S
C3367 N1322 1.480 . S
C3372 N629 1.450 . S
C3383 N662 1.467 . S
C3388 N1553 1.426 . S
C3399 N695 1.462 . S
C3404 N1355 1.480 . S
C3415 N761 1.426 . S
C3420 N1454 1.467 . S
C3431 N1058 1.412 . S
C3436 N1190 1.443 . S
C3447 N1223 1.452 . S
C3452 N1091 1.415 . S
C3463 N1256 1.467 . S
C3468 N1124 1.426 . S
C3479 N1157 1.481 . S
C3484 N1289 1.460 . S
C3495 N1388 1.480 . S
C3500 N1520 1.450 . S
