# Generated by pormake.
# Topology wiu, (6)-cn, num edge types: 1
# Building blocks:
#     Node 0, Type 0, BuildingBlock: BETDEL_clean_sbu_0, # of connection points: 6
#     Node 1, Type 0, BuildingBlock: BETDEL_clean_sbu_0, # of connection points: 6
#     Node 2, Type 0, BuildingBlock: BETDEL_clean_sbu_0, # of connection points: 6
#     Node 3, Type 0, BuildingBlock: BETDEL_clean_sbu_0, # of connection points: 6
#     Node 4, Type 0, BuildingBlock: BETDEL_clean_sbu_0, # of connection points: 6
#     Node 5, Type 0, BuildingBlock: BETDEL_clean_sbu_0, # of connection points: 6
#     Node 6, Type 0, BuildingBlock: BETDEL_clean_sbu_0, # of connection points: 6
#     Node 7, Type 0, BuildingBlock: BETDEL_clean_sbu_0, # of connection points: 6
#     Node 8, Type 0, BuildingBlock: BETDEL_clean_sbu_0, # of connection points: 6
#     Node 9, Type 0, BuildingBlock: BETDEL_clean_sbu_0, # of connection points: 6
#     Node 10, Type 0, BuildingBlock: BETDEL_clean_sbu_0, # of connection points: 6
#     Node 11, Type 0, BuildingBlock: BETDEL_clean_sbu_0, # of connection points: 6
#     Node 12, Type 0, BuildingBlock: BETDEL_clean_sbu_0, # of connection points: 6
#     Node 13, Type 0, BuildingBlock: BETDEL_clean_sbu_0, # of connection points: 6
#     Node 14, Type 0, BuildingBlock: BETDEL_clean_sbu_0, # of connection points: 6
#     Node 15, Type 0, BuildingBlock: BETDEL_clean_sbu_0, # of connection points: 6
#     Edge 16, Type (0, 0), BuildingBlock: MIFKUJ_clean_linker_0, # of connection points: 2
#     Edge 17, Type (0, 0), BuildingBlock: MIFKUJ_clean_linker_0, # of connection points: 2
#     Edge 18, Type (0, 0), BuildingBlock: MIFKUJ_clean_linker_0, # of connection points: 2
#     Edge 19, Type (0, 0), BuildingBlock: MIFKUJ_clean_linker_0, # of connection points: 2
#     Edge 20, Type (0, 0), BuildingBlock: MIFKUJ_clean_linker_0, # of connection points: 2
#     Edge 21, Type (0, 0), BuildingBlock: MIFKUJ_clean_linker_0, # of connection points: 2
#     Edge 22, Type (0, 0), BuildingBlock: MIFKUJ_clean_linker_0, # of connection points: 2
#     Edge 23, Type (0, 0), BuildingBlock: MIFKUJ_clean_linker_0, # of connection points: 2
#     Edge 24, Type (0, 0), BuildingBlock: MIFKUJ_clean_linker_0, # of connection points: 2
#     Edge 25, Type (0, 0), BuildingBlock: MIFKUJ_clean_linker_0, # of connection points: 2
#     Edge 26, Type (0, 0), BuildingBlock: MIFKUJ_clean_linker_0, # of connection points: 2
#     Edge 27, Type (0, 0), BuildingBlock: MIFKUJ_clean_linker_0, # of connection points: 2
#     Edge 28, Type (0, 0), BuildingBlock: MIFKUJ_clean_linker_0, # of connection points: 2
#     Edge 29, Type (0, 0), BuildingBlock: MIFKUJ_clean_linker_0, # of connection points: 2
#     Edge 30, Type (0, 0), BuildingBlock: MIFKUJ_clean_linker_0, # of connection points: 2
#     Edge 31, Type (0, 0), BuildingBlock: MIFKUJ_clean_linker_0, # of connection points: 2
#     Edge 32, Type (0, 0), BuildingBlock: MIFKUJ_clean_linker_0, # of connection points: 2
#     Edge 33, Type (0, 0), BuildingBlock: MIFKUJ_clean_linker_0, # of connection points: 2
#     Edge 34, Type (0, 0), BuildingBlock: MIFKUJ_clean_linker_0, # of connection points: 2
#     Edge 35, Type (0, 0), BuildingBlock: MIFKUJ_clean_linker_0, # of connection points: 2
#     Edge 36, Type (0, 0), BuildingBlock: MIFKUJ_clean_linker_0, # of connection points: 2
#     Edge 37, Type (0, 0), BuildingBlock: MIFKUJ_clean_linker_0, # of connection points: 2
#     Edge 38, Type (0, 0), BuildingBlock: MIFKUJ_clean_linker_0, # of connection points: 2
#     Edge 39, Type (0, 0), BuildingBlock: MIFKUJ_clean_linker_0, # of connection points: 2
#     Edge 40, Type (0, 0), BuildingBlock: MIFKUJ_clean_linker_0, # of connection points: 2
#     Edge 41, Type (0, 0), BuildingBlock: MIFKUJ_clean_linker_0, # of connection points: 2
#     Edge 42, Type (0, 0), BuildingBlock: MIFKUJ_clean_linker_0, # of connection points: 2
#     Edge 43, Type (0, 0), BuildingBlock: MIFKUJ_clean_linker_0, # of connection points: 2
#     Edge 44, Type (0, 0), BuildingBlock: MIFKUJ_clean_linker_0, # of connection points: 2
#     Edge 45, Type (0, 0), BuildingBlock: MIFKUJ_clean_linker_0, # of connection points: 2
#     Edge 46, Type (0, 0), BuildingBlock: MIFKUJ_clean_linker_0, # of connection points: 2
#     Edge 47, Type (0, 0), BuildingBlock: MIFKUJ_clean_linker_0, # of connection points: 2
#     Edge 48, Type (0, 0), BuildingBlock: MIFKUJ_clean_linker_0, # of connection points: 2
#     Edge 49, Type (0, 0), BuildingBlock: MIFKUJ_clean_linker_0, # of connection points: 2
#     Edge 50, Type (0, 0), BuildingBlock: MIFKUJ_clean_linker_0, # of connection points: 2
#     Edge 51, Type (0, 0), BuildingBlock: MIFKUJ_clean_linker_0, # of connection points: 2
#     Edge 52, Type (0, 0), BuildingBlock: MIFKUJ_clean_linker_0, # of connection points: 2
#     Edge 53, Type (0, 0), BuildingBlock: MIFKUJ_clean_linker_0, # of connection points: 2
#     Edge 54, Type (0, 0), BuildingBlock: MIFKUJ_clean_linker_0, # of connection points: 2
#     Edge 55, Type (0, 0), BuildingBlock: MIFKUJ_clean_linker_0, # of connection points: 2
#     Edge 56, Type (0, 0), BuildingBlock: MIFKUJ_clean_linker_0, # of connection points: 2
#     Edge 57, Type (0, 0), BuildingBlock: MIFKUJ_clean_linker_0, # of connection points: 2
#     Edge 58, Type (0, 0), BuildingBlock: MIFKUJ_clean_linker_0, # of connection points: 2
#     Edge 59, Type (0, 0), BuildingBlock: MIFKUJ_clean_linker_0, # of connection points: 2
#     Edge 60, Type (0, 0), BuildingBlock: MIFKUJ_clean_linker_0, # of connection points: 2
#     Edge 61, Type (0, 0), BuildingBlock: MIFKUJ_clean_linker_0, # of connection points: 2
#     Edge 62, Type (0, 0), BuildingBlock: MIFKUJ_clean_linker_0, # of connection points: 2
#     Edge 63, Type (0, 0), BuildingBlock: MIFKUJ_clean_linker_0, # of connection points: 2
# Relax obj value: 0.291
# Max RMSD: 0.277
# Mean RMSD: 0.277
data_MOF--net-wiu--node1-BETDEL_clean_sbu_0--edge1-MIFKUJ_clean_linker_0
_symmetry_space_group_name_H-M    P1
_symmetry_Int_Tables_number       1
_symmetry_cell_setting            triclinic
loop_
_symmetry_equiv_pos_as_xyz
'x, y, z'
_cell_length_a     39.758185
_cell_length_b     39.719914
_cell_length_c     75.44216
_cell_angle_alpha  89.865082
_cell_angle_beta   90.029556
_cell_angle_gamma 90.087373
loop_
_atom_site_label
_atom_site_type_symbol
_atom_site_fract_x
_atom_site_fract_y
_atom_site_fract_z
_atom_type_partial_charge
Dy0 Dy 0.28152 0.12432 0.12669 0.0
C1 C 0.37468 0.02813 0.10119 0.0
C2 C 0.23832 0.17584 0.13382 0.0
Dy3 Dy 0.322 0.06554 0.11301 0.0
O4 O 0.2544 0.17166 0.11908 0.0
O5 O 0.24529 0.1514 0.14468 0.0
O6 O 0.32884 0.15098 0.1342 0.0
O7 O 0.32876 0.12024 0.11184 0.0
C8 C 0.34714 0.13757 0.12197 0.0
C9 C 0.25655 0.05265 0.11826 0.0
O10 O 0.3331 0.06138 0.14236 0.0
O11 O 0.29382 0.09983 0.15291 0.0
O12 O 0.34362 0.01788 0.10169 0.0
O13 O 0.37689 0.05823 0.10773 0.0
O14 O 0.27393 0.0379 0.10589 0.0
O15 O 0.27546 0.07049 0.12767 0.0
O16 O 0.25983 0.11528 0.09914 0.0
O17 O 0.30639 0.08888 0.0874 0.0
C18 C 0.31729 0.07653 0.15569 0.0
C19 C 0.27703 0.10389 0.08528 0.0
Dy20 Dy 0.60478 0.51837 0.36803 0.0
C21 C 0.69755 0.61868 0.3447 0.0
C22 C 0.55916 0.47301 0.38101 0.0
Dy23 Dy 0.66307 0.56537 0.35831 0.0
O24 O 0.55617 0.48995 0.3664 0.0
O25 O 0.58785 0.48007 0.38841 0.0
O26 O 0.56769 0.55464 0.35654 0.0
O27 O 0.61178 0.57307 0.36758 0.0
C28 C 0.58631 0.58104 0.35862 0.0
C29 C 0.68049 0.50332 0.36834 0.0
O30 O 0.66278 0.57518 0.38735 0.0
O31 O 0.62645 0.5315 0.39507 0.0
O32 O 0.70695 0.58743 0.34342 0.0
O33 O 0.66976 0.62069 0.35362 0.0
O34 O 0.69959 0.52941 0.37139 0.0
O35 O 0.65566 0.51152 0.35905 0.0
O36 O 0.61615 0.50055 0.34036 0.0
O37 O 0.64246 0.5498 0.33157 0.0
C38 C 0.64781 0.55604 0.39943 0.0
C39 C 0.6281 0.5205 0.32765 0.0
Dy40 Dy 0.19362 0.86339 0.62351 0.0
C41 C 0.10985 0.96982 0.60157 0.0
C42 C 0.22778 0.80481 0.62909 0.0
Dy43 Dy 0.15958 0.92656 0.61142 0.0
O44 O 0.20291 0.80889 0.61823 0.0
O45 O 0.2347 0.83317 0.63691 0.0
O46 O 0.14375 0.84475 0.63244 0.0
O47 O 0.14645 0.87309 0.60903 0.0
C48 C 0.12679 0.85759 0.61944 0.0
C49 C 0.22589 0.93291 0.61618 0.0
O50 O 0.15088 0.93024 0.64098 0.0
O51 O 0.18501 0.88626 0.65051 0.0
O52 O 0.14186 0.97562 0.5998 0.0
O53 O 0.10533 0.94095 0.6093 0.0
O54 O 0.20946 0.95074 0.60458 0.0
O55 O 0.20583 0.91608 0.62551 0.0
O56 O 0.21491 0.8707 0.59577 0.0
O57 O 0.17288 0.90527 0.58507 0.0
C58 C 0.16497 0.9123 0.65393 0.0
C59 C 0.19988 0.8866 0.58242 0.0
Dy60 Dy 0.87667 0.45594 0.86606 0.0
C61 C 0.77371 0.36979 0.84127 0.0
C62 C 0.93103 0.48495 0.88162 0.0
Dy63 Dy 0.81433 0.41702 0.8562 0.0
O64 O 0.92465 0.45304 0.88104 0.0
O65 O 0.9073 0.50186 0.87368 0.0
O66 O 0.90572 0.42254 0.84813 0.0
O67 O 0.86584 0.40204 0.86278 0.0
C68 C 0.88853 0.3956 0.85153 0.0
C69 C 0.80252 0.47864 0.86875 0.0
O70 O 0.81548 0.40355 0.88486 0.0
O71 O 0.85132 0.44713 0.89262 0.0
O72 O 0.76886 0.40208 0.84025 0.0
O73 O 0.80023 0.36352 0.85072 0.0
O74 O 0.78133 0.45391 0.87096 0.0
O75 O 0.82617 0.46976 0.85881 0.0
O76 O 0.87082 0.47692 0.83863 0.0
O77 O 0.8343 0.43459 0.82964 0.0
C78 C 0.83008 0.42262 0.897 0.0
C79 C 0.85381 0.46097 0.82601 0.0
Dy80 Dy 0.65739 0.90554 0.95062 0.0
C81 C 0.76053 0.81073 0.93129 0.0
C82 C 0.60065 0.93262 0.96476 0.0
Dy83 Dy 0.71067 0.85337 0.94215 0.0
O84 O 0.6283 0.94923 0.96178 0.0
O85 O 0.60392 0.90168 0.95962 0.0
O86 O 0.68789 0.94607 0.93691 0.0
O87 O 0.71177 0.90555 0.94976 0.0
C88 C 0.71631 0.93078 0.94 0.0
C89 C 0.65065 0.82772 0.95193 0.0
O90 O 0.72834 0.86998 0.96911 0.0
O91 O 0.67689 0.89094 0.97792 0.0
O92 O 0.7514 0.81565 0.94754 0.0
O93 O 0.74303 0.83007 0.9209 0.0
O94 O 0.67913 0.81348 0.95525 0.0
O95 O 0.65558 0.85304 0.94225 0.0
O96 O 0.64746 0.90096 0.92154 0.0
O97 O 0.69854 0.87535 0.91497 0.0
C98 C 0.70774 0.8804 0.98181 0.0
C99 C 0.67039 0.89091 0.90991 0.0
Dy100 Dy 0.32948 0.41229 0.70046 0.0
C101 C 0.42781 0.50499 0.6741 0.0
C102 C 0.29499 0.36098 0.71631 0.0
Dy103 Dy 0.38527 0.45985 0.68997 0.0
O104 O 0.28631 0.39248 0.7168 0.0
O105 O 0.32181 0.35761 0.70674 0.0
O106 O 0.29144 0.44584 0.68677 0.0
O107 O 0.33438 0.46659 0.69877 0.0
C108 C 0.30921 0.47299 0.68935 0.0
C109 C 0.40792 0.39921 0.70053 0.0
O110 O 0.37379 0.47959 0.71739 0.0
O111 O 0.34934 0.42999 0.72689 0.0
O112 O 0.40314 0.48959 0.66633 0.0
O113 O 0.42845 0.49662 0.69073 0.0
O114 O 0.42428 0.42713 0.70232 0.0
O115 O 0.38161 0.40461 0.69156 0.0
O116 O 0.32888 0.40028 0.67163 0.0
O117 O 0.3617 0.4461 0.66343 0.0
C118 C 0.36225 0.46006 0.73039 0.0
C119 C 0.34184 0.42024 0.6593 0.0
Dy120 Dy 0.82734 0.06739 0.4535 0.0
C121 C 0.74031 0.17717 0.43736 0.0
C122 C 0.88317 0.03196 0.46289 0.0
Dy123 Dy 0.7839 0.12497 0.44183 0.0
O124 O 0.85241 0.02142 0.4648 0.0
O125 O 0.88322 0.06127 0.45527 0.0
O126 O 0.7814 0.03593 0.46024 0.0
O127 O 0.77997 0.07118 0.43956 0.0
C128 C 0.76257 0.05128 0.44866 0.0
C129 C 0.84924 0.14067 0.44509 0.0
O130 O 0.76419 0.11332 0.46943 0.0
O131 O 0.81166 0.08663 0.47992 0.0
O132 O 0.76449 0.17588 0.44884 0.0
O133 O 0.73944 0.14941 0.42823 0.0
O134 O 0.82967 0.15184 0.4327 0.0
O135 O 0.83266 0.12227 0.4557 0.0
O136 O 0.8358 0.06539 0.4239 0.0
O137 O 0.79573 0.10439 0.41467 0.0
C138 C 0.78192 0.1004 0.48273 0.0
C139 C 0.81923 0.08152 0.41111 0.0
Dy140 Dy 0.16352 0.57419 0.20061 0.0
C141 C 0.05454 0.48706 0.17996 0.0
C142 C 0.19818 0.62621 0.21539 0.0
Dy143 Dy 0.10425 0.5299 0.19087 0.0
O144 O 0.20925 0.59549 0.21426 0.0
O145 O 0.16876 0.62845 0.20805 0.0
O146 O 0.1999 0.53779 0.18763 0.0
O147 O 0.15492 0.52057 0.19907 0.0
C148 C 0.17966 0.51224 0.18979 0.0
C149 C 0.08698 0.59197 0.20177 0.0
O150 O 0.11747 0.50902 0.21788 0.0
O151 O 0.14464 0.55696 0.22744 0.0
O152 O 0.05972 0.4968 0.19607 0.0
O153 O 0.07732 0.50002 0.16965 0.0
O154 O 0.06939 0.56517 0.20452 0.0
O155 O 0.11172 0.58475 0.19202 0.0
O156 O 0.16431 0.58425 0.17153 0.0
O157 O 0.12689 0.54157 0.16372 0.0
C158 C 0.12989 0.52771 0.23095 0.0
C159 C 0.14923 0.56536 0.1594 0.0
Dy160 Dy 0.78372 0.62756 0.61702 0.0
C161 C 0.87492 0.52943 0.59296 0.0
C162 C 0.74035 0.67868 0.62414 0.0
Dy163 Dy 0.82356 0.56942 0.60401 0.0
O164 O 0.75725 0.67534 0.6096 0.0
O165 O 0.74669 0.65377 0.63478 0.0
O166 O 0.83101 0.65411 0.62435 0.0
O167 O 0.83063 0.62416 0.60152 0.0
C168 C 0.84882 0.64206 0.61153 0.0
C169 C 0.75884 0.55515 0.61112 0.0
O170 O 0.8372 0.56795 0.63313 0.0
O171 O 0.79636 0.60461 0.64344 0.0
O172 O 0.8432 0.52231 0.59128 0.0
O173 O 0.87843 0.55794 0.60111 0.0
O174 O 0.77544 0.54012 0.5986 0.0
O175 O 0.77816 0.57395 0.61967 0.0
O176 O 0.76039 0.61632 0.59022 0.0
O177 O 0.80749 0.59172 0.5783 0.0
C178 C 0.82109 0.58285 0.64641 0.0
C179 C 0.77734 0.60506 0.57629 0.0
Dy180 Dy 0.10655 0.04429 0.87419 0.0
C181 C 0.2142 0.12811 0.85204 0.0
C182 C 0.0473 0.01084 0.87907 0.0
Dy183 Dy 0.1707 0.07872 0.86233 0.0
O184 O 0.05338 0.03263 0.86669 0.0
O185 O 0.07398 0.00663 0.88881 0.0
O186 O 0.08713 0.09467 0.88187 0.0
O187 O 0.11724 0.09088 0.85944 0.0
C188 C 0.1014 0.11127 0.86917 0.0
C189 C 0.17718 0.01255 0.86775 0.0
O190 O 0.17308 0.08812 0.89191 0.0
O191 O 0.12899 0.05363 0.90121 0.0
O192 O 0.21888 0.09605 0.84968 0.0
O193 O 0.18632 0.13294 0.86062 0.0
O194 O 0.19676 0.02908 0.85698 0.0
O195 O 0.15923 0.03264 0.8764 0.0
O196 O 0.11635 0.02142 0.84711 0.0
O197 O 0.14756 0.06588 0.83619 0.0
C198 C 0.1548 0.07398 0.90473 0.0
C199 C 0.13042 0.03776 0.83363 0.0
Dy200 Dy 0.70711 0.35842 0.1161 0.0
C201 C 0.6076 0.44975 0.09339 0.0
C202 C 0.75394 0.31377 0.12832 0.0
Dy203 Dy 0.65937 0.41419 0.10765 0.0
O204 O 0.74169 0.31441 0.11242 0.0
O205 O 0.74118 0.33818 0.13751 0.0
O206 O 0.67333 0.32091 0.10308 0.0
O207 O 0.65188 0.36186 0.11597 0.0
C208 C 0.64568 0.33673 0.10632 0.0
C209 C 0.72053 0.43421 0.118 0.0
O210 O 0.64765 0.41077 0.13643 0.0
O211 O 0.69511 0.37951 0.14338 0.0
O212 O 0.63813 0.46095 0.09514 0.0
O213 O 0.60533 0.41954 0.09983 0.0
O214 O 0.69339 0.45081 0.12205 0.0
O215 O 0.71372 0.41001 0.10799 0.0
O216 O 0.72564 0.37228 0.08893 0.0
O217 O 0.67566 0.39668 0.08043 0.0
C218 C 0.66865 0.39781 0.14823 0.0
C219 C 0.7054 0.38378 0.07632 0.0
Dy220 Dy 0.38847 0.95649 0.37621 0.0
C221 C 0.30011 0.8559 0.34973 0.0
C222 C 0.43015 0.00167 0.39267 0.0
Dy223 Dy 0.33343 0.90779 0.36551 0.0
O224 O 0.40599 0.9851 0.40022 0.0
O225 O 0.43085 -0.00563 0.37591 0.0
O226 O 0.42755 0.92369 0.36385 0.0
O227 O 0.38503 0.90135 0.37511 0.0
C228 C 0.41107 0.89593 0.36603 0.0
C229 C 0.31245 0.96876 0.37567 0.0
O230 O 0.33381 0.89535 0.3944 0.0
O231 O 0.36272 0.94381 0.40235 0.0
O232 O 0.28786 0.88588 0.35202 0.0
O233 O 0.33017 0.85421 0.35637 0.0
O234 O 0.29492 0.94161 0.37869 0.0
O235 O 0.33788 0.962 0.36659 0.0
O236 O 0.37713 0.97617 0.34877 0.0
O237 O 0.35378 0.92618 0.33906 0.0
C238 C 0.34458 0.91676 0.4066 0.0
C239 C 0.36684 0.95634 0.33564 0.0
Dy240 Dy 0.16717 0.41476 0.45228 0.0
C241 C 0.24773 0.30087 0.43572 0.0
C242 C 0.11405 0.45413 0.46147 0.0
Dy243 Dy 0.20701 0.35525 0.44033 0.0
O244 O 0.14544 0.46182 0.46409 0.0
O245 O 0.1119 0.42537 0.45345 0.0
O246 O 0.21483 0.44439 0.45793 0.0
O247 O 0.21338 0.40876 0.43754 0.0
C248 C 0.23221 0.42801 0.44616 0.0
C249 C 0.14126 0.34287 0.44509 0.0
O250 O 0.22881 0.36675 0.46749 0.0
O251 O 0.18213 0.39374 0.47855 0.0
O252 O 0.22458 0.30376 0.44767 0.0
O253 O 0.24913 0.32814 0.42616 0.0
O254 O 0.15892 0.3309 0.43216 0.0
O255 O 0.1597 0.3603 0.45519 0.0
O256 O 0.15636 0.41587 0.42279 0.0
O257 O 0.19583 0.3768 0.41329 0.0
C258 C 0.21164 0.37923 0.48107 0.0
C259 C 0.1724 0.39981 0.40984 0.0
Dy260 Dy 0.82507 0.92028 0.20263 0.0
C261 C 0.92541 0.00895 0.17406 0.0
C262 C 0.7887 0.8713 0.21918 0.0
Dy263 Dy 0.88273 0.96415 0.19 0.0
O264 O 0.7829 0.90338 0.22042 0.0
O265 O 0.81389 0.86604 0.20861 0.0
O266 O 0.7878 0.95789 0.19109 0.0
O267 O 0.83425 0.97371 0.20112 0.0
C268 C 0.8085 0.98308 0.19301 0.0
C269 C 0.90208 0.90182 0.19951 0.0
O270 O 0.87517 0.98382 0.21778 0.0
O271 O 0.85104 0.93484 0.22821 0.0
O272 O 0.92867 -0.00278 0.19002 0.0
O273 O 0.89837 -0.00328 0.1669 0.0
O274 O 0.92069 0.92846 0.20068 0.0
O275 O 0.87511 0.90929 0.19155 0.0
O276 O 0.8186 0.90999 0.17382 0.0
O277 O 0.85627 0.95099 0.16415 0.0
C278 C 0.86565 0.96433 0.23123 0.0
C279 C 0.83272 0.92786 0.16097 0.0
Dy280 Dy 0.31906 0.57632 0.9513 0.0
C281 C 0.22947 0.6832 0.93002 0.0
C282 C 0.37502 0.54154 0.96086 0.0
Dy283 Dy 0.27385 0.63325 0.93823 0.0
O284 O 0.34436 0.53098 0.96305 0.0
O285 O 0.375 0.57076 0.95315 0.0
O286 O 0.27437 0.54302 0.95778 0.0
O287 O 0.27154 0.57932 0.93759 0.0
C288 C 0.25481 0.55905 0.94682 0.0
C289 C 0.33901 0.64964 0.94175 0.0
O290 O 0.25437 0.62295 0.96609 0.0
O291 O 0.30248 0.59787 0.97725 0.0
O292 O 0.25022 0.68342 0.94328 0.0
O293 O 0.23214 0.65501 0.92143 0.0
O294 O 0.31946 0.66126 0.92947 0.0
O295 O 0.32234 0.63128 0.95226 0.0
O296 O 0.32861 0.57377 0.92182 0.0
O297 O 0.28574 0.60891 0.91191 0.0
C298 C 0.27236 0.61133 0.97966 0.0
C299 C 0.31074 0.58745 0.90875 0.0
Dy300 Dy 0.65639 0.06665 0.70075 0.0
C301 C 0.55635 0.97426 0.67401 0.0
C302 C 0.68838 0.12083 0.71479 0.0
Dy303 Dy 0.59893 0.01892 0.6902 0.0
O304 O 0.69971 0.09016 0.71546 0.0
O305 O 0.66001 0.12176 0.70635 0.0
O306 O 0.69482 0.03237 0.68794 0.0
O307 O 0.65006 0.01298 0.69877 0.0
C308 C 0.67562 0.00591 0.68979 0.0
C309 C 0.57856 0.08029 0.70055 0.0
O310 O 0.61024 -0.00067 0.71782 0.0
O311 O 0.6386 0.04714 0.72734 0.0
O312 O 0.55731 0.98017 0.69093 0.0
O313 O 0.57909 0.99218 0.6661 0.0
O314 O 0.5608 0.05318 0.70237 0.0
O315 O 0.60449 0.07364 0.69163 0.0
O316 O 0.65701 0.07715 0.67171 0.0
O317 O 0.62385 0.03132 0.66377 0.0
C318 C 0.6238 0.01778 0.73073 0.0
C319 C 0.64405 0.05692 0.65953 0.0
H320 H 0.3546 0.18618 0.09709 0.0
H321 H 0.40436 0.2215 0.09223 0.0
H322 H 0.45971 0.1616 0.13014 0.0
H323 H 0.40924 0.12747 0.13558 0.0
H324 H 0.47027 0.2236 0.13699 0.0
H325 H 0.47293 0.15919 0.08315 0.0
H326 H 0.4487 0.13583 0.05573 0.0
H327 H 0.43252 0.23578 0.03565 0.0
H328 H 0.45616 0.25975 0.06311 0.0
H329 H 0.63165 0.27902 0.08878 0.0
H330 H 0.57936 0.24691 0.08902 0.0
H331 H 0.53206 0.32468 0.12008 0.0
H332 H 0.58498 0.35671 0.12023 0.0
H333 H 0.51713 0.25462 0.07824 0.0
H334 H 0.4791 0.2876 0.14982 0.0
H335 H 0.50543 0.30667 0.17769 0.0
H336 H 0.59861 0.26057 0.16242 0.0
H337 H 0.57271 0.24088 0.13459 0.0
C338 C 0.37773 0.18017 0.104 0.0
C339 C 0.37857 0.15387 0.11643 0.0
C340 C 0.40615 0.20035 0.10127 0.0
C341 C 0.43607 0.19412 0.11068 0.0
C342 C 0.43701 0.16702 0.12272 0.0
C343 C 0.40839 0.14727 0.12569 0.0
C344 C 0.46577 0.2168 0.10873 0.0
C345 C 0.48045 0.2303 0.12411 0.0
C346 C 0.47932 0.22564 0.09198 0.0
C347 C 0.46604 0.21125 0.07525 0.0
C348 C 0.46408 0.17618 0.07291 0.0
C349 C 0.45044 0.16283 0.05736 0.0
C350 C 0.43898 0.18432 0.04397 0.0
C351 C 0.44136 0.21918 0.04605 0.0
C352 C 0.4549 0.23266 0.0616 0.0
C353 C 0.61003 0.28948 0.09553 0.0
C354 C 0.6125 0.32015 0.1047 0.0
C355 C 0.58006 0.27114 0.09558 0.0
C356 C 0.55186 0.28305 0.10479 0.0
C357 C 0.55367 0.31468 0.11314 0.0
C358 C 0.58382 0.33304 0.11315 0.0
C359 C 0.52157 0.26119 0.10649 0.0
C360 C 0.50676 0.24796 0.09108 0.0
C361 C 0.50838 0.2519 0.12323 0.0
C362 C 0.52405 0.26313 0.14005 0.0
C363 C 0.50517 0.28146 0.15245 0.0
C364 C 0.52002 0.29238 0.16824 0.0
C365 C 0.55371 0.28495 0.17179 0.0
C366 C 0.57256 0.26643 0.15962 0.0
C367 C 0.55782 0.2554 0.14383 0.0
H368 H 0.56517 0.29347 0.184 0.0
H369 H 0.42824 0.17401 0.03196 0.0
H370 H 0.60384 0.63614 0.33908 0.0
H371 H 0.57473 0.6907 0.33839 0.0
H372 H 0.50655 0.65553 0.37901 0.0
H373 H 0.53464 0.60083 0.37905 0.0
H374 H 0.4727 0.68399 0.35385 0.0
H375 H 0.57461 0.71407 0.38626 0.0
H376 H 0.63639 0.71736 0.38897 0.0
H377 H 0.6411 0.77927 0.3423 0.0
H378 H 0.57933 0.77619 0.33928 0.0
H379 H 0.39471 0.8355 0.38143 0.0
H380 H 0.42514 0.78221 0.37849 0.0
H381 H 0.49186 0.82817 0.34028 0.0
H382 H 0.46244 0.88167 0.34383 0.0
H383 H 0.52791 0.79492 0.36176 0.0
H384 H 0.42925 0.76605 0.32843 0.0
H385 H 0.36917 0.75783 0.32168 0.0
H386 H 0.35921 0.69226 0.36675 0.0
H387 H 0.41933 0.70005 0.37372 0.0
C388 C 0.58284 0.64043 0.34794 0.0
C389 C 0.57136 0.61469 0.35916 0.0
C390 C 0.56629 0.67152 0.34759 0.0
C391 C 0.53857 0.67739 0.35878 0.0
C392 C 0.52775 0.65164 0.37023 0.0
C393 C 0.54384 0.62051 0.37032 0.0
C394 C 0.5197 0.70965 0.35823 0.0
C395 C 0.48473 0.70824 0.35584 0.0
C396 C 0.53552 0.7414 0.36004 0.0
C397 C 0.57242 0.74465 0.36245 0.0
C398 C 0.58884 0.72838 0.37658 0.0
C399 C 0.62384 0.73019 0.37817 0.0
C400 C 0.64266 0.74843 0.36578 0.0
C401 C 0.62649 0.76513 0.35187 0.0
C402 C 0.59149 0.76342 0.35024 0.0
C403 C 0.41562 0.83401 0.37227 0.0
C404 C 0.42635 0.86264 0.36291 0.0
C405 C 0.43295 0.80352 0.37051 0.0
C406 C 0.46077 0.80095 0.35904 0.0
C407 C 0.47069 0.82943 0.34928 0.0
C408 C 0.45375 0.85996 0.35126 0.0
C409 C 0.48059 0.76922 0.35784 0.0
C410 C 0.51578 0.77073 0.35981 0.0
C411 C 0.46506 0.73748 0.35543 0.0
C412 C 0.42867 0.73388 0.35168 0.0
C413 C 0.41415 0.75015 0.33699 0.0
C414 C 0.38011 0.74543 0.33309 0.0
C415 C 0.36034 0.72456 0.34382 0.0
C416 C 0.37455 0.70841 0.35847 0.0
C417 C 0.40861 0.71289 0.36237 0.0
H418 H 0.33402 0.72074 0.3408 0.0
H419 H 0.66976 0.74965 0.36697 0.0
H420 H 0.08467 0.82277 0.64066 0.0
H421 H 0.03697 0.78808 0.63187 0.0
H422 H 0.04641 0.82344 0.57805 0.0
H423 H 0.0951 0.85838 0.5868 0.0
H424 H 0.9737 0.81299 0.59532 0.0
H425 H 0.07695 0.75778 0.58012 0.0
H426 H 0.13565 0.74066 0.58557 0.0
H427 H 0.10431 0.68385 0.63113 0.0
H428 H 0.0457 0.70138 0.6263 0.0
H429 H 0.86723 0.66769 0.57913 0.0
H430 H 0.91515 0.70565 0.57333 0.0
H431 H 0.94927 0.69163 0.62712 0.0
H432 H 0.90112 0.65487 0.63303 0.0
H433 H 0.00208 0.69172 0.60097 0.0
H434 H 0.90366 0.75532 0.61969 0.0
H435 H 0.84497 0.77458 0.61679 0.0
H436 H 0.867 0.81582 0.56542 0.0
H437 H 0.92576 0.79628 0.56792 0.0
C438 C 0.07628 0.82378 0.627 0.0
C439 C 0.09392 0.84292 0.61436 0.0
C440 C 0.04897 0.80394 0.62201 0.0
C441 C 0.03847 0.80289 0.60429 0.0
C442 C 0.05425 0.82393 0.59179 0.0
C443 C 0.08197 0.84383 0.5968 0.0
C444 C 0.01348 0.77697 0.59902 0.0
C445 C 0.98001 0.78645 0.59596 0.0
C446 C 0.02168 0.74236 0.60015 0.0
C447 C 0.05691 0.73111 0.6029 0.0
C448 C 0.08264 0.74188 0.59141 0.0
C449 C 0.11594 0.73211 0.5944 0.0
C450 C 0.1238 0.71127 0.60875 0.0
C451 C 0.09832 0.70008 0.62008 0.0
C452 C 0.06503 0.70992 0.61722 0.0
C453 C 0.88556 0.67205 0.5895 0.0
C454 C 0.88079 0.65826 0.60649 0.0
C455 C 0.91271 0.69388 0.58623 0.0
C456 C 0.93568 0.70156 0.59983 0.0
C457 C 0.93195 0.68599 0.61643 0.0
C458 C 0.90452 0.66495 0.61979 0.0
C459 C 0.96215 0.72767 0.59756 0.0
C460 C -0.00409 0.71818 0.59949 0.0
C461 C 0.95417 0.7622 0.59537 0.0
C462 C 0.91891 0.77388 0.59386 0.0
C463 C 0.89588 0.76815 0.60769 0.0
C464 C 0.86264 0.77919 0.60614 0.0
C465 C 0.85223 0.79629 0.5909 0.0
C466 C 0.87508 0.80247 0.57719 0.0
C467 C 0.90835 0.79141 0.57866 0.0
H468 H 0.82649 0.80485 0.58973 0.0
H469 H 0.14958 0.70372 0.61107 0.0
H470 H 0.04351 0.111 0.85081 0.0
H471 H 0.00737 0.15917 0.84431 0.0
H472 H 0.08274 0.22611 0.86573 0.0
H473 H 0.11849 0.17736 0.8728 0.0
H474 H 0.0251 0.24114 0.87921 0.0
H475 H 0.06299 0.2229 0.82019 0.0
H476 H 0.07554 0.19058 0.79314 0.0
H477 H 0.97091 0.16593 0.78741 0.0
H478 H 0.95778 0.1977 0.81459 0.0
H479 H 0.93461 0.37872 0.82682 0.0
H480 H 0.96989 0.32848 0.8264 0.0
H481 H 0.91327 0.28694 0.87007 0.0
H482 H 0.87793 0.33759 0.87064 0.0
H483 H 0.96405 0.26173 0.82284 0.0
H484 H 0.96984 0.2532 0.89938 0.0
H485 H 0.96207 0.29018 0.9253 0.0
H486 H 0.98885 0.37633 0.89381 0.0
H487 H -0.00273 0.33981 0.86779 0.0
C488 C 0.05266 0.13614 0.85365 0.0
C489 C 0.08383 0.14077 0.86201 0.0
C490 C 0.03202 0.16367 0.84995 0.0
C491 C 0.04236 0.19643 0.85436 0.0
C492 C 0.0742 0.20111 0.86217 0.0
C493 C 0.09476 0.17341 0.86605 0.0
C494 C 0.01881 0.22524 0.8521 0.0
C495 C 0.01188 0.24561 0.86685 0.0
C496 C 0.00168 0.23149 0.83593 0.0
C497 C 0.00945 0.21247 0.81952 0.0
C498 C 0.04269 0.21038 0.81324 0.0
C499 C 0.0499 0.19219 0.79787 0.0
C500 C 0.02405 0.17615 0.78858 0.0
C501 C 0.99092 0.17834 0.79463 0.0
C502 C 0.98357 0.19648 0.81001 0.0
C503 C 0.92918 0.35852 0.83607 0.0
C504 C 0.90384 0.36216 0.8489 0.0
C505 C 0.94933 0.32979 0.83579 0.0
C506 C 0.94466 0.30425 0.84841 0.0
C507 C 0.91762 0.30663 0.86037 0.0
C508 C 0.8973 0.33542 0.86062 0.0
C509 C 0.97002 0.27697 0.85003 0.0
C510 C 0.97726 0.25702 0.83518 0.0
C511 C 0.98817 0.27169 0.86594 0.0
C512 C 0.98379 0.29379 0.8816 0.0
C513 C 0.97419 0.28001 0.89801 0.0
C514 C 0.96967 0.30089 0.91272 0.0
C515 C 0.97485 0.33559 0.91118 0.0
C516 C 0.98473 0.34947 0.89496 0.0
C517 C 0.98935 0.32869 0.88024 0.0
H518 H 0.97128 0.35172 0.92257 0.0
H519 H 0.02969 0.16207 0.77669 0.0
H520 H 0.63807 0.77185 0.97163 0.0
H521 H 0.58543 0.74023 0.97381 0.0
H522 H 0.53706 0.81248 0.93947 0.0
H523 H 0.58969 0.84455 0.93749 0.0
H524 H 0.49546 0.79424 0.96533 0.0
H525 H 0.56376 0.73597 0.92296 0.0
H526 H 0.61465 0.70792 0.91173 0.0
H527 H 0.60884 0.63524 0.95385 0.0
H528 H 0.55763 0.66284 0.96528 0.0
H529 H 0.36907 0.69975 0.92338 0.0
H530 H 0.42217 0.72786 0.92973 0.0
H531 H 0.43836 0.6618 0.97434 0.0
H532 H 0.38408 0.63384 0.96835 0.0
H533 H 0.49625 0.67391 0.94766 0.0
H534 H 0.41931 0.73117 0.98631 0.0
H535 H 0.36623 0.75987 0.99372 0.0
H536 H 0.38732 0.83629 0.95492 0.0
H537 H 0.44029 0.80774 0.94707 0.0
C538 C 0.61612 0.78114 0.96466 0.0
C539 C 0.61798 0.81052 0.9543 0.0
C540 C 0.58609 0.76296 0.96586 0.0
C541 C 0.5574 0.77361 0.95656 0.0
C542 C 0.55888 0.8037 0.94673 0.0
C543 C 0.58894 0.822 0.94559 0.0
C544 C 0.52621 0.75285 0.95663 0.0
C545 C 0.49567 0.76798 0.96142 0.0
C546 C 0.52644 0.71836 0.95183 0.0
C547 C 0.55717 0.70169 0.94508 0.0
C548 C 0.57349 0.71415 0.92989 0.0
C549 C 0.60235 0.69829 0.92348 0.0
C550 C 0.61518 0.66997 0.93215 0.0
C551 C 0.59895 0.65726 0.94718 0.0
C552 C 0.56993 0.67292 0.9536 0.0
C553 C 0.38383 0.69105 0.93456 0.0
C554 C 0.37235 0.66462 0.94541 0.0
C555 C 0.41417 0.70722 0.93816 0.0
C556 C 0.43397 0.69708 0.95256 0.0
C557 C 0.42326 0.67001 0.96319 0.0
C558 C 0.39238 0.65407 0.95975 0.0
C559 C 0.46567 0.71542 0.95624 0.0
C560 C 0.49626 0.69994 0.95201 0.0
C561 C 0.46539 0.74973 0.96123 0.0
C562 C 0.43367 0.76715 0.96601 0.0
C563 C 0.4125 0.75393 0.97925 0.0
C564 C 0.38245 0.77021 0.98355 0.0
C565 C 0.37337 0.79985 0.97477 0.0
C566 C 0.39437 0.81332 0.9617 0.0
C567 C 0.42444 0.79712 0.95734 0.0
H568 H 0.3501 0.81242 0.97812 0.0
H569 H 0.63761 0.6578 0.92718 0.0
H570 H 0.5187 0.09578 0.71559 0.0
H571 H 0.49107 0.15064 0.71668 0.0
H572 H 0.57711 0.19644 0.69153 0.0
H573 H 0.60464 0.14119 0.68986 0.0
H574 H 0.54731 0.23256 0.72262 0.0
H575 H 0.51664 0.18243 0.66623 0.0
H576 H 0.49425 0.13715 0.6473 0.0
H577 H 0.40014 0.14069 0.67514 0.0
H578 H 0.42217 0.18574 0.6944 0.0
H579 H 0.47518 0.38829 0.69927 0.0
H580 H 0.50487 0.33485 0.70038 0.0
H581 H 0.41027 0.28246 0.70633 0.0
H582 H 0.38037 0.33606 0.70386 0.0
H583 H 0.44517 0.24853 0.68575 0.0
H584 H 0.47128 0.29731 0.7417 0.0
H585 H 0.49123 0.33994 0.76297 0.0
H586 H 0.59001 0.33598 0.7401 0.0
H587 H 0.57052 0.29379 0.71846 0.0
C588 C 0.53191 0.11755 0.7104 0.0
C589 C 0.56389 0.11421 0.70266 0.0
C590 C 0.51606 0.14884 0.71104 0.0
C591 C 0.53199 0.17747 0.7041 0.0
C592 C 0.56448 0.17457 0.69698 0.0
C593 C 0.58022 0.14307 0.69611 0.0
C594 C 0.51391 0.21003 0.70363 0.0
C595 C 0.52524 0.2364 0.7144 0.0
C596 C 0.48439 0.21432 0.69344 0.0
C597 C 0.47116 0.18723 0.68186 0.0
C598 C 0.49128 0.17333 0.66842 0.0
C599 C 0.47862 0.14774 0.65761 0.0
C600 C 0.44579 0.13599 0.66004 0.0
C601 C 0.42556 0.1498 0.67328 0.0
C602 C 0.43811 0.17539 0.68414 0.0
C603 C 0.46065 0.36539 0.70086 0.0
C604 C 0.42533 0.36639 0.70162 0.0
C605 C 0.47775 0.33476 0.70167 0.0
C606 C 0.46005 0.30443 0.70394 0.0
C607 C 0.42466 0.30542 0.70466 0.0
C608 C 0.40748 0.33609 0.70332 0.0
C609 C 0.47838 0.2717 0.7048 0.0
C610 C 0.46715 0.24507 0.69408 0.0
C611 C 0.50755 0.26697 0.71541 0.0
C612 C 0.5193 0.29262 0.72831 0.0
C613 C 0.49717 0.30576 0.74108 0.0
C614 C 0.50842 0.32983 0.75322 0.0
C615 C 0.54182 0.34076 0.75283 0.0
C616 C 0.5641 0.32758 0.74034 0.0
C617 C 0.55297 0.30358 0.72813 0.0
H618 H 0.55048 0.35937 0.76226 0.0
H619 H 0.43595 0.11628 0.65162 0.0
H620 H 0.0924 0.3223 0.4229 0.0
H621 H 0.04239 0.28895 0.43005 0.0
H622 H 0.06835 0.29205 0.48551 0.0
H623 H 0.1182 0.32667 0.47842 0.0
H624 H 0.05306 0.2219 0.4661 0.0
H625 H 0.00751 0.32845 0.48218 0.0
H626 H -0.00244 0.38922 0.47855 0.0
H627 H 0.94577 0.3709 0.42953 0.0
H628 H 0.95588 0.30989 0.43276 0.0
H629 H 0.88914 0.13681 0.47525 0.0
H630 H 0.93939 0.17141 0.48171 0.0
H631 H 0.93163 0.21749 0.43009 0.0
H632 H 0.88247 0.18334 0.42354 0.0
H633 H 0.93728 0.26454 0.45647 0.0
H634 H 0.98903 0.15934 0.43879 0.0
H635 H 0.00195 0.09883 0.44125 0.0
H636 H 0.04377 0.1146 0.49304 0.0
H637 H 0.03026 0.17512 0.4911 0.0
C638 C 0.08708 0.31644 0.43666 0.0
C639 C 0.10893 0.32721 0.45012 0.0
C640 C 0.05867 0.29725 0.44071 0.0
C641 C 0.05187 0.28782 0.45827 0.0
C642 C 0.0733 0.29899 0.47187 0.0
C643 C 0.10148 0.31899 0.46783 0.0
C644 C 0.02244 0.26585 0.46191 0.0
C645 C 0.02759 0.23123 0.46456 0.0
C646 C 0.9894 0.27805 0.4596 0.0
C647 C 0.98268 0.31462 0.45766 0.0
C648 C -0.00577 0.33739 0.47055 0.0
C649 C 0.98852 0.37189 0.46858 0.0
C650 C 0.97112 0.38397 0.45379 0.0
C651 C 0.95927 0.36151 0.44098 0.0
C652 C 0.96494 0.32694 0.44289 0.0
C653 C 0.89851 0.15406 0.46526 0.0
C654 C 0.88167 0.15761 0.44895 0.0
C655 C 0.92706 0.17385 0.46898 0.0
C656 C 0.93893 0.19741 0.45648 0.0
C657 C 0.92269 0.19991 0.44004 0.0
C658 C 0.89461 0.18019 0.4363 0.0
C659 C 0.9678 0.22025 0.46018 0.0
C660 C 0.96254 0.25515 0.45871 0.0
C661 C 0.00067 0.20818 0.46361 0.0
C662 C 0.00815 0.17169 0.46491 0.0
C663 C 0.0005 0.14984 0.45082 0.0
C664 C 0.00799 0.11555 0.4521 0.0
C665 C 0.02358 0.10288 0.46731 0.0
C666 C 0.03158 0.12444 0.4813 0.0
C667 C 0.02396 0.15873 0.48013 0.0
H668 H 0.02968 0.07639 0.46819 0.0
H669 H 0.96677 0.41072 0.45227 0.0
H670 H 0.03271 0.60796 0.22144 0.0
H671 H 0.00142 0.6607 0.22153 0.0
H672 H 0.07464 0.70495 0.18629 0.0
H673 H 0.10636 0.65174 0.18615 0.0
H674 H 0.0531 0.7485 0.2134 0.0
H675 H 0.00335 0.67583 0.16957 0.0
H676 H 0.97788 0.62319 0.15863 0.0
H677 H 0.89738 0.63309 0.19616 0.0
H678 H 0.92267 0.68554 0.20753 0.0
H679 H 0.96116 0.88684 0.18404 0.0
H680 H 0.99165 0.83372 0.18492 0.0
H681 H 0.91068 0.78849 0.21478 0.0
H682 H 0.87929 0.84192 0.21331 0.0
H683 H 0.93545 0.7447 0.19137 0.0
H684 H 0.98333 0.81625 0.23537 0.0
H685 H 0.00805 0.86843 0.24736 0.0
H686 H 0.09104 0.85994 0.21125 0.0
H687 H 0.06658 0.80794 0.19887 0.0
C688 C 0.04241 0.62902 0.21385 0.0
C689 C 0.07175 0.62567 0.20361 0.0
C690 C 0.02439 0.65909 0.21386 0.0
C691 C 0.03528 0.68647 0.20361 0.0
C692 C 0.06567 0.68395 0.19417 0.0
C693 C 0.0838 0.65366 0.19412 0.0
C694 C 0.0142 0.71719 0.20241 0.0
C695 C 0.02756 0.74781 0.20835 0.0
C696 C 0.98042 0.71595 0.1964 0.0
C697 C 0.96511 0.68446 0.18952 0.0
C698 C 0.98038 0.66664 0.1756 0.0
C699 C 0.96594 0.63685 0.1693 0.0
C700 C 0.93607 0.62475 0.17672 0.0
C701 C 0.92054 0.64246 0.19044 0.0
C702 C 0.93491 0.67223 0.19681 0.0
C703 C 0.94969 0.86547 0.19065 0.0
C704 C 0.918 0.8684 0.1987 0.0
C705 C 0.96723 0.83517 0.19124 0.0
C706 C 0.95394 0.80733 0.20033 0.0
C707 C 0.92156 0.80973 0.20779 0.0
C708 C 0.90362 0.84013 0.20693 0.0
C709 C 0.97443 0.77621 0.20222 0.0
C710 C 0.96096 0.74546 0.19646 0.0
C711 C 0.00801 0.77722 0.20858 0.0
C712 C 0.02297 0.80833 0.2161 0.0
C713 C 0.00675 0.82563 0.22991 0.0
C714 C 0.02073 0.85516 0.23678 0.0
C715 C 0.05106 0.86753 0.23005 0.0
C716 C 0.06753 0.85034 0.21645 0.0
C717 C 0.05364 0.82081 0.20951 0.0
H718 H 0.06184 0.89041 0.23538 0.0
H719 H 0.92492 0.6017 0.17182 0.0
H720 H 0.43476 0.05561 0.09224 0.0
H721 H 0.47239 0.03663 0.06872 0.0
H722 H 0.41193 0.94742 0.06171 0.0
H723 H 0.37355 0.96667 0.08506 0.0
H724 H 0.48609 0.93883 0.05933 0.0
H725 H 0.39447 0.00524 0.03698 0.0
H726 H 0.35723 0.05466 0.03516 0.0
H727 H 0.44147 0.11711 1.02127 0.0
H728 H 0.47945 0.06845 1.02384 0.0
H729 H 0.54508 0.89739 0.97435 0.0
H730 H 0.50447 0.91249 0.9973 0.0
H731 H 0.55305 0.00893 1.00357 0.0
H732 H 0.59387 -0.00605 0.98055 0.0
H733 H 0.48277 0.01212 1.00591 0.0
H734 H 0.57464 0.9489 0.03059 0.0
H735 H 0.61361 0.90076 0.03229 0.0
H736 H 0.53043 0.83368 0.04107 0.0
H737 H 0.4909 0.88142 0.03917 0.0
C738 C 0.42993 0.03152 0.08602 0.0
C739 C 0.40115 0.01267 0.09033 0.0
C740 C 0.45136 0.02082 0.07256 0.0
C741 C 0.44452 0.99095 0.06338 0.0
C742 C 0.41742 0.97063 0.06865 0.0
C743 C 0.39562 0.98159 0.08197 0.0
C744 C 0.4639 0.9827 0.04731 0.0
C745 C 0.48504 0.95453 0.04755 0.0
C746 C 0.46282 0.0037 0.03212 0.0
C747 C 0.43996 0.0332 0.03089 0.0
C748 C 0.4052 0.02962 0.03389 0.0
C749 C 0.38391 0.05754 0.03272 0.0
C750 C 0.39699 0.0891 1.02825 0.0
C751 C 0.43137 0.09276 1.02492 0.0
C752 C 0.45281 0.06503 1.02629 0.0
C753 C 0.54665 0.92211 0.98035 0.0
C754 C 0.57271 0.94446 0.97584 0.0
C755 C 0.52356 0.9306 0.99349 0.0
C756 C 0.52622 0.96153 1.0023 0.0
C757 C 0.55075 0.98487 0.99694 0.0
C758 C 0.57398 0.97633 0.98381 0.0
C759 C 0.50513 0.96843 1.01798 0.0
C760 C 0.48367 -0.00366 1.01766 0.0
C761 C 0.50607 0.94737 0.03314 0.0
C762 C 0.52979 0.91868 0.03456 0.0
C763 C 0.56464 0.92385 0.03276 0.0
C764 C 0.58683 0.89665 0.03377 0.0
C765 C 0.57449 0.86417 0.03674 0.0
C766 C 0.53994 0.85885 0.03875 0.0
C767 C 0.51763 0.88597 0.03772 0.0
H768 H 0.59171 0.84313 0.03751 0.0
H769 H 0.38047 0.11067 1.02728 0.0
H770 H 0.68362 0.68525 0.34848 0.0
H771 H 0.70046 0.73099 0.32859 0.0
H772 H 0.75932 0.66097 0.29784 0.0
H773 H 0.74364 0.61552 0.31815 0.0
H774 H 0.78992 0.71955 0.2989 0.0
H775 H 0.67618 0.68181 0.28795 0.0
H776 H 0.61731 0.67011 0.29626 0.0
H777 H 0.60223 0.7747 0.30804 0.0
H778 H 0.66131 0.78684 0.3004 0.0
H779 H 0.79872 0.80376 0.21764 0.0
H780 H 0.78156 0.7618 0.23964 0.0
H781 H 0.72914 0.83863 0.26901 0.0
H782 H 0.74556 0.88058 0.24677 0.0
H783 H 0.69525 0.77924 0.26966 0.0
H784 H 0.80843 0.81708 0.2804 0.0
H785 H 0.86694 0.82924 0.27158 0.0
H786 H 0.88236 0.72483 0.25945 0.0
H787 H 0.82376 0.71213 0.26795 0.0
C788 C 0.70078 0.67986 0.3377 0.0
C789 C 0.71218 0.64692 0.3347 0.0
C790 C 0.71019 0.70592 0.32629 0.0
C791 C 0.73042 0.6992 0.31145 0.0
C792 C 0.74352 0.66669 0.30913 0.0
C793 C 0.73457 0.64074 0.32073 0.0
C794 C 0.73608 0.72523 0.29765 0.0
C795 C 0.76919 0.73237 0.29242 0.0
C796 C 0.70902 0.74246 0.2894 0.0
C797 C 0.67331 0.73517 0.29378 0.0
C798 C 0.6604 0.70226 0.29247 0.0
C799 C 0.627 0.69554 0.2971 0.0
C800 C 0.60609 0.72162 0.30277 0.0
C801 C 0.6185 0.75448 0.30376 0.0
C802 C 0.65197 0.76129 0.29932 0.0
C803 C 0.78294 0.81152 0.22859 0.0
C804 C 0.77366 0.84536 0.23064 0.0
C805 C 0.77333 0.78762 0.24119 0.0
C806 C 0.75477 0.79731 0.25616 0.0
C807 C 0.74365 0.83071 0.25761 0.0
C808 C 0.75303 0.8546 0.24492 0.0
C809 C 0.74899 0.77318 0.27083 0.0
C810 C 0.71591 0.76647 0.27622 0.0
C811 C 0.77603 0.75633 0.27923 0.0
C812 C 0.81163 0.7637 0.27469 0.0
C813 C 0.82427 0.79674 0.2758 0.0
C814 C 0.85744 0.80373 0.27085 0.0
C815 C 0.87833 0.77784 0.26492 0.0
C816 C 0.86614 0.74487 0.26403 0.0
C817 C 0.83296 0.73775 0.26893 0.0
H818 H 0.90398 0.78332 0.26104 0.0
H819 H 0.58022 0.7164 0.30632 0.0
H820 H 0.04357 0.95392 0.60044 0.0
H821 H 0.00483 0.96817 0.57646 0.0
H822 H 0.07827 0.03644 0.55446 0.0
H823 H 0.11737 0.02217 0.57844 0.0
H824 H 0.00706 0.05632 0.55023 0.0
H825 H 0.08336 0.96356 0.53983 0.0
H826 H 0.11107 0.91023 0.54802 0.0
H827 H 0.01504 0.86079 0.55037 0.0
H828 H 0.98671 0.91403 0.54246 0.0
H829 H 0.94666 0.05726 0.46379 0.0
H830 H 0.98829 0.04679 0.487 0.0
H831 H 0.92558 0.96824 0.50869 0.0
H832 H 0.88387 0.97835 0.48543 0.0
H833 H -0.0069 0.95452 0.51274 0.0
H834 H 0.91635 0.04546 0.5232 0.0
H835 H 0.88699 0.0983 0.51585 0.0
H836 H 0.98137 0.15093 0.51451 0.0
H837 H 0.01138 0.09818 0.52155 0.0
C838 C 0.051 0.97292 0.59089 0.0
C839 C 0.0836 0.98657 0.59108 0.0
C840 C 0.0289 0.98093 0.57718 0.0
C841 C 0.03911 0.00276 0.56358 0.0
C842 C 0.07014 0.0194 0.56485 0.0
C843 C 0.09238 0.01127 0.57854 0.0
C844 C 0.01976 0.00409 0.54691 0.0
C845 C 0.00433 0.03428 0.54188 0.0
C846 C 0.01591 0.97503 0.53626 0.0
C847 C 0.0329 0.94283 0.54069 0.0
C848 C 0.06814 0.94137 0.54221 0.0
C849 C 0.08396 0.91116 0.54678 0.0
C850 C 0.06482 0.88215 0.5497 0.0
C851 C 0.02982 0.88329 0.54808 0.0
C852 C 0.01387 0.91347 0.54354 0.0
C853 C 0.9423 0.03693 0.47311 0.0
C854 C 0.9119 0.01889 0.47302 0.0
C855 C 0.96601 0.03113 0.48639 0.0
C856 C 0.95953 0.00737 0.49974 0.0
C857 C 0.93086 0.98687 0.49856 0.0
C858 C 0.9071 0.99263 0.48526 0.0
C859 C 0.98029 0.0068 0.51599 0.0
C860 C -0.00402 0.97669 0.52098 0.0
C861 C 0.98415 0.0359 0.52666 0.0
C862 C 0.96616 0.06778 0.52268 0.0
C863 C 0.93088 0.06823 0.52119 0.0
C864 C 0.91412 0.09817 0.5171 0.0
C865 C 0.93232 0.12793 0.51468 0.0
C866 C 0.96733 0.12782 0.51635 0.0
C867 C 0.98423 0.09791 0.52039 0.0
H868 H 0.91927 0.1511 0.5116 0.0
H869 H 0.07713 0.85876 0.55317 0.0
H870 H 0.72901 0.38064 0.81443 0.0
H871 H 0.71182 0.33964 0.79193 0.0
H872 H 0.76466 0.26143 0.82029 0.0
H873 H 0.78219 0.30227 0.84262 0.0
H874 H 0.78499 0.26705 0.78606 0.0
H875 H 0.6795 0.26218 0.81788 0.0
H876 H 0.62785 0.28549 0.83109 0.0
H877 H 0.59714 0.32303 0.78019 0.0
H878 H 0.64883 0.30036 0.7667 0.0
H879 H 0.7357 0.11931 0.74083 0.0
H880 H 0.75008 0.16515 0.76103 0.0
H881 H 0.68598 0.23254 0.73136 0.0
H882 H 0.67058 0.18636 0.71157 0.0
H883 H 0.67119 0.23646 0.76451 0.0
H884 H 0.77368 0.24098 0.73202 0.0
H885 H 0.82527 0.21966 0.71786 0.0
H886 H 0.86211 0.18606 0.76839 0.0
H887 H 0.81051 0.20674 0.78284 0.0
C888 C 0.73612 0.3545 0.81608 0.0
C889 C 0.75706 0.34453 0.83013 0.0
C890 C 0.72634 0.33116 0.80324 0.0
C891 C 0.7372 0.29761 0.80443 0.0
C892 C 0.75625 0.28728 0.81911 0.0
C893 C 0.76608 0.31056 0.83188 0.0
C894 C 0.73168 0.27398 0.78963 0.0
C895 C 0.7601 0.25997 0.78146 0.0
C896 C 0.69926 0.2661 0.78318 0.0
C897 C 0.66826 0.27991 0.79132 0.0
C898 C 0.66191 0.27571 0.80953 0.0
C899 C 0.63258 0.28874 0.81706 0.0
C900 C 0.60928 0.30582 0.8065 0.0
C901 C 0.61523 0.30985 0.78837 0.0
C902 C 0.64453 0.2969 0.78077 0.0
C903 C 0.72533 0.14411 0.73842 0.0
C904 C 0.70202 0.14943 0.72475 0.0
C905 C 0.7336 0.17032 0.74991 0.0
C906 C 0.71919 0.20234 0.74766 0.0
C907 C 0.69727 0.20802 0.73338 0.0
C908 C 0.68865 0.18171 0.72205 0.0
C909 C 0.72454 0.2289 0.7611 0.0
C910 C 0.69613 0.24362 0.76899 0.0
C911 C 0.75701 0.2378 0.76715 0.0
C912 C 0.78806 0.22517 0.75849 0.0
C913 C 0.79264 0.22879 0.7401 0.0
C914 C 0.82192 0.21686 0.73202 0.0
C915 C 0.84692 0.20145 0.74221 0.0
C916 C 0.84271 0.19798 0.76051 0.0
C917 C 0.81347 0.20983 0.76865 0.0
H918 H 0.86957 0.19225 0.73593 0.0
H919 H 0.58657 0.31587 0.81235 0.0
H920 H 0.315 0.29572 0.7182 0.0
H921 H 0.30176 0.25528 0.74166 0.0
H922 H 0.23321 0.32664 0.76504 0.0
H923 H 0.24664 0.36734 0.74164 0.0
H924 H 0.27868 0.30408 0.78868 0.0
H925 H 0.20526 0.25508 0.7455 0.0
H926 H 0.18827 0.22974 0.71708 0.0
H927 H 0.25789 0.14866 0.7253 0.0
H928 H 0.27583 0.17385 0.75361 0.0
H929 H 0.20034 0.19511 0.85172 0.0
H930 H 0.2187 0.23581 0.82941 0.0
H931 H 0.28499 0.16141 0.80687 0.0
H932 H 0.26632 0.12042 0.82904 0.0
H933 H 0.24245 0.18516 0.7828 0.0
H934 H 0.31561 0.23335 0.82598 0.0
H935 H 0.33267 0.25819 0.85452 0.0
H936 H 0.2639 0.34004 0.84645 0.0
H937 H 0.246 0.31544 0.81799 0.0
C938 C 0.29646 0.30244 0.72809 0.0
C939 C 0.28186 0.33462 0.72817 0.0
C940 C 0.28891 0.27931 0.74148 0.0
C941 C 0.26654 0.28799 0.7551 0.0
C942 C 0.25062 0.31952 0.75466 0.0
C943 C 0.25813 0.34264 0.74125 0.0
C944 C 0.26218 0.26549 0.77061 0.0
C945 C 0.27024 0.27819 0.78745 0.0
C946 C 0.25242 0.2314 0.76886 0.0
C947 C 0.24224 0.21666 0.75159 0.0
C948 C 0.21732 0.23211 0.74114 0.0
C949 C 0.20744 0.21771 0.72507 0.0
C950 C 0.22209 0.18769 0.71935 0.0
C951 C 0.24666 0.17199 0.7297 0.0
C952 C 0.25669 0.18633 0.74576 0.0
C953 C 0.21965 0.18779 0.84236 0.0
C954 C 0.23175 0.1546 0.84198 0.0
C955 C 0.23016 0.21109 0.82963 0.0
C956 C 0.2531 0.20159 0.81642 0.0
C957 C 0.26715 0.16919 0.8169 0.0
C958 C 0.25662 0.14587 0.82963 0.0
C959 C 0.25888 0.22374 0.80089 0.0
C960 C 0.25105 0.211 0.78404 0.0
C961 C 0.26891 0.25775 0.80262 0.0
C962 C 0.27918 0.27231 0.81992 0.0
C963 C 0.30381 0.25643 0.83038 0.0
C964 C 0.31371 0.27053 0.84653 0.0
C965 C 0.29931 0.30062 0.85232 0.0
C966 C 0.27499 0.31669 0.84197 0.0
C967 C 0.26497 0.30269 0.82582 0.0
H968 H 0.30706 0.31152 0.86481 0.0
H969 H 0.21434 0.17652 0.70693 0.0
H970 H 0.32598 0.79449 0.34244 0.0
H971 H 0.30698 0.7553 0.31947 0.0
H972 H 0.2224 0.81936 0.30811 0.0
H973 H 0.24125 0.85894 0.33106 0.0
H974 H 0.20824 0.74768 0.30727 0.0
H975 H 0.2868 0.82844 0.28282 0.0
H976 H 0.34007 0.86035 0.28325 0.0
H977 H 0.39586 0.76796 0.28102 0.0
H978 H 0.34287 0.73549 0.28079 0.0
H979 H 0.1719 0.68773 0.22217 0.0
H980 H 0.19011 0.72744 0.24493 0.0
H981 H 0.27518 0.66413 0.257 0.0
H982 H 0.25685 0.62393 0.23425 0.0
H983 H 0.28915 0.73555 0.25751 0.0
H984 H 0.21316 0.65448 0.28199 0.0
H985 H 0.16125 0.6205 0.28294 0.0
H986 H 0.10211 0.7106 0.28656 0.0
H987 H 0.15372 0.74517 0.28532 0.0
C988 C 0.30298 0.79988 0.3353 0.0
C989 C 0.28522 0.8298 0.33835 0.0
C990 C 0.29226 0.77755 0.32223 0.0
C991 C 0.26372 0.78476 0.31203 0.0
C992 C 0.24459 0.81349 0.31585 0.0
C993 C 0.25537 0.836 0.32892 0.0
C994 C 0.25578 0.76365 0.29648 0.0
C995 C 0.22561 0.74541 0.29625 0.0
C996 C 0.27902 0.76007 0.2824 0.0
C997 C 0.31089 0.77955 0.28186 0.0
C998 C 0.31044 0.81494 0.28246 0.0
C999 C 0.34057 0.83312 0.28267 0.0
C1000 C 0.37133 0.81618 0.28217 0.0
C1001 C 0.37201 0.78104 0.28138 0.0
C1002 C 0.34193 0.76274 0.28117 0.0
C1003 C 0.19488 0.6826 0.2294 0.0
C1004 C 0.21289 0.6527 0.22658 0.0
C1005 C 0.20516 0.70524 0.24242 0.0
C1006 C 0.23368 0.6984 0.25274 0.0
C1007 C 0.25305 0.66972 0.24914 0.0
C1008 C 0.24259 0.64684 0.23618 0.0
C1009 C 0.24144 0.71979 0.26821 0.0
C1010 C 0.27165 0.73798 0.26846 0.0
C1011 C 0.21837 0.72308 0.28239 0.0
C1012 C 0.18728 0.70243 0.28337 0.0
C1013 C 0.18907 0.66706 0.28283 0.0
C1014 C 0.15971 0.64769 0.28345 0.0
C1015 C 0.12839 0.66339 0.28476 0.0
C1016 C 0.12639 0.69849 0.28551 0.0
C1017 C 0.15569 0.71798 0.28487 0.0
H1018 H 0.10568 0.64835 0.28523 0.0
H1019 H 0.39464 0.83029 0.28239 0.0
H1020 H 0.11652 0.50682 0.4844 0.0
H1021 H 0.07331 0.52129 0.50614 0.0
H1022 H 0.00517 0.4504 0.48192 0.0
H1023 H 0.04819 0.43585 0.46011 0.0
H1024 H 0.97199 0.50471 0.49575 0.0
H1025 H 0.05612 0.42457 0.51393 0.0
H1026 H 0.11422 0.40502 0.51891 0.0
H1027 H 0.1303 0.48505 0.55614 0.0
H1028 H 0.07263 0.50561 0.55103 0.0
H1029 H 0.86909 0.47731 0.56976 0.0
H1030 H 0.91011 0.46191 0.547 0.0
H1031 H 0.98155 0.5317 0.56949 0.0
H1032 H 0.94092 0.54678 0.59239 0.0
H1033 H 0.01229 0.47605 0.55626 0.0
H1034 H 0.92793 0.55643 0.5377 0.0
H1035 H 0.86977 0.57567 0.53259 0.0
H1036 H 0.85386 0.49458 0.49598 0.0
H1037 H 0.9116 0.47429 0.50125 0.0
C1038 C 0.09195 0.49516 0.48336 0.0
C1039 C 0.08579 0.46982 0.47084 0.0
C1040 C 0.06739 0.50331 0.49582 0.0
C1041 C 0.03655 0.48605 0.49591 0.0
C1042 C 0.02905 0.46353 0.48219 0.0
C1043 C 0.05361 0.45533 0.46973 0.0
C1044 C 0.01408 0.48809 0.51144 0.0
C1045 C 0.98065 0.49818 0.50896 0.0
C1046 C 0.02559 0.47958 0.52865 0.0
C1047 C 0.06016 0.46687 0.53194 0.0
C1048 C 0.07215 0.43818 0.52306 0.0
C1049 C 0.10504 0.42693 0.5259 0.0
C1050 C 0.12604 0.4439 0.53776 0.0
C1051 C 0.11413 0.47205 0.54687 0.0
C1052 C 0.08134 0.48352 0.54401 0.0
C1053 C 0.89394 0.48851 0.57018 0.0
C1054 C 0.9018 0.51354 0.58262 0.0
C1055 C 0.91722 0.47988 0.55712 0.0
C1056 C 0.94843 0.49637 0.55634 0.0
C1057 C 0.95745 0.51893 0.5698 0.0
C1058 C 0.93424 0.5275 0.58287 0.0
C1059 C 0.97027 0.493 0.54062 0.0
C1060 C 0.00359 0.48254 0.54305 0.0
C1061 C 0.95862 0.5011 0.52337 0.0
C1062 C 0.92398 0.51358 0.52005 0.0
C1063 C 0.91192 0.5425 0.52869 0.0
C1064 C 0.879 0.55358 0.52578 0.0
C1065 C 0.85804 0.53623 0.51406 0.0
C1066 C 0.87001 0.50785 0.50516 0.0
C1067 C 0.90283 0.49654 0.50812 0.0
H1068 H 0.83257 0.54482 0.5118 0.0
H1069 H 0.15149 0.4352 0.53994 0.0
H1070 H 0.61398 0.50567 0.07274 0.0
H1071 H 0.57621 0.52279 0.04874 0.0
H1072 H 0.50644 0.44441 0.06377 0.0
H1073 H 0.54432 0.42691 0.08758 0.0
H1074 H 0.52346 0.44068 1.02923 0.0
H1075 H 0.48739 0.52685 0.06979 0.0
H1076 H 0.49484 0.57461 0.09024 0.0
H1077 H 0.53859 0.63342 0.04833 0.0
H1078 H 0.53182 0.58582 1.02767 0.0
H1079 H 0.37722 0.48469 0.9809 0.0
H1080 H 0.42217 0.46848 1.00126 0.0
H1081 H 0.48375 0.55001 0.98161 0.0
H1082 H 0.43861 0.56659 0.96136 0.0
H1083 H 0.47564 0.55348 1.01671 0.0
H1084 H 0.50788 0.46885 0.97553 0.0
H1085 H 0.50037 0.42121 0.95501 0.0
H1086 H 0.4641 0.35956 0.99776 0.0
H1087 H 0.47094 0.40696 1.01851 0.0
C1088 C 0.59016 0.49273 0.07119 0.0
C1089 C 0.58203 0.46491 0.08187 0.0
C1090 C 0.56866 0.50248 0.05749 0.0
C1091 C 0.53869 0.48469 0.05445 0.0
C1092 C 0.52961 0.45826 0.06585 0.0
C1093 C 0.55111 0.44845 0.07949 0.0
C1094 C 0.51817 0.49165 0.03855 0.0
C1095 C 0.51261 0.46523 1.02657 0.0
C1096 C 0.50528 0.52401 0.03481 0.0
C1097 C 0.50944 0.55263 0.04724 0.0
C1098 C 0.49889 0.54985 0.06497 0.0
C1099 C 0.50293 0.57692 0.07659 0.0
C1100 C 0.51728 0.607 0.0706 0.0
C1101 C 0.52754 0.61009 0.05296 0.0
C1102 C 0.52358 0.58308 0.04129 0.0
C1103 C 0.40073 0.4985 0.98056 0.0
C1104 C 0.40446 0.527 0.96972 0.0
C1105 C 0.42642 0.48919 0.99215 0.0
C1106 C 0.45622 0.50813 0.99294 0.0
C1107 C 0.46087 0.53517 0.9812 0.0
C1108 C 0.43518 0.54449 0.96961 0.0
C1109 C 0.48037 0.50233 1.00751 0.0
C1110 C 0.48671 0.52898 1.01925 0.0
C1111 C 0.49399 0.47017 1.01102 0.0
C1112 C 0.48968 0.44159 0.99856 0.0
C1113 C 0.49802 0.44523 0.98054 0.0
C1114 C 0.49395 0.41824 0.96887 0.0
C1115 C 0.48171 0.3874 0.97507 0.0
C1116 C 0.47357 0.38347 0.99297 0.0
C1117 C 0.47758 0.41038 1.0047 0.0
H1118 H 0.47858 0.36654 0.96601 0.0
H1119 H 0.52037 0.62793 0.07962 0.0
H1120 H 0.22901 0.20095 0.16689 0.0
H1121 H 0.21253 0.25829 0.17443 0.0
H1122 H 0.19315 0.27929 0.11915 0.0
H1123 H 0.21173 0.22243 0.11153 0.0
H1124 H 0.22632 0.32747 0.13066 0.0
H1125 H 0.12849 0.27447 0.1518 0.0
H1126 H 0.09339 0.23289 0.16755 0.0
H1127 H 0.13478 0.26501 0.21731 0.0
H1128 H 0.17049 0.30654 0.20183 0.0
H1129 H 0.12977 0.46761 0.18439 0.0
H1130 H 0.1334 0.41144 0.17193 0.0
H1131 H 0.24101 0.4231 0.16658 0.0
H1132 H 0.23675 0.48096 0.17775 0.0
H1133 H 0.15735 0.35904 0.18272 0.0
H1134 H 0.27314 0.37286 0.13542 0.0
H1135 H 0.29803 0.41574 0.11566 0.0
H1136 H 0.2021 0.46444 0.11085 0.0
H1137 H 0.17653 0.42158 0.13035 0.0
C1138 C 0.22046 0.2176 0.15642 0.0
C1139 C 0.22155 0.20743 0.13866 0.0
C1140 C 0.21096 0.2504 0.16073 0.0
C1141 C 0.20136 0.27325 0.14738 0.0
C1142 C 0.20068 0.26232 0.12968 0.0
C1143 C 0.21098 0.22977 0.12535 0.0
C1144 C 0.1946 0.30908 0.15178 0.0
C1145 C 0.21098 0.33438 0.14196 0.0
C1146 C 0.17381 0.31836 0.16617 0.0
C1147 C 0.15238 0.29346 0.17562 0.0
C1148 C 0.1303 0.27252 0.16609 0.0
C1149 C 0.11026 0.24897 0.17498 0.0
C1150 C 0.11191 0.24625 0.19342 0.0
C1151 C 0.13354 0.26714 0.20302 0.0
C1152 C 0.15366 0.29073 0.1942 0.0
C1153 C 0.15412 0.45844 0.18024 0.0
C1154 C 0.18295 0.47863 0.18186 0.0
C1155 C 0.15624 0.42614 0.17325 0.0
C1156 C 0.18743 0.41283 0.16819 0.0
C1157 C 0.21647 0.43297 0.16996 0.0
C1158 C 0.21414 0.46591 0.17645 0.0
C1159 C 0.18941 0.3775 0.16175 0.0
C1160 C 0.17231 0.35225 0.17127 0.0
C1161 C 0.20787 0.36851 0.14643 0.0
C1162 C 0.22302 0.39416 0.1345 0.0
C1163 C 0.25733 0.39262 0.13008 0.0
C1164 C 0.27155 0.41694 0.11893 0.0
C1165 C 0.25168 0.44285 0.11205 0.0
C1166 C 0.21749 0.44443 0.11624 0.0
C1167 C 0.20313 0.42014 0.12735 0.0
H1168 H 0.26275 0.46167 0.10344 0.0
H1169 H 0.09638 0.22799 0.20027 0.0
H1170 H 0.49688 0.46321 0.36751 0.0
H1171 H 0.4461 0.44861 0.38398 0.0
H1172 H 0.50536 0.43093 0.43094 0.0
H1173 H 0.55663 0.44603 0.41448 0.0
H1174 H 0.44159 0.38367 0.42144 0.0
H1175 H 0.47944 0.4975 0.43435 0.0
H1176 H 0.50271 0.55245 0.42519 0.0
H1177 H 0.41828 0.56812 0.39064 0.0
H1178 H 0.39484 0.51294 0.39936 0.0
H1179 H 0.27943 0.46311 0.46532 0.0
H1180 H 0.34049 0.46493 0.45983 0.0
H1181 H 0.32738 0.40024 0.41446 0.0
H1182 H 0.26717 0.39807 0.41995 0.0
H1183 H 0.37473 0.48763 0.43098 0.0
H1184 H 0.39159 0.34836 0.40956 0.0
H1185 H 0.36637 0.29312 0.41655 0.0
H1186 H 0.34007 0.328 0.46854 0.0
H1187 H 0.36556 0.38326 0.46198 0.0
C1188 C 0.4993 0.45531 0.3812 0.0
C1189 C 0.53062 0.45611 0.3898 0.0
C1190 C 0.47026 0.44696 0.39058 0.0
C1191 C 0.47207 0.43903 0.40866 0.0
C1192 C 0.5036 0.43695 0.41696 0.0
C1193 C 0.53279 0.44559 0.40757 0.0
C1194 C 0.44062 0.43764 0.41906 0.0
C1195 C 0.42707 0.40631 0.42382 0.0
C1196 C 0.42206 0.46735 0.42227 0.0
C1197 C 0.43552 0.501 0.41743 0.0
C1198 C 0.46596 0.51257 0.42472 0.0
C1199 C 0.47917 0.54376 0.41961 0.0
C1200 C 0.46202 0.56374 0.40731 0.0
C1201 C 0.43155 0.55261 0.40016 0.0
C1202 C 0.41827 0.5214 0.4052 0.0
C1203 C 0.28976 0.44932 0.45422 0.0
C1204 C 0.2687 0.43041 0.44308 0.0
C1205 C 0.32452 0.45028 0.45112 0.0
C1206 C 0.33853 0.43216 0.43695 0.0
C1207 C 0.3173 0.41371 0.42574 0.0
C1208 C 0.28282 0.41269 0.42883 0.0
C1209 C 0.37507 0.43352 0.43308 0.0
C1210 C 0.38952 0.46493 0.42929 0.0
C1211 C 0.39441 0.40384 0.43086 0.0
C1212 C 0.38049 0.37005 0.43525 0.0
C1213 C 0.38079 0.34415 0.42256 0.0
C1214 C 0.36634 0.31284 0.42643 0.0
C1215 C 0.35164 0.30705 0.44297 0.0
C1216 C 0.35146 0.33251 0.45572 0.0
C1217 C 0.3659 0.36384 0.45193 0.0
H1218 H 0.34039 0.28284 0.44591 0.0
H1219 H 0.47232 0.58785 0.40334 0.0
H1220 H 0.21016 0.74506 0.61475 0.0
H1221 H 0.22746 0.68901 0.62428 0.0
H1222 H 0.29423 0.73297 0.66296 0.0
H1223 H 0.27661 0.78961 0.65353 0.0
H1224 H 0.32164 0.67671 0.6446 0.0
H1225 H 0.22235 0.70789 0.67593 0.0
H1226 H 0.16403 0.72708 0.68017 0.0
H1227 H 0.12748 0.64082 0.65185 0.0
H1228 H 0.18561 0.62191 0.64671 0.0
H1229 H 0.34109 0.53094 0.69786 0.0
H1230 H 0.33057 0.58724 0.68632 0.0
H1231 H 0.25212 0.54777 0.65264 0.0
H1232 H 0.26199 0.49111 0.66467 0.0
H1233 H 0.23187 0.60268 0.66864 0.0
H1234 H 0.33206 0.57198 0.63688 0.0
H1235 H 0.39071 0.55324 0.63302 0.0
H1236 H 0.42568 0.6376 0.66339 0.0
H1237 H 0.36724 0.65657 0.6677 0.0
C1238 C 0.22886 0.74287 0.62514 0.0
C1239 C 0.24194 0.77161 0.6335 0.0
C1240 C 0.23862 0.71082 0.63059 0.0
C1241 C 0.26172 0.70691 0.64447 0.0
C1242 C 0.27622 0.73557 0.65226 0.0
C1243 C 0.26617 0.76781 0.6469 0.0
C1244 C 0.26922 0.67281 0.65132 0.0
C1245 C 0.30216 0.66058 0.65006 0.0
C1246 C 0.24352 0.65171 0.6581 0.0
C1247 C 0.20848 0.66372 0.6607 0.0
C1248 C 0.20194 0.69334 0.67029 0.0
C1249 C 0.16887 0.70418 0.67287 0.0
C1250 C 0.14206 0.68531 0.66619 0.0
C1251 C 0.14827 0.65558 0.6569 0.0
C1252 C 0.18129 0.64487 0.65408 0.0
C1253 C 0.32159 0.53422 0.68798 0.0
C1254 C 0.30221 0.50675 0.68218 0.0
C1255 C 0.31582 0.5664 0.68128 0.0
C1256 C 0.29099 0.57168 0.66837 0.0
C1257 C 0.27154 0.54422 0.66254 0.0
C1258 C 0.2771 0.51194 0.66941 0.0
C1259 C 0.28425 0.60615 0.66166 0.0
C1260 C 0.25138 0.61862 0.66305 0.0
C1261 C 0.31006 0.62741 0.65504 0.0
C1262 C 0.3452 0.61559 0.65271 0.0
C1263 C 0.35222 0.58636 0.64289 0.0
C1264 C 0.38545 0.57573 0.64059 0.0
C1265 C 0.41189 0.59427 0.64793 0.0
C1266 C 0.40517 0.62331 0.65769 0.0
C1267 C 0.372 0.63402 0.66006 0.0
H1268 H 0.43762 0.58629 0.64599 0.0
H1269 H 0.11646 0.69366 0.66826 0.0
H1270 H 0.98292 0.44897 0.89427 0.0
H1271 H 0.03368 0.46937 0.90851 0.0
H1272 H -0.00066 0.5718 0.90245 0.0
H1273 H 0.94821 0.55121 0.88738 0.0
H1274 H 0.06652 0.56372 0.89411 0.0
H1275 H -0.0056 0.53308 0.94236 0.0
H1276 H 0.95513 0.49514 0.95788 0.0
H1277 H 0.03273 0.42055 0.96268 0.0
H1278 H 0.07224 0.45769 0.94677 0.0
H1279 H 0.20984 0.60889 0.94202 0.0
H1280 H 0.15003 0.60356 0.93571 0.0
H1281 H 0.15777 0.49558 0.94114 0.0
H1282 H 0.21767 0.50135 0.94862 0.0
H1283 H 0.09891 0.5158 0.95252 0.0
H1284 H 0.16586 0.53804 0.90015 0.0
H1285 H 0.20666 0.57114 0.88265 0.0
H1286 H 0.14059 0.65653 0.88401 0.0
H1287 H 0.09969 0.6241 0.9018 0.0
C1288 C 0.98604 0.47588 0.89595 0.0
C1289 C 0.96153 0.49859 0.88993 0.0
C1290 C 0.01503 0.48748 0.90418 0.0
C1291 C 0.01985 0.522 0.90694 0.0
C1292 C -0.00419 0.54499 0.90059 0.0
C1293 C 0.96671 0.5333 0.89207 0.0
C1294 C 0.05055 0.53338 0.91625 0.0
C1295 C 0.0733 0.55399 0.90708 0.0
C1296 C 0.0596 0.51993 0.93299 0.0
C1297 C 0.03629 0.4982 0.94333 0.0
C1298 C 0.00309 0.50857 0.9467 0.0
C1299 C 0.98076 0.48715 0.95555 0.0
C1300 C 0.99145 0.45543 0.96128 0.0
C1301 C 0.02451 0.44514 0.95825 0.0
C1302 C 0.04689 0.46638 0.94933 0.0
C1303 C 0.19865 0.58412 0.94212 0.0
C1304 C 0.21825 0.55547 0.94544 0.0
C1305 C 0.1645 0.58107 0.9385 0.0
C1306 C 0.14969 0.54912 0.93736 0.0
C1307 C 0.1688 0.5205 0.94179 0.0
C1308 C 0.20292 0.52372 0.946 0.0
C1309 C 0.11524 0.54533 0.93016 0.0
C1310 C 0.09183 0.5262 0.93975 0.0
C1311 C 0.10579 0.55964 0.91365 0.0
C1312 C 0.12987 0.57876 0.90244 0.0
C1313 C 0.1601 0.56391 0.89676 0.0
C1314 C 0.18326 0.58256 0.88682 0.0
C1315 C 0.17627 0.61595 0.88227 0.0
C1316 C 0.14601 0.63069 0.88757 0.0
C1317 C 0.12283 0.61219 0.89759 0.0
H1318 H 0.19426 0.63038 0.87462 0.0
H1319 H 0.97419 0.43874 0.96805 0.0
H1320 H 0.84568 0.53047 0.8639 0.0
H1321 H 0.84371 0.58617 0.87731 0.0
H1322 H 0.75319 0.55859 0.90539 0.0
H1323 H 0.75513 0.50229 0.89192 0.0
H1324 H 0.74762 0.61945 0.88955 0.0
H1325 H 0.82472 0.56469 0.92742 0.0
H1326 H 0.87376 0.53016 0.93565 0.0
H1327 H 0.93994 0.60358 0.91251 0.0
H1328 H 0.89123 0.63821 0.90374 0.0
H1329 H 0.78893 0.76264 0.95211 0.0
H1330 H 0.80344 0.70552 0.94296 0.0
H1331 H 0.78788 0.73334 0.88826 0.0
H1332 H 0.77255 0.79038 0.89739 0.0
H1333 H 0.84488 0.66994 0.9212 0.0
H1334 H 0.73681 0.67556 0.8699 0.0
H1335 H 0.68568 0.70914 0.86434 0.0
H1336 H 0.67706 0.72989 0.91999 0.0
H1337 H 0.72766 0.69586 0.92591 0.0
C1338 C 0.82544 0.53616 0.87302 0.0
C1339 C 0.80053 0.51215 0.87692 0.0
C1340 C 0.82445 0.56795 0.88072 0.0
C1341 C 0.79856 0.57634 0.8925 0.0
C1342 C 0.77346 0.55248 0.89637 0.0
C1343 C 0.77453 0.52045 0.88868 0.0
C1344 C 0.79721 0.61063 0.90007 0.0
C1345 C 0.76883 0.6304 0.89652 0.0
C1346 C 0.8247 0.62467 0.90947 0.0
C1347 C 0.85421 0.60399 0.91478 0.0
C1348 C 0.84969 0.57336 0.92392 0.0
C1349 C 0.87745 0.55376 0.9287 0.0
C1350 C 0.90995 0.56466 0.92459 0.0
C1351 C 0.91474 0.59518 0.91569 0.0
C1352 C 0.88705 0.6148 0.9108 0.0
C1353 C 0.78966 0.75688 0.93809 0.0
C1354 C 0.77902 0.78066 0.92545 0.0
C1355 C 0.79802 0.72423 0.93288 0.0
C1356 C 0.79589 0.71503 0.91499 0.0
C1357 C 0.78906 0.73985 0.90218 0.0
C1358 C 0.78047 0.77245 0.90739 0.0
C1359 C 0.79584 0.67895 0.91005 0.0
C1360 C 0.82377 0.65887 0.9142 0.0
C1361 C 0.76757 0.66423 0.90164 0.0
C1362 C 0.73622 0.68347 0.8983 0.0
C1363 C 0.72383 0.68708 0.88096 0.0
C1364 C 0.69496 0.70621 0.87774 0.0
C1365 C 0.67822 0.72176 0.89179 0.0
C1366 C 0.69011 0.71793 0.90911 0.0
C1367 C 0.71885 0.69869 0.9124 0.0
H1368 H 0.656 0.73672 0.88925 0.0
H1369 H 0.93142 0.54947 0.92832 0.0
H1370 H 0.43974 0.50516 0.6386 0.0
H1371 H 0.4924 0.52065 0.62385 0.0
H1372 H 0.53273 0.55517 0.6737 0.0
H1373 H 0.48011 0.53969 0.68852 0.0
H1374 H 0.55276 0.59506 0.64499 0.0
H1375 H 0.54772 0.47758 0.66165 0.0
H1376 H 0.52234 0.42088 0.66202 0.0
H1377 H 0.53025 0.41569 0.60532 0.0
H1378 H 0.55522 0.47264 0.60461 0.0
H1379 H 0.72701 0.57588 0.6407 0.0
H1380 H 0.66723 0.5733 0.64736 0.0
H1381 H 0.64846 0.52692 0.5966 0.0
H1382 H 0.70912 0.5284 0.59012 0.0
H1383 H 0.61388 0.49608 0.62125 0.0
H1384 H 0.62676 0.61266 0.60562 0.0
H1385 H 0.65068 0.67005 0.60634 0.0
H1386 H 0.62936 0.67675 0.662 0.0
H1387 H 0.60529 0.61959 0.66162 0.0
C1388 C 0.45952 0.51688 0.64632 0.0
C1389 C 0.45605 0.52106 0.66471 0.0
C1390 C 0.4896 0.52557 0.63789 0.0
C1391 C 0.5166 0.53854 0.64775 0.0
C1392 C 0.5122 0.54512 0.66587 0.0
C1393 C 0.48219 0.53625 0.67433 0.0
C1394 C 0.55043 0.54195 0.63971 0.0
C1395 C 0.56623 0.57349 0.6398 0.0
C1396 C 0.56762 0.51384 0.63264 0.0
C1397 C 0.55293 0.4795 0.63306 0.0
C1398 C 0.54379 0.46445 0.64925 0.0
C1399 C 0.52952 0.43227 0.64952 0.0
C1400 C 0.52458 0.41474 0.6337 0.0
C1401 C 0.53402 0.42933 0.61757 0.0
C1402 C 0.54823 0.46156 0.61722 0.0
C1403 C 0.71017 0.56511 0.63094 0.0
C1404 C 0.72261 0.55229 0.6149 0.0
C1405 C 0.6759 0.56399 0.63468 0.0
C1406 C 0.65311 0.55075 0.6223 0.0
C1407 C 0.66553 0.53754 0.6063 0.0
C1408 C 0.7001 0.53826 0.60262 0.0
C1409 C 0.61668 0.54927 0.62667 0.0
C1410 C 0.60032 0.51795 0.62599 0.0
C1411 C 0.59907 0.57762 0.63329 0.0
C1412 C 0.61417 0.61183 0.63358 0.0
C1413 C 0.6273 0.62634 0.61802 0.0
C1414 C 0.64077 0.65889 0.61836 0.0
C1415 C 0.64119 0.67716 0.63416 0.0
C1416 C 0.62864 0.66277 0.64972 0.0
C1417 C 0.615 0.63034 0.64944 0.0
H1418 H 0.6511 0.70253 0.63437 0.0
H1419 H 0.51354 0.38982 0.63393 0.0
H1420 H 0.69403 0.18805 0.41101 0.0
H1421 H 0.67379 0.24307 0.40071 0.0
H1422 H 0.72798 0.2915 0.44324 0.0
H1423 H 0.74647 0.23689 0.45403 0.0
H1424 H 0.67602 0.32682 0.43675 0.0
H1425 H 0.76318 0.27747 0.40091 0.0
H1426 H 0.78898 0.23397 0.38202 0.0
H1427 H 0.7089 0.24482 0.34423 0.0
H1428 H 0.68238 0.28809 0.36303 0.0
H1429 H 0.72178 0.4833 0.39545 0.0
H1430 H 0.72524 0.42655 0.4085 0.0
H1431 H 0.65182 0.39079 0.37082 0.0
H1432 H 0.64817 0.44699 0.35789 0.0
H1433 H 0.70864 0.34916 0.37434 0.0
H1434 H 0.62748 0.40738 0.41099 0.0
H1435 H 0.60948 0.45395 0.43035 0.0
H1436 H 0.68731 0.42926 0.46757 0.0
H1437 H 0.70639 0.38302 0.44827 0.0
C1438 C 0.70072 0.21043 0.4184 0.0
C1439 C 0.72224 0.20841 0.4331 0.0
C1440 C 0.68938 0.24184 0.41246 0.0
C1441 C 0.70026 0.27152 0.42088 0.0
C1442 C 0.71941 0.26907 0.43644 0.0
C1443 C 0.73014 0.23779 0.44254 0.0
C1444 C 0.6952 0.30508 0.41262 0.0
C1445 C 0.68321 0.33168 0.42312 0.0
C1446 C 0.70466 0.31157 0.39482 0.0
C1447 C 0.7206 0.28567 0.38347 0.0
C1448 C 0.75097 0.2704 0.38862 0.0
C1449 C 0.76572 0.24581 0.37793 0.0
C1450 C 0.75053 0.23656 0.36196 0.0
C1451 C 0.72059 0.25195 0.35662 0.0
C1452 C 0.70568 0.2765 0.36729 0.0
C1453 C 0.70667 0.46318 0.38992 0.0
C1454 C 0.68478 0.46935 0.3757 0.0
C1455 C 0.70848 0.43097 0.39741 0.0
C1456 C 0.68856 0.4047 0.39065 0.0
C1457 C 0.6673 0.41078 0.37621 0.0
C1458 C 0.66525 0.44288 0.36887 0.0
C1459 C 0.68975 0.37067 0.39851 0.0
C1460 C 0.70105 0.3441 0.38791 0.0
C1461 C 0.68056 0.36449 0.41632 0.0
C1462 C 0.66853 0.39184 0.42811 0.0
C1463 C 0.64092 0.41199 0.42324 0.0
C1464 C 0.6305 0.43831 0.43421 0.0
C1465 C 0.6472 0.44451 0.45017 0.0
C1466 C 0.67439 0.42441 0.4552 0.0
C1467 C 0.68502 0.39814 0.44426 0.0
H1468 H 0.63901 0.46482 0.45866 0.0
H1469 H 0.76199 0.21752 0.3537 0.0
H1470 H 0.73997 0.46708 0.14817 0.0
H1471 H 0.7977 0.47324 0.15936 0.0
H1472 H 0.83548 0.42405 0.11242 0.0
H1473 H 0.77814 0.41658 0.10175 0.0
H1474 H 0.86512 0.39868 0.13892 0.0
H1475 H 0.8419 0.51173 0.12047 0.0
H1476 H 0.81178 0.56588 0.1191 0.0
H1477 H 0.82818 0.58052 0.17481 0.0
H1478 H 0.85791 0.52615 0.17658 0.0
H1479 H 0.03651 0.46887 0.14628 0.0
H1480 H 0.97948 0.45433 0.13618 0.0
H1481 H 0.94392 0.45836 0.1901 0.0
H1482 H 0.00065 0.4718 0.20032 0.0
H1483 H 0.91405 0.50561 0.16091 0.0
H1484 H 0.93878 0.39047 0.17782 0.0
H1485 H 0.97124 0.33766 0.17716 0.0
H1486 H 0.95471 0.32963 0.12108 0.0
H1487 H 0.92263 0.38277 0.12136 0.0
C1488 C 0.76076 0.45804 0.14023 0.0
C1489 C 0.75482 0.44147 0.12414 0.0
C1490 C 0.79368 0.46156 0.14658 0.0
C1491 C 0.82104 0.44929 0.13667 0.0
C1492 C 0.81489 0.43352 0.12037 0.0
C1493 C 0.78212 0.42942 0.11424 0.0
C1494 C 0.85606 0.45159 0.14341 0.0
C1495 C 0.87584 0.42223 0.14352 0.0
C1496 C 0.87006 0.48213 0.14968 0.0
C1497 C 0.85175 0.51462 0.1487 0.0
C1498 C 0.83876 0.5263 0.13247 0.0
C1499 C 0.82181 0.55708 0.13161 0.0
C1500 C 0.81795 0.57657 0.14687 0.0
C1501 C 0.83109 0.56535 0.16301 0.0
C1502 C 0.84799 0.53455 0.16395 0.0
C1503 C 0.0167 0.4656 0.15599 0.0
C1504 C 0.02285 0.47158 0.17404 0.0
C1505 C 0.98424 0.45741 0.15022 0.0
C1506 C 0.95771 0.4555 0.16245 0.0
C1507 C 0.9642 0.45973 0.18054 0.0
C1508 C -0.00338 0.4673 0.18632 0.0
C1509 C 0.92265 0.45291 0.15626 0.0
C1510 C 0.90304 0.48221 0.15628 0.0
C1511 C 0.90904 0.42255 0.14979 0.0
C1512 C 0.92872 0.39087 0.14958 0.0
C1513 C 0.94247 0.37772 0.16531 0.0
C1514 C 0.9607 0.34765 0.16501 0.0
C1515 C 0.96514 0.33036 0.14907 0.0
C1516 C 0.95132 0.34309 0.1334 0.0
C1517 C 0.93312 0.37318 0.13363 0.0
H1518 H 0.97919 0.30704 0.14888 0.0
H1519 H 0.80487 0.60041 0.14617 0.0
H1520 H 0.72911 0.70132 0.65741 0.0
H1521 H 0.71117 0.75765 0.6658 0.0
H1522 H 0.69451 0.78242 0.61069 0.0
H1523 H 0.71474 0.7265 0.60223 0.0
H1524 H 0.72555 0.83056 0.62377 0.0
H1525 H 0.62713 0.77511 0.64208 0.0
H1526 H 0.59066 0.7324 0.65603 0.0
H1527 H 0.63073 0.75746 0.70719 0.0
H1528 H 0.66748 0.80039 0.69355 0.0
H1529 H 0.62684 0.9608 0.68337 0.0
H1530 H 0.63093 0.90762 0.66795 0.0
H1531 H 0.73825 0.92217 0.66249 0.0
H1532 H 0.73309 0.97799 0.67611 0.0
H1533 H 0.6549 0.85509 0.67626 0.0
H1534 H 0.77167 0.87532 0.63023 0.0
H1535 H 0.79703 0.92085 0.61238 0.0
H1536 H 0.70123 0.97021 0.60888 0.0
H1537 H 0.67519 0.92474 0.62646 0.0
C1538 C 0.72096 0.71859 0.64714 0.0
C1539 C 0.72326 0.70982 0.62921 0.0
C1540 C 0.71053 0.75078 0.65193 0.0
C1541 C 0.70114 0.77433 0.63889 0.0
C1542 C 0.7018 0.76482 0.62098 0.0
C1543 C 0.71309 0.73287 0.61616 0.0
C1544 C 0.69334 0.80951 0.64399 0.0
C1545 C 0.70973 0.83602 0.63511 0.0
C1546 C 0.67195 0.81686 0.65842 0.0
C1547 C 0.65022 0.79083 0.66676 0.0
C1548 C 0.62831 0.7714 0.65629 0.0
C1549 C 0.60751 0.74723 0.66415 0.0
C1550 C 0.60845 0.74215 0.68248 0.0
C1551 C 0.63005 0.7614 0.693 0.0
C1552 C 0.65078 0.78576 0.68521 0.0
C1553 C 0.65113 0.95312 0.67841 0.0
C1554 C 0.67953 0.97363 0.68063 0.0
C1555 C 0.65358 0.92242 0.66978 0.0
C1556 C 0.68487 0.91066 0.6639 0.0
C1557 C 0.7136 0.93096 0.6664 0.0
C1558 C 0.7108 0.96265 0.67436 0.0
C1559 C 0.68727 0.8764 0.65615 0.0
C1560 C 0.67013 0.84993 0.66466 0.0
C1561 C 0.70618 0.86952 0.64068 0.0
C1562 C 0.72155 0.89671 0.62981 0.0
C1563 C 0.75597 0.89578 0.62557 0.0
C1564 C 0.77048 0.92161 0.61551 0.0
C1565 C 0.75078 0.94845 0.60954 0.0
C1566 C 0.71649 0.94947 0.61356 0.0
C1567 C 0.70185 0.92367 0.62358 0.0
H1568 H 0.76209 0.9684 0.60176 0.0
H1569 H 0.59241 0.72332 0.68852 0.0
H1570 H 0.77568 0.9012 0.9476 0.0
H1571 H 0.83084 0.9143 0.93546 0.0
H1572 H 0.78732 0.99284 0.90321 0.0
H1573 H 0.73133 0.97956 0.91537 0.0
H1574 H 0.83384 0.95092 0.88507 0.0
H1575 H 0.82846 0.0149 0.93911 0.0
H1576 H 0.81823 0.02282 0.97108 0.0
H1577 H 0.89505 0.95055 0.9833 0.0
H1578 H 0.90541 0.9418 0.95141 0.0
H1579 H 0.98895 0.02885 0.86326 0.0
H1580 H 0.93209 0.01324 0.87202 0.0
H1581 H 0.97228 0.94689 0.91217 0.0
H1582 H 0.02956 0.96377 0.90388 0.0
H1583 H 0.92607 0.98374 0.9259 0.0
H1584 H 0.93188 0.91808 0.87298 0.0
H1585 H 0.94186 0.90671 0.8413 0.0
H1586 H 0.86493 0.97756 0.82707 0.0
H1587 H 0.85478 0.98972 0.85866 0.0
C1588 C 0.77775 0.92137 0.93797 0.0
C1589 C 0.74934 0.9397 0.93257 0.0
C1590 C 0.80932 0.92881 0.93106 0.0
C1591 C 0.81317 0.9548 0.91865 0.0
C1592 C 0.78477 0.9728 0.91289 0.0
C1593 C 0.75297 0.96538 0.91989 0.0
C1594 C 0.84715 0.96301 0.91196 0.0
C1595 C 0.85397 0.95867 0.89389 0.0
C1596 C 0.87348 0.97197 0.92365 0.0
C1597 C 0.86755 0.97754 0.94286 0.0
C1598 C 0.84302 0.00053 0.94861 0.0
C1599 C 0.83722 0.00519 0.96672 0.0
C1600 C 0.85595 0.98716 0.97919 0.0
C1601 C 0.88057 0.96449 0.97361 0.0
C1602 C 0.88644 0.9597 0.95552 0.0
C1603 C 0.98569 0.01053 0.87378 0.0
C1604 C 0.01356 -0.0025 0.88294 0.0
C1605 C 0.95312 0.00146 0.87871 0.0
C1606 C 0.94781 0.97858 0.89263 0.0
C1607 C 0.97577 0.9646 0.90139 0.0
C1608 C 0.00843 0.9741 0.89662 0.0
C1609 C 0.91316 0.97139 0.89892 0.0
C1610 C 0.9061 0.97602 0.91698 0.0
C1611 C 0.88675 0.96231 0.88722 0.0
C1612 C 0.8928 0.95505 0.8682 0.0
C1613 C 0.91728 0.93145 0.86309 0.0
C1614 C 0.92293 0.92482 0.84515 0.0
C1615 C 0.90411 0.94147 0.83218 0.0
C1616 C 0.87952 0.96472 0.83713 0.0
C1617 C 0.87379 0.97146 0.85505 0.0
H1618 H 0.90852 0.9363 0.81829 0.0
H1619 H 0.85147 0.99082 0.99319 0.0
H1620 H 0.85245 0.03407 0.19725 0.0
H1621 H 0.84751 0.09181 0.18717 0.0
H1622 H 0.75109 0.06905 0.16371 0.0
H1623 H 0.75572 0.01044 0.17421 0.0
H1624 H 0.84456 0.11809 0.15561 0.0
H1625 H 0.70211 0.14018 0.16697 0.0
H1626 H 0.65679 0.11997 0.18667 0.0
H1627 H 0.72959 0.09512 0.22667 0.0
H1628 H 0.77524 0.11558 0.20732 0.0
H1629 H 0.77984 0.26076 0.11036 0.0
H1630 H 0.79638 0.20653 0.12289 0.0
H1631 H 0.78338 0.2461 0.17567 0.0
H1632 H 0.76654 0.3005 0.16314 0.0
H1633 H 0.74729 0.19025 0.17112 0.0
H1634 H 0.86019 0.22339 0.16156 0.0
H1635 H 0.91005 0.24514 0.14583 0.0
H1636 H 0.90373 0.16375 0.10862 0.0
H1637 H 0.85345 0.1418 0.12393 0.0
C1638 C 0.83005 0.04121 0.19001 0.0
C1639 C 0.80429 0.01782 0.18661 0.0
C1640 C 0.8274 0.07427 0.18416 0.0
C1641 C 0.79895 0.08478 0.17475 0.0
C1642 C 0.77314 0.06146 0.17114 0.0
C1643 C 0.77577 0.02809 0.17708 0.0
C1644 C 0.79668 0.12031 0.16894 0.0
C1645 C 0.82323 0.13387 0.15891 0.0
C1646 C 0.76942 0.14112 0.1738 0.0
C1647 C 0.74209 0.12905 0.1856 0.0
C1648 C 0.70841 0.13048 0.17999 0.0
C1649 C 0.68267 0.11898 0.1911 0.0
C1650 C 0.69031 0.10615 0.20789 0.0
C1651 C 0.7237 0.10492 0.21364 0.0
C1652 C 0.74952 0.11642 0.20259 0.0
C1653 C 0.78147 0.25817 0.12464 0.0
C1654 C 0.77172 0.28462 0.13581 0.0
C1655 C 0.79095 0.2272 0.13178 0.0
C1656 C 0.79091 0.22226 0.1502 0.0
C1657 C 0.7834 0.2494 0.16141 0.0
C1658 C 0.77402 0.28048 0.15426 0.0
C1659 C 0.79496 0.18794 0.15754 0.0
C1660 C 0.76866 0.17452 0.1678 0.0
C1661 C 0.82299 0.16759 0.15336 0.0
C1662 C 0.85278 0.18113 0.14381 0.0
C1663 C 0.86915 0.21034 0.14989 0.0
C1664 C 0.89756 0.22266 0.14108 0.0
C1665 C 0.91 0.20588 0.12621 0.0
C1666 C 0.89404 0.17675 0.12012 0.0
C1667 C 0.86558 0.16435 0.12887 0.0
H1668 H 0.93206 0.21539 0.11944 0.0
H1669 H 0.67036 0.09724 0.21646 0.0
H1670 H 0.72456 0.07815 0.42264 0.0
H1671 H 0.66388 0.07512 0.41905 0.0
H1672 H 0.6563 0.01483 0.46655 0.0
H1673 H 0.71786 0.01752 0.47013 0.0
H1674 H 0.61819 0.9894 0.44031 0.0
H1675 H 0.63002 0.09548 0.46719 0.0
H1676 H 0.6543 0.15163 0.4726 0.0
H1677 H 0.62362 0.18383 0.4207 0.0
H1678 H 0.5997 0.12763 0.4148 0.0
H1679 H 0.44171 0.00034 0.42817 0.0
H1680 H 0.49416 0.01546 0.44322 0.0
H1681 H 0.53384 0.05458 0.39414 0.0
H1682 H 0.4817 0.03874 0.37888 0.0
H1683 H 0.55143 0.09238 0.42789 0.0
H1684 H 0.5513 0.98045 0.40045 0.0
H1685 H 0.52708 0.92391 0.39593 0.0
H1686 H 0.53516 0.9036 0.45171 0.0
H1687 H 0.55893 0.96031 0.45658 0.0
C1688 C 0.71004 0.06428 0.43237 0.0
C1689 C 0.72585 0.04805 0.44666 0.0
C1690 C 0.67529 0.06278 0.43037 0.0
C1691 C 0.65545 0.04533 0.44273 0.0
C1692 C 0.67116 0.02865 0.45695 0.0
C1693 C 0.70621 0.03009 0.45895 0.0
C1694 C 0.61852 0.04365 0.44004 0.0
C1695 C 0.60342 0.01195 0.43807 0.0
C1696 C 0.59921 0.0731 0.43701 0.0
C1697 C 0.61312 0.10722 0.44053 0.0
C1698 C 0.62859 0.11445 0.45687 0.0
C1699 C 0.64231 0.1463 0.46003 0.0
C1700 C 0.64047 0.17129 0.44701 0.0
C1701 C 0.62495 0.16446 0.43079 0.0
C1702 C 0.61127 0.1326 0.42753 0.0
C1703 C 0.46123 0.01306 0.4207 0.0
C1704 C 0.45785 0.01815 0.40234 0.0
C1705 C 0.49115 0.02164 0.42931 0.0
C1706 C 0.51784 0.0359 0.41974 0.0
C1707 C 0.51342 0.04368 0.40174 0.0
C1708 C 0.4837 0.03458 0.39304 0.0
C1709 C 0.55175 0.03824 0.42773 0.0
C1710 C 0.56614 0.06999 0.43062 0.0
C1711 C 0.57033 0.0089 0.43186 0.0
C1712 C 0.55645 0.97472 0.42891 0.0
C1713 C 0.54761 0.96403 0.41177 0.0
C1714 C 0.53402 0.93195 0.40914 0.0
C1715 C 0.52947 0.91021 0.42354 0.0
C1716 C 0.53862 0.92049 0.44058 0.0
C1717 C 0.55214 0.95259 0.44328 0.0
H1718 H 0.51896 0.88538 0.42148 0.0
H1719 H 0.65104 0.19596 0.4495 0.0
H1720 H 0.24167 0.24282 0.45405 0.0
H1721 H 0.25884 0.18702 0.44465 0.0
H1722 H 0.30881 0.23007 0.3991 0.0
H1723 H 0.29036 0.28642 0.40825 0.0
H1724 H 0.26872 0.18193 0.38909 0.0
H1725 H 0.35255 0.19053 0.4336 0.0
H1726 H 0.37626 0.20232 0.46313 0.0
H1727 H 0.3148 0.12443 0.48584 0.0
H1728 H 0.29026 0.11252 0.45649 0.0
H1729 H 0.33892 0.02645 0.36308 0.0
H1730 H 0.33119 0.08325 0.37437 0.0
H1731 H 0.2632 0.04543 0.41431 0.0
H1732 H 0.27091 0.98781 0.40292 0.0
H1733 H 0.3153 0.09074 0.42683 0.0
H1734 H 0.23035 0.08509 0.38122 0.0
H1735 H 0.20921 0.07386 0.35107 0.0
H1736 H 0.27769 0.14719 0.32979 0.0
H1737 H 0.2996 0.15854 0.3598 0.0
C1738 C 0.25694 0.24053 0.44223 0.0
C1739 C 0.26445 0.2688 0.43175 0.0
C1740 C 0.26695 0.20856 0.43692 0.0
C1741 C 0.28527 0.20428 0.42121 0.0
C1742 C 0.2946 0.2328 0.41126 0.0
C1743 C 0.28424 0.26493 0.41651 0.0
C1744 C 0.29119 0.16986 0.41434 0.0
C1745 C 0.27957 0.1622 0.39724 0.0
C1746 C 0.30452 0.14386 0.42513 0.0
C1747 C 0.31938 0.15078 0.44283 0.0
C1748 C 0.34389 0.17606 0.4449 0.0
C1749 C 0.35751 0.18275 0.46161 0.0
C1750 C 0.34701 0.16417 0.47636 0.0
C1751 C 0.32291 0.13881 0.47441 0.0
C1752 C 0.30916 0.13205 0.45773 0.0
C1753 C 0.32215 0.03016 0.37421 0.0
C1754 C 0.30534 0.00287 0.38212 0.0
C1755 C 0.31774 0.06264 0.38061 0.0
C1756 C 0.29652 0.06846 0.39507 0.0
C1757 C 0.27963 0.04128 0.40308 0.0
C1758 C 0.28381 0.00858 0.39652 0.0
C1759 C 0.29259 0.1031 0.40176 0.0
C1760 C 0.30462 0.11069 0.41876 0.0
C1761 C 0.28009 0.12916 0.39081 0.0
C1762 C 0.2668 0.12247 0.37275 0.0
C1763 C 0.2411 0.09863 0.3701 0.0
C1764 C 0.22894 0.09228 0.35304 0.0
C1765 C 0.24213 0.10977 0.33853 0.0
C1766 C 0.2675 0.13366 0.34105 0.0
C1767 C 0.27977 0.14009 0.35808 0.0
H1768 H 0.2326 0.10493 0.32534 0.0
H1769 H 0.35758 0.16939 0.48929 0.0
H1770 H 0.97906 0.04181 0.18806 0.0
H1771 H 0.02986 0.0596 0.17232 0.0
H1772 H 0.98455 0.03117 0.12259 0.0
H1773 H 0.93328 0.01392 0.13828 0.0
H1774 H 0.04558 -0.00176 0.13048 0.0
H1775 H 0.00332 0.10981 0.12729 0.0
H1776 H 0.9773 0.16209 0.13821 0.0
H1777 H 0.05964 0.17659 0.17426 0.0
H1778 H 0.08594 0.12415 0.16375 0.0
H1779 H 0.20941 0.02976 0.09462 0.0
H1780 H 0.14798 0.03096 0.09818 0.0
H1781 H 0.16 0.07522 0.15003 0.0
H1782 H 0.22083 0.0751 0.14624 0.0
H1783 H 0.1104 0.10477 0.134 0.0
H1784 H 0.14437 0.98868 0.14314 0.0
H1785 H 0.17032 0.93471 0.13464 0.0
H1786 H 0.10353 0.92739 0.09005 0.0
H1787 H 0.07744 0.98155 0.0982 0.0
C1788 C 0.97956 0.04038 0.17372 0.0
C1789 C 0.95243 0.02641 0.16437 0.0
C1790 C 0.00852 0.0506 0.16474 0.0
C1791 C 0.01092 0.04666 0.1463 0.0
C1792 C 0.98308 0.0345 0.13681 0.0
C1793 C 0.95383 0.02479 0.14578 0.0
C1794 C 0.04399 0.05071 0.13755 0.0
C1795 C 0.05949 0.02176 0.13078 0.0
C1796 C 0.06226 0.08121 0.13838 0.0
C1797 C 0.04654 0.11286 0.14477 0.0
C1798 C 0.01577 0.12398 0.13764 0.0
C1799 C 0.00099 0.1537 0.14374 0.0
C1800 C 0.0168 0.17264 0.15693 0.0
C1801 C 0.04744 0.16192 0.16403 0.0
C1802 C 0.06232 0.13221 0.15798 0.0
C1803 C 0.19878 0.03959 0.10676 0.0
C1804 C 0.21972 0.05196 0.12025 0.0
C1805 C 0.16375 0.04035 0.10879 0.0
C1806 C 0.14931 0.05292 0.12446 0.0
C1807 C 0.17043 0.06556 0.1378 0.0
C1808 C 0.20523 0.06522 0.13568 0.0
C1809 C 0.11241 0.05197 0.12753 0.0
C1810 C 0.09622 0.08146 0.13326 0.0
C1811 C 0.09359 0.02182 0.12606 0.0
C1812 C 0.10929 0.98934 0.12114 0.0
C1813 C 0.13542 0.97568 0.13145 0.0
C1814 C 0.15011 0.94504 0.12671 0.0
C1815 C 0.13867 0.92769 0.11178 0.0
C1816 C 0.11243 0.9409 0.10159 0.0
C1817 C 0.09768 0.97156 0.10626 0.0
H1818 H 0.15006 0.90397 0.10813 0.0
H1819 H 0.00533 0.19565 0.16163 0.0
H1820 H 0.22859 0.96755 0.86349 0.0
H1821 H 0.22762 0.90745 0.87116 0.0
H1822 H 0.1222 0.9152 0.88436 0.0
H1823 H 0.12389 0.97516 0.87756 0.0
H1824 H 0.15027 0.88491 0.90919 0.0
H1825 H 0.15232 0.87082 0.84705 0.0
H1826 H 0.17149 0.8793 0.81629 0.0
H1827 H 0.26743 0.83639 0.82939 0.0
H1828 H 0.24905 0.82818 0.86032 0.0
H1829 H 0.19011 0.68953 0.90044 0.0
H1830 H 0.16905 0.74221 0.88748 0.0
H1831 H 0.21128 0.79751 0.93142 0.0
H1832 H 0.23075 0.74522 0.94465 0.0
H1833 H 0.20281 0.79223 0.87516 0.0
H1834 H 0.17344 0.869 0.93947 0.0
H1835 H 0.14782 0.85954 0.96881 0.0
H1836 H 0.0936 0.77435 0.94852 0.0
H1837 H 0.11845 0.7836 0.91898 0.0
C1838 C 0.20524 0.95616 0.86786 0.0
C1839 C 0.17639 0.97586 0.87025 0.0
C1840 C 0.20458 0.92183 0.87213 0.0
C1841 C 0.17476 0.90665 0.87832 0.0
C1842 C 0.1456 0.92626 0.87981 0.0
C1843 C 0.14653 0.96054 0.87596 0.0
C1844 C 0.1745 0.87121 0.88468 0.0
C1845 C 0.16151 0.86462 0.90165 0.0
C1846 C 0.18819 0.84443 0.87469 0.0
C1847 C 0.19935 0.84909 0.85606 0.0
C1848 C 0.17759 0.8634 0.84341 0.0
C1849 C 0.18831 0.86814 0.82594 0.0
C1850 C 0.22067 0.85843 0.82089 0.0
C1851 C 0.24237 0.84391 0.83331 0.0
C1852 C 0.2318 0.83917 0.85082 0.0
C1853 C 0.1939 0.7129 0.90753 0.0
C1854 C 0.21185 0.71338 0.92356 0.0
C1855 C 0.18215 0.74298 0.90007 0.0
C1856 C 0.18832 0.77389 0.90852 0.0
C1857 C 0.20542 0.77404 0.92482 0.0
C1858 C 0.2167 0.74408 0.93235 0.0
C1859 C 0.17956 0.80632 0.89986 0.0
C1860 C 0.19096 0.81242 0.88251 0.0
C1861 C 0.16334 0.83246 0.90926 0.0
C1862 C 0.14801 0.8269 0.927 0.0
C1863 C 0.1559 0.84837 0.94122 0.0
C1864 C 0.14154 0.84301 0.95791 0.0
C1865 C 0.11916 0.81631 0.96054 0.0
C1866 C 0.11102 0.79496 0.94648 0.0
C1867 C 0.12527 0.80023 0.92976 0.0
H1868 H 0.1081 0.81219 0.97347 0.0
H1869 H 0.22893 0.86211 0.80736 0.0
H1870 H 0.54715 0.96884 0.63844 0.0
H1871 H 0.4956 0.9513 0.62329 0.0
H1872 H 0.45193 0.92291 0.67346 0.0
H1873 H 0.50341 0.94058 0.68872 0.0
H1874 H 0.43313 0.88008 0.64295 0.0
H1875 H 0.44086 -0.00053 0.66083 0.0
H1876 H 0.47011 0.05432 0.66026 0.0
H1877 H 0.46377 0.05639 0.60345 0.0
H1878 H 0.43493 0.0013 0.60368 0.0
H1879 H 0.26034 0.9049 0.64336 0.0
H1880 H 0.32099 0.9033 0.64767 0.0
H1881 H 0.33538 0.95585 0.59807 0.0
H1882 H 0.27409 0.95847 0.594 0.0
H1883 H 0.37364 0.98248 0.62188 0.0
H1884 H 0.35722 0.87155 0.60262 0.0
H1885 H 0.33062 0.81566 0.60035 0.0
H1886 H 0.35549 0.79494 0.65467 0.0
H1887 H 0.38191 0.85095 0.65738 0.0
C1888 C 0.52694 0.95794 0.64618 0.0
C1889 C 0.52899 0.95646 0.66476 0.0
C1890 C 0.49755 0.94791 0.6375 0.0
C1891 C 0.46991 0.9362 0.64729 0.0
C1892 C 0.47306 0.93185 0.66569 0.0
C1893 C 0.50239 0.94205 0.67439 0.0
C1894 C 0.43632 0.93363 0.63895 0.0
C1895 C 0.41998 0.90235 0.63835 0.0
C1896 C 0.41984 0.96256 0.63228 0.0
C1897 C 0.43611 -0.00384 0.63226 0.0
C1898 C 0.44586 0.01157 0.64822 0.0
C1899 C 0.46238 0.04267 0.64796 0.0
C1900 C 0.46894 0.05872 0.63182 0.0
C1901 C 0.45876 0.04386 0.61593 0.0
C1902 C 0.44233 0.01272 0.61611 0.0
C1903 C 0.27642 0.91603 0.63334 0.0
C1904 C 0.26264 0.93198 0.6184 0.0
C1905 C 0.31114 0.9148 0.63572 0.0
C1906 C 0.33287 0.92889 0.62304 0.0
C1907 C 0.31911 0.94469 0.608 0.0
C1908 C 0.28419 0.94627 0.6057 0.0
C1909 C 0.36969 0.92895 0.62632 0.0
C1910 C 0.38677 0.95988 0.62605 0.0
C1911 C 0.38704 0.8995 0.63173 0.0
C1912 C 0.37147 0.86558 0.63022 0.0
C1913 C 0.35687 0.85518 0.61413 0.0
C1914 C 0.34185 0.82346 0.61276 0.0
C1915 C 0.3414 0.80176 0.62736 0.0
C1916 C 0.35595 0.81176 0.64337 0.0
C1917 C 0.37102 0.84349 0.64482 0.0
H1918 H 0.32985 0.77717 0.62624 0.0
H1919 H 0.48185 0.08271 0.63161 0.0
H1920 H 0.31067 0.10166 0.05373 0.0
H1921 H 0.28716 0.0993 1.02379 0.0
H1922 H 0.18695 0.10496 0.04533 0.0
H1923 H 0.21042 0.10792 0.07548 0.0
H1924 H 0.19792 0.05161 1.01905 0.0
H1925 H 0.21467 0.17146 1.02591 0.0
H1926 H 0.24824 0.2219 0.03305 0.0
H1927 H 0.3186 0.19689 0.99199 0.0
H1928 H 0.28567 0.14603 0.98476 0.0
H1929 H 0.11734 0.06493 0.93505 0.0
H1930 H 0.13513 0.07279 0.96582 0.0
H1931 H 0.23432 0.10105 0.94791 0.0
H1932 H 0.21607 0.09498 0.91719 0.0
H1933 H 0.22156 0.13858 0.97343 0.0
H1934 H 0.21173 0.01947 0.96693 0.0
H1935 H 0.18451 0.96535 0.95976 0.0
H1936 H 0.10925 0.98343 0.9994 0.0
H1937 H 0.13579 0.0379 1.00665 0.0
C1938 C 0.28361 0.10277 0.05214 0.0
C1939 C 0.26245 0.10524 0.06706 0.0
C1940 C 0.2702 0.10139 0.03497 0.0
C1941 C 0.23525 0.10198 0.03224 0.0
C1942 C 0.21399 0.10448 0.04708 0.0
C1943 C 0.22745 0.10646 0.0643 0.0
C1944 C 0.22117 0.09953 1.01388 0.0
C1945 C 0.20253 0.07088 1.00912 0.0
C1946 C 0.22828 0.12399 1.00073 0.0
C1947 C 0.24783 0.15481 1.00489 0.0
C1948 C 0.23742 0.1766 1.01848 0.0
C1949 C 0.25631 0.20528 1.02253 0.0
C1950 C 0.28557 0.21256 1.013 0.0
C1951 C 0.29594 0.19121 0.99937 0.0
C1952 C 0.27714 0.16248 0.99527 0.0
C1953 C 0.14292 0.07293 0.93767 0.0
C1954 C 0.16523 0.07926 0.92357 0.0
C1955 C 0.15322 0.07718 0.95535 0.0
C1956 C 0.18643 0.08692 0.95946 0.0
C1957 C 0.20858 0.09357 0.94531 0.0
C1958 C 0.19809 0.09 0.92765 0.0
C1959 C 0.1982 0.0904 0.97835 0.0
C1960 C 0.21658 0.11926 0.98327 0.0
C1961 C 0.19162 0.06562 0.99154 0.0
C1962 C 0.17553 0.03294 0.98719 0.0
C1963 C 0.18922 0.01203 0.97402 0.0
C1964 C 0.17394 0.98127 0.96996 0.0
C1965 C 0.14511 0.971 0.97908 0.0
C1966 C 0.13155 0.99145 0.99232 0.0
C1967 C 0.14671 0.02226 0.99642 0.0
H1968 H 0.13334 0.94717 0.97593 0.0
H1969 H 0.30018 0.23476 1.01616 0.0
H1970 H 0.61098 0.41977 0.16417 0.0
H1971 H 0.6035 0.4385 0.19471 0.0
H1972 H 0.70738 0.41544 0.20586 0.0
H1973 H 0.71469 0.39555 0.17538 0.0
H1974 H 0.67202 0.39973 0.23355 0.0
H1975 H 0.67922 0.49778 0.19709 0.0
H1976 H 0.66471 0.53529 0.17215 0.0
H1977 H 0.56394 0.54458 0.19198 0.0
H1978 H 0.57773 0.50674 0.21692 0.0
H1979 H 0.65581 0.55194 0.29871 0.0
H1980 H 0.66241 0.52978 0.26876 0.0
H1981 H 0.60978 0.43925 0.28405 0.0
H1982 H 0.60374 0.46095 0.31421 0.0
H1983 H 0.6225 0.5128 0.24318 0.0
H1984 H 0.64091 0.37195 0.2615 0.0
H1985 H 0.66281 0.33792 0.28636 0.0
H1986 H 0.72538 0.42043 0.30269 0.0
H1987 H 0.70424 0.45475 0.2778 0.0
C1988 C 0.63221 0.41839 0.17314 0.0
C1989 C 0.6635 0.40629 0.16726 0.0
C1990 C 0.62794 0.42933 0.19063 0.0
C1991 C 0.65504 0.42919 0.20262 0.0
C1992 C 0.68604 0.41598 0.19694 0.0
C1993 C 0.69021 0.40457 0.17947 0.0
C1994 C 0.65123 0.44364 0.22083 0.0
C1995 C 0.66109 0.42442 0.23562 0.0
C1996 C 0.63776 0.47625 0.2237 0.0
C1997 C 0.62943 0.49918 0.20878 0.0
C1998 C 0.6539 0.50765 0.19607 0.0
C1999 C 0.64581 0.52899 0.18194 0.0
C2000 C 0.6134 0.54225 0.18046 0.0
C2001 C 0.58903 0.53426 0.19314 0.0
C2002 C 0.59697 0.51289 0.20728 0.0
C2003 C 0.64543 0.52737 0.29573 0.0
C2004 C 0.62936 0.5082 0.30899 0.0
C2005 C 0.64921 0.51471 0.27852 0.0
C2006 C 0.63707 0.48256 0.27409 0.0
C2007 C 0.62001 0.46383 0.28715 0.0
C2008 C 0.61635 0.47641 0.30441 0.0
C2009 C 0.64266 0.46864 0.2559 0.0
C2010 C 0.63321 0.48802 0.24112 0.0
C2011 C 0.65747 0.43664 0.25303 0.0
C2012 C 0.67068 0.41602 0.2679 0.0
C2013 C 0.65943 0.38277 0.27036 0.0
C2014 C 0.6717 0.36344 0.28446 0.0
C2015 C 0.69537 0.37705 0.29613 0.0
C2016 C 0.70695 0.40996 0.29369 0.0
C2017 C 0.6948 0.42937 0.27959 0.0
H2018 H 0.7048 0.36206 0.30705 0.0
H2019 H 0.60718 0.55876 0.16951 0.0
H2020 H 0.24015 0.83861 0.56668 0.0
H2021 H 0.26563 0.84071 0.53708 0.0
H2022 H 0.22205 0.93893 0.52854 0.0
H2023 H 0.19478 0.93566 0.55735 0.0
H2024 H 0.21829 0.91144 0.49981 0.0
H2025 H 0.31061 0.92116 0.53976 0.0
H2026 H 0.34677 0.90488 0.56492 0.0
H2027 H 0.37268 0.81291 0.53847 0.0
H2028 H 0.33618 0.82838 0.51326 0.0
H2029 H 0.33741 0.96444 0.43253 0.0
H2030 H 0.31519 0.95684 0.46264 0.0
H2031 H 0.30543 0.85028 0.4535 0.0
H2032 H 0.32667 0.85777 0.42317 0.0
H2033 H 0.33789 0.88083 0.4905 0.0
H2034 H 0.23976 0.8775 0.4502 0.0
H2035 H 0.2068 0.90227 0.42572 0.0
H2036 H 0.19741 -0.00537 0.45477 0.0
H2037 H 0.23077 0.97052 0.4793 0.0
C2038 C 0.23587 0.86049 0.55839 0.0
C2039 C 0.2153 0.88686 0.56439 0.0
C2040 C 0.25075 0.8619 0.54147 0.0
C2041 C 0.24655 0.89034 0.53043 0.0
C2042 C 0.22582 0.91656 0.53652 0.0
C2043 C 0.2102 0.91469 0.55313 0.0
C2044 C 0.26337 0.89309 0.51257 0.0
C2045 C 0.24454 0.90491 0.498 0.0
C2046 C 0.29777 0.88481 0.50978 0.0
C2047 C 0.32038 0.87577 0.5247 0.0
C2048 C 0.3239 0.89739 0.53934 0.0
C2049 C 0.34444 0.88831 0.55362 0.0
C2050 C 0.36194 0.85784 0.55331 0.0
C2051 C 0.35905 0.83647 0.53869 0.0
C2052 C 0.33845 0.84539 0.52441 0.0
C2053 C 0.33095 0.9393 0.43698 0.0
C2054 C 0.33388 0.91171 0.4254 0.0
C2055 C 0.31823 0.93502 0.45421 0.0
C2056 C 0.30879 0.90296 0.46039 0.0
C2057 C 0.31274 0.8752 0.44908 0.0
C2058 C 0.32475 0.87957 0.43171 0.0
C2059 C 0.29262 0.89888 0.47814 0.0
C2060 C 0.31163 0.88705 0.49256 0.0
C2061 C 0.25879 0.90825 0.481 0.0
C2062 C 0.23799 0.92233 0.46648 0.0
C2063 C 0.23086 0.90316 0.4513 0.0
C2064 C 0.21208 0.91706 0.43743 0.0
C2065 C 0.20009 0.95003 0.43867 0.0
C2066 C 0.20674 0.96911 0.45382 0.0
C2067 C 0.22554 0.95533 0.46771 0.0
H2068 H 0.1856 0.96077 0.42791 0.0
H2069 H 0.37777 0.85081 0.56439 0.0
H2070 H 0.78601 0.59818 0.67661 0.0
H2071 H 0.79674 0.57869 0.70678 0.0
H2072 H 0.88457 0.52519 0.68871 0.0
H2073 H 0.87342 0.54385 0.65835 0.0
H2074 H 0.85183 0.48662 0.71012 0.0
H2075 H 0.88963 0.60023 0.71343 0.0
H2076 H 0.88642 0.66187 0.70991 0.0
H2077 H 0.80239 0.66513 0.74559 0.0
H2078 H 0.80481 0.60342 0.74914 0.0
H2079 H 0.895 0.50978 0.81167 0.0
H2080 H 0.89522 0.53094 0.78111 0.0
H2081 H 0.81418 0.46308 0.768 0.0
H2082 H 0.81454 0.4412 0.79815 0.0
H2083 H 0.85153 0.56317 0.76198 0.0
H2084 H 0.81646 0.439 0.72576 0.0
H2085 H 0.82555 0.37791 0.72919 0.0
H2086 H 0.91575 0.3968 0.75889 0.0
H2087 H 0.90745 0.45798 0.75544 0.0
C2088 C 0.8078 0.58249 0.67903 0.0
C2089 C 0.82887 0.57267 0.66498 0.0
C2090 C 0.81401 0.57144 0.69637 0.0
C2091 C 0.84175 0.55072 0.70019 0.0
C2092 C 0.86299 0.54111 0.68619 0.0
C2093 C 0.85663 0.55192 0.6688 0.0
C2094 C 0.8479 0.5382 0.71863 0.0
C2095 C 0.85186 0.50343 0.72143 0.0
C2096 C 0.84871 0.56002 0.73347 0.0
C2097 C 0.84725 0.59716 0.73144 0.0
C2098 C 0.87033 0.61406 0.72043 0.0
C2099 C 0.86867 0.64902 0.71845 0.0
C2100 C 0.84417 0.6674 0.72749 0.0
C2101 C 0.82134 0.65085 0.73858 0.0
C2102 C 0.82286 0.61589 0.7406 0.0
C2103 C 0.87744 0.49916 0.80223 0.0
C2104 C 0.85496 0.47356 0.8074 0.0
C2105 C 0.87749 0.51139 0.78475 0.0
C2106 C 0.85504 0.49835 0.77207 0.0
C2107 C 0.83235 0.47307 0.77731 0.0
C2108 C 0.83251 0.46063 0.79467 0.0
C2109 C 0.85466 0.51154 0.75348 0.0
C2110 C 0.85172 0.5464 0.75065 0.0
C2111 C 0.85562 0.48988 0.73857 0.0
C2112 C 0.86115 0.45309 0.74045 0.0
C2113 C 0.83833 0.43012 0.73294 0.0
C2114 C 0.84332 0.39547 0.73491 0.0
C2115 C 0.87116 0.38348 0.74429 0.0
C2116 C 0.89413 0.40612 0.75168 0.0
C2117 C 0.88928 0.44078 0.74973 0.0
H2118 H 0.87495 0.35665 0.74582 0.0
H2119 H 0.84293 0.69446 0.72593 0.0
H2120 H 0.77103 0.90545 0.15032 0.0
H2121 H 0.75017 0.89769 0.12022 0.0
H2122 H 0.84635 0.92915 0.09941 0.0
H2123 H 0.86659 0.93901 0.12968 0.0
H2124 H 0.8029 0.95367 0.07925 0.0
H2125 H 0.81572 0.84173 0.10122 0.0
H2126 H 0.80866 0.79399 0.12185 0.0
H2127 H 0.70164 0.79744 0.11443 0.0
H2128 H 0.70801 0.84549 0.09392 0.0
H2129 H 0.7733 0.88272 0.99298 0.0
H2130 H 0.79447 0.8907 1.02319 0.0
H2131 H 0.69278 0.89325 0.04289 0.0
H2132 H 0.67132 0.88598 1.01261 0.0
H2133 H 0.73951 0.85064 0.06294 0.0
H2134 H 0.73071 0.9632 0.03911 0.0
H2135 H 0.74202 0.00807 1.01727 0.0
H2136 H 0.84803 -0.00055 1.02714 0.0
H2137 H 0.83743 0.9539 0.0487 0.0
C2138 C 0.78784 0.9106 0.13935 0.0
C2139 C 0.82064 0.92254 0.14246 0.0
C2140 C 0.77591 0.9059 0.12204 0.0
C2141 C 0.7968 0.91187 0.10729 0.0
C2142 C 0.82956 0.92414 0.11041 0.0
C2143 C 0.84124 0.92968 0.12777 0.0
C2144 C 0.78426 0.9059 0.08873 0.0
C2145 C 0.78953 0.93083 0.07572 0.0
C2146 C 0.76627 0.87636 0.08386 0.0
C2147 C 0.76233 0.84742 0.09616 0.0
C2148 C 0.79066 0.83245 0.10408 0.0
C2149 C 0.78679 0.80531 0.11574 0.0
C2150 C 0.75472 0.79274 0.11948 0.0
C2151 C 0.72646 0.80723 0.11153 0.0
C2152 C 0.73019 0.83439 0.09988 0.0
C2153 C 0.75538 0.8848 1.00373 0.0
C2154 C 0.72056 0.88368 1.00032 0.0
C2155 C 0.76756 0.88951 1.02101 0.0
C2156 C 0.74526 0.89272 0.03534 0.0
C2157 C 0.71049 0.89085 0.03206 0.0
C2158 C 0.69826 0.88677 1.01472 0.0
C2159 C 0.75824 0.89832 0.05371 0.0
C2160 C 0.75301 0.87334 0.0666 0.0
C2161 C 0.77695 0.92739 0.05833 0.0
C2162 C 0.78329 0.95483 0.04537 0.0
C2163 C 0.75647 0.97057 0.03647 0.0
C2164 C 0.76275 -0.00383 1.02415 0.0
C2165 C 0.79573 0.00651 1.02076 0.0
C2166 C 0.8225 0.99134 1.02972 0.0
C2167 C 0.81637 0.9656 0.04198 0.0
H2168 H 0.80055 0.02633 1.01122 0.0
H2169 H 0.75177 0.77173 0.12851 0.0
H2170 H 0.36198 0.54718 0.89695 0.0
H2171 H 0.3725 0.52725 0.8669 0.0
H2172 H 0.28546 0.58144 0.84823 0.0
H2173 H 0.27503 0.60199 0.87831 0.0
H2174 H 0.33843 0.48834 0.84573 0.0
H2175 H 0.29661 0.60449 0.80493 0.0
H2176 H 0.29431 0.6663 0.8079 0.0
H2177 H 0.37588 0.66339 0.8452 0.0
H2178 H 0.37895 0.60165 0.84228 0.0
H2179 H 0.31964 0.4387 0.75643 0.0
H2180 H 0.31214 0.46149 0.78607 0.0
H2181 H 0.39127 0.53367 0.77632 0.0
H2182 H 0.39748 0.51201 0.74604 0.0
H2183 H 0.34576 0.56394 0.79346 0.0
H2184 H 0.39955 0.45714 0.80361 0.0
H2185 H 0.4066 0.39562 0.80116 0.0
H2186 H 0.31079 0.38017 0.82616 0.0
H2187 H 0.30301 0.44159 0.82859 0.0
C2188 C 0.34509 0.5551 0.88648 0.0
C2189 C 0.31767 0.57639 0.89017 0.0
C2190 C 0.35112 0.54352 0.86923 0.0
C2191 C 0.33 0.55289 0.85512 0.0
C2192 C 0.30255 0.57418 0.85874 0.0
C2193 C 0.29655 0.5859 0.87602 0.0
C2194 C 0.33647 0.53981 0.83679 0.0
C2195 C 0.34002 0.50493 0.83432 0.0
C2196 C 0.33913 0.56126 0.82181 0.0
C2197 C 0.33775 0.59842 0.82351 0.0
C2198 C 0.31413 0.61707 0.81372 0.0
C2199 C 0.31268 0.65209 0.8154 0.0
C2200 C 0.33486 0.66875 0.82678 0.0
C2201 C 0.35862 0.65045 0.83645 0.0
C2202 C 0.3602 0.61544 0.8348 0.0
C2203 C 0.33571 0.45927 0.76058 0.0
C2204 C 0.35949 0.47324 0.74884 0.0
C2205 C 0.33149 0.47225 0.77768 0.0
C2206 C 0.35165 0.49891 0.78383 0.0
C2207 C 0.37539 0.51303 0.77207 0.0
C2208 C 0.37909 0.50051 0.75475 0.0
C2209 C 0.34749 0.51234 0.80233 0.0
C2210 C 0.34425 0.54729 0.80485 0.0
C2211 C 0.34576 0.49096 0.81743 0.0
C2212 C 0.3506 0.45399 0.81616 0.0
C2213 C 0.37993 0.44062 0.80851 0.0
C2214 C 0.38405 0.40576 0.80714 0.0
C2215 C 0.35913 0.384 0.81347 0.0
C2216 C 0.33007 0.39705 0.82126 0.0
C2217 C 0.32581 0.43188 0.82266 0.0
H2218 H 0.36234 0.35703 0.81238 0.0
H2219 H 0.33367 0.69586 0.82808 0.0
H2220 H 0.63279 0.01558 0.63073 0.0
H2221 H 0.65369 0.0228 0.60034 0.0
H2222 H 0.69904 0.11734 0.61508 0.0
H2223 H 0.67878 0.11016 0.64535 0.0
H2224 H 0.64637 0.06789 0.5737 0.0
H2225 H 0.77506 0.12549 0.59543 0.0
H2226 H 0.81447 0.12149 0.62063 0.0
H2227 H 0.77557 0.02358 0.63366 0.0
H2228 H 0.73626 0.02689 0.60845 0.0
H2229 H 0.7261 0.13285 0.49613 0.0
H2230 H 0.70112 0.12639 0.52565 0.0
H2231 H 0.77804 0.05439 0.53946 0.0
H2232 H 0.8039 0.06207 0.51051 0.0
H2233 H 0.76865 0.08876 0.56643 0.0
H2234 H 0.69287 0.03285 0.5273 0.0
H2235 H 0.65618 0.02805 0.50106 0.0
H2236 H 0.59221 0.10578 0.52153 0.0
H2237 H 0.62884 0.11141 0.54779 0.0
C2238 C 0.64694 0.03808 0.62747 0.0
C2239 C 0.65421 0.06217 0.64063 0.0
C2240 C 0.65882 0.04222 0.61003 0.0
C2241 C 0.67834 0.07046 0.60535 0.0
C2242 C 0.68453 0.09505 0.61833 0.0
C2243 C 0.67282 0.0909 0.63571 0.0
C2244 C 0.69369 0.07371 0.58726 0.0
C2245 C 0.67309 0.0725 0.57211 0.0
C2246 C 0.72874 0.07874 0.58499 0.0
C2247 C 0.7525 0.07659 0.60014 0.0
C2248 C 0.77501 0.10308 0.60364 0.0
C2249 C 0.79731 0.10095 0.61793 0.0
C2250 C 0.79746 0.07236 0.62877 0.0
C2251 C 0.77537 0.04578 0.62531 0.0
C2252 C 0.75305 0.04779 0.61103 0.0
C2253 C 0.73783 0.11588 0.50552 0.0
C2254 C 0.76711 0.09808 0.50088 0.0
C2255 C 0.72333 0.11192 0.52241 0.0
C2256 C 0.7372 0.08938 0.53489 0.0
C2257 C 0.76669 0.07201 0.53026 0.0
C2258 C 0.7815 0.07642 0.51358 0.0
C2259 C 0.72132 0.08368 0.55274 0.0
C2260 C 0.74187 0.08434 0.56792 0.0
C2261 C 0.68648 0.07681 0.55491 0.0
C2262 C 0.66376 0.07274 0.53945 0.0
C2263 C 0.67103 0.04899 0.52618 0.0
C2264 C 0.65027 0.04614 0.5113 0.0
C2265 C 0.62193 0.06666 0.5096 0.0
C2266 C 0.6142 0.08993 0.52285 0.0
C2267 C 0.63494 0.09295 0.53775 0.0
H2268 H 0.60594 0.06448 0.49804 0.0
H2269 H 0.81473 0.07077 0.63983 0.0
H2270 H 0.12478 0.44401 0.39742 0.0
H2271 H 0.11615 0.46348 0.36702 0.0
H2272 H 0.19643 0.39912 0.34916 0.0
H2273 H 0.20549 0.37968 0.37963 0.0
H2274 H 0.20236 0.46019 0.3345 0.0
H2275 H 0.11363 0.37951 0.34104 0.0
H2276 H 0.06429 0.35323 0.35526 0.0
H2277 H 0.00806 0.44453 0.34831 0.0
H2278 H 0.05725 0.47153 0.33426 0.0
H2279 H 0.11009 0.46529 0.24296 0.0
H2280 H 0.11584 0.44209 0.27291 0.0
H2281 H 0.15723 0.53641 0.29093 0.0
H2282 H 0.15212 0.55954 0.26103 0.0
H2283 H 0.09111 0.45669 0.30472 0.0
H2284 H 0.21617 0.52263 0.32238 0.0
H2285 H 0.26628 0.54555 0.30727 0.0
H2286 H 0.2516 0.47647 0.26425 0.0
H2287 H 0.20167 0.45288 0.2792 0.0
C2288 C 0.14053 0.43375 0.38705 0.0
C2289 C 0.16583 0.41013 0.39108 0.0
C2290 C 0.13546 0.4449 0.36959 0.0
C2291 C 0.15544 0.43268 0.35566 0.0
C2292 C 0.18064 0.409 0.35962 0.0
C2293 C 0.18568 0.39775 0.37709 0.0
C2294 C 0.15053 0.44513 0.33707 0.0
C2295 C 0.178 0.45939 0.32803 0.0
C2296 C 0.1189 0.44385 0.32839 0.0
C2297 C 0.08923 0.42763 0.33674 0.0
C2298 C 0.09083 0.39406 0.34266 0.0
C2299 C 0.06287 0.37902 0.35067 0.0
C2300 C 0.03308 0.39722 0.35273 0.0
C2301 C 0.03116 0.43047 0.34673 0.0
C2302 C 0.05906 0.44565 0.33872 0.0
C2303 C 0.12026 0.48119 0.2533 0.0
C2304 C 0.13088 0.51425 0.24945 0.0
C2305 C 0.12349 0.46787 0.27048 0.0
C2306 C 0.13749 0.48721 0.28424 0.0
C2307 C 0.147 0.52062 0.28055 0.0
C2308 C 0.1439 0.53391 0.26339 0.0
C2309 C 0.1428 0.47226 0.30229 0.0
C2310 C 0.11544 0.45754 0.31122 0.0
C2311 C 0.17464 0.47271 0.31079 0.0
C2312 C 0.20503 0.48622 0.30185 0.0
C2313 C 0.22374 0.51223 0.30974 0.0
C2314 C 0.25209 0.52536 0.30119 0.0
C2315 C 0.26206 0.51254 0.28478 0.0
C2316 C 0.24379 0.48646 0.27693 0.0
C2317 C 0.21545 0.47322 0.28543 0.0
H2318 H 0.28398 0.52277 0.27818 0.0
H2319 H 0.01147 0.38553 0.35893 0.0
H2320 H 0.62917 0.51864 0.4287 0.0
H2321 H 0.6456 0.52778 0.45969 0.0
H2322 H 0.70295 0.61513 0.44412 0.0
H2323 H 0.68641 0.6066 0.41337 0.0
H2324 H 0.70623 0.52733 0.47534 0.0
H2325 H 0.70205 0.67351 0.47667 0.0
H2326 H 0.66962 0.71966 0.46298 0.0
H2327 H 0.58568 0.65308 0.45536 0.0
H2328 H 0.61741 0.60669 0.46923 0.0
H2329 H 0.80689 0.58834 0.5448 0.0
H2330 H 0.78014 0.58109 0.51597 0.0
H2331 H 0.68483 0.61076 0.53816 0.0
H2332 H 0.71161 0.61862 0.56719 0.0
H2333 H 0.69276 0.63737 0.50554 0.0
H2334 H 0.70295 0.52848 0.5315 0.0
H2335 H 0.73213 0.48127 0.54612 0.0
H2336 H 0.79644 0.47001 0.50084 0.0
H2337 H 0.76831 0.51781 0.48612 0.0
C2338 C 0.64504 0.53996 0.43189 0.0
C2339 C 0.65632 0.56191 0.41845 0.0
C2340 C 0.65456 0.54505 0.44962 0.0
C2341 C 0.67533 0.5723 0.45434 0.0
C2342 C 0.6865 0.59423 0.44094 0.0
C2343 C 0.67708 0.58917 0.42327 0.0
C2344 C 0.68623 0.5775 0.47311 0.0
C2345 C 0.70319 0.55137 0.48193 0.0
C2346 C 0.68175 0.60864 0.48196 0.0
C2347 C 0.66225 0.63655 0.47386 0.0
C2348 C 0.67661 0.66877 0.47216 0.0
C2349 C 0.65836 0.69496 0.46435 0.0
C2350 C 0.62565 0.68928 0.45826 0.0
C2351 C 0.61107 0.65742 0.46003 0.0
C2352 C 0.62919 0.63116 0.46784 0.0
C2353 C 0.78028 0.59365 0.5436 0.0
C2354 C 0.76141 0.60396 0.55841 0.0
C2355 C 0.76496 0.58927 0.52706 0.0
C2356 C 0.7303 0.59471 0.52489 0.0
C2357 C 0.71157 0.60624 0.53948 0.0
C2358 C 0.72694 0.61076 0.55608 0.0
C2359 C 0.71373 0.58757 0.5075 0.0
C2360 C 0.69569 0.6133 0.49896 0.0
C2361 C 0.71678 0.55588 0.49901 0.0
C2362 C 0.73366 0.52694 0.50776 0.0
C2363 C 0.72352 0.51615 0.52471 0.0
C2364 C 0.73991 0.4893 0.53303 0.0
C2365 C 0.76625 0.47277 0.52445 0.0
C2366 C 0.77617 0.48298 0.50751 0.0
C2367 C 0.76001 0.50996 0.49917 0.0
H2368 H 0.77888 0.45196 0.5309 0.0
H2369 H 0.61158 0.70958 0.45219 0.0
H2370 H 0.18015 0.87829 0.68484 0.0
H2371 H 0.17294 0.89787 0.71545 0.0
H2372 H 0.13196 0.99141 0.69614 0.0
H2373 H 0.13869 0.97201 0.66564 0.0
H2374 H 0.18071 0.00068 0.72243 0.0
H2375 H 0.08063 0.93394 0.71325 0.0
H2376 H 0.04951 0.88227 0.70551 0.0
H2377 H 0.09902 0.82888 0.74762 0.0
H2378 H 0.1308 0.88014 0.75545 0.0
H2379 H 0.12373 0.07163 0.80238 0.0
H2380 H 0.12719 0.04915 0.77232 0.0
H2381 H 0.14218 0.94932 0.79367 0.0
H2382 H 0.13605 0.97166 0.82378 0.0
H2383 H 0.10849 0.94168 0.7662 0.0
H2384 H 0.20876 0.00613 0.77603 0.0
H2385 H 0.24264 0.05606 0.7838 0.0
H2386 H 0.19796 0.11137 0.74089 0.0
H2387 H 0.16344 0.06193 0.73302 0.0
C2388 C 0.16947 0.90298 0.68709 0.0
C2389 C 0.15994 0.92346 0.67267 0.0
C2390 C 0.1653 0.91414 0.70464 0.0
C2391 C 0.1518 0.94616 0.70818 0.0
C2392 C 0.14245 0.96666 0.69382 0.0
C2393 C 0.14619 0.95538 0.67632 0.0
C2394 C 0.14766 0.95859 0.72679 0.0
C2395 C 0.16465 0.988 0.73197 0.0
C2396 C 0.12757 0.94155 0.73946 0.0
C2397 C 0.10836 0.91078 0.73481 0.0
C2398 C 0.0851 0.91111 0.72076 0.0
C2399 C 0.06729 0.88191 0.71637 0.0
C2400 C 0.07236 0.85228 0.72603 0.0
C2401 C 0.09516 0.85183 0.74013 0.0
C2402 C 0.11306 0.88095 0.74456 0.0
C2403 C 0.12733 0.04482 0.80063 0.0
C2404 C 0.12957 0.02343 0.81544 0.0
C2405 C 0.12978 0.03194 0.78339 0.0
C2406 C 0.13616 -0.00249 0.78047 0.0
C2407 C 0.13747 0.97597 0.79534 0.0
C2408 C 0.1339 0.98873 0.81261 0.0
C2409 C 0.14153 0.98409 0.76202 0.0
C2410 C 0.12478 0.95444 0.7568 0.0
C2411 C 0.16239 0.00065 0.74938 0.0
C2412 C 0.18328 0.03039 0.75404 0.0
C2413 C 0.20601 0.029 0.76832 0.0
C2414 C 0.22534 0.05722 0.77273 0.0
C2415 C 0.2224 0.0869 0.76287 0.0
C2416 C 0.20018 0.08839 0.74853 0.0
C2417 C 0.18075 0.06027 0.74408 0.0
H2418 H 0.23737 0.10872 0.7663 0.0
H2419 H 0.05855 0.82971 0.72262 0.0
H2420 H 0.83244 0.46888 0.92394 0.0
H2421 H 0.81161 0.46229 0.95428 0.0
H2422 H 0.78502 0.35908 0.94313 0.0
H2423 H 0.80431 0.36612 0.91262 0.0
H2424 H 0.73693 0.38427 0.96038 0.0
H2425 H 0.85776 0.38702 0.96964 0.0
H2426 H 0.91514 0.41074 0.9688 0.0
H2427 H 0.88158 0.49754 0.9976 0.0
H2428 H 0.82396 0.47455 0.99842 0.0
H2429 H 0.76428 0.35907 0.06265 0.0
H2430 H 0.78537 0.36444 0.03233 0.0
H2431 H 0.696 0.41916 1.01754 0.0
H2432 H 0.6744 0.41323 0.04771 0.0
H2433 H 0.80223 0.41746 1.01355 0.0
H2434 H 0.67869 0.40735 0.9739 0.0
H2435 H 0.62284 0.38058 0.97639 0.0
H2436 H 0.66465 0.3026 1.00915 0.0
H2437 H 0.7208 0.32868 1.00668 0.0
C2438 C 0.82248 0.44468 0.92803 0.0
C2439 C 0.82017 0.41797 0.91586 0.0
C2440 C 0.81063 0.44086 0.94545 0.0
C2441 C 0.797 0.40999 0.95125 0.0
C2442 C 0.79523 0.38321 0.93911 0.0
C2443 C 0.80644 0.38721 0.92164 0.0
C2444 C 0.78361 0.4056 0.96969 0.0
C2445 C 0.75136 0.39154 0.97196 0.0
C2446 C 0.8021 0.41498 0.985 0.0
C2447 C 0.83653 0.42917 0.98398 0.0
C2448 C 0.86257 0.41131 0.97564 0.0
C2449 C 0.89515 0.42461 0.9752 0.0
C2450 C 0.90197 0.45562 0.98316 0.0
C2451 C 0.87624 0.47353 0.99145 0.0
C2452 C 0.84365 0.46037 0.99191 0.0
C2453 C 0.74892 0.37199 0.05292 0.0
C2454 C 0.71753 0.38558 0.05766 0.0
C2455 C 0.76112 0.37518 0.03557 0.0
C2456 C 0.74225 0.39199 1.02251 0.0
C2457 C 0.71086 0.40555 1.02722 0.0
C2458 C 0.69855 0.40221 0.04454 0.0
C2459 C 0.75585 0.39597 1.00415 0.0
C2460 C 0.78794 0.41014 1.00192 0.0
C2461 C 0.73739 0.38641 0.9889 0.0
C2462 C 0.70387 0.37016 0.99023 0.0
C2463 C 0.67598 0.38441 0.98157 0.0
C2464 C 0.64427 0.36938 0.98299 0.0
C2465 C 0.64018 0.33997 0.99296 0.0
C2466 C 0.66783 0.32545 1.00148 0.0
C2467 C 0.69959 0.34037 1.00009 0.0
H2468 H 0.6156 0.32839 0.99406 0.0
H2469 H 0.92719 0.46577 0.98304 0.0
H2470 H 0.3683 0.02209 0.32436 0.0
H2471 H 0.36191 0.0434 0.29399 0.0
H2472 H 0.35678 0.94165 0.27447 0.0
H2473 H 0.36244 0.92013 0.30482 0.0
H2474 H 0.40023 0.98794 0.2541 0.0
H2475 H 0.28709 0.97965 0.27772 0.0
H2476 H 0.24341 0.99124 0.30008 0.0
H2477 H 0.25586 0.09752 0.29178 0.0
H2478 H 0.29994 0.08654 0.26951 0.0
H2479 H 0.34156 0.01557 0.1668 0.0
H2480 H 0.35128 -0.00376 0.19709 0.0
H2481 H 0.32039 0.09319 0.21697 0.0
H2482 H 0.3086 0.11183 0.18662 0.0
H2483 H 0.29691 0.05088 0.23801 0.0
H2484 H 0.40773 0.06279 0.21476 0.0
H2485 H 0.4546 0.05499 0.19378 0.0
H2486 H 0.45154 0.9482 0.20265 0.0
H2487 H 0.40434 0.95532 0.22352 0.0
C2488 C 0.36617 0.00421 0.3136 0.0
C2489 C 0.36592 0.96936 0.31707 0.0
C2490 C 0.36237 0.01646 0.29623 0.0
C2491 C 0.35874 -0.00584 0.28191 0.0
C2492 C 0.35956 0.95936 0.28527 0.0
C2493 C 0.36274 0.9471 0.30266 0.0
C2494 C 0.35301 0.00709 0.26352 0.0
C2495 C 0.3775 0.00139 0.25049 0.0
C2496 C 0.32391 0.02566 0.25894 0.0
C2497 C 0.29701 0.03228 0.27208 0.0
C2498 C 0.28066 0.00549 0.28075 0.0
C2499 C 0.25581 0.01195 0.29339 0.0
C2500 C 0.24691 0.04509 0.29738 0.0
C2501 C 0.26279 0.07186 0.28869 0.0
C2502 C 0.28768 0.06553 0.27604 0.0
C2503 C 0.33699 0.03287 0.17761 0.0
C2504 C 0.32449 0.06537 0.17422 0.0
C2505 C 0.34281 0.02184 0.19503 0.0
C2506 C 0.33745 0.04336 0.20957 0.0
C2507 C 0.32489 0.0759 0.20615 0.0
C2508 C 0.31825 0.08665 0.18873 0.0
C2509 C 0.34418 0.03173 0.22826 0.0
C2510 C 0.31983 0.03762 0.24146 0.0
C2511 C 0.37386 0.01397 0.23309 0.0
C2512 C 0.40229 0.00958 0.22058 0.0
C2513 C 0.4169 0.03762 0.21215 0.0
C2514 C 0.44355 0.03332 0.20029 0.0
C2515 C 0.45599 0.00111 0.19685 0.0
C2516 C 0.44186 0.97313 0.20531 0.0
C2517 C 0.41518 0.97729 0.21717 0.0
H2518 H 0.47662 -0.00217 0.18767 0.0
H2519 H 0.22766 0.05001 0.30717 0.0
H2520 H 0.30397 0.36871 0.64548 0.0
H2521 H 0.28557 0.36089 0.61489 0.0
H2522 H 0.33887 0.45086 0.59938 0.0
H2523 H 0.35712 0.45913 0.63009 0.0
H2524 H 0.2784 0.4505 0.58461 0.0
H2525 H 0.36848 0.37182 0.58864 0.0
H2526 H 0.40115 0.3249 0.60136 0.0
H2527 H 0.31753 0.25804 0.5935 0.0
H2528 H 0.28417 0.30469 0.58095 0.0
H2529 H 0.2766 0.36438 0.49116 0.0
H2530 H 0.30175 0.37036 0.52068 0.0
H2531 H 0.20566 0.40059 0.54171 0.0
H2532 H 0.18061 0.39546 0.5123 0.0
H2533 H 0.29304 0.34274 0.55241 0.0
H2534 H 0.21607 0.45995 0.57389 0.0
H2535 H 0.18782 0.50871 0.56015 0.0
H2536 H 0.25296 0.50169 0.51495 0.0
H2537 H 0.28231 0.45358 0.52864 0.0
C2538 C 0.31204 0.38679 0.63559 0.0
C2539 C 0.33222 0.41453 0.64037 0.0
C2540 C 0.30154 0.38218 0.61801 0.0
C2541 C 0.311 0.40506 0.60465 0.0
C2542 C 0.33119 0.43277 0.60936 0.0
C2543 C 0.34178 0.43738 0.62697 0.0
C2544 C 0.29908 0.4005 0.58594 0.0
C2545 C 0.28165 0.42691 0.5776 0.0
C2546 C 0.30372 0.36999 0.57651 0.0
C2547 C 0.32373 0.34183 0.58399 0.0
C2548 C 0.35697 0.34717 0.58974 0.0
C2549 C 0.37563 0.32061 0.5969 0.0
C2550 C 0.3614 0.28852 0.59828 0.0
C2551 C 0.3285 0.28291 0.59245 0.0
C2552 C 0.30972 0.3094 0.58529 0.0
C2553 C 0.26074 0.37205 0.50209 0.0
C2554 C 0.22657 0.37963 0.49925 0.0
C2555 C 0.27519 0.37546 0.51901 0.0
C2556 C 0.25583 0.38656 0.53348 0.0
C2557 C 0.22141 0.39278 0.53077 0.0
C2558 C 0.20704 0.38963 0.51389 0.0
C2559 C 0.2716 0.39243 0.55128 0.0
C2560 C 0.28978 0.3663 0.55943 0.0
C2561 C 0.26814 0.42343 0.56042 0.0
C2562 C 0.25114 0.45288 0.55223 0.0
C2563 C 0.2245 0.46892 0.56106 0.0
C2564 C 0.20828 0.49644 0.55328 0.0
C2565 C 0.2184 0.50811 0.53663 0.0
C2566 C 0.24502 0.49252 0.52781 0.0
C2567 C 0.26151 0.46515 0.53559 0.0
H2568 H 0.2057 0.52933 0.5306 0.0
H2569 H 0.37589 0.26799 0.60382 0.0
H2570 H 0.84205 0.02105 0.39909 0.0
H2571 H 0.85157 0.00345 0.36861 0.0
H2572 H 0.82183 0.10187 0.35005 0.0
H2573 H 0.8102 0.11889 0.38069 0.0
H2574 H 0.79848 0.06049 0.32822 0.0
H2575 H 0.90864 0.0715 0.35205 0.0
H2576 H 0.95521 0.06326 0.37321 0.0
H2577 H 0.95268 0.95673 0.36376 0.0
H2578 H 0.90578 0.96426 0.34271 0.0
H2579 H 0.86945 0.03015 0.24195 0.0
H2580 H 0.86395 0.05217 0.27216 0.0
H2581 H 0.85733 0.95092 0.29251 0.0
H2582 H 0.86208 0.9287 0.26232 0.0
H2583 H 0.90155 -0.00292 0.31238 0.0
H2584 H 0.78831 0.99 0.28836 0.0
H2585 H 0.7451 0.00242 0.26582 0.0
H2586 H 0.75866 0.10843 0.27434 0.0
H2587 H 0.80233 0.09662 0.29677 0.0
C2588 C 0.83766 0.03906 0.38854 0.0
C2589 C 0.82565 0.07152 0.39239 0.0
C2590 C 0.84337 0.02901 0.37102 0.0
C2591 C 0.83842 0.05149 0.35681 0.0
C2592 C 0.82609 0.08393 0.36064 0.0
C2593 C 0.81953 0.09373 0.3782 0.0
C2594 C 0.84549 0.04081 0.33806 0.0
C2595 C 0.82134 0.04715 0.32481 0.0
C2596 C 0.87519 0.02309 0.33331 0.0
C2597 C 0.90349 0.01843 0.34591 0.0
C2598 C 0.91787 0.04629 0.35457 0.0
C2599 C 0.94434 0.04175 0.36653 0.0
C2600 C 0.95684 0.00949 0.36986 0.0
C2601 C 0.94295 0.9817 0.36118 0.0
C2602 C 0.91645 0.9861 0.34922 0.0
C2603 C 0.86729 0.01252 0.25286 0.0
C2604 C 0.86625 0.97761 0.24968 0.0
C2605 C 0.86396 0.02518 0.27013 0.0
C2606 C 0.86004 0.00322 0.28462 0.0
C2607 C 0.86032 0.96835 0.28156 0.0
C2608 C 0.86301 0.95569 0.26427 0.0
C2609 C 0.85447 0.01653 0.30287 0.0
C2610 C 0.87889 0.01066 0.31594 0.0
C2611 C 0.8255 0.03536 0.30734 0.0
C2612 C 0.79882 0.04243 0.29411 0.0
C2613 C 0.78225 0.01596 0.28534 0.0
C2614 C 0.75765 0.02289 0.2726 0.0
C2615 C 0.7492 0.0562 0.26861 0.0
C2616 C 0.76526 0.08264 0.27742 0.0
C2617 C 0.78991 0.07585 0.29016 0.0
H2618 H 0.73017 0.06151 0.25874 0.0
H2619 H 0.97734 0.00602 0.37913 0.0
H2620 H 0.20873 0.59002 0.147 0.0
H2621 H 0.22663 0.59818 0.11646 0.0
H2622 H 0.13081 0.56103 0.09801 0.0
H2623 H 0.11349 0.5509 0.12885 0.0
H2624 H 0.1744 0.53955 0.07647 0.0
H2625 H 0.15537 0.64981 0.09851 0.0
H2626 H 0.15969 0.69787 0.11902 0.0
H2627 H 0.26641 0.70224 0.11057 0.0
H2628 H 0.2628 0.6539 0.09019 0.0
H2629 H 0.20561 0.60986 0.98915 0.0
H2630 H 0.18182 0.60304 1.01902 0.0
H2631 H 0.28166 0.60393 0.04125 0.0
H2632 H 0.30561 0.60988 1.01147 0.0
H2633 H 0.23168 0.64599 0.05966 0.0
H2634 H 0.24715 0.5324 0.0375 0.0
H2635 H 0.23864 0.48713 1.01563 0.0
H2636 H 0.13173 0.4936 1.02289 0.0
H2637 H 0.1396 0.53929 0.04462 0.0
C2638 C 0.1913 0.58368 0.13648 0.0
C2639 C 0.15941 0.57023 0.14048 0.0
C2640 C 0.20155 0.5886 0.11889 0.0
C2641 C 0.17985 0.58133 0.10465 0.0
C2642 C 0.14813 0.56721 0.1086 0.0
C2643 C 0.13813 0.5615 0.12629 0.0
C2644 C 0.19061 0.58823 0.08581 0.0
C2645 C 0.18637 0.56313 0.07283 0.0
C2646 C 0.20654 0.61887 0.08072 0.0
C2647 C 0.20884 0.64804 0.09293 0.0
C2648 C 0.17979 0.66089 0.10111 0.0
C2649 C 0.18211 0.68819 0.1127 0.0
C2650 C 0.21331 0.70305 0.11613 0.0
C2651 C 0.24226 0.69068 0.10792 0.0
C2652 C 0.24009 0.66336 0.09633 0.0
C2653 C 0.22249 0.60901 1.00041 0.0
C2654 C 0.25757 0.61056 0.99787 0.0
C2655 C 0.20884 0.6049 1.01749 0.0
C2656 C 0.22991 0.60283 0.03245 0.0
C2657 C 0.26485 0.60545 1.02997 0.0
C2658 C 0.27852 0.60884 1.0129 0.0
C2659 C 0.21578 0.59725 0.05063 0.0
C2660 C 0.21943 0.62261 0.06341 0.0
C2661 C 0.19863 0.56728 0.05539 0.0
C2662 C 0.19394 0.53951 0.04253 0.0
C2663 C 0.22181 0.52436 0.03432 0.0
C2664 C 0.21711 0.49859 1.02197 0.0
C2665 C 0.18466 0.48756 1.01783 0.0
C2666 C 0.15685 0.5022 1.02609 0.0
C2667 C 0.16142 0.52802 0.03843 0.0
H2668 H 0.18106 0.46762 1.00826 0.0
H2669 H 0.21506 0.72419 0.12511 0.0
H2670 H 0.7182 0.89943 0.88399 0.0
H2671 H 0.70973 0.91858 0.85333 0.0
H2672 H 0.60263 0.92109 0.86185 0.0
H2673 H 0.61091 0.90273 0.89261 0.0
H2674 H 0.62683 0.8903 0.82743 0.0
H2675 H 0.6382 0.991 0.86416 0.0
H2676 H 0.66907 0.02486 0.88621 0.0
H2677 H 0.75511 0.02824 0.85187 0.0
H2678 H 0.72488 -0.00603 0.82972 0.0
H2679 H 0.57805 0.98003 0.74977 0.0
H2680 H 0.58441 0.9576 0.7799 0.0
H2681 H 0.68504 -0.00148 0.78224 0.0
H2682 H 0.67735 0.0233 0.75294 0.0
H2683 H 0.6644 0.00574 0.81188 0.0
H2684 H 0.66066 0.90759 0.77567 0.0
H2685 H 0.6384 0.86797 0.75342 0.0
H2686 H 0.54977 0.85281 0.78497 0.0
H2687 H 0.57133 0.89267 0.80731 0.0
C2688 C 0.6928 0.90363 0.87929 0.0
C2689 C 0.66524 0.8995 0.89081 0.0
C2690 C 0.688 0.91469 0.86175 0.0
C2691 C 0.65551 0.92131 0.85523 0.0
C2692 C 0.6279 0.91606 0.86652 0.0
C2693 C 0.63271 0.90567 0.88414 0.0
C2694 C 0.65041 0.93542 0.83701 0.0
C2695 C 0.63468 0.91566 0.82401 0.0
C2696 C 0.66175 0.96802 0.83234 0.0
C2697 C 0.67937 0.98973 0.84535 0.0
C2698 C 0.66375 -0.00114 0.86135 0.0
C2699 C 0.68112 0.01812 0.87386 0.0
C2700 C 0.71406 0.02863 0.87046 0.0
C2701 C 0.72961 0.02007 0.85449 0.0
C2702 C 0.71235 0.00076 0.84194 0.0
C2703 C 0.60141 0.9843 0.75681 0.0
C2704 C 0.62712 0.00354 0.74897 0.0
C2705 C 0.60529 0.97111 0.77404 0.0
C2706 C 0.63562 0.97545 0.78355 0.0
C2707 C 0.66126 -0.00533 0.77553 0.0
C2708 C 0.6569 0.00883 0.75864 0.0
C2709 C 0.64074 0.96061 0.80184 0.0
C2710 C 0.65648 0.98028 0.81501 0.0
C2711 C 0.63051 0.92737 0.80645 0.0
C2712 C 0.61745 0.90339 0.79307 0.0
C2713 C 0.63632 0.89597 0.7778 0.0
C2714 C 0.62384 0.87346 0.76519 0.0
C2715 C 0.59264 0.85796 0.76776 0.0
C2716 C 0.5739 0.86488 0.78298 0.0
C2717 C 0.58625 0.88741 0.79563 0.0
H2718 H 0.58302 0.84054 0.75797 0.0
H2719 H 0.72751 0.04345 0.88019 0.0
loop_
_geom_bond_atom_site_label_1
_geom_bond_atom_site_label_2
_geom_bond_distance
_geom_bond_site_symmetry_2
_ccdc_geom_bond_type
Dy0 O4 2.398 . S
Dy0 O5 2.491 . S
Dy0 O6 2.403 . S
Dy0 O7 2.664 . S
Dy0 O11 2.326 . S
Dy0 O15 2.310 . S
Dy0 O16 2.351 . S
C1 O12 1.185 . S
C1 O13 1.355 . S
C2 O4 1.185 . S
C2 O5 1.355 . S
Dy3 O7 2.310 . S
Dy3 O10 2.351 . S
Dy3 O12 2.398 . S
Dy3 O13 2.491 . S
Dy3 O14 2.403 . S
Dy3 O15 2.664 . S
Dy3 O17 2.326 . S
O4 Dy0 2.398 . S
O4 C2 1.185 . S
O5 Dy0 2.491 . S
O5 C2 1.355 . S
O6 Dy0 2.403 . S
O6 C8 1.254 . S
O7 Dy0 2.664 . S
O7 Dy3 2.310 . S
O7 C8 1.268 . S
C8 O6 1.254 . S
C8 O7 1.268 . S
C9 O14 1.254 . S
C9 O15 1.268 . S
O10 Dy3 2.351 . S
O10 C18 1.249 . S
O11 Dy0 2.326 . S
O11 C18 1.267 . S
O12 C1 1.185 . S
O12 Dy3 2.398 . S
O13 C1 1.355 . S
O13 Dy3 2.491 . S
O14 Dy3 2.403 . S
O14 C9 1.254 . S
O15 Dy0 2.310 . S
O15 Dy3 2.664 . S
O15 C9 1.268 . S
O16 Dy0 2.351 . S
O16 C19 1.249 . S
O17 Dy3 2.326 . S
O17 C19 1.267 . S
C18 O10 1.249 . S
C18 O11 1.267 . S
C19 O16 1.249 . S
C19 O17 1.267 . S
Dy20 O24 2.398 . S
Dy20 O25 2.491 . S
Dy20 O26 2.403 . S
Dy20 O27 2.664 . S
Dy20 O31 2.326 . S
Dy20 O35 2.310 . S
Dy20 O36 2.351 . S
C21 O32 1.185 . S
C21 O33 1.355 . S
C22 O24 1.185 . S
C22 O25 1.355 . S
Dy23 O27 2.310 . S
Dy23 O30 2.351 . S
Dy23 O32 2.398 . S
Dy23 O33 2.491 . S
Dy23 O34 2.403 . S
Dy23 O35 2.664 . S
Dy23 O37 2.326 . S
O24 Dy20 2.398 . S
O24 C22 1.185 . S
O25 Dy20 2.491 . S
O25 C22 1.355 . S
O26 Dy20 2.403 . S
O26 C28 1.254 . S
O27 Dy20 2.664 . S
O27 Dy23 2.310 . S
O27 C28 1.268 . S
C28 O26 1.254 . S
C28 O27 1.268 . S
C29 O34 1.254 . S
C29 O35 1.268 . S
O30 Dy23 2.351 . S
O30 C38 1.249 . S
O31 Dy20 2.326 . S
O31 C38 1.267 . S
O32 C21 1.185 . S
O32 Dy23 2.398 . S
O33 C21 1.355 . S
O33 Dy23 2.491 . S
O34 Dy23 2.403 . S
O34 C29 1.254 . S
O35 Dy20 2.310 . S
O35 Dy23 2.664 . S
O35 C29 1.268 . S
O36 Dy20 2.351 . S
O36 C39 1.249 . S
O37 Dy23 2.326 . S
O37 C39 1.267 . S
C38 O30 1.249 . S
C38 O31 1.267 . S
C39 O36 1.249 . S
C39 O37 1.267 . S
Dy40 O44 2.398 . S
Dy40 O45 2.491 . S
Dy40 O46 2.403 . S
Dy40 O47 2.664 . S
Dy40 O51 2.326 . S
Dy40 O55 2.310 . S
Dy40 O56 2.351 . S
C41 O52 1.185 . S
C41 O53 1.355 . S
C42 O44 1.185 . S
C42 O45 1.355 . S
Dy43 O47 2.310 . S
Dy43 O50 2.351 . S
Dy43 O52 2.398 . S
Dy43 O53 2.491 . S
Dy43 O54 2.403 . S
Dy43 O55 2.664 . S
Dy43 O57 2.326 . S
O44 Dy40 2.398 . S
O44 C42 1.185 . S
O45 Dy40 2.491 . S
O45 C42 1.355 . S
O46 Dy40 2.403 . S
O46 C48 1.254 . S
O47 Dy40 2.664 . S
O47 Dy43 2.310 . S
O47 C48 1.268 . S
C48 O46 1.254 . S
C48 O47 1.268 . S
C49 O54 1.254 . S
C49 O55 1.268 . S
O50 Dy43 2.351 . S
O50 C58 1.249 . S
O51 Dy40 2.326 . S
O51 C58 1.267 . S
O52 C41 1.185 . S
O52 Dy43 2.398 . S
O53 C41 1.355 . S
O53 Dy43 2.491 . S
O54 Dy43 2.403 . S
O54 C49 1.254 . S
O55 Dy40 2.310 . S
O55 Dy43 2.664 . S
O55 C49 1.268 . S
O56 Dy40 2.351 . S
O56 C59 1.249 . S
O57 Dy43 2.326 . S
O57 C59 1.267 . S
C58 O50 1.249 . S
C58 O51 1.267 . S
C59 O56 1.249 . S
C59 O57 1.267 . S
Dy60 O64 2.398 . S
Dy60 O65 2.491 . S
Dy60 O66 2.403 . S
Dy60 O67 2.664 . S
Dy60 O71 2.326 . S
Dy60 O75 2.310 . S
Dy60 O76 2.351 . S
C61 O72 1.185 . S
C61 O73 1.355 . S
C62 O64 1.185 . S
C62 O65 1.355 . S
Dy63 O67 2.310 . S
Dy63 O70 2.351 . S
Dy63 O72 2.398 . S
Dy63 O73 2.491 . S
Dy63 O74 2.403 . S
Dy63 O75 2.664 . S
Dy63 O77 2.326 . S
O64 Dy60 2.398 . S
O64 C62 1.185 . S
O65 Dy60 2.491 . S
O65 C62 1.355 . S
O66 Dy60 2.403 . S
O66 C68 1.254 . S
O67 Dy60 2.664 . S
O67 Dy63 2.310 . S
O67 C68 1.268 . S
C68 O66 1.254 . S
C68 O67 1.268 . S
C69 O74 1.254 . S
C69 O75 1.268 . S
O70 Dy63 2.351 . S
O70 C78 1.249 . S
O71 Dy60 2.326 . S
O71 C78 1.267 . S
O72 C61 1.185 . S
O72 Dy63 2.398 . S
O73 C61 1.355 . S
O73 Dy63 2.491 . S
O74 Dy63 2.403 . S
O74 C69 1.254 . S
O75 Dy60 2.310 . S
O75 Dy63 2.664 . S
O75 C69 1.268 . S
O76 Dy60 2.351 . S
O76 C79 1.249 . S
O77 Dy63 2.326 . S
O77 C79 1.267 . S
C78 O70 1.249 . S
C78 O71 1.267 . S
C79 O76 1.249 . S
C79 O77 1.267 . S
Dy80 O84 2.398 . S
Dy80 O85 2.491 . S
Dy80 O86 2.403 . S
Dy80 O87 2.664 . S
Dy80 O91 2.326 . S
Dy80 O95 2.310 . S
Dy80 O96 2.351 . S
C81 O92 1.185 . S
C81 O93 1.355 . S
C82 O84 1.185 . S
C82 O85 1.355 . S
Dy83 O87 2.310 . S
Dy83 O90 2.351 . S
Dy83 O92 2.398 . S
Dy83 O93 2.491 . S
Dy83 O94 2.403 . S
Dy83 O95 2.664 . S
Dy83 O97 2.326 . S
O84 Dy80 2.398 . S
O84 C82 1.185 . S
O85 Dy80 2.491 . S
O85 C82 1.355 . S
O86 Dy80 2.403 . S
O86 C88 1.254 . S
O87 Dy80 2.664 . S
O87 Dy83 2.310 . S
O87 C88 1.268 . S
C88 O86 1.254 . S
C88 O87 1.268 . S
C89 O94 1.254 . S
C89 O95 1.268 . S
O90 Dy83 2.351 . S
O90 C98 1.249 . S
O91 Dy80 2.326 . S
O91 C98 1.267 . S
O92 C81 1.185 . S
O92 Dy83 2.398 . S
O93 C81 1.355 . S
O93 Dy83 2.491 . S
O94 Dy83 2.403 . S
O94 C89 1.254 . S
O95 Dy80 2.310 . S
O95 Dy83 2.664 . S
O95 C89 1.268 . S
O96 Dy80 2.351 . S
O96 C99 1.249 . S
O97 Dy83 2.326 . S
O97 C99 1.267 . S
C98 O90 1.249 . S
C98 O91 1.267 . S
C99 O96 1.249 . S
C99 O97 1.267 . S
Dy100 O104 2.398 . S
Dy100 O105 2.491 . S
Dy100 O106 2.403 . S
Dy100 O107 2.664 . S
Dy100 O111 2.326 . S
Dy100 O115 2.310 . S
Dy100 O116 2.351 . S
C101 O112 1.185 . S
C101 O113 1.355 . S
C102 O104 1.185 . S
C102 O105 1.355 . S
Dy103 O107 2.310 . S
Dy103 O110 2.351 . S
Dy103 O112 2.398 . S
Dy103 O113 2.491 . S
Dy103 O114 2.403 . S
Dy103 O115 2.664 . S
Dy103 O117 2.326 . S
O104 Dy100 2.398 . S
O104 C102 1.185 . S
O105 Dy100 2.491 . S
O105 C102 1.355 . S
O106 Dy100 2.403 . S
O106 C108 1.254 . S
O107 Dy100 2.664 . S
O107 Dy103 2.310 . S
O107 C108 1.268 . S
C108 O106 1.254 . S
C108 O107 1.268 . S
C109 O114 1.254 . S
C109 O115 1.268 . S
O110 Dy103 2.351 . S
O110 C118 1.249 . S
O111 Dy100 2.326 . S
O111 C118 1.267 . S
O112 C101 1.185 . S
O112 Dy103 2.398 . S
O113 C101 1.355 . S
O113 Dy103 2.491 . S
O114 Dy103 2.403 . S
O114 C109 1.254 . S
O115 Dy100 2.310 . S
O115 Dy103 2.664 . S
O115 C109 1.268 . S
O116 Dy100 2.351 . S
O116 C119 1.249 . S
O117 Dy103 2.326 . S
O117 C119 1.267 . S
C118 O110 1.249 . S
C118 O111 1.267 . S
C119 O116 1.249 . S
C119 O117 1.267 . S
Dy120 O124 2.398 . S
Dy120 O125 2.491 . S
Dy120 O126 2.403 . S
Dy120 O127 2.664 . S
Dy120 O131 2.326 . S
Dy120 O135 2.310 . S
Dy120 O136 2.351 . S
C121 O132 1.185 . S
C121 O133 1.355 . S
C122 O124 1.185 . S
C122 O125 1.355 . S
Dy123 O127 2.310 . S
Dy123 O130 2.351 . S
Dy123 O132 2.398 . S
Dy123 O133 2.491 . S
Dy123 O134 2.403 . S
Dy123 O135 2.664 . S
Dy123 O137 2.326 . S
O124 Dy120 2.398 . S
O124 C122 1.185 . S
O125 Dy120 2.491 . S
O125 C122 1.355 . S
O126 Dy120 2.403 . S
O126 C128 1.254 . S
O127 Dy120 2.664 . S
O127 Dy123 2.310 . S
O127 C128 1.268 . S
C128 O126 1.254 . S
C128 O127 1.268 . S
C129 O134 1.254 . S
C129 O135 1.268 . S
O130 Dy123 2.351 . S
O130 C138 1.249 . S
O131 Dy120 2.326 . S
O131 C138 1.267 . S
O132 C121 1.185 . S
O132 Dy123 2.398 . S
O133 C121 1.355 . S
O133 Dy123 2.491 . S
O134 Dy123 2.403 . S
O134 C129 1.254 . S
O135 Dy120 2.310 . S
O135 Dy123 2.664 . S
O135 C129 1.268 . S
O136 Dy120 2.351 . S
O136 C139 1.249 . S
O137 Dy123 2.326 . S
O137 C139 1.267 . S
C138 O130 1.249 . S
C138 O131 1.267 . S
C139 O136 1.249 . S
C139 O137 1.267 . S
Dy140 O144 2.398 . S
Dy140 O145 2.491 . S
Dy140 O146 2.403 . S
Dy140 O147 2.664 . S
Dy140 O151 2.326 . S
Dy140 O155 2.310 . S
Dy140 O156 2.351 . S
C141 O152 1.185 . S
C141 O153 1.355 . S
C142 O144 1.185 . S
C142 O145 1.355 . S
Dy143 O147 2.310 . S
Dy143 O150 2.351 . S
Dy143 O152 2.398 . S
Dy143 O153 2.491 . S
Dy143 O154 2.403 . S
Dy143 O155 2.664 . S
Dy143 O157 2.326 . S
O144 Dy140 2.398 . S
O144 C142 1.185 . S
O145 Dy140 2.491 . S
O145 C142 1.355 . S
O146 Dy140 2.403 . S
O146 C148 1.254 . S
O147 Dy140 2.664 . S
O147 Dy143 2.310 . S
O147 C148 1.268 . S
C148 O146 1.254 . S
C148 O147 1.268 . S
C149 O154 1.254 . S
C149 O155 1.268 . S
O150 Dy143 2.351 . S
O150 C158 1.249 . S
O151 Dy140 2.326 . S
O151 C158 1.267 . S
O152 C141 1.185 . S
O152 Dy143 2.398 . S
O153 C141 1.355 . S
O153 Dy143 2.491 . S
O154 Dy143 2.403 . S
O154 C149 1.254 . S
O155 Dy140 2.310 . S
O155 Dy143 2.664 . S
O155 C149 1.268 . S
O156 Dy140 2.351 . S
O156 C159 1.249 . S
O157 Dy143 2.326 . S
O157 C159 1.267 . S
C158 O150 1.249 . S
C158 O151 1.267 . S
C159 O156 1.249 . S
C159 O157 1.267 . S
Dy160 O164 2.398 . S
Dy160 O165 2.491 . S
Dy160 O166 2.403 . S
Dy160 O167 2.664 . S
Dy160 O171 2.326 . S
Dy160 O175 2.310 . S
Dy160 O176 2.351 . S
C161 O172 1.185 . S
C161 O173 1.355 . S
C162 O164 1.185 . S
C162 O165 1.355 . S
Dy163 O167 2.310 . S
Dy163 O170 2.351 . S
Dy163 O172 2.398 . S
Dy163 O173 2.491 . S
Dy163 O174 2.403 . S
Dy163 O175 2.664 . S
Dy163 O177 2.326 . S
O164 Dy160 2.398 . S
O164 C162 1.185 . S
O165 Dy160 2.491 . S
O165 C162 1.355 . S
O166 Dy160 2.403 . S
O166 C168 1.254 . S
O167 Dy160 2.664 . S
O167 Dy163 2.310 . S
O167 C168 1.268 . S
C168 O166 1.254 . S
C168 O167 1.268 . S
C169 O174 1.254 . S
C169 O175 1.268 . S
O170 Dy163 2.351 . S
O170 C178 1.249 . S
O171 Dy160 2.326 . S
O171 C178 1.267 . S
O172 C161 1.185 . S
O172 Dy163 2.398 . S
O173 C161 1.355 . S
O173 Dy163 2.491 . S
O174 Dy163 2.403 . S
O174 C169 1.254 . S
O175 Dy160 2.310 . S
O175 Dy163 2.664 . S
O175 C169 1.268 . S
O176 Dy160 2.351 . S
O176 C179 1.249 . S
O177 Dy163 2.326 . S
O177 C179 1.267 . S
C178 O170 1.249 . S
C178 O171 1.267 . S
C179 O176 1.249 . S
C179 O177 1.267 . S
Dy180 O184 2.398 . S
Dy180 O185 2.489 1_545 S
Dy180 O186 2.403 . S
Dy180 O187 2.664 . S
Dy180 O191 2.326 . S
Dy180 O195 2.310 . S
Dy180 O196 2.351 . S
C181 O192 1.185 . S
C181 O193 1.355 . S
C182 O184 1.185 . S
C182 O185 1.354 1_545 S
Dy183 O187 2.310 . S
Dy183 O190 2.351 . S
Dy183 O192 2.398 . S
Dy183 O193 2.491 . S
Dy183 O194 2.403 . S
Dy183 O195 2.664 . S
Dy183 O197 2.326 . S
O184 Dy180 2.398 . S
O184 C182 1.185 . S
O185 Dy180 2.489 1_565 S
O185 C182 1.354 1_565 S
O186 Dy180 2.403 . S
O186 C188 1.254 . S
O187 Dy180 2.664 . S
O187 Dy183 2.310 . S
O187 C188 1.268 . S
C188 O186 1.254 . S
C188 O187 1.268 . S
C189 O194 1.254 . S
C189 O195 1.268 . S
O190 Dy183 2.351 . S
O190 C198 1.249 . S
O191 Dy180 2.326 . S
O191 C198 1.267 . S
O192 C181 1.185 . S
O192 Dy183 2.398 . S
O193 C181 1.355 . S
O193 Dy183 2.491 . S
O194 Dy183 2.403 . S
O194 C189 1.254 . S
O195 Dy180 2.310 . S
O195 Dy183 2.664 . S
O195 C189 1.268 . S
O196 Dy180 2.351 . S
O196 C199 1.249 . S
O197 Dy183 2.326 . S
O197 C199 1.267 . S
C198 O190 1.249 . S
C198 O191 1.267 . S
C199 O196 1.249 . S
C199 O197 1.267 . S
Dy200 O204 2.398 . S
Dy200 O205 2.491 . S
Dy200 O206 2.403 . S
Dy200 O207 2.664 . S
Dy200 O211 2.326 . S
Dy200 O215 2.310 . S
Dy200 O216 2.351 . S
C201 O212 1.185 . S
C201 O213 1.355 . S
C202 O204 1.185 . S
C202 O205 1.355 . S
Dy203 O207 2.310 . S
Dy203 O210 2.351 . S
Dy203 O212 2.398 . S
Dy203 O213 2.491 . S
Dy203 O214 2.403 . S
Dy203 O215 2.664 . S
Dy203 O217 2.326 . S
O204 Dy200 2.398 . S
O204 C202 1.185 . S
O205 Dy200 2.491 . S
O205 C202 1.355 . S
O206 Dy200 2.403 . S
O206 C208 1.254 . S
O207 Dy200 2.664 . S
O207 Dy203 2.310 . S
O207 C208 1.268 . S
C208 O206 1.254 . S
C208 O207 1.268 . S
C209 O214 1.254 . S
C209 O215 1.268 . S
O210 Dy203 2.351 . S
O210 C218 1.249 . S
O211 Dy200 2.326 . S
O211 C218 1.267 . S
O212 C201 1.185 . S
O212 Dy203 2.398 . S
O213 C201 1.355 . S
O213 Dy203 2.491 . S
O214 Dy203 2.403 . S
O214 C209 1.254 . S
O215 Dy200 2.310 . S
O215 Dy203 2.664 . S
O215 C209 1.268 . S
O216 Dy200 2.351 . S
O216 C219 1.249 . S
O217 Dy203 2.326 . S
O217 C219 1.267 . S
C218 O210 1.249 . S
C218 O211 1.267 . S
C219 O216 1.249 . S
C219 O217 1.267 . S
Dy220 O224 2.398 . S
Dy220 O225 2.489 1_565 S
Dy220 O226 2.403 . S
Dy220 O227 2.664 . S
Dy220 O231 2.326 . S
Dy220 O235 2.310 . S
Dy220 O236 2.351 . S
C221 O232 1.185 . S
C221 O233 1.355 . S
C222 O224 1.185 . S
C222 O225 1.354 1_565 S
Dy223 O227 2.310 . S
Dy223 O230 2.351 . S
Dy223 O232 2.398 . S
Dy223 O233 2.491 . S
Dy223 O234 2.403 . S
Dy223 O235 2.664 . S
Dy223 O237 2.326 . S
O224 Dy220 2.398 . S
O224 C222 1.185 . S
O225 Dy220 2.489 1_545 S
O225 C222 1.354 1_545 S
O226 Dy220 2.403 . S
O226 C228 1.254 . S
O227 Dy220 2.664 . S
O227 Dy223 2.310 . S
O227 C228 1.268 . S
C228 O226 1.254 . S
C228 O227 1.268 . S
C229 O234 1.254 . S
C229 O235 1.268 . S
O230 Dy223 2.351 . S
O230 C238 1.249 . S
O231 Dy220 2.326 . S
O231 C238 1.267 . S
O232 C221 1.185 . S
O232 Dy223 2.398 . S
O233 C221 1.355 . S
O233 Dy223 2.491 . S
O234 Dy223 2.403 . S
O234 C229 1.254 . S
O235 Dy220 2.310 . S
O235 Dy223 2.664 . S
O235 C229 1.268 . S
O236 Dy220 2.351 . S
O236 C239 1.249 . S
O237 Dy223 2.326 . S
O237 C239 1.267 . S
C238 O230 1.249 . S
C238 O231 1.267 . S
C239 O236 1.249 . S
C239 O237 1.267 . S
Dy240 O244 2.398 . S
Dy240 O245 2.491 . S
Dy240 O246 2.403 . S
Dy240 O247 2.664 . S
Dy240 O251 2.326 . S
Dy240 O255 2.310 . S
Dy240 O256 2.351 . S
C241 O252 1.185 . S
C241 O253 1.355 . S
C242 O244 1.185 . S
C242 O245 1.355 . S
Dy243 O247 2.310 . S
Dy243 O250 2.351 . S
Dy243 O252 2.398 . S
Dy243 O253 2.491 . S
Dy243 O254 2.403 . S
Dy243 O255 2.664 . S
Dy243 O257 2.326 . S
O244 Dy240 2.398 . S
O244 C242 1.185 . S
O245 Dy240 2.491 . S
O245 C242 1.355 . S
O246 Dy240 2.403 . S
O246 C248 1.254 . S
O247 Dy240 2.664 . S
O247 Dy243 2.310 . S
O247 C248 1.268 . S
C248 O246 1.254 . S
C248 O247 1.268 . S
C249 O254 1.254 . S
C249 O255 1.268 . S
O250 Dy243 2.351 . S
O250 C258 1.249 . S
O251 Dy240 2.326 . S
O251 C258 1.267 . S
O252 C241 1.185 . S
O252 Dy243 2.398 . S
O253 C241 1.355 . S
O253 Dy243 2.491 . S
O254 Dy243 2.403 . S
O254 C249 1.254 . S
O255 Dy240 2.310 . S
O255 Dy243 2.664 . S
O255 C249 1.268 . S
O256 Dy240 2.351 . S
O256 C259 1.249 . S
O257 Dy243 2.326 . S
O257 C259 1.267 . S
C258 O250 1.249 . S
C258 O251 1.267 . S
C259 O256 1.249 . S
C259 O257 1.267 . S
Dy260 O264 2.398 . S
Dy260 O265 2.491 . S
Dy260 O266 2.403 . S
Dy260 O267 2.664 . S
Dy260 O271 2.326 . S
Dy260 O275 2.310 . S
Dy260 O276 2.351 . S
C261 O272 1.185 . S
C261 O273 1.354 1_565 S
C262 O264 1.185 . S
C262 O265 1.355 . S
Dy263 O267 2.310 . S
Dy263 O270 2.351 . S
Dy263 O272 2.398 . S
Dy263 O273 2.489 1_565 S
Dy263 O274 2.403 . S
Dy263 O275 2.664 . S
Dy263 O277 2.326 . S
O264 Dy260 2.398 . S
O264 C262 1.185 . S
O265 Dy260 2.491 . S
O265 C262 1.355 . S
O266 Dy260 2.403 . S
O266 C268 1.254 . S
O267 Dy260 2.664 . S
O267 Dy263 2.310 . S
O267 C268 1.268 . S
C268 O266 1.254 . S
C268 O267 1.268 . S
C269 O274 1.254 . S
C269 O275 1.268 . S
O270 Dy263 2.351 . S
O270 C278 1.249 . S
O271 Dy260 2.326 . S
O271 C278 1.267 . S
O272 C261 1.185 . S
O272 Dy263 2.398 . S
O273 C261 1.354 1_545 S
O273 Dy263 2.489 1_545 S
O274 Dy263 2.403 . S
O274 C269 1.254 . S
O275 Dy260 2.310 . S
O275 Dy263 2.664 . S
O275 C269 1.268 . S
O276 Dy260 2.351 . S
O276 C279 1.249 . S
O277 Dy263 2.326 . S
O277 C279 1.267 . S
C278 O270 1.249 . S
C278 O271 1.267 . S
C279 O276 1.249 . S
C279 O277 1.267 . S
Dy280 O284 2.398 . S
Dy280 O285 2.491 . S
Dy280 O286 2.403 . S
Dy280 O287 2.664 . S
Dy280 O291 2.326 . S
Dy280 O295 2.310 . S
Dy280 O296 2.351 . S
C281 O292 1.185 . S
C281 O293 1.355 . S
C282 O284 1.185 . S
C282 O285 1.355 . S
Dy283 O287 2.310 . S
Dy283 O290 2.351 . S
Dy283 O292 2.398 . S
Dy283 O293 2.491 . S
Dy283 O294 2.403 . S
Dy283 O295 2.664 . S
Dy283 O297 2.326 . S
O284 Dy280 2.398 . S
O284 C282 1.185 . S
O285 Dy280 2.491 . S
O285 C282 1.355 . S
O286 Dy280 2.403 . S
O286 C288 1.254 . S
O287 Dy280 2.664 . S
O287 Dy283 2.310 . S
O287 C288 1.268 . S
C288 O286 1.254 . S
C288 O287 1.268 . S
C289 O294 1.254 . S
C289 O295 1.268 . S
O290 Dy283 2.351 . S
O290 C298 1.249 . S
O291 Dy280 2.326 . S
O291 C298 1.267 . S
O292 C281 1.185 . S
O292 Dy283 2.398 . S
O293 C281 1.355 . S
O293 Dy283 2.491 . S
O294 Dy283 2.403 . S
O294 C289 1.254 . S
O295 Dy280 2.310 . S
O295 Dy283 2.664 . S
O295 C289 1.268 . S
O296 Dy280 2.351 . S
O296 C299 1.249 . S
O297 Dy283 2.326 . S
O297 C299 1.267 . S
C298 O290 1.249 . S
C298 O291 1.267 . S
C299 O296 1.249 . S
C299 O297 1.267 . S
Dy300 O304 2.398 . S
Dy300 O305 2.491 . S
Dy300 O306 2.403 . S
Dy300 O307 2.664 . S
Dy300 O311 2.326 . S
Dy300 O315 2.310 . S
Dy300 O316 2.351 . S
C301 O312 1.185 . S
C301 O313 1.354 1_545 S
C302 O304 1.185 . S
C302 O305 1.355 . S
Dy303 O307 2.310 . S
Dy303 O310 2.351 . S
Dy303 O312 2.398 . S
Dy303 O313 2.489 1_545 S
Dy303 O314 2.403 . S
Dy303 O315 2.664 . S
Dy303 O317 2.326 . S
O304 Dy300 2.398 . S
O304 C302 1.185 . S
O305 Dy300 2.491 . S
O305 C302 1.355 . S
O306 Dy300 2.403 . S
O306 C308 1.254 . S
O307 Dy300 2.664 . S
O307 Dy303 2.310 . S
O307 C308 1.268 . S
C308 O306 1.254 . S
C308 O307 1.268 . S
C309 O314 1.254 . S
C309 O315 1.268 . S
O310 Dy303 2.351 . S
O310 C318 1.249 . S
O311 Dy300 2.326 . S
O311 C318 1.267 . S
O312 C301 1.185 . S
O312 Dy303 2.398 . S
O313 C301 1.354 1_565 S
O313 Dy303 2.489 1_565 S
O314 Dy303 2.403 . S
O314 C309 1.254 . S
O315 Dy300 2.310 . S
O315 Dy303 2.664 . S
O315 C309 1.268 . S
O316 Dy300 2.351 . S
O316 C319 1.249 . S
O317 Dy303 2.326 . S
O317 C319 1.267 . S
C318 O310 1.249 . S
C318 O311 1.267 . S
C319 O316 1.249 . S
C319 O317 1.267 . S
H320 C338 0.951 . S
H321 C340 0.951 . S
H322 C342 0.950 . S
H323 C343 0.950 . S
H324 C345 0.950 . S
H325 C348 0.950 . S
H326 C349 0.950 . S
H327 C351 0.950 . S
H328 C352 0.950 . S
H329 C353 0.951 . S
H330 C355 0.951 . S
H331 C357 0.950 . S
H332 C358 0.950 . S
H333 C360 0.950 . S
H334 C363 0.950 . S
H335 C364 0.950 . S
H336 C366 0.950 . S
H337 C367 0.950 . S
C338 H320 0.951 . S
C338 C339 1.366 . S
C338 C340 1.388 . S
C339 C338 1.366 . S
C339 C343 1.385 . S
C340 H321 0.951 . S
C340 C338 1.388 . S
C340 C341 1.366 . S
C341 C340 1.366 . S
C341 C342 1.414 . S
C341 C344 1.499 . S
C342 H322 0.950 . S
C342 C341 1.414 . S
C342 C343 1.374 . S
C343 H323 0.950 . S
C343 C339 1.385 . S
C343 C342 1.374 . S
C344 C341 1.499 . S
C344 C345 1.373 . S
C344 C346 1.389 . S
C345 H324 0.950 . S
C345 C344 1.373 . S
C345 C361 1.377 . S
C346 C344 1.389 . S
C346 C347 1.524 . S
C346 C360 1.377 . S
C347 C346 1.524 . S
C347 C348 1.397 . S
C347 C352 1.363 . S
C348 H325 0.950 . S
C348 C347 1.397 . S
C348 C349 1.334 . S
C349 H326 0.950 . S
C349 C348 1.334 . S
C349 C350 1.287 . S
C350 C349 1.287 . S
C350 C351 1.524 . S
C350 H369 0.941 . S
C351 H327 0.950 . S
C351 C350 1.524 . S
C351 C352 1.415 . S
C352 H328 0.950 . S
C352 C347 1.363 . S
C352 C351 1.415 . S
C353 H329 0.951 . S
C353 C354 1.366 . S
C353 C355 1.388 . S
C354 C353 1.366 . S
C354 C358 1.385 . S
C355 H330 0.951 . S
C355 C353 1.388 . S
C355 C356 1.366 . S
C356 C355 1.366 . S
C356 C357 1.414 . S
C356 C359 1.499 . S
C357 H331 0.950 . S
C357 C356 1.414 . S
C357 C358 1.374 . S
C358 H332 0.950 . S
C358 C354 1.385 . S
C358 C357 1.374 . S
C359 C356 1.499 . S
C359 C360 1.373 . S
C359 C361 1.389 . S
C360 H333 0.950 . S
C360 C346 1.377 . S
C360 C359 1.373 . S
C361 C345 1.377 . S
C361 C359 1.389 . S
C361 C362 1.524 . S
C362 C361 1.524 . S
C362 C363 1.397 . S
C362 C367 1.363 . S
C363 H334 0.950 . S
C363 C362 1.397 . S
C363 C364 1.334 . S
C364 H335 0.950 . S
C364 C363 1.334 . S
C364 C365 1.287 . S
C365 C364 1.287 . S
C365 C366 1.524 . S
C365 H368 0.999 . S
C366 H336 0.950 . S
C366 C365 1.524 . S
C366 C367 1.415 . S
C367 H337 0.950 . S
C367 C362 1.363 . S
C367 C366 1.415 . S
H368 C365 0.999 . S
H369 C350 0.941 . S
H370 C388 0.951 . S
H371 C390 0.951 . S
H372 C392 0.950 . S
H373 C393 0.950 . S
H374 C395 0.950 . S
H375 C398 0.950 . S
H376 C399 0.950 . S
H377 C401 0.950 . S
H378 C402 0.950 . S
H379 C403 0.951 . S
H380 C405 0.951 . S
H381 C407 0.950 . S
H382 C408 0.950 . S
H383 C410 0.950 . S
H384 C413 0.950 . S
H385 C414 0.950 . S
H386 C416 0.950 . S
H387 C417 0.950 . S
C388 H370 0.951 . S
C388 C389 1.366 . S
C388 C390 1.388 . S
C389 C388 1.366 . S
C389 C393 1.385 . S
C390 H371 0.951 . S
C390 C388 1.388 . S
C390 C391 1.366 . S
C391 C390 1.366 . S
C391 C392 1.414 . S
C391 C394 1.499 . S
C392 H372 0.950 . S
C392 C391 1.414 . S
C392 C393 1.374 . S
C393 H373 0.950 . S
C393 C389 1.385 . S
C393 C392 1.374 . S
C394 C391 1.499 . S
C394 C395 1.373 . S
C394 C396 1.389 . S
C395 H374 0.950 . S
C395 C394 1.373 . S
C395 C411 1.377 . S
C396 C394 1.389 . S
C396 C397 1.524 . S
C396 C410 1.377 . S
C397 C396 1.524 . S
C397 C398 1.397 . S
C397 C402 1.363 . S
C398 H375 0.950 . S
C398 C397 1.397 . S
C398 C399 1.334 . S
C399 H376 0.950 . S
C399 C398 1.334 . S
C399 C400 1.287 . S
C400 C399 1.287 . S
C400 C401 1.524 . S
C400 H419 0.913 . S
C401 H377 0.950 . S
C401 C400 1.524 . S
C401 C402 1.415 . S
C402 H378 0.950 . S
C402 C397 1.363 . S
C402 C401 1.415 . S
C403 H379 0.951 . S
C403 C404 1.366 . S
C403 C405 1.388 . S
C404 C403 1.366 . S
C404 C408 1.385 . S
C405 H380 0.951 . S
C405 C403 1.388 . S
C405 C406 1.366 . S
C406 C405 1.366 . S
C406 C407 1.414 . S
C406 C409 1.499 . S
C407 H381 0.950 . S
C407 C406 1.414 . S
C407 C408 1.374 . S
C408 H382 0.950 . S
C408 C404 1.385 . S
C408 C407 1.374 . S
C409 C406 1.499 . S
C409 C410 1.373 . S
C409 C411 1.389 . S
C410 H383 0.950 . S
C410 C396 1.377 . S
C410 C409 1.373 . S
C411 C395 1.377 . S
C411 C409 1.389 . S
C411 C412 1.524 . S
C412 C411 1.524 . S
C412 C413 1.397 . S
C412 C417 1.363 . S
C413 H384 0.950 . S
C413 C412 1.397 . S
C413 C414 1.334 . S
C414 H385 0.950 . S
C414 C413 1.334 . S
C414 C415 1.287 . S
C415 C414 1.287 . S
C415 C416 1.524 . S
C415 H418 0.999 . S
C416 H386 0.950 . S
C416 C415 1.524 . S
C416 C417 1.415 . S
C417 H387 0.950 . S
C417 C412 1.363 . S
C417 C416 1.415 . S
H418 C415 0.999 . S
H419 C400 0.913 . S
H420 C438 0.951 . S
H421 C440 0.951 . S
H422 C442 0.950 . S
H423 C443 0.950 . S
H424 C445 0.950 . S
H425 C448 0.950 . S
H426 C449 0.950 . S
H427 C451 0.950 . S
H428 C452 0.950 . S
H429 C453 0.951 . S
H430 C455 0.951 . S
H431 C457 0.950 . S
H432 C458 0.950 . S
H433 C460 0.950 . S
H434 C463 0.950 . S
H435 C464 0.950 . S
H436 C466 0.950 . S
H437 C467 0.950 . S
C438 H420 0.951 . S
C438 C439 1.366 . S
C438 C440 1.388 . S
C439 C438 1.366 . S
C439 C443 1.385 . S
C440 H421 0.951 . S
C440 C438 1.388 . S
C440 C441 1.366 . S
C441 C440 1.366 . S
C441 C442 1.414 . S
C441 C444 1.499 . S
C442 H422 0.950 . S
C442 C441 1.414 . S
C442 C443 1.374 . S
C443 H423 0.950 . S
C443 C439 1.385 . S
C443 C442 1.374 . S
C444 C441 1.499 . S
C444 C445 1.373 . S
C444 C446 1.389 . S
C445 H424 0.950 . S
C445 C444 1.373 . S
C445 C461 1.377 1_455 S
C446 C444 1.389 . S
C446 C447 1.524 . S
C446 C460 1.377 1_455 S
C447 C446 1.524 . S
C447 C448 1.397 . S
C447 C452 1.363 . S
C448 H425 0.950 . S
C448 C447 1.397 . S
C448 C449 1.334 . S
C449 H426 0.950 . S
C449 C448 1.334 . S
C449 C450 1.287 . S
C450 C449 1.287 . S
C450 C451 1.524 . S
C450 H469 0.913 . S
C451 H427 0.950 . S
C451 C450 1.524 . S
C451 C452 1.415 . S
C452 H428 0.950 . S
C452 C447 1.363 . S
C452 C451 1.415 . S
C453 H429 0.951 . S
C453 C454 1.366 . S
C453 C455 1.388 . S
C454 C453 1.366 . S
C454 C458 1.385 . S
C455 H430 0.951 . S
C455 C453 1.388 . S
C455 C456 1.366 . S
C456 C455 1.366 . S
C456 C457 1.414 . S
C456 C459 1.499 . S
C457 H431 0.950 . S
C457 C456 1.414 . S
C457 C458 1.374 . S
C458 H432 0.950 . S
C458 C454 1.385 . S
C458 C457 1.374 . S
C459 C456 1.499 . S
C459 C460 1.373 . S
C459 C461 1.389 . S
C460 H433 0.950 . S
C460 C446 1.377 1_655 S
C460 C459 1.373 . S
C461 C445 1.377 1_655 S
C461 C459 1.389 . S
C461 C462 1.524 . S
C462 C461 1.524 . S
C462 C463 1.397 . S
C462 C467 1.363 . S
C463 H434 0.950 . S
C463 C462 1.397 . S
C463 C464 1.334 . S
C464 H435 0.950 . S
C464 C463 1.334 . S
C464 C465 1.287 . S
C465 C464 1.287 . S
C465 C466 1.524 . S
C465 H468 0.999 . S
C466 H436 0.950 . S
C466 C465 1.524 . S
C466 C467 1.415 . S
C467 H437 0.950 . S
C467 C462 1.363 . S
C467 C466 1.415 . S
H468 C465 0.999 . S
H469 C450 0.913 . S
H470 C488 0.951 . S
H471 C490 0.951 . S
H472 C492 0.950 . S
H473 C493 0.950 . S
H474 C495 0.950 . S
H475 C498 0.950 . S
H476 C499 0.950 . S
H477 C501 0.950 . S
H478 C502 0.950 . S
H479 C503 0.951 . S
H480 C505 0.951 . S
H481 C507 0.950 . S
H482 C508 0.950 . S
H483 C510 0.950 . S
H484 C513 0.950 . S
H485 C514 0.950 . S
H486 C516 0.950 . S
H487 C517 0.950 . S
C488 H470 0.951 . S
C488 C489 1.366 . S
C488 C490 1.388 . S
C489 C488 1.366 . S
C489 C493 1.385 . S
C490 H471 0.951 . S
C490 C488 1.388 . S
C490 C491 1.366 . S
C491 C490 1.366 . S
C491 C492 1.414 . S
C491 C494 1.499 . S
C492 H472 0.950 . S
C492 C491 1.414 . S
C492 C493 1.374 . S
C493 H473 0.950 . S
C493 C489 1.385 . S
C493 C492 1.374 . S
C494 C491 1.499 . S
C494 C495 1.373 . S
C494 C496 1.389 . S
C495 H474 0.950 . S
C495 C494 1.373 . S
C495 C511 1.377 1_455 S
C496 C494 1.389 . S
C496 C497 1.524 . S
C496 C510 1.377 1_455 S
C497 C496 1.524 . S
C497 C498 1.397 . S
C497 C502 1.363 1_455 S
C498 H475 0.950 . S
C498 C497 1.397 . S
C498 C499 1.334 . S
C499 H476 0.950 . S
C499 C498 1.334 . S
C499 C500 1.287 . S
C500 C499 1.287 . S
C500 C501 1.524 1_455 S
C500 H519 0.913 . S
C501 H477 0.950 . S
C501 C500 1.524 1_655 S
C501 C502 1.415 . S
C502 H478 0.950 . S
C502 C497 1.363 1_655 S
C502 C501 1.415 . S
C503 H479 0.951 . S
C503 C504 1.366 . S
C503 C505 1.388 . S
C504 C503 1.366 . S
C504 C508 1.385 . S
C505 H480 0.951 . S
C505 C503 1.388 . S
C505 C506 1.366 . S
C506 C505 1.366 . S
C506 C507 1.414 . S
C506 C509 1.499 . S
C507 H481 0.950 . S
C507 C506 1.414 . S
C507 C508 1.374 . S
C508 H482 0.950 . S
C508 C504 1.385 . S
C508 C507 1.374 . S
C509 C506 1.499 . S
C509 C510 1.373 . S
C509 C511 1.389 . S
C510 H483 0.950 . S
C510 C496 1.377 1_655 S
C510 C509 1.373 . S
C511 C495 1.377 1_655 S
C511 C509 1.389 . S
C511 C512 1.524 . S
C512 C511 1.524 . S
C512 C513 1.397 . S
C512 C517 1.363 1_655 S
C513 H484 0.950 . S
C513 C512 1.397 . S
C513 C514 1.334 . S
C514 H485 0.950 . S
C514 C513 1.334 . S
C514 C515 1.287 . S
C515 C514 1.287 . S
C515 C516 1.524 1_655 S
C515 H518 0.999 . S
C516 H486 0.950 . S
C516 C515 1.524 1_455 S
C516 C517 1.415 . S
C517 H487 0.950 . S
C517 C512 1.363 1_455 S
C517 C516 1.415 . S
H518 C515 0.999 . S
H519 C500 0.913 . S
H520 C538 0.951 . S
H521 C540 0.951 . S
H522 C542 0.950 . S
H523 C543 0.950 . S
H524 C545 0.950 . S
H525 C548 0.950 . S
H526 C549 0.950 . S
H527 C551 0.950 . S
H528 C552 0.950 . S
H529 C553 0.951 . S
H530 C555 0.951 . S
H531 C557 0.950 . S
H532 C558 0.950 . S
H533 C560 0.950 . S
H534 C563 0.950 . S
H535 C564 0.950 . S
H536 C566 0.950 . S
H537 C567 0.950 . S
C538 H520 0.951 . S
C538 C539 1.366 . S
C538 C540 1.388 . S
C539 C538 1.366 . S
C539 C543 1.385 . S
C540 H521 0.951 . S
C540 C538 1.388 . S
C540 C541 1.366 . S
C541 C540 1.366 . S
C541 C542 1.414 . S
C541 C544 1.499 . S
C542 H522 0.950 . S
C542 C541 1.414 . S
C542 C543 1.374 . S
C543 H523 0.950 . S
C543 C539 1.385 . S
C543 C542 1.374 . S
C544 C541 1.499 . S
C544 C545 1.373 . S
C544 C546 1.389 . S
C545 H524 0.950 . S
C545 C544 1.373 . S
C545 C561 1.377 . S
C546 C544 1.389 . S
C546 C547 1.524 . S
C546 C560 1.377 . S
C547 C546 1.524 . S
C547 C548 1.397 . S
C547 C552 1.363 . S
C548 H525 0.950 . S
C548 C547 1.397 . S
C548 C549 1.334 . S
C549 H526 0.950 . S
C549 C548 1.334 . S
C549 C550 1.287 . S
C550 C549 1.287 . S
C550 C551 1.524 . S
C550 H569 0.913 . S
C551 H527 0.950 . S
C551 C550 1.524 . S
C551 C552 1.415 . S
C552 H528 0.950 . S
C552 C547 1.363 . S
C552 C551 1.415 . S
C553 H529 0.951 . S
C553 C554 1.366 . S
C553 C555 1.388 . S
C554 C553 1.366 . S
C554 C558 1.385 . S
C555 H530 0.951 . S
C555 C553 1.388 . S
C555 C556 1.366 . S
C556 C555 1.366 . S
C556 C557 1.414 . S
C556 C559 1.499 . S
C557 H531 0.950 . S
C557 C556 1.414 . S
C557 C558 1.374 . S
C558 H532 0.950 . S
C558 C554 1.385 . S
C558 C557 1.374 . S
C559 C556 1.499 . S
C559 C560 1.373 . S
C559 C561 1.389 . S
C560 H533 0.950 . S
C560 C546 1.377 . S
C560 C559 1.373 . S
C561 C545 1.377 . S
C561 C559 1.389 . S
C561 C562 1.524 . S
C562 C561 1.524 . S
C562 C563 1.397 . S
C562 C567 1.363 . S
C563 H534 0.950 . S
C563 C562 1.397 . S
C563 C564 1.334 . S
C564 H535 0.950 . S
C564 C563 1.334 . S
C564 C565 1.287 . S
C565 C564 1.287 . S
C565 C566 1.524 . S
C565 H568 0.999 . S
C566 H536 0.950 . S
C566 C565 1.524 . S
C566 C567 1.415 . S
C567 H537 0.950 . S
C567 C562 1.363 . S
C567 C566 1.415 . S
H568 C565 0.999 . S
H569 C550 0.913 . S
H570 C588 0.951 . S
H571 C590 0.951 . S
H572 C592 0.950 . S
H573 C593 0.950 . S
H574 C595 0.950 . S
H575 C598 0.950 . S
H576 C599 0.950 . S
H577 C601 0.950 . S
H578 C602 0.950 . S
H579 C603 0.951 . S
H580 C605 0.951 . S
H581 C607 0.950 . S
H582 C608 0.950 . S
H583 C610 0.950 . S
H584 C613 0.950 . S
H585 C614 0.950 . S
H586 C616 0.950 . S
H587 C617 0.950 . S
C588 H570 0.951 . S
C588 C589 1.366 . S
C588 C590 1.388 . S
C589 C588 1.366 . S
C589 C593 1.385 . S
C590 H571 0.951 . S
C590 C588 1.388 . S
C590 C591 1.366 . S
C591 C590 1.366 . S
C591 C592 1.414 . S
C591 C594 1.499 . S
C592 H572 0.950 . S
C592 C591 1.414 . S
C592 C593 1.374 . S
C593 H573 0.950 . S
C593 C589 1.385 . S
C593 C592 1.374 . S
C594 C591 1.499 . S
C594 C595 1.373 . S
C594 C596 1.389 . S
C595 H574 0.950 . S
C595 C594 1.373 . S
C595 C611 1.377 . S
C596 C594 1.389 . S
C596 C597 1.524 . S
C596 C610 1.377 . S
C597 C596 1.524 . S
C597 C598 1.397 . S
C597 C602 1.363 . S
C598 H575 0.950 . S
C598 C597 1.397 . S
C598 C599 1.334 . S
C599 H576 0.950 . S
C599 C598 1.334 . S
C599 C600 1.287 . S
C600 C599 1.287 . S
C600 C601 1.524 . S
C600 H619 0.913 . S
C601 H577 0.950 . S
C601 C600 1.524 . S
C601 C602 1.415 . S
C602 H578 0.950 . S
C602 C597 1.363 . S
C602 C601 1.415 . S
C603 H579 0.951 . S
C603 C604 1.366 . S
C603 C605 1.388 . S
C604 C603 1.366 . S
C604 C608 1.385 . S
C605 H580 0.951 . S
C605 C603 1.388 . S
C605 C606 1.366 . S
C606 C605 1.366 . S
C606 C607 1.414 . S
C606 C609 1.499 . S
C607 H581 0.950 . S
C607 C606 1.414 . S
C607 C608 1.374 . S
C608 H582 0.950 . S
C608 C604 1.385 . S
C608 C607 1.374 . S
C609 C606 1.499 . S
C609 C610 1.373 . S
C609 C611 1.389 . S
C610 H583 0.950 . S
C610 C596 1.377 . S
C610 C609 1.373 . S
C611 C595 1.377 . S
C611 C609 1.389 . S
C611 C612 1.524 . S
C612 C611 1.524 . S
C612 C613 1.397 . S
C612 C617 1.363 . S
C613 H584 0.950 . S
C613 C612 1.397 . S
C613 C614 1.334 . S
C614 H585 0.950 . S
C614 C613 1.334 . S
C614 C615 1.287 . S
C615 C614 1.287 . S
C615 C616 1.524 . S
C615 H618 0.999 . S
C616 H586 0.950 . S
C616 C615 1.524 . S
C616 C617 1.415 . S
C617 H587 0.950 . S
C617 C612 1.363 . S
C617 C616 1.415 . S
H618 C615 0.999 . S
H619 C600 0.913 . S
H620 C638 0.951 . S
H621 C640 0.951 . S
H622 C642 0.950 . S
H623 C643 0.950 . S
H624 C645 0.950 . S
H625 C648 0.950 . S
H626 C649 0.950 . S
H627 C651 0.950 . S
H628 C652 0.950 . S
H629 C653 0.951 . S
H630 C655 0.951 . S
H631 C657 0.950 . S
H632 C658 0.950 . S
H633 C660 0.950 . S
H634 C663 0.950 . S
H635 C664 0.950 . S
H636 C666 0.950 . S
H637 C667 0.950 . S
C638 H620 0.951 . S
C638 C639 1.366 . S
C638 C640 1.388 . S
C639 C638 1.366 . S
C639 C643 1.385 . S
C640 H621 0.951 . S
C640 C638 1.388 . S
C640 C641 1.366 . S
C641 C640 1.366 . S
C641 C642 1.414 . S
C641 C644 1.499 . S
C642 H622 0.950 . S
C642 C641 1.414 . S
C642 C643 1.374 . S
C643 H623 0.950 . S
C643 C639 1.385 . S
C643 C642 1.374 . S
C644 C641 1.499 . S
C644 C645 1.373 . S
C644 C646 1.389 . S
C645 H624 0.950 . S
C645 C644 1.373 . S
C645 C661 1.377 1_455 S
C646 C644 1.389 . S
C646 C647 1.524 . S
C646 C660 1.377 1_455 S
C647 C646 1.524 . S
C647 C648 1.397 . S
C647 C652 1.363 1_455 S
C648 H625 0.950 . S
C648 C647 1.397 . S
C648 C649 1.334 . S
C649 H626 0.950 . S
C649 C648 1.334 . S
C649 C650 1.287 . S
C650 C649 1.287 . S
C650 C651 1.524 1_455 S
C650 H669 0.913 . S
C651 H627 0.950 . S
C651 C650 1.524 1_655 S
C651 C652 1.415 . S
C652 H628 0.950 . S
C652 C647 1.363 1_655 S
C652 C651 1.415 . S
C653 H629 0.951 . S
C653 C654 1.366 . S
C653 C655 1.388 . S
C654 C653 1.366 . S
C654 C658 1.385 . S
C655 H630 0.951 . S
C655 C653 1.388 . S
C655 C656 1.366 . S
C656 C655 1.366 . S
C656 C657 1.414 . S
C656 C659 1.499 . S
C657 H631 0.950 . S
C657 C656 1.414 . S
C657 C658 1.374 . S
C658 H632 0.950 . S
C658 C654 1.385 . S
C658 C657 1.374 . S
C659 C656 1.499 . S
C659 C660 1.373 . S
C659 C661 1.389 . S
C660 H633 0.950 . S
C660 C646 1.377 1_655 S
C660 C659 1.373 . S
C661 C645 1.377 1_655 S
C661 C659 1.389 . S
C661 C662 1.524 . S
C662 C661 1.524 . S
C662 C663 1.397 . S
C662 C667 1.363 1_655 S
C663 H634 0.950 . S
C663 C662 1.397 . S
C663 C664 1.334 . S
C664 H635 0.950 . S
C664 C663 1.334 . S
C664 C665 1.287 . S
C665 C664 1.287 . S
C665 C666 1.524 1_655 S
C665 H668 0.999 . S
C666 H636 0.950 . S
C666 C665 1.524 1_455 S
C666 C667 1.415 . S
C667 H637 0.950 . S
C667 C662 1.363 1_455 S
C667 C666 1.415 . S
H668 C665 0.999 . S
H669 C650 0.913 . S
H670 C688 0.951 . S
H671 C690 0.951 . S
H672 C692 0.950 . S
H673 C693 0.950 . S
H674 C695 0.950 . S
H675 C698 0.950 . S
H676 C699 0.950 . S
H677 C701 0.950 . S
H678 C702 0.950 . S
H679 C703 0.951 . S
H680 C705 0.951 . S
H681 C707 0.950 . S
H682 C708 0.950 . S
H683 C710 0.950 . S
H684 C713 0.950 . S
H685 C714 0.950 . S
H686 C716 0.950 . S
H687 C717 0.950 . S
C688 H670 0.951 . S
C688 C689 1.366 . S
C688 C690 1.388 . S
C689 C688 1.366 . S
C689 C693 1.385 . S
C690 H671 0.951 . S
C690 C688 1.388 . S
C690 C691 1.366 . S
C691 C690 1.366 . S
C691 C692 1.414 . S
C691 C694 1.499 . S
C692 H672 0.950 . S
C692 C691 1.414 . S
C692 C693 1.374 . S
C693 H673 0.950 . S
C693 C689 1.385 . S
C693 C692 1.374 . S
C694 C691 1.499 . S
C694 C695 1.373 . S
C694 C696 1.389 1_455 S
C695 H674 0.950 . S
C695 C694 1.373 . S
C695 C711 1.377 . S
C696 C694 1.389 1_655 S
C696 C697 1.524 . S
C696 C710 1.377 . S
C697 C696 1.524 . S
C697 C698 1.397 . S
C697 C702 1.363 . S
C698 H675 0.950 . S
C698 C697 1.397 . S
C698 C699 1.334 . S
C699 H676 0.950 . S
C699 C698 1.334 . S
C699 C700 1.287 . S
C700 C699 1.287 . S
C700 C701 1.524 . S
C700 H719 0.913 . S
C701 H677 0.950 . S
C701 C700 1.524 . S
C701 C702 1.415 . S
C702 H678 0.950 . S
C702 C697 1.363 . S
C702 C701 1.415 . S
C703 H679 0.951 . S
C703 C704 1.366 . S
C703 C705 1.388 . S
C704 C703 1.366 . S
C704 C708 1.385 . S
C705 H680 0.951 . S
C705 C703 1.388 . S
C705 C706 1.366 . S
C706 C705 1.366 . S
C706 C707 1.414 . S
C706 C709 1.499 . S
C707 H681 0.950 . S
C707 C706 1.414 . S
C707 C708 1.374 . S
C708 H682 0.950 . S
C708 C704 1.385 . S
C708 C707 1.374 . S
C709 C706 1.499 . S
C709 C710 1.373 . S
C709 C711 1.389 1_655 S
C710 H683 0.950 . S
C710 C696 1.377 . S
C710 C709 1.373 . S
C711 C695 1.377 . S
C711 C709 1.389 1_455 S
C711 C712 1.524 . S
C712 C711 1.524 . S
C712 C713 1.397 . S
C712 C717 1.363 . S
C713 H684 0.950 . S
C713 C712 1.397 . S
C713 C714 1.334 . S
C714 H685 0.950 . S
C714 C713 1.334 . S
C714 C715 1.287 . S
C715 C714 1.287 . S
C715 C716 1.524 . S
C715 H718 0.999 . S
C716 H686 0.950 . S
C716 C715 1.524 . S
C716 C717 1.415 . S
C717 H687 0.950 . S
C717 C712 1.363 . S
C717 C716 1.415 . S
H718 C715 0.999 . S
H719 C700 0.913 . S
H720 C738 0.951 . S
H721 C740 0.951 . S
H722 C742 0.950 . S
H723 C743 0.950 1_565 S
H724 C745 0.950 . S
H725 C748 0.950 . S
H726 C749 0.950 . S
H727 C751 0.950 . S
H728 C752 0.950 . S
H729 C753 0.951 . S
H730 C755 0.951 . S
H731 C757 0.950 . S
H732 C758 0.950 1_545 S
H733 C760 0.950 . S
H734 C763 0.950 . S
H735 C764 0.950 . S
H736 C766 0.950 . S
H737 C767 0.950 . S
C738 H720 0.951 . S
C738 C739 1.366 . S
C738 C740 1.388 . S
C739 C738 1.366 . S
C739 C743 1.385 . S
C740 H721 0.951 . S
C740 C738 1.388 . S
C740 C741 1.366 . S
C741 C740 1.366 . S
C741 C742 1.414 1_545 S
C741 C744 1.499 . S
C742 H722 0.950 . S
C742 C741 1.414 1_565 S
C742 C743 1.374 1_565 S
C743 H723 0.950 1_545 S
C743 C739 1.385 . S
C743 C742 1.374 1_545 S
C744 C741 1.499 . S
C744 C745 1.373 1_545 S
C744 C746 1.389 1_554 S
C745 H724 0.950 . S
C745 C744 1.373 1_565 S
C745 C761 1.377 . S
C746 C744 1.389 1_556 S
C746 C747 1.524 . S
C746 C760 1.377 . S
C747 C746 1.524 . S
C747 C748 1.397 . S
C747 C752 1.363 . S
C748 H725 0.950 . S
C748 C747 1.397 . S
C748 C749 1.334 . S
C749 H726 0.950 . S
C749 C748 1.334 . S
C749 C750 1.287 . S
C750 C749 1.287 . S
C750 C751 1.524 . S
C750 H769 0.913 . S
C751 H727 0.950 . S
C751 C750 1.524 . S
C751 C752 1.415 . S
C752 H728 0.950 . S
C752 C747 1.363 . S
C752 C751 1.415 . S
C753 H729 0.951 . S
C753 C754 1.366 . S
C753 C755 1.388 . S
C754 C753 1.366 . S
C754 C758 1.385 . S
C755 H730 0.951 . S
C755 C753 1.388 . S
C755 C756 1.366 . S
C756 C755 1.366 . S
C756 C757 1.414 1_565 S
C756 C759 1.499 . S
C757 H731 0.950 . S
C757 C756 1.414 1_545 S
C757 C758 1.374 1_545 S
C758 H732 0.950 1_565 S
C758 C754 1.385 . S
C758 C757 1.374 1_565 S
C759 C756 1.499 . S
C759 C760 1.373 1_565 S
C759 C761 1.389 1_556 S
C760 H733 0.950 . S
C760 C746 1.377 . S
C760 C759 1.373 1_545 S
C761 C745 1.377 . S
C761 C759 1.389 1_554 S
C761 C762 1.524 . S
C762 C761 1.524 . S
C762 C763 1.397 . S
C762 C767 1.363 . S
C763 H734 0.950 . S
C763 C762 1.397 . S
C763 C764 1.334 . S
C764 H735 0.950 . S
C764 C763 1.334 . S
C764 C765 1.287 . S
C765 C764 1.287 . S
C765 C766 1.524 . S
C765 H768 0.999 . S
C766 H736 0.950 . S
C766 C765 1.524 . S
C766 C767 1.415 . S
C767 H737 0.950 . S
C767 C762 1.363 . S
C767 C766 1.415 . S
H768 C765 0.999 . S
H769 C750 0.913 . S
H770 C788 0.951 . S
H771 C790 0.951 . S
H772 C792 0.950 . S
H773 C793 0.950 . S
H774 C795 0.950 . S
H775 C798 0.950 . S
H776 C799 0.950 . S
H777 C801 0.950 . S
H778 C802 0.950 . S
H779 C803 0.951 . S
H780 C805 0.951 . S
H781 C807 0.950 . S
H782 C808 0.950 . S
H783 C810 0.950 . S
H784 C813 0.950 . S
H785 C814 0.950 . S
H786 C816 0.950 . S
H787 C817 0.950 . S
C788 H770 0.951 . S
C788 C789 1.366 . S
C788 C790 1.388 . S
C789 C788 1.366 . S
C789 C793 1.385 . S
C790 H771 0.951 . S
C790 C788 1.388 . S
C790 C791 1.366 . S
C791 C790 1.366 . S
C791 C792 1.414 . S
C791 C794 1.499 . S
C792 H772 0.950 . S
C792 C791 1.414 . S
C792 C793 1.374 . S
C793 H773 0.950 . S
C793 C789 1.385 . S
C793 C792 1.374 . S
C794 C791 1.499 . S
C794 C795 1.373 . S
C794 C796 1.389 . S
C795 H774 0.950 . S
C795 C794 1.373 . S
C795 C811 1.377 . S
C796 C794 1.389 . S
C796 C797 1.524 . S
C796 C810 1.377 . S
C797 C796 1.524 . S
C797 C798 1.397 . S
C797 C802 1.363 . S
C798 H775 0.950 . S
C798 C797 1.397 . S
C798 C799 1.334 . S
C799 H776 0.950 . S
C799 C798 1.334 . S
C799 C800 1.287 . S
C800 C799 1.287 . S
C800 C801 1.524 . S
C800 H819 0.913 . S
C801 H777 0.950 . S
C801 C800 1.524 . S
C801 C802 1.415 . S
C802 H778 0.950 . S
C802 C797 1.363 . S
C802 C801 1.415 . S
C803 H779 0.951 . S
C803 C804 1.366 . S
C803 C805 1.388 . S
C804 C803 1.366 . S
C804 C808 1.385 . S
C805 H780 0.951 . S
C805 C803 1.388 . S
C805 C806 1.366 . S
C806 C805 1.366 . S
C806 C807 1.414 . S
C806 C809 1.499 . S
C807 H781 0.950 . S
C807 C806 1.414 . S
C807 C808 1.374 . S
C808 H782 0.950 . S
C808 C804 1.385 . S
C808 C807 1.374 . S
C809 C806 1.499 . S
C809 C810 1.373 . S
C809 C811 1.389 . S
C810 H783 0.950 . S
C810 C796 1.377 . S
C810 C809 1.373 . S
C811 C795 1.377 . S
C811 C809 1.389 . S
C811 C812 1.524 . S
C812 C811 1.524 . S
C812 C813 1.397 . S
C812 C817 1.363 . S
C813 H784 0.950 . S
C813 C812 1.397 . S
C813 C814 1.334 . S
C814 H785 0.950 . S
C814 C813 1.334 . S
C814 C815 1.287 . S
C815 C814 1.287 . S
C815 C816 1.524 . S
C815 H818 0.999 . S
C816 H786 0.950 . S
C816 C815 1.524 . S
C816 C817 1.415 . S
C817 H787 0.950 . S
C817 C812 1.363 . S
C817 C816 1.415 . S
H818 C815 0.999 . S
H819 C800 0.913 . S
H820 C838 0.951 . S
H821 C840 0.951 . S
H822 C842 0.950 . S
H823 C843 0.950 . S
H824 C845 0.950 . S
H825 C848 0.950 . S
H826 C849 0.950 . S
H827 C851 0.950 . S
H828 C852 0.950 . S
H829 C853 0.951 . S
H830 C855 0.951 . S
H831 C857 0.950 . S
H832 C858 0.950 . S
H833 C860 0.950 . S
H834 C863 0.950 . S
H835 C864 0.950 . S
H836 C866 0.950 . S
H837 C867 0.950 . S
C838 H820 0.951 . S
C838 C839 1.366 . S
C838 C840 1.388 . S
C839 C838 1.366 . S
C839 C843 1.385 . S
C840 H821 0.951 . S
C840 C838 1.388 . S
C840 C841 1.366 . S
C841 C840 1.366 . S
C841 C842 1.414 . S
C841 C844 1.499 . S
C842 H822 0.950 . S
C842 C841 1.414 . S
C842 C843 1.374 . S
C843 H823 0.950 . S
C843 C839 1.385 . S
C843 C842 1.374 . S
C844 C841 1.499 . S
C844 C845 1.373 1_565 S
C844 C846 1.417 . S
C845 H824 0.950 . S
C845 C844 1.373 1_545 S
C845 C861 1.348 1_455 S
C846 C844 1.417 . S
C846 C847 1.524 . S
C846 C860 1.348 1_455 S
C847 C846 1.524 . S
C847 C848 1.410 . S
C847 C852 1.349 1_455 S
C848 H825 0.950 . S
C848 C847 1.410 . S
C848 C849 1.334 . S
C849 H826 0.950 . S
C849 C848 1.334 . S
C849 C850 1.287 . S
C850 C849 1.287 . S
C850 C851 1.524 1_455 S
C850 H869 0.913 . S
C851 H827 0.950 . S
C851 C850 1.524 1_655 S
C851 C852 1.415 . S
C852 H828 0.950 . S
C852 C847 1.349 1_655 S
C852 C851 1.415 . S
C853 H829 0.951 . S
C853 C854 1.366 . S
C853 C855 1.388 . S
C854 C853 1.366 . S
C854 C858 1.385 . S
C855 H830 0.951 . S
C855 C853 1.388 . S
C855 C856 1.366 . S
C856 C855 1.366 . S
C856 C857 1.414 . S
C856 C859 1.499 . S
C857 H831 0.950 . S
C857 C856 1.414 . S
C857 C858 1.374 . S
C858 H832 0.950 . S
C858 C854 1.385 . S
C858 C857 1.374 . S
C859 C856 1.499 . S
C859 C860 1.373 1_545 S
C859 C861 1.417 . S
C860 H833 0.950 . S
C860 C846 1.348 1_655 S
C860 C859 1.373 1_565 S
C861 C845 1.348 1_655 S
C861 C859 1.417 . S
C861 C862 1.524 . S
C862 C861 1.524 . S
C862 C863 1.410 . S
C862 C867 1.349 1_655 S
C863 H834 0.950 . S
C863 C862 1.410 . S
C863 C864 1.334 . S
C864 H835 0.950 . S
C864 C863 1.334 . S
C864 C865 1.287 . S
C865 C864 1.287 . S
C865 C866 1.524 1_655 S
C865 H868 0.999 . S
C866 H836 0.950 . S
C866 C865 1.524 1_455 S
C866 C867 1.415 . S
C867 H837 0.950 . S
C867 C862 1.349 1_455 S
C867 C866 1.415 . S
H868 C865 0.999 . S
H869 C850 0.913 . S
H870 C888 0.951 . S
H871 C890 0.951 . S
H872 C892 0.950 . S
H873 C893 0.950 . S
H874 C895 0.950 . S
H875 C898 0.950 . S
H876 C899 0.950 . S
H877 C901 0.950 . S
H878 C902 0.950 . S
H879 C903 0.951 . S
H880 C905 0.951 . S
H881 C907 0.950 . S
H882 C908 0.950 . S
H883 C910 0.950 . S
H884 C913 0.950 . S
H885 C914 0.950 . S
H886 C916 0.950 . S
H887 C917 0.950 . S
C888 H870 0.951 . S
C888 C889 1.366 . S
C888 C890 1.388 . S
C889 C888 1.366 . S
C889 C893 1.385 . S
C890 H871 0.951 . S
C890 C888 1.388 . S
C890 C891 1.366 . S
C891 C890 1.366 . S
C891 C892 1.414 . S
C891 C894 1.499 . S
C892 H872 0.950 . S
C892 C891 1.414 . S
C892 C893 1.374 . S
C893 H873 0.950 . S
C893 C889 1.385 . S
C893 C892 1.374 . S
C894 C891 1.499 . S
C894 C895 1.373 . S
C894 C896 1.389 . S
C895 H874 0.950 . S
C895 C894 1.373 . S
C895 C911 1.377 . S
C896 C894 1.389 . S
C896 C897 1.524 . S
C896 C910 1.377 . S
C897 C896 1.524 . S
C897 C898 1.397 . S
C897 C902 1.363 . S
C898 H875 0.950 . S
C898 C897 1.397 . S
C898 C899 1.334 . S
C899 H876 0.950 . S
C899 C898 1.334 . S
C899 C900 1.287 . S
C900 C899 1.287 . S
C900 C901 1.524 . S
C900 H919 0.913 . S
C901 H877 0.950 . S
C901 C900 1.524 . S
C901 C902 1.415 . S
C902 H878 0.950 . S
C902 C897 1.363 . S
C902 C901 1.415 . S
C903 H879 0.951 . S
C903 C904 1.366 . S
C903 C905 1.388 . S
C904 C903 1.366 . S
C904 C908 1.385 . S
C905 H880 0.951 . S
C905 C903 1.388 . S
C905 C906 1.366 . S
C906 C905 1.366 . S
C906 C907 1.414 . S
C906 C909 1.499 . S
C907 H881 0.950 . S
C907 C906 1.414 . S
C907 C908 1.374 . S
C908 H882 0.950 . S
C908 C904 1.385 . S
C908 C907 1.374 . S
C909 C906 1.499 . S
C909 C910 1.373 . S
C909 C911 1.389 . S
C910 H883 0.950 . S
C910 C896 1.377 . S
C910 C909 1.373 . S
C911 C895 1.377 . S
C911 C909 1.389 . S
C911 C912 1.524 . S
C912 C911 1.524 . S
C912 C913 1.397 . S
C912 C917 1.363 . S
C913 H884 0.950 . S
C913 C912 1.397 . S
C913 C914 1.334 . S
C914 H885 0.950 . S
C914 C913 1.334 . S
C914 C915 1.287 . S
C915 C914 1.287 . S
C915 C916 1.524 . S
C915 H918 0.999 . S
C916 H886 0.950 . S
C916 C915 1.524 . S
C916 C917 1.415 . S
C917 H887 0.950 . S
C917 C912 1.363 . S
C917 C916 1.415 . S
H918 C915 0.999 . S
H919 C900 0.913 . S
H920 C938 0.951 . S
H921 C940 0.951 . S
H922 C942 0.950 . S
H923 C943 0.950 . S
H924 C945 0.950 . S
H925 C948 0.950 . S
H926 C949 0.950 . S
H927 C951 0.950 . S
H928 C952 0.950 . S
H929 C953 0.951 . S
H930 C955 0.951 . S
H931 C957 0.950 . S
H932 C958 0.950 . S
H933 C960 0.950 . S
H934 C963 0.950 . S
H935 C964 0.950 . S
H936 C966 0.950 . S
H937 C967 0.950 . S
C938 H920 0.951 . S
C938 C939 1.366 . S
C938 C940 1.388 . S
C939 C938 1.366 . S
C939 C943 1.385 . S
C940 H921 0.951 . S
C940 C938 1.388 . S
C940 C941 1.366 . S
C941 C940 1.366 . S
C941 C942 1.414 . S
C941 C944 1.499 . S
C942 H922 0.950 . S
C942 C941 1.414 . S
C942 C943 1.374 . S
C943 H923 0.950 . S
C943 C939 1.385 . S
C943 C942 1.374 . S
C944 C941 1.499 . S
C944 C945 1.373 . S
C944 C946 1.389 . S
C945 H924 0.950 . S
C945 C944 1.373 . S
C945 C961 1.377 . S
C946 C944 1.389 . S
C946 C947 1.524 . S
C946 C960 1.377 . S
C947 C946 1.524 . S
C947 C948 1.397 . S
C947 C952 1.363 . S
C948 H925 0.950 . S
C948 C947 1.397 . S
C948 C949 1.334 . S
C949 H926 0.950 . S
C949 C948 1.334 . S
C949 C950 1.287 . S
C950 C949 1.287 . S
C950 C951 1.524 . S
C950 H969 0.913 . S
C951 H927 0.950 . S
C951 C950 1.524 . S
C951 C952 1.415 . S
C952 H928 0.950 . S
C952 C947 1.363 . S
C952 C951 1.415 . S
C953 H929 0.951 . S
C953 C954 1.366 . S
C953 C955 1.388 . S
C954 C953 1.366 . S
C954 C958 1.385 . S
C955 H930 0.951 . S
C955 C953 1.388 . S
C955 C956 1.366 . S
C956 C955 1.366 . S
C956 C957 1.414 . S
C956 C959 1.499 . S
C957 H931 0.950 . S
C957 C956 1.414 . S
C957 C958 1.374 . S
C958 H932 0.950 . S
C958 C954 1.385 . S
C958 C957 1.374 . S
C959 C956 1.499 . S
C959 C960 1.373 . S
C959 C961 1.389 . S
C960 H933 0.950 . S
C960 C946 1.377 . S
C960 C959 1.373 . S
C961 C945 1.377 . S
C961 C959 1.389 . S
C961 C962 1.524 . S
C962 C961 1.524 . S
C962 C963 1.397 . S
C962 C967 1.363 . S
C963 H934 0.950 . S
C963 C962 1.397 . S
C963 C964 1.334 . S
C964 H935 0.950 . S
C964 C963 1.334 . S
C964 C965 1.287 . S
C965 C964 1.287 . S
C965 C966 1.524 . S
C965 H968 0.999 . S
C966 H936 0.950 . S
C966 C965 1.524 . S
C966 C967 1.415 . S
C967 H937 0.950 . S
C967 C962 1.363 . S
C967 C966 1.415 . S
H968 C965 0.999 . S
H969 C950 0.913 . S
H970 C988 0.951 . S
H971 C990 0.951 . S
H972 C992 0.950 . S
H973 C993 0.950 . S
H974 C995 0.950 . S
H975 C998 0.950 . S
H976 C999 0.950 . S
H977 C1001 0.950 . S
H978 C1002 0.950 . S
H979 C1003 0.951 . S
H980 C1005 0.951 . S
H981 C1007 0.950 . S
H982 C1008 0.950 . S
H983 C1010 0.950 . S
H984 C1013 0.950 . S
H985 C1014 0.950 . S
H986 C1016 0.950 . S
H987 C1017 0.950 . S
C988 H970 0.951 . S
C988 C989 1.366 . S
C988 C990 1.388 . S
C989 C988 1.366 . S
C989 C993 1.385 . S
C990 H971 0.951 . S
C990 C988 1.388 . S
C990 C991 1.366 . S
C991 C990 1.366 . S
C991 C992 1.414 . S
C991 C994 1.499 . S
C992 H972 0.950 . S
C992 C991 1.414 . S
C992 C993 1.374 . S
C993 H973 0.950 . S
C993 C989 1.385 . S
C993 C992 1.374 . S
C994 C991 1.499 . S
C994 C995 1.373 . S
C994 C996 1.389 . S
C995 H974 0.950 . S
C995 C994 1.373 . S
C995 C1011 1.377 . S
C996 C994 1.389 . S
C996 C997 1.524 . S
C996 C1010 1.377 . S
C997 C996 1.524 . S
C997 C998 1.397 . S
C997 C1002 1.363 . S
C998 H975 0.950 . S
C998 C997 1.397 . S
C998 C999 1.334 . S
C999 H976 0.950 . S
C999 C998 1.334 . S
C999 C1000 1.287 . S
C1000 C999 1.287 . S
C1000 C1001 1.524 . S
C1000 H1019 0.913 . S
C1001 H977 0.950 . S
C1001 C1000 1.524 . S
C1001 C1002 1.415 . S
C1002 H978 0.950 . S
C1002 C997 1.363 . S
C1002 C1001 1.415 . S
C1003 H979 0.951 . S
C1003 C1004 1.366 . S
C1003 C1005 1.388 . S
C1004 C1003 1.366 . S
C1004 C1008 1.385 . S
C1005 H980 0.951 . S
C1005 C1003 1.388 . S
C1005 C1006 1.366 . S
C1006 C1005 1.366 . S
C1006 C1007 1.414 . S
C1006 C1009 1.499 . S
C1007 H981 0.950 . S
C1007 C1006 1.414 . S
C1007 C1008 1.374 . S
C1008 H982 0.950 . S
C1008 C1004 1.385 . S
C1008 C1007 1.374 . S
C1009 C1006 1.499 . S
C1009 C1010 1.373 . S
C1009 C1011 1.389 . S
C1010 H983 0.950 . S
C1010 C996 1.377 . S
C1010 C1009 1.373 . S
C1011 C995 1.377 . S
C1011 C1009 1.389 . S
C1011 C1012 1.524 . S
C1012 C1011 1.524 . S
C1012 C1013 1.397 . S
C1012 C1017 1.363 . S
C1013 H984 0.950 . S
C1013 C1012 1.397 . S
C1013 C1014 1.334 . S
C1014 H985 0.950 . S
C1014 C1013 1.334 . S
C1014 C1015 1.287 . S
C1015 C1014 1.287 . S
C1015 C1016 1.524 . S
C1015 H1018 0.999 . S
C1016 H986 0.950 . S
C1016 C1015 1.524 . S
C1016 C1017 1.415 . S
C1017 H987 0.950 . S
C1017 C1012 1.363 . S
C1017 C1016 1.415 . S
H1018 C1015 0.999 . S
H1019 C1000 0.913 . S
H1020 C1038 0.951 . S
H1021 C1040 0.951 . S
H1022 C1042 0.950 . S
H1023 C1043 0.950 . S
H1024 C1045 0.950 . S
H1025 C1048 0.950 . S
H1026 C1049 0.950 . S
H1027 C1051 0.950 . S
H1028 C1052 0.950 . S
H1029 C1053 0.951 . S
H1030 C1055 0.951 . S
H1031 C1057 0.950 . S
H1032 C1058 0.950 . S
H1033 C1060 0.950 . S
H1034 C1063 0.950 . S
H1035 C1064 0.950 . S
H1036 C1066 0.950 . S
H1037 C1067 0.950 . S
C1038 H1020 0.951 . S
C1038 C1039 1.366 . S
C1038 C1040 1.388 . S
C1039 C1038 1.366 . S
C1039 C1043 1.385 . S
C1040 H1021 0.951 . S
C1040 C1038 1.388 . S
C1040 C1041 1.366 . S
C1041 C1040 1.366 . S
C1041 C1042 1.414 . S
C1041 C1044 1.499 . S
C1042 H1022 0.950 . S
C1042 C1041 1.414 . S
C1042 C1043 1.374 . S
C1043 H1023 0.950 . S
C1043 C1039 1.385 . S
C1043 C1042 1.374 . S
C1044 C1041 1.499 . S
C1044 C1045 1.373 1_455 S
C1044 C1046 1.389 . S
C1045 H1024 0.950 . S
C1045 C1044 1.373 1_655 S
C1045 C1061 1.377 . S
C1046 C1044 1.389 . S
C1046 C1047 1.524 . S
C1046 C1060 1.377 . S
C1047 C1046 1.524 . S
C1047 C1048 1.397 . S
C1047 C1052 1.363 . S
C1048 H1025 0.950 . S
C1048 C1047 1.397 . S
C1048 C1049 1.334 . S
C1049 H1026 0.950 . S
C1049 C1048 1.334 . S
C1049 C1050 1.287 . S
C1050 C1049 1.287 . S
C1050 C1051 1.524 . S
C1050 H1069 0.913 . S
C1051 H1027 0.950 . S
C1051 C1050 1.524 . S
C1051 C1052 1.415 . S
C1052 H1028 0.950 . S
C1052 C1047 1.363 . S
C1052 C1051 1.415 . S
C1053 H1029 0.951 . S
C1053 C1054 1.366 . S
C1053 C1055 1.388 . S
C1054 C1053 1.366 . S
C1054 C1058 1.385 . S
C1055 H1030 0.951 . S
C1055 C1053 1.388 . S
C1055 C1056 1.366 . S
C1056 C1055 1.366 . S
C1056 C1057 1.414 . S
C1056 C1059 1.499 . S
C1057 H1031 0.950 . S
C1057 C1056 1.414 . S
C1057 C1058 1.374 . S
C1058 H1032 0.950 . S
C1058 C1054 1.385 . S
C1058 C1057 1.374 . S
C1059 C1056 1.499 . S
C1059 C1060 1.373 1_655 S
C1059 C1061 1.389 . S
C1060 H1033 0.950 . S
C1060 C1046 1.377 . S
C1060 C1059 1.373 1_455 S
C1061 C1045 1.377 . S
C1061 C1059 1.389 . S
C1061 C1062 1.524 . S
C1062 C1061 1.524 . S
C1062 C1063 1.397 . S
C1062 C1067 1.363 . S
C1063 H1034 0.950 . S
C1063 C1062 1.397 . S
C1063 C1064 1.334 . S
C1064 H1035 0.950 . S
C1064 C1063 1.334 . S
C1064 C1065 1.287 . S
C1065 C1064 1.287 . S
C1065 C1066 1.524 . S
C1065 H1068 0.999 . S
C1066 H1036 0.950 . S
C1066 C1065 1.524 . S
C1066 C1067 1.415 . S
C1067 H1037 0.950 . S
C1067 C1062 1.363 . S
C1067 C1066 1.415 . S
H1068 C1065 0.999 . S
H1069 C1050 0.913 . S
H1070 C1088 0.951 . S
H1071 C1090 0.951 . S
H1072 C1092 0.950 . S
H1073 C1093 0.950 . S
H1074 C1095 0.950 . S
H1075 C1098 0.950 . S
H1076 C1099 0.950 . S
H1077 C1101 0.950 . S
H1078 C1102 0.950 . S
H1079 C1103 0.951 . S
H1080 C1105 0.951 . S
H1081 C1107 0.950 . S
H1082 C1108 0.950 . S
H1083 C1110 0.950 . S
H1084 C1113 0.950 . S
H1085 C1114 0.950 . S
H1086 C1116 0.950 . S
H1087 C1117 0.950 . S
C1088 H1070 0.951 . S
C1088 C1089 1.366 . S
C1088 C1090 1.388 . S
C1089 C1088 1.366 . S
C1089 C1093 1.385 . S
C1090 H1071 0.951 . S
C1090 C1088 1.388 . S
C1090 C1091 1.366 . S
C1091 C1090 1.366 . S
C1091 C1092 1.414 . S
C1091 C1094 1.499 . S
C1092 H1072 0.950 . S
C1092 C1091 1.414 . S
C1092 C1093 1.374 . S
C1093 H1073 0.950 . S
C1093 C1089 1.385 . S
C1093 C1092 1.374 . S
C1094 C1091 1.499 . S
C1094 C1095 1.373 1_554 S
C1094 C1096 1.389 . S
C1095 H1074 0.950 . S
C1095 C1094 1.373 1_556 S
C1095 C1111 1.377 . S
C1096 C1094 1.389 . S
C1096 C1097 1.524 . S
C1096 C1110 1.377 . S
C1097 C1096 1.524 . S
C1097 C1098 1.397 . S
C1097 C1102 1.363 . S
C1098 H1075 0.950 . S
C1098 C1097 1.397 . S
C1098 C1099 1.334 . S
C1099 H1076 0.950 . S
C1099 C1098 1.334 . S
C1099 C1100 1.287 . S
C1100 C1099 1.287 . S
C1100 C1101 1.524 . S
C1100 H1119 0.913 . S
C1101 H1077 0.950 . S
C1101 C1100 1.524 . S
C1101 C1102 1.415 . S
C1102 H1078 0.950 . S
C1102 C1097 1.363 . S
C1102 C1101 1.415 . S
C1103 H1079 0.951 . S
C1103 C1104 1.366 . S
C1103 C1105 1.388 . S
C1104 C1103 1.366 . S
C1104 C1108 1.385 . S
C1105 H1080 0.951 . S
C1105 C1103 1.388 . S
C1105 C1106 1.366 . S
C1106 C1105 1.366 . S
C1106 C1107 1.414 . S
C1106 C1109 1.499 . S
C1107 H1081 0.950 . S
C1107 C1106 1.414 . S
C1107 C1108 1.374 . S
C1108 H1082 0.950 . S
C1108 C1104 1.385 . S
C1108 C1107 1.374 . S
C1109 C1106 1.499 . S
C1109 C1110 1.373 1_556 S
C1109 C1111 1.389 . S
C1110 H1083 0.950 . S
C1110 C1096 1.377 . S
C1110 C1109 1.373 1_554 S
C1111 C1095 1.377 . S
C1111 C1109 1.389 . S
C1111 C1112 1.524 . S
C1112 C1111 1.524 . S
C1112 C1113 1.397 . S
C1112 C1117 1.363 . S
C1113 H1084 0.950 . S
C1113 C1112 1.397 . S
C1113 C1114 1.334 . S
C1114 H1085 0.950 . S
C1114 C1113 1.334 . S
C1114 C1115 1.287 . S
C1115 C1114 1.287 . S
C1115 C1116 1.524 . S
C1115 H1118 0.999 . S
C1116 H1086 0.950 . S
C1116 C1115 1.524 . S
C1116 C1117 1.415 . S
C1117 H1087 0.950 . S
C1117 C1112 1.363 . S
C1117 C1116 1.415 . S
H1118 C1115 0.999 . S
H1119 C1100 0.913 . S
H1120 C1138 0.951 . S
H1121 C1140 0.951 . S
H1122 C1142 0.950 . S
H1123 C1143 0.950 . S
H1124 C1145 0.950 . S
H1125 C1148 0.950 . S
H1126 C1149 0.950 . S
H1127 C1151 0.950 . S
H1128 C1152 0.950 . S
H1129 C1153 0.951 . S
H1130 C1155 0.951 . S
H1131 C1157 0.950 . S
H1132 C1158 0.950 . S
H1133 C1160 0.950 . S
H1134 C1163 0.950 . S
H1135 C1164 0.950 . S
H1136 C1166 0.950 . S
H1137 C1167 0.950 . S
C1138 H1120 0.951 . S
C1138 C1139 1.366 . S
C1138 C1140 1.388 . S
C1139 C1138 1.366 . S
C1139 C1143 1.385 . S
C1140 H1121 0.951 . S
C1140 C1138 1.388 . S
C1140 C1141 1.366 . S
C1141 C1140 1.366 . S
C1141 C1142 1.414 . S
C1141 C1144 1.499 . S
C1142 H1122 0.950 . S
C1142 C1141 1.414 . S
C1142 C1143 1.374 . S
C1143 H1123 0.950 . S
C1143 C1139 1.385 . S
C1143 C1142 1.374 . S
C1144 C1141 1.499 . S
C1144 C1145 1.373 . S
C1144 C1146 1.389 . S
C1145 H1124 0.950 . S
C1145 C1144 1.373 . S
C1145 C1161 1.377 . S
C1146 C1144 1.389 . S
C1146 C1147 1.524 . S
C1146 C1160 1.377 . S
C1147 C1146 1.524 . S
C1147 C1148 1.397 . S
C1147 C1152 1.363 . S
C1148 H1125 0.950 . S
C1148 C1147 1.397 . S
C1148 C1149 1.334 . S
C1149 H1126 0.950 . S
C1149 C1148 1.334 . S
C1149 C1150 1.287 . S
C1150 C1149 1.287 . S
C1150 C1151 1.524 . S
C1150 H1169 0.913 . S
C1151 H1127 0.950 . S
C1151 C1150 1.524 . S
C1151 C1152 1.415 . S
C1152 H1128 0.950 . S
C1152 C1147 1.363 . S
C1152 C1151 1.415 . S
C1153 H1129 0.951 . S
C1153 C1154 1.366 . S
C1153 C1155 1.388 . S
C1154 C1153 1.366 . S
C1154 C1158 1.385 . S
C1155 H1130 0.951 . S
C1155 C1153 1.388 . S
C1155 C1156 1.366 . S
C1156 C1155 1.366 . S
C1156 C1157 1.414 . S
C1156 C1159 1.499 . S
C1157 H1131 0.950 . S
C1157 C1156 1.414 . S
C1157 C1158 1.374 . S
C1158 H1132 0.950 . S
C1158 C1154 1.385 . S
C1158 C1157 1.374 . S
C1159 C1156 1.499 . S
C1159 C1160 1.373 . S
C1159 C1161 1.389 . S
C1160 H1133 0.950 . S
C1160 C1146 1.377 . S
C1160 C1159 1.373 . S
C1161 C1145 1.377 . S
C1161 C1159 1.389 . S
C1161 C1162 1.524 . S
C1162 C1161 1.524 . S
C1162 C1163 1.397 . S
C1162 C1167 1.363 . S
C1163 H1134 0.950 . S
C1163 C1162 1.397 . S
C1163 C1164 1.334 . S
C1164 H1135 0.950 . S
C1164 C1163 1.334 . S
C1164 C1165 1.287 . S
C1165 C1164 1.287 . S
C1165 C1166 1.524 . S
C1165 H1168 0.999 . S
C1166 H1136 0.950 . S
C1166 C1165 1.524 . S
C1166 C1167 1.415 . S
C1167 H1137 0.950 . S
C1167 C1162 1.363 . S
C1167 C1166 1.415 . S
H1168 C1165 0.999 . S
H1169 C1150 0.913 . S
H1170 C1188 0.951 . S
H1171 C1190 0.951 . S
H1172 C1192 0.950 . S
H1173 C1193 0.950 . S
H1174 C1195 0.950 . S
H1175 C1198 0.950 . S
H1176 C1199 0.950 . S
H1177 C1201 0.950 . S
H1178 C1202 0.950 . S
H1179 C1203 0.951 . S
H1180 C1205 0.951 . S
H1181 C1207 0.950 . S
H1182 C1208 0.950 . S
H1183 C1210 0.950 . S
H1184 C1213 0.950 . S
H1185 C1214 0.950 . S
H1186 C1216 0.950 . S
H1187 C1217 0.950 . S
C1188 H1170 0.951 . S
C1188 C1189 1.366 . S
C1188 C1190 1.388 . S
C1189 C1188 1.366 . S
C1189 C1193 1.385 . S
C1190 H1171 0.951 . S
C1190 C1188 1.388 . S
C1190 C1191 1.366 . S
C1191 C1190 1.366 . S
C1191 C1192 1.414 . S
C1191 C1194 1.499 . S
C1192 H1172 0.950 . S
C1192 C1191 1.414 . S
C1192 C1193 1.374 . S
C1193 H1173 0.950 . S
C1193 C1189 1.385 . S
C1193 C1192 1.374 . S
C1194 C1191 1.499 . S
C1194 C1195 1.373 . S
C1194 C1196 1.389 . S
C1195 H1174 0.950 . S
C1195 C1194 1.373 . S
C1195 C1211 1.377 . S
C1196 C1194 1.389 . S
C1196 C1197 1.524 . S
C1196 C1210 1.377 . S
C1197 C1196 1.524 . S
C1197 C1198 1.397 . S
C1197 C1202 1.363 . S
C1198 H1175 0.950 . S
C1198 C1197 1.397 . S
C1198 C1199 1.334 . S
C1199 H1176 0.950 . S
C1199 C1198 1.334 . S
C1199 C1200 1.287 . S
C1200 C1199 1.287 . S
C1200 C1201 1.524 . S
C1200 H1219 0.913 . S
C1201 H1177 0.950 . S
C1201 C1200 1.524 . S
C1201 C1202 1.415 . S
C1202 H1178 0.950 . S
C1202 C1197 1.363 . S
C1202 C1201 1.415 . S
C1203 H1179 0.951 . S
C1203 C1204 1.366 . S
C1203 C1205 1.388 . S
C1204 C1203 1.366 . S
C1204 C1208 1.385 . S
C1205 H1180 0.951 . S
C1205 C1203 1.388 . S
C1205 C1206 1.366 . S
C1206 C1205 1.366 . S
C1206 C1207 1.414 . S
C1206 C1209 1.499 . S
C1207 H1181 0.950 . S
C1207 C1206 1.414 . S
C1207 C1208 1.374 . S
C1208 H1182 0.950 . S
C1208 C1204 1.385 . S
C1208 C1207 1.374 . S
C1209 C1206 1.499 . S
C1209 C1210 1.373 . S
C1209 C1211 1.389 . S
C1210 H1183 0.950 . S
C1210 C1196 1.377 . S
C1210 C1209 1.373 . S
C1211 C1195 1.377 . S
C1211 C1209 1.389 . S
C1211 C1212 1.524 . S
C1212 C1211 1.524 . S
C1212 C1213 1.397 . S
C1212 C1217 1.363 . S
C1213 H1184 0.950 . S
C1213 C1212 1.397 . S
C1213 C1214 1.334 . S
C1214 H1185 0.950 . S
C1214 C1213 1.334 . S
C1214 C1215 1.287 . S
C1215 C1214 1.287 . S
C1215 C1216 1.524 . S
C1215 H1218 0.999 . S
C1216 H1186 0.950 . S
C1216 C1215 1.524 . S
C1216 C1217 1.415 . S
C1217 H1187 0.950 . S
C1217 C1212 1.363 . S
C1217 C1216 1.415 . S
H1218 C1215 0.999 . S
H1219 C1200 0.913 . S
H1220 C1238 0.951 . S
H1221 C1240 0.951 . S
H1222 C1242 0.950 . S
H1223 C1243 0.950 . S
H1224 C1245 0.950 . S
H1225 C1248 0.950 . S
H1226 C1249 0.950 . S
H1227 C1251 0.950 . S
H1228 C1252 0.950 . S
H1229 C1253 0.951 . S
H1230 C1255 0.951 . S
H1231 C1257 0.950 . S
H1232 C1258 0.950 . S
H1233 C1260 0.950 . S
H1234 C1263 0.950 . S
H1235 C1264 0.950 . S
H1236 C1266 0.950 . S
H1237 C1267 0.950 . S
C1238 H1220 0.951 . S
C1238 C1239 1.366 . S
C1238 C1240 1.388 . S
C1239 C1238 1.366 . S
C1239 C1243 1.385 . S
C1240 H1221 0.951 . S
C1240 C1238 1.388 . S
C1240 C1241 1.366 . S
C1241 C1240 1.366 . S
C1241 C1242 1.414 . S
C1241 C1244 1.499 . S
C1242 H1222 0.950 . S
C1242 C1241 1.414 . S
C1242 C1243 1.374 . S
C1243 H1223 0.950 . S
C1243 C1239 1.385 . S
C1243 C1242 1.374 . S
C1244 C1241 1.499 . S
C1244 C1245 1.373 . S
C1244 C1246 1.389 . S
C1245 H1224 0.950 . S
C1245 C1244 1.373 . S
C1245 C1261 1.377 . S
C1246 C1244 1.389 . S
C1246 C1247 1.524 . S
C1246 C1260 1.377 . S
C1247 C1246 1.524 . S
C1247 C1248 1.397 . S
C1247 C1252 1.363 . S
C1248 H1225 0.950 . S
C1248 C1247 1.397 . S
C1248 C1249 1.334 . S
C1249 H1226 0.950 . S
C1249 C1248 1.334 . S
C1249 C1250 1.287 . S
C1250 C1249 1.287 . S
C1250 C1251 1.524 . S
C1250 H1269 0.913 . S
C1251 H1227 0.950 . S
C1251 C1250 1.524 . S
C1251 C1252 1.415 . S
C1252 H1228 0.950 . S
C1252 C1247 1.363 . S
C1252 C1251 1.415 . S
C1253 H1229 0.951 . S
C1253 C1254 1.366 . S
C1253 C1255 1.388 . S
C1254 C1253 1.366 . S
C1254 C1258 1.385 . S
C1255 H1230 0.951 . S
C1255 C1253 1.388 . S
C1255 C1256 1.366 . S
C1256 C1255 1.366 . S
C1256 C1257 1.414 . S
C1256 C1259 1.499 . S
C1257 H1231 0.950 . S
C1257 C1256 1.414 . S
C1257 C1258 1.374 . S
C1258 H1232 0.950 . S
C1258 C1254 1.385 . S
C1258 C1257 1.374 . S
C1259 C1256 1.499 . S
C1259 C1260 1.373 . S
C1259 C1261 1.389 . S
C1260 H1233 0.950 . S
C1260 C1246 1.377 . S
C1260 C1259 1.373 . S
C1261 C1245 1.377 . S
C1261 C1259 1.389 . S
C1261 C1262 1.524 . S
C1262 C1261 1.524 . S
C1262 C1263 1.397 . S
C1262 C1267 1.363 . S
C1263 H1234 0.950 . S
C1263 C1262 1.397 . S
C1263 C1264 1.334 . S
C1264 H1235 0.950 . S
C1264 C1263 1.334 . S
C1264 C1265 1.287 . S
C1265 C1264 1.287 . S
C1265 C1266 1.524 . S
C1265 H1268 0.999 . S
C1266 H1236 0.950 . S
C1266 C1265 1.524 . S
C1266 C1267 1.415 . S
C1267 H1237 0.950 . S
C1267 C1262 1.363 . S
C1267 C1266 1.415 . S
H1268 C1265 0.999 . S
H1269 C1250 0.913 . S
H1270 C1288 0.951 1_655 S
H1271 C1290 0.951 . S
H1272 C1292 0.950 . S
H1273 C1293 0.950 . S
H1274 C1295 0.950 . S
H1275 C1298 0.950 . S
H1276 C1299 0.950 . S
H1277 C1301 0.950 . S
H1278 C1302 0.950 . S
H1279 C1303 0.951 . S
H1280 C1305 0.951 . S
H1281 C1307 0.950 . S
H1282 C1308 0.950 . S
H1283 C1310 0.950 . S
H1284 C1313 0.950 . S
H1285 C1314 0.950 . S
H1286 C1316 0.950 . S
H1287 C1317 0.950 . S
C1288 H1270 0.951 1_455 S
C1288 C1289 1.366 1_455 S
C1288 C1290 1.388 . S
C1289 C1288 1.366 1_655 S
C1289 C1293 1.385 . S
C1290 H1271 0.951 . S
C1290 C1288 1.388 . S
C1290 C1291 1.366 . S
C1291 C1290 1.366 . S
C1291 C1292 1.414 . S
C1291 C1294 1.499 . S
C1292 H1272 0.950 . S
C1292 C1291 1.414 . S
C1292 C1293 1.374 1_455 S
C1293 H1273 0.950 . S
C1293 C1289 1.385 . S
C1293 C1292 1.374 1_655 S
C1294 C1291 1.499 . S
C1294 C1295 1.373 . S
C1294 C1296 1.389 . S
C1295 H1274 0.950 . S
C1295 C1294 1.373 . S
C1295 C1311 1.377 . S
C1296 C1294 1.389 . S
C1296 C1297 1.524 . S
C1296 C1310 1.377 . S
C1297 C1296 1.524 . S
C1297 C1298 1.397 . S
C1297 C1302 1.363 . S
C1298 H1275 0.950 . S
C1298 C1297 1.397 . S
C1298 C1299 1.334 . S
C1299 H1276 0.950 . S
C1299 C1298 1.334 . S
C1299 C1300 1.287 . S
C1300 C1299 1.287 . S
C1300 C1301 1.524 . S
C1300 H1319 0.913 . S
C1301 H1277 0.950 . S
C1301 C1300 1.524 . S
C1301 C1302 1.415 . S
C1302 H1278 0.950 . S
C1302 C1297 1.363 . S
C1302 C1301 1.415 . S
C1303 H1279 0.951 . S
C1303 C1304 1.366 . S
C1303 C1305 1.388 . S
C1304 C1303 1.366 . S
C1304 C1308 1.385 . S
C1305 H1280 0.951 . S
C1305 C1303 1.388 . S
C1305 C1306 1.366 . S
C1306 C1305 1.366 . S
C1306 C1307 1.414 . S
C1306 C1309 1.499 . S
C1307 H1281 0.950 . S
C1307 C1306 1.414 . S
C1307 C1308 1.374 . S
C1308 H1282 0.950 . S
C1308 C1304 1.385 . S
C1308 C1307 1.374 . S
C1309 C1306 1.499 . S
C1309 C1310 1.373 . S
C1309 C1311 1.389 . S
C1310 H1283 0.950 . S
C1310 C1296 1.377 . S
C1310 C1309 1.373 . S
C1311 C1295 1.377 . S
C1311 C1309 1.389 . S
C1311 C1312 1.524 . S
C1312 C1311 1.524 . S
C1312 C1313 1.397 . S
C1312 C1317 1.363 . S
C1313 H1284 0.950 . S
C1313 C1312 1.397 . S
C1313 C1314 1.334 . S
C1314 H1285 0.950 . S
C1314 C1313 1.334 . S
C1314 C1315 1.287 . S
C1315 C1314 1.287 . S
C1315 C1316 1.524 . S
C1315 H1318 0.999 . S
C1316 H1286 0.950 . S
C1316 C1315 1.524 . S
C1316 C1317 1.415 . S
C1317 H1287 0.950 . S
C1317 C1312 1.363 . S
C1317 C1316 1.415 . S
H1318 C1315 0.999 . S
H1319 C1300 0.913 . S
H1320 C1338 0.951 . S
H1321 C1340 0.951 . S
H1322 C1342 0.950 . S
H1323 C1343 0.950 . S
H1324 C1345 0.950 . S
H1325 C1348 0.950 . S
H1326 C1349 0.950 . S
H1327 C1351 0.950 . S
H1328 C1352 0.950 . S
H1329 C1353 0.951 . S
H1330 C1355 0.951 . S
H1331 C1357 0.950 . S
H1332 C1358 0.950 . S
H1333 C1360 0.950 . S
H1334 C1363 0.950 . S
H1335 C1364 0.950 . S
H1336 C1366 0.950 . S
H1337 C1367 0.950 . S
C1338 H1320 0.951 . S
C1338 C1339 1.366 . S
C1338 C1340 1.388 . S
C1339 C1338 1.366 . S
C1339 C1343 1.385 . S
C1340 H1321 0.951 . S
C1340 C1338 1.388 . S
C1340 C1341 1.366 . S
C1341 C1340 1.366 . S
C1341 C1342 1.414 . S
C1341 C1344 1.499 . S
C1342 H1322 0.950 . S
C1342 C1341 1.414 . S
C1342 C1343 1.374 . S
C1343 H1323 0.950 . S
C1343 C1339 1.385 . S
C1343 C1342 1.374 . S
C1344 C1341 1.499 . S
C1344 C1345 1.373 . S
C1344 C1346 1.389 . S
C1345 H1324 0.950 . S
C1345 C1344 1.373 . S
C1345 C1361 1.377 . S
C1346 C1344 1.389 . S
C1346 C1347 1.524 . S
C1346 C1360 1.377 . S
C1347 C1346 1.524 . S
C1347 C1348 1.397 . S
C1347 C1352 1.363 . S
C1348 H1325 0.950 . S
C1348 C1347 1.397 . S
C1348 C1349 1.334 . S
C1349 H1326 0.950 . S
C1349 C1348 1.334 . S
C1349 C1350 1.287 . S
C1350 C1349 1.287 . S
C1350 C1351 1.524 . S
C1350 H1369 0.913 . S
C1351 H1327 0.950 . S
C1351 C1350 1.524 . S
C1351 C1352 1.415 . S
C1352 H1328 0.950 . S
C1352 C1347 1.363 . S
C1352 C1351 1.415 . S
C1353 H1329 0.951 . S
C1353 C1354 1.366 . S
C1353 C1355 1.388 . S
C1354 C1353 1.366 . S
C1354 C1358 1.385 . S
C1355 H1330 0.951 . S
C1355 C1353 1.388 . S
C1355 C1356 1.366 . S
C1356 C1355 1.366 . S
C1356 C1357 1.414 . S
C1356 C1359 1.499 . S
C1357 H1331 0.950 . S
C1357 C1356 1.414 . S
C1357 C1358 1.374 . S
C1358 H1332 0.950 . S
C1358 C1354 1.385 . S
C1358 C1357 1.374 . S
C1359 C1356 1.499 . S
C1359 C1360 1.373 . S
C1359 C1361 1.389 . S
C1360 H1333 0.950 . S
C1360 C1346 1.377 . S
C1360 C1359 1.373 . S
C1361 C1345 1.377 . S
C1361 C1359 1.389 . S
C1361 C1362 1.524 . S
C1362 C1361 1.524 . S
C1362 C1363 1.397 . S
C1362 C1367 1.363 . S
C1363 H1334 0.950 . S
C1363 C1362 1.397 . S
C1363 C1364 1.334 . S
C1364 H1335 0.950 . S
C1364 C1363 1.334 . S
C1364 C1365 1.287 . S
C1365 C1364 1.287 . S
C1365 C1366 1.524 . S
C1365 H1368 0.999 . S
C1366 H1336 0.950 . S
C1366 C1365 1.524 . S
C1366 C1367 1.415 . S
C1367 H1337 0.950 . S
C1367 C1362 1.363 . S
C1367 C1366 1.415 . S
H1368 C1365 0.999 . S
H1369 C1350 0.913 . S
H1370 C1388 0.951 . S
H1371 C1390 0.951 . S
H1372 C1392 0.950 . S
H1373 C1393 0.950 . S
H1374 C1395 0.950 . S
H1375 C1398 0.950 . S
H1376 C1399 0.950 . S
H1377 C1401 0.950 . S
H1378 C1402 0.950 . S
H1379 C1403 0.951 . S
H1380 C1405 0.951 . S
H1381 C1407 0.950 . S
H1382 C1408 0.950 . S
H1383 C1410 0.950 . S
H1384 C1413 0.950 . S
H1385 C1414 0.950 . S
H1386 C1416 0.950 . S
H1387 C1417 0.950 . S
C1388 H1370 0.951 . S
C1388 C1389 1.366 . S
C1388 C1390 1.388 . S
C1389 C1388 1.366 . S
C1389 C1393 1.385 . S
C1390 H1371 0.951 . S
C1390 C1388 1.388 . S
C1390 C1391 1.366 . S
C1391 C1390 1.366 . S
C1391 C1392 1.414 . S
C1391 C1394 1.499 . S
C1392 H1372 0.950 . S
C1392 C1391 1.414 . S
C1392 C1393 1.374 . S
C1393 H1373 0.950 . S
C1393 C1389 1.385 . S
C1393 C1392 1.374 . S
C1394 C1391 1.499 . S
C1394 C1395 1.373 . S
C1394 C1396 1.389 . S
C1395 H1374 0.950 . S
C1395 C1394 1.373 . S
C1395 C1411 1.377 . S
C1396 C1394 1.389 . S
C1396 C1397 1.524 . S
C1396 C1410 1.377 . S
C1397 C1396 1.524 . S
C1397 C1398 1.397 . S
C1397 C1402 1.363 . S
C1398 H1375 0.950 . S
C1398 C1397 1.397 . S
C1398 C1399 1.334 . S
C1399 H1376 0.950 . S
C1399 C1398 1.334 . S
C1399 C1400 1.287 . S
C1400 C1399 1.287 . S
C1400 C1401 1.524 . S
C1400 H1419 0.913 . S
C1401 H1377 0.950 . S
C1401 C1400 1.524 . S
C1401 C1402 1.415 . S
C1402 H1378 0.950 . S
C1402 C1397 1.363 . S
C1402 C1401 1.415 . S
C1403 H1379 0.951 . S
C1403 C1404 1.366 . S
C1403 C1405 1.388 . S
C1404 C1403 1.366 . S
C1404 C1408 1.385 . S
C1405 H1380 0.951 . S
C1405 C1403 1.388 . S
C1405 C1406 1.366 . S
C1406 C1405 1.366 . S
C1406 C1407 1.414 . S
C1406 C1409 1.499 . S
C1407 H1381 0.950 . S
C1407 C1406 1.414 . S
C1407 C1408 1.374 . S
C1408 H1382 0.950 . S
C1408 C1404 1.385 . S
C1408 C1407 1.374 . S
C1409 C1406 1.499 . S
C1409 C1410 1.373 . S
C1409 C1411 1.389 . S
C1410 H1383 0.950 . S
C1410 C1396 1.377 . S
C1410 C1409 1.373 . S
C1411 C1395 1.377 . S
C1411 C1409 1.389 . S
C1411 C1412 1.524 . S
C1412 C1411 1.524 . S
C1412 C1413 1.397 . S
C1412 C1417 1.363 . S
C1413 H1384 0.950 . S
C1413 C1412 1.397 . S
C1413 C1414 1.334 . S
C1414 H1385 0.950 . S
C1414 C1413 1.334 . S
C1414 C1415 1.287 . S
C1415 C1414 1.287 . S
C1415 C1416 1.524 . S
C1415 H1418 0.999 . S
C1416 H1386 0.950 . S
C1416 C1415 1.524 . S
C1416 C1417 1.415 . S
C1417 H1387 0.950 . S
C1417 C1412 1.363 . S
C1417 C1416 1.415 . S
H1418 C1415 0.999 . S
H1419 C1400 0.913 . S
H1420 C1438 0.951 . S
H1421 C1440 0.951 . S
H1422 C1442 0.950 . S
H1423 C1443 0.950 . S
H1424 C1445 0.950 . S
H1425 C1448 0.950 . S
H1426 C1449 0.950 . S
H1427 C1451 0.950 . S
H1428 C1452 0.950 . S
H1429 C1453 0.951 . S
H1430 C1455 0.951 . S
H1431 C1457 0.950 . S
H1432 C1458 0.950 . S
H1433 C1460 0.950 . S
H1434 C1463 0.950 . S
H1435 C1464 0.950 . S
H1436 C1466 0.950 . S
H1437 C1467 0.950 . S
C1438 H1420 0.951 . S
C1438 C1439 1.366 . S
C1438 C1440 1.388 . S
C1439 C1438 1.366 . S
C1439 C1443 1.385 . S
C1440 H1421 0.951 . S
C1440 C1438 1.388 . S
C1440 C1441 1.366 . S
C1441 C1440 1.366 . S
C1441 C1442 1.414 . S
C1441 C1444 1.499 . S
C1442 H1422 0.950 . S
C1442 C1441 1.414 . S
C1442 C1443 1.374 . S
C1443 H1423 0.950 . S
C1443 C1439 1.385 . S
C1443 C1442 1.374 . S
C1444 C1441 1.499 . S
C1444 C1445 1.373 . S
C1444 C1446 1.389 . S
C1445 H1424 0.950 . S
C1445 C1444 1.373 . S
C1445 C1461 1.377 . S
C1446 C1444 1.389 . S
C1446 C1447 1.524 . S
C1446 C1460 1.377 . S
C1447 C1446 1.524 . S
C1447 C1448 1.397 . S
C1447 C1452 1.363 . S
C1448 H1425 0.950 . S
C1448 C1447 1.397 . S
C1448 C1449 1.334 . S
C1449 H1426 0.950 . S
C1449 C1448 1.334 . S
C1449 C1450 1.287 . S
C1450 C1449 1.287 . S
C1450 C1451 1.524 . S
C1450 H1469 0.913 . S
C1451 H1427 0.950 . S
C1451 C1450 1.524 . S
C1451 C1452 1.415 . S
C1452 H1428 0.950 . S
C1452 C1447 1.363 . S
C1452 C1451 1.415 . S
C1453 H1429 0.951 . S
C1453 C1454 1.366 . S
C1453 C1455 1.388 . S
C1454 C1453 1.366 . S
C1454 C1458 1.385 . S
C1455 H1430 0.951 . S
C1455 C1453 1.388 . S
C1455 C1456 1.366 . S
C1456 C1455 1.366 . S
C1456 C1457 1.414 . S
C1456 C1459 1.499 . S
C1457 H1431 0.950 . S
C1457 C1456 1.414 . S
C1457 C1458 1.374 . S
C1458 H1432 0.950 . S
C1458 C1454 1.385 . S
C1458 C1457 1.374 . S
C1459 C1456 1.499 . S
C1459 C1460 1.373 . S
C1459 C1461 1.389 . S
C1460 H1433 0.950 . S
C1460 C1446 1.377 . S
C1460 C1459 1.373 . S
C1461 C1445 1.377 . S
C1461 C1459 1.389 . S
C1461 C1462 1.524 . S
C1462 C1461 1.524 . S
C1462 C1463 1.397 . S
C1462 C1467 1.363 . S
C1463 H1434 0.950 . S
C1463 C1462 1.397 . S
C1463 C1464 1.334 . S
C1464 H1435 0.950 . S
C1464 C1463 1.334 . S
C1464 C1465 1.287 . S
C1465 C1464 1.287 . S
C1465 C1466 1.524 . S
C1465 H1468 0.999 . S
C1466 H1436 0.950 . S
C1466 C1465 1.524 . S
C1466 C1467 1.415 . S
C1467 H1437 0.950 . S
C1467 C1462 1.363 . S
C1467 C1466 1.415 . S
H1468 C1465 0.999 . S
H1469 C1450 0.913 . S
H1470 C1488 0.951 . S
H1471 C1490 0.951 . S
H1472 C1492 0.950 . S
H1473 C1493 0.950 . S
H1474 C1495 0.950 . S
H1475 C1498 0.950 . S
H1476 C1499 0.950 . S
H1477 C1501 0.950 . S
H1478 C1502 0.950 . S
H1479 C1503 0.951 . S
H1480 C1505 0.951 . S
H1481 C1507 0.950 . S
H1482 C1508 0.950 . S
H1483 C1510 0.950 . S
H1484 C1513 0.950 . S
H1485 C1514 0.950 . S
H1486 C1516 0.950 . S
H1487 C1517 0.950 . S
C1488 H1470 0.951 . S
C1488 C1489 1.366 . S
C1488 C1490 1.388 . S
C1489 C1488 1.366 . S
C1489 C1493 1.385 . S
C1490 H1471 0.951 . S
C1490 C1488 1.388 . S
C1490 C1491 1.366 . S
C1491 C1490 1.366 . S
C1491 C1492 1.414 . S
C1491 C1494 1.499 . S
C1492 H1472 0.950 . S
C1492 C1491 1.414 . S
C1492 C1493 1.374 . S
C1493 H1473 0.950 . S
C1493 C1489 1.385 . S
C1493 C1492 1.374 . S
C1494 C1491 1.499 . S
C1494 C1495 1.373 . S
C1494 C1496 1.389 . S
C1495 H1474 0.950 . S
C1495 C1494 1.373 . S
C1495 C1511 1.377 . S
C1496 C1494 1.389 . S
C1496 C1497 1.524 . S
C1496 C1510 1.377 . S
C1497 C1496 1.524 . S
C1497 C1498 1.397 . S
C1497 C1502 1.363 . S
C1498 H1475 0.950 . S
C1498 C1497 1.397 . S
C1498 C1499 1.334 . S
C1499 H1476 0.950 . S
C1499 C1498 1.334 . S
C1499 C1500 1.287 . S
C1500 C1499 1.287 . S
C1500 C1501 1.524 . S
C1500 H1519 0.913 . S
C1501 H1477 0.950 . S
C1501 C1500 1.524 . S
C1501 C1502 1.415 . S
C1502 H1478 0.950 . S
C1502 C1497 1.363 . S
C1502 C1501 1.415 . S
C1503 H1479 0.951 . S
C1503 C1504 1.366 . S
C1503 C1505 1.388 1_455 S
C1504 C1503 1.366 . S
C1504 C1508 1.385 1_455 S
C1505 H1480 0.951 . S
C1505 C1503 1.388 1_655 S
C1505 C1506 1.366 . S
C1506 C1505 1.366 . S
C1506 C1507 1.414 . S
C1506 C1509 1.499 . S
C1507 H1481 0.950 . S
C1507 C1506 1.414 . S
C1507 C1508 1.374 . S
C1508 H1482 0.950 . S
C1508 C1504 1.385 1_655 S
C1508 C1507 1.374 . S
C1509 C1506 1.499 . S
C1509 C1510 1.373 . S
C1509 C1511 1.389 . S
C1510 H1483 0.950 . S
C1510 C1496 1.377 . S
C1510 C1509 1.373 . S
C1511 C1495 1.377 . S
C1511 C1509 1.389 . S
C1511 C1512 1.524 . S
C1512 C1511 1.524 . S
C1512 C1513 1.397 . S
C1512 C1517 1.363 . S
C1513 H1484 0.950 . S
C1513 C1512 1.397 . S
C1513 C1514 1.334 . S
C1514 H1485 0.950 . S
C1514 C1513 1.334 . S
C1514 C1515 1.287 . S
C1515 C1514 1.287 . S
C1515 C1516 1.524 . S
C1515 H1518 0.999 . S
C1516 H1486 0.950 . S
C1516 C1515 1.524 . S
C1516 C1517 1.415 . S
C1517 H1487 0.950 . S
C1517 C1512 1.363 . S
C1517 C1516 1.415 . S
H1518 C1515 0.999 . S
H1519 C1500 0.913 . S
H1520 C1538 0.951 . S
H1521 C1540 0.951 . S
H1522 C1542 0.950 . S
H1523 C1543 0.950 . S
H1524 C1545 0.950 . S
H1525 C1548 0.950 . S
H1526 C1549 0.950 . S
H1527 C1551 0.950 . S
H1528 C1552 0.950 . S
H1529 C1553 0.951 . S
H1530 C1555 0.951 . S
H1531 C1557 0.950 . S
H1532 C1558 0.950 . S
H1533 C1560 0.950 . S
H1534 C1563 0.950 . S
H1535 C1564 0.950 . S
H1536 C1566 0.950 . S
H1537 C1567 0.950 . S
C1538 H1520 0.951 . S
C1538 C1539 1.366 . S
C1538 C1540 1.388 . S
C1539 C1538 1.366 . S
C1539 C1543 1.385 . S
C1540 H1521 0.951 . S
C1540 C1538 1.388 . S
C1540 C1541 1.366 . S
C1541 C1540 1.366 . S
C1541 C1542 1.414 . S
C1541 C1544 1.499 . S
C1542 H1522 0.950 . S
C1542 C1541 1.414 . S
C1542 C1543 1.374 . S
C1543 H1523 0.950 . S
C1543 C1539 1.385 . S
C1543 C1542 1.374 . S
C1544 C1541 1.499 . S
C1544 C1545 1.373 . S
C1544 C1546 1.389 . S
C1545 H1524 0.950 . S
C1545 C1544 1.373 . S
C1545 C1561 1.377 . S
C1546 C1544 1.389 . S
C1546 C1547 1.524 . S
C1546 C1560 1.377 . S
C1547 C1546 1.524 . S
C1547 C1548 1.397 . S
C1547 C1552 1.363 . S
C1548 H1525 0.950 . S
C1548 C1547 1.397 . S
C1548 C1549 1.334 . S
C1549 H1526 0.950 . S
C1549 C1548 1.334 . S
C1549 C1550 1.287 . S
C1550 C1549 1.287 . S
C1550 C1551 1.524 . S
C1550 H1569 0.913 . S
C1551 H1527 0.950 . S
C1551 C1550 1.524 . S
C1551 C1552 1.415 . S
C1552 H1528 0.950 . S
C1552 C1547 1.363 . S
C1552 C1551 1.415 . S
C1553 H1529 0.951 . S
C1553 C1554 1.366 . S
C1553 C1555 1.388 . S
C1554 C1553 1.366 . S
C1554 C1558 1.385 . S
C1555 H1530 0.951 . S
C1555 C1553 1.388 . S
C1555 C1556 1.366 . S
C1556 C1555 1.366 . S
C1556 C1557 1.414 . S
C1556 C1559 1.499 . S
C1557 H1531 0.950 . S
C1557 C1556 1.414 . S
C1557 C1558 1.374 . S
C1558 H1532 0.950 . S
C1558 C1554 1.385 . S
C1558 C1557 1.374 . S
C1559 C1556 1.499 . S
C1559 C1560 1.373 . S
C1559 C1561 1.389 . S
C1560 H1533 0.950 . S
C1560 C1546 1.377 . S
C1560 C1559 1.373 . S
C1561 C1545 1.377 . S
C1561 C1559 1.389 . S
C1561 C1562 1.524 . S
C1562 C1561 1.524 . S
C1562 C1563 1.397 . S
C1562 C1567 1.363 . S
C1563 H1534 0.950 . S
C1563 C1562 1.397 . S
C1563 C1564 1.334 . S
C1564 H1535 0.950 . S
C1564 C1563 1.334 . S
C1564 C1565 1.287 . S
C1565 C1564 1.287 . S
C1565 C1566 1.524 . S
C1565 H1568 0.999 . S
C1566 H1536 0.950 . S
C1566 C1565 1.524 . S
C1566 C1567 1.415 . S
C1567 H1537 0.950 . S
C1567 C1562 1.363 . S
C1567 C1566 1.415 . S
H1568 C1565 0.999 . S
H1569 C1550 0.913 . S
H1570 C1588 0.951 . S
H1571 C1590 0.951 . S
H1572 C1592 0.950 . S
H1573 C1593 0.950 . S
H1574 C1595 0.950 . S
H1575 C1598 0.950 . S
H1576 C1599 0.950 . S
H1577 C1601 0.950 . S
H1578 C1602 0.950 . S
H1579 C1603 0.956 . S
H1580 C1605 0.951 . S
H1581 C1607 0.950 . S
H1582 C1608 0.950 . S
H1583 C1610 0.950 . S
H1584 C1613 0.950 1_565 S
H1585 C1614 0.950 . S
H1586 C1616 0.950 . S
H1587 C1617 0.950 . S
C1588 H1570 0.951 . S
C1588 C1589 1.366 . S
C1588 C1590 1.388 . S
C1589 C1588 1.366 . S
C1589 C1593 1.385 . S
C1590 H1571 0.951 . S
C1590 C1588 1.388 . S
C1590 C1591 1.366 . S
C1591 C1590 1.366 . S
C1591 C1592 1.414 . S
C1591 C1594 1.499 . S
C1592 H1572 0.950 . S
C1592 C1591 1.414 . S
C1592 C1593 1.374 . S
C1593 H1573 0.950 . S
C1593 C1589 1.385 . S
C1593 C1592 1.374 . S
C1594 C1591 1.499 . S
C1594 C1595 1.373 . S
C1594 C1596 1.389 . S
C1595 H1574 0.950 . S
C1595 C1594 1.373 . S
C1595 C1611 1.377 . S
C1596 C1594 1.389 . S
C1596 C1597 1.524 . S
C1596 C1610 1.377 . S
C1597 C1596 1.524 . S
C1597 C1598 1.397 . S
C1597 C1602 1.363 . S
C1598 H1575 0.950 . S
C1598 C1597 1.397 . S
C1598 C1599 1.334 . S
C1599 H1576 0.950 . S
C1599 C1598 1.334 . S
C1599 C1600 1.287 . S
C1600 C1599 1.287 . S
C1600 C1601 1.524 . S
C1600 H1619 0.913 . S
C1601 H1577 0.950 . S
C1601 C1600 1.524 . S
C1601 C1602 1.415 . S
C1602 H1578 0.950 . S
C1602 C1597 1.363 . S
C1602 C1601 1.415 . S
C1603 H1579 0.956 . S
C1603 C1604 1.379 . S
C1603 C1605 1.370 1_455 S
C1604 C1603 1.379 . S
C1604 C1608 1.385 1_545 S
C1605 H1580 0.951 . S
C1605 C1603 1.370 1_655 S
C1605 C1606 1.366 1_545 S
C1606 C1605 1.366 1_565 S
C1606 C1607 1.414 . S
C1606 C1609 1.499 . S
C1607 H1581 0.950 . S
C1607 C1606 1.414 . S
C1607 C1608 1.374 1_655 S
C1608 H1582 0.950 . S
C1608 C1604 1.385 1_565 S
C1608 C1607 1.374 1_455 S
C1609 C1606 1.499 . S
C1609 C1610 1.373 . S
C1609 C1611 1.389 . S
C1610 H1583 0.950 . S
C1610 C1596 1.377 . S
C1610 C1609 1.373 . S
C1611 C1595 1.377 . S
C1611 C1609 1.389 . S
C1611 C1612 1.524 1_565 S
C1612 C1611 1.524 1_545 S
C1612 C1613 1.397 . S
C1612 C1617 1.363 . S
C1613 H1584 0.950 1_545 S
C1613 C1612 1.397 . S
C1613 C1614 1.334 . S
C1614 H1585 0.950 . S
C1614 C1613 1.334 . S
C1614 C1615 1.287 . S
C1615 C1614 1.287 . S
C1615 C1616 1.524 . S
C1615 H1618 0.999 . S
C1616 H1586 0.950 . S
C1616 C1615 1.524 . S
C1616 C1617 1.415 . S
C1617 H1587 0.950 . S
C1617 C1612 1.363 . S
C1617 C1616 1.415 . S
H1618 C1615 0.999 . S
H1619 C1600 0.913 . S
H1620 C1638 0.951 . S
H1621 C1640 0.951 . S
H1622 C1642 0.950 . S
H1623 C1643 0.950 . S
H1624 C1645 0.950 . S
H1625 C1648 0.950 . S
H1626 C1649 0.950 . S
H1627 C1651 0.950 . S
H1628 C1652 0.950 . S
H1629 C1653 0.951 . S
H1630 C1655 0.951 . S
H1631 C1657 0.950 . S
H1632 C1658 0.950 . S
H1633 C1660 0.950 . S
H1634 C1663 0.950 . S
H1635 C1664 0.950 . S
H1636 C1666 0.950 . S
H1637 C1667 0.950 . S
C1638 H1620 0.951 . S
C1638 C1639 1.366 . S
C1638 C1640 1.388 . S
C1639 C1638 1.366 . S
C1639 C1643 1.385 . S
C1640 H1621 0.951 . S
C1640 C1638 1.388 . S
C1640 C1641 1.366 . S
C1641 C1640 1.366 . S
C1641 C1642 1.414 . S
C1641 C1644 1.499 . S
C1642 H1622 0.950 . S
C1642 C1641 1.414 . S
C1642 C1643 1.374 . S
C1643 H1623 0.950 . S
C1643 C1639 1.385 . S
C1643 C1642 1.374 . S
C1644 C1641 1.499 . S
C1644 C1645 1.373 . S
C1644 C1646 1.389 . S
C1645 H1624 0.950 . S
C1645 C1644 1.373 . S
C1645 C1661 1.377 . S
C1646 C1644 1.389 . S
C1646 C1647 1.524 . S
C1646 C1660 1.377 . S
C1647 C1646 1.524 . S
C1647 C1648 1.397 . S
C1647 C1652 1.363 . S
C1648 H1625 0.950 . S
C1648 C1647 1.397 . S
C1648 C1649 1.334 . S
C1649 H1626 0.950 . S
C1649 C1648 1.334 . S
C1649 C1650 1.287 . S
C1650 C1649 1.287 . S
C1650 C1651 1.524 . S
C1650 H1669 0.913 . S
C1651 H1627 0.950 . S
C1651 C1650 1.524 . S
C1651 C1652 1.415 . S
C1652 H1628 0.950 . S
C1652 C1647 1.363 . S
C1652 C1651 1.415 . S
C1653 H1629 0.951 . S
C1653 C1654 1.366 . S
C1653 C1655 1.388 . S
C1654 C1653 1.366 . S
C1654 C1658 1.385 . S
C1655 H1630 0.951 . S
C1655 C1653 1.388 . S
C1655 C1656 1.366 . S
C1656 C1655 1.366 . S
C1656 C1657 1.414 . S
C1656 C1659 1.499 . S
C1657 H1631 0.950 . S
C1657 C1656 1.414 . S
C1657 C1658 1.374 . S
C1658 H1632 0.950 . S
C1658 C1654 1.385 . S
C1658 C1657 1.374 . S
C1659 C1656 1.499 . S
C1659 C1660 1.373 . S
C1659 C1661 1.389 . S
C1660 H1633 0.950 . S
C1660 C1646 1.377 . S
C1660 C1659 1.373 . S
C1661 C1645 1.377 . S
C1661 C1659 1.389 . S
C1661 C1662 1.524 . S
C1662 C1661 1.524 . S
C1662 C1663 1.397 . S
C1662 C1667 1.363 . S
C1663 H1634 0.950 . S
C1663 C1662 1.397 . S
C1663 C1664 1.334 . S
C1664 H1635 0.950 . S
C1664 C1663 1.334 . S
C1664 C1665 1.287 . S
C1665 C1664 1.287 . S
C1665 C1666 1.524 . S
C1665 H1668 0.999 . S
C1666 H1636 0.950 . S
C1666 C1665 1.524 . S
C1666 C1667 1.415 . S
C1667 H1637 0.950 . S
C1667 C1662 1.363 . S
C1667 C1666 1.415 . S
H1668 C1665 0.999 . S
H1669 C1650 0.913 . S
H1670 C1688 0.951 . S
H1671 C1690 0.951 . S
H1672 C1692 0.950 . S
H1673 C1693 0.950 . S
H1674 C1695 0.950 . S
H1675 C1698 0.950 . S
H1676 C1699 0.950 . S
H1677 C1701 0.950 . S
H1678 C1702 0.950 . S
H1679 C1703 0.951 . S
H1680 C1705 0.951 . S
H1681 C1707 0.950 . S
H1682 C1708 0.950 . S
H1683 C1710 0.950 . S
H1684 C1713 0.950 1_545 S
H1685 C1714 0.950 . S
H1686 C1716 0.950 . S
H1687 C1717 0.950 . S
C1688 H1670 0.951 . S
C1688 C1689 1.366 . S
C1688 C1690 1.388 . S
C1689 C1688 1.366 . S
C1689 C1693 1.385 . S
C1690 H1671 0.951 . S
C1690 C1688 1.388 . S
C1690 C1691 1.366 . S
C1691 C1690 1.366 . S
C1691 C1692 1.414 . S
C1691 C1694 1.499 . S
C1692 H1672 0.950 . S
C1692 C1691 1.414 . S
C1692 C1693 1.374 . S
C1693 H1673 0.950 . S
C1693 C1689 1.385 . S
C1693 C1692 1.374 . S
C1694 C1691 1.499 . S
C1694 C1695 1.373 . S
C1694 C1696 1.389 . S
C1695 H1674 0.950 . S
C1695 C1694 1.373 . S
C1695 C1711 1.377 . S
C1696 C1694 1.389 . S
C1696 C1697 1.524 . S
C1696 C1710 1.377 . S
C1697 C1696 1.524 . S
C1697 C1698 1.397 . S
C1697 C1702 1.363 . S
C1698 H1675 0.950 . S
C1698 C1697 1.397 . S
C1698 C1699 1.334 . S
C1699 H1676 0.950 . S
C1699 C1698 1.334 . S
C1699 C1700 1.287 . S
C1700 C1699 1.287 . S
C1700 C1701 1.524 . S
C1700 H1719 0.913 . S
C1701 H1677 0.950 . S
C1701 C1700 1.524 . S
C1701 C1702 1.415 . S
C1702 H1678 0.950 . S
C1702 C1697 1.363 . S
C1702 C1701 1.415 . S
C1703 H1679 0.951 . S
C1703 C1704 1.366 . S
C1703 C1705 1.388 . S
C1704 C1703 1.366 . S
C1704 C1708 1.385 1_565 S
C1705 H1680 0.951 . S
C1705 C1703 1.388 . S
C1705 C1706 1.366 1_565 S
C1706 C1705 1.366 1_545 S
C1706 C1707 1.414 . S
C1706 C1709 1.499 . S
C1707 H1681 0.950 . S
C1707 C1706 1.414 . S
C1707 C1708 1.374 . S
C1708 H1682 0.950 . S
C1708 C1704 1.385 1_545 S
C1708 C1707 1.374 . S
C1709 C1706 1.499 . S
C1709 C1710 1.373 . S
C1709 C1711 1.389 . S
C1710 H1683 0.950 . S
C1710 C1696 1.377 . S
C1710 C1709 1.373 . S
C1711 C1695 1.377 . S
C1711 C1709 1.389 . S
C1711 C1712 1.524 1_545 S
C1712 C1711 1.524 1_565 S
C1712 C1713 1.397 . S
C1712 C1717 1.363 . S
C1713 H1684 0.950 1_565 S
C1713 C1712 1.397 . S
C1713 C1714 1.334 . S
C1714 H1685 0.950 . S
C1714 C1713 1.334 . S
C1714 C1715 1.287 . S
C1715 C1714 1.287 . S
C1715 C1716 1.524 . S
C1715 H1718 0.999 . S
C1716 H1686 0.950 . S
C1716 C1715 1.524 . S
C1716 C1717 1.415 . S
C1717 H1687 0.950 . S
C1717 C1712 1.363 . S
C1717 C1716 1.415 . S
H1718 C1715 0.999 . S
H1719 C1700 0.913 . S
H1720 C1738 0.951 . S
H1721 C1740 0.951 . S
H1722 C1742 0.950 . S
H1723 C1743 0.950 . S
H1724 C1745 0.950 . S
H1725 C1748 0.950 . S
H1726 C1749 0.950 . S
H1727 C1751 0.950 . S
H1728 C1752 0.950 . S
H1729 C1753 0.951 . S
H1730 C1755 0.951 . S
H1731 C1757 0.950 . S
H1732 C1758 0.950 1_565 S
H1733 C1760 0.950 . S
H1734 C1763 0.950 . S
H1735 C1764 0.950 . S
H1736 C1766 0.950 . S
H1737 C1767 0.950 . S
C1738 H1720 0.951 . S
C1738 C1739 1.366 . S
C1738 C1740 1.388 . S
C1739 C1738 1.366 . S
C1739 C1743 1.385 . S
C1740 H1721 0.951 . S
C1740 C1738 1.388 . S
C1740 C1741 1.366 . S
C1741 C1740 1.366 . S
C1741 C1742 1.414 . S
C1741 C1744 1.499 . S
C1742 H1722 0.950 . S
C1742 C1741 1.414 . S
C1742 C1743 1.374 . S
C1743 H1723 0.950 . S
C1743 C1739 1.385 . S
C1743 C1742 1.374 . S
C1744 C1741 1.499 . S
C1744 C1745 1.373 . S
C1744 C1746 1.389 . S
C1745 H1724 0.950 . S
C1745 C1744 1.373 . S
C1745 C1761 1.377 . S
C1746 C1744 1.389 . S
C1746 C1747 1.524 . S
C1746 C1760 1.377 . S
C1747 C1746 1.524 . S
C1747 C1748 1.397 . S
C1747 C1752 1.363 . S
C1748 H1725 0.950 . S
C1748 C1747 1.397 . S
C1748 C1749 1.334 . S
C1749 H1726 0.950 . S
C1749 C1748 1.334 . S
C1749 C1750 1.287 . S
C1750 C1749 1.287 . S
C1750 C1751 1.524 . S
C1750 H1769 0.913 . S
C1751 H1727 0.950 . S
C1751 C1750 1.524 . S
C1751 C1752 1.415 . S
C1752 H1728 0.950 . S
C1752 C1747 1.363 . S
C1752 C1751 1.415 . S
C1753 H1729 0.951 . S
C1753 C1754 1.366 . S
C1753 C1755 1.388 . S
C1754 C1753 1.366 . S
C1754 C1758 1.385 . S
C1755 H1730 0.951 . S
C1755 C1753 1.388 . S
C1755 C1756 1.366 . S
C1756 C1755 1.366 . S
C1756 C1757 1.414 . S
C1756 C1759 1.499 . S
C1757 H1731 0.950 . S
C1757 C1756 1.414 . S
C1757 C1758 1.374 . S
C1758 H1732 0.950 1_545 S
C1758 C1754 1.385 . S
C1758 C1757 1.374 . S
C1759 C1756 1.499 . S
C1759 C1760 1.373 . S
C1759 C1761 1.389 . S
C1760 H1733 0.950 . S
C1760 C1746 1.377 . S
C1760 C1759 1.373 . S
C1761 C1745 1.377 . S
C1761 C1759 1.389 . S
C1761 C1762 1.524 . S
C1762 C1761 1.524 . S
C1762 C1763 1.397 . S
C1762 C1767 1.363 . S
C1763 H1734 0.950 . S
C1763 C1762 1.397 . S
C1763 C1764 1.334 . S
C1764 H1735 0.950 . S
C1764 C1763 1.334 . S
C1764 C1765 1.287 . S
C1765 C1764 1.287 . S
C1765 C1766 1.524 . S
C1765 H1768 0.999 . S
C1766 H1736 0.950 . S
C1766 C1765 1.524 . S
C1766 C1767 1.415 . S
C1767 H1737 0.950 . S
C1767 C1762 1.363 . S
C1767 C1766 1.415 . S
H1768 C1765 0.999 . S
H1769 C1750 0.913 . S
H1770 C1788 0.951 . S
H1771 C1790 0.951 . S
H1772 C1792 0.950 . S
H1773 C1793 0.950 . S
H1774 C1795 0.950 . S
H1775 C1798 0.950 . S
H1776 C1799 0.950 . S
H1777 C1801 0.950 . S
H1778 C1802 0.950 . S
H1779 C1803 0.951 . S
H1780 C1805 0.951 . S
H1781 C1807 0.950 . S
H1782 C1808 0.950 . S
H1783 C1810 0.950 . S
H1784 C1813 0.950 . S
H1785 C1814 0.950 1_565 S
H1786 C1816 0.950 . S
H1787 C1817 0.950 . S
C1788 H1770 0.951 . S
C1788 C1789 1.366 1_455 S
C1788 C1790 1.388 . S
C1789 C1788 1.366 1_655 S
C1789 C1793 1.385 1_565 S
C1790 H1771 0.951 . S
C1790 C1788 1.388 . S
C1790 C1791 1.366 1_565 S
C1791 C1790 1.366 1_545 S
C1791 C1792 1.414 . S
C1791 C1794 1.499 . S
C1792 H1772 0.950 . S
C1792 C1791 1.414 . S
C1792 C1793 1.374 1_455 S
C1793 H1773 0.950 . S
C1793 C1789 1.385 1_545 S
C1793 C1792 1.374 1_655 S
C1794 C1791 1.499 . S
C1794 C1795 1.373 . S
C1794 C1796 1.389 . S
C1795 H1774 0.950 . S
C1795 C1794 1.373 . S
C1795 C1811 1.377 . S
C1796 C1794 1.389 . S
C1796 C1797 1.524 . S
C1796 C1810 1.377 . S
C1797 C1796 1.524 . S
C1797 C1798 1.397 . S
C1797 C1802 1.363 . S
C1798 H1775 0.950 . S
C1798 C1797 1.397 . S
C1798 C1799 1.334 . S
C1799 H1776 0.950 . S
C1799 C1798 1.334 . S
C1799 C1800 1.287 . S
C1800 C1799 1.287 . S
C1800 C1801 1.524 . S
C1800 H1819 0.913 . S
C1801 H1777 0.950 . S
C1801 C1800 1.524 . S
C1801 C1802 1.415 . S
C1802 H1778 0.950 . S
C1802 C1797 1.363 . S
C1802 C1801 1.415 . S
C1803 H1779 0.951 . S
C1803 C1804 1.366 . S
C1803 C1805 1.388 . S
C1804 C1803 1.366 . S
C1804 C1808 1.385 . S
C1805 H1780 0.951 . S
C1805 C1803 1.388 . S
C1805 C1806 1.366 . S
C1806 C1805 1.366 . S
C1806 C1807 1.414 . S
C1806 C1809 1.499 . S
C1807 H1781 0.950 . S
C1807 C1806 1.414 . S
C1807 C1808 1.374 . S
C1808 H1782 0.950 . S
C1808 C1804 1.385 . S
C1808 C1807 1.374 . S
C1809 C1806 1.499 . S
C1809 C1810 1.373 . S
C1809 C1811 1.389 . S
C1810 H1783 0.950 . S
C1810 C1796 1.377 . S
C1810 C1809 1.373 . S
C1811 C1795 1.377 . S
C1811 C1809 1.389 . S
C1811 C1812 1.524 . S
C1812 C1811 1.524 . S
C1812 C1813 1.397 . S
C1812 C1817 1.363 . S
C1813 H1784 0.950 . S
C1813 C1812 1.397 . S
C1813 C1814 1.334 . S
C1814 H1785 0.950 1_545 S
C1814 C1813 1.334 . S
C1814 C1815 1.287 . S
C1815 C1814 1.287 . S
C1815 C1816 1.524 . S
C1815 H1818 0.999 . S
C1816 H1786 0.950 . S
C1816 C1815 1.524 . S
C1816 C1817 1.415 . S
C1817 H1787 0.950 . S
C1817 C1812 1.363 . S
C1817 C1816 1.415 . S
H1818 C1815 0.999 . S
H1819 C1800 0.913 . S
H1820 C1838 0.941 1_545 S
H1821 C1840 0.951 . S
H1822 C1842 0.950 . S
H1823 C1843 0.950 . S
H1824 C1845 0.950 . S
H1825 C1848 0.950 . S
H1826 C1849 0.950 . S
H1827 C1851 0.950 . S
H1828 C1852 0.950 . S
H1829 C1853 0.951 . S
H1830 C1855 0.951 . S
H1831 C1857 0.950 . S
H1832 C1858 0.950 . S
H1833 C1860 0.950 . S
H1834 C1863 0.950 . S
H1835 C1864 0.950 . S
H1836 C1866 0.950 . S
H1837 C1867 0.950 . S
C1838 H1820 0.941 1_565 S
C1838 C1839 1.366 . S
C1838 C1840 1.388 . S
C1839 C1838 1.366 . S
C1839 C1843 1.385 . S
C1840 H1821 0.951 . S
C1840 C1838 1.388 . S
C1840 C1841 1.366 . S
C1841 C1840 1.366 . S
C1841 C1842 1.414 . S
C1841 C1844 1.499 . S
C1842 H1822 0.950 . S
C1842 C1841 1.414 . S
C1842 C1843 1.374 . S
C1843 H1823 0.950 . S
C1843 C1839 1.385 . S
C1843 C1842 1.374 . S
C1844 C1841 1.499 . S
C1844 C1845 1.373 . S
C1844 C1846 1.389 . S
C1845 H1824 0.950 . S
C1845 C1844 1.373 . S
C1845 C1861 1.377 . S
C1846 C1844 1.389 . S
C1846 C1847 1.524 . S
C1846 C1860 1.377 . S
C1847 C1846 1.524 . S
C1847 C1848 1.397 . S
C1847 C1852 1.363 . S
C1848 H1825 0.950 . S
C1848 C1847 1.397 . S
C1848 C1849 1.334 . S
C1849 H1826 0.950 . S
C1849 C1848 1.334 . S
C1849 C1850 1.287 . S
C1850 C1849 1.287 . S
C1850 C1851 1.524 . S
C1850 H1869 0.913 . S
C1851 H1827 0.950 . S
C1851 C1850 1.524 . S
C1851 C1852 1.415 . S
C1852 H1828 0.950 . S
C1852 C1847 1.363 . S
C1852 C1851 1.415 . S
C1853 H1829 0.951 . S
C1853 C1854 1.366 . S
C1853 C1855 1.388 . S
C1854 C1853 1.366 . S
C1854 C1858 1.385 . S
C1855 H1830 0.951 . S
C1855 C1853 1.388 . S
C1855 C1856 1.366 . S
C1856 C1855 1.366 . S
C1856 C1857 1.414 . S
C1856 C1859 1.499 . S
C1857 H1831 0.950 . S
C1857 C1856 1.414 . S
C1857 C1858 1.374 . S
C1858 H1832 0.950 . S
C1858 C1854 1.385 . S
C1858 C1857 1.374 . S
C1859 C1856 1.499 . S
C1859 C1860 1.373 . S
C1859 C1861 1.389 . S
C1860 H1833 0.950 . S
C1860 C1846 1.377 . S
C1860 C1859 1.373 . S
C1861 C1845 1.377 . S
C1861 C1859 1.389 . S
C1861 C1862 1.524 . S
C1862 C1861 1.524 . S
C1862 C1863 1.397 . S
C1862 C1867 1.363 . S
C1863 H1834 0.950 . S
C1863 C1862 1.397 . S
C1863 C1864 1.334 . S
C1864 H1835 0.950 . S
C1864 C1863 1.334 . S
C1864 C1865 1.287 . S
C1865 C1864 1.287 . S
C1865 C1866 1.524 . S
C1865 H1868 0.999 . S
C1866 H1836 0.950 . S
C1866 C1865 1.524 . S
C1866 C1867 1.415 . S
C1867 H1837 0.950 . S
C1867 C1862 1.363 . S
C1867 C1866 1.415 . S
H1868 C1865 0.999 . S
H1869 C1850 0.913 . S
H1870 C1888 0.951 . S
H1871 C1890 0.951 . S
H1872 C1892 0.957 . S
H1873 C1893 0.950 . S
H1874 C1895 0.950 . S
H1875 C1898 0.950 . S
H1876 C1899 0.950 . S
H1877 C1901 0.950 1_565 S
H1878 C1902 0.950 . S
H1879 C1903 0.951 . S
H1880 C1905 0.951 . S
H1881 C1907 0.950 . S
H1882 C1908 0.950 . S
H1883 C1910 0.950 . S
H1884 C1913 0.950 . S
H1885 C1914 0.950 . S
H1886 C1916 0.950 . S
H1887 C1917 0.950 . S
C1888 H1870 0.951 . S
C1888 C1889 1.366 1_565 S
C1888 C1890 1.388 . S
C1889 C1888 1.366 1_545 S
C1889 C1893 1.385 . S
C1890 H1871 0.951 . S
C1890 C1888 1.388 . S
C1890 C1891 1.366 . S
C1891 C1890 1.366 . S
C1891 C1892 1.399 1_565 S
C1891 C1894 1.499 . S
C1892 H1872 0.957 . S
C1892 C1891 1.399 1_545 S
C1892 C1893 1.383 . S
C1893 H1873 0.950 . S
C1893 C1889 1.385 . S
C1893 C1892 1.383 . S
C1894 C1891 1.499 . S
C1894 C1895 1.373 . S
C1894 C1896 1.389 . S
C1895 H1874 0.950 . S
C1895 C1894 1.373 . S
C1895 C1911 1.377 . S
C1896 C1894 1.389 . S
C1896 C1897 1.524 . S
C1896 C1910 1.377 . S
C1897 C1896 1.524 . S
C1897 C1898 1.397 1_565 S
C1897 C1902 1.363 . S
C1898 H1875 0.950 . S
C1898 C1897 1.397 1_545 S
C1898 C1899 1.334 . S
C1899 H1876 0.950 . S
C1899 C1898 1.334 . S
C1899 C1900 1.287 . S
C1900 C1899 1.287 . S
C1900 C1901 1.524 . S
C1900 H1919 0.913 . S
C1901 H1877 0.950 1_545 S
C1901 C1900 1.524 . S
C1901 C1902 1.415 1_545 S
C1902 H1878 0.950 . S
C1902 C1897 1.363 . S
C1902 C1901 1.415 1_565 S
C1903 H1879 0.951 . S
C1903 C1904 1.366 . S
C1903 C1905 1.388 . S
C1904 C1903 1.366 . S
C1904 C1908 1.385 . S
C1905 H1880 0.951 . S
C1905 C1903 1.388 . S
C1905 C1906 1.366 . S
C1906 C1905 1.366 . S
C1906 C1907 1.414 . S
C1906 C1909 1.499 . S
C1907 H1881 0.950 . S
C1907 C1906 1.414 . S
C1907 C1908 1.374 . S
C1908 H1882 0.950 . S
C1908 C1904 1.385 . S
C1908 C1907 1.374 . S
C1909 C1906 1.499 . S
C1909 C1910 1.373 . S
C1909 C1911 1.389 . S
C1910 H1883 0.950 . S
C1910 C1896 1.377 . S
C1910 C1909 1.373 . S
C1911 C1895 1.377 . S
C1911 C1909 1.389 . S
C1911 C1912 1.524 . S
C1912 C1911 1.524 . S
C1912 C1913 1.397 . S
C1912 C1917 1.363 . S
C1913 H1884 0.950 . S
C1913 C1912 1.397 . S
C1913 C1914 1.334 . S
C1914 H1885 0.950 . S
C1914 C1913 1.334 . S
C1914 C1915 1.287 . S
C1915 C1914 1.287 . S
C1915 C1916 1.524 . S
C1915 H1918 0.999 . S
C1916 H1886 0.950 . S
C1916 C1915 1.524 . S
C1916 C1917 1.415 . S
C1917 H1887 0.950 . S
C1917 C1912 1.363 . S
C1917 C1916 1.415 . S
H1918 C1915 0.999 . S
H1919 C1900 0.913 . S
H1920 C1938 0.951 . S
H1921 C1940 0.951 . S
H1922 C1942 0.954 . S
H1923 C1943 0.950 . S
H1924 C1945 0.950 . S
H1925 C1948 0.950 . S
H1926 C1949 0.950 . S
H1927 C1951 0.950 . S
H1928 C1952 0.950 . S
H1929 C1953 0.951 . S
H1930 C1955 0.951 . S
H1931 C1957 0.950 . S
H1932 C1958 0.950 . S
H1933 C1960 0.950 . S
H1934 C1963 0.950 . S
H1935 C1964 0.950 . S
H1936 C1966 0.950 . S
H1937 C1967 0.950 . S
C1938 H1920 0.951 . S
C1938 C1939 1.366 . S
C1938 C1940 1.388 1_554 S
C1939 C1938 1.366 . S
C1939 C1943 1.385 . S
C1940 H1921 0.951 . S
C1940 C1938 1.388 1_556 S
C1940 C1941 1.366 . S
C1941 C1940 1.366 . S
C1941 C1942 1.414 1_556 S
C1941 C1944 1.499 . S
C1942 H1922 0.954 . S
C1942 C1941 1.414 1_554 S
C1942 C1943 1.374 . S
C1943 H1923 0.950 . S
C1943 C1939 1.385 . S
C1943 C1942 1.374 . S
C1944 C1941 1.499 . S
C1944 C1945 1.373 . S
C1944 C1946 1.389 . S
C1945 H1924 0.950 . S
C1945 C1944 1.373 . S
C1945 C1961 1.377 . S
C1946 C1944 1.389 . S
C1946 C1947 1.524 . S
C1946 C1960 1.377 . S
C1947 C1946 1.524 . S
C1947 C1948 1.397 . S
C1947 C1952 1.363 . S
C1948 H1925 0.950 . S
C1948 C1947 1.397 . S
C1948 C1949 1.334 . S
C1949 H1926 0.950 . S
C1949 C1948 1.334 . S
C1949 C1950 1.287 . S
C1950 C1949 1.287 . S
C1950 C1951 1.524 . S
C1950 H1969 0.913 . S
C1951 H1927 0.950 . S
C1951 C1950 1.524 . S
C1951 C1952 1.415 . S
C1952 H1928 0.950 . S
C1952 C1947 1.363 . S
C1952 C1951 1.415 . S
C1953 H1929 0.951 . S
C1953 C1954 1.366 . S
C1953 C1955 1.388 . S
C1954 C1953 1.366 . S
C1954 C1958 1.385 . S
C1955 H1930 0.951 . S
C1955 C1953 1.388 . S
C1955 C1956 1.366 . S
C1956 C1955 1.366 . S
C1956 C1957 1.414 . S
C1956 C1959 1.499 . S
C1957 H1931 0.950 . S
C1957 C1956 1.414 . S
C1957 C1958 1.374 . S
C1958 H1932 0.950 . S
C1958 C1954 1.385 . S
C1958 C1957 1.374 . S
C1959 C1956 1.499 . S
C1959 C1960 1.373 . S
C1959 C1961 1.389 . S
C1960 H1933 0.950 . S
C1960 C1946 1.377 . S
C1960 C1959 1.373 . S
C1961 C1945 1.377 . S
C1961 C1959 1.389 . S
C1961 C1962 1.524 . S
C1962 C1961 1.524 . S
C1962 C1963 1.397 . S
C1962 C1967 1.363 . S
C1963 H1934 0.950 . S
C1963 C1962 1.397 . S
C1963 C1964 1.334 1_545 S
C1964 H1935 0.950 . S
C1964 C1963 1.334 1_565 S
C1964 C1965 1.287 . S
C1965 C1964 1.287 . S
C1965 C1966 1.524 1_565 S
C1965 H1968 0.999 . S
C1966 H1936 0.950 . S
C1966 C1965 1.524 1_545 S
C1966 C1967 1.415 . S
C1967 H1937 0.950 . S
C1967 C1962 1.363 . S
C1967 C1966 1.415 . S
H1968 C1965 0.999 . S
H1969 C1950 0.913 . S
H1970 C1988 0.951 . S
H1971 C1990 0.951 . S
H1972 C1992 0.950 . S
H1973 C1993 0.950 . S
H1974 C1995 0.950 . S
H1975 C1998 0.950 . S
H1976 C1999 0.950 . S
H1977 C2001 0.950 . S
H1978 C2002 0.950 . S
H1979 C2003 0.951 . S
H1980 C2005 0.951 . S
H1981 C2007 0.950 . S
H1982 C2008 0.950 . S
H1983 C2010 0.950 . S
H1984 C2013 0.950 . S
H1985 C2014 0.950 . S
H1986 C2016 0.950 . S
H1987 C2017 0.950 . S
C1988 H1970 0.951 . S
C1988 C1989 1.366 . S
C1988 C1990 1.388 . S
C1989 C1988 1.366 . S
C1989 C1993 1.385 . S
C1990 H1971 0.951 . S
C1990 C1988 1.388 . S
C1990 C1991 1.366 . S
C1991 C1990 1.366 . S
C1991 C1992 1.414 . S
C1991 C1994 1.499 . S
C1992 H1972 0.950 . S
C1992 C1991 1.414 . S
C1992 C1993 1.374 . S
C1993 H1973 0.950 . S
C1993 C1989 1.385 . S
C1993 C1992 1.374 . S
C1994 C1991 1.499 . S
C1994 C1995 1.373 . S
C1994 C1996 1.389 . S
C1995 H1974 0.950 . S
C1995 C1994 1.373 . S
C1995 C2011 1.377 . S
C1996 C1994 1.389 . S
C1996 C1997 1.524 . S
C1996 C2010 1.377 . S
C1997 C1996 1.524 . S
C1997 C1998 1.397 . S
C1997 C2002 1.363 . S
C1998 H1975 0.950 . S
C1998 C1997 1.397 . S
C1998 C1999 1.334 . S
C1999 H1976 0.950 . S
C1999 C1998 1.334 . S
C1999 C2000 1.287 . S
C2000 C1999 1.287 . S
C2000 C2001 1.524 . S
C2000 H2019 0.913 . S
C2001 H1977 0.950 . S
C2001 C2000 1.524 . S
C2001 C2002 1.415 . S
C2002 H1978 0.950 . S
C2002 C1997 1.363 . S
C2002 C2001 1.415 . S
C2003 H1979 0.951 . S
C2003 C2004 1.366 . S
C2003 C2005 1.388 . S
C2004 C2003 1.366 . S
C2004 C2008 1.385 . S
C2005 H1980 0.951 . S
C2005 C2003 1.388 . S
C2005 C2006 1.366 . S
C2006 C2005 1.366 . S
C2006 C2007 1.414 . S
C2006 C2009 1.499 . S
C2007 H1981 0.950 . S
C2007 C2006 1.414 . S
C2007 C2008 1.374 . S
C2008 H1982 0.950 . S
C2008 C2004 1.385 . S
C2008 C2007 1.374 . S
C2009 C2006 1.499 . S
C2009 C2010 1.373 . S
C2009 C2011 1.389 . S
C2010 H1983 0.950 . S
C2010 C1996 1.377 . S
C2010 C2009 1.373 . S
C2011 C1995 1.377 . S
C2011 C2009 1.389 . S
C2011 C2012 1.524 . S
C2012 C2011 1.524 . S
C2012 C2013 1.397 . S
C2012 C2017 1.363 . S
C2013 H1984 0.950 . S
C2013 C2012 1.397 . S
C2013 C2014 1.334 . S
C2014 H1985 0.950 . S
C2014 C2013 1.334 . S
C2014 C2015 1.287 . S
C2015 C2014 1.287 . S
C2015 C2016 1.524 . S
C2015 H2018 0.999 . S
C2016 H1986 0.950 . S
C2016 C2015 1.524 . S
C2016 C2017 1.415 . S
C2017 H1987 0.950 . S
C2017 C2012 1.363 . S
C2017 C2016 1.415 . S
H2018 C2015 0.999 . S
H2019 C2000 0.913 . S
H2020 C2038 0.951 . S
H2021 C2040 0.951 . S
H2022 C2042 0.950 . S
H2023 C2043 0.950 . S
H2024 C2045 0.950 . S
H2025 C2048 0.950 . S
H2026 C2049 0.950 . S
H2027 C2051 0.950 . S
H2028 C2052 0.950 . S
H2029 C2053 0.951 . S
H2030 C2055 0.951 . S
H2031 C2057 0.950 . S
H2032 C2058 0.950 . S
H2033 C2060 0.950 . S
H2034 C2063 0.950 . S
H2035 C2064 0.950 . S
H2036 C2066 0.950 1_545 S
H2037 C2067 0.950 . S
C2038 H2020 0.951 . S
C2038 C2039 1.366 . S
C2038 C2040 1.388 . S
C2039 C2038 1.366 . S
C2039 C2043 1.385 . S
C2040 H2021 0.951 . S
C2040 C2038 1.388 . S
C2040 C2041 1.366 . S
C2041 C2040 1.366 . S
C2041 C2042 1.414 . S
C2041 C2044 1.499 . S
C2042 H2022 0.950 . S
C2042 C2041 1.414 . S
C2042 C2043 1.374 . S
C2043 H2023 0.950 . S
C2043 C2039 1.385 . S
C2043 C2042 1.374 . S
C2044 C2041 1.499 . S
C2044 C2045 1.373 . S
C2044 C2046 1.389 . S
C2045 H2024 0.950 . S
C2045 C2044 1.373 . S
C2045 C2061 1.377 . S
C2046 C2044 1.389 . S
C2046 C2047 1.524 . S
C2046 C2060 1.377 . S
C2047 C2046 1.524 . S
C2047 C2048 1.397 . S
C2047 C2052 1.363 . S
C2048 H2025 0.950 . S
C2048 C2047 1.397 . S
C2048 C2049 1.334 . S
C2049 H2026 0.950 . S
C2049 C2048 1.334 . S
C2049 C2050 1.287 . S
C2050 C2049 1.287 . S
C2050 C2051 1.524 . S
C2050 H2069 0.913 . S
C2051 H2027 0.950 . S
C2051 C2050 1.524 . S
C2051 C2052 1.415 . S
C2052 H2028 0.950 . S
C2052 C2047 1.363 . S
C2052 C2051 1.415 . S
C2053 H2029 0.951 . S
C2053 C2054 1.366 . S
C2053 C2055 1.388 . S
C2054 C2053 1.366 . S
C2054 C2058 1.385 . S
C2055 H2030 0.951 . S
C2055 C2053 1.388 . S
C2055 C2056 1.366 . S
C2056 C2055 1.366 . S
C2056 C2057 1.414 . S
C2056 C2059 1.499 . S
C2057 H2031 0.950 . S
C2057 C2056 1.414 . S
C2057 C2058 1.374 . S
C2058 H2032 0.950 . S
C2058 C2054 1.385 . S
C2058 C2057 1.374 . S
C2059 C2056 1.499 . S
C2059 C2060 1.373 . S
C2059 C2061 1.389 . S
C2060 H2033 0.950 . S
C2060 C2046 1.377 . S
C2060 C2059 1.373 . S
C2061 C2045 1.377 . S
C2061 C2059 1.389 . S
C2061 C2062 1.524 . S
C2062 C2061 1.524 . S
C2062 C2063 1.397 . S
C2062 C2067 1.363 . S
C2063 H2034 0.950 . S
C2063 C2062 1.397 . S
C2063 C2064 1.334 . S
C2064 H2035 0.950 . S
C2064 C2063 1.334 . S
C2064 C2065 1.287 . S
C2065 C2064 1.287 . S
C2065 C2066 1.524 . S
C2065 H2068 0.999 . S
C2066 H2036 0.950 1_565 S
C2066 C2065 1.524 . S
C2066 C2067 1.415 . S
C2067 H2037 0.950 . S
C2067 C2062 1.363 . S
C2067 C2066 1.415 . S
H2068 C2065 0.999 . S
H2069 C2050 0.913 . S
H2070 C2088 0.951 . S
H2071 C2090 0.951 . S
H2072 C2092 0.950 . S
H2073 C2093 0.950 . S
H2074 C2095 0.950 . S
H2075 C2098 0.950 . S
H2076 C2099 0.950 . S
H2077 C2101 0.950 . S
H2078 C2102 0.950 . S
H2079 C2103 0.951 . S
H2080 C2105 0.951 . S
H2081 C2107 0.950 . S
H2082 C2108 0.950 . S
H2083 C2110 0.950 . S
H2084 C2113 0.950 . S
H2085 C2114 0.950 . S
H2086 C2116 0.950 . S
H2087 C2117 0.950 . S
C2088 H2070 0.951 . S
C2088 C2089 1.366 . S
C2088 C2090 1.388 . S
C2089 C2088 1.366 . S
C2089 C2093 1.385 . S
C2090 H2071 0.951 . S
C2090 C2088 1.388 . S
C2090 C2091 1.366 . S
C2091 C2090 1.366 . S
C2091 C2092 1.414 . S
C2091 C2094 1.499 . S
C2092 H2072 0.950 . S
C2092 C2091 1.414 . S
C2092 C2093 1.374 . S
C2093 H2073 0.950 . S
C2093 C2089 1.385 . S
C2093 C2092 1.374 . S
C2094 C2091 1.499 . S
C2094 C2095 1.373 . S
C2094 C2096 1.389 . S
C2095 H2074 0.950 . S
C2095 C2094 1.373 . S
C2095 C2111 1.377 . S
C2096 C2094 1.389 . S
C2096 C2097 1.524 . S
C2096 C2110 1.377 . S
C2097 C2096 1.524 . S
C2097 C2098 1.397 . S
C2097 C2102 1.363 . S
C2098 H2075 0.950 . S
C2098 C2097 1.397 . S
C2098 C2099 1.334 . S
C2099 H2076 0.950 . S
C2099 C2098 1.334 . S
C2099 C2100 1.287 . S
C2100 C2099 1.287 . S
C2100 C2101 1.524 . S
C2100 H2119 0.913 . S
C2101 H2077 0.950 . S
C2101 C2100 1.524 . S
C2101 C2102 1.415 . S
C2102 H2078 0.950 . S
C2102 C2097 1.363 . S
C2102 C2101 1.415 . S
C2103 H2079 0.951 . S
C2103 C2104 1.366 . S
C2103 C2105 1.388 . S
C2104 C2103 1.366 . S
C2104 C2108 1.385 . S
C2105 H2080 0.951 . S
C2105 C2103 1.388 . S
C2105 C2106 1.366 . S
C2106 C2105 1.366 . S
C2106 C2107 1.414 . S
C2106 C2109 1.499 . S
C2107 H2081 0.950 . S
C2107 C2106 1.414 . S
C2107 C2108 1.374 . S
C2108 H2082 0.950 . S
C2108 C2104 1.385 . S
C2108 C2107 1.374 . S
C2109 C2106 1.499 . S
C2109 C2110 1.373 . S
C2109 C2111 1.389 . S
C2110 H2083 0.950 . S
C2110 C2096 1.377 . S
C2110 C2109 1.373 . S
C2111 C2095 1.377 . S
C2111 C2109 1.389 . S
C2111 C2112 1.524 . S
C2112 C2111 1.524 . S
C2112 C2113 1.397 . S
C2112 C2117 1.363 . S
C2113 H2084 0.950 . S
C2113 C2112 1.397 . S
C2113 C2114 1.334 . S
C2114 H2085 0.950 . S
C2114 C2113 1.334 . S
C2114 C2115 1.287 . S
C2115 C2114 1.287 . S
C2115 C2116 1.524 . S
C2115 H2118 0.999 . S
C2116 H2086 0.950 . S
C2116 C2115 1.524 . S
C2116 C2117 1.415 . S
C2117 H2087 0.950 . S
C2117 C2112 1.363 . S
C2117 C2116 1.415 . S
H2118 C2115 0.999 . S
H2119 C2100 0.913 . S
H2120 C2138 0.951 . S
H2121 C2140 0.951 . S
H2122 C2142 0.950 . S
H2123 C2143 0.950 . S
H2124 C2145 0.950 . S
H2125 C2148 0.950 . S
H2126 C2149 0.950 . S
H2127 C2151 0.950 . S
H2128 C2152 0.950 . S
H2129 C2153 0.951 . S
H2130 C2155 0.951 . S
H2131 C2157 0.950 . S
H2132 C2158 0.950 . S
H2133 C2160 0.950 . S
H2134 C2163 0.950 . S
H2135 C2164 0.950 . S
H2136 C2166 0.951 . S
H2137 C2167 0.950 . S
C2138 H2120 0.951 . S
C2138 C2139 1.366 . S
C2138 C2140 1.388 . S
C2139 C2138 1.366 . S
C2139 C2143 1.385 . S
C2140 H2121 0.951 . S
C2140 C2138 1.388 . S
C2140 C2141 1.366 . S
C2141 C2140 1.366 . S
C2141 C2142 1.414 . S
C2141 C2144 1.499 . S
C2142 H2122 0.950 . S
C2142 C2141 1.414 . S
C2142 C2143 1.374 . S
C2143 H2123 0.950 . S
C2143 C2139 1.385 . S
C2143 C2142 1.374 . S
C2144 C2141 1.499 . S
C2144 C2145 1.373 . S
C2144 C2146 1.389 . S
C2145 H2124 0.950 . S
C2145 C2144 1.373 . S
C2145 C2161 1.377 . S
C2146 C2144 1.389 . S
C2146 C2147 1.524 . S
C2146 C2160 1.377 . S
C2147 C2146 1.524 . S
C2147 C2148 1.397 . S
C2147 C2152 1.363 . S
C2148 H2125 0.950 . S
C2148 C2147 1.397 . S
C2148 C2149 1.334 . S
C2149 H2126 0.950 . S
C2149 C2148 1.334 . S
C2149 C2150 1.287 . S
C2150 C2149 1.287 . S
C2150 C2151 1.524 . S
C2150 H2169 0.913 . S
C2151 H2127 0.950 . S
C2151 C2150 1.524 . S
C2151 C2152 1.415 . S
C2152 H2128 0.950 . S
C2152 C2147 1.363 . S
C2152 C2151 1.415 . S
C2153 H2129 0.951 . S
C2153 C2154 1.366 . S
C2153 C2155 1.388 1_556 S
C2154 C2153 1.366 . S
C2154 C2158 1.385 . S
C2155 H2130 0.951 . S
C2155 C2153 1.388 1_554 S
C2155 C2156 1.366 . S
C2156 C2155 1.366 . S
C2156 C2157 1.414 . S
C2156 C2159 1.499 . S
C2157 H2131 0.950 . S
C2157 C2156 1.414 . S
C2157 C2158 1.374 1_554 S
C2158 H2132 0.950 . S
C2158 C2154 1.385 . S
C2158 C2157 1.374 1_556 S
C2159 C2156 1.499 . S
C2159 C2160 1.373 . S
C2159 C2161 1.389 . S
C2160 H2133 0.950 . S
C2160 C2146 1.377 . S
C2160 C2159 1.373 . S
C2161 C2145 1.377 . S
C2161 C2159 1.389 . S
C2161 C2162 1.524 . S
C2162 C2161 1.524 . S
C2162 C2163 1.397 . S
C2162 C2167 1.363 . S
C2163 H2134 0.950 . S
C2163 C2162 1.397 . S
C2163 C2164 1.334 1_554 S
C2164 H2135 0.950 . S
C2164 C2163 1.334 1_556 S
C2164 C2165 1.287 . S
C2165 C2164 1.287 . S
C2165 C2166 1.528 . S
C2165 H2168 0.999 . S
C2166 H2136 0.951 . S
C2166 C2165 1.528 . S
C2166 C2167 1.409 1_556 S
C2167 H2137 0.950 . S
C2167 C2162 1.363 . S
C2167 C2166 1.409 1_554 S
H2168 C2165 0.999 . S
H2169 C2150 0.913 . S
H2170 C2188 0.951 . S
H2171 C2190 0.951 . S
H2172 C2192 0.950 . S
H2173 C2193 0.950 . S
H2174 C2195 0.950 . S
H2175 C2198 0.950 . S
H2176 C2199 0.950 . S
H2177 C2201 0.950 . S
H2178 C2202 0.950 . S
H2179 C2203 0.951 . S
H2180 C2205 0.951 . S
H2181 C2207 0.950 . S
H2182 C2208 0.950 . S
H2183 C2210 0.950 . S
H2184 C2213 0.950 . S
H2185 C2214 0.950 . S
H2186 C2216 0.950 . S
H2187 C2217 0.950 . S
C2188 H2170 0.951 . S
C2188 C2189 1.366 . S
C2188 C2190 1.388 . S
C2189 C2188 1.366 . S
C2189 C2193 1.385 . S
C2190 H2171 0.951 . S
C2190 C2188 1.388 . S
C2190 C2191 1.366 . S
C2191 C2190 1.366 . S
C2191 C2192 1.414 . S
C2191 C2194 1.499 . S
C2192 H2172 0.950 . S
C2192 C2191 1.414 . S
C2192 C2193 1.374 . S
C2193 H2173 0.950 . S
C2193 C2189 1.385 . S
C2193 C2192 1.374 . S
C2194 C2191 1.499 . S
C2194 C2195 1.373 . S
C2194 C2196 1.389 . S
C2195 H2174 0.950 . S
C2195 C2194 1.373 . S
C2195 C2211 1.377 . S
C2196 C2194 1.389 . S
C2196 C2197 1.524 . S
C2196 C2210 1.377 . S
C2197 C2196 1.524 . S
C2197 C2198 1.397 . S
C2197 C2202 1.363 . S
C2198 H2175 0.950 . S
C2198 C2197 1.397 . S
C2198 C2199 1.334 . S
C2199 H2176 0.950 . S
C2199 C2198 1.334 . S
C2199 C2200 1.287 . S
C2200 C2199 1.287 . S
C2200 C2201 1.524 . S
C2200 H2219 0.913 . S
C2201 H2177 0.950 . S
C2201 C2200 1.524 . S
C2201 C2202 1.415 . S
C2202 H2178 0.950 . S
C2202 C2197 1.363 . S
C2202 C2201 1.415 . S
C2203 H2179 0.951 . S
C2203 C2204 1.366 . S
C2203 C2205 1.388 . S
C2204 C2203 1.366 . S
C2204 C2208 1.385 . S
C2205 H2180 0.951 . S
C2205 C2203 1.388 . S
C2205 C2206 1.366 . S
C2206 C2205 1.366 . S
C2206 C2207 1.414 . S
C2206 C2209 1.499 . S
C2207 H2181 0.950 . S
C2207 C2206 1.414 . S
C2207 C2208 1.374 . S
C2208 H2182 0.950 . S
C2208 C2204 1.385 . S
C2208 C2207 1.374 . S
C2209 C2206 1.499 . S
C2209 C2210 1.373 . S
C2209 C2211 1.389 . S
C2210 H2183 0.950 . S
C2210 C2196 1.377 . S
C2210 C2209 1.373 . S
C2211 C2195 1.377 . S
C2211 C2209 1.389 . S
C2211 C2212 1.524 . S
C2212 C2211 1.524 . S
C2212 C2213 1.397 . S
C2212 C2217 1.363 . S
C2213 H2184 0.950 . S
C2213 C2212 1.397 . S
C2213 C2214 1.334 . S
C2214 H2185 0.950 . S
C2214 C2213 1.334 . S
C2214 C2215 1.287 . S
C2215 C2214 1.287 . S
C2215 C2216 1.524 . S
C2215 H2218 0.999 . S
C2216 H2186 0.950 . S
C2216 C2215 1.524 . S
C2216 C2217 1.415 . S
C2217 H2187 0.950 . S
C2217 C2212 1.363 . S
C2217 C2216 1.415 . S
H2218 C2215 0.999 . S
H2219 C2200 0.913 . S
H2220 C2238 0.951 . S
H2221 C2240 0.951 . S
H2222 C2242 0.950 . S
H2223 C2243 0.950 . S
H2224 C2245 0.950 . S
H2225 C2248 0.950 . S
H2226 C2249 0.950 . S
H2227 C2251 0.950 . S
H2228 C2252 0.950 . S
H2229 C2253 0.951 . S
H2230 C2255 0.951 . S
H2231 C2257 0.950 . S
H2232 C2258 0.950 . S
H2233 C2260 0.950 . S
H2234 C2263 0.950 . S
H2235 C2264 0.950 . S
H2236 C2266 0.950 . S
H2237 C2267 0.950 . S
C2238 H2220 0.951 . S
C2238 C2239 1.366 . S
C2238 C2240 1.388 . S
C2239 C2238 1.366 . S
C2239 C2243 1.385 . S
C2240 H2221 0.951 . S
C2240 C2238 1.388 . S
C2240 C2241 1.366 . S
C2241 C2240 1.366 . S
C2241 C2242 1.414 . S
C2241 C2244 1.499 . S
C2242 H2222 0.950 . S
C2242 C2241 1.414 . S
C2242 C2243 1.374 . S
C2243 H2223 0.950 . S
C2243 C2239 1.385 . S
C2243 C2242 1.374 . S
C2244 C2241 1.499 . S
C2244 C2245 1.373 . S
C2244 C2246 1.389 . S
C2245 H2224 0.950 . S
C2245 C2244 1.373 . S
C2245 C2261 1.377 . S
C2246 C2244 1.389 . S
C2246 C2247 1.524 . S
C2246 C2260 1.377 . S
C2247 C2246 1.524 . S
C2247 C2248 1.397 . S
C2247 C2252 1.363 . S
C2248 H2225 0.950 . S
C2248 C2247 1.397 . S
C2248 C2249 1.334 . S
C2249 H2226 0.950 . S
C2249 C2248 1.334 . S
C2249 C2250 1.287 . S
C2250 C2249 1.287 . S
C2250 C2251 1.524 . S
C2250 H2269 0.913 . S
C2251 H2227 0.950 . S
C2251 C2250 1.524 . S
C2251 C2252 1.415 . S
C2252 H2228 0.950 . S
C2252 C2247 1.363 . S
C2252 C2251 1.415 . S
C2253 H2229 0.951 . S
C2253 C2254 1.366 . S
C2253 C2255 1.388 . S
C2254 C2253 1.366 . S
C2254 C2258 1.385 . S
C2255 H2230 0.951 . S
C2255 C2253 1.388 . S
C2255 C2256 1.366 . S
C2256 C2255 1.366 . S
C2256 C2257 1.414 . S
C2256 C2259 1.499 . S
C2257 H2231 0.950 . S
C2257 C2256 1.414 . S
C2257 C2258 1.374 . S
C2258 H2232 0.950 . S
C2258 C2254 1.385 . S
C2258 C2257 1.374 . S
C2259 C2256 1.499 . S
C2259 C2260 1.373 . S
C2259 C2261 1.389 . S
C2260 H2233 0.950 . S
C2260 C2246 1.377 . S
C2260 C2259 1.373 . S
C2261 C2245 1.377 . S
C2261 C2259 1.389 . S
C2261 C2262 1.524 . S
C2262 C2261 1.524 . S
C2262 C2263 1.397 . S
C2262 C2267 1.363 . S
C2263 H2234 0.950 . S
C2263 C2262 1.397 . S
C2263 C2264 1.334 . S
C2264 H2235 0.950 . S
C2264 C2263 1.334 . S
C2264 C2265 1.287 . S
C2265 C2264 1.287 . S
C2265 C2266 1.524 . S
C2265 H2268 0.999 . S
C2266 H2236 0.950 . S
C2266 C2265 1.524 . S
C2266 C2267 1.415 . S
C2267 H2237 0.950 . S
C2267 C2262 1.363 . S
C2267 C2266 1.415 . S
H2268 C2265 0.999 . S
H2269 C2250 0.913 . S
H2270 C2288 0.951 . S
H2271 C2290 0.951 . S
H2272 C2292 0.950 . S
H2273 C2293 0.950 . S
H2274 C2295 0.950 . S
H2275 C2298 0.950 . S
H2276 C2299 0.950 . S
H2277 C2301 0.950 . S
H2278 C2302 0.950 . S
H2279 C2303 0.951 . S
H2280 C2305 0.951 . S
H2281 C2307 0.950 . S
H2282 C2308 0.950 . S
H2283 C2310 0.950 . S
H2284 C2313 0.950 . S
H2285 C2314 0.950 . S
H2286 C2316 0.950 . S
H2287 C2317 0.950 . S
C2288 H2270 0.951 . S
C2288 C2289 1.366 . S
C2288 C2290 1.388 . S
C2289 C2288 1.366 . S
C2289 C2293 1.385 . S
C2290 H2271 0.951 . S
C2290 C2288 1.388 . S
C2290 C2291 1.366 . S
C2291 C2290 1.366 . S
C2291 C2292 1.414 . S
C2291 C2294 1.499 . S
C2292 H2272 0.950 . S
C2292 C2291 1.414 . S
C2292 C2293 1.374 . S
C2293 H2273 0.950 . S
C2293 C2289 1.385 . S
C2293 C2292 1.374 . S
C2294 C2291 1.499 . S
C2294 C2295 1.373 . S
C2294 C2296 1.389 . S
C2295 H2274 0.950 . S
C2295 C2294 1.373 . S
C2295 C2311 1.377 . S
C2296 C2294 1.389 . S
C2296 C2297 1.524 . S
C2296 C2310 1.377 . S
C2297 C2296 1.524 . S
C2297 C2298 1.397 . S
C2297 C2302 1.363 . S
C2298 H2275 0.950 . S
C2298 C2297 1.397 . S
C2298 C2299 1.334 . S
C2299 H2276 0.950 . S
C2299 C2298 1.334 . S
C2299 C2300 1.287 . S
C2300 C2299 1.287 . S
C2300 C2301 1.524 . S
C2300 H2319 0.913 . S
C2301 H2277 0.950 . S
C2301 C2300 1.524 . S
C2301 C2302 1.415 . S
C2302 H2278 0.950 . S
C2302 C2297 1.363 . S
C2302 C2301 1.415 . S
C2303 H2279 0.951 . S
C2303 C2304 1.366 . S
C2303 C2305 1.388 . S
C2304 C2303 1.366 . S
C2304 C2308 1.385 . S
C2305 H2280 0.951 . S
C2305 C2303 1.388 . S
C2305 C2306 1.366 . S
C2306 C2305 1.366 . S
C2306 C2307 1.414 . S
C2306 C2309 1.499 . S
C2307 H2281 0.950 . S
C2307 C2306 1.414 . S
C2307 C2308 1.374 . S
C2308 H2282 0.950 . S
C2308 C2304 1.385 . S
C2308 C2307 1.374 . S
C2309 C2306 1.499 . S
C2309 C2310 1.373 . S
C2309 C2311 1.389 . S
C2310 H2283 0.950 . S
C2310 C2296 1.377 . S
C2310 C2309 1.373 . S
C2311 C2295 1.377 . S
C2311 C2309 1.389 . S
C2311 C2312 1.524 . S
C2312 C2311 1.524 . S
C2312 C2313 1.397 . S
C2312 C2317 1.363 . S
C2313 H2284 0.950 . S
C2313 C2312 1.397 . S
C2313 C2314 1.334 . S
C2314 H2285 0.950 . S
C2314 C2313 1.334 . S
C2314 C2315 1.287 . S
C2315 C2314 1.287 . S
C2315 C2316 1.524 . S
C2315 H2318 0.999 . S
C2316 H2286 0.950 . S
C2316 C2315 1.524 . S
C2316 C2317 1.415 . S
C2317 H2287 0.950 . S
C2317 C2312 1.363 . S
C2317 C2316 1.415 . S
H2318 C2315 0.999 . S
H2319 C2300 0.913 . S
H2320 C2338 0.951 . S
H2321 C2340 0.951 . S
H2322 C2342 0.950 . S
H2323 C2343 0.950 . S
H2324 C2345 0.950 . S
H2325 C2348 0.950 . S
H2326 C2349 0.950 . S
H2327 C2351 0.950 . S
H2328 C2352 0.950 . S
H2329 C2353 0.951 . S
H2330 C2355 0.951 . S
H2331 C2357 0.950 . S
H2332 C2358 0.950 . S
H2333 C2360 0.950 . S
H2334 C2363 0.950 . S
H2335 C2364 0.950 . S
H2336 C2366 0.950 . S
H2337 C2367 0.950 . S
C2338 H2320 0.951 . S
C2338 C2339 1.366 . S
C2338 C2340 1.388 . S
C2339 C2338 1.366 . S
C2339 C2343 1.385 . S
C2340 H2321 0.951 . S
C2340 C2338 1.388 . S
C2340 C2341 1.366 . S
C2341 C2340 1.366 . S
C2341 C2342 1.414 . S
C2341 C2344 1.499 . S
C2342 H2322 0.950 . S
C2342 C2341 1.414 . S
C2342 C2343 1.374 . S
C2343 H2323 0.950 . S
C2343 C2339 1.385 . S
C2343 C2342 1.374 . S
C2344 C2341 1.499 . S
C2344 C2345 1.373 . S
C2344 C2346 1.389 . S
C2345 H2324 0.950 . S
C2345 C2344 1.373 . S
C2345 C2361 1.377 . S
C2346 C2344 1.389 . S
C2346 C2347 1.524 . S
C2346 C2360 1.377 . S
C2347 C2346 1.524 . S
C2347 C2348 1.397 . S
C2347 C2352 1.363 . S
C2348 H2325 0.950 . S
C2348 C2347 1.397 . S
C2348 C2349 1.334 . S
C2349 H2326 0.950 . S
C2349 C2348 1.334 . S
C2349 C2350 1.287 . S
C2350 C2349 1.287 . S
C2350 C2351 1.524 . S
C2350 H2369 0.913 . S
C2351 H2327 0.950 . S
C2351 C2350 1.524 . S
C2351 C2352 1.415 . S
C2352 H2328 0.950 . S
C2352 C2347 1.363 . S
C2352 C2351 1.415 . S
C2353 H2329 0.951 . S
C2353 C2354 1.366 . S
C2353 C2355 1.388 . S
C2354 C2353 1.366 . S
C2354 C2358 1.385 . S
C2355 H2330 0.951 . S
C2355 C2353 1.388 . S
C2355 C2356 1.366 . S
C2356 C2355 1.366 . S
C2356 C2357 1.414 . S
C2356 C2359 1.499 . S
C2357 H2331 0.950 . S
C2357 C2356 1.414 . S
C2357 C2358 1.374 . S
C2358 H2332 0.950 . S
C2358 C2354 1.385 . S
C2358 C2357 1.374 . S
C2359 C2356 1.499 . S
C2359 C2360 1.373 . S
C2359 C2361 1.389 . S
C2360 H2333 0.950 . S
C2360 C2346 1.377 . S
C2360 C2359 1.373 . S
C2361 C2345 1.377 . S
C2361 C2359 1.389 . S
C2361 C2362 1.524 . S
C2362 C2361 1.524 . S
C2362 C2363 1.397 . S
C2362 C2367 1.363 . S
C2363 H2334 0.950 . S
C2363 C2362 1.397 . S
C2363 C2364 1.334 . S
C2364 H2335 0.950 . S
C2364 C2363 1.334 . S
C2364 C2365 1.287 . S
C2365 C2364 1.287 . S
C2365 C2366 1.524 . S
C2365 H2368 0.999 . S
C2366 H2336 0.950 . S
C2366 C2365 1.524 . S
C2366 C2367 1.415 . S
C2367 H2337 0.950 . S
C2367 C2362 1.363 . S
C2367 C2366 1.415 . S
H2368 C2365 0.999 . S
H2369 C2350 0.913 . S
H2370 C2388 0.951 . S
H2371 C2390 0.951 . S
H2372 C2392 0.950 . S
H2373 C2393 0.950 . S
H2374 C2395 0.950 . S
H2375 C2398 0.950 . S
H2376 C2399 0.950 . S
H2377 C2401 0.950 . S
H2378 C2402 0.950 . S
H2379 C2403 0.951 . S
H2380 C2405 0.951 . S
H2381 C2407 0.950 . S
H2382 C2408 0.950 . S
H2383 C2410 0.950 . S
H2384 C2413 0.950 . S
H2385 C2414 0.950 . S
H2386 C2416 0.950 . S
H2387 C2417 0.950 . S
C2388 H2370 0.951 . S
C2388 C2389 1.366 . S
C2388 C2390 1.388 . S
C2389 C2388 1.366 . S
C2389 C2393 1.385 . S
C2390 H2371 0.951 . S
C2390 C2388 1.388 . S
C2390 C2391 1.366 . S
C2391 C2390 1.366 . S
C2391 C2392 1.414 . S
C2391 C2394 1.499 . S
C2392 H2372 0.950 . S
C2392 C2391 1.414 . S
C2392 C2393 1.374 . S
C2393 H2373 0.950 . S
C2393 C2389 1.385 . S
C2393 C2392 1.374 . S
C2394 C2391 1.499 . S
C2394 C2395 1.373 . S
C2394 C2396 1.389 . S
C2395 H2374 0.950 . S
C2395 C2394 1.373 . S
C2395 C2411 1.377 . S
C2396 C2394 1.389 . S
C2396 C2397 1.524 . S
C2396 C2410 1.377 . S
C2397 C2396 1.524 . S
C2397 C2398 1.397 . S
C2397 C2402 1.363 . S
C2398 H2375 0.950 . S
C2398 C2397 1.397 . S
C2398 C2399 1.334 . S
C2399 H2376 0.950 . S
C2399 C2398 1.334 . S
C2399 C2400 1.287 . S
C2400 C2399 1.287 . S
C2400 C2401 1.524 . S
C2400 H2419 0.913 . S
C2401 H2377 0.950 . S
C2401 C2400 1.524 . S
C2401 C2402 1.415 . S
C2402 H2378 0.950 . S
C2402 C2397 1.363 . S
C2402 C2401 1.415 . S
C2403 H2379 0.951 . S
C2403 C2404 1.366 . S
C2403 C2405 1.388 . S
C2404 C2403 1.366 . S
C2404 C2408 1.385 1_545 S
C2405 H2380 0.951 . S
C2405 C2403 1.388 . S
C2405 C2406 1.366 1_545 S
C2406 C2405 1.366 1_565 S
C2406 C2407 1.414 . S
C2406 C2409 1.499 . S
C2407 H2381 0.950 . S
C2407 C2406 1.414 . S
C2407 C2408 1.374 . S
C2408 H2382 0.950 . S
C2408 C2404 1.385 1_565 S
C2408 C2407 1.374 . S
C2409 C2406 1.499 . S
C2409 C2410 1.373 . S
C2409 C2411 1.389 . S
C2410 H2383 0.950 . S
C2410 C2396 1.377 . S
C2410 C2409 1.373 . S
C2411 C2395 1.377 . S
C2411 C2409 1.389 . S
C2411 C2412 1.524 1_565 S
C2412 C2411 1.524 1_545 S
C2412 C2413 1.397 . S
C2412 C2417 1.363 . S
C2413 H2384 0.950 . S
C2413 C2412 1.397 . S
C2413 C2414 1.334 . S
C2414 H2385 0.950 . S
C2414 C2413 1.334 . S
C2414 C2415 1.287 . S
C2415 C2414 1.287 . S
C2415 C2416 1.524 . S
C2415 H2418 0.999 . S
C2416 H2386 0.950 . S
C2416 C2415 1.524 . S
C2416 C2417 1.415 . S
C2417 H2387 0.950 . S
C2417 C2412 1.363 . S
C2417 C2416 1.415 . S
H2418 C2415 0.999 . S
H2419 C2400 0.913 . S
H2420 C2438 0.951 . S
H2421 C2440 0.951 . S
H2422 C2442 0.950 . S
H2423 C2443 0.950 . S
H2424 C2445 0.950 . S
H2425 C2448 0.950 . S
H2426 C2449 0.950 . S
H2427 C2451 0.950 . S
H2428 C2452 0.950 . S
H2429 C2453 0.951 . S
H2430 C2455 0.951 . S
H2431 C2457 0.950 . S
H2432 C2458 0.950 . S
H2433 C2460 0.950 . S
H2434 C2463 0.950 . S
H2435 C2464 0.950 . S
H2436 C2466 0.950 . S
H2437 C2467 0.950 . S
C2438 H2420 0.951 . S
C2438 C2439 1.366 . S
C2438 C2440 1.388 . S
C2439 C2438 1.366 . S
C2439 C2443 1.385 . S
C2440 H2421 0.951 . S
C2440 C2438 1.388 . S
C2440 C2441 1.366 . S
C2441 C2440 1.366 . S
C2441 C2442 1.414 . S
C2441 C2444 1.499 . S
C2442 H2422 0.950 . S
C2442 C2441 1.414 . S
C2442 C2443 1.374 . S
C2443 H2423 0.950 . S
C2443 C2439 1.385 . S
C2443 C2442 1.374 . S
C2444 C2441 1.499 . S
C2444 C2445 1.373 . S
C2444 C2446 1.389 . S
C2445 H2424 0.950 . S
C2445 C2444 1.373 . S
C2445 C2461 1.377 . S
C2446 C2444 1.389 . S
C2446 C2447 1.524 . S
C2446 C2460 1.377 . S
C2447 C2446 1.524 . S
C2447 C2448 1.397 . S
C2447 C2452 1.363 . S
C2448 H2425 0.950 . S
C2448 C2447 1.397 . S
C2448 C2449 1.334 . S
C2449 H2426 0.950 . S
C2449 C2448 1.334 . S
C2449 C2450 1.287 . S
C2450 C2449 1.287 . S
C2450 C2451 1.524 . S
C2450 H2469 0.913 . S
C2451 H2427 0.950 . S
C2451 C2450 1.524 . S
C2451 C2452 1.415 . S
C2452 H2428 0.950 . S
C2452 C2447 1.363 . S
C2452 C2451 1.415 . S
C2453 H2429 0.951 . S
C2453 C2454 1.366 . S
C2453 C2455 1.388 1_554 S
C2454 C2453 1.366 . S
C2454 C2458 1.385 . S
C2455 H2430 0.951 . S
C2455 C2453 1.388 1_556 S
C2455 C2456 1.366 . S
C2456 C2455 1.366 . S
C2456 C2457 1.414 . S
C2456 C2459 1.499 . S
C2457 H2431 0.950 . S
C2457 C2456 1.414 . S
C2457 C2458 1.374 1_556 S
C2458 H2432 0.950 . S
C2458 C2454 1.385 . S
C2458 C2457 1.374 1_554 S
C2459 C2456 1.499 . S
C2459 C2460 1.373 . S
C2459 C2461 1.389 . S
C2460 H2433 0.950 . S
C2460 C2446 1.377 . S
C2460 C2459 1.373 . S
C2461 C2445 1.377 . S
C2461 C2459 1.389 . S
C2461 C2462 1.524 . S
C2462 C2461 1.524 . S
C2462 C2463 1.397 . S
C2462 C2467 1.363 . S
C2463 H2434 0.950 . S
C2463 C2462 1.397 . S
C2463 C2464 1.334 . S
C2464 H2435 0.950 . S
C2464 C2463 1.334 . S
C2464 C2465 1.287 . S
C2465 C2464 1.287 . S
C2465 C2466 1.524 . S
C2465 H2468 0.999 . S
C2466 H2436 0.950 . S
C2466 C2465 1.524 . S
C2466 C2467 1.415 . S
C2467 H2437 0.950 . S
C2467 C2462 1.363 . S
C2467 C2466 1.415 . S
H2468 C2465 0.999 . S
H2469 C2450 0.913 . S
H2470 C2488 0.951 . S
H2471 C2490 0.951 . S
H2472 C2492 0.950 . S
H2473 C2493 0.950 . S
H2474 C2495 0.932 1_565 S
H2475 C2498 0.950 . S
H2476 C2499 0.950 . S
H2477 C2501 0.950 . S
H2478 C2502 0.950 . S
H2479 C2503 0.951 . S
H2480 C2505 0.951 . S
H2481 C2507 0.950 . S
H2482 C2508 0.950 . S
H2483 C2510 0.950 . S
H2484 C2513 0.950 . S
H2485 C2514 0.950 . S
H2486 C2516 0.950 . S
H2487 C2517 0.950 . S
C2488 H2470 0.951 . S
C2488 C2489 1.366 1_545 S
C2488 C2490 1.388 . S
C2489 C2488 1.366 1_565 S
C2489 C2493 1.385 . S
C2490 H2471 0.951 . S
C2490 C2488 1.388 . S
C2490 C2491 1.366 . S
C2491 C2490 1.366 . S
C2491 C2492 1.414 1_545 S
C2491 C2494 1.499 . S
C2492 H2472 0.950 . S
C2492 C2491 1.414 1_565 S
C2492 C2493 1.374 . S
C2493 H2473 0.950 . S
C2493 C2489 1.385 . S
C2493 C2492 1.374 . S
C2494 C2491 1.499 . S
C2494 C2495 1.373 . S
C2494 C2496 1.389 . S
C2495 H2474 0.932 1_545 S
C2495 C2494 1.373 . S
C2495 C2511 1.377 . S
C2496 C2494 1.389 . S
C2496 C2497 1.524 . S
C2496 C2510 1.377 . S
C2497 C2496 1.524 . S
C2497 C2498 1.397 . S
C2497 C2502 1.363 . S
C2498 H2475 0.950 . S
C2498 C2497 1.397 . S
C2498 C2499 1.334 . S
C2499 H2476 0.950 . S
C2499 C2498 1.334 . S
C2499 C2500 1.287 . S
C2500 C2499 1.287 . S
C2500 C2501 1.524 . S
C2500 H2519 0.913 . S
C2501 H2477 0.950 . S
C2501 C2500 1.524 . S
C2501 C2502 1.415 . S
C2502 H2478 0.950 . S
C2502 C2497 1.363 . S
C2502 C2501 1.415 . S
C2503 H2479 0.951 . S
C2503 C2504 1.366 . S
C2503 C2505 1.388 . S
C2504 C2503 1.366 . S
C2504 C2508 1.385 . S
C2505 H2480 0.951 . S
C2505 C2503 1.388 . S
C2505 C2506 1.366 . S
C2506 C2505 1.366 . S
C2506 C2507 1.414 . S
C2506 C2509 1.499 . S
C2507 H2481 0.950 . S
C2507 C2506 1.414 . S
C2507 C2508 1.374 . S
C2508 H2482 0.950 . S
C2508 C2504 1.385 . S
C2508 C2507 1.374 . S
C2509 C2506 1.499 . S
C2509 C2510 1.373 . S
C2509 C2511 1.389 . S
C2510 H2483 0.950 . S
C2510 C2496 1.377 . S
C2510 C2509 1.373 . S
C2511 C2495 1.377 . S
C2511 C2509 1.389 . S
C2511 C2512 1.524 . S
C2512 C2511 1.524 . S
C2512 C2513 1.397 . S
C2512 C2517 1.363 1_545 S
C2513 H2484 0.950 . S
C2513 C2512 1.397 . S
C2513 C2514 1.334 . S
C2514 H2485 0.950 . S
C2514 C2513 1.334 . S
C2514 C2515 1.287 . S
C2515 C2514 1.287 . S
C2515 C2516 1.524 1_545 S
C2515 H2518 0.999 . S
C2516 H2486 0.950 . S
C2516 C2515 1.524 1_565 S
C2516 C2517 1.415 . S
C2517 H2487 0.950 . S
C2517 C2512 1.363 1_565 S
C2517 C2516 1.415 . S
H2518 C2515 0.999 . S
H2519 C2500 0.913 . S
H2520 C2538 0.951 . S
H2521 C2540 0.951 . S
H2522 C2542 0.950 . S
H2523 C2543 0.950 . S
H2524 C2545 0.950 . S
H2525 C2548 0.950 . S
H2526 C2549 0.950 . S
H2527 C2551 0.950 . S
H2528 C2552 0.950 . S
H2529 C2553 0.951 . S
H2530 C2555 0.951 . S
H2531 C2557 0.950 . S
H2532 C2558 0.950 . S
H2533 C2560 0.950 . S
H2534 C2563 0.950 . S
H2535 C2564 0.950 . S
H2536 C2566 0.950 . S
H2537 C2567 0.950 . S
C2538 H2520 0.951 . S
C2538 C2539 1.366 . S
C2538 C2540 1.388 . S
C2539 C2538 1.366 . S
C2539 C2543 1.385 . S
C2540 H2521 0.951 . S
C2540 C2538 1.388 . S
C2540 C2541 1.366 . S
C2541 C2540 1.366 . S
C2541 C2542 1.414 . S
C2541 C2544 1.499 . S
C2542 H2522 0.950 . S
C2542 C2541 1.414 . S
C2542 C2543 1.374 . S
C2543 H2523 0.950 . S
C2543 C2539 1.385 . S
C2543 C2542 1.374 . S
C2544 C2541 1.499 . S
C2544 C2545 1.373 . S
C2544 C2546 1.389 . S
C2545 H2524 0.950 . S
C2545 C2544 1.373 . S
C2545 C2561 1.377 . S
C2546 C2544 1.389 . S
C2546 C2547 1.524 . S
C2546 C2560 1.377 . S
C2547 C2546 1.524 . S
C2547 C2548 1.397 . S
C2547 C2552 1.363 . S
C2548 H2525 0.950 . S
C2548 C2547 1.397 . S
C2548 C2549 1.334 . S
C2549 H2526 0.950 . S
C2549 C2548 1.334 . S
C2549 C2550 1.287 . S
C2550 C2549 1.287 . S
C2550 C2551 1.524 . S
C2550 H2569 0.913 . S
C2551 H2527 0.950 . S
C2551 C2550 1.524 . S
C2551 C2552 1.415 . S
C2552 H2528 0.950 . S
C2552 C2547 1.363 . S
C2552 C2551 1.415 . S
C2553 H2529 0.951 . S
C2553 C2554 1.366 . S
C2553 C2555 1.388 . S
C2554 C2553 1.366 . S
C2554 C2558 1.385 . S
C2555 H2530 0.951 . S
C2555 C2553 1.388 . S
C2555 C2556 1.366 . S
C2556 C2555 1.366 . S
C2556 C2557 1.414 . S
C2556 C2559 1.499 . S
C2557 H2531 0.950 . S
C2557 C2556 1.414 . S
C2557 C2558 1.374 . S
C2558 H2532 0.950 . S
C2558 C2554 1.385 . S
C2558 C2557 1.374 . S
C2559 C2556 1.499 . S
C2559 C2560 1.373 . S
C2559 C2561 1.389 . S
C2560 H2533 0.950 . S
C2560 C2546 1.377 . S
C2560 C2559 1.373 . S
C2561 C2545 1.377 . S
C2561 C2559 1.389 . S
C2561 C2562 1.524 . S
C2562 C2561 1.524 . S
C2562 C2563 1.397 . S
C2562 C2567 1.363 . S
C2563 H2534 0.950 . S
C2563 C2562 1.397 . S
C2563 C2564 1.334 . S
C2564 H2535 0.950 . S
C2564 C2563 1.334 . S
C2564 C2565 1.287 . S
C2565 C2564 1.287 . S
C2565 C2566 1.524 . S
C2565 H2568 0.999 . S
C2566 H2536 0.950 . S
C2566 C2565 1.524 . S
C2566 C2567 1.415 . S
C2567 H2537 0.950 . S
C2567 C2562 1.363 . S
C2567 C2566 1.415 . S
H2568 C2565 0.999 . S
H2569 C2550 0.913 . S
H2570 C2588 0.951 . S
H2571 C2590 0.951 . S
H2572 C2592 0.950 . S
H2573 C2593 0.950 . S
H2574 C2595 0.950 . S
H2575 C2598 0.950 . S
H2576 C2599 0.950 . S
H2577 C2601 0.950 . S
H2578 C2602 0.950 . S
H2579 C2603 0.951 . S
H2580 C2605 0.951 . S
H2581 C2607 0.950 . S
H2582 C2608 0.950 . S
H2583 C2610 0.950 1_565 S
H2584 C2613 0.950 . S
H2585 C2614 0.950 . S
H2586 C2616 0.950 . S
H2587 C2617 0.950 . S
C2588 H2570 0.951 . S
C2588 C2589 1.366 . S
C2588 C2590 1.388 . S
C2589 C2588 1.366 . S
C2589 C2593 1.385 . S
C2590 H2571 0.951 . S
C2590 C2588 1.388 . S
C2590 C2591 1.366 . S
C2591 C2590 1.366 . S
C2591 C2592 1.414 . S
C2591 C2594 1.499 . S
C2592 H2572 0.950 . S
C2592 C2591 1.414 . S
C2592 C2593 1.374 . S
C2593 H2573 0.950 . S
C2593 C2589 1.385 . S
C2593 C2592 1.374 . S
C2594 C2591 1.499 . S
C2594 C2595 1.373 . S
C2594 C2596 1.389 . S
C2595 H2574 0.950 . S
C2595 C2594 1.373 . S
C2595 C2611 1.377 . S
C2596 C2594 1.389 . S
C2596 C2597 1.524 . S
C2596 C2610 1.377 . S
C2597 C2596 1.524 . S
C2597 C2598 1.397 . S
C2597 C2602 1.363 1_545 S
C2598 H2575 0.950 . S
C2598 C2597 1.397 . S
C2598 C2599 1.334 . S
C2599 H2576 0.950 . S
C2599 C2598 1.334 . S
C2599 C2600 1.287 . S
C2600 C2599 1.287 . S
C2600 C2601 1.524 1_545 S
C2600 H2619 0.913 1_545 S
C2601 H2577 0.950 . S
C2601 C2600 1.524 1_565 S
C2601 C2602 1.415 . S
C2602 H2578 0.950 . S
C2602 C2597 1.363 1_565 S
C2602 C2601 1.415 . S
C2603 H2579 0.951 . S
C2603 C2604 1.366 1_545 S
C2603 C2605 1.388 . S
C2604 C2603 1.366 1_565 S
C2604 C2608 1.385 . S
C2605 H2580 0.951 . S
C2605 C2603 1.388 . S
C2605 C2606 1.366 . S
C2606 C2605 1.366 . S
C2606 C2607 1.414 1_545 S
C2606 C2609 1.499 . S
C2607 H2581 0.950 . S
C2607 C2606 1.414 1_565 S
C2607 C2608 1.374 . S
C2608 H2582 0.950 . S
C2608 C2604 1.385 . S
C2608 C2607 1.374 . S
C2609 C2606 1.499 . S
C2609 C2610 1.373 . S
C2609 C2611 1.389 . S
C2610 H2583 0.950 1_545 S
C2610 C2596 1.377 . S
C2610 C2609 1.373 . S
C2611 C2595 1.377 . S
C2611 C2609 1.389 . S
C2611 C2612 1.524 . S
C2612 C2611 1.524 . S
C2612 C2613 1.397 . S
C2612 C2617 1.363 . S
C2613 H2584 0.950 . S
C2613 C2612 1.397 . S
C2613 C2614 1.334 . S
C2614 H2585 0.950 . S
C2614 C2613 1.334 . S
C2614 C2615 1.287 . S
C2615 C2614 1.287 . S
C2615 C2616 1.524 . S
C2615 H2618 0.999 . S
C2616 H2586 0.950 . S
C2616 C2615 1.524 . S
C2616 C2617 1.415 . S
C2617 H2587 0.950 . S
C2617 C2612 1.363 . S
C2617 C2616 1.415 . S
H2618 C2615 0.999 . S
H2619 C2600 0.913 1_565 S
H2620 C2638 0.951 . S
H2621 C2640 0.951 . S
H2622 C2642 0.950 . S
H2623 C2643 0.950 . S
H2624 C2645 0.950 . S
H2625 C2648 0.950 . S
H2626 C2649 0.950 . S
H2627 C2651 0.950 . S
H2628 C2652 0.950 . S
H2629 C2653 0.951 . S
H2630 C2655 0.950 . S
H2631 C2657 0.950 . S
H2632 C2658 0.950 . S
H2633 C2660 0.950 . S
H2634 C2663 0.950 . S
H2635 C2664 0.950 1_556 S
H2636 C2666 0.935 1_556 S
H2637 C2667 0.950 . S
C2638 H2620 0.951 . S
C2638 C2639 1.366 . S
C2638 C2640 1.388 . S
C2639 C2638 1.366 . S
C2639 C2643 1.385 . S
C2640 H2621 0.951 . S
C2640 C2638 1.388 . S
C2640 C2641 1.366 . S
C2641 C2640 1.366 . S
C2641 C2642 1.414 . S
C2641 C2644 1.499 . S
C2642 H2622 0.950 . S
C2642 C2641 1.414 . S
C2642 C2643 1.374 . S
C2643 H2623 0.950 . S
C2643 C2639 1.385 . S
C2643 C2642 1.374 . S
C2644 C2641 1.499 . S
C2644 C2645 1.373 . S
C2644 C2646 1.389 . S
C2645 H2624 0.950 . S
C2645 C2644 1.373 . S
C2645 C2661 1.377 . S
C2646 C2644 1.389 . S
C2646 C2647 1.524 . S
C2646 C2660 1.377 . S
C2647 C2646 1.524 . S
C2647 C2648 1.397 . S
C2647 C2652 1.363 . S
C2648 H2625 0.950 . S
C2648 C2647 1.397 . S
C2648 C2649 1.334 . S
C2649 H2626 0.950 . S
C2649 C2648 1.334 . S
C2649 C2650 1.287 . S
C2650 C2649 1.287 . S
C2650 C2651 1.524 . S
C2650 H2669 0.913 . S
C2651 H2627 0.950 . S
C2651 C2650 1.524 . S
C2651 C2652 1.415 . S
C2652 H2628 0.950 . S
C2652 C2647 1.363 . S
C2652 C2651 1.415 . S
C2653 H2629 0.951 . S
C2653 C2654 1.366 . S
C2653 C2655 1.447 . S
C2654 C2653 1.366 . S
C2654 C2658 1.385 . S
C2655 H2630 0.950 . S
C2655 C2653 1.447 . S
C2655 C2656 1.310 1_556 S
C2656 C2655 1.310 1_554 S
C2656 C2657 1.414 . S
C2656 C2659 1.499 . S
C2657 H2631 0.950 . S
C2657 C2656 1.414 . S
C2657 C2658 1.374 1_554 S
C2658 H2632 0.950 . S
C2658 C2654 1.385 . S
C2658 C2657 1.374 1_556 S
C2659 C2656 1.499 . S
C2659 C2660 1.373 . S
C2659 C2661 1.389 . S
C2660 H2633 0.950 . S
C2660 C2646 1.377 . S
C2660 C2659 1.373 . S
C2661 C2645 1.377 . S
C2661 C2659 1.389 . S
C2661 C2662 1.524 . S
C2662 C2661 1.524 . S
C2662 C2663 1.397 . S
C2662 C2667 1.363 . S
C2663 H2634 0.950 . S
C2663 C2662 1.397 . S
C2663 C2664 1.334 . S
C2664 H2635 0.950 1_554 S
C2664 C2663 1.334 . S
C2664 C2665 1.287 1_554 S
C2665 C2664 1.287 1_556 S
C2665 C2666 1.524 1_556 S
C2665 H2668 0.999 . S
C2666 H2636 0.935 1_554 S
C2666 C2665 1.524 1_554 S
C2666 C2667 1.415 . S
C2667 H2637 0.950 . S
C2667 C2662 1.363 . S
C2667 C2666 1.415 . S
H2668 C2665 0.999 . S
H2669 C2650 0.913 . S
H2670 C2688 0.951 . S
H2671 C2690 0.951 . S
H2672 C2692 0.950 . S
H2673 C2693 0.950 . S
H2674 C2695 0.950 . S
H2675 C2698 0.950 1_565 S
H2676 C2699 0.950 . S
H2677 C2701 0.950 . S
H2678 C2702 0.950 . S
H2679 C2703 0.951 . S
H2680 C2705 0.951 . S
H2681 C2707 0.950 . S
H2682 C2708 0.950 . S
H2683 C2710 0.950 1_545 S
H2684 C2713 0.950 . S
H2685 C2714 0.950 . S
H2686 C2716 0.950 . S
H2687 C2717 0.950 . S
C2688 H2670 0.951 . S
C2688 C2689 1.366 . S
C2688 C2690 1.388 . S
C2689 C2688 1.366 . S
C2689 C2693 1.385 . S
C2690 H2671 0.951 . S
C2690 C2688 1.388 . S
C2690 C2691 1.366 . S
C2691 C2690 1.366 . S
C2691 C2692 1.414 . S
C2691 C2694 1.499 . S
C2692 H2672 0.950 . S
C2692 C2691 1.414 . S
C2692 C2693 1.374 . S
C2693 H2673 0.950 . S
C2693 C2689 1.385 . S
C2693 C2692 1.374 . S
C2694 C2691 1.499 . S
C2694 C2695 1.373 . S
C2694 C2696 1.389 . S
C2695 H2674 0.950 . S
C2695 C2694 1.373 . S
C2695 C2711 1.377 . S
C2696 C2694 1.389 . S
C2696 C2697 1.524 . S
C2696 C2710 1.377 . S
C2697 C2696 1.524 . S
C2697 C2698 1.397 1_565 S
C2697 C2702 1.363 1_565 S
C2698 H2675 0.950 1_545 S
C2698 C2697 1.397 1_545 S
C2698 C2699 1.334 . S
C2699 H2676 0.950 . S
C2699 C2698 1.334 . S
C2699 C2700 1.287 . S
C2700 C2699 1.287 . S
C2700 C2701 1.524 . S
C2700 H2719 0.913 . S
C2701 H2677 0.950 . S
C2701 C2700 1.524 . S
C2701 C2702 1.415 . S
C2702 H2678 0.950 . S
C2702 C2697 1.363 1_545 S
C2702 C2701 1.415 . S
C2703 H2679 0.951 . S
C2703 C2704 1.366 . S
C2703 C2705 1.388 1_545 S
C2704 C2703 1.366 . S
C2704 C2708 1.385 . S
C2705 H2680 0.951 . S
C2705 C2703 1.388 1_565 S
C2705 C2706 1.366 . S
C2706 C2705 1.366 . S
C2706 C2707 1.414 1_565 S
C2706 C2709 1.499 . S
C2707 H2681 0.950 . S
C2707 C2706 1.414 1_545 S
C2707 C2708 1.374 . S
C2708 H2682 0.950 . S
C2708 C2704 1.385 . S
C2708 C2707 1.374 . S
C2709 C2706 1.499 . S
C2709 C2710 1.373 . S
C2709 C2711 1.389 . S
C2710 H2683 0.950 1_565 S
C2710 C2696 1.377 . S
C2710 C2709 1.373 . S
C2711 C2695 1.377 . S
C2711 C2709 1.389 . S
C2711 C2712 1.524 . S
C2712 C2711 1.524 . S
C2712 C2713 1.397 . S
C2712 C2717 1.363 . S
C2713 H2684 0.950 . S
C2713 C2712 1.397 . S
C2713 C2714 1.334 . S
C2714 H2685 0.950 . S
C2714 C2713 1.334 . S
C2714 C2715 1.287 . S
C2715 C2714 1.287 . S
C2715 C2716 1.524 . S
C2715 H2718 0.999 . S
C2716 H2686 0.950 . S
C2716 C2715 1.524 . S
C2716 C2717 1.415 . S
C2717 H2687 0.950 . S
C2717 C2712 1.363 . S
C2717 C2716 1.415 . S
H2718 C2715 0.999 . S
H2719 C2700 0.913 . S
C339 C8 0.712 . S
C354 C208 0.712 . S
C389 C28 0.712 . S
C404 C228 0.711 . S
C439 C48 0.713 . S
C454 C168 0.713 . S
C489 C188 0.712 . S
C504 C68 0.713 . S
C539 C89 0.713 . S
C554 C289 0.712 . S
C589 C309 0.714 . S
C604 C109 0.713 . S
C639 C249 0.712 . S
C654 C129 0.713 . S
C689 C149 0.714 . S
C704 C269 0.713 . S
C739 C1 1.382 . S
C754 C82 1.382 . S
C789 C21 1.382 . S
C804 C262 1.382 . S
C839 C41 1.382 . S
C854 C122 1.382 . S
C889 C61 1.382 . S
C904 C302 1.382 . S
C939 C102 1.382 . S
C954 C181 1.382 . S
C989 C221 1.381 . S
C1004 C142 1.381 . S
C1039 C242 1.382 . S
C1054 C161 1.382 . S
C1089 C201 1.382 . S
C1104 C282 1.382 . S
C1139 C2 0.942 . S
C1154 C148 0.975 . S
C1189 C22 0.943 . S
C1204 C248 0.974 . S
C1239 C42 0.943 . S
C1254 C108 0.974 . S
C1289 C62 0.942 . S
C1304 C288 0.975 . S
C1339 C69 0.974 . S
C1354 C81 0.943 . S
C1389 C101 0.944 . S
C1404 C169 0.974 . S
C1439 C121 0.943 . S
C1454 C29 0.974 . S
C1489 C209 0.975 . S
C1504 C141 0.943 . S
C1539 C162 0.942 . S
C1554 C308 0.975 1_565 S
C1589 C88 0.974 . S
C1604 C182 0.944 . S
C1639 C268 0.975 1_545 S
C1654 C202 0.943 . S
C1689 C128 0.974 . S
C1704 C222 0.944 . S
C1739 C241 0.944 . S
C1754 C229 0.975 1_545 S
C1789 C261 0.944 . S
C1804 C9 0.974 . S
C1839 C189 0.975 1_565 S
C1854 C281 0.944 . S
C1889 C301 0.942 . S
C1904 C49 0.974 . S
C1939 C19 2.536 . S
C1954 C198 2.573 . S
C1989 C218 2.573 . S
C2004 C39 2.536 . S
C2039 C59 2.536 . S
C2054 C238 2.573 . S
C2089 C178 2.573 . S
C2104 C79 2.536 . S
C2139 C279 2.573 . S
C2154 C98 2.536 . S
C2189 C299 2.573 . S
C2204 C118 2.536 . S
C2239 C319 2.573 . S
C2254 C138 2.536 . S
C2289 C259 2.573 . S
C2304 C158 2.536 . S
C2339 C38 2.573 . S
C2354 C179 2.536 . S
C2389 C58 2.573 . S
C2404 C199 2.536 . S
C2439 C78 2.573 . S
C2454 C219 2.536 . S
C2489 C239 2.536 . S
C2504 C18 2.573 . S
C2539 C119 2.573 . S
C2554 C258 2.536 . S
C2589 C139 2.573 . S
C2604 C278 2.536 . S
C2639 C159 2.573 . S
C2654 C298 2.536 . S
C2689 C99 2.573 . S
C2704 C318 2.536 . S
