# Generated by pormake.
# Topology cha, (4)-cn, num edge types: 1
# Building blocks:
#     Node 0, Type 0, BuildingBlock: AZAVOO_clean_sbu_0, # of connection points: 4
#     Node 1, Type 0, BuildingBlock: AZAVOO_clean_sbu_0, # of connection points: 4
#     Node 2, Type 0, BuildingBlock: AZAVOO_clean_sbu_0, # of connection points: 4
#     Node 3, Type 0, BuildingBlock: AZAVOO_clean_sbu_0, # of connection points: 4
#     Node 4, Type 0, BuildingBlock: AZAVOO_clean_sbu_0, # of connection points: 4
#     Node 5, Type 0, BuildingBlock: AZAVOO_clean_sbu_0, # of connection points: 4
#     Node 6, Type 0, BuildingBlock: AZAVOO_clean_sbu_0, # of connection points: 4
#     Node 7, Type 0, BuildingBlock: AZAVOO_clean_sbu_0, # of connection points: 4
#     Node 8, Type 0, BuildingBlock: AZAVOO_clean_sbu_0, # of connection points: 4
#     Node 9, Type 0, BuildingBlock: AZAVOO_clean_sbu_0, # of connection points: 4
#     Node 10, Type 0, BuildingBlock: AZAVOO_clean_sbu_0, # of connection points: 4
#     Node 11, Type 0, BuildingBlock: AZAVOO_clean_sbu_0, # of connection points: 4
#     Node 12, Type 0, BuildingBlock: AZAVOO_clean_sbu_0, # of connection points: 4
#     Node 13, Type 0, BuildingBlock: AZAVOO_clean_sbu_0, # of connection points: 4
#     Node 14, Type 0, BuildingBlock: AZAVOO_clean_sbu_0, # of connection points: 4
#     Node 15, Type 0, BuildingBlock: AZAVOO_clean_sbu_0, # of connection points: 4
#     Node 16, Type 0, BuildingBlock: AZAVOO_clean_sbu_0, # of connection points: 4
#     Node 17, Type 0, BuildingBlock: AZAVOO_clean_sbu_0, # of connection points: 4
#     Node 18, Type 0, BuildingBlock: AZAVOO_clean_sbu_0, # of connection points: 4
#     Node 19, Type 0, BuildingBlock: AZAVOO_clean_sbu_0, # of connection points: 4
#     Node 20, Type 0, BuildingBlock: AZAVOO_clean_sbu_0, # of connection points: 4
#     Node 21, Type 0, BuildingBlock: AZAVOO_clean_sbu_0, # of connection points: 4
#     Node 22, Type 0, BuildingBlock: AZAVOO_clean_sbu_0, # of connection points: 4
#     Node 23, Type 0, BuildingBlock: AZAVOO_clean_sbu_0, # of connection points: 4
#     Node 24, Type 0, BuildingBlock: AZAVOO_clean_sbu_0, # of connection points: 4
#     Node 25, Type 0, BuildingBlock: AZAVOO_clean_sbu_0, # of connection points: 4
#     Node 26, Type 0, BuildingBlock: AZAVOO_clean_sbu_0, # of connection points: 4
#     Node 27, Type 0, BuildingBlock: AZAVOO_clean_sbu_0, # of connection points: 4
#     Node 28, Type 0, BuildingBlock: AZAVOO_clean_sbu_0, # of connection points: 4
#     Node 29, Type 0, BuildingBlock: AZAVOO_clean_sbu_0, # of connection points: 4
#     Node 30, Type 0, BuildingBlock: AZAVOO_clean_sbu_0, # of connection points: 4
#     Node 31, Type 0, BuildingBlock: AZAVOO_clean_sbu_0, # of connection points: 4
#     Node 32, Type 0, BuildingBlock: AZAVOO_clean_sbu_0, # of connection points: 4
#     Node 33, Type 0, BuildingBlock: AZAVOO_clean_sbu_0, # of connection points: 4
#     Node 34, Type 0, BuildingBlock: AZAVOO_clean_sbu_0, # of connection points: 4
#     Node 35, Type 0, BuildingBlock: AZAVOO_clean_sbu_0, # of connection points: 4
#     Edge 36, Type (0, 0), BuildingBlock: UVAHIK_clean_linker_0, # of connection points: 2
#     Edge 37, Type (0, 0), BuildingBlock: UVAHIK_clean_linker_0, # of connection points: 2
#     Edge 38, Type (0, 0), BuildingBlock: UVAHIK_clean_linker_0, # of connection points: 2
#     Edge 39, Type (0, 0), BuildingBlock: UVAHIK_clean_linker_0, # of connection points: 2
#     Edge 40, Type (0, 0), BuildingBlock: UVAHIK_clean_linker_0, # of connection points: 2
#     Edge 41, Type (0, 0), BuildingBlock: UVAHIK_clean_linker_0, # of connection points: 2
#     Edge 42, Type (0, 0), BuildingBlock: UVAHIK_clean_linker_0, # of connection points: 2
#     Edge 43, Type (0, 0), BuildingBlock: UVAHIK_clean_linker_0, # of connection points: 2
#     Edge 44, Type (0, 0), BuildingBlock: UVAHIK_clean_linker_0, # of connection points: 2
#     Edge 45, Type (0, 0), BuildingBlock: UVAHIK_clean_linker_0, # of connection points: 2
#     Edge 46, Type (0, 0), BuildingBlock: UVAHIK_clean_linker_0, # of connection points: 2
#     Edge 47, Type (0, 0), BuildingBlock: UVAHIK_clean_linker_0, # of connection points: 2
#     Edge 48, Type (0, 0), BuildingBlock: UVAHIK_clean_linker_0, # of connection points: 2
#     Edge 49, Type (0, 0), BuildingBlock: UVAHIK_clean_linker_0, # of connection points: 2
#     Edge 50, Type (0, 0), BuildingBlock: UVAHIK_clean_linker_0, # of connection points: 2
#     Edge 51, Type (0, 0), BuildingBlock: UVAHIK_clean_linker_0, # of connection points: 2
#     Edge 52, Type (0, 0), BuildingBlock: UVAHIK_clean_linker_0, # of connection points: 2
#     Edge 53, Type (0, 0), BuildingBlock: UVAHIK_clean_linker_0, # of connection points: 2
#     Edge 54, Type (0, 0), BuildingBlock: UVAHIK_clean_linker_0, # of connection points: 2
#     Edge 55, Type (0, 0), BuildingBlock: UVAHIK_clean_linker_0, # of connection points: 2
#     Edge 56, Type (0, 0), BuildingBlock: UVAHIK_clean_linker_0, # of connection points: 2
#     Edge 57, Type (0, 0), BuildingBlock: UVAHIK_clean_linker_0, # of connection points: 2
#     Edge 58, Type (0, 0), BuildingBlock: UVAHIK_clean_linker_0, # of connection points: 2
#     Edge 59, Type (0, 0), BuildingBlock: UVAHIK_clean_linker_0, # of connection points: 2
#     Edge 60, Type (0, 0), BuildingBlock: UVAHIK_clean_linker_0, # of connection points: 2
#     Edge 61, Type (0, 0), BuildingBlock: UVAHIK_clean_linker_0, # of connection points: 2
#     Edge 62, Type (0, 0), BuildingBlock: UVAHIK_clean_linker_0, # of connection points: 2
#     Edge 63, Type (0, 0), BuildingBlock: UVAHIK_clean_linker_0, # of connection points: 2
#     Edge 64, Type (0, 0), BuildingBlock: UVAHIK_clean_linker_0, # of connection points: 2
#     Edge 65, Type (0, 0), BuildingBlock: UVAHIK_clean_linker_0, # of connection points: 2
#     Edge 66, Type (0, 0), BuildingBlock: UVAHIK_clean_linker_0, # of connection points: 2
#     Edge 67, Type (0, 0), BuildingBlock: UVAHIK_clean_linker_0, # of connection points: 2
#     Edge 68, Type (0, 0), BuildingBlock: UVAHIK_clean_linker_0, # of connection points: 2
#     Edge 69, Type (0, 0), BuildingBlock: UVAHIK_clean_linker_0, # of connection points: 2
#     Edge 70, Type (0, 0), BuildingBlock: UVAHIK_clean_linker_0, # of connection points: 2
#     Edge 71, Type (0, 0), BuildingBlock: UVAHIK_clean_linker_0, # of connection points: 2
#     Edge 72, Type (0, 0), BuildingBlock: UVAHIK_clean_linker_0, # of connection points: 2
#     Edge 73, Type (0, 0), BuildingBlock: UVAHIK_clean_linker_0, # of connection points: 2
#     Edge 74, Type (0, 0), BuildingBlock: UVAHIK_clean_linker_0, # of connection points: 2
#     Edge 75, Type (0, 0), BuildingBlock: UVAHIK_clean_linker_0, # of connection points: 2
#     Edge 76, Type (0, 0), BuildingBlock: UVAHIK_clean_linker_0, # of connection points: 2
#     Edge 77, Type (0, 0), BuildingBlock: UVAHIK_clean_linker_0, # of connection points: 2
#     Edge 78, Type (0, 0), BuildingBlock: UVAHIK_clean_linker_0, # of connection points: 2
#     Edge 79, Type (0, 0), BuildingBlock: UVAHIK_clean_linker_0, # of connection points: 2
#     Edge 80, Type (0, 0), BuildingBlock: UVAHIK_clean_linker_0, # of connection points: 2
#     Edge 81, Type (0, 0), BuildingBlock: UVAHIK_clean_linker_0, # of connection points: 2
#     Edge 82, Type (0, 0), BuildingBlock: UVAHIK_clean_linker_0, # of connection points: 2
#     Edge 83, Type (0, 0), BuildingBlock: UVAHIK_clean_linker_0, # of connection points: 2
#     Edge 84, Type (0, 0), BuildingBlock: UVAHIK_clean_linker_0, # of connection points: 2
#     Edge 85, Type (0, 0), BuildingBlock: UVAHIK_clean_linker_0, # of connection points: 2
#     Edge 86, Type (0, 0), BuildingBlock: UVAHIK_clean_linker_0, # of connection points: 2
#     Edge 87, Type (0, 0), BuildingBlock: UVAHIK_clean_linker_0, # of connection points: 2
#     Edge 88, Type (0, 0), BuildingBlock: UVAHIK_clean_linker_0, # of connection points: 2
#     Edge 89, Type (0, 0), BuildingBlock: UVAHIK_clean_linker_0, # of connection points: 2
#     Edge 90, Type (0, 0), BuildingBlock: UVAHIK_clean_linker_0, # of connection points: 2
#     Edge 91, Type (0, 0), BuildingBlock: UVAHIK_clean_linker_0, # of connection points: 2
#     Edge 92, Type (0, 0), BuildingBlock: UVAHIK_clean_linker_0, # of connection points: 2
#     Edge 93, Type (0, 0), BuildingBlock: UVAHIK_clean_linker_0, # of connection points: 2
#     Edge 94, Type (0, 0), BuildingBlock: UVAHIK_clean_linker_0, # of connection points: 2
#     Edge 95, Type (0, 0), BuildingBlock: UVAHIK_clean_linker_0, # of connection points: 2
#     Edge 96, Type (0, 0), BuildingBlock: UVAHIK_clean_linker_0, # of connection points: 2
#     Edge 97, Type (0, 0), BuildingBlock: UVAHIK_clean_linker_0, # of connection points: 2
#     Edge 98, Type (0, 0), BuildingBlock: UVAHIK_clean_linker_0, # of connection points: 2
#     Edge 99, Type (0, 0), BuildingBlock: UVAHIK_clean_linker_0, # of connection points: 2
#     Edge 100, Type (0, 0), BuildingBlock: UVAHIK_clean_linker_0, # of connection points: 2
#     Edge 101, Type (0, 0), BuildingBlock: UVAHIK_clean_linker_0, # of connection points: 2
#     Edge 102, Type (0, 0), BuildingBlock: UVAHIK_clean_linker_0, # of connection points: 2
#     Edge 103, Type (0, 0), BuildingBlock: UVAHIK_clean_linker_0, # of connection points: 2
#     Edge 104, Type (0, 0), BuildingBlock: UVAHIK_clean_linker_0, # of connection points: 2
#     Edge 105, Type (0, 0), BuildingBlock: UVAHIK_clean_linker_0, # of connection points: 2
#     Edge 106, Type (0, 0), BuildingBlock: UVAHIK_clean_linker_0, # of connection points: 2
#     Edge 107, Type (0, 0), BuildingBlock: UVAHIK_clean_linker_0, # of connection points: 2
# Relax obj value: 0.172
# Max RMSD: 0.155
# Mean RMSD: 0.155
data_MOF--net-cha--node1-AZAVOO_clean_sbu_0--edge1-UVAHIK_clean_linker_0
_symmetry_space_group_name_H-M    P1
_symmetry_Int_Tables_number       1
_symmetry_cell_setting            triclinic
loop_
_symmetry_equiv_pos_as_xyz
'x, y, z'
_cell_length_a     85.589157
_cell_length_b     85.487668
_cell_length_c     94.116542
_cell_angle_alpha  90.207016
_cell_angle_beta   89.905917
_cell_angle_gamma 120.14709
loop_
_atom_site_label
_atom_site_type_symbol
_atom_site_fract_x
_atom_site_fract_y
_atom_site_fract_z
_atom_type_partial_charge
Mg0 Mg 0.01114 0.24453 0.08424 0.0
O1 O -0.01352 0.21559 0.08589 0.0
O2 O -0.00742 0.19778 0.07234 0.0
Mg3 Mg 0.02021 0.21453 0.06211 0.0
C4 C -0.01784 0.20007 0.08074 0.0
C5 C -0.00313 0.26632 0.09953 0.0
O6 O 0.0003 0.27292 0.08659 0.0
O7 O 0.02777 0.23701 0.09894 0.0
O8 O 0.03282 0.2193 0.0843 0.0
O9 O -0.00071 0.24999 0.0651 0.0
O10 O 0.01733 0.23857 0.06406 0.0
C11 C 0.03463 0.22704 0.0963 0.0
C12 C 0.00727 0.24345 0.05751 0.0
O13 O 0.00034 0.25392 0.10266 0.0
Mg14 Mg 0.76862 0.78656 0.08642 0.0
O15 O 0.79791 0.79199 0.08516 0.0
O16 O 0.81274 0.81469 0.06987 0.0
Mg17 Mg 0.79389 0.82433 0.06193 0.0
C18 C 0.81224 0.80283 0.07835 0.0
C19 C 0.76517 0.75433 0.10381 0.0
O20 O 0.77232 0.7527 0.09193 0.0
O21 O 0.77746 0.81157 0.10054 0.0
O22 O 0.79216 0.83349 0.08454 0.0
O23 O 0.76107 0.76809 0.06762 0.0
O24 O 0.77086 0.79733 0.06614 0.0
C25 C 0.78638 0.82829 0.09715 0.0
C26 C 0.76592 0.78221 0.05978 0.0
O27 O 0.76271 0.76774 0.10531 0.0
Mg28 Mg 0.225 0.0033 0.0866 0.0
O29 O 0.2208 0.02801 0.08533 0.0
O30 O 0.19805 0.02037 0.07008 0.0
Mg31 Mg 0.18766 -0.00823 0.06184 0.0
C32 C 0.21012 0.03171 0.07853 0.0
C33 C 0.25062 0.00646 0.11053 0.0
O34 O 0.24518 -0.00976 0.10534 0.0
O35 O 0.19974 -0.01217 0.10053 0.0
O36 O 0.17812 0.98088 0.08432 0.0
O37 O 0.24403 0.0136 0.0682 0.0
O38 O 0.21452 -0.00438 0.06609 0.0
C39 C 0.18309 0.98025 0.09699 0.0
C40 C 0.22999 0.00532 0.06008 0.0
O41 O 0.2438 0.01553 0.10561 0.0
Mg42 Mg 0.23391 0.01901 0.88085 0.0
O43 O 0.20507 -0.00591 0.88182 0.0
O44 O 0.18923 0.00153 0.89645 0.0
Mg45 Mg 0.20693 0.03035 0.90443 0.0
C46 C 0.19041 -0.00979 0.88829 0.0
C47 C 0.25738 0.01529 0.85807 0.0
O48 O 0.26826 0.03127 0.86363 0.0
O49 O 0.22446 0.03406 0.86623 0.0
O50 O 0.209 0.04092 0.88176 0.0
O51 O 0.24209 0.00916 0.89977 0.0
O52 O 0.23057 0.02713 0.90111 0.0
C53 C 0.21512 0.04149 0.86927 0.0
C54 C 0.23628 0.01768 0.90756 0.0
O55 O 0.24111 0.00656 0.86235 0.0
Mg56 Mg -0.00497 0.23362 0.8782 0.0
O57 O 0.01936 0.22888 0.87926 0.0
O58 O 0.01117 0.20532 0.89372 0.0
Mg59 Mg -0.0175 0.1949 0.90165 0.0
C60 C 0.02274 0.21773 0.88566 0.0
C61 C -0.00084 0.26057 0.85508 0.0
O62 O -0.01704 0.25528 0.86018 0.0
O63 O -0.0204 0.20913 0.86344 0.0
O64 O 0.97206 0.18661 0.87889 0.0
O65 O 0.00514 0.25169 0.89724 0.0
O66 O -0.01322 0.22212 0.89832 0.0
C67 C 0.97178 0.19228 0.8664 0.0
C68 C -0.0035 0.23725 0.90486 0.0
O69 O 0.00786 0.25326 0.8598 0.0
Mg70 Mg 0.77768 0.7811 0.88047 0.0
O71 O 0.78238 0.81016 0.88208 0.0
O72 O 0.80481 0.82507 0.89764 0.0
Mg73 Mg 0.81503 0.80661 0.9053 0.0
C74 C 0.79293 0.82446 0.88911 0.0
C75 C 0.75169 0.75913 0.85659 0.0
O76 O 0.75704 0.74821 0.8615 0.0
O77 O 0.80277 0.79071 0.86643 0.0
O78 O 0.82447 0.80577 0.88261 0.0
O79 O 0.75905 0.77288 0.89909 0.0
O80 O 0.78836 0.78322 0.90078 0.0
C81 C 0.81941 0.80012 0.86994 0.0
C82 C 0.77312 0.77786 0.90703 0.0
O83 O 0.75876 0.77504 0.86167 0.0
Mg84 Mg -0.00654 0.779 0.8802 0.0
O85 O 0.01868 0.80768 0.88161 0.0
O86 O 0.01163 0.82343 0.89673 0.0
Mg87 Mg -0.01722 0.80594 0.90455 0.0
C88 C 0.02279 0.82225 0.88841 0.0
C89 C -0.00228 0.75515 0.85822 0.0
O90 O -0.0173 0.74392 0.86488 0.0
O91 O -0.02117 0.78931 0.86593 0.0
O92 O 0.97265 0.80495 0.88187 0.0
O93 O 0.00293 0.76994 0.89889 0.0
O94 O -0.01434 0.78227 0.90051 0.0
C95 C 0.97197 0.79908 0.86926 0.0
C96 C -0.00517 0.77612 0.90677 0.0
O97 O 0.00562 0.77183 0.8615 0.0
Mg98 Mg 0.23397 0.23324 0.87909 0.0
O99 O 0.20489 0.22851 0.88003 0.0
O100 O 0.18947 0.20547 0.89496 0.0
Mg101 Mg 0.20773 0.19533 0.90326 0.0
C102 C 0.19034 0.2176 0.88659 0.0
C103 C 0.25636 0.26637 0.86124 0.0
O104 O 0.26692 0.26746 0.87178 0.0
O105 O 0.22482 0.20828 0.86483 0.0
O106 O 0.2098 0.18633 0.88072 0.0
O107 O 0.24193 0.25192 0.89771 0.0
O108 O 0.23082 0.22246 0.89953 0.0
C109 C 0.21573 0.19155 0.86814 0.0
C110 C 0.23623 0.23782 0.9057 0.0
O111 O 0.24069 0.25245 0.8604 0.0
Mg112 Mg 0.78127 0.02234 0.87952 0.0
O113 O 0.78535 -0.00243 0.88079 0.0
O114 O 0.80893 0.00548 0.8952 0.0
Mg115 Mg 0.82012 0.03447 0.9028 0.0
C116 C 0.79628 -0.00607 0.88725 0.0
C117 C 0.74746 -0.00578 0.86301 0.0
O118 O 0.74557 -0.01416 0.87511 0.0
O119 O 0.80564 0.03708 0.86463 0.0
O120 O 0.82826 0.0444 0.87993 0.0
O121 O 0.76348 0.01294 0.89871 0.0
O122 O 0.79311 0.03074 0.89957 0.0
C123 C 0.82248 0.0446 0.86747 0.0
C124 C 0.77805 0.02139 0.90623 0.0
O125 O 0.76149 0.0096 0.86108 0.0
Mg126 Mg 0.77253 0.00473 0.08543 0.0
O127 O 0.80143 0.02935 0.08724 0.0
O128 O 0.81913 0.02324 0.0736 0.0
Mg129 Mg 0.80227 -0.00424 0.06299 0.0
C130 C 0.81691 0.03364 0.0821 0.0
C131 C 0.75047 0.01834 0.10101 0.0
O132 O 0.74368 0.01465 0.08812 0.0
O133 O 0.77997 -0.01221 0.09982 0.0
O134 O 0.79716 0.98247 0.0849 0.0
O135 O 0.76709 0.01695 0.06651 0.0
O136 O 0.7784 -0.00117 0.06511 0.0
C137 C 0.78954 0.98054 0.09697 0.0
C138 C 0.77358 0.00905 0.05876 0.0
O139 O 0.76317 0.01527 0.10404 0.0
Mg140 Mg 0.00865 0.78847 0.08599 0.0
O141 O -0.01587 0.79296 0.08487 0.0
O142 O -0.00824 0.81583 0.06982 0.0
Mg143 Mg 0.02029 0.82616 0.06165 0.0
C144 C -0.01956 0.80372 0.0782 0.0
C145 C -0.0193 0.75581 0.10354 0.0
O146 O 0.97176 0.75381 0.0917 0.0
O147 O 0.02432 0.8136 0.10013 0.0
O148 O 0.03126 0.83544 0.08416 0.0
O149 O -0.00178 0.76971 0.06737 0.0
O150 O 0.01655 0.79916 0.06551 0.0
C151 C 0.03193 0.83031 0.09676 0.0
C152 C 0.00679 0.78376 0.05933 0.0
O153 O -0.00363 0.76961 0.10497 0.0
Mg154 Mg 0.22818 0.24436 0.08494 0.0
O155 O 0.22303 0.2151 0.08381 0.0
O156 O 0.19931 0.19953 0.06948 0.0
Mg157 Mg 0.18898 0.21793 0.06189 0.0
C158 C 0.2118 0.20046 0.07746 0.0
C159 C 0.252 0.26313 0.11205 0.0
O160 O 0.24267 0.27152 0.11213 0.0
O161 O 0.20411 0.23574 0.1 0.0
O162 O 0.18128 0.22035 0.08479 0.0
O163 O 0.24577 0.25188 0.06577 0.0
O164 O 0.21631 0.24113 0.06488 0.0
C165 C 0.18725 0.22654 0.09719 0.0
C166 C 0.2313 0.24632 0.05823 0.0
O167 O 0.24829 0.25078 0.1029 0.0
Mg168 Mg 0.67519 0.57631 0.4193 0.0
O169 O 0.65109 0.54701 0.41919 0.0
O170 O 0.65867 0.53062 0.40529 0.0
Mg171 Mg 0.68697 0.54883 0.39655 0.0
C172 C 0.64748 0.53199 0.41344 0.0
C173 C 0.67078 0.59683 0.44556 0.0
O174 O 0.68848 0.60621 0.44466 0.0
O175 O 0.69119 0.5683 0.43427 0.0
O176 O 0.698 0.55226 0.41921 0.0
O177 O 0.66443 0.58297 0.40013 0.0
O178 O 0.68306 0.57218 0.39919 0.0
C179 C 0.69871 0.55897 0.43149 0.0
C180 C 0.6731 0.57713 0.39257 0.0
O181 O 0.66202 0.58338 0.43733 0.0
Mg182 Mg 0.43793 0.12144 0.42121 0.0
O183 O 0.46712 0.1264 0.42071 0.0
O184 O 0.48282 0.1499 0.40625 0.0
Mg185 Mg 0.46462 0.16002 0.39776 0.0
C186 C 0.48184 0.13759 0.41447 0.0
C187 C 0.41504 0.08812 0.43889 0.0
O188 O 0.40456 0.08713 0.42833 0.0
O189 O 0.44639 0.14603 0.43577 0.0
O190 O 0.46166 0.16845 0.42029 0.0
O191 O 0.43058 0.10327 0.40229 0.0
O192 O 0.44149 0.13273 0.40092 0.0
C193 C 0.45535 0.16285 0.43272 0.0
C194 C 0.43625 0.11755 0.39451 0.0
O195 O 0.4308 0.1019 0.43973 0.0
Mg196 Mg 0.89113 0.3369 0.42222 0.0
O197 O 0.88618 0.36108 0.42061 0.0
O198 O 0.86225 0.3523 0.40642 0.0
Mg199 Mg 0.85172 0.32325 0.39925 0.0
C200 C 0.87487 0.36421 0.41419 0.0
C201 C 0.91529 0.34254 0.44908 0.0
O202 O 0.90577 0.32478 0.44926 0.0
O203 O 0.86716 0.32203 0.4375 0.0
O204 O 0.84426 0.31383 0.42229 0.0
O205 O 0.90853 0.34624 0.4029 0.0
O206 O 0.87901 0.32764 0.40233 0.0
C207 C 0.85025 0.31406 0.43475 0.0
C208 C 0.89392 0.33718 0.39552 0.0
O209 O 0.91156 0.35111 0.43997 0.0
Mg210 Mg 0.90095 0.35283 0.21625 0.0
O211 O 0.87195 0.32839 0.21442 0.0
O212 O 0.85432 0.33471 0.22796 0.0
Mg213 Mg 0.8713 0.36221 0.2385 0.0
C214 C 0.85647 0.32422 0.21951 0.0
C215 C 0.92096 0.33648 0.20079 0.0
O216 O 0.92617 0.33762 0.21405 0.0
O217 O 0.89381 0.36994 0.20177 0.0
O218 O 0.87662 0.37544 0.21655 0.0
O219 O 0.9061 0.34056 0.2353 0.0
O220 O 0.89504 0.3589 0.23653 0.0
C221 C 0.88432 0.37729 0.20454 0.0
C222 C 0.89967 0.34858 0.24297 0.0
O223 O 0.91017 0.34209 0.19761 0.0
Mg224 Mg 0.66054 0.5665 0.21318 0.0
O225 O 0.68471 0.56148 0.2139 0.0
O226 O 0.67658 0.53792 0.22835 0.0
Mg227 Mg 0.64811 0.52782 0.23663 0.0
C228 C 0.68808 0.55025 0.22019 0.0
C229 C 0.67197 0.60018 0.19579 0.0
O230 O 0.66287 0.60146 0.20655 0.0
O231 O 0.64462 0.54197 0.19853 0.0
O232 O 0.63717 0.51948 0.21398 0.0
O233 O 0.6712 0.58463 0.23213 0.0
O234 O 0.65254 0.55516 0.23343 0.0
C235 C 0.6367 0.52514 0.20153 0.0
C236 C 0.6625 0.57032 0.23987 0.0
O237 O 0.67332 0.58608 0.19471 0.0
Mg238 Mg 0.44257 0.11123 0.21516 0.0
O239 O 0.44777 0.14054 0.21462 0.0
O240 O 0.4715 0.15702 0.22876 0.0
Mg241 Mg 0.48128 0.13905 0.23833 0.0
C242 C 0.45918 0.15562 0.22034 0.0
C243 C 0.41352 0.08639 0.19404 0.0
O244 O 0.4166 0.07521 0.20144 0.0
O245 O 0.46707 0.11897 0.20075 0.0
O246 O 0.4896 0.13518 0.21603 0.0
O247 O 0.42453 0.10478 0.23404 0.0
O248 O 0.454 0.11586 0.23542 0.0
C249 C 0.48387 0.12825 0.20376 0.0
C250 C 0.4389 0.1109 0.2418 0.0
O251 O 0.42302 0.10325 0.19654 0.0
Mg252 Mg 0.66255 0.11306 0.21759 0.0
O253 O 0.68696 0.14212 0.21577 0.0
O254 O 0.68065 0.15987 0.22921 0.0
Mg255 Mg 0.65312 0.14296 0.23956 0.0
C256 C 0.69113 0.15765 0.22082 0.0
C257 C 0.67944 0.09334 0.20236 0.0
O258 O 0.67868 0.08849 0.21568 0.0
O259 O 0.64553 0.12008 0.20291 0.0
O260 O 0.64027 0.13774 0.21744 0.0
O261 O 0.67466 0.10804 0.2368 0.0
O262 O 0.65631 0.11909 0.23776 0.0
C263 C 0.63846 0.12987 0.2055 0.0
C264 C 0.66654 0.11447 0.24435 0.0
O265 O 0.67342 0.10377 0.19909 0.0
Mg266 Mg 0.90109 0.5697 0.21446 0.0
O267 O 0.8716 0.5639 0.21483 0.0
O268 O 0.85637 0.5405 0.22949 0.0
Mg269 Mg 0.87515 0.53125 0.23824 0.0
C270 C 0.85701 0.55252 0.22111 0.0
C271 C 0.92297 0.60331 0.19681 0.0
O272 O 0.93331 0.60511 0.20773 0.0
O273 O 0.89323 0.54501 0.20015 0.0
O274 O 0.87832 0.52272 0.21581 0.0
O275 O 0.90792 0.5881 0.23319 0.0
O276 O 0.89771 0.55878 0.23486 0.0
C277 C 0.88456 0.52822 0.20335 0.0
C278 C 0.90247 0.57396 0.2411 0.0
O279 O 0.90773 0.58889 0.19573 0.0
Mg280 Mg 0.44623 0.35199 0.21331 0.0
O281 O 0.45099 0.32768 0.2134 0.0
O282 O 0.47494 0.33518 0.22725 0.0
Mg283 Mg 0.48531 0.36356 0.23608 0.0
C284 C 0.46228 0.32398 0.21914 0.0
C285 C 0.42164 0.34799 0.18712 0.0
O286 O 0.43026 0.36571 0.18816 0.0
O287 O 0.47039 0.36782 0.19838 0.0
O288 O 0.49313 0.37479 0.2135 0.0
O289 O 0.42862 0.34137 0.23242 0.0
O290 O 0.45816 0.35979 0.23341 0.0
C291 C 0.48727 0.37551 0.20119 0.0
C292 C 0.44314 0.34992 0.24 0.0
O293 O 0.42607 0.33902 0.19524 0.0
Mg294 Mg 0.43685 0.33618 0.41939 0.0
O295 O 0.46609 0.36041 0.42009 0.0
O296 O 0.48277 0.3531 0.40628 0.0
Mg297 Mg 0.46503 0.32505 0.39683 0.0
C298 C 0.48122 0.36413 0.41454 0.0
C299 C 0.41769 0.35347 0.43476 0.0
O300 O 0.41157 0.35125 0.42169 0.0
O301 O 0.44445 0.31966 0.43417 0.0
O302 O 0.46077 0.31318 0.41921 0.0
O303 O 0.43096 0.34758 0.40014 0.0
O304 O 0.44171 0.32896 0.39918 0.0
C305 C 0.45372 0.31207 0.43141 0.0
C306 C 0.43697 0.33909 0.39258 0.0
O307 O 0.42877 0.34819 0.43788 0.0
Mg308 Mg 0.67849 0.12393 0.42369 0.0
O309 O 0.65395 0.12838 0.42272 0.0
O310 O 0.66188 0.15195 0.40832 0.0
Mg311 Mg 0.69058 0.1627 0.40035 0.0
C312 C 0.65039 0.13944 0.41637 0.0
C313 C 0.65021 0.09049 0.44025 0.0
O314 O 0.6415 0.08929 0.42844 0.0
O315 O 0.69379 0.14844 0.4385 0.0
O316 O 0.70109 0.17096 0.4231 0.0
O317 O 0.6686 0.10597 0.40456 0.0
O318 O 0.68661 0.13558 0.40359 0.0
C319 C 0.70148 0.16529 0.43556 0.0
C320 C 0.67708 0.12047 0.39699 0.0
O321 O 0.6659 0.1041 0.44209 0.0
Mg322 Mg 0.89249 0.57672 0.4204 0.0
O323 O 0.88725 0.54744 0.41897 0.0
O324 O 0.86366 0.53215 0.40447 0.0
Mg325 Mg 0.85355 0.55078 0.39696 0.0
C326 C 0.87603 0.5329 0.41249 0.0
C327 C 0.91669 0.5957 0.4472 0.0
O328 O 0.90807 0.60479 0.44674 0.0
O329 O 0.86821 0.56788 0.4353 0.0
O330 O 0.84557 0.55283 0.41985 0.0
O331 O 0.9103 0.58455 0.40133 0.0
O332 O 0.88087 0.57384 0.40029 0.0
C333 C 0.85137 0.55879 0.43233 0.0
C334 C 0.89592 0.57913 0.39371 0.0
O335 O 0.9124 0.58279 0.43848 0.0
Mg336 Mg 0.34439 0.91029 0.75362 0.0
O337 O 0.31945 0.88139 0.75273 0.0
O338 O 0.32669 0.86542 0.73801 0.0
Mg339 Mg 0.35542 0.883 0.72998 0.0
C340 C 0.31548 0.86667 0.74623 0.0
C341 C 0.34009 0.9344 0.77542 0.0
O342 O 0.35508 0.94563 0.76874 0.0
O343 O 0.35949 0.90084 0.76819 0.0
O344 O 0.36587 0.8849 0.75269 0.0
O345 O 0.33445 0.91845 0.73473 0.0
O346 O 0.35214 0.90658 0.73338 0.0
C347 C 0.36656 0.89117 0.76515 0.0
C348 C 0.34268 0.9123 0.72697 0.0
O349 O 0.33222 0.9177 0.77218 0.0
Mg350 Mg 0.10451 0.45564 0.75486 0.0
O351 O 0.1334 0.45983 0.75377 0.0
O352 O 0.14905 0.48306 0.73905 0.0
Mg353 Mg 0.13119 0.49382 0.73101 0.0
C354 C 0.148 0.4707 0.74725 0.0
C355 C 0.08047 0.42666 0.77596 0.0
O356 O 0.06932 0.43015 0.76892 0.0
O357 O 0.11412 0.48043 0.7694 0.0
O358 O 0.12934 0.50258 0.75369 0.0
O359 O 0.09611 0.43725 0.736 0.0
O360 O 0.10788 0.46686 0.73461 0.0
C361 C 0.1234 0.4972 0.76624 0.0
C362 C 0.10211 0.45158 0.72823 0.0
O363 O 0.09728 0.43605 0.77333 0.0
Mg364 Mg 0.5579 0.67054 0.75452 0.0
O365 O 0.55404 0.69544 0.75337 0.0
O366 O 0.53067 0.68776 0.73878 0.0
Mg367 Mg 0.51951 0.65888 0.73094 0.0
C368 C 0.54322 0.6992 0.74686 0.0
C369 C 0.58688 0.6756 0.77563 0.0
O370 O 0.58343 0.66095 0.76851 0.0
O371 O 0.53333 0.65566 0.7692 0.0
O372 O 0.51098 0.64857 0.75367 0.0
O373 O 0.57604 0.68022 0.7356 0.0
O374 O 0.54644 0.6624 0.73431 0.0
C375 C 0.51653 0.64817 0.76618 0.0
C376 C 0.56165 0.67181 0.72786 0.0
O377 O 0.57758 0.68306 0.77296 0.0
Mg378 Mg 0.56534 0.68393 0.54855 0.0
O379 O 0.53592 0.66001 0.54973 0.0
O380 O 0.52096 0.66862 0.5643 0.0
Mg381 Mg 0.5399 0.69725 0.5722 0.0
C382 C 0.52147 0.65689 0.55617 0.0
C383 C 0.5838 0.67905 0.52128 0.0
O384 O 0.5923 0.69681 0.52156 0.0
O385 O 0.55685 0.69978 0.53386 0.0
O386 O 0.5423 0.70771 0.54947 0.0
O387 O 0.57289 0.67352 0.56746 0.0
O388 O 0.56256 0.69252 0.5688 0.0
C389 C 0.54816 0.70789 0.53695 0.0
C390 C 0.56761 0.6825 0.57522 0.0
O391 O 0.57136 0.67023 0.53028 0.0
Mg392 Mg 0.3263 0.90047 0.54772 0.0
O393 O 0.35033 0.89529 0.5468 0.0
O394 O 0.34341 0.87173 0.56094 0.0
Mg395 Mg 0.31584 0.86208 0.57097 0.0
C396 C 0.35416 0.88401 0.55238 0.0
C397 C 0.35363 0.93302 0.5299 0.0
O398 O 0.36319 0.93424 0.54119 0.0
O399 O 0.30917 0.8757 0.53356 0.0
O400 O 0.30294 0.8534 0.54891 0.0
O401 O 0.33833 0.91881 0.56646 0.0
O402 O 0.31986 0.88935 0.56813 0.0
C403 C 0.30147 0.8589 0.53665 0.0
C404 C 0.33014 0.90458 0.57437 0.0
O405 O 0.33758 0.91973 0.52886 0.0
Mg406 Mg 0.11079 0.44558 0.5489 0.0
O407 O 0.11657 0.47504 0.54905 0.0
O408 O 0.14039 0.49102 0.56318 0.0
Mg409 Mg 0.14979 0.47237 0.57204 0.0
C410 C 0.12806 0.48994 0.55493 0.0
C411 C 0.08601 0.42529 0.52259 0.0
O412 O 0.09392 0.41557 0.52378 0.0
O413 O 0.13504 0.4532 0.5342 0.0
O414 O 0.15767 0.46862 0.54955 0.0
O415 O 0.09299 0.43912 0.56786 0.0
O416 O 0.12231 0.44932 0.56917 0.0
C417 C 0.15189 0.46205 0.53718 0.0
C418 C 0.10729 0.44461 0.57561 0.0
O419 O 0.09097 0.43894 0.53065 0.0
Mg420 Mg 0.32575 0.44449 0.55052 0.0
O421 O 0.34944 0.47409 0.55075 0.0
O422 O 0.34126 0.48952 0.56519 0.0
Mg423 Mg 0.31288 0.47091 0.57359 0.0
C424 C 0.35272 0.48877 0.55695 0.0
C425 C 0.34372 0.42615 0.53535 0.0
O426 O 0.34051 0.4194 0.54823 0.0
O427 O 0.30914 0.4519 0.53569 0.0
O428 O 0.30183 0.46739 0.55091 0.0
O429 O 0.33714 0.43879 0.56987 0.0
O430 O 0.31726 0.44797 0.57065 0.0
C431 C 0.3012 0.46082 0.53856 0.0
C432 C 0.32775 0.44381 0.57737 0.0
O433 O 0.33886 0.43753 0.53215 0.0
Mg434 Mg 0.56451 0.89987 0.54627 0.0
O435 O 0.53537 0.89493 0.54557 0.0
O436 O 0.51878 0.87158 0.55995 0.0
Mg437 Mg 0.53664 0.86191 0.56993 0.0
C438 C 0.52028 0.88376 0.55133 0.0
C439 C 0.58805 0.93296 0.52855 0.0
O440 O 0.59807 0.93417 0.53953 0.0
O441 O 0.55652 0.87488 0.53225 0.0
O442 O 0.54055 0.85288 0.54789 0.0
O443 O 0.57111 0.91849 0.5648 0.0
O444 O 0.56005 0.88906 0.56679 0.0
C445 C 0.54737 0.85814 0.53554 0.0
C446 C 0.56513 0.90441 0.57287 0.0
O447 O 0.57242 0.91904 0.5274 0.0
Mg448 Mg 0.1099 0.68371 0.54961 0.0
O449 O 0.11565 0.66003 0.54972 0.0
O450 O 0.13966 0.66827 0.56368 0.0
Mg451 Mg 0.14918 0.69649 0.57246 0.0
C452 C 0.12725 0.65681 0.55553 0.0
C453 C 0.08599 0.67913 0.52273 0.0
O454 O 0.09514 0.6969 0.52314 0.0
O455 O 0.13398 0.70018 0.53472 0.0
O456 O 0.1568 0.70776 0.54989 0.0
O457 O 0.09233 0.67263 0.56872 0.0
O458 O 0.12168 0.69186 0.56976 0.0
C459 C 0.15086 0.70829 0.53756 0.0
C460 C 0.10674 0.68164 0.57634 0.0
O461 O 0.08985 0.67031 0.53149 0.0
Mg462 Mg 0.10482 0.66949 0.75555 0.0
O463 O 0.13364 0.69444 0.75438 0.0
O464 O 0.14924 0.68701 0.73947 0.0
Mg465 Mg 0.13143 0.65823 0.73141 0.0
C466 C 0.14819 0.69832 0.74774 0.0
C467 C 0.08137 0.67317 0.77828 0.0
O468 O 0.07045 0.65735 0.77247 0.0
O469 O 0.11459 0.65445 0.76987 0.0
O470 O 0.12974 0.6476 0.75401 0.0
O471 O 0.09622 0.67936 0.73688 0.0
O472 O 0.10806 0.66166 0.7352 0.0
C473 C 0.12386 0.64701 0.7666 0.0
C474 C 0.10222 0.67112 0.72896 0.0
O475 O 0.09774 0.68178 0.77422 0.0
Mg476 Mg 0.34418 0.45658 0.75652 0.0
O477 O 0.31989 0.46134 0.75535 0.0
O478 O 0.32749 0.48407 0.74016 0.0
Mg479 Mg 0.35616 0.49443 0.73227 0.0
C480 C 0.31618 0.47201 0.74858 0.0
C481 C 0.31561 0.42391 0.77366 0.0
O482 O 0.30677 0.42253 0.76188 0.0
O483 O 0.35986 0.48152 0.77082 0.0
O484 O 0.36677 0.50346 0.75493 0.0
O485 O 0.33357 0.4382 0.73769 0.0
O486 O 0.35257 0.46758 0.73625 0.0
C487 C 0.36739 0.49825 0.76752 0.0
C488 C 0.34252 0.45241 0.72987 0.0
O489 O 0.33144 0.43739 0.77525 0.0
Mg490 Mg 0.56029 0.91138 0.7523 0.0
O491 O 0.55607 0.88245 0.75127 0.0
O492 O 0.53246 0.86639 0.73693 0.0
Mg493 Mg 0.52122 0.88399 0.72931 0.0
C494 C 0.54511 0.86769 0.74491 0.0
C495 C 0.59504 0.93363 0.76894 0.0
O496 O 0.5968 0.94353 0.75774 0.0
O497 O 0.53611 0.90207 0.76737 0.0
O498 O 0.51337 0.88602 0.75224 0.0
O499 O 0.57782 0.91927 0.73297 0.0
O500 O 0.54823 0.9076 0.73228 0.0
C501 C 0.51927 0.89235 0.76462 0.0
C502 C 0.5632 0.91318 0.72553 0.0
O503 O 0.58041 0.91867 0.77049 0.0
C504 C 0.06236 0.24079 0.1113 0.0
C505 C 0.0465 0.22536 0.10672 0.0
C506 C 0.07644 0.2391 0.11724 0.0
C507 C 0.09309 0.20741 0.11312 0.0
H508 H 0.13261 0.24172 0.13679 0.0
C509 C 0.15879 0.20747 0.11033 0.0
C510 C 0.1738 0.22461 0.10783 0.0
C511 C 0.14315 0.2058 0.11642 0.0
C512 C 0.12165 0.23198 0.13019 0.0
H513 H 0.03191 0.19612 0.10615 0.0
H514 H 0.05593 0.19304 0.11727 0.0
H515 H 0.10415 0.24206 0.13639 0.0
H516 H 0.18493 0.25339 0.11068 0.0
H517 H 0.15738 0.25064 0.12076 0.0
H518 H 0.11053 0.19793 0.10624 0.0
C519 C 0.05793 0.20649 0.1158 0.0
C520 C 0.10535 0.23218 0.12997 0.0
C521 C 0.04408 0.2082 0.10957 0.0
C522 C 0.17355 0.24001 0.11269 0.0
C523 C 0.15771 0.23839 0.11846 0.0
C524 C 0.10926 0.20724 0.11333 0.0
C525 C 0.07473 0.22192 0.11883 0.0
C526 C 0.091 0.22014 0.12116 0.0
C527 C 0.14198 0.22129 0.11963 0.0
C528 C 0.12395 0.21977 0.12159 0.0
H529 H 0.06456 0.25417 0.10904 0.0
H530 H 0.08916 0.25129 0.1194 0.0
H531 H 0.08262 0.19822 0.1059 0.0
H532 H 0.15873 0.19541 0.10665 0.0
H533 H 0.13151 0.19239 0.1176 0.0
C534 C 0.77613 0.9568 0.11596 0.0
C535 C 0.79079 0.96811 0.10719 0.0
C536 C 0.77577 0.94215 0.12294 0.0
C537 C 0.80346 0.9203 0.1305 0.0
H538 H 0.7602 0.87646 0.11877 0.0
C539 C 0.80374 0.85981 0.10632 0.0
C540 C 0.78866 0.84236 0.10746 0.0
C541 C 0.80413 0.87437 0.11339 0.0
C542 C 0.7722 0.88845 0.12255 0.0
H543 H 0.8173 0.97414 0.09999 0.0
H544 H 0.81677 0.9489 0.11208 0.0
H545 H 0.76055 0.90504 0.11863 0.0
H546 H 0.76276 0.82615 0.11778 0.0
H547 H 0.76331 0.85178 0.13005 0.0
H548 H 0.81551 0.9038 0.13335 0.0
C549 C 0.80549 0.95112 0.11365 0.0
C550 C 0.77241 0.90491 0.12247 0.0
C551 C 0.80575 0.96555 0.10659 0.0
C552 C 0.77459 0.83947 0.11675 0.0
C553 C 0.77485 0.85414 0.12369 0.0
C554 C 0.80327 0.90385 0.13053 0.0
C555 C 0.79018 0.93876 0.1214 0.0
C556 C 0.78836 0.92116 0.12568 0.0
C557 C 0.78933 0.87185 0.12162 0.0
C558 C 0.78795 0.88791 0.12581 0.0
H559 H 0.7644 0.95845 0.1166 0.0
H560 H 0.76385 0.93296 0.12894 0.0
H561 H 0.81584 0.93253 0.13333 0.0
H562 H 0.81479 0.8624 0.09926 0.0
H563 H 0.81542 0.8878 0.11143 0.0
C564 C 0.05437 0.84161 0.11675 0.0
C565 C 0.04357 0.84448 0.10708 0.0
C566 C 0.06867 0.85631 0.12378 0.0
C567 C 0.09036 0.9063 0.1298 0.0
H568 H 0.13443 0.90643 0.12003 0.0
C569 C 0.15144 0.96632 0.10564 0.0
C570 C 0.16882 0.96872 0.10722 0.0
C571 C 0.13674 0.95239 0.11273 0.0
C572 C 0.12237 0.9066 0.12327 0.0
H573 H 0.03799 0.86456 0.09831 0.0
H574 H 0.06259 0.89 0.11055 0.0
H575 H 0.10588 0.87809 0.12001 0.0
H576 H 0.18473 0.95937 0.11834 0.0
H577 H 0.15885 0.93472 0.13068 0.0
H578 H 0.10679 0.93505 0.13204 0.0
C579 C 0.06024 0.87656 0.11277 0.0
C580 C 0.10593 0.89028 0.12326 0.0
C581 C 0.04618 0.86197 0.10564 0.0
C582 C 0.17147 0.95784 0.11696 0.0
C583 C 0.15665 0.94367 0.12394 0.0
C584 C 0.10681 0.92262 0.1298 0.0
C585 C 0.07219 0.87405 0.1214 0.0
C586 C 0.08962 0.89009 0.12574 0.0
C587 C 0.13902 0.94037 0.12145 0.0
C588 C 0.12285 0.92307 0.12576 0.0
H589 H 0.05269 0.82826 0.11803 0.0
H590 H 0.07755 0.85393 0.13047 0.0
H591 H 0.07807 0.90655 0.13204 0.0
H592 H 0.14902 0.97458 0.09825 0.0
H593 H 0.12339 0.9502 0.11043 0.0
C594 C 0.19778 0.05538 0.85982 0.0
C595 C 0.21277 0.05292 0.85872 0.0
C596 C 0.19739 0.06933 0.8525 0.0
C597 C 0.22962 0.11508 0.84225 0.0
H598 H 0.18587 0.11558 0.83253 0.0
C599 C 0.22722 0.18032 0.84834 0.0
C600 C 0.21331 0.17746 0.8578 0.0
C601 C 0.22683 0.16561 0.84134 0.0
C602 C 0.19828 0.1157 0.83503 0.0
H603 H 0.23844 0.06215 0.84818 0.0
H604 H 0.23788 0.08682 0.83542 0.0
H605 H 0.18573 0.08694 0.83275 0.0
H606 H 0.18729 0.15745 0.86621 0.0
H607 H 0.18648 0.13201 0.85401 0.0
H608 H 0.24182 0.14359 0.84555 0.0
C609 C 0.22642 0.07791 0.84198 0.0
C610 C 0.1982 0.0993 0.83516 0.0
C611 C 0.2267 0.06373 0.84919 0.0
C612 C 0.19824 0.16001 0.85904 0.0
C613 C 0.19774 0.14543 0.85194 0.0
C614 C 0.22969 0.13147 0.84213 0.0
C615 C 0.21209 0.08131 0.84402 0.0
C616 C 0.21358 0.09869 0.83956 0.0
C617 C 0.2124 0.1479 0.84353 0.0
C618 C 0.21374 0.13182 0.83931 0.0
H619 H 0.18681 0.04718 0.86703 0.0
H620 H 0.1862 0.07159 0.85446 0.0
H621 H 0.24169 0.11513 0.84576 0.0
H622 H 0.23902 0.19364 0.84722 0.0
H623 H 0.23826 0.16796 0.83484 0.0
C624 C 0.95773 0.16106 0.85665 0.0
C625 C 0.96033 0.17859 0.85573 0.0
C626 C 0.9437 0.14676 0.84926 0.0
C627 C 0.89805 0.13361 0.83938 0.0
H628 H 0.89679 0.08886 0.82974 0.0
C629 C 0.83292 0.06636 0.84709 0.0
C630 C 0.83609 0.05568 0.85666 0.0
C631 C 0.84733 0.08031 0.8396 0.0
C632 C 0.89687 0.10129 0.8322 0.0
H633 H 0.95131 0.19526 0.84538 0.0
H634 H 0.92649 0.17009 0.83248 0.0
H635 H 0.92554 0.11733 0.82949 0.0
H636 H 0.85629 0.04984 0.86476 0.0
H637 H 0.88122 0.07384 0.85171 0.0
H638 H 0.86966 0.1175 0.84313 0.0
C639 C 0.93535 0.16745 0.83896 0.0
C640 C 0.91334 0.11759 0.83206 0.0
C641 C 0.94962 0.18186 0.84626 0.0
C642 C 0.85349 0.05796 0.85752 0.0
C643 C 0.86778 0.07167 0.84992 0.0
C644 C 0.88159 0.11732 0.83951 0.0
C645 C 0.93178 0.14962 0.84087 0.0
C646 C 0.91425 0.13376 0.83648 0.0
C647 C 0.86505 0.08358 0.84141 0.0
C648 C 0.881 0.10085 0.83675 0.0
H649 H 0.96587 0.15818 0.86382 0.0
H650 H 0.94131 0.13324 0.85111 0.0
H651 H 0.89823 0.14577 0.8429 0.0
H652 H 0.81963 0.0649 0.84625 0.0
H653 H 0.84479 0.08917 0.83302 0.0
C654 C 0.83417 0.78837 0.85372 0.0
C655 C 0.83368 0.80317 0.85971 0.0
C656 C 0.85031 0.79064 0.848 0.0
C657 C 0.8985 0.82099 0.85496 0.0
H658 H 0.90474 0.78946 0.82878 0.0
C659 C 0.96351 0.81971 0.8576 0.0
C660 C 0.96097 0.80226 0.85895 0.0
C661 C 0.95001 0.82225 0.85169 0.0
C662 C 0.90324 0.79842 0.83608 0.0
H663 H 0.8487 0.83212 0.863 0.0
H664 H 0.87648 0.83634 0.85222 0.0
H665 H 0.87623 0.78968 0.829 0.0
H666 H 0.94313 0.77393 0.85421 0.0
H667 H 0.91912 0.77817 0.8444 0.0
H668 H 0.92484 0.82912 0.86262 0.0
C669 C 0.86478 0.82285 0.85244 0.0
C670 C 0.88689 0.79855 0.83621 0.0
C671 C 0.84884 0.82051 0.85847 0.0
C672 C 0.94544 0.78754 0.85312 0.0
C673 C 0.93168 0.79002 0.8475 0.0
C674 C 0.9147 0.82088 0.85482 0.0
C675 C 0.86609 0.8078 0.84802 0.0
C676 C 0.88418 0.80955 0.84591 0.0
C677 C 0.93341 0.8073 0.84748 0.0
C678 C 0.9172 0.80932 0.84563 0.0
H679 H 0.82266 0.77483 0.85471 0.0
H680 H 0.85075 0.77871 0.84474 0.0
H681 H 0.89688 0.82931 0.86286 0.0
H682 H -0.02457 0.83126 0.86201 0.0
H683 H 0.95205 0.83581 0.85142 0.0
C684 C 0.72599 0.57235 0.44693 0.0
C685 C 0.71022 0.55702 0.44209 0.0
C686 C 0.74003 0.57056 0.45284 0.0
C687 C 0.75687 0.53911 0.44811 0.0
H688 H 0.79621 0.57301 0.47213 0.0
C689 C 0.82275 0.53943 0.44518 0.0
C690 C 0.83778 0.55663 0.44291 0.0
C691 C 0.80702 0.53761 0.45123 0.0
C692 C 0.78531 0.56338 0.46543 0.0
H693 H 0.69573 0.52781 0.44103 0.0
H694 H 0.71965 0.52452 0.45212 0.0
H695 H 0.76768 0.57321 0.47188 0.0
H696 H 0.84881 0.58535 0.44609 0.0
H697 H 0.82111 0.58233 0.45611 0.0
H698 H 0.77444 0.52989 0.44099 0.0
C699 C 0.72162 0.53799 0.45088 0.0
C700 C 0.76896 0.5635 0.46529 0.0
C701 C 0.70782 0.53982 0.44468 0.0
C702 C 0.83742 0.57192 0.44792 0.0
C703 C 0.8215 0.57015 0.45367 0.0
C704 C 0.77309 0.53901 0.44823 0.0
C705 C 0.73836 0.55337 0.45414 0.0
C706 C 0.75467 0.55161 0.45636 0.0
C707 C 0.80577 0.55301 0.45463 0.0
C708 C 0.78771 0.5514 0.45662 0.0
H709 H 0.7282 0.58578 0.44485 0.0
H710 H 0.7527 0.58272 0.45518 0.0
H711 H 0.74646 0.53004 0.4408 0.0
H712 H 0.82276 0.52746 0.44137 0.0
H713 H 0.79539 0.52416 0.45224 0.0
C714 C 0.47054 0.29807 0.44162 0.0
C715 C 0.4553 0.30016 0.44196 0.0
C716 C 0.4706 0.28392 0.44889 0.0
C717 C 0.43825 0.23753 0.4576 0.0
H718 H 0.48172 0.23765 0.46929 0.0
C719 C 0.44247 0.17321 0.45209 0.0
C720 C 0.45698 0.17657 0.44314 0.0
C721 C 0.44212 0.18759 0.45901 0.0
C722 C 0.46938 0.23735 0.46624 0.0
H723 H 0.4287 0.29002 0.4511 0.0
H724 H 0.42869 0.265 0.4638 0.0
H725 H 0.48123 0.26597 0.46905 0.0
H726 H 0.48327 0.19714 0.43557 0.0
H727 H 0.48282 0.22202 0.44769 0.0
H728 H 0.42679 0.20918 0.45385 0.0
C729 C 0.44061 0.27434 0.45786 0.0
C730 C 0.46909 0.25356 0.46609 0.0
C731 C 0.44065 0.28872 0.45069 0.0
C732 C 0.47188 0.19418 0.44236 0.0
C733 C 0.47165 0.20845 0.4494 0.0
C734 C 0.43852 0.22131 0.45777 0.0
C735 C 0.45532 0.27138 0.45657 0.0
C736 C 0.45387 0.25399 0.46098 0.0
C737 C 0.45641 0.20547 0.45726 0.0
C738 C 0.45442 0.22122 0.46133 0.0
H739 H 0.48206 0.30676 0.43503 0.0
H740 H 0.4821 0.28201 0.4475 0.0
H741 H 0.42631 0.23733 0.45354 0.0
H742 H 0.43078 0.15975 0.45283 0.0
H743 H 0.43026 0.18486 0.46508 0.0
C744 C 0.81941 0.30057 0.44498 0.0
C745 C 0.83685 0.30294 0.44566 0.0
C746 C 0.80519 0.28666 0.45248 0.0
C747 C 0.79173 0.24084 0.46222 0.0
H748 H 0.74755 0.24018 0.47259 0.0
C749 C 0.72392 0.17586 0.45552 0.0
C750 C 0.71298 0.17901 0.44621 0.0
C751 C 0.73822 0.19034 0.46275 0.0
C752 C 0.75982 0.2401 0.46991 0.0
H753 H 0.85347 0.29365 0.45568 0.0
H754 H 0.82845 0.26904 0.46877 0.0
H755 H 0.77615 0.26881 0.47252 0.0
H756 H 0.7071 0.19928 0.43833 0.0
H757 H 0.73169 0.22433 0.45093 0.0
H758 H 0.77529 0.2124 0.45858 0.0
C759 C 0.82581 0.27799 0.4624 0.0
C760 C 0.7762 0.25649 0.46987 0.0
C761 C 0.84015 0.29214 0.455 0.0
C762 C 0.7154 0.19648 0.44538 0.0
C763 C 0.72946 0.21085 0.4527 0.0
C764 C 0.77535 0.22445 0.46226 0.0
C765 C 0.80803 0.27462 0.46073 0.0
C766 C 0.79216 0.25718 0.46522 0.0
C767 C 0.74159 0.20812 0.46093 0.0
C768 C 0.75907 0.22406 0.4653 0.0
H769 H 0.81651 0.30877 0.4379 0.0
H770 H 0.79171 0.28444 0.45081 0.0
H771 H 0.80371 0.24084 0.45851 0.0
H772 H 0.72237 0.16252 0.45633 0.0
H773 H 0.74724 0.18779 0.4691 0.0
C774 C 0.89811 0.40127 0.18576 0.0
C775 C 0.88322 0.38974 0.19425 0.0
C776 C 0.89852 0.41592 0.17874 0.0
C777 C 0.87062 0.43725 0.1703 0.0
H778 H 0.91294 0.48131 0.18302 0.0
C779 C 0.86808 0.49689 0.19376 0.0
C780 C 0.88305 0.51446 0.19305 0.0
C781 C 0.86831 0.48256 0.18683 0.0
C782 C 0.90122 0.46927 0.17896 0.0
H783 H 0.85643 0.38336 0.20093 0.0
H784 H 0.85702 0.40859 0.18873 0.0
H785 H 0.91307 0.45297 0.18339 0.0
H786 H 0.90944 0.53112 0.18362 0.0
H787 H 0.90998 0.5059 0.17157 0.0
H788 H 0.85833 0.45344 0.16688 0.0
C789 C 0.86844 0.40653 0.18742 0.0
C790 C 0.9013 0.45295 0.17917 0.0
C791 C 0.86814 0.39211 0.19453 0.0
C792 C 0.89769 0.5177 0.18429 0.0
C793 C 0.89804 0.50326 0.17749 0.0
C794 C 0.87054 0.45357 0.1701 0.0
C795 C 0.88392 0.41909 0.17995 0.0
C796 C 0.88564 0.43661 0.1756 0.0
C797 C 0.88363 0.48542 0.17916 0.0
C798 C 0.88549 0.46958 0.17518 0.0
H799 H 0.90995 0.39978 0.18538 0.0
H800 H 0.91058 0.42528 0.17297 0.0
H801 H 0.85847 0.42495 0.16719 0.0
H802 H 0.8566 0.49402 0.20041 0.0
H803 H 0.85704 0.46902 0.18848 0.0
C804 C 0.62239 0.49392 0.19173 0.0
C805 C 0.62497 0.51145 0.19096 0.0
C806 C 0.60824 0.47965 0.18439 0.0
C807 C 0.56242 0.46629 0.175 0.0
H808 H 0.56151 0.42211 0.16394 0.0
C809 C 0.49754 0.39838 0.18159 0.0
C810 C 0.50081 0.38724 0.19057 0.0
C811 C 0.5119 0.41279 0.17441 0.0
C812 C 0.56149 0.43438 0.16683 0.0
H813 H 0.61571 0.52815 0.18099 0.0
H814 H 0.59066 0.50302 0.16823 0.0
H815 H 0.59015 0.4507 0.16412 0.0
H816 H 0.52113 0.38115 0.19791 0.0
H817 H 0.54597 0.40594 0.18541 0.0
H818 H 0.53407 0.44986 0.17877 0.0
C819 C 0.59965 0.50036 0.17452 0.0
C820 C 0.57789 0.45075 0.16692 0.0
C821 C 0.61404 0.51475 0.18174 0.0
C822 C 0.51825 0.38961 0.19112 0.0
C823 C 0.53249 0.40378 0.18384 0.0
C824 C 0.54603 0.44991 0.17493 0.0
C825 C 0.59618 0.48254 0.17623 0.0
C826 C 0.57867 0.4667 0.17179 0.0
C827 C 0.52967 0.41608 0.17595 0.0
C828 C 0.54556 0.43362 0.17164 0.0
H829 H 0.63067 0.49101 0.19871 0.0
H830 H 0.60592 0.46612 0.18608 0.0
H831 H 0.56252 0.47828 0.17888 0.0
H832 H 0.48421 0.39687 0.18101 0.0
H833 H 0.50927 0.42194 0.1683 0.0
C834 C 0.51248 0.14693 0.19071 0.0
C835 C 0.49755 0.12983 0.1935 0.0
C836 C 0.52821 0.14851 0.18486 0.0
C837 C 0.55007 0.12236 0.17197 0.0
H838 H 0.58907 0.15713 0.19577 0.0
C839 C 0.61052 0.11538 0.19076 0.0
C840 C 0.62626 0.13108 0.19513 0.0
C841 C 0.59613 0.11661 0.18488 0.0
C842 C 0.57861 0.14765 0.18869 0.0
H843 H 0.48667 0.10099 0.19145 0.0
H844 H 0.51439 0.10362 0.18178 0.0
H845 H 0.56089 0.1569 0.19536 0.0
H846 H 0.64032 0.16032 0.1954 0.0
H847 H 0.61578 0.16259 0.18438 0.0
H848 H 0.56786 0.11258 0.16594 0.0
C849 C 0.51391 0.11587 0.18367 0.0
C850 C 0.56228 0.14752 0.18845 0.0
C851 C 0.49799 0.11432 0.18922 0.0
C852 C 0.62824 0.14803 0.19214 0.0
C853 C 0.61409 0.14928 0.18597 0.0
C854 C 0.56653 0.12249 0.17222 0.0
C855 C 0.52953 0.133 0.18218 0.0
C856 C 0.54762 0.13465 0.18035 0.0
C857 C 0.59743 0.13359 0.18314 0.0
C858 C 0.58089 0.13492 0.18084 0.0
H859 H 0.5124 0.15907 0.19394 0.0
H860 H 0.53977 0.16192 0.18344 0.0
H861 H 0.53912 0.11235 0.16551 0.0
H862 H 0.60865 0.10216 0.19312 0.0
H863 H 0.58353 0.10422 0.18288 0.0
C864 C 0.37549 0.87133 0.77755 0.0
C865 C 0.37782 0.88862 0.77563 0.0
C866 C 0.38916 0.86926 0.78373 0.0
C867 C 0.43618 0.89445 0.79893 0.0
H868 H 0.44249 0.86215 0.7737 0.0
C869 C 0.50504 0.90475 0.78071 0.0
C870 C 0.50568 0.88974 0.77536 0.0
C871 C 0.48905 0.90251 0.78671 0.0
C872 C 0.4409 0.8709 0.78118 0.0
H873 H 0.39546 0.9172 0.77957 0.0
H874 H 0.41976 0.91377 0.78979 0.0
H875 H 0.41432 0.86189 0.77367 0.0
H876 H 0.49118 0.86058 0.77354 0.0
H877 H 0.4637 0.85649 0.78481 0.0
H878 H 0.46345 0.90411 0.80579 0.0
C879 C 0.40724 0.9017 0.78697 0.0
C880 C 0.42456 0.87074 0.78117 0.0
C881 C 0.39332 0.90371 0.7811 0.0
C882 C 0.49094 0.87235 0.77758 0.0
C883 C 0.47515 0.87006 0.78388 0.0
C884 C 0.45267 0.89462 0.79893 0.0
C885 C 0.40572 0.88451 0.78761 0.0
C886 C 0.42207 0.88281 0.78976 0.0
C887 C 0.47357 0.88518 0.7876 0.0
C888 C 0.45537 0.88313 0.78977 0.0
H889 H 0.36359 0.85951 0.77342 0.0
H890 H 0.38725 0.85577 0.78449 0.0
H891 H 0.43468 0.9038 0.8058 0.0
H892 H 0.51621 0.91832 0.77894 0.0
H893 H 0.48838 0.91448 0.78941 0.0
C894 C 0.14108 0.52863 0.77555 0.0
C895 C 0.12599 0.51119 0.77676 0.0
C896 C 0.1417 0.54317 0.78282 0.0
C897 C 0.10985 0.55705 0.7932 0.0
H898 H 0.15396 0.60158 0.80232 0.0
C899 C 0.11269 0.62478 0.78668 0.0
C900 C 0.12642 0.63558 0.77701 0.0
C901 C 0.11311 0.6106 0.79378 0.0
C902 C 0.14145 0.58922 0.79999 0.0
H903 H 0.1004 0.49496 0.78748 0.0
H904 H 0.10137 0.52054 0.80018 0.0
H905 H 0.15384 0.57295 0.8023 0.0
H906 H 0.15222 0.64133 0.76832 0.0
H907 H 0.15307 0.61692 0.7807 0.0
H908 H 0.09779 0.57339 0.78989 0.0
C909 C 0.11272 0.52293 0.79355 0.0
C910 C 0.14138 0.57283 0.79998 0.0
C911 C 0.11221 0.50827 0.78637 0.0
C912 C 0.14139 0.63313 0.77565 0.0
C913 C 0.14193 0.61918 0.78285 0.0
C914 C 0.10992 0.57344 0.79322 0.0
C915 C 0.12714 0.54065 0.79138 0.0
C916 C 0.12586 0.55671 0.79578 0.0
C917 C 0.1274 0.60721 0.79147 0.0
C918 C 0.12599 0.58983 0.79582 0.0
H919 H 0.15195 0.53125 0.76827 0.0
H920 H 0.15295 0.55659 0.78076 0.0
H921 H 0.09767 0.54494 0.78985 0.0
H922 H 0.10096 0.62636 0.7879 0.0
H923 H 0.10179 0.60169 0.80045 0.0
C924 C 0.38124 0.52978 0.7766 0.0
C925 C 0.37888 0.51237 0.77791 0.0
C926 C 0.39521 0.54441 0.78377 0.0
C927 C 0.44105 0.55853 0.7939 0.0
H928 H 0.4415 0.60305 0.80289 0.0
C929 C 0.50586 0.62627 0.78648 0.0
C930 C 0.50273 0.63689 0.77681 0.0
C931 C 0.49137 0.61218 0.79381 0.0
C932 C 0.44164 0.59069 0.80059 0.0
H933 H 0.3883 0.4963 0.7887 0.0
H934 H 0.41301 0.52204 0.8012 0.0
H935 H 0.41297 0.57435 0.80315 0.0
H936 H 0.48249 0.64243 0.76836 0.0
H937 H 0.45743 0.61818 0.78112 0.0
H938 H 0.46945 0.57492 0.79032 0.0
C939 C 0.40401 0.52433 0.79459 0.0
C940 C 0.4253 0.57426 0.80074 0.0
C941 C 0.38981 0.50959 0.78751 0.0
C942 C 0.48526 0.63437 0.77568 0.0
C943 C 0.4709 0.62051 0.78311 0.0
C944 C 0.45739 0.57495 0.79375 0.0
C945 C 0.40731 0.54201 0.79232 0.0
C946 C 0.4247 0.55814 0.79659 0.0
C947 C 0.47362 0.60869 0.79173 0.0
C948 C 0.4577 0.59133 0.79629 0.0
H949 H 0.37295 0.53229 0.76933 0.0
H950 H 0.39739 0.5578 0.78165 0.0
H951 H 0.44111 0.54641 0.79058 0.0
H952 H 0.5192 0.6279 0.78754 0.0
H953 H 0.49392 0.6034 0.80048 0.0
C954 C 0.53113 0.72191 0.52721 0.0
C955 C 0.54617 0.71952 0.52639 0.0
C956 C 0.531 0.73607 0.52002 0.0
C957 C 0.56344 0.78217 0.51087 0.0
H958 H 0.52005 0.78267 0.49991 0.0
C959 C 0.56022 0.84716 0.51656 0.0
C960 C 0.54577 0.8441 0.52547 0.0
C961 C 0.56037 0.83259 0.50978 0.0
C962 C 0.53237 0.7828 0.50277 0.0
H963 H 0.57228 0.72913 0.5165 0.0
H964 H 0.57218 0.7542 0.50396 0.0
H965 H 0.52009 0.75412 0.50004 0.0
H966 H 0.51942 0.82381 0.53316 0.0
H967 H 0.51954 0.79861 0.52133 0.0
H968 H 0.57533 0.81058 0.5146 0.0
C969 C 0.56047 0.74505 0.51019 0.0
C970 C 0.53239 0.76645 0.50284 0.0
C971 C 0.56048 0.73064 0.51727 0.0
C972 C 0.53079 0.82655 0.52641 0.0
C973 C 0.53082 0.8121 0.51953 0.0
C974 C 0.56342 0.79852 0.51081 0.0
C975 C 0.54602 0.74834 0.51196 0.0
C976 C 0.54761 0.76582 0.50765 0.0
C977 C 0.54594 0.8148 0.51164 0.0
C978 C 0.54756 0.79885 0.50752 0.0
H979 H 0.51989 0.71349 0.53414 0.0
H980 H 0.51971 0.73824 0.52176 0.0
H981 H 0.57537 0.78219 0.51471 0.0
H982 H 0.57198 0.86055 0.51568 0.0
H983 H 0.57215 0.83512 0.50368 0.0
C984 C 0.16089 0.7315 0.51825 0.0
C985 C 0.16429 0.72024 0.52698 0.0
C986 C 0.17517 0.7461 0.51115 0.0
C987 C 0.22462 0.7679 0.50309 0.0
H988 H 0.22584 0.81163 0.51593 0.0
C989 C 0.28643 0.82753 0.52708 0.0
C990 C 0.289 0.84507 0.52646 0.0
C991 C 0.27193 0.81322 0.52007 0.0
C992 C 0.22568 0.79969 0.51184 0.0
H993 H 0.18475 0.71417 0.53397 0.0
H994 H 0.20944 0.73926 0.52157 0.0
H995 H 0.19741 0.78316 0.51597 0.0
H996 H 0.27924 0.86171 0.51714 0.0
H997 H 0.25357 0.8365 0.50496 0.0
H998 H 0.25319 0.78431 0.49996 0.0
C999 C 0.19593 0.73706 0.52015 0.0
C1000 C 0.2093 0.78329 0.51185 0.0
C1001 C 0.18178 0.72271 0.52736 0.0
C1002 C 0.27759 0.84831 0.51776 0.0
C1003 C 0.26285 0.83387 0.51087 0.0
C1004 C 0.241 0.7843 0.50308 0.0
C1005 C 0.19297 0.74944 0.51251 0.0
C1006 C 0.20878 0.76706 0.50824 0.0
C1007 C 0.25949 0.81606 0.5124 0.0
C1008 C 0.24187 0.80018 0.50822 0.0
H1009 H 0.14752 0.72993 0.51782 0.0
H1010 H 0.17244 0.75533 0.50525 0.0
H1011 H 0.22459 0.75568 0.49997 0.0
H1012 H 0.29507 0.82467 0.53365 0.0
H1013 H 0.2697 0.7997 0.52162 0.0
C1014 C 0.27797 0.4477 0.51918 0.0
C1015 C 0.28932 0.46238 0.52798 0.0
C1016 C 0.2635 0.44751 0.51204 0.0
C1017 C 0.24232 0.4756 0.50384 0.0
H1018 H 0.19825 0.43323 0.51631 0.0
C1019 C 0.183 0.47845 0.5273 0.0
C1020 C 0.16545 0.46343 0.52675 0.0
C1021 C 0.1972 0.47814 0.52029 0.0
C1022 C 0.21028 0.44496 0.51232 0.0
H1023 H 0.29564 0.48905 0.53507 0.0
H1024 H 0.27076 0.48887 0.52259 0.0
H1025 H 0.22649 0.43298 0.51662 0.0
H1026 H 0.14866 0.43688 0.5175 0.0
H1027 H 0.17367 0.43621 0.50528 0.0
H1028 H 0.22623 0.488 0.5005 0.0
C1029 C 0.27281 0.47745 0.52115 0.0
C1030 C 0.22655 0.44482 0.51249 0.0
C1031 C 0.28704 0.47753 0.52841 0.0
C1032 C 0.16207 0.44866 0.51805 0.0
C1033 C 0.1764 0.44824 0.51116 0.0
C1034 C 0.22605 0.47573 0.50365 0.0
C1035 C 0.26036 0.46212 0.51341 0.0
C1036 C 0.2429 0.46049 0.50902 0.0
C1037 C 0.19424 0.46269 0.51269 0.0
C1038 C 0.21003 0.46077 0.50865 0.0
H1039 H 0.2794 0.43581 0.51871 0.0
H1040 H 0.25422 0.43556 0.50606 0.0
H1041 H 0.25464 0.48776 0.50082 0.0
H1042 H 0.18596 0.49004 0.53389 0.0
H1043 H 0.21074 0.48945 0.52185 0.0
C1044 C -0.01833 0.28396 0.10538 0.0
C1045 C -0.01142 0.27299 0.10995 0.0
C1046 C 0.9737 0.2903 0.11501 0.0
C1047 C 0.9537 0.28235 0.15114 0.0
H1048 H 0.96139 0.33078 0.14633 0.0
C1049 C 0.93647 0.31935 0.19428 0.0
C1050 C 0.92756 0.32858 0.18997 0.0
C1051 C 0.94303 0.31201 0.18427 0.0
C1052 C 0.95896 0.31716 0.14771 0.0
H1053 H -0.00739 0.26012 0.12826 0.0
H1054 H -0.02086 0.27164 0.14522 0.0
H1055 H -0.02486 0.31933 0.12969 0.0
H1056 H 0.91851 0.33731 0.17172 0.0
H1057 H 0.93026 0.32462 0.15412 0.0
H1058 H 0.9379 0.28048 0.16942 0.0
C1059 C -0.02048 0.27502 0.1341 0.0
C1060 C 0.96681 0.31056 0.13816 0.0
C1061 C -0.01264 0.2685 0.12441 0.0
C1062 C 0.92531 0.33027 0.17537 0.0
C1063 C 0.93209 0.32308 0.16532 0.0
C1064 C 0.946 0.28904 0.16076 0.0
C1065 C 0.9726 0.28602 0.12951 0.0
C1066 C 0.96429 0.29306 0.13975 0.0
C1067 C 0.94101 0.31387 0.16969 0.0
C1068 C 0.94857 0.30652 0.15915 0.0
H1069 H -0.01777 0.28754 0.09428 0.0
H1070 H 0.96821 0.29841 0.11101 0.0
H1071 H 0.95117 0.26871 0.15256 0.0
H1072 H 0.9384 0.31776 0.20545 0.0
H1073 H 0.95001 0.30515 0.18795 0.0
C1074 C 0.74794 0.73989 0.12614 0.0
C1075 C 0.75798 0.73957 0.11442 0.0
C1076 C 0.73946 0.72502 0.13523 0.0
C1077 C 0.73857 0.68306 0.14632 0.0
H1078 H 0.68899 0.66761 0.15652 0.0
C1079 C 0.69226 0.61505 0.17478 0.0
C1080 C 0.68136 0.61548 0.18579 0.0
C1081 C 0.70175 0.63001 0.16586 0.0
C1082 C 0.70288 0.67183 0.1539 0.0
H1083 H 0.76765 0.72369 0.10345 0.0
H1084 H 0.75282 0.69777 0.1193 0.0
H1085 H 0.70606 0.69458 0.1421 0.0
H1086 H 0.67179 0.63194 0.19597 0.0
H1087 H 0.6884 0.65792 0.1806 0.0
H1088 H 0.73537 0.66029 0.15818 0.0
C1089 C 0.75154 0.70952 0.12148 0.0
C1090 C 0.71268 0.68733 0.14565 0.0
C1091 C 0.75998 0.72437 0.11236 0.0
C1092 C 0.68 0.63109 0.18757 0.0
C1093 C 0.68946 0.64599 0.17869 0.0
C1094 C 0.72876 0.66756 0.15462 0.0
C1095 C 0.74088 0.70953 0.13285 0.0
C1096 C 0.73066 0.69317 0.14181 0.0
C1097 C 0.70052 0.64569 0.16776 0.0
C1098 C 0.71082 0.6618 0.15855 0.0
H1099 H 0.74619 0.75141 0.12808 0.0
H1100 H 0.7316 0.72556 0.14405 0.0
H1101 H 0.75244 0.68729 0.14363 0.0
H1102 H 0.69359 0.60322 0.17312 0.0
H1103 H 0.70999 0.62925 0.15744 0.0
C1104 C 0.27473 0.03343 0.12367 0.0
C1105 C 0.26614 0.01485 0.12047 0.0
C1106 C 0.29066 0.04168 0.1317 0.0
C1107 C 0.32878 0.03514 0.14162 0.0
H1108 H 0.33922 0.07266 0.16949 0.0
C1109 C 0.38811 0.06061 0.18106 0.0
C1110 C 0.39799 0.07922 0.18412 0.0
C1111 C 0.37253 0.05345 0.17271 0.0
C1112 C 0.33659 0.06236 0.1616 0.0
H1113 H 0.26706 -0.00977 0.12377 0.0
H1114 H 0.29453 0.0045 0.13797 0.0
H1115 H 0.31043 0.05852 0.15681 0.0
H1116 H 0.39948 0.10499 0.18052 0.0
H1117 H 0.37224 0.09244 0.16586 0.0
H1118 H 0.35484 0.03884 0.1465 0.0
C1119 C 0.28926 0.01281 0.13399 0.0
C1120 C 0.32008 0.05424 0.15435 0.0
C1121 C 0.2734 0.00459 0.12595 0.0
C1122 C 0.39217 0.09059 0.17836 0.0
C1123 C 0.3765 0.08339 0.17005 0.0
C1124 C 0.34523 0.04321 0.14888 0.0
C1125 C 0.2983 0.03152 0.13672 0.0
C1126 C 0.31592 0.04042 0.14435 0.0
C1127 C 0.36641 0.06471 0.16726 0.0
C1128 C 0.34929 0.05682 0.15903 0.0
H1129 H 0.26951 0.04173 0.11959 0.0
H1130 H 0.29731 0.05613 0.13353 0.0
H1131 H 0.32621 0.02484 0.13375 0.0
H1132 H 0.39219 0.05147 0.18534 0.0
H1133 H 0.36498 0.03898 0.17087 0.0
C1134 C 0.25424 -0.01162 0.84467 0.0
C1135 C 0.26465 0.00677 0.8484 0.0
C1136 C 0.26186 0.97995 0.83682 0.0
C1137 C 0.30636 -0.015 0.82831 0.0
H1138 H 0.28001 0.94952 0.79891 0.0
C1139 C 0.34083 0.95986 0.78914 0.0
C1140 C 0.33164 0.94146 0.78534 0.0
C1141 C 0.3324 0.96701 0.79749 0.0
C1142 C 0.28746 0.95922 0.80723 0.0
H1143 H 0.29098 0.03089 0.84623 0.0
H1144 H 0.30411 0.01631 0.83234 0.0
H1145 H 0.26554 0.9639 0.8115 0.0
H1146 H 0.3065 0.91602 0.78765 0.0
H1147 H 0.29178 0.92855 0.80231 0.0
H1148 H 0.32833 0.98048 0.82395 0.0
C1149 C 0.2902 0.00827 0.83577 0.0
C1150 C 0.27917 0.96749 0.81443 0.0
C1151 C 0.28261 0.01668 0.84364 0.0
C1152 C 0.31396 0.93026 0.79039 0.0
C1153 C 0.30547 0.93746 0.79869 0.0
C1154 C 0.31464 0.97679 0.8211 0.0
C1155 C 0.28004 -0.01027 0.8325 0.0
C1156 C 0.28859 0.9806 0.82497 0.0
C1157 C 0.31454 0.95596 0.80221 0.0
C1158 C 0.30535 0.96391 0.8104 0.0
H1159 H 0.24036 0.98035 0.8482 0.0
H1160 H 0.25367 0.96562 0.83455 0.0
H1161 H 0.31387 -0.00527 0.83659 0.0
H1162 H 0.35445 0.96887 0.78543 0.0
H1163 H 0.3397 0.98135 0.79989 0.0
C1164 C 0.05463 0.40061 0.78823 0.0
C1165 C 0.07323 0.4106 0.7853 0.0
C1166 C 0.04731 0.38437 0.7957 0.0
C1167 C 0.05874 0.35694 0.81922 0.0
H1168 H 0.01317 0.31756 0.80534 0.0
C1169 C 0.02638 0.28451 0.84218 0.0
C1170 C 0.00785 0.27625 0.84535 0.0
C1171 C 0.03488 0.30042 0.83418 0.0
C1172 C 0.02584 0.32845 0.8094 0.0
H1173 H 0.09884 0.41163 0.78837 0.0
H1174 H 0.08601 0.38313 0.80135 0.0
H1175 H 0.02715 0.3467 0.79335 0.0
H1176 H -0.01639 0.2779 0.84218 0.0
H1177 H -0.0016 0.30555 0.82824 0.0
H1178 H 0.05735 0.3386 0.8353 0.0
C1179 C 0.07711 0.38795 0.79794 0.0
C1180 C 0.03384 0.34518 0.80256 0.0
C1181 C 0.08446 0.40428 0.79047 0.0
C1182 C -0.0021 0.2839 0.83994 0.0
C1183 C 0.00637 0.29973 0.83189 0.0
C1184 C 0.05075 0.34016 0.82605 0.0
C1185 C 0.05838 0.37764 0.8004 0.0
C1186 C 0.05027 0.3597 0.80749 0.0
C1187 C 0.02501 0.30832 0.82909 0.0
C1188 C 0.03411 0.32578 0.8213 0.0
H1189 H 0.0456 0.40516 0.7845 0.0
H1190 H 0.0329 0.37698 0.7977 0.0
H1191 H 0.07132 0.36787 0.82336 0.0
H1192 H 0.03443 0.27896 0.84619 0.0
H1193 H 0.04922 0.30661 0.83205 0.0
C1194 C 0.6123 0.67539 0.78848 0.0
C1195 C 0.60258 0.68418 0.78537 0.0
C1196 C 0.62804 0.68397 0.79663 0.0
C1197 C 0.66459 0.72913 0.80706 0.0
H1198 H 0.67518 0.70232 0.8348 0.0
C1199 C 0.72756 0.76225 0.84396 0.0
C1200 C 0.73597 0.75209 0.84688 0.0
C1201 C 0.71142 0.75463 0.83622 0.0
C1202 C 0.67254 0.70996 0.82696 0.0
H1203 H 0.60153 0.70876 0.78869 0.0
H1204 H 0.62905 0.72375 0.80304 0.0
H1205 H 0.64619 0.68761 0.82258 0.0
H1206 H 0.73454 0.72632 0.8433 0.0
H1207 H 0.70667 0.7132 0.82961 0.0
H1208 H 0.69105 0.75145 0.81138 0.0
C1209 C 0.62455 0.71026 0.79902 0.0
C1210 C 0.65589 0.70153 0.82 0.0
C1211 C 0.60871 0.70161 0.7909 0.0
C1212 C 0.72834 0.73446 0.84136 0.0
C1213 C 0.71227 0.72688 0.8336 0.0
C1214 C 0.6813 0.73757 0.81402 0.0
C1215 C 0.63448 0.70159 0.80186 0.0
C1216 C 0.65177 0.71095 0.80987 0.0
C1217 C 0.70339 0.73671 0.83121 0.0
C1218 C 0.68554 0.72801 0.82395 0.0
H1219 H 0.60797 0.66196 0.78438 0.0
H1220 H 0.63547 0.67699 0.79849 0.0
H1221 H 0.66191 0.7367 0.79918 0.0
H1222 H 0.73308 0.77586 0.84809 0.0
H1223 H 0.7049 0.76255 0.83462 0.0
C1224 C -0.00295 0.72966 0.8446 0.0
C1225 C 0.00625 0.74805 0.84842 0.0
C1226 C 0.00559 0.72242 0.83649 0.0
C1227 C 0.05066 0.72987 0.82776 0.0
H1228 H 0.02491 0.69429 0.79828 0.0
C1229 C 0.08449 0.70013 0.79157 0.0
C1230 C 0.07404 0.68176 0.78781 0.0
C1231 C 0.07679 0.70868 0.79916 0.0
C1232 C 0.03223 0.70404 0.8066 0.0
H1233 H 0.03154 0.7734 0.84637 0.0
H1234 H 0.04646 0.76072 0.83212 0.0
H1235 H 0.01028 0.7088 0.81031 0.0
H1236 H 0.04757 0.65776 0.7897 0.0
H1237 H 0.03429 0.67255 0.80315 0.0
H1238 H 0.07255 0.72495 0.82414 0.0
C1239 C 0.03266 0.75188 0.83554 0.0
C1240 C 0.02386 0.7124 0.81346 0.0
C1241 C 0.02406 0.75917 0.8436 0.0
C1242 C 0.05596 0.67197 0.79232 0.0
C1243 C 0.0483 0.68049 0.79993 0.0
C1244 C 0.05904 0.72146 0.82091 0.0
C1245 C 0.02358 0.73338 0.83204 0.0
C1246 C 0.03291 0.7253 0.82419 0.0
C1247 C 0.05849 0.69904 0.80319 0.0
C1248 C 0.04985 0.70831 0.81034 0.0
H1249 H -0.01668 0.72071 0.84813 0.0
H1250 H -0.00173 0.70808 0.83409 0.0
H1251 H 0.05791 0.73959 0.83611 0.0
H1252 H 0.09846 0.70807 0.78823 0.0
H1253 H 0.08501 0.723 0.80143 0.0
C1254 C 0.29093 0.3936 0.78181 0.0
C1255 C 0.3082 0.40875 0.78391 0.0
C1256 C 0.2847 0.37836 0.79046 0.0
C1257 C 0.30192 0.35513 0.81273 0.0
H1258 H 0.25249 0.3275 0.82614 0.0
C1259 C 0.27937 0.29726 0.85302 0.0
C1260 C 0.26221 0.28182 0.85141 0.0
C1261 C 0.28467 0.31243 0.84449 0.0
C1262 C 0.26627 0.33493 0.82231 0.0
H1263 H 0.33216 0.42005 0.79718 0.0
H1264 H 0.32123 0.39348 0.81233 0.0
H1265 H 0.26208 0.35513 0.81252 0.0
H1266 H 0.23724 0.27007 0.83937 0.0
H1267 H 0.24662 0.29655 0.82428 0.0
H1268 H 0.30613 0.33495 0.82238 0.0
C1269 C 0.31262 0.39331 0.80384 0.0
C1270 C 0.27178 0.3508 0.81456 0.0
C1271 C 0.31882 0.40859 0.79523 0.0
C1272 C 0.25056 0.28176 0.84088 0.0
C1273 C 0.25588 0.29699 0.83231 0.0
C1274 C 0.29641 0.33927 0.82042 0.0
C1275 C 0.29563 0.3779 0.80138 0.0
C1276 C 0.2897 0.36113 0.80975 0.0
C1277 C 0.27296 0.31255 0.83409 0.0
C1278 C 0.27855 0.32902 0.82538 0.0
H1279 H 0.28238 0.39329 0.7732 0.0
H1280 H 0.2716 0.36668 0.78823 0.0
H1281 H 0.31571 0.36257 0.80892 0.0
H1282 H 0.28868 0.29781 0.86105 0.0
H1283 H 0.29781 0.32425 0.8463 0.0
C1284 C 0.71662 0.97027 0.85512 0.0
C1285 C 0.73256 -0.01326 0.85249 0.0
C1286 C 0.7019 0.96394 0.84588 0.0
C1287 C 0.68205 0.9804 0.81933 0.0
H1288 H 0.65248 0.92965 0.80946 0.0
C1289 C 0.62656 0.95573 0.77661 0.0
C1290 C 0.61027 0.93953 0.77902 0.0
C1291 C 0.64126 0.96118 0.78571 0.0
C1292 C 0.66047 0.94384 0.81227 0.0
H1293 H 0.74575 0.00916 0.83778 0.0
H1294 H 0.72011 -0.00198 0.82157 0.0
H1295 H 0.67897 0.9395 0.8246 0.0
H1296 H 0.59661 0.91639 0.793 0.0
H1297 H 0.6223 0.92604 0.80906 0.0
H1298 H 0.66357 -0.01523 0.80709 0.0
C1299 C 0.7189 -0.00986 0.83092 0.0
C1300 C 0.67567 0.94949 0.82091 0.0
C1301 C 0.73365 -0.00354 0.84016 0.0
C1302 C 0.60898 0.92894 0.79084 0.0
C1303 C 0.62374 0.93441 0.79998 0.0
C1304 C 0.66685 0.97476 0.81073 0.0
C1305 C 0.70276 0.97395 0.83379 0.0
C1306 C 0.68668 0.96785 0.82449 0.0
C1307 C 0.64007 0.95059 0.7975 0.0
C1308 C 0.65591 0.95642 0.80703 0.0
H1309 H 0.71532 0.96243 0.86452 0.0
H1310 H 0.68962 0.95149 0.84846 0.0
H1311 H 0.69001 -0.00541 0.82213 0.0
H1312 H 0.62807 0.96419 0.76756 0.0
H1313 H 0.65371 0.97356 0.78334 0.0
C1314 C 0.73241 0.03304 0.10698 0.0
C1315 C 0.74368 0.02646 0.11148 0.0
C1316 C 0.72595 0.04085 0.11665 0.0
C1317 C 0.73394 0.06105 0.15277 0.0
H1318 H 0.68522 0.05249 0.14811 0.0
C1319 C 0.69686 0.0781 0.19592 0.0
C1320 C 0.68737 0.08673 0.19157 0.0
C1321 C 0.70424 0.07155 0.18593 0.0
C1322 C 0.69892 0.05516 0.14944 0.0
H1323 H 0.75695 0.02284 0.12972 0.0
H1324 H 0.74522 0.03602 0.14677 0.0
H1325 H 0.69685 0.03891 0.13146 0.0
H1326 H 0.67821 0.09529 0.17329 0.0
H1327 H 0.69098 0.08356 0.15574 0.0
H1328 H 0.73573 0.07693 0.17102 0.0
C1329 C 0.7417 0.03551 0.13566 0.0
C1330 C 0.70562 0.04741 0.1399 0.0
C1331 C 0.74834 0.02784 0.12592 0.0
C1332 C 0.68545 0.08871 0.17696 0.0
C1333 C 0.69268 0.08194 0.16694 0.0
C1334 C 0.72715 0.06865 0.1624 0.0
C1335 C 0.7304 0.04211 0.13114 0.0
C1336 C 0.72324 0.05026 0.14142 0.0
C1337 C 0.70216 0.0733 0.17134 0.0
C1338 C 0.70957 0.06577 0.16084 0.0
H1339 H 0.7287 0.03235 0.0959 0.0
H1340 H 0.71762 0.04611 0.1127 0.0
H1341 H 0.74766 0.06383 0.15414 0.0
H1342 H 0.69863 0.07638 0.20709 0.0
H1343 H 0.7113 0.06479 0.18964 0.0
C1344 C -0.01597 0.74191 0.12594 0.0
C1345 C 0.97352 0.74111 0.11421 0.0
C1346 C -0.022 0.72718 0.13514 0.0
C1347 C 0.93747 0.68464 0.14641 0.0
H1348 H 0.97261 0.67087 0.15718 0.0
C1349 C 0.91728 0.61744 0.1755 0.0
C1350 C 0.92865 0.61841 0.18665 0.0
C1351 C 0.92247 0.63221 0.16644 0.0
C1352 C 0.96265 0.67462 0.1544 0.0
H1353 H 0.94808 0.72445 0.10327 0.0
H1354 H 0.93763 0.69877 0.11926 0.0
H1355 H -0.01805 0.69751 0.1425 0.0
H1356 H 0.95446 0.63562 0.19692 0.0
H1357 H 0.96337 0.66128 0.18129 0.0
H1358 H 0.91818 0.66172 0.15835 0.0
C1359 C 0.95049 0.71081 0.1214 0.0
C1360 C 0.96803 0.68993 0.146 0.0
C1361 C 0.95654 0.72552 0.11219 0.0
C1362 C 0.94538 0.63436 0.18842 0.0
C1363 C 0.95056 0.64908 0.17939 0.0
C1364 C 0.93209 0.66932 0.15484 0.0
C1365 C 0.9613 0.71133 0.13283 0.0
C1366 C 0.95552 0.69517 0.14194 0.0
C1367 C 0.93915 0.64824 0.16833 0.0
C1368 C 0.94465 0.66417 0.15898 0.0
H1369 H -0.00286 0.75374 0.12784 0.0
H1370 H -0.01349 0.72812 0.14399 0.0
H1371 H 0.92754 0.6884 0.14356 0.0
H1372 H 0.90429 0.60535 0.17385 0.0
H1373 H 0.91346 0.63105 0.15792 0.0
C1374 C 0.28117 0.26454 0.11795 0.0
C1375 C 0.26832 0.26972 0.12102 0.0
C1376 C 0.29755 0.27225 0.12529 0.0
C1377 C 0.32782 0.31255 0.14711 0.0
H1378 H 0.35228 0.28551 0.15396 0.0
C1379 C 0.40096 0.34783 0.16818 0.0
C1380 C 0.40525 0.3384 0.17817 0.0
C1381 C 0.38458 0.33906 0.16077 0.0
C1382 C 0.3456 0.29325 0.15228 0.0
H1383 H 0.26225 0.28643 0.13469 0.0
H1384 H 0.29054 0.29937 0.14792 0.0
H1385 H 0.32237 0.2704 0.14336 0.0
H1386 H 0.39585 0.31225 0.18801 0.0
H1387 H 0.36719 0.29716 0.1755 0.0
H1388 H 0.35067 0.33518 0.15663 0.0
C1389 C 0.28824 0.28979 0.1395 0.0
C1390 C 0.32848 0.28462 0.146 0.0
C1391 C 0.27192 0.28225 0.132 0.0
C1392 C 0.39303 0.3199 0.18032 0.0
C1393 C 0.37657 0.3112 0.17306 0.0
C1394 C 0.34482 0.32112 0.15357 0.0
C1395 C 0.30143 0.28516 0.13605 0.0
C1396 C 0.31938 0.29416 0.14326 0.0
C1397 C 0.37201 0.3207 0.16331 0.0
C1398 C 0.35399 0.31161 0.1562 0.0
H1399 H 0.27889 0.255 0.10948 0.0
H1400 H 0.30741 0.2685 0.12216 0.0
H1401 H 0.32141 0.32046 0.14499 0.0
H1402 H 0.41015 0.36207 0.16622 0.0
H1403 H 0.38175 0.34673 0.15311 0.0
C1404 C 0.60304 0.67865 0.50131 0.0
C1405 C 0.59046 0.66947 0.51217 0.0
C1406 C 0.61076 0.6701 0.49374 0.0
C1407 C 0.6062 0.62489 0.48678 0.0
H1408 H 0.65674 0.65408 0.47658 0.0
C1409 C 0.64244 0.59678 0.45228 0.0
C1410 C 0.66095 0.60334 0.45453 0.0
C1411 C 0.6335 0.60424 0.45958 0.0
C1412 C 0.64269 0.64563 0.47952 0.0
H1413 H 0.57582 0.64396 0.52338 0.0
H1414 H 0.5896 0.62929 0.51057 0.0
H1415 H 0.64163 0.66815 0.48833 0.0
H1416 H 0.68439 0.62234 0.4667 0.0
H1417 H 0.66864 0.63489 0.47989 0.0
H1418 H 0.60749 0.60222 0.47858 0.0
C1419 C 0.59327 0.64294 0.50759 0.0
C1420 C 0.63389 0.6538 0.48603 0.0
C1421 C 0.58538 0.6514 0.51501 0.0
C1422 C 0.67015 0.61707 0.46466 0.0
C1423 C 0.66114 0.62438 0.47212 0.0
C1424 C 0.61506 0.61667 0.48043 0.0
C1425 C 0.60626 0.65224 0.49698 0.0
C1426 C 0.6155 0.64356 0.48973 0.0
C1427 C 0.64276 0.61831 0.46949 0.0
C1428 C 0.63342 0.62694 0.47667 0.0
H1429 H 0.60715 0.69255 0.49879 0.0
H1430 H 0.62038 0.67757 0.48542 0.0
H1431 H 0.592 0.61655 0.48929 0.0
H1432 H 0.63496 0.58629 0.44447 0.0
H1433 H 0.61945 0.59935 0.45707 0.0
C1434 C 0.39149 0.05764 0.44752 0.0
C1435 C 0.4089 0.0728 0.4489 0.0
C1436 C 0.38584 0.04266 0.45634 0.0
C1437 C 0.40331 0.01976 0.47903 0.0
H1438 H 0.35416 -0.00573 0.4933 0.0
C1439 C 0.37837 0.96281 0.52097 0.0
C1440 C 0.36079 0.94795 0.51945 0.0
C1441 C 0.38463 0.97774 0.51198 0.0
C1442 C 0.36786 0.00109 0.48924 0.0
H1443 H 0.43395 0.0842 0.46081 0.0
H1444 H 0.42397 0.05803 0.47637 0.0
H1445 H 0.36431 0.0214 0.47904 0.0
H1446 H 0.33623 0.93687 0.50692 0.0
H1447 H 0.34723 0.96289 0.49114 0.0
H1448 H 0.40684 -0.00057 0.4893 0.0
C1449 C 0.41479 0.05769 0.46831 0.0
C1450 C 0.37369 0.01668 0.4811 0.0
C1451 C 0.42045 0.07273 0.45947 0.0
C1452 C 0.34981 0.94812 0.50842 0.0
C1453 C 0.35607 0.96309 0.49944 0.0
C1454 C 0.39747 0.00416 0.4872 0.0
C1455 C 0.39744 0.04243 0.46678 0.0
C1456 C 0.39146 0.02617 0.47584 0.0
C1457 C 0.37345 0.97819 0.50126 0.0
C1458 C 0.37965 -0.00539 0.49237 0.0
H1459 H 0.38225 0.0572 0.43947 0.0
H1460 H 0.37249 0.03106 0.45474 0.0
H1461 H 0.417 0.02659 0.47497 0.0
H1462 H 0.38719 0.96312 0.52934 0.0
H1463 H 0.39803 -0.0108 0.51374 0.0
C1464 C 0.93538 0.34345 0.46883 0.0
C1465 C 0.93186 0.3523 0.45783 0.0
C1466 C 0.95189 0.35213 0.47608 0.0
C1467 C -0.00681 0.39733 0.48178 0.0
H1468 H 0.01409 0.36803 0.49251 0.0
C1469 C 0.05806 0.42583 0.51566 0.0
C1470 C 0.06971 0.41889 0.5136 0.0
C1471 C 0.0416 0.41839 0.50844 0.0
C1472 C 0.00862 0.37651 0.48941 0.0
H1473 H 0.94277 0.37737 0.44599 0.0
H1474 H 0.97163 0.39223 0.45823 0.0
H1475 H -0.01535 0.35385 0.48118 0.0
H1476 H 0.07361 0.39929 0.50182 0.0
H1477 H 0.04523 0.38678 0.48877 0.0
H1478 H 0.01753 0.42012 0.48939 0.0
C1479 C 0.96157 0.37876 0.46158 0.0
C1480 C -0.0085 0.36828 0.48314 0.0
C1481 C 0.94499 0.37018 0.45449 0.0
C1482 C 0.06487 0.40485 0.50371 0.0
C1483 C 0.0485 0.39756 0.49633 0.0
C1484 C 0.01041 0.4056 0.48787 0.0
C1485 C 0.96537 0.36978 0.47235 0.0
C1486 C -0.0165 0.37856 0.47928 0.0
C1487 C 0.03645 0.40398 0.49882 0.0
C1488 C 0.01835 0.39529 0.49183 0.0
H1489 H 0.92549 0.32971 0.47173 0.0
H1490 H 0.95412 0.34491 0.48453 0.0
H1491 H -0.01255 0.40571 0.47912 0.0
H1492 H 0.06131 0.43656 0.52327 0.0
H1493 H 0.03264 0.42356 0.51082 0.0
C1494 C 0.36138 0.41095 0.52974 0.0
C1495 C 0.35286 0.42037 0.52498 0.0
C1496 C 0.36957 0.40482 0.52014 0.0
C1497 C 0.38662 0.41021 0.48313 0.0
H1498 H 0.38153 0.36316 0.49014 0.0
C1499 C 0.40216 0.37067 0.44103 0.0
C1500 C 0.41175 0.36215 0.44543 0.0
C1501 C 0.39617 0.37869 0.45092 0.0
C1502 C 0.38326 0.37641 0.48814 0.0
H1503 H 0.34645 0.43097 0.5064 0.0
H1504 H 0.36036 0.41981 0.4895 0.0
H1505 H 0.36841 0.37529 0.50674 0.0
H1506 H 0.42268 0.3555 0.46369 0.0
H1507 H 0.41196 0.36939 0.48107 0.0
H1508 H 0.40108 0.41099 0.46428 0.0
C1509 C 0.361 0.41746 0.50072 0.0
C1510 C 0.37576 0.38341 0.49766 0.0
C1511 C 0.35294 0.42378 0.51038 0.0
C1512 C 0.41531 0.36194 0.45997 0.0
C1513 C 0.40913 0.36982 0.46991 0.0
C1514 C 0.39399 0.40312 0.47354 0.0
C1515 C 0.36929 0.40776 0.50549 0.0
C1516 C 0.37734 0.4004 0.49529 0.0
C1517 C 0.39947 0.37825 0.46547 0.0
C1518 C 0.39235 0.38614 0.47594 0.0
H1519 H 0.36177 0.40829 0.54094 0.0
H1520 H 0.37618 0.39781 0.52426 0.0
H1521 H 0.38837 0.42344 0.48107 0.0
H1522 H 0.39921 0.37113 0.4299 0.0
H1523 H 0.38859 0.3849 0.44719 0.0
C1524 C 0.58319 0.94821 0.50759 0.0
C1525 C 0.59439 0.94831 0.51854 0.0
C1526 C 0.58891 0.96336 0.49886 0.0
C1527 C 0.62991 0.00555 0.48744 0.0
H1528 H 0.59593 0.02145 0.47826 0.0
C1529 C 0.65312 0.0749 0.46179 0.0
C1530 C 0.64273 0.07513 0.45033 0.0
C1531 C 0.64676 0.05956 0.47036 0.0
C1532 C 0.60554 0.0171 0.48064 0.0
H1533 H 0.6205 0.96428 0.52872 0.0
H1534 H 0.63033 -0.0094 0.51367 0.0
H1535 H 0.58584 -0.00612 0.49206 0.0
H1536 H 0.61718 0.05967 0.43925 0.0
H1537 H 0.60613 0.03296 0.45418 0.0
H1538 H 0.64962 0.02879 0.4761 0.0
C1539 C 0.61723 0.9788 0.51167 0.0
C1540 C 0.59974 0.00126 0.4885 0.0
C1541 C 0.61154 0.96371 0.52037 0.0
C1542 C 0.62555 0.05994 0.44797 0.0
C1543 C 0.61917 0.04464 0.45657 0.0
C1544 C 0.6357 0.02138 0.47962 0.0
C1545 C 0.60595 0.9789 0.50089 0.0
C1546 C 0.61188 -0.00466 0.49205 0.0
C1547 C 0.62983 0.04414 0.46771 0.0
C1548 C 0.62361 0.02739 0.47617 0.0
H1549 H 0.5699 0.93655 0.50589 0.0
H1550 H 0.57998 0.9629 0.49052 0.0
H1551 H 0.63954 0.00122 0.48977 0.0
H1552 H 0.66639 0.08639 0.46392 0.0
H1553 H 0.65517 0.05971 0.479 0.0
C1554 C 0.93708 0.61528 0.46677 0.0
C1555 C 0.93295 0.60209 0.45623 0.0
C1556 C 0.95338 0.62265 0.47426 0.0
C1557 C -0.00744 0.61605 0.48176 0.0
H1558 H 0.01636 0.66721 0.49071 0.0
C1559 C 0.05699 0.65123 0.51629 0.0
C1560 C 0.0697 0.66949 0.51368 0.0
C1561 C 0.04061 0.64261 0.50892 0.0
C1562 C 0.01007 0.65297 0.48812 0.0
H1563 H 0.94255 0.586 0.44551 0.0
H1564 H 0.97108 0.59916 0.45818 0.0
H1565 H -0.01286 0.65281 0.47902 0.0
H1566 H 0.07554 0.69276 0.50078 0.0
H1567 H 0.04727 0.67753 0.4875 0.0
H1568 H 0.01587 0.6164 0.49027 0.0
C1569 C 0.96163 0.60359 0.46097 0.0
C1570 C -0.00692 0.64459 0.48164 0.0
C1571 C 0.94524 0.59606 0.45363 0.0
C1572 C 0.06597 0.67872 0.50311 0.0
C1573 C 0.04967 0.67001 0.49559 0.0
C1574 C 0.00966 0.62447 0.48808 0.0
C1575 C 0.96606 0.61717 0.47125 0.0
C1576 C -0.01596 0.626 0.47841 0.0
C1577 C 0.0366 0.65194 0.4986 0.0
C1578 C 0.01864 0.64305 0.4914 0.0
H1579 H 0.92783 0.62012 0.4691 0.0
H1580 H 0.95609 0.63276 0.48233 0.0
H1581 H -0.01401 0.60167 0.4796 0.0
H1582 H 0.05937 0.64374 0.52443 0.0
H1583 H 0.03085 0.6288 0.5117 0.0
C1584 C 0.00915 0.23041 0.03406 0.0
C1585 C 0.00498 0.24185 0.04191 0.0
C1586 C 0.00764 0.22957 0.01926 0.0
C1587 C 0.01097 0.25628 -0.01138 0.0
H1588 H -0.01747 0.21062 0.96889 0.0
C1589 C -0.0001 0.25313 0.92791 0.0
C1590 C -0.00185 0.23809 0.92047 0.0
C1591 C 0.00059 0.25362 0.94276 0.0
C1592 C -0.00918 0.22348 0.97417 0.0
H1593 H -0.00402 0.26141 0.04039 0.0
H1594 H -0.00616 0.26029 0.01445 0.0
H1595 H -0.01604 0.21117 -0.00523 0.0
H1596 H -0.00321 0.21223 0.92263 0.0
H1597 H -0.00126 0.21331 0.94839 0.0
H1598 H 0.01851 0.26862 0.96817 0.0
C1599 C -0.00192 0.25185 0.01983 0.0
C1600 C -0.00851 0.22375 -0.011 0.0
C1601 C -0.00079 0.2524 0.03465 0.0
C1602 C -0.00233 0.22378 0.92809 0.0
C1603 C -0.00127 0.22441 0.94291 0.0
C1604 C 0.01061 0.25599 0.97377 0.0
C1605 C 0.00231 0.24045 0.01202 0.0
C1606 C 0.00151 0.24016 -0.00366 0.0
C1607 C -3e-05 0.23923 0.95048 0.0
C1608 C 0.00048 0.23958 0.96632 0.0
H1609 H 0.01361 0.22211 0.03929 0.0
H1610 H 0.01105 0.22073 0.01343 0.0
H1611 H 0.01896 0.26908 -0.00593 0.0
H1612 H 0.00022 0.26431 0.92226 0.0
H1613 H 0.00125 0.26514 0.94815 0.0
C1614 C 0.75573 0.77431 0.92941 0.0
C1615 C 0.77193 0.77809 0.9227 0.0
C1616 C 0.7546 0.77426 0.94424 0.0
C1617 C 0.77642 0.76996 0.97664 0.0
H1618 H 0.75223 0.79255 -0.00483 0.0
C1619 C 0.76328 0.76526 0.03727 0.0
C1620 C 0.76649 0.78124 0.04411 0.0
C1621 C 0.76356 0.76438 0.02243 0.0
C1622 C 0.75911 0.78626 -0.00985 0.0
H1623 H 0.7996 0.78463 0.92629 0.0
H1624 H 0.7977 0.78477 0.95209 0.0
H1625 H 0.75362 0.79219 0.96929 0.0
H1626 H 0.77235 0.80877 0.04075 0.0
H1627 H 0.77307 0.80729 0.01495 0.0
H1628 H 0.78222 0.76436 -0.00249 0.0
C1629 C 0.78582 0.78169 0.94592 0.0
C1630 C 0.75973 0.78588 0.97533 0.0
C1631 C 0.78695 0.78178 0.93112 0.0
C1632 C 0.76995 0.79629 0.03583 0.0
C1633 C 0.77018 0.79539 0.02102 0.0
C1634 C 0.77575 0.77029 -0.00853 0.0
C1635 C 0.76963 0.7779 0.95265 0.0
C1636 C 0.7685 0.77784 0.9684 0.0
C1637 C 0.76696 0.77942 0.01415 0.0
C1638 C 0.76719 0.77856 -0.00161 0.0
H1639 H 0.74389 0.77134 0.92322 0.0
H1640 H 0.74188 0.77111 0.94911 0.0
H1641 H 0.7831 0.76348 0.97162 0.0
H1642 H 0.76052 0.75342 0.04336 0.0
H1643 H 0.76085 0.75182 0.01744 0.0
C1644 C 0.24664 0.01049 0.93018 0.0
C1645 C 0.23591 0.01626 0.92323 0.0
C1646 C 0.24687 0.00979 0.94502 0.0
C1647 C 0.23424 0.02656 0.97729 0.0
H1648 H 0.23962 -0.0107 -0.0038 0.0
C1649 C 0.21797 0.00785 0.03654 0.0
C1650 C 0.23164 0.00753 0.04453 0.0
C1651 C 0.21944 0.00965 0.02179 0.0
C1652 C 0.23825 -0.00015 -0.00898 0.0
H1653 H 0.21667 0.02536 0.92647 0.0
H1654 H 0.21633 0.02331 0.95211 0.0
H1655 H 0.2398 -0.00955 0.97028 0.0
H1656 H 0.25759 0.0089 0.04345 0.0
H1657 H 0.25991 0.01151 0.01748 0.0
H1658 H 0.23189 0.03537 -0.00187 0.0
C1659 C 0.22514 0.01997 0.94622 0.0
C1660 C 0.23843 0.00059 0.97617 0.0
C1661 C 0.22519 0.02099 0.93142 0.0
C1662 C 0.24687 0.00912 0.03751 0.0
C1663 C 0.24816 0.01052 0.0227 0.0
C1664 C 0.2337 0.02558 -0.0079 0.0
C1665 C 0.23613 0.01455 0.95326 0.0
C1666 C 0.23635 0.01392 0.96909 0.0
C1667 C 0.23446 0.01082 0.01474 0.0
C1668 C 0.23566 0.0122 -0.00092 0.0
H1669 H 0.25518 0.00688 0.92417 0.0
H1670 H 0.25574 0.00582 0.95001 0.0
H1671 H 0.23306 0.03731 0.9723 0.0
H1672 H 0.20627 0.007 0.04167 0.0
H1673 H 0.20871 0.00984 0.01585 0.0
C1674 C -0.00289 0.76258 0.92957 0.0
C1675 C -0.00343 0.77665 0.92237 0.0
C1676 C -0.00223 0.76256 0.94442 0.0
C1677 C -0.01001 0.78421 0.97611 0.0
H1678 H 0.01592 0.76443 -0.00415 0.0
C1679 C 0.01031 0.79758 0.03523 0.0
C1680 C 0.0049 0.78218 0.04368 0.0
C1681 C 0.00857 0.79604 0.02047 0.0
C1682 C 0.00853 0.76986 -0.00957 0.0
H1683 H -0.00254 0.80225 0.92492 0.0
H1684 H -0.00064 0.80269 0.95066 0.0
H1685 H 0.01503 0.76394 0.96992 0.0
H1686 H -0.00627 0.7531 0.04322 0.0
H1687 H -0.00879 0.75055 0.01728 0.0
H1688 H -0.01575 0.79083 -0.00328 0.0
C1689 C -0.00163 0.79117 0.94501 0.0
C1690 C 0.00792 0.76952 0.97558 0.0
C1691 C -0.00266 0.79099 0.93021 0.0
C1692 C -0.00208 0.76521 0.03701 0.0
C1693 C -0.00346 0.76374 0.0222 0.0
C1694 C -0.00909 0.78486 -0.00908 0.0
C1695 C -0.00169 0.77683 0.95236 0.0
C1696 C -0.00129 0.77678 0.9682 0.0
C1697 C 0.00176 0.77914 0.01384 0.0
C1698 C 0.00023 0.77775 -0.00181 0.0
H1699 H -0.00352 0.75133 0.92373 0.0
H1700 H -0.00252 0.75116 0.94964 0.0
H1701 H -0.01764 0.7895 0.97088 0.0
H1702 H 0.01583 0.81084 0.03993 0.0
H1703 H 0.01281 0.80813 0.01421 0.0
C1704 C 0.24789 0.25754 0.0353 0.0
C1705 C 0.232 0.24556 0.04258 0.0
C1706 C 0.2485 0.25734 0.02046 0.0
C1707 C 0.21835 0.24032 -0.01132 0.0
H1708 H 0.26265 0.25087 0.96939 0.0
C1709 C 0.2224 0.2249 0.92934 0.0
C1710 C 0.23551 0.23933 0.92128 0.0
C1711 C 0.22196 0.22635 0.94411 0.0
C1712 C 0.25024 0.24803 0.97467 0.0
H1713 H 0.20453 0.22349 0.04001 0.0
H1714 H 0.20573 0.22255 0.01431 0.0
H1715 H 0.26197 0.25154 -0.00471 0.0
H1716 H 0.25843 0.2666 0.92228 0.0
H1717 H 0.25796 0.26893 0.94822 0.0
H1718 H 0.20652 0.23609 0.96795 0.0
C1719 C 0.21755 0.23266 0.01994 0.0
C1720 C 0.24984 0.24849 -0.01049 0.0
C1721 C 0.21686 0.23312 0.03475 0.0
C1722 C 0.24816 0.25527 0.92825 0.0
C1723 C 0.24796 0.25659 0.94305 0.0
C1724 C 0.21869 0.23954 0.97387 0.0
C1725 C 0.23332 0.24489 0.01256 0.0
C1726 C 0.23387 0.24461 -0.00327 0.0
C1727 C 0.23484 0.24213 0.95109 0.0
C1728 C 0.23463 0.24338 0.96675 0.0
H1729 H 0.25976 0.26737 0.04107 0.0
H1730 H 0.2608 0.26717 0.01521 0.0
H1731 H 0.20592 0.23767 -0.00621 0.0
H1732 H 0.21231 0.21257 0.92429 0.0
H1733 H 0.21173 0.21501 0.9501 0.0
C1734 C 0.76269 0.01841 0.92944 0.0
C1735 C 0.77745 0.01977 0.92183 0.0
C1736 C 0.76238 0.01756 0.94428 0.0
C1737 C 0.77887 0.00365 0.97434 0.0
H1738 H 0.77267 0.03865 -0.00375 0.0
C1739 C 0.78645 0.0074 0.03521 0.0
C1740 C 0.77515 0.01158 0.04318 0.0
C1741 C 0.78719 0.00903 0.02042 0.0
C1742 C 0.77412 0.02856 -0.00966 0.0
H1743 H 0.80299 0.02041 0.9237 0.0
H1744 H 0.80227 0.01855 0.94959 0.0
H1745 H 0.77216 0.03945 0.97036 0.0
H1746 H 0.75573 0.02073 0.04193 0.0
H1747 H 0.75638 0.02283 0.01616 0.0
H1748 H 0.78017 -0.00775 -0.00587 0.0
C1749 C 0.79115 0.01851 0.94408 0.0
C1750 C 0.7739 0.02911 0.97551 0.0
C1751 C 0.79164 0.01975 0.92928 0.0
C1752 C 0.7647 0.01756 0.03608 0.0
C1753 C 0.76517 0.01886 0.02127 0.0
C1754 C 0.77874 0.00286 -0.01084 0.0
C1755 C 0.77661 0.01759 0.95171 0.0
C1756 C 0.77638 0.01672 0.9674 0.0
C1757 C 0.77636 0.01452 0.01322 0.0
C1758 C 0.77647 0.01538 -0.00261 0.0
H1759 H 0.75158 0.01839 0.92393 0.0
H1760 H 0.75096 0.01672 0.94996 0.0
H1761 H 0.78064 -0.00615 0.96828 0.0
H1762 H 0.79478 0.0029 0.04033 0.0
H1763 H 0.79632 0.00599 0.01467 0.0
C1764 C 0.66241 0.55661 0.26337 0.0
C1765 C 0.66431 0.57139 0.25548 0.0
C1766 C 0.6638 0.55762 0.27817 0.0
C1767 C 0.65662 0.57873 0.30886 0.0
H1768 H 0.68976 0.56767 0.32835 0.0
C1769 C 0.66754 0.58795 0.36957 0.0
C1770 C 0.6714 0.57605 0.37693 0.0
C1771 C 0.66676 0.58762 0.35473 0.0
C1772 C 0.68018 0.57049 0.32314 0.0
H1773 H 0.66919 0.5988 0.25685 0.0
H1774 H 0.67111 0.60036 0.28284 0.0
H1775 H 0.68823 0.5665 0.30248 0.0
H1776 H 0.67667 0.55391 0.37455 0.0
H1777 H 0.67456 0.55272 0.34883 0.0
H1778 H 0.64795 0.58203 0.32938 0.0
C1779 C 0.6687 0.58809 0.27751 0.0
C1780 C 0.67944 0.56994 0.30831 0.0
C1781 C 0.66769 0.58722 0.26268 0.0
C1782 C 0.674 0.56348 0.3692 0.0
C1783 C 0.67288 0.56289 0.35439 0.0
C1784 C 0.65708 0.57894 0.32371 0.0
C1785 C 0.66677 0.57329 0.28537 0.0
C1786 C 0.66769 0.57409 0.30105 0.0
C1787 C 0.66947 0.5751 0.34691 0.0
C1788 C 0.6689 0.57485 0.33107 0.0
H1789 H 0.66007 0.54435 0.25815 0.0
H1790 H 0.66224 0.54603 0.28403 0.0
H1791 H 0.6473 0.5818 0.30347 0.0
H1792 H 0.66559 0.59788 0.37526 0.0
H1793 H 0.6644 0.59745 0.34941 0.0
C1794 C 0.44903 0.13149 0.37084 0.0
C1795 C 0.43687 0.11642 0.37887 0.0
C1796 C 0.44919 0.13046 0.35604 0.0
C1797 C 0.42075 0.10795 0.32569 0.0
H1798 H 0.46547 0.12224 0.30555 0.0
C1799 C 0.42257 0.09949 0.2648 0.0
C1800 C 0.43799 0.11215 0.25738 0.0
C1801 C 0.42214 0.0998 0.27965 0.0
C1802 C 0.45289 0.1185 0.31094 0.0
H1803 H 0.41532 0.08844 0.37772 0.0
H1804 H 0.41531 0.08682 0.35172 0.0
H1805 H 0.46544 0.12319 0.33142 0.0
H1806 H 0.46462 0.13574 0.25962 0.0
H1807 H 0.46368 0.13684 0.28537 0.0
H1808 H 0.40824 0.10391 0.30533 0.0
C1809 C 0.4248 0.09935 0.35695 0.0
C1810 C 0.4529 0.11892 0.32578 0.0
C1811 C 0.42489 0.10026 0.37179 0.0
C1812 C 0.45272 0.12554 0.26504 0.0
C1813 C 0.45218 0.1261 0.27985 0.0
C1814 C 0.42079 0.10784 0.31083 0.0
C1815 C 0.43696 0.11445 0.34896 0.0
C1816 C 0.43684 0.11364 0.33327 0.0
C1817 C 0.43701 0.11304 0.2874 0.0
C1818 C 0.43687 0.11313 0.30324 0.0
H1819 H 0.45854 0.14405 0.37594 0.0
H1820 H 0.45867 0.1423 0.35008 0.0
H1821 H 0.40823 0.10398 0.33126 0.0
H1822 H 0.41105 0.08895 0.25913 0.0
H1823 H 0.4103 0.08936 0.28502 0.0
C1824 C 0.87983 0.33748 0.37233 0.0
C1825 C 0.89435 0.33833 0.37989 0.0
C1826 C 0.88027 0.33841 0.35751 0.0
C1827 C 0.91177 0.35091 0.32665 0.0
H1828 H 0.86706 0.32404 0.3055 0.0
C1829 C 0.90841 0.34013 0.26574 0.0
C1830 C 0.89793 0.34603 0.25853 0.0
C1831 C 0.90774 0.33875 0.28054 0.0
C1832 C 0.87961 0.33163 0.31131 0.0
H1833 H 0.92068 0.34076 0.37797 0.0
H1834 H 0.92118 0.34153 0.3521 0.0
H1835 H 0.86654 0.32234 0.33137 0.0
H1836 H 0.87814 0.35456 0.26122 0.0
H1837 H 0.87657 0.35157 0.28705 0.0
H1838 H 0.92481 0.3596 0.30641 0.0
C1839 C 0.90965 0.34072 0.35754 0.0
C1840 C 0.87935 0.3308 0.32614 0.0
C1841 C 0.90935 0.34017 0.37238 0.0
C1842 C 0.88641 0.35004 0.26641 0.0
C1843 C 0.88545 0.34827 0.28119 0.0
C1844 C 0.91205 0.35143 0.31182 0.0
C1845 C 0.89511 0.33988 0.34988 0.0
C1846 C 0.89542 0.34053 0.33404 0.0
C1847 C 0.89629 0.34284 0.28837 0.0
C1848 C 0.89597 0.34189 0.30405 0.0
H1849 H 0.8683 0.3365 0.37784 0.0
H1850 H 0.86904 0.33822 0.35208 0.0
H1851 H 0.92438 0.3589 0.3323 0.0
H1852 H 0.91748 0.33702 0.25997 0.0
H1853 H 0.91616 0.33445 0.28587 0.0
C1854 C 0.67566 0.13392 0.37382 0.0
C1855 C 0.67546 0.11972 0.38138 0.0
C1856 C 0.67461 0.13336 0.35901 0.0
C1857 C 0.66332 0.10201 0.32805 0.0
H1858 H 0.68926 0.14699 0.30715 0.0
C1859 C 0.675 0.10598 0.26723 0.0
C1860 C 0.66884 0.11618 0.25995 0.0
C1861 C 0.67612 0.10657 0.28205 0.0
C1862 C 0.68193 0.13436 0.31289 0.0
H1863 H 0.67394 0.09374 0.37949 0.0
H1864 H 0.67295 0.09305 0.3536 0.0
H1865 H 0.69065 0.14747 0.33303 0.0
H1866 H 0.65948 0.13535 0.26252 0.0
H1867 H 0.66202 0.13682 0.28838 0.0
H1868 H 0.65522 0.08895 0.30772 0.0
C1869 C 0.67336 0.10443 0.35904 0.0
C1870 C 0.68257 0.13459 0.32772 0.0
C1871 C 0.67403 0.10484 0.37388 0.0
C1872 C 0.66426 0.12733 0.26777 0.0
C1873 C 0.66575 0.12822 0.28257 0.0
C1874 C 0.66299 0.10176 0.3132 0.0
C1875 C 0.67369 0.11872 0.35138 0.0
C1876 C 0.67317 0.11843 0.33553 0.0
C1877 C 0.67147 0.11767 0.28983 0.0
C1878 C 0.6722 0.11794 0.30552 0.0
H1879 H 0.6763 0.14533 0.37933 0.0
H1880 H 0.67437 0.14437 0.35357 0.0
H1881 H 0.6556 0.08932 0.33362 0.0
H1882 H 0.67855 0.09718 0.26151 0.0
H1883 H 0.68065 0.09838 0.28744 0.0
C1884 C 0.88186 0.56607 0.37011 0.0
C1885 C 0.89678 0.57868 0.37806 0.0
C1886 C 0.88266 0.56594 0.35529 0.0
C1887 C 0.91512 0.58333 0.32496 0.0
H1888 H 0.87158 0.57004 0.3034 0.0
C1889 C 0.91359 0.5912 0.26383 0.0
C1890 C 0.90139 0.57521 0.25667 0.0
C1891 C 0.91318 0.59221 0.27865 0.0
C1892 C 0.88381 0.57374 0.30932 0.0
H1893 H 0.92426 0.60108 0.37678 0.0
H1894 H 0.92548 0.60144 0.35092 0.0
H1895 H 0.87077 0.57096 0.32927 0.0
H1896 H 0.87871 0.54807 0.25937 0.0
H1897 H 0.87775 0.54997 0.2852 0.0
H1898 H 0.92818 0.58661 0.30483 0.0
C1899 C 0.91328 0.59124 0.35606 0.0
C1900 C 0.88336 0.57414 0.32415 0.0
C1901 C 0.91257 0.59112 0.37091 0.0
C1902 C 0.88846 0.56044 0.26457 0.0
C1903 C 0.88781 0.56158 0.27934 0.0
C1904 C 0.91562 0.58324 0.31012 0.0
C1905 C 0.89831 0.57866 0.34803 0.0
C1906 C 0.89896 0.57875 0.3322 0.0
C1907 C 0.90028 0.5774 0.28651 0.0
C1908 C 0.89994 0.57828 0.30219 0.0
H1909 H 0.86964 0.55607 0.37529 0.0
H1910 H 0.87103 0.5557 0.34956 0.0
H1911 H 0.92733 0.58663 0.33073 0.0
H1912 H 0.92371 0.60279 0.25799 0.0
H1913 H 0.92287 0.60459 0.28396 0.0
C1914 C 0.42681 0.34549 0.36961 0.0
C1915 C 0.43835 0.34109 0.37698 0.0
C1916 C 0.42734 0.34652 0.35479 0.0
C1917 C 0.45628 0.35552 0.32424 0.0
H1918 H 0.41228 0.32547 0.30304 0.0
C1919 C 0.45729 0.35004 0.26329 0.0
C1920 C 0.44242 0.34818 0.25561 0.0
C1921 C 0.45667 0.34887 0.2781 0.0
C1922 C 0.42465 0.33421 0.30875 0.0
H1923 H 0.4599 0.33495 0.37461 0.0
H1924 H 0.46115 0.33723 0.34874 0.0
H1925 H 0.41162 0.32491 0.32894 0.0
H1926 H 0.41522 0.34364 0.25733 0.0
H1927 H 0.41434 0.34241 0.28318 0.0
H1928 H 0.46928 0.36541 0.30424 0.0
C1929 C 0.45153 0.33959 0.35447 0.0
C1930 C 0.42425 0.33378 0.32358 0.0
C1931 C 0.45073 0.33818 0.36927 0.0
C1932 C 0.42685 0.34501 0.263 0.0
C1933 C 0.42634 0.3442 0.27783 0.0
C1934 C 0.45664 0.35624 0.30941 0.0
C1935 C 0.4397 0.34356 0.34711 0.0
C1936 C 0.44008 0.34435 0.33143 0.0
C1937 C 0.44127 0.34615 0.28561 0.0
C1938 C 0.44084 0.34551 0.30144 0.0
H1939 H 0.41709 0.34775 0.37528 0.0
H1940 H 0.41816 0.34969 0.34932 0.0
H1941 H 0.46863 0.36391 0.33011 0.0
H1942 H 0.46934 0.35213 0.2579 0.0
H1943 H 0.46826 0.34995 0.28362 0.0
C1944 C 0.34146 0.89772 0.70357 0.0
C1945 C 0.3408 0.91142 0.71136 0.0
C1946 C 0.34002 0.89715 0.68878 0.0
C1947 C 0.34885 0.92531 0.6578 0.0
H1948 H 0.31372 0.88119 0.63884 0.0
C1949 C 0.33743 0.92217 0.59704 0.0
C1950 C 0.33253 0.90585 0.58996 0.0
C1951 C 0.33854 0.92316 0.61187 0.0
C1952 C 0.32385 0.89355 0.6439 0.0
H1953 H 0.33806 0.93522 0.70984 0.0
H1954 H 0.33602 0.93448 0.68384 0.0
H1955 H 0.31537 0.88221 0.66468 0.0
H1956 H 0.32578 0.87803 0.59286 0.0
H1957 H 0.32847 0.87987 0.61853 0.0
H1958 H 0.35788 0.93653 0.63712 0.0
C1959 C 0.33753 0.92415 0.68924 0.0
C1960 C 0.32466 0.89413 0.65872 0.0
C1961 C 0.3386 0.9245 0.70408 0.0
C1962 C 0.3293 0.89071 0.59796 0.0
C1963 C 0.33074 0.89177 0.61276 0.0
C1964 C 0.34828 0.92465 0.64295 0.0
C1965 C 0.33822 0.91045 0.68148 0.0
C1966 C 0.33715 0.91001 0.66579 0.0
C1967 C 0.33509 0.90792 0.61995 0.0
C1968 C 0.33577 0.90874 0.63578 0.0
H1969 H 0.34283 0.88729 0.70886 0.0
H1970 H 0.3406 0.88646 0.68301 0.0
H1971 H 0.35872 0.93766 0.66304 0.0
H1972 H 0.33989 0.93406 0.59114 0.0
H1973 H 0.34168 0.93577 0.61697 0.0
C1974 C 0.08926 0.43531 0.70537 0.0
C1975 C 0.10276 0.45044 0.71262 0.0
C1976 C 0.08932 0.43454 0.69053 0.0
C1977 C 0.10965 0.46411 0.65881 0.0
H1978 H 0.09196 0.41824 0.63928 0.0
C1979 C 0.12182 0.45701 0.59925 0.0
C1980 C 0.10633 0.44567 0.59124 0.0
C1981 C 0.12086 0.45768 0.61404 0.0
C1982 C 0.09682 0.43111 0.64464 0.0
H1983 H 0.12744 0.47613 0.71013 0.0
H1984 H 0.12804 0.47457 0.68439 0.0
H1985 H 0.09187 0.41903 0.6652 0.0
H1986 H 0.0777 0.42603 0.59244 0.0
H1987 H 0.07617 0.42685 0.6184 0.0
H1988 H 0.11526 0.47617 0.63813 0.0
C1989 C 0.11689 0.46362 0.69001 0.0
C1990 C 0.0967 0.4316 0.65948 0.0
C1991 C 0.11661 0.46453 0.70482 0.0
C1992 C 0.08986 0.43496 0.59833 0.0
C1993 C 0.08898 0.43535 0.61316 0.0
C1994 C 0.11008 0.46364 0.64399 0.0
C1995 C 0.10311 0.44873 0.68263 0.0
C1996 C 0.10312 0.44812 0.66679 0.0
C1997 C 0.10448 0.44674 0.62111 0.0
C1998 C 0.10367 0.44715 0.63679 0.0
H1999 H 0.07837 0.42428 0.71117 0.0
H2000 H 0.07832 0.42297 0.68528 0.0
H2001 H 0.1143 0.47705 0.66398 0.0
H2002 H 0.13468 0.46547 0.59417 0.0
H2003 H 0.133 0.46651 0.61998 0.0
C2004 C 0.57831 0.67627 0.70506 0.0
C2005 C 0.56269 0.67336 0.71223 0.0
C2006 C 0.57909 0.67698 0.69022 0.0
C2007 C 0.54928 0.66497 0.65835 0.0
H2008 H 0.59438 0.69648 0.63901 0.0
C2009 C 0.55442 0.68325 0.59882 0.0
C2010 C 0.56692 0.68083 0.59085 0.0
C2011 C 0.55397 0.68181 0.61361 0.0
C2012 C 0.58174 0.68754 0.64431 0.0
H2013 H 0.536 0.66986 0.7095 0.0
H2014 H 0.53752 0.67179 0.6838 0.0
H2015 H 0.5936 0.69565 0.66493 0.0
H2016 H 0.5888 0.67502 0.59206 0.0
H2017 H 0.58832 0.67297 0.61804 0.0
H2018 H 0.53738 0.65747 0.63763 0.0
C2019 C 0.54893 0.67273 0.6895 0.0
C2020 C 0.58127 0.68697 0.65915 0.0
C2021 C 0.54805 0.67169 0.70431 0.0
C2022 C 0.57899 0.67692 0.59795 0.0
C2023 C 0.57879 0.67585 0.61278 0.0
C2024 C 0.54971 0.6658 0.64353 0.0
C2025 C 0.56437 0.67516 0.68222 0.0
C2026 C 0.56501 0.67569 0.66639 0.0
C2027 C 0.56624 0.67824 0.62072 0.0
C2028 C 0.56593 0.67709 0.63639 0.0
H2029 H 0.58978 0.67753 0.71091 0.0
H2030 H 0.59112 0.67861 0.68504 0.0
H2031 H 0.5366 0.65579 0.66347 0.0
H2032 H 0.54479 0.68601 0.59369 0.0
H2033 H 0.54419 0.68375 0.61952 0.0
C2034 C 0.35099 0.46691 0.7059 0.0
C2035 C 0.34056 0.45148 0.71423 0.0
C2036 C 0.34925 0.46607 0.69113 0.0
C2037 C 0.33486 0.46267 0.66108 0.0
H2038 H 0.33329 0.42238 0.64071 0.0
C2039 C 0.31878 0.45017 0.6011 0.0
C2040 C 0.32948 0.44527 0.59302 0.0
C2041 C 0.32008 0.45107 0.61591 0.0
C2042 C 0.33381 0.43376 0.64625 0.0
H2043 H 0.3202 0.423 0.71358 0.0
H2044 H 0.3172 0.42152 0.68773 0.0
H2045 H 0.33556 0.42361 0.66659 0.0
H2046 H 0.34997 0.43746 0.59414 0.0
H2047 H 0.35224 0.43904 0.62 0.0
H2048 H 0.33331 0.47292 0.64072 0.0
C2049 C 0.32676 0.43426 0.69266 0.0
C2050 C 0.33491 0.43436 0.66107 0.0
C2051 C 0.32843 0.43513 0.70746 0.0
C2052 C 0.34153 0.44129 0.60006 0.0
C2053 C 0.34276 0.44209 0.61487 0.0
C2054 C 0.33364 0.462 0.64626 0.0
C2055 C 0.33714 0.44974 0.68434 0.0
C2056 C 0.33553 0.44886 0.66863 0.0
C2057 C 0.33203 0.44694 0.62295 0.0
C2058 C 0.33318 0.44758 0.63869 0.0
H2059 H 0.36066 0.47965 0.71074 0.0
H2060 H 0.35763 0.47815 0.68499 0.0
H2061 H 0.33516 0.47393 0.66663 0.0
H2062 H 0.30919 0.4531 0.59603 0.0
H2063 H 0.31148 0.45464 0.62186 0.0
C2064 C 0.57882 0.92528 0.70236 0.0
C2065 C 0.5637 0.91229 0.70988 0.0
C2066 C 0.57903 0.92502 0.6875 0.0
C2067 C 0.54812 0.90531 0.65632 0.0
H2068 H 0.59287 0.92049 0.63593 0.0
C2069 C 0.55233 0.89102 0.59669 0.0
C2070 C 0.56423 0.906 0.58845 0.0
C2071 C 0.55205 0.89248 0.61146 0.0
C2072 C 0.58031 0.91634 0.64152 0.0
H2073 H 0.53735 0.88828 0.70779 0.0
H2074 H 0.53789 0.88732 0.68205 0.0
H2075 H 0.59303 0.92114 0.66185 0.0
H2076 H 0.58515 0.93426 0.58921 0.0
H2077 H 0.58498 0.93663 0.61514 0.0
H2078 H 0.53538 0.89983 0.63588 0.0
C2079 C 0.54932 0.89824 0.68748 0.0
C2080 C 0.58038 0.91679 0.65637 0.0
C2081 C 0.549 0.89873 0.70231 0.0
C2082 C 0.57579 0.9225 0.59528 0.0
C2083 C 0.57577 0.92385 0.61009 0.0
C2084 C 0.54802 0.90456 0.6415 0.0
C2085 C 0.56423 0.91152 0.67984 0.0
C2086 C 0.56427 0.91125 0.664 0.0
C2087 C 0.56391 0.90883 0.6183 0.0
C2088 C 0.56411 0.91006 0.63398 0.0
H2089 H 0.59032 0.93595 0.70795 0.0
H2090 H 0.59066 0.93563 0.68205 0.0
H2091 H 0.53551 0.90135 0.66174 0.0
H2092 H 0.54318 0.87818 0.59178 0.0
H2093 H 0.54282 0.88069 0.61759 0.0
C2094 C 0.08938 0.67477 0.70627 0.0
C2095 C 0.10283 0.67301 0.71338 0.0
C2096 C 0.08948 0.67584 0.69144 0.0
C2097 C 0.1189 0.68959 0.66068 0.0
H2098 H 0.07685 0.65485 0.63939 0.0
C2099 C 0.12153 0.68433 0.59989 0.0
C2100 C 0.10599 0.68005 0.59199 0.0
C2101 C 0.12084 0.68331 0.6147 0.0
C2102 C 0.08861 0.66488 0.64513 0.0
H2103 H 0.12736 0.67184 0.71063 0.0
H2104 H 0.12776 0.67411 0.68477 0.0
H2105 H 0.07618 0.65417 0.66531 0.0
H2106 H 0.07751 0.6714 0.5934 0.0
H2107 H 0.07641 0.67035 0.61925 0.0
H2108 H 0.13122 0.70077 0.64071 0.0
C2109 C 0.11697 0.67431 0.69066 0.0
C2110 C 0.08822 0.6644 0.65998 0.0
C2111 C 0.11665 0.67284 0.70545 0.0
C2112 C 0.0897 0.67465 0.59921 0.0
C2113 C 0.08906 0.67396 0.61405 0.0
C2114 C 0.11919 0.69031 0.64586 0.0
C2115 C 0.1033 0.67564 0.68353 0.0
C2116 C 0.10342 0.67663 0.66786 0.0
C2117 C 0.10465 0.67834 0.62202 0.0
C2118 C 0.10412 0.67784 0.63785 0.0
H2119 H 0.07857 0.67492 0.71215 0.0
H2120 H 0.07886 0.67697 0.68616 0.0
H2121 H 0.13073 0.69928 0.66657 0.0
H2122 H 0.13423 0.6883 0.59469 0.0
H2123 H 0.13303 0.68632 0.62039 0.0
C2124 C 0.83117 0.06535 0.09197 0.0
C2125 C 0.83294 0.05126 0.08588 0.0
C2126 C 0.84651 0.08223 0.09472 0.0
C2127 C 0.89615 0.10447 0.09916 0.0
H2128 H 0.89735 0.1473 0.08427 0.0
C2129 C 0.96166 0.16659 0.08167 0.0
C2130 C 0.96462 0.18401 0.08456 0.0
C2131 C 0.94512 0.1513 0.08479 0.0
C2132 C 0.89714 0.13554 0.08875 0.0
H2133 H 0.85226 0.04374 0.07831 0.0
H2134 H 0.87875 0.07291 0.0831 0.0
H2135 H 0.86882 0.1185 0.08461 0.0
H2136 H 0.95245 0.19899 0.09315 0.0
H2137 H 0.92325 0.17204 0.09847 0.0
H2138 H 0.92452 0.12127 0.10281 0.0
C2139 C 0.86559 0.07099 0.08582 0.0
C2140 C 0.8808 0.11905 0.08895 0.0
C2141 C 0.85035 0.05427 0.08295 0.0
C2142 C 0.95061 0.18575 0.0908 0.0
C2143 C 0.93389 0.17036 0.0938 0.0
C2144 C 0.91241 0.12089 0.09896 0.0
C2145 C 0.86388 0.08521 0.09163 0.0
C2146 C 0.88029 0.10322 0.0937 0.0
C2147 C 0.93101 0.15297 0.09081 0.0
C2148 C 0.91322 0.13647 0.0933 0.0
H2149 H 0.81795 0.06347 0.09434 0.0
H2150 H 0.84479 0.09294 0.09924 0.0
H2151 H 0.8961 0.09258 0.10317 0.0
H2152 H 0.97213 0.16469 0.07691 0.0
H2153 H 0.94325 0.13812 0.08214 0.0
C2154 C 0.95827 0.81355 0.07208 0.0
C2155 C 0.96235 0.80195 0.07974 0.0
C2156 C 0.94114 0.81163 0.07281 0.0
C2157 C 0.89984 0.79384 0.09412 0.0
H2158 H 0.87965 0.79822 0.0585 0.0
C2159 C 0.82901 0.78818 0.08861 0.0
C2160 C 0.82874 0.80136 0.07985 0.0
C2161 C 0.84448 0.78651 0.08935 0.0
C2162 C 0.88512 0.79705 0.06855 0.0
H2163 H 0.95156 0.77944 0.09449 0.0
H2164 H 0.92141 0.77615 0.09577 0.0
H2165 H 0.90809 0.79826 0.05847 0.0
H2166 H 0.84477 0.82341 0.06532 0.0
H2167 H 0.87147 0.82052 0.06667 0.0
H2168 H 0.87685 0.79294 0.10418 0.0
C2169 C 0.93164 0.78672 0.0892 0.0
C2170 C 0.90141 0.79707 0.06854 0.0
C2171 C 0.94888 0.78859 0.08843 0.0
C2172 C 0.84437 0.81301 0.0721 0.0
C2173 C 0.8597 0.81129 0.0728 0.0
C2174 C 0.88344 0.79382 0.09414 0.0
C2175 C 0.92755 0.79808 0.08121 0.0
C2176 C 0.90921 0.79594 0.08133 0.0
C2177 C 0.85989 0.7979 0.08127 0.0
C2178 C 0.87617 0.79591 0.08136 0.0
H2179 H 0.96827 0.82409 0.06535 0.0
H2180 H 0.93854 0.82084 0.06675 0.0
H2181 H 0.90554 0.79297 0.10415 0.0
H2182 H 0.81723 0.779 0.09475 0.0
H2183 H 0.84424 0.77605 0.09597 0.0
C2184 C 0.20053 0.054 0.07213 0.0
C2185 C 0.21198 0.04988 0.07996 0.0
C2186 C 0.20257 0.07122 0.07272 0.0
C2187 C 0.22054 0.11284 0.09384 0.0
H2188 H 0.21654 0.13277 0.05797 0.0
C2189 C 0.22664 0.18387 0.08772 0.0
C2190 C 0.21342 0.18403 0.07895 0.0
C2191 C 0.22831 0.16839 0.08857 0.0
C2192 C 0.21761 0.12737 0.06809 0.0
H2193 H 0.23432 0.06068 0.09489 0.0
H2194 H 0.23784 0.09097 0.09593 0.0
H2195 H 0.21622 0.10416 0.05822 0.0
H2196 H 0.19134 0.16782 0.06443 0.0
H2197 H 0.19424 0.1411 0.06594 0.0
H2198 H 0.22161 0.13608 0.10368 0.0
C2199 C 0.22729 0.08071 0.08933 0.0
C2200 C 0.21743 0.11098 0.06823 0.0
C2201 C 0.22529 0.06339 0.0887 0.0
C2202 C 0.20177 0.1683 0.07124 0.0
C2203 C 0.20349 0.15297 0.07203 0.0
C2204 C 0.22072 0.12934 0.09369 0.0
C2205 C 0.2161 0.08485 0.08116 0.0
C2206 C 0.21841 0.10328 0.08112 0.0
C2207 C 0.21688 0.15286 0.08056 0.0
C2208 C 0.21878 0.13651 0.08082 0.0
H2209 H 0.19002 0.04398 0.06536 0.0
H2210 H 0.19348 0.07385 0.06653 0.0
H2211 H 0.22129 0.10721 0.10394 0.0
H2212 H 0.23581 0.19573 0.09383 0.0
H2213 H 0.23877 0.16869 0.09522 0.0
C2214 C 0.15881 0.96717 0.89501 0.0
C2215 C 0.17431 0.97187 0.88683 0.0
C2216 C 0.14382 0.94982 0.8943 0.0
C2217 C 0.11999 0.90915 0.87236 0.0
H2218 H 0.09709 0.88751 0.90823 0.0
C2219 C 0.05414 0.8384 0.87775 0.0
C2220 C 0.04118 0.83829 0.88705 0.0
C2221 C 0.07156 0.85359 0.87697 0.0
C2222 C 0.10329 0.89337 0.89812 0.0
H2223 H 0.18593 0.96194 0.87118 0.0
H2224 H 0.15943 0.93141 0.8699 0.0
H2225 H 0.12551 0.91611 0.90815 0.0
H2226 H 0.03641 0.85427 0.90263 0.0
H2227 H 0.06646 0.88043 0.90122 0.0
H2228 H 0.09737 0.88646 0.86236 0.0
C2229 C 0.15908 0.94132 0.87689 0.0
C2230 C 0.11957 0.90974 0.89807 0.0
C2231 C 0.17424 0.95877 0.87766 0.0
C2232 C 0.04599 0.85374 0.89539 0.0
C2233 C 0.06331 0.86876 0.89466 0.0
C2234 C 0.10359 0.89267 0.8724 0.0
C2235 C 0.14382 0.93663 0.88537 0.0
C2236 C 0.12783 0.91809 0.8852 0.0
C2237 C 0.07636 0.86883 0.88557 0.0
C2238 C 0.09483 0.88491 0.8853 0.0
H2239 H 0.15826 0.97685 0.90214 0.0
H2240 H 0.13213 0.94672 0.90077 0.0
H2241 H 0.12606 0.91529 0.86228 0.0
H2242 H 0.05088 0.82675 0.87115 0.0
H2243 H 0.08137 0.85328 0.86986 0.0
C2244 C 0.174 0.23271 0.87635 0.0
C2245 C 0.17397 0.21923 0.88493 0.0
C2246 C 0.15861 0.23451 0.87549 0.0
C2247 C 0.11758 0.22361 0.89584 0.0
H2248 H 0.09794 0.22867 0.86016 0.0
C2249 C 0.04461 0.20746 0.89165 0.0
C2250 C 0.04079 0.21938 0.88419 0.0
C2251 C 0.0617 0.20928 0.89102 0.0
C2252 C 0.10343 0.22753 0.87021 0.0
H2253 H 0.15745 0.19677 0.89899 0.0
H2254 H 0.1309 0.19987 0.89743 0.0
H2255 H 0.12659 0.22861 0.86032 0.0
H2256 H 0.05198 0.24232 0.86986 0.0
H2257 H 0.08206 0.24545 0.86874 0.0
H2258 H 0.09444 0.22221 0.90575 0.0
C2259 C 0.14286 0.20925 0.89154 0.0
C2260 C 0.1198 0.22749 0.8703 0.0
C2261 C 0.15811 0.20741 0.89236 0.0
C2262 C 0.05447 0.23294 0.87577 0.0
C2263 C 0.07166 0.23471 0.87509 0.0
C2264 C 0.10132 0.22364 0.89575 0.0
C2265 C 0.14298 0.22294 0.88327 0.0
C2266 C 0.12678 0.22505 0.8831 0.0
C2267 C 0.0755 0.22305 0.8829 0.0
C2268 C 0.0938 0.22512 0.88292 0.0
H2269 H 0.18597 0.24203 0.87045 0.0
H2270 H 0.15908 0.2452 0.86903 0.0
H2271 H 0.12283 0.22217 0.90591 0.0
H2272 H 0.03444 0.19676 0.89817 0.0
H2273 H 0.06412 0.19985 0.89692 0.0
C2274 C 0.80256 0.85641 0.89574 0.0
C2275 C 0.79128 0.84087 0.88769 0.0
C2276 C 0.80086 0.87176 0.89493 0.0
C2277 C 0.78444 0.89575 0.87275 0.0
H2278 H 0.7884 0.92088 0.90814 0.0
C2279 C 0.78053 0.9621 0.87738 0.0
C2280 C 0.79403 0.97558 0.88602 0.0
C2281 C 0.77823 0.94465 0.87687 0.0
C2282 C 0.78732 0.91405 0.89816 0.0
H2283 H 0.76953 0.82952 0.87221 0.0
H2284 H 0.76659 0.85656 0.87082 0.0
H2285 H 0.78777 0.89211 0.90856 0.0
H2286 H 0.81591 0.98128 0.90064 0.0
H2287 H 0.81188 0.95116 0.89972 0.0
H2288 H 0.78428 0.91801 0.86238 0.0
C2289 C 0.77677 0.85672 0.87774 0.0
C2290 C 0.78698 0.89758 0.89839 0.0
C2291 C 0.77842 0.84123 0.87859 0.0
C2292 C 0.8053 0.97129 0.89392 0.0
C2293 C 0.80293 0.95394 0.89348 0.0
C2294 C 0.78476 0.91231 0.87251 0.0
C2295 C 0.78785 0.87207 0.88605 0.0
C2296 C 0.78604 0.88847 0.88568 0.0
C2297 C 0.78927 0.94036 0.88509 0.0
C2298 C 0.7867 0.92184 0.88521 0.0
H2299 H 0.81271 0.85674 0.9028 0.0
H2300 H 0.80987 0.88348 0.90125 0.0
H2301 H 0.78373 0.88905 0.86278 0.0
H2302 H 0.77163 0.96494 0.87114 0.0
H2303 H 0.76758 0.93443 0.87032 0.0
C2304 C 0.49654 0.39597 0.42427 0.0
C2305 C 0.49762 0.38181 0.41755 0.0
C2306 C 0.51217 0.41279 0.4265 0.0
C2307 C 0.56203 0.43455 0.42817 0.0
H2308 H 0.56234 0.47815 0.41647 0.0
C2309 C 0.62698 0.49848 0.41195 0.0
C2310 C 0.62986 0.51548 0.41629 0.0
C2311 C 0.61049 0.48282 0.41445 0.0
C2312 C 0.5624 0.46615 0.42002 0.0
H2313 H 0.51607 0.37421 0.40815 0.0
H2314 H 0.54302 0.4033 0.41198 0.0
H2315 H 0.53384 0.44931 0.41686 0.0
H2316 H 0.61751 0.52929 0.4267 0.0
H2317 H 0.58847 0.50174 0.43096 0.0
H2318 H 0.5906 0.45119 0.43092 0.0
C2319 C 0.5302 0.40144 0.41565 0.0
C2320 C 0.54608 0.44964 0.42026 0.0
C2321 C 0.51467 0.38477 0.41334 0.0
C2322 C 0.61576 0.51641 0.42323 0.0
C2323 C 0.59912 0.50067 0.42562 0.0
C2324 C 0.57828 0.45098 0.42793 0.0
C2325 C 0.52916 0.41569 0.42219 0.0
C2326 C 0.54583 0.43358 0.42393 0.0
C2327 C 0.59635 0.4837 0.42129 0.0
C2328 C 0.57874 0.46687 0.42345 0.0
H2329 H 0.48363 0.39415 0.42763 0.0
H2330 H 0.51096 0.42351 0.43161 0.0
H2331 H 0.56222 0.42248 0.43136 0.0
H2332 H 0.6375 0.4972 0.40659 0.0
H2333 H 0.6087 0.47 0.41076 0.0
C2334 C 0.6283 0.14948 0.41054 0.0
C2335 C 0.63222 0.13752 0.41782 0.0
C2336 C 0.61109 0.14738 0.4111 0.0
C2337 C 0.56893 0.12809 0.43141 0.0
H2338 H 0.55003 0.13405 0.39567 0.0
C2339 C 0.49814 0.12242 0.42471 0.0
C2340 C 0.49826 0.13607 0.4163 0.0
C2341 C 0.5136 0.12073 0.42568 0.0
C2342 C 0.55513 0.13243 0.40575 0.0
H2343 H 0.62106 0.11418 0.43175 0.0
H2344 H 0.59077 0.11057 0.43274 0.0
H2345 H 0.57859 0.13434 0.396 0.0
H2346 H 0.515 0.15897 0.40267 0.0
H2347 H 0.54164 0.15604 0.40441 0.0
H2348 H 0.54545 0.12651 0.44115 0.0
C2349 C 0.60119 0.12157 0.4266 0.0
C2350 C 0.57149 0.13259 0.40594 0.0
C2351 C 0.61851 0.12362 0.42599 0.0
C2352 C 0.51427 0.14818 0.40916 0.0
C2353 C 0.52958 0.14645 0.41008 0.0
C2354 C 0.55246 0.12794 0.43122 0.0
C2355 C 0.59726 0.13328 0.41895 0.0
C2356 C 0.57883 0.13092 0.4188 0.0
C2357 C 0.52938 0.13259 0.41817 0.0
C2358 C 0.54566 0.1306 0.41842 0.0
H2359 H 0.63849 0.16044 0.40422 0.0
H2360 H 0.6086 0.15686 0.40533 0.0
H2361 H 0.57427 0.12679 0.44148 0.0
H2362 H 0.48606 0.11288 0.43038 0.0
H2363 H 0.51306 0.10991 0.43199 0.0
C2364 C 0.86457 0.38597 0.40778 0.0
C2365 C 0.87657 0.38234 0.41533 0.0
C2366 C 0.86637 0.40309 0.4082 0.0
C2367 C 0.88502 0.44537 0.42863 0.0
H2368 H 0.87882 0.46409 0.39291 0.0
C2369 C 0.89099 0.51624 0.42238 0.0
C2370 C 0.87752 0.51639 0.41392 0.0
C2371 C 0.89252 0.50068 0.42316 0.0
C2372 C 0.88049 0.45902 0.40299 0.0
H2373 H 0.89968 0.39394 0.42953 0.0
H2374 H 0.90279 0.42404 0.43024 0.0
H2375 H 0.87861 0.43554 0.39323 0.0
H2376 H 0.85485 0.50008 0.39992 0.0
H2377 H 0.85748 0.4732 0.40136 0.0
H2378 H 0.88662 0.46888 0.43838 0.0
C2379 C 0.89198 0.41348 0.42402 0.0
C2380 C 0.88037 0.44266 0.40317 0.0
C2381 C 0.89023 0.39626 0.42356 0.0
C2382 C 0.86548 0.50057 0.40647 0.0
C2383 C 0.86705 0.48514 0.40721 0.0
C2384 C 0.88514 0.46183 0.42845 0.0
C2385 C 0.8802 0.41711 0.41617 0.0
C2386 C 0.8822 0.43542 0.41602 0.0
C2387 C 0.88069 0.48504 0.41542 0.0
C2388 C 0.88243 0.4686 0.41565 0.0
H2389 H 0.8538 0.37561 0.40139 0.0
H2390 H 0.85685 0.40535 0.40226 0.0
H2391 H 0.88643 0.4401 0.4387 0.0
H2392 H 0.90047 0.52817 0.42828 0.0
H2393 H 0.90319 0.50101 0.42955 0.0
C2394 C 0.71148 0.19117 0.21987 0.0
C2395 C 0.70861 0.17377 0.21697 0.0
C2396 C 0.72799 0.20651 0.21679 0.0
C2397 C 0.77605 0.22238 0.21289 0.0
H2398 H 0.77708 0.26543 0.1987 0.0
C2399 C 0.84207 0.2925 0.20965 0.0
C2400 C 0.84039 0.30663 0.21577 0.0
C2401 C 0.82669 0.27564 0.20694 0.0
C2402 C 0.77703 0.25352 0.20265 0.0
H2403 H 0.72091 0.15892 0.20838 0.0
H2404 H 0.75005 0.18596 0.20311 0.0
H2405 H 0.74865 0.23674 0.199 0.0
H2406 H 0.82116 0.31423 0.22341 0.0
H2407 H 0.7946 0.2851 0.21868 0.0
H2408 H 0.80438 0.23939 0.217 0.0
C2409 C 0.73936 0.18757 0.20777 0.0
C2410 C 0.76076 0.2371 0.20282 0.0
C2411 C 0.72268 0.17213 0.21073 0.0
C2412 C 0.82301 0.30367 0.21875 0.0
C2413 C 0.80772 0.28698 0.21592 0.0
C2414 C 0.79239 0.23887 0.21272 0.0
C2415 C 0.74217 0.20493 0.21079 0.0
C2416 C 0.75996 0.22148 0.20839 0.0
C2417 C 0.80935 0.27272 0.21009 0.0
C2418 C 0.7929 0.25473 0.20804 0.0
H2419 H 0.70096 0.19299 0.22463 0.0
H2420 H 0.7298 0.21965 0.21947 0.0
H2421 H 0.77584 0.21059 0.21729 0.0
H2422 H 0.85527 0.29433 0.20725 0.0
H2423 H 0.82835 0.26491 0.2024 0.0
C2424 C 0.84023 0.56731 0.21111 0.0
C2425 C 0.8403 0.55351 0.21917 0.0
C2426 C 0.82454 0.56858 0.21016 0.0
C2427 C 0.78248 0.55518 0.22986 0.0
H2428 H 0.76397 0.56272 0.19453 0.0
C2429 C 0.7096 0.53928 0.22535 0.0
C2430 C 0.70603 0.55175 0.21849 0.0
C2431 C 0.72666 0.54102 0.22461 0.0
C2432 C 0.76913 0.56086 0.2045 0.0
H2433 H 0.82366 0.52984 0.23211 0.0
H2434 H 0.79659 0.53203 0.23039 0.0
H2435 H 0.79283 0.56308 0.19466 0.0
H2436 H 0.71763 0.57558 0.20508 0.0
H2437 H 0.74765 0.5786 0.20382 0.0
H2438 H 0.75885 0.55271 0.23971 0.0
C2439 C 0.80868 0.54207 0.22501 0.0
C2440 C 0.78562 0.56106 0.20457 0.0
C2441 C 0.82424 0.54077 0.22592 0.0
C2442 C 0.71992 0.56576 0.21052 0.0
C2443 C 0.73708 0.56747 0.20975 0.0
C2444 C 0.7661 0.55498 0.22979 0.0
C2445 C 0.8087 0.55613 0.21733 0.0
C2446 C 0.79223 0.55778 0.21722 0.0
C2447 C 0.74069 0.55528 0.21701 0.0
C2448 C 0.759 0.55737 0.21707 0.0
H2449 H 0.85235 0.57732 0.20574 0.0
H2450 H 0.82495 0.57957 0.20416 0.0
H2451 H 0.78743 0.55307 0.23985 0.0
H2452 H 0.69926 0.52821 0.23148 0.0
H2453 H 0.72889 0.53117 0.23007 0.0
C2454 C 0.4456 0.29209 0.20955 0.0
C2455 C 0.4608 0.30618 0.2164 0.0
C2456 C 0.44427 0.27522 0.20739 0.0
C2457 C 0.47215 0.25337 0.2058 0.0
H2458 H 0.42846 0.20965 0.217 0.0
C2459 C 0.47256 0.18916 0.22154 0.0
C2460 C 0.45831 0.17218 0.21725 0.0
C2461 C 0.47188 0.20486 0.21903 0.0
C2462 C 0.44064 0.22169 0.21358 0.0
H2463 H 0.48659 0.31357 0.22617 0.0
H2464 H 0.48424 0.28438 0.22241 0.0
H2465 H 0.42902 0.23855 0.21689 0.0
H2466 H 0.43216 0.15846 0.20684 0.0
H2467 H 0.43095 0.18611 0.20252 0.0
H2468 H 0.48396 0.2367 0.20286 0.0
C2469 C 0.47341 0.28635 0.21861 0.0
C2470 C 0.44096 0.23823 0.21352 0.0
C2471 C 0.47468 0.30307 0.22086 0.0
C2472 C 0.44337 0.17133 0.21027 0.0
C2473 C 0.44263 0.18713 0.20785 0.0
C2474 C 0.47183 0.23689 0.20585 0.0
C2475 C 0.4582 0.27221 0.21188 0.0
C2476 C 0.4569 0.25432 0.21003 0.0
C2477 C 0.45692 0.20406 0.2122 0.0
C2478 C 0.45626 0.22095 0.21015 0.0
H2479 H 0.43466 0.29401 0.206 0.0
H2480 H 0.43241 0.26459 0.20213 0.0
H2481 H 0.48452 0.26547 0.20276 0.0
H2482 H 0.4843 0.19039 0.22692 0.0
H2483 H 0.48297 0.21765 0.22274 0.0
C2484 C 0.2842 0.85053 0.757 0.0
C2485 C 0.2972 0.85053 0.74781 0.0
C2486 C 0.26684 0.83527 0.75793 0.0
C2487 C 0.23528 0.79499 0.73723 0.0
H2488 H 0.21257 0.77369 0.77323 0.0
C2489 C 0.1798 0.72124 0.74094 0.0
C2490 C 0.16432 0.71666 0.74912 0.0
C2491 C 0.1948 0.7386 0.74153 0.0
C2492 C 0.21863 0.77966 0.7631 0.0
H2493 H 0.30213 0.83428 0.73262 0.0
H2494 H 0.27218 0.808 0.73428 0.0
H2495 H 0.2412 0.80259 0.77292 0.0
H2496 H 0.15276 0.72679 0.76464 0.0
H2497 H 0.17926 0.75734 0.7657 0.0
H2498 H 0.2131 0.77204 0.72738 0.0
C2499 C 0.27525 0.8198 0.74063 0.0
C2500 C 0.23499 0.79617 0.76293 0.0
C2501 C 0.29251 0.83489 0.73976 0.0
C2502 C 0.16443 0.72987 0.75817 0.0
C2503 C 0.17959 0.74733 0.75882 0.0
C2504 C 0.21904 0.77859 0.7374 0.0
C2505 C 0.26215 0.81985 0.74959 0.0
C2506 C 0.24372 0.80371 0.74998 0.0
C2507 C 0.19482 0.75191 0.75032 0.0
C2508 C 0.21079 0.77046 0.75034 0.0
H2509 H 0.28736 0.86232 0.76338 0.0
H2510 H 0.25699 0.83567 0.76494 0.0
H2511 H 0.24147 0.80068 0.72707 0.0
H2512 H 0.18034 0.71147 0.73391 0.0
H2513 H 0.20647 0.7416 0.73507 0.0
C2514 C 0.29375 0.48136 0.74208 0.0
C2515 C 0.29802 0.47009 0.75 0.0
C2516 C 0.2765 0.47919 0.74266 0.0
C2517 C 0.23518 0.46147 0.76387 0.0
H2518 H 0.21475 0.46441 0.7279 0.0
C2519 C 0.16434 0.45569 0.75772 0.0
C2520 C 0.16425 0.46882 0.74878 0.0
C2521 C 0.17968 0.45382 0.7586 0.0
C2522 C 0.22028 0.46362 0.73804 0.0
H2523 H 0.28747 0.44793 0.76507 0.0
H2524 H 0.25715 0.44422 0.7661 0.0
H2525 H 0.24336 0.46479 0.72821 0.0
H2526 H 0.18046 0.49047 0.73397 0.0
H2527 H 0.2069 0.48721 0.73556 0.0
H2528 H 0.21211 0.46068 0.77368 0.0
C2529 C 0.2673 0.45472 0.75944 0.0
C2530 C 0.23667 0.46383 0.73822 0.0
C2531 C 0.28464 0.45683 0.75881 0.0
C2532 C 0.1799 0.48013 0.74092 0.0
C2533 C 0.19509 0.4782 0.74175 0.0
C2534 C 0.21869 0.46127 0.76369 0.0
C2535 C 0.26301 0.46572 0.75118 0.0
C2536 C 0.24456 0.46327 0.75114 0.0
C2537 C 0.19513 0.46492 0.75046 0.0
C2538 C 0.21135 0.46285 0.75078 0.0
H2539 H 0.30367 0.49181 0.73524 0.0
H2540 H 0.27373 0.48813 0.73639 0.0
H2541 H 0.24096 0.46104 0.77398 0.0
H2542 H 0.15253 0.44678 0.76395 0.0
H2543 H 0.17934 0.44346 0.76541 0.0
C2544 C 0.53441 0.72198 0.74015 0.0
C2545 C 0.54549 0.71755 0.74816 0.0
C2546 C 0.53684 0.73935 0.74065 0.0
C2547 C 0.55475 0.7808 0.76178 0.0
H2548 H 0.55224 0.8012 0.72569 0.0
C2549 C 0.56036 0.85161 0.75542 0.0
C2550 C 0.54721 0.85156 0.74641 0.0
C2551 C 0.56237 0.83634 0.75634 0.0
C2552 C 0.55293 0.79568 0.73586 0.0
H2553 H 0.56761 0.72796 0.7633 0.0
H2554 H 0.57177 0.75851 0.7642 0.0
H2555 H 0.55179 0.77252 0.72612 0.0
H2556 H 0.52571 0.83519 0.73149 0.0
H2557 H 0.52921 0.80887 0.73313 0.0
H2558 H 0.55546 0.80393 0.7715 0.0
C2559 C 0.56122 0.74838 0.75752 0.0
C2560 C 0.55267 0.77926 0.73611 0.0
C2561 C 0.55886 0.73091 0.75696 0.0
C2562 C 0.53605 0.83585 0.7385 0.0
C2563 C 0.53812 0.82073 0.73935 0.0
C2564 C 0.55499 0.79733 0.76153 0.0
C2565 C 0.55039 0.75281 0.74918 0.0
C2566 C 0.55305 0.77136 0.74907 0.0
C2567 C 0.55139 0.82082 0.74816 0.0
C2568 C 0.55355 0.80465 0.74857 0.0
H2569 H 0.5239 0.71208 0.73331 0.0
H2570 H 0.52803 0.74223 0.73431 0.0
H2571 H 0.55504 0.77501 0.77193 0.0
H2572 H 0.56915 0.86346 0.7617 0.0
H2573 H 0.57272 0.83678 0.76322 0.0
C2574 C 0.5045 0.62494 0.5466 0.0
C2575 C 0.50477 0.63899 0.55464 0.0
C2576 C 0.4888 0.60788 0.54588 0.0
C2577 C 0.44689 0.57936 0.56595 0.0
H2578 H 0.42819 0.5526 0.53078 0.0
C2579 C 0.37405 0.52156 0.56186 0.0
C2580 C 0.37056 0.50543 0.55508 0.0
C2581 C 0.39104 0.53705 0.56101 0.0
C2582 C 0.43339 0.55982 0.5407 0.0
H2583 H 0.48845 0.64616 0.56786 0.0
H2584 H 0.46134 0.61672 0.56652 0.0
H2585 H 0.45703 0.58126 0.53073 0.0
H2586 H 0.38223 0.49321 0.54168 0.0
H2587 H 0.41211 0.5205 0.54021 0.0
H2588 H 0.42332 0.55823 0.57593 0.0
C2589 C 0.4733 0.61872 0.56097 0.0
C2590 C 0.44988 0.57621 0.54068 0.0
C2591 C 0.48888 0.63568 0.56166 0.0
C2592 C 0.38445 0.50538 0.54706 0.0
C2593 C 0.40154 0.52101 0.54618 0.0
C2594 C 0.43051 0.56309 0.56598 0.0
C2595 C 0.47312 0.60454 0.55326 0.0
C2596 C 0.45658 0.58635 0.55327 0.0
C2597 C 0.40508 0.53691 0.55337 0.0
C2598 C 0.42334 0.55332 0.55331 0.0
H2599 H 0.51648 0.62702 0.54103 0.0
H2600 H 0.48907 0.59719 0.53987 0.0
H2601 H 0.4519 0.58661 0.5759 0.0
H2602 H 0.3637 0.52222 0.56802 0.0
H2603 H 0.39321 0.54919 0.56642 0.0
C2604 C 0.38558 0.90015 0.54201 0.0
C2605 C 0.37159 0.88506 0.54899 0.0
C2606 C 0.40219 0.90114 0.53938 0.0
C2607 C 0.42327 0.87255 0.53685 0.0
H2608 H 0.46752 0.91571 0.54815 0.0
C2609 C 0.48681 0.8707 0.55226 0.0
C2610 C 0.50388 0.88483 0.5481 0.0
C2611 C 0.47128 0.87167 0.54973 0.0
C2612 C 0.45533 0.90369 0.54469 0.0
H2613 H 0.36405 0.85905 0.55841 0.0
H2614 H 0.39277 0.8608 0.55384 0.0
H2615 H 0.43896 0.91577 0.54836 0.0
H2616 H 0.51793 0.91106 0.53784 0.0
H2617 H 0.4906 0.91279 0.5335 0.0
H2618 H 0.43946 0.86026 0.53359 0.0
C2619 C 0.39095 0.87182 0.5503 0.0
C2620 C 0.43898 0.90372 0.54481 0.0
C2621 C 0.37449 0.8709 0.55303 0.0
C2622 C 0.50499 0.89993 0.54118 0.0
C2623 C 0.48938 0.90097 0.53875 0.0
C2624 C 0.43956 0.87252 0.53673 0.0
C2625 C 0.40502 0.88696 0.54351 0.0
C2626 C 0.4227 0.88796 0.54131 0.0
C2627 C 0.47235 0.88682 0.54302 0.0
C2628 C 0.45568 0.88789 0.54107 0.0
H2629 H 0.38381 0.9113 0.53877 0.0
H2630 H 0.41278 0.91295 0.53408 0.0
H2631 H 0.41101 0.86032 0.5338 0.0
H2632 H 0.48539 0.85884 0.55759 0.0
H2633 H 0.45842 0.86067 0.55337 0.0
C2634 C 0.11176 0.62507 0.5456 0.0
C2635 C 0.12642 0.63929 0.55284 0.0
C2636 C 0.11106 0.60849 0.54346 0.0
C2637 C 0.14015 0.58789 0.54289 0.0
H2638 H 0.09639 0.5432 0.55222 0.0
C2639 C 0.14105 0.52338 0.55724 0.0
C2640 C 0.12715 0.50657 0.55229 0.0
C2641 C 0.14024 0.5391 0.55514 0.0
C2642 C 0.10862 0.55552 0.54933 0.0
H2643 H 0.15192 0.64719 0.56336 0.0
H2644 H 0.15063 0.61848 0.55968 0.0
H2645 H 0.09621 0.57172 0.55236 0.0
H2646 H 0.10148 0.4932 0.54114 0.0
H2647 H 0.10007 0.52082 0.53752 0.0
H2648 H 0.1527 0.57185 0.5402 0.0
C2649 C 0.13975 0.62014 0.55553 0.0
C2650 C 0.10852 0.57186 0.54941 0.0
C2651 C 0.14041 0.63659 0.55774 0.0
C2652 C 0.11243 0.50592 0.54509 0.0
C2653 C 0.11157 0.52171 0.54306 0.0
C2654 C 0.14025 0.57161 0.54281 0.0
C2655 C 0.12508 0.60587 0.5484 0.0
C2656 C 0.12443 0.58827 0.54656 0.0
C2657 C 0.12549 0.53847 0.54807 0.0
C2658 C 0.12463 0.55531 0.5464 0.0
H2659 H 0.10076 0.62668 0.5417 0.0
H2660 H 0.09961 0.59776 0.53788 0.0
H2661 H 0.15252 0.60026 0.54033 0.0
H2662 H 0.1526 0.52446 0.56284 0.0
H2663 H 0.15105 0.55174 0.55935 0.0
loop_
_geom_bond_atom_site_label_1
_geom_bond_atom_site_label_2
_geom_bond_distance
_geom_bond_site_symmetry_2
_ccdc_geom_bond_type
Mg0 O1 2.028 . S
Mg0 O7 1.986 . S
Mg0 O9 2.114 . S
Mg0 O10 2.251 . S
Mg0 O13 2.010 . S
O1 Mg0 2.028 . S
O1 C4 1.250 . S
O2 Mg3 2.028 . S
O2 C4 1.248 . S
Mg3 O2 2.028 . S
Mg3 O8 2.032 . S
Mg3 O10 2.079 . S
C4 O1 1.250 . S
C4 O2 1.248 . S
C5 O6 1.264 . S
C5 O13 1.249 . S
O6 C5 1.264 . S
O7 Mg0 1.986 . S
O7 C11 1.246 . S
O8 Mg3 2.032 . S
O8 C11 1.259 . S
O9 Mg0 2.114 . S
O9 C12 1.252 . S
O10 Mg0 2.251 . S
O10 Mg3 2.079 . S
O10 C12 1.273 . S
C11 O7 1.246 . S
C11 O8 1.259 . S
C12 O9 1.252 . S
C12 O10 1.273 . S
O13 Mg0 2.010 . S
O13 C5 1.249 . S
Mg14 O15 2.028 . S
Mg14 O21 1.986 . S
Mg14 O23 2.114 . S
Mg14 O24 2.251 . S
Mg14 O27 2.010 . S
O15 Mg14 2.028 . S
O15 C18 1.250 . S
O16 Mg17 2.028 . S
O16 C18 1.248 . S
Mg17 O16 2.028 . S
Mg17 O22 2.032 . S
Mg17 O24 2.079 . S
C18 O15 1.250 . S
C18 O16 1.248 . S
C19 O20 1.264 . S
C19 O27 1.249 . S
O20 C19 1.264 . S
O21 Mg14 1.986 . S
O21 C25 1.246 . S
O22 Mg17 2.032 . S
O22 C25 1.259 . S
O23 Mg14 2.114 . S
O23 C26 1.252 . S
O24 Mg14 2.251 . S
O24 Mg17 2.079 . S
O24 C26 1.273 . S
C25 O21 1.246 . S
C25 O22 1.259 . S
C26 O23 1.252 . S
C26 O24 1.273 . S
O27 Mg14 2.010 . S
O27 C19 1.249 . S
Mg28 O29 2.028 . S
Mg28 O35 1.986 . S
Mg28 O37 2.114 . S
Mg28 O38 2.251 . S
Mg28 O41 2.010 . S
O29 Mg28 2.028 . S
O29 C32 1.250 . S
O30 Mg31 2.028 . S
O30 C32 1.248 . S
Mg31 O30 2.028 . S
Mg31 O36 1.993 1_545 S
Mg31 O38 2.079 . S
C32 O29 1.250 . S
C32 O30 1.248 . S
C33 O34 1.264 . S
C33 O41 1.249 . S
O34 C33 1.264 . S
O35 Mg28 1.986 . S
O35 C39 1.246 1_545 S
O36 Mg31 1.993 1_565 S
O36 C39 1.300 . S
O37 Mg28 2.114 . S
O37 C40 1.252 . S
O38 Mg28 2.251 . S
O38 Mg31 2.079 . S
O38 C40 1.273 . S
C39 O35 1.246 1_565 S
C39 O36 1.300 . S
C40 O37 1.252 . S
C40 O38 1.273 . S
O41 Mg28 2.010 . S
O41 C33 1.249 . S
Mg42 O43 2.028 . S
Mg42 O49 1.986 . S
Mg42 O51 2.114 . S
Mg42 O52 2.251 . S
Mg42 O55 2.010 . S
O43 Mg42 2.028 . S
O43 C46 1.250 . S
O44 Mg45 2.028 . S
O44 C46 1.248 . S
Mg45 O44 2.028 . S
Mg45 O50 2.032 . S
Mg45 O52 2.079 . S
C46 O43 1.250 . S
C46 O44 1.248 . S
C47 O48 1.264 . S
C47 O55 1.249 . S
O48 C47 1.264 . S
O49 Mg42 1.986 . S
O49 C53 1.246 . S
O50 Mg45 2.032 . S
O50 C53 1.259 . S
O51 Mg42 2.114 . S
O51 C54 1.252 . S
O52 Mg42 2.251 . S
O52 Mg45 2.079 . S
O52 C54 1.273 . S
C53 O49 1.246 . S
C53 O50 1.259 . S
C54 O51 1.252 . S
C54 O52 1.273 . S
O55 Mg42 2.010 . S
O55 C47 1.249 . S
Mg56 O57 2.028 . S
Mg56 O63 1.986 . S
Mg56 O65 2.114 . S
Mg56 O66 2.251 . S
Mg56 O69 2.010 . S
O57 Mg56 2.028 . S
O57 C60 1.250 . S
O58 Mg59 2.028 . S
O58 C60 1.248 . S
Mg59 O58 2.028 . S
Mg59 O64 1.993 1_455 S
Mg59 O66 2.079 . S
C60 O57 1.250 . S
C60 O58 1.248 . S
C61 O62 1.264 . S
C61 O69 1.249 . S
O62 C61 1.264 . S
O63 Mg56 1.986 . S
O63 C67 1.246 1_455 S
O64 Mg59 1.993 1_655 S
O64 C67 1.300 . S
O65 Mg56 2.114 . S
O65 C68 1.252 . S
O66 Mg56 2.251 . S
O66 Mg59 2.079 . S
O66 C68 1.273 . S
C67 O63 1.246 1_655 S
C67 O64 1.300 . S
C68 O65 1.252 . S
C68 O66 1.273 . S
O69 Mg56 2.010 . S
O69 C61 1.249 . S
Mg70 O71 2.028 . S
Mg70 O77 1.986 . S
Mg70 O79 2.114 . S
Mg70 O80 2.251 . S
Mg70 O83 2.010 . S
O71 Mg70 2.028 . S
O71 C74 1.250 . S
O72 Mg73 2.028 . S
O72 C74 1.248 . S
Mg73 O72 2.028 . S
Mg73 O78 2.032 . S
Mg73 O80 2.079 . S
C74 O71 1.250 . S
C74 O72 1.248 . S
C75 O76 1.264 . S
C75 O83 1.249 . S
O76 C75 1.264 . S
O77 Mg70 1.986 . S
O77 C81 1.246 . S
O78 Mg73 2.032 . S
O78 C81 1.259 . S
O79 Mg70 2.114 . S
O79 C82 1.252 . S
O80 Mg70 2.251 . S
O80 Mg73 2.079 . S
O80 C82 1.273 . S
C81 O77 1.246 . S
C81 O78 1.259 . S
C82 O79 1.252 . S
C82 O80 1.273 . S
O83 Mg70 2.010 . S
O83 C75 1.249 . S
Mg84 O85 2.028 . S
Mg84 O91 1.986 . S
Mg84 O93 2.114 . S
Mg84 O94 2.251 . S
Mg84 O97 2.010 . S
O85 Mg84 2.028 . S
O85 C88 1.250 . S
O86 Mg87 2.028 . S
O86 C88 1.248 . S
Mg87 O86 2.028 . S
Mg87 O92 1.998 1_455 S
Mg87 O94 2.079 . S
C88 O85 1.250 . S
C88 O86 1.248 . S
C89 O90 1.264 . S
C89 O97 1.249 . S
O90 C89 1.264 . S
O91 Mg84 1.986 . S
O91 C95 1.246 1_455 S
O92 Mg87 1.998 1_655 S
O92 C95 1.258 . S
O93 Mg84 2.114 . S
O93 C96 1.252 . S
O94 Mg84 2.251 . S
O94 Mg87 2.079 . S
O94 C96 1.273 . S
C95 O91 1.246 1_655 S
C95 O92 1.258 . S
C96 O93 1.252 . S
C96 O94 1.273 . S
O97 Mg84 2.010 . S
O97 C89 1.249 . S
Mg98 O99 2.028 . S
Mg98 O105 1.986 . S
Mg98 O107 2.114 . S
Mg98 O108 2.251 . S
Mg98 O111 2.010 . S
O99 Mg98 2.028 . S
O99 C102 1.250 . S
O100 Mg101 2.028 . S
O100 C102 1.248 . S
Mg101 O100 2.028 . S
Mg101 O106 2.032 . S
Mg101 O108 2.079 . S
C102 O99 1.250 . S
C102 O100 1.248 . S
C103 O104 1.264 . S
C103 O111 1.249 . S
O104 C103 1.264 . S
O105 Mg98 1.986 . S
O105 C109 1.246 . S
O106 Mg101 2.032 . S
O106 C109 1.259 . S
O107 Mg98 2.114 . S
O107 C110 1.252 . S
O108 Mg98 2.251 . S
O108 Mg101 2.079 . S
O108 C110 1.273 . S
C109 O105 1.246 . S
C109 O106 1.259 . S
C110 O107 1.252 . S
C110 O108 1.273 . S
O111 Mg98 2.010 . S
O111 C103 1.249 . S
Mg112 O113 2.028 . S
Mg112 O119 1.986 . S
Mg112 O121 2.114 . S
Mg112 O122 2.251 . S
Mg112 O125 2.010 . S
O113 Mg112 2.028 . S
O113 C116 1.250 . S
O114 Mg115 2.028 . S
O114 C116 1.248 . S
Mg115 O114 2.028 . S
Mg115 O120 2.032 . S
Mg115 O122 2.079 . S
C116 O113 1.250 . S
C116 O114 1.248 . S
C117 O118 1.264 . S
C117 O125 1.249 . S
O118 C117 1.264 . S
O119 Mg112 1.986 . S
O119 C123 1.246 . S
O120 Mg115 2.032 . S
O120 C123 1.259 . S
O121 Mg112 2.114 . S
O121 C124 1.252 . S
O122 Mg112 2.251 . S
O122 Mg115 2.079 . S
O122 C124 1.273 . S
C123 O119 1.246 . S
C123 O120 1.259 . S
C124 O121 1.252 . S
C124 O122 1.273 . S
O125 Mg112 2.010 . S
O125 C117 1.249 . S
Mg126 O127 2.028 . S
Mg126 O133 1.986 . S
Mg126 O135 2.114 . S
Mg126 O136 2.251 . S
Mg126 O139 2.010 . S
O127 Mg126 2.028 . S
O127 C130 1.250 . S
O128 Mg129 2.028 . S
O128 C130 1.248 . S
Mg129 O128 2.028 . S
Mg129 O134 1.998 1_545 S
Mg129 O136 2.079 . S
C130 O127 1.250 . S
C130 O128 1.248 . S
C131 O132 1.264 . S
C131 O139 1.249 . S
O132 C131 1.264 . S
O133 Mg126 1.986 . S
O133 C137 1.246 1_545 S
O134 Mg129 1.998 1_565 S
O134 C137 1.258 . S
O135 Mg126 2.114 . S
O135 C138 1.252 . S
O136 Mg126 2.251 . S
O136 Mg129 2.079 . S
O136 C138 1.273 . S
C137 O133 1.246 1_565 S
C137 O134 1.258 . S
C138 O135 1.252 . S
C138 O136 1.273 . S
O139 Mg126 2.010 . S
O139 C131 1.249 . S
Mg140 O141 2.028 . S
Mg140 O147 1.986 . S
Mg140 O149 2.114 . S
Mg140 O150 2.251 . S
Mg140 O153 2.010 . S
O141 Mg140 2.028 . S
O141 C144 1.250 . S
O142 Mg143 2.028 . S
O142 C144 1.248 . S
Mg143 O142 2.028 . S
Mg143 O148 2.032 . S
Mg143 O150 2.079 . S
C144 O141 1.250 . S
C144 O142 1.248 . S
C145 O146 1.264 . S
C145 O153 1.249 . S
O146 C145 1.264 . S
O147 Mg140 1.986 . S
O147 C151 1.246 . S
O148 Mg143 2.032 . S
O148 C151 1.259 . S
O149 Mg140 2.114 . S
O149 C152 1.252 . S
O150 Mg140 2.251 . S
O150 Mg143 2.079 . S
O150 C152 1.273 . S
C151 O147 1.246 . S
C151 O148 1.259 . S
C152 O149 1.252 . S
C152 O150 1.273 . S
O153 Mg140 2.010 . S
O153 C145 1.249 . S
Mg154 O155 2.028 . S
Mg154 O161 1.986 . S
Mg154 O163 2.114 . S
Mg154 O164 2.251 . S
Mg154 O167 2.010 . S
O155 Mg154 2.028 . S
O155 C158 1.250 . S
O156 Mg157 2.028 . S
O156 C158 1.248 . S
Mg157 O156 2.028 . S
Mg157 O162 2.032 . S
Mg157 O164 2.079 . S
C158 O155 1.250 . S
C158 O156 1.248 . S
C159 O160 1.264 . S
C159 O167 1.249 . S
O160 C159 1.264 . S
O161 Mg154 1.986 . S
O161 C165 1.246 . S
O162 Mg157 2.032 . S
O162 C165 1.259 . S
O163 Mg154 2.114 . S
O163 C166 1.252 . S
O164 Mg154 2.251 . S
O164 Mg157 2.079 . S
O164 C166 1.273 . S
C165 O161 1.246 . S
C165 O162 1.259 . S
C166 O163 1.252 . S
C166 O164 1.273 . S
O167 Mg154 2.010 . S
O167 C159 1.249 . S
Mg168 O169 2.028 . S
Mg168 O175 1.986 . S
Mg168 O177 2.114 . S
Mg168 O178 2.251 . S
Mg168 O181 2.010 . S
O169 Mg168 2.028 . S
O169 C172 1.250 . S
O170 Mg171 2.028 . S
O170 C172 1.248 . S
Mg171 O170 2.028 . S
Mg171 O176 2.032 . S
Mg171 O178 2.079 . S
C172 O169 1.250 . S
C172 O170 1.248 . S
C173 O174 1.264 . S
C173 O181 1.249 . S
O174 C173 1.264 . S
O175 Mg168 1.986 . S
O175 C179 1.246 . S
O176 Mg171 2.032 . S
O176 C179 1.259 . S
O177 Mg168 2.114 . S
O177 C180 1.252 . S
O178 Mg168 2.251 . S
O178 Mg171 2.079 . S
O178 C180 1.273 . S
C179 O175 1.246 . S
C179 O176 1.259 . S
C180 O177 1.252 . S
C180 O178 1.273 . S
O181 Mg168 2.010 . S
O181 C173 1.249 . S
Mg182 O183 2.028 . S
Mg182 O189 1.986 . S
Mg182 O191 2.114 . S
Mg182 O192 2.251 . S
Mg182 O195 2.010 . S
O183 Mg182 2.028 . S
O183 C186 1.250 . S
O184 Mg185 2.028 . S
O184 C186 1.248 . S
Mg185 O184 2.028 . S
Mg185 O190 2.032 . S
Mg185 O192 2.079 . S
C186 O183 1.250 . S
C186 O184 1.248 . S
C187 O188 1.264 . S
C187 O195 1.249 . S
O188 C187 1.264 . S
O189 Mg182 1.986 . S
O189 C193 1.246 . S
O190 Mg185 2.032 . S
O190 C193 1.259 . S
O191 Mg182 2.114 . S
O191 C194 1.252 . S
O192 Mg182 2.251 . S
O192 Mg185 2.079 . S
O192 C194 1.273 . S
C193 O189 1.246 . S
C193 O190 1.259 . S
C194 O191 1.252 . S
C194 O192 1.273 . S
O195 Mg182 2.010 . S
O195 C187 1.249 . S
Mg196 O197 2.028 . S
Mg196 O203 1.986 . S
Mg196 O205 2.114 . S
Mg196 O206 2.251 . S
Mg196 O209 2.010 . S
O197 Mg196 2.028 . S
O197 C200 1.250 . S
O198 Mg199 2.028 . S
O198 C200 1.248 . S
Mg199 O198 2.028 . S
Mg199 O204 2.032 . S
Mg199 O206 2.079 . S
C200 O197 1.250 . S
C200 O198 1.248 . S
C201 O202 1.264 . S
C201 O209 1.249 . S
O202 C201 1.264 . S
O203 Mg196 1.986 . S
O203 C207 1.246 . S
O204 Mg199 2.032 . S
O204 C207 1.259 . S
O205 Mg196 2.114 . S
O205 C208 1.252 . S
O206 Mg196 2.251 . S
O206 Mg199 2.079 . S
O206 C208 1.273 . S
C207 O203 1.246 . S
C207 O204 1.259 . S
C208 O205 1.252 . S
C208 O206 1.273 . S
O209 Mg196 2.010 . S
O209 C201 1.249 . S
Mg210 O211 2.028 . S
Mg210 O217 1.986 . S
Mg210 O219 2.114 . S
Mg210 O220 2.251 . S
Mg210 O223 2.010 . S
O211 Mg210 2.028 . S
O211 C214 1.250 . S
O212 Mg213 2.028 . S
O212 C214 1.248 . S
Mg213 O212 2.028 . S
Mg213 O218 2.032 . S
Mg213 O220 2.079 . S
C214 O211 1.250 . S
C214 O212 1.248 . S
C215 O216 1.264 . S
C215 O223 1.249 . S
O216 C215 1.264 . S
O217 Mg210 1.986 . S
O217 C221 1.246 . S
O218 Mg213 2.032 . S
O218 C221 1.259 . S
O219 Mg210 2.114 . S
O219 C222 1.252 . S
O220 Mg210 2.251 . S
O220 Mg213 2.079 . S
O220 C222 1.273 . S
C221 O217 1.246 . S
C221 O218 1.259 . S
C222 O219 1.252 . S
C222 O220 1.273 . S
O223 Mg210 2.010 . S
O223 C215 1.249 . S
Mg224 O225 2.028 . S
Mg224 O231 1.986 . S
Mg224 O233 2.114 . S
Mg224 O234 2.251 . S
Mg224 O237 2.010 . S
O225 Mg224 2.028 . S
O225 C228 1.250 . S
O226 Mg227 2.028 . S
O226 C228 1.248 . S
Mg227 O226 2.028 . S
Mg227 O232 2.032 . S
Mg227 O234 2.079 . S
C228 O225 1.250 . S
C228 O226 1.248 . S
C229 O230 1.264 . S
C229 O237 1.249 . S
O230 C229 1.264 . S
O231 Mg224 1.986 . S
O231 C235 1.246 . S
O232 Mg227 2.032 . S
O232 C235 1.259 . S
O233 Mg224 2.114 . S
O233 C236 1.252 . S
O234 Mg224 2.251 . S
O234 Mg227 2.079 . S
O234 C236 1.273 . S
C235 O231 1.246 . S
C235 O232 1.259 . S
C236 O233 1.252 . S
C236 O234 1.273 . S
O237 Mg224 2.010 . S
O237 C229 1.249 . S
Mg238 O239 2.028 . S
Mg238 O245 1.986 . S
Mg238 O247 2.114 . S
Mg238 O248 2.251 . S
Mg238 O251 2.010 . S
O239 Mg238 2.028 . S
O239 C242 1.250 . S
O240 Mg241 2.028 . S
O240 C242 1.248 . S
Mg241 O240 2.028 . S
Mg241 O246 2.032 . S
Mg241 O248 2.079 . S
C242 O239 1.250 . S
C242 O240 1.248 . S
C243 O244 1.264 . S
C243 O251 1.249 . S
O244 C243 1.264 . S
O245 Mg238 1.986 . S
O245 C249 1.246 . S
O246 Mg241 2.032 . S
O246 C249 1.259 . S
O247 Mg238 2.114 . S
O247 C250 1.252 . S
O248 Mg238 2.251 . S
O248 Mg241 2.079 . S
O248 C250 1.273 . S
C249 O245 1.246 . S
C249 O246 1.259 . S
C250 O247 1.252 . S
C250 O248 1.273 . S
O251 Mg238 2.010 . S
O251 C243 1.249 . S
Mg252 O253 2.028 . S
Mg252 O259 1.986 . S
Mg252 O261 2.114 . S
Mg252 O262 2.251 . S
Mg252 O265 2.010 . S
O253 Mg252 2.028 . S
O253 C256 1.250 . S
O254 Mg255 2.028 . S
O254 C256 1.248 . S
Mg255 O254 2.028 . S
Mg255 O260 2.032 . S
Mg255 O262 2.079 . S
C256 O253 1.250 . S
C256 O254 1.248 . S
C257 O258 1.264 . S
C257 O265 1.249 . S
O258 C257 1.264 . S
O259 Mg252 1.986 . S
O259 C263 1.246 . S
O260 Mg255 2.032 . S
O260 C263 1.259 . S
O261 Mg252 2.114 . S
O261 C264 1.252 . S
O262 Mg252 2.251 . S
O262 Mg255 2.079 . S
O262 C264 1.273 . S
C263 O259 1.246 . S
C263 O260 1.259 . S
C264 O261 1.252 . S
C264 O262 1.273 . S
O265 Mg252 2.010 . S
O265 C257 1.249 . S
Mg266 O267 2.028 . S
Mg266 O273 1.986 . S
Mg266 O275 2.114 . S
Mg266 O276 2.251 . S
Mg266 O279 2.010 . S
O267 Mg266 2.028 . S
O267 C270 1.250 . S
O268 Mg269 2.028 . S
O268 C270 1.248 . S
Mg269 O268 2.028 . S
Mg269 O274 2.032 . S
Mg269 O276 2.079 . S
C270 O267 1.250 . S
C270 O268 1.248 . S
C271 O272 1.264 . S
C271 O279 1.249 . S
O272 C271 1.264 . S
O273 Mg266 1.986 . S
O273 C277 1.246 . S
O274 Mg269 2.032 . S
O274 C277 1.259 . S
O275 Mg266 2.114 . S
O275 C278 1.252 . S
O276 Mg266 2.251 . S
O276 Mg269 2.079 . S
O276 C278 1.273 . S
C277 O273 1.246 . S
C277 O274 1.259 . S
C278 O275 1.252 . S
C278 O276 1.273 . S
O279 Mg266 2.010 . S
O279 C271 1.249 . S
Mg280 O281 2.028 . S
Mg280 O287 1.986 . S
Mg280 O289 2.114 . S
Mg280 O290 2.251 . S
Mg280 O293 2.010 . S
O281 Mg280 2.028 . S
O281 C284 1.250 . S
O282 Mg283 2.028 . S
O282 C284 1.248 . S
Mg283 O282 2.028 . S
Mg283 O288 2.032 . S
Mg283 O290 2.079 . S
C284 O281 1.250 . S
C284 O282 1.248 . S
C285 O286 1.264 . S
C285 O293 1.249 . S
O286 C285 1.264 . S
O287 Mg280 1.986 . S
O287 C291 1.246 . S
O288 Mg283 2.032 . S
O288 C291 1.259 . S
O289 Mg280 2.114 . S
O289 C292 1.252 . S
O290 Mg280 2.251 . S
O290 Mg283 2.079 . S
O290 C292 1.273 . S
C291 O287 1.246 . S
C291 O288 1.259 . S
C292 O289 1.252 . S
C292 O290 1.273 . S
O293 Mg280 2.010 . S
O293 C285 1.249 . S
Mg294 O295 2.028 . S
Mg294 O301 1.986 . S
Mg294 O303 2.114 . S
Mg294 O304 2.251 . S
Mg294 O307 2.010 . S
O295 Mg294 2.028 . S
O295 C298 1.250 . S
O296 Mg297 2.028 . S
O296 C298 1.248 . S
Mg297 O296 2.028 . S
Mg297 O302 2.032 . S
Mg297 O304 2.079 . S
C298 O295 1.250 . S
C298 O296 1.248 . S
C299 O300 1.264 . S
C299 O307 1.249 . S
O300 C299 1.264 . S
O301 Mg294 1.986 . S
O301 C305 1.246 . S
O302 Mg297 2.032 . S
O302 C305 1.259 . S
O303 Mg294 2.114 . S
O303 C306 1.252 . S
O304 Mg294 2.251 . S
O304 Mg297 2.079 . S
O304 C306 1.273 . S
C305 O301 1.246 . S
C305 O302 1.259 . S
C306 O303 1.252 . S
C306 O304 1.273 . S
O307 Mg294 2.010 . S
O307 C299 1.249 . S
Mg308 O309 2.028 . S
Mg308 O315 1.986 . S
Mg308 O317 2.114 . S
Mg308 O318 2.251 . S
Mg308 O321 2.010 . S
O309 Mg308 2.028 . S
O309 C312 1.250 . S
O310 Mg311 2.028 . S
O310 C312 1.248 . S
Mg311 O310 2.028 . S
Mg311 O316 2.032 . S
Mg311 O318 2.079 . S
C312 O309 1.250 . S
C312 O310 1.248 . S
C313 O314 1.264 . S
C313 O321 1.249 . S
O314 C313 1.264 . S
O315 Mg308 1.986 . S
O315 C319 1.246 . S
O316 Mg311 2.032 . S
O316 C319 1.259 . S
O317 Mg308 2.114 . S
O317 C320 1.252 . S
O318 Mg308 2.251 . S
O318 Mg311 2.079 . S
O318 C320 1.273 . S
C319 O315 1.246 . S
C319 O316 1.259 . S
C320 O317 1.252 . S
C320 O318 1.273 . S
O321 Mg308 2.010 . S
O321 C313 1.249 . S
Mg322 O323 2.028 . S
Mg322 O329 1.986 . S
Mg322 O331 2.114 . S
Mg322 O332 2.251 . S
Mg322 O335 2.010 . S
O323 Mg322 2.028 . S
O323 C326 1.250 . S
O324 Mg325 2.028 . S
O324 C326 1.248 . S
Mg325 O324 2.028 . S
Mg325 O330 2.032 . S
Mg325 O332 2.079 . S
C326 O323 1.250 . S
C326 O324 1.248 . S
C327 O328 1.264 . S
C327 O335 1.249 . S
O328 C327 1.264 . S
O329 Mg322 1.986 . S
O329 C333 1.246 . S
O330 Mg325 2.032 . S
O330 C333 1.259 . S
O331 Mg322 2.114 . S
O331 C334 1.252 . S
O332 Mg322 2.251 . S
O332 Mg325 2.079 . S
O332 C334 1.273 . S
C333 O329 1.246 . S
C333 O330 1.259 . S
C334 O331 1.252 . S
C334 O332 1.273 . S
O335 Mg322 2.010 . S
O335 C327 1.249 . S
Mg336 O337 2.028 . S
Mg336 O343 1.986 . S
Mg336 O345 2.114 . S
Mg336 O346 2.251 . S
Mg336 O349 2.010 . S
O337 Mg336 2.028 . S
O337 C340 1.250 . S
O338 Mg339 2.028 . S
O338 C340 1.248 . S
Mg339 O338 2.028 . S
Mg339 O344 2.032 . S
Mg339 O346 2.079 . S
C340 O337 1.250 . S
C340 O338 1.248 . S
C341 O342 1.264 . S
C341 O349 1.249 . S
O342 C341 1.264 . S
O343 Mg336 1.986 . S
O343 C347 1.246 . S
O344 Mg339 2.032 . S
O344 C347 1.259 . S
O345 Mg336 2.114 . S
O345 C348 1.252 . S
O346 Mg336 2.251 . S
O346 Mg339 2.079 . S
O346 C348 1.273 . S
C347 O343 1.246 . S
C347 O344 1.259 . S
C348 O345 1.252 . S
C348 O346 1.273 . S
O349 Mg336 2.010 . S
O349 C341 1.249 . S
Mg350 O351 2.028 . S
Mg350 O357 1.986 . S
Mg350 O359 2.114 . S
Mg350 O360 2.251 . S
Mg350 O363 2.010 . S
O351 Mg350 2.028 . S
O351 C354 1.250 . S
O352 Mg353 2.028 . S
O352 C354 1.248 . S
Mg353 O352 2.028 . S
Mg353 O358 2.032 . S
Mg353 O360 2.079 . S
C354 O351 1.250 . S
C354 O352 1.248 . S
C355 O356 1.264 . S
C355 O363 1.249 . S
O356 C355 1.264 . S
O357 Mg350 1.986 . S
O357 C361 1.246 . S
O358 Mg353 2.032 . S
O358 C361 1.259 . S
O359 Mg350 2.114 . S
O359 C362 1.252 . S
O360 Mg350 2.251 . S
O360 Mg353 2.079 . S
O360 C362 1.273 . S
C361 O357 1.246 . S
C361 O358 1.259 . S
C362 O359 1.252 . S
C362 O360 1.273 . S
O363 Mg350 2.010 . S
O363 C355 1.249 . S
Mg364 O365 2.028 . S
Mg364 O371 1.986 . S
Mg364 O373 2.114 . S
Mg364 O374 2.251 . S
Mg364 O377 2.010 . S
O365 Mg364 2.028 . S
O365 C368 1.250 . S
O366 Mg367 2.028 . S
O366 C368 1.248 . S
Mg367 O366 2.028 . S
Mg367 O372 2.032 . S
Mg367 O374 2.079 . S
C368 O365 1.250 . S
C368 O366 1.248 . S
C369 O370 1.264 . S
C369 O377 1.249 . S
O370 C369 1.264 . S
O371 Mg364 1.986 . S
O371 C375 1.246 . S
O372 Mg367 2.032 . S
O372 C375 1.259 . S
O373 Mg364 2.114 . S
O373 C376 1.252 . S
O374 Mg364 2.251 . S
O374 Mg367 2.079 . S
O374 C376 1.273 . S
C375 O371 1.246 . S
C375 O372 1.259 . S
C376 O373 1.252 . S
C376 O374 1.273 . S
O377 Mg364 2.010 . S
O377 C369 1.249 . S
Mg378 O379 2.028 . S
Mg378 O385 1.986 . S
Mg378 O387 2.114 . S
Mg378 O388 2.251 . S
Mg378 O391 2.010 . S
O379 Mg378 2.028 . S
O379 C382 1.250 . S
O380 Mg381 2.028 . S
O380 C382 1.248 . S
Mg381 O380 2.028 . S
Mg381 O386 2.032 . S
Mg381 O388 2.079 . S
C382 O379 1.250 . S
C382 O380 1.248 . S
C383 O384 1.264 . S
C383 O391 1.249 . S
O384 C383 1.264 . S
O385 Mg378 1.986 . S
O385 C389 1.246 . S
O386 Mg381 2.032 . S
O386 C389 1.259 . S
O387 Mg378 2.114 . S
O387 C390 1.252 . S
O388 Mg378 2.251 . S
O388 Mg381 2.079 . S
O388 C390 1.273 . S
C389 O385 1.246 . S
C389 O386 1.259 . S
C390 O387 1.252 . S
C390 O388 1.273 . S
O391 Mg378 2.010 . S
O391 C383 1.249 . S
Mg392 O393 2.028 . S
Mg392 O399 1.986 . S
Mg392 O401 2.114 . S
Mg392 O402 2.251 . S
Mg392 O405 2.010 . S
O393 Mg392 2.028 . S
O393 C396 1.250 . S
O394 Mg395 2.028 . S
O394 C396 1.248 . S
Mg395 O394 2.028 . S
Mg395 O400 2.032 . S
Mg395 O402 2.079 . S
C396 O393 1.250 . S
C396 O394 1.248 . S
C397 O398 1.264 . S
C397 O405 1.249 . S
O398 C397 1.264 . S
O399 Mg392 1.986 . S
O399 C403 1.246 . S
O400 Mg395 2.032 . S
O400 C403 1.259 . S
O401 Mg392 2.114 . S
O401 C404 1.252 . S
O402 Mg392 2.251 . S
O402 Mg395 2.079 . S
O402 C404 1.273 . S
C403 O399 1.246 . S
C403 O400 1.259 . S
C404 O401 1.252 . S
C404 O402 1.273 . S
O405 Mg392 2.010 . S
O405 C397 1.249 . S
Mg406 O407 2.028 . S
Mg406 O413 1.986 . S
Mg406 O415 2.114 . S
Mg406 O416 2.251 . S
Mg406 O419 2.010 . S
O407 Mg406 2.028 . S
O407 C410 1.250 . S
O408 Mg409 2.028 . S
O408 C410 1.248 . S
Mg409 O408 2.028 . S
Mg409 O414 2.032 . S
Mg409 O416 2.079 . S
C410 O407 1.250 . S
C410 O408 1.248 . S
C411 O412 1.264 . S
C411 O419 1.249 . S
O412 C411 1.264 . S
O413 Mg406 1.986 . S
O413 C417 1.246 . S
O414 Mg409 2.032 . S
O414 C417 1.259 . S
O415 Mg406 2.114 . S
O415 C418 1.252 . S
O416 Mg406 2.251 . S
O416 Mg409 2.079 . S
O416 C418 1.273 . S
C417 O413 1.246 . S
C417 O414 1.259 . S
C418 O415 1.252 . S
C418 O416 1.273 . S
O419 Mg406 2.010 . S
O419 C411 1.249 . S
Mg420 O421 2.028 . S
Mg420 O427 1.986 . S
Mg420 O429 2.114 . S
Mg420 O430 2.251 . S
Mg420 O433 2.010 . S
O421 Mg420 2.028 . S
O421 C424 1.250 . S
O422 Mg423 2.028 . S
O422 C424 1.248 . S
Mg423 O422 2.028 . S
Mg423 O428 2.032 . S
Mg423 O430 2.079 . S
C424 O421 1.250 . S
C424 O422 1.248 . S
C425 O426 1.264 . S
C425 O433 1.249 . S
O426 C425 1.264 . S
O427 Mg420 1.986 . S
O427 C431 1.246 . S
O428 Mg423 2.032 . S
O428 C431 1.259 . S
O429 Mg420 2.114 . S
O429 C432 1.252 . S
O430 Mg420 2.251 . S
O430 Mg423 2.079 . S
O430 C432 1.273 . S
C431 O427 1.246 . S
C431 O428 1.259 . S
C432 O429 1.252 . S
C432 O430 1.273 . S
O433 Mg420 2.010 . S
O433 C425 1.249 . S
Mg434 O435 2.028 . S
Mg434 O441 1.986 . S
Mg434 O443 2.114 . S
Mg434 O444 2.251 . S
Mg434 O447 2.010 . S
O435 Mg434 2.028 . S
O435 C438 1.250 . S
O436 Mg437 2.028 . S
O436 C438 1.248 . S
Mg437 O436 2.028 . S
Mg437 O442 2.032 . S
Mg437 O444 2.079 . S
C438 O435 1.250 . S
C438 O436 1.248 . S
C439 O440 1.264 . S
C439 O447 1.249 . S
O440 C439 1.264 . S
O441 Mg434 1.986 . S
O441 C445 1.246 . S
O442 Mg437 2.032 . S
O442 C445 1.259 . S
O443 Mg434 2.114 . S
O443 C446 1.252 . S
O444 Mg434 2.251 . S
O444 Mg437 2.079 . S
O444 C446 1.273 . S
C445 O441 1.246 . S
C445 O442 1.259 . S
C446 O443 1.252 . S
C446 O444 1.273 . S
O447 Mg434 2.010 . S
O447 C439 1.249 . S
Mg448 O449 2.028 . S
Mg448 O455 1.986 . S
Mg448 O457 2.114 . S
Mg448 O458 2.251 . S
Mg448 O461 2.010 . S
O449 Mg448 2.028 . S
O449 C452 1.250 . S
O450 Mg451 2.028 . S
O450 C452 1.248 . S
Mg451 O450 2.028 . S
Mg451 O456 2.032 . S
Mg451 O458 2.079 . S
C452 O449 1.250 . S
C452 O450 1.248 . S
C453 O454 1.264 . S
C453 O461 1.249 . S
O454 C453 1.264 . S
O455 Mg448 1.986 . S
O455 C459 1.246 . S
O456 Mg451 2.032 . S
O456 C459 1.259 . S
O457 Mg448 2.114 . S
O457 C460 1.252 . S
O458 Mg448 2.251 . S
O458 Mg451 2.079 . S
O458 C460 1.273 . S
C459 O455 1.246 . S
C459 O456 1.259 . S
C460 O457 1.252 . S
C460 O458 1.273 . S
O461 Mg448 2.010 . S
O461 C453 1.249 . S
Mg462 O463 2.028 . S
Mg462 O469 1.986 . S
Mg462 O471 2.114 . S
Mg462 O472 2.251 . S
Mg462 O475 2.010 . S
O463 Mg462 2.028 . S
O463 C466 1.250 . S
O464 Mg465 2.028 . S
O464 C466 1.248 . S
Mg465 O464 2.028 . S
Mg465 O470 2.032 . S
Mg465 O472 2.079 . S
C466 O463 1.250 . S
C466 O464 1.248 . S
C467 O468 1.264 . S
C467 O475 1.249 . S
O468 C467 1.264 . S
O469 Mg462 1.986 . S
O469 C473 1.246 . S
O470 Mg465 2.032 . S
O470 C473 1.259 . S
O471 Mg462 2.114 . S
O471 C474 1.252 . S
O472 Mg462 2.251 . S
O472 Mg465 2.079 . S
O472 C474 1.273 . S
C473 O469 1.246 . S
C473 O470 1.259 . S
C474 O471 1.252 . S
C474 O472 1.273 . S
O475 Mg462 2.010 . S
O475 C467 1.249 . S
Mg476 O477 2.028 . S
Mg476 O483 1.986 . S
Mg476 O485 2.114 . S
Mg476 O486 2.251 . S
Mg476 O489 2.010 . S
O477 Mg476 2.028 . S
O477 C480 1.250 . S
O478 Mg479 2.028 . S
O478 C480 1.248 . S
Mg479 O478 2.028 . S
Mg479 O484 2.032 . S
Mg479 O486 2.079 . S
C480 O477 1.250 . S
C480 O478 1.248 . S
C481 O482 1.264 . S
C481 O489 1.249 . S
O482 C481 1.264 . S
O483 Mg476 1.986 . S
O483 C487 1.246 . S
O484 Mg479 2.032 . S
O484 C487 1.259 . S
O485 Mg476 2.114 . S
O485 C488 1.252 . S
O486 Mg476 2.251 . S
O486 Mg479 2.079 . S
O486 C488 1.273 . S
C487 O483 1.246 . S
C487 O484 1.259 . S
C488 O485 1.252 . S
C488 O486 1.273 . S
O489 Mg476 2.010 . S
O489 C481 1.249 . S
Mg490 O491 2.028 . S
Mg490 O497 1.986 . S
Mg490 O499 2.114 . S
Mg490 O500 2.251 . S
Mg490 O503 2.010 . S
O491 Mg490 2.028 . S
O491 C494 1.250 . S
O492 Mg493 2.028 . S
O492 C494 1.248 . S
Mg493 O492 2.028 . S
Mg493 O498 2.032 . S
Mg493 O500 2.079 . S
C494 O491 1.250 . S
C494 O492 1.248 . S
C495 O496 1.264 . S
C495 O503 1.249 . S
O496 C495 1.264 . S
O497 Mg490 1.986 . S
O497 C501 1.246 . S
O498 Mg493 2.032 . S
O498 C501 1.259 . S
O499 Mg490 2.114 . S
O499 C502 1.252 . S
O500 Mg490 2.251 . S
O500 Mg493 2.079 . S
O500 C502 1.273 . S
C501 O497 1.246 . S
C501 O498 1.259 . S
C502 O499 1.252 . S
C502 O500 1.273 . S
O503 Mg490 2.010 . S
O503 C495 1.249 . S
C504 C505 1.349 . S
C504 C506 1.327 . S
C504 H529 0.950 . S
C505 C504 1.349 . S
C505 C521 1.349 . S
C506 C504 1.327 . S
C506 C525 1.429 . S
C506 H530 0.950 . S
C507 C524 1.574 . S
C507 C526 1.368 . S
C507 H531 0.949 . S
H508 C512 0.949 . S
C509 C510 1.349 . S
C509 C511 1.327 . S
C509 H532 0.950 . S
C510 C509 1.349 . S
C510 C522 1.349 . S
C511 C509 1.327 . S
C511 C527 1.429 . S
C511 H533 0.950 . S
C512 H508 0.949 . S
C512 C520 1.574 . S
C512 C528 1.368 . S
H513 C521 0.950 . S
H514 C519 0.950 . S
H515 C520 0.949 . S
H516 C522 0.950 . S
H517 C523 0.950 . S
H518 C524 0.949 . S
C519 H514 0.950 . S
C519 C521 1.327 . S
C519 C525 1.429 . S
C520 C512 1.574 . S
C520 H515 0.949 . S
C520 C526 1.368 . S
C521 C505 1.349 . S
C521 H513 0.950 . S
C521 C519 1.327 . S
C522 C510 1.349 . S
C522 H516 0.950 . S
C522 C523 1.327 . S
C523 H517 0.950 . S
C523 C522 1.327 . S
C523 C527 1.429 . S
C524 C507 1.574 . S
C524 H518 0.949 . S
C524 C528 1.368 . S
C525 C506 1.429 . S
C525 C519 1.429 . S
C525 C526 1.523 . S
C526 C507 1.368 . S
C526 C520 1.368 . S
C526 C525 1.523 . S
C527 C511 1.429 . S
C527 C523 1.429 . S
C527 C528 1.523 . S
C528 C512 1.368 . S
C528 C524 1.368 . S
C528 C527 1.523 . S
H529 C504 0.950 . S
H530 C506 0.950 . S
H531 C507 0.949 . S
H532 C509 0.950 . S
H533 C511 0.950 . S
C534 C535 1.349 . S
C534 C536 1.327 . S
C534 H559 0.950 . S
C535 C534 1.349 . S
C535 C551 1.349 . S
C536 C534 1.327 . S
C536 C555 1.429 . S
C536 H560 0.950 . S
C537 C554 1.574 . S
C537 C556 1.368 . S
C537 H561 0.949 . S
H538 C542 0.949 . S
C539 C540 1.349 . S
C539 C541 1.327 . S
C539 H562 0.950 . S
C540 C539 1.349 . S
C540 C552 1.349 . S
C541 C539 1.327 . S
C541 C557 1.429 . S
C541 H563 0.950 . S
C542 H538 0.949 . S
C542 C550 1.574 . S
C542 C558 1.368 . S
H543 C551 0.950 . S
H544 C549 0.950 . S
H545 C550 0.949 . S
H546 C552 0.950 . S
H547 C553 0.950 . S
H548 C554 0.949 . S
C549 H544 0.950 . S
C549 C551 1.327 . S
C549 C555 1.429 . S
C550 C542 1.574 . S
C550 H545 0.949 . S
C550 C556 1.368 . S
C551 C535 1.349 . S
C551 H543 0.950 . S
C551 C549 1.327 . S
C552 C540 1.349 . S
C552 H546 0.950 . S
C552 C553 1.327 . S
C553 H547 0.950 . S
C553 C552 1.327 . S
C553 C557 1.429 . S
C554 C537 1.574 . S
C554 H548 0.949 . S
C554 C558 1.368 . S
C555 C536 1.429 . S
C555 C549 1.429 . S
C555 C556 1.523 . S
C556 C537 1.368 . S
C556 C550 1.368 . S
C556 C555 1.523 . S
C557 C541 1.429 . S
C557 C553 1.429 . S
C557 C558 1.523 . S
C558 C542 1.368 . S
C558 C554 1.368 . S
C558 C557 1.523 . S
H559 C534 0.950 . S
H560 C536 0.950 . S
H561 C537 0.949 . S
H562 C539 0.950 . S
H563 C541 0.950 . S
C564 C565 1.349 . S
C564 C566 1.327 . S
C564 H589 0.950 . S
C565 C564 1.349 . S
C565 C581 1.349 . S
C566 C564 1.327 . S
C566 C585 1.429 . S
C566 H590 0.950 . S
C567 C584 1.574 . S
C567 C586 1.368 . S
C567 H591 0.949 . S
H568 C572 0.949 . S
C569 C570 1.349 . S
C569 C571 1.327 . S
C569 H592 0.950 . S
C570 C569 1.349 . S
C570 C582 1.349 . S
C571 C569 1.327 . S
C571 C587 1.429 . S
C571 H593 0.950 . S
C572 H568 0.949 . S
C572 C580 1.574 . S
C572 C588 1.368 . S
H573 C581 0.950 . S
H574 C579 0.950 . S
H575 C580 0.949 . S
H576 C582 0.950 . S
H577 C583 0.950 . S
H578 C584 0.949 . S
C579 H574 0.950 . S
C579 C581 1.327 . S
C579 C585 1.429 . S
C580 C572 1.574 . S
C580 H575 0.949 . S
C580 C586 1.368 . S
C581 C565 1.349 . S
C581 H573 0.950 . S
C581 C579 1.327 . S
C582 C570 1.349 . S
C582 H576 0.950 . S
C582 C583 1.327 . S
C583 H577 0.950 . S
C583 C582 1.327 . S
C583 C587 1.429 . S
C584 C567 1.574 . S
C584 H578 0.949 . S
C584 C588 1.368 . S
C585 C566 1.429 . S
C585 C579 1.429 . S
C585 C586 1.523 . S
C586 C567 1.368 . S
C586 C580 1.368 . S
C586 C585 1.523 . S
C587 C571 1.429 . S
C587 C583 1.429 . S
C587 C588 1.523 . S
C588 C572 1.368 . S
C588 C584 1.368 . S
C588 C587 1.523 . S
H589 C564 0.950 . S
H590 C566 0.950 . S
H591 C567 0.949 . S
H592 C569 0.950 . S
H593 C571 0.950 . S
C594 C595 1.349 . S
C594 C596 1.327 . S
C594 H619 0.950 . S
C595 C594 1.349 . S
C595 C611 1.349 . S
C596 C594 1.327 . S
C596 C615 1.429 . S
C596 H620 0.950 . S
C597 C614 1.574 . S
C597 C616 1.368 . S
C597 H621 0.949 . S
H598 C602 0.949 . S
C599 C600 1.349 . S
C599 C601 1.327 . S
C599 H622 0.950 . S
C600 C599 1.349 . S
C600 C612 1.349 . S
C601 C599 1.327 . S
C601 C617 1.429 . S
C601 H623 0.950 . S
C602 H598 0.949 . S
C602 C610 1.574 . S
C602 C618 1.368 . S
H603 C611 0.950 . S
H604 C609 0.950 . S
H605 C610 0.949 . S
H606 C612 0.950 . S
H607 C613 0.950 . S
H608 C614 0.949 . S
C609 H604 0.950 . S
C609 C611 1.327 . S
C609 C615 1.429 . S
C610 C602 1.574 . S
C610 H605 0.949 . S
C610 C616 1.368 . S
C611 C595 1.349 . S
C611 H603 0.950 . S
C611 C609 1.327 . S
C612 C600 1.349 . S
C612 H606 0.950 . S
C612 C613 1.327 . S
C613 H607 0.950 . S
C613 C612 1.327 . S
C613 C617 1.429 . S
C614 C597 1.574 . S
C614 H608 0.949 . S
C614 C618 1.368 . S
C615 C596 1.429 . S
C615 C609 1.429 . S
C615 C616 1.523 . S
C616 C597 1.368 . S
C616 C610 1.368 . S
C616 C615 1.523 . S
C617 C601 1.429 . S
C617 C613 1.429 . S
C617 C618 1.523 . S
C618 C602 1.368 . S
C618 C614 1.368 . S
C618 C617 1.523 . S
H619 C594 0.950 . S
H620 C596 0.950 . S
H621 C597 0.949 . S
H622 C599 0.950 . S
H623 C601 0.950 . S
C624 C625 1.349 . S
C624 C626 1.327 . S
C624 H649 0.950 . S
C625 C624 1.349 . S
C625 C641 1.349 . S
C626 C624 1.327 . S
C626 C645 1.429 . S
C626 H650 0.950 . S
C627 C644 1.574 . S
C627 C646 1.368 . S
C627 H651 0.949 . S
H628 C632 0.949 . S
C629 C630 1.349 . S
C629 C631 1.327 . S
C629 H652 0.950 . S
C630 C629 1.349 . S
C630 C642 1.349 . S
C631 C629 1.327 . S
C631 C647 1.429 . S
C631 H653 0.950 . S
C632 H628 0.949 . S
C632 C640 1.574 . S
C632 C648 1.368 . S
H633 C641 0.950 . S
H634 C639 0.950 . S
H635 C640 0.949 . S
H636 C642 0.950 . S
H637 C643 0.950 . S
H638 C644 0.949 . S
C639 H634 0.950 . S
C639 C641 1.327 . S
C639 C645 1.429 . S
C640 C632 1.574 . S
C640 H635 0.949 . S
C640 C646 1.368 . S
C641 C625 1.349 . S
C641 H633 0.950 . S
C641 C639 1.327 . S
C642 C630 1.349 . S
C642 H636 0.950 . S
C642 C643 1.327 . S
C643 H637 0.950 . S
C643 C642 1.327 . S
C643 C647 1.429 . S
C644 C627 1.574 . S
C644 H638 0.949 . S
C644 C648 1.368 . S
C645 C626 1.429 . S
C645 C639 1.429 . S
C645 C646 1.523 . S
C646 C627 1.368 . S
C646 C640 1.368 . S
C646 C645 1.523 . S
C647 C631 1.429 . S
C647 C643 1.429 . S
C647 C648 1.523 . S
C648 C632 1.368 . S
C648 C644 1.368 . S
C648 C647 1.523 . S
H649 C624 0.950 . S
H650 C626 0.950 . S
H651 C627 0.949 . S
H652 C629 0.950 . S
H653 C631 0.950 . S
C654 C655 1.349 . S
C654 C656 1.327 . S
C654 H679 0.950 . S
C655 C654 1.349 . S
C655 C671 1.349 . S
C656 C654 1.327 . S
C656 C675 1.429 . S
C656 H680 0.950 . S
C657 C674 1.574 . S
C657 C676 1.368 . S
C657 H681 0.949 . S
H658 C662 0.949 . S
C659 C660 1.349 . S
C659 C661 1.327 . S
C659 H682 0.950 . S
C660 C659 1.349 . S
C660 C672 1.349 . S
C661 C659 1.327 . S
C661 C677 1.429 . S
C661 H683 0.950 . S
C662 H658 0.949 . S
C662 C670 1.574 . S
C662 C678 1.368 . S
H663 C671 0.950 . S
H664 C669 0.950 . S
H665 C670 0.949 . S
H666 C672 0.950 . S
H667 C673 0.950 . S
H668 C674 0.949 . S
C669 H664 0.950 . S
C669 C671 1.327 . S
C669 C675 1.429 . S
C670 C662 1.574 . S
C670 H665 0.949 . S
C670 C676 1.368 . S
C671 C655 1.349 . S
C671 H663 0.950 . S
C671 C669 1.327 . S
C672 C660 1.349 . S
C672 H666 0.950 . S
C672 C673 1.327 . S
C673 H667 0.950 . S
C673 C672 1.327 . S
C673 C677 1.429 . S
C674 C657 1.574 . S
C674 H668 0.949 . S
C674 C678 1.368 . S
C675 C656 1.429 . S
C675 C669 1.429 . S
C675 C676 1.523 . S
C676 C657 1.368 . S
C676 C670 1.368 . S
C676 C675 1.523 . S
C677 C661 1.429 . S
C677 C673 1.429 . S
C677 C678 1.523 . S
C678 C662 1.368 . S
C678 C674 1.368 . S
C678 C677 1.523 . S
H679 C654 0.950 . S
H680 C656 0.950 . S
H681 C657 0.949 . S
H682 C659 0.950 . S
H683 C661 0.950 . S
C684 C685 1.349 . S
C684 C686 1.327 . S
C684 H709 0.950 . S
C685 C684 1.349 . S
C685 C701 1.349 . S
C686 C684 1.327 . S
C686 C705 1.429 . S
C686 H710 0.950 . S
C687 C704 1.574 . S
C687 C706 1.368 . S
C687 H711 0.949 . S
H688 C692 0.949 . S
C689 C690 1.349 . S
C689 C691 1.327 . S
C689 H712 0.950 . S
C690 C689 1.349 . S
C690 C702 1.349 . S
C691 C689 1.327 . S
C691 C707 1.429 . S
C691 H713 0.950 . S
C692 H688 0.949 . S
C692 C700 1.574 . S
C692 C708 1.368 . S
H693 C701 0.950 . S
H694 C699 0.950 . S
H695 C700 0.949 . S
H696 C702 0.950 . S
H697 C703 0.950 . S
H698 C704 0.949 . S
C699 H694 0.950 . S
C699 C701 1.327 . S
C699 C705 1.429 . S
C700 C692 1.574 . S
C700 H695 0.949 . S
C700 C706 1.368 . S
C701 C685 1.349 . S
C701 H693 0.950 . S
C701 C699 1.327 . S
C702 C690 1.349 . S
C702 H696 0.950 . S
C702 C703 1.327 . S
C703 H697 0.950 . S
C703 C702 1.327 . S
C703 C707 1.429 . S
C704 C687 1.574 . S
C704 H698 0.949 . S
C704 C708 1.368 . S
C705 C686 1.429 . S
C705 C699 1.429 . S
C705 C706 1.523 . S
C706 C687 1.368 . S
C706 C700 1.368 . S
C706 C705 1.523 . S
C707 C691 1.429 . S
C707 C703 1.429 . S
C707 C708 1.523 . S
C708 C692 1.368 . S
C708 C704 1.368 . S
C708 C707 1.523 . S
H709 C684 0.950 . S
H710 C686 0.950 . S
H711 C687 0.949 . S
H712 C689 0.950 . S
H713 C691 0.950 . S
C714 C715 1.349 . S
C714 C716 1.327 . S
C714 H739 0.950 . S
C715 C714 1.349 . S
C715 C731 1.349 . S
C716 C714 1.327 . S
C716 C735 1.429 . S
C716 H740 0.950 . S
C717 C734 1.574 . S
C717 C736 1.368 . S
C717 H741 0.949 . S
H718 C722 0.949 . S
C719 C720 1.349 . S
C719 C721 1.327 . S
C719 H742 0.950 . S
C720 C719 1.349 . S
C720 C732 1.349 . S
C721 C719 1.327 . S
C721 C737 1.429 . S
C721 H743 0.950 . S
C722 H718 0.949 . S
C722 C730 1.574 . S
C722 C738 1.368 . S
H723 C731 0.950 . S
H724 C729 0.950 . S
H725 C730 0.949 . S
H726 C732 0.950 . S
H727 C733 0.950 . S
H728 C734 0.949 . S
C729 H724 0.950 . S
C729 C731 1.327 . S
C729 C735 1.429 . S
C730 C722 1.574 . S
C730 H725 0.949 . S
C730 C736 1.368 . S
C731 C715 1.349 . S
C731 H723 0.950 . S
C731 C729 1.327 . S
C732 C720 1.349 . S
C732 H726 0.950 . S
C732 C733 1.327 . S
C733 H727 0.950 . S
C733 C732 1.327 . S
C733 C737 1.429 . S
C734 C717 1.574 . S
C734 H728 0.949 . S
C734 C738 1.368 . S
C735 C716 1.429 . S
C735 C729 1.429 . S
C735 C736 1.523 . S
C736 C717 1.368 . S
C736 C730 1.368 . S
C736 C735 1.523 . S
C737 C721 1.429 . S
C737 C733 1.429 . S
C737 C738 1.523 . S
C738 C722 1.368 . S
C738 C734 1.368 . S
C738 C737 1.523 . S
H739 C714 0.950 . S
H740 C716 0.950 . S
H741 C717 0.949 . S
H742 C719 0.950 . S
H743 C721 0.950 . S
C744 C745 1.349 . S
C744 C746 1.327 . S
C744 H769 0.950 . S
C745 C744 1.349 . S
C745 C761 1.349 . S
C746 C744 1.327 . S
C746 C765 1.429 . S
C746 H770 0.950 . S
C747 C764 1.574 . S
C747 C766 1.368 . S
C747 H771 0.949 . S
H748 C752 0.949 . S
C749 C750 1.349 . S
C749 C751 1.327 . S
C749 H772 0.950 . S
C750 C749 1.349 . S
C750 C762 1.349 . S
C751 C749 1.327 . S
C751 C767 1.429 . S
C751 H773 0.950 . S
C752 H748 0.949 . S
C752 C760 1.574 . S
C752 C768 1.368 . S
H753 C761 0.950 . S
H754 C759 0.950 . S
H755 C760 0.949 . S
H756 C762 0.950 . S
H757 C763 0.950 . S
H758 C764 0.949 . S
C759 H754 0.950 . S
C759 C761 1.327 . S
C759 C765 1.429 . S
C760 C752 1.574 . S
C760 H755 0.949 . S
C760 C766 1.368 . S
C761 C745 1.349 . S
C761 H753 0.950 . S
C761 C759 1.327 . S
C762 C750 1.349 . S
C762 H756 0.950 . S
C762 C763 1.327 . S
C763 H757 0.950 . S
C763 C762 1.327 . S
C763 C767 1.429 . S
C764 C747 1.574 . S
C764 H758 0.949 . S
C764 C768 1.368 . S
C765 C746 1.429 . S
C765 C759 1.429 . S
C765 C766 1.523 . S
C766 C747 1.368 . S
C766 C760 1.368 . S
C766 C765 1.523 . S
C767 C751 1.429 . S
C767 C763 1.429 . S
C767 C768 1.523 . S
C768 C752 1.368 . S
C768 C764 1.368 . S
C768 C767 1.523 . S
H769 C744 0.950 . S
H770 C746 0.950 . S
H771 C747 0.949 . S
H772 C749 0.950 . S
H773 C751 0.950 . S
C774 C775 1.349 . S
C774 C776 1.327 . S
C774 H799 0.950 . S
C775 C774 1.349 . S
C775 C791 1.349 . S
C776 C774 1.327 . S
C776 C795 1.429 . S
C776 H800 0.950 . S
C777 C794 1.574 . S
C777 C796 1.368 . S
C777 H801 0.949 . S
H778 C782 0.949 . S
C779 C780 1.349 . S
C779 C781 1.327 . S
C779 H802 0.950 . S
C780 C779 1.349 . S
C780 C792 1.349 . S
C781 C779 1.327 . S
C781 C797 1.429 . S
C781 H803 0.950 . S
C782 H778 0.949 . S
C782 C790 1.574 . S
C782 C798 1.368 . S
H783 C791 0.950 . S
H784 C789 0.950 . S
H785 C790 0.949 . S
H786 C792 0.950 . S
H787 C793 0.950 . S
H788 C794 0.949 . S
C789 H784 0.950 . S
C789 C791 1.327 . S
C789 C795 1.429 . S
C790 C782 1.574 . S
C790 H785 0.949 . S
C790 C796 1.368 . S
C791 C775 1.349 . S
C791 H783 0.950 . S
C791 C789 1.327 . S
C792 C780 1.349 . S
C792 H786 0.950 . S
C792 C793 1.327 . S
C793 H787 0.950 . S
C793 C792 1.327 . S
C793 C797 1.429 . S
C794 C777 1.574 . S
C794 H788 0.949 . S
C794 C798 1.368 . S
C795 C776 1.429 . S
C795 C789 1.429 . S
C795 C796 1.523 . S
C796 C777 1.368 . S
C796 C790 1.368 . S
C796 C795 1.523 . S
C797 C781 1.429 . S
C797 C793 1.429 . S
C797 C798 1.523 . S
C798 C782 1.368 . S
C798 C794 1.368 . S
C798 C797 1.523 . S
H799 C774 0.950 . S
H800 C776 0.950 . S
H801 C777 0.949 . S
H802 C779 0.950 . S
H803 C781 0.950 . S
C804 C805 1.349 . S
C804 C806 1.327 . S
C804 H829 0.950 . S
C805 C804 1.349 . S
C805 C821 1.349 . S
C806 C804 1.327 . S
C806 C825 1.429 . S
C806 H830 0.950 . S
C807 C824 1.574 . S
C807 C826 1.368 . S
C807 H831 0.949 . S
H808 C812 0.949 . S
C809 C810 1.349 . S
C809 C811 1.327 . S
C809 H832 0.950 . S
C810 C809 1.349 . S
C810 C822 1.349 . S
C811 C809 1.327 . S
C811 C827 1.429 . S
C811 H833 0.950 . S
C812 H808 0.949 . S
C812 C820 1.574 . S
C812 C828 1.368 . S
H813 C821 0.950 . S
H814 C819 0.950 . S
H815 C820 0.949 . S
H816 C822 0.950 . S
H817 C823 0.950 . S
H818 C824 0.949 . S
C819 H814 0.950 . S
C819 C821 1.327 . S
C819 C825 1.429 . S
C820 C812 1.574 . S
C820 H815 0.949 . S
C820 C826 1.368 . S
C821 C805 1.349 . S
C821 H813 0.950 . S
C821 C819 1.327 . S
C822 C810 1.349 . S
C822 H816 0.950 . S
C822 C823 1.327 . S
C823 H817 0.950 . S
C823 C822 1.327 . S
C823 C827 1.429 . S
C824 C807 1.574 . S
C824 H818 0.949 . S
C824 C828 1.368 . S
C825 C806 1.429 . S
C825 C819 1.429 . S
C825 C826 1.523 . S
C826 C807 1.368 . S
C826 C820 1.368 . S
C826 C825 1.523 . S
C827 C811 1.429 . S
C827 C823 1.429 . S
C827 C828 1.523 . S
C828 C812 1.368 . S
C828 C824 1.368 . S
C828 C827 1.523 . S
H829 C804 0.950 . S
H830 C806 0.950 . S
H831 C807 0.949 . S
H832 C809 0.950 . S
H833 C811 0.950 . S
C834 C835 1.349 . S
C834 C836 1.327 . S
C834 H859 0.950 . S
C835 C834 1.349 . S
C835 C851 1.349 . S
C836 C834 1.327 . S
C836 C855 1.429 . S
C836 H860 0.950 . S
C837 C854 1.574 . S
C837 C856 1.368 . S
C837 H861 0.949 . S
H838 C842 0.949 . S
C839 C840 1.349 . S
C839 C841 1.327 . S
C839 H862 0.950 . S
C840 C839 1.349 . S
C840 C852 1.349 . S
C841 C839 1.327 . S
C841 C857 1.429 . S
C841 H863 0.950 . S
C842 H838 0.949 . S
C842 C850 1.574 . S
C842 C858 1.368 . S
H843 C851 0.950 . S
H844 C849 0.950 . S
H845 C850 0.949 . S
H846 C852 0.950 . S
H847 C853 0.950 . S
H848 C854 0.949 . S
C849 H844 0.950 . S
C849 C851 1.327 . S
C849 C855 1.429 . S
C850 C842 1.574 . S
C850 H845 0.949 . S
C850 C856 1.368 . S
C851 C835 1.349 . S
C851 H843 0.950 . S
C851 C849 1.327 . S
C852 C840 1.349 . S
C852 H846 0.950 . S
C852 C853 1.327 . S
C853 H847 0.950 . S
C853 C852 1.327 . S
C853 C857 1.429 . S
C854 C837 1.574 . S
C854 H848 0.949 . S
C854 C858 1.368 . S
C855 C836 1.429 . S
C855 C849 1.429 . S
C855 C856 1.523 . S
C856 C837 1.368 . S
C856 C850 1.368 . S
C856 C855 1.523 . S
C857 C841 1.429 . S
C857 C853 1.429 . S
C857 C858 1.523 . S
C858 C842 1.368 . S
C858 C854 1.368 . S
C858 C857 1.523 . S
H859 C834 0.950 . S
H860 C836 0.950 . S
H861 C837 0.949 . S
H862 C839 0.950 . S
H863 C841 0.950 . S
C864 C865 1.349 . S
C864 C866 1.327 . S
C864 H889 0.950 . S
C865 C864 1.349 . S
C865 C881 1.349 . S
C866 C864 1.327 . S
C866 C885 1.429 . S
C866 H890 0.950 . S
C867 C884 1.574 . S
C867 C886 1.368 . S
C867 H891 0.949 . S
H868 C872 0.949 . S
C869 C870 1.349 . S
C869 C871 1.327 . S
C869 H892 0.950 . S
C870 C869 1.349 . S
C870 C882 1.349 . S
C871 C869 1.327 . S
C871 C887 1.429 . S
C871 H893 0.950 . S
C872 H868 0.949 . S
C872 C880 1.574 . S
C872 C888 1.368 . S
H873 C881 0.950 . S
H874 C879 0.950 . S
H875 C880 0.949 . S
H876 C882 0.950 . S
H877 C883 0.950 . S
H878 C884 0.949 . S
C879 H874 0.950 . S
C879 C881 1.327 . S
C879 C885 1.429 . S
C880 C872 1.574 . S
C880 H875 0.949 . S
C880 C886 1.368 . S
C881 C865 1.349 . S
C881 H873 0.950 . S
C881 C879 1.327 . S
C882 C870 1.349 . S
C882 H876 0.950 . S
C882 C883 1.327 . S
C883 H877 0.950 . S
C883 C882 1.327 . S
C883 C887 1.429 . S
C884 C867 1.574 . S
C884 H878 0.949 . S
C884 C888 1.368 . S
C885 C866 1.429 . S
C885 C879 1.429 . S
C885 C886 1.523 . S
C886 C867 1.368 . S
C886 C880 1.368 . S
C886 C885 1.523 . S
C887 C871 1.429 . S
C887 C883 1.429 . S
C887 C888 1.523 . S
C888 C872 1.368 . S
C888 C884 1.368 . S
C888 C887 1.523 . S
H889 C864 0.950 . S
H890 C866 0.950 . S
H891 C867 0.949 . S
H892 C869 0.950 . S
H893 C871 0.950 . S
C894 C895 1.349 . S
C894 C896 1.327 . S
C894 H919 0.950 . S
C895 C894 1.349 . S
C895 C911 1.349 . S
C896 C894 1.327 . S
C896 C915 1.429 . S
C896 H920 0.950 . S
C897 C914 1.574 . S
C897 C916 1.368 . S
C897 H921 0.949 . S
H898 C902 0.949 . S
C899 C900 1.349 . S
C899 C901 1.327 . S
C899 H922 0.950 . S
C900 C899 1.349 . S
C900 C912 1.349 . S
C901 C899 1.327 . S
C901 C917 1.429 . S
C901 H923 0.950 . S
C902 H898 0.949 . S
C902 C910 1.574 . S
C902 C918 1.368 . S
H903 C911 0.950 . S
H904 C909 0.950 . S
H905 C910 0.949 . S
H906 C912 0.950 . S
H907 C913 0.950 . S
H908 C914 0.949 . S
C909 H904 0.950 . S
C909 C911 1.327 . S
C909 C915 1.429 . S
C910 C902 1.574 . S
C910 H905 0.949 . S
C910 C916 1.368 . S
C911 C895 1.349 . S
C911 H903 0.950 . S
C911 C909 1.327 . S
C912 C900 1.349 . S
C912 H906 0.950 . S
C912 C913 1.327 . S
C913 H907 0.950 . S
C913 C912 1.327 . S
C913 C917 1.429 . S
C914 C897 1.574 . S
C914 H908 0.949 . S
C914 C918 1.368 . S
C915 C896 1.429 . S
C915 C909 1.429 . S
C915 C916 1.523 . S
C916 C897 1.368 . S
C916 C910 1.368 . S
C916 C915 1.523 . S
C917 C901 1.429 . S
C917 C913 1.429 . S
C917 C918 1.523 . S
C918 C902 1.368 . S
C918 C914 1.368 . S
C918 C917 1.523 . S
H919 C894 0.950 . S
H920 C896 0.950 . S
H921 C897 0.949 . S
H922 C899 0.950 . S
H923 C901 0.950 . S
C924 C925 1.349 . S
C924 C926 1.327 . S
C924 H949 0.950 . S
C925 C924 1.349 . S
C925 C941 1.349 . S
C926 C924 1.327 . S
C926 C945 1.429 . S
C926 H950 0.950 . S
C927 C944 1.574 . S
C927 C946 1.368 . S
C927 H951 0.949 . S
H928 C932 0.949 . S
C929 C930 1.349 . S
C929 C931 1.327 . S
C929 H952 0.950 . S
C930 C929 1.349 . S
C930 C942 1.349 . S
C931 C929 1.327 . S
C931 C947 1.429 . S
C931 H953 0.950 . S
C932 H928 0.949 . S
C932 C940 1.574 . S
C932 C948 1.368 . S
H933 C941 0.950 . S
H934 C939 0.950 . S
H935 C940 0.949 . S
H936 C942 0.950 . S
H937 C943 0.950 . S
H938 C944 0.949 . S
C939 H934 0.950 . S
C939 C941 1.327 . S
C939 C945 1.429 . S
C940 C932 1.574 . S
C940 H935 0.949 . S
C940 C946 1.368 . S
C941 C925 1.349 . S
C941 H933 0.950 . S
C941 C939 1.327 . S
C942 C930 1.349 . S
C942 H936 0.950 . S
C942 C943 1.327 . S
C943 H937 0.950 . S
C943 C942 1.327 . S
C943 C947 1.429 . S
C944 C927 1.574 . S
C944 H938 0.949 . S
C944 C948 1.368 . S
C945 C926 1.429 . S
C945 C939 1.429 . S
C945 C946 1.523 . S
C946 C927 1.368 . S
C946 C940 1.368 . S
C946 C945 1.523 . S
C947 C931 1.429 . S
C947 C943 1.429 . S
C947 C948 1.523 . S
C948 C932 1.368 . S
C948 C944 1.368 . S
C948 C947 1.523 . S
H949 C924 0.950 . S
H950 C926 0.950 . S
H951 C927 0.949 . S
H952 C929 0.950 . S
H953 C931 0.950 . S
C954 C955 1.349 . S
C954 C956 1.327 . S
C954 H979 0.950 . S
C955 C954 1.349 . S
C955 C971 1.349 . S
C956 C954 1.327 . S
C956 C975 1.429 . S
C956 H980 0.950 . S
C957 C974 1.574 . S
C957 C976 1.368 . S
C957 H981 0.949 . S
H958 C962 0.949 . S
C959 C960 1.349 . S
C959 C961 1.327 . S
C959 H982 0.950 . S
C960 C959 1.349 . S
C960 C972 1.349 . S
C961 C959 1.327 . S
C961 C977 1.429 . S
C961 H983 0.950 . S
C962 H958 0.949 . S
C962 C970 1.574 . S
C962 C978 1.368 . S
H963 C971 0.950 . S
H964 C969 0.950 . S
H965 C970 0.949 . S
H966 C972 0.950 . S
H967 C973 0.950 . S
H968 C974 0.949 . S
C969 H964 0.950 . S
C969 C971 1.327 . S
C969 C975 1.429 . S
C970 C962 1.574 . S
C970 H965 0.949 . S
C970 C976 1.368 . S
C971 C955 1.349 . S
C971 H963 0.950 . S
C971 C969 1.327 . S
C972 C960 1.349 . S
C972 H966 0.950 . S
C972 C973 1.327 . S
C973 H967 0.950 . S
C973 C972 1.327 . S
C973 C977 1.429 . S
C974 C957 1.574 . S
C974 H968 0.949 . S
C974 C978 1.368 . S
C975 C956 1.429 . S
C975 C969 1.429 . S
C975 C976 1.523 . S
C976 C957 1.368 . S
C976 C970 1.368 . S
C976 C975 1.523 . S
C977 C961 1.429 . S
C977 C973 1.429 . S
C977 C978 1.523 . S
C978 C962 1.368 . S
C978 C974 1.368 . S
C978 C977 1.523 . S
H979 C954 0.950 . S
H980 C956 0.950 . S
H981 C957 0.949 . S
H982 C959 0.950 . S
H983 C961 0.950 . S
C984 C985 1.349 . S
C984 C986 1.327 . S
C984 H1009 0.950 . S
C985 C984 1.349 . S
C985 C1001 1.349 . S
C986 C984 1.327 . S
C986 C1005 1.429 . S
C986 H1010 0.950 . S
C987 C1004 1.574 . S
C987 C1006 1.368 . S
C987 H1011 0.949 . S
H988 C992 0.949 . S
C989 C990 1.349 . S
C989 C991 1.327 . S
C989 H1012 0.950 . S
C990 C989 1.349 . S
C990 C1002 1.349 . S
C991 C989 1.327 . S
C991 C1007 1.429 . S
C991 H1013 0.950 . S
C992 H988 0.949 . S
C992 C1000 1.574 . S
C992 C1008 1.368 . S
H993 C1001 0.950 . S
H994 C999 0.950 . S
H995 C1000 0.949 . S
H996 C1002 0.950 . S
H997 C1003 0.950 . S
H998 C1004 0.949 . S
C999 H994 0.950 . S
C999 C1001 1.327 . S
C999 C1005 1.429 . S
C1000 C992 1.574 . S
C1000 H995 0.949 . S
C1000 C1006 1.368 . S
C1001 C985 1.349 . S
C1001 H993 0.950 . S
C1001 C999 1.327 . S
C1002 C990 1.349 . S
C1002 H996 0.950 . S
C1002 C1003 1.327 . S
C1003 H997 0.950 . S
C1003 C1002 1.327 . S
C1003 C1007 1.429 . S
C1004 C987 1.574 . S
C1004 H998 0.949 . S
C1004 C1008 1.368 . S
C1005 C986 1.429 . S
C1005 C999 1.429 . S
C1005 C1006 1.523 . S
C1006 C987 1.368 . S
C1006 C1000 1.368 . S
C1006 C1005 1.523 . S
C1007 C991 1.429 . S
C1007 C1003 1.429 . S
C1007 C1008 1.523 . S
C1008 C992 1.368 . S
C1008 C1004 1.368 . S
C1008 C1007 1.523 . S
H1009 C984 0.950 . S
H1010 C986 0.950 . S
H1011 C987 0.949 . S
H1012 C989 0.950 . S
H1013 C991 0.950 . S
C1014 C1015 1.349 . S
C1014 C1016 1.327 . S
C1014 H1039 0.950 . S
C1015 C1014 1.349 . S
C1015 C1031 1.349 . S
C1016 C1014 1.327 . S
C1016 C1035 1.429 . S
C1016 H1040 0.950 . S
C1017 C1034 1.574 . S
C1017 C1036 1.368 . S
C1017 H1041 0.949 . S
H1018 C1022 0.949 . S
C1019 C1020 1.349 . S
C1019 C1021 1.327 . S
C1019 H1042 0.950 . S
C1020 C1019 1.349 . S
C1020 C1032 1.349 . S
C1021 C1019 1.327 . S
C1021 C1037 1.429 . S
C1021 H1043 0.950 . S
C1022 H1018 0.949 . S
C1022 C1030 1.574 . S
C1022 C1038 1.368 . S
H1023 C1031 0.950 . S
H1024 C1029 0.950 . S
H1025 C1030 0.949 . S
H1026 C1032 0.950 . S
H1027 C1033 0.950 . S
H1028 C1034 0.949 . S
C1029 H1024 0.950 . S
C1029 C1031 1.327 . S
C1029 C1035 1.429 . S
C1030 C1022 1.574 . S
C1030 H1025 0.949 . S
C1030 C1036 1.368 . S
C1031 C1015 1.349 . S
C1031 H1023 0.950 . S
C1031 C1029 1.327 . S
C1032 C1020 1.349 . S
C1032 H1026 0.950 . S
C1032 C1033 1.327 . S
C1033 H1027 0.950 . S
C1033 C1032 1.327 . S
C1033 C1037 1.429 . S
C1034 C1017 1.574 . S
C1034 H1028 0.949 . S
C1034 C1038 1.368 . S
C1035 C1016 1.429 . S
C1035 C1029 1.429 . S
C1035 C1036 1.523 . S
C1036 C1017 1.368 . S
C1036 C1030 1.368 . S
C1036 C1035 1.523 . S
C1037 C1021 1.429 . S
C1037 C1033 1.429 . S
C1037 C1038 1.523 . S
C1038 C1022 1.368 . S
C1038 C1034 1.368 . S
C1038 C1037 1.523 . S
H1039 C1014 0.950 . S
H1040 C1016 0.950 . S
H1041 C1017 0.949 . S
H1042 C1019 0.950 . S
H1043 C1021 0.950 . S
C1044 C1045 1.349 . S
C1044 C1046 1.327 . S
C1044 H1069 0.950 . S
C1045 C1044 1.349 . S
C1045 C1061 1.349 . S
C1046 C1044 1.327 . S
C1046 C1065 1.427 1_455 S
C1046 H1070 0.950 1_455 S
C1047 C1064 1.574 . S
C1047 C1066 1.368 . S
C1047 H1071 0.949 . S
H1048 C1052 0.949 . S
C1049 C1050 1.349 . S
C1049 C1051 1.327 . S
C1049 H1072 0.950 . S
C1050 C1049 1.349 . S
C1050 C1062 1.349 . S
C1051 C1049 1.327 . S
C1051 C1067 1.429 . S
C1051 H1073 0.950 . S
C1052 H1048 0.949 . S
C1052 C1060 1.574 . S
C1052 C1068 1.368 . S
H1053 C1061 0.950 . S
H1054 C1059 0.950 . S
H1055 C1060 0.949 . S
H1056 C1062 0.950 . S
H1057 C1063 0.950 . S
H1058 C1064 0.949 . S
C1059 H1054 0.950 . S
C1059 C1061 1.327 . S
C1059 C1065 1.382 1_455 S
C1060 C1052 1.574 . S
C1060 H1055 0.949 . S
C1060 C1066 1.368 . S
C1061 C1045 1.349 . S
C1061 H1053 0.950 . S
C1061 C1059 1.327 . S
C1062 C1050 1.349 . S
C1062 H1056 0.950 . S
C1062 C1063 1.327 . S
C1063 H1057 0.950 . S
C1063 C1062 1.327 . S
C1063 C1067 1.429 . S
C1064 C1047 1.574 . S
C1064 H1058 0.949 . S
C1064 C1068 1.368 . S
C1065 C1046 1.427 1_655 S
C1065 C1059 1.382 1_655 S
C1065 C1066 1.570 . S
C1066 C1047 1.368 . S
C1066 C1060 1.368 . S
C1066 C1065 1.570 . S
C1067 C1051 1.429 . S
C1067 C1063 1.429 . S
C1067 C1068 1.523 . S
C1068 C1052 1.368 . S
C1068 C1064 1.368 . S
C1068 C1067 1.523 . S
H1069 C1044 0.950 . S
H1070 C1046 0.950 1_655 S
H1071 C1047 0.949 . S
H1072 C1049 0.950 . S
H1073 C1051 0.950 . S
C1074 C1075 1.349 . S
C1074 C1076 1.327 . S
C1074 H1099 0.950 . S
C1075 C1074 1.349 . S
C1075 C1091 1.349 . S
C1076 C1074 1.327 . S
C1076 C1095 1.429 . S
C1076 H1100 0.950 . S
C1077 C1094 1.574 . S
C1077 C1096 1.368 . S
C1077 H1101 0.949 . S
H1078 C1082 0.949 . S
C1079 C1080 1.349 . S
C1079 C1081 1.327 . S
C1079 H1102 0.950 . S
C1080 C1079 1.349 . S
C1080 C1092 1.349 . S
C1081 C1079 1.327 . S
C1081 C1097 1.429 . S
C1081 H1103 0.950 . S
C1082 H1078 0.949 . S
C1082 C1090 1.574 . S
C1082 C1098 1.368 . S
H1083 C1091 0.950 . S
H1084 C1089 0.950 . S
H1085 C1090 0.949 . S
H1086 C1092 0.950 . S
H1087 C1093 0.950 . S
H1088 C1094 0.949 . S
C1089 H1084 0.950 . S
C1089 C1091 1.327 . S
C1089 C1095 1.429 . S
C1090 C1082 1.574 . S
C1090 H1085 0.949 . S
C1090 C1096 1.368 . S
C1091 C1075 1.349 . S
C1091 H1083 0.950 . S
C1091 C1089 1.327 . S
C1092 C1080 1.349 . S
C1092 H1086 0.950 . S
C1092 C1093 1.327 . S
C1093 H1087 0.950 . S
C1093 C1092 1.327 . S
C1093 C1097 1.429 . S
C1094 C1077 1.574 . S
C1094 H1088 0.949 . S
C1094 C1098 1.368 . S
C1095 C1076 1.429 . S
C1095 C1089 1.429 . S
C1095 C1096 1.523 . S
C1096 C1077 1.368 . S
C1096 C1090 1.368 . S
C1096 C1095 1.523 . S
C1097 C1081 1.429 . S
C1097 C1093 1.429 . S
C1097 C1098 1.523 . S
C1098 C1082 1.368 . S
C1098 C1094 1.368 . S
C1098 C1097 1.523 . S
H1099 C1074 0.950 . S
H1100 C1076 0.950 . S
H1101 C1077 0.949 . S
H1102 C1079 0.950 . S
H1103 C1081 0.950 . S
C1104 C1105 1.349 . S
C1104 C1106 1.327 . S
C1104 H1129 0.950 . S
C1105 C1104 1.349 . S
C1105 C1121 1.349 . S
C1106 C1104 1.327 . S
C1106 C1125 1.429 . S
C1106 H1130 0.950 . S
C1107 C1124 1.574 . S
C1107 C1126 1.368 . S
C1107 H1131 0.949 . S
H1108 C1112 0.949 . S
C1109 C1110 1.349 . S
C1109 C1111 1.327 . S
C1109 H1132 0.950 . S
C1110 C1109 1.349 . S
C1110 C1122 1.349 . S
C1111 C1109 1.327 . S
C1111 C1127 1.429 . S
C1111 H1133 0.950 . S
C1112 H1108 0.949 . S
C1112 C1120 1.574 . S
C1112 C1128 1.368 . S
H1113 C1121 0.950 . S
H1114 C1119 0.950 . S
H1115 C1120 0.949 . S
H1116 C1122 0.950 . S
H1117 C1123 0.950 . S
H1118 C1124 0.949 . S
C1119 H1114 0.950 . S
C1119 C1121 1.327 . S
C1119 C1125 1.429 . S
C1120 C1112 1.574 . S
C1120 H1115 0.949 . S
C1120 C1126 1.368 . S
C1121 C1105 1.349 . S
C1121 H1113 0.950 . S
C1121 C1119 1.327 . S
C1122 C1110 1.349 . S
C1122 H1116 0.950 . S
C1122 C1123 1.327 . S
C1123 H1117 0.950 . S
C1123 C1122 1.327 . S
C1123 C1127 1.429 . S
C1124 C1107 1.574 . S
C1124 H1118 0.949 . S
C1124 C1128 1.368 . S
C1125 C1106 1.429 . S
C1125 C1119 1.429 . S
C1125 C1126 1.523 . S
C1126 C1107 1.368 . S
C1126 C1120 1.368 . S
C1126 C1125 1.523 . S
C1127 C1111 1.429 . S
C1127 C1123 1.429 . S
C1127 C1128 1.523 . S
C1128 C1112 1.368 . S
C1128 C1124 1.368 . S
C1128 C1127 1.523 . S
H1129 C1104 0.950 . S
H1130 C1106 0.950 . S
H1131 C1107 0.949 . S
H1132 C1109 0.950 . S
H1133 C1111 0.950 . S
C1134 C1135 1.349 1_565 S
C1134 C1136 1.327 . S
C1134 H1159 0.950 . S
C1135 C1134 1.349 1_545 S
C1135 C1151 1.349 . S
C1136 C1134 1.327 . S
C1136 C1155 1.439 . S
C1136 H1160 0.950 . S
C1137 C1154 1.574 1_545 S
C1137 C1156 1.368 1_545 S
C1137 H1161 0.949 . S
H1138 C1142 0.949 . S
C1139 C1140 1.349 . S
C1139 C1141 1.327 . S
C1139 H1162 0.950 . S
C1140 C1139 1.349 . S
C1140 C1152 1.349 . S
C1141 C1139 1.327 . S
C1141 C1157 1.429 . S
C1141 H1163 0.950 . S
C1142 H1138 0.949 . S
C1142 C1150 1.574 . S
C1142 C1158 1.368 . S
H1143 C1151 0.950 . S
H1144 C1149 0.950 . S
H1145 C1150 0.949 . S
H1146 C1152 0.950 . S
H1147 C1153 0.950 . S
H1148 C1154 0.949 1_545 S
C1149 H1144 0.950 . S
C1149 C1151 1.327 . S
C1149 C1155 1.370 1_545 S
C1150 C1142 1.574 . S
C1150 H1145 0.949 . S
C1150 C1156 1.368 . S
C1151 C1135 1.349 . S
C1151 H1143 0.950 . S
C1151 C1149 1.327 . S
C1152 C1140 1.349 . S
C1152 H1146 0.950 . S
C1152 C1153 1.327 . S
C1153 H1147 0.950 . S
C1153 C1152 1.327 . S
C1153 C1157 1.429 . S
C1154 C1137 1.574 1_565 S
C1154 H1148 0.949 1_565 S
C1154 C1158 1.368 . S
C1155 C1136 1.439 . S
C1155 C1149 1.370 1_565 S
C1155 C1156 1.570 . S
C1156 C1137 1.368 1_565 S
C1156 C1150 1.368 . S
C1156 C1155 1.570 . S
C1157 C1141 1.429 . S
C1157 C1153 1.429 . S
C1157 C1158 1.523 . S
C1158 C1142 1.368 . S
C1158 C1154 1.368 . S
C1158 C1157 1.523 . S
H1159 C1134 0.950 . S
H1160 C1136 0.950 . S
H1161 C1137 0.949 . S
H1162 C1139 0.950 . S
H1163 C1141 0.950 . S
C1164 C1165 1.349 . S
C1164 C1166 1.327 . S
C1164 H1189 0.950 . S
C1165 C1164 1.349 . S
C1165 C1181 1.349 . S
C1166 C1164 1.327 . S
C1166 C1185 1.429 . S
C1166 H1190 0.950 . S
C1167 C1184 1.574 . S
C1167 C1186 1.368 . S
C1167 H1191 0.949 . S
H1168 C1172 0.949 . S
C1169 C1170 1.349 . S
C1169 C1171 1.327 . S
C1169 H1192 0.950 . S
C1170 C1169 1.349 . S
C1170 C1182 1.349 . S
C1171 C1169 1.327 . S
C1171 C1187 1.429 . S
C1171 H1193 0.950 . S
C1172 H1168 0.949 . S
C1172 C1180 1.574 . S
C1172 C1188 1.368 . S
H1173 C1181 0.950 . S
H1174 C1179 0.950 . S
H1175 C1180 0.949 . S
H1176 C1182 0.950 . S
H1177 C1183 0.950 . S
H1178 C1184 0.949 . S
C1179 H1174 0.950 . S
C1179 C1181 1.327 . S
C1179 C1185 1.429 . S
C1180 C1172 1.574 . S
C1180 H1175 0.949 . S
C1180 C1186 1.368 . S
C1181 C1165 1.349 . S
C1181 H1173 0.950 . S
C1181 C1179 1.327 . S
C1182 C1170 1.349 . S
C1182 H1176 0.950 . S
C1182 C1183 1.327 . S
C1183 H1177 0.950 . S
C1183 C1182 1.327 . S
C1183 C1187 1.429 . S
C1184 C1167 1.574 . S
C1184 H1178 0.949 . S
C1184 C1188 1.368 . S
C1185 C1166 1.429 . S
C1185 C1179 1.429 . S
C1185 C1186 1.523 . S
C1186 C1167 1.368 . S
C1186 C1180 1.368 . S
C1186 C1185 1.523 . S
C1187 C1171 1.429 . S
C1187 C1183 1.429 . S
C1187 C1188 1.523 . S
C1188 C1172 1.368 . S
C1188 C1184 1.368 . S
C1188 C1187 1.523 . S
H1189 C1164 0.950 . S
H1190 C1166 0.950 . S
H1191 C1167 0.949 . S
H1192 C1169 0.950 . S
H1193 C1171 0.950 . S
C1194 C1195 1.349 . S
C1194 C1196 1.327 . S
C1194 H1219 0.950 . S
C1195 C1194 1.349 . S
C1195 C1211 1.349 . S
C1196 C1194 1.327 . S
C1196 C1215 1.429 . S
C1196 H1220 0.950 . S
C1197 C1214 1.574 . S
C1197 C1216 1.368 . S
C1197 H1221 0.949 . S
H1198 C1202 0.949 . S
C1199 C1200 1.349 . S
C1199 C1201 1.327 . S
C1199 H1222 0.950 . S
C1200 C1199 1.349 . S
C1200 C1212 1.349 . S
C1201 C1199 1.327 . S
C1201 C1217 1.429 . S
C1201 H1223 0.950 . S
C1202 H1198 0.949 . S
C1202 C1210 1.574 . S
C1202 C1218 1.368 . S
H1203 C1211 0.950 . S
H1204 C1209 0.950 . S
H1205 C1210 0.949 . S
H1206 C1212 0.950 . S
H1207 C1213 0.950 . S
H1208 C1214 0.949 . S
C1209 H1204 0.950 . S
C1209 C1211 1.327 . S
C1209 C1215 1.429 . S
C1210 C1202 1.574 . S
C1210 H1205 0.949 . S
C1210 C1216 1.368 . S
C1211 C1195 1.349 . S
C1211 H1203 0.950 . S
C1211 C1209 1.327 . S
C1212 C1200 1.349 . S
C1212 H1206 0.950 . S
C1212 C1213 1.327 . S
C1213 H1207 0.950 . S
C1213 C1212 1.327 . S
C1213 C1217 1.429 . S
C1214 C1197 1.574 . S
C1214 H1208 0.949 . S
C1214 C1218 1.368 . S
C1215 C1196 1.429 . S
C1215 C1209 1.429 . S
C1215 C1216 1.523 . S
C1216 C1197 1.368 . S
C1216 C1210 1.368 . S
C1216 C1215 1.523 . S
C1217 C1201 1.429 . S
C1217 C1213 1.429 . S
C1217 C1218 1.523 . S
C1218 C1202 1.368 . S
C1218 C1214 1.368 . S
C1218 C1217 1.523 . S
H1219 C1194 0.950 . S
H1220 C1196 0.950 . S
H1221 C1197 0.949 . S
H1222 C1199 0.950 . S
H1223 C1201 0.950 . S
C1224 C1225 1.349 . S
C1224 C1226 1.327 . S
C1224 H1249 0.950 . S
C1225 C1224 1.349 . S
C1225 C1241 1.349 . S
C1226 C1224 1.327 . S
C1226 C1245 1.429 . S
C1226 H1250 0.950 . S
C1227 C1244 1.574 . S
C1227 C1246 1.368 . S
C1227 H1251 0.949 . S
H1228 C1232 0.949 . S
C1229 C1230 1.349 . S
C1229 C1231 1.327 . S
C1229 H1252 0.950 . S
C1230 C1229 1.349 . S
C1230 C1242 1.349 . S
C1231 C1229 1.327 . S
C1231 C1247 1.429 . S
C1231 H1253 0.950 . S
C1232 H1228 0.949 . S
C1232 C1240 1.574 . S
C1232 C1248 1.368 . S
H1233 C1241 0.950 . S
H1234 C1239 0.950 . S
H1235 C1240 0.949 . S
H1236 C1242 0.950 . S
H1237 C1243 0.950 . S
H1238 C1244 0.949 . S
C1239 H1234 0.950 . S
C1239 C1241 1.327 . S
C1239 C1245 1.429 . S
C1240 C1232 1.574 . S
C1240 H1235 0.949 . S
C1240 C1246 1.368 . S
C1241 C1225 1.349 . S
C1241 H1233 0.950 . S
C1241 C1239 1.327 . S
C1242 C1230 1.349 . S
C1242 H1236 0.950 . S
C1242 C1243 1.327 . S
C1243 H1237 0.950 . S
C1243 C1242 1.327 . S
C1243 C1247 1.429 . S
C1244 C1227 1.574 . S
C1244 H1238 0.949 . S
C1244 C1248 1.368 . S
C1245 C1226 1.429 . S
C1245 C1239 1.429 . S
C1245 C1246 1.523 . S
C1246 C1227 1.368 . S
C1246 C1240 1.368 . S
C1246 C1245 1.523 . S
C1247 C1231 1.429 . S
C1247 C1243 1.429 . S
C1247 C1248 1.523 . S
C1248 C1232 1.368 . S
C1248 C1244 1.368 . S
C1248 C1247 1.523 . S
H1249 C1224 0.950 . S
H1250 C1226 0.950 . S
H1251 C1227 0.949 . S
H1252 C1229 0.950 . S
H1253 C1231 0.950 . S
C1254 C1255 1.349 . S
C1254 C1256 1.327 . S
C1254 H1279 0.950 . S
C1255 C1254 1.349 . S
C1255 C1271 1.349 . S
C1256 C1254 1.327 . S
C1256 C1275 1.429 . S
C1256 H1280 0.950 . S
C1257 C1274 1.574 . S
C1257 C1276 1.368 . S
C1257 H1281 0.949 . S
H1258 C1262 0.949 . S
C1259 C1260 1.349 . S
C1259 C1261 1.327 . S
C1259 H1282 0.950 . S
C1260 C1259 1.349 . S
C1260 C1272 1.349 . S
C1261 C1259 1.327 . S
C1261 C1277 1.429 . S
C1261 H1283 0.950 . S
C1262 H1258 0.949 . S
C1262 C1270 1.574 . S
C1262 C1278 1.368 . S
H1263 C1271 0.950 . S
H1264 C1269 0.950 . S
H1265 C1270 0.949 . S
H1266 C1272 0.950 . S
H1267 C1273 0.950 . S
H1268 C1274 0.949 . S
C1269 H1264 0.950 . S
C1269 C1271 1.327 . S
C1269 C1275 1.429 . S
C1270 C1262 1.574 . S
C1270 H1265 0.949 . S
C1270 C1276 1.368 . S
C1271 C1255 1.349 . S
C1271 H1263 0.950 . S
C1271 C1269 1.327 . S
C1272 C1260 1.349 . S
C1272 H1266 0.950 . S
C1272 C1273 1.327 . S
C1273 H1267 0.950 . S
C1273 C1272 1.327 . S
C1273 C1277 1.429 . S
C1274 C1257 1.574 . S
C1274 H1268 0.949 . S
C1274 C1278 1.368 . S
C1275 C1256 1.429 . S
C1275 C1269 1.429 . S
C1275 C1276 1.523 . S
C1276 C1257 1.368 . S
C1276 C1270 1.368 . S
C1276 C1275 1.523 . S
C1277 C1261 1.429 . S
C1277 C1273 1.429 . S
C1277 C1278 1.523 . S
C1278 C1262 1.368 . S
C1278 C1274 1.368 . S
C1278 C1277 1.523 . S
H1279 C1254 0.950 . S
H1280 C1256 0.950 . S
H1281 C1257 0.949 . S
H1282 C1259 0.950 . S
H1283 C1261 0.950 . S
C1284 C1285 1.349 . S
C1284 C1286 1.327 1_545 S
C1284 H1309 0.950 . S
C1285 C1284 1.349 . S
C1285 C1301 1.349 . S
C1286 C1284 1.327 1_565 S
C1286 C1305 1.434 . S
C1286 H1310 0.950 . S
C1287 C1304 1.574 . S
C1287 C1306 1.368 . S
C1287 H1311 0.949 1_565 S
H1288 C1292 0.949 . S
C1289 C1290 1.349 . S
C1289 C1291 1.327 . S
C1289 H1312 0.950 . S
C1290 C1289 1.349 . S
C1290 C1302 1.349 . S
C1291 C1289 1.327 . S
C1291 C1307 1.429 . S
C1291 H1313 0.950 . S
C1292 H1288 0.949 . S
C1292 C1300 1.574 . S
C1292 C1308 1.368 . S
H1293 C1301 0.950 . S
H1294 C1299 0.950 . S
H1295 C1300 0.949 . S
H1296 C1302 0.950 . S
H1297 C1303 0.950 . S
H1298 C1304 0.949 . S
C1299 H1294 0.950 . S
C1299 C1301 1.327 . S
C1299 C1305 1.427 1_545 S
C1300 C1292 1.574 . S
C1300 H1295 0.949 . S
C1300 C1306 1.368 . S
C1301 C1285 1.349 . S
C1301 H1293 0.950 . S
C1301 C1299 1.327 . S
C1302 C1290 1.349 . S
C1302 H1296 0.950 . S
C1302 C1303 1.327 . S
C1303 H1297 0.950 . S
C1303 C1302 1.327 . S
C1303 C1307 1.429 . S
C1304 C1287 1.574 . S
C1304 H1298 0.949 . S
C1304 C1308 1.368 . S
C1305 C1286 1.434 . S
C1305 C1299 1.427 1_565 S
C1305 C1306 1.524 . S
C1306 C1287 1.368 . S
C1306 C1300 1.368 . S
C1306 C1305 1.524 . S
C1307 C1291 1.429 . S
C1307 C1303 1.429 . S
C1307 C1308 1.523 . S
C1308 C1292 1.368 . S
C1308 C1304 1.368 . S
C1308 C1307 1.523 . S
H1309 C1284 0.950 . S
H1310 C1286 0.950 . S
H1311 C1287 0.949 1_545 S
H1312 C1289 0.950 . S
H1313 C1291 0.950 . S
C1314 C1315 1.349 . S
C1314 C1316 1.327 . S
C1314 H1339 0.950 . S
C1315 C1314 1.349 . S
C1315 C1331 1.349 . S
C1316 C1314 1.327 . S
C1316 C1335 1.429 . S
C1316 H1340 0.950 . S
C1317 C1334 1.574 . S
C1317 C1336 1.368 . S
C1317 H1341 0.949 . S
H1318 C1322 0.949 . S
C1319 C1320 1.349 . S
C1319 C1321 1.327 . S
C1319 H1342 0.950 . S
C1320 C1319 1.349 . S
C1320 C1332 1.349 . S
C1321 C1319 1.327 . S
C1321 C1337 1.429 . S
C1321 H1343 0.950 . S
C1322 H1318 0.949 . S
C1322 C1330 1.574 . S
C1322 C1338 1.368 . S
H1323 C1331 0.950 . S
H1324 C1329 0.950 . S
H1325 C1330 0.949 . S
H1326 C1332 0.950 . S
H1327 C1333 0.950 . S
H1328 C1334 0.949 . S
C1329 H1324 0.950 . S
C1329 C1331 1.327 . S
C1329 C1335 1.429 . S
C1330 C1322 1.574 . S
C1330 H1325 0.949 . S
C1330 C1336 1.368 . S
C1331 C1315 1.349 . S
C1331 H1323 0.950 . S
C1331 C1329 1.327 . S
C1332 C1320 1.349 . S
C1332 H1326 0.950 . S
C1332 C1333 1.327 . S
C1333 H1327 0.950 . S
C1333 C1332 1.327 . S
C1333 C1337 1.429 . S
C1334 C1317 1.574 . S
C1334 H1328 0.949 . S
C1334 C1338 1.368 . S
C1335 C1316 1.429 . S
C1335 C1329 1.429 . S
C1335 C1336 1.523 . S
C1336 C1317 1.368 . S
C1336 C1330 1.368 . S
C1336 C1335 1.523 . S
C1337 C1321 1.429 . S
C1337 C1333 1.429 . S
C1337 C1338 1.523 . S
C1338 C1322 1.368 . S
C1338 C1334 1.368 . S
C1338 C1337 1.523 . S
H1339 C1314 0.950 . S
H1340 C1316 0.950 . S
H1341 C1317 0.949 . S
H1342 C1319 0.950 . S
H1343 C1321 0.950 . S
C1344 C1345 1.349 . S
C1344 C1346 1.327 . S
C1344 H1369 0.950 . S
C1345 C1344 1.349 . S
C1345 C1361 1.349 . S
C1346 C1344 1.327 . S
C1346 C1365 1.418 1_455 S
C1346 H1370 0.950 . S
C1347 C1364 1.574 . S
C1347 C1366 1.368 . S
C1347 H1371 0.949 . S
H1348 C1352 0.949 . S
C1349 C1350 1.349 . S
C1349 C1351 1.327 . S
C1349 H1372 0.950 . S
C1350 C1349 1.349 . S
C1350 C1362 1.349 . S
C1351 C1349 1.327 . S
C1351 C1367 1.429 . S
C1351 H1373 0.950 . S
C1352 H1348 0.949 . S
C1352 C1360 1.574 . S
C1352 C1368 1.368 . S
H1353 C1361 0.950 . S
H1354 C1359 0.950 . S
H1355 C1360 0.949 1_455 S
H1356 C1362 0.950 . S
H1357 C1363 0.950 . S
H1358 C1364 0.949 . S
C1359 H1354 0.950 . S
C1359 C1361 1.327 1_655 S
C1359 C1365 1.442 . S
C1360 C1352 1.574 . S
C1360 H1355 0.949 1_655 S
C1360 C1366 1.368 . S
C1361 C1345 1.349 . S
C1361 H1353 0.950 . S
C1361 C1359 1.327 1_455 S
C1362 C1350 1.349 . S
C1362 H1356 0.950 . S
C1362 C1363 1.327 . S
C1363 H1357 0.950 . S
C1363 C1362 1.327 . S
C1363 C1367 1.429 . S
C1364 C1347 1.574 . S
C1364 H1358 0.949 . S
C1364 C1368 1.368 . S
C1365 C1346 1.418 1_655 S
C1365 C1359 1.442 . S
C1365 C1366 1.524 . S
C1366 C1347 1.368 . S
C1366 C1360 1.368 . S
C1366 C1365 1.524 . S
C1367 C1351 1.429 . S
C1367 C1363 1.429 . S
C1367 C1368 1.523 . S
C1368 C1352 1.368 . S
C1368 C1364 1.368 . S
C1368 C1367 1.523 . S
H1369 C1344 0.950 . S
H1370 C1346 0.950 . S
H1371 C1347 0.949 . S
H1372 C1349 0.950 . S
H1373 C1351 0.950 . S
C1374 C1375 1.349 . S
C1374 C1376 1.327 . S
C1374 H1399 0.950 . S
C1375 C1374 1.349 . S
C1375 C1391 1.349 . S
C1376 C1374 1.327 . S
C1376 C1395 1.429 . S
C1376 H1400 0.950 . S
C1377 C1394 1.574 . S
C1377 C1396 1.368 . S
C1377 H1401 0.949 . S
H1378 C1382 0.949 . S
C1379 C1380 1.349 . S
C1379 C1381 1.327 . S
C1379 H1402 0.950 . S
C1380 C1379 1.349 . S
C1380 C1392 1.349 . S
C1381 C1379 1.327 . S
C1381 C1397 1.429 . S
C1381 H1403 0.950 . S
C1382 H1378 0.949 . S
C1382 C1390 1.574 . S
C1382 C1398 1.368 . S
H1383 C1391 0.950 . S
H1384 C1389 0.950 . S
H1385 C1390 0.949 . S
H1386 C1392 0.950 . S
H1387 C1393 0.950 . S
H1388 C1394 0.949 . S
C1389 H1384 0.950 . S
C1389 C1391 1.327 . S
C1389 C1395 1.429 . S
C1390 C1382 1.574 . S
C1390 H1385 0.949 . S
C1390 C1396 1.368 . S
C1391 C1375 1.349 . S
C1391 H1383 0.950 . S
C1391 C1389 1.327 . S
C1392 C1380 1.349 . S
C1392 H1386 0.950 . S
C1392 C1393 1.327 . S
C1393 H1387 0.950 . S
C1393 C1392 1.327 . S
C1393 C1397 1.429 . S
C1394 C1377 1.574 . S
C1394 H1388 0.949 . S
C1394 C1398 1.368 . S
C1395 C1376 1.429 . S
C1395 C1389 1.429 . S
C1395 C1396 1.523 . S
C1396 C1377 1.368 . S
C1396 C1390 1.368 . S
C1396 C1395 1.523 . S
C1397 C1381 1.429 . S
C1397 C1393 1.429 . S
C1397 C1398 1.523 . S
C1398 C1382 1.368 . S
C1398 C1394 1.368 . S
C1398 C1397 1.523 . S
H1399 C1374 0.950 . S
H1400 C1376 0.950 . S
H1401 C1377 0.949 . S
H1402 C1379 0.950 . S
H1403 C1381 0.950 . S
C1404 C1405 1.349 . S
C1404 C1406 1.327 . S
C1404 H1429 0.950 . S
C1405 C1404 1.349 . S
C1405 C1421 1.349 . S
C1406 C1404 1.327 . S
C1406 C1425 1.429 . S
C1406 H1430 0.950 . S
C1407 C1424 1.574 . S
C1407 C1426 1.368 . S
C1407 H1431 0.949 . S
H1408 C1412 0.949 . S
C1409 C1410 1.349 . S
C1409 C1411 1.327 . S
C1409 H1432 0.950 . S
C1410 C1409 1.349 . S
C1410 C1422 1.349 . S
C1411 C1409 1.327 . S
C1411 C1427 1.429 . S
C1411 H1433 0.950 . S
C1412 H1408 0.949 . S
C1412 C1420 1.574 . S
C1412 C1428 1.368 . S
H1413 C1421 0.950 . S
H1414 C1419 0.950 . S
H1415 C1420 0.949 . S
H1416 C1422 0.950 . S
H1417 C1423 0.950 . S
H1418 C1424 0.949 . S
C1419 H1414 0.950 . S
C1419 C1421 1.327 . S
C1419 C1425 1.429 . S
C1420 C1412 1.574 . S
C1420 H1415 0.949 . S
C1420 C1426 1.368 . S
C1421 C1405 1.349 . S
C1421 H1413 0.950 . S
C1421 C1419 1.327 . S
C1422 C1410 1.349 . S
C1422 H1416 0.950 . S
C1422 C1423 1.327 . S
C1423 H1417 0.950 . S
C1423 C1422 1.327 . S
C1423 C1427 1.429 . S
C1424 C1407 1.574 . S
C1424 H1418 0.949 . S
C1424 C1428 1.368 . S
C1425 C1406 1.429 . S
C1425 C1419 1.429 . S
C1425 C1426 1.523 . S
C1426 C1407 1.368 . S
C1426 C1420 1.368 . S
C1426 C1425 1.523 . S
C1427 C1411 1.429 . S
C1427 C1423 1.429 . S
C1427 C1428 1.523 . S
C1428 C1412 1.368 . S
C1428 C1424 1.368 . S
C1428 C1427 1.523 . S
H1429 C1404 0.950 . S
H1430 C1406 0.950 . S
H1431 C1407 0.949 . S
H1432 C1409 0.950 . S
H1433 C1411 0.950 . S
C1434 C1435 1.349 . S
C1434 C1436 1.327 . S
C1434 H1459 0.950 . S
C1435 C1434 1.349 . S
C1435 C1451 1.349 . S
C1436 C1434 1.327 . S
C1436 C1455 1.429 . S
C1436 H1460 0.950 . S
C1437 C1454 1.574 . S
C1437 C1456 1.368 . S
C1437 H1461 0.949 . S
H1438 C1442 0.942 1_565 S
C1439 C1440 1.349 . S
C1439 C1441 1.327 . S
C1439 H1462 0.950 . S
C1440 C1439 1.349 . S
C1440 C1452 1.349 . S
C1441 C1439 1.327 . S
C1441 C1457 1.429 . S
C1441 H1463 0.950 1_565 S
C1442 H1438 0.942 1_545 S
C1442 C1450 1.574 . S
C1442 C1458 1.368 . S
H1443 C1451 0.950 . S
H1444 C1449 0.950 . S
H1445 C1450 0.949 . S
H1446 C1452 0.950 . S
H1447 C1453 0.950 . S
H1448 C1454 0.949 . S
C1449 H1444 0.950 . S
C1449 C1451 1.327 . S
C1449 C1455 1.429 . S
C1450 C1442 1.574 . S
C1450 H1445 0.949 . S
C1450 C1456 1.368 . S
C1451 C1435 1.349 . S
C1451 H1443 0.950 . S
C1451 C1449 1.327 . S
C1452 C1440 1.349 . S
C1452 H1446 0.950 . S
C1452 C1453 1.327 . S
C1453 H1447 0.950 . S
C1453 C1452 1.327 . S
C1453 C1457 1.429 . S
C1454 C1437 1.574 . S
C1454 H1448 0.949 . S
C1454 C1458 1.368 . S
C1455 C1436 1.429 . S
C1455 C1449 1.429 . S
C1455 C1456 1.523 . S
C1456 C1437 1.368 . S
C1456 C1450 1.368 . S
C1456 C1455 1.523 . S
C1457 C1441 1.429 . S
C1457 C1453 1.429 . S
C1457 C1458 1.523 1_565 S
C1458 C1442 1.368 . S
C1458 C1454 1.368 . S
C1458 C1457 1.523 1_545 S
H1459 C1434 0.950 . S
H1460 C1436 0.950 . S
H1461 C1437 0.949 . S
H1462 C1439 0.950 . S
H1463 C1441 0.950 1_545 S
C1464 C1465 1.349 . S
C1464 C1466 1.327 . S
C1464 H1489 0.950 . S
C1465 C1464 1.349 . S
C1465 C1481 1.349 . S
C1466 C1464 1.327 . S
C1466 C1485 1.429 . S
C1466 H1490 0.950 . S
C1467 C1484 1.574 . S
C1467 C1486 1.368 . S
C1467 H1491 0.949 . S
H1468 C1472 0.949 . S
C1469 C1470 1.349 . S
C1469 C1471 1.327 . S
C1469 H1492 0.950 . S
C1470 C1469 1.349 . S
C1470 C1482 1.349 . S
C1471 C1469 1.327 . S
C1471 C1487 1.429 . S
C1471 H1493 0.950 . S
C1472 H1468 0.949 . S
C1472 C1480 1.574 . S
C1472 C1488 1.368 . S
H1473 C1481 0.950 . S
H1474 C1479 0.950 . S
H1475 C1480 0.949 . S
H1476 C1482 0.950 . S
H1477 C1483 0.950 . S
H1478 C1484 0.949 . S
C1479 H1474 0.950 . S
C1479 C1481 1.327 . S
C1479 C1485 1.429 . S
C1480 C1472 1.574 . S
C1480 H1475 0.949 . S
C1480 C1486 1.368 . S
C1481 C1465 1.349 . S
C1481 H1473 0.950 . S
C1481 C1479 1.327 . S
C1482 C1470 1.349 . S
C1482 H1476 0.950 . S
C1482 C1483 1.327 . S
C1483 H1477 0.950 . S
C1483 C1482 1.327 . S
C1483 C1487 1.429 . S
C1484 C1467 1.574 . S
C1484 H1478 0.949 . S
C1484 C1488 1.368 . S
C1485 C1466 1.429 . S
C1485 C1479 1.429 . S
C1485 C1486 1.523 1_655 S
C1486 C1467 1.368 . S
C1486 C1480 1.368 . S
C1486 C1485 1.523 1_455 S
C1487 C1471 1.429 . S
C1487 C1483 1.429 . S
C1487 C1488 1.523 . S
C1488 C1472 1.368 . S
C1488 C1484 1.368 . S
C1488 C1487 1.523 . S
H1489 C1464 0.950 . S
H1490 C1466 0.950 . S
H1491 C1467 0.949 . S
H1492 C1469 0.950 . S
H1493 C1471 0.950 . S
C1494 C1495 1.349 . S
C1494 C1496 1.327 . S
C1494 H1519 0.950 . S
C1495 C1494 1.349 . S
C1495 C1511 1.349 . S
C1496 C1494 1.327 . S
C1496 C1515 1.429 . S
C1496 H1520 0.950 . S
C1497 C1514 1.574 . S
C1497 C1516 1.368 . S
C1497 H1521 0.949 . S
H1498 C1502 0.949 . S
C1499 C1500 1.349 . S
C1499 C1501 1.327 . S
C1499 H1522 0.950 . S
C1500 C1499 1.349 . S
C1500 C1512 1.349 . S
C1501 C1499 1.327 . S
C1501 C1517 1.429 . S
C1501 H1523 0.950 . S
C1502 H1498 0.949 . S
C1502 C1510 1.574 . S
C1502 C1518 1.368 . S
H1503 C1511 0.950 . S
H1504 C1509 0.950 . S
H1505 C1510 0.949 . S
H1506 C1512 0.950 . S
H1507 C1513 0.950 . S
H1508 C1514 0.949 . S
C1509 H1504 0.950 . S
C1509 C1511 1.327 . S
C1509 C1515 1.429 . S
C1510 C1502 1.574 . S
C1510 H1505 0.949 . S
C1510 C1516 1.368 . S
C1511 C1495 1.349 . S
C1511 H1503 0.950 . S
C1511 C1509 1.327 . S
C1512 C1500 1.349 . S
C1512 H1506 0.950 . S
C1512 C1513 1.327 . S
C1513 H1507 0.950 . S
C1513 C1512 1.327 . S
C1513 C1517 1.429 . S
C1514 C1497 1.574 . S
C1514 H1508 0.949 . S
C1514 C1518 1.368 . S
C1515 C1496 1.429 . S
C1515 C1509 1.429 . S
C1515 C1516 1.523 . S
C1516 C1497 1.368 . S
C1516 C1510 1.368 . S
C1516 C1515 1.523 . S
C1517 C1501 1.429 . S
C1517 C1513 1.429 . S
C1517 C1518 1.523 . S
C1518 C1502 1.368 . S
C1518 C1514 1.368 . S
C1518 C1517 1.523 . S
H1519 C1494 0.950 . S
H1520 C1496 0.950 . S
H1521 C1497 0.949 . S
H1522 C1499 0.950 . S
H1523 C1501 0.950 . S
C1524 C1525 1.349 . S
C1524 C1526 1.327 . S
C1524 H1549 0.950 . S
C1525 C1524 1.349 . S
C1525 C1541 1.349 . S
C1526 C1524 1.327 . S
C1526 C1545 1.429 . S
C1526 H1550 0.950 . S
C1527 C1544 1.574 . S
C1527 C1546 1.368 . S
C1527 H1551 0.949 . S
H1528 C1532 0.949 . S
C1529 C1530 1.349 . S
C1529 C1531 1.327 . S
C1529 H1552 0.950 . S
C1530 C1529 1.349 . S
C1530 C1542 1.349 . S
C1531 C1529 1.327 . S
C1531 C1547 1.429 . S
C1531 H1553 0.950 . S
C1532 H1528 0.949 . S
C1532 C1540 1.574 . S
C1532 C1548 1.368 . S
H1533 C1541 0.950 . S
H1534 C1539 0.950 1_545 S
H1535 C1540 0.949 1_565 S
H1536 C1542 0.950 . S
H1537 C1543 0.950 . S
H1538 C1544 0.949 . S
C1539 H1534 0.950 1_565 S
C1539 C1541 1.327 . S
C1539 C1545 1.429 . S
C1540 C1532 1.574 . S
C1540 H1535 0.949 1_545 S
C1540 C1546 1.368 . S
C1541 C1525 1.349 . S
C1541 H1533 0.950 . S
C1541 C1539 1.327 . S
C1542 C1530 1.349 . S
C1542 H1536 0.950 . S
C1542 C1543 1.327 . S
C1543 H1537 0.950 . S
C1543 C1542 1.327 . S
C1543 C1547 1.429 . S
C1544 C1527 1.574 . S
C1544 H1538 0.949 . S
C1544 C1548 1.368 . S
C1545 C1526 1.429 . S
C1545 C1539 1.429 . S
C1545 C1546 1.523 1_565 S
C1546 C1527 1.368 . S
C1546 C1540 1.368 . S
C1546 C1545 1.523 1_545 S
C1547 C1531 1.429 . S
C1547 C1543 1.429 . S
C1547 C1548 1.523 . S
C1548 C1532 1.368 . S
C1548 C1544 1.368 . S
C1548 C1547 1.523 . S
H1549 C1524 0.950 . S
H1550 C1526 0.950 . S
H1551 C1527 0.949 . S
H1552 C1529 0.950 . S
H1553 C1531 0.950 . S
C1554 C1555 1.349 . S
C1554 C1556 1.327 . S
C1554 H1579 0.950 . S
C1555 C1554 1.349 . S
C1555 C1571 1.349 . S
C1556 C1554 1.327 . S
C1556 C1575 1.429 . S
C1556 H1580 0.950 . S
C1557 C1574 1.574 . S
C1557 C1576 1.368 . S
C1557 H1581 0.949 . S
H1558 C1562 0.949 . S
C1559 C1560 1.349 . S
C1559 C1561 1.327 . S
C1559 H1582 0.950 . S
C1560 C1559 1.349 . S
C1560 C1572 1.349 . S
C1561 C1559 1.327 . S
C1561 C1577 1.429 . S
C1561 H1583 0.950 . S
C1562 H1558 0.949 . S
C1562 C1570 1.574 . S
C1562 C1578 1.368 . S
H1563 C1571 0.950 . S
H1564 C1569 0.950 . S
H1565 C1570 0.949 . S
H1566 C1572 0.950 . S
H1567 C1573 0.950 . S
H1568 C1574 0.949 . S
C1569 H1564 0.950 . S
C1569 C1571 1.327 . S
C1569 C1575 1.429 . S
C1570 C1562 1.574 . S
C1570 H1565 0.949 . S
C1570 C1576 1.368 . S
C1571 C1555 1.349 . S
C1571 H1563 0.950 . S
C1571 C1569 1.327 . S
C1572 C1560 1.349 . S
C1572 H1566 0.950 . S
C1572 C1573 1.327 . S
C1573 H1567 0.950 . S
C1573 C1572 1.327 . S
C1573 C1577 1.429 . S
C1574 C1557 1.574 . S
C1574 H1568 0.949 . S
C1574 C1578 1.368 . S
C1575 C1556 1.429 . S
C1575 C1569 1.429 . S
C1575 C1576 1.523 1_655 S
C1576 C1557 1.368 . S
C1576 C1570 1.368 . S
C1576 C1575 1.523 1_455 S
C1577 C1561 1.429 . S
C1577 C1573 1.429 . S
C1577 C1578 1.523 . S
C1578 C1562 1.368 . S
C1578 C1574 1.368 . S
C1578 C1577 1.523 . S
H1579 C1554 0.950 . S
H1580 C1556 0.950 . S
H1581 C1557 0.949 . S
H1582 C1559 0.950 . S
H1583 C1561 0.950 . S
C1584 C1585 1.349 . S
C1584 C1586 1.327 . S
C1584 H1609 0.950 . S
C1585 C1584 1.349 . S
C1585 C1601 1.349 . S
C1586 C1584 1.327 . S
C1586 C1605 1.429 . S
C1586 H1610 0.950 . S
C1587 C1604 1.574 1_554 S
C1587 C1606 1.368 . S
C1587 H1611 0.949 . S
H1588 C1592 0.985 . S
C1589 C1590 1.349 . S
C1589 C1591 1.327 . S
C1589 H1612 0.950 . S
C1590 C1589 1.349 . S
C1590 C1602 1.349 . S
C1591 C1589 1.327 . S
C1591 C1607 1.429 . S
C1591 H1613 0.950 . S
C1592 H1588 0.985 . S
C1592 C1600 1.574 1_556 S
C1592 C1608 1.368 . S
H1593 C1601 0.950 . S
H1594 C1599 0.950 . S
H1595 C1600 0.949 . S
H1596 C1602 0.987 . S
H1597 C1603 0.977 . S
H1598 C1604 0.949 . S
C1599 H1594 0.950 . S
C1599 C1601 1.327 . S
C1599 C1605 1.429 . S
C1600 C1592 1.574 1_554 S
C1600 H1595 0.949 . S
C1600 C1606 1.368 . S
C1601 C1585 1.349 . S
C1601 H1593 0.950 . S
C1601 C1599 1.327 . S
C1602 C1590 1.349 . S
C1602 H1596 0.987 . S
C1602 C1603 1.327 . S
C1603 H1597 0.977 . S
C1603 C1602 1.327 . S
C1603 C1607 1.429 . S
C1604 C1587 1.574 1_556 S
C1604 H1598 0.949 . S
C1604 C1608 1.368 . S
C1605 C1586 1.429 . S
C1605 C1599 1.429 . S
C1605 C1606 1.523 . S
C1606 C1587 1.368 . S
C1606 C1600 1.368 . S
C1606 C1605 1.523 . S
C1607 C1591 1.429 . S
C1607 C1603 1.429 . S
C1607 C1608 1.523 . S
C1608 C1592 1.368 . S
C1608 C1604 1.368 . S
C1608 C1607 1.523 . S
H1609 C1584 0.950 . S
H1610 C1586 0.950 . S
H1611 C1587 0.949 . S
H1612 C1589 0.950 . S
H1613 C1591 0.950 . S
C1614 C1615 1.349 . S
C1614 C1616 1.327 . S
C1614 H1639 0.950 . S
C1615 C1614 1.349 . S
C1615 C1631 1.349 . S
C1616 C1614 1.327 . S
C1616 C1635 1.429 . S
C1616 H1640 0.950 . S
C1617 C1634 1.574 1_556 S
C1617 C1636 1.368 . S
C1617 H1641 0.949 . S
H1618 C1622 0.949 . S
C1619 C1620 1.349 . S
C1619 C1621 1.327 . S
C1619 H1642 0.950 . S
C1620 C1619 1.349 . S
C1620 C1632 1.349 . S
C1621 C1619 1.327 . S
C1621 C1637 1.429 . S
C1621 H1643 0.950 . S
C1622 H1618 0.949 . S
C1622 C1630 1.574 1_554 S
C1622 C1638 1.368 . S
H1623 C1631 0.950 . S
H1624 C1629 0.950 . S
H1625 C1630 0.949 . S
H1626 C1632 0.950 . S
H1627 C1633 0.950 . S
H1628 C1634 0.949 . S
C1629 H1624 0.950 . S
C1629 C1631 1.327 . S
C1629 C1635 1.429 . S
C1630 C1622 1.574 1_556 S
C1630 H1625 0.949 . S
C1630 C1636 1.368 . S
C1631 C1615 1.349 . S
C1631 H1623 0.950 . S
C1631 C1629 1.327 . S
C1632 C1620 1.349 . S
C1632 H1626 0.950 . S
C1632 C1633 1.327 . S
C1633 H1627 0.950 . S
C1633 C1632 1.327 . S
C1633 C1637 1.429 . S
C1634 C1617 1.574 1_554 S
C1634 H1628 0.949 . S
C1634 C1638 1.368 . S
C1635 C1616 1.429 . S
C1635 C1629 1.429 . S
C1635 C1636 1.523 . S
C1636 C1617 1.368 . S
C1636 C1630 1.368 . S
C1636 C1635 1.523 . S
C1637 C1621 1.429 . S
C1637 C1633 1.429 . S
C1637 C1638 1.523 . S
C1638 C1622 1.368 . S
C1638 C1634 1.368 . S
C1638 C1637 1.523 . S
H1639 C1614 0.950 . S
H1640 C1616 0.950 . S
H1641 C1617 0.949 . S
H1642 C1619 0.950 . S
H1643 C1621 0.950 . S
C1644 C1645 1.349 . S
C1644 C1646 1.327 . S
C1644 H1669 0.950 . S
C1645 C1644 1.349 . S
C1645 C1661 1.349 . S
C1646 C1644 1.327 . S
C1646 C1665 1.429 . S
C1646 H1670 0.950 . S
C1647 C1664 1.574 1_556 S
C1647 C1666 1.368 . S
C1647 H1671 0.949 . S
H1648 C1652 0.949 . S
C1649 C1650 1.349 . S
C1649 C1651 1.327 . S
C1649 H1672 0.950 . S
C1650 C1649 1.349 . S
C1650 C1662 1.349 . S
C1651 C1649 1.327 . S
C1651 C1667 1.429 . S
C1651 H1673 0.950 . S
C1652 H1648 0.949 . S
C1652 C1660 1.574 1_554 S
C1652 C1668 1.368 . S
H1653 C1661 0.950 . S
H1654 C1659 0.950 . S
H1655 C1660 0.949 . S
H1656 C1662 0.950 . S
H1657 C1663 0.950 . S
H1658 C1664 0.949 . S
C1659 H1654 0.950 . S
C1659 C1661 1.327 . S
C1659 C1665 1.429 . S
C1660 C1652 1.574 1_556 S
C1660 H1655 0.949 . S
C1660 C1666 1.368 . S
C1661 C1645 1.349 . S
C1661 H1653 0.950 . S
C1661 C1659 1.327 . S
C1662 C1650 1.349 . S
C1662 H1656 0.950 . S
C1662 C1663 1.327 . S
C1663 H1657 0.950 . S
C1663 C1662 1.327 . S
C1663 C1667 1.429 . S
C1664 C1647 1.574 1_554 S
C1664 H1658 0.949 . S
C1664 C1668 1.368 . S
C1665 C1646 1.429 . S
C1665 C1659 1.429 . S
C1665 C1666 1.523 . S
C1666 C1647 1.368 . S
C1666 C1660 1.368 . S
C1666 C1665 1.523 . S
C1667 C1651 1.429 . S
C1667 C1663 1.429 . S
C1667 C1668 1.523 . S
C1668 C1652 1.368 . S
C1668 C1664 1.368 . S
C1668 C1667 1.523 . S
H1669 C1644 0.950 . S
H1670 C1646 0.950 . S
H1671 C1647 0.949 . S
H1672 C1649 0.950 . S
H1673 C1651 0.950 . S
C1674 C1675 1.349 . S
C1674 C1676 1.327 . S
C1674 H1699 0.950 . S
C1675 C1674 1.349 . S
C1675 C1691 1.349 . S
C1676 C1674 1.327 . S
C1676 C1695 1.429 . S
C1676 H1700 0.950 . S
C1677 C1694 1.574 1_556 S
C1677 C1696 1.368 . S
C1677 H1701 0.949 . S
H1678 C1682 0.949 . S
C1679 C1680 1.349 . S
C1679 C1681 1.327 . S
C1679 H1702 0.950 . S
C1680 C1679 1.349 . S
C1680 C1692 1.349 . S
C1681 C1679 1.327 . S
C1681 C1697 1.429 . S
C1681 H1703 0.950 . S
C1682 H1678 0.949 . S
C1682 C1690 1.574 1_554 S
C1682 C1698 1.368 . S
H1683 C1691 0.950 . S
H1684 C1689 0.950 . S
H1685 C1690 0.949 . S
H1686 C1692 0.950 . S
H1687 C1693 0.950 . S
H1688 C1694 0.949 . S
C1689 H1684 0.950 . S
C1689 C1691 1.327 . S
C1689 C1695 1.429 . S
C1690 C1682 1.574 1_556 S
C1690 H1685 0.949 . S
C1690 C1696 1.368 . S
C1691 C1675 1.349 . S
C1691 H1683 0.950 . S
C1691 C1689 1.327 . S
C1692 C1680 1.349 . S
C1692 H1686 0.950 . S
C1692 C1693 1.327 . S
C1693 H1687 0.950 . S
C1693 C1692 1.327 . S
C1693 C1697 1.429 . S
C1694 C1677 1.574 1_554 S
C1694 H1688 0.949 . S
C1694 C1698 1.368 . S
C1695 C1676 1.429 . S
C1695 C1689 1.429 . S
C1695 C1696 1.523 . S
C1696 C1677 1.368 . S
C1696 C1690 1.368 . S
C1696 C1695 1.523 . S
C1697 C1681 1.429 . S
C1697 C1693 1.429 . S
C1697 C1698 1.523 . S
C1698 C1682 1.368 . S
C1698 C1694 1.368 . S
C1698 C1697 1.523 . S
H1699 C1674 0.950 . S
H1700 C1676 0.950 . S
H1701 C1677 0.949 . S
H1702 C1679 0.950 . S
H1703 C1681 0.950 . S
C1704 C1705 1.349 . S
C1704 C1706 1.327 . S
C1704 H1729 0.950 . S
C1705 C1704 1.349 . S
C1705 C1721 1.349 . S
C1706 C1704 1.327 . S
C1706 C1725 1.429 . S
C1706 H1730 0.950 . S
C1707 C1724 1.574 1_554 S
C1707 C1726 1.368 . S
C1707 H1731 0.949 . S
H1708 C1712 0.949 . S
C1709 C1710 1.349 . S
C1709 C1711 1.327 . S
C1709 H1732 0.950 . S
C1710 C1709 1.349 . S
C1710 C1722 1.349 . S
C1711 C1709 1.327 . S
C1711 C1727 1.429 . S
C1711 H1733 0.950 . S
C1712 H1708 0.949 . S
C1712 C1720 1.574 1_556 S
C1712 C1728 1.368 . S
H1713 C1721 0.950 . S
H1714 C1719 0.950 . S
H1715 C1720 0.949 . S
H1716 C1722 0.950 . S
H1717 C1723 0.950 . S
H1718 C1724 0.949 . S
C1719 H1714 0.950 . S
C1719 C1721 1.327 . S
C1719 C1725 1.429 . S
C1720 C1712 1.574 1_554 S
C1720 H1715 0.949 . S
C1720 C1726 1.368 . S
C1721 C1705 1.349 . S
C1721 H1713 0.950 . S
C1721 C1719 1.327 . S
C1722 C1710 1.349 . S
C1722 H1716 0.950 . S
C1722 C1723 1.327 . S
C1723 H1717 0.950 . S
C1723 C1722 1.327 . S
C1723 C1727 1.429 . S
C1724 C1707 1.574 1_556 S
C1724 H1718 0.949 . S
C1724 C1728 1.368 . S
C1725 C1706 1.429 . S
C1725 C1719 1.429 . S
C1725 C1726 1.523 . S
C1726 C1707 1.368 . S
C1726 C1720 1.368 . S
C1726 C1725 1.523 . S
C1727 C1711 1.429 . S
C1727 C1723 1.429 . S
C1727 C1728 1.523 . S
C1728 C1712 1.368 . S
C1728 C1724 1.368 . S
C1728 C1727 1.523 . S
H1729 C1704 0.950 . S
H1730 C1706 0.950 . S
H1731 C1707 0.949 . S
H1732 C1709 0.950 . S
H1733 C1711 0.950 . S
C1734 C1735 1.349 . S
C1734 C1736 1.327 . S
C1734 H1759 0.950 . S
C1735 C1734 1.349 . S
C1735 C1751 1.349 . S
C1736 C1734 1.327 . S
C1736 C1755 1.429 . S
C1736 H1760 0.950 . S
C1737 C1754 1.574 1_556 S
C1737 C1756 1.368 . S
C1737 H1761 0.949 . S
H1738 C1742 0.949 . S
C1739 C1740 1.349 . S
C1739 C1741 1.327 . S
C1739 H1762 0.950 . S
C1740 C1739 1.349 . S
C1740 C1752 1.349 . S
C1741 C1739 1.327 . S
C1741 C1757 1.429 . S
C1741 H1763 0.950 . S
C1742 H1738 0.949 . S
C1742 C1750 1.574 1_554 S
C1742 C1758 1.368 . S
H1743 C1751 0.950 . S
H1744 C1749 0.950 . S
H1745 C1750 0.949 . S
H1746 C1752 0.950 . S
H1747 C1753 0.950 . S
H1748 C1754 0.949 . S
C1749 H1744 0.950 . S
C1749 C1751 1.327 . S
C1749 C1755 1.429 . S
C1750 C1742 1.574 1_556 S
C1750 H1745 0.949 . S
C1750 C1756 1.368 . S
C1751 C1735 1.349 . S
C1751 H1743 0.950 . S
C1751 C1749 1.327 . S
C1752 C1740 1.349 . S
C1752 H1746 0.950 . S
C1752 C1753 1.327 . S
C1753 H1747 0.950 . S
C1753 C1752 1.327 . S
C1753 C1757 1.429 . S
C1754 C1737 1.574 1_554 S
C1754 H1748 0.949 . S
C1754 C1758 1.368 . S
C1755 C1736 1.429 . S
C1755 C1749 1.429 . S
C1755 C1756 1.523 . S
C1756 C1737 1.368 . S
C1756 C1750 1.368 . S
C1756 C1755 1.523 . S
C1757 C1741 1.429 . S
C1757 C1753 1.429 . S
C1757 C1758 1.523 . S
C1758 C1742 1.368 . S
C1758 C1754 1.368 . S
C1758 C1757 1.523 . S
H1759 C1734 0.950 . S
H1760 C1736 0.950 . S
H1761 C1737 0.949 . S
H1762 C1739 0.950 . S
H1763 C1741 0.950 . S
C1764 C1765 1.349 . S
C1764 C1766 1.327 . S
C1764 H1789 0.950 . S
C1765 C1764 1.349 . S
C1765 C1781 1.349 . S
C1766 C1764 1.327 . S
C1766 C1785 1.429 . S
C1766 H1790 0.950 . S
C1767 C1784 1.574 . S
C1767 C1786 1.368 . S
C1767 H1791 0.949 . S
H1768 C1772 0.949 . S
C1769 C1770 1.349 . S
C1769 C1771 1.327 . S
C1769 H1792 0.950 . S
C1770 C1769 1.349 . S
C1770 C1782 1.349 . S
C1771 C1769 1.327 . S
C1771 C1787 1.429 . S
C1771 H1793 0.950 . S
C1772 H1768 0.949 . S
C1772 C1780 1.574 . S
C1772 C1788 1.368 . S
H1773 C1781 0.950 . S
H1774 C1779 0.950 . S
H1775 C1780 0.949 . S
H1776 C1782 0.950 . S
H1777 C1783 0.950 . S
H1778 C1784 0.949 . S
C1779 H1774 0.950 . S
C1779 C1781 1.327 . S
C1779 C1785 1.429 . S
C1780 C1772 1.574 . S
C1780 H1775 0.949 . S
C1780 C1786 1.368 . S
C1781 C1765 1.349 . S
C1781 H1773 0.950 . S
C1781 C1779 1.327 . S
C1782 C1770 1.349 . S
C1782 H1776 0.950 . S
C1782 C1783 1.327 . S
C1783 H1777 0.950 . S
C1783 C1782 1.327 . S
C1783 C1787 1.429 . S
C1784 C1767 1.574 . S
C1784 H1778 0.949 . S
C1784 C1788 1.368 . S
C1785 C1766 1.429 . S
C1785 C1779 1.429 . S
C1785 C1786 1.523 . S
C1786 C1767 1.368 . S
C1786 C1780 1.368 . S
C1786 C1785 1.523 . S
C1787 C1771 1.429 . S
C1787 C1783 1.429 . S
C1787 C1788 1.523 . S
C1788 C1772 1.368 . S
C1788 C1784 1.368 . S
C1788 C1787 1.523 . S
H1789 C1764 0.950 . S
H1790 C1766 0.950 . S
H1791 C1767 0.949 . S
H1792 C1769 0.950 . S
H1793 C1771 0.950 . S
C1794 C1795 1.349 . S
C1794 C1796 1.327 . S
C1794 H1819 0.950 . S
C1795 C1794 1.349 . S
C1795 C1811 1.349 . S
C1796 C1794 1.327 . S
C1796 C1815 1.429 . S
C1796 H1820 0.950 . S
C1797 C1814 1.574 . S
C1797 C1816 1.368 . S
C1797 H1821 0.949 . S
H1798 C1802 0.949 . S
C1799 C1800 1.349 . S
C1799 C1801 1.327 . S
C1799 H1822 0.950 . S
C1800 C1799 1.349 . S
C1800 C1812 1.349 . S
C1801 C1799 1.327 . S
C1801 C1817 1.429 . S
C1801 H1823 0.950 . S
C1802 H1798 0.949 . S
C1802 C1810 1.574 . S
C1802 C1818 1.368 . S
H1803 C1811 0.950 . S
H1804 C1809 0.950 . S
H1805 C1810 0.949 . S
H1806 C1812 0.950 . S
H1807 C1813 0.950 . S
H1808 C1814 0.949 . S
C1809 H1804 0.950 . S
C1809 C1811 1.327 . S
C1809 C1815 1.429 . S
C1810 C1802 1.574 . S
C1810 H1805 0.949 . S
C1810 C1816 1.368 . S
C1811 C1795 1.349 . S
C1811 H1803 0.950 . S
C1811 C1809 1.327 . S
C1812 C1800 1.349 . S
C1812 H1806 0.950 . S
C1812 C1813 1.327 . S
C1813 H1807 0.950 . S
C1813 C1812 1.327 . S
C1813 C1817 1.429 . S
C1814 C1797 1.574 . S
C1814 H1808 0.949 . S
C1814 C1818 1.368 . S
C1815 C1796 1.429 . S
C1815 C1809 1.429 . S
C1815 C1816 1.523 . S
C1816 C1797 1.368 . S
C1816 C1810 1.368 . S
C1816 C1815 1.523 . S
C1817 C1801 1.429 . S
C1817 C1813 1.429 . S
C1817 C1818 1.523 . S
C1818 C1802 1.368 . S
C1818 C1814 1.368 . S
C1818 C1817 1.523 . S
H1819 C1794 0.950 . S
H1820 C1796 0.950 . S
H1821 C1797 0.949 . S
H1822 C1799 0.950 . S
H1823 C1801 0.950 . S
C1824 C1825 1.349 . S
C1824 C1826 1.327 . S
C1824 H1849 0.950 . S
C1825 C1824 1.349 . S
C1825 C1841 1.349 . S
C1826 C1824 1.327 . S
C1826 C1845 1.429 . S
C1826 H1850 0.950 . S
C1827 C1844 1.574 . S
C1827 C1846 1.368 . S
C1827 H1851 0.949 . S
H1828 C1832 0.949 . S
C1829 C1830 1.349 . S
C1829 C1831 1.327 . S
C1829 H1852 0.950 . S
C1830 C1829 1.349 . S
C1830 C1842 1.349 . S
C1831 C1829 1.327 . S
C1831 C1847 1.429 . S
C1831 H1853 0.950 . S
C1832 H1828 0.949 . S
C1832 C1840 1.574 . S
C1832 C1848 1.368 . S
H1833 C1841 0.950 . S
H1834 C1839 0.950 . S
H1835 C1840 0.949 . S
H1836 C1842 0.950 . S
H1837 C1843 0.950 . S
H1838 C1844 0.949 . S
C1839 H1834 0.950 . S
C1839 C1841 1.327 . S
C1839 C1845 1.429 . S
C1840 C1832 1.574 . S
C1840 H1835 0.949 . S
C1840 C1846 1.368 . S
C1841 C1825 1.349 . S
C1841 H1833 0.950 . S
C1841 C1839 1.327 . S
C1842 C1830 1.349 . S
C1842 H1836 0.950 . S
C1842 C1843 1.327 . S
C1843 H1837 0.950 . S
C1843 C1842 1.327 . S
C1843 C1847 1.429 . S
C1844 C1827 1.574 . S
C1844 H1838 0.949 . S
C1844 C1848 1.368 . S
C1845 C1826 1.429 . S
C1845 C1839 1.429 . S
C1845 C1846 1.523 . S
C1846 C1827 1.368 . S
C1846 C1840 1.368 . S
C1846 C1845 1.523 . S
C1847 C1831 1.429 . S
C1847 C1843 1.429 . S
C1847 C1848 1.523 . S
C1848 C1832 1.368 . S
C1848 C1844 1.368 . S
C1848 C1847 1.523 . S
H1849 C1824 0.950 . S
H1850 C1826 0.950 . S
H1851 C1827 0.949 . S
H1852 C1829 0.950 . S
H1853 C1831 0.950 . S
C1854 C1855 1.349 . S
C1854 C1856 1.327 . S
C1854 H1879 0.950 . S
C1855 C1854 1.349 . S
C1855 C1871 1.349 . S
C1856 C1854 1.327 . S
C1856 C1875 1.429 . S
C1856 H1880 0.950 . S
C1857 C1874 1.574 . S
C1857 C1876 1.368 . S
C1857 H1881 0.949 . S
H1858 C1862 0.949 . S
C1859 C1860 1.349 . S
C1859 C1861 1.327 . S
C1859 H1882 0.950 . S
C1860 C1859 1.349 . S
C1860 C1872 1.349 . S
C1861 C1859 1.327 . S
C1861 C1877 1.429 . S
C1861 H1883 0.950 . S
C1862 H1858 0.949 . S
C1862 C1870 1.574 . S
C1862 C1878 1.368 . S
H1863 C1871 0.950 . S
H1864 C1869 0.950 . S
H1865 C1870 0.949 . S
H1866 C1872 0.950 . S
H1867 C1873 0.950 . S
H1868 C1874 0.949 . S
C1869 H1864 0.950 . S
C1869 C1871 1.327 . S
C1869 C1875 1.429 . S
C1870 C1862 1.574 . S
C1870 H1865 0.949 . S
C1870 C1876 1.368 . S
C1871 C1855 1.349 . S
C1871 H1863 0.950 . S
C1871 C1869 1.327 . S
C1872 C1860 1.349 . S
C1872 H1866 0.950 . S
C1872 C1873 1.327 . S
C1873 H1867 0.950 . S
C1873 C1872 1.327 . S
C1873 C1877 1.429 . S
C1874 C1857 1.574 . S
C1874 H1868 0.949 . S
C1874 C1878 1.368 . S
C1875 C1856 1.429 . S
C1875 C1869 1.429 . S
C1875 C1876 1.523 . S
C1876 C1857 1.368 . S
C1876 C1870 1.368 . S
C1876 C1875 1.523 . S
C1877 C1861 1.429 . S
C1877 C1873 1.429 . S
C1877 C1878 1.523 . S
C1878 C1862 1.368 . S
C1878 C1874 1.368 . S
C1878 C1877 1.523 . S
H1879 C1854 0.950 . S
H1880 C1856 0.950 . S
H1881 C1857 0.949 . S
H1882 C1859 0.950 . S
H1883 C1861 0.950 . S
C1884 C1885 1.349 . S
C1884 C1886 1.327 . S
C1884 H1909 0.950 . S
C1885 C1884 1.349 . S
C1885 C1901 1.349 . S
C1886 C1884 1.327 . S
C1886 C1905 1.429 . S
C1886 H1910 0.950 . S
C1887 C1904 1.574 . S
C1887 C1906 1.368 . S
C1887 H1911 0.949 . S
H1888 C1892 0.949 . S
C1889 C1890 1.349 . S
C1889 C1891 1.327 . S
C1889 H1912 0.950 . S
C1890 C1889 1.349 . S
C1890 C1902 1.349 . S
C1891 C1889 1.327 . S
C1891 C1907 1.429 . S
C1891 H1913 0.950 . S
C1892 H1888 0.949 . S
C1892 C1900 1.574 . S
C1892 C1908 1.368 . S
H1893 C1901 0.950 . S
H1894 C1899 0.950 . S
H1895 C1900 0.949 . S
H1896 C1902 0.950 . S
H1897 C1903 0.950 . S
H1898 C1904 0.949 . S
C1899 H1894 0.950 . S
C1899 C1901 1.327 . S
C1899 C1905 1.429 . S
C1900 C1892 1.574 . S
C1900 H1895 0.949 . S
C1900 C1906 1.368 . S
C1901 C1885 1.349 . S
C1901 H1893 0.950 . S
C1901 C1899 1.327 . S
C1902 C1890 1.349 . S
C1902 H1896 0.950 . S
C1902 C1903 1.327 . S
C1903 H1897 0.950 . S
C1903 C1902 1.327 . S
C1903 C1907 1.429 . S
C1904 C1887 1.574 . S
C1904 H1898 0.949 . S
C1904 C1908 1.368 . S
C1905 C1886 1.429 . S
C1905 C1899 1.429 . S
C1905 C1906 1.523 . S
C1906 C1887 1.368 . S
C1906 C1900 1.368 . S
C1906 C1905 1.523 . S
C1907 C1891 1.429 . S
C1907 C1903 1.429 . S
C1907 C1908 1.523 . S
C1908 C1892 1.368 . S
C1908 C1904 1.368 . S
C1908 C1907 1.523 . S
H1909 C1884 0.950 . S
H1910 C1886 0.950 . S
H1911 C1887 0.949 . S
H1912 C1889 0.950 . S
H1913 C1891 0.950 . S
C1914 C1915 1.349 . S
C1914 C1916 1.327 . S
C1914 H1939 0.950 . S
C1915 C1914 1.349 . S
C1915 C1931 1.349 . S
C1916 C1914 1.327 . S
C1916 C1935 1.429 . S
C1916 H1940 0.950 . S
C1917 C1934 1.574 . S
C1917 C1936 1.368 . S
C1917 H1941 0.949 . S
H1918 C1922 0.949 . S
C1919 C1920 1.349 . S
C1919 C1921 1.327 . S
C1919 H1942 0.950 . S
C1920 C1919 1.349 . S
C1920 C1932 1.349 . S
C1921 C1919 1.327 . S
C1921 C1937 1.429 . S
C1921 H1943 0.950 . S
C1922 H1918 0.949 . S
C1922 C1930 1.574 . S
C1922 C1938 1.368 . S
H1923 C1931 0.950 . S
H1924 C1929 0.950 . S
H1925 C1930 0.949 . S
H1926 C1932 0.950 . S
H1927 C1933 0.950 . S
H1928 C1934 0.949 . S
C1929 H1924 0.950 . S
C1929 C1931 1.327 . S
C1929 C1935 1.429 . S
C1930 C1922 1.574 . S
C1930 H1925 0.949 . S
C1930 C1936 1.368 . S
C1931 C1915 1.349 . S
C1931 H1923 0.950 . S
C1931 C1929 1.327 . S
C1932 C1920 1.349 . S
C1932 H1926 0.950 . S
C1932 C1933 1.327 . S
C1933 H1927 0.950 . S
C1933 C1932 1.327 . S
C1933 C1937 1.429 . S
C1934 C1917 1.574 . S
C1934 H1928 0.949 . S
C1934 C1938 1.368 . S
C1935 C1916 1.429 . S
C1935 C1929 1.429 . S
C1935 C1936 1.523 . S
C1936 C1917 1.368 . S
C1936 C1930 1.368 . S
C1936 C1935 1.523 . S
C1937 C1921 1.429 . S
C1937 C1933 1.429 . S
C1937 C1938 1.523 . S
C1938 C1922 1.368 . S
C1938 C1934 1.368 . S
C1938 C1937 1.523 . S
H1939 C1914 0.950 . S
H1940 C1916 0.950 . S
H1941 C1917 0.949 . S
H1942 C1919 0.950 . S
H1943 C1921 0.950 . S
C1944 C1945 1.349 . S
C1944 C1946 1.327 . S
C1944 H1969 0.950 . S
C1945 C1944 1.349 . S
C1945 C1961 1.349 . S
C1946 C1944 1.327 . S
C1946 C1965 1.429 . S
C1946 H1970 0.950 . S
C1947 C1964 1.574 . S
C1947 C1966 1.368 . S
C1947 H1971 0.949 . S
H1948 C1952 0.949 . S
C1949 C1950 1.349 . S
C1949 C1951 1.327 . S
C1949 H1972 0.950 . S
C1950 C1949 1.349 . S
C1950 C1962 1.349 . S
C1951 C1949 1.327 . S
C1951 C1967 1.429 . S
C1951 H1973 0.950 . S
C1952 H1948 0.949 . S
C1952 C1960 1.574 . S
C1952 C1968 1.368 . S
H1953 C1961 0.950 . S
H1954 C1959 0.950 . S
H1955 C1960 0.949 . S
H1956 C1962 0.950 . S
H1957 C1963 0.950 . S
H1958 C1964 0.949 . S
C1959 H1954 0.950 . S
C1959 C1961 1.327 . S
C1959 C1965 1.429 . S
C1960 C1952 1.574 . S
C1960 H1955 0.949 . S
C1960 C1966 1.368 . S
C1961 C1945 1.349 . S
C1961 H1953 0.950 . S
C1961 C1959 1.327 . S
C1962 C1950 1.349 . S
C1962 H1956 0.950 . S
C1962 C1963 1.327 . S
C1963 H1957 0.950 . S
C1963 C1962 1.327 . S
C1963 C1967 1.429 . S
C1964 C1947 1.574 . S
C1964 H1958 0.949 . S
C1964 C1968 1.368 . S
C1965 C1946 1.429 . S
C1965 C1959 1.429 . S
C1965 C1966 1.523 . S
C1966 C1947 1.368 . S
C1966 C1960 1.368 . S
C1966 C1965 1.523 . S
C1967 C1951 1.429 . S
C1967 C1963 1.429 . S
C1967 C1968 1.523 . S
C1968 C1952 1.368 . S
C1968 C1964 1.368 . S
C1968 C1967 1.523 . S
H1969 C1944 0.950 . S
H1970 C1946 0.950 . S
H1971 C1947 0.949 . S
H1972 C1949 0.950 . S
H1973 C1951 0.950 . S
C1974 C1975 1.349 . S
C1974 C1976 1.327 . S
C1974 H1999 0.950 . S
C1975 C1974 1.349 . S
C1975 C1991 1.349 . S
C1976 C1974 1.327 . S
C1976 C1995 1.429 . S
C1976 H2000 0.950 . S
C1977 C1994 1.574 . S
C1977 C1996 1.368 . S
C1977 H2001 0.949 . S
H1978 C1982 0.949 . S
C1979 C1980 1.349 . S
C1979 C1981 1.327 . S
C1979 H2002 0.950 . S
C1980 C1979 1.349 . S
C1980 C1992 1.349 . S
C1981 C1979 1.327 . S
C1981 C1997 1.429 . S
C1981 H2003 0.950 . S
C1982 H1978 0.949 . S
C1982 C1990 1.574 . S
C1982 C1998 1.368 . S
H1983 C1991 0.950 . S
H1984 C1989 0.950 . S
H1985 C1990 0.949 . S
H1986 C1992 0.950 . S
H1987 C1993 0.950 . S
H1988 C1994 0.949 . S
C1989 H1984 0.950 . S
C1989 C1991 1.327 . S
C1989 C1995 1.429 . S
C1990 C1982 1.574 . S
C1990 H1985 0.949 . S
C1990 C1996 1.368 . S
C1991 C1975 1.349 . S
C1991 H1983 0.950 . S
C1991 C1989 1.327 . S
C1992 C1980 1.349 . S
C1992 H1986 0.950 . S
C1992 C1993 1.327 . S
C1993 H1987 0.950 . S
C1993 C1992 1.327 . S
C1993 C1997 1.429 . S
C1994 C1977 1.574 . S
C1994 H1988 0.949 . S
C1994 C1998 1.368 . S
C1995 C1976 1.429 . S
C1995 C1989 1.429 . S
C1995 C1996 1.523 . S
C1996 C1977 1.368 . S
C1996 C1990 1.368 . S
C1996 C1995 1.523 . S
C1997 C1981 1.429 . S
C1997 C1993 1.429 . S
C1997 C1998 1.523 . S
C1998 C1982 1.368 . S
C1998 C1994 1.368 . S
C1998 C1997 1.523 . S
H1999 C1974 0.950 . S
H2000 C1976 0.950 . S
H2001 C1977 0.949 . S
H2002 C1979 0.950 . S
H2003 C1981 0.950 . S
C2004 C2005 1.349 . S
C2004 C2006 1.327 . S
C2004 H2029 0.950 . S
C2005 C2004 1.349 . S
C2005 C2021 1.349 . S
C2006 C2004 1.327 . S
C2006 C2025 1.429 . S
C2006 H2030 0.950 . S
C2007 C2024 1.574 . S
C2007 C2026 1.368 . S
C2007 H2031 0.949 . S
H2008 C2012 0.949 . S
C2009 C2010 1.349 . S
C2009 C2011 1.327 . S
C2009 H2032 0.950 . S
C2010 C2009 1.349 . S
C2010 C2022 1.349 . S
C2011 C2009 1.327 . S
C2011 C2027 1.429 . S
C2011 H2033 0.950 . S
C2012 H2008 0.949 . S
C2012 C2020 1.574 . S
C2012 C2028 1.368 . S
H2013 C2021 0.950 . S
H2014 C2019 0.950 . S
H2015 C2020 0.949 . S
H2016 C2022 0.950 . S
H2017 C2023 0.950 . S
H2018 C2024 0.949 . S
C2019 H2014 0.950 . S
C2019 C2021 1.327 . S
C2019 C2025 1.429 . S
C2020 C2012 1.574 . S
C2020 H2015 0.949 . S
C2020 C2026 1.368 . S
C2021 C2005 1.349 . S
C2021 H2013 0.950 . S
C2021 C2019 1.327 . S
C2022 C2010 1.349 . S
C2022 H2016 0.950 . S
C2022 C2023 1.327 . S
C2023 H2017 0.950 . S
C2023 C2022 1.327 . S
C2023 C2027 1.429 . S
C2024 C2007 1.574 . S
C2024 H2018 0.949 . S
C2024 C2028 1.368 . S
C2025 C2006 1.429 . S
C2025 C2019 1.429 . S
C2025 C2026 1.523 . S
C2026 C2007 1.368 . S
C2026 C2020 1.368 . S
C2026 C2025 1.523 . S
C2027 C2011 1.429 . S
C2027 C2023 1.429 . S
C2027 C2028 1.523 . S
C2028 C2012 1.368 . S
C2028 C2024 1.368 . S
C2028 C2027 1.523 . S
H2029 C2004 0.950 . S
H2030 C2006 0.950 . S
H2031 C2007 0.949 . S
H2032 C2009 0.950 . S
H2033 C2011 0.950 . S
C2034 C2035 1.349 . S
C2034 C2036 1.327 . S
C2034 H2059 0.950 . S
C2035 C2034 1.349 . S
C2035 C2051 1.349 . S
C2036 C2034 1.327 . S
C2036 C2055 1.429 . S
C2036 H2060 0.950 . S
C2037 C2054 1.574 . S
C2037 C2056 1.368 . S
C2037 H2061 0.949 . S
H2038 C2042 0.949 . S
C2039 C2040 1.349 . S
C2039 C2041 1.327 . S
C2039 H2062 0.950 . S
C2040 C2039 1.349 . S
C2040 C2052 1.349 . S
C2041 C2039 1.327 . S
C2041 C2057 1.429 . S
C2041 H2063 0.950 . S
C2042 H2038 0.949 . S
C2042 C2050 1.574 . S
C2042 C2058 1.368 . S
H2043 C2051 0.950 . S
H2044 C2049 0.950 . S
H2045 C2050 0.949 . S
H2046 C2052 0.950 . S
H2047 C2053 0.950 . S
H2048 C2054 0.949 . S
C2049 H2044 0.950 . S
C2049 C2051 1.327 . S
C2049 C2055 1.429 . S
C2050 C2042 1.574 . S
C2050 H2045 0.949 . S
C2050 C2056 1.368 . S
C2051 C2035 1.349 . S
C2051 H2043 0.950 . S
C2051 C2049 1.327 . S
C2052 C2040 1.349 . S
C2052 H2046 0.950 . S
C2052 C2053 1.327 . S
C2053 H2047 0.950 . S
C2053 C2052 1.327 . S
C2053 C2057 1.429 . S
C2054 C2037 1.574 . S
C2054 H2048 0.949 . S
C2054 C2058 1.368 . S
C2055 C2036 1.429 . S
C2055 C2049 1.429 . S
C2055 C2056 1.523 . S
C2056 C2037 1.368 . S
C2056 C2050 1.368 . S
C2056 C2055 1.523 . S
C2057 C2041 1.429 . S
C2057 C2053 1.429 . S
C2057 C2058 1.523 . S
C2058 C2042 1.368 . S
C2058 C2054 1.368 . S
C2058 C2057 1.523 . S
H2059 C2034 0.950 . S
H2060 C2036 0.950 . S
H2061 C2037 0.949 . S
H2062 C2039 0.950 . S
H2063 C2041 0.950 . S
C2064 C2065 1.349 . S
C2064 C2066 1.327 . S
C2064 H2089 0.950 . S
C2065 C2064 1.349 . S
C2065 C2081 1.349 . S
C2066 C2064 1.327 . S
C2066 C2085 1.429 . S
C2066 H2090 0.950 . S
C2067 C2084 1.574 . S
C2067 C2086 1.368 . S
C2067 H2091 0.949 . S
H2068 C2072 0.949 . S
C2069 C2070 1.349 . S
C2069 C2071 1.327 . S
C2069 H2092 0.950 . S
C2070 C2069 1.349 . S
C2070 C2082 1.349 . S
C2071 C2069 1.327 . S
C2071 C2087 1.429 . S
C2071 H2093 0.950 . S
C2072 H2068 0.949 . S
C2072 C2080 1.574 . S
C2072 C2088 1.368 . S
H2073 C2081 0.950 . S
H2074 C2079 0.950 . S
H2075 C2080 0.949 . S
H2076 C2082 0.950 . S
H2077 C2083 0.950 . S
H2078 C2084 0.949 . S
C2079 H2074 0.950 . S
C2079 C2081 1.327 . S
C2079 C2085 1.429 . S
C2080 C2072 1.574 . S
C2080 H2075 0.949 . S
C2080 C2086 1.368 . S
C2081 C2065 1.349 . S
C2081 H2073 0.950 . S
C2081 C2079 1.327 . S
C2082 C2070 1.349 . S
C2082 H2076 0.950 . S
C2082 C2083 1.327 . S
C2083 H2077 0.950 . S
C2083 C2082 1.327 . S
C2083 C2087 1.429 . S
C2084 C2067 1.574 . S
C2084 H2078 0.949 . S
C2084 C2088 1.368 . S
C2085 C2066 1.429 . S
C2085 C2079 1.429 . S
C2085 C2086 1.523 . S
C2086 C2067 1.368 . S
C2086 C2080 1.368 . S
C2086 C2085 1.523 . S
C2087 C2071 1.429 . S
C2087 C2083 1.429 . S
C2087 C2088 1.523 . S
C2088 C2072 1.368 . S
C2088 C2084 1.368 . S
C2088 C2087 1.523 . S
H2089 C2064 0.950 . S
H2090 C2066 0.950 . S
H2091 C2067 0.949 . S
H2092 C2069 0.950 . S
H2093 C2071 0.950 . S
C2094 C2095 1.349 . S
C2094 C2096 1.327 . S
C2094 H2119 0.950 . S
C2095 C2094 1.349 . S
C2095 C2111 1.349 . S
C2096 C2094 1.327 . S
C2096 C2115 1.429 . S
C2096 H2120 0.950 . S
C2097 C2114 1.574 . S
C2097 C2116 1.368 . S
C2097 H2121 0.949 . S
H2098 C2102 0.949 . S
C2099 C2100 1.349 . S
C2099 C2101 1.327 . S
C2099 H2122 0.950 . S
C2100 C2099 1.349 . S
C2100 C2112 1.349 . S
C2101 C2099 1.327 . S
C2101 C2117 1.429 . S
C2101 H2123 0.950 . S
C2102 H2098 0.949 . S
C2102 C2110 1.574 . S
C2102 C2118 1.368 . S
H2103 C2111 0.950 . S
H2104 C2109 0.950 . S
H2105 C2110 0.949 . S
H2106 C2112 0.950 . S
H2107 C2113 0.950 . S
H2108 C2114 0.949 . S
C2109 H2104 0.950 . S
C2109 C2111 1.327 . S
C2109 C2115 1.429 . S
C2110 C2102 1.574 . S
C2110 H2105 0.949 . S
C2110 C2116 1.368 . S
C2111 C2095 1.349 . S
C2111 H2103 0.950 . S
C2111 C2109 1.327 . S
C2112 C2100 1.349 . S
C2112 H2106 0.950 . S
C2112 C2113 1.327 . S
C2113 H2107 0.950 . S
C2113 C2112 1.327 . S
C2113 C2117 1.429 . S
C2114 C2097 1.574 . S
C2114 H2108 0.949 . S
C2114 C2118 1.368 . S
C2115 C2096 1.429 . S
C2115 C2109 1.429 . S
C2115 C2116 1.523 . S
C2116 C2097 1.368 . S
C2116 C2110 1.368 . S
C2116 C2115 1.523 . S
C2117 C2101 1.429 . S
C2117 C2113 1.429 . S
C2117 C2118 1.523 . S
C2118 C2102 1.368 . S
C2118 C2114 1.368 . S
C2118 C2117 1.523 . S
H2119 C2094 0.950 . S
H2120 C2096 0.950 . S
H2121 C2097 0.949 . S
H2122 C2099 0.950 . S
H2123 C2101 0.950 . S
C2124 C2125 1.349 . S
C2124 C2126 1.327 . S
C2124 H2149 0.950 . S
C2125 C2124 1.349 . S
C2125 C2141 1.349 . S
C2126 C2124 1.327 . S
C2126 C2145 1.429 . S
C2126 H2150 0.950 . S
C2127 C2144 1.574 . S
C2127 C2146 1.368 . S
C2127 H2151 0.949 . S
H2128 C2132 0.949 . S
C2129 C2130 1.349 . S
C2129 C2131 1.327 . S
C2129 H2152 0.950 . S
C2130 C2129 1.349 . S
C2130 C2142 1.349 . S
C2131 C2129 1.327 . S
C2131 C2147 1.429 . S
C2131 H2153 0.950 . S
C2132 H2128 0.949 . S
C2132 C2140 1.574 . S
C2132 C2148 1.368 . S
H2133 C2141 0.950 . S
H2134 C2139 0.950 . S
H2135 C2140 0.949 . S
H2136 C2142 0.950 . S
H2137 C2143 0.950 . S
H2138 C2144 0.949 . S
C2139 H2134 0.950 . S
C2139 C2141 1.327 . S
C2139 C2145 1.429 . S
C2140 C2132 1.574 . S
C2140 H2135 0.949 . S
C2140 C2146 1.368 . S
C2141 C2125 1.349 . S
C2141 H2133 0.950 . S
C2141 C2139 1.327 . S
C2142 C2130 1.349 . S
C2142 H2136 0.950 . S
C2142 C2143 1.327 . S
C2143 H2137 0.950 . S
C2143 C2142 1.327 . S
C2143 C2147 1.429 . S
C2144 C2127 1.574 . S
C2144 H2138 0.949 . S
C2144 C2148 1.368 . S
C2145 C2126 1.429 . S
C2145 C2139 1.429 . S
C2145 C2146 1.523 . S
C2146 C2127 1.368 . S
C2146 C2140 1.368 . S
C2146 C2145 1.523 . S
C2147 C2131 1.429 . S
C2147 C2143 1.429 . S
C2147 C2148 1.523 . S
C2148 C2132 1.368 . S
C2148 C2144 1.368 . S
C2148 C2147 1.523 . S
H2149 C2124 0.950 . S
H2150 C2126 0.950 . S
H2151 C2127 0.949 . S
H2152 C2129 0.950 . S
H2153 C2131 0.950 . S
C2154 C2155 1.349 . S
C2154 C2156 1.327 . S
C2154 H2179 0.950 . S
C2155 C2154 1.349 . S
C2155 C2171 1.349 . S
C2156 C2154 1.327 . S
C2156 C2175 1.429 . S
C2156 H2180 0.950 . S
C2157 C2174 1.574 . S
C2157 C2176 1.368 . S
C2157 H2181 0.949 . S
H2158 C2162 0.949 . S
C2159 C2160 1.349 . S
C2159 C2161 1.327 . S
C2159 H2182 0.950 . S
C2160 C2159 1.349 . S
C2160 C2172 1.349 . S
C2161 C2159 1.327 . S
C2161 C2177 1.429 . S
C2161 H2183 0.950 . S
C2162 H2158 0.949 . S
C2162 C2170 1.574 . S
C2162 C2178 1.368 . S
H2163 C2171 0.950 . S
H2164 C2169 0.950 . S
H2165 C2170 0.949 . S
H2166 C2172 0.950 . S
H2167 C2173 0.950 . S
H2168 C2174 0.949 . S
C2169 H2164 0.950 . S
C2169 C2171 1.327 . S
C2169 C2175 1.429 . S
C2170 C2162 1.574 . S
C2170 H2165 0.949 . S
C2170 C2176 1.368 . S
C2171 C2155 1.349 . S
C2171 H2163 0.950 . S
C2171 C2169 1.327 . S
C2172 C2160 1.349 . S
C2172 H2166 0.950 . S
C2172 C2173 1.327 . S
C2173 H2167 0.950 . S
C2173 C2172 1.327 . S
C2173 C2177 1.429 . S
C2174 C2157 1.574 . S
C2174 H2168 0.949 . S
C2174 C2178 1.368 . S
C2175 C2156 1.429 . S
C2175 C2169 1.429 . S
C2175 C2176 1.523 . S
C2176 C2157 1.368 . S
C2176 C2170 1.368 . S
C2176 C2175 1.523 . S
C2177 C2161 1.429 . S
C2177 C2173 1.429 . S
C2177 C2178 1.523 . S
C2178 C2162 1.368 . S
C2178 C2174 1.368 . S
C2178 C2177 1.523 . S
H2179 C2154 0.950 . S
H2180 C2156 0.950 . S
H2181 C2157 0.949 . S
H2182 C2159 0.950 . S
H2183 C2161 0.950 . S
C2184 C2185 1.349 . S
C2184 C2186 1.327 . S
C2184 H2209 0.950 . S
C2185 C2184 1.349 . S
C2185 C2201 1.349 . S
C2186 C2184 1.327 . S
C2186 C2205 1.429 . S
C2186 H2210 0.950 . S
C2187 C2204 1.574 . S
C2187 C2206 1.368 . S
C2187 H2211 0.949 . S
H2188 C2192 0.949 . S
C2189 C2190 1.349 . S
C2189 C2191 1.327 . S
C2189 H2212 0.950 . S
C2190 C2189 1.349 . S
C2190 C2202 1.349 . S
C2191 C2189 1.327 . S
C2191 C2207 1.429 . S
C2191 H2213 0.950 . S
C2192 H2188 0.949 . S
C2192 C2200 1.574 . S
C2192 C2208 1.368 . S
H2193 C2201 0.950 . S
H2194 C2199 0.950 . S
H2195 C2200 0.949 . S
H2196 C2202 0.950 . S
H2197 C2203 0.950 . S
H2198 C2204 0.949 . S
C2199 H2194 0.950 . S
C2199 C2201 1.327 . S
C2199 C2205 1.429 . S
C2200 C2192 1.574 . S
C2200 H2195 0.949 . S
C2200 C2206 1.368 . S
C2201 C2185 1.349 . S
C2201 H2193 0.950 . S
C2201 C2199 1.327 . S
C2202 C2190 1.349 . S
C2202 H2196 0.950 . S
C2202 C2203 1.327 . S
C2203 H2197 0.950 . S
C2203 C2202 1.327 . S
C2203 C2207 1.429 . S
C2204 C2187 1.574 . S
C2204 H2198 0.949 . S
C2204 C2208 1.368 . S
C2205 C2186 1.429 . S
C2205 C2199 1.429 . S
C2205 C2206 1.523 . S
C2206 C2187 1.368 . S
C2206 C2200 1.368 . S
C2206 C2205 1.523 . S
C2207 C2191 1.429 . S
C2207 C2203 1.429 . S
C2207 C2208 1.523 . S
C2208 C2192 1.368 . S
C2208 C2204 1.368 . S
C2208 C2207 1.523 . S
H2209 C2184 0.950 . S
H2210 C2186 0.950 . S
H2211 C2187 0.949 . S
H2212 C2189 0.950 . S
H2213 C2191 0.950 . S
C2214 C2215 1.349 . S
C2214 C2216 1.327 . S
C2214 H2239 0.950 . S
C2215 C2214 1.349 . S
C2215 C2231 1.349 . S
C2216 C2214 1.327 . S
C2216 C2235 1.429 . S
C2216 H2240 0.950 . S
C2217 C2234 1.574 . S
C2217 C2236 1.368 . S
C2217 H2241 0.949 . S
H2218 C2222 0.949 . S
C2219 C2220 1.349 . S
C2219 C2221 1.327 . S
C2219 H2242 0.950 . S
C2220 C2219 1.349 . S
C2220 C2232 1.349 . S
C2221 C2219 1.327 . S
C2221 C2237 1.429 . S
C2221 H2243 0.950 . S
C2222 H2218 0.949 . S
C2222 C2230 1.574 . S
C2222 C2238 1.368 . S
H2223 C2231 0.950 . S
H2224 C2229 0.950 . S
H2225 C2230 0.949 . S
H2226 C2232 0.950 . S
H2227 C2233 0.950 . S
H2228 C2234 0.949 . S
C2229 H2224 0.950 . S
C2229 C2231 1.327 . S
C2229 C2235 1.429 . S
C2230 C2222 1.574 . S
C2230 H2225 0.949 . S
C2230 C2236 1.368 . S
C2231 C2215 1.349 . S
C2231 H2223 0.950 . S
C2231 C2229 1.327 . S
C2232 C2220 1.349 . S
C2232 H2226 0.950 . S
C2232 C2233 1.327 . S
C2233 H2227 0.950 . S
C2233 C2232 1.327 . S
C2233 C2237 1.429 . S
C2234 C2217 1.574 . S
C2234 H2228 0.949 . S
C2234 C2238 1.368 . S
C2235 C2216 1.429 . S
C2235 C2229 1.429 . S
C2235 C2236 1.523 . S
C2236 C2217 1.368 . S
C2236 C2230 1.368 . S
C2236 C2235 1.523 . S
C2237 C2221 1.429 . S
C2237 C2233 1.429 . S
C2237 C2238 1.523 . S
C2238 C2222 1.368 . S
C2238 C2234 1.368 . S
C2238 C2237 1.523 . S
H2239 C2214 0.950 . S
H2240 C2216 0.950 . S
H2241 C2217 0.949 . S
H2242 C2219 0.950 . S
H2243 C2221 0.950 . S
C2244 C2245 1.349 . S
C2244 C2246 1.327 . S
C2244 H2269 0.950 . S
C2245 C2244 1.349 . S
C2245 C2261 1.349 . S
C2246 C2244 1.327 . S
C2246 C2265 1.429 . S
C2246 H2270 0.950 . S
C2247 C2264 1.574 . S
C2247 C2266 1.368 . S
C2247 H2271 0.949 . S
H2248 C2252 0.949 . S
C2249 C2250 1.349 . S
C2249 C2251 1.327 . S
C2249 H2272 0.950 . S
C2250 C2249 1.349 . S
C2250 C2262 1.349 . S
C2251 C2249 1.327 . S
C2251 C2267 1.429 . S
C2251 H2273 0.950 . S
C2252 H2248 0.949 . S
C2252 C2260 1.574 . S
C2252 C2268 1.368 . S
H2253 C2261 0.950 . S
H2254 C2259 0.950 . S
H2255 C2260 0.949 . S
H2256 C2262 0.950 . S
H2257 C2263 0.950 . S
H2258 C2264 0.949 . S
C2259 H2254 0.950 . S
C2259 C2261 1.327 . S
C2259 C2265 1.429 . S
C2260 C2252 1.574 . S
C2260 H2255 0.949 . S
C2260 C2266 1.368 . S
C2261 C2245 1.349 . S
C2261 H2253 0.950 . S
C2261 C2259 1.327 . S
C2262 C2250 1.349 . S
C2262 H2256 0.950 . S
C2262 C2263 1.327 . S
C2263 H2257 0.950 . S
C2263 C2262 1.327 . S
C2263 C2267 1.429 . S
C2264 C2247 1.574 . S
C2264 H2258 0.949 . S
C2264 C2268 1.368 . S
C2265 C2246 1.429 . S
C2265 C2259 1.429 . S
C2265 C2266 1.523 . S
C2266 C2247 1.368 . S
C2266 C2260 1.368 . S
C2266 C2265 1.523 . S
C2267 C2251 1.429 . S
C2267 C2263 1.429 . S
C2267 C2268 1.523 . S
C2268 C2252 1.368 . S
C2268 C2264 1.368 . S
C2268 C2267 1.523 . S
H2269 C2244 0.950 . S
H2270 C2246 0.950 . S
H2271 C2247 0.949 . S
H2272 C2249 0.950 . S
H2273 C2251 0.950 . S
C2274 C2275 1.349 . S
C2274 C2276 1.327 . S
C2274 H2299 0.950 . S
C2275 C2274 1.349 . S
C2275 C2291 1.349 . S
C2276 C2274 1.327 . S
C2276 C2295 1.429 . S
C2276 H2300 0.950 . S
C2277 C2294 1.574 . S
C2277 C2296 1.368 . S
C2277 H2301 0.949 . S
H2278 C2282 0.949 . S
C2279 C2280 1.349 . S
C2279 C2281 1.327 . S
C2279 H2302 0.950 . S
C2280 C2279 1.349 . S
C2280 C2292 1.349 . S
C2281 C2279 1.327 . S
C2281 C2297 1.429 . S
C2281 H2303 0.950 . S
C2282 H2278 0.949 . S
C2282 C2290 1.574 . S
C2282 C2298 1.368 . S
H2283 C2291 0.950 . S
H2284 C2289 0.950 . S
H2285 C2290 0.949 . S
H2286 C2292 0.950 . S
H2287 C2293 0.950 . S
H2288 C2294 0.949 . S
C2289 H2284 0.950 . S
C2289 C2291 1.327 . S
C2289 C2295 1.429 . S
C2290 C2282 1.574 . S
C2290 H2285 0.949 . S
C2290 C2296 1.368 . S
C2291 C2275 1.349 . S
C2291 H2283 0.950 . S
C2291 C2289 1.327 . S
C2292 C2280 1.349 . S
C2292 H2286 0.950 . S
C2292 C2293 1.327 . S
C2293 H2287 0.950 . S
C2293 C2292 1.327 . S
C2293 C2297 1.429 . S
C2294 C2277 1.574 . S
C2294 H2288 0.949 . S
C2294 C2298 1.368 . S
C2295 C2276 1.429 . S
C2295 C2289 1.429 . S
C2295 C2296 1.523 . S
C2296 C2277 1.368 . S
C2296 C2290 1.368 . S
C2296 C2295 1.523 . S
C2297 C2281 1.429 . S
C2297 C2293 1.429 . S
C2297 C2298 1.523 . S
C2298 C2282 1.368 . S
C2298 C2294 1.368 . S
C2298 C2297 1.523 . S
H2299 C2274 0.950 . S
H2300 C2276 0.950 . S
H2301 C2277 0.949 . S
H2302 C2279 0.950 . S
H2303 C2281 0.950 . S
C2304 C2305 1.349 . S
C2304 C2306 1.327 . S
C2304 H2329 0.950 . S
C2305 C2304 1.349 . S
C2305 C2321 1.349 . S
C2306 C2304 1.327 . S
C2306 C2325 1.429 . S
C2306 H2330 0.950 . S
C2307 C2324 1.574 . S
C2307 C2326 1.368 . S
C2307 H2331 0.949 . S
H2308 C2312 0.949 . S
C2309 C2310 1.349 . S
C2309 C2311 1.327 . S
C2309 H2332 0.950 . S
C2310 C2309 1.349 . S
C2310 C2322 1.349 . S
C2311 C2309 1.327 . S
C2311 C2327 1.429 . S
C2311 H2333 0.950 . S
C2312 H2308 0.949 . S
C2312 C2320 1.574 . S
C2312 C2328 1.368 . S
H2313 C2321 0.950 . S
H2314 C2319 0.950 . S
H2315 C2320 0.949 . S
H2316 C2322 0.950 . S
H2317 C2323 0.950 . S
H2318 C2324 0.949 . S
C2319 H2314 0.950 . S
C2319 C2321 1.327 . S
C2319 C2325 1.429 . S
C2320 C2312 1.574 . S
C2320 H2315 0.949 . S
C2320 C2326 1.368 . S
C2321 C2305 1.349 . S
C2321 H2313 0.950 . S
C2321 C2319 1.327 . S
C2322 C2310 1.349 . S
C2322 H2316 0.950 . S
C2322 C2323 1.327 . S
C2323 H2317 0.950 . S
C2323 C2322 1.327 . S
C2323 C2327 1.429 . S
C2324 C2307 1.574 . S
C2324 H2318 0.949 . S
C2324 C2328 1.368 . S
C2325 C2306 1.429 . S
C2325 C2319 1.429 . S
C2325 C2326 1.523 . S
C2326 C2307 1.368 . S
C2326 C2320 1.368 . S
C2326 C2325 1.523 . S
C2327 C2311 1.429 . S
C2327 C2323 1.429 . S
C2327 C2328 1.523 . S
C2328 C2312 1.368 . S
C2328 C2324 1.368 . S
C2328 C2327 1.523 . S
H2329 C2304 0.950 . S
H2330 C2306 0.950 . S
H2331 C2307 0.949 . S
H2332 C2309 0.950 . S
H2333 C2311 0.950 . S
C2334 C2335 1.349 . S
C2334 C2336 1.327 . S
C2334 H2359 0.950 . S
C2335 C2334 1.349 . S
C2335 C2351 1.349 . S
C2336 C2334 1.327 . S
C2336 C2355 1.429 . S
C2336 H2360 0.950 . S
C2337 C2354 1.574 . S
C2337 C2356 1.368 . S
C2337 H2361 0.949 . S
H2338 C2342 0.949 . S
C2339 C2340 1.349 . S
C2339 C2341 1.327 . S
C2339 H2362 0.950 . S
C2340 C2339 1.349 . S
C2340 C2352 1.349 . S
C2341 C2339 1.327 . S
C2341 C2357 1.429 . S
C2341 H2363 0.950 . S
C2342 H2338 0.949 . S
C2342 C2350 1.574 . S
C2342 C2358 1.368 . S
H2343 C2351 0.950 . S
H2344 C2349 0.950 . S
H2345 C2350 0.949 . S
H2346 C2352 0.950 . S
H2347 C2353 0.950 . S
H2348 C2354 0.949 . S
C2349 H2344 0.950 . S
C2349 C2351 1.327 . S
C2349 C2355 1.429 . S
C2350 C2342 1.574 . S
C2350 H2345 0.949 . S
C2350 C2356 1.368 . S
C2351 C2335 1.349 . S
C2351 H2343 0.950 . S
C2351 C2349 1.327 . S
C2352 C2340 1.349 . S
C2352 H2346 0.950 . S
C2352 C2353 1.327 . S
C2353 H2347 0.950 . S
C2353 C2352 1.327 . S
C2353 C2357 1.429 . S
C2354 C2337 1.574 . S
C2354 H2348 0.949 . S
C2354 C2358 1.368 . S
C2355 C2336 1.429 . S
C2355 C2349 1.429 . S
C2355 C2356 1.523 . S
C2356 C2337 1.368 . S
C2356 C2350 1.368 . S
C2356 C2355 1.523 . S
C2357 C2341 1.429 . S
C2357 C2353 1.429 . S
C2357 C2358 1.523 . S
C2358 C2342 1.368 . S
C2358 C2354 1.368 . S
C2358 C2357 1.523 . S
H2359 C2334 0.950 . S
H2360 C2336 0.950 . S
H2361 C2337 0.949 . S
H2362 C2339 0.950 . S
H2363 C2341 0.950 . S
C2364 C2365 1.349 . S
C2364 C2366 1.327 . S
C2364 H2389 0.950 . S
C2365 C2364 1.349 . S
C2365 C2381 1.349 . S
C2366 C2364 1.327 . S
C2366 C2385 1.429 . S
C2366 H2390 0.950 . S
C2367 C2384 1.574 . S
C2367 C2386 1.368 . S
C2367 H2391 0.949 . S
H2368 C2372 0.949 . S
C2369 C2370 1.349 . S
C2369 C2371 1.327 . S
C2369 H2392 0.950 . S
C2370 C2369 1.349 . S
C2370 C2382 1.349 . S
C2371 C2369 1.327 . S
C2371 C2387 1.429 . S
C2371 H2393 0.950 . S
C2372 H2368 0.949 . S
C2372 C2380 1.574 . S
C2372 C2388 1.368 . S
H2373 C2381 0.950 . S
H2374 C2379 0.950 . S
H2375 C2380 0.949 . S
H2376 C2382 0.950 . S
H2377 C2383 0.950 . S
H2378 C2384 0.949 . S
C2379 H2374 0.950 . S
C2379 C2381 1.327 . S
C2379 C2385 1.429 . S
C2380 C2372 1.574 . S
C2380 H2375 0.949 . S
C2380 C2386 1.368 . S
C2381 C2365 1.349 . S
C2381 H2373 0.950 . S
C2381 C2379 1.327 . S
C2382 C2370 1.349 . S
C2382 H2376 0.950 . S
C2382 C2383 1.327 . S
C2383 H2377 0.950 . S
C2383 C2382 1.327 . S
C2383 C2387 1.429 . S
C2384 C2367 1.574 . S
C2384 H2378 0.949 . S
C2384 C2388 1.368 . S
C2385 C2366 1.429 . S
C2385 C2379 1.429 . S
C2385 C2386 1.523 . S
C2386 C2367 1.368 . S
C2386 C2380 1.368 . S
C2386 C2385 1.523 . S
C2387 C2371 1.429 . S
C2387 C2383 1.429 . S
C2387 C2388 1.523 . S
C2388 C2372 1.368 . S
C2388 C2384 1.368 . S
C2388 C2387 1.523 . S
H2389 C2364 0.950 . S
H2390 C2366 0.950 . S
H2391 C2367 0.949 . S
H2392 C2369 0.950 . S
H2393 C2371 0.950 . S
C2394 C2395 1.349 . S
C2394 C2396 1.327 . S
C2394 H2419 0.950 . S
C2395 C2394 1.349 . S
C2395 C2411 1.349 . S
C2396 C2394 1.327 . S
C2396 C2415 1.429 . S
C2396 H2420 0.950 . S
C2397 C2414 1.574 . S
C2397 C2416 1.368 . S
C2397 H2421 0.949 . S
H2398 C2402 0.949 . S
C2399 C2400 1.349 . S
C2399 C2401 1.327 . S
C2399 H2422 0.950 . S
C2400 C2399 1.349 . S
C2400 C2412 1.349 . S
C2401 C2399 1.327 . S
C2401 C2417 1.429 . S
C2401 H2423 0.950 . S
C2402 H2398 0.949 . S
C2402 C2410 1.574 . S
C2402 C2418 1.368 . S
H2403 C2411 0.950 . S
H2404 C2409 0.950 . S
H2405 C2410 0.949 . S
H2406 C2412 0.950 . S
H2407 C2413 0.950 . S
H2408 C2414 0.949 . S
C2409 H2404 0.950 . S
C2409 C2411 1.327 . S
C2409 C2415 1.429 . S
C2410 C2402 1.574 . S
C2410 H2405 0.949 . S
C2410 C2416 1.368 . S
C2411 C2395 1.349 . S
C2411 H2403 0.950 . S
C2411 C2409 1.327 . S
C2412 C2400 1.349 . S
C2412 H2406 0.950 . S
C2412 C2413 1.327 . S
C2413 H2407 0.950 . S
C2413 C2412 1.327 . S
C2413 C2417 1.429 . S
C2414 C2397 1.574 . S
C2414 H2408 0.949 . S
C2414 C2418 1.368 . S
C2415 C2396 1.429 . S
C2415 C2409 1.429 . S
C2415 C2416 1.523 . S
C2416 C2397 1.368 . S
C2416 C2410 1.368 . S
C2416 C2415 1.523 . S
C2417 C2401 1.429 . S
C2417 C2413 1.429 . S
C2417 C2418 1.523 . S
C2418 C2402 1.368 . S
C2418 C2414 1.368 . S
C2418 C2417 1.523 . S
H2419 C2394 0.950 . S
H2420 C2396 0.950 . S
H2421 C2397 0.949 . S
H2422 C2399 0.950 . S
H2423 C2401 0.950 . S
C2424 C2425 1.349 . S
C2424 C2426 1.327 . S
C2424 H2449 0.950 . S
C2425 C2424 1.349 . S
C2425 C2441 1.349 . S
C2426 C2424 1.327 . S
C2426 C2445 1.429 . S
C2426 H2450 0.950 . S
C2427 C2444 1.574 . S
C2427 C2446 1.368 . S
C2427 H2451 0.949 . S
H2428 C2432 0.949 . S
C2429 C2430 1.349 . S
C2429 C2431 1.327 . S
C2429 H2452 0.950 . S
C2430 C2429 1.349 . S
C2430 C2442 1.349 . S
C2431 C2429 1.327 . S
C2431 C2447 1.429 . S
C2431 H2453 0.950 . S
C2432 H2428 0.949 . S
C2432 C2440 1.574 . S
C2432 C2448 1.368 . S
H2433 C2441 0.950 . S
H2434 C2439 0.950 . S
H2435 C2440 0.949 . S
H2436 C2442 0.950 . S
H2437 C2443 0.950 . S
H2438 C2444 0.949 . S
C2439 H2434 0.950 . S
C2439 C2441 1.327 . S
C2439 C2445 1.429 . S
C2440 C2432 1.574 . S
C2440 H2435 0.949 . S
C2440 C2446 1.368 . S
C2441 C2425 1.349 . S
C2441 H2433 0.950 . S
C2441 C2439 1.327 . S
C2442 C2430 1.349 . S
C2442 H2436 0.950 . S
C2442 C2443 1.327 . S
C2443 H2437 0.950 . S
C2443 C2442 1.327 . S
C2443 C2447 1.429 . S
C2444 C2427 1.574 . S
C2444 H2438 0.949 . S
C2444 C2448 1.368 . S
C2445 C2426 1.429 . S
C2445 C2439 1.429 . S
C2445 C2446 1.523 . S
C2446 C2427 1.368 . S
C2446 C2440 1.368 . S
C2446 C2445 1.523 . S
C2447 C2431 1.429 . S
C2447 C2443 1.429 . S
C2447 C2448 1.523 . S
C2448 C2432 1.368 . S
C2448 C2444 1.368 . S
C2448 C2447 1.523 . S
H2449 C2424 0.950 . S
H2450 C2426 0.950 . S
H2451 C2427 0.949 . S
H2452 C2429 0.950 . S
H2453 C2431 0.950 . S
C2454 C2455 1.349 . S
C2454 C2456 1.327 . S
C2454 H2479 0.950 . S
C2455 C2454 1.349 . S
C2455 C2471 1.349 . S
C2456 C2454 1.327 . S
C2456 C2475 1.429 . S
C2456 H2480 0.950 . S
C2457 C2474 1.574 . S
C2457 C2476 1.368 . S
C2457 H2481 0.949 . S
H2458 C2462 0.949 . S
C2459 C2460 1.349 . S
C2459 C2461 1.327 . S
C2459 H2482 0.950 . S
C2460 C2459 1.349 . S
C2460 C2472 1.349 . S
C2461 C2459 1.327 . S
C2461 C2477 1.429 . S
C2461 H2483 0.950 . S
C2462 H2458 0.949 . S
C2462 C2470 1.574 . S
C2462 C2478 1.368 . S
H2463 C2471 0.950 . S
H2464 C2469 0.950 . S
H2465 C2470 0.949 . S
H2466 C2472 0.950 . S
H2467 C2473 0.950 . S
H2468 C2474 0.949 . S
C2469 H2464 0.950 . S
C2469 C2471 1.327 . S
C2469 C2475 1.429 . S
C2470 C2462 1.574 . S
C2470 H2465 0.949 . S
C2470 C2476 1.368 . S
C2471 C2455 1.349 . S
C2471 H2463 0.950 . S
C2471 C2469 1.327 . S
C2472 C2460 1.349 . S
C2472 H2466 0.950 . S
C2472 C2473 1.327 . S
C2473 H2467 0.950 . S
C2473 C2472 1.327 . S
C2473 C2477 1.429 . S
C2474 C2457 1.574 . S
C2474 H2468 0.949 . S
C2474 C2478 1.368 . S
C2475 C2456 1.429 . S
C2475 C2469 1.429 . S
C2475 C2476 1.523 . S
C2476 C2457 1.368 . S
C2476 C2470 1.368 . S
C2476 C2475 1.523 . S
C2477 C2461 1.429 . S
C2477 C2473 1.429 . S
C2477 C2478 1.523 . S
C2478 C2462 1.368 . S
C2478 C2474 1.368 . S
C2478 C2477 1.523 . S
H2479 C2454 0.950 . S
H2480 C2456 0.950 . S
H2481 C2457 0.949 . S
H2482 C2459 0.950 . S
H2483 C2461 0.950 . S
C2484 C2485 1.349 . S
C2484 C2486 1.327 . S
C2484 H2509 0.950 . S
C2485 C2484 1.349 . S
C2485 C2501 1.349 . S
C2486 C2484 1.327 . S
C2486 C2505 1.429 . S
C2486 H2510 0.950 . S
C2487 C2504 1.574 . S
C2487 C2506 1.368 . S
C2487 H2511 0.949 . S
H2488 C2492 0.949 . S
C2489 C2490 1.349 . S
C2489 C2491 1.327 . S
C2489 H2512 0.950 . S
C2490 C2489 1.349 . S
C2490 C2502 1.349 . S
C2491 C2489 1.327 . S
C2491 C2507 1.429 . S
C2491 H2513 0.950 . S
C2492 H2488 0.949 . S
C2492 C2500 1.574 . S
C2492 C2508 1.368 . S
H2493 C2501 0.950 . S
H2494 C2499 0.950 . S
H2495 C2500 0.949 . S
H2496 C2502 0.950 . S
H2497 C2503 0.950 . S
H2498 C2504 0.949 . S
C2499 H2494 0.950 . S
C2499 C2501 1.327 . S
C2499 C2505 1.429 . S
C2500 C2492 1.574 . S
C2500 H2495 0.949 . S
C2500 C2506 1.368 . S
C2501 C2485 1.349 . S
C2501 H2493 0.950 . S
C2501 C2499 1.327 . S
C2502 C2490 1.349 . S
C2502 H2496 0.950 . S
C2502 C2503 1.327 . S
C2503 H2497 0.950 . S
C2503 C2502 1.327 . S
C2503 C2507 1.429 . S
C2504 C2487 1.574 . S
C2504 H2498 0.949 . S
C2504 C2508 1.368 . S
C2505 C2486 1.429 . S
C2505 C2499 1.429 . S
C2505 C2506 1.523 . S
C2506 C2487 1.368 . S
C2506 C2500 1.368 . S
C2506 C2505 1.523 . S
C2507 C2491 1.429 . S
C2507 C2503 1.429 . S
C2507 C2508 1.523 . S
C2508 C2492 1.368 . S
C2508 C2504 1.368 . S
C2508 C2507 1.523 . S
H2509 C2484 0.950 . S
H2510 C2486 0.950 . S
H2511 C2487 0.949 . S
H2512 C2489 0.950 . S
H2513 C2491 0.950 . S
C2514 C2515 1.349 . S
C2514 C2516 1.327 . S
C2514 H2539 0.950 . S
C2515 C2514 1.349 . S
C2515 C2531 1.349 . S
C2516 C2514 1.327 . S
C2516 C2535 1.429 . S
C2516 H2540 0.950 . S
C2517 C2534 1.574 . S
C2517 C2536 1.368 . S
C2517 H2541 0.949 . S
H2518 C2522 0.949 . S
C2519 C2520 1.349 . S
C2519 C2521 1.327 . S
C2519 H2542 0.950 . S
C2520 C2519 1.349 . S
C2520 C2532 1.349 . S
C2521 C2519 1.327 . S
C2521 C2537 1.429 . S
C2521 H2543 0.950 . S
C2522 H2518 0.949 . S
C2522 C2530 1.574 . S
C2522 C2538 1.368 . S
H2523 C2531 0.950 . S
H2524 C2529 0.950 . S
H2525 C2530 0.949 . S
H2526 C2532 0.950 . S
H2527 C2533 0.950 . S
H2528 C2534 0.949 . S
C2529 H2524 0.950 . S
C2529 C2531 1.327 . S
C2529 C2535 1.429 . S
C2530 C2522 1.574 . S
C2530 H2525 0.949 . S
C2530 C2536 1.368 . S
C2531 C2515 1.349 . S
C2531 H2523 0.950 . S
C2531 C2529 1.327 . S
C2532 C2520 1.349 . S
C2532 H2526 0.950 . S
C2532 C2533 1.327 . S
C2533 H2527 0.950 . S
C2533 C2532 1.327 . S
C2533 C2537 1.429 . S
C2534 C2517 1.574 . S
C2534 H2528 0.949 . S
C2534 C2538 1.368 . S
C2535 C2516 1.429 . S
C2535 C2529 1.429 . S
C2535 C2536 1.523 . S
C2536 C2517 1.368 . S
C2536 C2530 1.368 . S
C2536 C2535 1.523 . S
C2537 C2521 1.429 . S
C2537 C2533 1.429 . S
C2537 C2538 1.523 . S
C2538 C2522 1.368 . S
C2538 C2534 1.368 . S
C2538 C2537 1.523 . S
H2539 C2514 0.950 . S
H2540 C2516 0.950 . S
H2541 C2517 0.949 . S
H2542 C2519 0.950 . S
H2543 C2521 0.950 . S
C2544 C2545 1.349 . S
C2544 C2546 1.327 . S
C2544 H2569 0.950 . S
C2545 C2544 1.349 . S
C2545 C2561 1.349 . S
C2546 C2544 1.327 . S
C2546 C2565 1.429 . S
C2546 H2570 0.950 . S
C2547 C2564 1.574 . S
C2547 C2566 1.368 . S
C2547 H2571 0.949 . S
H2548 C2552 0.949 . S
C2549 C2550 1.349 . S
C2549 C2551 1.327 . S
C2549 H2572 0.950 . S
C2550 C2549 1.349 . S
C2550 C2562 1.349 . S
C2551 C2549 1.327 . S
C2551 C2567 1.429 . S
C2551 H2573 0.950 . S
C2552 H2548 0.949 . S
C2552 C2560 1.574 . S
C2552 C2568 1.368 . S
H2553 C2561 0.950 . S
H2554 C2559 0.950 . S
H2555 C2560 0.949 . S
H2556 C2562 0.950 . S
H2557 C2563 0.950 . S
H2558 C2564 0.949 . S
C2559 H2554 0.950 . S
C2559 C2561 1.327 . S
C2559 C2565 1.429 . S
C2560 C2552 1.574 . S
C2560 H2555 0.949 . S
C2560 C2566 1.368 . S
C2561 C2545 1.349 . S
C2561 H2553 0.950 . S
C2561 C2559 1.327 . S
C2562 C2550 1.349 . S
C2562 H2556 0.950 . S
C2562 C2563 1.327 . S
C2563 H2557 0.950 . S
C2563 C2562 1.327 . S
C2563 C2567 1.429 . S
C2564 C2547 1.574 . S
C2564 H2558 0.949 . S
C2564 C2568 1.368 . S
C2565 C2546 1.429 . S
C2565 C2559 1.429 . S
C2565 C2566 1.523 . S
C2566 C2547 1.368 . S
C2566 C2560 1.368 . S
C2566 C2565 1.523 . S
C2567 C2551 1.429 . S
C2567 C2563 1.429 . S
C2567 C2568 1.523 . S
C2568 C2552 1.368 . S
C2568 C2564 1.368 . S
C2568 C2567 1.523 . S
H2569 C2544 0.950 . S
H2570 C2546 0.950 . S
H2571 C2547 0.949 . S
H2572 C2549 0.950 . S
H2573 C2551 0.950 . S
C2574 C2575 1.349 . S
C2574 C2576 1.327 . S
C2574 H2599 0.950 . S
C2575 C2574 1.349 . S
C2575 C2591 1.349 . S
C2576 C2574 1.327 . S
C2576 C2595 1.429 . S
C2576 H2600 0.950 . S
C2577 C2594 1.574 . S
C2577 C2596 1.368 . S
C2577 H2601 0.949 . S
H2578 C2582 0.949 . S
C2579 C2580 1.349 . S
C2579 C2581 1.327 . S
C2579 H2602 0.950 . S
C2580 C2579 1.349 . S
C2580 C2592 1.349 . S
C2581 C2579 1.327 . S
C2581 C2597 1.429 . S
C2581 H2603 0.950 . S
C2582 H2578 0.949 . S
C2582 C2590 1.574 . S
C2582 C2598 1.368 . S
H2583 C2591 0.950 . S
H2584 C2589 0.950 . S
H2585 C2590 0.949 . S
H2586 C2592 0.950 . S
H2587 C2593 0.950 . S
H2588 C2594 0.949 . S
C2589 H2584 0.950 . S
C2589 C2591 1.327 . S
C2589 C2595 1.429 . S
C2590 C2582 1.574 . S
C2590 H2585 0.949 . S
C2590 C2596 1.368 . S
C2591 C2575 1.349 . S
C2591 H2583 0.950 . S
C2591 C2589 1.327 . S
C2592 C2580 1.349 . S
C2592 H2586 0.950 . S
C2592 C2593 1.327 . S
C2593 H2587 0.950 . S
C2593 C2592 1.327 . S
C2593 C2597 1.429 . S
C2594 C2577 1.574 . S
C2594 H2588 0.949 . S
C2594 C2598 1.368 . S
C2595 C2576 1.429 . S
C2595 C2589 1.429 . S
C2595 C2596 1.523 . S
C2596 C2577 1.368 . S
C2596 C2590 1.368 . S
C2596 C2595 1.523 . S
C2597 C2581 1.429 . S
C2597 C2593 1.429 . S
C2597 C2598 1.523 . S
C2598 C2582 1.368 . S
C2598 C2594 1.368 . S
C2598 C2597 1.523 . S
H2599 C2574 0.950 . S
H2600 C2576 0.950 . S
H2601 C2577 0.949 . S
H2602 C2579 0.950 . S
H2603 C2581 0.950 . S
C2604 C2605 1.349 . S
C2604 C2606 1.327 . S
C2604 H2629 0.950 . S
C2605 C2604 1.349 . S
C2605 C2621 1.349 . S
C2606 C2604 1.327 . S
C2606 C2625 1.429 . S
C2606 H2630 0.950 . S
C2607 C2624 1.574 . S
C2607 C2626 1.368 . S
C2607 H2631 0.949 . S
H2608 C2612 0.949 . S
C2609 C2610 1.349 . S
C2609 C2611 1.327 . S
C2609 H2632 0.950 . S
C2610 C2609 1.349 . S
C2610 C2622 1.349 . S
C2611 C2609 1.327 . S
C2611 C2627 1.429 . S
C2611 H2633 0.950 . S
C2612 H2608 0.949 . S
C2612 C2620 1.574 . S
C2612 C2628 1.368 . S
H2613 C2621 0.950 . S
H2614 C2619 0.950 . S
H2615 C2620 0.949 . S
H2616 C2622 0.950 . S
H2617 C2623 0.950 . S
H2618 C2624 0.949 . S
C2619 H2614 0.950 . S
C2619 C2621 1.327 . S
C2619 C2625 1.429 . S
C2620 C2612 1.574 . S
C2620 H2615 0.949 . S
C2620 C2626 1.368 . S
C2621 C2605 1.349 . S
C2621 H2613 0.950 . S
C2621 C2619 1.327 . S
C2622 C2610 1.349 . S
C2622 H2616 0.950 . S
C2622 C2623 1.327 . S
C2623 H2617 0.950 . S
C2623 C2622 1.327 . S
C2623 C2627 1.429 . S
C2624 C2607 1.574 . S
C2624 H2618 0.949 . S
C2624 C2628 1.368 . S
C2625 C2606 1.429 . S
C2625 C2619 1.429 . S
C2625 C2626 1.523 . S
C2626 C2607 1.368 . S
C2626 C2620 1.368 . S
C2626 C2625 1.523 . S
C2627 C2611 1.429 . S
C2627 C2623 1.429 . S
C2627 C2628 1.523 . S
C2628 C2612 1.368 . S
C2628 C2624 1.368 . S
C2628 C2627 1.523 . S
H2629 C2604 0.950 . S
H2630 C2606 0.950 . S
H2631 C2607 0.949 . S
H2632 C2609 0.950 . S
H2633 C2611 0.950 . S
C2634 C2635 1.349 . S
C2634 C2636 1.327 . S
C2634 H2659 0.950 . S
C2635 C2634 1.349 . S
C2635 C2651 1.349 . S
C2636 C2634 1.327 . S
C2636 C2655 1.429 . S
C2636 H2660 0.950 . S
C2637 C2654 1.574 . S
C2637 C2656 1.368 . S
C2637 H2661 0.949 . S
H2638 C2642 0.949 . S
C2639 C2640 1.349 . S
C2639 C2641 1.327 . S
C2639 H2662 0.950 . S
C2640 C2639 1.349 . S
C2640 C2652 1.349 . S
C2641 C2639 1.327 . S
C2641 C2657 1.429 . S
C2641 H2663 0.950 . S
C2642 H2638 0.949 . S
C2642 C2650 1.574 . S
C2642 C2658 1.368 . S
H2643 C2651 0.950 . S
H2644 C2649 0.950 . S
H2645 C2650 0.949 . S
H2646 C2652 0.950 . S
H2647 C2653 0.950 . S
H2648 C2654 0.949 . S
C2649 H2644 0.950 . S
C2649 C2651 1.327 . S
C2649 C2655 1.429 . S
C2650 C2642 1.574 . S
C2650 H2645 0.949 . S
C2650 C2656 1.368 . S
C2651 C2635 1.349 . S
C2651 H2643 0.950 . S
C2651 C2649 1.327 . S
C2652 C2640 1.349 . S
C2652 H2646 0.950 . S
C2652 C2653 1.327 . S
C2653 H2647 0.950 . S
C2653 C2652 1.327 . S
C2653 C2657 1.429 . S
C2654 C2637 1.574 . S
C2654 H2648 0.949 . S
C2654 C2658 1.368 . S
C2655 C2636 1.429 . S
C2655 C2649 1.429 . S
C2655 C2656 1.523 . S
C2656 C2637 1.368 . S
C2656 C2650 1.368 . S
C2656 C2655 1.523 . S
C2657 C2641 1.429 . S
C2657 C2653 1.429 . S
C2657 C2658 1.523 . S
C2658 C2642 1.368 . S
C2658 C2654 1.368 . S
C2658 C2657 1.523 . S
H2659 C2634 0.950 . S
H2660 C2636 0.950 . S
H2661 C2637 0.949 . S
H2662 C2639 0.950 . S
H2663 C2641 0.950 . S
C505 C11 0.846 . S
C510 C165 0.846 . S
C535 C137 0.846 . S
C540 C25 0.846 . S
C565 C151 0.846 . S
C570 C39 0.846 . S
C595 C53 0.846 . S
C600 C109 0.846 . S
C625 C67 0.846 . S
C630 C123 0.846 . S
C655 C81 0.846 . S
C660 C95 0.846 . S
C685 C179 0.846 . S
C690 C333 0.846 . S
C715 C305 0.846 . S
C720 C193 0.846 . S
C745 C207 0.846 . S
C750 C319 0.846 . S
C775 C221 0.846 . S
C780 C277 0.846 . S
C805 C235 0.846 . S
C810 C291 0.846 . S
C835 C249 0.846 . S
C840 C263 0.846 . S
C865 C347 0.846 . S
C870 C501 0.846 . S
C895 C361 0.846 . S
C900 C473 0.846 . S
C925 C487 0.846 . S
C930 C375 0.846 . S
C955 C389 0.846 . S
C960 C445 0.846 . S
C985 C459 0.846 . S
C990 C403 0.846 . S
C1015 C431 0.846 . S
C1020 C417 0.846 . S
C1045 C5 0.979 . S
C1050 C215 0.979 . S
C1075 C19 0.979 . S
C1080 C229 0.979 . S
C1105 C33 0.979 . S
C1110 C243 0.979 . S
C1135 C47 0.979 . S
C1140 C341 0.979 . S
C1165 C355 0.979 . S
C1170 C61 0.979 . S
C1195 C369 0.979 . S
C1200 C75 0.979 . S
C1225 C89 0.979 . S
C1230 C467 0.979 . S
C1255 C481 0.979 . S
C1260 C103 0.979 . S
C1285 C117 0.979 . S
C1290 C495 0.979 . S
C1315 C131 0.979 . S
C1320 C257 0.979 . S
C1345 C145 0.979 . S
C1350 C271 0.979 . S
C1375 C159 0.979 . S
C1380 C285 0.979 . S
C1405 C383 0.979 . S
C1410 C173 0.979 . S
C1435 C187 0.978 . S
C1440 C397 0.978 . S
C1465 C201 0.978 . S
C1470 C411 0.978 . S
C1495 C425 0.979 . S
C1500 C299 0.979 . S
C1525 C439 0.979 . S
C1530 C313 0.979 . S
C1555 C327 0.979 . S
C1560 C453 0.979 . S
C1585 C12 1.386 . S
C1590 C68 1.386 . S
C1615 C82 1.386 . S
C1620 C26 1.386 . S
C1645 C54 1.386 . S
C1650 C40 1.386 . S
C1675 C96 1.386 . S
C1680 C152 1.386 . S
C1705 C166 1.386 . S
C1710 C110 1.386 . S
C1735 C124 1.386 . S
C1740 C138 1.386 . S
C1765 C236 1.386 . S
C1770 C180 1.386 . S
C1795 C194 1.386 . S
C1800 C250 1.386 . S
C1825 C208 1.386 . S
C1830 C222 1.386 . S
C1855 C320 1.386 . S
C1860 C264 1.386 . S
C1885 C334 1.386 . S
C1890 C278 1.386 . S
C1915 C306 1.386 . S
C1920 C292 1.386 . S
C1945 C348 1.386 . S
C1950 C404 1.386 . S
C1975 C362 1.386 . S
C1980 C418 1.386 . S
C2005 C376 1.386 . S
C2010 C390 1.386 . S
C2035 C488 1.386 . S
C2040 C432 1.386 . S
C2065 C502 1.386 . S
C2070 C446 1.386 . S
C2095 C474 1.386 . S
C2100 C460 1.386 . S
C2125 C130 1.502 . S
C2130 C4 1.502 1_655 S
C2155 C144 1.502 1_655 S
C2160 C18 1.502 . S
C2185 C32 1.502 . S
C2190 C158 1.502 . S
C2215 C46 1.502 1_565 S
C2220 C88 1.502 . S
C2245 C102 1.502 . S
C2250 C60 1.502 . S
C2275 C74 1.502 . S
C2280 C116 1.502 1_565 S
C2305 C298 1.502 . S
C2310 C172 1.502 . S
C2335 C312 1.502 . S
C2340 C186 1.502 . S
C2365 C200 1.502 . S
C2370 C326 1.502 . S
C2395 C256 1.502 . S
C2400 C214 1.502 . S
C2425 C270 1.502 . S
C2430 C228 1.502 . S
C2455 C284 1.502 . S
C2460 C242 1.502 . S
C2485 C340 1.502 . S
C2490 C466 1.502 . S
C2515 C480 1.502 . S
C2520 C354 1.502 . S
C2545 C368 1.502 . S
C2550 C494 1.502 . S
C2575 C382 1.502 . S
C2580 C424 1.502 . S
C2605 C396 1.502 . S
C2610 C438 1.502 . S
C2635 C452 1.502 . S
C2640 C410 1.502 . S
