# Generated by pormake.
# Topology smq, (6)-cn, num edge types: 1
# Building blocks:
#     Node 0, Type 0, BuildingBlock: OJICUG_clean_sbu_0, # of connection points: 6
#     Node 1, Type 0, BuildingBlock: OJICUG_clean_sbu_0, # of connection points: 6
#     Node 2, Type 0, BuildingBlock: OJICUG_clean_sbu_0, # of connection points: 6
#     Node 3, Type 0, BuildingBlock: OJICUG_clean_sbu_0, # of connection points: 6
#     Node 4, Type 0, BuildingBlock: OJICUG_clean_sbu_0, # of connection points: 6
#     Node 5, Type 0, BuildingBlock: OJICUG_clean_sbu_0, # of connection points: 6
#     Node 6, Type 0, BuildingBlock: OJICUG_clean_sbu_0, # of connection points: 6
#     Node 7, Type 0, BuildingBlock: OJICUG_clean_sbu_0, # of connection points: 6
#     Node 8, Type 0, BuildingBlock: OJICUG_clean_sbu_0, # of connection points: 6
#     Node 9, Type 0, BuildingBlock: OJICUG_clean_sbu_0, # of connection points: 6
#     Node 10, Type 0, BuildingBlock: OJICUG_clean_sbu_0, # of connection points: 6
#     Node 11, Type 0, BuildingBlock: OJICUG_clean_sbu_0, # of connection points: 6
#     Node 12, Type 0, BuildingBlock: OJICUG_clean_sbu_0, # of connection points: 6
#     Node 13, Type 0, BuildingBlock: OJICUG_clean_sbu_0, # of connection points: 6
#     Node 14, Type 0, BuildingBlock: OJICUG_clean_sbu_0, # of connection points: 6
#     Node 15, Type 0, BuildingBlock: OJICUG_clean_sbu_0, # of connection points: 6
#     Node 16, Type 0, BuildingBlock: OJICUG_clean_sbu_0, # of connection points: 6
#     Node 17, Type 0, BuildingBlock: OJICUG_clean_sbu_0, # of connection points: 6
#     Node 18, Type 0, BuildingBlock: OJICUG_clean_sbu_0, # of connection points: 6
#     Node 19, Type 0, BuildingBlock: OJICUG_clean_sbu_0, # of connection points: 6
#     Node 20, Type 0, BuildingBlock: OJICUG_clean_sbu_0, # of connection points: 6
#     Node 21, Type 0, BuildingBlock: OJICUG_clean_sbu_0, # of connection points: 6
#     Node 22, Type 0, BuildingBlock: OJICUG_clean_sbu_0, # of connection points: 6
#     Node 23, Type 0, BuildingBlock: OJICUG_clean_sbu_0, # of connection points: 6
#     Edge 24, Type (0, 0), BuildingBlock: UVAHIK_clean_linker_0, # of connection points: 2
#     Edge 25, Type (0, 0), BuildingBlock: UVAHIK_clean_linker_0, # of connection points: 2
#     Edge 26, Type (0, 0), BuildingBlock: UVAHIK_clean_linker_0, # of connection points: 2
#     Edge 27, Type (0, 0), BuildingBlock: UVAHIK_clean_linker_0, # of connection points: 2
#     Edge 28, Type (0, 0), BuildingBlock: UVAHIK_clean_linker_0, # of connection points: 2
#     Edge 29, Type (0, 0), BuildingBlock: UVAHIK_clean_linker_0, # of connection points: 2
#     Edge 30, Type (0, 0), BuildingBlock: UVAHIK_clean_linker_0, # of connection points: 2
#     Edge 31, Type (0, 0), BuildingBlock: UVAHIK_clean_linker_0, # of connection points: 2
#     Edge 32, Type (0, 0), BuildingBlock: UVAHIK_clean_linker_0, # of connection points: 2
#     Edge 33, Type (0, 0), BuildingBlock: UVAHIK_clean_linker_0, # of connection points: 2
#     Edge 34, Type (0, 0), BuildingBlock: UVAHIK_clean_linker_0, # of connection points: 2
#     Edge 35, Type (0, 0), BuildingBlock: UVAHIK_clean_linker_0, # of connection points: 2
#     Edge 36, Type (0, 0), BuildingBlock: UVAHIK_clean_linker_0, # of connection points: 2
#     Edge 37, Type (0, 0), BuildingBlock: UVAHIK_clean_linker_0, # of connection points: 2
#     Edge 38, Type (0, 0), BuildingBlock: UVAHIK_clean_linker_0, # of connection points: 2
#     Edge 39, Type (0, 0), BuildingBlock: UVAHIK_clean_linker_0, # of connection points: 2
#     Edge 40, Type (0, 0), BuildingBlock: UVAHIK_clean_linker_0, # of connection points: 2
#     Edge 41, Type (0, 0), BuildingBlock: UVAHIK_clean_linker_0, # of connection points: 2
#     Edge 42, Type (0, 0), BuildingBlock: UVAHIK_clean_linker_0, # of connection points: 2
#     Edge 43, Type (0, 0), BuildingBlock: UVAHIK_clean_linker_0, # of connection points: 2
#     Edge 44, Type (0, 0), BuildingBlock: UVAHIK_clean_linker_0, # of connection points: 2
#     Edge 45, Type (0, 0), BuildingBlock: UVAHIK_clean_linker_0, # of connection points: 2
#     Edge 46, Type (0, 0), BuildingBlock: UVAHIK_clean_linker_0, # of connection points: 2
#     Edge 47, Type (0, 0), BuildingBlock: UVAHIK_clean_linker_0, # of connection points: 2
#     Edge 48, Type (0, 0), BuildingBlock: UVAHIK_clean_linker_0, # of connection points: 2
#     Edge 49, Type (0, 0), BuildingBlock: UVAHIK_clean_linker_0, # of connection points: 2
#     Edge 50, Type (0, 0), BuildingBlock: UVAHIK_clean_linker_0, # of connection points: 2
#     Edge 51, Type (0, 0), BuildingBlock: UVAHIK_clean_linker_0, # of connection points: 2
#     Edge 52, Type (0, 0), BuildingBlock: UVAHIK_clean_linker_0, # of connection points: 2
#     Edge 53, Type (0, 0), BuildingBlock: UVAHIK_clean_linker_0, # of connection points: 2
#     Edge 54, Type (0, 0), BuildingBlock: UVAHIK_clean_linker_0, # of connection points: 2
#     Edge 55, Type (0, 0), BuildingBlock: UVAHIK_clean_linker_0, # of connection points: 2
#     Edge 56, Type (0, 0), BuildingBlock: UVAHIK_clean_linker_0, # of connection points: 2
#     Edge 57, Type (0, 0), BuildingBlock: UVAHIK_clean_linker_0, # of connection points: 2
#     Edge 58, Type (0, 0), BuildingBlock: UVAHIK_clean_linker_0, # of connection points: 2
#     Edge 59, Type (0, 0), BuildingBlock: UVAHIK_clean_linker_0, # of connection points: 2
#     Edge 60, Type (0, 0), BuildingBlock: UVAHIK_clean_linker_0, # of connection points: 2
#     Edge 61, Type (0, 0), BuildingBlock: UVAHIK_clean_linker_0, # of connection points: 2
#     Edge 62, Type (0, 0), BuildingBlock: UVAHIK_clean_linker_0, # of connection points: 2
#     Edge 63, Type (0, 0), BuildingBlock: UVAHIK_clean_linker_0, # of connection points: 2
#     Edge 64, Type (0, 0), BuildingBlock: UVAHIK_clean_linker_0, # of connection points: 2
#     Edge 65, Type (0, 0), BuildingBlock: UVAHIK_clean_linker_0, # of connection points: 2
#     Edge 66, Type (0, 0), BuildingBlock: UVAHIK_clean_linker_0, # of connection points: 2
#     Edge 67, Type (0, 0), BuildingBlock: UVAHIK_clean_linker_0, # of connection points: 2
#     Edge 68, Type (0, 0), BuildingBlock: UVAHIK_clean_linker_0, # of connection points: 2
#     Edge 69, Type (0, 0), BuildingBlock: UVAHIK_clean_linker_0, # of connection points: 2
#     Edge 70, Type (0, 0), BuildingBlock: UVAHIK_clean_linker_0, # of connection points: 2
#     Edge 71, Type (0, 0), BuildingBlock: UVAHIK_clean_linker_0, # of connection points: 2
#     Edge 72, Type (0, 0), BuildingBlock: UVAHIK_clean_linker_0, # of connection points: 2
#     Edge 73, Type (0, 0), BuildingBlock: UVAHIK_clean_linker_0, # of connection points: 2
#     Edge 74, Type (0, 0), BuildingBlock: UVAHIK_clean_linker_0, # of connection points: 2
#     Edge 75, Type (0, 0), BuildingBlock: UVAHIK_clean_linker_0, # of connection points: 2
#     Edge 76, Type (0, 0), BuildingBlock: UVAHIK_clean_linker_0, # of connection points: 2
#     Edge 77, Type (0, 0), BuildingBlock: UVAHIK_clean_linker_0, # of connection points: 2
#     Edge 78, Type (0, 0), BuildingBlock: UVAHIK_clean_linker_0, # of connection points: 2
#     Edge 79, Type (0, 0), BuildingBlock: UVAHIK_clean_linker_0, # of connection points: 2
#     Edge 80, Type (0, 0), BuildingBlock: UVAHIK_clean_linker_0, # of connection points: 2
#     Edge 81, Type (0, 0), BuildingBlock: UVAHIK_clean_linker_0, # of connection points: 2
#     Edge 82, Type (0, 0), BuildingBlock: UVAHIK_clean_linker_0, # of connection points: 2
#     Edge 83, Type (0, 0), BuildingBlock: UVAHIK_clean_linker_0, # of connection points: 2
#     Edge 84, Type (0, 0), BuildingBlock: UVAHIK_clean_linker_0, # of connection points: 2
#     Edge 85, Type (0, 0), BuildingBlock: UVAHIK_clean_linker_0, # of connection points: 2
#     Edge 86, Type (0, 0), BuildingBlock: UVAHIK_clean_linker_0, # of connection points: 2
#     Edge 87, Type (0, 0), BuildingBlock: UVAHIK_clean_linker_0, # of connection points: 2
#     Edge 88, Type (0, 0), BuildingBlock: UVAHIK_clean_linker_0, # of connection points: 2
#     Edge 89, Type (0, 0), BuildingBlock: UVAHIK_clean_linker_0, # of connection points: 2
#     Edge 90, Type (0, 0), BuildingBlock: UVAHIK_clean_linker_0, # of connection points: 2
#     Edge 91, Type (0, 0), BuildingBlock: UVAHIK_clean_linker_0, # of connection points: 2
#     Edge 92, Type (0, 0), BuildingBlock: UVAHIK_clean_linker_0, # of connection points: 2
#     Edge 93, Type (0, 0), BuildingBlock: UVAHIK_clean_linker_0, # of connection points: 2
#     Edge 94, Type (0, 0), BuildingBlock: UVAHIK_clean_linker_0, # of connection points: 2
#     Edge 95, Type (0, 0), BuildingBlock: UVAHIK_clean_linker_0, # of connection points: 2
# Relax obj value: 0.157
# Max RMSD: 0.181
# Mean RMSD: 0.181
data_MOF--net-smq--node1-OJICUG_clean_sbu_0--edge1-UVAHIK_clean_linker_0
_symmetry_space_group_name_H-M    P1
_symmetry_Int_Tables_number       1
_symmetry_cell_setting            triclinic
loop_
_symmetry_equiv_pos_as_xyz
'x, y, z'
_cell_length_a     58.461352
_cell_length_b     58.473823
_cell_length_c     58.5008
_cell_angle_alpha  89.992523
_cell_angle_beta   90.04956
_cell_angle_gamma 90.010436
loop_
_atom_site_label
_atom_site_type_symbol
_atom_site_fract_x
_atom_site_fract_y
_atom_site_fract_z
_atom_type_partial_charge
Sc0 Sc 0.01288 0.19568 0.22208 0.0
Sc1 Sc 0.99547 0.23788 0.2596 0.0
Sc2 Sc -0.00109 0.1812 0.27827 0.0
O3 O 0.0015 0.20491 0.2533 0.0
C4 C 0.98326 0.15409 0.2348 0.0
C5 C 0.97305 0.22875 0.2116 0.0
C6 C 0.9587 0.21067 0.28971 0.0
C7 C 0.03549 0.24424 0.22636 0.0
C8 C 0.04583 0.16735 0.25521 0.0
C9 C 0.02072 0.22461 0.30344 0.0
O10 O 0.9923 0.16735 0.2202 0.0
O11 O 0.97168 0.23762 0.23146 0.0
O12 O 0.96765 0.19118 0.28677 0.0
O13 O 0.03687 0.2233 0.22092 0.0
O14 O 0.03277 0.16874 0.27245 0.0
O15 O 0.01631 0.23912 0.2878 0.0
O16 O 0.04037 0.17511 0.23563 0.0
O17 O 0.01912 0.25228 0.23812 0.0
O18 O 0.01346 0.20408 0.30308 0.0
O19 O 0.98921 0.21543 0.20557 0.0
O20 O 0.98658 0.15614 0.25616 0.0
O21 O 0.96788 0.22902 0.28255 0.0
Sc22 Sc 0.32785 0.48824 0.73325 0.0
Sc23 Sc 0.27839 0.51036 0.75952 0.0
Sc24 Sc 0.32876 0.50243 0.79174 0.0
O25 O 0.31163 0.50027 0.76148 0.0
C26 C 0.34734 0.45522 0.77208 0.0
C27 C 0.27822 0.46634 0.72746 0.0
C28 C 0.28021 0.48288 0.80659 0.0
C29 C 0.29864 0.52963 0.71284 0.0
C30 C 0.36539 0.52074 0.75622 0.0
C31 C 0.29952 0.54832 0.79217 0.0
O32 O 0.3423 0.45964 0.75141 0.0
O33 O 0.26842 0.48118 0.73987 0.0
O34 O 0.3015 0.48596 0.80964 0.0
O35 O 0.31508 0.51544 0.71198 0.0
O36 O 0.35729 0.5192 0.77628 0.0
O37 O 0.28451 0.54126 0.7782 0.0
O38 O 0.35713 0.50988 0.73926 0.0
O39 O 0.28409 0.52994 0.72898 0.0
O40 O 0.31593 0.53596 0.79911 0.0
O41 O 0.29968 0.46626 0.72382 0.0
O42 O 0.34401 0.46926 0.78826 0.0
O43 O 0.26933 0.49116 0.78966 0.0
Sc44 Sc 0.00817 0.78316 0.20865 0.0
Sc45 Sc 0.9962 0.73735 0.2454 0.0
Sc46 Sc 0.00843 0.79147 0.26768 0.0
O47 O 0.00327 0.77061 0.24053 0.0
C48 C 0.04812 0.80899 0.23494 0.0
C49 C 0.03135 0.7337 0.20641 0.0
C50 C 0.031 0.74531 0.28418 0.0
C51 C 0.96775 0.75057 0.20103 0.0
C52 C 0.98362 0.82343 0.2334 0.0
C53 C 0.96738 0.76271 0.28346 0.0
O54 O 0.03925 0.80092 0.21689 0.0
O55 O 0.0195 0.72482 0.22236 0.0
O56 O 0.03029 0.76697 0.28325 0.0
O57 O 0.98064 0.76721 0.19583 0.0
O58 O 0.98961 0.81756 0.25348 0.0
O59 O 0.96912 0.74679 0.26875 0.0
O60 O 0.99036 0.81302 0.2155 0.0
O61 O 0.97117 0.73794 0.21836 0.0
O62 O 0.9819 0.7787 0.2854 0.0
O63 O 0.02899 0.75428 0.19972 0.0
O64 O 0.03869 0.80718 0.25433 0.0
O65 O 0.01758 0.7323 0.27304 0.0
Sc66 Sc 0.69548 0.5031 0.77609 0.0
Sc67 Sc 0.74848 0.4919 0.74973 0.0
Sc68 Sc 0.69724 0.49146 0.71774 0.0
O69 O 0.71383 0.49548 0.74779 0.0
C70 C 0.66434 0.46566 0.75306 0.0
C71 C 0.73241 0.46771 0.79541 0.0
C72 C 0.73462 0.45249 0.71431 0.0
C73 C 0.7384 0.53532 0.78135 0.0
C74 C 0.66951 0.53291 0.73842 0.0
C75 C 0.74278 0.51836 0.70283 0.0
O76 O 0.67251 0.47509 0.77082 0.0
O77 O 0.7459 0.46862 0.77837 0.0
O78 O 0.71466 0.46022 0.71074 0.0
O79 O 0.71715 0.53136 0.78314 0.0
O80 O 0.67802 0.52253 0.72139 0.0
O81 O 0.75404 0.51431 0.72101 0.0
O82 O 0.67327 0.5268 0.7589 0.0
O83 O 0.75236 0.52153 0.7719 0.0
O84 O 0.7227 0.51065 0.69932 0.0
O85 O 0.71504 0.48058 0.7973 0.0
O86 O 0.67044 0.47116 0.73292 0.0
O87 O 0.74916 0.46252 0.72706 0.0
Sc88 Sc 0.99116 0.786 0.72518 0.0
Sc89 Sc 0.99158 0.72943 0.7442 0.0
Sc90 Sc 0.0047 0.77416 0.78121 0.0
O91 O 0.9968 0.76315 0.75029 0.0
C92 C 0.03396 0.80503 0.74651 0.0
C93 C 0.01237 0.74475 0.69872 0.0
C94 C 0.03274 0.72852 0.77696 0.0
C95 C 0.94982 0.75306 0.718 0.0
C96 C 0.97177 0.81258 0.76857 0.0
C97 C 0.97065 0.73499 0.79324 0.0
O98 O 0.02161 0.80058 0.72923 0.0
O99 O 0.01104 0.73036 0.71496 0.0
O100 O 0.03187 0.74959 0.78216 0.0
O101 O 0.95756 0.77321 0.7198 0.0
O102 O 0.98079 0.79956 0.78343 0.0
O103 O 0.96959 0.72651 0.77325 0.0
O104 O 0.97602 0.8108 0.74739 0.0
O105 O 0.96144 0.7354 0.72326 0.0
O106 O 0.98452 0.75093 0.79872 0.0
O107 O 0.0026 0.76415 0.69932 0.0
O108 O 0.02897 0.7983 0.76665 0.0
O109 O 0.01758 0.71867 0.76485 0.0
Sc110 Sc 0.71085 0.50165 0.28924 0.0
Sc111 Sc 0.74329 0.49781 0.23863 0.0
Sc112 Sc 0.68323 0.49352 0.23681 0.0
O113 O 0.71253 0.49763 0.25486 0.0
C114 C 0.67467 0.46234 0.28079 0.0
C115 C 0.75544 0.47019 0.28333 0.0
C116 C 0.71602 0.45854 0.21194 0.0
C117 C 0.74898 0.53753 0.27567 0.0
C118 C 0.66795 0.53106 0.27256 0.0
C119 C 0.71215 0.52633 0.20441 0.0
O120 O 0.69008 0.47141 0.29319 0.0
O121 O 0.75784 0.47331 0.26198 0.0
O122 O 0.69632 0.4647 0.21863 0.0
O123 O 0.73175 0.5317 0.28758 0.0
O124 O 0.66736 0.52235 0.25272 0.0
O125 O 0.73147 0.52242 0.21368 0.0
O126 O 0.68143 0.52404 0.28809 0.0
O127 O 0.75621 0.52609 0.25865 0.0
O128 O 0.69389 0.51628 0.21038 0.0
O129 O 0.74026 0.48031 0.29513 0.0
O130 O 0.66941 0.4699 0.26113 0.0
O131 O 0.73422 0.46935 0.21697 0.0
Sc132 Sc 0.9943 0.2116 0.70402 0.0
Sc133 Sc 0.98895 0.25329 0.74766 0.0
Sc134 Sc -0.0002 0.19636 0.76152 0.0
O135 O 0.99528 0.22048 0.73772 0.0
C136 C 0.97039 0.16869 0.72726 0.0
C137 C 0.95201 0.24569 0.70836 0.0
C138 C 0.96317 0.22467 0.78629 0.0
C139 C 0.01547 0.26055 0.70255 0.0
C140 C 0.0351 0.18408 0.72178 0.0
C141 C 0.02664 0.23946 0.78121 0.0
O142 O 0.97409 0.18146 0.7101 0.0
O143 O 0.95925 0.25598 0.72607 0.0
O144 O 0.97465 0.20646 0.78326 0.0
O145 O 0.01079 0.24111 0.69409 0.0
O146 O 0.02857 0.18411 0.74248 0.0
O147 O 0.01483 0.25435 0.7707 0.0
O148 O 0.02338 0.19279 0.70566 0.0
O149 O 0.00831 0.26736 0.72186 0.0
O150 O 0.02305 0.21814 0.77944 0.0
O151 O 0.96285 0.22955 0.6987 0.0
O152 O 0.97983 0.17191 0.74652 0.0
O153 O 0.96651 0.24281 0.7748 0.0
Sc154 Sc 0.34359 0.51029 0.20799 0.0
Sc155 Sc 0.28822 0.51609 0.23059 0.0
Sc156 Sc 0.33624 0.5219 0.26618 0.0
O157 O 0.32269 0.51595 0.235 0.0
C158 C 0.36958 0.48342 0.24774 0.0
C159 C 0.30419 0.47608 0.19669 0.0
C160 C 0.29416 0.48785 0.27605 0.0
C161 C 0.30541 0.5439 0.188 0.0
C162 C 0.36843 0.55118 0.23333 0.0
C163 C 0.294 0.5554 0.2679 0.0
O164 O 0.36624 0.48808 0.22679 0.0
O165 O 0.28895 0.48872 0.20569 0.0
O166 O 0.31226 0.49862 0.28178 0.0
O167 O 0.32335 0.53175 0.18583 0.0
O168 O 0.36101 0.54576 0.25305 0.0
O169 O 0.28181 0.5434 0.25455 0.0
O170 O 0.36342 0.54014 0.21534 0.0
O171 O 0.29134 0.54159 0.2044 0.0
O172 O 0.31467 0.55069 0.27235 0.0
O173 O 0.32538 0.48032 0.19816 0.0
O174 O 0.35951 0.49386 0.26382 0.0
O175 O 0.28368 0.49114 0.25722 0.0
Sc176 Sc 0.23922 0.00986 0.17324 0.0
Sc177 Sc 0.27276 0.99977 0.22176 0.0
Sc178 Sc 0.29816 0.00143 0.16714 0.0
O179 O 0.26997 0.00271 0.18742 0.0
C180 C 0.26135 0.97839 0.13672 0.0
C181 C 0.22835 0.97182 0.20836 0.0
C182 C 0.31008 0.96473 0.20252 0.0
C183 C 0.23502 0.03674 0.22005 0.0
C184 C 0.27159 0.04419 0.14646 0.0
C185 C 0.31452 0.03 0.21083 0.0
O186 O 0.24456 0.98872 0.14579 0.0
O187 O 0.24587 0.9744 0.22109 0.0
O188 O 0.31131 0.97363 0.18283 0.0
O189 O 0.23071 0.03425 0.19898 0.0
O190 O 0.28942 0.03212 0.14904 0.0
O191 O 0.29913 0.02247 0.22428 0.0
O192 O 0.25217 0.03823 0.15405 0.0
O193 O 0.24856 0.02376 0.23095 0.0
O194 O 0.31685 0.02308 0.19031 0.0
O195 O 0.22377 0.98483 0.19153 0.0
O196 O 0.28199 0.98208 0.14251 0.0
O197 O 0.29749 0.9727 0.2183 0.0
Sc198 Sc 0.50039 0.8055 0.67267 0.0
Sc199 Sc 0.49737 0.77026 0.72166 0.0
Sc200 Sc 0.48502 0.74789 0.66705 0.0
O201 O 0.49419 0.77452 0.68719 0.0
C202 C 0.45596 0.78908 0.64613 0.0
C203 C 0.4722 0.81832 0.71791 0.0
C204 C 0.45478 0.7378 0.711 0.0
C205 C 0.5397 0.80242 0.70978 0.0
C206 C 0.52309 0.77192 0.6364 0.0
C207 C 0.52064 0.72519 0.70183 0.0
O208 O 0.46947 0.80469 0.65286 0.0
O209 O 0.47612 0.79969 0.72848 0.0
O210 O 0.45858 0.73681 0.68968 0.0
O211 O 0.53184 0.80905 0.69072 0.0
O212 O 0.5109 0.75492 0.64209 0.0
O213 O 0.51845 0.74029 0.71737 0.0
O214 O 0.52086 0.79148 0.64553 0.0
O215 O 0.52853 0.78993 0.72358 0.0
O216 O 0.50943 0.72559 0.68317 0.0
O217 O 0.48088 0.82293 0.69851 0.0
O218 O 0.4596 0.76793 0.64965 0.0
O219 O 0.46735 0.74906 0.72468 0.0
Sc220 Sc 0.70261 0.98715 0.20197 0.0
Sc221 Sc 0.75046 0.99887 0.23591 0.0
Sc222 Sc 0.7555 0.99698 0.17606 0.0
O223 O 0.73629 0.99441 0.20463 0.0
C224 C 0.72321 0.95602 0.16252 0.0
C225 C 0.71681 0.95643 0.24351 0.0
C226 C 0.78855 0.97011 0.21064 0.0
C227 C 0.70324 0.02044 0.2431 0.0
C228 C 0.70894 0.02092 0.16278 0.0
C229 C 0.77671 0.03377 0.20598 0.0
O230 O 0.70651 0.96362 0.17405 0.0
O231 O 0.73109 0.97107 0.25102 0.0
O232 O 0.78334 0.97775 0.19092 0.0
O233 O 0.69312 0.00656 0.22984 0.0
O234 O 0.72924 0.01419 0.15849 0.0
O235 O 0.77145 0.02416 0.22475 0.0
O236 O 0.69704 0.01302 0.17919 0.0
O237 O 0.72479 0.02109 0.24544 0.0
O238 O 0.77046 0.02606 0.18667 0.0
O239 O 0.70638 0.95864 0.22456 0.0
O240 O 0.7428 0.96533 0.16274 0.0
O241 O 0.77727 0.97495 0.22859 0.0
Sc242 Sc 0.49915 0.2603 0.70015 0.0
Sc243 Sc 0.50682 0.22082 0.74515 0.0
Sc244 Sc 0.49167 0.20208 0.68956 0.0
O245 O 0.4993 0.22772 0.71168 0.0
C246 C 0.45599 0.24021 0.6741 0.0
C247 C 0.47434 0.26405 0.74877 0.0
C248 C 0.46606 0.18597 0.7343 0.0
C249 C 0.5413 0.26163 0.73441 0.0
C250 C 0.52337 0.23396 0.65912 0.0
C251 C 0.53289 0.18115 0.7189 0.0
O252 O 0.46727 0.25657 0.68274 0.0
O253 O 0.4826 0.24589 0.75746 0.0
O254 O 0.46779 0.18751 0.71276 0.0
O255 O 0.53077 0.26799 0.71656 0.0
O256 O 0.51516 0.21452 0.66427 0.0
O257 O 0.53168 0.19523 0.73547 0.0
O258 O 0.51858 0.25212 0.67006 0.0
O259 O 0.53436 0.24548 0.74717 0.0
O260 O 0.51892 0.18112 0.70226 0.0
O261 O 0.4795 0.27134 0.72896 0.0
O262 O 0.46303 0.21969 0.67444 0.0
O263 O 0.47984 0.19566 0.74807 0.0
Sc264 Sc 0.26295 0.9958 0.81189 0.0
Sc265 Sc 0.2489 -0.00085 0.75371 0.0
Sc266 Sc 0.20609 0.00422 0.79539 0.0
O267 O 0.23924 -0.00119 0.78702 0.0
C268 C 0.2202 0.96617 0.82859 0.0
C269 C 0.28255 0.96306 0.77396 0.0
C270 C 0.20342 0.97389 0.75156 0.0
C271 C 0.28775 0.02791 0.77783 0.0
C272 C 0.23182 0.03169 0.83486 0.0
C273 C 0.21119 0.03879 0.75471 0.0
O274 O 0.24121 0.9718 0.82928 0.0
O275 O 0.27438 0.97495 0.75771 0.0
O276 O 0.19456 0.98554 0.76768 0.0
O277 O 0.28637 0.01657 0.79636 0.0
O278 O 0.21389 0.02635 0.82381 0.0
O279 O 0.22542 0.02623 0.74411 0.0
O280 O 0.25083 0.02163 0.83195 0.0
O281 O 0.27443 0.02475 0.76085 0.0
O282 O 0.20425 0.03435 0.77476 0.0
O283 O 0.2781 0.96713 0.79477 0.0
O284 O 0.2054 0.97692 0.81682 0.0
O285 O 0.2242 0.97592 0.74539 0.0
Sc286 Sc 0.48942 0.75603 0.32427 0.0
Sc287 Sc 0.51966 0.78298 0.27982 0.0
Sc288 Sc 0.50499 0.81369 0.32986 0.0
O289 O 0.5047 0.78424 0.31127 0.0
C290 C 0.45486 0.79536 0.34001 0.0
C291 C 0.4743 0.75386 0.2722 0.0
C292 C 0.49487 0.83142 0.27925 0.0
C293 C 0.53365 0.73465 0.3001 0.0
C294 C 0.51588 0.77577 0.36745 0.0
C295 C 0.55499 0.81338 0.30838 0.0
O296 O 0.46022 0.77466 0.33632 0.0
O297 O 0.49185 0.76418 0.26465 0.0
O298 O 0.49527 0.83383 0.30083 0.0
O299 O 0.51668 0.73374 0.31363 0.0
O300 O 0.51506 0.79639 0.36063 0.0
O301 O 0.5495 0.80116 0.29127 0.0
O302 O 0.50736 0.75928 0.35614 0.0
O303 O 0.53757 0.75167 0.28717 0.0
O304 O 0.54081 0.81916 0.32375 0.0
O305 O 0.4706 0.75035 0.29331 0.0
O306 O 0.46911 0.81166 0.33822 0.0
O307 O 0.5028 0.81389 0.26914 0.0
Sc308 Sc 0.75736 0.00271 0.81316 0.0
Sc309 Sc 0.74712 0.98872 0.7561 0.0
Sc310 Sc 0.70122 0.99624 0.79456 0.0
O311 O 0.73537 0.99679 0.7879 0.0
C312 C 0.7216 0.97447 0.84002 0.0
C313 C 0.78376 0.96432 0.78851 0.0
C314 C 0.70783 0.95183 0.7639 0.0
C315 C 0.77957 0.02741 0.7699 0.0
C316 C 0.71676 0.03849 0.82078 0.0
C317 C 0.70254 0.01542 0.74463 0.0
O318 O 0.74139 0.98316 0.83774 0.0
O319 O 0.77314 0.96636 0.76962 0.0
O320 O 0.69743 0.96336 0.77905 0.0
O321 O 0.77644 0.02531 0.7913 0.0
O322 O 0.7014 0.02659 0.81105 0.0
O323 O 0.72231 0.00816 0.73936 0.0
O324 O 0.73731 0.03176 0.82307 0.0
O325 O 0.77012 0.01447 0.75526 0.0
O326 O 0.69278 0.01113 0.76349 0.0
O327 O 0.78009 0.97724 0.80558 0.0
O328 O 0.70539 0.97831 0.82614 0.0
O329 O 0.72538 0.95915 0.75339 0.0
Sc330 Sc 0.49697 0.19152 0.33011 0.0
Sc331 Sc 0.50923 0.23291 0.28884 0.0
Sc332 Sc 0.5121 0.24672 0.34721 0.0
O333 O 0.50605 0.22384 0.32208 0.0
C334 C 0.4704 0.21994 0.36828 0.0
C335 C 0.46482 0.20094 0.28864 0.0
C336 C 0.48438 0.27587 0.30967 0.0
C337 C 0.53122 0.18437 0.28826 0.0
C338 C 0.5367 0.20115 0.36511 0.0
C339 C 0.55038 0.26069 0.31206 0.0
O340 O 0.47534 0.20136 0.35822 0.0
O341 O 0.47978 0.21279 0.27813 0.0
O342 O 0.49335 0.2734 0.32943 0.0
O343 O 0.51718 0.17683 0.30303 0.0
O344 O 0.53185 0.22233 0.36693 0.0
O345 O 0.53891 0.25424 0.29473 0.0
O346 O 0.52628 0.18768 0.35163 0.0
O347 O 0.53216 0.20524 0.28244 0.0
O348 O 0.54367 0.2575 0.3324 0.0
O349 O 0.46749 0.19377 0.30893 0.0
O350 O 0.48125 0.2384 0.36486 0.0
O351 O 0.4871 0.26156 0.29353 0.0
Sc352 Sc 0.18626 0.25174 0.01391 0.0
Sc353 Sc 0.23687 0.27776 0.99726 0.0
Sc354 Sc 0.18701 0.31009 0.00108 0.0
O355 O 0.20349 0.27964 0.00288 0.0
C356 C 0.14947 0.27602 0.98574 0.0
C357 C 0.21706 0.23149 0.97739 0.0
C358 C 0.21642 0.31151 0.95941 0.0
C359 C 0.23425 0.24542 0.03811 0.0
C360 C 0.16645 0.2907 0.04683 0.0
C361 C 0.23619 0.32438 0.02004 0.0
O362 O 0.15896 0.25819 0.99373 0.0
O363 O 0.23091 0.2482 0.97603 0.0
O364 O 0.19854 0.31648 0.97063 0.0
O365 O 0.21255 0.24374 0.03819 0.0
O366 O 0.17372 0.30744 0.03513 0.0
O367 O 0.24641 0.30609 0.01425 0.0
O368 O 0.16857 0.27001 0.04053 0.0
O369 O 0.24532 0.25564 0.02243 0.0
O370 O 0.21536 0.3283 0.01531 0.0
O371 O 0.20121 0.23048 0.9922 0.0
O372 O 0.15664 0.29609 0.98994 0.0
O373 O 0.23233 0.29892 0.96731 0.0
Sc374 Sc 0.20373 0.68572 0.99519 0.0
Sc375 Sc 0.23317 0.73798 0.98928 0.0
Sc376 Sc 0.17382 0.73791 0.99973 0.0
O377 O 0.20358 0.72056 0.99482 0.0
C378 C 0.15736 0.69592 0.96877 0.0
C379 C 0.23702 0.69707 0.9537 0.0
C380 C 0.19702 0.76665 0.95986 0.0
C381 C 0.25033 0.6969 0.01749 0.0
C382 C 0.17095 0.69712 0.03311 0.0
C383 C 0.20944 0.76873 0.02308 0.0
O384 O 0.17394 0.68305 0.97416 0.0
O385 O 0.24297 0.71657 0.96114 0.0
O386 O 0.17951 0.76006 0.97092 0.0
O387 O 0.23419 0.68348 0.01198 0.0
O388 O 0.16586 0.71688 0.02555 0.0
O389 O 0.22682 0.761 0.01266 0.0
O390 O 0.18405 0.68329 0.02265 0.0
O391 O 0.25217 0.7172 0.01002 0.0
O392 O 0.18919 0.76193 0.01895 0.0
O393 O 0.22306 0.68415 0.96416 0.0
O394 O 0.15484 0.7159 0.97694 0.0
O395 O 0.21722 0.76015 0.96469 0.0
Sc396 Sc 0.81341 0.70218 0.49001 0.0
Sc397 Sc 0.7702 0.74406 0.49532 0.0
Sc398 Sc 0.75543 0.68637 0.48663 0.0
O399 O 0.77963 0.71088 0.4907 0.0
C400 C 0.79282 0.67285 0.44918 0.0
C401 C 0.81241 0.74883 0.46166 0.0
C402 C 0.73214 0.72763 0.45992 0.0
C403 C 0.81206 0.73864 0.53006 0.0
C404 C 0.79228 0.6601 0.5172 0.0
C405 C 0.7337 0.71748 0.52591 0.0
O406 O 0.80958 0.68218 0.45941 0.0
O407 O 0.79328 0.75583 0.46916 0.0
O408 O 0.73507 0.70651 0.46387 0.0
O409 O 0.82045 0.72127 0.52018 0.0
O410 O 0.77229 0.66292 0.50923 0.0
O411 O 0.74554 0.73508 0.52101 0.0
O412 O 0.80899 0.67291 0.51192 0.0
O413 O 0.79462 0.74924 0.52257 0.0
O414 O 0.73556 0.69855 0.51527 0.0
O415 O 0.822 0.73055 0.4684 0.0
O416 O 0.77257 0.67281 0.45711 0.0
O417 O 0.7438 0.74314 0.46968 0.0
Sc418 Sc 0.77897 0.27715 0.00095 0.0
Sc419 Sc 0.72249 0.25632 -0.0013 0.0
Sc420 Sc 0.76929 0.2183 0.00282 0.0
O421 O 0.75685 0.25054 0.00084 0.0
C422 C 0.80603 0.2416 0.97405 0.0
C423 C 0.74345 0.29361 0.96728 0.0
C424 C 0.72898 0.21492 0.96919 0.0
C425 C 0.738 0.29561 0.03203 0.0
C426 C 0.80069 0.24521 0.03873 0.0
C427 C 0.72497 0.21444 0.03382 0.0
O428 O 0.80308 0.26144 0.98233 0.0
O429 O 0.72639 0.2839 0.97678 0.0
O430 O 0.74657 0.20746 0.97968 0.0
O431 O 0.75762 0.29737 0.02289 0.0
O432 O 0.79338 0.22682 0.02962 0.0
O433 O 0.71388 0.23004 0.02345 0.0
O434 O 0.79601 0.26494 0.03095 0.0
O435 O 0.72355 0.28038 0.02645 0.0
O436 O 0.74549 0.20926 0.02906 0.0
O437 O 0.76375 0.2918 0.97466 0.0
O438 O 0.79436 0.22443 0.98034 0.0
O439 O 0.71853 0.23313 0.97477 0.0
Sc440 Sc 0.19252 0.32475 0.49602 0.0
Sc441 Sc 0.22246 0.2752 0.51016 0.0
Sc442 Sc 0.25025 0.32797 0.50994 0.0
O443 O 0.22188 0.30929 0.50516 0.0
C444 C 0.22955 0.35195 0.46665 0.0
C445 C 0.18988 0.28075 0.46667 0.0
C446 C 0.26861 0.28252 0.48478 0.0
C447 C 0.17678 0.28919 0.53363 0.0
C448 C 0.21141 0.3586 0.5329 0.0
C449 C 0.256 0.29275 0.5496 0.0
O450 O 0.20907 0.34849 0.47309 0.0
O451 O 0.19852 0.26854 0.48252 0.0
O452 O 0.27127 0.30218 0.49386 0.0
O453 O 0.17189 0.30297 0.51753 0.0
O454 O 0.2321 0.35537 0.52693 0.0
O455 O 0.2465 0.27688 0.53817 0.0
O456 O 0.19473 0.34759 0.52444 0.0
O457 O 0.19568 0.27858 0.53479 0.0
O458 O 0.2562 0.31342 0.543 0.0
O459 O 0.18895 0.30239 0.46762 0.0
O460 O 0.2467 0.34394 0.47727 0.0
O461 O 0.25022 0.27099 0.48658 0.0
Sc462 Sc 0.77453 0.74805 0.99175 0.0
Sc463 Sc 0.72042 0.72365 0.99241 0.0
Sc464 Sc 0.76861 0.68952 0.99778 0.0
O465 O 0.75467 0.72059 0.99422 0.0
C466 C 0.8011 0.71086 0.96143 0.0
C467 C 0.73629 0.76332 0.95861 0.0
C468 C 0.73088 0.68277 0.96084 0.0
C469 C 0.73358 0.76241 0.02159 0.0
C470 C 0.80187 0.71941 0.02467 0.0
C471 C 0.72772 0.68517 0.02672 0.0
O472 O 0.79893 0.73078 0.97004 0.0
O473 O 0.72101 0.75336 0.97038 0.0
O474 O 0.74223 0.67388 0.97711 0.0
O475 O 0.75182 0.76634 0.0102 0.0
O476 O 0.79636 0.70033 0.01583 0.0
O477 O 0.71457 0.69414 0.01181 0.0
O478 O 0.79352 0.73827 0.01799 0.0
O479 O 0.72042 0.74543 0.01779 0.0
O480 O 0.74922 0.68422 0.02427 0.0
O481 O 0.75745 0.75962 0.96151 0.0
O482 O 0.78922 0.69377 0.96776 0.0
O483 O 0.72176 0.70243 0.96247 0.0
Sc484 Sc 0.74373 0.28979 0.47837 0.0
Sc485 Sc 0.76995 0.24147 0.50303 0.0
Sc486 Sc 0.80134 0.29226 0.49426 0.0
O487 O 0.77168 0.27437 0.49172 0.0
C488 C 0.78386 0.30893 0.44611 0.0
C489 C 0.74033 0.24004 0.45696 0.0
C490 C 0.81879 0.24265 0.47959 0.0
C491 C 0.72162 0.26013 0.51861 0.0
C492 C 0.76441 0.32897 0.50969 0.0
C493 C 0.79884 0.2664 0.54187 0.0
O494 O 0.76295 0.30609 0.45143 0.0
O495 O 0.75101 0.2306 0.47341 0.0
O496 O 0.82157 0.26392 0.48291 0.0
O497 O 0.72093 0.27552 0.50332 0.0
O498 O 0.78491 0.32273 0.50624 0.0
O499 O 0.78794 0.24913 0.53438 0.0
O500 O 0.74734 0.31844 0.50129 0.0
O501 O 0.73869 0.24701 0.52146 0.0
O502 O 0.80465 0.28317 0.52942 0.0
O503 O 0.73742 0.2616 0.45549 0.0
O504 O 0.80019 0.30358 0.45938 0.0
O505 O 0.8007 0.23207 0.48527 0.0
Sc506 Sc 0.26735 0.72412 0.49324 0.0
Sc507 Sc 0.22143 0.76356 0.49484 0.0
Sc508 Sc 0.21155 0.7044 0.50075 0.0
O509 O 0.2335 0.7308 0.49632 0.0
C510 C 0.24424 0.68615 0.46152 0.0
C511 C 0.26115 0.76511 0.45773 0.0
C512 C 0.1834 0.73702 0.46737 0.0
C513 C 0.26574 0.76806 0.52585 0.0
C514 C 0.25393 0.68673 0.53009 0.0
C515 C 0.19151 0.74075 0.53474 0.0
O516 O 0.26146 0.69775 0.46816 0.0
O517 O 0.24352 0.77372 0.46702 0.0
O518 O 0.18634 0.71878 0.47868 0.0
O519 O 0.27536 0.75025 0.51781 0.0
O520 O 0.23321 0.68624 0.52383 0.0
O521 O 0.19763 0.75785 0.52271 0.0
O522 O 0.26856 0.69989 0.521 0.0
O523 O 0.24623 0.77528 0.51945 0.0
O524 O 0.19669 0.72027 0.52986 0.0
O525 O 0.27095 0.74724 0.46513 0.0
O526 O 0.22495 0.6868 0.47152 0.0
O527 O 0.19592 0.75463 0.46975 0.0
C528 C 0.07435 0.25166 0.21064 0.0
C529 C 0.05274 0.26001 0.21691 0.0
C530 C 0.08927 0.26522 0.19794 0.0
C531 C 0.11962 0.29851 0.17233 0.0
H532 H 0.08624 0.31175 0.11655 0.0
C533 C 0.16002 0.31454 0.08184 0.0
C534 C 0.1544 0.29539 0.0684 0.0
C535 C 0.1487 0.31846 0.10256 0.0
C536 C 0.09574 0.30879 0.13219 0.0
H537 H 0.0305 0.28969 0.21654 0.0
H538 H 0.05647 0.31326 0.19369 0.0
H539 H 0.06527 0.30492 0.1519 0.0
H540 H 0.13225 0.26577 0.06559 0.0
H541 H 0.11212 0.273 0.10136 0.0
H542 H 0.15002 0.30072 0.15194 0.0
C543 C 0.06186 0.29628 0.19879 0.0
C544 C 0.0838 0.30499 0.15245 0.0
C545 C 0.04704 0.2828 0.21183 0.0
C546 C 0.13701 0.28056 0.07569 0.0
C547 C 0.1254 0.28478 0.096 0.0
C548 C 0.13159 0.30263 0.15208 0.0
C549 C 0.08274 0.28728 0.19102 0.0
C550 C 0.09557 0.29853 0.17238 0.0
C551 C 0.13123 0.30364 0.10962 0.0
C552 C 0.1196 0.30658 0.13169 0.0
H553 H 0.0793 0.23424 0.21458 0.0
H554 H 0.10513 0.25771 0.19202 0.0
H555 H 0.12906 0.29365 0.18752 0.0
H556 H 0.17345 0.32617 0.07658 0.0
H557 H 0.1535 0.33298 0.113 0.0
C558 C 0.31451 0.55116 0.67937 0.0
C559 C 0.29608 0.54627 0.69403 0.0
C560 C 0.31181 0.56654 0.66128 0.0
C561 C 0.26818 0.58934 0.62333 0.0
H562 H 0.30951 0.64025 0.61321 0.0
C563 C 0.244 0.66199 0.56323 0.0
C564 C 0.26084 0.67137 0.5489 0.0
C565 C 0.24993 0.64677 0.58052 0.0
C566 C 0.29804 0.62591 0.61559 0.0
H567 H 0.26048 0.55385 0.70137 0.0
H568 H 0.25576 0.5804 0.66961 0.0
H569 H 0.31707 0.61325 0.64432 0.0
H570 H 0.29721 0.67252 0.54179 0.0
H571 H 0.30761 0.64534 0.5719 0.0
H572 H 0.24924 0.60157 0.59466 0.0
C573 C 0.27225 0.57233 0.67216 0.0
C574 C 0.30234 0.61054 0.63341 0.0
C575 C 0.275 0.55723 0.69038 0.0
C576 C 0.28387 0.66554 0.55257 0.0
C577 C 0.28982 0.65005 0.56984 0.0
C578 C 0.26402 0.60448 0.60545 0.0
C579 C 0.29057 0.57701 0.65738 0.0
C580 C 0.28717 0.59241 0.63767 0.0
C581 C 0.27283 0.64029 0.5838 0.0
C582 C 0.2786 0.62324 0.60166 0.0
H583 H 0.33101 0.54312 0.68187 0.0
H584 H 0.32616 0.56987 0.65005 0.0
H585 H 0.25649 0.57522 0.62602 0.0
H586 H 0.22612 0.66642 0.56115 0.0
H587 H 0.23649 0.64011 0.59137 0.0
C588 C 0.82496 0.69973 0.05504 0.0
C589 C 0.81888 0.71985 0.04332 0.0
C590 C 0.84104 0.70046 0.07274 0.0
C591 C 0.88927 0.7343 0.09312 0.0
H592 H 0.87621 0.70954 0.15325 0.0
C593 C 0.94096 0.76225 0.17016 0.0
C594 C 0.94859 0.7454 0.18547 0.0
C595 C 0.92468 0.75704 0.15364 0.0
C596 C 0.8802 0.71622 0.13645 0.0
H597 H 0.82485 0.75644 0.04097 0.0
H598 H 0.85293 0.75757 0.07158 0.0
H599 H 0.84895 0.70354 0.12192 0.0
H600 H 0.94434 0.71014 0.19622 0.0
H601 H 0.91583 0.70093 0.16692 0.0
H602 H 0.92031 0.74711 0.10738 0.0
C603 C 0.84532 0.74129 0.06706 0.0
C604 C 0.86465 0.71279 0.11859 0.0
C605 C 0.82915 0.74063 0.04962 0.0
C606 C 0.93878 0.72346 0.18461 0.0
C607 C 0.92249 0.71819 0.16788 0.0
C608 C 0.90478 0.73761 0.11083 0.0
C609 C 0.85146 0.72123 0.07871 0.0
C610 C 0.86885 0.72233 0.09695 0.0
C611 C 0.91575 0.73482 0.15189 0.0
C612 C 0.90013 0.72917 0.13283 0.0
H613 H 0.81723 0.68348 0.05065 0.0
H614 H 0.84557 0.68478 0.0815 0.0
H615 H 0.89306 0.74143 0.07645 0.0
H616 H 0.94787 0.77944 0.17065 0.0
H617 H 0.91932 0.77039 0.14196 0.0
C618 C 0.76417 0.43232 0.69104 0.0
C619 C 0.74184 0.43316 0.69984 0.0
C620 C 0.76906 0.41865 0.67204 0.0
C621 C 0.74549 0.37377 0.63351 0.0
H622 H 0.77467 0.40964 0.58595 0.0
C623 C 0.73966 0.34694 0.53955 0.0
C624 C 0.76061 0.34624 0.52778 0.0
C625 C 0.738 0.35828 0.5605 0.0
C626 C 0.76666 0.39934 0.59909 0.0
H627 H 0.70786 0.41848 0.69749 0.0
H628 H 0.71636 0.39464 0.6646 0.0
H629 H 0.77313 0.42443 0.62488 0.0
H630 H 0.79558 0.35876 0.52772 0.0
H631 H 0.79257 0.37862 0.5641 0.0
H632 H 0.73869 0.34886 0.6076 0.0
C633 C 0.7301 0.40456 0.6721 0.0
C634 C 0.76595 0.4077 0.62144 0.0
C635 C 0.72519 0.41828 0.69094 0.0
C636 C 0.77921 0.35886 0.53639 0.0
C637 C 0.77751 0.37026 0.55727 0.0
C638 C 0.74616 0.36544 0.61116 0.0
C639 C 0.75174 0.40548 0.66174 0.0
C640 C 0.75511 0.39513 0.63884 0.0
C641 C 0.75718 0.36928 0.56998 0.0
C642 C 0.75649 0.37828 0.59366 0.0
H643 H 0.77733 0.44364 0.69754 0.0
H644 H 0.78603 0.41935 0.66466 0.0
H645 H 0.73721 0.3636 0.64658 0.0
H646 H 0.72499 0.3374 0.53344 0.0
H647 H 0.72194 0.3577 0.5697 0.0
C648 C 0.07039 0.72448 0.79654 0.0
C649 C 0.05001 0.71443 0.78875 0.0
C650 C 0.08387 0.71334 0.81275 0.0
C651 C 0.07384 0.67948 0.86219 0.0
H652 H 0.13982 0.68138 0.86859 0.0
C653 C 0.14926 0.67087 0.93511 0.0
C654 C 0.14215 0.68841 0.95 0.0
C655 C 0.13731 0.66655 0.91491 0.0
C656 C 0.12139 0.6803 0.86696 0.0
H657 H 0.02878 0.68403 0.79024 0.0
H658 H 0.05219 0.66478 0.81904 0.0
H659 H 0.12251 0.68665 0.83088 0.0
H660 H 0.11593 0.71388 0.95623 0.0
H661 H 0.09482 0.70602 0.92108 0.0
H662 H 0.07266 0.67479 0.89851 0.0
C663 C 0.05773 0.68118 0.81246 0.0
C664 C 0.11154 0.68338 0.84543 0.0
C665 C 0.04444 0.69216 0.79591 0.0
C666 C 0.12189 0.70034 0.94509 0.0
C667 C 0.10975 0.69576 0.92503 0.0
C668 C 0.08368 0.67675 0.88376 0.0
C669 C 0.07702 0.69212 0.82168 0.0
C670 C 0.08766 0.6837 0.84299 0.0
C671 C 0.11781 0.67938 0.90942 0.0
C672 C 0.10751 0.67784 0.88641 0.0
H673 H 0.07512 0.74159 0.79121 0.0
H674 H 0.09861 0.7222 0.81968 0.0
H675 H 0.05536 0.67991 0.86081 0.0
H676 H 0.16483 0.66135 0.93833 0.0
H677 H 0.14378 0.65378 0.90316 0.0
C678 C 0.78562 0.55866 0.28213 0.0
C679 C 0.7616 0.55807 0.2828 0.0
C680 C 0.7975 0.57653 0.29274 0.0
C681 C 0.78998 0.63325 0.32023 0.0
H682 H 0.82428 0.60692 0.37054 0.0
C683 C 0.77796 0.66087 0.41117 0.0
C684 C 0.79657 0.66324 0.42616 0.0
C685 C 0.78126 0.65295 0.38901 0.0
C686 C 0.8154 0.61476 0.35629 0.0
H687 H 0.7311 0.5764 0.29306 0.0
H688 H 0.75166 0.60762 0.31116 0.0
H689 H 0.81674 0.58403 0.33652 0.0
H690 H 0.83332 0.65917 0.42966 0.0
H691 H 0.83893 0.64435 0.39078 0.0
H692 H 0.78687 0.66325 0.34093 0.0
C693 C 0.76144 0.59441 0.30263 0.0
C694 C 0.81112 0.60168 0.33677 0.0
C695 C 0.74964 0.57641 0.2925 0.0
C696 C 0.81864 0.65745 0.41848 0.0
C697 C 0.82189 0.6491 0.39629 0.0
C698 C 0.79422 0.64628 0.33973 0.0
C699 C 0.78546 0.59424 0.30361 0.0
C700 C 0.79705 0.61033 0.31929 0.0
C701 C 0.80321 0.64696 0.38135 0.0
C702 C 0.80564 0.63657 0.35849 0.0
H703 H 0.79518 0.54462 0.27474 0.0
H704 H 0.81602 0.57601 0.29334 0.0
H705 H 0.77939 0.6404 0.3068 0.0
H706 H 0.76078 0.66539 0.41644 0.0
H707 H 0.76648 0.65097 0.378 0.0
C708 C 0.93663 0.24607 0.81207 0.0
C709 C 0.94589 0.22513 0.80472 0.0
C710 C 0.92154 0.24679 0.8305 0.0
C711 C 0.88137 0.21276 0.86412 0.0
H712 H 0.89347 0.25791 0.91118 0.0
C713 C 0.82914 0.21674 0.94783 0.0
C714 C 0.82316 0.23866 0.9557 0.0
C715 C 0.84471 0.21415 0.92991 0.0
C716 C 0.88969 0.24537 0.89808 0.0
H717 H 0.94588 0.18844 0.81048 0.0
H718 H 0.91928 0.18979 0.84263 0.0
H719 H 0.91877 0.25527 0.87823 0.0
H720 H 0.82882 0.27504 0.95082 0.0
H721 H 0.85551 0.27053 0.91941 0.0
H722 H 0.852 0.20317 0.8837 0.0
C723 C 0.92386 0.20559 0.83411 0.0
C724 C 0.9042 0.24385 0.87925 0.0
C725 C 0.93916 0.20486 0.81579 0.0
C726 C 0.83318 0.25789 0.94535 0.0
C727 C 0.8486 0.2553 0.92738 0.0
C728 C 0.86671 0.21441 0.88289 0.0
C729 C 0.91522 0.2266 0.84183 0.0
C730 C 0.90008 0.22766 0.86202 0.0
C731 C 0.85452 0.23342 0.91942 0.0
C732 C 0.87062 0.23087 0.89999 0.0
H733 H 0.94141 0.26201 0.80394 0.0
H734 H 0.91486 0.26319 0.83594 0.0
H735 H 0.87776 0.20023 0.85096 0.0
H736 H 0.82178 0.20156 0.95548 0.0
H737 H 0.84915 0.19705 0.92437 0.0
C738 C 0.29959 0.46131 0.30887 0.0
C739 C 0.2851 0.47075 0.2922 0.0
C740 C 0.29113 0.44581 0.32481 0.0
C741 C 0.23974 0.43066 0.3554 0.0
H742 H 0.27495 0.37709 0.37247 0.0
C743 C 0.21525 0.37157 0.43125 0.0
C744 C 0.23359 0.36499 0.44539 0.0
C745 C 0.21934 0.38271 0.41051 0.0
C746 C 0.26497 0.39203 0.36794 0.0
H747 H 0.25043 0.47115 0.27894 0.0
H748 H 0.23549 0.44414 0.30731 0.0
H749 H 0.28601 0.3992 0.33892 0.0
H750 H 0.27057 0.36545 0.44903 0.0
H751 H 0.2776 0.38513 0.41321 0.0
H752 H 0.21924 0.42402 0.38499 0.0
C753 C 0.25343 0.44877 0.30781 0.0
C754 C 0.27124 0.40459 0.34872 0.0
C755 C 0.26199 0.46411 0.29159 0.0
C756 C 0.25604 0.37013 0.43853 0.0
C757 C 0.2601 0.38124 0.41788 0.0
C758 C 0.23351 0.41813 0.37476 0.0
C759 C 0.26796 0.43956 0.32458 0.0
C760 C 0.25907 0.42436 0.34265 0.0
C761 C 0.24183 0.38743 0.40354 0.0
C762 C 0.2465 0.39908 0.38157 0.0
H763 H 0.31752 0.46597 0.3097 0.0
H764 H 0.30263 0.43918 0.33775 0.0
H765 H 0.23018 0.44595 0.35113 0.0
H766 H 0.19775 0.36779 0.43598 0.0
H767 H 0.20495 0.38722 0.39976 0.0
C768 C 0.21557 0.07446 0.21998 0.0
C769 C 0.22311 0.05526 0.23224 0.0
C770 C 0.20163 0.09067 0.23036 0.0
C771 C 0.17544 0.12592 0.25688 0.0
H772 H 0.12145 0.09573 0.28077 0.0
C773 C 0.0745 0.1462 0.27906 0.0
C774 C 0.06873 0.15713 0.25839 0.0
C775 C 0.0963 0.13697 0.28224 0.0
C776 C 0.13655 0.10456 0.27469 0.0
H777 H 0.22332 0.03866 0.26538 0.0
H778 H 0.19835 0.06702 0.28356 0.0
H779 H 0.15672 0.07412 0.27618 0.0
H780 H 0.08151 0.16731 0.22508 0.0
H781 H 0.11937 0.15097 0.23055 0.0
H782 H 0.15475 0.15597 0.25399 0.0
C783 C 0.20336 0.06945 0.26591 0.0
C784 C 0.15681 0.0922 0.27214 0.0
C785 C 0.21763 0.05329 0.25554 0.0
C786 C 0.08531 0.15889 0.24113 0.0
C787 C 0.10712 0.1498 0.24438 0.0
C788 C 0.15518 0.13825 0.25937 0.0
C789 C 0.19475 0.08795 0.25319 0.0
C790 C 0.17607 0.10248 0.26212 0.0
C791 C 0.11279 0.13867 0.26491 0.0
C792 C 0.13528 0.12736 0.26724 0.0
H793 H 0.21979 0.07656 0.20206 0.0
H794 H 0.19506 0.10456 0.22 0.0
H795 H 0.19019 0.13433 0.24947 0.0
H796 H 0.06216 0.14465 0.29277 0.0
H797 H 0.10025 0.12847 0.29821 0.0
C798 C 0.43965 0.71425 0.74328 0.0
C799 C 0.43793 0.7215 0.72043 0.0
C800 C 0.4293 0.69386 0.75022 0.0
C801 C 0.39084 0.64666 0.73113 0.0
H802 H 0.43545 0.60829 0.76191 0.0
C803 C 0.3821 0.54977 0.72992 0.0
C804 C 0.38138 0.53978 0.75177 0.0
C805 C 0.3905 0.57192 0.72713 0.0
C806 C 0.42282 0.61886 0.75342 0.0
H807 H 0.42139 0.71487 0.68787 0.0
H808 H 0.40365 0.67942 0.69983 0.0
H809 H 0.44283 0.64914 0.75761 0.0
H810 H 0.39161 0.54398 0.78721 0.0
H811 H 0.40668 0.58252 0.78214 0.0
H812 H 0.3712 0.61617 0.72635 0.0
C813 C 0.41306 0.68921 0.71243 0.0
C814 C 0.42687 0.64229 0.75117 0.0
C815 C 0.42335 0.70956 0.70551 0.0
C816 C 0.39174 0.55129 0.77019 0.0
C817 C 0.40034 0.57338 0.76733 0.0
C818 C 0.38691 0.62324 0.7332 0.0
C819 C 0.41701 0.68049 0.73446 0.0
C820 C 0.41107 0.6564 0.73971 0.0
C821 C 0.39862 0.58429 0.74603 0.0
C822 C 0.40303 0.60908 0.74403 0.0
H823 H 0.45057 0.72317 0.7553 0.0
H824 H 0.43211 0.68787 0.76752 0.0
H825 H 0.37819 0.6571 0.72251 0.0
H826 H 0.37431 0.5414 0.71534 0.0
H827 H 0.38948 0.57985 0.71041 0.0
C828 C 0.95707 0.85232 0.25045 0.0
C829 C 0.96668 0.84207 0.23095 0.0
C830 C 0.93916 0.86791 0.24834 0.0
C831 C 0.90894 0.90571 0.20811 0.0
H832 H 0.85684 0.89397 0.24743 0.0
C833 C 0.82108 0.94809 0.1935 0.0
C834 C 0.80909 0.95552 0.21295 0.0
C835 C 0.84088 0.93494 0.19577 0.0
C836 C 0.87134 0.89769 0.23654 0.0
H837 H 0.96571 0.8411 0.19384 0.0
H838 H 0.93438 0.86836 0.19024 0.0
H839 H 0.89127 0.87093 0.25147 0.0
H840 H 0.80857 0.95493 0.25008 0.0
H841 H 0.8432 0.93229 0.25398 0.0
H842 H 0.88898 0.93251 0.19318 0.0
C843 C 0.94079 0.8643 0.20713 0.0
C844 C 0.89106 0.8845 0.23886 0.0
C845 C 0.95868 0.84861 0.20923 0.0
C846 C 0.81728 0.94939 0.23471 0.0
C847 C 0.83711 0.93633 0.23697 0.0
C848 C 0.88922 0.91901 0.20585 0.0
C849 C 0.93053 0.87367 0.2267 0.0
C850 C 0.91002 0.88834 0.22464 0.0
C851 C 0.84915 0.92899 0.21753 0.0
C852 C 0.87019 0.91508 0.22 0.0
H853 H 0.96287 0.84781 0.26746 0.0
H854 H 0.93177 0.87517 0.26369 0.0
H855 H 0.9234 0.90914 0.19707 0.0
H856 H 0.81521 0.95241 0.17647 0.0
H857 H 0.84958 0.92923 0.18046 0.0
C858 C 0.64618 0.43537 0.77737 0.0
C859 C 0.6488 0.44594 0.7559 0.0
C860 C 0.63405 0.41488 0.77939 0.0
C861 C 0.59296 0.37791 0.74876 0.0
H862 H 0.62279 0.32779 0.78056 0.0
C863 C 0.57335 0.28755 0.72493 0.0
C864 C 0.56063 0.27601 0.74168 0.0
C865 C 0.58641 0.30654 0.73078 0.0
C866 C 0.61424 0.34175 0.7719 0.0
H867 H 0.63984 0.44379 0.71995 0.0
H868 H 0.61883 0.40821 0.72345 0.0
H869 H 0.63866 0.36662 0.78331 0.0
H870 H 0.55356 0.27353 0.77797 0.0
H871 H 0.57675 0.30704 0.78824 0.0
H872 H 0.56923 0.35296 0.73649 0.0
C873 C 0.62601 0.41577 0.73877 0.0
C874 C 0.62316 0.36392 0.77353 0.0
C875 C 0.63818 0.43614 0.73673 0.0
C876 C 0.5633 0.28212 0.76478 0.0
C877 C 0.57644 0.30128 0.77065 0.0
C878 C 0.58424 0.35586 0.74699 0.0
C879 C 0.62415 0.40471 0.76002 0.0
C880 C 0.61294 0.38206 0.7614 0.0
C881 C 0.58701 0.31423 0.75345 0.0
C882 C 0.59516 0.33757 0.75801 0.0
H883 H 0.65421 0.44245 0.79249 0.0
H884 H 0.63269 0.40682 0.796 0.0
H885 H 0.58445 0.39161 0.73965 0.0
H886 H 0.57174 0.28302 0.70704 0.0
H887 H 0.59467 0.31625 0.71733 0.0
C888 C 0.1985 0.93481 0.73488 0.0
C889 C 0.18906 0.95597 0.74122 0.0
C890 C 0.18419 0.91637 0.7296 0.0
C891 C 0.14902 0.87947 0.74184 0.0
H892 H 0.09215 0.88529 0.70819 0.0
C893 C 0.06849 0.82601 0.76127 0.0
C894 C 0.05478 0.81898 0.74282 0.0
C895 C 0.08744 0.84012 0.75759 0.0
C896 C 0.1081 0.88321 0.71738 0.0
H897 H 0.15754 0.97506 0.74524 0.0
H898 H 0.13266 0.94311 0.73568 0.0
H899 H 0.12097 0.91529 0.70532 0.0
H900 H 0.05092 0.8205 0.70586 0.0
H901 H 0.08386 0.84502 0.69959 0.0
H902 H 0.13581 0.84771 0.75448 0.0
C903 C 0.15101 0.94062 0.73491 0.0
C904 C 0.12453 0.90044 0.71581 0.0
C905 C 0.16524 0.95888 0.74051 0.0
C906 C 0.06089 0.82579 0.72055 0.0
C907 C 0.07977 0.83987 0.7169 0.0
C908 C 0.13251 0.86227 0.74351 0.0
C909 C 0.1603 0.919 0.73017 0.0
C910 C 0.14489 0.89901 0.72847 0.0
C911 C 0.09304 0.84747 0.73539 0.0
C912 C 0.11167 0.86425 0.73171 0.0
H913 H 0.21683 0.93212 0.73542 0.0
H914 H 0.19175 0.89987 0.72587 0.0
H915 H 0.16448 0.87803 0.75197 0.0
H916 H 0.06433 0.82104 0.77861 0.0
H917 H 0.09723 0.84592 0.77221 0.0
C918 C 0.55085 0.69969 0.31771 0.0
C919 C 0.54912 0.71473 0.29906 0.0
C920 C 0.56475 0.68031 0.31643 0.0
C921 C 0.61124 0.65383 0.28175 0.0
H922 H 0.5898 0.59786 0.31021 0.0
C923 C 0.64567 0.56471 0.25872 0.0
C924 C 0.6535 0.55129 0.27708 0.0
C925 C 0.63348 0.58479 0.26272 0.0
C926 C 0.59604 0.61345 0.30238 0.0
H927 H 0.56059 0.72133 0.26446 0.0
H928 H 0.58411 0.68712 0.26182 0.0
H929 H 0.56765 0.63297 0.31448 0.0
H930 H 0.65417 0.54811 0.31401 0.0
H931 H 0.6321 0.5831 0.32096 0.0
H932 H 0.63909 0.63385 0.26883 0.0
C933 C 0.57533 0.69056 0.27775 0.0
C934 C 0.58346 0.63361 0.30488 0.0
C935 C 0.56174 0.71014 0.27918 0.0
C936 C 0.64837 0.55811 0.29954 0.0
C937 C 0.63574 0.57804 0.30352 0.0
C938 C 0.62357 0.63359 0.27893 0.0
C939 C 0.57695 0.67532 0.29632 0.0
C940 C 0.59082 0.65405 0.29447 0.0
C941 C 0.62851 0.59168 0.28513 0.0
C942 C 0.61599 0.61323 0.2891 0.0
H943 H 0.54151 0.70294 0.33336 0.0
H944 H 0.56592 0.66928 0.33125 0.0
H945 H 0.61775 0.66929 0.27392 0.0
H946 H 0.64948 0.56004 0.24121 0.0
H947 H 0.62789 0.59496 0.24827 0.0
C948 C 0.79956 0.04812 0.73814 0.0
C949 C 0.79583 0.04493 0.76169 0.0
C950 C 0.81635 0.06328 0.73049 0.0
C951 C 0.85389 0.11059 0.74987 0.0
H952 H 0.89576 0.08776 0.70371 0.0
C953 C 0.94619 0.13878 0.74554 0.0
C954 C 0.95213 0.15126 0.72587 0.0
C955 C 0.92623 0.12587 0.74602 0.0
C956 C 0.88397 0.09441 0.71635 0.0
H957 H 0.80629 0.05579 0.79562 0.0
H958 H 0.83571 0.08178 0.78234 0.0
H959 H 0.86066 0.06649 0.71222 0.0
H960 H 0.94273 0.1583 0.69061 0.0
H961 H 0.90782 0.13506 0.69149 0.0
H962 H 0.87792 0.13773 0.7549 0.0
C963 C 0.82547 0.07287 0.76973 0.0
C964 C 0.86388 0.08238 0.72118 0.0
C965 C 0.80868 0.05781 0.77737 0.0
C966 C 0.93859 0.14899 0.70606 0.0
C967 C 0.91864 0.13577 0.70651 0.0
C968 C 0.87402 0.1224 0.74524 0.0
C969 C 0.82971 0.07554 0.74623 0.0
C970 C 0.849 0.09001 0.7385 0.0
C971 C 0.91199 0.12489 0.72679 0.0
C972 C 0.88944 0.11404 0.72892 0.0
H973 H 0.78984 0.0386 0.72557 0.0
H974 H 0.81905 0.0652 0.71227 0.0
H975 H 0.84252 0.11718 0.76291 0.0
H976 H 0.95627 0.13991 0.76104 0.0
H977 H 0.92143 0.1173 0.76173 0.0
C978 C 0.46314 0.30085 0.2823 0.0
C979 C 0.47125 0.29688 0.30459 0.0
C980 C 0.45222 0.32128 0.27681 0.0
C981 C 0.44684 0.38101 0.29566 0.0
H982 H 0.39562 0.38128 0.25346 0.0
C983 C 0.39092 0.46029 0.27667 0.0
C984 C 0.3845 0.46395 0.25378 0.0
C985 C 0.40279 0.44057 0.28291 0.0
C986 C 0.41008 0.38146 0.26506 0.0
H987 H 0.47361 0.31113 0.33878 0.0
H988 H 0.45404 0.34675 0.32922 0.0
H989 H 0.41224 0.345 0.26541 0.0
H990 H 0.3863 0.4502 0.21936 0.0
H991 H 0.40706 0.41571 0.23035 0.0
H992 H 0.44436 0.41757 0.29548 0.0
C993 C 0.45659 0.33413 0.31593 0.0
C994 C 0.41957 0.36071 0.27193 0.0
C995 C 0.46765 0.31366 0.32143 0.0
C996 C 0.39098 0.4479 0.23713 0.0
C997 C 0.4027 0.42808 0.24342 0.0
C998 C 0.43722 0.40179 0.28889 0.0
C999 C 0.44897 0.33822 0.29349 0.0
C1000 C 0.43816 0.36025 0.28718 0.0
C1001 C 0.40833 0.42406 0.26642 0.0
C1002 C 0.41886 0.40218 0.2734 0.0
H1003 H 0.46565 0.2884 0.26883 0.0
H1004 H 0.44686 0.32402 0.2593 0.0
H1005 H 0.46137 0.38124 0.30716 0.0
H1006 H 0.38628 0.47237 0.28991 0.0
H1007 H 0.40683 0.43782 0.30078 0.0
C1008 C 0.23565 0.22412 0.075 0.0
C1009 C 0.24714 0.23297 0.05588 0.0
C1010 C 0.2465 0.20861 0.08943 0.0
C1011 C 0.28767 0.16326 0.08332 0.0
H1012 H 0.27027 0.15181 0.14623 0.0
C1013 C 0.29481 0.07422 0.1265 0.0
C1014 C 0.27408 0.06729 0.13658 0.0
C1015 C 0.29785 0.09685 0.11945 0.0
C1016 C 0.27548 0.15489 0.12873 0.0
H1017 H 0.2798 0.23437 0.03826 0.0
H1018 H 0.29874 0.20709 0.06354 0.0
H1019 H 0.26604 0.19019 0.13032 0.0
H1020 H 0.24026 0.07866 0.14694 0.0
H1021 H 0.24557 0.11791 0.13448 0.0
H1022 H 0.29596 0.12767 0.08141 0.0
C1023 C 0.28124 0.21199 0.06713 0.0
C1024 C 0.27311 0.17681 0.11966 0.0
C1025 C 0.27039 0.22764 0.05271 0.0
C1026 C 0.25639 0.08335 0.13914 0.0
C1027 C 0.25954 0.10593 0.13233 0.0
C1028 C 0.29016 0.14136 0.09245 0.0
C1029 C 0.26907 0.20159 0.08503 0.0
C1030 C 0.27801 0.18089 0.09651 0.0
C1031 C 0.28034 0.11294 0.12264 0.0
C1032 C 0.28295 0.13679 0.11484 0.0
H1033 H 0.21784 0.22816 0.07812 0.0
H1034 H 0.23655 0.20081 0.10295 0.0
H1035 H 0.29144 0.16579 0.06538 0.0
H1036 H 0.3088 0.06228 0.12436 0.0
H1037 H 0.31399 0.10186 0.11186 0.0
C1038 C 0.17272 0.79392 0.93725 0.0
C1039 C 0.19405 0.7835 0.94124 0.0
C1040 C 0.17064 0.81147 0.92115 0.0
C1041 C 0.20122 0.83995 0.8733 0.0
H1042 H 0.17206 0.89504 0.89602 0.0
C1043 C 0.22983 0.92912 0.84731 0.0
C1044 C 0.21316 0.94504 0.84049 0.0
C1045 C 0.22342 0.90823 0.85672 0.0
C1046 C 0.17987 0.87966 0.88927 0.0
H1047 H 0.22961 0.78254 0.93056 0.0
H1048 H 0.22606 0.81318 0.90295 0.0
H1049 H 0.16766 0.85917 0.91697 0.0
H1050 H 0.17667 0.95173 0.83874 0.0
H1051 H 0.16551 0.91515 0.85594 0.0
H1052 H 0.21456 0.86082 0.84638 0.0
C1053 C 0.21086 0.80771 0.91201 0.0
C1054 C 0.17731 0.85912 0.90118 0.0
C1055 C 0.21295 0.79026 0.92806 0.0
C1056 C 0.1899 0.9398 0.84383 0.0
C1057 C 0.1835 0.91893 0.85361 0.0
C1058 C 0.20393 0.86049 0.86154 0.0
C1059 C 0.1898 0.81882 0.90868 0.0
C1060 C 0.18867 0.83925 0.89376 0.0
C1061 C 0.20023 0.90288 0.85978 0.0
C1062 C 0.19394 0.88065 0.86988 0.0
H1063 H 0.15777 0.78903 0.94702 0.0
H1064 H 0.15415 0.81957 0.91878 0.0
H1065 H 0.20975 0.82481 0.86689 0.0
H1066 H 0.24788 0.93251 0.84488 0.0
H1067 H 0.23664 0.89624 0.86172 0.0
C1068 C 0.53951 0.74788 0.38948 0.0
C1069 C 0.5316 0.7704 0.38651 0.0
C1070 C 0.5597 0.74372 0.40151 0.0
C1071 C 0.61319 0.77396 0.41085 0.0
H1072 H 0.63034 0.71923 0.44405 0.0
C1073 C 0.70375 0.75702 0.44719 0.0
C1074 C 0.7117 0.73433 0.44661 0.0
C1075 C 0.68167 0.76226 0.43976 0.0
C1076 C 0.6258 0.73448 0.43457 0.0
H1077 H 0.53668 0.80572 0.39682 0.0
H1078 H 0.57166 0.79832 0.41815 0.0
H1079 H 0.59004 0.72672 0.4361 0.0
H1080 H 0.70355 0.69981 0.43551 0.0
H1081 H 0.66521 0.70911 0.42227 0.0
H1082 H 0.64895 0.78157 0.40904 0.0
C1083 C 0.5627 0.78403 0.41046 0.0
C1084 C 0.60274 0.73884 0.43019 0.0
C1085 C 0.54256 0.78822 0.39839 0.0
C1086 C 0.69787 0.71742 0.43653 0.0
C1087 C 0.67582 0.72267 0.42913 0.0
C1088 C 0.63623 0.76962 0.41526 0.0
C1089 C 0.57218 0.76198 0.41092 0.0
C1090 C 0.59622 0.75852 0.41809 0.0
C1091 C 0.66719 0.74493 0.43155 0.0
C1092 C 0.64278 0.74971 0.42691 0.0
H1093 H 0.53141 0.7337 0.38074 0.0
H1094 H 0.56651 0.7265 0.40164 0.0
H1095 H 0.60876 0.78902 0.40102 0.0
H1096 H 0.71395 0.77049 0.45479 0.0
H1097 H 0.67548 0.77961 0.44174 0.0
C1098 C 0.69773 0.20203 0.94284 0.0
C1099 C 0.72099 0.20223 0.949 0.0
C1100 C 0.69038 0.18941 0.92388 0.0
C1101 C 0.71017 0.16403 0.87044 0.0
H1102 H 0.67333 0.11087 0.88513 0.0
C1103 C 0.72837 0.07723 0.83394 0.0
C1104 C 0.71085 0.06144 0.82945 0.0
C1105 C 0.7233 0.09863 0.84294 0.0
C1106 C 0.683 0.12595 0.88042 0.0
H1107 H 0.75488 0.19031 0.93982 0.0
H1108 H 0.74213 0.16874 0.90657 0.0
H1109 H 0.67574 0.14253 0.91227 0.0
H1110 H 0.67414 0.05599 0.83012 0.0
H1111 H 0.66529 0.09359 0.84646 0.0
H1112 H 0.71859 0.14697 0.83926 0.0
C1113 C 0.72959 0.17815 0.91643 0.0
C1114 C 0.68439 0.14403 0.89597 0.0
C1115 C 0.73683 0.19026 0.93558 0.0
C1116 C 0.68801 0.0678 0.83352 0.0
C1117 C 0.68293 0.08926 0.84282 0.0
C1118 C 0.70862 0.1461 0.85484 0.0
C1119 C 0.70632 0.17746 0.91054 0.0
C1120 C 0.69906 0.16252 0.89162 0.0
C1121 C 0.7006 0.10478 0.84779 0.0
C1122 C 0.69621 0.12628 0.86035 0.0
H1123 H 0.6852 0.21114 0.95298 0.0
H1124 H 0.67233 0.18888 0.9197 0.0
H1125 H 0.72138 0.1783 0.8667 0.0
H1126 H 0.74613 0.07299 0.83077 0.0
H1127 H 0.73736 0.11001 0.847 0.0
C1128 C 0.28697 0.25023 0.46316 0.0
C1129 C 0.28841 0.27217 0.47297 0.0
C1130 C 0.30633 0.23998 0.4536 0.0
C1131 C 0.36906 0.24245 0.45607 0.0
H1132 H 0.36758 0.21734 0.39475 0.0
C1133 C 0.44735 0.23922 0.39848 0.0
C1134 C 0.4506 0.22044 0.38389 0.0
C1135 C 0.42776 0.2408 0.41188 0.0
C1136 C 0.36817 0.22382 0.41209 0.0
H1137 H 0.31122 0.30073 0.47981 0.0
H1138 H 0.34469 0.28293 0.46308 0.0
H1139 H 0.33194 0.22931 0.41299 0.0
H1140 H 0.43616 0.18821 0.3724 0.0
H1141 H 0.40169 0.19112 0.39586 0.0
H1142 H 0.40531 0.23776 0.45492 0.0
C1143 C 0.32873 0.27352 0.46314 0.0
C1144 C 0.3478 0.2307 0.42248 0.0
C1145 C 0.30945 0.28378 0.47254 0.0
C1146 C 0.43415 0.20289 0.3835 0.0
C1147 C 0.41439 0.20457 0.39682 0.0
C1148 C 0.38936 0.23557 0.44572 0.0
C1149 C 0.32744 0.25143 0.45385 0.0
C1150 C 0.34822 0.24081 0.44424 0.0
C1151 C 0.41093 0.22369 0.41091 0.0
C1152 C 0.38919 0.22693 0.42334 0.0
H1153 H 0.27101 0.24082 0.46319 0.0
H1154 H 0.30493 0.22295 0.44645 0.0
H1155 H 0.36975 0.24975 0.47308 0.0
H1156 H 0.45974 0.25299 0.39925 0.0
H1157 H 0.42539 0.25589 0.42235 0.0
C1158 C 0.70559 0.78123 0.04816 0.0
C1159 C 0.72812 0.77829 0.04033 0.0
C1160 C 0.7008 0.79736 0.06518 0.0
C1161 C 0.72836 0.83142 0.1105 0.0
H1162 H 0.68501 0.8791 0.09468 0.0
C1163 C 0.73921 0.9229 0.14092 0.0
C1164 C 0.7201 0.93455 0.14961 0.0
C1165 C 0.73662 0.90168 0.13046 0.0
C1166 C 0.69683 0.86569 0.09955 0.0
H1167 H 0.76339 0.78908 0.04479 0.0
H1168 H 0.75508 0.81692 0.07428 0.0
H1169 H 0.68635 0.84397 0.07196 0.0
H1170 H 0.68315 0.93334 0.15351 0.0
H1171 H 0.6787 0.89623 0.13478 0.0
H1172 H 0.73967 0.85354 0.13731 0.0
C1173 C 0.7411 0.80688 0.06739 0.0
C1174 C 0.69754 0.8456 0.08664 0.0
C1175 C 0.74581 0.79111 0.0503 0.0
C1176 C 0.69824 0.92477 0.14703 0.0
C1177 C 0.69564 0.90357 0.13634 0.0
C1178 C 0.7277 0.85145 0.12331 0.0
C1179 C 0.71857 0.81035 0.07485 0.0
C1180 C 0.71397 0.82875 0.09146 0.0
C1181 C 0.71487 0.89172 0.12831 0.0
C1182 C 0.71258 0.86912 0.11736 0.0
H1183 H 0.69165 0.77154 0.04074 0.0
H1184 H 0.68328 0.79981 0.07067 0.0
H1185 H 0.74093 0.81848 0.11475 0.0
H1186 H 0.75628 0.9299 0.14262 0.0
H1187 H 0.75168 0.89305 0.12399 0.0
C1188 C 0.54705 0.25648 0.63155 0.0
C1189 C 0.54073 0.23525 0.64088 0.0
C1190 C 0.56533 0.25799 0.61631 0.0
C1191 C 0.61912 0.23032 0.60387 0.0
H1192 H 0.61791 0.26562 0.54779 0.0
C1193 C 0.69717 0.23589 0.54395 0.0
C1194 C 0.70124 0.25692 0.53308 0.0
C1195 C 0.67709 0.23243 0.55635 0.0
C1196 C 0.61861 0.25594 0.56355 0.0
H1197 H 0.54811 0.19884 0.64092 0.0
H1198 H 0.58023 0.20162 0.61447 0.0
H1199 H 0.58285 0.26087 0.5699 0.0
H1200 H 0.68795 0.29108 0.52736 0.0
H1201 H 0.65333 0.28534 0.54965 0.0
H1202 H 0.65494 0.22602 0.59814 0.0
C1203 C 0.57097 0.21702 0.619 0.0
C1204 C 0.59851 0.25312 0.57608 0.0
C1205 C 0.55252 0.21545 0.634 0.0
C1206 C 0.68515 0.2746 0.53535 0.0
C1207 C 0.66523 0.27124 0.54798 0.0
C1208 C 0.63928 0.23336 0.59151 0.0
C1209 C 0.57776 0.23835 0.61036 0.0
C1210 C 0.59864 0.24036 0.59637 0.0
C1211 C 0.66081 0.25003 0.55839 0.0
C1212 C 0.63929 0.24632 0.57127 0.0
H1213 H 0.53825 0.27202 0.63646 0.0
H1214 H 0.57034 0.27465 0.60993 0.0
H1215 H 0.61968 0.22067 0.61968 0.0
H1216 H 0.70919 0.22189 0.54234 0.0
H1217 H 0.67411 0.21579 0.56391 0.0
C1218 C 0.28838 0.76812 0.56145 0.0
C1219 C 0.27794 0.78051 0.54383 0.0
C1220 C 0.30239 0.77916 0.57715 0.0
C1221 C 0.34432 0.82221 0.57766 0.0
H1222 H 0.34929 0.80278 0.64085 0.0
C1223 C 0.43013 0.81841 0.62822 0.0
C1224 C 0.43392 0.79587 0.63585 0.0
C1225 C 0.40854 0.82503 0.62025 0.0
C1226 C 0.34798 0.80881 0.62338 0.0
H1227 H 0.27297 0.81411 0.52904 0.0
H1228 H 0.29866 0.83351 0.55623 0.0
H1229 H 0.31246 0.80027 0.6213 0.0
H1230 H 0.41803 0.76271 0.64111 0.0
H1231 H 0.38065 0.77425 0.62731 0.0
H1232 H 0.38035 0.82875 0.57917 0.0
C1233 C 0.29546 0.81536 0.55811 0.0
C1234 C 0.32695 0.80746 0.61226 0.0
C1235 C 0.28087 0.80432 0.54265 0.0
C1236 C 0.41579 0.78014 0.63524 0.0
C1237 C 0.39427 0.78683 0.62766 0.0
C1238 C 0.36541 0.82357 0.58882 0.0
C1239 C 0.30662 0.80273 0.57523 0.0
C1240 C 0.32535 0.81265 0.5889 0.0
C1241 C 0.39039 0.80934 0.62028 0.0
C1242 C 0.36763 0.8154 0.61127 0.0
H1243 H 0.28623 0.74975 0.56267 0.0
H1244 H 0.3111 0.76894 0.58993 0.0
H1245 H 0.34351 0.82624 0.5596 0.0
H1246 H 0.44378 0.83093 0.62852 0.0
H1247 H 0.40594 0.8424 0.61436 0.0
C1248 C 0.83792 0.72215 0.94351 0.0
C1249 C 0.81901 0.70737 0.9441 0.0
C1250 C 0.85527 0.71886 0.92761 0.0
C1251 C 0.86633 0.69823 0.87106 0.0
H1252 H 0.92975 0.70352 0.88995 0.0
C1253 C 0.93958 0.70821 0.80577 0.0
C1254 C 0.95491 0.72606 0.81088 0.0
C1255 C 0.92419 0.70037 0.82224 0.0
C1256 C 0.91214 0.70198 0.88441 0.0
H1257 H 0.80323 0.67767 0.92839 0.0
H1258 H 0.8336 0.6723 0.89992 0.0
H1259 H 0.89986 0.69969 0.91878 0.0
H1260 H 0.96637 0.7493 0.83748 0.0
H1261 H 0.93935 0.73594 0.86594 0.0
H1262 H 0.87841 0.70187 0.83675 0.0
C1263 C 0.83498 0.68619 0.9121 0.0
C1264 C 0.89509 0.69969 0.90087 0.0
C1265 C 0.8177 0.68925 0.92834 0.0
C1266 C 0.95483 0.73554 0.83294 0.0
C1267 C 0.93946 0.72771 0.84935 0.0
C1268 C 0.88339 0.70069 0.85455 0.0
C1269 C 0.85395 0.7009 0.91176 0.0
C1270 C 0.87202 0.69862 0.89435 0.0
C1271 C 0.92385 0.71019 0.84414 0.0
C1272 C 0.90637 0.70344 0.86114 0.0
H1273 H 0.83947 0.73617 0.95552 0.0
H1274 H 0.86956 0.73066 0.92742 0.0
H1275 H 0.84861 0.69754 0.86566 0.0
H1276 H 0.93926 0.70041 0.78899 0.0
H1277 H 0.91246 0.68673 0.81781 0.0
C1278 C 0.77178 0.32386 0.40789 0.0
C1279 C 0.78924 0.31986 0.42392 0.0
C1280 C 0.77622 0.33619 0.38799 0.0
C1281 C 0.81316 0.38195 0.36846 0.0
H1282 H 0.77883 0.37315 0.3124 0.0
C1283 C 0.77922 0.43445 0.28324 0.0
C1284 C 0.76994 0.45318 0.2951 0.0
C1285 C 0.78983 0.41664 0.29523 0.0
C1286 C 0.78904 0.37568 0.32765 0.0
H1287 H 0.82543 0.32457 0.4309 0.0
H1288 H 0.8331 0.3463 0.39609 0.0
H1289 H 0.7818 0.34194 0.33985 0.0
H1290 H 0.7661 0.46889 0.32846 0.0
H1291 H 0.78447 0.43805 0.34923 0.0
H1292 H 0.81952 0.41603 0.35672 0.0
C1293 C 0.81595 0.33996 0.39909 0.0
C1294 C 0.79052 0.35788 0.34349 0.0
C1295 C 0.81153 0.32749 0.419 0.0
C1296 C 0.77288 0.45456 0.31888 0.0
C1297 C 0.78366 0.43697 0.33077 0.0
C1298 C 0.81168 0.39975 0.35262 0.0
C1299 C 0.79821 0.34488 0.38363 0.0
C1300 C 0.80161 0.36123 0.36455 0.0
C1301 C 0.7916 0.41748 0.31919 0.0
C1302 C 0.79863 0.39716 0.33261 0.0
H1303 H 0.75446 0.31807 0.41101 0.0
H1304 H 0.76207 0.33994 0.37662 0.0
H1305 H 0.82182 0.38511 0.38452 0.0
H1306 H 0.77722 0.43297 0.26489 0.0
H1307 H 0.79589 0.40185 0.28587 0.0
C1308 C 0.0582 0.23099 0.80851 0.0
C1309 C 0.04371 0.24709 0.79812 0.0
C1310 C 0.07125 0.237 0.82746 0.0
C1311 C 0.06873 0.27653 0.87545 0.0
H1312 H 0.12743 0.24937 0.89016 0.0
C1313 C 0.12128 0.29268 0.95826 0.0
C1314 C 0.13189 0.27332 0.96785 0.0
C1315 C 0.10915 0.29088 0.93781 0.0
C1316 C 0.11095 0.25691 0.88628 0.0
H1317 H 0.03306 0.28267 0.79819 0.0
H1318 H 0.0562 0.29324 0.83128 0.0
H1319 H 0.11222 0.24578 0.85153 0.0
H1320 H 0.13617 0.23653 0.96466 0.0
H1321 H 0.11491 0.2335 0.92903 0.0
H1322 H 0.0676 0.28763 0.91035 0.0
C1323 C 0.05701 0.27584 0.82498 0.0
C1324 C 0.10231 0.25496 0.86419 0.0
C1325 C 0.04392 0.26982 0.80595 0.0
C1326 C 0.12839 0.25182 0.95767 0.0
C1327 C 0.1164 0.25008 0.93717 0.0
C1328 C 0.0775 0.27864 0.89754 0.0
C1329 C 0.07017 0.25927 0.83637 0.0
C1330 C 0.08089 0.2643 0.85868 0.0
C1331 C 0.10753 0.26973 0.92664 0.0
C1332 C 0.09842 0.26839 0.90321 0.0
H1333 H 0.05865 0.21339 0.80273 0.0
H1334 H 0.0811 0.22379 0.83593 0.0
H1335 H 0.05202 0.28363 0.87179 0.0
H1336 H 0.12349 0.30946 0.96579 0.0
H1337 H 0.10231 0.30624 0.93002 0.0
C1338 C 0.25983 0.57449 0.28522 0.0
C1339 C 0.28341 0.57445 0.28055 0.0
C1340 C 0.25072 0.59008 0.30087 0.0
C1341 C 0.26399 0.64216 0.33469 0.0
H1342 H 0.23214 0.61049 0.38349 0.0
C1343 C 0.2663 0.67386 0.42701 0.0
C1344 C 0.24608 0.67308 0.43996 0.0
C1345 C 0.26725 0.66368 0.40549 0.0
C1346 C 0.24063 0.61972 0.36986 0.0
H1347 H 0.31553 0.59194 0.28685 0.0
H1348 H 0.2997 0.61903 0.314 0.0
H1349 H 0.23888 0.59101 0.3473 0.0
H1350 H 0.21111 0.66045 0.44056 0.0
H1351 H 0.21291 0.64257 0.40298 0.0
H1352 H 0.26653 0.67055 0.35761 0.0
C1353 C 0.28821 0.60708 0.30573 0.0
C1354 C 0.24439 0.60861 0.34909 0.0
C1355 C 0.29733 0.59141 0.29031 0.0
C1356 C 0.22701 0.66132 0.43111 0.0
C1357 C 0.22799 0.65109 0.40957 0.0
C1358 C 0.26023 0.65326 0.35545 0.0
C1359 C 0.265 0.60602 0.31182 0.0
C1360 C 0.25679 0.61946 0.3316 0.0
C1361 C 0.24802 0.65246 0.39642 0.0
C1362 C 0.2492 0.64186 0.37349 0.0
H1363 H 0.24869 0.56163 0.27789 0.0
H1364 H 0.23271 0.58907 0.30512 0.0
H1365 H 0.27331 0.65102 0.32137 0.0
H1366 H 0.28132 0.68275 0.43325 0.0
H1367 H 0.28309 0.66456 0.39594 0.0
C1368 C 0.81861 0.26288 0.07328 0.0
C1369 C 0.81564 0.24374 0.05903 0.0
C1370 C 0.83351 0.26194 0.0919 0.0
C1371 C 0.86622 0.22134 0.12834 0.0
H1372 H 0.90462 0.27429 0.13968 0.0
C1373 C 0.95076 0.21656 0.17743 0.0
C1374 C 0.95423 0.23243 0.19515 0.0
C1375 C 0.9323 0.21883 0.16258 0.0
C1376 C 0.89379 0.25952 0.13687 0.0
H1377 H 0.82577 0.20855 0.05328 0.0
H1378 H 0.85233 0.2071 0.0853 0.0
H1379 H 0.87498 0.27618 0.11034 0.0
H1380 H 0.94125 0.26337 0.21095 0.0
H1381 H 0.90905 0.26766 0.18433 0.0
H1382 H 0.88585 0.20442 0.15422 0.0
C1383 C 0.84273 0.22268 0.08248 0.0
C1384 C 0.87676 0.26057 0.12014 0.0
C1385 C 0.82759 0.22353 0.06402 0.0
C1386 C 0.93901 0.25089 0.19745 0.0
C1387 C 0.92065 0.25337 0.18226 0.0
C1388 C 0.88342 0.22022 0.14484 0.0
C1389 C 0.846 0.24194 0.09655 0.0
C1390 C 0.86298 0.24138 0.11545 0.0
C1391 C 0.91704 0.23717 0.1649 0.0
C1392 C 0.89753 0.23918 0.149 0.0
H1393 H 0.80941 0.27864 0.07005 0.0
H1394 H 0.83525 0.27694 0.10262 0.0
H1395 H 0.8556 0.20642 0.12557 0.0
H1396 H 0.96204 0.20201 0.17529 0.0
H1397 H 0.92999 0.20626 0.14916 0.0
C1398 C 0.27315 0.43241 0.70176 0.0
C1399 C 0.26353 0.4504 0.71444 0.0
C1400 C 0.25983 0.42032 0.68605 0.0
C1401 C 0.2159 0.43295 0.64625 0.0
H1402 H 0.21698 0.36803 0.63276 0.0
C1403 C 0.19106 0.36609 0.56941 0.0
C1404 C 0.20721 0.37304 0.55301 0.0
C1405 C 0.1907 0.37633 0.59096 0.0
C1406 C 0.21613 0.38615 0.63656 0.0
H1407 H 0.2319 0.46848 0.72196 0.0
H1408 H 0.20898 0.44771 0.69409 0.0
H1409 H 0.23065 0.3817 0.66996 0.0
H1410 H 0.23424 0.39719 0.5454 0.0
H1411 H 0.23297 0.41573 0.58284 0.0
H1412 H 0.20321 0.43755 0.61216 0.0
C1413 C 0.22675 0.44299 0.69643 0.0
C1414 C 0.22402 0.39392 0.6577 0.0
C1415 C 0.23994 0.45484 0.71237 0.0
C1416 C 0.22164 0.3916 0.55777 0.0
C1417 C 0.22086 0.4022 0.5791 0.0
C1418 C 0.20845 0.42522 0.62496 0.0
C1419 C 0.23679 0.42621 0.68262 0.0
C1420 C 0.22452 0.41742 0.66244 0.0
C1421 C 0.20602 0.39403 0.59609 0.0
C1422 C 0.20909 0.40184 0.61979 0.0
H1423 H 0.2912 0.42844 0.70311 0.0
H1424 H 0.26795 0.40748 0.67545 0.0
H1425 H 0.21637 0.45119 0.64946 0.0
H1426 H 0.17992 0.35162 0.56623 0.0
H1427 H 0.17921 0.36976 0.60392 0.0
C1428 C 0.15504 0.66815 0.06052 0.0
C1429 C 0.16193 0.69067 0.05569 0.0
C1430 C 0.14496 0.66293 0.08163 0.0
C1431 C 0.13793 0.68428 0.14038 0.0
H1432 H 0.07359 0.66929 0.13439 0.0
C1433 C 0.06916 0.731 0.18747 0.0
C1434 C 0.04943 0.71998 0.19548 0.0
C1435 C 0.08595 0.71877 0.17593 0.0
C1436 C 0.09166 0.67273 0.13662 0.0
H1437 H 0.16504 0.72501 0.0693 0.0
H1438 H 0.14803 0.71585 0.10607 0.0
H1439 H 0.09944 0.66257 0.1023 0.0
H1440 H 0.032 0.68739 0.19841 0.0
H1441 H 0.06132 0.66591 0.17721 0.0
H1442 H 0.12983 0.69624 0.17396 0.0
C1443 C 0.15018 0.70226 0.09366 0.0
C1444 C 0.10645 0.66888 0.11824 0.0
C1445 C 0.15966 0.70757 0.07254 0.0
C1446 C 0.04709 0.69626 0.19234 0.0
C1447 C 0.0638 0.684 0.18029 0.0
C1448 C 0.1232 0.68805 0.15872 0.0
C1449 C 0.14238 0.68003 0.09829 0.0
C1450 C 0.12934 0.67605 0.11953 0.0
C1451 C 0.08329 0.69525 0.17185 0.0
C1452 C 0.09967 0.68375 0.15641 0.0
H1453 H 0.15665 0.65486 0.04773 0.0
H1454 H 0.13886 0.64573 0.08481 0.0
H1455 H 0.1556 0.68969 0.1418 0.0
H1456 H 0.07152 0.74923 0.18986 0.0
H1457 H 0.10056 0.728 0.16926 0.0
C1458 C 0.74386 0.53203 0.66243 0.0
C1459 C 0.75378 0.53165 0.68432 0.0
C1460 C 0.75444 0.54364 0.64455 0.0
C1461 C 0.7923 0.591 0.63178 0.0
H1462 H 0.79197 0.5637 0.57133 0.0
C1463 C 0.81324 0.64341 0.55073 0.0
C1464 C 0.79567 0.64188 0.53435 0.0
C1465 C 0.81439 0.62764 0.5687 0.0
C1466 C 0.79234 0.57149 0.58813 0.0
H1467 H 0.78257 0.54346 0.70461 0.0
H1468 H 0.80091 0.5642 0.67318 0.0
H1469 H 0.7819 0.5405 0.6045 0.0
H1470 H 0.76646 0.62194 0.52314 0.0
H1471 H 0.76854 0.59452 0.55424 0.0
H1472 H 0.80164 0.6223 0.61524 0.0
C1473 C 0.78499 0.55527 0.67001 0.0
C1474 C 0.78656 0.55825 0.60708 0.0
C1475 C 0.77448 0.5434 0.68795 0.0
C1476 C 0.7801 0.62364 0.53557 0.0
C1477 C 0.78143 0.6078 0.5533 0.0
C1478 C 0.79807 0.60429 0.61277 0.0
C1479 C 0.77513 0.5553 0.6481 0.0
C1480 C 0.78558 0.56811 0.62895 0.0
C1481 C 0.79824 0.60992 0.57034 0.0
C1482 C 0.79723 0.59487 0.59068 0.0
H1483 H 0.72798 0.52315 0.65894 0.0
H1484 H 0.74621 0.54375 0.62795 0.0
H1485 H 0.79163 0.59903 0.64846 0.0
H1486 H 0.82545 0.65734 0.55025 0.0
H1487 H 0.82757 0.6296 0.58158 0.0
C1488 C 0.80782 0.93323 0.77162 0.0
C1489 C 0.80151 0.94641 0.79066 0.0
C1490 C 0.82518 0.91698 0.7734 0.0
C1491 C 0.87606 0.90257 0.80735 0.0
H1492 H 0.87296 0.84684 0.77157 0.0
C1493 C 0.94787 0.8323 0.79855 0.0
C1494 C 0.95375 0.82896 0.77545 0.0
C1495 C 0.92895 0.84582 0.80435 0.0
C1496 C 0.87393 0.86225 0.78182 0.0
H1497 H 0.80815 0.95237 0.82673 0.0
H1498 H 0.83831 0.92377 0.82981 0.0
H1499 H 0.83922 0.87113 0.77471 0.0
H1500 H 0.94477 0.83794 0.74046 0.0
H1501 H 0.91193 0.86098 0.75067 0.0
H1502 H 0.91107 0.8936 0.81406 0.0
C1503 C 0.83002 0.92629 0.81344 0.0
C1504 C 0.85472 0.87622 0.78349 0.0
C1505 C 0.81268 0.94262 0.81166 0.0
C1506 C 0.94082 0.84001 0.75843 0.0
C1507 C 0.92188 0.85313 0.7642 0.0
C1508 C 0.89528 0.8884 0.80585 0.0
C1509 C 0.83656 0.9134 0.79428 0.0
C1510 C 0.85581 0.89695 0.79558 0.0
C1511 C 0.91554 0.85579 0.78712 0.0
C1512 C 0.8945 0.86857 0.79243 0.0
H1513 H 0.79967 0.93571 0.75518 0.0
H1514 H 0.83008 0.90764 0.75818 0.0
H1515 H 0.87748 0.91849 0.81671 0.0
H1516 H 0.95749 0.82405 0.81205 0.0
H1517 H 0.92433 0.84783 0.82217 0.0
C1518 C 0.57485 0.28601 0.28785 0.0
C1519 C 0.57114 0.27467 0.30866 0.0
C1520 C 0.59186 0.30266 0.28609 0.0
C1521 C 0.62093 0.34387 0.32317 0.0
H1522 H 0.6505 0.36078 0.26635 0.0
C1523 C 0.67159 0.42883 0.30767 0.0
C1524 C 0.66414 0.44046 0.28795 0.0
C1525 C 0.66391 0.4066 0.3122 0.0
C1526 C 0.64247 0.35614 0.28238 0.0
H1527 H 0.58384 0.27016 0.34326 0.0
H1528 H 0.61383 0.2989 0.34001 0.0
H1529 H 0.63253 0.32327 0.26982 0.0
H1530 H 0.64187 0.43819 0.25821 0.0
H1531 H 0.62878 0.3997 0.26614 0.0
H1532 H 0.6305 0.37708 0.33544 0.0
C1533 C 0.60315 0.29544 0.32528 0.0
C1534 C 0.63214 0.33474 0.28435 0.0
C1535 C 0.58602 0.27892 0.32709 0.0
C1536 C 0.64816 0.42977 0.27347 0.0
C1537 C 0.64078 0.40761 0.27785 0.0
C1538 C 0.63147 0.36522 0.32125 0.0
C1539 C 0.60565 0.30814 0.30506 0.0
C1540 C 0.62049 0.32871 0.30446 0.0
C1541 C 0.64895 0.39565 0.29694 0.0
C1542 C 0.64154 0.37181 0.30055 0.0
H1543 H 0.56371 0.28312 0.27333 0.0
H1544 H 0.59316 0.31224 0.2703 0.0
H1545 H 0.61191 0.3399 0.33883 0.0
H1546 H 0.6839 0.43656 0.31916 0.0
H1547 H 0.67026 0.39769 0.32716 0.0
C1548 C 0.19736 0.05867 0.71931 0.0
C1549 C 0.2012 0.0588 0.74304 0.0
C1550 C 0.18474 0.07624 0.70902 0.0
C1551 C 0.16121 0.13428 0.71893 0.0
H1552 H 0.10606 0.111 0.69029 0.0
C1553 C 0.07423 0.17295 0.73418 0.0
C1554 C 0.05775 0.1741 0.71673 0.0
C1555 C 0.09541 0.16289 0.73021 0.0
C1556 C 0.1216 0.11794 0.69762 0.0
H1557 H 0.19641 0.07806 0.77431 0.0
H1558 H 0.1748 0.10874 0.75644 0.0
H1559 H 0.13867 0.08558 0.69608 0.0
H1560 H 0.05078 0.16612 0.68121 0.0
H1561 H 0.08799 0.14776 0.67441 0.0
H1562 H 0.14359 0.16621 0.72188 0.0
C1563 C 0.18137 0.09514 0.74572 0.0
C1564 C 0.14029 0.10338 0.70094 0.0
C1565 C 0.19356 0.07746 0.75602 0.0
C1566 C 0.06316 0.16541 0.69497 0.0
C1567 C 0.08438 0.15494 0.69109 0.0
C1568 C 0.14258 0.14881 0.71559 0.0
C1569 C 0.17626 0.09442 0.72226 0.0
C1570 C 0.15976 0.11112 0.71275 0.0
C1571 C 0.10064 0.1535 0.70876 0.0
C1572 C 0.12216 0.14042 0.70607 0.0
H1573 H 0.20303 0.04442 0.70893 0.0
H1574 H 0.18101 0.0753 0.69091 0.0
H1575 H 0.17617 0.14077 0.72774 0.0
H1576 H 0.0707 0.1797 0.75106 0.0
H1577 H 0.10739 0.16169 0.7443 0.0
C1578 C 0.39014 0.58377 0.25017 0.0
C1579 C 0.38081 0.573 0.23088 0.0
C1580 C 0.39812 0.60616 0.24872 0.0
C1581 C 0.41538 0.65231 0.20944 0.0
H1582 H 0.40024 0.68895 0.26248 0.0
C1583 C 0.43533 0.74284 0.25956 0.0
C1584 C 0.459 0.74255 0.25592 0.0
C1585 C 0.42134 0.72703 0.24849 0.0
C1586 C 0.40414 0.67938 0.24714 0.0
H1587 H 0.3736 0.5768 0.19463 0.0
H1588 H 0.38731 0.61609 0.19225 0.0
H1589 H 0.38583 0.65047 0.25964 0.0
H1590 H 0.48652 0.72748 0.23634 0.0
H1591 H 0.46256 0.69888 0.21818 0.0
H1592 H 0.43366 0.68144 0.19689 0.0
C1593 C 0.38861 0.60714 0.20841 0.0
C1594 C 0.39626 0.65701 0.24581 0.0
C1595 C 0.38081 0.58461 0.2098 0.0
C1596 C 0.46824 0.72793 0.23936 0.0
C1597 C 0.45439 0.71159 0.22885 0.0
C1598 C 0.42312 0.67492 0.21062 0.0
C1599 C 0.39666 0.61835 0.22804 0.0
C1600 C 0.40263 0.64292 0.22749 0.0
C1601 C 0.43102 0.71001 0.23447 0.0
C1602 C 0.41837 0.68842 0.22998 0.0
H1603 H 0.3906 0.57518 0.26657 0.0
H1604 H 0.40492 0.61414 0.264 0.0
H1605 H 0.42033 0.64189 0.19496 0.0
H1606 H 0.42788 0.7543 0.27207 0.0
H1607 H 0.40326 0.72691 0.25248 0.0
C1608 C 0.8031 0.05957 0.22746 0.0
C1609 C 0.79334 0.05282 0.20656 0.0
C1610 C 0.82214 0.07387 0.22784 0.0
C1611 C 0.87119 0.08803 0.19164 0.0
H1612 H 0.88587 0.12804 0.24241 0.0
C1613 C 0.95595 0.13983 0.20498 0.0
C1614 C 0.96496 0.13835 0.22727 0.0
C1615 C 0.93502 0.12953 0.1997 0.0
C1616 C 0.88195 0.11687 0.22815 0.0
H1617 H 0.79456 0.05768 0.16977 0.0
H1618 H 0.82758 0.08312 0.17053 0.0
H1619 H 0.84693 0.11381 0.23804 0.0
H1620 H 0.96022 0.12289 0.26073 0.0
H1621 H 0.92379 0.10512 0.25143 0.0
H1622 H 0.90643 0.09129 0.18186 0.0
C1623 C 0.82087 0.07674 0.18656 0.0
C1624 C 0.8597 0.10875 0.22563 0.0
C1625 C 0.80184 0.0623 0.18616 0.0
C1626 C 0.95367 0.12465 0.24349 0.0
C1627 C 0.93274 0.11458 0.23826 0.0
C1628 C 0.89344 0.09644 0.19401 0.0
C1629 C 0.83174 0.08195 0.20735 0.0
C1630 C 0.85421 0.09368 0.20775 0.0
C1631 C 0.92284 0.11774 0.21666 0.0
C1632 C 0.89908 0.11035 0.21268 0.0
H1633 H 0.79694 0.05273 0.24353 0.0
H1634 H 0.83015 0.07738 0.24416 0.0
H1635 H 0.86762 0.07624 0.17782 0.0
H1636 H 0.96421 0.1502 0.19206 0.0
H1637 H 0.9277 0.13202 0.18287 0.0
C1638 C 0.43749 0.2845 0.74888 0.0
C1639 C 0.45661 0.27679 0.76112 0.0
C1640 C 0.42175 0.29906 0.75906 0.0
C1641 C 0.42113 0.34545 0.79869 0.0
H1642 H 0.35705 0.34647 0.78143 0.0
C1643 C 0.36717 0.42841 0.79911 0.0
C1644 C 0.35689 0.4325 0.77772 0.0
C1645 C 0.37621 0.40691 0.80432 0.0
C1646 C 0.37484 0.34634 0.78664 0.0
H1647 H 0.47388 0.27714 0.79386 0.0
H1648 H 0.44638 0.30358 0.81176 0.0
H1649 H 0.3785 0.31072 0.77915 0.0
H1650 H 0.34748 0.41702 0.74533 0.0
H1651 H 0.36326 0.37963 0.75442 0.0
H1652 H 0.41781 0.38139 0.80477 0.0
C1653 C 0.44355 0.298 0.79433 0.0
C1654 C 0.38707 0.32591 0.78543 0.0
C1655 C 0.45919 0.28293 0.78417 0.0
C1656 C 0.35542 0.41451 0.76188 0.0
C1657 C 0.3642 0.393 0.7672 0.0
C1658 C 0.40885 0.3659 0.79999 0.0
C1659 C 0.42494 0.30654 0.78165 0.0
C1660 C 0.41063 0.32558 0.79017 0.0
C1661 C 0.37481 0.38902 0.78839 0.0
C1662 C 0.38594 0.36673 0.79276 0.0
H1663 H 0.4351 0.27981 0.73111 0.0
H1664 H 0.40783 0.3056 0.74871 0.0
H1665 H 0.4393 0.34573 0.80233 0.0
H1666 H 0.36851 0.44191 0.81172 0.0
H1667 H 0.38436 0.40427 0.82075 0.0
C1668 C 0.21016 0.94276 0.23435 0.0
C1669 C 0.2126 0.95257 0.21255 0.0
C1670 C 0.19387 0.92558 0.23806 0.0
C1671 C 0.14034 0.90385 0.21259 0.0
H1672 H 0.15028 0.85057 0.25081 0.0
C1673 C 0.07801 0.8289 0.21176 0.0
C1674 C 0.06969 0.82207 0.23322 0.0
C1675 C 0.09702 0.84322 0.21021 0.0
C1676 C 0.14733 0.86546 0.24019 0.0
H1677 H 0.20113 0.95104 0.17728 0.0
H1678 H 0.1734 0.92096 0.18359 0.0
H1679 H 0.18081 0.87906 0.24658 0.0
H1680 H 0.07567 0.82377 0.26984 0.0
H1681 H 0.10901 0.84879 0.267 0.0
H1682 H 0.10711 0.89023 0.2059 0.0
C1683 C 0.18331 0.92699 0.19803 0.0
C1684 C 0.1647 0.88177 0.23784 0.0
C1685 C 0.19928 0.94421 0.1944 0.0
C1686 C 0.08152 0.82892 0.25305 0.0
C1687 C 0.10068 0.8431 0.25146 0.0
C1688 C 0.12317 0.88753 0.21476 0.0
C1689 C 0.17998 0.91787 0.21997 0.0
C1690 C 0.16145 0.90098 0.22374 0.0
C1691 C 0.1082 0.85082 0.23005 0.0
C1692 C 0.12658 0.86807 0.22834 0.0
H1693 H 0.22028 0.94886 0.24862 0.0
H1694 H 0.19166 0.91888 0.25517 0.0
H1695 H 0.13704 0.91877 0.20212 0.0
H1696 H 0.06942 0.82385 0.19614 0.0
H1697 H 0.10271 0.84874 0.19347 0.0
C1698 C 0.5427 0.69154 0.68735 0.0
C1699 C 0.53689 0.70615 0.70552 0.0
C1700 C 0.55766 0.67329 0.69078 0.0
C1701 C 0.60188 0.65127 0.73019 0.0
H1702 H 0.58795 0.59335 0.70097 0.0
C1703 C 0.6481 0.56708 0.75275 0.0
C1704 C 0.65477 0.55306 0.73439 0.0
C1705 C 0.63424 0.58614 0.74904 0.0
C1706 C 0.59218 0.60949 0.70904 0.0
H1707 H 0.54241 0.71311 0.74155 0.0
H1708 H 0.56823 0.68095 0.74762 0.0
H1709 H 0.56268 0.62596 0.69511 0.0
H1710 H 0.65214 0.54818 0.69769 0.0
H1711 H 0.62784 0.58147 0.69127 0.0
H1712 H 0.63125 0.63458 0.74438 0.0
C1713 C 0.56146 0.68386 0.73063 0.0
C1714 C 0.57774 0.62817 0.70567 0.0
C1715 C 0.54658 0.70222 0.72717 0.0
C1716 C 0.6473 0.55858 0.71222 0.0
C1717 C 0.63329 0.57757 0.70854 0.0
C1718 C 0.61626 0.63252 0.73366 0.0
C1719 C 0.56707 0.66912 0.71248 0.0
C1720 C 0.58244 0.64929 0.71617 0.0
C1721 C 0.62663 0.59151 0.72692 0.0
C1722 C 0.61155 0.61147 0.72309 0.0
H1723 H 0.53576 0.6942 0.67038 0.0
H1724 H 0.56196 0.66252 0.67635 0.0
H1725 H 0.60617 0.66738 0.73825 0.0
H1726 H 0.65361 0.5634 0.77005 0.0
H1727 H 0.62918 0.59647 0.76354 0.0
C1728 C 0.73439 0.95289 0.87479 0.0
C1729 C 0.71818 0.95648 0.85743 0.0
C1730 C 0.73343 0.93321 0.8883 0.0
C1731 C 0.69789 0.88142 0.9011 0.0
H1732 H 0.75743 0.85403 0.91089 0.0
C1733 C 0.7441 0.78965 0.92601 0.0
C1734 C 0.7297 0.78264 0.94385 0.0
C1735 C 0.74038 0.8105 0.91503 0.0
C1736 C 0.74062 0.86122 0.90797 0.0
H1737 H 0.68738 0.94292 0.84163 0.0
H1738 H 0.68622 0.90848 0.86441 0.0
H1739 H 0.75494 0.89208 0.89492 0.0
H1740 H 0.69949 0.79131 0.9635 0.0
H1741 H 0.69344 0.828 0.94496 0.0
H1742 H 0.6836 0.84991 0.91292 0.0
C1743 C 0.69941 0.92094 0.86809 0.0
C1744 C 0.7392 0.88337 0.89929 0.0
C1745 C 0.70015 0.94076 0.85489 0.0
C1746 C 0.71075 0.79621 0.94964 0.0
C1747 C 0.70729 0.81728 0.93898 0.0
C1748 C 0.69931 0.85908 0.90945 0.0
C1749 C 0.71648 0.91653 0.88443 0.0
C1750 C 0.71782 0.89374 0.89562 0.0
C1751 C 0.7225 0.82501 0.92204 0.0
C1752 C 0.72071 0.84864 0.91284 0.0
H1753 H 0.74834 0.96482 0.87735 0.0
H1754 H 0.74648 0.93068 0.90119 0.0
H1755 H 0.68112 0.88894 0.89877 0.0
H1756 H 0.75871 0.77939 0.92108 0.0
H1757 H 0.75199 0.81555 0.90153 0.0
C1758 C 0.691 0.1925 0.04785 0.0
C1759 C 0.71343 0.20041 0.05127 0.0
C1760 C 0.68197 0.17544 0.06204 0.0
C1761 C 0.6905 0.1442 0.11639 0.0
H1762 H 0.67645 0.08972 0.08124 0.0
C1763 C 0.70837 0.04455 0.1272 0.0
C1764 C 0.69972 0.04011 0.14915 0.0
C1765 C 0.70215 0.06442 0.11553 0.0
C1766 C 0.67996 0.10487 0.0913 0.0
H1767 H 0.74333 0.19821 0.07306 0.0
H1768 H 0.72742 0.169 0.09812 0.0
H1769 H 0.67958 0.12664 0.06187 0.0
H1770 H 0.67704 0.05256 0.17572 0.0
H1771 H 0.66658 0.08766 0.15542 0.0
H1772 H 0.69213 0.12223 0.14563 0.0
C1773 C 0.71683 0.17572 0.08447 0.0
C1774 C 0.68157 0.12601 0.08027 0.0
C1775 C 0.726 0.19234 0.07007 0.0
C1776 C 0.68391 0.05547 0.15877 0.0
C1777 C 0.67799 0.07558 0.14724 0.0
C1778 C 0.6886 0.12311 0.12747 0.0
C1779 C 0.69507 0.16651 0.08013 0.0
C1780 C 0.6878 0.14569 0.09257 0.0
C1781 C 0.68742 0.08044 0.1257 0.0
C1782 C 0.68425 0.10312 0.11487 0.0
H1783 H 0.68105 0.19837 0.03336 0.0
H1784 H 0.66515 0.16859 0.05836 0.0
H1785 H 0.69526 0.15914 0.12625 0.0
H1786 H 0.72052 0.033 0.11932 0.0
H1787 H 0.70989 0.06784 0.09906 0.0
C1788 C 0.424 0.26745 0.66635 0.0
C1789 C 0.43324 0.24533 0.6643 0.0
C1790 C 0.40232 0.27236 0.6578 0.0
C1791 C 0.34819 0.24601 0.63883 0.0
H1792 H 0.34218 0.30213 0.60403 0.0
C1793 C 0.27671 0.2638 0.57331 0.0
C1794 C 0.26986 0.28658 0.5698 0.0
C1795 C 0.29356 0.25862 0.5894 0.0
C1796 C 0.34336 0.28664 0.61412 0.0
H1797 H 0.42673 0.21096 0.65188 0.0
H1798 H 0.38892 0.21975 0.63647 0.0
H1799 H 0.3783 0.29322 0.62236 0.0
H1800 H 0.2734 0.3214 0.58216 0.0
H1801 H 0.3025 0.31226 0.61053 0.0
H1802 H 0.31325 0.23925 0.62997 0.0
C1803 C 0.39843 0.23315 0.64502 0.0
C1804 C 0.36413 0.28149 0.62455 0.0
C1805 C 0.42017 0.22819 0.65365 0.0
C1806 C 0.27864 0.30374 0.58415 0.0
C1807 C 0.29536 0.29853 0.60034 0.0
C1808 C 0.32732 0.25119 0.62835 0.0
C1809 C 0.38936 0.25533 0.64693 0.0
C1810 C 0.36686 0.26103 0.63682 0.0
C1811 C 0.30373 0.27609 0.60239 0.0
C1812 C 0.32479 0.27147 0.6157 0.0
H1813 H 0.43343 0.28103 0.67472 0.0
H1814 H 0.39565 0.28952 0.65982 0.0
H1815 H 0.34974 0.23026 0.64844 0.0
H1816 H 0.2702 0.25015 0.56261 0.0
H1817 H 0.29969 0.24118 0.59052 0.0
C1818 C 0.19486 0.80237 0.0453 0.0
C1819 C 0.21307 0.788 0.03901 0.0
C1820 C 0.1991 0.82269 0.05716 0.0
C1821 C 0.24307 0.85386 0.09044 0.0
H1822 H 0.21397 0.90787 0.06517 0.0
C1823 C 0.27352 0.94382 0.11456 0.0
C1824 C 0.25623 0.9592 0.12105 0.0
C1825 C 0.26796 0.92339 0.10352 0.0
C1826 C 0.2221 0.89293 0.07251 0.0
H1827 H 0.24977 0.78286 0.04166 0.0
H1828 H 0.25708 0.81819 0.06214 0.0
H1829 H 0.20361 0.87015 0.05064 0.0
H1830 H 0.21969 0.96589 0.11954 0.0
H1831 H 0.2101 0.93031 0.10038 0.0
H1832 H 0.26167 0.87662 0.11219 0.0
C1833 C 0.23956 0.81384 0.05795 0.0
C1834 C 0.21607 0.87133 0.06431 0.0
C1835 C 0.23536 0.79364 0.04607 0.0
C1836 C 0.23346 0.9544 0.11489 0.0
C1837 C 0.22792 0.93401 0.10384 0.0
C1838 C 0.24911 0.87543 0.09861 0.0
C1839 C 0.22157 0.82889 0.06307 0.0
C1840 C 0.22662 0.85159 0.07308 0.0
C1841 C 0.24503 0.918 0.09868 0.0
C1842 C 0.23882 0.8952 0.08962 0.0
H1843 H 0.17748 0.79849 0.04016 0.0
H1844 H 0.18486 0.83382 0.06121 0.0
H1845 H 0.25129 0.83893 0.09772 0.0
H1846 H 0.29125 0.94699 0.11895 0.0
H1847 H 0.28155 0.91153 0.09932 0.0
C1848 C 0.71215 0.74106 0.55433 0.0
C1849 C 0.71469 0.72034 0.54238 0.0
C1850 C 0.69185 0.74598 0.56583 0.0
C1851 C 0.63781 0.72157 0.58762 0.0
H1852 H 0.61368 0.78168 0.5731 0.0
C1853 C 0.54562 0.74636 0.61052 0.0
C1854 C 0.54278 0.76779 0.62106 0.0
C1855 C 0.56619 0.74076 0.5998 0.0
C1856 C 0.62025 0.76493 0.57748 0.0
H1857 H 0.69854 0.68775 0.53484 0.0
H1858 H 0.66312 0.6964 0.55494 0.0
H1859 H 0.65147 0.77076 0.5594 0.0
H1860 H 0.55897 0.80062 0.62741 0.0
H1861 H 0.59481 0.79079 0.6088 0.0
H1862 H 0.6066 0.71577 0.60576 0.0
C1863 C 0.67684 0.70885 0.55533 0.0
C1864 C 0.64193 0.75869 0.56972 0.0
C1865 C 0.69717 0.7039 0.54379 0.0
C1866 C 0.56049 0.78399 0.61939 0.0
C1867 C 0.58108 0.77835 0.60872 0.0
C1868 C 0.61613 0.72783 0.59544 0.0
C1869 C 0.67367 0.73028 0.5657 0.0
C1870 C 0.65096 0.73697 0.57474 0.0
C1871 C 0.58439 0.75644 0.5994 0.0
C1872 C 0.60711 0.74958 0.59045 0.0
H1873 H 0.7254 0.75401 0.55388 0.0
H1874 H 0.69009 0.76242 0.57417 0.0
H1875 H 0.64439 0.70479 0.59187 0.0
H1876 H 0.53229 0.73352 0.61133 0.0
H1877 H 0.56803 0.72392 0.59231 0.0
C1878 C 0.24021 0.20745 0.95038 0.0
C1879 C 0.21929 0.21219 0.96123 0.0
C1880 C 0.24234 0.18838 0.93608 0.0
C1881 C 0.20918 0.14876 0.90066 0.0
H1882 H 0.25846 0.10578 0.91171 0.0
C1883 C 0.20981 0.06017 0.85811 0.0
C1884 C 0.23091 0.05142 0.85067 0.0
C1885 C 0.20895 0.0798 0.87168 0.0
C1886 C 0.24478 0.11775 0.90813 0.0
H1887 H 0.18405 0.2011 0.96502 0.0
H1888 H 0.18774 0.16815 0.93984 0.0
H1889 H 0.25639 0.141 0.934 0.0
H1890 H 0.26769 0.0564 0.8518 0.0
H1891 H 0.26616 0.09089 0.87493 0.0
H1892 H 0.19768 0.1259 0.8746 0.0
C1893 C 0.20249 0.17905 0.94251 0.0
C1894 C 0.24362 0.1379 0.92093 0.0
C1895 C 0.20044 0.19784 0.95704 0.0
C1896 C 0.25115 0.06255 0.85741 0.0
C1897 C 0.25027 0.08233 0.87076 0.0
C1898 C 0.21048 0.12878 0.88768 0.0
C1899 C 0.22349 0.17401 0.93207 0.0
C1900 C 0.22566 0.15345 0.91748 0.0
C1901 C 0.22915 0.09133 0.8779 0.0
C1902 C 0.22814 0.11287 0.89142 0.0
H1903 H 0.25503 0.21816 0.95333 0.0
H1904 H 0.25869 0.1849 0.9281 0.0
H1905 H 0.1953 0.16063 0.89749 0.0
H1906 H 0.19392 0.05192 0.85334 0.0
H1907 H 0.19241 0.08592 0.87728 0.0
C1908 C 0.28157 0.76344 0.42068 0.0
C1909 C 0.27181 0.77667 0.43811 0.0
C1910 C 0.2956 0.77354 0.40432 0.0
C1911 C 0.33767 0.81776 0.40206 0.0
H1912 H 0.34453 0.79587 0.33989 0.0
C1913 C 0.42443 0.8219 0.35503 0.0
C1914 C 0.43084 0.80045 0.34622 0.0
C1915 C 0.40177 0.82599 0.36167 0.0
C1916 C 0.34278 0.80234 0.35715 0.0
H1917 H 0.26781 0.81097 0.45149 0.0
H1918 H 0.29308 0.82873 0.42301 0.0
H1919 H 0.30808 0.79085 0.35962 0.0
H1920 H 0.41822 0.76688 0.33653 0.0
H1921 H 0.37916 0.77389 0.34825 0.0
H1922 H 0.37285 0.82766 0.40026 0.0
C1923 C 0.28958 0.81058 0.42191 0.0
C1924 C 0.32191 0.79956 0.36838 0.0
C1925 C 0.2751 0.80047 0.43809 0.0
C1926 C 0.41399 0.78353 0.34345 0.0
C1927 C 0.39145 0.78766 0.34989 0.0
C1928 C 0.3586 0.82046 0.39086 0.0
C1929 C 0.30048 0.79705 0.40529 0.0
C1930 C 0.31954 0.80616 0.39133 0.0
C1931 C 0.3851 0.80881 0.35934 0.0
C1932 C 0.3617 0.81165 0.36872 0.0
H1933 H 0.27921 0.74505 0.42034 0.0
H1934 H 0.30395 0.76261 0.39192 0.0
H1935 H 0.33639 0.82289 0.41981 0.0
H1936 H 0.43698 0.83535 0.35726 0.0
H1937 H 0.39736 0.84246 0.36889 0.0
C1938 C 0.57057 0.17529 0.3664 0.0
C1939 C 0.55748 0.1927 0.37663 0.0
C1940 C 0.59262 0.17057 0.37426 0.0
C1941 C 0.63323 0.1792 0.42126 0.0
H1942 H 0.67735 0.195 0.37428 0.0
C1943 C 0.71632 0.23457 0.42196 0.0
C1944 C 0.72769 0.22513 0.4409 0.0
C1945 C 0.69963 0.22198 0.41043 0.0
C1946 C 0.66532 0.19005 0.38745 0.0
H1947 H 0.55635 0.21744 0.40417 0.0
H1948 H 0.59466 0.20874 0.41831 0.0
H1949 H 0.63751 0.18766 0.36373 0.0
H1950 H 0.73243 0.19411 0.46084 0.0
H1951 H 0.70299 0.17239 0.44091 0.0
H1952 H 0.66061 0.18294 0.44516 0.0
C1953 C 0.58793 0.19893 0.40411 0.0
C1954 C 0.64259 0.18576 0.38144 0.0
C1955 C 0.56608 0.20399 0.39597 0.0
C1956 C 0.72381 0.20203 0.44648 0.0
C1957 C 0.70694 0.18954 0.43512 0.0
C1958 C 0.65599 0.18314 0.42722 0.0
C1959 C 0.60167 0.1828 0.39279 0.0
C1960 C 0.62621 0.18134 0.39844 0.0
C1961 C 0.69394 0.19982 0.41777 0.0
C1962 C 0.67199 0.18963 0.4105 0.0
H1963 H 0.56445 0.16641 0.35134 0.0
H1964 H 0.60296 0.1581 0.36529 0.0
H1965 H 0.62086 0.17579 0.43461 0.0
H1966 H 0.71912 0.25221 0.41703 0.0
H1967 H 0.68981 0.23035 0.39714 0.0
C1968 C 0.17508 0.28196 0.42692 0.0
C1969 C 0.17844 0.26963 0.44725 0.0
C1970 C 0.16065 0.27352 0.41 0.0
C1971 C 0.10915 0.23989 0.4064 0.0
H1972 H 0.11656 0.24855 0.3411 0.0
C1973 C 0.04004 0.21586 0.34041 0.0
C1974 C 0.03692 0.23074 0.32177 0.0
C1975 C 0.05778 0.21943 0.35587 0.0
C1976 C 0.11422 0.24626 0.35932 0.0
H1977 H 0.17093 0.23802 0.46512 0.0
H1978 H 0.14544 0.22324 0.43539 0.0
H1979 H 0.14929 0.25397 0.36649 0.0
H1980 H 0.04918 0.26175 0.30548 0.0
H1981 H 0.08003 0.2682 0.33286 0.0
H1982 H 0.07398 0.23277 0.39937 0.0
C1983 C 0.15388 0.23951 0.43273 0.0
C1984 C 0.13296 0.24915 0.37378 0.0
C1985 C 0.16853 0.24789 0.44963 0.0
C1986 C 0.05115 0.24997 0.31964 0.0
C1987 C 0.06897 0.25351 0.33513 0.0
C1988 C 0.09041 0.23704 0.39196 0.0
C1989 C 0.14922 0.25266 0.41316 0.0
C1990 C 0.13049 0.24632 0.39748 0.0
C1991 C 0.07275 0.23795 0.35305 0.0
C1992 C 0.0927 0.24054 0.36833 0.0
H1993 H 0.18275 0.29866 0.42454 0.0
H1994 H 0.15729 0.28407 0.39515 0.0
H1995 H 0.10667 0.23804 0.42466 0.0
H1996 H 0.02928 0.20094 0.34264 0.0
H1997 H 0.06033 0.20713 0.36949 0.0
C1998 C 0.23592 0.67031 0.92064 0.0
C1999 C 0.2456 0.68957 0.93121 0.0
C2000 C 0.24324 0.66346 0.89912 0.0
C2001 C 0.29282 0.66319 0.86282 0.0
H2002 H 0.24916 0.63439 0.82206 0.0
C2003 C 0.3099 0.57865 0.82031 0.0
C2004 C 0.29782 0.57198 0.80068 0.0
C2005 C 0.30692 0.60044 0.82942 0.0
C2006 C 0.26174 0.64285 0.8327 0.0
H2007 H 0.27048 0.71691 0.92734 0.0
H2008 H 0.28361 0.70449 0.8896 0.0
H2009 H 0.23571 0.66046 0.85127 0.0
H2010 H 0.27479 0.58355 0.77395 0.0
H2011 H 0.26982 0.62179 0.78973 0.0
H2012 H 0.31881 0.6449 0.84475 0.0
C2013 C 0.27022 0.69491 0.89809 0.0
C2014 C 0.25395 0.65762 0.84963 0.0
C2015 C 0.26275 0.70192 0.91968 0.0
C2016 C 0.2839 0.58804 0.78944 0.0
C2017 C 0.28113 0.60997 0.79841 0.0
C2018 C 0.30068 0.64856 0.8457 0.0
C2019 C 0.26045 0.67564 0.88763 0.0
C2020 C 0.26925 0.66661 0.86579 0.0
C2021 C 0.29198 0.61614 0.81895 0.0
C2022 C 0.28504 0.63702 0.83151 0.0
H2023 H 0.22259 0.66047 0.92892 0.0
H2024 H 0.23579 0.64818 0.89174 0.0
H2025 H 0.30502 0.67009 0.87495 0.0
H2026 H 0.3209 0.56672 0.82926 0.0
H2027 H 0.31528 0.6044 0.84547 0.0
C2028 C 0.95012 0.77392 0.32049 0.0
C2029 C 0.94764 0.76333 0.29911 0.0
C2030 C 0.93146 0.77645 0.33495 0.0
C2031 C 0.87386 0.75421 0.34707 0.0
H2032 H 0.87324 0.8068 0.38758 0.0
C2033 C 0.81028 0.76376 0.42203 0.0
C2034 C 0.82291 0.76058 0.44221 0.0
C2035 C 0.82148 0.76935 0.40167 0.0
C2036 C 0.87298 0.79227 0.37609 0.0
H2037 H 0.92373 0.74682 0.27611 0.0
H2038 H 0.89064 0.75166 0.3014 0.0
H2039 H 0.9004 0.80546 0.35595 0.0
H2040 H 0.85653 0.76215 0.45762 0.0
H2041 H 0.87598 0.77311 0.42225 0.0
H2042 H 0.84651 0.74103 0.36761 0.0
C2043 C 0.9072 0.75775 0.30705 0.0
C2044 C 0.88866 0.79131 0.35817 0.0
C2045 C 0.9261 0.75491 0.2926 0.0
C2046 C 0.84651 0.76477 0.44225 0.0
C2047 C 0.85757 0.77101 0.42209 0.0
C2048 C 0.85785 0.75541 0.36476 0.0
C2049 C 0.90966 0.76881 0.3283 0.0
C2050 C 0.89003 0.77176 0.34415 0.0
C2051 C 0.84527 0.77246 0.40153 0.0
C2052 C 0.85796 0.77403 0.37989 0.0
H2053 H 0.9666 0.78029 0.32611 0.0
H2054 H 0.93424 0.78428 0.3515 0.0
H2055 H 0.87446 0.73888 0.33671 0.0
H2056 H 0.79209 0.76021 0.42162 0.0
H2057 H 0.81178 0.77026 0.38591 0.0
C2058 C 0.71958 0.44802 0.83105 0.0
C2059 C 0.7355 0.4498 0.81308 0.0
C2060 C 0.72058 0.42991 0.84645 0.0
C2061 C 0.7582 0.387 0.8713 0.0
H2062 H 0.7015 0.35526 0.88495 0.0
C2063 C 0.75771 0.30919 0.93052 0.0
C2064 C 0.74012 0.30791 0.94681 0.0
C2065 C 0.7564 0.32466 0.91248 0.0
C2066 C 0.71742 0.36407 0.88151 0.0
H2067 H 0.7655 0.4342 0.79781 0.0
H2068 H 0.76743 0.40254 0.82518 0.0
H2069 H 0.70161 0.38641 0.85718 0.0
H2070 H 0.70692 0.32103 0.95656 0.0
H2071 H 0.70482 0.34875 0.92525 0.0
H2072 H 0.77396 0.36529 0.89606 0.0
C2073 C 0.7541 0.41526 0.82707 0.0
C2074 C 0.7175 0.38184 0.86556 0.0
C2075 C 0.753 0.43338 0.81144 0.0
C2076 C 0.72066 0.32167 0.94416 0.0
C2077 C 0.71948 0.33748 0.9262 0.0
C2078 C 0.7581 0.36938 0.8874 0.0
C2079 C 0.73761 0.41316 0.84443 0.0
C2080 C 0.73786 0.39357 0.86044 0.0
C2081 C 0.73763 0.33951 0.91047 0.0
C2082 C 0.73769 0.35774 0.89277 0.0
H2083 H 0.7059 0.46036 0.83301 0.0
H2084 H 0.70793 0.42895 0.85994 0.0
H2085 H 0.77406 0.39595 0.86787 0.0
H2086 H 0.77277 0.29847 0.93196 0.0
H2087 H 0.77035 0.32525 0.90032 0.0
C2088 C 0.17528 0.72771 0.57175 0.0
C2089 C 0.17614 0.74423 0.55432 0.0
C2090 C 0.15819 0.72855 0.58827 0.0
C2091 C 0.09942 0.74671 0.59387 0.0
H2092 H 0.1081 0.73397 0.65836 0.0
C2093 C 0.02798 0.7552 0.66053 0.0
C2094 C 0.02796 0.74031 0.67941 0.0
C2095 C 0.04539 0.75415 0.64438 0.0
C2096 C 0.10539 0.73714 0.64032 0.0
H2097 H 0.16078 0.77535 0.54126 0.0
H2098 H 0.13065 0.77673 0.57026 0.0
H2099 H 0.14136 0.73793 0.6335 0.0
H2100 H 0.04518 0.71144 0.69515 0.0
H2101 H 0.07546 0.70932 0.66652 0.0
H2102 H 0.06349 0.7456 0.60052 0.0
C2103 C 0.14317 0.7631 0.57094 0.0
C2104 C 0.12442 0.73963 0.62618 0.0
C2105 C 0.16048 0.76242 0.55451 0.0
C2106 C 0.04478 0.72322 0.68086 0.0
C2107 C 0.06224 0.72216 0.66462 0.0
C2108 C 0.08039 0.74406 0.60797 0.0
C2109 C 0.14155 0.7458 0.58755 0.0
C2110 C 0.12158 0.74451 0.60286 0.0
C2111 C 0.0631 0.73812 0.64666 0.0
C2112 C 0.08318 0.73932 0.63135 0.0
H2113 H 0.18729 0.71361 0.57209 0.0
H2114 H 0.15728 0.71498 0.60084 0.0
H2115 H 0.09679 0.74998 0.57583 0.0
H2116 H 0.01515 0.76845 0.65878 0.0
H2117 H 0.04561 0.76675 0.63081 0.0
C2118 C 0.72708 0.56081 0.18381 0.0
C2119 C 0.7102 0.54393 0.18645 0.0
C2120 C 0.72407 0.57838 0.16792 0.0
C2121 C 0.69451 0.5925 0.11489 0.0
H2122 H 0.70931 0.65494 0.13168 0.0
C2123 C 0.69696 0.66344 0.04725 0.0
C2124 C 0.7182 0.67463 0.04742 0.0
C2125 C 0.69016 0.6505 0.06621 0.0
C2126 C 0.70497 0.6376 0.1268 0.0
H2127 H 0.67725 0.53187 0.17411 0.0
H2128 H 0.67225 0.56238 0.1463 0.0
H2129 H 0.7104 0.62494 0.16071 0.0
H2130 H 0.74797 0.68295 0.06795 0.0
H2131 H 0.73628 0.66054 0.10068 0.0
H2132 H 0.69022 0.60486 0.08078 0.0
C2133 C 0.68766 0.56209 0.15658 0.0
C2134 C 0.70573 0.62047 0.14335 0.0
C2135 C 0.69055 0.54468 0.17256 0.0
C2136 C 0.73164 0.67418 0.06729 0.0
C2137 C 0.7248 0.66156 0.08617 0.0
C2138 C 0.69391 0.60961 0.09829 0.0
C2139 C 0.70427 0.57922 0.15429 0.0
C2140 C 0.70116 0.59768 0.13738 0.0
C2141 C 0.70437 0.64897 0.08559 0.0
C2142 C 0.69987 0.63219 0.10394 0.0
H2143 H 0.74234 0.56072 0.19432 0.0
H2144 H 0.73729 0.59124 0.16619 0.0
H2145 H 0.69095 0.57503 0.10986 0.0
H2146 H 0.68629 0.66364 0.03211 0.0
H2147 H 0.67423 0.64107 0.06542 0.0
C2148 C 0.80934 0.248 0.57899 0.0
C2149 C 0.80441 0.26774 0.56634 0.0
C2150 C 0.81707 0.24987 0.60151 0.0
C2151 C 0.84999 0.29076 0.63471 0.0
H2152 H 0.84839 0.2416 0.67916 0.0
C2153 C 0.92573 0.24803 0.67512 0.0
C2154 C 0.93009 0.2528 0.69823 0.0
C2155 C 0.90504 0.25428 0.66527 0.0
C2156 C 0.84848 0.25584 0.66731 0.0
H2157 H 0.80104 0.30466 0.56783 0.0
H2158 H 0.81401 0.3079 0.60725 0.0
H2159 H 0.81837 0.24413 0.65004 0.0
H2160 H 0.91619 0.26773 0.72924 0.0
H2161 H 0.87941 0.27847 0.71169 0.0
H2162 H 0.88104 0.30133 0.65096 0.0
C2163 C 0.81273 0.29105 0.59966 0.0
C2164 C 0.83154 0.25715 0.6505 0.0
C2165 C 0.80542 0.2892 0.57707 0.0
C2166 C 0.91327 0.26398 0.71134 0.0
C2167 C 0.89231 0.27002 0.70145 0.0
C2168 C 0.86682 0.28945 0.65149 0.0
C2169 C 0.81961 0.27151 0.6118 0.0
C2170 C 0.83291 0.27385 0.63325 0.0
C2171 C 0.88825 0.2652 0.67836 0.0
C2172 C 0.86676 0.27134 0.6671 0.0
H2173 H 0.80846 0.23125 0.57112 0.0
H2174 H 0.82246 0.23447 0.61026 0.0
H2175 H 0.85177 0.30374 0.62163 0.0
H2176 H 0.93838 0.2396 0.66454 0.0
H2177 H 0.90207 0.25051 0.64737 0.0
C2178 C 0.27579 0.4577 0.17072 0.0
C2179 C 0.29714 0.45712 0.18171 0.0
C2180 C 0.27086 0.44218 0.15331 0.0
C2181 C 0.28579 0.3876 0.12747 0.0
H2182 H 0.26768 0.41708 0.07086 0.0
C2183 C 0.26871 0.33546 0.04577 0.0
C2184 C 0.24811 0.3411 0.03471 0.0
C2185 C 0.27785 0.35003 0.06237 0.0
C2186 C 0.2726 0.40857 0.08656 0.0
H2187 H 0.3293 0.43875 0.18453 0.0
H2188 H 0.32038 0.41132 0.15432 0.0
H2189 H 0.2752 0.44023 0.10465 0.0
H2190 H 0.22181 0.36713 0.03128 0.0
H2191 H 0.2374 0.39208 0.06028 0.0
H2192 H 0.28237 0.35584 0.10966 0.0
C2193 C 0.30769 0.42398 0.15899 0.0
C2194 C 0.27683 0.42181 0.10587 0.0
C2195 C 0.31277 0.4397 0.17617 0.0
C2196 C 0.23762 0.36216 0.03958 0.0
C2197 C 0.24668 0.37661 0.05613 0.0
C2198 C 0.28125 0.37427 0.10819 0.0
C2199 C 0.28705 0.42565 0.14691 0.0
C2200 C 0.2831 0.41141 0.12654 0.0
C2201 C 0.26657 0.37047 0.06811 0.0
C2202 C 0.27424 0.38462 0.08764 0.0
H2203 H 0.26343 0.47093 0.17462 0.0
H2204 H 0.25469 0.44353 0.14435 0.0
H2205 H 0.2907 0.37927 0.14328 0.0
H2206 H 0.27725 0.31939 0.04233 0.0
H2207 H 0.29341 0.34504 0.0711 0.0
C2208 C 0.32441 0.06033 0.23935 0.0
C2209 C 0.32913 0.04909 0.21865 0.0
C2210 C 0.33675 0.07974 0.24566 0.0
C2211 C 0.37333 0.12558 0.22204 0.0
H2212 H 0.39303 0.13166 0.285 0.0
C2213 C 0.44608 0.18461 0.25399 0.0
C2214 C 0.44441 0.1928 0.27647 0.0
C2215 C 0.42859 0.17108 0.24488 0.0
C2216 C 0.38726 0.13051 0.26744 0.0
H2217 H 0.35095 0.04919 0.1886 0.0
H2218 H 0.37282 0.08273 0.19994 0.0
H2219 H 0.37026 0.09886 0.27383 0.0
H2220 H 0.42231 0.19592 0.30601 0.0
H2221 H 0.3915 0.17299 0.28987 0.0
H2222 H 0.39105 0.15706 0.21565 0.0
C2223 C 0.35921 0.07681 0.21101 0.0
C2224 C 0.37426 0.11163 0.26103 0.0
C2225 C 0.34682 0.05743 0.20465 0.0
C2226 C 0.42407 0.18947 0.28874 0.0
C2227 C 0.40653 0.17625 0.27956 0.0
C2228 C 0.38644 0.14451 0.22847 0.0
C2229 C 0.35416 0.08828 0.23148 0.0
C2230 C 0.36729 0.10885 0.23825 0.0
C2231 C 0.40919 0.16582 0.25811 0.0
C2232 C 0.39362 0.14708 0.25123 0.0
H2233 H 0.31078 0.05452 0.25045 0.0
H2234 H 0.33232 0.08834 0.26144 0.0
H2235 H 0.36792 0.12403 0.20439 0.0
H2236 H 0.46167 0.18695 0.24426 0.0
H2237 H 0.4311 0.16327 0.22829 0.0
C2238 C 0.31078 0.94518 0.74725 0.0
C2239 C 0.29981 0.9453 0.76863 0.0
C2240 C 0.32937 0.93075 0.74327 0.0
C2241 C 0.35881 0.87884 0.76193 0.0
H2242 H 0.41267 0.90888 0.73751 0.0
C2243 C 0.44373 0.82997 0.74802 0.0
C2244 C 0.45508 0.8345 0.72731 0.0
C2245 C 0.42565 0.8439 0.75526 0.0
C2246 C 0.39774 0.90014 0.74412 0.0
H2247 H 0.29893 0.92931 0.80211 0.0
H2248 H 0.33124 0.90377 0.7949 0.0
H2249 H 0.37813 0.93103 0.74455 0.0
H2250 H 0.45668 0.85778 0.69839 0.0
H2251 H 0.42519 0.88154 0.71069 0.0
H2252 H 0.37814 0.84778 0.76084 0.0
C2253 C 0.32552 0.91507 0.78138 0.0
C2254 C 0.37797 0.91286 0.74816 0.0
C2255 C 0.30707 0.92973 0.78549 0.0
C2256 C 0.44846 0.85374 0.71448 0.0
C2257 C 0.43038 0.86752 0.72162 0.0
C2258 C 0.37854 0.86601 0.75762 0.0
C2259 C 0.33721 0.91592 0.76045 0.0
C2260 C 0.35824 0.9023 0.75684 0.0
C2261 C 0.41851 0.86262 0.74192 0.0
C2262 C 0.39817 0.87647 0.74839 0.0
H2263 H 0.30567 0.95692 0.73386 0.0
H2264 H 0.33792 0.93149 0.72686 0.0
H2265 H 0.34378 0.87031 0.7686 0.0
H2266 H 0.44839 0.81534 0.75838 0.0
H2267 H 0.41712 0.83985 0.77118 0.0
C2268 C 0.70328 0.9163 0.24715 0.0
C2269 C 0.7112 0.93637 0.25766 0.0
C2270 C 0.69497 0.89828 0.2603 0.0
C2271 C 0.66252 0.89146 0.31128 0.0
H2272 H 0.66457 0.82757 0.29366 0.0
C2273 C 0.58647 0.83315 0.32987 0.0
C2274 C 0.57885 0.8216 0.31019 0.0
C2275 C 0.60848 0.84244 0.33073 0.0
C2276 C 0.6639 0.84531 0.29895 0.0
H2277 H 0.71814 0.95282 0.29015 0.0
H2278 H 0.70287 0.92136 0.31327 0.0
H2279 H 0.69514 0.85336 0.28161 0.0
H2280 H 0.58889 0.80959 0.27654 0.0
H2281 H 0.62676 0.8263 0.27775 0.0
H2282 H 0.6304 0.88408 0.32686 0.0
C2283 C 0.70334 0.91959 0.29484 0.0
C2284 C 0.68146 0.86 0.29217 0.0
C2285 C 0.71203 0.93754 0.28164 0.0
C2286 C 0.59411 0.81851 0.29191 0.0
C2287 C 0.61601 0.82788 0.29273 0.0
C2288 C 0.64489 0.87683 0.31791 0.0
C2289 C 0.69415 0.90008 0.28423 0.0
C2290 C 0.68024 0.88345 0.29722 0.0
C2291 C 0.62327 0.84044 0.31191 0.0
C2292 C 0.64476 0.85389 0.31069 0.0
H2293 H 0.70272 0.91484 0.22869 0.0
H2294 H 0.68774 0.8836 0.25161 0.0
H2295 H 0.66106 0.90948 0.31531 0.0
H2296 H 0.57529 0.83549 0.34443 0.0
H2297 H 0.61367 0.85177 0.34586 0.0
C2298 C 0.69627 0.05519 0.73263 0.0
C2299 C 0.69111 0.03197 0.72987 0.0
C2300 C 0.68085 0.07184 0.72524 0.0
C2301 C 0.61868 0.07599 0.71734 0.0
H2302 H 0.63253 0.13955 0.70441 0.0
C2303 C 0.54907 0.14428 0.70505 0.0
C2304 C 0.55154 0.16416 0.71833 0.0
C2305 C 0.56684 0.12851 0.70346 0.0
C2306 C 0.62851 0.12183 0.70806 0.0
H2307 H 0.6672 0.00761 0.71573 0.0
H2308 H 0.64079 0.03666 0.70138 0.0
H2309 H 0.66314 0.11104 0.70311 0.0
H2310 H 0.57463 0.18321 0.74025 0.0
H2311 H 0.60596 0.15548 0.73729 0.0
H2312 H 0.58409 0.0868 0.72218 0.0
C2313 C 0.65628 0.04216 0.70992 0.0
C2314 C 0.64597 0.10551 0.7073 0.0
C2315 C 0.67151 0.02552 0.71775 0.0
C2316 C 0.5722 0.16796 0.73003 0.0
C2317 C 0.59016 0.15226 0.72815 0.0
C2318 C 0.60125 0.09221 0.71775 0.0
C2319 C 0.66011 0.06545 0.71481 0.0
C2320 C 0.64133 0.08242 0.71231 0.0
C2321 C 0.58756 0.1324 0.71489 0.0
C2322 C 0.60606 0.1153 0.71347 0.0
H2323 H 0.71116 0.0604 0.74238 0.0
H2324 H 0.68437 0.08951 0.7295 0.0
H2325 H 0.61445 0.05856 0.72192 0.0
H2326 H 0.53334 0.14083 0.69586 0.0
H2327 H 0.56446 0.11333 0.6931 0.0
C2328 C 0.84183 0.73419 0.56012 0.0
C2329 C 0.82177 0.74503 0.55247 0.0
C2330 C 0.84923 0.73696 0.58251 0.0
C2331 C 0.84546 0.73212 0.63467 0.0
H2332 H 0.87615 0.78719 0.65503 0.0
C2333 C 0.91138 0.76863 0.70839 0.0
C2334 C 0.92706 0.75042 0.70757 0.0
C2335 C 0.89161 0.76816 0.69509 0.0
C2336 C 0.86704 0.77185 0.65005 0.0
H2337 H 0.79452 0.76841 0.56202 0.0
H2338 H 0.80817 0.77374 0.60141 0.0
H2339 H 0.85412 0.78778 0.61964 0.0
H2340 H 0.93351 0.71667 0.69377 0.0
H2341 H 0.89941 0.71606 0.66995 0.0
H2342 H 0.859 0.71581 0.66445 0.0
C2343 C 0.81768 0.7628 0.58989 0.0
C2344 C 0.85451 0.77226 0.62975 0.0
C2345 C 0.81004 0.75984 0.5674 0.0
C2346 C 0.92173 0.73094 0.69468 0.0
C2347 C 0.90207 0.73058 0.68113 0.0
C2348 C 0.85773 0.73175 0.65509 0.0
C2349 C 0.83692 0.75079 0.59765 0.0
C2350 C 0.84456 0.75213 0.62149 0.0
C2351 C 0.88728 0.74959 0.68051 0.0
C2352 C 0.86962 0.75131 0.66241 0.0
H2353 H 0.85145 0.72287 0.54906 0.0
H2354 H 0.86442 0.72794 0.58816 0.0
H2355 H 0.83776 0.71644 0.62848 0.0
H2356 H 0.91488 0.7837 0.71859 0.0
H2357 H 0.88029 0.78282 0.69539 0.0
C2358 C 0.74246 0.33314 0.05132 0.0
C2359 C 0.73267 0.31126 0.05093 0.0
C2360 C 0.73977 0.34718 0.07032 0.0
C2361 C 0.70628 0.35493 0.12347 0.0
H2362 H 0.75825 0.39307 0.13913 0.0
C2363 C 0.69857 0.43161 0.18394 0.0
C2364 C 0.7176 0.4384 0.19693 0.0
C2365 C 0.70031 0.41355 0.16853 0.0
C2366 C 0.74371 0.38224 0.13536 0.0
H2367 H 0.71198 0.28695 0.06973 0.0
H2368 H 0.70784 0.31124 0.10343 0.0
H2369 H 0.76123 0.36648 0.10758 0.0
H2370 H 0.753 0.43085 0.20499 0.0
H2371 H 0.75585 0.39867 0.17864 0.0
H2372 H 0.68906 0.37016 0.15184 0.0
C2373 C 0.71717 0.31779 0.08885 0.0
C2374 C 0.74526 0.36728 0.11691 0.0
C2375 C 0.71953 0.30387 0.06959 0.0
C2376 C 0.73816 0.42618 0.19492 0.0
C2377 C 0.73979 0.40781 0.17977 0.0
C2378 C 0.70485 0.36966 0.14219 0.0
C2379 C 0.72764 0.33945 0.08957 0.0
C2380 C 0.72638 0.35391 0.11036 0.0
C2381 C 0.72101 0.40159 0.16603 0.0
C2382 C 0.72336 0.3839 0.14801 0.0
H2383 H 0.75246 0.33931 0.037 0.0
H2384 H 0.74743 0.36404 0.06998 0.0
H2385 H 0.6914 0.34489 0.1189 0.0
H2386 H 0.68251 0.44079 0.18505 0.0
H2387 H 0.68561 0.40958 0.15797 0.0
C2388 C 0.051 0.28365 0.69968 0.0
C2389 C 0.03096 0.27519 0.68953 0.0
C2390 C 0.0683 0.29281 0.68601 0.0
C2391 C 0.0833 0.3131 0.62859 0.0
H2392 H 0.13327 0.26959 0.6318 0.0
C2393 C 0.13782 0.29313 0.5503 0.0
C2394 C 0.16109 0.28812 0.5532 0.0
C2395 C 0.12362 0.29553 0.56927 0.0
C2396 C 0.11985 0.28231 0.6309 0.0
H2397 H 0.01204 0.27144 0.65794 0.0
H2398 H 0.04192 0.28815 0.63411 0.0
H2399 H 0.10529 0.27101 0.66245 0.0
H2400 H 0.18786 0.28163 0.57806 0.0
H2401 H 0.16324 0.28637 0.6112 0.0
H2402 H 0.09753 0.3242 0.59687 0.0
C2403 C 0.04443 0.28757 0.65246 0.0
C2404 C 0.10386 0.28315 0.64852 0.0
C2405 C 0.02745 0.2779 0.666 0.0
C2406 C 0.16986 0.28508 0.57534 0.0
C2407 C 0.15575 0.2879 0.59434 0.0
C2408 C 0.09951 0.31257 0.61114 0.0
C2409 C 0.06536 0.29411 0.66222 0.0
C2410 C 0.08502 0.29792 0.64704 0.0
C2411 C 0.13252 0.29343 0.59153 0.0
C2412 C 0.11741 0.29647 0.61163 0.0
H2413 H 0.054 0.28151 0.71784 0.0
H2414 H 0.08441 0.29767 0.69378 0.0
H2415 H 0.06885 0.32462 0.62719 0.0
H2416 H 0.13067 0.29554 0.53338 0.0
H2417 H 0.10567 0.29909 0.56643 0.0
C2418 C 0.31126 0.5615 0.14968 0.0
C2419 C 0.30213 0.56285 0.1718 0.0
C2420 C 0.31011 0.58026 0.13502 0.0
C2421 C 0.27956 0.63498 0.12635 0.0
H2422 H 0.32674 0.64319 0.08047 0.0
C2423 C 0.27593 0.66678 0.03245 0.0
C2424 C 0.26652 0.6887 0.03471 0.0
C2425 C 0.28691 0.65653 0.05092 0.0
C2426 C 0.3137 0.64133 0.09348 0.0
H2427 H 0.28489 0.58485 0.19613 0.0
H2428 H 0.28348 0.61788 0.17082 0.0
H2429 H 0.33197 0.61469 0.11054 0.0
H2430 H 0.26213 0.71778 0.05719 0.0
H2431 H 0.28065 0.69931 0.09008 0.0
H2432 H 0.26126 0.66149 0.10901 0.0
C2433 C 0.29097 0.60218 0.16448 0.0
C2434 C 0.31647 0.62482 0.11049 0.0
C2435 C 0.29171 0.58324 0.17899 0.0
C2436 C 0.26953 0.70091 0.05513 0.0
C2437 C 0.28 0.69039 0.07386 0.0
C2438 C 0.27702 0.65177 0.10962 0.0
C2439 C 0.30026 0.60095 0.14234 0.0
C2440 C 0.29899 0.62081 0.12655 0.0
C2441 C 0.28807 0.66784 0.07204 0.0
C2442 C 0.29368 0.65448 0.0926 0.0
H2443 H 0.31933 0.54593 0.14371 0.0
H2444 H 0.31684 0.57841 0.11789 0.0
H2445 H 0.26563 0.63229 0.13823 0.0
H2446 H 0.27366 0.65712 0.01681 0.0
H2447 H 0.29278 0.63903 0.04923 0.0
C2448 C 0.83046 0.21051 0.45385 0.0
C2449 C 0.83605 0.23076 0.46554 0.0
C2450 C 0.84449 0.20255 0.43624 0.0
C2451 C 0.90037 0.21275 0.40716 0.0
H2452 H 0.86533 0.20142 0.35189 0.0
C2453 C 0.93628 0.23169 0.31907 0.0
C2454 C 0.93917 0.21208 0.30553 0.0
C2455 C 0.92208 0.23101 0.33817 0.0
C2456 C 0.87525 0.20436 0.36727 0.0
H2457 H 0.86191 0.25706 0.46974 0.0
H2458 H 0.88599 0.24355 0.43905 0.0
H2459 H 0.84581 0.20268 0.38883 0.0
H2460 H 0.92769 0.17722 0.29985 0.0
H2461 H 0.90222 0.1764 0.33304 0.0
H2462 H 0.92953 0.21582 0.38529 0.0
C2463 C 0.87092 0.23367 0.44331 0.0
C2464 C 0.8642 0.20484 0.38843 0.0
C2465 C 0.85697 0.24157 0.46086 0.0
C2466 C 0.92588 0.19253 0.31011 0.0
C2467 C 0.91136 0.19202 0.32904 0.0
C2468 C 0.91128 0.21265 0.38602 0.0
C2469 C 0.86433 0.21468 0.43013 0.0
C2470 C 0.87657 0.20968 0.40853 0.0
C2471 C 0.91023 0.2109 0.34371 0.0
C2472 C 0.89869 0.20905 0.36593 0.0
H2473 H 0.81452 0.20168 0.45717 0.0
H2474 H 0.83923 0.18758 0.42668 0.0
H2475 H 0.91045 0.21604 0.42235 0.0
H2476 H 0.9463 0.24697 0.316 0.0
H2477 H 0.92116 0.24584 0.34924 0.0
C2478 C 0.20035 0.33122 0.92518 0.0
C2479 C 0.21942 0.32252 0.93698 0.0
C2480 C 0.2033 0.34507 0.90602 0.0
C2481 C 0.24724 0.36791 0.86589 0.0
H2482 H 0.21154 0.4237 0.87071 0.0
C2483 C 0.28136 0.45414 0.838 0.0
C2484 C 0.26855 0.46623 0.82161 0.0
C2485 C 0.27199 0.43535 0.84912 0.0
C2486 C 0.22132 0.40806 0.86892 0.0
H2487 H 0.25641 0.32007 0.93705 0.0
H2488 H 0.26166 0.34477 0.9041 0.0
H2489 H 0.20134 0.3906 0.89395 0.0
H2490 H 0.23522 0.46902 0.80536 0.0
H2491 H 0.21863 0.43629 0.82562 0.0
H2492 H 0.26816 0.38613 0.84203 0.0
C2493 C 0.24438 0.34063 0.90931 0.0
C2494 C 0.21546 0.38904 0.88209 0.0
C2495 C 0.24141 0.32655 0.92831 0.0
C2496 C 0.24557 0.46004 0.81783 0.0
C2497 C 0.23609 0.44131 0.82928 0.0
C2498 C 0.25325 0.38701 0.85299 0.0
C2499 C 0.22538 0.3507 0.89844 0.0
C2500 C 0.22885 0.36902 0.88129 0.0
C2501 C 0.24955 0.42843 0.84438 0.0
C2502 C 0.24077 0.4074 0.855 0.0
H2503 H 0.18314 0.32801 0.93126 0.0
H2504 H 0.18832 0.35212 0.8977 0.0
H2505 H 0.25756 0.3526 0.86449 0.0
H2506 H 0.29903 0.45846 0.84152 0.0
H2507 H 0.28248 0.42587 0.86112 0.0
C2508 C 0.16801 0.74995 0.4297 0.0
C2509 C 0.16585 0.73641 0.44937 0.0
C2510 C 0.15352 0.74635 0.41108 0.0
C2511 C 0.09848 0.72208 0.39401 0.0
H2512 H 0.12678 0.71951 0.33411 0.0
C2513 C 0.04376 0.71663 0.31317 0.0
C2514 C 0.0486 0.73528 0.2989 0.0
C2515 C 0.05945 0.7102 0.33004 0.0
C2516 C 0.1187 0.71996 0.35076 0.0
H2517 H 0.14601 0.70956 0.46566 0.0
H2518 H 0.12062 0.70352 0.43323 0.0
H2519 H 0.15071 0.72386 0.36806 0.0
H2520 H 0.07408 0.76042 0.28927 0.0
H2521 H 0.10137 0.74922 0.3184 0.0
H2522 H 0.06641 0.71922 0.37668 0.0
C2523 C 0.1336 0.71669 0.43211 0.0
C2524 C 0.13233 0.72266 0.37011 0.0
C2525 C 0.14816 0.72015 0.45061 0.0
C2526 C 0.06993 0.74613 0.30033 0.0
C2527 C 0.08564 0.73954 0.31685 0.0
C2528 C 0.08482 0.71947 0.37464 0.0
C2529 C 0.13655 0.72933 0.41198 0.0
C2530 C 0.12226 0.72446 0.3918 0.0
C2531 C 0.08022 0.72212 0.33243 0.0
C2532 C 0.09478 0.71916 0.3528 0.0
H2533 H 0.18154 0.76254 0.42827 0.0
H2534 H 0.15581 0.75661 0.39583 0.0
H2535 H 0.09034 0.72339 0.41059 0.0
H2536 H 0.02736 0.70804 0.31225 0.0
H2537 H 0.05498 0.69663 0.34183 0.0
C2538 C 0.76861 0.55893 0.80081 0.0
C2539 C 0.74667 0.55694 0.79127 0.0
C2540 C 0.7742 0.57811 0.81405 0.0
C2541 C 0.75021 0.63412 0.83485 0.0
H2542 H 0.77297 0.61259 0.89319 0.0
C2543 C 0.73655 0.68481 0.91883 0.0
C2544 C 0.73232 0.6716 0.93842 0.0
C2545 C 0.74334 0.67433 0.89849 0.0
C2546 C 0.76642 0.61885 0.87703 0.0
H2547 H 0.71444 0.57443 0.78559 0.0
H2548 H 0.72373 0.6071 0.80881 0.0
H2549 H 0.77819 0.5892 0.85945 0.0
H2550 H 0.73068 0.63723 0.95202 0.0
H2551 H 0.74082 0.61873 0.91619 0.0
H2552 H 0.73637 0.66265 0.85288 0.0
C2553 C 0.73685 0.59429 0.80629 0.0
C2554 C 0.76992 0.60565 0.85751 0.0
C2555 C 0.73133 0.57528 0.7932 0.0
C2556 C 0.73378 0.64774 0.93708 0.0
C2557 C 0.74006 0.63723 0.91666 0.0
C2558 C 0.74627 0.64709 0.85447 0.0
C2559 C 0.75793 0.5955 0.81777 0.0
C2560 C 0.76074 0.61253 0.8364 0.0
C2561 C 0.74562 0.65041 0.8973 0.0
C2562 C 0.75332 0.639 0.87597 0.0
H2563 H 0.78084 0.5451 0.79932 0.0
H2564 H 0.79076 0.57872 0.82234 0.0
H2565 H 0.74353 0.64026 0.8187 0.0
H2566 H 0.73605 0.70332 0.91962 0.0
H2567 H 0.74759 0.68504 0.88401 0.0
C2568 C 0.57954 0.81029 0.69769 0.0
C2569 C 0.56337 0.80866 0.71534 0.0
C2570 C 0.60169 0.81767 0.7023 0.0
C2571 C 0.64169 0.83417 0.74931 0.0
H2572 H 0.65888 0.88146 0.70613 0.0
C2573 C 0.68402 0.91793 0.77378 0.0
C2574 C 0.69911 0.92879 0.75857 0.0
C2575 C 0.67434 0.89692 0.76822 0.0
C2576 C 0.65481 0.86791 0.71808 0.0
H2577 H 0.55781 0.81205 0.75175 0.0
H2578 H 0.59624 0.82631 0.75976 0.0
H2579 H 0.62815 0.85551 0.69667 0.0
H2580 H 0.71709 0.92546 0.72631 0.0
H2581 H 0.6997 0.88874 0.71637 0.0
H2582 H 0.66744 0.84803 0.77141 0.0
C2583 C 0.59209 0.82127 0.74244 0.0
C2584 C 0.63711 0.85295 0.71267 0.0
C2585 C 0.57 0.81338 0.73787 0.0
C2586 C 0.70532 0.91761 0.73824 0.0
C2587 C 0.69544 0.8966 0.73259 0.0
C2588 C 0.65933 0.84931 0.7548 0.0
C2589 C 0.60798 0.82411 0.72456 0.0
C2590 C 0.62973 0.8365 0.72858 0.0
C2591 C 0.67944 0.88638 0.74729 0.0
C2592 C 0.66536 0.86689 0.73959 0.0
H2593 H 0.57496 0.80612 0.68022 0.0
H2594 H 0.61367 0.81908 0.68825 0.0
H2595 H 0.63674 0.82134 0.76171 0.0
H2596 H 0.67921 0.92592 0.78978 0.0
H2597 H 0.66184 0.8896 0.77976 0.0
C2598 C 0.54528 0.14481 0.28131 0.0
C2599 C 0.54862 0.16851 0.27944 0.0
C2600 C 0.56302 0.12977 0.27629 0.0
C2601 C 0.62482 0.12657 0.2774 0.0
H2602 H 0.61526 0.07017 0.24392 0.0
C2603 C 0.69577 0.06074 0.25454 0.0
C2604 C 0.68896 0.03773 0.25421 0.0
C2605 C 0.67978 0.07782 0.25943 0.0
C2606 C 0.6181 0.08572 0.25358 0.0
H2607 H 0.57278 0.19507 0.26994 0.0
H2608 H 0.60391 0.16859 0.26122 0.0
H2609 H 0.58466 0.09829 0.24583 0.0
H2610 H 0.66126 0.01412 0.26111 0.0
H2611 H 0.63362 0.04379 0.27048 0.0
H2612 H 0.65821 0.11374 0.28545 0.0
C2613 C 0.58756 0.16179 0.26667 0.0
C2614 C 0.60065 0.10184 0.2545 0.0
C2615 C 0.5697 0.17687 0.27145 0.0
C2616 C 0.66674 0.03183 0.26099 0.0
C2617 C 0.65092 0.04879 0.26614 0.0
C2618 C 0.64231 0.11034 0.27656 0.0
C2619 C 0.58446 0.13817 0.26949 0.0
C2620 C 0.60374 0.12224 0.26666 0.0
C2621 C 0.65696 0.07195 0.26423 0.0
C2622 C 0.63893 0.0896 0.26496 0.0
H2623 H 0.5292 0.1379 0.28736 0.0
H2624 H 0.56027 0.11161 0.2787 0.0
H2625 H 0.62747 0.14213 0.28709 0.0
H2626 H 0.71283 0.06563 0.24924 0.0
H2627 H 0.68488 0.09556 0.2579 0.0
C2628 C 0.30711 0.06003 0.7571 0.0
C2629 C 0.30535 0.04598 0.7765 0.0
C2630 C 0.32345 0.07739 0.75626 0.0
C2631 C 0.37865 0.0942 0.78043 0.0
H2632 H 0.36379 0.15289 0.75335 0.0
C2633 C 0.4464 0.1648 0.76606 0.0
C2634 C 0.44661 0.17279 0.7434 0.0
C2635 C 0.42805 0.15167 0.77398 0.0
C2636 C 0.36812 0.1366 0.76105 0.0
H2637 H 0.31939 0.03926 0.81029 0.0
H2638 H 0.34779 0.06954 0.80871 0.0
H2639 H 0.33355 0.12476 0.75941 0.0
H2640 H 0.4274 0.17411 0.7116 0.0
H2641 H 0.39572 0.15129 0.72535 0.0
H2642 H 0.41335 0.1058 0.78138 0.0
C2643 C 0.33663 0.067 0.79414 0.0
C2644 C 0.35089 0.12051 0.76441 0.0
C2645 C 0.3203 0.04968 0.79501 0.0
C2646 C 0.4279 0.16802 0.72909 0.0
C2647 C 0.40958 0.15517 0.73703 0.0
C2648 C 0.39591 0.11032 0.77707 0.0
C2649 C 0.33835 0.08101 0.77478 0.0
C2650 C 0.3561 0.09894 0.77354 0.0
C2651 C 0.40956 0.14668 0.75945 0.0
C2652 C 0.39088 0.13139 0.76675 0.0
H2653 H 0.29587 0.05766 0.74256 0.0
H2654 H 0.32467 0.08775 0.74096 0.0
H2655 H 0.38316 0.07764 0.78739 0.0
H2656 H 0.46057 0.16829 0.77748 0.0
H2657 H 0.42835 0.1453 0.79137 0.0
C2658 C 0.4728 0.86779 0.2767 0.0
C2659 C 0.48189 0.84842 0.2658 0.0
C2660 C 0.45655 0.88129 0.26575 0.0
C2661 C 0.4118 0.87527 0.22244 0.0
H2662 H 0.40232 0.93939 0.23643 0.0
C2663 C 0.33731 0.9341 0.19053 0.0
C2664 C 0.32656 0.94652 0.2081 0.0
C2665 C 0.35639 0.92056 0.19527 0.0
C2666 C 0.40482 0.92147 0.23244 0.0
H2667 H 0.48267 0.82932 0.23397 0.0
H2668 H 0.45457 0.85332 0.21461 0.0
H2669 H 0.43859 0.92135 0.24636 0.0
H2670 H 0.32634 0.95323 0.2446 0.0
H2671 H 0.35989 0.92981 0.25273 0.0
H2672 H 0.37789 0.87569 0.20834 0.0
C2673 C 0.4596 0.85763 0.23191 0.0
C2674 C 0.42553 0.91115 0.23808 0.0
C2675 C 0.47585 0.84401 0.24294 0.0
C2676 C 0.33423 0.94387 0.23071 0.0
C2677 C 0.3535 0.93065 0.23535 0.0
C2678 C 0.39118 0.88574 0.21646 0.0
C2679 C 0.44916 0.87588 0.24354 0.0
C2680 C 0.42899 0.88776 0.23381 0.0
C2681 C 0.36513 0.91956 0.21756 0.0
C2682 C 0.38736 0.90871 0.22206 0.0
H2683 H 0.4772 0.87183 0.29424 0.0
H2684 H 0.44877 0.89508 0.27532 0.0
H2685 H 0.41379 0.85715 0.21916 0.0
H2686 H 0.33164 0.93572 0.17296 0.0
H2687 H 0.36512 0.91202 0.18135 0.0
loop_
_geom_bond_atom_site_label_1
_geom_bond_atom_site_label_2
_geom_bond_distance
_geom_bond_site_symmetry_2
_ccdc_geom_bond_type
Sc0 O3 2.025 . S
Sc0 O10 2.105 1_455 S
Sc0 O13 2.105 . S
Sc0 O16 2.105 . S
Sc0 O19 2.105 1_455 S
Sc1 O3 2.025 . S
Sc1 O11 2.105 1_455 S
Sc1 O15 2.105 . S
Sc1 O17 2.105 . S
Sc1 O21 2.105 1_455 S
Sc2 O3 2.025 . S
Sc2 O12 2.105 1_455 S
Sc2 O14 2.105 . S
Sc2 O18 2.105 . S
Sc2 O20 2.105 1_455 S
O3 Sc0 2.025 . S
O3 Sc1 2.025 . S
O3 Sc2 2.025 . S
C4 O10 1.268 . S
C4 O20 1.268 . S
C5 O11 1.268 . S
C5 O19 1.268 . S
C6 O12 1.268 . S
C6 O21 1.268 . S
C7 O13 1.268 . S
C7 O17 1.268 . S
C8 O14 1.268 . S
C8 O16 1.268 . S
C9 O15 1.268 . S
C9 O18 1.268 . S
O10 Sc0 2.105 1_655 S
O10 C4 1.268 . S
O11 Sc1 2.105 1_655 S
O11 C5 1.268 . S
O12 Sc2 2.105 1_655 S
O12 C6 1.268 . S
O13 Sc0 2.105 . S
O13 C7 1.268 . S
O14 Sc2 2.105 . S
O14 C8 1.268 . S
O15 Sc1 2.105 . S
O15 C9 1.268 . S
O16 Sc0 2.105 . S
O16 C8 1.268 . S
O17 Sc1 2.105 . S
O17 C7 1.268 . S
O18 Sc2 2.105 . S
O18 C9 1.268 . S
O19 Sc0 2.105 1_655 S
O19 C5 1.268 . S
O20 Sc2 2.105 1_655 S
O20 C4 1.268 . S
O21 Sc1 2.105 1_655 S
O21 C6 1.268 . S
Sc22 O25 2.025 . S
Sc22 O32 2.105 . S
Sc22 O35 2.105 . S
Sc22 O38 2.105 . S
Sc22 O41 2.105 . S
Sc23 O25 2.025 . S
Sc23 O33 2.105 . S
Sc23 O37 2.105 . S
Sc23 O39 2.105 . S
Sc23 O43 2.105 . S
Sc24 O25 2.025 . S
Sc24 O34 2.105 . S
Sc24 O36 2.105 . S
Sc24 O40 2.105 . S
Sc24 O42 2.105 . S
O25 Sc22 2.025 . S
O25 Sc23 2.025 . S
O25 Sc24 2.025 . S
C26 O32 1.268 . S
C26 O42 1.268 . S
C27 O33 1.268 . S
C27 O41 1.268 . S
C28 O34 1.268 . S
C28 O43 1.268 . S
C29 O35 1.268 . S
C29 O39 1.268 . S
C30 O36 1.268 . S
C30 O38 1.268 . S
C31 O37 1.268 . S
C31 O40 1.268 . S
O32 Sc22 2.105 . S
O32 C26 1.268 . S
O33 Sc23 2.105 . S
O33 C27 1.268 . S
O34 Sc24 2.105 . S
O34 C28 1.268 . S
O35 Sc22 2.105 . S
O35 C29 1.268 . S
O36 Sc24 2.105 . S
O36 C30 1.268 . S
O37 Sc23 2.105 . S
O37 C31 1.268 . S
O38 Sc22 2.105 . S
O38 C30 1.268 . S
O39 Sc23 2.105 . S
O39 C29 1.268 . S
O40 Sc24 2.105 . S
O40 C31 1.268 . S
O41 Sc22 2.105 . S
O41 C27 1.268 . S
O42 Sc24 2.105 . S
O42 C26 1.268 . S
O43 Sc23 2.105 . S
O43 C28 1.268 . S
Sc44 O47 2.025 . S
Sc44 O54 2.105 . S
Sc44 O57 2.105 1_455 S
Sc44 O60 2.105 1_455 S
Sc44 O63 2.105 . S
Sc45 O47 2.025 . S
Sc45 O55 2.105 . S
Sc45 O59 2.105 1_455 S
Sc45 O61 2.105 1_455 S
Sc45 O65 2.105 . S
Sc46 O47 2.025 . S
Sc46 O56 2.105 . S
Sc46 O58 2.105 1_455 S
Sc46 O62 2.105 1_455 S
Sc46 O64 2.105 . S
O47 Sc44 2.025 . S
O47 Sc45 2.025 . S
O47 Sc46 2.025 . S
C48 O54 1.268 . S
C48 O64 1.268 . S
C49 O55 1.268 . S
C49 O63 1.268 . S
C50 O56 1.268 . S
C50 O65 1.268 . S
C51 O57 1.268 . S
C51 O61 1.268 . S
C52 O58 1.268 . S
C52 O60 1.268 . S
C53 O59 1.268 . S
C53 O62 1.268 . S
O54 Sc44 2.105 . S
O54 C48 1.268 . S
O55 Sc45 2.105 . S
O55 C49 1.268 . S
O56 Sc46 2.105 . S
O56 C50 1.268 . S
O57 Sc44 2.105 1_655 S
O57 C51 1.268 . S
O58 Sc46 2.105 1_655 S
O58 C52 1.268 . S
O59 Sc45 2.105 1_655 S
O59 C53 1.268 . S
O60 Sc44 2.105 1_655 S
O60 C52 1.268 . S
O61 Sc45 2.105 1_655 S
O61 C51 1.268 . S
O62 Sc46 2.105 1_655 S
O62 C53 1.268 . S
O63 Sc44 2.105 . S
O63 C49 1.268 . S
O64 Sc46 2.105 . S
O64 C48 1.268 . S
O65 Sc45 2.105 . S
O65 C50 1.268 . S
Sc66 O69 2.025 . S
Sc66 O76 2.105 . S
Sc66 O79 2.105 . S
Sc66 O82 2.105 . S
Sc66 O85 2.105 . S
Sc67 O69 2.025 . S
Sc67 O77 2.105 . S
Sc67 O81 2.105 . S
Sc67 O83 2.105 . S
Sc67 O87 2.105 . S
Sc68 O69 2.025 . S
Sc68 O78 2.105 . S
Sc68 O80 2.105 . S
Sc68 O84 2.105 . S
Sc68 O86 2.105 . S
O69 Sc66 2.025 . S
O69 Sc67 2.025 . S
O69 Sc68 2.025 . S
C70 O76 1.268 . S
C70 O86 1.268 . S
C71 O77 1.268 . S
C71 O85 1.268 . S
C72 O78 1.268 . S
C72 O87 1.268 . S
C73 O79 1.268 . S
C73 O83 1.268 . S
C74 O80 1.268 . S
C74 O82 1.268 . S
C75 O81 1.268 . S
C75 O84 1.268 . S
O76 Sc66 2.105 . S
O76 C70 1.268 . S
O77 Sc67 2.105 . S
O77 C71 1.268 . S
O78 Sc68 2.105 . S
O78 C72 1.268 . S
O79 Sc66 2.105 . S
O79 C73 1.268 . S
O80 Sc68 2.105 . S
O80 C74 1.268 . S
O81 Sc67 2.105 . S
O81 C75 1.268 . S
O82 Sc66 2.105 . S
O82 C74 1.268 . S
O83 Sc67 2.105 . S
O83 C73 1.268 . S
O84 Sc68 2.105 . S
O84 C75 1.268 . S
O85 Sc66 2.105 . S
O85 C71 1.268 . S
O86 Sc68 2.105 . S
O86 C70 1.268 . S
O87 Sc67 2.105 . S
O87 C72 1.268 . S
Sc88 O91 2.025 . S
Sc88 O98 2.105 . S
Sc88 O101 2.105 1_455 S
Sc88 O104 2.105 1_455 S
Sc88 O107 2.105 . S
Sc89 O91 2.025 . S
Sc89 O99 2.105 . S
Sc89 O103 2.105 1_455 S
Sc89 O105 2.105 1_455 S
Sc89 O109 2.105 . S
Sc90 O91 2.025 . S
Sc90 O100 2.105 . S
Sc90 O102 2.105 1_455 S
Sc90 O106 2.105 1_455 S
Sc90 O108 2.105 . S
O91 Sc88 2.025 . S
O91 Sc89 2.025 . S
O91 Sc90 2.025 . S
C92 O98 1.268 . S
C92 O108 1.268 . S
C93 O99 1.268 . S
C93 O107 1.268 . S
C94 O100 1.268 . S
C94 O109 1.268 . S
C95 O101 1.268 . S
C95 O105 1.268 . S
C96 O102 1.268 . S
C96 O104 1.268 . S
C97 O103 1.268 . S
C97 O106 1.268 . S
O98 Sc88 2.105 . S
O98 C92 1.268 . S
O99 Sc89 2.105 . S
O99 C93 1.268 . S
O100 Sc90 2.105 . S
O100 C94 1.268 . S
O101 Sc88 2.105 1_655 S
O101 C95 1.268 . S
O102 Sc90 2.105 1_655 S
O102 C96 1.268 . S
O103 Sc89 2.105 1_655 S
O103 C97 1.268 . S
O104 Sc88 2.105 1_655 S
O104 C96 1.268 . S
O105 Sc89 2.105 1_655 S
O105 C95 1.268 . S
O106 Sc90 2.105 1_655 S
O106 C97 1.268 . S
O107 Sc88 2.105 . S
O107 C93 1.268 . S
O108 Sc90 2.105 . S
O108 C92 1.268 . S
O109 Sc89 2.105 . S
O109 C94 1.268 . S
Sc110 O113 2.025 . S
Sc110 O120 2.105 . S
Sc110 O123 2.105 . S
Sc110 O126 2.105 . S
Sc110 O129 2.105 . S
Sc111 O113 2.025 . S
Sc111 O121 2.105 . S
Sc111 O125 2.105 . S
Sc111 O127 2.105 . S
Sc111 O131 2.105 . S
Sc112 O113 2.025 . S
Sc112 O122 2.105 . S
Sc112 O124 2.105 . S
Sc112 O128 2.105 . S
Sc112 O130 2.105 . S
O113 Sc110 2.025 . S
O113 Sc111 2.025 . S
O113 Sc112 2.025 . S
C114 O120 1.268 . S
C114 O130 1.268 . S
C115 O121 1.268 . S
C115 O129 1.268 . S
C116 O122 1.268 . S
C116 O131 1.268 . S
C117 O123 1.268 . S
C117 O127 1.268 . S
C118 O124 1.268 . S
C118 O126 1.268 . S
C119 O125 1.268 . S
C119 O128 1.268 . S
O120 Sc110 2.105 . S
O120 C114 1.268 . S
O121 Sc111 2.105 . S
O121 C115 1.268 . S
O122 Sc112 2.105 . S
O122 C116 1.268 . S
O123 Sc110 2.105 . S
O123 C117 1.268 . S
O124 Sc112 2.105 . S
O124 C118 1.268 . S
O125 Sc111 2.105 . S
O125 C119 1.268 . S
O126 Sc110 2.105 . S
O126 C118 1.268 . S
O127 Sc111 2.105 . S
O127 C117 1.268 . S
O128 Sc112 2.105 . S
O128 C119 1.268 . S
O129 Sc110 2.105 . S
O129 C115 1.268 . S
O130 Sc112 2.105 . S
O130 C114 1.268 . S
O131 Sc111 2.105 . S
O131 C116 1.268 . S
Sc132 O135 2.025 . S
Sc132 O142 2.105 1_455 S
Sc132 O145 2.105 . S
Sc132 O148 2.105 . S
Sc132 O151 2.105 1_455 S
Sc133 O135 2.025 . S
Sc133 O143 2.105 1_455 S
Sc133 O147 2.105 . S
Sc133 O149 2.105 . S
Sc133 O153 2.105 1_455 S
Sc134 O135 2.025 . S
Sc134 O144 2.105 1_455 S
Sc134 O146 2.105 . S
Sc134 O150 2.105 . S
Sc134 O152 2.105 1_455 S
O135 Sc132 2.025 . S
O135 Sc133 2.025 . S
O135 Sc134 2.025 . S
C136 O142 1.268 . S
C136 O152 1.268 . S
C137 O143 1.268 . S
C137 O151 1.268 . S
C138 O144 1.268 . S
C138 O153 1.268 . S
C139 O145 1.268 . S
C139 O149 1.268 . S
C140 O146 1.268 . S
C140 O148 1.268 . S
C141 O147 1.268 . S
C141 O150 1.268 . S
O142 Sc132 2.105 1_655 S
O142 C136 1.268 . S
O143 Sc133 2.105 1_655 S
O143 C137 1.268 . S
O144 Sc134 2.105 1_655 S
O144 C138 1.268 . S
O145 Sc132 2.105 . S
O145 C139 1.268 . S
O146 Sc134 2.105 . S
O146 C140 1.268 . S
O147 Sc133 2.105 . S
O147 C141 1.268 . S
O148 Sc132 2.105 . S
O148 C140 1.268 . S
O149 Sc133 2.105 . S
O149 C139 1.268 . S
O150 Sc134 2.105 . S
O150 C141 1.268 . S
O151 Sc132 2.105 1_655 S
O151 C137 1.268 . S
O152 Sc134 2.105 1_655 S
O152 C136 1.268 . S
O153 Sc133 2.105 1_655 S
O153 C138 1.268 . S
Sc154 O157 2.025 . S
Sc154 O164 2.105 . S
Sc154 O167 2.105 . S
Sc154 O170 2.105 . S
Sc154 O173 2.105 . S
Sc155 O157 2.025 . S
Sc155 O165 2.105 . S
Sc155 O169 2.105 . S
Sc155 O171 2.105 . S
Sc155 O175 2.105 . S
Sc156 O157 2.025 . S
Sc156 O166 2.105 . S
Sc156 O168 2.105 . S
Sc156 O172 2.105 . S
Sc156 O174 2.105 . S
O157 Sc154 2.025 . S
O157 Sc155 2.025 . S
O157 Sc156 2.025 . S
C158 O164 1.268 . S
C158 O174 1.268 . S
C159 O165 1.268 . S
C159 O173 1.268 . S
C160 O166 1.268 . S
C160 O175 1.268 . S
C161 O167 1.268 . S
C161 O171 1.268 . S
C162 O168 1.268 . S
C162 O170 1.268 . S
C163 O169 1.268 . S
C163 O172 1.268 . S
O164 Sc154 2.105 . S
O164 C158 1.268 . S
O165 Sc155 2.105 . S
O165 C159 1.268 . S
O166 Sc156 2.105 . S
O166 C160 1.268 . S
O167 Sc154 2.105 . S
O167 C161 1.268 . S
O168 Sc156 2.105 . S
O168 C162 1.268 . S
O169 Sc155 2.105 . S
O169 C163 1.268 . S
O170 Sc154 2.105 . S
O170 C162 1.268 . S
O171 Sc155 2.105 . S
O171 C161 1.268 . S
O172 Sc156 2.105 . S
O172 C163 1.268 . S
O173 Sc154 2.105 . S
O173 C159 1.268 . S
O174 Sc156 2.105 . S
O174 C158 1.268 . S
O175 Sc155 2.105 . S
O175 C160 1.268 . S
Sc176 O179 2.025 . S
Sc176 O186 2.105 1_545 S
Sc176 O189 2.105 . S
Sc176 O192 2.105 . S
Sc176 O195 2.105 1_545 S
Sc177 O179 2.025 . S
Sc177 O187 2.105 1_545 S
Sc177 O191 2.105 . S
Sc177 O193 2.105 . S
Sc177 O197 2.105 1_545 S
Sc178 O179 2.025 . S
Sc178 O188 2.105 1_545 S
Sc178 O190 2.105 . S
Sc178 O194 2.105 . S
Sc178 O196 2.105 1_545 S
O179 Sc176 2.025 . S
O179 Sc177 2.025 . S
O179 Sc178 2.025 . S
C180 O186 1.268 . S
C180 O196 1.268 . S
C181 O187 1.268 . S
C181 O195 1.268 . S
C182 O188 1.268 . S
C182 O197 1.268 . S
C183 O189 1.268 . S
C183 O193 1.268 . S
C184 O190 1.268 . S
C184 O192 1.268 . S
C185 O191 1.268 . S
C185 O194 1.268 . S
O186 Sc176 2.105 1_565 S
O186 C180 1.268 . S
O187 Sc177 2.105 1_565 S
O187 C181 1.268 . S
O188 Sc178 2.105 1_565 S
O188 C182 1.268 . S
O189 Sc176 2.105 . S
O189 C183 1.268 . S
O190 Sc178 2.105 . S
O190 C184 1.268 . S
O191 Sc177 2.105 . S
O191 C185 1.268 . S
O192 Sc176 2.105 . S
O192 C184 1.268 . S
O193 Sc177 2.105 . S
O193 C183 1.268 . S
O194 Sc178 2.105 . S
O194 C185 1.268 . S
O195 Sc176 2.105 1_565 S
O195 C181 1.268 . S
O196 Sc178 2.105 1_565 S
O196 C180 1.268 . S
O197 Sc177 2.105 1_565 S
O197 C182 1.268 . S
Sc198 O201 2.025 . S
Sc198 O208 2.105 . S
Sc198 O211 2.105 . S
Sc198 O214 2.105 . S
Sc198 O217 2.105 . S
Sc199 O201 2.025 . S
Sc199 O209 2.105 . S
Sc199 O213 2.105 . S
Sc199 O215 2.105 . S
Sc199 O219 2.105 . S
Sc200 O201 2.025 . S
Sc200 O210 2.105 . S
Sc200 O212 2.105 . S
Sc200 O216 2.105 . S
Sc200 O218 2.105 . S
O201 Sc198 2.025 . S
O201 Sc199 2.025 . S
O201 Sc200 2.025 . S
C202 O208 1.268 . S
C202 O218 1.268 . S
C203 O209 1.268 . S
C203 O217 1.268 . S
C204 O210 1.268 . S
C204 O219 1.268 . S
C205 O211 1.268 . S
C205 O215 1.268 . S
C206 O212 1.268 . S
C206 O214 1.268 . S
C207 O213 1.268 . S
C207 O216 1.268 . S
O208 Sc198 2.105 . S
O208 C202 1.268 . S
O209 Sc199 2.105 . S
O209 C203 1.268 . S
O210 Sc200 2.105 . S
O210 C204 1.268 . S
O211 Sc198 2.105 . S
O211 C205 1.268 . S
O212 Sc200 2.105 . S
O212 C206 1.268 . S
O213 Sc199 2.105 . S
O213 C207 1.268 . S
O214 Sc198 2.105 . S
O214 C206 1.268 . S
O215 Sc199 2.105 . S
O215 C205 1.268 . S
O216 Sc200 2.105 . S
O216 C207 1.268 . S
O217 Sc198 2.105 . S
O217 C203 1.268 . S
O218 Sc200 2.105 . S
O218 C202 1.268 . S
O219 Sc199 2.105 . S
O219 C204 1.268 . S
Sc220 O223 2.025 . S
Sc220 O230 2.105 1_545 S
Sc220 O233 2.105 . S
Sc220 O236 2.105 . S
Sc220 O239 2.105 1_545 S
Sc221 O223 2.025 . S
Sc221 O231 2.105 1_545 S
Sc221 O235 2.105 . S
Sc221 O237 2.105 . S
Sc221 O241 2.105 1_545 S
Sc222 O223 2.025 . S
Sc222 O232 2.105 1_545 S
Sc222 O234 2.105 . S
Sc222 O238 2.105 . S
Sc222 O240 2.105 1_545 S
O223 Sc220 2.025 . S
O223 Sc221 2.025 . S
O223 Sc222 2.025 . S
C224 O230 1.268 . S
C224 O240 1.268 . S
C225 O231 1.268 . S
C225 O239 1.268 . S
C226 O232 1.268 . S
C226 O241 1.268 . S
C227 O233 1.268 . S
C227 O237 1.268 . S
C228 O234 1.268 . S
C228 O236 1.268 . S
C229 O235 1.268 . S
C229 O238 1.268 . S
O230 Sc220 2.105 1_565 S
O230 C224 1.268 . S
O231 Sc221 2.105 1_565 S
O231 C225 1.268 . S
O232 Sc222 2.105 1_565 S
O232 C226 1.268 . S
O233 Sc220 2.105 . S
O233 C227 1.268 . S
O234 Sc222 2.105 . S
O234 C228 1.268 . S
O235 Sc221 2.105 . S
O235 C229 1.268 . S
O236 Sc220 2.105 . S
O236 C228 1.268 . S
O237 Sc221 2.105 . S
O237 C227 1.268 . S
O238 Sc222 2.105 . S
O238 C229 1.268 . S
O239 Sc220 2.105 1_565 S
O239 C225 1.268 . S
O240 Sc222 2.105 1_565 S
O240 C224 1.268 . S
O241 Sc221 2.105 1_565 S
O241 C226 1.268 . S
Sc242 O245 2.025 . S
Sc242 O252 2.105 . S
Sc242 O255 2.105 . S
Sc242 O258 2.105 . S
Sc242 O261 2.105 . S
Sc243 O245 2.025 . S
Sc243 O253 2.105 . S
Sc243 O257 2.105 . S
Sc243 O259 2.105 . S
Sc243 O263 2.105 . S
Sc244 O245 2.025 . S
Sc244 O254 2.105 . S
Sc244 O256 2.105 . S
Sc244 O260 2.105 . S
Sc244 O262 2.105 . S
O245 Sc242 2.025 . S
O245 Sc243 2.025 . S
O245 Sc244 2.025 . S
C246 O252 1.268 . S
C246 O262 1.268 . S
C247 O253 1.268 . S
C247 O261 1.268 . S
C248 O254 1.268 . S
C248 O263 1.268 . S
C249 O255 1.268 . S
C249 O259 1.268 . S
C250 O256 1.268 . S
C250 O258 1.268 . S
C251 O257 1.268 . S
C251 O260 1.268 . S
O252 Sc242 2.105 . S
O252 C246 1.268 . S
O253 Sc243 2.105 . S
O253 C247 1.268 . S
O254 Sc244 2.105 . S
O254 C248 1.268 . S
O255 Sc242 2.105 . S
O255 C249 1.268 . S
O256 Sc244 2.105 . S
O256 C250 1.268 . S
O257 Sc243 2.105 . S
O257 C251 1.268 . S
O258 Sc242 2.105 . S
O258 C250 1.268 . S
O259 Sc243 2.105 . S
O259 C249 1.268 . S
O260 Sc244 2.105 . S
O260 C251 1.268 . S
O261 Sc242 2.105 . S
O261 C247 1.268 . S
O262 Sc244 2.105 . S
O262 C246 1.268 . S
O263 Sc243 2.105 . S
O263 C248 1.268 . S
Sc264 O267 2.025 . S
Sc264 O274 2.105 1_545 S
Sc264 O277 2.105 . S
Sc264 O280 2.105 . S
Sc264 O283 2.105 1_545 S
Sc265 O267 2.025 . S
Sc265 O275 2.105 1_545 S
Sc265 O279 2.105 . S
Sc265 O281 2.105 . S
Sc265 O285 2.105 1_545 S
Sc266 O267 2.025 . S
Sc266 O276 2.105 1_545 S
Sc266 O278 2.105 . S
Sc266 O282 2.105 . S
Sc266 O284 2.105 1_545 S
O267 Sc264 2.025 . S
O267 Sc265 2.025 . S
O267 Sc266 2.025 . S
C268 O274 1.268 . S
C268 O284 1.268 . S
C269 O275 1.268 . S
C269 O283 1.268 . S
C270 O276 1.268 . S
C270 O285 1.268 . S
C271 O277 1.268 . S
C271 O281 1.268 . S
C272 O278 1.268 . S
C272 O280 1.268 . S
C273 O279 1.268 . S
C273 O282 1.268 . S
O274 Sc264 2.105 1_565 S
O274 C268 1.268 . S
O275 Sc265 2.105 1_565 S
O275 C269 1.268 . S
O276 Sc266 2.105 1_565 S
O276 C270 1.268 . S
O277 Sc264 2.105 . S
O277 C271 1.268 . S
O278 Sc266 2.105 . S
O278 C272 1.268 . S
O279 Sc265 2.105 . S
O279 C273 1.268 . S
O280 Sc264 2.105 . S
O280 C272 1.268 . S
O281 Sc265 2.105 . S
O281 C271 1.268 . S
O282 Sc266 2.105 . S
O282 C273 1.268 . S
O283 Sc264 2.105 1_565 S
O283 C269 1.268 . S
O284 Sc266 2.105 1_565 S
O284 C268 1.268 . S
O285 Sc265 2.105 1_565 S
O285 C270 1.268 . S
Sc286 O289 2.025 . S
Sc286 O296 2.105 . S
Sc286 O299 2.105 . S
Sc286 O302 2.105 . S
Sc286 O305 2.105 . S
Sc287 O289 2.025 . S
Sc287 O297 2.105 . S
Sc287 O301 2.105 . S
Sc287 O303 2.105 . S
Sc287 O307 2.105 . S
Sc288 O289 2.025 . S
Sc288 O298 2.105 . S
Sc288 O300 2.105 . S
Sc288 O304 2.105 . S
Sc288 O306 2.105 . S
O289 Sc286 2.025 . S
O289 Sc287 2.025 . S
O289 Sc288 2.025 . S
C290 O296 1.268 . S
C290 O306 1.268 . S
C291 O297 1.268 . S
C291 O305 1.268 . S
C292 O298 1.268 . S
C292 O307 1.268 . S
C293 O299 1.268 . S
C293 O303 1.268 . S
C294 O300 1.268 . S
C294 O302 1.268 . S
C295 O301 1.268 . S
C295 O304 1.268 . S
O296 Sc286 2.105 . S
O296 C290 1.268 . S
O297 Sc287 2.105 . S
O297 C291 1.268 . S
O298 Sc288 2.105 . S
O298 C292 1.268 . S
O299 Sc286 2.105 . S
O299 C293 1.268 . S
O300 Sc288 2.105 . S
O300 C294 1.268 . S
O301 Sc287 2.105 . S
O301 C295 1.268 . S
O302 Sc286 2.105 . S
O302 C294 1.268 . S
O303 Sc287 2.105 . S
O303 C293 1.268 . S
O304 Sc288 2.105 . S
O304 C295 1.268 . S
O305 Sc286 2.105 . S
O305 C291 1.268 . S
O306 Sc288 2.105 . S
O306 C290 1.268 . S
O307 Sc287 2.105 . S
O307 C292 1.268 . S
Sc308 O311 2.025 . S
Sc308 O318 2.105 1_545 S
Sc308 O321 2.105 . S
Sc308 O324 2.105 . S
Sc308 O327 2.105 1_545 S
Sc309 O311 2.025 . S
Sc309 O319 2.105 1_545 S
Sc309 O323 2.105 . S
Sc309 O325 2.105 . S
Sc309 O329 2.105 1_545 S
Sc310 O311 2.025 . S
Sc310 O320 2.105 1_545 S
Sc310 O322 2.105 . S
Sc310 O326 2.105 . S
Sc310 O328 2.105 1_545 S
O311 Sc308 2.025 . S
O311 Sc309 2.025 . S
O311 Sc310 2.025 . S
C312 O318 1.268 . S
C312 O328 1.268 . S
C313 O319 1.268 . S
C313 O327 1.268 . S
C314 O320 1.268 . S
C314 O329 1.268 . S
C315 O321 1.268 . S
C315 O325 1.268 . S
C316 O322 1.268 . S
C316 O324 1.268 . S
C317 O323 1.268 . S
C317 O326 1.268 . S
O318 Sc308 2.105 1_565 S
O318 C312 1.268 . S
O319 Sc309 2.105 1_565 S
O319 C313 1.268 . S
O320 Sc310 2.105 1_565 S
O320 C314 1.268 . S
O321 Sc308 2.105 . S
O321 C315 1.268 . S
O322 Sc310 2.105 . S
O322 C316 1.268 . S
O323 Sc309 2.105 . S
O323 C317 1.268 . S
O324 Sc308 2.105 . S
O324 C316 1.268 . S
O325 Sc309 2.105 . S
O325 C315 1.268 . S
O326 Sc310 2.105 . S
O326 C317 1.268 . S
O327 Sc308 2.105 1_565 S
O327 C313 1.268 . S
O328 Sc310 2.105 1_565 S
O328 C312 1.268 . S
O329 Sc309 2.105 1_565 S
O329 C314 1.268 . S
Sc330 O333 2.025 . S
Sc330 O340 2.105 . S
Sc330 O343 2.105 . S
Sc330 O346 2.105 . S
Sc330 O349 2.105 . S
Sc331 O333 2.025 . S
Sc331 O341 2.105 . S
Sc331 O345 2.105 . S
Sc331 O347 2.105 . S
Sc331 O351 2.105 . S
Sc332 O333 2.025 . S
Sc332 O342 2.105 . S
Sc332 O344 2.105 . S
Sc332 O348 2.105 . S
Sc332 O350 2.105 . S
O333 Sc330 2.025 . S
O333 Sc331 2.025 . S
O333 Sc332 2.025 . S
C334 O340 1.268 . S
C334 O350 1.268 . S
C335 O341 1.268 . S
C335 O349 1.268 . S
C336 O342 1.268 . S
C336 O351 1.268 . S
C337 O343 1.268 . S
C337 O347 1.268 . S
C338 O344 1.268 . S
C338 O346 1.268 . S
C339 O345 1.268 . S
C339 O348 1.268 . S
O340 Sc330 2.105 . S
O340 C334 1.268 . S
O341 Sc331 2.105 . S
O341 C335 1.268 . S
O342 Sc332 2.105 . S
O342 C336 1.268 . S
O343 Sc330 2.105 . S
O343 C337 1.268 . S
O344 Sc332 2.105 . S
O344 C338 1.268 . S
O345 Sc331 2.105 . S
O345 C339 1.268 . S
O346 Sc330 2.105 . S
O346 C338 1.268 . S
O347 Sc331 2.105 . S
O347 C337 1.268 . S
O348 Sc332 2.105 . S
O348 C339 1.268 . S
O349 Sc330 2.105 . S
O349 C335 1.268 . S
O350 Sc332 2.105 . S
O350 C334 1.268 . S
O351 Sc331 2.105 . S
O351 C336 1.268 . S
Sc352 O355 2.025 . S
Sc352 O362 2.105 1_554 S
Sc352 O365 2.105 . S
Sc352 O368 2.105 . S
Sc352 O371 2.105 1_554 S
Sc353 O355 2.025 . S
Sc353 O363 2.105 1_554 S
Sc353 O367 2.105 . S
Sc353 O369 2.105 . S
Sc353 O373 2.105 1_554 S
Sc354 O355 2.025 . S
Sc354 O364 2.105 1_554 S
Sc354 O366 2.105 . S
Sc354 O370 2.105 . S
Sc354 O372 2.105 1_554 S
O355 Sc352 2.025 . S
O355 Sc353 2.025 . S
O355 Sc354 2.025 . S
C356 O362 1.268 . S
C356 O372 1.268 . S
C357 O363 1.268 . S
C357 O371 1.268 . S
C358 O364 1.268 . S
C358 O373 1.268 . S
C359 O365 1.268 . S
C359 O369 1.268 . S
C360 O366 1.268 . S
C360 O368 1.268 . S
C361 O367 1.268 . S
C361 O370 1.268 . S
O362 Sc352 2.105 1_556 S
O362 C356 1.268 . S
O363 Sc353 2.105 1_556 S
O363 C357 1.268 . S
O364 Sc354 2.105 1_556 S
O364 C358 1.268 . S
O365 Sc352 2.105 . S
O365 C359 1.268 . S
O366 Sc354 2.105 . S
O366 C360 1.268 . S
O367 Sc353 2.105 . S
O367 C361 1.268 . S
O368 Sc352 2.105 . S
O368 C360 1.268 . S
O369 Sc353 2.105 . S
O369 C359 1.268 . S
O370 Sc354 2.105 . S
O370 C361 1.268 . S
O371 Sc352 2.105 1_556 S
O371 C357 1.268 . S
O372 Sc354 2.105 1_556 S
O372 C356 1.268 . S
O373 Sc353 2.105 1_556 S
O373 C358 1.268 . S
Sc374 O377 2.025 . S
Sc374 O384 2.105 1_554 S
Sc374 O387 2.105 . S
Sc374 O390 2.105 . S
Sc374 O393 2.105 1_554 S
Sc375 O377 2.025 . S
Sc375 O385 2.105 1_554 S
Sc375 O389 2.105 . S
Sc375 O391 2.105 . S
Sc375 O395 2.105 1_554 S
Sc376 O377 2.025 . S
Sc376 O386 2.105 1_554 S
Sc376 O388 2.105 . S
Sc376 O392 2.105 . S
Sc376 O394 2.105 1_554 S
O377 Sc374 2.025 . S
O377 Sc375 2.025 . S
O377 Sc376 2.025 . S
C378 O384 1.268 . S
C378 O394 1.268 . S
C379 O385 1.268 . S
C379 O393 1.268 . S
C380 O386 1.268 . S
C380 O395 1.268 . S
C381 O387 1.268 . S
C381 O391 1.268 . S
C382 O388 1.268 . S
C382 O390 1.268 . S
C383 O389 1.268 . S
C383 O392 1.268 . S
O384 Sc374 2.105 1_556 S
O384 C378 1.268 . S
O385 Sc375 2.105 1_556 S
O385 C379 1.268 . S
O386 Sc376 2.105 1_556 S
O386 C380 1.268 . S
O387 Sc374 2.105 . S
O387 C381 1.268 . S
O388 Sc376 2.105 . S
O388 C382 1.268 . S
O389 Sc375 2.105 . S
O389 C383 1.268 . S
O390 Sc374 2.105 . S
O390 C382 1.268 . S
O391 Sc375 2.105 . S
O391 C381 1.268 . S
O392 Sc376 2.105 . S
O392 C383 1.268 . S
O393 Sc374 2.105 1_556 S
O393 C379 1.268 . S
O394 Sc376 2.105 1_556 S
O394 C378 1.268 . S
O395 Sc375 2.105 1_556 S
O395 C380 1.268 . S
Sc396 O399 2.025 . S
Sc396 O406 2.105 . S
Sc396 O409 2.105 . S
Sc396 O412 2.105 . S
Sc396 O415 2.105 . S
Sc397 O399 2.025 . S
Sc397 O407 2.105 . S
Sc397 O411 2.105 . S
Sc397 O413 2.105 . S
Sc397 O417 2.105 . S
Sc398 O399 2.025 . S
Sc398 O408 2.105 . S
Sc398 O410 2.105 . S
Sc398 O414 2.105 . S
Sc398 O416 2.105 . S
O399 Sc396 2.025 . S
O399 Sc397 2.025 . S
O399 Sc398 2.025 . S
C400 O406 1.268 . S
C400 O416 1.268 . S
C401 O407 1.268 . S
C401 O415 1.268 . S
C402 O408 1.268 . S
C402 O417 1.268 . S
C403 O409 1.268 . S
C403 O413 1.268 . S
C404 O410 1.268 . S
C404 O412 1.268 . S
C405 O411 1.268 . S
C405 O414 1.268 . S
O406 Sc396 2.105 . S
O406 C400 1.268 . S
O407 Sc397 2.105 . S
O407 C401 1.268 . S
O408 Sc398 2.105 . S
O408 C402 1.268 . S
O409 Sc396 2.105 . S
O409 C403 1.268 . S
O410 Sc398 2.105 . S
O410 C404 1.268 . S
O411 Sc397 2.105 . S
O411 C405 1.268 . S
O412 Sc396 2.105 . S
O412 C404 1.268 . S
O413 Sc397 2.105 . S
O413 C403 1.268 . S
O414 Sc398 2.105 . S
O414 C405 1.268 . S
O415 Sc396 2.105 . S
O415 C401 1.268 . S
O416 Sc398 2.105 . S
O416 C400 1.268 . S
O417 Sc397 2.105 . S
O417 C402 1.268 . S
Sc418 O421 2.025 . S
Sc418 O428 2.105 1_554 S
Sc418 O431 2.105 . S
Sc418 O434 2.105 . S
Sc418 O437 2.105 1_554 S
Sc419 O421 2.025 . S
Sc419 O429 2.105 1_554 S
Sc419 O433 2.105 . S
Sc419 O435 2.105 . S
Sc419 O439 2.105 1_554 S
Sc420 O421 2.025 . S
Sc420 O430 2.105 1_554 S
Sc420 O432 2.105 . S
Sc420 O436 2.105 . S
Sc420 O438 2.105 1_554 S
O421 Sc418 2.025 . S
O421 Sc419 2.025 . S
O421 Sc420 2.025 . S
C422 O428 1.268 . S
C422 O438 1.268 . S
C423 O429 1.268 . S
C423 O437 1.268 . S
C424 O430 1.268 . S
C424 O439 1.268 . S
C425 O431 1.268 . S
C425 O435 1.268 . S
C426 O432 1.268 . S
C426 O434 1.268 . S
C427 O433 1.268 . S
C427 O436 1.268 . S
O428 Sc418 2.105 1_556 S
O428 C422 1.268 . S
O429 Sc419 2.105 1_556 S
O429 C423 1.268 . S
O430 Sc420 2.105 1_556 S
O430 C424 1.268 . S
O431 Sc418 2.105 . S
O431 C425 1.268 . S
O432 Sc420 2.105 . S
O432 C426 1.268 . S
O433 Sc419 2.105 . S
O433 C427 1.268 . S
O434 Sc418 2.105 . S
O434 C426 1.268 . S
O435 Sc419 2.105 . S
O435 C425 1.268 . S
O436 Sc420 2.105 . S
O436 C427 1.268 . S
O437 Sc418 2.105 1_556 S
O437 C423 1.268 . S
O438 Sc420 2.105 1_556 S
O438 C422 1.268 . S
O439 Sc419 2.105 1_556 S
O439 C424 1.268 . S
Sc440 O443 2.025 . S
Sc440 O450 2.105 . S
Sc440 O453 2.105 . S
Sc440 O456 2.105 . S
Sc440 O459 2.105 . S
Sc441 O443 2.025 . S
Sc441 O451 2.105 . S
Sc441 O455 2.105 . S
Sc441 O457 2.105 . S
Sc441 O461 2.105 . S
Sc442 O443 2.025 . S
Sc442 O452 2.105 . S
Sc442 O454 2.105 . S
Sc442 O458 2.105 . S
Sc442 O460 2.105 . S
O443 Sc440 2.025 . S
O443 Sc441 2.025 . S
O443 Sc442 2.025 . S
C444 O450 1.268 . S
C444 O460 1.268 . S
C445 O451 1.268 . S
C445 O459 1.268 . S
C446 O452 1.268 . S
C446 O461 1.268 . S
C447 O453 1.268 . S
C447 O457 1.268 . S
C448 O454 1.268 . S
C448 O456 1.268 . S
C449 O455 1.268 . S
C449 O458 1.268 . S
O450 Sc440 2.105 . S
O450 C444 1.268 . S
O451 Sc441 2.105 . S
O451 C445 1.268 . S
O452 Sc442 2.105 . S
O452 C446 1.268 . S
O453 Sc440 2.105 . S
O453 C447 1.268 . S
O454 Sc442 2.105 . S
O454 C448 1.268 . S
O455 Sc441 2.105 . S
O455 C449 1.268 . S
O456 Sc440 2.105 . S
O456 C448 1.268 . S
O457 Sc441 2.105 . S
O457 C447 1.268 . S
O458 Sc442 2.105 . S
O458 C449 1.268 . S
O459 Sc440 2.105 . S
O459 C445 1.268 . S
O460 Sc442 2.105 . S
O460 C444 1.268 . S
O461 Sc441 2.105 . S
O461 C446 1.268 . S
Sc462 O465 2.025 . S
Sc462 O472 2.105 1_554 S
Sc462 O475 2.105 . S
Sc462 O478 2.105 . S
Sc462 O481 2.105 1_554 S
Sc463 O465 2.025 . S
Sc463 O473 2.105 1_554 S
Sc463 O477 2.105 . S
Sc463 O479 2.105 . S
Sc463 O483 2.105 1_554 S
Sc464 O465 2.025 . S
Sc464 O474 2.105 1_554 S
Sc464 O476 2.105 . S
Sc464 O480 2.105 . S
Sc464 O482 2.105 1_554 S
O465 Sc462 2.025 . S
O465 Sc463 2.025 . S
O465 Sc464 2.025 . S
C466 O472 1.268 . S
C466 O482 1.268 . S
C467 O473 1.268 . S
C467 O481 1.268 . S
C468 O474 1.268 . S
C468 O483 1.268 . S
C469 O475 1.268 . S
C469 O479 1.268 . S
C470 O476 1.268 . S
C470 O478 1.268 . S
C471 O477 1.268 . S
C471 O480 1.268 . S
O472 Sc462 2.105 1_556 S
O472 C466 1.268 . S
O473 Sc463 2.105 1_556 S
O473 C467 1.268 . S
O474 Sc464 2.105 1_556 S
O474 C468 1.268 . S
O475 Sc462 2.105 . S
O475 C469 1.268 . S
O476 Sc464 2.105 . S
O476 C470 1.268 . S
O477 Sc463 2.105 . S
O477 C471 1.268 . S
O478 Sc462 2.105 . S
O478 C470 1.268 . S
O479 Sc463 2.105 . S
O479 C469 1.268 . S
O480 Sc464 2.105 . S
O480 C471 1.268 . S
O481 Sc462 2.105 1_556 S
O481 C467 1.268 . S
O482 Sc464 2.105 1_556 S
O482 C466 1.268 . S
O483 Sc463 2.105 1_556 S
O483 C468 1.268 . S
Sc484 O487 2.025 . S
Sc484 O494 2.105 . S
Sc484 O497 2.105 . S
Sc484 O500 2.105 . S
Sc484 O503 2.105 . S
Sc485 O487 2.025 . S
Sc485 O495 2.105 . S
Sc485 O499 2.105 . S
Sc485 O501 2.105 . S
Sc485 O505 2.105 . S
Sc486 O487 2.025 . S
Sc486 O496 2.105 . S
Sc486 O498 2.105 . S
Sc486 O502 2.105 . S
Sc486 O504 2.105 . S
O487 Sc484 2.025 . S
O487 Sc485 2.025 . S
O487 Sc486 2.025 . S
C488 O494 1.268 . S
C488 O504 1.268 . S
C489 O495 1.268 . S
C489 O503 1.268 . S
C490 O496 1.268 . S
C490 O505 1.268 . S
C491 O497 1.268 . S
C491 O501 1.268 . S
C492 O498 1.268 . S
C492 O500 1.268 . S
C493 O499 1.268 . S
C493 O502 1.268 . S
O494 Sc484 2.105 . S
O494 C488 1.268 . S
O495 Sc485 2.105 . S
O495 C489 1.268 . S
O496 Sc486 2.105 . S
O496 C490 1.268 . S
O497 Sc484 2.105 . S
O497 C491 1.268 . S
O498 Sc486 2.105 . S
O498 C492 1.268 . S
O499 Sc485 2.105 . S
O499 C493 1.268 . S
O500 Sc484 2.105 . S
O500 C492 1.268 . S
O501 Sc485 2.105 . S
O501 C491 1.268 . S
O502 Sc486 2.105 . S
O502 C493 1.268 . S
O503 Sc484 2.105 . S
O503 C489 1.268 . S
O504 Sc486 2.105 . S
O504 C488 1.268 . S
O505 Sc485 2.105 . S
O505 C490 1.268 . S
Sc506 O509 2.025 . S
Sc506 O516 2.105 . S
Sc506 O519 2.105 . S
Sc506 O522 2.105 . S
Sc506 O525 2.105 . S
Sc507 O509 2.025 . S
Sc507 O517 2.105 . S
Sc507 O521 2.105 . S
Sc507 O523 2.105 . S
Sc507 O527 2.105 . S
Sc508 O509 2.025 . S
Sc508 O518 2.105 . S
Sc508 O520 2.105 . S
Sc508 O524 2.105 . S
Sc508 O526 2.105 . S
O509 Sc506 2.025 . S
O509 Sc507 2.025 . S
O509 Sc508 2.025 . S
C510 O516 1.268 . S
C510 O526 1.268 . S
C511 O517 1.268 . S
C511 O525 1.268 . S
C512 O518 1.268 . S
C512 O527 1.268 . S
C513 O519 1.268 . S
C513 O523 1.268 . S
C514 O520 1.268 . S
C514 O522 1.268 . S
C515 O521 1.268 . S
C515 O524 1.268 . S
O516 Sc506 2.105 . S
O516 C510 1.268 . S
O517 Sc507 2.105 . S
O517 C511 1.268 . S
O518 Sc508 2.105 . S
O518 C512 1.268 . S
O519 Sc506 2.105 . S
O519 C513 1.268 . S
O520 Sc508 2.105 . S
O520 C514 1.268 . S
O521 Sc507 2.105 . S
O521 C515 1.268 . S
O522 Sc506 2.105 . S
O522 C514 1.268 . S
O523 Sc507 2.105 . S
O523 C513 1.268 . S
O524 Sc508 2.105 . S
O524 C515 1.268 . S
O525 Sc506 2.105 . S
O525 C511 1.268 . S
O526 Sc508 2.105 . S
O526 C510 1.268 . S
O527 Sc507 2.105 . S
O527 C512 1.268 . S
C528 C529 1.349 . S
C528 C530 1.327 . S
C528 H553 0.950 . S
C529 C528 1.349 . S
C529 C545 1.349 . S
C530 C528 1.327 . S
C530 C549 1.429 . S
C530 H554 0.950 . S
C531 C548 1.574 . S
C531 C550 1.368 . S
C531 H555 0.949 . S
H532 C536 0.949 . S
C533 C534 1.349 . S
C533 C535 1.327 . S
C533 H556 0.950 . S
C534 C533 1.349 . S
C534 C546 1.349 . S
C535 C533 1.327 . S
C535 C551 1.429 . S
C535 H557 0.950 . S
C536 H532 0.949 . S
C536 C544 1.574 . S
C536 C552 1.368 . S
H537 C545 0.950 . S
H538 C543 0.950 . S
H539 C544 0.949 . S
H540 C546 0.950 . S
H541 C547 0.950 . S
H542 C548 0.949 . S
C543 H538 0.950 . S
C543 C545 1.327 . S
C543 C549 1.429 . S
C544 C536 1.574 . S
C544 H539 0.949 . S
C544 C550 1.368 . S
C545 C529 1.349 . S
C545 H537 0.950 . S
C545 C543 1.327 . S
C546 C534 1.349 . S
C546 H540 0.950 . S
C546 C547 1.327 . S
C547 H541 0.950 . S
C547 C546 1.327 . S
C547 C551 1.429 . S
C548 C531 1.574 . S
C548 H542 0.949 . S
C548 C552 1.368 . S
C549 C530 1.429 . S
C549 C543 1.429 . S
C549 C550 1.523 . S
C550 C531 1.368 . S
C550 C544 1.368 . S
C550 C549 1.523 . S
C551 C535 1.429 . S
C551 C547 1.429 . S
C551 C552 1.523 . S
C552 C536 1.368 . S
C552 C548 1.368 . S
C552 C551 1.523 . S
H553 C528 0.950 . S
H554 C530 0.950 . S
H555 C531 0.949 . S
H556 C533 0.950 . S
H557 C535 0.950 . S
C558 C559 1.349 . S
C558 C560 1.327 . S
C558 H583 0.950 . S
C559 C558 1.349 . S
C559 C575 1.349 . S
C560 C558 1.327 . S
C560 C579 1.429 . S
C560 H584 0.950 . S
C561 C578 1.574 . S
C561 C580 1.368 . S
C561 H585 0.949 . S
H562 C566 0.949 . S
C563 C564 1.349 . S
C563 C565 1.327 . S
C563 H586 0.950 . S
C564 C563 1.349 . S
C564 C576 1.349 . S
C565 C563 1.327 . S
C565 C581 1.429 . S
C565 H587 0.950 . S
C566 H562 0.949 . S
C566 C574 1.574 . S
C566 C582 1.368 . S
H567 C575 0.950 . S
H568 C573 0.950 . S
H569 C574 0.949 . S
H570 C576 0.950 . S
H571 C577 0.950 . S
H572 C578 0.949 . S
C573 H568 0.950 . S
C573 C575 1.327 . S
C573 C579 1.429 . S
C574 C566 1.574 . S
C574 H569 0.949 . S
C574 C580 1.368 . S
C575 C559 1.349 . S
C575 H567 0.950 . S
C575 C573 1.327 . S
C576 C564 1.349 . S
C576 H570 0.950 . S
C576 C577 1.327 . S
C577 H571 0.950 . S
C577 C576 1.327 . S
C577 C581 1.429 . S
C578 C561 1.574 . S
C578 H572 0.949 . S
C578 C582 1.368 . S
C579 C560 1.429 . S
C579 C573 1.429 . S
C579 C580 1.523 . S
C580 C561 1.368 . S
C580 C574 1.368 . S
C580 C579 1.523 . S
C581 C565 1.429 . S
C581 C577 1.429 . S
C581 C582 1.523 . S
C582 C566 1.368 . S
C582 C578 1.368 . S
C582 C581 1.523 . S
H583 C558 0.950 . S
H584 C560 0.950 . S
H585 C561 0.949 . S
H586 C563 0.950 . S
H587 C565 0.950 . S
C588 C589 1.349 . S
C588 C590 1.327 . S
C588 H613 0.950 . S
C589 C588 1.349 . S
C589 C605 1.349 . S
C590 C588 1.327 . S
C590 C609 1.429 . S
C590 H614 0.950 . S
C591 C608 1.574 . S
C591 C610 1.368 . S
C591 H615 0.949 . S
H592 C596 0.949 . S
C593 C594 1.349 . S
C593 C595 1.327 . S
C593 H616 0.950 . S
C594 C593 1.349 . S
C594 C606 1.349 . S
C595 C593 1.327 . S
C595 C611 1.429 . S
C595 H617 0.950 . S
C596 H592 0.949 . S
C596 C604 1.574 . S
C596 C612 1.368 . S
H597 C605 0.950 . S
H598 C603 0.950 . S
H599 C604 0.949 . S
H600 C606 0.950 . S
H601 C607 0.950 . S
H602 C608 0.949 . S
C603 H598 0.950 . S
C603 C605 1.327 . S
C603 C609 1.429 . S
C604 C596 1.574 . S
C604 H599 0.949 . S
C604 C610 1.368 . S
C605 C589 1.349 . S
C605 H597 0.950 . S
C605 C603 1.327 . S
C606 C594 1.349 . S
C606 H600 0.950 . S
C606 C607 1.327 . S
C607 H601 0.950 . S
C607 C606 1.327 . S
C607 C611 1.429 . S
C608 C591 1.574 . S
C608 H602 0.949 . S
C608 C612 1.368 . S
C609 C590 1.429 . S
C609 C603 1.429 . S
C609 C610 1.523 . S
C610 C591 1.368 . S
C610 C604 1.368 . S
C610 C609 1.523 . S
C611 C595 1.429 . S
C611 C607 1.429 . S
C611 C612 1.523 . S
C612 C596 1.368 . S
C612 C608 1.368 . S
C612 C611 1.523 . S
H613 C588 0.950 . S
H614 C590 0.950 . S
H615 C591 0.949 . S
H616 C593 0.950 . S
H617 C595 0.950 . S
C618 C619 1.349 . S
C618 C620 1.327 . S
C618 H643 0.950 . S
C619 C618 1.349 . S
C619 C635 1.349 . S
C620 C618 1.327 . S
C620 C639 1.429 . S
C620 H644 0.950 . S
C621 C638 1.574 . S
C621 C640 1.368 . S
C621 H645 0.949 . S
H622 C626 0.949 . S
C623 C624 1.349 . S
C623 C625 1.327 . S
C623 H646 0.950 . S
C624 C623 1.349 . S
C624 C636 1.349 . S
C625 C623 1.327 . S
C625 C641 1.429 . S
C625 H647 0.950 . S
C626 H622 0.949 . S
C626 C634 1.574 . S
C626 C642 1.368 . S
H627 C635 0.950 . S
H628 C633 0.950 . S
H629 C634 0.949 . S
H630 C636 0.950 . S
H631 C637 0.950 . S
H632 C638 0.949 . S
C633 H628 0.950 . S
C633 C635 1.327 . S
C633 C639 1.429 . S
C634 C626 1.574 . S
C634 H629 0.949 . S
C634 C640 1.368 . S
C635 C619 1.349 . S
C635 H627 0.950 . S
C635 C633 1.327 . S
C636 C624 1.349 . S
C636 H630 0.950 . S
C636 C637 1.327 . S
C637 H631 0.950 . S
C637 C636 1.327 . S
C637 C641 1.429 . S
C638 C621 1.574 . S
C638 H632 0.949 . S
C638 C642 1.368 . S
C639 C620 1.429 . S
C639 C633 1.429 . S
C639 C640 1.523 . S
C640 C621 1.368 . S
C640 C634 1.368 . S
C640 C639 1.523 . S
C641 C625 1.429 . S
C641 C637 1.429 . S
C641 C642 1.523 . S
C642 C626 1.368 . S
C642 C638 1.368 . S
C642 C641 1.523 . S
H643 C618 0.950 . S
H644 C620 0.950 . S
H645 C621 0.949 . S
H646 C623 0.950 . S
H647 C625 0.950 . S
C648 C649 1.349 . S
C648 C650 1.327 . S
C648 H673 0.950 . S
C649 C648 1.349 . S
C649 C665 1.349 . S
C650 C648 1.327 . S
C650 C669 1.429 . S
C650 H674 0.950 . S
C651 C668 1.574 . S
C651 C670 1.368 . S
C651 H675 0.949 . S
H652 C656 0.949 . S
C653 C654 1.349 . S
C653 C655 1.327 . S
C653 H676 0.950 . S
C654 C653 1.349 . S
C654 C666 1.349 . S
C655 C653 1.327 . S
C655 C671 1.429 . S
C655 H677 0.950 . S
C656 H652 0.949 . S
C656 C664 1.574 . S
C656 C672 1.368 . S
H657 C665 0.950 . S
H658 C663 0.950 . S
H659 C664 0.949 . S
H660 C666 0.950 . S
H661 C667 0.950 . S
H662 C668 0.949 . S
C663 H658 0.950 . S
C663 C665 1.327 . S
C663 C669 1.429 . S
C664 C656 1.574 . S
C664 H659 0.949 . S
C664 C670 1.368 . S
C665 C649 1.349 . S
C665 H657 0.950 . S
C665 C663 1.327 . S
C666 C654 1.349 . S
C666 H660 0.950 . S
C666 C667 1.327 . S
C667 H661 0.950 . S
C667 C666 1.327 . S
C667 C671 1.429 . S
C668 C651 1.574 . S
C668 H662 0.949 . S
C668 C672 1.368 . S
C669 C650 1.429 . S
C669 C663 1.429 . S
C669 C670 1.523 . S
C670 C651 1.368 . S
C670 C664 1.368 . S
C670 C669 1.523 . S
C671 C655 1.429 . S
C671 C667 1.429 . S
C671 C672 1.523 . S
C672 C656 1.368 . S
C672 C668 1.368 . S
C672 C671 1.523 . S
H673 C648 0.950 . S
H674 C650 0.950 . S
H675 C651 0.949 . S
H676 C653 0.950 . S
H677 C655 0.950 . S
C678 C679 1.349 . S
C678 C680 1.327 . S
C678 H703 0.950 . S
C679 C678 1.349 . S
C679 C695 1.349 . S
C680 C678 1.327 . S
C680 C699 1.429 . S
C680 H704 0.950 . S
C681 C698 1.574 . S
C681 C700 1.368 . S
C681 H705 0.949 . S
H682 C686 0.949 . S
C683 C684 1.349 . S
C683 C685 1.327 . S
C683 H706 0.950 . S
C684 C683 1.349 . S
C684 C696 1.349 . S
C685 C683 1.327 . S
C685 C701 1.429 . S
C685 H707 0.950 . S
C686 H682 0.949 . S
C686 C694 1.574 . S
C686 C702 1.368 . S
H687 C695 0.950 . S
H688 C693 0.950 . S
H689 C694 0.949 . S
H690 C696 0.950 . S
H691 C697 0.950 . S
H692 C698 0.949 . S
C693 H688 0.950 . S
C693 C695 1.327 . S
C693 C699 1.429 . S
C694 C686 1.574 . S
C694 H689 0.949 . S
C694 C700 1.368 . S
C695 C679 1.349 . S
C695 H687 0.950 . S
C695 C693 1.327 . S
C696 C684 1.349 . S
C696 H690 0.950 . S
C696 C697 1.327 . S
C697 H691 0.950 . S
C697 C696 1.327 . S
C697 C701 1.429 . S
C698 C681 1.574 . S
C698 H692 0.949 . S
C698 C702 1.368 . S
C699 C680 1.429 . S
C699 C693 1.429 . S
C699 C700 1.523 . S
C700 C681 1.368 . S
C700 C694 1.368 . S
C700 C699 1.523 . S
C701 C685 1.429 . S
C701 C697 1.429 . S
C701 C702 1.523 . S
C702 C686 1.368 . S
C702 C698 1.368 . S
C702 C701 1.523 . S
H703 C678 0.950 . S
H704 C680 0.950 . S
H705 C681 0.949 . S
H706 C683 0.950 . S
H707 C685 0.950 . S
C708 C709 1.349 . S
C708 C710 1.327 . S
C708 H733 0.950 . S
C709 C708 1.349 . S
C709 C725 1.349 . S
C710 C708 1.327 . S
C710 C729 1.429 . S
C710 H734 0.950 . S
C711 C728 1.574 . S
C711 C730 1.368 . S
C711 H735 0.949 . S
H712 C716 0.949 . S
C713 C714 1.349 . S
C713 C715 1.327 . S
C713 H736 0.950 . S
C714 C713 1.349 . S
C714 C726 1.349 . S
C715 C713 1.327 . S
C715 C731 1.429 . S
C715 H737 0.950 . S
C716 H712 0.949 . S
C716 C724 1.574 . S
C716 C732 1.368 . S
H717 C725 0.950 . S
H718 C723 0.950 . S
H719 C724 0.949 . S
H720 C726 0.950 . S
H721 C727 0.950 . S
H722 C728 0.949 . S
C723 H718 0.950 . S
C723 C725 1.327 . S
C723 C729 1.429 . S
C724 C716 1.574 . S
C724 H719 0.949 . S
C724 C730 1.368 . S
C725 C709 1.349 . S
C725 H717 0.950 . S
C725 C723 1.327 . S
C726 C714 1.349 . S
C726 H720 0.950 . S
C726 C727 1.327 . S
C727 H721 0.950 . S
C727 C726 1.327 . S
C727 C731 1.429 . S
C728 C711 1.574 . S
C728 H722 0.949 . S
C728 C732 1.368 . S
C729 C710 1.429 . S
C729 C723 1.429 . S
C729 C730 1.523 . S
C730 C711 1.368 . S
C730 C724 1.368 . S
C730 C729 1.523 . S
C731 C715 1.429 . S
C731 C727 1.429 . S
C731 C732 1.523 . S
C732 C716 1.368 . S
C732 C728 1.368 . S
C732 C731 1.523 . S
H733 C708 0.950 . S
H734 C710 0.950 . S
H735 C711 0.949 . S
H736 C713 0.950 . S
H737 C715 0.950 . S
C738 C739 1.349 . S
C738 C740 1.327 . S
C738 H763 0.950 . S
C739 C738 1.349 . S
C739 C755 1.349 . S
C740 C738 1.327 . S
C740 C759 1.429 . S
C740 H764 0.950 . S
C741 C758 1.574 . S
C741 C760 1.368 . S
C741 H765 0.949 . S
H742 C746 0.949 . S
C743 C744 1.349 . S
C743 C745 1.327 . S
C743 H766 0.950 . S
C744 C743 1.349 . S
C744 C756 1.349 . S
C745 C743 1.327 . S
C745 C761 1.429 . S
C745 H767 0.950 . S
C746 H742 0.949 . S
C746 C754 1.574 . S
C746 C762 1.368 . S
H747 C755 0.950 . S
H748 C753 0.950 . S
H749 C754 0.949 . S
H750 C756 0.950 . S
H751 C757 0.950 . S
H752 C758 0.949 . S
C753 H748 0.950 . S
C753 C755 1.327 . S
C753 C759 1.429 . S
C754 C746 1.574 . S
C754 H749 0.949 . S
C754 C760 1.368 . S
C755 C739 1.349 . S
C755 H747 0.950 . S
C755 C753 1.327 . S
C756 C744 1.349 . S
C756 H750 0.950 . S
C756 C757 1.327 . S
C757 H751 0.950 . S
C757 C756 1.327 . S
C757 C761 1.429 . S
C758 C741 1.574 . S
C758 H752 0.949 . S
C758 C762 1.368 . S
C759 C740 1.429 . S
C759 C753 1.429 . S
C759 C760 1.523 . S
C760 C741 1.368 . S
C760 C754 1.368 . S
C760 C759 1.523 . S
C761 C745 1.429 . S
C761 C757 1.429 . S
C761 C762 1.523 . S
C762 C746 1.368 . S
C762 C758 1.368 . S
C762 C761 1.523 . S
H763 C738 0.950 . S
H764 C740 0.950 . S
H765 C741 0.949 . S
H766 C743 0.950 . S
H767 C745 0.950 . S
C768 C769 1.349 . S
C768 C770 1.327 . S
C768 H793 0.950 . S
C769 C768 1.349 . S
C769 C785 1.349 . S
C770 C768 1.327 . S
C770 C789 1.429 . S
C770 H794 0.950 . S
C771 C788 1.574 . S
C771 C790 1.368 . S
C771 H795 0.949 . S
H772 C776 0.949 . S
C773 C774 1.349 . S
C773 C775 1.327 . S
C773 H796 0.950 . S
C774 C773 1.349 . S
C774 C786 1.349 . S
C775 C773 1.327 . S
C775 C791 1.429 . S
C775 H797 0.950 . S
C776 H772 0.949 . S
C776 C784 1.574 . S
C776 C792 1.368 . S
H777 C785 0.950 . S
H778 C783 0.950 . S
H779 C784 0.949 . S
H780 C786 0.950 . S
H781 C787 0.950 . S
H782 C788 0.949 . S
C783 H778 0.950 . S
C783 C785 1.327 . S
C783 C789 1.429 . S
C784 C776 1.574 . S
C784 H779 0.949 . S
C784 C790 1.368 . S
C785 C769 1.349 . S
C785 H777 0.950 . S
C785 C783 1.327 . S
C786 C774 1.349 . S
C786 H780 0.950 . S
C786 C787 1.327 . S
C787 H781 0.950 . S
C787 C786 1.327 . S
C787 C791 1.429 . S
C788 C771 1.574 . S
C788 H782 0.949 . S
C788 C792 1.368 . S
C789 C770 1.429 . S
C789 C783 1.429 . S
C789 C790 1.523 . S
C790 C771 1.368 . S
C790 C784 1.368 . S
C790 C789 1.523 . S
C791 C775 1.429 . S
C791 C787 1.429 . S
C791 C792 1.523 . S
C792 C776 1.368 . S
C792 C788 1.368 . S
C792 C791 1.523 . S
H793 C768 0.950 . S
H794 C770 0.950 . S
H795 C771 0.949 . S
H796 C773 0.950 . S
H797 C775 0.950 . S
C798 C799 1.349 . S
C798 C800 1.327 . S
C798 H823 0.950 . S
C799 C798 1.349 . S
C799 C815 1.349 . S
C800 C798 1.327 . S
C800 C819 1.429 . S
C800 H824 0.950 . S
C801 C818 1.574 . S
C801 C820 1.368 . S
C801 H825 0.949 . S
H802 C806 0.949 . S
C803 C804 1.349 . S
C803 C805 1.327 . S
C803 H826 0.950 . S
C804 C803 1.349 . S
C804 C816 1.349 . S
C805 C803 1.327 . S
C805 C821 1.429 . S
C805 H827 0.950 . S
C806 H802 0.949 . S
C806 C814 1.574 . S
C806 C822 1.368 . S
H807 C815 0.950 . S
H808 C813 0.950 . S
H809 C814 0.949 . S
H810 C816 0.950 . S
H811 C817 0.950 . S
H812 C818 0.949 . S
C813 H808 0.950 . S
C813 C815 1.327 . S
C813 C819 1.429 . S
C814 C806 1.574 . S
C814 H809 0.949 . S
C814 C820 1.368 . S
C815 C799 1.349 . S
C815 H807 0.950 . S
C815 C813 1.327 . S
C816 C804 1.349 . S
C816 H810 0.950 . S
C816 C817 1.327 . S
C817 H811 0.950 . S
C817 C816 1.327 . S
C817 C821 1.429 . S
C818 C801 1.574 . S
C818 H812 0.949 . S
C818 C822 1.368 . S
C819 C800 1.429 . S
C819 C813 1.429 . S
C819 C820 1.523 . S
C820 C801 1.368 . S
C820 C814 1.368 . S
C820 C819 1.523 . S
C821 C805 1.429 . S
C821 C817 1.429 . S
C821 C822 1.523 . S
C822 C806 1.368 . S
C822 C818 1.368 . S
C822 C821 1.523 . S
H823 C798 0.950 . S
H824 C800 0.950 . S
H825 C801 0.949 . S
H826 C803 0.950 . S
H827 C805 0.950 . S
C828 C829 1.349 . S
C828 C830 1.327 . S
C828 H853 0.950 . S
C829 C828 1.349 . S
C829 C845 1.349 . S
C830 C828 1.327 . S
C830 C849 1.429 . S
C830 H854 0.950 . S
C831 C848 1.574 . S
C831 C850 1.368 . S
C831 H855 0.949 . S
H832 C836 0.949 . S
C833 C834 1.349 . S
C833 C835 1.327 . S
C833 H856 0.950 . S
C834 C833 1.349 . S
C834 C846 1.349 . S
C835 C833 1.327 . S
C835 C851 1.429 . S
C835 H857 0.950 . S
C836 H832 0.949 . S
C836 C844 1.574 . S
C836 C852 1.368 . S
H837 C845 0.950 . S
H838 C843 0.950 . S
H839 C844 0.949 . S
H840 C846 0.950 . S
H841 C847 0.950 . S
H842 C848 0.949 . S
C843 H838 0.950 . S
C843 C845 1.327 . S
C843 C849 1.429 . S
C844 C836 1.574 . S
C844 H839 0.949 . S
C844 C850 1.368 . S
C845 C829 1.349 . S
C845 H837 0.950 . S
C845 C843 1.327 . S
C846 C834 1.349 . S
C846 H840 0.950 . S
C846 C847 1.327 . S
C847 H841 0.950 . S
C847 C846 1.327 . S
C847 C851 1.429 . S
C848 C831 1.574 . S
C848 H842 0.949 . S
C848 C852 1.368 . S
C849 C830 1.429 . S
C849 C843 1.429 . S
C849 C850 1.523 . S
C850 C831 1.368 . S
C850 C844 1.368 . S
C850 C849 1.523 . S
C851 C835 1.429 . S
C851 C847 1.429 . S
C851 C852 1.523 . S
C852 C836 1.368 . S
C852 C848 1.368 . S
C852 C851 1.523 . S
H853 C828 0.950 . S
H854 C830 0.950 . S
H855 C831 0.949 . S
H856 C833 0.950 . S
H857 C835 0.950 . S
C858 C859 1.349 . S
C858 C860 1.327 . S
C858 H883 0.950 . S
C859 C858 1.349 . S
C859 C875 1.349 . S
C860 C858 1.327 . S
C860 C879 1.429 . S
C860 H884 0.950 . S
C861 C878 1.574 . S
C861 C880 1.368 . S
C861 H885 0.949 . S
H862 C866 0.949 . S
C863 C864 1.349 . S
C863 C865 1.327 . S
C863 H886 0.950 . S
C864 C863 1.349 . S
C864 C876 1.349 . S
C865 C863 1.327 . S
C865 C881 1.429 . S
C865 H887 0.950 . S
C866 H862 0.949 . S
C866 C874 1.574 . S
C866 C882 1.368 . S
H867 C875 0.950 . S
H868 C873 0.950 . S
H869 C874 0.949 . S
H870 C876 0.950 . S
H871 C877 0.950 . S
H872 C878 0.949 . S
C873 H868 0.950 . S
C873 C875 1.327 . S
C873 C879 1.429 . S
C874 C866 1.574 . S
C874 H869 0.949 . S
C874 C880 1.368 . S
C875 C859 1.349 . S
C875 H867 0.950 . S
C875 C873 1.327 . S
C876 C864 1.349 . S
C876 H870 0.950 . S
C876 C877 1.327 . S
C877 H871 0.950 . S
C877 C876 1.327 . S
C877 C881 1.429 . S
C878 C861 1.574 . S
C878 H872 0.949 . S
C878 C882 1.368 . S
C879 C860 1.429 . S
C879 C873 1.429 . S
C879 C880 1.523 . S
C880 C861 1.368 . S
C880 C874 1.368 . S
C880 C879 1.523 . S
C881 C865 1.429 . S
C881 C877 1.429 . S
C881 C882 1.523 . S
C882 C866 1.368 . S
C882 C878 1.368 . S
C882 C881 1.523 . S
H883 C858 0.950 . S
H884 C860 0.950 . S
H885 C861 0.949 . S
H886 C863 0.950 . S
H887 C865 0.950 . S
C888 C889 1.349 . S
C888 C890 1.327 . S
C888 H913 0.950 . S
C889 C888 1.349 . S
C889 C905 1.349 . S
C890 C888 1.327 . S
C890 C909 1.429 . S
C890 H914 0.950 . S
C891 C908 1.574 . S
C891 C910 1.368 . S
C891 H915 0.949 . S
H892 C896 0.949 . S
C893 C894 1.349 . S
C893 C895 1.327 . S
C893 H916 0.950 . S
C894 C893 1.349 . S
C894 C906 1.349 . S
C895 C893 1.327 . S
C895 C911 1.429 . S
C895 H917 0.950 . S
C896 H892 0.949 . S
C896 C904 1.574 . S
C896 C912 1.368 . S
H897 C905 0.950 . S
H898 C903 0.950 . S
H899 C904 0.949 . S
H900 C906 0.950 . S
H901 C907 0.950 . S
H902 C908 0.949 . S
C903 H898 0.950 . S
C903 C905 1.327 . S
C903 C909 1.429 . S
C904 C896 1.574 . S
C904 H899 0.949 . S
C904 C910 1.368 . S
C905 C889 1.349 . S
C905 H897 0.950 . S
C905 C903 1.327 . S
C906 C894 1.349 . S
C906 H900 0.950 . S
C906 C907 1.327 . S
C907 H901 0.950 . S
C907 C906 1.327 . S
C907 C911 1.429 . S
C908 C891 1.574 . S
C908 H902 0.949 . S
C908 C912 1.368 . S
C909 C890 1.429 . S
C909 C903 1.429 . S
C909 C910 1.523 . S
C910 C891 1.368 . S
C910 C904 1.368 . S
C910 C909 1.523 . S
C911 C895 1.429 . S
C911 C907 1.429 . S
C911 C912 1.523 . S
C912 C896 1.368 . S
C912 C908 1.368 . S
C912 C911 1.523 . S
H913 C888 0.950 . S
H914 C890 0.950 . S
H915 C891 0.949 . S
H916 C893 0.950 . S
H917 C895 0.950 . S
C918 C919 1.349 . S
C918 C920 1.327 . S
C918 H943 0.950 . S
C919 C918 1.349 . S
C919 C935 1.349 . S
C920 C918 1.327 . S
C920 C939 1.429 . S
C920 H944 0.950 . S
C921 C938 1.574 . S
C921 C940 1.368 . S
C921 H945 0.949 . S
H922 C926 0.949 . S
C923 C924 1.349 . S
C923 C925 1.327 . S
C923 H946 0.950 . S
C924 C923 1.349 . S
C924 C936 1.349 . S
C925 C923 1.327 . S
C925 C941 1.429 . S
C925 H947 0.950 . S
C926 H922 0.949 . S
C926 C934 1.574 . S
C926 C942 1.368 . S
H927 C935 0.950 . S
H928 C933 0.950 . S
H929 C934 0.949 . S
H930 C936 0.950 . S
H931 C937 0.950 . S
H932 C938 0.949 . S
C933 H928 0.950 . S
C933 C935 1.327 . S
C933 C939 1.429 . S
C934 C926 1.574 . S
C934 H929 0.949 . S
C934 C940 1.368 . S
C935 C919 1.349 . S
C935 H927 0.950 . S
C935 C933 1.327 . S
C936 C924 1.349 . S
C936 H930 0.950 . S
C936 C937 1.327 . S
C937 H931 0.950 . S
C937 C936 1.327 . S
C937 C941 1.429 . S
C938 C921 1.574 . S
C938 H932 0.949 . S
C938 C942 1.368 . S
C939 C920 1.429 . S
C939 C933 1.429 . S
C939 C940 1.523 . S
C940 C921 1.368 . S
C940 C934 1.368 . S
C940 C939 1.523 . S
C941 C925 1.429 . S
C941 C937 1.429 . S
C941 C942 1.523 . S
C942 C926 1.368 . S
C942 C938 1.368 . S
C942 C941 1.523 . S
H943 C918 0.950 . S
H944 C920 0.950 . S
H945 C921 0.949 . S
H946 C923 0.950 . S
H947 C925 0.950 . S
C948 C949 1.349 . S
C948 C950 1.327 . S
C948 H973 0.950 . S
C949 C948 1.349 . S
C949 C965 1.349 . S
C950 C948 1.327 . S
C950 C969 1.429 . S
C950 H974 0.950 . S
C951 C968 1.574 . S
C951 C970 1.368 . S
C951 H975 0.949 . S
H952 C956 0.949 . S
C953 C954 1.349 . S
C953 C955 1.327 . S
C953 H976 0.950 . S
C954 C953 1.349 . S
C954 C966 1.349 . S
C955 C953 1.327 . S
C955 C971 1.429 . S
C955 H977 0.950 . S
C956 H952 0.949 . S
C956 C964 1.574 . S
C956 C972 1.368 . S
H957 C965 0.950 . S
H958 C963 0.950 . S
H959 C964 0.949 . S
H960 C966 0.950 . S
H961 C967 0.950 . S
H962 C968 0.949 . S
C963 H958 0.950 . S
C963 C965 1.327 . S
C963 C969 1.429 . S
C964 C956 1.574 . S
C964 H959 0.949 . S
C964 C970 1.368 . S
C965 C949 1.349 . S
C965 H957 0.950 . S
C965 C963 1.327 . S
C966 C954 1.349 . S
C966 H960 0.950 . S
C966 C967 1.327 . S
C967 H961 0.950 . S
C967 C966 1.327 . S
C967 C971 1.429 . S
C968 C951 1.574 . S
C968 H962 0.949 . S
C968 C972 1.368 . S
C969 C950 1.429 . S
C969 C963 1.429 . S
C969 C970 1.523 . S
C970 C951 1.368 . S
C970 C964 1.368 . S
C970 C969 1.523 . S
C971 C955 1.429 . S
C971 C967 1.429 . S
C971 C972 1.523 . S
C972 C956 1.368 . S
C972 C968 1.368 . S
C972 C971 1.523 . S
H973 C948 0.950 . S
H974 C950 0.950 . S
H975 C951 0.949 . S
H976 C953 0.950 . S
H977 C955 0.950 . S
C978 C979 1.349 . S
C978 C980 1.327 . S
C978 H1003 0.950 . S
C979 C978 1.349 . S
C979 C995 1.349 . S
C980 C978 1.327 . S
C980 C999 1.429 . S
C980 H1004 0.950 . S
C981 C998 1.574 . S
C981 C1000 1.368 . S
C981 H1005 0.949 . S
H982 C986 0.949 . S
C983 C984 1.349 . S
C983 C985 1.327 . S
C983 H1006 0.950 . S
C984 C983 1.349 . S
C984 C996 1.349 . S
C985 C983 1.327 . S
C985 C1001 1.429 . S
C985 H1007 0.950 . S
C986 H982 0.949 . S
C986 C994 1.574 . S
C986 C1002 1.368 . S
H987 C995 0.950 . S
H988 C993 0.950 . S
H989 C994 0.949 . S
H990 C996 0.950 . S
H991 C997 0.950 . S
H992 C998 0.949 . S
C993 H988 0.950 . S
C993 C995 1.327 . S
C993 C999 1.429 . S
C994 C986 1.574 . S
C994 H989 0.949 . S
C994 C1000 1.368 . S
C995 C979 1.349 . S
C995 H987 0.950 . S
C995 C993 1.327 . S
C996 C984 1.349 . S
C996 H990 0.950 . S
C996 C997 1.327 . S
C997 H991 0.950 . S
C997 C996 1.327 . S
C997 C1001 1.429 . S
C998 C981 1.574 . S
C998 H992 0.949 . S
C998 C1002 1.368 . S
C999 C980 1.429 . S
C999 C993 1.429 . S
C999 C1000 1.523 . S
C1000 C981 1.368 . S
C1000 C994 1.368 . S
C1000 C999 1.523 . S
C1001 C985 1.429 . S
C1001 C997 1.429 . S
C1001 C1002 1.523 . S
C1002 C986 1.368 . S
C1002 C998 1.368 . S
C1002 C1001 1.523 . S
H1003 C978 0.950 . S
H1004 C980 0.950 . S
H1005 C981 0.949 . S
H1006 C983 0.950 . S
H1007 C985 0.950 . S
C1008 C1009 1.349 . S
C1008 C1010 1.327 . S
C1008 H1033 0.950 . S
C1009 C1008 1.349 . S
C1009 C1025 1.349 . S
C1010 C1008 1.327 . S
C1010 C1029 1.429 . S
C1010 H1034 0.950 . S
C1011 C1028 1.574 . S
C1011 C1030 1.368 . S
C1011 H1035 0.949 . S
H1012 C1016 0.949 . S
C1013 C1014 1.349 . S
C1013 C1015 1.327 . S
C1013 H1036 0.950 . S
C1014 C1013 1.349 . S
C1014 C1026 1.349 . S
C1015 C1013 1.327 . S
C1015 C1031 1.429 . S
C1015 H1037 0.950 . S
C1016 H1012 0.949 . S
C1016 C1024 1.574 . S
C1016 C1032 1.368 . S
H1017 C1025 0.950 . S
H1018 C1023 0.950 . S
H1019 C1024 0.949 . S
H1020 C1026 0.950 . S
H1021 C1027 0.950 . S
H1022 C1028 0.949 . S
C1023 H1018 0.950 . S
C1023 C1025 1.327 . S
C1023 C1029 1.429 . S
C1024 C1016 1.574 . S
C1024 H1019 0.949 . S
C1024 C1030 1.368 . S
C1025 C1009 1.349 . S
C1025 H1017 0.950 . S
C1025 C1023 1.327 . S
C1026 C1014 1.349 . S
C1026 H1020 0.950 . S
C1026 C1027 1.327 . S
C1027 H1021 0.950 . S
C1027 C1026 1.327 . S
C1027 C1031 1.429 . S
C1028 C1011 1.574 . S
C1028 H1022 0.949 . S
C1028 C1032 1.368 . S
C1029 C1010 1.429 . S
C1029 C1023 1.429 . S
C1029 C1030 1.523 . S
C1030 C1011 1.368 . S
C1030 C1024 1.368 . S
C1030 C1029 1.523 . S
C1031 C1015 1.429 . S
C1031 C1027 1.429 . S
C1031 C1032 1.523 . S
C1032 C1016 1.368 . S
C1032 C1028 1.368 . S
C1032 C1031 1.523 . S
H1033 C1008 0.950 . S
H1034 C1010 0.950 . S
H1035 C1011 0.949 . S
H1036 C1013 0.950 . S
H1037 C1015 0.950 . S
C1038 C1039 1.349 . S
C1038 C1040 1.327 . S
C1038 H1063 0.950 . S
C1039 C1038 1.349 . S
C1039 C1055 1.349 . S
C1040 C1038 1.327 . S
C1040 C1059 1.429 . S
C1040 H1064 0.950 . S
C1041 C1058 1.574 . S
C1041 C1060 1.368 . S
C1041 H1065 0.949 . S
H1042 C1046 0.949 . S
C1043 C1044 1.349 . S
C1043 C1045 1.327 . S
C1043 H1066 0.950 . S
C1044 C1043 1.349 . S
C1044 C1056 1.349 . S
C1045 C1043 1.327 . S
C1045 C1061 1.429 . S
C1045 H1067 0.950 . S
C1046 H1042 0.949 . S
C1046 C1054 1.574 . S
C1046 C1062 1.368 . S
H1047 C1055 0.950 . S
H1048 C1053 0.950 . S
H1049 C1054 0.949 . S
H1050 C1056 0.950 . S
H1051 C1057 0.950 . S
H1052 C1058 0.949 . S
C1053 H1048 0.950 . S
C1053 C1055 1.327 . S
C1053 C1059 1.429 . S
C1054 C1046 1.574 . S
C1054 H1049 0.949 . S
C1054 C1060 1.368 . S
C1055 C1039 1.349 . S
C1055 H1047 0.950 . S
C1055 C1053 1.327 . S
C1056 C1044 1.349 . S
C1056 H1050 0.950 . S
C1056 C1057 1.327 . S
C1057 H1051 0.950 . S
C1057 C1056 1.327 . S
C1057 C1061 1.429 . S
C1058 C1041 1.574 . S
C1058 H1052 0.949 . S
C1058 C1062 1.368 . S
C1059 C1040 1.429 . S
C1059 C1053 1.429 . S
C1059 C1060 1.523 . S
C1060 C1041 1.368 . S
C1060 C1054 1.368 . S
C1060 C1059 1.523 . S
C1061 C1045 1.429 . S
C1061 C1057 1.429 . S
C1061 C1062 1.523 . S
C1062 C1046 1.368 . S
C1062 C1058 1.368 . S
C1062 C1061 1.523 . S
H1063 C1038 0.950 . S
H1064 C1040 0.950 . S
H1065 C1041 0.949 . S
H1066 C1043 0.950 . S
H1067 C1045 0.950 . S
C1068 C1069 1.349 . S
C1068 C1070 1.327 . S
C1068 H1093 0.950 . S
C1069 C1068 1.349 . S
C1069 C1085 1.349 . S
C1070 C1068 1.327 . S
C1070 C1089 1.429 . S
C1070 H1094 0.950 . S
C1071 C1088 1.574 . S
C1071 C1090 1.368 . S
C1071 H1095 0.949 . S
H1072 C1076 0.949 . S
C1073 C1074 1.349 . S
C1073 C1075 1.327 . S
C1073 H1096 0.950 . S
C1074 C1073 1.349 . S
C1074 C1086 1.349 . S
C1075 C1073 1.327 . S
C1075 C1091 1.429 . S
C1075 H1097 0.950 . S
C1076 H1072 0.949 . S
C1076 C1084 1.574 . S
C1076 C1092 1.368 . S
H1077 C1085 0.950 . S
H1078 C1083 0.950 . S
H1079 C1084 0.949 . S
H1080 C1086 0.950 . S
H1081 C1087 0.950 . S
H1082 C1088 0.949 . S
C1083 H1078 0.950 . S
C1083 C1085 1.327 . S
C1083 C1089 1.429 . S
C1084 C1076 1.574 . S
C1084 H1079 0.949 . S
C1084 C1090 1.368 . S
C1085 C1069 1.349 . S
C1085 H1077 0.950 . S
C1085 C1083 1.327 . S
C1086 C1074 1.349 . S
C1086 H1080 0.950 . S
C1086 C1087 1.327 . S
C1087 H1081 0.950 . S
C1087 C1086 1.327 . S
C1087 C1091 1.429 . S
C1088 C1071 1.574 . S
C1088 H1082 0.949 . S
C1088 C1092 1.368 . S
C1089 C1070 1.429 . S
C1089 C1083 1.429 . S
C1089 C1090 1.523 . S
C1090 C1071 1.368 . S
C1090 C1084 1.368 . S
C1090 C1089 1.523 . S
C1091 C1075 1.429 . S
C1091 C1087 1.429 . S
C1091 C1092 1.523 . S
C1092 C1076 1.368 . S
C1092 C1088 1.368 . S
C1092 C1091 1.523 . S
H1093 C1068 0.950 . S
H1094 C1070 0.950 . S
H1095 C1071 0.949 . S
H1096 C1073 0.950 . S
H1097 C1075 0.950 . S
C1098 C1099 1.349 . S
C1098 C1100 1.327 . S
C1098 H1123 0.950 . S
C1099 C1098 1.349 . S
C1099 C1115 1.349 . S
C1100 C1098 1.327 . S
C1100 C1119 1.429 . S
C1100 H1124 0.950 . S
C1101 C1118 1.574 . S
C1101 C1120 1.368 . S
C1101 H1125 0.949 . S
H1102 C1106 0.949 . S
C1103 C1104 1.349 . S
C1103 C1105 1.327 . S
C1103 H1126 0.950 . S
C1104 C1103 1.349 . S
C1104 C1116 1.349 . S
C1105 C1103 1.327 . S
C1105 C1121 1.429 . S
C1105 H1127 0.950 . S
C1106 H1102 0.949 . S
C1106 C1114 1.574 . S
C1106 C1122 1.368 . S
H1107 C1115 0.950 . S
H1108 C1113 0.950 . S
H1109 C1114 0.949 . S
H1110 C1116 0.950 . S
H1111 C1117 0.950 . S
H1112 C1118 0.949 . S
C1113 H1108 0.950 . S
C1113 C1115 1.327 . S
C1113 C1119 1.429 . S
C1114 C1106 1.574 . S
C1114 H1109 0.949 . S
C1114 C1120 1.368 . S
C1115 C1099 1.349 . S
C1115 H1107 0.950 . S
C1115 C1113 1.327 . S
C1116 C1104 1.349 . S
C1116 H1110 0.950 . S
C1116 C1117 1.327 . S
C1117 H1111 0.950 . S
C1117 C1116 1.327 . S
C1117 C1121 1.429 . S
C1118 C1101 1.574 . S
C1118 H1112 0.949 . S
C1118 C1122 1.368 . S
C1119 C1100 1.429 . S
C1119 C1113 1.429 . S
C1119 C1120 1.523 . S
C1120 C1101 1.368 . S
C1120 C1114 1.368 . S
C1120 C1119 1.523 . S
C1121 C1105 1.429 . S
C1121 C1117 1.429 . S
C1121 C1122 1.523 . S
C1122 C1106 1.368 . S
C1122 C1118 1.368 . S
C1122 C1121 1.523 . S
H1123 C1098 0.950 . S
H1124 C1100 0.950 . S
H1125 C1101 0.949 . S
H1126 C1103 0.950 . S
H1127 C1105 0.950 . S
C1128 C1129 1.349 . S
C1128 C1130 1.327 . S
C1128 H1153 0.950 . S
C1129 C1128 1.349 . S
C1129 C1145 1.349 . S
C1130 C1128 1.327 . S
C1130 C1149 1.429 . S
C1130 H1154 0.950 . S
C1131 C1148 1.574 . S
C1131 C1150 1.368 . S
C1131 H1155 0.949 . S
H1132 C1136 0.949 . S
C1133 C1134 1.349 . S
C1133 C1135 1.327 . S
C1133 H1156 0.950 . S
C1134 C1133 1.349 . S
C1134 C1146 1.349 . S
C1135 C1133 1.327 . S
C1135 C1151 1.429 . S
C1135 H1157 0.950 . S
C1136 H1132 0.949 . S
C1136 C1144 1.574 . S
C1136 C1152 1.368 . S
H1137 C1145 0.950 . S
H1138 C1143 0.950 . S
H1139 C1144 0.949 . S
H1140 C1146 0.950 . S
H1141 C1147 0.950 . S
H1142 C1148 0.949 . S
C1143 H1138 0.950 . S
C1143 C1145 1.327 . S
C1143 C1149 1.429 . S
C1144 C1136 1.574 . S
C1144 H1139 0.949 . S
C1144 C1150 1.368 . S
C1145 C1129 1.349 . S
C1145 H1137 0.950 . S
C1145 C1143 1.327 . S
C1146 C1134 1.349 . S
C1146 H1140 0.950 . S
C1146 C1147 1.327 . S
C1147 H1141 0.950 . S
C1147 C1146 1.327 . S
C1147 C1151 1.429 . S
C1148 C1131 1.574 . S
C1148 H1142 0.949 . S
C1148 C1152 1.368 . S
C1149 C1130 1.429 . S
C1149 C1143 1.429 . S
C1149 C1150 1.523 . S
C1150 C1131 1.368 . S
C1150 C1144 1.368 . S
C1150 C1149 1.523 . S
C1151 C1135 1.429 . S
C1151 C1147 1.429 . S
C1151 C1152 1.523 . S
C1152 C1136 1.368 . S
C1152 C1148 1.368 . S
C1152 C1151 1.523 . S
H1153 C1128 0.950 . S
H1154 C1130 0.950 . S
H1155 C1131 0.949 . S
H1156 C1133 0.950 . S
H1157 C1135 0.950 . S
C1158 C1159 1.349 . S
C1158 C1160 1.327 . S
C1158 H1183 0.950 . S
C1159 C1158 1.349 . S
C1159 C1175 1.349 . S
C1160 C1158 1.327 . S
C1160 C1179 1.429 . S
C1160 H1184 0.950 . S
C1161 C1178 1.574 . S
C1161 C1180 1.368 . S
C1161 H1185 0.949 . S
H1162 C1166 0.949 . S
C1163 C1164 1.349 . S
C1163 C1165 1.327 . S
C1163 H1186 0.950 . S
C1164 C1163 1.349 . S
C1164 C1176 1.349 . S
C1165 C1163 1.327 . S
C1165 C1181 1.429 . S
C1165 H1187 0.950 . S
C1166 H1162 0.949 . S
C1166 C1174 1.574 . S
C1166 C1182 1.368 . S
H1167 C1175 0.950 . S
H1168 C1173 0.950 . S
H1169 C1174 0.949 . S
H1170 C1176 0.950 . S
H1171 C1177 0.950 . S
H1172 C1178 0.949 . S
C1173 H1168 0.950 . S
C1173 C1175 1.327 . S
C1173 C1179 1.429 . S
C1174 C1166 1.574 . S
C1174 H1169 0.949 . S
C1174 C1180 1.368 . S
C1175 C1159 1.349 . S
C1175 H1167 0.950 . S
C1175 C1173 1.327 . S
C1176 C1164 1.349 . S
C1176 H1170 0.950 . S
C1176 C1177 1.327 . S
C1177 H1171 0.950 . S
C1177 C1176 1.327 . S
C1177 C1181 1.429 . S
C1178 C1161 1.574 . S
C1178 H1172 0.949 . S
C1178 C1182 1.368 . S
C1179 C1160 1.429 . S
C1179 C1173 1.429 . S
C1179 C1180 1.523 . S
C1180 C1161 1.368 . S
C1180 C1174 1.368 . S
C1180 C1179 1.523 . S
C1181 C1165 1.429 . S
C1181 C1177 1.429 . S
C1181 C1182 1.523 . S
C1182 C1166 1.368 . S
C1182 C1178 1.368 . S
C1182 C1181 1.523 . S
H1183 C1158 0.950 . S
H1184 C1160 0.950 . S
H1185 C1161 0.949 . S
H1186 C1163 0.950 . S
H1187 C1165 0.950 . S
C1188 C1189 1.349 . S
C1188 C1190 1.327 . S
C1188 H1213 0.950 . S
C1189 C1188 1.349 . S
C1189 C1205 1.349 . S
C1190 C1188 1.327 . S
C1190 C1209 1.429 . S
C1190 H1214 0.950 . S
C1191 C1208 1.574 . S
C1191 C1210 1.368 . S
C1191 H1215 0.949 . S
H1192 C1196 0.949 . S
C1193 C1194 1.349 . S
C1193 C1195 1.327 . S
C1193 H1216 0.950 . S
C1194 C1193 1.349 . S
C1194 C1206 1.349 . S
C1195 C1193 1.327 . S
C1195 C1211 1.429 . S
C1195 H1217 0.950 . S
C1196 H1192 0.949 . S
C1196 C1204 1.574 . S
C1196 C1212 1.368 . S
H1197 C1205 0.950 . S
H1198 C1203 0.950 . S
H1199 C1204 0.949 . S
H1200 C1206 0.950 . S
H1201 C1207 0.950 . S
H1202 C1208 0.949 . S
C1203 H1198 0.950 . S
C1203 C1205 1.327 . S
C1203 C1209 1.429 . S
C1204 C1196 1.574 . S
C1204 H1199 0.949 . S
C1204 C1210 1.368 . S
C1205 C1189 1.349 . S
C1205 H1197 0.950 . S
C1205 C1203 1.327 . S
C1206 C1194 1.349 . S
C1206 H1200 0.950 . S
C1206 C1207 1.327 . S
C1207 H1201 0.950 . S
C1207 C1206 1.327 . S
C1207 C1211 1.429 . S
C1208 C1191 1.574 . S
C1208 H1202 0.949 . S
C1208 C1212 1.368 . S
C1209 C1190 1.429 . S
C1209 C1203 1.429 . S
C1209 C1210 1.523 . S
C1210 C1191 1.368 . S
C1210 C1204 1.368 . S
C1210 C1209 1.523 . S
C1211 C1195 1.429 . S
C1211 C1207 1.429 . S
C1211 C1212 1.523 . S
C1212 C1196 1.368 . S
C1212 C1208 1.368 . S
C1212 C1211 1.523 . S
H1213 C1188 0.950 . S
H1214 C1190 0.950 . S
H1215 C1191 0.949 . S
H1216 C1193 0.950 . S
H1217 C1195 0.950 . S
C1218 C1219 1.349 . S
C1218 C1220 1.327 . S
C1218 H1243 0.950 . S
C1219 C1218 1.349 . S
C1219 C1235 1.349 . S
C1220 C1218 1.327 . S
C1220 C1239 1.429 . S
C1220 H1244 0.950 . S
C1221 C1238 1.574 . S
C1221 C1240 1.368 . S
C1221 H1245 0.949 . S
H1222 C1226 0.949 . S
C1223 C1224 1.349 . S
C1223 C1225 1.327 . S
C1223 H1246 0.950 . S
C1224 C1223 1.349 . S
C1224 C1236 1.349 . S
C1225 C1223 1.327 . S
C1225 C1241 1.429 . S
C1225 H1247 0.950 . S
C1226 H1222 0.949 . S
C1226 C1234 1.574 . S
C1226 C1242 1.368 . S
H1227 C1235 0.950 . S
H1228 C1233 0.950 . S
H1229 C1234 0.949 . S
H1230 C1236 0.950 . S
H1231 C1237 0.950 . S
H1232 C1238 0.949 . S
C1233 H1228 0.950 . S
C1233 C1235 1.327 . S
C1233 C1239 1.429 . S
C1234 C1226 1.574 . S
C1234 H1229 0.949 . S
C1234 C1240 1.368 . S
C1235 C1219 1.349 . S
C1235 H1227 0.950 . S
C1235 C1233 1.327 . S
C1236 C1224 1.349 . S
C1236 H1230 0.950 . S
C1236 C1237 1.327 . S
C1237 H1231 0.950 . S
C1237 C1236 1.327 . S
C1237 C1241 1.429 . S
C1238 C1221 1.574 . S
C1238 H1232 0.949 . S
C1238 C1242 1.368 . S
C1239 C1220 1.429 . S
C1239 C1233 1.429 . S
C1239 C1240 1.523 . S
C1240 C1221 1.368 . S
C1240 C1234 1.368 . S
C1240 C1239 1.523 . S
C1241 C1225 1.429 . S
C1241 C1237 1.429 . S
C1241 C1242 1.523 . S
C1242 C1226 1.368 . S
C1242 C1238 1.368 . S
C1242 C1241 1.523 . S
H1243 C1218 0.950 . S
H1244 C1220 0.950 . S
H1245 C1221 0.949 . S
H1246 C1223 0.950 . S
H1247 C1225 0.950 . S
C1248 C1249 1.349 . S
C1248 C1250 1.327 . S
C1248 H1273 0.950 . S
C1249 C1248 1.349 . S
C1249 C1265 1.349 . S
C1250 C1248 1.327 . S
C1250 C1269 1.429 . S
C1250 H1274 0.950 . S
C1251 C1268 1.574 . S
C1251 C1270 1.368 . S
C1251 H1275 0.949 . S
H1252 C1256 0.949 . S
C1253 C1254 1.349 . S
C1253 C1255 1.327 . S
C1253 H1276 0.950 . S
C1254 C1253 1.349 . S
C1254 C1266 1.349 . S
C1255 C1253 1.327 . S
C1255 C1271 1.429 . S
C1255 H1277 0.950 . S
C1256 H1252 0.949 . S
C1256 C1264 1.574 . S
C1256 C1272 1.368 . S
H1257 C1265 0.950 . S
H1258 C1263 0.950 . S
H1259 C1264 0.949 . S
H1260 C1266 0.950 . S
H1261 C1267 0.950 . S
H1262 C1268 0.949 . S
C1263 H1258 0.950 . S
C1263 C1265 1.327 . S
C1263 C1269 1.429 . S
C1264 C1256 1.574 . S
C1264 H1259 0.949 . S
C1264 C1270 1.368 . S
C1265 C1249 1.349 . S
C1265 H1257 0.950 . S
C1265 C1263 1.327 . S
C1266 C1254 1.349 . S
C1266 H1260 0.950 . S
C1266 C1267 1.327 . S
C1267 H1261 0.950 . S
C1267 C1266 1.327 . S
C1267 C1271 1.429 . S
C1268 C1251 1.574 . S
C1268 H1262 0.949 . S
C1268 C1272 1.368 . S
C1269 C1250 1.429 . S
C1269 C1263 1.429 . S
C1269 C1270 1.523 . S
C1270 C1251 1.368 . S
C1270 C1264 1.368 . S
C1270 C1269 1.523 . S
C1271 C1255 1.429 . S
C1271 C1267 1.429 . S
C1271 C1272 1.523 . S
C1272 C1256 1.368 . S
C1272 C1268 1.368 . S
C1272 C1271 1.523 . S
H1273 C1248 0.950 . S
H1274 C1250 0.950 . S
H1275 C1251 0.949 . S
H1276 C1253 0.950 . S
H1277 C1255 0.950 . S
C1278 C1279 1.349 . S
C1278 C1280 1.327 . S
C1278 H1303 0.950 . S
C1279 C1278 1.349 . S
C1279 C1295 1.349 . S
C1280 C1278 1.327 . S
C1280 C1299 1.429 . S
C1280 H1304 0.950 . S
C1281 C1298 1.574 . S
C1281 C1300 1.368 . S
C1281 H1305 0.949 . S
H1282 C1286 0.949 . S
C1283 C1284 1.349 . S
C1283 C1285 1.327 . S
C1283 H1306 0.950 . S
C1284 C1283 1.349 . S
C1284 C1296 1.349 . S
C1285 C1283 1.327 . S
C1285 C1301 1.429 . S
C1285 H1307 0.950 . S
C1286 H1282 0.949 . S
C1286 C1294 1.574 . S
C1286 C1302 1.368 . S
H1287 C1295 0.950 . S
H1288 C1293 0.950 . S
H1289 C1294 0.949 . S
H1290 C1296 0.950 . S
H1291 C1297 0.950 . S
H1292 C1298 0.949 . S
C1293 H1288 0.950 . S
C1293 C1295 1.327 . S
C1293 C1299 1.429 . S
C1294 C1286 1.574 . S
C1294 H1289 0.949 . S
C1294 C1300 1.368 . S
C1295 C1279 1.349 . S
C1295 H1287 0.950 . S
C1295 C1293 1.327 . S
C1296 C1284 1.349 . S
C1296 H1290 0.950 . S
C1296 C1297 1.327 . S
C1297 H1291 0.950 . S
C1297 C1296 1.327 . S
C1297 C1301 1.429 . S
C1298 C1281 1.574 . S
C1298 H1292 0.949 . S
C1298 C1302 1.368 . S
C1299 C1280 1.429 . S
C1299 C1293 1.429 . S
C1299 C1300 1.523 . S
C1300 C1281 1.368 . S
C1300 C1294 1.368 . S
C1300 C1299 1.523 . S
C1301 C1285 1.429 . S
C1301 C1297 1.429 . S
C1301 C1302 1.523 . S
C1302 C1286 1.368 . S
C1302 C1298 1.368 . S
C1302 C1301 1.523 . S
H1303 C1278 0.950 . S
H1304 C1280 0.950 . S
H1305 C1281 0.949 . S
H1306 C1283 0.950 . S
H1307 C1285 0.950 . S
C1308 C1309 1.349 . S
C1308 C1310 1.327 . S
C1308 H1333 0.950 . S
C1309 C1308 1.349 . S
C1309 C1325 1.349 . S
C1310 C1308 1.327 . S
C1310 C1329 1.429 . S
C1310 H1334 0.950 . S
C1311 C1328 1.574 . S
C1311 C1330 1.368 . S
C1311 H1335 0.949 . S
H1312 C1316 0.949 . S
C1313 C1314 1.349 . S
C1313 C1315 1.327 . S
C1313 H1336 0.950 . S
C1314 C1313 1.349 . S
C1314 C1326 1.349 . S
C1315 C1313 1.327 . S
C1315 C1331 1.429 . S
C1315 H1337 0.950 . S
C1316 H1312 0.949 . S
C1316 C1324 1.574 . S
C1316 C1332 1.368 . S
H1317 C1325 0.950 . S
H1318 C1323 0.950 . S
H1319 C1324 0.949 . S
H1320 C1326 0.950 . S
H1321 C1327 0.950 . S
H1322 C1328 0.949 . S
C1323 H1318 0.950 . S
C1323 C1325 1.327 . S
C1323 C1329 1.429 . S
C1324 C1316 1.574 . S
C1324 H1319 0.949 . S
C1324 C1330 1.368 . S
C1325 C1309 1.349 . S
C1325 H1317 0.950 . S
C1325 C1323 1.327 . S
C1326 C1314 1.349 . S
C1326 H1320 0.950 . S
C1326 C1327 1.327 . S
C1327 H1321 0.950 . S
C1327 C1326 1.327 . S
C1327 C1331 1.429 . S
C1328 C1311 1.574 . S
C1328 H1322 0.949 . S
C1328 C1332 1.368 . S
C1329 C1310 1.429 . S
C1329 C1323 1.429 . S
C1329 C1330 1.523 . S
C1330 C1311 1.368 . S
C1330 C1324 1.368 . S
C1330 C1329 1.523 . S
C1331 C1315 1.429 . S
C1331 C1327 1.429 . S
C1331 C1332 1.523 . S
C1332 C1316 1.368 . S
C1332 C1328 1.368 . S
C1332 C1331 1.523 . S
H1333 C1308 0.950 . S
H1334 C1310 0.950 . S
H1335 C1311 0.949 . S
H1336 C1313 0.950 . S
H1337 C1315 0.950 . S
C1338 C1339 1.349 . S
C1338 C1340 1.327 . S
C1338 H1363 0.950 . S
C1339 C1338 1.349 . S
C1339 C1355 1.349 . S
C1340 C1338 1.327 . S
C1340 C1359 1.429 . S
C1340 H1364 0.950 . S
C1341 C1358 1.574 . S
C1341 C1360 1.368 . S
C1341 H1365 0.949 . S
H1342 C1346 0.949 . S
C1343 C1344 1.349 . S
C1343 C1345 1.327 . S
C1343 H1366 0.950 . S
C1344 C1343 1.349 . S
C1344 C1356 1.349 . S
C1345 C1343 1.327 . S
C1345 C1361 1.429 . S
C1345 H1367 0.950 . S
C1346 H1342 0.949 . S
C1346 C1354 1.574 . S
C1346 C1362 1.368 . S
H1347 C1355 0.950 . S
H1348 C1353 0.950 . S
H1349 C1354 0.949 . S
H1350 C1356 0.950 . S
H1351 C1357 0.950 . S
H1352 C1358 0.949 . S
C1353 H1348 0.950 . S
C1353 C1355 1.327 . S
C1353 C1359 1.429 . S
C1354 C1346 1.574 . S
C1354 H1349 0.949 . S
C1354 C1360 1.368 . S
C1355 C1339 1.349 . S
C1355 H1347 0.950 . S
C1355 C1353 1.327 . S
C1356 C1344 1.349 . S
C1356 H1350 0.950 . S
C1356 C1357 1.327 . S
C1357 H1351 0.950 . S
C1357 C1356 1.327 . S
C1357 C1361 1.429 . S
C1358 C1341 1.574 . S
C1358 H1352 0.949 . S
C1358 C1362 1.368 . S
C1359 C1340 1.429 . S
C1359 C1353 1.429 . S
C1359 C1360 1.523 . S
C1360 C1341 1.368 . S
C1360 C1354 1.368 . S
C1360 C1359 1.523 . S
C1361 C1345 1.429 . S
C1361 C1357 1.429 . S
C1361 C1362 1.523 . S
C1362 C1346 1.368 . S
C1362 C1358 1.368 . S
C1362 C1361 1.523 . S
H1363 C1338 0.950 . S
H1364 C1340 0.950 . S
H1365 C1341 0.949 . S
H1366 C1343 0.950 . S
H1367 C1345 0.950 . S
C1368 C1369 1.349 . S
C1368 C1370 1.327 . S
C1368 H1393 0.950 . S
C1369 C1368 1.349 . S
C1369 C1385 1.349 . S
C1370 C1368 1.327 . S
C1370 C1389 1.429 . S
C1370 H1394 0.950 . S
C1371 C1388 1.574 . S
C1371 C1390 1.368 . S
C1371 H1395 0.949 . S
H1372 C1376 0.949 . S
C1373 C1374 1.349 . S
C1373 C1375 1.327 . S
C1373 H1396 0.950 . S
C1374 C1373 1.349 . S
C1374 C1386 1.349 . S
C1375 C1373 1.327 . S
C1375 C1391 1.429 . S
C1375 H1397 0.950 . S
C1376 H1372 0.949 . S
C1376 C1384 1.574 . S
C1376 C1392 1.368 . S
H1377 C1385 0.950 . S
H1378 C1383 0.950 . S
H1379 C1384 0.949 . S
H1380 C1386 0.950 . S
H1381 C1387 0.950 . S
H1382 C1388 0.949 . S
C1383 H1378 0.950 . S
C1383 C1385 1.327 . S
C1383 C1389 1.429 . S
C1384 C1376 1.574 . S
C1384 H1379 0.949 . S
C1384 C1390 1.368 . S
C1385 C1369 1.349 . S
C1385 H1377 0.950 . S
C1385 C1383 1.327 . S
C1386 C1374 1.349 . S
C1386 H1380 0.950 . S
C1386 C1387 1.327 . S
C1387 H1381 0.950 . S
C1387 C1386 1.327 . S
C1387 C1391 1.429 . S
C1388 C1371 1.574 . S
C1388 H1382 0.949 . S
C1388 C1392 1.368 . S
C1389 C1370 1.429 . S
C1389 C1383 1.429 . S
C1389 C1390 1.523 . S
C1390 C1371 1.368 . S
C1390 C1384 1.368 . S
C1390 C1389 1.523 . S
C1391 C1375 1.429 . S
C1391 C1387 1.429 . S
C1391 C1392 1.523 . S
C1392 C1376 1.368 . S
C1392 C1388 1.368 . S
C1392 C1391 1.523 . S
H1393 C1368 0.950 . S
H1394 C1370 0.950 . S
H1395 C1371 0.949 . S
H1396 C1373 0.950 . S
H1397 C1375 0.950 . S
C1398 C1399 1.349 . S
C1398 C1400 1.327 . S
C1398 H1423 0.950 . S
C1399 C1398 1.349 . S
C1399 C1415 1.349 . S
C1400 C1398 1.327 . S
C1400 C1419 1.429 . S
C1400 H1424 0.950 . S
C1401 C1418 1.574 . S
C1401 C1420 1.368 . S
C1401 H1425 0.949 . S
H1402 C1406 0.949 . S
C1403 C1404 1.349 . S
C1403 C1405 1.327 . S
C1403 H1426 0.950 . S
C1404 C1403 1.349 . S
C1404 C1416 1.349 . S
C1405 C1403 1.327 . S
C1405 C1421 1.429 . S
C1405 H1427 0.950 . S
C1406 H1402 0.949 . S
C1406 C1414 1.574 . S
C1406 C1422 1.368 . S
H1407 C1415 0.950 . S
H1408 C1413 0.950 . S
H1409 C1414 0.949 . S
H1410 C1416 0.950 . S
H1411 C1417 0.950 . S
H1412 C1418 0.949 . S
C1413 H1408 0.950 . S
C1413 C1415 1.327 . S
C1413 C1419 1.429 . S
C1414 C1406 1.574 . S
C1414 H1409 0.949 . S
C1414 C1420 1.368 . S
C1415 C1399 1.349 . S
C1415 H1407 0.950 . S
C1415 C1413 1.327 . S
C1416 C1404 1.349 . S
C1416 H1410 0.950 . S
C1416 C1417 1.327 . S
C1417 H1411 0.950 . S
C1417 C1416 1.327 . S
C1417 C1421 1.429 . S
C1418 C1401 1.574 . S
C1418 H1412 0.949 . S
C1418 C1422 1.368 . S
C1419 C1400 1.429 . S
C1419 C1413 1.429 . S
C1419 C1420 1.523 . S
C1420 C1401 1.368 . S
C1420 C1414 1.368 . S
C1420 C1419 1.523 . S
C1421 C1405 1.429 . S
C1421 C1417 1.429 . S
C1421 C1422 1.523 . S
C1422 C1406 1.368 . S
C1422 C1418 1.368 . S
C1422 C1421 1.523 . S
H1423 C1398 0.950 . S
H1424 C1400 0.950 . S
H1425 C1401 0.949 . S
H1426 C1403 0.950 . S
H1427 C1405 0.950 . S
C1428 C1429 1.349 . S
C1428 C1430 1.327 . S
C1428 H1453 0.950 . S
C1429 C1428 1.349 . S
C1429 C1445 1.349 . S
C1430 C1428 1.327 . S
C1430 C1449 1.429 . S
C1430 H1454 0.950 . S
C1431 C1448 1.574 . S
C1431 C1450 1.368 . S
C1431 H1455 0.949 . S
H1432 C1436 0.949 . S
C1433 C1434 1.349 . S
C1433 C1435 1.327 . S
C1433 H1456 0.950 . S
C1434 C1433 1.349 . S
C1434 C1446 1.349 . S
C1435 C1433 1.327 . S
C1435 C1451 1.429 . S
C1435 H1457 0.950 . S
C1436 H1432 0.949 . S
C1436 C1444 1.574 . S
C1436 C1452 1.368 . S
H1437 C1445 0.950 . S
H1438 C1443 0.950 . S
H1439 C1444 0.949 . S
H1440 C1446 0.950 . S
H1441 C1447 0.950 . S
H1442 C1448 0.949 . S
C1443 H1438 0.950 . S
C1443 C1445 1.327 . S
C1443 C1449 1.429 . S
C1444 C1436 1.574 . S
C1444 H1439 0.949 . S
C1444 C1450 1.368 . S
C1445 C1429 1.349 . S
C1445 H1437 0.950 . S
C1445 C1443 1.327 . S
C1446 C1434 1.349 . S
C1446 H1440 0.950 . S
C1446 C1447 1.327 . S
C1447 H1441 0.950 . S
C1447 C1446 1.327 . S
C1447 C1451 1.429 . S
C1448 C1431 1.574 . S
C1448 H1442 0.949 . S
C1448 C1452 1.368 . S
C1449 C1430 1.429 . S
C1449 C1443 1.429 . S
C1449 C1450 1.523 . S
C1450 C1431 1.368 . S
C1450 C1444 1.368 . S
C1450 C1449 1.523 . S
C1451 C1435 1.429 . S
C1451 C1447 1.429 . S
C1451 C1452 1.523 . S
C1452 C1436 1.368 . S
C1452 C1448 1.368 . S
C1452 C1451 1.523 . S
H1453 C1428 0.950 . S
H1454 C1430 0.950 . S
H1455 C1431 0.949 . S
H1456 C1433 0.950 . S
H1457 C1435 0.950 . S
C1458 C1459 1.349 . S
C1458 C1460 1.327 . S
C1458 H1483 0.950 . S
C1459 C1458 1.349 . S
C1459 C1475 1.349 . S
C1460 C1458 1.327 . S
C1460 C1479 1.429 . S
C1460 H1484 0.950 . S
C1461 C1478 1.574 . S
C1461 C1480 1.368 . S
C1461 H1485 0.949 . S
H1462 C1466 0.949 . S
C1463 C1464 1.349 . S
C1463 C1465 1.327 . S
C1463 H1486 0.950 . S
C1464 C1463 1.349 . S
C1464 C1476 1.349 . S
C1465 C1463 1.327 . S
C1465 C1481 1.429 . S
C1465 H1487 0.950 . S
C1466 H1462 0.949 . S
C1466 C1474 1.574 . S
C1466 C1482 1.368 . S
H1467 C1475 0.950 . S
H1468 C1473 0.950 . S
H1469 C1474 0.949 . S
H1470 C1476 0.950 . S
H1471 C1477 0.950 . S
H1472 C1478 0.949 . S
C1473 H1468 0.950 . S
C1473 C1475 1.327 . S
C1473 C1479 1.429 . S
C1474 C1466 1.574 . S
C1474 H1469 0.949 . S
C1474 C1480 1.368 . S
C1475 C1459 1.349 . S
C1475 H1467 0.950 . S
C1475 C1473 1.327 . S
C1476 C1464 1.349 . S
C1476 H1470 0.950 . S
C1476 C1477 1.327 . S
C1477 H1471 0.950 . S
C1477 C1476 1.327 . S
C1477 C1481 1.429 . S
C1478 C1461 1.574 . S
C1478 H1472 0.949 . S
C1478 C1482 1.368 . S
C1479 C1460 1.429 . S
C1479 C1473 1.429 . S
C1479 C1480 1.523 . S
C1480 C1461 1.368 . S
C1480 C1474 1.368 . S
C1480 C1479 1.523 . S
C1481 C1465 1.429 . S
C1481 C1477 1.429 . S
C1481 C1482 1.523 . S
C1482 C1466 1.368 . S
C1482 C1478 1.368 . S
C1482 C1481 1.523 . S
H1483 C1458 0.950 . S
H1484 C1460 0.950 . S
H1485 C1461 0.949 . S
H1486 C1463 0.950 . S
H1487 C1465 0.950 . S
C1488 C1489 1.349 . S
C1488 C1490 1.327 . S
C1488 H1513 0.950 . S
C1489 C1488 1.349 . S
C1489 C1505 1.349 . S
C1490 C1488 1.327 . S
C1490 C1509 1.429 . S
C1490 H1514 0.950 . S
C1491 C1508 1.574 . S
C1491 C1510 1.368 . S
C1491 H1515 0.949 . S
H1492 C1496 0.949 . S
C1493 C1494 1.349 . S
C1493 C1495 1.327 . S
C1493 H1516 0.950 . S
C1494 C1493 1.349 . S
C1494 C1506 1.349 . S
C1495 C1493 1.327 . S
C1495 C1511 1.429 . S
C1495 H1517 0.950 . S
C1496 H1492 0.949 . S
C1496 C1504 1.574 . S
C1496 C1512 1.368 . S
H1497 C1505 0.950 . S
H1498 C1503 0.950 . S
H1499 C1504 0.949 . S
H1500 C1506 0.950 . S
H1501 C1507 0.950 . S
H1502 C1508 0.949 . S
C1503 H1498 0.950 . S
C1503 C1505 1.327 . S
C1503 C1509 1.429 . S
C1504 C1496 1.574 . S
C1504 H1499 0.949 . S
C1504 C1510 1.368 . S
C1505 C1489 1.349 . S
C1505 H1497 0.950 . S
C1505 C1503 1.327 . S
C1506 C1494 1.349 . S
C1506 H1500 0.950 . S
C1506 C1507 1.327 . S
C1507 H1501 0.950 . S
C1507 C1506 1.327 . S
C1507 C1511 1.429 . S
C1508 C1491 1.574 . S
C1508 H1502 0.949 . S
C1508 C1512 1.368 . S
C1509 C1490 1.429 . S
C1509 C1503 1.429 . S
C1509 C1510 1.523 . S
C1510 C1491 1.368 . S
C1510 C1504 1.368 . S
C1510 C1509 1.523 . S
C1511 C1495 1.429 . S
C1511 C1507 1.429 . S
C1511 C1512 1.523 . S
C1512 C1496 1.368 . S
C1512 C1508 1.368 . S
C1512 C1511 1.523 . S
H1513 C1488 0.950 . S
H1514 C1490 0.950 . S
H1515 C1491 0.949 . S
H1516 C1493 0.950 . S
H1517 C1495 0.950 . S
C1518 C1519 1.349 . S
C1518 C1520 1.327 . S
C1518 H1543 0.950 . S
C1519 C1518 1.349 . S
C1519 C1535 1.349 . S
C1520 C1518 1.327 . S
C1520 C1539 1.429 . S
C1520 H1544 0.950 . S
C1521 C1538 1.574 . S
C1521 C1540 1.368 . S
C1521 H1545 0.949 . S
H1522 C1526 0.949 . S
C1523 C1524 1.349 . S
C1523 C1525 1.327 . S
C1523 H1546 0.950 . S
C1524 C1523 1.349 . S
C1524 C1536 1.349 . S
C1525 C1523 1.327 . S
C1525 C1541 1.429 . S
C1525 H1547 0.950 . S
C1526 H1522 0.949 . S
C1526 C1534 1.574 . S
C1526 C1542 1.368 . S
H1527 C1535 0.950 . S
H1528 C1533 0.950 . S
H1529 C1534 0.949 . S
H1530 C1536 0.950 . S
H1531 C1537 0.950 . S
H1532 C1538 0.949 . S
C1533 H1528 0.950 . S
C1533 C1535 1.327 . S
C1533 C1539 1.429 . S
C1534 C1526 1.574 . S
C1534 H1529 0.949 . S
C1534 C1540 1.368 . S
C1535 C1519 1.349 . S
C1535 H1527 0.950 . S
C1535 C1533 1.327 . S
C1536 C1524 1.349 . S
C1536 H1530 0.950 . S
C1536 C1537 1.327 . S
C1537 H1531 0.950 . S
C1537 C1536 1.327 . S
C1537 C1541 1.429 . S
C1538 C1521 1.574 . S
C1538 H1532 0.949 . S
C1538 C1542 1.368 . S
C1539 C1520 1.429 . S
C1539 C1533 1.429 . S
C1539 C1540 1.523 . S
C1540 C1521 1.368 . S
C1540 C1534 1.368 . S
C1540 C1539 1.523 . S
C1541 C1525 1.429 . S
C1541 C1537 1.429 . S
C1541 C1542 1.523 . S
C1542 C1526 1.368 . S
C1542 C1538 1.368 . S
C1542 C1541 1.523 . S
H1543 C1518 0.950 . S
H1544 C1520 0.950 . S
H1545 C1521 0.949 . S
H1546 C1523 0.950 . S
H1547 C1525 0.950 . S
C1548 C1549 1.349 . S
C1548 C1550 1.327 . S
C1548 H1573 0.950 . S
C1549 C1548 1.349 . S
C1549 C1565 1.349 . S
C1550 C1548 1.327 . S
C1550 C1569 1.429 . S
C1550 H1574 0.950 . S
C1551 C1568 1.574 . S
C1551 C1570 1.368 . S
C1551 H1575 0.949 . S
H1552 C1556 0.949 . S
C1553 C1554 1.349 . S
C1553 C1555 1.327 . S
C1553 H1576 0.950 . S
C1554 C1553 1.349 . S
C1554 C1566 1.349 . S
C1555 C1553 1.327 . S
C1555 C1571 1.429 . S
C1555 H1577 0.950 . S
C1556 H1552 0.949 . S
C1556 C1564 1.574 . S
C1556 C1572 1.368 . S
H1557 C1565 0.950 . S
H1558 C1563 0.950 . S
H1559 C1564 0.949 . S
H1560 C1566 0.950 . S
H1561 C1567 0.950 . S
H1562 C1568 0.949 . S
C1563 H1558 0.950 . S
C1563 C1565 1.327 . S
C1563 C1569 1.429 . S
C1564 C1556 1.574 . S
C1564 H1559 0.949 . S
C1564 C1570 1.368 . S
C1565 C1549 1.349 . S
C1565 H1557 0.950 . S
C1565 C1563 1.327 . S
C1566 C1554 1.349 . S
C1566 H1560 0.950 . S
C1566 C1567 1.327 . S
C1567 H1561 0.950 . S
C1567 C1566 1.327 . S
C1567 C1571 1.429 . S
C1568 C1551 1.574 . S
C1568 H1562 0.949 . S
C1568 C1572 1.368 . S
C1569 C1550 1.429 . S
C1569 C1563 1.429 . S
C1569 C1570 1.523 . S
C1570 C1551 1.368 . S
C1570 C1564 1.368 . S
C1570 C1569 1.523 . S
C1571 C1555 1.429 . S
C1571 C1567 1.429 . S
C1571 C1572 1.523 . S
C1572 C1556 1.368 . S
C1572 C1568 1.368 . S
C1572 C1571 1.523 . S
H1573 C1548 0.950 . S
H1574 C1550 0.950 . S
H1575 C1551 0.949 . S
H1576 C1553 0.950 . S
H1577 C1555 0.950 . S
C1578 C1579 1.349 . S
C1578 C1580 1.327 . S
C1578 H1603 0.950 . S
C1579 C1578 1.349 . S
C1579 C1595 1.349 . S
C1580 C1578 1.327 . S
C1580 C1599 1.429 . S
C1580 H1604 0.950 . S
C1581 C1598 1.574 . S
C1581 C1600 1.368 . S
C1581 H1605 0.949 . S
H1582 C1586 0.949 . S
C1583 C1584 1.349 . S
C1583 C1585 1.327 . S
C1583 H1606 0.950 . S
C1584 C1583 1.349 . S
C1584 C1596 1.349 . S
C1585 C1583 1.327 . S
C1585 C1601 1.429 . S
C1585 H1607 0.950 . S
C1586 H1582 0.949 . S
C1586 C1594 1.574 . S
C1586 C1602 1.368 . S
H1587 C1595 0.950 . S
H1588 C1593 0.950 . S
H1589 C1594 0.949 . S
H1590 C1596 0.950 . S
H1591 C1597 0.950 . S
H1592 C1598 0.949 . S
C1593 H1588 0.950 . S
C1593 C1595 1.327 . S
C1593 C1599 1.429 . S
C1594 C1586 1.574 . S
C1594 H1589 0.949 . S
C1594 C1600 1.368 . S
C1595 C1579 1.349 . S
C1595 H1587 0.950 . S
C1595 C1593 1.327 . S
C1596 C1584 1.349 . S
C1596 H1590 0.950 . S
C1596 C1597 1.327 . S
C1597 H1591 0.950 . S
C1597 C1596 1.327 . S
C1597 C1601 1.429 . S
C1598 C1581 1.574 . S
C1598 H1592 0.949 . S
C1598 C1602 1.368 . S
C1599 C1580 1.429 . S
C1599 C1593 1.429 . S
C1599 C1600 1.523 . S
C1600 C1581 1.368 . S
C1600 C1594 1.368 . S
C1600 C1599 1.523 . S
C1601 C1585 1.429 . S
C1601 C1597 1.429 . S
C1601 C1602 1.523 . S
C1602 C1586 1.368 . S
C1602 C1598 1.368 . S
C1602 C1601 1.523 . S
H1603 C1578 0.950 . S
H1604 C1580 0.950 . S
H1605 C1581 0.949 . S
H1606 C1583 0.950 . S
H1607 C1585 0.950 . S
C1608 C1609 1.349 . S
C1608 C1610 1.327 . S
C1608 H1633 0.950 . S
C1609 C1608 1.349 . S
C1609 C1625 1.349 . S
C1610 C1608 1.327 . S
C1610 C1629 1.429 . S
C1610 H1634 0.950 . S
C1611 C1628 1.574 . S
C1611 C1630 1.368 . S
C1611 H1635 0.949 . S
H1612 C1616 0.949 . S
C1613 C1614 1.349 . S
C1613 C1615 1.327 . S
C1613 H1636 0.950 . S
C1614 C1613 1.349 . S
C1614 C1626 1.349 . S
C1615 C1613 1.327 . S
C1615 C1631 1.429 . S
C1615 H1637 0.950 . S
C1616 H1612 0.949 . S
C1616 C1624 1.574 . S
C1616 C1632 1.368 . S
H1617 C1625 0.950 . S
H1618 C1623 0.950 . S
H1619 C1624 0.949 . S
H1620 C1626 0.950 . S
H1621 C1627 0.950 . S
H1622 C1628 0.949 . S
C1623 H1618 0.950 . S
C1623 C1625 1.327 . S
C1623 C1629 1.429 . S
C1624 C1616 1.574 . S
C1624 H1619 0.949 . S
C1624 C1630 1.368 . S
C1625 C1609 1.349 . S
C1625 H1617 0.950 . S
C1625 C1623 1.327 . S
C1626 C1614 1.349 . S
C1626 H1620 0.950 . S
C1626 C1627 1.327 . S
C1627 H1621 0.950 . S
C1627 C1626 1.327 . S
C1627 C1631 1.429 . S
C1628 C1611 1.574 . S
C1628 H1622 0.949 . S
C1628 C1632 1.368 . S
C1629 C1610 1.429 . S
C1629 C1623 1.429 . S
C1629 C1630 1.523 . S
C1630 C1611 1.368 . S
C1630 C1624 1.368 . S
C1630 C1629 1.523 . S
C1631 C1615 1.429 . S
C1631 C1627 1.429 . S
C1631 C1632 1.523 . S
C1632 C1616 1.368 . S
C1632 C1628 1.368 . S
C1632 C1631 1.523 . S
H1633 C1608 0.950 . S
H1634 C1610 0.950 . S
H1635 C1611 0.949 . S
H1636 C1613 0.950 . S
H1637 C1615 0.950 . S
C1638 C1639 1.349 . S
C1638 C1640 1.327 . S
C1638 H1663 0.950 . S
C1639 C1638 1.349 . S
C1639 C1655 1.349 . S
C1640 C1638 1.327 . S
C1640 C1659 1.429 . S
C1640 H1664 0.950 . S
C1641 C1658 1.574 . S
C1641 C1660 1.368 . S
C1641 H1665 0.949 . S
H1642 C1646 0.949 . S
C1643 C1644 1.349 . S
C1643 C1645 1.327 . S
C1643 H1666 0.950 . S
C1644 C1643 1.349 . S
C1644 C1656 1.349 . S
C1645 C1643 1.327 . S
C1645 C1661 1.429 . S
C1645 H1667 0.950 . S
C1646 H1642 0.949 . S
C1646 C1654 1.574 . S
C1646 C1662 1.368 . S
H1647 C1655 0.950 . S
H1648 C1653 0.950 . S
H1649 C1654 0.949 . S
H1650 C1656 0.950 . S
H1651 C1657 0.950 . S
H1652 C1658 0.949 . S
C1653 H1648 0.950 . S
C1653 C1655 1.327 . S
C1653 C1659 1.429 . S
C1654 C1646 1.574 . S
C1654 H1649 0.949 . S
C1654 C1660 1.368 . S
C1655 C1639 1.349 . S
C1655 H1647 0.950 . S
C1655 C1653 1.327 . S
C1656 C1644 1.349 . S
C1656 H1650 0.950 . S
C1656 C1657 1.327 . S
C1657 H1651 0.950 . S
C1657 C1656 1.327 . S
C1657 C1661 1.429 . S
C1658 C1641 1.574 . S
C1658 H1652 0.949 . S
C1658 C1662 1.368 . S
C1659 C1640 1.429 . S
C1659 C1653 1.429 . S
C1659 C1660 1.523 . S
C1660 C1641 1.368 . S
C1660 C1654 1.368 . S
C1660 C1659 1.523 . S
C1661 C1645 1.429 . S
C1661 C1657 1.429 . S
C1661 C1662 1.523 . S
C1662 C1646 1.368 . S
C1662 C1658 1.368 . S
C1662 C1661 1.523 . S
H1663 C1638 0.950 . S
H1664 C1640 0.950 . S
H1665 C1641 0.949 . S
H1666 C1643 0.950 . S
H1667 C1645 0.950 . S
C1668 C1669 1.349 . S
C1668 C1670 1.327 . S
C1668 H1693 0.950 . S
C1669 C1668 1.349 . S
C1669 C1685 1.349 . S
C1670 C1668 1.327 . S
C1670 C1689 1.429 . S
C1670 H1694 0.950 . S
C1671 C1688 1.574 . S
C1671 C1690 1.368 . S
C1671 H1695 0.949 . S
H1672 C1676 0.949 . S
C1673 C1674 1.349 . S
C1673 C1675 1.327 . S
C1673 H1696 0.950 . S
C1674 C1673 1.349 . S
C1674 C1686 1.349 . S
C1675 C1673 1.327 . S
C1675 C1691 1.429 . S
C1675 H1697 0.950 . S
C1676 H1672 0.949 . S
C1676 C1684 1.574 . S
C1676 C1692 1.368 . S
H1677 C1685 0.950 . S
H1678 C1683 0.950 . S
H1679 C1684 0.949 . S
H1680 C1686 0.950 . S
H1681 C1687 0.950 . S
H1682 C1688 0.949 . S
C1683 H1678 0.950 . S
C1683 C1685 1.327 . S
C1683 C1689 1.429 . S
C1684 C1676 1.574 . S
C1684 H1679 0.949 . S
C1684 C1690 1.368 . S
C1685 C1669 1.349 . S
C1685 H1677 0.950 . S
C1685 C1683 1.327 . S
C1686 C1674 1.349 . S
C1686 H1680 0.950 . S
C1686 C1687 1.327 . S
C1687 H1681 0.950 . S
C1687 C1686 1.327 . S
C1687 C1691 1.429 . S
C1688 C1671 1.574 . S
C1688 H1682 0.949 . S
C1688 C1692 1.368 . S
C1689 C1670 1.429 . S
C1689 C1683 1.429 . S
C1689 C1690 1.523 . S
C1690 C1671 1.368 . S
C1690 C1684 1.368 . S
C1690 C1689 1.523 . S
C1691 C1675 1.429 . S
C1691 C1687 1.429 . S
C1691 C1692 1.523 . S
C1692 C1676 1.368 . S
C1692 C1688 1.368 . S
C1692 C1691 1.523 . S
H1693 C1668 0.950 . S
H1694 C1670 0.950 . S
H1695 C1671 0.949 . S
H1696 C1673 0.950 . S
H1697 C1675 0.950 . S
C1698 C1699 1.349 . S
C1698 C1700 1.327 . S
C1698 H1723 0.950 . S
C1699 C1698 1.349 . S
C1699 C1715 1.349 . S
C1700 C1698 1.327 . S
C1700 C1719 1.429 . S
C1700 H1724 0.950 . S
C1701 C1718 1.574 . S
C1701 C1720 1.368 . S
C1701 H1725 0.949 . S
H1702 C1706 0.949 . S
C1703 C1704 1.349 . S
C1703 C1705 1.327 . S
C1703 H1726 0.950 . S
C1704 C1703 1.349 . S
C1704 C1716 1.349 . S
C1705 C1703 1.327 . S
C1705 C1721 1.429 . S
C1705 H1727 0.950 . S
C1706 H1702 0.949 . S
C1706 C1714 1.574 . S
C1706 C1722 1.368 . S
H1707 C1715 0.950 . S
H1708 C1713 0.950 . S
H1709 C1714 0.949 . S
H1710 C1716 0.950 . S
H1711 C1717 0.950 . S
H1712 C1718 0.949 . S
C1713 H1708 0.950 . S
C1713 C1715 1.327 . S
C1713 C1719 1.429 . S
C1714 C1706 1.574 . S
C1714 H1709 0.949 . S
C1714 C1720 1.368 . S
C1715 C1699 1.349 . S
C1715 H1707 0.950 . S
C1715 C1713 1.327 . S
C1716 C1704 1.349 . S
C1716 H1710 0.950 . S
C1716 C1717 1.327 . S
C1717 H1711 0.950 . S
C1717 C1716 1.327 . S
C1717 C1721 1.429 . S
C1718 C1701 1.574 . S
C1718 H1712 0.949 . S
C1718 C1722 1.368 . S
C1719 C1700 1.429 . S
C1719 C1713 1.429 . S
C1719 C1720 1.523 . S
C1720 C1701 1.368 . S
C1720 C1714 1.368 . S
C1720 C1719 1.523 . S
C1721 C1705 1.429 . S
C1721 C1717 1.429 . S
C1721 C1722 1.523 . S
C1722 C1706 1.368 . S
C1722 C1718 1.368 . S
C1722 C1721 1.523 . S
H1723 C1698 0.950 . S
H1724 C1700 0.950 . S
H1725 C1701 0.949 . S
H1726 C1703 0.950 . S
H1727 C1705 0.950 . S
C1728 C1729 1.349 . S
C1728 C1730 1.327 . S
C1728 H1753 0.950 . S
C1729 C1728 1.349 . S
C1729 C1745 1.349 . S
C1730 C1728 1.327 . S
C1730 C1749 1.429 . S
C1730 H1754 0.950 . S
C1731 C1748 1.574 . S
C1731 C1750 1.368 . S
C1731 H1755 0.949 . S
H1732 C1736 0.949 . S
C1733 C1734 1.349 . S
C1733 C1735 1.327 . S
C1733 H1756 0.950 . S
C1734 C1733 1.349 . S
C1734 C1746 1.349 . S
C1735 C1733 1.327 . S
C1735 C1751 1.429 . S
C1735 H1757 0.950 . S
C1736 H1732 0.949 . S
C1736 C1744 1.574 . S
C1736 C1752 1.368 . S
H1737 C1745 0.950 . S
H1738 C1743 0.950 . S
H1739 C1744 0.949 . S
H1740 C1746 0.950 . S
H1741 C1747 0.950 . S
H1742 C1748 0.949 . S
C1743 H1738 0.950 . S
C1743 C1745 1.327 . S
C1743 C1749 1.429 . S
C1744 C1736 1.574 . S
C1744 H1739 0.949 . S
C1744 C1750 1.368 . S
C1745 C1729 1.349 . S
C1745 H1737 0.950 . S
C1745 C1743 1.327 . S
C1746 C1734 1.349 . S
C1746 H1740 0.950 . S
C1746 C1747 1.327 . S
C1747 H1741 0.950 . S
C1747 C1746 1.327 . S
C1747 C1751 1.429 . S
C1748 C1731 1.574 . S
C1748 H1742 0.949 . S
C1748 C1752 1.368 . S
C1749 C1730 1.429 . S
C1749 C1743 1.429 . S
C1749 C1750 1.523 . S
C1750 C1731 1.368 . S
C1750 C1744 1.368 . S
C1750 C1749 1.523 . S
C1751 C1735 1.429 . S
C1751 C1747 1.429 . S
C1751 C1752 1.523 . S
C1752 C1736 1.368 . S
C1752 C1748 1.368 . S
C1752 C1751 1.523 . S
H1753 C1728 0.950 . S
H1754 C1730 0.950 . S
H1755 C1731 0.949 . S
H1756 C1733 0.950 . S
H1757 C1735 0.950 . S
C1758 C1759 1.349 . S
C1758 C1760 1.327 . S
C1758 H1783 0.950 . S
C1759 C1758 1.349 . S
C1759 C1775 1.349 . S
C1760 C1758 1.327 . S
C1760 C1779 1.429 . S
C1760 H1784 0.950 . S
C1761 C1778 1.574 . S
C1761 C1780 1.368 . S
C1761 H1785 0.949 . S
H1762 C1766 0.949 . S
C1763 C1764 1.349 . S
C1763 C1765 1.327 . S
C1763 H1786 0.950 . S
C1764 C1763 1.349 . S
C1764 C1776 1.349 . S
C1765 C1763 1.327 . S
C1765 C1781 1.429 . S
C1765 H1787 0.950 . S
C1766 H1762 0.949 . S
C1766 C1774 1.574 . S
C1766 C1782 1.368 . S
H1767 C1775 0.950 . S
H1768 C1773 0.950 . S
H1769 C1774 0.949 . S
H1770 C1776 0.950 . S
H1771 C1777 0.950 . S
H1772 C1778 0.949 . S
C1773 H1768 0.950 . S
C1773 C1775 1.327 . S
C1773 C1779 1.429 . S
C1774 C1766 1.574 . S
C1774 H1769 0.949 . S
C1774 C1780 1.368 . S
C1775 C1759 1.349 . S
C1775 H1767 0.950 . S
C1775 C1773 1.327 . S
C1776 C1764 1.349 . S
C1776 H1770 0.950 . S
C1776 C1777 1.327 . S
C1777 H1771 0.950 . S
C1777 C1776 1.327 . S
C1777 C1781 1.429 . S
C1778 C1761 1.574 . S
C1778 H1772 0.949 . S
C1778 C1782 1.368 . S
C1779 C1760 1.429 . S
C1779 C1773 1.429 . S
C1779 C1780 1.523 . S
C1780 C1761 1.368 . S
C1780 C1774 1.368 . S
C1780 C1779 1.523 . S
C1781 C1765 1.429 . S
C1781 C1777 1.429 . S
C1781 C1782 1.523 . S
C1782 C1766 1.368 . S
C1782 C1778 1.368 . S
C1782 C1781 1.523 . S
H1783 C1758 0.950 . S
H1784 C1760 0.950 . S
H1785 C1761 0.949 . S
H1786 C1763 0.950 . S
H1787 C1765 0.950 . S
C1788 C1789 1.349 . S
C1788 C1790 1.327 . S
C1788 H1813 0.950 . S
C1789 C1788 1.349 . S
C1789 C1805 1.349 . S
C1790 C1788 1.327 . S
C1790 C1809 1.429 . S
C1790 H1814 0.950 . S
C1791 C1808 1.574 . S
C1791 C1810 1.368 . S
C1791 H1815 0.949 . S
H1792 C1796 0.949 . S
C1793 C1794 1.349 . S
C1793 C1795 1.327 . S
C1793 H1816 0.950 . S
C1794 C1793 1.349 . S
C1794 C1806 1.349 . S
C1795 C1793 1.327 . S
C1795 C1811 1.429 . S
C1795 H1817 0.950 . S
C1796 H1792 0.949 . S
C1796 C1804 1.574 . S
C1796 C1812 1.368 . S
H1797 C1805 0.950 . S
H1798 C1803 0.950 . S
H1799 C1804 0.949 . S
H1800 C1806 0.950 . S
H1801 C1807 0.950 . S
H1802 C1808 0.949 . S
C1803 H1798 0.950 . S
C1803 C1805 1.327 . S
C1803 C1809 1.429 . S
C1804 C1796 1.574 . S
C1804 H1799 0.949 . S
C1804 C1810 1.368 . S
C1805 C1789 1.349 . S
C1805 H1797 0.950 . S
C1805 C1803 1.327 . S
C1806 C1794 1.349 . S
C1806 H1800 0.950 . S
C1806 C1807 1.327 . S
C1807 H1801 0.950 . S
C1807 C1806 1.327 . S
C1807 C1811 1.429 . S
C1808 C1791 1.574 . S
C1808 H1802 0.949 . S
C1808 C1812 1.368 . S
C1809 C1790 1.429 . S
C1809 C1803 1.429 . S
C1809 C1810 1.523 . S
C1810 C1791 1.368 . S
C1810 C1804 1.368 . S
C1810 C1809 1.523 . S
C1811 C1795 1.429 . S
C1811 C1807 1.429 . S
C1811 C1812 1.523 . S
C1812 C1796 1.368 . S
C1812 C1808 1.368 . S
C1812 C1811 1.523 . S
H1813 C1788 0.950 . S
H1814 C1790 0.950 . S
H1815 C1791 0.949 . S
H1816 C1793 0.950 . S
H1817 C1795 0.950 . S
C1818 C1819 1.349 . S
C1818 C1820 1.327 . S
C1818 H1843 0.950 . S
C1819 C1818 1.349 . S
C1819 C1835 1.349 . S
C1820 C1818 1.327 . S
C1820 C1839 1.429 . S
C1820 H1844 0.950 . S
C1821 C1838 1.574 . S
C1821 C1840 1.368 . S
C1821 H1845 0.949 . S
H1822 C1826 0.949 . S
C1823 C1824 1.349 . S
C1823 C1825 1.327 . S
C1823 H1846 0.950 . S
C1824 C1823 1.349 . S
C1824 C1836 1.349 . S
C1825 C1823 1.327 . S
C1825 C1841 1.429 . S
C1825 H1847 0.950 . S
C1826 H1822 0.949 . S
C1826 C1834 1.574 . S
C1826 C1842 1.368 . S
H1827 C1835 0.950 . S
H1828 C1833 0.950 . S
H1829 C1834 0.949 . S
H1830 C1836 0.950 . S
H1831 C1837 0.950 . S
H1832 C1838 0.949 . S
C1833 H1828 0.950 . S
C1833 C1835 1.327 . S
C1833 C1839 1.429 . S
C1834 C1826 1.574 . S
C1834 H1829 0.949 . S
C1834 C1840 1.368 . S
C1835 C1819 1.349 . S
C1835 H1827 0.950 . S
C1835 C1833 1.327 . S
C1836 C1824 1.349 . S
C1836 H1830 0.950 . S
C1836 C1837 1.327 . S
C1837 H1831 0.950 . S
C1837 C1836 1.327 . S
C1837 C1841 1.429 . S
C1838 C1821 1.574 . S
C1838 H1832 0.949 . S
C1838 C1842 1.368 . S
C1839 C1820 1.429 . S
C1839 C1833 1.429 . S
C1839 C1840 1.523 . S
C1840 C1821 1.368 . S
C1840 C1834 1.368 . S
C1840 C1839 1.523 . S
C1841 C1825 1.429 . S
C1841 C1837 1.429 . S
C1841 C1842 1.523 . S
C1842 C1826 1.368 . S
C1842 C1838 1.368 . S
C1842 C1841 1.523 . S
H1843 C1818 0.950 . S
H1844 C1820 0.950 . S
H1845 C1821 0.949 . S
H1846 C1823 0.950 . S
H1847 C1825 0.950 . S
C1848 C1849 1.349 . S
C1848 C1850 1.327 . S
C1848 H1873 0.950 . S
C1849 C1848 1.349 . S
C1849 C1865 1.349 . S
C1850 C1848 1.327 . S
C1850 C1869 1.429 . S
C1850 H1874 0.950 . S
C1851 C1868 1.574 . S
C1851 C1870 1.368 . S
C1851 H1875 0.949 . S
H1852 C1856 0.949 . S
C1853 C1854 1.349 . S
C1853 C1855 1.327 . S
C1853 H1876 0.950 . S
C1854 C1853 1.349 . S
C1854 C1866 1.349 . S
C1855 C1853 1.327 . S
C1855 C1871 1.429 . S
C1855 H1877 0.950 . S
C1856 H1852 0.949 . S
C1856 C1864 1.574 . S
C1856 C1872 1.368 . S
H1857 C1865 0.950 . S
H1858 C1863 0.950 . S
H1859 C1864 0.949 . S
H1860 C1866 0.950 . S
H1861 C1867 0.950 . S
H1862 C1868 0.949 . S
C1863 H1858 0.950 . S
C1863 C1865 1.327 . S
C1863 C1869 1.429 . S
C1864 C1856 1.574 . S
C1864 H1859 0.949 . S
C1864 C1870 1.368 . S
C1865 C1849 1.349 . S
C1865 H1857 0.950 . S
C1865 C1863 1.327 . S
C1866 C1854 1.349 . S
C1866 H1860 0.950 . S
C1866 C1867 1.327 . S
C1867 H1861 0.950 . S
C1867 C1866 1.327 . S
C1867 C1871 1.429 . S
C1868 C1851 1.574 . S
C1868 H1862 0.949 . S
C1868 C1872 1.368 . S
C1869 C1850 1.429 . S
C1869 C1863 1.429 . S
C1869 C1870 1.523 . S
C1870 C1851 1.368 . S
C1870 C1864 1.368 . S
C1870 C1869 1.523 . S
C1871 C1855 1.429 . S
C1871 C1867 1.429 . S
C1871 C1872 1.523 . S
C1872 C1856 1.368 . S
C1872 C1868 1.368 . S
C1872 C1871 1.523 . S
H1873 C1848 0.950 . S
H1874 C1850 0.950 . S
H1875 C1851 0.949 . S
H1876 C1853 0.950 . S
H1877 C1855 0.950 . S
C1878 C1879 1.349 . S
C1878 C1880 1.327 . S
C1878 H1903 0.950 . S
C1879 C1878 1.349 . S
C1879 C1895 1.349 . S
C1880 C1878 1.327 . S
C1880 C1899 1.429 . S
C1880 H1904 0.950 . S
C1881 C1898 1.574 . S
C1881 C1900 1.368 . S
C1881 H1905 0.949 . S
H1882 C1886 0.949 . S
C1883 C1884 1.349 . S
C1883 C1885 1.327 . S
C1883 H1906 0.950 . S
C1884 C1883 1.349 . S
C1884 C1896 1.349 . S
C1885 C1883 1.327 . S
C1885 C1901 1.429 . S
C1885 H1907 0.950 . S
C1886 H1882 0.949 . S
C1886 C1894 1.574 . S
C1886 C1902 1.368 . S
H1887 C1895 0.950 . S
H1888 C1893 0.950 . S
H1889 C1894 0.949 . S
H1890 C1896 0.950 . S
H1891 C1897 0.950 . S
H1892 C1898 0.949 . S
C1893 H1888 0.950 . S
C1893 C1895 1.327 . S
C1893 C1899 1.429 . S
C1894 C1886 1.574 . S
C1894 H1889 0.949 . S
C1894 C1900 1.368 . S
C1895 C1879 1.349 . S
C1895 H1887 0.950 . S
C1895 C1893 1.327 . S
C1896 C1884 1.349 . S
C1896 H1890 0.950 . S
C1896 C1897 1.327 . S
C1897 H1891 0.950 . S
C1897 C1896 1.327 . S
C1897 C1901 1.429 . S
C1898 C1881 1.574 . S
C1898 H1892 0.949 . S
C1898 C1902 1.368 . S
C1899 C1880 1.429 . S
C1899 C1893 1.429 . S
C1899 C1900 1.523 . S
C1900 C1881 1.368 . S
C1900 C1894 1.368 . S
C1900 C1899 1.523 . S
C1901 C1885 1.429 . S
C1901 C1897 1.429 . S
C1901 C1902 1.523 . S
C1902 C1886 1.368 . S
C1902 C1898 1.368 . S
C1902 C1901 1.523 . S
H1903 C1878 0.950 . S
H1904 C1880 0.950 . S
H1905 C1881 0.949 . S
H1906 C1883 0.950 . S
H1907 C1885 0.950 . S
C1908 C1909 1.349 . S
C1908 C1910 1.327 . S
C1908 H1933 0.950 . S
C1909 C1908 1.349 . S
C1909 C1925 1.349 . S
C1910 C1908 1.327 . S
C1910 C1929 1.429 . S
C1910 H1934 0.950 . S
C1911 C1928 1.574 . S
C1911 C1930 1.368 . S
C1911 H1935 0.949 . S
H1912 C1916 0.949 . S
C1913 C1914 1.349 . S
C1913 C1915 1.327 . S
C1913 H1936 0.950 . S
C1914 C1913 1.349 . S
C1914 C1926 1.349 . S
C1915 C1913 1.327 . S
C1915 C1931 1.429 . S
C1915 H1937 0.950 . S
C1916 H1912 0.949 . S
C1916 C1924 1.574 . S
C1916 C1932 1.368 . S
H1917 C1925 0.950 . S
H1918 C1923 0.950 . S
H1919 C1924 0.949 . S
H1920 C1926 0.950 . S
H1921 C1927 0.950 . S
H1922 C1928 0.949 . S
C1923 H1918 0.950 . S
C1923 C1925 1.327 . S
C1923 C1929 1.429 . S
C1924 C1916 1.574 . S
C1924 H1919 0.949 . S
C1924 C1930 1.368 . S
C1925 C1909 1.349 . S
C1925 H1917 0.950 . S
C1925 C1923 1.327 . S
C1926 C1914 1.349 . S
C1926 H1920 0.950 . S
C1926 C1927 1.327 . S
C1927 H1921 0.950 . S
C1927 C1926 1.327 . S
C1927 C1931 1.429 . S
C1928 C1911 1.574 . S
C1928 H1922 0.949 . S
C1928 C1932 1.368 . S
C1929 C1910 1.429 . S
C1929 C1923 1.429 . S
C1929 C1930 1.523 . S
C1930 C1911 1.368 . S
C1930 C1924 1.368 . S
C1930 C1929 1.523 . S
C1931 C1915 1.429 . S
C1931 C1927 1.429 . S
C1931 C1932 1.523 . S
C1932 C1916 1.368 . S
C1932 C1928 1.368 . S
C1932 C1931 1.523 . S
H1933 C1908 0.950 . S
H1934 C1910 0.950 . S
H1935 C1911 0.949 . S
H1936 C1913 0.950 . S
H1937 C1915 0.950 . S
C1938 C1939 1.349 . S
C1938 C1940 1.327 . S
C1938 H1963 0.950 . S
C1939 C1938 1.349 . S
C1939 C1955 1.349 . S
C1940 C1938 1.327 . S
C1940 C1959 1.429 . S
C1940 H1964 0.950 . S
C1941 C1958 1.574 . S
C1941 C1960 1.368 . S
C1941 H1965 0.949 . S
H1942 C1946 0.949 . S
C1943 C1944 1.349 . S
C1943 C1945 1.327 . S
C1943 H1966 0.950 . S
C1944 C1943 1.349 . S
C1944 C1956 1.349 . S
C1945 C1943 1.327 . S
C1945 C1961 1.429 . S
C1945 H1967 0.950 . S
C1946 H1942 0.949 . S
C1946 C1954 1.574 . S
C1946 C1962 1.368 . S
H1947 C1955 0.950 . S
H1948 C1953 0.950 . S
H1949 C1954 0.949 . S
H1950 C1956 0.950 . S
H1951 C1957 0.950 . S
H1952 C1958 0.949 . S
C1953 H1948 0.950 . S
C1953 C1955 1.327 . S
C1953 C1959 1.429 . S
C1954 C1946 1.574 . S
C1954 H1949 0.949 . S
C1954 C1960 1.368 . S
C1955 C1939 1.349 . S
C1955 H1947 0.950 . S
C1955 C1953 1.327 . S
C1956 C1944 1.349 . S
C1956 H1950 0.950 . S
C1956 C1957 1.327 . S
C1957 H1951 0.950 . S
C1957 C1956 1.327 . S
C1957 C1961 1.429 . S
C1958 C1941 1.574 . S
C1958 H1952 0.949 . S
C1958 C1962 1.368 . S
C1959 C1940 1.429 . S
C1959 C1953 1.429 . S
C1959 C1960 1.523 . S
C1960 C1941 1.368 . S
C1960 C1954 1.368 . S
C1960 C1959 1.523 . S
C1961 C1945 1.429 . S
C1961 C1957 1.429 . S
C1961 C1962 1.523 . S
C1962 C1946 1.368 . S
C1962 C1958 1.368 . S
C1962 C1961 1.523 . S
H1963 C1938 0.950 . S
H1964 C1940 0.950 . S
H1965 C1941 0.949 . S
H1966 C1943 0.950 . S
H1967 C1945 0.950 . S
C1968 C1969 1.349 . S
C1968 C1970 1.327 . S
C1968 H1993 0.950 . S
C1969 C1968 1.349 . S
C1969 C1985 1.349 . S
C1970 C1968 1.327 . S
C1970 C1989 1.429 . S
C1970 H1994 0.950 . S
C1971 C1988 1.574 . S
C1971 C1990 1.368 . S
C1971 H1995 0.949 . S
H1972 C1976 0.949 . S
C1973 C1974 1.349 . S
C1973 C1975 1.327 . S
C1973 H1996 0.950 . S
C1974 C1973 1.349 . S
C1974 C1986 1.349 . S
C1975 C1973 1.327 . S
C1975 C1991 1.429 . S
C1975 H1997 0.950 . S
C1976 H1972 0.949 . S
C1976 C1984 1.574 . S
C1976 C1992 1.368 . S
H1977 C1985 0.950 . S
H1978 C1983 0.950 . S
H1979 C1984 0.949 . S
H1980 C1986 0.950 . S
H1981 C1987 0.950 . S
H1982 C1988 0.949 . S
C1983 H1978 0.950 . S
C1983 C1985 1.327 . S
C1983 C1989 1.429 . S
C1984 C1976 1.574 . S
C1984 H1979 0.949 . S
C1984 C1990 1.368 . S
C1985 C1969 1.349 . S
C1985 H1977 0.950 . S
C1985 C1983 1.327 . S
C1986 C1974 1.349 . S
C1986 H1980 0.950 . S
C1986 C1987 1.327 . S
C1987 H1981 0.950 . S
C1987 C1986 1.327 . S
C1987 C1991 1.429 . S
C1988 C1971 1.574 . S
C1988 H1982 0.949 . S
C1988 C1992 1.368 . S
C1989 C1970 1.429 . S
C1989 C1983 1.429 . S
C1989 C1990 1.523 . S
C1990 C1971 1.368 . S
C1990 C1984 1.368 . S
C1990 C1989 1.523 . S
C1991 C1975 1.429 . S
C1991 C1987 1.429 . S
C1991 C1992 1.523 . S
C1992 C1976 1.368 . S
C1992 C1988 1.368 . S
C1992 C1991 1.523 . S
H1993 C1968 0.950 . S
H1994 C1970 0.950 . S
H1995 C1971 0.949 . S
H1996 C1973 0.950 . S
H1997 C1975 0.950 . S
C1998 C1999 1.349 . S
C1998 C2000 1.327 . S
C1998 H2023 0.950 . S
C1999 C1998 1.349 . S
C1999 C2015 1.349 . S
C2000 C1998 1.327 . S
C2000 C2019 1.429 . S
C2000 H2024 0.950 . S
C2001 C2018 1.574 . S
C2001 C2020 1.368 . S
C2001 H2025 0.949 . S
H2002 C2006 0.949 . S
C2003 C2004 1.349 . S
C2003 C2005 1.327 . S
C2003 H2026 0.950 . S
C2004 C2003 1.349 . S
C2004 C2016 1.349 . S
C2005 C2003 1.327 . S
C2005 C2021 1.429 . S
C2005 H2027 0.950 . S
C2006 H2002 0.949 . S
C2006 C2014 1.574 . S
C2006 C2022 1.368 . S
H2007 C2015 0.950 . S
H2008 C2013 0.950 . S
H2009 C2014 0.949 . S
H2010 C2016 0.950 . S
H2011 C2017 0.950 . S
H2012 C2018 0.949 . S
C2013 H2008 0.950 . S
C2013 C2015 1.327 . S
C2013 C2019 1.429 . S
C2014 C2006 1.574 . S
C2014 H2009 0.949 . S
C2014 C2020 1.368 . S
C2015 C1999 1.349 . S
C2015 H2007 0.950 . S
C2015 C2013 1.327 . S
C2016 C2004 1.349 . S
C2016 H2010 0.950 . S
C2016 C2017 1.327 . S
C2017 H2011 0.950 . S
C2017 C2016 1.327 . S
C2017 C2021 1.429 . S
C2018 C2001 1.574 . S
C2018 H2012 0.949 . S
C2018 C2022 1.368 . S
C2019 C2000 1.429 . S
C2019 C2013 1.429 . S
C2019 C2020 1.523 . S
C2020 C2001 1.368 . S
C2020 C2014 1.368 . S
C2020 C2019 1.523 . S
C2021 C2005 1.429 . S
C2021 C2017 1.429 . S
C2021 C2022 1.523 . S
C2022 C2006 1.368 . S
C2022 C2018 1.368 . S
C2022 C2021 1.523 . S
H2023 C1998 0.950 . S
H2024 C2000 0.950 . S
H2025 C2001 0.949 . S
H2026 C2003 0.950 . S
H2027 C2005 0.950 . S
C2028 C2029 1.349 . S
C2028 C2030 1.327 . S
C2028 H2053 0.950 . S
C2029 C2028 1.349 . S
C2029 C2045 1.349 . S
C2030 C2028 1.327 . S
C2030 C2049 1.429 . S
C2030 H2054 0.950 . S
C2031 C2048 1.574 . S
C2031 C2050 1.368 . S
C2031 H2055 0.949 . S
H2032 C2036 0.949 . S
C2033 C2034 1.349 . S
C2033 C2035 1.327 . S
C2033 H2056 0.950 . S
C2034 C2033 1.349 . S
C2034 C2046 1.349 . S
C2035 C2033 1.327 . S
C2035 C2051 1.429 . S
C2035 H2057 0.950 . S
C2036 H2032 0.949 . S
C2036 C2044 1.574 . S
C2036 C2052 1.368 . S
H2037 C2045 0.950 . S
H2038 C2043 0.950 . S
H2039 C2044 0.949 . S
H2040 C2046 0.950 . S
H2041 C2047 0.950 . S
H2042 C2048 0.949 . S
C2043 H2038 0.950 . S
C2043 C2045 1.327 . S
C2043 C2049 1.429 . S
C2044 C2036 1.574 . S
C2044 H2039 0.949 . S
C2044 C2050 1.368 . S
C2045 C2029 1.349 . S
C2045 H2037 0.950 . S
C2045 C2043 1.327 . S
C2046 C2034 1.349 . S
C2046 H2040 0.950 . S
C2046 C2047 1.327 . S
C2047 H2041 0.950 . S
C2047 C2046 1.327 . S
C2047 C2051 1.429 . S
C2048 C2031 1.574 . S
C2048 H2042 0.949 . S
C2048 C2052 1.368 . S
C2049 C2030 1.429 . S
C2049 C2043 1.429 . S
C2049 C2050 1.523 . S
C2050 C2031 1.368 . S
C2050 C2044 1.368 . S
C2050 C2049 1.523 . S
C2051 C2035 1.429 . S
C2051 C2047 1.429 . S
C2051 C2052 1.523 . S
C2052 C2036 1.368 . S
C2052 C2048 1.368 . S
C2052 C2051 1.523 . S
H2053 C2028 0.950 . S
H2054 C2030 0.950 . S
H2055 C2031 0.949 . S
H2056 C2033 0.950 . S
H2057 C2035 0.950 . S
C2058 C2059 1.349 . S
C2058 C2060 1.327 . S
C2058 H2083 0.950 . S
C2059 C2058 1.349 . S
C2059 C2075 1.349 . S
C2060 C2058 1.327 . S
C2060 C2079 1.429 . S
C2060 H2084 0.950 . S
C2061 C2078 1.574 . S
C2061 C2080 1.368 . S
C2061 H2085 0.949 . S
H2062 C2066 0.949 . S
C2063 C2064 1.349 . S
C2063 C2065 1.327 . S
C2063 H2086 0.950 . S
C2064 C2063 1.349 . S
C2064 C2076 1.349 . S
C2065 C2063 1.327 . S
C2065 C2081 1.429 . S
C2065 H2087 0.950 . S
C2066 H2062 0.949 . S
C2066 C2074 1.574 . S
C2066 C2082 1.368 . S
H2067 C2075 0.950 . S
H2068 C2073 0.950 . S
H2069 C2074 0.949 . S
H2070 C2076 0.950 . S
H2071 C2077 0.950 . S
H2072 C2078 0.949 . S
C2073 H2068 0.950 . S
C2073 C2075 1.327 . S
C2073 C2079 1.429 . S
C2074 C2066 1.574 . S
C2074 H2069 0.949 . S
C2074 C2080 1.368 . S
C2075 C2059 1.349 . S
C2075 H2067 0.950 . S
C2075 C2073 1.327 . S
C2076 C2064 1.349 . S
C2076 H2070 0.950 . S
C2076 C2077 1.327 . S
C2077 H2071 0.950 . S
C2077 C2076 1.327 . S
C2077 C2081 1.429 . S
C2078 C2061 1.574 . S
C2078 H2072 0.949 . S
C2078 C2082 1.368 . S
C2079 C2060 1.429 . S
C2079 C2073 1.429 . S
C2079 C2080 1.523 . S
C2080 C2061 1.368 . S
C2080 C2074 1.368 . S
C2080 C2079 1.523 . S
C2081 C2065 1.429 . S
C2081 C2077 1.429 . S
C2081 C2082 1.523 . S
C2082 C2066 1.368 . S
C2082 C2078 1.368 . S
C2082 C2081 1.523 . S
H2083 C2058 0.950 . S
H2084 C2060 0.950 . S
H2085 C2061 0.949 . S
H2086 C2063 0.950 . S
H2087 C2065 0.950 . S
C2088 C2089 1.349 . S
C2088 C2090 1.327 . S
C2088 H2113 0.950 . S
C2089 C2088 1.349 . S
C2089 C2105 1.349 . S
C2090 C2088 1.327 . S
C2090 C2109 1.429 . S
C2090 H2114 0.950 . S
C2091 C2108 1.574 . S
C2091 C2110 1.368 . S
C2091 H2115 0.949 . S
H2092 C2096 0.949 . S
C2093 C2094 1.349 . S
C2093 C2095 1.327 . S
C2093 H2116 0.950 . S
C2094 C2093 1.349 . S
C2094 C2106 1.349 . S
C2095 C2093 1.327 . S
C2095 C2111 1.429 . S
C2095 H2117 0.950 . S
C2096 H2092 0.949 . S
C2096 C2104 1.574 . S
C2096 C2112 1.368 . S
H2097 C2105 0.950 . S
H2098 C2103 0.950 . S
H2099 C2104 0.949 . S
H2100 C2106 0.950 . S
H2101 C2107 0.950 . S
H2102 C2108 0.949 . S
C2103 H2098 0.950 . S
C2103 C2105 1.327 . S
C2103 C2109 1.429 . S
C2104 C2096 1.574 . S
C2104 H2099 0.949 . S
C2104 C2110 1.368 . S
C2105 C2089 1.349 . S
C2105 H2097 0.950 . S
C2105 C2103 1.327 . S
C2106 C2094 1.349 . S
C2106 H2100 0.950 . S
C2106 C2107 1.327 . S
C2107 H2101 0.950 . S
C2107 C2106 1.327 . S
C2107 C2111 1.429 . S
C2108 C2091 1.574 . S
C2108 H2102 0.949 . S
C2108 C2112 1.368 . S
C2109 C2090 1.429 . S
C2109 C2103 1.429 . S
C2109 C2110 1.523 . S
C2110 C2091 1.368 . S
C2110 C2104 1.368 . S
C2110 C2109 1.523 . S
C2111 C2095 1.429 . S
C2111 C2107 1.429 . S
C2111 C2112 1.523 . S
C2112 C2096 1.368 . S
C2112 C2108 1.368 . S
C2112 C2111 1.523 . S
H2113 C2088 0.950 . S
H2114 C2090 0.950 . S
H2115 C2091 0.949 . S
H2116 C2093 0.950 . S
H2117 C2095 0.950 . S
C2118 C2119 1.349 . S
C2118 C2120 1.327 . S
C2118 H2143 0.950 . S
C2119 C2118 1.349 . S
C2119 C2135 1.349 . S
C2120 C2118 1.327 . S
C2120 C2139 1.429 . S
C2120 H2144 0.950 . S
C2121 C2138 1.574 . S
C2121 C2140 1.368 . S
C2121 H2145 0.949 . S
H2122 C2126 0.949 . S
C2123 C2124 1.349 . S
C2123 C2125 1.327 . S
C2123 H2146 0.950 . S
C2124 C2123 1.349 . S
C2124 C2136 1.349 . S
C2125 C2123 1.327 . S
C2125 C2141 1.429 . S
C2125 H2147 0.950 . S
C2126 H2122 0.949 . S
C2126 C2134 1.574 . S
C2126 C2142 1.368 . S
H2127 C2135 0.950 . S
H2128 C2133 0.950 . S
H2129 C2134 0.949 . S
H2130 C2136 0.950 . S
H2131 C2137 0.950 . S
H2132 C2138 0.949 . S
C2133 H2128 0.950 . S
C2133 C2135 1.327 . S
C2133 C2139 1.429 . S
C2134 C2126 1.574 . S
C2134 H2129 0.949 . S
C2134 C2140 1.368 . S
C2135 C2119 1.349 . S
C2135 H2127 0.950 . S
C2135 C2133 1.327 . S
C2136 C2124 1.349 . S
C2136 H2130 0.950 . S
C2136 C2137 1.327 . S
C2137 H2131 0.950 . S
C2137 C2136 1.327 . S
C2137 C2141 1.429 . S
C2138 C2121 1.574 . S
C2138 H2132 0.949 . S
C2138 C2142 1.368 . S
C2139 C2120 1.429 . S
C2139 C2133 1.429 . S
C2139 C2140 1.523 . S
C2140 C2121 1.368 . S
C2140 C2134 1.368 . S
C2140 C2139 1.523 . S
C2141 C2125 1.429 . S
C2141 C2137 1.429 . S
C2141 C2142 1.523 . S
C2142 C2126 1.368 . S
C2142 C2138 1.368 . S
C2142 C2141 1.523 . S
H2143 C2118 0.950 . S
H2144 C2120 0.950 . S
H2145 C2121 0.949 . S
H2146 C2123 0.950 . S
H2147 C2125 0.950 . S
C2148 C2149 1.349 . S
C2148 C2150 1.327 . S
C2148 H2173 0.950 . S
C2149 C2148 1.349 . S
C2149 C2165 1.349 . S
C2150 C2148 1.327 . S
C2150 C2169 1.429 . S
C2150 H2174 0.950 . S
C2151 C2168 1.574 . S
C2151 C2170 1.368 . S
C2151 H2175 0.949 . S
H2152 C2156 0.949 . S
C2153 C2154 1.349 . S
C2153 C2155 1.327 . S
C2153 H2176 0.950 . S
C2154 C2153 1.349 . S
C2154 C2166 1.349 . S
C2155 C2153 1.327 . S
C2155 C2171 1.429 . S
C2155 H2177 0.950 . S
C2156 H2152 0.949 . S
C2156 C2164 1.574 . S
C2156 C2172 1.368 . S
H2157 C2165 0.950 . S
H2158 C2163 0.950 . S
H2159 C2164 0.949 . S
H2160 C2166 0.950 . S
H2161 C2167 0.950 . S
H2162 C2168 0.949 . S
C2163 H2158 0.950 . S
C2163 C2165 1.327 . S
C2163 C2169 1.429 . S
C2164 C2156 1.574 . S
C2164 H2159 0.949 . S
C2164 C2170 1.368 . S
C2165 C2149 1.349 . S
C2165 H2157 0.950 . S
C2165 C2163 1.327 . S
C2166 C2154 1.349 . S
C2166 H2160 0.950 . S
C2166 C2167 1.327 . S
C2167 H2161 0.950 . S
C2167 C2166 1.327 . S
C2167 C2171 1.429 . S
C2168 C2151 1.574 . S
C2168 H2162 0.949 . S
C2168 C2172 1.368 . S
C2169 C2150 1.429 . S
C2169 C2163 1.429 . S
C2169 C2170 1.523 . S
C2170 C2151 1.368 . S
C2170 C2164 1.368 . S
C2170 C2169 1.523 . S
C2171 C2155 1.429 . S
C2171 C2167 1.429 . S
C2171 C2172 1.523 . S
C2172 C2156 1.368 . S
C2172 C2168 1.368 . S
C2172 C2171 1.523 . S
H2173 C2148 0.950 . S
H2174 C2150 0.950 . S
H2175 C2151 0.949 . S
H2176 C2153 0.950 . S
H2177 C2155 0.950 . S
C2178 C2179 1.349 . S
C2178 C2180 1.327 . S
C2178 H2203 0.950 . S
C2179 C2178 1.349 . S
C2179 C2195 1.349 . S
C2180 C2178 1.327 . S
C2180 C2199 1.429 . S
C2180 H2204 0.950 . S
C2181 C2198 1.574 . S
C2181 C2200 1.368 . S
C2181 H2205 0.949 . S
H2182 C2186 0.949 . S
C2183 C2184 1.349 . S
C2183 C2185 1.327 . S
C2183 H2206 0.950 . S
C2184 C2183 1.349 . S
C2184 C2196 1.349 . S
C2185 C2183 1.327 . S
C2185 C2201 1.429 . S
C2185 H2207 0.950 . S
C2186 H2182 0.949 . S
C2186 C2194 1.574 . S
C2186 C2202 1.368 . S
H2187 C2195 0.950 . S
H2188 C2193 0.950 . S
H2189 C2194 0.949 . S
H2190 C2196 0.950 . S
H2191 C2197 0.950 . S
H2192 C2198 0.949 . S
C2193 H2188 0.950 . S
C2193 C2195 1.327 . S
C2193 C2199 1.429 . S
C2194 C2186 1.574 . S
C2194 H2189 0.949 . S
C2194 C2200 1.368 . S
C2195 C2179 1.349 . S
C2195 H2187 0.950 . S
C2195 C2193 1.327 . S
C2196 C2184 1.349 . S
C2196 H2190 0.950 . S
C2196 C2197 1.327 . S
C2197 H2191 0.950 . S
C2197 C2196 1.327 . S
C2197 C2201 1.429 . S
C2198 C2181 1.574 . S
C2198 H2192 0.949 . S
C2198 C2202 1.368 . S
C2199 C2180 1.429 . S
C2199 C2193 1.429 . S
C2199 C2200 1.523 . S
C2200 C2181 1.368 . S
C2200 C2194 1.368 . S
C2200 C2199 1.523 . S
C2201 C2185 1.429 . S
C2201 C2197 1.429 . S
C2201 C2202 1.523 . S
C2202 C2186 1.368 . S
C2202 C2198 1.368 . S
C2202 C2201 1.523 . S
H2203 C2178 0.950 . S
H2204 C2180 0.950 . S
H2205 C2181 0.949 . S
H2206 C2183 0.950 . S
H2207 C2185 0.950 . S
C2208 C2209 1.349 . S
C2208 C2210 1.327 . S
C2208 H2233 0.950 . S
C2209 C2208 1.349 . S
C2209 C2225 1.349 . S
C2210 C2208 1.327 . S
C2210 C2229 1.429 . S
C2210 H2234 0.950 . S
C2211 C2228 1.574 . S
C2211 C2230 1.368 . S
C2211 H2235 0.949 . S
H2212 C2216 0.949 . S
C2213 C2214 1.349 . S
C2213 C2215 1.327 . S
C2213 H2236 0.950 . S
C2214 C2213 1.349 . S
C2214 C2226 1.349 . S
C2215 C2213 1.327 . S
C2215 C2231 1.429 . S
C2215 H2237 0.950 . S
C2216 H2212 0.949 . S
C2216 C2224 1.574 . S
C2216 C2232 1.368 . S
H2217 C2225 0.950 . S
H2218 C2223 0.950 . S
H2219 C2224 0.949 . S
H2220 C2226 0.950 . S
H2221 C2227 0.950 . S
H2222 C2228 0.949 . S
C2223 H2218 0.950 . S
C2223 C2225 1.327 . S
C2223 C2229 1.429 . S
C2224 C2216 1.574 . S
C2224 H2219 0.949 . S
C2224 C2230 1.368 . S
C2225 C2209 1.349 . S
C2225 H2217 0.950 . S
C2225 C2223 1.327 . S
C2226 C2214 1.349 . S
C2226 H2220 0.950 . S
C2226 C2227 1.327 . S
C2227 H2221 0.950 . S
C2227 C2226 1.327 . S
C2227 C2231 1.429 . S
C2228 C2211 1.574 . S
C2228 H2222 0.949 . S
C2228 C2232 1.368 . S
C2229 C2210 1.429 . S
C2229 C2223 1.429 . S
C2229 C2230 1.523 . S
C2230 C2211 1.368 . S
C2230 C2224 1.368 . S
C2230 C2229 1.523 . S
C2231 C2215 1.429 . S
C2231 C2227 1.429 . S
C2231 C2232 1.523 . S
C2232 C2216 1.368 . S
C2232 C2228 1.368 . S
C2232 C2231 1.523 . S
H2233 C2208 0.950 . S
H2234 C2210 0.950 . S
H2235 C2211 0.949 . S
H2236 C2213 0.950 . S
H2237 C2215 0.950 . S
C2238 C2239 1.349 . S
C2238 C2240 1.327 . S
C2238 H2263 0.950 . S
C2239 C2238 1.349 . S
C2239 C2255 1.349 . S
C2240 C2238 1.327 . S
C2240 C2259 1.429 . S
C2240 H2264 0.950 . S
C2241 C2258 1.574 . S
C2241 C2260 1.368 . S
C2241 H2265 0.949 . S
H2242 C2246 0.949 . S
C2243 C2244 1.349 . S
C2243 C2245 1.327 . S
C2243 H2266 0.950 . S
C2244 C2243 1.349 . S
C2244 C2256 1.349 . S
C2245 C2243 1.327 . S
C2245 C2261 1.429 . S
C2245 H2267 0.950 . S
C2246 H2242 0.949 . S
C2246 C2254 1.574 . S
C2246 C2262 1.368 . S
H2247 C2255 0.950 . S
H2248 C2253 0.950 . S
H2249 C2254 0.949 . S
H2250 C2256 0.950 . S
H2251 C2257 0.950 . S
H2252 C2258 0.949 . S
C2253 H2248 0.950 . S
C2253 C2255 1.327 . S
C2253 C2259 1.429 . S
C2254 C2246 1.574 . S
C2254 H2249 0.949 . S
C2254 C2260 1.368 . S
C2255 C2239 1.349 . S
C2255 H2247 0.950 . S
C2255 C2253 1.327 . S
C2256 C2244 1.349 . S
C2256 H2250 0.950 . S
C2256 C2257 1.327 . S
C2257 H2251 0.950 . S
C2257 C2256 1.327 . S
C2257 C2261 1.429 . S
C2258 C2241 1.574 . S
C2258 H2252 0.949 . S
C2258 C2262 1.368 . S
C2259 C2240 1.429 . S
C2259 C2253 1.429 . S
C2259 C2260 1.523 . S
C2260 C2241 1.368 . S
C2260 C2254 1.368 . S
C2260 C2259 1.523 . S
C2261 C2245 1.429 . S
C2261 C2257 1.429 . S
C2261 C2262 1.523 . S
C2262 C2246 1.368 . S
C2262 C2258 1.368 . S
C2262 C2261 1.523 . S
H2263 C2238 0.950 . S
H2264 C2240 0.950 . S
H2265 C2241 0.949 . S
H2266 C2243 0.950 . S
H2267 C2245 0.950 . S
C2268 C2269 1.349 . S
C2268 C2270 1.327 . S
C2268 H2293 0.950 . S
C2269 C2268 1.349 . S
C2269 C2285 1.349 . S
C2270 C2268 1.327 . S
C2270 C2289 1.429 . S
C2270 H2294 0.950 . S
C2271 C2288 1.574 . S
C2271 C2290 1.368 . S
C2271 H2295 0.949 . S
H2272 C2276 0.949 . S
C2273 C2274 1.349 . S
C2273 C2275 1.327 . S
C2273 H2296 0.950 . S
C2274 C2273 1.349 . S
C2274 C2286 1.349 . S
C2275 C2273 1.327 . S
C2275 C2291 1.429 . S
C2275 H2297 0.950 . S
C2276 H2272 0.949 . S
C2276 C2284 1.574 . S
C2276 C2292 1.368 . S
H2277 C2285 0.950 . S
H2278 C2283 0.950 . S
H2279 C2284 0.949 . S
H2280 C2286 0.950 . S
H2281 C2287 0.950 . S
H2282 C2288 0.949 . S
C2283 H2278 0.950 . S
C2283 C2285 1.327 . S
C2283 C2289 1.429 . S
C2284 C2276 1.574 . S
C2284 H2279 0.949 . S
C2284 C2290 1.368 . S
C2285 C2269 1.349 . S
C2285 H2277 0.950 . S
C2285 C2283 1.327 . S
C2286 C2274 1.349 . S
C2286 H2280 0.950 . S
C2286 C2287 1.327 . S
C2287 H2281 0.950 . S
C2287 C2286 1.327 . S
C2287 C2291 1.429 . S
C2288 C2271 1.574 . S
C2288 H2282 0.949 . S
C2288 C2292 1.368 . S
C2289 C2270 1.429 . S
C2289 C2283 1.429 . S
C2289 C2290 1.523 . S
C2290 C2271 1.368 . S
C2290 C2284 1.368 . S
C2290 C2289 1.523 . S
C2291 C2275 1.429 . S
C2291 C2287 1.429 . S
C2291 C2292 1.523 . S
C2292 C2276 1.368 . S
C2292 C2288 1.368 . S
C2292 C2291 1.523 . S
H2293 C2268 0.950 . S
H2294 C2270 0.950 . S
H2295 C2271 0.949 . S
H2296 C2273 0.950 . S
H2297 C2275 0.950 . S
C2298 C2299 1.349 . S
C2298 C2300 1.327 . S
C2298 H2323 0.950 . S
C2299 C2298 1.349 . S
C2299 C2315 1.349 . S
C2300 C2298 1.327 . S
C2300 C2319 1.429 . S
C2300 H2324 0.950 . S
C2301 C2318 1.574 . S
C2301 C2320 1.368 . S
C2301 H2325 0.949 . S
H2302 C2306 0.949 . S
C2303 C2304 1.349 . S
C2303 C2305 1.327 . S
C2303 H2326 0.950 . S
C2304 C2303 1.349 . S
C2304 C2316 1.349 . S
C2305 C2303 1.327 . S
C2305 C2321 1.429 . S
C2305 H2327 0.950 . S
C2306 H2302 0.949 . S
C2306 C2314 1.574 . S
C2306 C2322 1.368 . S
H2307 C2315 0.950 . S
H2308 C2313 0.950 . S
H2309 C2314 0.949 . S
H2310 C2316 0.950 . S
H2311 C2317 0.950 . S
H2312 C2318 0.949 . S
C2313 H2308 0.950 . S
C2313 C2315 1.327 . S
C2313 C2319 1.429 . S
C2314 C2306 1.574 . S
C2314 H2309 0.949 . S
C2314 C2320 1.368 . S
C2315 C2299 1.349 . S
C2315 H2307 0.950 . S
C2315 C2313 1.327 . S
C2316 C2304 1.349 . S
C2316 H2310 0.950 . S
C2316 C2317 1.327 . S
C2317 H2311 0.950 . S
C2317 C2316 1.327 . S
C2317 C2321 1.429 . S
C2318 C2301 1.574 . S
C2318 H2312 0.949 . S
C2318 C2322 1.368 . S
C2319 C2300 1.429 . S
C2319 C2313 1.429 . S
C2319 C2320 1.523 . S
C2320 C2301 1.368 . S
C2320 C2314 1.368 . S
C2320 C2319 1.523 . S
C2321 C2305 1.429 . S
C2321 C2317 1.429 . S
C2321 C2322 1.523 . S
C2322 C2306 1.368 . S
C2322 C2318 1.368 . S
C2322 C2321 1.523 . S
H2323 C2298 0.950 . S
H2324 C2300 0.950 . S
H2325 C2301 0.949 . S
H2326 C2303 0.950 . S
H2327 C2305 0.950 . S
C2328 C2329 1.349 . S
C2328 C2330 1.327 . S
C2328 H2353 0.950 . S
C2329 C2328 1.349 . S
C2329 C2345 1.349 . S
C2330 C2328 1.327 . S
C2330 C2349 1.429 . S
C2330 H2354 0.950 . S
C2331 C2348 1.574 . S
C2331 C2350 1.368 . S
C2331 H2355 0.949 . S
H2332 C2336 0.949 . S
C2333 C2334 1.349 . S
C2333 C2335 1.327 . S
C2333 H2356 0.950 . S
C2334 C2333 1.349 . S
C2334 C2346 1.349 . S
C2335 C2333 1.327 . S
C2335 C2351 1.429 . S
C2335 H2357 0.950 . S
C2336 H2332 0.949 . S
C2336 C2344 1.574 . S
C2336 C2352 1.368 . S
H2337 C2345 0.950 . S
H2338 C2343 0.950 . S
H2339 C2344 0.949 . S
H2340 C2346 0.950 . S
H2341 C2347 0.950 . S
H2342 C2348 0.949 . S
C2343 H2338 0.950 . S
C2343 C2345 1.327 . S
C2343 C2349 1.429 . S
C2344 C2336 1.574 . S
C2344 H2339 0.949 . S
C2344 C2350 1.368 . S
C2345 C2329 1.349 . S
C2345 H2337 0.950 . S
C2345 C2343 1.327 . S
C2346 C2334 1.349 . S
C2346 H2340 0.950 . S
C2346 C2347 1.327 . S
C2347 H2341 0.950 . S
C2347 C2346 1.327 . S
C2347 C2351 1.429 . S
C2348 C2331 1.574 . S
C2348 H2342 0.949 . S
C2348 C2352 1.368 . S
C2349 C2330 1.429 . S
C2349 C2343 1.429 . S
C2349 C2350 1.523 . S
C2350 C2331 1.368 . S
C2350 C2344 1.368 . S
C2350 C2349 1.523 . S
C2351 C2335 1.429 . S
C2351 C2347 1.429 . S
C2351 C2352 1.523 . S
C2352 C2336 1.368 . S
C2352 C2348 1.368 . S
C2352 C2351 1.523 . S
H2353 C2328 0.950 . S
H2354 C2330 0.950 . S
H2355 C2331 0.949 . S
H2356 C2333 0.950 . S
H2357 C2335 0.950 . S
C2358 C2359 1.349 . S
C2358 C2360 1.327 . S
C2358 H2383 0.950 . S
C2359 C2358 1.349 . S
C2359 C2375 1.349 . S
C2360 C2358 1.327 . S
C2360 C2379 1.429 . S
C2360 H2384 0.950 . S
C2361 C2378 1.574 . S
C2361 C2380 1.368 . S
C2361 H2385 0.949 . S
H2362 C2366 0.949 . S
C2363 C2364 1.349 . S
C2363 C2365 1.327 . S
C2363 H2386 0.950 . S
C2364 C2363 1.349 . S
C2364 C2376 1.349 . S
C2365 C2363 1.327 . S
C2365 C2381 1.429 . S
C2365 H2387 0.950 . S
C2366 H2362 0.949 . S
C2366 C2374 1.574 . S
C2366 C2382 1.368 . S
H2367 C2375 0.950 . S
H2368 C2373 0.950 . S
H2369 C2374 0.949 . S
H2370 C2376 0.950 . S
H2371 C2377 0.950 . S
H2372 C2378 0.949 . S
C2373 H2368 0.950 . S
C2373 C2375 1.327 . S
C2373 C2379 1.429 . S
C2374 C2366 1.574 . S
C2374 H2369 0.949 . S
C2374 C2380 1.368 . S
C2375 C2359 1.349 . S
C2375 H2367 0.950 . S
C2375 C2373 1.327 . S
C2376 C2364 1.349 . S
C2376 H2370 0.950 . S
C2376 C2377 1.327 . S
C2377 H2371 0.950 . S
C2377 C2376 1.327 . S
C2377 C2381 1.429 . S
C2378 C2361 1.574 . S
C2378 H2372 0.949 . S
C2378 C2382 1.368 . S
C2379 C2360 1.429 . S
C2379 C2373 1.429 . S
C2379 C2380 1.523 . S
C2380 C2361 1.368 . S
C2380 C2374 1.368 . S
C2380 C2379 1.523 . S
C2381 C2365 1.429 . S
C2381 C2377 1.429 . S
C2381 C2382 1.523 . S
C2382 C2366 1.368 . S
C2382 C2378 1.368 . S
C2382 C2381 1.523 . S
H2383 C2358 0.950 . S
H2384 C2360 0.950 . S
H2385 C2361 0.949 . S
H2386 C2363 0.950 . S
H2387 C2365 0.950 . S
C2388 C2389 1.349 . S
C2388 C2390 1.327 . S
C2388 H2413 0.950 . S
C2389 C2388 1.349 . S
C2389 C2405 1.349 . S
C2390 C2388 1.327 . S
C2390 C2409 1.429 . S
C2390 H2414 0.950 . S
C2391 C2408 1.574 . S
C2391 C2410 1.368 . S
C2391 H2415 0.949 . S
H2392 C2396 0.949 . S
C2393 C2394 1.349 . S
C2393 C2395 1.327 . S
C2393 H2416 0.950 . S
C2394 C2393 1.349 . S
C2394 C2406 1.349 . S
C2395 C2393 1.327 . S
C2395 C2411 1.429 . S
C2395 H2417 0.950 . S
C2396 H2392 0.949 . S
C2396 C2404 1.574 . S
C2396 C2412 1.368 . S
H2397 C2405 0.950 . S
H2398 C2403 0.950 . S
H2399 C2404 0.949 . S
H2400 C2406 0.950 . S
H2401 C2407 0.950 . S
H2402 C2408 0.949 . S
C2403 H2398 0.950 . S
C2403 C2405 1.327 . S
C2403 C2409 1.429 . S
C2404 C2396 1.574 . S
C2404 H2399 0.949 . S
C2404 C2410 1.368 . S
C2405 C2389 1.349 . S
C2405 H2397 0.950 . S
C2405 C2403 1.327 . S
C2406 C2394 1.349 . S
C2406 H2400 0.950 . S
C2406 C2407 1.327 . S
C2407 H2401 0.950 . S
C2407 C2406 1.327 . S
C2407 C2411 1.429 . S
C2408 C2391 1.574 . S
C2408 H2402 0.949 . S
C2408 C2412 1.368 . S
C2409 C2390 1.429 . S
C2409 C2403 1.429 . S
C2409 C2410 1.523 . S
C2410 C2391 1.368 . S
C2410 C2404 1.368 . S
C2410 C2409 1.523 . S
C2411 C2395 1.429 . S
C2411 C2407 1.429 . S
C2411 C2412 1.523 . S
C2412 C2396 1.368 . S
C2412 C2408 1.368 . S
C2412 C2411 1.523 . S
H2413 C2388 0.950 . S
H2414 C2390 0.950 . S
H2415 C2391 0.949 . S
H2416 C2393 0.950 . S
H2417 C2395 0.950 . S
C2418 C2419 1.349 . S
C2418 C2420 1.327 . S
C2418 H2443 0.950 . S
C2419 C2418 1.349 . S
C2419 C2435 1.349 . S
C2420 C2418 1.327 . S
C2420 C2439 1.429 . S
C2420 H2444 0.950 . S
C2421 C2438 1.574 . S
C2421 C2440 1.368 . S
C2421 H2445 0.949 . S
H2422 C2426 0.949 . S
C2423 C2424 1.349 . S
C2423 C2425 1.327 . S
C2423 H2446 0.950 . S
C2424 C2423 1.349 . S
C2424 C2436 1.349 . S
C2425 C2423 1.327 . S
C2425 C2441 1.429 . S
C2425 H2447 0.950 . S
C2426 H2422 0.949 . S
C2426 C2434 1.574 . S
C2426 C2442 1.368 . S
H2427 C2435 0.950 . S
H2428 C2433 0.950 . S
H2429 C2434 0.949 . S
H2430 C2436 0.950 . S
H2431 C2437 0.950 . S
H2432 C2438 0.949 . S
C2433 H2428 0.950 . S
C2433 C2435 1.327 . S
C2433 C2439 1.429 . S
C2434 C2426 1.574 . S
C2434 H2429 0.949 . S
C2434 C2440 1.368 . S
C2435 C2419 1.349 . S
C2435 H2427 0.950 . S
C2435 C2433 1.327 . S
C2436 C2424 1.349 . S
C2436 H2430 0.950 . S
C2436 C2437 1.327 . S
C2437 H2431 0.950 . S
C2437 C2436 1.327 . S
C2437 C2441 1.429 . S
C2438 C2421 1.574 . S
C2438 H2432 0.949 . S
C2438 C2442 1.368 . S
C2439 C2420 1.429 . S
C2439 C2433 1.429 . S
C2439 C2440 1.523 . S
C2440 C2421 1.368 . S
C2440 C2434 1.368 . S
C2440 C2439 1.523 . S
C2441 C2425 1.429 . S
C2441 C2437 1.429 . S
C2441 C2442 1.523 . S
C2442 C2426 1.368 . S
C2442 C2438 1.368 . S
C2442 C2441 1.523 . S
H2443 C2418 0.950 . S
H2444 C2420 0.950 . S
H2445 C2421 0.949 . S
H2446 C2423 0.950 . S
H2447 C2425 0.950 . S
C2448 C2449 1.349 . S
C2448 C2450 1.327 . S
C2448 H2473 0.950 . S
C2449 C2448 1.349 . S
C2449 C2465 1.349 . S
C2450 C2448 1.327 . S
C2450 C2469 1.429 . S
C2450 H2474 0.950 . S
C2451 C2468 1.574 . S
C2451 C2470 1.368 . S
C2451 H2475 0.949 . S
H2452 C2456 0.949 . S
C2453 C2454 1.349 . S
C2453 C2455 1.327 . S
C2453 H2476 0.950 . S
C2454 C2453 1.349 . S
C2454 C2466 1.349 . S
C2455 C2453 1.327 . S
C2455 C2471 1.429 . S
C2455 H2477 0.950 . S
C2456 H2452 0.949 . S
C2456 C2464 1.574 . S
C2456 C2472 1.368 . S
H2457 C2465 0.950 . S
H2458 C2463 0.950 . S
H2459 C2464 0.949 . S
H2460 C2466 0.950 . S
H2461 C2467 0.950 . S
H2462 C2468 0.949 . S
C2463 H2458 0.950 . S
C2463 C2465 1.327 . S
C2463 C2469 1.429 . S
C2464 C2456 1.574 . S
C2464 H2459 0.949 . S
C2464 C2470 1.368 . S
C2465 C2449 1.349 . S
C2465 H2457 0.950 . S
C2465 C2463 1.327 . S
C2466 C2454 1.349 . S
C2466 H2460 0.950 . S
C2466 C2467 1.327 . S
C2467 H2461 0.950 . S
C2467 C2466 1.327 . S
C2467 C2471 1.429 . S
C2468 C2451 1.574 . S
C2468 H2462 0.949 . S
C2468 C2472 1.368 . S
C2469 C2450 1.429 . S
C2469 C2463 1.429 . S
C2469 C2470 1.523 . S
C2470 C2451 1.368 . S
C2470 C2464 1.368 . S
C2470 C2469 1.523 . S
C2471 C2455 1.429 . S
C2471 C2467 1.429 . S
C2471 C2472 1.523 . S
C2472 C2456 1.368 . S
C2472 C2468 1.368 . S
C2472 C2471 1.523 . S
H2473 C2448 0.950 . S
H2474 C2450 0.950 . S
H2475 C2451 0.949 . S
H2476 C2453 0.950 . S
H2477 C2455 0.950 . S
C2478 C2479 1.349 . S
C2478 C2480 1.327 . S
C2478 H2503 0.950 . S
C2479 C2478 1.349 . S
C2479 C2495 1.349 . S
C2480 C2478 1.327 . S
C2480 C2499 1.429 . S
C2480 H2504 0.950 . S
C2481 C2498 1.574 . S
C2481 C2500 1.368 . S
C2481 H2505 0.949 . S
H2482 C2486 0.949 . S
C2483 C2484 1.349 . S
C2483 C2485 1.327 . S
C2483 H2506 0.950 . S
C2484 C2483 1.349 . S
C2484 C2496 1.349 . S
C2485 C2483 1.327 . S
C2485 C2501 1.429 . S
C2485 H2507 0.950 . S
C2486 H2482 0.949 . S
C2486 C2494 1.574 . S
C2486 C2502 1.368 . S
H2487 C2495 0.950 . S
H2488 C2493 0.950 . S
H2489 C2494 0.949 . S
H2490 C2496 0.950 . S
H2491 C2497 0.950 . S
H2492 C2498 0.949 . S
C2493 H2488 0.950 . S
C2493 C2495 1.327 . S
C2493 C2499 1.429 . S
C2494 C2486 1.574 . S
C2494 H2489 0.949 . S
C2494 C2500 1.368 . S
C2495 C2479 1.349 . S
C2495 H2487 0.950 . S
C2495 C2493 1.327 . S
C2496 C2484 1.349 . S
C2496 H2490 0.950 . S
C2496 C2497 1.327 . S
C2497 H2491 0.950 . S
C2497 C2496 1.327 . S
C2497 C2501 1.429 . S
C2498 C2481 1.574 . S
C2498 H2492 0.949 . S
C2498 C2502 1.368 . S
C2499 C2480 1.429 . S
C2499 C2493 1.429 . S
C2499 C2500 1.523 . S
C2500 C2481 1.368 . S
C2500 C2494 1.368 . S
C2500 C2499 1.523 . S
C2501 C2485 1.429 . S
C2501 C2497 1.429 . S
C2501 C2502 1.523 . S
C2502 C2486 1.368 . S
C2502 C2498 1.368 . S
C2502 C2501 1.523 . S
H2503 C2478 0.950 . S
H2504 C2480 0.950 . S
H2505 C2481 0.949 . S
H2506 C2483 0.950 . S
H2507 C2485 0.950 . S
C2508 C2509 1.349 . S
C2508 C2510 1.327 . S
C2508 H2533 0.950 . S
C2509 C2508 1.349 . S
C2509 C2525 1.349 . S
C2510 C2508 1.327 . S
C2510 C2529 1.429 . S
C2510 H2534 0.950 . S
C2511 C2528 1.574 . S
C2511 C2530 1.368 . S
C2511 H2535 0.949 . S
H2512 C2516 0.949 . S
C2513 C2514 1.349 . S
C2513 C2515 1.327 . S
C2513 H2536 0.950 . S
C2514 C2513 1.349 . S
C2514 C2526 1.349 . S
C2515 C2513 1.327 . S
C2515 C2531 1.429 . S
C2515 H2537 0.950 . S
C2516 H2512 0.949 . S
C2516 C2524 1.574 . S
C2516 C2532 1.368 . S
H2517 C2525 0.950 . S
H2518 C2523 0.950 . S
H2519 C2524 0.949 . S
H2520 C2526 0.950 . S
H2521 C2527 0.950 . S
H2522 C2528 0.949 . S
C2523 H2518 0.950 . S
C2523 C2525 1.327 . S
C2523 C2529 1.429 . S
C2524 C2516 1.574 . S
C2524 H2519 0.949 . S
C2524 C2530 1.368 . S
C2525 C2509 1.349 . S
C2525 H2517 0.950 . S
C2525 C2523 1.327 . S
C2526 C2514 1.349 . S
C2526 H2520 0.950 . S
C2526 C2527 1.327 . S
C2527 H2521 0.950 . S
C2527 C2526 1.327 . S
C2527 C2531 1.429 . S
C2528 C2511 1.574 . S
C2528 H2522 0.949 . S
C2528 C2532 1.368 . S
C2529 C2510 1.429 . S
C2529 C2523 1.429 . S
C2529 C2530 1.523 . S
C2530 C2511 1.368 . S
C2530 C2524 1.368 . S
C2530 C2529 1.523 . S
C2531 C2515 1.429 . S
C2531 C2527 1.429 . S
C2531 C2532 1.523 . S
C2532 C2516 1.368 . S
C2532 C2528 1.368 . S
C2532 C2531 1.523 . S
H2533 C2508 0.950 . S
H2534 C2510 0.950 . S
H2535 C2511 0.949 . S
H2536 C2513 0.950 . S
H2537 C2515 0.950 . S
C2538 C2539 1.349 . S
C2538 C2540 1.327 . S
C2538 H2563 0.950 . S
C2539 C2538 1.349 . S
C2539 C2555 1.349 . S
C2540 C2538 1.327 . S
C2540 C2559 1.429 . S
C2540 H2564 0.950 . S
C2541 C2558 1.574 . S
C2541 C2560 1.368 . S
C2541 H2565 0.949 . S
H2542 C2546 0.949 . S
C2543 C2544 1.349 . S
C2543 C2545 1.327 . S
C2543 H2566 0.950 . S
C2544 C2543 1.349 . S
C2544 C2556 1.349 . S
C2545 C2543 1.327 . S
C2545 C2561 1.429 . S
C2545 H2567 0.950 . S
C2546 H2542 0.949 . S
C2546 C2554 1.574 . S
C2546 C2562 1.368 . S
H2547 C2555 0.950 . S
H2548 C2553 0.950 . S
H2549 C2554 0.949 . S
H2550 C2556 0.950 . S
H2551 C2557 0.950 . S
H2552 C2558 0.949 . S
C2553 H2548 0.950 . S
C2553 C2555 1.327 . S
C2553 C2559 1.429 . S
C2554 C2546 1.574 . S
C2554 H2549 0.949 . S
C2554 C2560 1.368 . S
C2555 C2539 1.349 . S
C2555 H2547 0.950 . S
C2555 C2553 1.327 . S
C2556 C2544 1.349 . S
C2556 H2550 0.950 . S
C2556 C2557 1.327 . S
C2557 H2551 0.950 . S
C2557 C2556 1.327 . S
C2557 C2561 1.429 . S
C2558 C2541 1.574 . S
C2558 H2552 0.949 . S
C2558 C2562 1.368 . S
C2559 C2540 1.429 . S
C2559 C2553 1.429 . S
C2559 C2560 1.523 . S
C2560 C2541 1.368 . S
C2560 C2554 1.368 . S
C2560 C2559 1.523 . S
C2561 C2545 1.429 . S
C2561 C2557 1.429 . S
C2561 C2562 1.523 . S
C2562 C2546 1.368 . S
C2562 C2558 1.368 . S
C2562 C2561 1.523 . S
H2563 C2538 0.950 . S
H2564 C2540 0.950 . S
H2565 C2541 0.949 . S
H2566 C2543 0.950 . S
H2567 C2545 0.950 . S
C2568 C2569 1.349 . S
C2568 C2570 1.327 . S
C2568 H2593 0.950 . S
C2569 C2568 1.349 . S
C2569 C2585 1.349 . S
C2570 C2568 1.327 . S
C2570 C2589 1.429 . S
C2570 H2594 0.950 . S
C2571 C2588 1.574 . S
C2571 C2590 1.368 . S
C2571 H2595 0.949 . S
H2572 C2576 0.949 . S
C2573 C2574 1.349 . S
C2573 C2575 1.327 . S
C2573 H2596 0.950 . S
C2574 C2573 1.349 . S
C2574 C2586 1.349 . S
C2575 C2573 1.327 . S
C2575 C2591 1.429 . S
C2575 H2597 0.950 . S
C2576 H2572 0.949 . S
C2576 C2584 1.574 . S
C2576 C2592 1.368 . S
H2577 C2585 0.950 . S
H2578 C2583 0.950 . S
H2579 C2584 0.949 . S
H2580 C2586 0.950 . S
H2581 C2587 0.950 . S
H2582 C2588 0.949 . S
C2583 H2578 0.950 . S
C2583 C2585 1.327 . S
C2583 C2589 1.429 . S
C2584 C2576 1.574 . S
C2584 H2579 0.949 . S
C2584 C2590 1.368 . S
C2585 C2569 1.349 . S
C2585 H2577 0.950 . S
C2585 C2583 1.327 . S
C2586 C2574 1.349 . S
C2586 H2580 0.950 . S
C2586 C2587 1.327 . S
C2587 H2581 0.950 . S
C2587 C2586 1.327 . S
C2587 C2591 1.429 . S
C2588 C2571 1.574 . S
C2588 H2582 0.949 . S
C2588 C2592 1.368 . S
C2589 C2570 1.429 . S
C2589 C2583 1.429 . S
C2589 C2590 1.523 . S
C2590 C2571 1.368 . S
C2590 C2584 1.368 . S
C2590 C2589 1.523 . S
C2591 C2575 1.429 . S
C2591 C2587 1.429 . S
C2591 C2592 1.523 . S
C2592 C2576 1.368 . S
C2592 C2588 1.368 . S
C2592 C2591 1.523 . S
H2593 C2568 0.950 . S
H2594 C2570 0.950 . S
H2595 C2571 0.949 . S
H2596 C2573 0.950 . S
H2597 C2575 0.950 . S
C2598 C2599 1.349 . S
C2598 C2600 1.327 . S
C2598 H2623 0.950 . S
C2599 C2598 1.349 . S
C2599 C2615 1.349 . S
C2600 C2598 1.327 . S
C2600 C2619 1.429 . S
C2600 H2624 0.950 . S
C2601 C2618 1.574 . S
C2601 C2620 1.368 . S
C2601 H2625 0.949 . S
H2602 C2606 0.949 . S
C2603 C2604 1.349 . S
C2603 C2605 1.327 . S
C2603 H2626 0.950 . S
C2604 C2603 1.349 . S
C2604 C2616 1.349 . S
C2605 C2603 1.327 . S
C2605 C2621 1.429 . S
C2605 H2627 0.950 . S
C2606 H2602 0.949 . S
C2606 C2614 1.574 . S
C2606 C2622 1.368 . S
H2607 C2615 0.950 . S
H2608 C2613 0.950 . S
H2609 C2614 0.949 . S
H2610 C2616 0.950 . S
H2611 C2617 0.950 . S
H2612 C2618 0.949 . S
C2613 H2608 0.950 . S
C2613 C2615 1.327 . S
C2613 C2619 1.429 . S
C2614 C2606 1.574 . S
C2614 H2609 0.949 . S
C2614 C2620 1.368 . S
C2615 C2599 1.349 . S
C2615 H2607 0.950 . S
C2615 C2613 1.327 . S
C2616 C2604 1.349 . S
C2616 H2610 0.950 . S
C2616 C2617 1.327 . S
C2617 H2611 0.950 . S
C2617 C2616 1.327 . S
C2617 C2621 1.429 . S
C2618 C2601 1.574 . S
C2618 H2612 0.949 . S
C2618 C2622 1.368 . S
C2619 C2600 1.429 . S
C2619 C2613 1.429 . S
C2619 C2620 1.523 . S
C2620 C2601 1.368 . S
C2620 C2614 1.368 . S
C2620 C2619 1.523 . S
C2621 C2605 1.429 . S
C2621 C2617 1.429 . S
C2621 C2622 1.523 . S
C2622 C2606 1.368 . S
C2622 C2618 1.368 . S
C2622 C2621 1.523 . S
H2623 C2598 0.950 . S
H2624 C2600 0.950 . S
H2625 C2601 0.949 . S
H2626 C2603 0.950 . S
H2627 C2605 0.950 . S
C2628 C2629 1.349 . S
C2628 C2630 1.327 . S
C2628 H2653 0.950 . S
C2629 C2628 1.349 . S
C2629 C2645 1.349 . S
C2630 C2628 1.327 . S
C2630 C2649 1.429 . S
C2630 H2654 0.950 . S
C2631 C2648 1.574 . S
C2631 C2650 1.368 . S
C2631 H2655 0.949 . S
H2632 C2636 0.949 . S
C2633 C2634 1.349 . S
C2633 C2635 1.327 . S
C2633 H2656 0.950 . S
C2634 C2633 1.349 . S
C2634 C2646 1.349 . S
C2635 C2633 1.327 . S
C2635 C2651 1.429 . S
C2635 H2657 0.950 . S
C2636 H2632 0.949 . S
C2636 C2644 1.574 . S
C2636 C2652 1.368 . S
H2637 C2645 0.950 . S
H2638 C2643 0.950 . S
H2639 C2644 0.949 . S
H2640 C2646 0.950 . S
H2641 C2647 0.950 . S
H2642 C2648 0.949 . S
C2643 H2638 0.950 . S
C2643 C2645 1.327 . S
C2643 C2649 1.429 . S
C2644 C2636 1.574 . S
C2644 H2639 0.949 . S
C2644 C2650 1.368 . S
C2645 C2629 1.349 . S
C2645 H2637 0.950 . S
C2645 C2643 1.327 . S
C2646 C2634 1.349 . S
C2646 H2640 0.950 . S
C2646 C2647 1.327 . S
C2647 H2641 0.950 . S
C2647 C2646 1.327 . S
C2647 C2651 1.429 . S
C2648 C2631 1.574 . S
C2648 H2642 0.949 . S
C2648 C2652 1.368 . S
C2649 C2630 1.429 . S
C2649 C2643 1.429 . S
C2649 C2650 1.523 . S
C2650 C2631 1.368 . S
C2650 C2644 1.368 . S
C2650 C2649 1.523 . S
C2651 C2635 1.429 . S
C2651 C2647 1.429 . S
C2651 C2652 1.523 . S
C2652 C2636 1.368 . S
C2652 C2648 1.368 . S
C2652 C2651 1.523 . S
H2653 C2628 0.950 . S
H2654 C2630 0.950 . S
H2655 C2631 0.949 . S
H2656 C2633 0.950 . S
H2657 C2635 0.950 . S
C2658 C2659 1.349 . S
C2658 C2660 1.327 . S
C2658 H2683 0.950 . S
C2659 C2658 1.349 . S
C2659 C2675 1.349 . S
C2660 C2658 1.327 . S
C2660 C2679 1.429 . S
C2660 H2684 0.950 . S
C2661 C2678 1.574 . S
C2661 C2680 1.368 . S
C2661 H2685 0.949 . S
H2662 C2666 0.949 . S
C2663 C2664 1.349 . S
C2663 C2665 1.327 . S
C2663 H2686 0.950 . S
C2664 C2663 1.349 . S
C2664 C2676 1.349 . S
C2665 C2663 1.327 . S
C2665 C2681 1.429 . S
C2665 H2687 0.950 . S
C2666 H2662 0.949 . S
C2666 C2674 1.574 . S
C2666 C2682 1.368 . S
H2667 C2675 0.950 . S
H2668 C2673 0.950 . S
H2669 C2674 0.949 . S
H2670 C2676 0.950 . S
H2671 C2677 0.950 . S
H2672 C2678 0.949 . S
C2673 H2668 0.950 . S
C2673 C2675 1.327 . S
C2673 C2679 1.429 . S
C2674 C2666 1.574 . S
C2674 H2669 0.949 . S
C2674 C2680 1.368 . S
C2675 C2659 1.349 . S
C2675 H2667 0.950 . S
C2675 C2673 1.327 . S
C2676 C2664 1.349 . S
C2676 H2670 0.950 . S
C2676 C2677 1.327 . S
C2677 H2671 0.950 . S
C2677 C2676 1.327 . S
C2677 C2681 1.429 . S
C2678 C2661 1.574 . S
C2678 H2672 0.949 . S
C2678 C2682 1.368 . S
C2679 C2660 1.429 . S
C2679 C2673 1.429 . S
C2679 C2680 1.523 . S
C2680 C2661 1.368 . S
C2680 C2674 1.368 . S
C2680 C2679 1.523 . S
C2681 C2665 1.429 . S
C2681 C2677 1.429 . S
C2681 C2682 1.523 . S
C2682 C2666 1.368 . S
C2682 C2678 1.368 . S
C2682 C2681 1.523 . S
H2683 C2658 0.950 . S
H2684 C2660 0.950 . S
H2685 C2661 0.949 . S
H2686 C2663 0.950 . S
H2687 C2665 0.950 . S
C529 C7 1.126 . S
C534 C360 1.153 . S
C559 C29 1.126 . S
C564 C514 1.161 . S
C589 C470 1.161 . S
C594 C51 1.127 . S
C619 C72 1.126 . S
C624 C492 1.161 . S
C649 C94 1.126 . S
C654 C378 1.163 . S
C679 C117 1.126 . S
C684 C400 1.161 . S
C709 C138 1.126 . S
C714 C422 1.169 . S
C739 C160 1.126 . S
C744 C444 1.161 . S
C769 C183 1.126 . S
C774 C8 1.153 . S
C799 C204 1.126 . S
C804 C30 1.161 . S
C829 C52 1.161 . S
C834 C226 1.134 . S
C859 C70 1.161 . S
C864 C249 1.126 . S
C889 C270 1.126 . S
C894 C92 1.159 . S
C919 C293 1.126 . S
C924 C118 1.161 . S
C949 C315 1.126 . S
C954 C136 1.163 . S
C979 C336 1.126 . S
C984 C158 1.161 . S
C1009 C359 1.126 . S
C1014 C184 1.153 . S
C1039 C380 1.126 . S
C1044 C268 1.169 . S
C1069 C294 1.161 . S
C1074 C402 1.126 . S
C1099 C424 1.126 . S
C1104 C316 1.159 . S
C1129 C446 1.126 . S
C1134 C334 1.161 . S
C1159 C469 1.126 . S
C1164 C224 1.163 . S
C1189 C250 1.161 . S
C1194 C491 1.126 . S
C1219 C513 1.126 . S
C1224 C202 1.161 . S
C1249 C466 1.161 . S
C1254 C97 1.134 . S
C1279 C488 1.161 . S
C1284 C115 1.126 . S
C1309 C141 1.126 . S
C1314 C356 1.163 . S
C1339 C163 1.126 . S
C1344 C510 1.161 . S
C1369 C426 1.161 . S
C1374 C5 1.127 . S
C1399 C27 1.126 . S
C1404 C448 1.161 . S
C1429 C382 1.161 . S
C1434 C49 1.118 . S
C1459 C75 1.126 . S
C1464 C404 1.161 . S
C1489 C313 1.126 . S
C1494 C96 1.169 . S
C1519 C339 1.126 . S
C1524 C114 1.161 . S
C1549 C273 1.126 . S
C1554 C140 1.153 . S
C1579 C162 1.161 . S
C1584 C291 1.126 . S
C1609 C229 1.126 . S
C1614 C4 1.163 . S
C1639 C247 1.126 . S
C1644 C26 1.161 . S
C1669 C181 1.126 . S
C1674 C48 1.159 . S
C1699 C207 1.126 . S
C1704 C74 1.161 . S
C1729 C312 1.161 . S
C1734 C467 1.134 . S
C1759 C427 1.126 . S
C1764 C228 1.153 . S
C1789 C246 1.161 . S
C1794 C449 1.126 . S
C1819 C383 1.126 . S
C1824 C180 1.163 . S
C1849 C405 1.126 . S
C1854 C206 1.161 . S
C1879 C357 1.126 . S
C1884 C272 1.159 . S
C1909 C511 1.126 . S
C1914 C290 1.161 . S
C1939 C338 1.161 . S
C1944 C489 1.126 . S
C1969 C445 1.356 . S
C1974 C9 1.351 . S
C1999 C379 1.356 . S
C2004 C31 1.359 . S
C2029 C53 1.356 . S
C2034 C401 1.359 . S
C2059 C71 1.356 . S
C2064 C423 1.360 . S
C2089 C515 1.356 . S
C2094 C93 1.351 . S
C2119 C119 1.356 . S
C2124 C471 1.351 . S
C2149 C493 1.356 . S
C2154 C137 1.360 . S
C2179 C159 1.356 . S
C2184 C361 1.351 . S
C2209 C185 1.356 . S
C2214 C335 1.352 . S
C2239 C269 1.356 . S
C2244 C203 1.359 . S
C2269 C225 1.356 . S
C2274 C295 1.359 . S
C2299 C317 1.356 . S
C2304 C251 1.352 . S
C2329 C403 1.356 . S
C2334 C95 1.360 . S
C2359 C425 1.356 . S
C2364 C116 1.352 . S
C2389 C139 1.356 . S
C2394 C447 1.352 . S
C2419 C161 1.356 . S
C2424 C381 1.351 . S
C2449 C490 1.356 . S
C2454 C6 1.360 . S
C2479 C358 1.356 . S
C2484 C28 1.359 . S
C2509 C512 1.356 . S
C2514 C50 1.351 . S
C2539 C73 1.356 . S
C2544 C468 1.360 . S
C2569 C205 1.356 . S
C2574 C314 1.360 . S
C2599 C337 1.356 . S
C2604 C227 1.351 . S
C2629 C271 1.356 . S
C2634 C248 1.352 . S
C2659 C292 1.356 . S
C2664 C182 1.360 . S
