# Generated by pormake.
# Topology ums, (4)-cn, num edge types: 1
# Building blocks:
#     Node 0, Type 0, BuildingBlock: CEKHIL_clean_sbu_0, # of connection points: 4
#     Node 1, Type 0, BuildingBlock: CEKHIL_clean_sbu_0, # of connection points: 4
#     Node 2, Type 0, BuildingBlock: CEKHIL_clean_sbu_0, # of connection points: 4
#     Node 3, Type 0, BuildingBlock: CEKHIL_clean_sbu_0, # of connection points: 4
#     Node 4, Type 0, BuildingBlock: CEKHIL_clean_sbu_0, # of connection points: 4
#     Node 5, Type 0, BuildingBlock: CEKHIL_clean_sbu_0, # of connection points: 4
#     Node 6, Type 0, BuildingBlock: CEKHIL_clean_sbu_0, # of connection points: 4
#     Node 7, Type 0, BuildingBlock: CEKHIL_clean_sbu_0, # of connection points: 4
#     Node 8, Type 0, BuildingBlock: CEKHIL_clean_sbu_0, # of connection points: 4
#     Node 9, Type 0, BuildingBlock: CEKHIL_clean_sbu_0, # of connection points: 4
#     Node 10, Type 0, BuildingBlock: CEKHIL_clean_sbu_0, # of connection points: 4
#     Node 11, Type 0, BuildingBlock: CEKHIL_clean_sbu_0, # of connection points: 4
#     Node 12, Type 0, BuildingBlock: CEKHIL_clean_sbu_0, # of connection points: 4
#     Node 13, Type 0, BuildingBlock: CEKHIL_clean_sbu_0, # of connection points: 4
#     Node 14, Type 0, BuildingBlock: CEKHIL_clean_sbu_0, # of connection points: 4
#     Node 15, Type 0, BuildingBlock: CEKHIL_clean_sbu_0, # of connection points: 4
#     Node 16, Type 0, BuildingBlock: CEKHIL_clean_sbu_0, # of connection points: 4
#     Node 17, Type 0, BuildingBlock: CEKHIL_clean_sbu_0, # of connection points: 4
#     Node 18, Type 0, BuildingBlock: CEKHIL_clean_sbu_0, # of connection points: 4
#     Node 19, Type 0, BuildingBlock: CEKHIL_clean_sbu_0, # of connection points: 4
#     Node 20, Type 0, BuildingBlock: CEKHIL_clean_sbu_0, # of connection points: 4
#     Node 21, Type 0, BuildingBlock: CEKHIL_clean_sbu_0, # of connection points: 4
#     Node 22, Type 0, BuildingBlock: CEKHIL_clean_sbu_0, # of connection points: 4
#     Node 23, Type 0, BuildingBlock: CEKHIL_clean_sbu_0, # of connection points: 4
#     Node 24, Type 0, BuildingBlock: CEKHIL_clean_sbu_0, # of connection points: 4
#     Node 25, Type 0, BuildingBlock: CEKHIL_clean_sbu_0, # of connection points: 4
#     Node 26, Type 0, BuildingBlock: CEKHIL_clean_sbu_0, # of connection points: 4
#     Node 27, Type 0, BuildingBlock: CEKHIL_clean_sbu_0, # of connection points: 4
#     Node 28, Type 0, BuildingBlock: CEKHIL_clean_sbu_0, # of connection points: 4
#     Node 29, Type 0, BuildingBlock: CEKHIL_clean_sbu_0, # of connection points: 4
#     Node 30, Type 0, BuildingBlock: CEKHIL_clean_sbu_0, # of connection points: 4
#     Node 31, Type 0, BuildingBlock: CEKHIL_clean_sbu_0, # of connection points: 4
#     Node 32, Type 0, BuildingBlock: CEKHIL_clean_sbu_0, # of connection points: 4
#     Node 33, Type 0, BuildingBlock: CEKHIL_clean_sbu_0, # of connection points: 4
#     Node 34, Type 0, BuildingBlock: CEKHIL_clean_sbu_0, # of connection points: 4
#     Node 35, Type 0, BuildingBlock: CEKHIL_clean_sbu_0, # of connection points: 4
#     Edge 36, Type (0, 0), BuildingBlock: UVAHIK_clean_linker_0, # of connection points: 2
#     Edge 37, Type (0, 0), BuildingBlock: UVAHIK_clean_linker_0, # of connection points: 2
#     Edge 38, Type (0, 0), BuildingBlock: UVAHIK_clean_linker_0, # of connection points: 2
#     Edge 39, Type (0, 0), BuildingBlock: UVAHIK_clean_linker_0, # of connection points: 2
#     Edge 40, Type (0, 0), BuildingBlock: UVAHIK_clean_linker_0, # of connection points: 2
#     Edge 41, Type (0, 0), BuildingBlock: UVAHIK_clean_linker_0, # of connection points: 2
#     Edge 42, Type (0, 0), BuildingBlock: UVAHIK_clean_linker_0, # of connection points: 2
#     Edge 43, Type (0, 0), BuildingBlock: UVAHIK_clean_linker_0, # of connection points: 2
#     Edge 44, Type (0, 0), BuildingBlock: UVAHIK_clean_linker_0, # of connection points: 2
#     Edge 45, Type (0, 0), BuildingBlock: UVAHIK_clean_linker_0, # of connection points: 2
#     Edge 46, Type (0, 0), BuildingBlock: UVAHIK_clean_linker_0, # of connection points: 2
#     Edge 47, Type (0, 0), BuildingBlock: UVAHIK_clean_linker_0, # of connection points: 2
#     Edge 48, Type (0, 0), BuildingBlock: UVAHIK_clean_linker_0, # of connection points: 2
#     Edge 49, Type (0, 0), BuildingBlock: UVAHIK_clean_linker_0, # of connection points: 2
#     Edge 50, Type (0, 0), BuildingBlock: UVAHIK_clean_linker_0, # of connection points: 2
#     Edge 51, Type (0, 0), BuildingBlock: UVAHIK_clean_linker_0, # of connection points: 2
#     Edge 52, Type (0, 0), BuildingBlock: UVAHIK_clean_linker_0, # of connection points: 2
#     Edge 53, Type (0, 0), BuildingBlock: UVAHIK_clean_linker_0, # of connection points: 2
#     Edge 54, Type (0, 0), BuildingBlock: UVAHIK_clean_linker_0, # of connection points: 2
#     Edge 55, Type (0, 0), BuildingBlock: UVAHIK_clean_linker_0, # of connection points: 2
#     Edge 56, Type (0, 0), BuildingBlock: UVAHIK_clean_linker_0, # of connection points: 2
#     Edge 57, Type (0, 0), BuildingBlock: UVAHIK_clean_linker_0, # of connection points: 2
#     Edge 58, Type (0, 0), BuildingBlock: UVAHIK_clean_linker_0, # of connection points: 2
#     Edge 59, Type (0, 0), BuildingBlock: UVAHIK_clean_linker_0, # of connection points: 2
#     Edge 60, Type (0, 0), BuildingBlock: UVAHIK_clean_linker_0, # of connection points: 2
#     Edge 61, Type (0, 0), BuildingBlock: UVAHIK_clean_linker_0, # of connection points: 2
#     Edge 62, Type (0, 0), BuildingBlock: UVAHIK_clean_linker_0, # of connection points: 2
#     Edge 63, Type (0, 0), BuildingBlock: UVAHIK_clean_linker_0, # of connection points: 2
#     Edge 64, Type (0, 0), BuildingBlock: UVAHIK_clean_linker_0, # of connection points: 2
#     Edge 65, Type (0, 0), BuildingBlock: UVAHIK_clean_linker_0, # of connection points: 2
#     Edge 66, Type (0, 0), BuildingBlock: UVAHIK_clean_linker_0, # of connection points: 2
#     Edge 67, Type (0, 0), BuildingBlock: UVAHIK_clean_linker_0, # of connection points: 2
#     Edge 68, Type (0, 0), BuildingBlock: UVAHIK_clean_linker_0, # of connection points: 2
#     Edge 69, Type (0, 0), BuildingBlock: UVAHIK_clean_linker_0, # of connection points: 2
#     Edge 70, Type (0, 0), BuildingBlock: UVAHIK_clean_linker_0, # of connection points: 2
#     Edge 71, Type (0, 0), BuildingBlock: UVAHIK_clean_linker_0, # of connection points: 2
#     Edge 72, Type (0, 0), BuildingBlock: UVAHIK_clean_linker_0, # of connection points: 2
#     Edge 73, Type (0, 0), BuildingBlock: UVAHIK_clean_linker_0, # of connection points: 2
#     Edge 74, Type (0, 0), BuildingBlock: UVAHIK_clean_linker_0, # of connection points: 2
#     Edge 75, Type (0, 0), BuildingBlock: UVAHIK_clean_linker_0, # of connection points: 2
#     Edge 76, Type (0, 0), BuildingBlock: UVAHIK_clean_linker_0, # of connection points: 2
#     Edge 77, Type (0, 0), BuildingBlock: UVAHIK_clean_linker_0, # of connection points: 2
#     Edge 78, Type (0, 0), BuildingBlock: UVAHIK_clean_linker_0, # of connection points: 2
#     Edge 79, Type (0, 0), BuildingBlock: UVAHIK_clean_linker_0, # of connection points: 2
#     Edge 80, Type (0, 0), BuildingBlock: UVAHIK_clean_linker_0, # of connection points: 2
#     Edge 81, Type (0, 0), BuildingBlock: UVAHIK_clean_linker_0, # of connection points: 2
#     Edge 82, Type (0, 0), BuildingBlock: UVAHIK_clean_linker_0, # of connection points: 2
#     Edge 83, Type (0, 0), BuildingBlock: UVAHIK_clean_linker_0, # of connection points: 2
#     Edge 84, Type (0, 0), BuildingBlock: UVAHIK_clean_linker_0, # of connection points: 2
#     Edge 85, Type (0, 0), BuildingBlock: UVAHIK_clean_linker_0, # of connection points: 2
#     Edge 86, Type (0, 0), BuildingBlock: UVAHIK_clean_linker_0, # of connection points: 2
#     Edge 87, Type (0, 0), BuildingBlock: UVAHIK_clean_linker_0, # of connection points: 2
#     Edge 88, Type (0, 0), BuildingBlock: UVAHIK_clean_linker_0, # of connection points: 2
#     Edge 89, Type (0, 0), BuildingBlock: UVAHIK_clean_linker_0, # of connection points: 2
#     Edge 90, Type (0, 0), BuildingBlock: UVAHIK_clean_linker_0, # of connection points: 2
#     Edge 91, Type (0, 0), BuildingBlock: UVAHIK_clean_linker_0, # of connection points: 2
#     Edge 92, Type (0, 0), BuildingBlock: UVAHIK_clean_linker_0, # of connection points: 2
#     Edge 93, Type (0, 0), BuildingBlock: UVAHIK_clean_linker_0, # of connection points: 2
#     Edge 94, Type (0, 0), BuildingBlock: UVAHIK_clean_linker_0, # of connection points: 2
#     Edge 95, Type (0, 0), BuildingBlock: UVAHIK_clean_linker_0, # of connection points: 2
#     Edge 96, Type (0, 0), BuildingBlock: UVAHIK_clean_linker_0, # of connection points: 2
#     Edge 97, Type (0, 0), BuildingBlock: UVAHIK_clean_linker_0, # of connection points: 2
#     Edge 98, Type (0, 0), BuildingBlock: UVAHIK_clean_linker_0, # of connection points: 2
#     Edge 99, Type (0, 0), BuildingBlock: UVAHIK_clean_linker_0, # of connection points: 2
#     Edge 100, Type (0, 0), BuildingBlock: UVAHIK_clean_linker_0, # of connection points: 2
#     Edge 101, Type (0, 0), BuildingBlock: UVAHIK_clean_linker_0, # of connection points: 2
#     Edge 102, Type (0, 0), BuildingBlock: UVAHIK_clean_linker_0, # of connection points: 2
#     Edge 103, Type (0, 0), BuildingBlock: UVAHIK_clean_linker_0, # of connection points: 2
#     Edge 104, Type (0, 0), BuildingBlock: UVAHIK_clean_linker_0, # of connection points: 2
#     Edge 105, Type (0, 0), BuildingBlock: UVAHIK_clean_linker_0, # of connection points: 2
#     Edge 106, Type (0, 0), BuildingBlock: UVAHIK_clean_linker_0, # of connection points: 2
#     Edge 107, Type (0, 0), BuildingBlock: UVAHIK_clean_linker_0, # of connection points: 2
# Relax obj value: 0.199
# Max RMSD: 0.148
# Mean RMSD: 0.147
data_MOF--net-ums--node1-CEKHIL_clean_sbu_0--edge1-UVAHIK_clean_linker_0
_symmetry_space_group_name_H-M    P1
_symmetry_Int_Tables_number       1
_symmetry_cell_setting            triclinic
loop_
_symmetry_equiv_pos_as_xyz
'x, y, z'
_cell_length_a     129.35016
_cell_length_b     129.3612
_cell_length_c     30.825028
_cell_angle_alpha  89.99017
_cell_angle_beta   90.011407
_cell_angle_gamma 120.00597
loop_
_atom_site_label
_atom_site_type_symbol
_atom_site_fract_x
_atom_site_fract_y
_atom_site_fract_z
_atom_type_partial_charge
Co0 Co 0.17194 0.2541 0.17277 0.0
O1 O 0.18164 0.25068 0.21084 0.0
O2 O 0.16962 0.23848 0.15983 0.0
C3 C 0.18628 0.27277 0.15528 0.0
O4 O 0.16078 0.25439 0.12682 0.0
Co5 Co 0.16657 0.27454 0.1918 0.0
O6 O 0.158 0.27009 0.13577 0.0
C7 C 0.15349 0.25163 0.23911 0.0
C8 C 0.17719 0.2405 0.19089 0.0
C9 C 0.1562 0.26079 0.11526 0.0
O10 O 0.1586 0.24708 0.21664 0.0
O11 O 0.15591 0.26247 0.23558 0.0
O12 O 0.18559 0.26364 0.13496 0.0
O13 O 0.17895 0.27034 0.18715 0.0
Co14 Co 0.74394 0.91681 0.17582 0.0
O15 O 0.74539 0.92915 0.21433 0.0
O16 O 0.75959 0.93069 0.17003 0.0
C17 C 0.72576 0.91201 0.15 0.0
O18 O 0.74581 0.90642 0.1305 0.0
Co19 Co 0.72385 0.8904 0.18631 0.0
O20 O 0.73071 0.88742 0.13376 0.0
C21 C 0.74501 0.90033 0.24356 0.0
C22 C 0.75615 0.93557 0.19927 0.0
C23 C 0.74036 0.89556 0.11704 0.0
O24 O 0.74989 0.9103 0.22295 0.0
O25 O 0.73453 0.89165 0.2354 0.0
O26 O 0.73531 0.92096 0.13366 0.0
O27 O 0.7274 0.90681 0.18285 0.0
Co28 Co 0.0804 0.82803 0.17272 0.0
O29 O 0.06798 0.81649 0.20955 0.0
O30 O 0.06592 0.82861 0.16409 0.0
C31 C 0.08673 0.81561 0.14921 0.0
O32 O 0.09072 0.84075 0.12852 0.0
Co33 Co 0.10716 0.8362 0.18714 0.0
O34 O 0.11007 0.846 0.13457 0.0
C35 C 0.09531 0.84593 0.24222 0.0
C36 C 0.06115 0.82015 0.19289 0.0
C37 C 0.10168 0.84686 0.1165 0.0
O38 O 0.08558 0.84035 0.22029 0.0
O39 O 0.10452 0.84493 0.23548 0.0
O40 O 0.07766 0.81555 0.13081 0.0
O41 O 0.0912 0.82257 0.18229 0.0
Co42 Co 0.25222 0.17354 0.31013 0.0
O43 O 0.24821 0.18295 0.27294 0.0
O44 O 0.23597 0.16964 0.32082 0.0
C45 C 0.27008 0.18858 0.33204 0.0
O46 O 0.25314 0.16251 0.35494 0.0
Co47 Co 0.27436 0.17076 0.29243 0.0
O48 O 0.2704 0.1624 0.34931 0.0
C49 C 0.25315 0.15883 0.2362 0.0
C50 C 0.23778 0.17757 0.29137 0.0
C51 C 0.26053 0.1593 0.36839 0.0
O52 O 0.24693 0.16085 0.26385 0.0
O53 O 0.26444 0.16317 0.23936 0.0
O54 O 0.26034 0.18685 0.35082 0.0
O55 O 0.26863 0.18191 0.29889 0.0
Co56 Co 0.82482 0.07953 0.31684 0.0
O57 O 0.81363 0.06629 0.28238 0.0
O58 O 0.82699 0.06598 0.32657 0.0
C59 C 0.81158 0.08462 0.34178 0.0
O60 O 0.83742 0.09114 0.35868 0.0
Co61 Co 0.83035 0.10532 0.29662 0.0
O62 O 0.84087 0.10983 0.34831 0.0
C63 C 0.83895 0.09322 0.23862 0.0
C64 C 0.81827 0.06034 0.29921 0.0
C65 C 0.84272 0.10229 0.3684 0.0
O66 O 0.83668 0.08521 0.26758 0.0
O67 O 0.83578 0.1011 0.24193 0.0
O68 O 0.81255 0.07613 0.36049 0.0
O69 O 0.81788 0.08903 0.30715 0.0
Co70 Co 0.91686 0.7441 0.31517 0.0
O71 O 0.92968 0.74544 0.27955 0.0
O72 O 0.93084 0.7596 0.32315 0.0
C73 C 0.91138 0.72575 0.34102 0.0
O74 O 0.90596 0.74603 0.35803 0.0
Co75 Co 0.89049 0.72434 0.30037 0.0
O76 O 0.88699 0.73098 0.35236 0.0
C77 C 0.90148 0.7457 0.24402 0.0
C78 C 0.93605 0.7561 0.29553 0.0
C79 C 0.89496 0.74059 0.36995 0.0
O80 O 0.91121 0.75039 0.26616 0.0
O81 O 0.89258 0.73529 0.25118 0.0
O82 O 0.92016 0.73516 0.35879 0.0
O83 O 0.90675 0.72763 0.30697 0.0
Co84 Co 0.82553 0.74471 0.81413 0.0
O85 O 0.81431 0.74661 0.77889 0.0
O86 O 0.82716 0.76015 0.8247 0.0
C87 C 0.81245 0.72609 0.8371 0.0
O88 O 0.8381 0.74604 0.85705 0.0
Co89 Co 0.83207 0.72503 0.79622 0.0
O90 O 0.84199 0.73103 0.84904 0.0
C91 C 0.84277 0.74699 0.74295 0.0
C92 C 0.81864 0.75709 0.79653 0.0
C93 C 0.84356 0.74044 0.86808 0.0
O94 O 0.83772 0.7515 0.76597 0.0
O95 O 0.84114 0.73648 0.7485 0.0
O96 O 0.81303 0.7353 0.85643 0.0
O97 O 0.81913 0.72835 0.80331 0.0
Co98 Co 0.25462 0.07993 0.81312 0.0
O99 O 0.25279 0.06856 0.76916 0.0
O100 O 0.23832 0.067 0.81198 0.0
C101 C 0.27158 0.08183 0.84105 0.0
O102 O 0.25288 0.08919 0.86323 0.0
Co103 Co 0.27647 0.10545 0.81963 0.0
O104 O 0.27072 0.10493 0.87965 0.0
C105 C 0.25747 0.10002 0.75452 0.0
C106 C 0.24171 0.06243 0.78143 0.0
C107 C 0.2598 0.09779 0.88856 0.0
O108 O 0.25106 0.08932 0.76925 0.0
O109 O 0.26791 0.10741 0.76889 0.0
O110 O 0.2613 0.07303 0.85317 0.0
O111 O 0.27132 0.08874 0.81146 0.0
Co112 Co 0.9166 0.17199 0.81954 0.0
O113 O 0.92883 0.18298 0.7808 0.0
O114 O 0.93061 0.17043 0.8249 0.0
C115 C 0.91168 0.18528 0.8455 0.0
O116 O 0.9064 0.15969 0.86526 0.0
Co117 Co 0.89005 0.1654 0.81089 0.0
O118 O 0.88796 0.15726 0.86709 0.0
C119 C 0.89999 0.15449 0.75194 0.0
C120 C 0.93541 0.17884 0.79594 0.0
C121 C 0.8959 0.15514 0.88191 0.0
O122 O 0.91003 0.15954 0.77224 0.0
O123 O 0.89129 0.15616 0.76105 0.0
O124 O 0.92076 0.18485 0.86148 0.0
O125 O 0.90643 0.1783 0.81307 0.0
Co126 Co 0.74302 0.82519 0.67644 0.0
O127 O 0.74499 0.81425 0.71314 0.0
O128 O 0.75841 0.82673 0.66619 0.0
C129 C 0.72432 0.81202 0.65434 0.0
O130 O 0.74436 0.83742 0.63202 0.0
Co131 Co 0.72354 0.8321 0.69246 0.0
O132 O 0.72968 0.84181 0.63922 0.0
C133 C 0.74564 0.84322 0.74496 0.0
C134 C 0.75544 0.81845 0.69534 0.0
C135 C 0.73896 0.84303 0.62031 0.0
O136 O 0.74998 0.83779 0.72314 0.0
O137 O 0.73517 0.84166 0.73909 0.0
O138 O 0.73347 0.81238 0.63542 0.0
O139 O 0.72667 0.81897 0.68738 0.0
Co140 Co 0.1704 0.9178 0.67346 0.0
O141 O 0.1818 0.93101 0.70798 0.0
O142 O 0.16929 0.93181 0.66078 0.0
C143 C 0.18316 0.91161 0.65266 0.0
O144 O 0.1578 0.90657 0.6307 0.0
Co145 Co 0.16301 0.89145 0.69341 0.0
O146 O 0.15331 0.88753 0.64002 0.0
C147 C 0.1525 0.90343 0.74378 0.0
C148 C 0.17785 0.93731 0.68881 0.0
C149 C 0.15208 0.89547 0.62016 0.0
O150 O 0.15806 0.91299 0.72086 0.0
O151 O 0.15377 0.8943 0.73916 0.0
O152 O 0.18291 0.92027 0.63218 0.0
O153 O 0.17633 0.90751 0.68623 0.0
Co154 Co 0.07933 0.25167 0.6672 0.0
O155 O 0.0671 0.25104 0.70464 0.0
O156 O 0.06491 0.2365 0.66083 0.0
C157 C 0.08543 0.27014 0.64097 0.0
O158 O 0.08927 0.24888 0.6226 0.0
Co159 Co 0.10625 0.27049 0.67758 0.0
O160 O 0.10867 0.26304 0.62559 0.0
C161 C 0.09489 0.24972 0.73665 0.0
C162 C 0.06023 0.2404 0.68912 0.0
C163 C 0.1001 0.25363 0.60915 0.0
O164 O 0.08501 0.24515 0.7154 0.0
O165 O 0.10397 0.2599 0.72815 0.0
O166 O 0.07612 0.26093 0.62454 0.0
O167 O 0.0902 0.26801 0.674 0.0
Co168 Co 0.83726 0.5867 0.51771 0.0
O169 O 0.84831 0.58501 0.55457 0.0
O170 O 0.83563 0.57117 0.50923 0.0
C171 C 0.85057 0.60516 0.49421 0.0
O172 O 0.82489 0.58514 0.47324 0.0
Co173 Co 0.83078 0.60657 0.53093 0.0
O174 O 0.82267 0.60127 0.47427 0.0
C175 C 0.81996 0.58515 0.58726 0.0
C176 C 0.84409 0.57444 0.53784 0.0
C177 C 0.82045 0.59133 0.4579 0.0
O178 O 0.82494 0.58034 0.56549 0.0
O179 O 0.82163 0.59561 0.57983 0.0
O180 O 0.84998 0.59585 0.47574 0.0
O181 O 0.84367 0.60309 0.52716 0.0
Co182 Co 0.40787 0.24915 0.51829 0.0
O183 O 0.40931 0.26161 0.55627 0.0
O184 O 0.42345 0.26306 0.51187 0.0
C185 C 0.38959 0.2442 0.49313 0.0
O186 O 0.40986 0.23882 0.47301 0.0
Co187 Co 0.38803 0.22269 0.52746 0.0
O188 O 0.39399 0.22031 0.4715 0.0
C189 C 0.40889 0.23277 0.58643 0.0
C190 C 0.42 0.26805 0.54063 0.0
C191 C 0.404 0.22831 0.4565 0.0
O192 O 0.41386 0.24278 0.56592 0.0
O193 O 0.39853 0.22404 0.57739 0.0
O194 O 0.39906 0.2531 0.47611 0.0
O195 O 0.39139 0.23905 0.52573 0.0
Co196 Co 0.74693 0.15857 0.51709 0.0
O197 O 0.73474 0.14876 0.55822 0.0
O198 O 0.73334 0.16076 0.51026 0.0
C199 C 0.75079 0.14417 0.49576 0.0
O200 O 0.75706 0.16964 0.46853 0.0
Co201 Co 0.77314 0.16403 0.5236 0.0
O202 O 0.77503 0.17101 0.46504 0.0
C203 C 0.76479 0.17731 0.57836 0.0
C204 C 0.72841 0.15298 0.54123 0.0
C205 C 0.76724 0.17335 0.45016 0.0
O206 O 0.7544 0.17203 0.56048 0.0
O207 O 0.77302 0.17488 0.5696 0.0
O208 O 0.74195 0.14481 0.47868 0.0
O209 O 0.75654 0.1517 0.52625 0.0
Co210 Co 0.91879 0.50503 0.65712 0.0
O211 O 0.91708 0.51563 0.61779 0.0
O212 O 0.90334 0.50361 0.66479 0.0
C213 C 0.93734 0.51851 0.67956 0.0
O214 O 0.91723 0.49324 0.70384 0.0
Co215 Co 0.93846 0.49816 0.64679 0.0
O216 O 0.93316 0.49069 0.7046 0.0
C217 C 0.91685 0.48667 0.59169 0.0
C218 C 0.90656 0.51168 0.63469 0.0
C219 C 0.92329 0.48882 0.72054 0.0
O220 O 0.91217 0.492 0.61203 0.0
O221 O 0.92734 0.48843 0.59901 0.0
O222 O 0.92807 0.51826 0.69702 0.0
O223 O 0.93518 0.51121 0.6478 0.0
Co224 Co 0.49148 0.41284 0.64964 0.0
O225 O 0.48082 0.40018 0.61164 0.0
O226 O 0.49251 0.39871 0.66087 0.0
C227 C 0.47818 0.41848 0.66857 0.0
O228 O 0.50322 0.42348 0.69573 0.0
Co229 Co 0.49889 0.43934 0.63371 0.0
O230 O 0.50645 0.44219 0.69168 0.0
C231 C 0.50937 0.42782 0.58087 0.0
C232 C 0.48447 0.39364 0.63077 0.0
C233 C 0.50792 0.43421 0.71021 0.0
O234 O 0.5046 0.41847 0.60506 0.0
O235 O 0.50741 0.43654 0.58486 0.0
O236 O 0.4782 0.4096 0.68826 0.0
O237 O 0.48562 0.42315 0.63688 0.0
Co238 Co 0.58375 0.07944 0.65155 0.0
O239 O 0.59641 0.08095 0.61447 0.0
O240 O 0.5978 0.09481 0.66018 0.0
C241 C 0.57826 0.06085 0.67471 0.0
O242 O 0.57323 0.08128 0.69635 0.0
Co243 Co 0.55721 0.06001 0.63946 0.0
O244 O 0.55459 0.06561 0.69584 0.0
C245 C 0.56803 0.08142 0.58295 0.0
C246 C 0.6029 0.09147 0.63148 0.0
C247 C 0.5626 0.07544 0.71194 0.0
O248 O 0.57793 0.08604 0.60413 0.0
O249 O 0.55912 0.07106 0.59078 0.0
O250 O 0.58712 0.07006 0.69317 0.0
O251 O 0.57346 0.06309 0.64205 0.0
Co252 Co 0.49188 0.07813 0.14833 0.0
O253 O 0.48111 0.08058 0.11269 0.0
O254 O 0.49348 0.09345 0.16145 0.0
C255 C 0.47861 0.05924 0.16784 0.0
O256 O 0.50401 0.0787 0.19161 0.0
Co257 Co 0.49844 0.05872 0.12545 0.0
O258 O 0.50841 0.06422 0.17858 0.0
C259 C 0.50711 0.08026 0.07173 0.0
C260 C 0.48535 0.09083 0.13196 0.0
C261 C 0.50962 0.07311 0.20052 0.0
O262 O 0.50445 0.08544 0.10166 0.0
O263 O 0.50413 0.06923 0.07285 0.0
O264 O 0.47899 0.06817 0.18864 0.0
O265 O 0.48553 0.06198 0.13458 0.0
Co266 Co 0.91838 0.41307 0.15352 0.0
O267 O 0.91605 0.40115 0.11119 0.0
O268 O 0.90286 0.39918 0.16113 0.0
C269 C 0.93701 0.41753 0.17273 0.0
O270 O 0.91745 0.42278 0.20371 0.0
Co271 Co 0.93845 0.43964 0.14652 0.0
O272 O 0.93316 0.44143 0.20476 0.0
C273 C 0.91645 0.43064 0.09362 0.0
C274 C 0.90569 0.39452 0.12915 0.0
C275 C 0.92351 0.43316 0.22109 0.0
O276 O 0.91169 0.42033 0.112 0.0
O277 O 0.9271 0.43906 0.10124 0.0
O278 O 0.92778 0.40832 0.18955 0.0
O279 O 0.93472 0.42319 0.14332 0.0
Co280 Co 0.58311 0.50516 0.15154 0.0
O281 O 0.59466 0.51461 0.108 0.0
O282 O 0.59659 0.50265 0.15469 0.0
C283 C 0.57996 0.51987 0.17501 0.0
O284 O 0.57367 0.4944 0.20189 0.0
Co285 Co 0.557 0.50013 0.15015 0.0
O286 O 0.55551 0.49258 0.20734 0.0
C287 C 0.5643 0.4867 0.0918 0.0
C288 C 0.60107 0.51024 0.12294 0.0
C289 C 0.56357 0.4905 0.22112 0.0
O290 O 0.57476 0.49157 0.10904 0.0
O291 O 0.5564 0.48949 0.10194 0.0
O292 O 0.58899 0.5191 0.18954 0.0
O293 O 0.57364 0.51229 0.14538 0.0
Co294 Co 0.40859 0.15757 0.02213 0.0
O295 O 0.41196 0.14733 0.05724 0.0
O296 O 0.42431 0.16027 0.00865 0.0
C297 C 0.39002 0.14344 0.0025 0.0
O298 O 0.40828 0.1693 0.97908 0.0
Co299 Co 0.38807 0.16248 0.04508 0.0
O300 O 0.39297 0.17247 0.99195 0.0
C301 C 0.40973 0.17237 0.09885 0.0
C302 C 0.42222 0.15214 0.03761 0.0
C303 C 0.40208 0.17427 0.97005 0.0
O304 O 0.41526 0.17013 0.06896 0.0
O305 O 0.39854 0.16874 0.09768 0.0
O306 O 0.39925 0.14452 0.98168 0.0
O307 O 0.39232 0.15025 0.03591 0.0
Co308 Co 0.83846 0.2505 0.01799 0.0
O309 O 0.84809 0.26272 0.05937 0.0
O310 O 0.83633 0.26408 0.01021 0.0
C311 C 0.85289 0.2465 -0.00206 0.0
O312 O 0.82761 0.24037 0.9689 0.0
Co313 Co 0.83282 0.2242 0.0254 0.0
O314 O 0.82612 0.22234 0.96638 0.0
C315 C 0.81942 0.23272 0.07865 0.0
C316 C 0.84399 0.26904 0.04151 0.0
C317 C 0.82392 0.23015 0.95083 0.0
O318 O 0.82477 0.24307 0.06051 0.0
O319 O 0.82185 0.22446 0.07062 0.0
O320 O 0.85246 0.25547 0.98087 0.0
O321 O 0.84516 0.2408 0.02795 0.0
Co322 Co 0.74539 0.58713 0.01716 0.0
O323 O 0.73173 0.58485 0.04963 0.0
O324 O 0.73207 0.57137 0.00622 0.0
C325 C 0.75056 0.60545 0.99192 0.0
O326 O 0.75738 0.5863 0.97706 0.0
Co327 Co 0.77099 0.60753 0.03907 0.0
O328 O 0.77594 0.6017 0.98806 0.0
C329 C 0.75859 0.58682 0.09705 0.0
C330 C 0.72605 0.57429 0.03235 0.0
C331 C 0.76857 0.59225 0.96791 0.0
O332 O 0.75074 0.58102 0.06764 0.0
O333 O 0.76645 0.59788 0.09381 0.0
O334 O 0.74228 0.596 0.9725 0.0
O335 O 0.7547 0.60356 0.02723 0.0
Co336 Co 0.50596 0.92038 0.8399 0.0
O337 O 0.51731 0.91819 0.87297 0.0
O338 O 0.50402 0.90486 0.8277 0.0
C339 C 0.51897 0.93901 0.81697 0.0
O340 O 0.49326 0.91952 0.79894 0.0
Co341 Co 0.49996 0.94015 0.86322 0.0
O342 O 0.48952 0.93449 0.81123 0.0
C343 C 0.49164 0.91898 0.91884 0.0
C344 C 0.51278 0.90778 0.8547 0.0
C345 C 0.48783 0.9253 0.79013 0.0
O346 O 0.49411 0.91359 0.88912 0.0
O347 O 0.49458 0.93 0.91675 0.0
O348 O 0.51818 0.92982 0.79674 0.0
O349 O 0.51263 0.93668 0.85171 0.0
Co350 Co 0.07837 0.58517 0.83461 0.0
O351 O 0.08075 0.59803 0.87234 0.0
O352 O 0.09373 0.59901 0.82324 0.0
C353 C 0.05953 0.5799 0.81546 0.0
O354 O 0.07916 0.57427 0.78895 0.0
Co355 Co 0.0588 0.55884 0.85081 0.0
O356 O 0.06336 0.55576 0.79293 0.0
C357 C 0.08088 0.56991 0.90336 0.0
C358 C 0.09102 0.60429 0.85339 0.0
C359 C 0.07294 0.56355 0.77455 0.0
O360 O 0.08558 0.57931 0.87945 0.0
O361 O 0.07014 0.56132 0.89927 0.0
O362 O 0.06853 0.58864 0.79563 0.0
O363 O 0.06215 0.57518 0.84739 0.0
Co364 Co 0.41217 0.49104 0.83643 0.0
O365 O 0.39977 0.48108 0.87666 0.0
O366 O 0.39902 0.49402 0.8315 0.0
C367 C 0.41526 0.47643 0.81142 0.0
O368 O 0.42261 0.50245 0.7891 0.0
Co369 Co 0.43798 0.49525 0.84139 0.0
O370 O 0.44017 0.50297 0.78411 0.0
C371 C 0.43048 0.50854 0.89988 0.0
C372 C 0.3938 0.48587 0.86114 0.0
C373 C 0.4327 0.50591 0.77042 0.0
O374 O 0.42011 0.5039 0.88197 0.0
O375 O 0.43838 0.50575 0.8897 0.0
O376 O 0.40666 0.47771 0.79558 0.0
O377 O 0.42119 0.48344 0.84297 0.0
Co378 Co 0.58795 0.83945 0.97051 0.0
O379 O 0.58562 0.84915 0.92888 0.0
O380 O 0.57201 0.83702 0.97604 0.0
C381 C 0.60603 0.85399 0.99278 0.0
O382 O 0.58701 0.82838 0.01931 0.0
Co383 Co 0.60903 0.83445 0.96431 0.0
O384 O 0.60375 0.82723 0.0224 0.0
C385 C 0.58778 0.82128 0.90792 0.0
C386 C 0.57494 0.84476 0.94483 0.0
C387 C 0.59359 0.82476 0.0374 0.0
O388 O 0.58235 0.82611 0.92669 0.0
O389 O 0.5985 0.82395 0.91673 0.0
O390 O 0.59641 0.85319 0.00933 0.0
O391 O 0.60445 0.84655 0.96223 0.0
Co392 Co 0.15791 0.74756 0.97565 0.0
O393 O 0.14695 0.73445 0.93978 0.0
O394 O 0.16027 0.73412 0.98411 0.0
C395 C 0.14437 0.75223 0.00063 0.0
O396 O 0.17037 0.75882 0.01892 0.0
Co397 Co 0.16341 0.77358 0.96148 0.0
O398 O 0.172 0.77692 0.01736 0.0
C399 C 0.1746 0.76345 0.90478 0.0
C400 C 0.15172 0.72856 0.9561 0.0
C401 C 0.17463 0.76948 0.03369 0.0
O402 O 0.16994 0.75371 0.92691 0.0
O403 O 0.17263 0.77205 0.9122 0.0
O404 O 0.1454 0.74371 0.01879 0.0
O405 O 0.15092 0.75706 0.96685 0.0
Co406 Co 0.25036 0.41068 0.97901 0.0
O407 O 0.26248 0.41294 0.93776 0.0
O408 O 0.26368 0.42673 0.98339 0.0
C409 C 0.2471 0.39289 0.00377 0.0
O410 O 0.24027 0.41183 0.02733 0.0
Co411 Co 0.22437 0.38936 0.97466 0.0
O412 O 0.22227 0.39523 0.03136 0.0
C413 C 0.23202 0.41015 0.91617 0.0
C414 C 0.26864 0.4237 0.95309 0.0
C415 C 0.23006 0.40545 0.04556 0.0
O416 O 0.24236 0.41579 0.93434 0.0
O417 O 0.22409 0.39945 0.92602 0.0
O418 O 0.2559 0.40273 0.01904 0.0
O419 O 0.2411 0.39407 0.97266 0.0
Co420 Co 0.15754 0.41064 0.47738 0.0
O421 O 0.14675 0.41259 0.43987 0.0
O422 O 0.15879 0.42591 0.48799 0.0
C423 C 0.14434 0.39179 0.49794 0.0
O424 O 0.16948 0.4118 0.52278 0.0
Co425 Co 0.16465 0.39127 0.46093 0.0
O426 O 0.17254 0.3962 0.51831 0.0
C427 C 0.17461 0.41291 0.40636 0.0
C428 C 0.15061 0.4229 0.45841 0.0
C429 C 0.17418 0.40572 0.53682 0.0
O430 O 0.17044 0.41782 0.4318 0.0
O431 O 0.17238 0.40214 0.41022 0.0
O432 O 0.14438 0.40079 0.51693 0.0
O433 O 0.15158 0.39444 0.46572 0.0
Co434 Co 0.58589 0.74542 0.47225 0.0
O435 O 0.58315 0.73202 0.4369 0.0
O436 O 0.56987 0.73242 0.48129 0.0
C437 C 0.60394 0.74956 0.49736 0.0
O438 O 0.58533 0.75706 0.51491 0.0
Co439 Co 0.60706 0.77104 0.45631 0.0
O440 O 0.60189 0.77507 0.51131 0.0
C441 C 0.58649 0.76041 0.39658 0.0
C442 C 0.5725 0.7265 0.45362 0.0
C443 C 0.59189 0.7678 0.52863 0.0
O444 O 0.58038 0.75191 0.42348 0.0
O445 O 0.59757 0.76806 0.40164 0.0
O446 O 0.59428 0.74125 0.51562 0.0
O447 O 0.6024 0.75439 0.46328 0.0
Co448 Co 0.25034 0.83935 0.47579 0.0
O449 O 0.26374 0.85122 0.44351 0.0
O450 O 0.26403 0.83738 0.48503 0.0
C451 C 0.24467 0.85192 0.50317 0.0
O452 O 0.23866 0.82605 0.51527 0.0
Co453 Co 0.22446 0.83352 0.45518 0.0
O454 O 0.21987 0.82232 0.50487 0.0
C455 C 0.2374 0.82644 0.3948 0.0
C456 C 0.26974 0.84651 0.45938 0.0
C457 C 0.22745 0.82042 0.52434 0.0
O458 O 0.2452 0.82827 0.42413 0.0
O459 O 0.22936 0.82936 0.39915 0.0
O460 O 0.25315 0.85092 0.52178 0.0
O461 O 0.24061 0.84607 0.46748 0.0
Co462 Co 0.07667 0.49255 0.33423 0.0
O463 O 0.07833 0.48258 0.37681 0.0
O464 O 0.09217 0.49398 0.32902 0.0
C465 C 0.0582 0.47866 0.31228 0.0
O466 O 0.07833 0.5036 0.28438 0.0
Co467 Co 0.05674 0.49931 0.33857 0.0
O468 O 0.06272 0.50666 0.28111 0.0
C469 C 0.07809 0.51165 0.39505 0.0
C470 C 0.08888 0.48631 0.36056 0.0
C471 C 0.07253 0.5081 0.2662 0.0
O472 O 0.083 0.5062 0.37695 0.0
O473 O 0.06756 0.50957 0.38597 0.0
O474 O 0.06753 0.47865 0.29671 0.0
O475 O 0.06027 0.48646 0.34203 0.0
Co476 Co 0.50579 0.58382 0.34024 0.0
O477 O 0.51481 0.59648 0.38095 0.0
O478 O 0.5026 0.5967 0.33098 0.0
C479 C 0.52104 0.58098 0.32164 0.0
O480 O 0.49533 0.57303 0.29162 0.0
Co481 Co 0.50183 0.55823 0.34979 0.0
O482 O 0.49503 0.55555 0.29061 0.0
C483 C 0.48732 0.56569 0.4016 0.0
C484 C 0.51008 0.60215 0.3624 0.0
C485 C 0.49224 0.56286 0.27423 0.0
O486 O 0.49216 0.57594 0.38279 0.0
O487 O 0.49041 0.55786 0.39443 0.0
O488 O 0.51987 0.58937 0.30314 0.0
O489 O 0.51348 0.57508 0.35188 0.0
Co490 Co 0.41371 0.91969 0.33711 0.0
O491 O 0.40141 0.9185 0.37534 0.0
O492 O 0.39972 0.90406 0.33202 0.0
C493 C 0.41858 0.93781 0.31048 0.0
O494 O 0.42401 0.91755 0.29201 0.0
Co495 Co 0.44017 0.93974 0.34596 0.0
O496 O 0.44242 0.93362 0.29016 0.0
C497 C 0.43023 0.91906 0.40568 0.0
C498 C 0.39489 0.9077 0.36075 0.0
C499 C 0.43453 0.92351 0.27546 0.0
O500 O 0.42022 0.91397 0.38515 0.0
O501 O 0.43891 0.92943 0.39638 0.0
O502 O 0.40963 0.92825 0.29422 0.0
O503 O 0.42377 0.9362 0.34338 0.0
C504 C 0.22899 0.18605 0.24037 0.0
C505 C 0.22867 0.18081 0.28064 0.0
C506 C 0.22109 0.19018 0.23158 0.0
C507 C 0.20875 0.20566 0.27993 0.0
H508 H 0.1845 0.1945 0.19027 0.0
C509 C 0.18367 0.23092 0.24627 0.0
C510 C 0.18069 0.23168 0.20313 0.0
C511 C 0.18756 0.223 0.25782 0.0
C512 C 0.19134 0.19785 0.21508 0.0
H513 H 0.21972 0.17551 0.3429 0.0
H514 H 0.20619 0.18326 0.328 0.0
H515 H 0.19495 0.18351 0.20517 0.0
H516 H 0.17925 0.22474 0.13821 0.0
H517 H 0.18682 0.21147 0.15749 0.0
H518 H 0.20601 0.22045 0.28813 0.0
C519 C 0.21239 0.18388 0.30311 0.0
C520 C 0.1972 0.19146 0.22382 0.0
C521 C 0.2201 0.17947 0.31153 0.0
C522 C 0.18147 0.22426 0.17177 0.0
C523 C 0.18571 0.21658 0.18303 0.0
C524 C 0.20314 0.21222 0.27055 0.0
C525 C 0.21294 0.18937 0.26325 0.0
C526 C 0.20596 0.19537 0.25619 0.0
C527 C 0.18896 0.21593 0.2262 0.0
C528 C 0.19439 0.20847 0.23777 0.0
H529 H 0.23549 0.18714 0.21598 0.0
H530 H 0.22169 0.19449 0.20078 0.0
H531 H 0.21563 0.2089 0.30464 0.0
H532 H 0.18294 0.23644 0.27116 0.0
H533 H 0.18958 0.22254 0.2916 0.0
C534 C 0.80426 0.0421 0.25789 0.0
C535 C 0.81349 0.04763 0.28849 0.0
C536 C 0.79906 0.02992 0.24948 0.0
C537 C 0.78415 0.00341 0.2628 0.0
H538 H 0.80208 0.987 0.247 0.0
C539 C 0.76021 0.95256 0.24808 0.0
C540 C 0.76394 0.94796 0.21411 0.0
C541 C 0.7671 0.96449 0.26038 0.0
C542 C 0.79697 0.99149 0.25126 0.0
H543 H 0.82479 0.04483 0.33326 0.0
H544 H 0.81559 0.0234 0.31866 0.0
H545 H 0.81271 0.00857 0.26043 0.0
H546 H 0.77803 0.95211 0.16744 0.0
H547 H 0.79001 0.97307 0.18849 0.0
H548 H 0.76846 0.98652 0.25274 0.0
C549 C 0.81245 0.02856 0.30109 0.0
C550 C 0.80305 0.00379 0.2593 0.0
C551 C 0.81768 0.04079 0.30956 0.0
C552 C 0.77492 0.95542 0.19368 0.0
C553 C 0.78181 0.9674 0.20591 0.0
C554 C 0.77811 0.99117 0.25494 0.0
C555 C 0.80294 0.02297 0.27152 0.0
C556 C 0.79668 0.00988 0.26467 0.0
C557 C 0.77785 0.97211 0.23884 0.0
C558 C 0.78444 0.98506 0.24886 0.0
H559 H 0.8009 0.04713 0.24078 0.0
H560 H 0.79191 0.02592 0.22588 0.0
H561 H 0.77899 0.00782 0.26742 0.0
H562 H 0.75186 0.947 0.26481 0.0
H563 H 0.76392 0.9678 0.28643 0.0
C564 C 0.95587 0.77485 0.30338 0.0
C565 C 0.94874 0.76369 0.28359 0.0
C566 C 0.96803 0.78167 0.29351 0.0
C567 C 0.99234 0.79671 0.24959 0.0
H568 H 0.00971 0.77955 0.24039 0.0
C569 C 0.0409 0.81806 0.1851 0.0
C570 C 0.04849 0.81474 0.20572 0.0
C571 C 0.02879 0.81248 0.19604 0.0
C572 C 0.00503 0.7845 0.24323 0.0
H573 H 0.94867 0.7511 0.23695 0.0
H574 H 0.96979 0.76301 0.21947 0.0
H575 H 0.98847 0.76867 0.25642 0.0
H576 H 0.04946 0.80328 0.25499 0.0
H577 H 0.02842 0.79366 0.27436 0.0
H578 H 0.00903 0.8126 0.23697 0.0
C579 C 0.96606 0.76642 0.24316 0.0
C580 C 0.99281 0.77824 0.25186 0.0
C581 C 0.95394 0.75962 0.25301 0.0
C582 C 0.04382 0.80596 0.23822 0.0
C583 C 0.03175 0.80041 0.24919 0.0
C584 C 0.0046 0.803 0.24084 0.0
C585 C 0.97329 0.77744 0.26372 0.0
C586 C 0.98631 0.78425 0.25497 0.0
C587 C 0.02405 0.80348 0.22782 0.0
C588 C 0.01107 0.79695 0.23758 0.0
H589 H 0.9521 0.77822 0.32708 0.0
H590 H 0.97338 0.79009 0.31011 0.0
H591 H 0.98756 0.80158 0.25154 0.0
H592 H 0.04425 0.82481 0.15993 0.0
H593 H 0.02307 0.81497 0.17875 0.0
C594 C 0.80553 0.76193 0.75177 0.0
C595 C 0.81392 0.76505 0.78531 0.0
C596 C 0.80074 0.76921 0.74183 0.0
C597 C 0.79671 0.78936 0.71305 0.0
H598 H 0.78487 0.80019 0.80812 0.0
C599 C 0.77431 0.81781 0.68505 0.0
C600 C 0.76352 0.81394 0.7074 0.0
C601 C 0.78172 0.81319 0.69549 0.0
C602 C 0.78815 0.79723 0.78126 0.0
H603 H 0.82401 0.77833 0.83443 0.0
H604 H 0.81556 0.79105 0.81714 0.0
H605 H 0.79562 0.78955 0.82359 0.0
H606 H 0.75215 0.8024 0.7588 0.0
H607 H 0.76506 0.79432 0.77689 0.0
H608 H 0.78894 0.79672 0.67069 0.0
C609 C 0.81268 0.78294 0.79867 0.0
C610 C 0.7944 0.79125 0.79011 0.0
C611 C 0.81754 0.77569 0.80843 0.0
C612 C 0.7604 0.80555 0.74095 0.0
C613 C 0.76784 0.80098 0.75153 0.0
C614 C 0.79053 0.7954 0.7042 0.0
C615 C 0.80419 0.77974 0.76538 0.0
C616 C 0.79856 0.78706 0.75608 0.0
C617 C 0.77852 0.80466 0.72865 0.0
C618 C 0.786 0.79921 0.7382 0.0
H619 H 0.80256 0.7538 0.73334 0.0
H620 H 0.7941 0.76643 0.71637 0.0
H621 H 0.79993 0.78635 0.68618 0.0
H622 H 0.77697 0.8243 0.65913 0.0
H623 H 0.78995 0.81627 0.67757 0.0
C624 C 0.22238 0.04304 0.7826 0.0
C625 C 0.23367 0.05036 0.76404 0.0
C626 C 0.21545 0.0311 0.76998 0.0
C627 C 0.21937 0.00702 0.7252 0.0
H628 H 0.18481 0.98979 0.71759 0.0
C629 C 0.17926 0.95707 0.67485 0.0
C630 C 0.18317 0.95021 0.69745 0.0
C631 C 0.18481 0.96941 0.68144 0.0
C632 C 0.19447 0.99451 0.71929 0.0
H633 H 0.24625 0.05113 0.71583 0.0
H634 H 0.2341 0.03037 0.69339 0.0
H635 H 0.1955 0.01143 0.72847 0.0
H636 H 0.19571 0.95084 0.74557 0.0
H637 H 0.20528 0.97229 0.75731 0.0
H638 H 0.2184 0.99019 0.71585 0.0
C639 C 0.2307 0.03377 0.71835 0.0
C640 C 0.20058 0.00687 0.72586 0.0
C641 C 0.23763 0.04569 0.73103 0.0
C642 C 0.19254 0.95588 0.72745 0.0
C643 C 0.19807 0.96818 0.73399 0.0
C644 C 0.21328 0.9947 0.71877 0.0
C645 C 0.21968 0.02626 0.73851 0.0
C646 C 0.2131 0.01325 0.72911 0.0
C647 C 0.19438 0.97512 0.71066 0.0
C648 C 0.20076 0.98828 0.71615 0.0
H649 H 0.21908 0.04639 0.80812 0.0
H650 H 0.20704 0.02554 0.78634 0.0
H651 H 0.229 0.01162 0.72815 0.0
H652 H 0.17206 0.95295 0.65151 0.0
H653 H 0.18181 0.97452 0.66281 0.0
C654 C 0.04272 0.23765 0.73258 0.0
C655 C 0.04757 0.23322 0.70198 0.0
C656 C 0.03061 0.23115 0.74311 0.0
C657 C 0.00386 0.20106 0.73791 0.0
H658 H 0.98702 0.21872 0.74786 0.0
C659 C 0.95539 0.18027 0.80218 0.0
C660 C 0.94795 0.18386 0.7821 0.0
C661 C 0.96748 0.18569 0.79113 0.0
C662 C 0.99156 0.21364 0.74481 0.0
H663 H 0.0436 0.21841 0.65902 0.0
H664 H 0.02241 0.20712 0.67708 0.0
H665 H 0.00828 0.22932 0.73177 0.0
H666 H 0.94719 0.1956 0.73355 0.0
H667 H 0.96819 0.20493 0.71388 0.0
H668 H 0.98703 0.18533 0.7502 0.0
C669 C 0.028 0.21555 0.69328 0.0
C670 C 0.00378 0.21973 0.73617 0.0
C671 C 0.04012 0.22205 0.68278 0.0
C672 C 0.95272 0.19271 0.74986 0.0
C673 C 0.96478 0.1981 0.73876 0.0
C674 C 0.9916 0.19494 0.7466 0.0
C675 C 0.02308 0.2201 0.72321 0.0
C676 C 0.01008 0.21353 0.73269 0.0
C677 C 0.97234 0.1948 0.75976 0.0
C678 C 0.98532 0.20117 0.75008 0.0
H679 H 0.04825 0.2462 0.74812 0.0
H680 H 0.02713 0.23481 0.76683 0.0
H681 H 0.00848 0.19603 0.73572 0.0
H682 H 0.95196 0.17347 0.82718 0.0
H683 H 0.97309 0.18301 0.80814 0.0
C684 C 0.85811 0.57058 0.58115 0.0
C685 C 0.84905 0.56673 0.5498 0.0
C686 C 0.86344 0.56376 0.59058 0.0
C687 C 0.85991 0.53373 0.58082 0.0
H688 H 0.89444 0.55125 0.5901 0.0
C689 C 0.9027 0.52531 0.5889 0.0
C690 C 0.89888 0.51656 0.62144 0.0
C691 C 0.89592 0.53062 0.57843 0.0
C692 C 0.8848 0.5462 0.58723 0.0
H693 H 0.83818 0.55252 0.50469 0.0
H694 H 0.84759 0.54062 0.52098 0.0
H695 H 0.88382 0.56198 0.57616 0.0
H696 H 0.88474 0.5062 0.6675 0.0
H697 H 0.87293 0.51557 0.64941 0.0
H698 H 0.86098 0.5179 0.59144 0.0
C699 C 0.8505 0.54888 0.53845 0.0
C700 C 0.8787 0.55237 0.5798 0.0
C701 C 0.84516 0.55573 0.52898 0.0
C702 C 0.88793 0.51294 0.64231 0.0
C703 C 0.88113 0.51825 0.6318 0.0
C704 C 0.86603 0.52753 0.58842 0.0
C705 C 0.85984 0.55294 0.56883 0.0
C706 C 0.86619 0.54623 0.57665 0.0
C707 C 0.88517 0.52731 0.60028 0.0
C708 C 0.87855 0.53372 0.59164 0.0
H709 H 0.86124 0.57897 0.59803 0.0
H710 H 0.87045 0.56702 0.61474 0.0
H711 H 0.85026 0.52876 0.57876 0.0
H712 H 0.91105 0.52824 0.57198 0.0
H713 H 0.89916 0.53742 0.55344 0.0
C714 C 0.42366 0.28579 0.58458 0.0
C715 C 0.4277 0.28062 0.55373 0.0
C716 C 0.43054 0.29788 0.59487 0.0
C717 C 0.44244 0.32465 0.58504 0.0
H718 H 0.47686 0.34095 0.59817 0.0
C719 C 0.47046 0.37571 0.58771 0.0
C720 C 0.47926 0.38087 0.62002 0.0
C721 C 0.46483 0.36348 0.5795 0.0
C722 C 0.46725 0.33649 0.59482 0.0
H723 H 0.44227 0.28398 0.51045 0.0
H724 H 0.45426 0.30516 0.52817 0.0
H725 H 0.46574 0.31934 0.58666 0.0
H726 H 0.48933 0.37734 0.66818 0.0
H727 H 0.47942 0.35589 0.65393 0.0
H728 H 0.44387 0.34171 0.59361 0.0
C729 C 0.44581 0.29983 0.54465 0.0
C730 C 0.4609 0.32415 0.58788 0.0
C731 C 0.43892 0.28771 0.53434 0.0
C732 C 0.48258 0.37361 0.64308 0.0
C733 C 0.47694 0.36134 0.63481 0.0
C734 C 0.44877 0.33695 0.59182 0.0
C735 C 0.4416 0.30508 0.57451 0.0
C736 C 0.44842 0.31811 0.58289 0.0
C737 C 0.46787 0.35613 0.60341 0.0
C738 C 0.46124 0.34303 0.59658 0.0
H739 H 0.41509 0.28054 0.60032 0.0
H740 H 0.42715 0.30162 0.61855 0.0
H741 H 0.43285 0.32029 0.5808 0.0
H742 H 0.46776 0.38108 0.56917 0.0
H743 H 0.45803 0.35975 0.55456 0.0
C744 C 0.70877 0.15219 0.533 0.0
C745 C 0.71593 0.1485 0.55469 0.0
C746 C 0.69663 0.14703 0.54297 0.0
C747 C 0.67207 0.11923 0.58713 0.0
H748 H 0.65502 0.13678 0.59198 0.0
C749 C 0.62272 0.11008 0.64059 0.0
C750 C 0.61562 0.09904 0.62 0.0
C751 C 0.63494 0.11683 0.63181 0.0
C752 C 0.65968 0.13178 0.59091 0.0
H753 H 0.71615 0.13695 0.60524 0.0
H754 H 0.69504 0.12804 0.62288 0.0
H755 H 0.67667 0.14755 0.58109 0.0
H756 H 0.61567 0.0866 0.57293 0.0
H757 H 0.63695 0.0984 0.55739 0.0
H758 H 0.6552 0.10349 0.59738 0.0
C759 C 0.69874 0.13476 0.59765 0.0
C760 C 0.67205 0.13793 0.58436 0.0
C761 C 0.71084 0.13991 0.5877 0.0
C762 C 0.62091 0.09504 0.58956 0.0
C763 C 0.63311 0.10176 0.58082 0.0
C764 C 0.65975 0.1131 0.5935 0.0
C765 C 0.69144 0.13807 0.57478 0.0
C766 C 0.67837 0.13171 0.58248 0.0
C767 C 0.6403 0.11264 0.60235 0.0
C768 C 0.6534 0.11929 0.59536 0.0
H769 H 0.71244 0.15881 0.5074 0.0
H770 H 0.69122 0.14972 0.52461 0.0
H771 H 0.67665 0.11416 0.58524 0.0
H772 H 0.61889 0.11341 0.66421 0.0
H773 H 0.64026 0.12514 0.64912 0.0
C774 C 0.47677 0.09884 0.07841 0.0
C775 C 0.48108 0.0991 0.12035 0.0
C776 C 0.4722 0.10624 0.06747 0.0
C777 C 0.46931 0.13208 0.10705 0.0
H778 H 0.4421 0.11847 0.02915 0.0
C779 C 0.43023 0.14248 0.08665 0.0
C780 C 0.43093 0.14829 0.04732 0.0
C781 C 0.43795 0.13812 0.09492 0.0
C782 C 0.44977 0.12239 0.0506 0.0
H783 H 0.48419 0.10733 0.18372 0.0
H784 H 0.47557 0.1198 0.16561 0.0
H785 H 0.45231 0.1074 0.04491 0.0
H786 H 0.44036 0.15429 0.98612 0.0
H787 H 0.45366 0.14621 0.0002 0.0
H788 H 0.46607 0.14675 0.11438 0.0
C789 C 0.47608 0.11423 0.14049 0.0
C790 C 0.4557 0.11612 0.05949 0.0
C791 C 0.48094 0.10702 0.15107 0.0
C792 C 0.43967 0.14989 0.01676 0.0
C793 C 0.44726 0.1453 0.02473 0.0
C794 C 0.4632 0.13824 0.09869 0.0
C795 C 0.47151 0.11384 0.09862 0.0
C796 C 0.46555 0.12084 0.08796 0.0
C797 C 0.44636 0.13933 0.06373 0.0
C798 C 0.4534 0.1334 0.07049 0.0
H799 H 0.47696 0.09293 0.05392 0.0
H800 H 0.46913 0.10592 0.03456 0.0
H801 H 0.47695 0.13611 0.12856 0.0
H802 H 0.42361 0.1412 0.11084 0.0
H803 H 0.43711 0.13344 0.12506 0.0
C804 C 0.84452 0.28854 0.0325 0.0
C805 C 0.8485 0.2816 0.05409 0.0
C806 C 0.84969 0.30073 0.04135 0.0
C807 C 0.85894 0.32551 0.08127 0.0
H808 H 0.8935 0.34282 0.08872 0.0
C809 C 0.88697 0.37478 0.13734 0.0
C810 C 0.89784 0.38199 0.11584 0.0
C811 C 0.88016 0.36261 0.12776 0.0
C812 C 0.88386 0.33814 0.08633 0.0
H813 H 0.86063 0.28186 0.10323 0.0
H814 H 0.86959 0.3031 0.11884 0.0
H815 H 0.88294 0.3213 0.07805 0.0
H816 H 0.90983 0.38226 0.06606 0.0
H817 H 0.89789 0.36106 0.04918 0.0
H818 H 0.85992 0.34245 0.08918 0.0
C819 C 0.86261 0.29916 0.09462 0.0
C820 C 0.8778 0.32579 0.08082 0.0
C821 C 0.85742 0.28698 0.08586 0.0
C822 C 0.90153 0.37692 0.08338 0.0
C823 C 0.89473 0.36476 0.07389 0.0
C824 C 0.86502 0.3379 0.08702 0.0
C825 C 0.85897 0.30621 0.07185 0.0
C826 C 0.86528 0.31933 0.07831 0.0
C827 C 0.8841 0.35743 0.09659 0.0
C828 C 0.87755 0.34434 0.08952 0.0
H829 H 0.83765 0.28464 0.00785 0.0
H830 H 0.84675 0.30595 0.02312 0.0
H831 H 0.84928 0.32075 0.07961 0.0
H832 H 0.88389 0.37844 0.16249 0.0
H833 H 0.87204 0.35718 0.14598 0.0
C834 C 0.61761 0.52226 0.07101 0.0
C835 C 0.61323 0.51438 0.10638 0.0
C836 C 0.62952 0.5273 0.05834 0.0
C837 C 0.6571 0.52551 0.07115 0.0
H838 H 0.6726 0.55971 0.05266 0.0
C839 C 0.70711 0.56979 0.06924 0.0
C840 C 0.71323 0.56621 0.04096 0.0
C841 C 0.69484 0.5626 0.07553 0.0
C842 C 0.66842 0.55017 0.0579 0.0
H843 H 0.61772 0.50509 0.15479 0.0
H844 H 0.6386 0.51405 0.13304 0.0
H845 H 0.65119 0.54839 0.06477 0.0
H846 H 0.71138 0.55209 -0.00197 0.0
H847 H 0.68983 0.53949 0.00896 0.0
H848 H 0.67452 0.52745 0.06536 0.0
C849 C 0.6328 0.51625 0.11485 0.0
C850 C 0.65611 0.54365 0.06426 0.0
C851 C 0.62085 0.51117 0.12746 0.0
C852 C 0.70689 0.5551 0.02 0.0
C853 C 0.69458 0.54787 0.02636 0.0
C854 C 0.66946 0.53206 0.06461 0.0
C855 C 0.63733 0.52462 0.08087 0.0
C856 C 0.65031 0.53126 0.07132 0.0
C857 C 0.68841 0.55166 0.05366 0.0
C858 C 0.67526 0.54449 0.05852 0.0
H859 H 0.61192 0.52481 0.0538 0.0
H860 H 0.63268 0.53354 0.03148 0.0
H861 H 0.65286 0.51596 0.07622 0.0
H862 H 0.71175 0.57826 0.08615 0.0
H863 H 0.69038 0.56566 0.09742 0.0
C864 C 0.51314 0.88877 0.84244 0.0
C865 C 0.51769 0.89984 0.86348 0.0
C866 C 0.51833 0.88166 0.84931 0.0
C867 C 0.52779 0.86609 0.88894 0.0
H868 H 0.56241 0.88278 0.88945 0.0
C869 C 0.5561 0.84569 0.95136 0.0
C870 C 0.56683 0.84892 0.9295 0.0
C871 C 0.54912 0.85071 0.93941 0.0
C872 C 0.55274 0.87794 0.88891 0.0
H873 H 0.53099 0.91197 0.90922 0.0
H874 H 0.53996 0.89959 0.92125 0.0
H875 H 0.5521 0.89387 0.87682 0.0
H876 H 0.57829 0.85936 0.87632 0.0
H877 H 0.56608 0.86799 0.85523 0.0
H878 H 0.52852 0.85013 0.90106 0.0
C879 C 0.53251 0.89647 0.899 0.0
C880 C 0.54683 0.88433 0.88222 0.0
C881 C 0.52732 0.90353 0.89226 0.0
C882 C 0.57014 0.8568 0.89415 0.0
C883 C 0.56317 0.86178 0.88216 0.0
C884 C 0.53373 0.85967 0.89587 0.0
C885 C 0.5282 0.88554 0.87715 0.0
C886 C 0.53431 0.87851 0.88258 0.0
C887 C 0.55276 0.85904 0.90535 0.0
C888 C 0.54628 0.86556 0.8961 0.0
H889 H 0.5057 0.88569 0.82011 0.0
H890 H 0.51485 0.8733 0.8319 0.0
H891 H 0.51812 0.86138 0.88952 0.0
H892 H 0.55331 0.83961 0.97869 0.0
H893 H 0.54118 0.84847 0.95805 0.0
C894 C 0.10956 0.62399 0.84109 0.0
C895 C 0.09913 0.6169 0.86514 0.0
C896 C 0.11689 0.63607 0.85111 0.0
C897 C 0.1251 0.66256 0.86078 0.0
H898 H 0.13142 0.6735 0.98012 0.0
C899 C 0.13884 0.71057 0.91108 0.0
C900 C 0.14747 0.71603 0.94377 0.0
C901 C 0.13445 0.69861 0.90038 0.0
C902 C 0.12986 0.67059 0.94662 0.0
H903 H 0.08834 0.61681 0.91915 0.0
H904 H 0.10109 0.63786 0.93654 0.0
H905 H 0.12117 0.65214 0.96462 0.0
H906 H 0.15845 0.71331 0.9904 0.0
H907 H 0.15073 0.69235 0.97176 0.0
H908 H 0.13366 0.68101 0.84281 0.0
C909 C 0.10367 0.63408 0.91015 0.0
C910 C 0.12389 0.65836 0.93777 0.0
C911 C 0.09631 0.62204 0.89998 0.0
C912 C 0.15177 0.70934 0.96512 0.0
C913 C 0.14733 0.69733 0.95459 0.0
C914 C 0.13102 0.67479 0.86964 0.0
C915 C 0.11397 0.64126 0.88557 0.0
C916 C 0.12128 0.65422 0.8948 0.0
C917 C 0.13856 0.69182 0.9223 0.0
C918 C 0.13329 0.67892 0.91268 0.0
H919 H 0.11198 0.62026 0.8141 0.0
H920 H 0.12483 0.64136 0.83184 0.0
H921 H 0.12315 0.65964 0.82735 0.0
H922 H 0.13536 0.7155 0.89401 0.0
H923 H 0.12759 0.69458 0.87574 0.0
C924 C 0.28615 0.42816 0.9063 0.0
C925 C 0.28105 0.43179 0.93885 0.0
C926 C 0.29824 0.43514 0.89609 0.0
C927 C 0.32485 0.44629 0.90741 0.0
H928 H 0.3421 0.48086 0.90083 0.0
C929 C 0.37592 0.47259 0.90588 0.0
C930 C 0.38131 0.48156 0.8743 0.0
C931 C 0.36377 0.4675 0.91501 0.0
C932 C 0.33738 0.4712 0.90242 0.0
H933 H 0.28447 0.44584 0.98483 0.0
H934 H 0.30565 0.458 0.96722 0.0
H935 H 0.3204 0.47012 0.91079 0.0
H936 H 0.37835 0.49263 0.82889 0.0
H937 H 0.35706 0.48366 0.84469 0.0
H938 H 0.3417 0.44727 0.89861 0.0
C939 C 0.30028 0.44979 0.94941 0.0
C940 C 0.32499 0.46507 0.90841 0.0
C941 C 0.28816 0.4428 0.95962 0.0
C942 C 0.37443 0.48572 0.85339 0.0
C943 C 0.36225 0.48061 0.86254 0.0
C944 C 0.33719 0.45239 0.90162 0.0
C945 C 0.3055 0.44589 0.91827 0.0
C946 C 0.3186 0.45253 0.9109 0.0
C947 C 0.35674 0.47125 0.89272 0.0
C948 C 0.34361 0.46492 0.89921 0.0
H949 H 0.28088 0.41977 0.88943 0.0
H950 H 0.30195 0.43201 0.87133 0.0
H951 H 0.32023 0.43664 0.90981 0.0
H952 H 0.381 0.46926 0.92282 0.0
H953 H 0.35983 0.46047 0.93906 0.0
C954 C 0.1075 0.48498 0.35548 0.0
C955 C 0.09648 0.48149 0.37553 0.0
C956 C 0.11415 0.47958 0.36697 0.0
C957 C 0.10995 0.45153 0.41225 0.0
H958 H 0.14449 0.46862 0.4212 0.0
C959 C 0.14939 0.44146 0.46914 0.0
C960 C 0.14554 0.43058 0.44748 0.0
C961 C 0.14402 0.44833 0.46053 0.0
C962 C 0.13484 0.46374 0.41904 0.0
H963 H 0.08403 0.46998 0.42465 0.0
H964 H 0.09567 0.46063 0.4449 0.0
H965 H 0.134 0.4797 0.40863 0.0
H966 H 0.13333 0.41853 0.39888 0.0
H967 H 0.12404 0.43052 0.3837 0.0
H968 H 0.11072 0.4356 0.42293 0.0
C969 C 0.09908 0.46741 0.41983 0.0
C970 C 0.12885 0.47007 0.41151 0.0
C971 C 0.09245 0.47281 0.40839 0.0
C972 C 0.13644 0.42684 0.41632 0.0
C973 C 0.13107 0.43367 0.40779 0.0
C974 C 0.11592 0.44522 0.41958 0.0
C975 C 0.10989 0.47057 0.39868 0.0
C976 C 0.11634 0.46401 0.40799 0.0
C977 C 0.13468 0.4444 0.43021 0.0
C978 C 0.12843 0.45124 0.42285 0.0
H979 H 0.11085 0.49166 0.33005 0.0
H980 H 0.12241 0.48215 0.34987 0.0
H981 H 0.10032 0.44658 0.40915 0.0
H982 H 0.15639 0.44458 0.49333 0.0
H983 H 0.14694 0.45652 0.47851 0.0
C984 C 0.52137 0.61999 0.41002 0.0
C985 C 0.51359 0.6145 0.37494 0.0
C986 C 0.52556 0.63198 0.41965 0.0
C987 C 0.53184 0.65977 0.3667 0.0
H988 H 0.53719 0.67194 0.48445 0.0
C989 C 0.56674 0.70809 0.4103 0.0
C990 C 0.56392 0.71396 0.44249 0.0
C991 C 0.55893 0.69606 0.40114 0.0
C992 C 0.53562 0.66869 0.45137 0.0
H993 H 0.50372 0.61713 0.3234 0.0
H994 H 0.51105 0.63813 0.34025 0.0
H995 H 0.52601 0.65043 0.4719 0.0
H996 H 0.5506 0.71193 0.48971 0.0
H997 H 0.53695 0.69086 0.47374 0.0
H998 H 0.54161 0.67801 0.34619 0.0
C999 C 0.51398 0.63316 0.36006 0.0
C1000 C 0.52932 0.65637 0.44421 0.0
C1001 C 0.50974 0.62113 0.35056 0.0
C1002 C 0.55302 0.70763 0.46478 0.0
C1003 C 0.54523 0.69556 0.45578 0.0
C1004 C 0.53819 0.67208 0.37386 0.0
C1005 C 0.52208 0.63876 0.39429 0.0
C1006 C 0.52756 0.65178 0.40184 0.0
C1007 C 0.54816 0.68963 0.42409 0.0
C1008 C 0.54034 0.67666 0.4163 0.0
H1009 H 0.52448 0.6151 0.42945 0.0
H1010 H 0.53189 0.63606 0.44593 0.0
H1011 H 0.53071 0.65651 0.33368 0.0
H1012 H 0.57506 0.71273 0.39255 0.0
H1013 H 0.5615 0.69171 0.37693 0.0
C1014 C 0.37788 0.90406 0.40883 0.0
C1015 C 0.38242 0.90013 0.37532 0.0
C1016 C 0.36589 0.8974 0.42078 0.0
C1017 C 0.33856 0.86772 0.41135 0.0
H1018 H 0.32273 0.88615 0.4287 0.0
C1019 C 0.28816 0.86112 0.42007 0.0
C1020 C 0.28254 0.85155 0.44925 0.0
C1021 C 0.30036 0.86637 0.41177 0.0
C1022 C 0.32699 0.88085 0.4237 0.0
H1023 H 0.37809 0.88591 0.32902 0.0
H1024 H 0.35704 0.87434 0.34941 0.0
H1025 H 0.344 0.89639 0.4137 0.0
H1026 H 0.28522 0.83976 0.4919 0.0
H1027 H 0.30665 0.84905 0.47765 0.0
H1028 H 0.32137 0.85215 0.42033 0.0
C1029 C 0.36279 0.88252 0.36679 0.0
C1030 C 0.33923 0.88674 0.41567 0.0
C1031 C 0.37483 0.88918 0.35494 0.0
C1032 C 0.28932 0.84714 0.46926 0.0
C1033 C 0.30157 0.85242 0.46096 0.0
C1034 C 0.32626 0.86181 0.41946 0.0
C1035 C 0.35814 0.88667 0.39932 0.0
C1036 C 0.34517 0.88026 0.40923 0.0
C1037 C 0.30724 0.8622 0.43255 0.0
C1038 C 0.32034 0.86833 0.42533 0.0
H1039 H 0.38354 0.9124 0.4255 0.0
H1040 H 0.36266 0.90073 0.44655 0.0
H1041 H 0.3429 0.86249 0.40686 0.0
H1042 H 0.28317 0.86467 0.40383 0.0
H1043 H 0.30441 0.87374 0.38906 0.0
C1044 C 0.08864 0.24129 0.81064 0.0
C1045 C 0.09597 0.24343 0.77436 0.0
C1046 C 0.09202 0.23896 0.85095 0.0
C1047 C 0.11293 0.23241 0.90968 0.0
H1048 H 0.11927 0.25984 0.97975 0.0
C1049 C 0.14903 0.25062 0.04342 0.0
C1050 C 0.14771 0.25669 0.07874 0.0
C1051 C 0.14082 0.2467 0.00921 0.0
C1052 C 0.11734 0.25192 0.96155 0.0
H1053 H 0.11178 0.24366 0.75002 0.0
H1054 H 0.11746 0.23919 0.82005 0.0
H1055 H 0.10678 0.2551 0.916 0.0
H1056 H 0.13649 0.2629 0.10735 0.0
H1057 H 0.12188 0.25558 0.04928 0.0
H1058 H 0.12351 0.22921 0.95517 0.0
C1059 C 0.1092 0.23938 0.81769 0.0
C1060 C 0.11015 0.24922 0.92486 0.0
C1061 C 0.10598 0.24197 0.77771 0.0
C1062 C 0.13787 0.25847 0.07997 0.0
C1063 C 0.1295 0.25429 0.04649 0.0
C1064 C 0.11994 0.23496 0.94707 0.0
C1065 C 0.10262 0.23852 0.85504 0.0
C1066 C 0.10812 0.23963 0.89803 0.0
C1067 C 0.13094 0.24851 0.01023 0.0
C1068 C 0.1225 0.24495 0.97291 0.0
H1069 H 0.08096 0.24252 0.8087 0.0
H1070 H 0.08682 0.23834 0.87941 0.0
H1071 H 0.11151 0.22499 0.88929 0.0
H1072 H 0.15655 0.24912 0.04181 0.0
H1073 H 0.1424 0.2425 0.98163 0.0
C1074 C 0.74676 0.88184 0.08737 0.0
C1075 C 0.74586 0.89213 0.08247 0.0
C1076 C 0.75159 0.8782 0.05436 0.0
C1077 C 0.76661 0.88712 0.94526 0.0
H1078 H 0.74968 0.85283 0.92842 0.0
C1079 C 0.75286 0.86233 0.78394 0.0
C1080 C 0.75278 0.8515 0.77965 0.0
C1081 C 0.75714 0.86905 0.82176 0.0
C1082 C 0.75474 0.86241 0.93316 0.0
H1083 H 0.74956 0.90694 0.04025 0.0
H1084 H 0.75717 0.90015 0.98088 0.0
H1085 H 0.74658 0.86099 0.99431 0.0
H1086 H 0.75788 0.83956 0.80947 0.0
H1087 H 0.765 0.85116 0.8769 0.0
H1088 H 0.7738 0.88834 0.88146 0.0
C1089 C 0.75464 0.89509 0.01078 0.0
C1090 C 0.75298 0.86715 0.97114 0.0
C1091 C 0.75015 0.89893 0.04452 0.0
C1092 C 0.75791 0.84793 0.81219 0.0
C1093 C 0.76195 0.85453 0.85061 0.0
C1094 C 0.76816 0.88235 0.90672 0.0
C1095 C 0.75525 0.88454 0.01496 0.0
C1096 C 0.75861 0.87959 0.97729 0.0
C1097 C 0.76114 0.86489 0.85628 0.0
C1098 C 0.76198 0.86996 0.89995 0.0
H1099 H 0.74373 0.87661 0.1169 0.0
H1100 H 0.75226 0.87028 0.05959 0.0
H1101 H 0.77136 0.89672 0.94918 0.0
H1102 H 0.74897 0.86525 0.75902 0.0
H1103 H 0.7563 0.87694 0.82544 0.0
C1104 C 0.09805 0.85312 0.04399 0.0
C1105 C 0.10488 0.85579 0.08195 0.0
C1106 C 0.10169 0.86147 0.0103 0.0
C1107 C 0.12925 0.88808 0.97047 0.0
H1108 H 0.10773 0.88722 0.88112 0.0
C1109 C 0.14818 0.91152 0.8105 0.0
C1110 C 0.14433 0.90273 0.77819 0.0
C1111 C 0.14168 0.90919 0.84908 0.0
C1112 C 0.11382 0.88771 0.90626 0.0
H1113 H 0.12022 0.86947 0.11639 0.0
H1114 H 0.12618 0.88429 0.0591 0.0
H1115 H 0.09958 0.8764 0.94901 0.0
H1116 H 0.13018 0.88531 0.75807 0.0
H1117 H 0.1187 0.88136 0.82474 0.0
H1118 H 0.14344 0.89918 0.92742 0.0
C1119 C 0.1184 0.87559 0.05388 0.0
C1120 C 0.10918 0.88139 0.94492 0.0
C1121 C 0.11498 0.86713 0.08687 0.0
C1122 C 0.13331 0.89218 0.7828 0.0
C1123 C 0.12671 0.88997 0.82081 0.0
C1124 C 0.13386 0.89456 0.93232 0.0
C1125 C 0.11205 0.87277 0.01451 0.0
C1126 C 0.11683 0.8811 0.97682 0.0
C1127 C 0.13116 0.89817 0.85521 0.0
C1128 C 0.1262 0.89406 0.89915 0.0
H1129 H 0.0902 0.84441 0.03966 0.0
H1130 H 0.09662 0.85883 0.9804 0.0
H1131 H 0.13549 0.88799 0.99358 0.0
H1132 H 0.15669 0.9197 0.80754 0.0
H1133 H 0.14526 0.91565 0.87519 0.0
C1134 C 0.24528 0.09606 0.68671 0.0
C1135 C 0.25296 0.10409 0.71817 0.0
C1136 C 0.24262 0.10034 0.64903 0.0
C1137 C 0.2444 0.12732 0.59903 0.0
H1138 H 0.25183 0.11611 0.49335 0.0
C1139 C 0.24708 0.14884 0.43169 0.0
C1140 C 0.25731 0.15153 0.40724 0.0
C1141 C 0.2441 0.14156 0.46845 0.0
C1142 C 0.24968 0.11929 0.52257 0.0
H1143 H 0.26311 0.12276 0.73657 0.0
H1144 H 0.25842 0.13015 0.67143 0.0
H1145 H 0.25013 0.10587 0.56174 0.0
H1146 H 0.27235 0.14853 0.40218 0.0
H1147 H 0.26718 0.13593 0.46632 0.0
H1148 H 0.24452 0.1411 0.56023 0.0
C1149 C 0.25448 0.1206 0.67549 0.0
C1150 C 0.24855 0.11334 0.56162 0.0
C1151 C 0.25726 0.11636 0.71267 0.0
C1152 C 0.26442 0.14667 0.42019 0.0
C1153 C 0.26139 0.13935 0.45676 0.0
C1154 C 0.24546 0.13324 0.55994 0.0
C1155 C 0.24742 0.11268 0.64268 0.0
C1156 C 0.24627 0.11752 0.60048 0.0
C1157 C 0.25123 0.13675 0.48139 0.0
C1158 C 0.24848 0.12951 0.52154 0.0
H1159 H 0.24184 0.08656 0.69014 0.0
H1160 H 0.23708 0.09403 0.62433 0.0
H1161 H 0.24254 0.13068 0.62844 0.0
H1162 H 0.24138 0.15241 0.42267 0.0
H1163 H 0.23618 0.13967 0.48668 0.0
C1164 C 0.86179 0.11779 0.40173 0.0
C1165 C 0.85139 0.10658 0.40428 0.0
C1166 C 0.86991 0.122 0.43607 0.0
C1167 C 0.87685 0.11291 0.54339 0.0
H1168 H 0.89138 0.14681 0.56653 0.0
C1169 C 0.88748 0.13607 0.70962 0.0
C1170 C 0.89836 0.14675 0.71467 0.0
C1171 C 0.88467 0.12992 0.67031 0.0
C1172 C 0.8876 0.13737 0.56 0.0
H1173 H 0.84133 0.0909 0.44421 0.0
H1174 H 0.85501 0.09852 0.50544 0.0
H1175 H 0.88036 0.13875 0.49977 0.0
H1176 H 0.91514 0.15908 0.68406 0.0
H1177 H 0.90999 0.14852 0.61417 0.0
H1178 H 0.88328 0.11159 0.60623 0.0
C1179 C 0.85727 0.10392 0.4764 0.0
C1180 C 0.88128 0.1327 0.52156 0.0
C1181 C 0.84932 0.09957 0.44148 0.0
C1182 C 0.90674 0.1508 0.68086 0.0
C1183 C 0.90379 0.1448 0.64103 0.0
C1184 C 0.88295 0.11757 0.58241 0.0
C1185 C 0.86764 0.11526 0.47439 0.0
C1186 C 0.87558 0.12035 0.51303 0.0
C1187 C 0.89258 0.13453 0.63514 0.0
C1188 C 0.88818 0.12981 0.59128 0.0
H1189 H 0.86368 0.12327 0.37298 0.0
H1190 H 0.87793 0.1306 0.43254 0.0
H1191 H 0.87289 0.10342 0.53766 0.0
H1192 H 0.88089 0.13281 0.73537 0.0
H1193 H 0.87592 0.12209 0.66638 0.0
C1194 C 0.84657 0.75821 0.67362 0.0
C1195 C 0.85073 0.75395 0.70731 0.0
C1196 C 0.85287 0.76185 0.63446 0.0
C1197 C 0.88073 0.7686 0.57758 0.0
H1198 H 0.85954 0.74535 0.49364 0.0
C1199 C 0.89813 0.75082 0.44154 0.0
C1200 C 0.89121 0.74594 0.40414 0.0
C1201 C 0.89405 0.75517 0.475 0.0
C1202 C 0.86562 0.75219 0.51576 0.0
H1203 H 0.86512 0.75125 0.72889 0.0
H1204 H 0.8763 0.75794 0.66115 0.0
H1205 H 0.85135 0.74867 0.55913 0.0
H1206 H 0.87513 0.74257 0.3705 0.0
H1207 H 0.86833 0.7508 0.4273 0.0
H1208 H 0.89506 0.77205 0.53447 0.0
C1209 C 0.8682 0.7584 0.66454 0.0
C1210 C 0.86087 0.75407 0.5535 0.0
C1211 C 0.86179 0.75451 0.70316 0.0
C1212 C 0.88049 0.74607 0.39956 0.0
C1213 C 0.87659 0.75074 0.4323 0.0
C1214 C 0.8855 0.76691 0.53926 0.0
C1215 C 0.8635 0.76151 0.62912 0.0
C1216 C 0.8684 0.76197 0.58542 0.0
C1217 C 0.88311 0.75503 0.47111 0.0
C1218 C 0.87804 0.75834 0.50854 0.0
H1219 H 0.838 0.75776 0.6762 0.0
H1220 H 0.84907 0.7642 0.60749 0.0
H1221 H 0.88671 0.77474 0.60182 0.0
H1222 H 0.90645 0.75082 0.44565 0.0
H1223 H 0.89927 0.7582 0.50448 0.0
C1224 C 0.86331 0.74545 0.89859 0.0
C1225 C 0.8525 0.74541 0.90296 0.0
C1226 C 0.87178 0.74989 0.93175 0.0
C1227 C 0.8788 0.76566 0.03948 0.0
H1228 H 0.89459 0.74729 0.0589 0.0
C1229 C 0.88968 0.75269 0.20312 0.0
C1230 C 0.9003 0.75237 0.2077 0.0
C1231 C 0.88716 0.75655 0.16444 0.0
C1232 C 0.8905 0.75273 0.05341 0.0
H1233 H 0.84208 0.75017 0.94461 0.0
H1234 H 0.85642 0.75714 0.00411 0.0
H1235 H 0.88326 0.74423 0.99305 0.0
H1236 H 0.91701 0.75653 0.1772 0.0
H1237 H 0.91238 0.76291 0.1083 0.0
H1238 H 0.88525 0.77325 0.10247 0.0
C1239 C 0.85869 0.75423 0.9745 0.0
C1240 C 0.88397 0.751 0.01547 0.0
C1241 C 0.85037 0.75011 0.94065 0.0
C1242 C 0.90879 0.75678 0.17428 0.0
C1243 C 0.90614 0.76039 0.13503 0.0
C1244 C 0.88514 0.76719 0.07797 0.0
C1245 C 0.86946 0.75404 0.97074 0.0
C1246 C 0.87775 0.75719 0.00841 0.0
C1247 C 0.89511 0.75989 0.12937 0.0
C1248 C 0.89079 0.76051 0.08563 0.0
H1249 H 0.86525 0.7421 0.86931 0.0
H1250 H 0.88008 0.74992 0.92688 0.0
H1251 H 0.87442 0.77084 0.03482 0.0
H1252 H 0.88303 0.74933 0.22866 0.0
H1253 H 0.87855 0.75596 0.16076 0.0
C1254 C 0.24265 0.09705 0.92897 0.0
C1255 C 0.25471 0.10007 0.92782 0.0
C1256 C 0.23818 0.10037 0.96438 0.0
C1257 C 0.2434 0.10958 0.07833 0.0
H1258 H 0.23325 0.13229 0.04852 0.0
C1259 C 0.23847 0.13867 0.20816 0.0
C1260 C 0.24716 0.15059 0.20007 0.0
C1261 C 0.23497 0.13017 0.17501 0.0
C1262 C 0.23578 0.12575 0.05731 0.0
H1263 H 0.27135 0.10826 0.9637 0.0
H1264 H 0.26346 0.11378 0.02598 0.0
H1265 H 0.23577 0.12062 0.9912 0.0
H1266 H 0.25837 0.16325 0.1512 0.0
H1267 H 0.25193 0.14853 0.0929 0.0
H1268 H 0.24399 0.11514 0.14416 0.0
C1269 C 0.25751 0.10896 -0.00065 0.0
C1270 C 0.23721 0.11908 0.02464 0.0
C1271 C 0.26204 0.1059 0.96362 0.0
C1272 C 0.25159 0.1541 0.15791 0.0
C1273 C 0.24787 0.1457 0.12464 0.0
C1274 C 0.24177 0.11609 0.11107 0.0
C1275 C 0.24562 0.10646 -0.00038 0.0
C1276 C 0.24152 0.11133 0.03474 0.0
C1277 C 0.23991 0.13359 0.13328 0.0
C1278 C 0.23843 0.12459 0.1006 0.0
H1279 H 0.2368 0.09258 0.90175 0.0
H1280 H 0.22899 0.09838 0.96391 0.0
H1281 H 0.24671 0.10363 0.08682 0.0
H1282 H 0.23508 0.13579 0.2407 0.0
H1283 H 0.22886 0.12086 0.1824 0.0
C1284 C 0.84188 0.09499 0.15925 0.0
C1285 C 0.84592 0.09386 0.20014 0.0
C1286 C 0.8493 0.09792 0.12321 0.0
C1287 C 0.87997 0.11667 0.09724 0.0
H1288 H 0.86832 0.10557 0.98087 0.0
C1289 C 0.90116 0.14529 0.9418 0.0
C1290 C 0.89251 0.1464 0.9177 0.0
C1291 C 0.89769 0.13674 0.97485 0.0
C1292 C 0.8718 0.10868 0.01316 0.0
H1293 H 0.8606 0.09438 0.23576 0.0
H1294 H 0.8739 0.09998 0.17233 0.0
H1295 H 0.85778 0.09297 0.04299 0.0
H1296 H 0.87347 0.13926 0.9091 0.0
H1297 H 0.86751 0.12447 0.9661 0.0
H1298 H 0.89346 0.13278 0.06743 0.0
C1299 C 0.86489 0.09834 0.16818 0.0
C1300 C 0.8658 0.10147 0.04862 0.0
C1301 C 0.8573 0.09511 0.20426 0.0
C1302 C 0.88038 0.13873 0.92706 0.0
C1303 C 0.87695 0.13012 0.95942 0.0
C1304 C 0.88598 0.12391 0.06166 0.0
C1305 C 0.86102 0.10004 0.12755 0.0
C1306 C 0.86943 0.10568 0.09102 0.0
C1307 C 0.88553 0.12901 0.98361 0.0
C1308 C 0.88152 0.12024 0.01951 0.0
H1309 H 0.83314 0.09412 0.15553 0.0
H1310 H 0.84613 0.09934 0.09248 0.0
H1311 H 0.88292 0.12015 0.12963 0.0
H1312 H 0.91059 0.15108 0.93535 0.0
H1313 H 0.90448 0.13611 0.99333 0.0
C1314 C 0.75075 0.88757 0.28506 0.0
C1315 C 0.7515 0.89869 0.2795 0.0
C1316 C 0.75481 0.88503 0.3232 0.0
C1317 C 0.75334 0.89014 0.43398 0.0
H1318 H 0.76932 0.87186 0.45068 0.0
C1319 C 0.74517 0.86302 0.58948 0.0
C1320 C 0.74413 0.85176 0.58495 0.0
C1321 C 0.74997 0.87138 0.55603 0.0
C1322 C 0.76474 0.87687 0.44658 0.0
H1323 H 0.75777 0.91617 0.30756 0.0
H1324 H 0.76445 0.9115 0.37567 0.0
H1325 H 0.77174 0.88239 0.3823 0.0
H1326 H 0.74746 0.84038 0.54286 0.0
H1327 H 0.75497 0.85454 0.48286 0.0
H1328 H 0.74532 0.88382 0.49565 0.0
C1329 C 0.76094 0.90489 0.35004 0.0
C1330 C 0.7663 0.88303 0.40766 0.0
C1331 C 0.75714 0.90755 0.31127 0.0
C1332 C 0.74816 0.84903 0.54686 0.0
C1333 C 0.75261 0.85724 0.51275 0.0
C1334 C 0.75155 0.88378 0.47235 0.0
C1335 C 0.75943 0.89347 0.35678 0.0
C1336 C 0.76033 0.88944 0.40067 0.0
C1337 C 0.75345 0.8685 0.51665 0.0
C1338 C 0.75693 0.87674 0.47872 0.0
H1339 H 0.7465 0.88064 0.26074 0.0
H1340 H 0.75343 0.87612 0.32781 0.0
H1341 H 0.74848 0.89486 0.42903 0.0
H1342 H 0.74235 0.86541 0.61911 0.0
H1343 H 0.7508 0.88004 0.56102 0.0
C1344 C 0.08736 0.84919 0.31131 0.0
C1345 C 0.09602 0.85361 0.27844 0.0
C1346 C 0.08973 0.85518 0.35106 0.0
C1347 C 0.11052 0.88251 0.41138 0.0
H1348 H 0.11227 0.86056 0.49256 0.0
C1349 C 0.1454 0.89875 0.548 0.0
C1350 C 0.14322 0.89165 0.585 0.0
C1351 C 0.13707 0.89485 0.51424 0.0
C1352 C 0.11159 0.86684 0.47123 0.0
H1353 H 0.11322 0.86824 0.25884 0.0
H1354 H 0.1172 0.87887 0.32763 0.0
H1355 H 0.10094 0.85296 0.42633 0.0
H1356 H 0.13041 0.87538 0.61741 0.0
H1357 H 0.11558 0.86887 0.55993 0.0
H1358 H 0.12131 0.89644 0.45598 0.0
C1359 C 0.10868 0.87079 0.32316 0.0
C1360 C 0.10505 0.86243 0.43307 0.0
C1361 C 0.10645 0.86468 0.28395 0.0
C1362 C 0.13239 0.88088 0.58867 0.0
C1363 C 0.12392 0.87715 0.55557 0.0
C1364 C 0.11687 0.88692 0.4501 0.0
C1365 C 0.10064 0.86577 0.3578 0.0
C1366 C 0.10483 0.87025 0.4021 0.0
C1367 C 0.12624 0.88393 0.51737 0.0
C1368 C 0.11789 0.87919 0.47976 0.0
H1369 H 0.07928 0.84062 0.30768 0.0
H1370 H 0.08341 0.85115 0.37741 0.0
H1371 H 0.11045 0.8887 0.38789 0.0
H1372 H 0.1537 0.90711 0.54456 0.0
H1373 H 0.13934 0.90025 0.48518 0.0
C1374 C 0.1122 0.24524 0.57976 0.0
C1375 C 0.10288 0.24769 0.57431 0.0
C1376 C 0.11541 0.24023 0.54599 0.0
C1377 C 0.1071 0.2282 0.43218 0.0
H1378 H 0.14144 0.24257 0.42158 0.0
C1379 C 0.13442 0.24536 0.27739 0.0
C1380 C 0.14458 0.24426 0.27185 0.0
C1381 C 0.12712 0.24041 0.31355 0.0
C1382 C 0.13181 0.2382 0.42446 0.0
H1383 H 0.0893 0.24654 0.53049 0.0
H1384 H 0.09544 0.23868 0.47007 0.0
H1385 H 0.13303 0.24468 0.48863 0.0
H1386 H 0.1547 0.23644 0.29755 0.0
H1387 H 0.14213 0.22813 0.3623 0.0
H1388 H 0.10622 0.22286 0.36572 0.0
C1389 C 0.10001 0.24008 0.50079 0.0
C1390 C 0.12692 0.23939 0.46311 0.0
C1391 C 0.09654 0.24472 0.53517 0.0
C1392 C 0.14688 0.23737 0.30126 0.0
C1393 C 0.13971 0.23263 0.33814 0.0
C1394 C 0.11205 0.22726 0.39307 0.0
C1395 C 0.10967 0.23799 0.50542 0.0
C1396 C 0.11453 0.23477 0.4671 0.0
C1397 C 0.13002 0.23449 0.34525 0.0
C1398 C 0.12448 0.23259 0.38854 0.0
H1399 H 0.11703 0.24726 0.61016 0.0
H1400 H 0.1226 0.23841 0.55152 0.0
H1401 H 0.0975 0.22421 0.4343 0.0
H1402 H 0.13246 0.25059 0.25486 0.0
H1403 H 0.11979 0.24208 0.31849 0.0
C1404 C 0.80439 0.5912 0.41267 0.0
C1405 C 0.81183 0.58644 0.42157 0.0
C1406 C 0.79592 0.58644 0.37969 0.0
C1407 C 0.78969 0.57159 0.2761 0.0
H1408 H 0.75879 0.56898 0.29441 0.0
C1409 C 0.76078 0.57069 0.13261 0.0
C1410 C 0.75913 0.5806 0.13599 0.0
C1411 C 0.76416 0.56663 0.16916 0.0
C1412 C 0.7673 0.56947 0.28887 0.0
H1413 H 0.81626 0.57298 0.40236 0.0
H1414 H 0.80153 0.56483 0.3435 0.0
H1415 H 0.7714 0.57115 0.35663 0.0
H1416 H 0.75882 0.59349 0.17979 0.0
H1417 H 0.76431 0.58625 0.24361 0.0
H1418 H 0.78591 0.57073 0.20811 0.0
C1419 C 0.80223 0.57216 0.36273 0.0
C1420 C 0.77452 0.57076 0.3244 0.0
C1421 C 0.81065 0.57683 0.39634 0.0
C1422 C 0.75999 0.58579 0.17664 0.0
C1423 C 0.76308 0.5816 0.21314 0.0
C1424 C 0.78245 0.57032 0.24045 0.0
C1425 C 0.79472 0.57687 0.35443 0.0
C1426 C 0.78603 0.57246 0.31819 0.0
C1427 C 0.76564 0.57228 0.20952 0.0
C1428 C 0.77146 0.56988 0.24649 0.0
H1429 H 0.805 0.59856 0.43148 0.0
H1430 H 0.79042 0.59043 0.37343 0.0
H1431 H 0.79853 0.57289 0.27042 0.0
H1432 H 0.7603 0.56667 0.10131 0.0
H1433 H 0.76611 0.55945 0.16554 0.0
C1434 C 0.41208 0.17537 0.17799 0.0
C1435 C 0.41637 0.17964 0.13629 0.0
C1436 C 0.41657 0.18294 0.21366 0.0
C1437 C 0.42639 0.21341 0.23886 0.0
H1438 H 0.42756 0.20249 0.35496 0.0
C1439 C 0.41872 0.23395 0.39529 0.0
C1440 C 0.4094 0.22511 0.42039 0.0
C1441 C 0.42387 0.23074 0.36171 0.0
C1442 C 0.42742 0.20576 0.32272 0.0
H1443 H 0.42904 0.19489 0.09872 0.0
H1444 H 0.43676 0.20839 0.16157 0.0
H1445 H 0.43013 0.19242 0.29238 0.0
H1446 H 0.39832 0.20601 0.43036 0.0
H1447 H 0.40731 0.20048 0.37233 0.0
H1448 H 0.42288 0.22623 0.26929 0.0
C1449 C 0.43007 0.19912 0.16662 0.0
C1450 C 0.42892 0.20003 0.28699 0.0
C1451 C 0.42571 0.19142 0.13085 0.0
C1452 C 0.40543 0.21304 0.41156 0.0
C1453 C 0.41068 0.20987 0.37863 0.0
C1454 C 0.42492 0.21917 0.27471 0.0
C1455 C 0.42528 0.19501 0.20819 0.0
C1456 C 0.42772 0.20335 0.24472 0.0
C1457 C 0.41994 0.21866 0.35337 0.0
C1458 C 0.42475 0.21494 0.31681 0.0
H1459 H 0.40482 0.16632 0.1827 0.0
H1460 H 0.41256 0.17953 0.24509 0.0
H1461 H 0.42537 0.21612 0.20665 0.0
H1462 H 0.42197 0.24333 0.40132 0.0
H1463 H 0.43094 0.23768 0.34243 0.0
C1464 C 0.81122 0.23864 0.14158 0.0
C1465 C 0.81012 0.23001 0.11143 0.0
C1466 C 0.80372 0.23521 0.17796 0.0
C1467 C 0.79608 0.22248 0.26483 0.0
H1468 H 0.76414 0.19494 0.26821 0.0
C1469 C 0.78192 0.18668 0.39439 0.0
C1470 C 0.77036 0.18132 0.41199 0.0
C1471 C 0.78514 0.19472 0.36005 0.0
C1472 C 0.77297 0.20278 0.26807 0.0
H1473 H 0.79962 0.21142 0.09269 0.0
H1474 H 0.78666 0.20546 0.15552 0.0
H1475 H 0.77168 0.20621 0.2009 0.0
H1476 H 0.75306 0.18016 0.40679 0.0
H1477 H 0.75871 0.19416 0.34623 0.0
H1478 H 0.79755 0.21878 0.33144 0.0
C1479 C 0.79322 0.21483 0.15169 0.0
C1480 C 0.7773 0.2092 0.22948 0.0
C1481 C 0.80075 0.21821 0.11585 0.0
C1482 C 0.76204 0.18411 0.39399 0.0
C1483 C 0.76526 0.19213 0.35936 0.0
C1484 C 0.79174 0.21608 0.30334 0.0
C1485 C 0.79496 0.22316 0.18418 0.0
C1486 C 0.78912 0.21874 0.22691 0.0
C1487 C 0.77688 0.19759 0.34232 0.0
C1488 C 0.78038 0.20581 0.30472 0.0
H1489 H 0.81836 0.24781 0.13871 0.0
H1490 H 0.80519 0.24184 0.20232 0.0
H1491 H 0.80523 0.22975 0.26401 0.0
H1492 H 0.78856 0.18476 0.40732 0.0
H1493 H 0.79408 0.19856 0.34693 0.0
C1494 C 0.92431 0.4751 0.77545 0.0
C1495 C 0.91828 0.48069 0.75825 0.0
C1496 C 0.91943 0.46708 0.8098 0.0
C1497 C 0.89935 0.45949 0.90231 0.0
H1498 H 0.90467 0.43256 0.9081 0.0
C1499 C 0.91191 0.44481 0.05582 0.0
C1500 C 0.90966 0.43308 0.06084 0.0
C1501 C 0.90766 0.44797 0.01971 0.0
C1502 C 0.90278 0.43981 0.90682 0.0
H1503 H 0.90233 0.48218 0.76395 0.0
H1504 H 0.89386 0.46817 0.82438 0.0
H1505 H 0.90784 0.44323 0.84004 0.0
H1506 H 0.90028 0.41518 0.03435 0.0
H1507 H 0.89287 0.42076 0.97034 0.0
H1508 H 0.8947 0.45632 0.96958 0.0
C1509 C 0.90237 0.47004 0.81105 0.0
C1510 C 0.90478 0.44605 0.86792 0.0
C1511 C 0.90725 0.47807 0.77647 0.0
C1512 C 0.90218 0.4243 0.03104 0.0
C1513 C 0.89799 0.42751 0.99441 0.0
C1514 C 0.89731 0.45322 0.94124 0.0
C1515 C 0.9084 0.46441 0.82791 0.0
C1516 C 0.90369 0.45632 0.86589 0.0
C1517 C 0.90113 0.4395 0.98753 0.0
C1518 C 0.89962 0.44371 0.94447 0.0
H1519 H 0.93282 0.4769 0.76237 0.0
H1520 H 0.92444 0.46312 0.82273 0.0
H1521 H 0.89837 0.46732 0.90172 0.0
H1522 H 0.91754 0.45172 0.07869 0.0
H1523 H 0.91034 0.4573 0.01543 0.0
C1524 C 0.549 0.46918 0.05071 0.0
C1525 C 0.56108 0.47759 0.0577 0.0
C1526 C 0.54552 0.46171 0.0147 0.0
C1527 C 0.55479 0.46299 0.90361 0.0
H1528 H 0.52585 0.43209 0.899 0.0
C1529 C 0.52182 0.44944 0.7635 0.0
C1530 C 0.51572 0.43756 0.74895 0.0
C1531 C 0.52933 0.45268 0.7995 0.0
C1532 C 0.53408 0.4406 0.89955 0.0
H1533 H 0.57911 0.48416 0.03436 0.0
H1534 H 0.57297 0.4711 0.97051 0.0
H1535 H 0.53598 0.43971 0.96822 0.0
H1536 H 0.51285 0.41975 0.76088 0.0
H1537 H 0.52595 0.42546 0.82409 0.0
H1538 H 0.55266 0.46407 0.83523 0.0
C1539 C 0.56621 0.47036 0.99304 0.0
C1540 C 0.53983 0.445 0.93924 0.0
C1541 C 0.56972 0.4778 0.02957 0.0
C1542 C 0.51737 0.42899 0.77127 0.0
C1543 C 0.52488 0.43224 0.80748 0.0
C1544 C 0.54904 0.45859 0.86395 0.0
C1545 C 0.55403 0.46251 0.98458 0.0
C1546 C 0.54992 0.45648 0.94198 0.0
C1547 C 0.53094 0.44413 0.82194 0.0
C1548 C 0.53832 0.44761 0.86187 0.0
H1549 H 0.54214 0.4687 0.07222 0.0
H1550 H 0.53606 0.45587 0.00902 0.0
H1551 H 0.56251 0.47188 0.90457 0.0
H1552 H 0.52078 0.45628 0.74718 0.0
H1553 H 0.53367 0.46187 0.81039 0.0
C1554 C 0.54721 0.07665 0.75699 0.0
C1555 C 0.5593 0.08069 0.74827 0.0
C1556 C 0.54396 0.0818 0.79006 0.0
C1557 C 0.55327 0.096 0.89426 0.0
H1558 H 0.5263 0.10089 0.87743 0.0
C1559 C 0.52589 0.09651 0.0393 0.0
C1560 C 0.51411 0.08714 0.03421 0.0
C1561 C 0.53344 0.10097 0.00317 0.0
C1562 C 0.53396 0.09977 0.88259 0.0
H1563 H 0.57748 0.09329 0.76775 0.0
H1564 H 0.5717 0.10209 0.82679 0.0
H1565 H 0.53629 0.09835 0.81454 0.0
H1566 H 0.50061 0.07568 0.98817 0.0
H1567 H 0.51356 0.0836 0.92518 0.0
H1568 H 0.55038 0.09651 0.96239 0.0
C1569 C 0.5648 0.09503 0.80735 0.0
C1570 C 0.53965 0.09828 0.84667 0.0
C1571 C 0.56809 0.08999 0.77366 0.0
C1572 C 0.50966 0.08297 0.99259 0.0
C1573 C 0.51708 0.08756 0.95658 0.0
C1574 C 0.54755 0.09745 0.93028 0.0
C1575 C 0.5527 0.09103 0.81557 0.0
C1576 C 0.54892 0.09574 0.8523 0.0
C1577 C 0.52918 0.09625 0.96163 0.0
C1578 C 0.53742 0.09868 0.92475 0.0
H1579 H 0.54022 0.06956 0.73798 0.0
H1580 H 0.53456 0.07836 0.79628 0.0
H1581 H 0.56041 0.09406 0.89948 0.0
H1582 H 0.52949 0.09973 0.07138 0.0
H1583 H 0.54273 0.10766 0.00792 0.0
C1584 C 0.51604 0.08243 0.27383 0.0
C1585 C 0.51817 0.07744 0.23689 0.0
C1586 C 0.5241 0.08636 0.30847 0.0
C1587 C 0.54879 0.08277 0.35392 0.0
H1588 H 0.55103 0.10679 0.43467 0.0
C1589 C 0.57492 0.09147 0.51139 0.0
C1590 C 0.56679 0.08785 0.54594 0.0
C1591 C 0.57191 0.0943 0.47124 0.0
C1592 C 0.55063 0.10021 0.41195 0.0
H1593 H 0.53063 0.07321 0.20596 0.0
H1594 H 0.545 0.08063 0.26509 0.0
H1595 H 0.53998 0.10343 0.36692 0.0
H1596 H 0.54982 0.08547 0.56765 0.0
H1597 H 0.54475 0.09081 0.49811 0.0
H1598 H 0.55941 0.07957 0.39916 0.0
C1599 C 0.53689 0.08104 0.26857 0.0
C1600 C 0.54417 0.09814 0.37342 0.0
C1601 C 0.52867 0.07681 0.23451 0.0
C1602 C 0.55622 0.08827 0.54132 0.0
C1603 C 0.55335 0.09137 0.50164 0.0
C1604 C 0.55545 0.08503 0.39187 0.0
C1605 C 0.53463 0.08568 0.30644 0.0
C1606 C 0.54282 0.0891 0.34453 0.0
C1607 C 0.56088 0.0938 0.46569 0.0
C1608 C 0.55613 0.09351 0.42182 0.0
H1609 H 0.50799 0.08299 0.27644 0.0
H1610 H 0.52186 0.08963 0.33724 0.0
H1611 H 0.54784 0.07559 0.33323 0.0
H1612 H 0.58307 0.09109 0.51426 0.0
H1613 H 0.57784 0.09615 0.44388 0.0
C1614 C 0.91104 0.42679 0.28869 0.0
C1615 C 0.91869 0.43589 0.26008 0.0
C1616 C 0.90645 0.42951 0.32531 0.0
C1617 C 0.8997 0.4516 0.37039 0.0
H1618 H 0.90974 0.44557 0.48137 0.0
C1619 C 0.90993 0.48234 0.51566 0.0
C1620 C 0.91004 0.47816 0.55739 0.0
C1621 C 0.90638 0.47454 0.48037 0.0
C1622 C 0.90648 0.44705 0.45099 0.0
H1623 H 0.92725 0.45487 0.24655 0.0
H1624 H 0.91907 0.45954 0.30994 0.0
H1625 H 0.91225 0.4365 0.41623 0.0
H1626 H 0.90576 0.46262 0.5963 0.0
H1627 H 0.89894 0.44878 0.535 0.0
H1628 H 0.89412 0.46232 0.40473 0.0
C1629 C 0.91669 0.45035 0.30418 0.0
C1630 C 0.908 0.44187 0.41361 0.0
C1631 C 0.92147 0.44769 0.26824 0.0
C1632 C 0.90567 0.46596 0.56414 0.0
C1633 C 0.90191 0.4581 0.52898 0.0
C1634 C 0.89798 0.45661 0.40786 0.0
C1635 C 0.9092 0.44131 0.33313 0.0
C1636 C 0.90511 0.44453 0.37288 0.0
C1637 C 0.90281 0.4624 0.48639 0.0
C1638 C 0.90187 0.45487 0.44841 0.0
H1639 H 0.90875 0.41762 0.28312 0.0
H1640 H 0.90076 0.42243 0.34747 0.0
H1641 H 0.89728 0.45364 0.33922 0.0
H1642 H 0.91345 0.49179 0.50993 0.0
H1643 H 0.90736 0.47827 0.44819 0.0
C1644 C 0.52976 0.43459 0.55315 0.0
C1645 C 0.51741 0.42874 0.54589 0.0
C1646 C 0.53766 0.43854 0.51802 0.0
C1647 C 0.53884 0.43866 0.39641 0.0
H1648 H 0.5615 0.47235 0.41255 0.0
C1649 C 0.54889 0.47406 0.26833 0.0
C1650 C 0.56082 0.48249 0.25883 0.0
C1651 C 0.54616 0.46603 0.3024 0.0
C1652 C 0.55543 0.4629 0.40768 0.0
H1653 H 0.50349 0.42177 0.49743 0.0
H1654 H 0.51713 0.42869 0.43611 0.0
H1655 H 0.55208 0.45974 0.47556 0.0
H1656 H 0.57924 0.48922 0.27785 0.0
H1657 H 0.57435 0.47537 0.3391 0.0
H1658 H 0.54148 0.44217 0.32817 0.0
C1659 C 0.52087 0.43007 0.46843 0.0
C1660 C 0.55005 0.45562 0.44378 0.0
C1661 C 0.51301 0.42611 0.50349 0.0
C1662 C 0.56997 0.48281 0.28447 0.0
C1663 C 0.5672 0.4749 0.31932 0.0
C1664 C 0.54409 0.44597 0.36036 0.0
C1665 C 0.53329 0.43681 0.47524 0.0
C1666 C 0.54126 0.44354 0.43844 0.0
C1667 C 0.55527 0.46637 0.3282 0.0
C1668 C 0.55202 0.45824 0.36572 0.0
H1669 H 0.53328 0.4368 0.58583 0.0
H1670 H 0.54716 0.44356 0.52439 0.0
H1671 H 0.53234 0.42934 0.3912 0.0
H1672 H 0.54165 0.47352 0.24897 0.0
H1673 H 0.53688 0.45965 0.30912 0.0
C1674 C 0.41863 0.23931 0.65869 0.0
C1675 C 0.41495 0.23122 0.624 0.0
C1676 C 0.42134 0.23618 0.69884 0.0
C1677 C 0.42754 0.21522 0.75782 0.0
H1678 H 0.40259 0.21159 0.8366 0.0
C1679 C 0.41109 0.18085 0.89647 0.0
C1680 C 0.40593 0.18273 0.93344 0.0
C1681 C 0.41465 0.18883 0.86165 0.0
C1682 C 0.40986 0.21278 0.8159 0.0
H1683 H 0.41228 0.21415 0.60216 0.0
H1684 H 0.41746 0.20889 0.67175 0.0
H1685 H 0.40622 0.22308 0.77061 0.0
H1686 H 0.40094 0.19465 0.96417 0.0
H1687 H 0.40772 0.20892 0.90471 0.0
H1688 H 0.43127 0.20495 0.80292 0.0
C1689 C 0.41813 0.21754 0.66827 0.0
C1690 C 0.41191 0.21938 0.77791 0.0
C1691 C 0.41513 0.22051 0.62859 0.0
C1692 C 0.4047 0.19289 0.93561 0.0
C1693 C 0.40856 0.20105 0.90135 0.0
C1694 C 0.4257 0.20883 0.79641 0.0
C1695 C 0.4207 0.22509 0.70423 0.0
C1696 C 0.42051 0.22036 0.74799 0.0
C1697 C 0.41342 0.19905 0.86351 0.0
C1698 C 0.41655 0.20718 0.82533 0.0
H1699 H 0.41844 0.24756 0.65583 0.0
H1700 H 0.42327 0.24211 0.72626 0.0
H1701 H 0.43423 0.21586 0.73508 0.0
H1702 H 0.4121 0.17305 0.89401 0.0
H1703 H 0.41808 0.18677 0.83291 0.0
C1704 C 0.77946 0.19583 0.61601 0.0
C1705 C 0.76761 0.18657 0.61142 0.0
C1706 C 0.78289 0.20341 0.6517 0.0
C1707 C 0.77512 0.201 0.76465 0.0
H1708 H 0.8028 0.23286 0.76715 0.0
C1709 C 0.81071 0.2154 0.89505 0.0
C1710 C 0.81608 0.227 0.91225 0.0
C1711 C 0.80275 0.21213 0.86046 0.0
C1712 C 0.79493 0.22406 0.76723 0.0
H1713 H 0.74979 0.17857 0.63839 0.0
H1714 H 0.75583 0.19182 0.70179 0.0
H1715 H 0.7916 0.22513 0.69978 0.0
H1716 H 0.81735 0.24433 0.90601 0.0
H1717 H 0.80348 0.23858 0.84495 0.0
H1718 H 0.77871 0.19975 0.83158 0.0
C1719 C 0.76247 0.19316 0.67762 0.0
C1720 C 0.78855 0.21961 0.72862 0.0
C1721 C 0.759 0.18562 0.64138 0.0
C1722 C 0.81339 0.23531 0.89353 0.0
C1723 C 0.80544 0.23204 0.85863 0.0
C1724 C 0.78148 0.20545 0.80319 0.0
C1725 C 0.77454 0.20184 0.6839 0.0
C1726 C 0.77895 0.20781 0.72643 0.0
C1727 C 0.79996 0.22037 0.84204 0.0
C1728 C 0.79179 0.21678 0.80427 0.0
H1729 H 0.78625 0.19686 0.59299 0.0
H1730 H 0.79227 0.20989 0.6556 0.0
H1731 H 0.7678 0.19187 0.76412 0.0
H1732 H 0.81256 0.20876 0.90852 0.0
H1733 H 0.79889 0.20314 0.8477 0.0
C1734 C 0.78443 0.58909 0.93523 0.0
C1735 C 0.77305 0.58786 0.9326 0.0
C1736 C 0.7887 0.585 0.90163 0.0
C1737 C 0.77938 0.56745 0.79746 0.0
H1738 H 0.81303 0.58724 0.77092 0.0
C1739 C 0.80138 0.57838 0.62938 0.0
C1740 C 0.81236 0.57879 0.62448 0.0
C1741 C 0.79544 0.5752 0.66911 0.0
C1742 C 0.80367 0.58146 0.77845 0.0
H1743 H 0.75715 0.58138 0.89317 0.0
H1744 H 0.76482 0.57498 0.83323 0.0
H1745 H 0.80517 0.59083 0.83697 0.0
H1746 H 0.82544 0.57552 0.65571 0.0
H1747 H 0.81521 0.57037 0.72623 0.0
H1748 H 0.77789 0.55889 0.73622 0.0
C1749 C 0.77034 0.57859 0.86183 0.0
C1750 C 0.79912 0.58348 0.81648 0.0
C1751 C 0.76595 0.58239 0.896 0.0
C1752 C 0.81691 0.57514 0.65882 0.0
C1753 C 0.81111 0.57225 0.69901 0.0
C1754 C 0.78392 0.56563 0.75882 0.0
C1755 C 0.78181 0.5799 0.864 0.0
C1756 C 0.78685 0.5767 0.82612 0.0
C1757 C 0.80055 0.57268 0.70478 0.0
C1758 C 0.79606 0.57278 0.7487 0.0
H1759 H 0.79 0.59311 0.96351 0.0
H1760 H 0.79744 0.5859 0.90522 0.0
H1761 H 0.76996 0.56181 0.80415 0.0
H1762 H 0.79777 0.58122 0.60324 0.0
H1763 H 0.78738 0.57571 0.6729 0.0
C1764 C 0.44268 0.91322 0.44868 0.0
C1765 C 0.43184 0.91308 0.44342 0.0
C1766 C 0.44551 0.91006 0.48832 0.0
C1767 C 0.44276 0.91517 0.59829 0.0
H1768 H 0.45744 0.89598 0.6221 0.0
C1769 C 0.46882 0.92192 0.75658 0.0
C1770 C 0.47918 0.92103 0.75412 0.0
C1771 C 0.46067 0.91797 0.72231 0.0
C1772 C 0.45348 0.90149 0.61596 0.0
H1773 H 0.41514 0.90893 0.47402 0.0
H1774 H 0.42033 0.90384 0.54447 0.0
H1775 H 0.44692 0.89344 0.55362 0.0
H1776 H 0.48916 0.9153 0.71427 0.0
H1777 H 0.47544 0.90917 0.65322 0.0
H1778 H 0.45012 0.92405 0.65805 0.0
C1779 C 0.42648 0.90613 0.51755 0.0
C1780 C 0.44732 0.89988 0.57698 0.0
C1781 C 0.42351 0.90899 0.4774 0.0
C1782 C 0.4812 0.91604 0.71698 0.0
C1783 C 0.47323 0.9124 0.68216 0.0
C1784 C 0.44915 0.91698 0.6367 0.0
C1785 C 0.43766 0.90701 0.5236 0.0
C1786 C 0.44211 0.90688 0.56757 0.0
C1787 C 0.46286 0.91337 0.68417 0.0
C1788 C 0.45485 0.91037 0.6457 0.0
H1789 H 0.44922 0.91637 0.4228 0.0
H1790 H 0.45423 0.91092 0.49236 0.0
H1791 H 0.439 0.92082 0.59134 0.0
H1792 H 0.46696 0.92556 0.78525 0.0
H1793 H 0.45267 0.9186 0.72577 0.0
C1794 C 0.0883 0.56809 0.71667 0.0
C1795 C 0.07738 0.55998 0.73637 0.0
C1796 C 0.09265 0.56458 0.68145 0.0
C1797 C 0.08883 0.53767 0.62395 0.0
H1798 H 0.09928 0.55819 0.5227 0.0
C1799 C 0.09172 0.51896 0.45957 0.0
C1800 C 0.08454 0.52055 0.42922 0.0
C1801 C 0.09562 0.52606 0.49698 0.0
C1802 C 0.09654 0.55242 0.55089 0.0
H1803 H 0.06248 0.54181 0.73426 0.0
H1804 H 0.06992 0.5358 0.67258 0.0
H1805 H 0.09601 0.56565 0.59093 0.0
H1806 H 0.07686 0.5315 0.41151 0.0
H1807 H 0.08359 0.54378 0.47611 0.0
H1808 H 0.08847 0.52415 0.58319 0.0
C1809 C 0.07527 0.5448 0.6849 0.0
C1810 C 0.09473 0.55672 0.59006 0.0
C1811 C 0.07093 0.54829 0.72002 0.0
C1812 C 0.08226 0.53 0.43474 0.0
C1813 C 0.08624 0.53713 0.47163 0.0
C1814 C 0.0906 0.53337 0.58478 0.0
C1815 C 0.08618 0.55288 0.66524 0.0
C1816 C 0.09033 0.5492 0.62646 0.0
C1817 C 0.09252 0.53492 0.50409 0.0
C1818 C 0.09394 0.54052 0.54733 0.0
H1819 H 0.09355 0.57715 0.72853 0.0
H1820 H 0.10109 0.57101 0.66708 0.0
H1821 H 0.08571 0.53176 0.65175 0.0
H1822 H 0.09362 0.51175 0.45592 0.0
H1823 H 0.10054 0.52423 0.52129 0.0
C1824 C 0.42775 0.51671 0.71361 0.0
C1825 C 0.43607 0.51415 0.73298 0.0
C1826 C 0.43112 0.52474 0.67892 0.0
C1827 C 0.45771 0.54901 0.62459 0.0
H1828 H 0.43888 0.53793 0.51931 0.0
C1829 C 0.46898 0.55058 0.43906 0.0
C1830 C 0.47782 0.56258 0.4339 0.0
C1831 C 0.46115 0.54704 0.47406 0.0
C1832 C 0.44414 0.54125 0.54865 0.0
H1833 H 0.45448 0.5181 0.73115 0.0
H1834 H 0.46027 0.53195 0.67081 0.0
H1835 H 0.43086 0.52697 0.58695 0.0
H1836 H 0.48485 0.58049 0.45915 0.0
H1837 H 0.4712 0.57425 0.52145 0.0
H1838 H 0.47135 0.56275 0.58585 0.0
C1839 C 0.45119 0.52789 0.68274 0.0
C1840 C 0.43953 0.53501 0.58741 0.0
C1841 C 0.44782 0.51982 0.71704 0.0
C1842 C 0.47813 0.57116 0.46259 0.0
C1843 C 0.47036 0.56759 0.49819 0.0
C1844 C 0.46231 0.55525 0.58591 0.0
C1845 C 0.4429 0.53045 0.66332 0.0
C1846 C 0.44652 0.5385 0.62522 0.0
C1847 C 0.46207 0.55543 0.50502 0.0
C1848 C 0.45582 0.55108 0.54711 0.0
H1849 H 0.41863 0.5125 0.72512 0.0
H1850 H 0.42454 0.52653 0.66444 0.0
H1851 H 0.46319 0.55202 0.65351 0.0
H1852 H 0.46845 0.5438 0.41704 0.0
H1853 H 0.45498 0.5376 0.4785 0.0
C1854 C 0.57905 0.81537 0.09911 0.0
C1855 C 0.58883 0.81657 0.07495 0.0
C1856 C 0.5743 0.8071 0.13316 0.0
C1857 C 0.57222 0.7793 0.17153 0.0
H1858 H 0.57258 0.7904 0.28863 0.0
C1859 C 0.58587 0.76274 0.31737 0.0
C1860 C 0.58067 0.76182 0.35804 0.0
C1861 C 0.58209 0.76647 0.28143 0.0
C1862 C 0.57206 0.78703 0.25605 0.0
H1863 H 0.60124 0.80999 0.06763 0.0
H1864 H 0.5929 0.7956 0.12627 0.0
H1865 H 0.57526 0.80346 0.22706 0.0
H1866 H 0.56721 0.76362 0.39342 0.0
H1867 H 0.56071 0.77054 0.33016 0.0
H1868 H 0.56976 0.76318 0.20039 0.0
C1869 C 0.58889 0.80101 0.11891 0.0
C1870 C 0.57363 0.79452 0.22087 0.0
C1871 C 0.59375 0.80937 0.0856 0.0
C1872 C 0.57121 0.76414 0.36203 0.0
C1873 C 0.56756 0.76815 0.32607 0.0
C1874 C 0.57061 0.77182 0.20655 0.0
C1875 C 0.57909 0.79973 0.14281 0.0
C1876 C 0.57435 0.79093 0.17854 0.0
C1877 C 0.57318 0.76961 0.28566 0.0
C1878 C 0.57116 0.77586 0.24922 0.0
H1879 H 0.57508 0.82082 0.09172 0.0
H1880 H 0.56679 0.80632 0.15144 0.0
H1881 H 0.57254 0.77627 0.13906 0.0
H1882 H 0.59326 0.76108 0.31381 0.0
H1883 H 0.58672 0.76768 0.25094 0.0
C1884 C 0.23598 0.80887 0.35574 0.0
C1885 C 0.23709 0.82023 0.35458 0.0
C1886 C 0.23271 0.80182 0.31818 0.0
C1887 C 0.22859 0.80248 0.19906 0.0
H1888 H 0.19837 0.77343 0.21799 0.0
C1889 C 0.19045 0.78581 0.07857 0.0
C1890 C 0.1835 0.77357 0.06931 0.0
C1891 C 0.19917 0.78984 0.11078 0.0
C1892 C 0.20693 0.78135 0.21209 0.0
H1893 H 0.23663 0.83356 0.31355 0.0
H1894 H 0.23129 0.8215 0.24804 0.0
H1895 H 0.21124 0.78383 0.27977 0.0
H1896 H 0.1802 0.75593 0.08712 0.0
H1897 H 0.19537 0.76306 0.14444 0.0
H1898 H 0.22393 0.80042 0.13176 0.0
C1899 C 0.23286 0.81793 0.27751 0.0
C1900 C 0.21433 0.78728 0.24744 0.0
C1901 C 0.23587 0.82483 0.315 0.0
C1902 C 0.18541 0.76543 0.09342 0.0
C1903 C 0.19408 0.76948 0.12617 0.0
C1904 C 0.22121 0.79657 0.16383 0.0
C1905 C 0.23078 0.80618 0.27901 0.0
C1906 C 0.22493 0.79822 0.24143 0.0
C1907 C 0.20111 0.78175 0.13485 0.0
C1908 C 0.21004 0.78628 0.17029 0.0
H1909 H 0.23677 0.80513 0.38617 0.0
H1910 H 0.23116 0.79279 0.32017 0.0
H1911 H 0.23681 0.8108 0.19347 0.0
H1912 H 0.18926 0.79234 0.06065 0.0
H1913 H 0.20427 0.79933 0.11737 0.0
C1914 C 0.21483 0.40661 0.09163 0.0
C1915 C 0.22688 0.41049 0.08283 0.0
C1916 C 0.21171 0.41163 0.12557 0.0
C1917 C 0.22057 0.42429 0.23132 0.0
H1918 H 0.19623 0.43305 0.21418 0.0
C1919 C 0.19466 0.42696 0.3766 0.0
C1920 C 0.18232 0.41977 0.37024 0.0
C1921 C 0.2024 0.43077 0.34098 0.0
C1922 C 0.20309 0.43072 0.21954 0.0
H1923 H 0.24512 0.42259 0.10296 0.0
H1924 H 0.23955 0.43108 0.16381 0.0
H1925 H 0.20568 0.4297 0.15138 0.0
H1926 H 0.16823 0.4114 0.32274 0.0
H1927 H 0.18159 0.41799 0.26059 0.0
H1928 H 0.21735 0.42433 0.29926 0.0
C1929 C 0.2326 0.4243 0.14366 0.0
C1930 C 0.20851 0.42884 0.18363 0.0
C1931 C 0.23576 0.41944 0.109 0.0
C1932 C 0.17773 0.41712 0.32808 0.0
C1933 C 0.18542 0.42094 0.29255 0.0
C1934 C 0.21505 0.42604 0.2673 0.0
C1935 C 0.22054 0.42049 0.15191 0.0
C1936 C 0.21692 0.42511 0.18925 0.0
C1937 C 0.19788 0.42737 0.29863 0.0
C1938 C 0.20585 0.42873 0.26172 0.0
H1939 H 0.20779 0.3998 0.07189 0.0
H1940 H 0.20234 0.4084 0.13175 0.0
H1941 H 0.22702 0.42139 0.23643 0.0
H1942 H 0.19834 0.42892 0.4091 0.0
H1943 H 0.21194 0.4358 0.3467 0.0
C1944 C 0.23749 0.42403 0.85244 0.0
C1945 C 0.22889 0.41601 0.88168 0.0
C1946 C 0.23394 0.42784 0.81566 0.0
C1947 C 0.20764 0.42737 0.76331 0.0
H1948 H 0.21927 0.41982 0.65904 0.0
C1949 C 0.18427 0.4206 0.59691 0.0
C1950 C 0.18219 0.41017 0.57506 0.0
C1951 C 0.19198 0.42484 0.63259 0.0
C1952 C 0.21598 0.42204 0.68783 0.0
H1953 H 0.21005 0.40658 0.89784 0.0
H1954 H 0.20389 0.41314 0.83433 0.0
H1955 H 0.22947 0.42199 0.72768 0.0
H1956 H 0.18669 0.3961 0.57364 0.0
H1957 H 0.19992 0.40337 0.63589 0.0
H1958 H 0.19362 0.42655 0.72395 0.0
C1959 C 0.21334 0.41653 0.83927 0.0
C1960 C 0.22193 0.42346 0.72707 0.0
C1961 C 0.21686 0.41264 0.87549 0.0
C1962 C 0.18806 0.40415 0.58957 0.0
C1963 C 0.19577 0.4084 0.62504 0.0
C1964 C 0.20167 0.42594 0.72405 0.0
C1965 C 0.22177 0.42382 0.8081 0.0
C1966 C 0.2175 0.42559 0.76559 0.0
C1967 C 0.19782 0.41878 0.64698 0.0
C1968 C 0.20547 0.42271 0.68631 0.0
H1969 H 0.24684 0.42679 0.85661 0.0
H1970 H 0.24063 0.43353 0.79231 0.0
H1971 H 0.20412 0.42919 0.7924 0.0
H1972 H 0.17993 0.42549 0.58655 0.0
H1973 H 0.1934 0.43287 0.64881 0.0
C1974 C 0.57413 0.81357 0.84356 0.0
C1975 C 0.58168 0.81239 0.8734 0.0
C1976 C 0.57038 0.80648 0.80611 0.0
C1977 C 0.56998 0.78047 0.75222 0.0
H1978 H 0.57982 0.80072 0.65022 0.0
C1979 C 0.57665 0.76399 0.5861 0.0
C1980 C 0.58752 0.77187 0.56559 0.0
C1981 C 0.57257 0.76778 0.62127 0.0
C1982 C 0.57696 0.79492 0.67835 0.0
H1983 H 0.59027 0.80221 0.89003 0.0
H1984 H 0.58375 0.78989 0.82537 0.0
H1985 H 0.57747 0.80853 0.71916 0.0
H1986 H 0.60251 0.79 0.56574 0.0
H1987 H 0.59549 0.79653 0.62734 0.0
H1988 H 0.57028 0.76714 0.71209 0.0
C1989 C 0.58071 0.79624 0.83033 0.0
C1990 C 0.57545 0.79934 0.71772 0.0
C1991 C 0.58456 0.80338 0.86722 0.0
C1992 C 0.59411 0.78368 0.58071 0.0
C1993 C 0.59002 0.78747 0.61578 0.0
C1994 C 0.57149 0.77605 0.71285 0.0
C1995 C 0.57399 0.79802 0.79852 0.0
C1996 C 0.57244 0.79233 0.75546 0.0
C1997 C 0.57925 0.77954 0.63661 0.0
C1998 C 0.57549 0.78341 0.67595 0.0
H1999 H 0.57177 0.82045 0.84771 0.0
H2000 H 0.56513 0.80798 0.78222 0.0
H2001 H 0.56753 0.77482 0.78072 0.0
H2002 H 0.57129 0.75484 0.57525 0.0
H2003 H 0.56421 0.76149 0.63653 0.0
C2004 C 0.19299 0.77573 0.86215 0.0
C2005 C 0.18233 0.76487 0.86774 0.0
C2006 C 0.1992 0.77828 0.82303 0.0
C2007 C 0.19201 0.77464 0.71252 0.0
H2008 H 0.22606 0.78952 0.6921 0.0
C2009 C 0.21211 0.80092 0.55555 0.0
C2010 C 0.2232 0.81141 0.55914 0.0
C2011 C 0.20786 0.79258 0.58925 0.0
C2012 C 0.21654 0.78549 0.69725 0.0
H2013 H 0.17005 0.74787 0.83835 0.0
H2014 H 0.18071 0.75257 0.76866 0.0
H2015 H 0.21768 0.77926 0.76069 0.0
H2016 H 0.23865 0.82143 0.60016 0.0
H2017 H 0.23095 0.8074 0.66025 0.0
H2018 H 0.19081 0.78172 0.65167 0.0
C2019 C 0.18438 0.75895 0.795 0.0
C2020 C 0.21176 0.77948 0.73631 0.0
C2021 C 0.17832 0.75627 0.8347 0.0
C2022 C 0.23008 0.81336 0.59662 0.0
C2023 C 0.22568 0.80521 0.6309 0.0
C2024 C 0.19681 0.78089 0.67402 0.0
C2025 C 0.19467 0.77012 0.78853 0.0
C2026 C 0.19949 0.77424 0.74456 0.0
C2027 C 0.21443 0.79475 0.62796 0.0
C2028 C 0.20919 0.78669 0.66624 0.0
H2029 H 0.19621 0.78248 0.88732 0.0
H2030 H 0.20704 0.787 0.81863 0.0
H2031 H 0.18254 0.77085 0.71852 0.0
H2032 H 0.20673 0.79913 0.52657 0.0
H2033 H 0.19933 0.78451 0.58502 0.0
C2034 C 0.0867 0.57185 0.98036 0.0
C2035 C 0.08795 0.56876 0.93801 0.0
C2036 C 0.09054 0.56781 0.01538 0.0
C2037 C 0.09303 0.54162 0.04117 0.0
H2038 H 0.09957 0.55597 0.15558 0.0
C2039 C 0.0861 0.51502 0.2013 0.0
C2040 C 0.07785 0.51599 0.22826 0.0
C2041 C 0.09121 0.52272 0.16591 0.0
C2042 C 0.09791 0.55191 0.12372 0.0
H2043 H 0.09476 0.55978 0.89802 0.0
H2044 H 0.10182 0.5529 0.95929 0.0
H2045 H 0.10307 0.56845 0.09164 0.0
H2046 H 0.06875 0.52597 0.24001 0.0
H2047 H 0.07778 0.53947 0.1789 0.0
H2048 H 0.08748 0.52501 0.07364 0.0
C2049 C 0.09777 0.55832 0.9657 0.0
C2050 C 0.09986 0.55902 0.08715 0.0
C2051 C 0.09386 0.56234 0.93066 0.0
C2052 C 0.07498 0.52492 0.21964 0.0
C2053 C 0.08025 0.53274 0.18499 0.0
C2054 C 0.09124 0.53454 0.07776 0.0
C2055 C 0.09565 0.56055 0.00855 0.0
C2056 C 0.09684 0.55385 0.04562 0.0
C2057 C 0.08838 0.5317 0.15774 0.0
C2058 C 0.0931 0.53954 0.11937 0.0
H2059 H 0.08196 0.57664 0.98652 0.0
H2060 H 0.08858 0.56958 0.04778 0.0
H2061 H 0.0905 0.53728 0.00983 0.0
H2062 H 0.08848 0.50821 0.20725 0.0
H2063 H 0.09739 0.52172 0.14506 0.0
C2064 C 0.42556 0.51628 0.96671 0.0
C2065 C 0.43374 0.51751 0.93438 0.0
C2066 C 0.42954 0.52352 0.00377 0.0
C2067 C 0.45595 0.55 0.05244 0.0
H2068 H 0.44778 0.53008 0.15501 0.0
C2069 C 0.48109 0.56693 0.21618 0.0
C2070 C 0.48441 0.55915 0.23547 0.0
C2071 C 0.47314 0.56314 0.18118 0.0
C2072 C 0.4501 0.53578 0.12671 0.0
H2073 H 0.45212 0.5279 0.91301 0.0
H2074 H 0.459 0.54049 0.97694 0.0
H2075 H 0.43637 0.52192 0.08854 0.0
H2076 H 0.48206 0.54132 0.23258 0.0
H2077 H 0.46836 0.53482 0.17148 0.0
H2078 H 0.47018 0.5636 0.08996 0.0
C2079 C 0.44958 0.534 0.97426 0.0
C2080 C 0.44345 0.53117 0.0888 0.0
C2081 C 0.44566 0.5267 0.93777 0.0
C2082 C 0.4797 0.54756 0.21865 0.0
C2083 C 0.47173 0.54377 0.18389 0.0
C2084 C 0.46259 0.55462 0.09042 0.0
C2085 C 0.44168 0.53219 0.00847 0.0
C2086 C 0.44662 0.53806 0.05075 0.0
C2087 C 0.4683 0.55148 0.16497 0.0
C2088 C 0.46004 0.54738 0.12737 0.0
H2089 H 0.41632 0.50925 0.9647 0.0
H2090 H 0.42324 0.522 0.02956 0.0
H2091 H 0.45851 0.55556 0.0237 0.0
H2092 H 0.48453 0.57592 0.22832 0.0
H2093 H 0.47066 0.56928 0.16721 0.0
C2094 C 0.47305 0.90259 0.95191 0.0
C2095 C 0.48466 0.91231 0.95678 0.0
C2096 C 0.4654 0.8982 0.98783 0.0
C2097 C 0.46446 0.89986 0.10793 0.0
H2098 H 0.43737 0.90446 0.08915 0.0
C2099 C 0.45009 0.92248 0.23105 0.0
C2100 C 0.43795 0.91817 0.23975 0.0
C2101 C 0.45354 0.91739 0.19845 0.0
C2102 C 0.44468 0.90281 0.09489 0.0
H2103 H 0.49776 0.92453 0.00247 0.0
H2104 H 0.48466 0.91671 0.0652 0.0
H2105 H 0.44785 0.90232 0.02694 0.0
H2106 H 0.41988 0.90513 0.22077 0.0
H2107 H 0.426 0.8964 0.16239 0.0
H2108 H 0.46184 0.90124 0.17575 0.0
C2109 C 0.48135 0.91244 0.03405 0.0
C2110 C 0.45067 0.90155 0.05929 0.0
C2111 C 0.48885 0.91696 -0.00181 0.0
C2112 C 0.42931 0.90864 0.21484 0.0
C2113 C 0.43279 0.90363 0.18155 0.0
C2114 C 0.4585 0.90113 0.14342 0.0
C2115 C 0.46942 0.90333 0.02904 0.0
C2116 C 0.46101 0.90074 0.06551 0.0
C2117 C 0.44495 0.90793 0.17335 0.0
C2118 C 0.44898 0.90328 0.13712 0.0
H2119 H 0.46962 0.899 0.92 0.0
H2120 H 0.45624 0.8912 0.98313 0.0
H2121 H 0.4723 0.89907 0.11361 0.0
H2122 H 0.45699 0.92977 0.24968 0.0
H2123 H 0.46298 0.92105 0.19226 0.0
C2124 C 0.2373 0.37088 -0.00448 0.0
C2125 C 0.24357 0.38103 0.02178 0.0
C2126 C 0.23324 0.3595 0.0125 0.0
C2127 C 0.22156 0.34266 0.10923 0.0
H2128 H 0.2274 0.31896 0.05541 0.0
C2129 C 0.19815 0.29442 0.17276 0.0
C2130 C 0.1946 0.28519 0.14233 0.0
C2131 C 0.20573 0.30628 0.16072 0.0
C2132 C 0.22553 0.3254 0.07055 0.0
H2133 H 0.25065 0.38733 0.08614 0.0
H2134 H 0.24307 0.36722 0.11652 0.0
H2135 H 0.23794 0.33953 0.02918 0.0
H2136 H 0.19619 0.28103 0.07554 0.0
H2137 H 0.20889 0.30177 0.05359 0.0
H2138 H 0.2086 0.3286 0.14856 0.0
C2139 C 0.24154 0.36818 0.08258 0.0
C2140 C 0.23168 0.3372 0.05577 0.0
C2141 C 0.24587 0.37962 0.06525 0.0
C2142 C 0.19886 0.288 0.09966 0.0
C2143 C 0.20623 0.29991 0.08726 0.0
C2144 C 0.21522 0.33083 0.12341 0.0
C2145 C 0.23514 0.35804 0.0563 0.0
C2146 C 0.22967 0.34589 0.07479 0.0
C2147 C 0.20971 0.30924 0.11759 0.0
C2148 C 0.21702 0.32199 0.10402 0.0
H2149 H 0.23544 0.37173 0.96185 0.0
H2150 H 0.22823 0.3518 0.99177 0.0
H2151 H 0.21974 0.34919 0.12392 0.0
H2152 H 0.19511 0.29247 0.20608 0.0
H2153 H 0.20844 0.31311 0.18537 0.0
C2154 C 0.71206 0.91078 0.09023 0.0
C2155 C 0.71371 0.908 0.13279 0.0
C2156 C 0.70053 0.90656 0.07397 0.0
C2157 C 0.66969 0.89633 0.10426 0.0
H2158 H 0.66103 0.87584 0.00325 0.0
C2159 C 0.62048 0.86556 0.05208 0.0
C2160 C 0.61813 0.8625 0.00813 0.0
C2161 C 0.63228 0.87255 0.06649 0.0
C2162 C 0.66328 0.88176 0.03083 0.0
H2163 H 0.7047 0.89903 0.19219 0.0
H2164 H 0.6846 0.89195 0.16405 0.0
H2165 H 0.68152 0.88591 0.02899 0.0
H2166 H 0.62598 0.86493 0.94428 0.0
H2167 H 0.64637 0.87769 0.96858 0.0
H2168 H 0.65155 0.89243 0.10586 0.0
C2169 C 0.6922 0.89727 0.14325 0.0
C2170 C 0.67505 0.88747 0.04566 0.0
C2171 C 0.70368 0.90124 0.15916 0.0
C2172 C 0.62761 0.86704 0.9785 0.0
C2173 C 0.63932 0.87427 0.99259 0.0
C2174 C 0.65794 0.89082 0.0889 0.0
C2175 C 0.69052 0.89977 0.1004 0.0
C2176 C 0.67831 0.89467 0.08278 0.0
C2177 C 0.64189 0.87682 0.03695 0.0
C2178 C 0.65453 0.88333 0.05224 0.0
H2179 H 0.71965 0.91598 0.06928 0.0
H2180 H 0.69942 0.90858 0.04077 0.0
H2181 H 0.67204 0.9019 0.13295 0.0
H2182 H 0.61328 0.86208 0.07551 0.0
H2183 H 0.63385 0.8742 0.10094 0.0
C2184 C 0.13265 0.76249 0.9901 0.0
C2185 C 0.13665 0.75662 0.01793 0.0
C2186 C 0.12583 0.76725 0.00611 0.0
C2187 C 0.12226 0.78123 0.10003 0.0
H2188 H 0.09219 0.77488 0.04936 0.0
C2189 C 0.09775 0.80484 0.1645 0.0
C2190 C 0.09143 0.80786 0.135 0.0
C2191 C 0.10223 0.79748 0.15192 0.0
C2192 C 0.10066 0.77691 0.06351 0.0
H2193 H 0.13658 0.75097 0.08414 0.0
H2194 H 0.12494 0.75977 0.11266 0.0
H2195 H 0.10173 0.76374 0.02437 0.0
H2196 H 0.08483 0.80564 0.06916 0.0
H2197 H 0.09325 0.79331 0.04614 0.0
H2198 H 0.12175 0.79486 0.1372 0.0
C2199 C 0.12696 0.76047 0.07831 0.0
C2200 C 0.10603 0.77042 0.04946 0.0
C2201 C 0.13357 0.75544 0.06205 0.0
C2202 C 0.08966 0.80339 0.09255 0.0
C2203 C 0.0944 0.79624 0.07957 0.0
C2204 C 0.11704 0.78789 0.11343 0.0
C2205 C 0.1231 0.76646 0.05043 0.0
C2206 C 0.11689 0.77257 0.06755 0.0
C2207 C 0.10079 0.7932 0.1091 0.0
C2208 C 0.10617 0.78586 0.0953 0.0
H2209 H 0.13487 0.76348 0.95589 0.0
H2210 H 0.12303 0.77191 0.98409 0.0
H2211 H 0.13074 0.78317 0.11392 0.0
H2212 H 0.09909 0.80802 0.19768 0.0
H2213 H 0.10678 0.79512 0.17603 0.0
C2214 C 0.29206 0.20092 0.32232 0.0
C2215 C 0.28207 0.19664 0.34965 0.0
C2216 C 0.30357 0.20775 0.33909 0.0
C2217 C 0.32039 0.21053 0.43464 0.0
H2218 H 0.34487 0.24065 0.38685 0.0
C2219 C 0.36771 0.23401 0.50561 0.0
C2220 C 0.3774 0.24018 0.47735 0.0
C2221 C 0.35607 0.2299 0.49139 0.0
C2222 C 0.3382 0.23217 0.40021 0.0
H2223 H 0.27618 0.19627 0.4157 0.0
H2224 H 0.29644 0.20794 0.44546 0.0
H2225 H 0.32443 0.23151 0.35941 0.0
H2226 H 0.3826 0.24701 0.41211 0.0
H2227 H 0.36217 0.23928 0.38623 0.0
H2228 H 0.33406 0.21063 0.4735 0.0
C2229 C 0.29529 0.20614 0.41095 0.0
C2230 C 0.32649 0.22701 0.38474 0.0
C2231 C 0.28375 0.19952 0.39395 0.0
C2232 C 0.37526 0.24229 0.43455 0.0
C2233 C 0.36354 0.23792 0.41992 0.0
C2234 C 0.33212 0.21552 0.44947 0.0
C2235 C 0.30529 0.2102 0.38367 0.0
C2236 C 0.3175 0.21615 0.40185 0.0
C2237 C 0.35377 0.23158 0.44812 0.0
C2238 C 0.34122 0.22642 0.43251 0.0
H2239 H 0.291 0.19884 0.28799 0.0
H2240 H 0.31114 0.2107 0.31752 0.0
H2241 H 0.31365 0.20203 0.44776 0.0
H2242 H 0.36913 0.23242 0.53903 0.0
H2243 H 0.34888 0.2254 0.51455 0.0
C2244 C 0.75365 0.13243 0.43702 0.0
C2245 C 0.75462 0.13581 0.4807 0.0
C2246 C 0.75853 0.1255 0.42278 0.0
C2247 C 0.78087 0.11691 0.45755 0.0
H2248 H 0.76856 0.09558 0.35875 0.0
C2249 C 0.79993 0.08703 0.40186 0.0
C2250 C 0.80381 0.08901 0.35855 0.0
C2251 C 0.79288 0.0916 0.41767 0.0
C2252 C 0.77204 0.1015 0.38648 0.0
H2253 H 0.76067 0.13405 0.5443 0.0
H2254 H 0.76848 0.12141 0.52036 0.0
H2255 H 0.75777 0.10535 0.38529 0.0
H2256 H 0.8031 0.09695 0.29746 0.0
H2257 H 0.79054 0.10466 0.32491 0.0
H2258 H 0.79498 0.1128 0.45909 0.0
C2259 C 0.76455 0.12453 0.49637 0.0
C2260 C 0.76594 0.10717 0.40152 0.0
C2261 C 0.75997 0.13168 0.51027 0.0
C2262 C 0.80028 0.09535 0.33106 0.0
C2263 C 0.79303 0.09968 0.34661 0.0
C2264 C 0.7868 0.11105 0.44307 0.0
C2265 C 0.76423 0.12161 0.45223 0.0
C2266 C 0.77033 0.11506 0.43705 0.0
C2267 C 0.78939 0.09797 0.39014 0.0
C2268 C 0.78252 0.1034 0.40716 0.0
H2269 H 0.7496 0.13558 0.41362 0.0
H2270 H 0.7582 0.12357 0.38848 0.0
H2271 H 0.78476 0.12313 0.48421 0.0
H2272 H 0.80254 0.08217 0.42369 0.0
H2273 H 0.79016 0.09017 0.4514 0.0
C2274 C 0.90876 0.71172 0.40159 0.0
C2275 C 0.90684 0.7136 0.35818 0.0
C2276 C 0.904 0.7001 0.41769 0.0
C2277 C 0.89376 0.66928 0.38727 0.0
H2278 H 0.87149 0.66051 0.4829 0.0
C2279 C 0.86212 0.61998 0.43573 0.0
C2280 C 0.85856 0.61746 0.47923 0.0
C2281 C 0.86909 0.63182 0.42185 0.0
C2282 C 0.87788 0.6628 0.45684 0.0
H2283 H 0.89884 0.70492 0.2972 0.0
H2284 H 0.89082 0.68465 0.3251 0.0
H2285 H 0.88229 0.68112 0.45829 0.0
H2286 H 0.85998 0.62518 0.54284 0.0
H2287 H 0.87262 0.64567 0.51949 0.0
H2288 H 0.88962 0.65108 0.38618 0.0
C2289 C 0.89588 0.69214 0.34668 0.0
C2290 C 0.88402 0.67462 0.44267 0.0
C2291 C 0.90039 0.70371 0.33088 0.0
C2292 C 0.86246 0.6269 0.50891 0.0
C2293 C 0.86963 0.63867 0.49537 0.0
C2294 C 0.88781 0.65747 0.40202 0.0
C2295 C 0.89752 0.69023 0.3903 0.0
C2296 C 0.89189 0.67793 0.40747 0.0
C2297 C 0.87284 0.64135 0.45147 0.0
C2298 C 0.87966 0.65403 0.43672 0.0
H2299 H 0.9137 0.71921 0.42327 0.0
H2300 H 0.90535 0.69881 0.45149 0.0
H2301 H 0.89985 0.67168 0.36009 0.0
H2302 H 0.85919 0.61282 0.41223 0.0
H2303 H 0.87122 0.63349 0.3877 0.0
C2304 C 0.80103 0.71129 0.8957 0.0
C2305 C 0.80474 0.71375 0.85232 0.0
C2306 C 0.79412 0.69946 0.90985 0.0
C2307 C 0.78552 0.6684 0.87663 0.0
H2308 H 0.76278 0.65976 0.97074 0.0
C2309 C 0.75395 0.61956 0.93071 0.0
C2310 C 0.75523 0.61762 0.97471 0.0
C2311 C 0.75897 0.6312 0.91454 0.0
C2312 C 0.76909 0.66208 0.94433 0.0
H2313 H 0.80375 0.70592 0.78926 0.0
H2314 H 0.79126 0.68544 0.81307 0.0
H2315 H 0.77336 0.68033 0.94443 0.0
H2316 H 0.76237 0.62623 0.0366 0.0
H2317 H 0.77085 0.64653 0.00849 0.0
H2318 H 0.78098 0.65004 0.87613 0.0
C2319 C 0.79404 0.69249 0.83689 0.0
C2320 C 0.77524 0.67388 0.92946 0.0
C2321 C 0.80115 0.70425 0.82308 0.0
C2322 C 0.7613 0.62748 0.00247 0.0
C2323 C 0.76608 0.63908 0.98653 0.0
C2324 C 0.7792 0.65659 0.89093 0.0
C2325 C 0.79059 0.68988 0.88063 0.0
C2326 C 0.78365 0.67724 0.89567 0.0
C2327 C 0.7651 0.64104 0.94235 0.0
C2328 C 0.77104 0.65336 0.92518 0.0
H2329 H 0.80373 0.71847 0.91891 0.0
H2330 H 0.79182 0.69786 0.94389 0.0
H2331 H 0.7921 0.67062 0.85131 0.0
H2332 H 0.74933 0.6121 0.90866 0.0
H2333 H 0.75811 0.63252 0.88032 0.0
C2334 C 0.36831 0.13153 0.01942 0.0
C2335 C 0.37763 0.13498 0.9894 0.0
C2336 C 0.35652 0.12363 0.00745 0.0
C2337 C 0.33791 0.10248 0.91962 0.0
H2338 H 0.31353 0.10842 0.96649 0.0
C2339 C 0.29343 0.09008 0.83636 0.0
C2340 C 0.28296 0.08456 0.86134 0.0
C2341 C 0.30451 0.09388 0.85552 0.0
C2342 C 0.32022 0.10652 0.95374 0.0
H2343 H 0.38198 0.13288 0.92339 0.0
H2344 H 0.36134 0.11956 0.90158 0.0
H2345 H 0.33398 0.1201 0.9924 0.0
H2346 H 0.27574 0.07846 0.92565 0.0
H2347 H 0.29537 0.0856 0.95988 0.0
H2348 H 0.32412 0.08943 0.87878 0.0
C2349 C 0.36311 0.1226 0.9349 0.0
C2350 C 0.33196 0.1132 0.9686 0.0
C2351 C 0.37496 0.13032 0.9472 0.0
C2352 C 0.28371 0.08262 0.90575 0.0
C2353 C 0.29488 0.08672 0.92525 0.0
C2354 C 0.3262 0.09596 0.90421 0.0
C2355 C 0.35371 0.11917 0.96484 0.0
C2356 C 0.34103 0.11141 0.95127 0.0
C2357 C 0.30537 0.09249 0.90026 0.0
C2358 C 0.3173 0.09805 0.92074 0.0
H2359 H 0.37014 0.13487 0.05239 0.0
H2360 H 0.34961 0.12102 0.03176 0.0
H2361 H 0.34454 0.10061 0.90621 0.0
H2362 H 0.29306 0.09165 0.80201 0.0
H2363 H 0.31247 0.09841 0.83568 0.0
C2364 C 0.91368 0.20142 0.89602 0.0
C2365 C 0.90754 0.19326 0.8625 0.0
C2366 C 0.90979 0.20915 0.91073 0.0
C2367 C 0.89067 0.22183 0.87881 0.0
H2368 H 0.88858 0.22574 0.00255 0.0
C2369 C 0.86919 0.24824 0.94875 0.0
C2370 C 0.86117 0.2425 0.98301 0.0
C2371 C 0.8768 0.24413 0.93472 0.0
C2372 C 0.88913 0.22475 0.96787 0.0
H2373 H 0.89249 0.18673 0.81835 0.0
H2374 H 0.88562 0.19996 0.84439 0.0
H2375 H 0.89809 0.21475 0.97614 0.0
H2376 H 0.85495 0.22808 0.02986 0.0
H2377 H 0.86797 0.22084 0.00512 0.0
H2378 H 0.88117 0.23128 0.87058 0.0
C2379 C 0.89357 0.20062 0.85879 0.0
C2380 C 0.89469 0.21856 0.95273 0.0
C2381 C 0.89745 0.19294 0.84415 0.0
C2382 C 0.86102 0.23271 0.00334 0.0
C2383 C 0.86859 0.22862 0.98943 0.0
C2384 C 0.88508 0.22798 0.89394 0.0
C2385 C 0.89971 0.20886 0.8921 0.0
C2386 C 0.89523 0.21674 0.90806 0.0
C2387 C 0.87654 0.23422 0.95485 0.0
C2388 C 0.88396 0.22923 0.93868 0.0
H2389 H 0.92152 0.20189 0.91064 0.0
H2390 H 0.91473 0.21543 0.93634 0.0
H2391 H 0.89115 0.22078 0.84413 0.0
H2392 H 0.86953 0.25585 0.93261 0.0
H2393 H 0.88287 0.24868 0.90815 0.0
C2394 C 0.70946 0.8001 0.59651 0.0
C2395 C 0.71195 0.80428 0.63937 0.0
C2396 C 0.69763 0.79309 0.58254 0.0
C2397 C 0.6665 0.78474 0.61434 0.0
H2398 H 0.65804 0.76112 0.52352 0.0
C2399 C 0.61772 0.7527 0.55958 0.0
C2400 C 0.61599 0.75387 0.51529 0.0
C2401 C 0.6293 0.75772 0.57647 0.0
C2402 C 0.66031 0.76766 0.54905 0.0
H2403 H 0.70412 0.80408 0.70171 0.0
H2404 H 0.68362 0.79141 0.67831 0.0
H2405 H 0.67857 0.772 0.55006 0.0
H2406 H 0.62488 0.76073 0.45363 0.0
H2407 H 0.64504 0.76914 0.48293 0.0
H2408 H 0.64811 0.78012 0.6137 0.0
C2409 C 0.69066 0.79389 0.65468 0.0
C2410 C 0.67209 0.774 0.56402 0.0
C2411 C 0.70245 0.80109 0.66828 0.0
C2412 C 0.62597 0.75974 0.48795 0.0
C2413 C 0.63749 0.76449 0.5046 0.0
C2414 C 0.6547 0.77823 0.59998 0.0
C2415 C 0.68805 0.78991 0.61144 0.0
C2416 C 0.67539 0.78275 0.59654 0.0
C2417 C 0.63927 0.7637 0.54908 0.0
C2418 C 0.65153 0.76974 0.56688 0.0
H2419 H 0.71664 0.80248 0.57353 0.0
H2420 H 0.69603 0.7904 0.54883 0.0
H2421 H 0.66867 0.79156 0.63864 0.0
H2422 H 0.61016 0.74826 0.58133 0.0
H2423 H 0.63048 0.75701 0.61092 0.0
C2424 C 0.19483 0.90792 0.59603 0.0
C2425 C 0.19065 0.90659 0.63879 0.0
C2426 C 0.20164 0.90278 0.58314 0.0
C2427 C 0.20934 0.87976 0.61794 0.0
H2428 H 0.2331 0.8941 0.52708 0.0
C2429 C 0.24094 0.86216 0.56528 0.0
C2430 C 0.23984 0.85921 0.52103 0.0
C2431 C 0.23588 0.86871 0.58178 0.0
C2432 C 0.22651 0.89005 0.55262 0.0
H2433 H 0.19064 0.89929 0.70206 0.0
H2434 H 0.20296 0.89089 0.68044 0.0
H2435 H 0.22261 0.90427 0.55225 0.0
H2436 H 0.23295 0.86106 0.45913 0.0
H2437 H 0.22444 0.87278 0.48777 0.0
H2438 H 0.21353 0.86568 0.61868 0.0
C2439 C 0.20063 0.89542 0.65613 0.0
C2440 C 0.2204 0.89579 0.5668 0.0
C2441 C 0.19363 0.90032 0.66868 0.0
C2442 C 0.23388 0.86316 0.49343 0.0
C2443 C 0.22908 0.86992 0.5097 0.0
C2444 C 0.21562 0.87416 0.60434 0.0
C2445 C 0.20462 0.89643 0.61303 0.0
C2446 C 0.21159 0.89064 0.59925 0.0
C2447 C 0.22992 0.87265 0.55403 0.0
C2448 C 0.22413 0.87917 0.57117 0.0
H2449 H 0.19261 0.91267 0.5723 0.0
H2450 H 0.20434 0.9036 0.5495 0.0
H2451 H 0.20247 0.87535 0.64231 0.0
H2452 H 0.24547 0.85919 0.58721 0.0
H2453 H 0.23662 0.87073 0.61614 0.0
C2454 C 0.13749 0.37012 0.49084 0.0
C2455 C 0.13677 0.37931 0.51235 0.0
C2456 C 0.13041 0.35827 0.5038 0.0
C2457 C 0.11039 0.3333 0.52288 0.0
H2458 H 0.10766 0.32619 0.64587 0.0
C2459 C 0.08454 0.28488 0.59021 0.0
C2460 C 0.09021 0.2824 0.62416 0.0
C2461 C 0.08895 0.29665 0.57606 0.0
C2462 C 0.10836 0.32802 0.61139 0.0
H2463 H 0.12794 0.38329 0.56405 0.0
H2464 H 0.11545 0.36248 0.58673 0.0
H2465 H 0.11769 0.34689 0.62187 0.0
H2466 H 0.10504 0.29023 0.66945 0.0
H2467 H 0.11279 0.31058 0.64445 0.0
H2468 H 0.1015 0.31441 0.51242 0.0
C2469 C 0.12161 0.36449 0.56003 0.0
C2470 C 0.11397 0.3399 0.59765 0.0
C2471 C 0.12873 0.37639 0.54702 0.0
C2472 C 0.10042 0.29184 0.64333 0.0
C2473 C 0.10481 0.30355 0.62926 0.0
C2474 C 0.10478 0.32141 0.53664 0.0
C2475 C 0.12239 0.3553 0.53857 0.0
C2476 C 0.11528 0.34268 0.55321 0.0
C2477 C 0.09909 0.30612 0.5957 0.0
C2478 C 0.10393 0.31865 0.58103 0.0
H2479 H 0.1436 0.37207 0.46401 0.0
H2480 H 0.13141 0.35146 0.48708 0.0
H2481 H 0.11107 0.33514 0.4884 0.0
H2482 H 0.07663 0.27777 0.57493 0.0
H2483 H 0.08431 0.29834 0.55024 0.0
C2484 C 0.03795 0.56978 0.83358 0.0
C2485 C 0.04702 0.57536 0.80256 0.0
C2486 C 0.026 0.56502 0.8219 0.0
C2487 C 0.00609 0.56398 0.73157 0.0
H2488 H 0.98309 0.53509 0.79102 0.0
C2489 C 0.95927 0.52947 0.66687 0.0
C2490 C 0.94962 0.52642 0.69502 0.0
C2491 C 0.97098 0.5367 0.68115 0.0
C2492 C 0.98941 0.54323 0.77454 0.0
H2493 H 0.05083 0.58047 0.73508 0.0
H2494 H 0.0299 0.57156 0.7138 0.0
H2495 H 0.00395 0.54505 0.81275 0.0
H2496 H 0.94459 0.52851 0.76005 0.0
H2497 H 0.96524 0.54084 0.78571 0.0
H2498 H 0.99144 0.56155 0.69156 0.0
C2499 C 0.03196 0.5712 0.7476 0.0
C2500 C 0.00139 0.54902 0.78706 0.0
C2501 C 0.04397 0.57624 0.75962 0.0
C2502 C 0.95188 0.53077 0.73773 0.0
C2503 C 0.96365 0.53778 0.75237 0.0
C2504 C 0.99413 0.55802 0.71843 0.0
C2505 C 0.02278 0.56542 0.77857 0.0
C2506 C 0.00993 0.55948 0.76573 0.0
C2507 C 0.97327 0.54079 0.72413 0.0
C2508 C 0.98572 0.54759 0.73979 0.0
H2509 H 0.04008 0.56914 0.8671 0.0
H2510 H 0.0193 0.56101 0.84705 0.0
H2511 H 0.01229 0.57211 0.71485 0.0
H2512 H 0.95776 0.52627 0.6337 0.0
H2513 H 0.97827 0.53883 0.65896 0.0
C2514 C 0.41756 0.46532 0.74898 0.0
C2515 C 0.41877 0.4681 0.79338 0.0
C2516 C 0.42218 0.45843 0.7319 0.0
C2517 C 0.43114 0.43656 0.75824 0.0
H2518 H 0.45681 0.45303 0.67535 0.0
C2519 C 0.46486 0.42078 0.72193 0.0
C2520 C 0.47007 0.42293 0.68062 0.0
C2521 C 0.45739 0.42531 0.73308 0.0
C2522 C 0.44949 0.44811 0.69767 0.0
H2523 H 0.42516 0.46546 0.85508 0.0
H2524 H 0.43281 0.45309 0.8255 0.0
H2525 H 0.44498 0.46196 0.69765 0.0
H2526 H 0.47126 0.43106 0.618 0.0
H2527 H 0.45784 0.43841 0.63643 0.0
H2528 H 0.43544 0.42261 0.75807 0.0
C2529 C 0.42846 0.45634 0.80388 0.0
C2530 C 0.44275 0.45329 0.71048 0.0
C2531 C 0.42415 0.46346 0.82069 0.0
C2532 C 0.46748 0.42941 0.65033 0.0
C2533 C 0.45982 0.4337 0.66107 0.0
C2534 C 0.43772 0.43124 0.74477 0.0
C2535 C 0.42774 0.45397 0.75927 0.0
C2536 C 0.43368 0.44766 0.74145 0.0
C2537 C 0.45478 0.43186 0.70279 0.0
C2538 C 0.44716 0.43706 0.71493 0.0
H2539 H 0.41351 0.46888 0.72731 0.0
H2540 H 0.42157 0.45671 0.69733 0.0
H2541 H 0.42415 0.43206 0.78216 0.0
H2542 H 0.46677 0.41584 0.74593 0.0
H2543 H 0.45389 0.42387 0.76578 0.0
C2544 C 0.52993 0.96093 0.83046 0.0
C2545 C 0.52646 0.95137 0.80147 0.0
C2546 C 0.5368 0.97269 0.81617 0.0
C2547 C 0.54185 0.99115 0.72291 0.0
H2548 H 0.57115 0.01439 0.77948 0.0
C2549 C 0.56802 0.03913 0.65929 0.0
C2550 C 0.57379 0.04848 0.68921 0.0
C2551 C 0.56331 0.0273 0.67228 0.0
C2552 C 0.5629 0.00808 0.76369 0.0
H2553 H 0.52748 0.94656 0.73493 0.0
H2554 H 0.53921 0.96728 0.70947 0.0
H2555 H 0.56096 0.9936 0.80359 0.0
H2556 H 0.57932 0.05287 0.75612 0.0
H2557 H 0.57051 0.0321 0.77973 0.0
H2558 H 0.54324 0.0055 0.68467 0.0
C2559 C 0.53673 0.96558 0.74338 0.0
C2560 C 0.55714 0.99616 0.77729 0.0
C2561 C 0.53006 0.95378 0.75792 0.0
C2562 C 0.57492 0.0458 0.73243 0.0
C2563 C 0.56994 0.03389 0.74578 0.0
C2564 C 0.54745 0.00307 0.7099 0.0
C2565 C 0.54013 0.97513 0.77243 0.0
C2566 C 0.54658 0.98761 0.75693 0.0
C2567 C 0.56395 0.02446 0.71589 0.0
C2568 C 0.55808 0.01172 0.72997 0.0
H2569 H 0.52732 0.95931 0.86428 0.0
H2570 H 0.53924 0.97991 0.83905 0.0
H2571 H 0.53361 0.98473 0.70723 0.0
H2572 H 0.56719 0.04097 0.62556 0.0
H2573 H 0.55915 0.02039 0.64793 0.0
C2574 C 0.46742 0.03762 0.14966 0.0
C2575 C 0.47077 0.04669 0.18064 0.0
C2576 C 0.46021 0.02567 0.16122 0.0
C2577 C 0.44085 0.00583 0.25064 0.0
H2578 H 0.44718 0.98277 0.19404 0.0
C2579 C 0.42906 0.95981 0.32036 0.0
C2580 C 0.42273 0.94988 0.29316 0.0
C2581 C 0.43334 0.97134 0.30454 0.0
C2582 C 0.44522 0.9891 0.20965 0.0
H2583 H 0.46922 0.05046 0.24796 0.0
H2584 H 0.45715 0.02954 0.26902 0.0
H2585 H 0.45807 0.00357 0.17143 0.0
H2586 H 0.41585 0.94414 0.22818 0.0
H2587 H 0.42384 0.96452 0.19982 0.0
H2588 H 0.42853 0.99129 0.29074 0.0
C2589 C 0.45971 0.03161 0.23532 0.0
C2590 C 0.45141 0.00104 0.19666 0.0
C2591 C 0.46671 0.04362 0.22343 0.0
C2592 C 0.42069 0.95167 0.24978 0.0
C2593 C 0.42525 0.96327 0.23362 0.0
C2594 C 0.43485 0.99392 0.26421 0.0
C2595 C 0.45641 0.02245 0.20438 0.0
C2596 C 0.44939 0.00961 0.21715 0.0
C2597 C 0.43161 0.97318 0.26096 0.0
C2598 C 0.43705 0.98549 0.24399 0.0
H2599 H 0.4703 0.03977 0.11624 0.0
H2600 H 0.45763 0.01897 0.13613 0.0
H2601 H 0.43882 0.01205 0.26661 0.0
H2602 H 0.4307 0.95867 0.35401 0.0
H2603 H 0.43831 0.97886 0.32609 0.0
C2604 C 0.04356 0.46207 0.26418 0.0
C2605 C 0.04591 0.47046 0.29715 0.0
C2606 C 0.0318 0.45433 0.25075 0.0
C2607 C 0.00032 0.44201 0.2857 0.0
H2608 H 0.99333 0.43828 0.16257 0.0
C2609 C 0.95887 0.43154 0.1663 0.0
C2610 C 0.94939 0.42163 0.18672 0.0
C2611 C 0.97063 0.43562 0.17903 0.0
C2612 C 0.99515 0.43922 0.19709 0.0
H2613 H 0.03783 0.47731 0.34195 0.0
H2614 H 0.0175 0.46401 0.31832 0.0
H2615 H 0.01405 0.44902 0.18694 0.0
H2616 H 0.94476 0.40811 0.23621 0.0
H2617 H 0.96543 0.41529 0.25867 0.0
H2618 H 0.98143 0.43273 0.29587 0.0
C2619 C 0.02464 0.46322 0.30324 0.0
C2620 C 0.00702 0.44525 0.21103 0.0
C2621 C 0.03633 0.47094 0.31649 0.0
C2622 C 0.9519 0.4158 0.22001 0.0
C2623 C 0.96372 0.41992 0.23289 0.0
C2624 C 0.98845 0.43598 0.27177 0.0
C2625 C 0.02221 0.45481 0.27028 0.0
C2626 C 0.00973 0.447 0.25549 0.0
C2627 C 0.97321 0.4299 0.21253 0.0
C2628 C 0.98573 0.4348 0.22729 0.0
H2629 H 0.05078 0.46149 0.24879 0.0
H2630 H 0.0302 0.44791 0.22535 0.0
H2631 H 0.00213 0.44304 0.32022 0.0
H2632 H 0.95724 0.43624 0.14053 0.0
H2633 H 0.97769 0.44347 0.16324 0.0
C2634 C 0.58008 0.53344 0.23334 0.0
C2635 C 0.57677 0.5286 0.19149 0.0
C2636 C 0.57624 0.54109 0.24934 0.0
C2637 C 0.56571 0.5615 0.21841 0.0
H2638 H 0.54535 0.54987 0.31979 0.0
C2639 C 0.53337 0.5784 0.26468 0.0
C2640 C 0.53 0.57779 0.30824 0.0
C2641 C 0.54087 0.57403 0.25205 0.0
C2642 C 0.55124 0.5535 0.29212 0.0
H2643 H 0.56735 0.5283 0.13288 0.0
H2644 H 0.56096 0.54191 0.16041 0.0
H2645 H 0.55587 0.53977 0.29562 0.0
H2646 H 0.53238 0.57298 0.37321 0.0
H2647 H 0.54601 0.5661 0.35197 0.0
H2648 H 0.56127 0.57534 0.21496 0.0
C2649 C 0.56639 0.53971 0.18093 0.0
C2650 C 0.55723 0.54764 0.27823 0.0
C2651 C 0.56997 0.53187 0.16537 0.0
C2652 C 0.53473 0.57337 0.33926 0.0
C2653 C 0.54247 0.56933 0.32693 0.0
C2654 C 0.55992 0.56756 0.23283 0.0
C2655 C 0.56932 0.54423 0.22325 0.0
C2656 C 0.56432 0.55144 0.24083 0.0
C2657 C 0.54536 0.56923 0.28298 0.0
C2658 C 0.55241 0.5635 0.26944 0.0
H2659 H 0.5853 0.53102 0.2541 0.0
H2660 H 0.57856 0.54447 0.28216 0.0
H2661 H 0.57118 0.56461 0.18947 0.0
H2662 H 0.52975 0.58172 0.24018 0.0
H2663 H 0.54273 0.57399 0.21785 0.0
loop_
_geom_bond_atom_site_label_1
_geom_bond_atom_site_label_2
_geom_bond_distance
_geom_bond_site_symmetry_2
_ccdc_geom_bond_type
Co0 O1 2.216 . S
Co0 O2 2.091 . S
Co0 O4 2.004 . S
Co0 O10 2.021 . S
Co0 O12 2.137 . S
Co0 O13 2.244 . S
O1 Co0 2.216 . S
O1 C8 1.247 . S
O2 Co0 2.091 . S
O2 C8 1.261 . S
C3 O12 1.247 . S
C3 O13 1.272 . S
O4 Co0 2.004 . S
O4 C9 1.259 . S
Co5 O6 2.061 . S
Co5 O11 2.052 . S
Co5 O13 2.135 . S
O6 Co5 2.061 . S
O6 C9 1.235 . S
C7 O10 1.238 . S
C7 O11 1.241 . S
C8 O1 1.247 . S
C8 O2 1.261 . S
C9 O4 1.259 . S
C9 O6 1.235 . S
O10 Co0 2.021 . S
O10 C7 1.238 . S
O11 Co5 2.052 . S
O11 C7 1.241 . S
O12 Co0 2.137 . S
O12 C3 1.247 . S
O13 Co0 2.244 . S
O13 C3 1.272 . S
O13 Co5 2.135 . S
Co14 O15 2.216 . S
Co14 O16 2.091 . S
Co14 O18 2.004 . S
Co14 O24 2.021 . S
Co14 O26 2.137 . S
Co14 O27 2.244 . S
O15 Co14 2.216 . S
O15 C22 1.247 . S
O16 Co14 2.091 . S
O16 C22 1.261 . S
C17 O26 1.247 . S
C17 O27 1.272 . S
O18 Co14 2.004 . S
O18 C23 1.259 . S
Co19 O20 2.061 . S
Co19 O25 2.052 . S
Co19 O27 2.135 . S
O20 Co19 2.061 . S
O20 C23 1.235 . S
C21 O24 1.238 . S
C21 O25 1.241 . S
C22 O15 1.247 . S
C22 O16 1.261 . S
C23 O18 1.259 . S
C23 O20 1.235 . S
O24 Co14 2.021 . S
O24 C21 1.238 . S
O25 Co19 2.052 . S
O25 C21 1.241 . S
O26 Co14 2.137 . S
O26 C17 1.247 . S
O27 Co14 2.244 . S
O27 C17 1.272 . S
O27 Co19 2.135 . S
Co28 O29 2.216 . S
Co28 O30 2.091 . S
Co28 O32 2.004 . S
Co28 O38 2.021 . S
Co28 O40 2.137 . S
Co28 O41 2.244 . S
O29 Co28 2.216 . S
O29 C36 1.247 . S
O30 Co28 2.091 . S
O30 C36 1.261 . S
C31 O40 1.247 . S
C31 O41 1.272 . S
O32 Co28 2.004 . S
O32 C37 1.259 . S
Co33 O34 2.061 . S
Co33 O39 2.052 . S
Co33 O41 2.135 . S
O34 Co33 2.061 . S
O34 C37 1.235 . S
C35 O38 1.238 . S
C35 O39 1.241 . S
C36 O29 1.247 . S
C36 O30 1.261 . S
C37 O32 1.259 . S
C37 O34 1.235 . S
O38 Co28 2.021 . S
O38 C35 1.238 . S
O39 Co33 2.052 . S
O39 C35 1.241 . S
O40 Co28 2.137 . S
O40 C31 1.247 . S
O41 Co28 2.244 . S
O41 C31 1.272 . S
O41 Co33 2.135 . S
Co42 O43 2.216 . S
Co42 O44 2.091 . S
Co42 O46 2.004 . S
Co42 O52 2.021 . S
Co42 O54 2.137 . S
Co42 O55 2.244 . S
O43 Co42 2.216 . S
O43 C50 1.247 . S
O44 Co42 2.091 . S
O44 C50 1.261 . S
C45 O54 1.247 . S
C45 O55 1.272 . S
O46 Co42 2.004 . S
O46 C51 1.259 . S
Co47 O48 2.061 . S
Co47 O53 2.052 . S
Co47 O55 2.135 . S
O48 Co47 2.061 . S
O48 C51 1.235 . S
C49 O52 1.238 . S
C49 O53 1.241 . S
C50 O43 1.247 . S
C50 O44 1.261 . S
C51 O46 1.259 . S
C51 O48 1.235 . S
O52 Co42 2.021 . S
O52 C49 1.238 . S
O53 Co47 2.052 . S
O53 C49 1.241 . S
O54 Co42 2.137 . S
O54 C45 1.247 . S
O55 Co42 2.244 . S
O55 C45 1.272 . S
O55 Co47 2.135 . S
Co56 O57 2.216 . S
Co56 O58 2.091 . S
Co56 O60 2.004 . S
Co56 O66 2.021 . S
Co56 O68 2.137 . S
Co56 O69 2.244 . S
O57 Co56 2.216 . S
O57 C64 1.247 . S
O58 Co56 2.091 . S
O58 C64 1.261 . S
C59 O68 1.247 . S
C59 O69 1.272 . S
O60 Co56 2.004 . S
O60 C65 1.259 . S
Co61 O62 2.061 . S
Co61 O67 2.052 . S
Co61 O69 2.135 . S
O62 Co61 2.061 . S
O62 C65 1.235 . S
C63 O66 1.238 . S
C63 O67 1.241 . S
C64 O57 1.247 . S
C64 O58 1.261 . S
C65 O60 1.259 . S
C65 O62 1.235 . S
O66 Co56 2.021 . S
O66 C63 1.238 . S
O67 Co61 2.052 . S
O67 C63 1.241 . S
O68 Co56 2.137 . S
O68 C59 1.247 . S
O69 Co56 2.244 . S
O69 C59 1.272 . S
O69 Co61 2.135 . S
Co70 O71 2.216 . S
Co70 O72 2.091 . S
Co70 O74 2.004 . S
Co70 O80 2.021 . S
Co70 O82 2.137 . S
Co70 O83 2.244 . S
O71 Co70 2.216 . S
O71 C78 1.247 . S
O72 Co70 2.091 . S
O72 C78 1.261 . S
C73 O82 1.247 . S
C73 O83 1.272 . S
O74 Co70 2.004 . S
O74 C79 1.259 . S
Co75 O76 2.061 . S
Co75 O81 2.052 . S
Co75 O83 2.135 . S
O76 Co75 2.061 . S
O76 C79 1.235 . S
C77 O80 1.238 . S
C77 O81 1.241 . S
C78 O71 1.247 . S
C78 O72 1.261 . S
C79 O74 1.259 . S
C79 O76 1.235 . S
O80 Co70 2.021 . S
O80 C77 1.238 . S
O81 Co75 2.052 . S
O81 C77 1.241 . S
O82 Co70 2.137 . S
O82 C73 1.247 . S
O83 Co70 2.244 . S
O83 C73 1.272 . S
O83 Co75 2.135 . S
Co84 O85 2.216 . S
Co84 O86 2.091 . S
Co84 O88 2.004 . S
Co84 O94 2.021 . S
Co84 O96 2.137 . S
Co84 O97 2.244 . S
O85 Co84 2.216 . S
O85 C92 1.247 . S
O86 Co84 2.091 . S
O86 C92 1.261 . S
C87 O96 1.247 . S
C87 O97 1.272 . S
O88 Co84 2.004 . S
O88 C93 1.259 . S
Co89 O90 2.061 . S
Co89 O95 2.052 . S
Co89 O97 2.135 . S
O90 Co89 2.061 . S
O90 C93 1.235 . S
C91 O94 1.238 . S
C91 O95 1.241 . S
C92 O85 1.247 . S
C92 O86 1.261 . S
C93 O88 1.259 . S
C93 O90 1.235 . S
O94 Co84 2.021 . S
O94 C91 1.238 . S
O95 Co89 2.052 . S
O95 C91 1.241 . S
O96 Co84 2.137 . S
O96 C87 1.247 . S
O97 Co84 2.244 . S
O97 C87 1.272 . S
O97 Co89 2.135 . S
Co98 O99 2.216 . S
Co98 O100 2.091 . S
Co98 O102 2.004 . S
Co98 O108 2.021 . S
Co98 O110 2.137 . S
Co98 O111 2.244 . S
O99 Co98 2.216 . S
O99 C106 1.247 . S
O100 Co98 2.091 . S
O100 C106 1.261 . S
C101 O110 1.247 . S
C101 O111 1.272 . S
O102 Co98 2.004 . S
O102 C107 1.259 . S
Co103 O104 2.061 . S
Co103 O109 2.052 . S
Co103 O111 2.135 . S
O104 Co103 2.061 . S
O104 C107 1.235 . S
C105 O108 1.238 . S
C105 O109 1.241 . S
C106 O99 1.247 . S
C106 O100 1.261 . S
C107 O102 1.259 . S
C107 O104 1.235 . S
O108 Co98 2.021 . S
O108 C105 1.238 . S
O109 Co103 2.052 . S
O109 C105 1.241 . S
O110 Co98 2.137 . S
O110 C101 1.247 . S
O111 Co98 2.244 . S
O111 C101 1.272 . S
O111 Co103 2.135 . S
Co112 O113 2.216 . S
Co112 O114 2.091 . S
Co112 O116 2.004 . S
Co112 O122 2.021 . S
Co112 O124 2.137 . S
Co112 O125 2.244 . S
O113 Co112 2.216 . S
O113 C120 1.247 . S
O114 Co112 2.091 . S
O114 C120 1.261 . S
C115 O124 1.247 . S
C115 O125 1.272 . S
O116 Co112 2.004 . S
O116 C121 1.259 . S
Co117 O118 2.061 . S
Co117 O123 2.052 . S
Co117 O125 2.135 . S
O118 Co117 2.061 . S
O118 C121 1.235 . S
C119 O122 1.238 . S
C119 O123 1.241 . S
C120 O113 1.247 . S
C120 O114 1.261 . S
C121 O116 1.259 . S
C121 O118 1.235 . S
O122 Co112 2.021 . S
O122 C119 1.238 . S
O123 Co117 2.052 . S
O123 C119 1.241 . S
O124 Co112 2.137 . S
O124 C115 1.247 . S
O125 Co112 2.244 . S
O125 C115 1.272 . S
O125 Co117 2.135 . S
Co126 O127 2.216 . S
Co126 O128 2.091 . S
Co126 O130 2.004 . S
Co126 O136 2.021 . S
Co126 O138 2.137 . S
Co126 O139 2.244 . S
O127 Co126 2.216 . S
O127 C134 1.247 . S
O128 Co126 2.091 . S
O128 C134 1.261 . S
C129 O138 1.247 . S
C129 O139 1.272 . S
O130 Co126 2.004 . S
O130 C135 1.259 . S
Co131 O132 2.061 . S
Co131 O137 2.052 . S
Co131 O139 2.135 . S
O132 Co131 2.061 . S
O132 C135 1.235 . S
C133 O136 1.238 . S
C133 O137 1.241 . S
C134 O127 1.247 . S
C134 O128 1.261 . S
C135 O130 1.259 . S
C135 O132 1.235 . S
O136 Co126 2.021 . S
O136 C133 1.238 . S
O137 Co131 2.052 . S
O137 C133 1.241 . S
O138 Co126 2.137 . S
O138 C129 1.247 . S
O139 Co126 2.244 . S
O139 C129 1.272 . S
O139 Co131 2.135 . S
Co140 O141 2.216 . S
Co140 O142 2.091 . S
Co140 O144 2.004 . S
Co140 O150 2.021 . S
Co140 O152 2.137 . S
Co140 O153 2.244 . S
O141 Co140 2.216 . S
O141 C148 1.247 . S
O142 Co140 2.091 . S
O142 C148 1.261 . S
C143 O152 1.247 . S
C143 O153 1.272 . S
O144 Co140 2.004 . S
O144 C149 1.259 . S
Co145 O146 2.061 . S
Co145 O151 2.052 . S
Co145 O153 2.135 . S
O146 Co145 2.061 . S
O146 C149 1.235 . S
C147 O150 1.238 . S
C147 O151 1.241 . S
C148 O141 1.247 . S
C148 O142 1.261 . S
C149 O144 1.259 . S
C149 O146 1.235 . S
O150 Co140 2.021 . S
O150 C147 1.238 . S
O151 Co145 2.052 . S
O151 C147 1.241 . S
O152 Co140 2.137 . S
O152 C143 1.247 . S
O153 Co140 2.244 . S
O153 C143 1.272 . S
O153 Co145 2.135 . S
Co154 O155 2.216 . S
Co154 O156 2.091 . S
Co154 O158 2.004 . S
Co154 O164 2.021 . S
Co154 O166 2.137 . S
Co154 O167 2.244 . S
O155 Co154 2.216 . S
O155 C162 1.247 . S
O156 Co154 2.091 . S
O156 C162 1.261 . S
C157 O166 1.247 . S
C157 O167 1.272 . S
O158 Co154 2.004 . S
O158 C163 1.259 . S
Co159 O160 2.061 . S
Co159 O165 2.052 . S
Co159 O167 2.135 . S
O160 Co159 2.061 . S
O160 C163 1.235 . S
C161 O164 1.238 . S
C161 O165 1.241 . S
C162 O155 1.247 . S
C162 O156 1.261 . S
C163 O158 1.259 . S
C163 O160 1.235 . S
O164 Co154 2.021 . S
O164 C161 1.238 . S
O165 Co159 2.052 . S
O165 C161 1.241 . S
O166 Co154 2.137 . S
O166 C157 1.247 . S
O167 Co154 2.244 . S
O167 C157 1.272 . S
O167 Co159 2.135 . S
Co168 O169 2.216 . S
Co168 O170 2.091 . S
Co168 O172 2.004 . S
Co168 O178 2.021 . S
Co168 O180 2.137 . S
Co168 O181 2.244 . S
O169 Co168 2.216 . S
O169 C176 1.247 . S
O170 Co168 2.091 . S
O170 C176 1.261 . S
C171 O180 1.247 . S
C171 O181 1.272 . S
O172 Co168 2.004 . S
O172 C177 1.259 . S
Co173 O174 2.061 . S
Co173 O179 2.052 . S
Co173 O181 2.135 . S
O174 Co173 2.061 . S
O174 C177 1.235 . S
C175 O178 1.238 . S
C175 O179 1.241 . S
C176 O169 1.247 . S
C176 O170 1.261 . S
C177 O172 1.259 . S
C177 O174 1.235 . S
O178 Co168 2.021 . S
O178 C175 1.238 . S
O179 Co173 2.052 . S
O179 C175 1.241 . S
O180 Co168 2.137 . S
O180 C171 1.247 . S
O181 Co168 2.244 . S
O181 C171 1.272 . S
O181 Co173 2.135 . S
Co182 O183 2.216 . S
Co182 O184 2.091 . S
Co182 O186 2.004 . S
Co182 O192 2.021 . S
Co182 O194 2.137 . S
Co182 O195 2.244 . S
O183 Co182 2.216 . S
O183 C190 1.247 . S
O184 Co182 2.091 . S
O184 C190 1.261 . S
C185 O194 1.247 . S
C185 O195 1.272 . S
O186 Co182 2.004 . S
O186 C191 1.259 . S
Co187 O188 2.061 . S
Co187 O193 2.052 . S
Co187 O195 2.135 . S
O188 Co187 2.061 . S
O188 C191 1.235 . S
C189 O192 1.238 . S
C189 O193 1.241 . S
C190 O183 1.247 . S
C190 O184 1.261 . S
C191 O186 1.259 . S
C191 O188 1.235 . S
O192 Co182 2.021 . S
O192 C189 1.238 . S
O193 Co187 2.052 . S
O193 C189 1.241 . S
O194 Co182 2.137 . S
O194 C185 1.247 . S
O195 Co182 2.244 . S
O195 C185 1.272 . S
O195 Co187 2.135 . S
Co196 O197 2.216 . S
Co196 O198 2.091 . S
Co196 O200 2.004 . S
Co196 O206 2.021 . S
Co196 O208 2.137 . S
Co196 O209 2.244 . S
O197 Co196 2.216 . S
O197 C204 1.247 . S
O198 Co196 2.091 . S
O198 C204 1.261 . S
C199 O208 1.247 . S
C199 O209 1.272 . S
O200 Co196 2.004 . S
O200 C205 1.259 . S
Co201 O202 2.061 . S
Co201 O207 2.052 . S
Co201 O209 2.135 . S
O202 Co201 2.061 . S
O202 C205 1.235 . S
C203 O206 1.238 . S
C203 O207 1.241 . S
C204 O197 1.247 . S
C204 O198 1.261 . S
C205 O200 1.259 . S
C205 O202 1.235 . S
O206 Co196 2.021 . S
O206 C203 1.238 . S
O207 Co201 2.052 . S
O207 C203 1.241 . S
O208 Co196 2.137 . S
O208 C199 1.247 . S
O209 Co196 2.244 . S
O209 C199 1.272 . S
O209 Co201 2.135 . S
Co210 O211 2.216 . S
Co210 O212 2.091 . S
Co210 O214 2.004 . S
Co210 O220 2.021 . S
Co210 O222 2.137 . S
Co210 O223 2.244 . S
O211 Co210 2.216 . S
O211 C218 1.247 . S
O212 Co210 2.091 . S
O212 C218 1.261 . S
C213 O222 1.247 . S
C213 O223 1.272 . S
O214 Co210 2.004 . S
O214 C219 1.259 . S
Co215 O216 2.061 . S
Co215 O221 2.052 . S
Co215 O223 2.135 . S
O216 Co215 2.061 . S
O216 C219 1.235 . S
C217 O220 1.238 . S
C217 O221 1.241 . S
C218 O211 1.247 . S
C218 O212 1.261 . S
C219 O214 1.259 . S
C219 O216 1.235 . S
O220 Co210 2.021 . S
O220 C217 1.238 . S
O221 Co215 2.052 . S
O221 C217 1.241 . S
O222 Co210 2.137 . S
O222 C213 1.247 . S
O223 Co210 2.244 . S
O223 C213 1.272 . S
O223 Co215 2.135 . S
Co224 O225 2.216 . S
Co224 O226 2.091 . S
Co224 O228 2.004 . S
Co224 O234 2.021 . S
Co224 O236 2.137 . S
Co224 O237 2.244 . S
O225 Co224 2.216 . S
O225 C232 1.247 . S
O226 Co224 2.091 . S
O226 C232 1.261 . S
C227 O236 1.247 . S
C227 O237 1.272 . S
O228 Co224 2.004 . S
O228 C233 1.259 . S
Co229 O230 2.061 . S
Co229 O235 2.052 . S
Co229 O237 2.135 . S
O230 Co229 2.061 . S
O230 C233 1.235 . S
C231 O234 1.238 . S
C231 O235 1.241 . S
C232 O225 1.247 . S
C232 O226 1.261 . S
C233 O228 1.259 . S
C233 O230 1.235 . S
O234 Co224 2.021 . S
O234 C231 1.238 . S
O235 Co229 2.052 . S
O235 C231 1.241 . S
O236 Co224 2.137 . S
O236 C227 1.247 . S
O237 Co224 2.244 . S
O237 C227 1.272 . S
O237 Co229 2.135 . S
Co238 O239 2.216 . S
Co238 O240 2.091 . S
Co238 O242 2.004 . S
Co238 O248 2.021 . S
Co238 O250 2.137 . S
Co238 O251 2.244 . S
O239 Co238 2.216 . S
O239 C246 1.247 . S
O240 Co238 2.091 . S
O240 C246 1.261 . S
C241 O250 1.247 . S
C241 O251 1.272 . S
O242 Co238 2.004 . S
O242 C247 1.259 . S
Co243 O244 2.061 . S
Co243 O249 2.052 . S
Co243 O251 2.135 . S
O244 Co243 2.061 . S
O244 C247 1.235 . S
C245 O248 1.238 . S
C245 O249 1.241 . S
C246 O239 1.247 . S
C246 O240 1.261 . S
C247 O242 1.259 . S
C247 O244 1.235 . S
O248 Co238 2.021 . S
O248 C245 1.238 . S
O249 Co243 2.052 . S
O249 C245 1.241 . S
O250 Co238 2.137 . S
O250 C241 1.247 . S
O251 Co238 2.244 . S
O251 C241 1.272 . S
O251 Co243 2.135 . S
Co252 O253 2.216 . S
Co252 O254 2.091 . S
Co252 O256 2.004 . S
Co252 O262 2.021 . S
Co252 O264 2.137 . S
Co252 O265 2.244 . S
O253 Co252 2.216 . S
O253 C260 1.247 . S
O254 Co252 2.091 . S
O254 C260 1.261 . S
C255 O264 1.247 . S
C255 O265 1.272 . S
O256 Co252 2.004 . S
O256 C261 1.259 . S
Co257 O258 2.061 . S
Co257 O263 2.052 . S
Co257 O265 2.135 . S
O258 Co257 2.061 . S
O258 C261 1.235 . S
C259 O262 1.238 . S
C259 O263 1.241 . S
C260 O253 1.247 . S
C260 O254 1.261 . S
C261 O256 1.259 . S
C261 O258 1.235 . S
O262 Co252 2.021 . S
O262 C259 1.238 . S
O263 Co257 2.052 . S
O263 C259 1.241 . S
O264 Co252 2.137 . S
O264 C255 1.247 . S
O265 Co252 2.244 . S
O265 C255 1.272 . S
O265 Co257 2.135 . S
Co266 O267 2.216 . S
Co266 O268 2.091 . S
Co266 O270 2.004 . S
Co266 O276 2.021 . S
Co266 O278 2.137 . S
Co266 O279 2.244 . S
O267 Co266 2.216 . S
O267 C274 1.247 . S
O268 Co266 2.091 . S
O268 C274 1.261 . S
C269 O278 1.247 . S
C269 O279 1.272 . S
O270 Co266 2.004 . S
O270 C275 1.259 . S
Co271 O272 2.061 . S
Co271 O277 2.052 . S
Co271 O279 2.135 . S
O272 Co271 2.061 . S
O272 C275 1.235 . S
C273 O276 1.238 . S
C273 O277 1.241 . S
C274 O267 1.247 . S
C274 O268 1.261 . S
C275 O270 1.259 . S
C275 O272 1.235 . S
O276 Co266 2.021 . S
O276 C273 1.238 . S
O277 Co271 2.052 . S
O277 C273 1.241 . S
O278 Co266 2.137 . S
O278 C269 1.247 . S
O279 Co266 2.244 . S
O279 C269 1.272 . S
O279 Co271 2.135 . S
Co280 O281 2.216 . S
Co280 O282 2.091 . S
Co280 O284 2.004 . S
Co280 O290 2.021 . S
Co280 O292 2.137 . S
Co280 O293 2.244 . S
O281 Co280 2.216 . S
O281 C288 1.247 . S
O282 Co280 2.091 . S
O282 C288 1.261 . S
C283 O292 1.247 . S
C283 O293 1.272 . S
O284 Co280 2.004 . S
O284 C289 1.259 . S
Co285 O286 2.061 . S
Co285 O291 2.052 . S
Co285 O293 2.135 . S
O286 Co285 2.061 . S
O286 C289 1.235 . S
C287 O290 1.238 . S
C287 O291 1.241 . S
C288 O281 1.247 . S
C288 O282 1.261 . S
C289 O284 1.259 . S
C289 O286 1.235 . S
O290 Co280 2.021 . S
O290 C287 1.238 . S
O291 Co285 2.052 . S
O291 C287 1.241 . S
O292 Co280 2.137 . S
O292 C283 1.247 . S
O293 Co280 2.244 . S
O293 C283 1.272 . S
O293 Co285 2.135 . S
Co294 O295 2.216 1_556 S
Co294 O296 2.091 . S
Co294 O298 2.004 . S
Co294 O304 2.021 1_556 S
Co294 O306 2.137 . S
Co294 O307 2.245 . S
O295 Co294 2.216 1_554 S
O295 C302 1.247 . S
O296 Co294 2.091 . S
O296 C302 1.261 1_556 S
C297 O306 1.247 . S
C297 O307 1.281 . S
O298 Co294 2.004 . S
O298 C303 1.259 . S
Co299 O300 2.061 1_554 S
Co299 O305 2.052 . S
Co299 O307 2.134 1_554 S
O300 Co299 2.061 1_556 S
O300 C303 1.235 . S
C301 O304 1.238 . S
C301 O305 1.241 . S
C302 O295 1.247 . S
C302 O296 1.261 1_554 S
C303 O298 1.259 . S
C303 O300 1.235 . S
O304 Co294 2.021 1_554 S
O304 C301 1.238 . S
O305 Co299 2.052 . S
O305 C301 1.241 . S
O306 Co294 2.137 . S
O306 C297 1.247 . S
O307 Co294 2.245 . S
O307 C297 1.281 . S
O307 Co299 2.134 1_556 S
Co308 O309 2.216 1_556 S
Co308 O310 2.091 . S
Co308 O312 2.004 . S
Co308 O318 2.021 1_556 S
Co308 O320 2.137 . S
Co308 O321 2.245 . S
O309 Co308 2.216 1_554 S
O309 C316 1.247 . S
O310 Co308 2.091 . S
O310 C316 1.261 1_556 S
C311 O320 1.247 . S
C311 O321 1.281 . S
O312 Co308 2.004 . S
O312 C317 1.259 . S
Co313 O314 2.061 1_554 S
Co313 O319 2.052 . S
Co313 O321 2.134 1_554 S
O314 Co313 2.061 1_556 S
O314 C317 1.235 . S
C315 O318 1.238 . S
C315 O319 1.241 . S
C316 O309 1.247 . S
C316 O310 1.261 1_554 S
C317 O312 1.259 . S
C317 O314 1.235 . S
O318 Co308 2.021 1_554 S
O318 C315 1.238 . S
O319 Co313 2.052 . S
O319 C315 1.241 . S
O320 Co308 2.137 . S
O320 C311 1.247 . S
O321 Co308 2.245 . S
O321 C311 1.281 . S
O321 Co313 2.134 1_556 S
Co322 O323 2.216 1_556 S
Co322 O324 2.091 . S
Co322 O326 2.004 . S
Co322 O332 2.021 1_556 S
Co322 O334 2.137 . S
Co322 O335 2.245 . S
O323 Co322 2.216 1_554 S
O323 C330 1.247 . S
O324 Co322 2.091 . S
O324 C330 1.261 1_556 S
C325 O334 1.247 . S
C325 O335 1.281 . S
O326 Co322 2.004 . S
O326 C331 1.259 . S
Co327 O328 2.061 1_554 S
Co327 O333 2.052 . S
Co327 O335 2.134 1_554 S
O328 Co327 2.061 1_556 S
O328 C331 1.235 . S
C329 O332 1.238 . S
C329 O333 1.241 . S
C330 O323 1.247 . S
C330 O324 1.261 1_554 S
C331 O326 1.259 . S
C331 O328 1.235 . S
O332 Co322 2.021 1_554 S
O332 C329 1.238 . S
O333 Co327 2.052 . S
O333 C329 1.241 . S
O334 Co322 2.137 . S
O334 C325 1.247 . S
O335 Co322 2.245 . S
O335 C325 1.281 . S
O335 Co327 2.134 1_556 S
Co336 O337 2.216 . S
Co336 O338 2.091 . S
Co336 O340 2.004 . S
Co336 O346 2.021 . S
Co336 O348 2.137 . S
Co336 O349 2.244 . S
O337 Co336 2.216 . S
O337 C344 1.247 . S
O338 Co336 2.091 . S
O338 C344 1.261 . S
C339 O348 1.247 . S
C339 O349 1.272 . S
O340 Co336 2.004 . S
O340 C345 1.259 . S
Co341 O342 2.061 . S
Co341 O347 2.052 . S
Co341 O349 2.135 . S
O342 Co341 2.061 . S
O342 C345 1.235 . S
C343 O346 1.238 . S
C343 O347 1.241 . S
C344 O337 1.247 . S
C344 O338 1.261 . S
C345 O340 1.259 . S
C345 O342 1.235 . S
O346 Co336 2.021 . S
O346 C343 1.238 . S
O347 Co341 2.052 . S
O347 C343 1.241 . S
O348 Co336 2.137 . S
O348 C339 1.247 . S
O349 Co336 2.244 . S
O349 C339 1.272 . S
O349 Co341 2.135 . S
Co350 O351 2.216 . S
Co350 O352 2.091 . S
Co350 O354 2.004 . S
Co350 O360 2.021 . S
Co350 O362 2.137 . S
Co350 O363 2.244 . S
O351 Co350 2.216 . S
O351 C358 1.247 . S
O352 Co350 2.091 . S
O352 C358 1.261 . S
C353 O362 1.247 . S
C353 O363 1.272 . S
O354 Co350 2.004 . S
O354 C359 1.259 . S
Co355 O356 2.061 . S
Co355 O361 2.052 . S
Co355 O363 2.135 . S
O356 Co355 2.061 . S
O356 C359 1.235 . S
C357 O360 1.238 . S
C357 O361 1.241 . S
C358 O351 1.247 . S
C358 O352 1.261 . S
C359 O354 1.259 . S
C359 O356 1.235 . S
O360 Co350 2.021 . S
O360 C357 1.238 . S
O361 Co355 2.052 . S
O361 C357 1.241 . S
O362 Co350 2.137 . S
O362 C353 1.247 . S
O363 Co350 2.244 . S
O363 C353 1.272 . S
O363 Co355 2.135 . S
Co364 O365 2.216 . S
Co364 O366 2.091 . S
Co364 O368 2.004 . S
Co364 O374 2.021 . S
Co364 O376 2.137 . S
Co364 O377 2.244 . S
O365 Co364 2.216 . S
O365 C372 1.247 . S
O366 Co364 2.091 . S
O366 C372 1.261 . S
C367 O376 1.247 . S
C367 O377 1.272 . S
O368 Co364 2.004 . S
O368 C373 1.259 . S
Co369 O370 2.061 . S
Co369 O375 2.052 . S
Co369 O377 2.135 . S
O370 Co369 2.061 . S
O370 C373 1.235 . S
C371 O374 1.238 . S
C371 O375 1.241 . S
C372 O365 1.247 . S
C372 O366 1.261 . S
C373 O368 1.259 . S
C373 O370 1.235 . S
O374 Co364 2.021 . S
O374 C371 1.238 . S
O375 Co369 2.052 . S
O375 C371 1.241 . S
O376 Co364 2.137 . S
O376 C367 1.247 . S
O377 Co364 2.244 . S
O377 C367 1.272 . S
O377 Co369 2.135 . S
Co378 O379 2.216 1_554 S
Co378 O380 2.091 . S
Co378 O382 2.004 . S
Co378 O388 2.021 1_554 S
Co378 O390 2.137 . S
Co378 O391 2.245 . S
O379 Co378 2.216 1_556 S
O379 C386 1.247 . S
O380 Co378 2.091 . S
O380 C386 1.261 1_554 S
C381 O390 1.247 . S
C381 O391 1.281 . S
O382 Co378 2.004 . S
O382 C387 1.259 . S
Co383 O384 2.061 1_556 S
Co383 O389 2.052 . S
Co383 O391 2.134 1_556 S
O384 Co383 2.061 1_554 S
O384 C387 1.235 . S
C385 O388 1.238 . S
C385 O389 1.241 . S
C386 O379 1.247 . S
C386 O380 1.261 1_556 S
C387 O382 1.259 . S
C387 O384 1.235 . S
O388 Co378 2.021 1_556 S
O388 C385 1.238 . S
O389 Co383 2.052 . S
O389 C385 1.241 . S
O390 Co378 2.137 . S
O390 C381 1.247 . S
O391 Co378 2.245 . S
O391 C381 1.281 . S
O391 Co383 2.134 1_554 S
Co392 O393 2.216 1_554 S
Co392 O394 2.091 . S
Co392 O396 2.004 . S
Co392 O402 2.021 1_554 S
Co392 O404 2.137 . S
Co392 O405 2.245 . S
O393 Co392 2.216 1_556 S
O393 C400 1.247 . S
O394 Co392 2.091 . S
O394 C400 1.261 1_554 S
C395 O404 1.247 . S
C395 O405 1.281 . S
O396 Co392 2.004 . S
O396 C401 1.259 . S
Co397 O398 2.061 1_556 S
Co397 O403 2.052 . S
Co397 O405 2.134 1_556 S
O398 Co397 2.061 1_554 S
O398 C401 1.235 . S
C399 O402 1.238 . S
C399 O403 1.241 . S
C400 O393 1.247 . S
C400 O394 1.261 1_556 S
C401 O396 1.259 . S
C401 O398 1.235 . S
O402 Co392 2.021 1_556 S
O402 C399 1.238 . S
O403 Co397 2.052 . S
O403 C399 1.241 . S
O404 Co392 2.137 . S
O404 C395 1.247 . S
O405 Co392 2.245 . S
O405 C395 1.281 . S
O405 Co397 2.134 1_554 S
Co406 O407 2.216 1_554 S
Co406 O408 2.091 . S
Co406 O410 2.004 . S
Co406 O416 2.021 1_554 S
Co406 O418 2.137 . S
Co406 O419 2.245 . S
O407 Co406 2.216 1_556 S
O407 C414 1.247 . S
O408 Co406 2.091 . S
O408 C414 1.261 1_554 S
C409 O418 1.247 . S
C409 O419 1.281 . S
O410 Co406 2.004 . S
O410 C415 1.259 . S
Co411 O412 2.061 1_556 S
Co411 O417 2.052 . S
Co411 O419 2.134 1_556 S
O412 Co411 2.061 1_554 S
O412 C415 1.235 . S
C413 O416 1.238 . S
C413 O417 1.241 . S
C414 O407 1.247 . S
C414 O408 1.261 1_556 S
C415 O410 1.259 . S
C415 O412 1.235 . S
O416 Co406 2.021 1_556 S
O416 C413 1.238 . S
O417 Co411 2.052 . S
O417 C413 1.241 . S
O418 Co406 2.137 . S
O418 C409 1.247 . S
O419 Co406 2.245 . S
O419 C409 1.281 . S
O419 Co411 2.134 1_554 S
Co420 O421 2.216 . S
Co420 O422 2.091 . S
Co420 O424 2.004 . S
Co420 O430 2.021 . S
Co420 O432 2.137 . S
Co420 O433 2.244 . S
O421 Co420 2.216 . S
O421 C428 1.247 . S
O422 Co420 2.091 . S
O422 C428 1.261 . S
C423 O432 1.247 . S
C423 O433 1.272 . S
O424 Co420 2.004 . S
O424 C429 1.259 . S
Co425 O426 2.061 . S
Co425 O431 2.052 . S
Co425 O433 2.135 . S
O426 Co425 2.061 . S
O426 C429 1.235 . S
C427 O430 1.238 . S
C427 O431 1.241 . S
C428 O421 1.247 . S
C428 O422 1.261 . S
C429 O424 1.259 . S
C429 O426 1.235 . S
O430 Co420 2.021 . S
O430 C427 1.238 . S
O431 Co425 2.052 . S
O431 C427 1.241 . S
O432 Co420 2.137 . S
O432 C423 1.247 . S
O433 Co420 2.244 . S
O433 C423 1.272 . S
O433 Co425 2.135 . S
Co434 O435 2.216 . S
Co434 O436 2.091 . S
Co434 O438 2.004 . S
Co434 O444 2.021 . S
Co434 O446 2.137 . S
Co434 O447 2.244 . S
O435 Co434 2.216 . S
O435 C442 1.247 . S
O436 Co434 2.091 . S
O436 C442 1.261 . S
C437 O446 1.247 . S
C437 O447 1.272 . S
O438 Co434 2.004 . S
O438 C443 1.259 . S
Co439 O440 2.061 . S
Co439 O445 2.052 . S
Co439 O447 2.135 . S
O440 Co439 2.061 . S
O440 C443 1.235 . S
C441 O444 1.238 . S
C441 O445 1.241 . S
C442 O435 1.247 . S
C442 O436 1.261 . S
C443 O438 1.259 . S
C443 O440 1.235 . S
O444 Co434 2.021 . S
O444 C441 1.238 . S
O445 Co439 2.052 . S
O445 C441 1.241 . S
O446 Co434 2.137 . S
O446 C437 1.247 . S
O447 Co434 2.244 . S
O447 C437 1.272 . S
O447 Co439 2.135 . S
Co448 O449 2.216 . S
Co448 O450 2.091 . S
Co448 O452 2.004 . S
Co448 O458 2.021 . S
Co448 O460 2.137 . S
Co448 O461 2.244 . S
O449 Co448 2.216 . S
O449 C456 1.247 . S
O450 Co448 2.091 . S
O450 C456 1.261 . S
C451 O460 1.247 . S
C451 O461 1.272 . S
O452 Co448 2.004 . S
O452 C457 1.259 . S
Co453 O454 2.061 . S
Co453 O459 2.052 . S
Co453 O461 2.135 . S
O454 Co453 2.061 . S
O454 C457 1.235 . S
C455 O458 1.238 . S
C455 O459 1.241 . S
C456 O449 1.247 . S
C456 O450 1.261 . S
C457 O452 1.259 . S
C457 O454 1.235 . S
O458 Co448 2.021 . S
O458 C455 1.238 . S
O459 Co453 2.052 . S
O459 C455 1.241 . S
O460 Co448 2.137 . S
O460 C451 1.247 . S
O461 Co448 2.244 . S
O461 C451 1.272 . S
O461 Co453 2.135 . S
Co462 O463 2.216 . S
Co462 O464 2.091 . S
Co462 O466 2.004 . S
Co462 O472 2.021 . S
Co462 O474 2.137 . S
Co462 O475 2.244 . S
O463 Co462 2.216 . S
O463 C470 1.247 . S
O464 Co462 2.091 . S
O464 C470 1.261 . S
C465 O474 1.247 . S
C465 O475 1.272 . S
O466 Co462 2.004 . S
O466 C471 1.259 . S
Co467 O468 2.061 . S
Co467 O473 2.052 . S
Co467 O475 2.135 . S
O468 Co467 2.061 . S
O468 C471 1.235 . S
C469 O472 1.238 . S
C469 O473 1.241 . S
C470 O463 1.247 . S
C470 O464 1.261 . S
C471 O466 1.259 . S
C471 O468 1.235 . S
O472 Co462 2.021 . S
O472 C469 1.238 . S
O473 Co467 2.052 . S
O473 C469 1.241 . S
O474 Co462 2.137 . S
O474 C465 1.247 . S
O475 Co462 2.244 . S
O475 C465 1.272 . S
O475 Co467 2.135 . S
Co476 O477 2.216 . S
Co476 O478 2.091 . S
Co476 O480 2.004 . S
Co476 O486 2.021 . S
Co476 O488 2.137 . S
Co476 O489 2.244 . S
O477 Co476 2.216 . S
O477 C484 1.247 . S
O478 Co476 2.091 . S
O478 C484 1.261 . S
C479 O488 1.247 . S
C479 O489 1.272 . S
O480 Co476 2.004 . S
O480 C485 1.259 . S
Co481 O482 2.061 . S
Co481 O487 2.052 . S
Co481 O489 2.135 . S
O482 Co481 2.061 . S
O482 C485 1.235 . S
C483 O486 1.238 . S
C483 O487 1.241 . S
C484 O477 1.247 . S
C484 O478 1.261 . S
C485 O480 1.259 . S
C485 O482 1.235 . S
O486 Co476 2.021 . S
O486 C483 1.238 . S
O487 Co481 2.052 . S
O487 C483 1.241 . S
O488 Co476 2.137 . S
O488 C479 1.247 . S
O489 Co476 2.244 . S
O489 C479 1.272 . S
O489 Co481 2.135 . S
Co490 O491 2.216 . S
Co490 O492 2.091 . S
Co490 O494 2.004 . S
Co490 O500 2.021 . S
Co490 O502 2.137 . S
Co490 O503 2.244 . S
O491 Co490 2.216 . S
O491 C498 1.247 . S
O492 Co490 2.091 . S
O492 C498 1.261 . S
C493 O502 1.247 . S
C493 O503 1.272 . S
O494 Co490 2.004 . S
O494 C499 1.259 . S
Co495 O496 2.061 . S
Co495 O501 2.052 . S
Co495 O503 2.135 . S
O496 Co495 2.061 . S
O496 C499 1.235 . S
C497 O500 1.238 . S
C497 O501 1.241 . S
C498 O491 1.247 . S
C498 O492 1.261 . S
C499 O494 1.259 . S
C499 O496 1.235 . S
O500 Co490 2.021 . S
O500 C497 1.238 . S
O501 Co495 2.052 . S
O501 C497 1.241 . S
O502 Co490 2.137 . S
O502 C493 1.247 . S
O503 Co490 2.244 . S
O503 C493 1.272 . S
O503 Co495 2.135 . S
C504 C505 1.349 . S
C504 C506 1.327 . S
C504 H529 0.950 . S
C505 C504 1.349 . S
C505 C521 1.349 . S
C506 C504 1.327 . S
C506 C525 1.429 . S
C506 H530 0.950 . S
C507 C524 1.574 . S
C507 C526 1.368 . S
C507 H531 0.949 . S
H508 C512 0.949 . S
C509 C510 1.349 . S
C509 C511 1.327 . S
C509 H532 0.950 . S
C510 C509 1.349 . S
C510 C522 1.349 . S
C511 C509 1.327 . S
C511 C527 1.429 . S
C511 H533 0.950 . S
C512 H508 0.949 . S
C512 C520 1.574 . S
C512 C528 1.368 . S
H513 C521 0.950 . S
H514 C519 0.950 . S
H515 C520 0.949 . S
H516 C522 0.950 . S
H517 C523 0.950 . S
H518 C524 0.949 . S
C519 H514 0.950 . S
C519 C521 1.327 . S
C519 C525 1.429 . S
C520 C512 1.574 . S
C520 H515 0.949 . S
C520 C526 1.368 . S
C521 C505 1.349 . S
C521 H513 0.950 . S
C521 C519 1.327 . S
C522 C510 1.349 . S
C522 H516 0.950 . S
C522 C523 1.327 . S
C523 H517 0.950 . S
C523 C522 1.327 . S
C523 C527 1.429 . S
C524 C507 1.574 . S
C524 H518 0.949 . S
C524 C528 1.368 . S
C525 C506 1.429 . S
C525 C519 1.429 . S
C525 C526 1.523 . S
C526 C507 1.368 . S
C526 C520 1.368 . S
C526 C525 1.523 . S
C527 C511 1.429 . S
C527 C523 1.429 . S
C527 C528 1.523 . S
C528 C512 1.368 . S
C528 C524 1.368 . S
C528 C527 1.523 . S
H529 C504 0.950 . S
H530 C506 0.950 . S
H531 C507 0.949 . S
H532 C509 0.950 . S
H533 C511 0.950 . S
C534 C535 1.349 . S
C534 C536 1.327 . S
C534 H559 0.950 . S
C535 C534 1.349 . S
C535 C551 1.349 . S
C536 C534 1.327 . S
C536 C555 1.429 . S
C536 H560 0.950 . S
C537 C554 1.574 1_545 S
C537 C556 1.368 . S
C537 H561 0.949 . S
H538 C542 0.949 . S
C539 C540 1.349 . S
C539 C541 1.327 . S
C539 H562 0.950 . S
C540 C539 1.349 . S
C540 C552 1.349 . S
C541 C539 1.327 . S
C541 C557 1.429 . S
C541 H563 0.950 . S
C542 H538 0.949 . S
C542 C550 1.574 1_565 S
C542 C558 1.368 . S
H543 C551 0.950 . S
H544 C549 0.950 . S
H545 C550 0.949 . S
H546 C552 0.950 . S
H547 C553 0.950 . S
H548 C554 0.949 . S
C549 H544 0.950 . S
C549 C551 1.327 . S
C549 C555 1.429 . S
C550 C542 1.574 1_545 S
C550 H545 0.949 . S
C550 C556 1.368 . S
C551 C535 1.349 . S
C551 H543 0.950 . S
C551 C549 1.327 . S
C552 C540 1.349 . S
C552 H546 0.950 . S
C552 C553 1.327 . S
C553 H547 0.950 . S
C553 C552 1.327 . S
C553 C557 1.429 . S
C554 C537 1.574 1_565 S
C554 H548 0.949 . S
C554 C558 1.368 . S
C555 C536 1.429 . S
C555 C549 1.429 . S
C555 C556 1.523 . S
C556 C537 1.368 . S
C556 C550 1.368 . S
C556 C555 1.523 . S
C557 C541 1.429 . S
C557 C553 1.429 . S
C557 C558 1.523 . S
C558 C542 1.368 . S
C558 C554 1.368 . S
C558 C557 1.523 . S
H559 C534 0.950 . S
H560 C536 0.950 . S
H561 C537 0.949 . S
H562 C539 0.950 . S
H563 C541 0.950 . S
C564 C565 1.349 . S
C564 C566 1.327 . S
C564 H589 0.950 . S
C565 C564 1.349 . S
C565 C581 1.349 . S
C566 C564 1.327 . S
C566 C585 1.429 . S
C566 H590 0.950 . S
C567 C584 1.574 1_655 S
C567 C586 1.368 . S
C567 H591 0.949 . S
H568 C572 0.949 . S
C569 C570 1.349 . S
C569 C571 1.327 . S
C569 H592 0.950 . S
C570 C569 1.349 . S
C570 C582 1.349 . S
C571 C569 1.327 . S
C571 C587 1.429 . S
C571 H593 0.950 . S
C572 H568 0.949 . S
C572 C580 1.574 1_455 S
C572 C588 1.368 . S
H573 C581 0.950 . S
H574 C579 0.950 . S
H575 C580 0.949 . S
H576 C582 0.950 . S
H577 C583 0.950 . S
H578 C584 0.949 . S
C579 H574 0.950 . S
C579 C581 1.327 . S
C579 C585 1.429 . S
C580 C572 1.574 1_655 S
C580 H575 0.949 . S
C580 C586 1.368 . S
C581 C565 1.349 . S
C581 H573 0.950 . S
C581 C579 1.327 . S
C582 C570 1.349 . S
C582 H576 0.950 . S
C582 C583 1.327 . S
C583 H577 0.950 . S
C583 C582 1.327 . S
C583 C587 1.429 . S
C584 C567 1.574 1_455 S
C584 H578 0.949 . S
C584 C588 1.368 . S
C585 C566 1.429 . S
C585 C579 1.429 . S
C585 C586 1.523 . S
C586 C567 1.368 . S
C586 C580 1.368 . S
C586 C585 1.523 . S
C587 C571 1.429 . S
C587 C583 1.429 . S
C587 C588 1.523 . S
C588 C572 1.368 . S
C588 C584 1.368 . S
C588 C587 1.523 . S
H589 C564 0.950 . S
H590 C566 0.950 . S
H591 C567 0.949 . S
H592 C569 0.950 . S
H593 C571 0.950 . S
C594 C595 1.349 . S
C594 C596 1.327 . S
C594 H619 0.950 . S
C595 C594 1.349 . S
C595 C611 1.349 . S
C596 C594 1.327 . S
C596 C615 1.429 . S
C596 H620 0.950 . S
C597 C614 1.574 . S
C597 C616 1.368 . S
C597 H621 0.949 . S
H598 C602 0.949 . S
C599 C600 1.349 . S
C599 C601 1.327 . S
C599 H622 0.950 . S
C600 C599 1.349 . S
C600 C612 1.349 . S
C601 C599 1.327 . S
C601 C617 1.429 . S
C601 H623 0.950 . S
C602 H598 0.949 . S
C602 C610 1.574 . S
C602 C618 1.368 . S
H603 C611 0.950 . S
H604 C609 0.950 . S
H605 C610 0.949 . S
H606 C612 0.950 . S
H607 C613 0.950 . S
H608 C614 0.949 . S
C609 H604 0.950 . S
C609 C611 1.327 . S
C609 C615 1.429 . S
C610 C602 1.574 . S
C610 H605 0.949 . S
C610 C616 1.368 . S
C611 C595 1.349 . S
C611 H603 0.950 . S
C611 C609 1.327 . S
C612 C600 1.349 . S
C612 H606 0.950 . S
C612 C613 1.327 . S
C613 H607 0.950 . S
C613 C612 1.327 . S
C613 C617 1.429 . S
C614 C597 1.574 . S
C614 H608 0.949 . S
C614 C618 1.368 . S
C615 C596 1.429 . S
C615 C609 1.429 . S
C615 C616 1.523 . S
C616 C597 1.368 . S
C616 C610 1.368 . S
C616 C615 1.523 . S
C617 C601 1.429 . S
C617 C613 1.429 . S
C617 C618 1.523 . S
C618 C602 1.368 . S
C618 C614 1.368 . S
C618 C617 1.523 . S
H619 C594 0.950 . S
H620 C596 0.950 . S
H621 C597 0.949 . S
H622 C599 0.950 . S
H623 C601 0.950 . S
C624 C625 1.349 . S
C624 C626 1.327 . S
C624 H649 0.950 . S
C625 C624 1.349 . S
C625 C641 1.349 . S
C626 C624 1.327 . S
C626 C645 1.429 . S
C626 H650 0.950 . S
C627 C644 1.574 1_545 S
C627 C646 1.368 . S
C627 H651 0.949 . S
H628 C632 0.949 . S
C629 C630 1.349 . S
C629 C631 1.327 . S
C629 H652 0.950 . S
C630 C629 1.349 . S
C630 C642 1.349 . S
C631 C629 1.327 . S
C631 C647 1.429 . S
C631 H653 0.950 . S
C632 H628 0.949 . S
C632 C640 1.574 1_565 S
C632 C648 1.368 . S
H633 C641 0.950 . S
H634 C639 0.950 . S
H635 C640 0.949 . S
H636 C642 0.950 . S
H637 C643 0.950 . S
H638 C644 0.949 . S
C639 H634 0.950 . S
C639 C641 1.327 . S
C639 C645 1.429 . S
C640 C632 1.574 1_545 S
C640 H635 0.949 . S
C640 C646 1.368 . S
C641 C625 1.349 . S
C641 H633 0.950 . S
C641 C639 1.327 . S
C642 C630 1.349 . S
C642 H636 0.950 . S
C642 C643 1.327 . S
C643 H637 0.950 . S
C643 C642 1.327 . S
C643 C647 1.429 . S
C644 C627 1.574 1_565 S
C644 H638 0.949 . S
C644 C648 1.368 . S
C645 C626 1.429 . S
C645 C639 1.429 . S
C645 C646 1.523 . S
C646 C627 1.368 . S
C646 C640 1.368 . S
C646 C645 1.523 . S
C647 C631 1.429 . S
C647 C643 1.429 . S
C647 C648 1.523 . S
C648 C632 1.368 . S
C648 C644 1.368 . S
C648 C647 1.523 . S
H649 C624 0.950 . S
H650 C626 0.950 . S
H651 C627 0.949 . S
H652 C629 0.950 . S
H653 C631 0.950 . S
C654 C655 1.349 . S
C654 C656 1.327 . S
C654 H679 0.950 . S
C655 C654 1.349 . S
C655 C671 1.349 . S
C656 C654 1.327 . S
C656 C675 1.429 . S
C656 H680 0.950 . S
C657 C674 1.574 1_455 S
C657 C676 1.368 . S
C657 H681 0.949 . S
H658 C662 0.949 . S
C659 C660 1.349 . S
C659 C661 1.327 . S
C659 H682 0.950 . S
C660 C659 1.349 . S
C660 C672 1.349 . S
C661 C659 1.327 . S
C661 C677 1.429 . S
C661 H683 0.950 . S
C662 H658 0.949 . S
C662 C670 1.574 1_655 S
C662 C678 1.368 . S
H663 C671 0.950 . S
H664 C669 0.950 . S
H665 C670 0.949 . S
H666 C672 0.950 . S
H667 C673 0.950 . S
H668 C674 0.949 . S
C669 H664 0.950 . S
C669 C671 1.327 . S
C669 C675 1.429 . S
C670 C662 1.574 1_455 S
C670 H665 0.949 . S
C670 C676 1.368 . S
C671 C655 1.349 . S
C671 H663 0.950 . S
C671 C669 1.327 . S
C672 C660 1.349 . S
C672 H666 0.950 . S
C672 C673 1.327 . S
C673 H667 0.950 . S
C673 C672 1.327 . S
C673 C677 1.429 . S
C674 C657 1.574 1_655 S
C674 H668 0.949 . S
C674 C678 1.368 . S
C675 C656 1.429 . S
C675 C669 1.429 . S
C675 C676 1.523 . S
C676 C657 1.368 . S
C676 C670 1.368 . S
C676 C675 1.523 . S
C677 C661 1.429 . S
C677 C673 1.429 . S
C677 C678 1.523 . S
C678 C662 1.368 . S
C678 C674 1.368 . S
C678 C677 1.523 . S
H679 C654 0.950 . S
H680 C656 0.950 . S
H681 C657 0.949 . S
H682 C659 0.950 . S
H683 C661 0.950 . S
C684 C685 1.349 . S
C684 C686 1.327 . S
C684 H709 0.950 . S
C685 C684 1.349 . S
C685 C701 1.349 . S
C686 C684 1.327 . S
C686 C705 1.429 . S
C686 H710 0.950 . S
C687 C704 1.574 . S
C687 C706 1.368 . S
C687 H711 0.949 . S
H688 C692 0.949 . S
C689 C690 1.349 . S
C689 C691 1.327 . S
C689 H712 0.950 . S
C690 C689 1.349 . S
C690 C702 1.349 . S
C691 C689 1.327 . S
C691 C707 1.429 . S
C691 H713 0.950 . S
C692 H688 0.949 . S
C692 C700 1.574 . S
C692 C708 1.368 . S
H693 C701 0.950 . S
H694 C699 0.950 . S
H695 C700 0.949 . S
H696 C702 0.950 . S
H697 C703 0.950 . S
H698 C704 0.949 . S
C699 H694 0.950 . S
C699 C701 1.327 . S
C699 C705 1.429 . S
C700 C692 1.574 . S
C700 H695 0.949 . S
C700 C706 1.368 . S
C701 C685 1.349 . S
C701 H693 0.950 . S
C701 C699 1.327 . S
C702 C690 1.349 . S
C702 H696 0.950 . S
C702 C703 1.327 . S
C703 H697 0.950 . S
C703 C702 1.327 . S
C703 C707 1.429 . S
C704 C687 1.574 . S
C704 H698 0.949 . S
C704 C708 1.368 . S
C705 C686 1.429 . S
C705 C699 1.429 . S
C705 C706 1.523 . S
C706 C687 1.368 . S
C706 C700 1.368 . S
C706 C705 1.523 . S
C707 C691 1.429 . S
C707 C703 1.429 . S
C707 C708 1.523 . S
C708 C692 1.368 . S
C708 C704 1.368 . S
C708 C707 1.523 . S
H709 C684 0.950 . S
H710 C686 0.950 . S
H711 C687 0.949 . S
H712 C689 0.950 . S
H713 C691 0.950 . S
C714 C715 1.349 . S
C714 C716 1.327 . S
C714 H739 0.950 . S
C715 C714 1.349 . S
C715 C731 1.349 . S
C716 C714 1.327 . S
C716 C735 1.429 . S
C716 H740 0.950 . S
C717 C734 1.574 . S
C717 C736 1.368 . S
C717 H741 0.949 . S
H718 C722 0.949 . S
C719 C720 1.349 . S
C719 C721 1.327 . S
C719 H742 0.950 . S
C720 C719 1.349 . S
C720 C732 1.349 . S
C721 C719 1.327 . S
C721 C737 1.429 . S
C721 H743 0.950 . S
C722 H718 0.949 . S
C722 C730 1.574 . S
C722 C738 1.368 . S
H723 C731 0.950 . S
H724 C729 0.950 . S
H725 C730 0.949 . S
H726 C732 0.950 . S
H727 C733 0.950 . S
H728 C734 0.949 . S
C729 H724 0.950 . S
C729 C731 1.327 . S
C729 C735 1.429 . S
C730 C722 1.574 . S
C730 H725 0.949 . S
C730 C736 1.368 . S
C731 C715 1.349 . S
C731 H723 0.950 . S
C731 C729 1.327 . S
C732 C720 1.349 . S
C732 H726 0.950 . S
C732 C733 1.327 . S
C733 H727 0.950 . S
C733 C732 1.327 . S
C733 C737 1.429 . S
C734 C717 1.574 . S
C734 H728 0.949 . S
C734 C738 1.368 . S
C735 C716 1.429 . S
C735 C729 1.429 . S
C735 C736 1.523 . S
C736 C717 1.368 . S
C736 C730 1.368 . S
C736 C735 1.523 . S
C737 C721 1.429 . S
C737 C733 1.429 . S
C737 C738 1.523 . S
C738 C722 1.368 . S
C738 C734 1.368 . S
C738 C737 1.523 . S
H739 C714 0.950 . S
H740 C716 0.950 . S
H741 C717 0.949 . S
H742 C719 0.950 . S
H743 C721 0.950 . S
C744 C745 1.349 . S
C744 C746 1.327 . S
C744 H769 0.950 . S
C745 C744 1.349 . S
C745 C761 1.349 . S
C746 C744 1.327 . S
C746 C765 1.429 . S
C746 H770 0.950 . S
C747 C764 1.574 . S
C747 C766 1.368 . S
C747 H771 0.949 . S
H748 C752 0.949 . S
C749 C750 1.349 . S
C749 C751 1.327 . S
C749 H772 0.950 . S
C750 C749 1.349 . S
C750 C762 1.349 . S
C751 C749 1.327 . S
C751 C767 1.429 . S
C751 H773 0.950 . S
C752 H748 0.949 . S
C752 C760 1.574 . S
C752 C768 1.368 . S
H753 C761 0.950 . S
H754 C759 0.950 . S
H755 C760 0.949 . S
H756 C762 0.950 . S
H757 C763 0.950 . S
H758 C764 0.949 . S
C759 H754 0.950 . S
C759 C761 1.327 . S
C759 C765 1.429 . S
C760 C752 1.574 . S
C760 H755 0.949 . S
C760 C766 1.368 . S
C761 C745 1.349 . S
C761 H753 0.950 . S
C761 C759 1.327 . S
C762 C750 1.349 . S
C762 H756 0.950 . S
C762 C763 1.327 . S
C763 H757 0.950 . S
C763 C762 1.327 . S
C763 C767 1.429 . S
C764 C747 1.574 . S
C764 H758 0.949 . S
C764 C768 1.368 . S
C765 C746 1.429 . S
C765 C759 1.429 . S
C765 C766 1.523 . S
C766 C747 1.368 . S
C766 C760 1.368 . S
C766 C765 1.523 . S
C767 C751 1.429 . S
C767 C763 1.429 . S
C767 C768 1.523 . S
C768 C752 1.368 . S
C768 C764 1.368 . S
C768 C767 1.523 . S
H769 C744 0.950 . S
H770 C746 0.950 . S
H771 C747 0.949 . S
H772 C749 0.950 . S
H773 C751 0.950 . S
C774 C775 1.349 . S
C774 C776 1.327 . S
C774 H799 0.950 . S
C775 C774 1.349 . S
C775 C791 1.349 . S
C776 C774 1.327 . S
C776 C795 1.429 . S
C776 H800 0.950 . S
C777 C794 1.574 . S
C777 C796 1.368 . S
C777 H801 0.949 . S
H778 C782 0.949 . S
C779 C780 1.349 . S
C779 C781 1.327 . S
C779 H802 0.950 . S
C780 C779 1.349 . S
C780 C792 1.349 . S
C781 C779 1.327 . S
C781 C797 1.429 . S
C781 H803 0.950 . S
C782 H778 0.949 . S
C782 C790 1.574 . S
C782 C798 1.368 . S
H783 C791 0.950 . S
H784 C789 0.950 . S
H785 C790 0.949 . S
H786 C792 0.950 1_556 S
H787 C793 0.950 . S
H788 C794 0.949 . S
C789 H784 0.950 . S
C789 C791 1.327 . S
C789 C795 1.429 . S
C790 C782 1.574 . S
C790 H785 0.949 . S
C790 C796 1.368 . S
C791 C775 1.349 . S
C791 H783 0.950 . S
C791 C789 1.327 . S
C792 C780 1.349 . S
C792 H786 0.950 1_554 S
C792 C793 1.327 . S
C793 H787 0.950 . S
C793 C792 1.327 . S
C793 C797 1.429 . S
C794 C777 1.574 . S
C794 H788 0.949 . S
C794 C798 1.368 . S
C795 C776 1.429 . S
C795 C789 1.429 . S
C795 C796 1.523 . S
C796 C777 1.368 . S
C796 C790 1.368 . S
C796 C795 1.523 . S
C797 C781 1.429 . S
C797 C793 1.429 . S
C797 C798 1.523 . S
C798 C782 1.368 . S
C798 C794 1.368 . S
C798 C797 1.523 . S
H799 C774 0.950 . S
H800 C776 0.950 . S
H801 C777 0.949 . S
H802 C779 0.950 . S
H803 C781 0.950 . S
C804 C805 1.349 . S
C804 C806 1.327 . S
C804 H829 0.950 1_554 S
C805 C804 1.349 . S
C805 C821 1.349 . S
C806 C804 1.327 . S
C806 C825 1.429 . S
C806 H830 0.965 . S
C807 C824 1.574 . S
C807 C826 1.368 . S
C807 H831 0.949 . S
H808 C812 0.949 . S
C809 C810 1.349 . S
C809 C811 1.327 . S
C809 H832 0.950 . S
C810 C809 1.349 . S
C810 C822 1.349 . S
C811 C809 1.327 . S
C811 C827 1.429 . S
C811 H833 0.950 . S
C812 H808 0.949 . S
C812 C820 1.574 . S
C812 C828 1.368 . S
H813 C821 0.950 . S
H814 C819 0.950 . S
H815 C820 0.949 . S
H816 C822 0.950 . S
H817 C823 0.950 . S
H818 C824 0.949 . S
C819 H814 0.950 . S
C819 C821 1.327 . S
C819 C825 1.429 . S
C820 C812 1.574 . S
C820 H815 0.949 . S
C820 C826 1.368 . S
C821 C805 1.349 . S
C821 H813 0.950 . S
C821 C819 1.327 . S
C822 C810 1.349 . S
C822 H816 0.950 . S
C822 C823 1.327 . S
C823 H817 0.950 . S
C823 C822 1.327 . S
C823 C827 1.429 . S
C824 C807 1.574 . S
C824 H818 0.949 . S
C824 C828 1.368 . S
C825 C806 1.429 . S
C825 C819 1.429 . S
C825 C826 1.523 . S
C826 C807 1.368 . S
C826 C820 1.368 . S
C826 C825 1.523 . S
C827 C811 1.429 . S
C827 C823 1.429 . S
C827 C828 1.523 . S
C828 C812 1.368 . S
C828 C824 1.368 . S
C828 C827 1.523 . S
H829 C804 0.950 1_556 S
H830 C806 0.965 . S
H831 C807 0.949 . S
H832 C809 0.950 . S
H833 C811 0.950 . S
C834 C835 1.349 . S
C834 C836 1.327 . S
C834 H859 0.950 . S
C835 C834 1.349 . S
C835 C851 1.349 . S
C836 C834 1.327 . S
C836 C855 1.429 . S
C836 H860 0.950 . S
C837 C854 1.574 . S
C837 C856 1.368 . S
C837 H861 0.949 . S
H838 C842 0.949 . S
C839 C840 1.349 . S
C839 C841 1.327 . S
C839 H862 0.950 . S
C840 C839 1.349 . S
C840 C852 1.349 . S
C841 C839 1.327 . S
C841 C857 1.429 . S
C841 H863 0.950 . S
C842 H838 0.949 . S
C842 C850 1.574 . S
C842 C858 1.368 . S
H843 C851 0.950 . S
H844 C849 0.950 . S
H845 C850 0.949 . S
H846 C852 0.950 1_556 S
H847 C853 0.950 1_556 S
H848 C854 0.949 . S
C849 H844 0.950 . S
C849 C851 1.327 . S
C849 C855 1.429 . S
C850 C842 1.574 . S
C850 H845 0.949 . S
C850 C856 1.368 . S
C851 C835 1.349 . S
C851 H843 0.950 . S
C851 C849 1.327 . S
C852 C840 1.349 . S
C852 H846 0.950 1_554 S
C852 C853 1.327 . S
C853 H847 0.950 1_554 S
C853 C852 1.327 . S
C853 C857 1.429 . S
C854 C837 1.574 . S
C854 H848 0.949 . S
C854 C858 1.368 . S
C855 C836 1.429 . S
C855 C849 1.429 . S
C855 C856 1.523 . S
C856 C837 1.368 . S
C856 C850 1.368 . S
C856 C855 1.523 . S
C857 C841 1.429 . S
C857 C853 1.429 . S
C857 C858 1.523 . S
C858 C842 1.368 . S
C858 C854 1.368 . S
C858 C857 1.523 . S
H859 C834 0.950 . S
H860 C836 0.950 . S
H861 C837 0.949 . S
H862 C839 0.950 . S
H863 C841 0.950 . S
C864 C865 1.349 . S
C864 C866 1.327 . S
C864 H889 0.950 . S
C865 C864 1.349 . S
C865 C881 1.349 . S
C866 C864 1.327 . S
C866 C885 1.429 . S
C866 H890 0.950 . S
C867 C884 1.574 . S
C867 C886 1.368 . S
C867 H891 0.949 . S
H868 C872 0.949 . S
C869 C870 1.349 . S
C869 C871 1.327 . S
C869 H892 0.950 1_556 S
C870 C869 1.349 . S
C870 C882 1.349 . S
C871 C869 1.327 . S
C871 C887 1.429 . S
C871 H893 0.950 . S
C872 H868 0.949 . S
C872 C880 1.574 . S
C872 C888 1.368 . S
H873 C881 0.950 . S
H874 C879 0.950 . S
H875 C880 0.949 . S
H876 C882 0.950 . S
H877 C883 0.950 . S
H878 C884 0.949 . S
C879 H874 0.950 . S
C879 C881 1.327 . S
C879 C885 1.429 . S
C880 C872 1.574 . S
C880 H875 0.949 . S
C880 C886 1.368 . S
C881 C865 1.349 . S
C881 H873 0.950 . S
C881 C879 1.327 . S
C882 C870 1.349 . S
C882 H876 0.950 . S
C882 C883 1.327 . S
C883 H877 0.950 . S
C883 C882 1.327 . S
C883 C887 1.429 . S
C884 C867 1.574 . S
C884 H878 0.949 . S
C884 C888 1.368 . S
C885 C866 1.429 . S
C885 C879 1.429 . S
C885 C886 1.523 . S
C886 C867 1.368 . S
C886 C880 1.368 . S
C886 C885 1.523 . S
C887 C871 1.429 . S
C887 C883 1.429 . S
C887 C888 1.523 . S
C888 C872 1.368 . S
C888 C884 1.368 . S
C888 C887 1.523 . S
H889 C864 0.950 . S
H890 C866 0.950 . S
H891 C867 0.949 . S
H892 C869 0.950 1_554 S
H893 C871 0.950 . S
C894 C895 1.349 . S
C894 C896 1.327 . S
C894 H919 0.950 . S
C895 C894 1.349 . S
C895 C911 1.349 . S
C896 C894 1.327 . S
C896 C915 1.429 . S
C896 H920 0.950 . S
C897 C914 1.574 . S
C897 C916 1.368 . S
C897 H921 0.949 . S
H898 C902 0.949 . S
C899 C900 1.349 . S
C899 C901 1.327 . S
C899 H922 0.950 . S
C900 C899 1.349 . S
C900 C912 1.349 . S
C901 C899 1.327 . S
C901 C917 1.429 . S
C901 H923 0.950 . S
C902 H898 0.949 . S
C902 C910 1.574 . S
C902 C918 1.368 . S
H903 C911 0.950 . S
H904 C909 0.950 . S
H905 C910 0.949 . S
H906 C912 0.950 . S
H907 C913 0.950 . S
H908 C914 0.949 . S
C909 H904 0.950 . S
C909 C911 1.327 . S
C909 C915 1.429 . S
C910 C902 1.574 . S
C910 H905 0.949 . S
C910 C916 1.368 . S
C911 C895 1.349 . S
C911 H903 0.950 . S
C911 C909 1.327 . S
C912 C900 1.349 . S
C912 H906 0.950 . S
C912 C913 1.327 . S
C913 H907 0.950 . S
C913 C912 1.327 . S
C913 C917 1.429 . S
C914 C897 1.574 . S
C914 H908 0.949 . S
C914 C918 1.368 . S
C915 C896 1.429 . S
C915 C909 1.429 . S
C915 C916 1.523 . S
C916 C897 1.368 . S
C916 C910 1.368 . S
C916 C915 1.523 . S
C917 C901 1.429 . S
C917 C913 1.429 . S
C917 C918 1.523 . S
C918 C902 1.368 . S
C918 C914 1.368 . S
C918 C917 1.523 . S
H919 C894 0.950 . S
H920 C896 0.950 . S
H921 C897 0.949 . S
H922 C899 0.950 . S
H923 C901 0.950 . S
C924 C925 1.349 . S
C924 C926 1.327 . S
C924 H949 0.950 . S
C925 C924 1.349 . S
C925 C941 1.349 . S
C926 C924 1.327 . S
C926 C945 1.429 . S
C926 H950 0.950 . S
C927 C944 1.574 . S
C927 C946 1.368 . S
C927 H951 0.949 . S
H928 C932 0.949 . S
C929 C930 1.349 . S
C929 C931 1.327 . S
C929 H952 0.950 . S
C930 C929 1.349 . S
C930 C942 1.349 . S
C931 C929 1.327 . S
C931 C947 1.429 . S
C931 H953 0.950 . S
C932 H928 0.949 . S
C932 C940 1.574 . S
C932 C948 1.368 . S
H933 C941 0.950 1_554 S
H934 C939 0.950 1_554 S
H935 C940 0.949 . S
H936 C942 0.950 . S
H937 C943 0.950 . S
H938 C944 0.949 . S
C939 H934 0.950 1_556 S
C939 C941 1.327 . S
C939 C945 1.429 . S
C940 C932 1.574 . S
C940 H935 0.949 . S
C940 C946 1.368 . S
C941 C925 1.349 . S
C941 H933 0.950 1_556 S
C941 C939 1.327 . S
C942 C930 1.349 . S
C942 H936 0.950 . S
C942 C943 1.327 . S
C943 H937 0.950 . S
C943 C942 1.327 . S
C943 C947 1.429 . S
C944 C927 1.574 . S
C944 H938 0.949 . S
C944 C948 1.368 . S
C945 C926 1.429 . S
C945 C939 1.429 . S
C945 C946 1.523 . S
C946 C927 1.368 . S
C946 C940 1.368 . S
C946 C945 1.523 . S
C947 C931 1.429 . S
C947 C943 1.429 . S
C947 C948 1.523 . S
C948 C932 1.368 . S
C948 C944 1.368 . S
C948 C947 1.523 . S
H949 C924 0.950 . S
H950 C926 0.950 . S
H951 C927 0.949 . S
H952 C929 0.950 . S
H953 C931 0.950 . S
C954 C955 1.349 . S
C954 C956 1.327 . S
C954 H979 0.950 . S
C955 C954 1.349 . S
C955 C971 1.349 . S
C956 C954 1.327 . S
C956 C975 1.429 . S
C956 H980 0.950 . S
C957 C974 1.574 . S
C957 C976 1.368 . S
C957 H981 0.949 . S
H958 C962 0.949 . S
C959 C960 1.349 . S
C959 C961 1.327 . S
C959 H982 0.950 . S
C960 C959 1.349 . S
C960 C972 1.349 . S
C961 C959 1.327 . S
C961 C977 1.429 . S
C961 H983 0.950 . S
C962 H958 0.949 . S
C962 C970 1.574 . S
C962 C978 1.368 . S
H963 C971 0.950 . S
H964 C969 0.950 . S
H965 C970 0.949 . S
H966 C972 0.950 . S
H967 C973 0.950 . S
H968 C974 0.949 . S
C969 H964 0.950 . S
C969 C971 1.327 . S
C969 C975 1.429 . S
C970 C962 1.574 . S
C970 H965 0.949 . S
C970 C976 1.368 . S
C971 C955 1.349 . S
C971 H963 0.950 . S
C971 C969 1.327 . S
C972 C960 1.349 . S
C972 H966 0.950 . S
C972 C973 1.327 . S
C973 H967 0.950 . S
C973 C972 1.327 . S
C973 C977 1.429 . S
C974 C957 1.574 . S
C974 H968 0.949 . S
C974 C978 1.368 . S
C975 C956 1.429 . S
C975 C969 1.429 . S
C975 C976 1.523 . S
C976 C957 1.368 . S
C976 C970 1.368 . S
C976 C975 1.523 . S
C977 C961 1.429 . S
C977 C973 1.429 . S
C977 C978 1.523 . S
C978 C962 1.368 . S
C978 C974 1.368 . S
C978 C977 1.523 . S
H979 C954 0.950 . S
H980 C956 0.950 . S
H981 C957 0.949 . S
H982 C959 0.950 . S
H983 C961 0.950 . S
C984 C985 1.349 . S
C984 C986 1.327 . S
C984 H1009 0.950 . S
C985 C984 1.349 . S
C985 C1001 1.349 . S
C986 C984 1.327 . S
C986 C1005 1.429 . S
C986 H1010 0.950 . S
C987 C1004 1.574 . S
C987 C1006 1.368 . S
C987 H1011 0.949 . S
H988 C992 0.949 . S
C989 C990 1.349 . S
C989 C991 1.327 . S
C989 H1012 0.950 . S
C990 C989 1.349 . S
C990 C1002 1.349 . S
C991 C989 1.327 . S
C991 C1007 1.429 . S
C991 H1013 0.950 . S
C992 H988 0.949 . S
C992 C1000 1.574 . S
C992 C1008 1.368 . S
H993 C1001 0.950 . S
H994 C999 0.950 . S
H995 C1000 0.949 . S
H996 C1002 0.950 . S
H997 C1003 0.950 . S
H998 C1004 0.949 . S
C999 H994 0.950 . S
C999 C1001 1.327 . S
C999 C1005 1.429 . S
C1000 C992 1.574 . S
C1000 H995 0.949 . S
C1000 C1006 1.368 . S
C1001 C985 1.349 . S
C1001 H993 0.950 . S
C1001 C999 1.327 . S
C1002 C990 1.349 . S
C1002 H996 0.950 . S
C1002 C1003 1.327 . S
C1003 H997 0.950 . S
C1003 C1002 1.327 . S
C1003 C1007 1.429 . S
C1004 C987 1.574 . S
C1004 H998 0.949 . S
C1004 C1008 1.368 . S
C1005 C986 1.429 . S
C1005 C999 1.429 . S
C1005 C1006 1.523 . S
C1006 C987 1.368 . S
C1006 C1000 1.368 . S
C1006 C1005 1.523 . S
C1007 C991 1.429 . S
C1007 C1003 1.429 . S
C1007 C1008 1.523 . S
C1008 C992 1.368 . S
C1008 C1004 1.368 . S
C1008 C1007 1.523 . S
H1009 C984 0.950 . S
H1010 C986 0.950 . S
H1011 C987 0.949 . S
H1012 C989 0.950 . S
H1013 C991 0.950 . S
C1014 C1015 1.349 . S
C1014 C1016 1.327 . S
C1014 H1039 0.950 . S
C1015 C1014 1.349 . S
C1015 C1031 1.349 . S
C1016 C1014 1.327 . S
C1016 C1035 1.429 . S
C1016 H1040 0.950 . S
C1017 C1034 1.574 . S
C1017 C1036 1.368 . S
C1017 H1041 0.949 . S
H1018 C1022 0.949 . S
C1019 C1020 1.349 . S
C1019 C1021 1.327 . S
C1019 H1042 0.950 . S
C1020 C1019 1.349 . S
C1020 C1032 1.349 . S
C1021 C1019 1.327 . S
C1021 C1037 1.429 . S
C1021 H1043 0.950 . S
C1022 H1018 0.949 . S
C1022 C1030 1.574 . S
C1022 C1038 1.368 . S
H1023 C1031 0.950 . S
H1024 C1029 0.950 . S
H1025 C1030 0.949 . S
H1026 C1032 0.950 . S
H1027 C1033 0.950 . S
H1028 C1034 0.949 . S
C1029 H1024 0.950 . S
C1029 C1031 1.327 . S
C1029 C1035 1.429 . S
C1030 C1022 1.574 . S
C1030 H1025 0.949 . S
C1030 C1036 1.368 . S
C1031 C1015 1.349 . S
C1031 H1023 0.950 . S
C1031 C1029 1.327 . S
C1032 C1020 1.349 . S
C1032 H1026 0.950 . S
C1032 C1033 1.327 . S
C1033 H1027 0.950 . S
C1033 C1032 1.327 . S
C1033 C1037 1.429 . S
C1034 C1017 1.574 . S
C1034 H1028 0.949 . S
C1034 C1038 1.368 . S
C1035 C1016 1.429 . S
C1035 C1029 1.429 . S
C1035 C1036 1.523 . S
C1036 C1017 1.368 . S
C1036 C1030 1.368 . S
C1036 C1035 1.523 . S
C1037 C1021 1.429 . S
C1037 C1033 1.429 . S
C1037 C1038 1.523 . S
C1038 C1022 1.368 . S
C1038 C1034 1.368 . S
C1038 C1037 1.523 . S
H1039 C1014 0.950 . S
H1040 C1016 0.950 . S
H1041 C1017 0.949 . S
H1042 C1019 0.950 . S
H1043 C1021 0.950 . S
C1044 C1045 1.349 . S
C1044 C1046 1.327 . S
C1044 H1069 0.950 . S
C1045 C1044 1.349 . S
C1045 C1061 1.349 . S
C1046 C1044 1.327 . S
C1046 C1065 1.429 . S
C1046 H1070 0.950 . S
C1047 C1064 1.574 . S
C1047 C1066 1.368 . S
C1047 H1071 0.949 . S
H1048 C1052 0.949 . S
C1049 C1050 1.349 . S
C1049 C1051 1.327 1_554 S
C1049 H1072 0.950 . S
C1050 C1049 1.349 . S
C1050 C1062 1.349 . S
C1051 C1049 1.327 1_556 S
C1051 C1067 1.429 . S
C1051 H1073 0.950 . S
C1052 H1048 0.949 . S
C1052 C1060 1.574 . S
C1052 C1068 1.368 . S
H1053 C1061 0.950 . S
H1054 C1059 0.950 . S
H1055 C1060 0.949 . S
H1056 C1062 0.950 . S
H1057 C1063 0.950 . S
H1058 C1064 0.949 . S
C1059 H1054 0.950 . S
C1059 C1061 1.327 . S
C1059 C1065 1.429 . S
C1060 C1052 1.574 . S
C1060 H1055 0.949 . S
C1060 C1066 1.368 . S
C1061 C1045 1.349 . S
C1061 H1053 0.950 . S
C1061 C1059 1.327 . S
C1062 C1050 1.349 . S
C1062 H1056 0.950 . S
C1062 C1063 1.327 . S
C1063 H1057 0.950 . S
C1063 C1062 1.327 . S
C1063 C1067 1.429 1_554 S
C1064 C1047 1.574 . S
C1064 H1058 0.949 . S
C1064 C1068 1.368 . S
C1065 C1046 1.429 . S
C1065 C1059 1.429 . S
C1065 C1066 1.523 . S
C1066 C1047 1.368 . S
C1066 C1060 1.368 . S
C1066 C1065 1.523 . S
C1067 C1051 1.429 . S
C1067 C1063 1.429 1_556 S
C1067 C1068 1.523 . S
C1068 C1052 1.368 . S
C1068 C1064 1.368 . S
C1068 C1067 1.523 . S
H1069 C1044 0.950 . S
H1070 C1046 0.950 . S
H1071 C1047 0.949 . S
H1072 C1049 0.950 . S
H1073 C1051 0.950 . S
C1074 C1075 1.349 . S
C1074 C1076 1.327 . S
C1074 H1099 0.950 . S
C1075 C1074 1.349 . S
C1075 C1091 1.349 . S
C1076 C1074 1.327 . S
C1076 C1095 1.429 1_554 S
C1076 H1100 0.950 . S
C1077 C1094 1.574 . S
C1077 C1096 1.368 . S
C1077 H1101 0.949 . S
H1078 C1082 0.949 . S
C1079 C1080 1.349 . S
C1079 C1081 1.327 . S
C1079 H1102 0.950 . S
C1080 C1079 1.349 . S
C1080 C1092 1.349 . S
C1081 C1079 1.327 . S
C1081 C1097 1.429 . S
C1081 H1103 0.950 . S
C1082 H1078 0.949 . S
C1082 C1090 1.574 . S
C1082 C1098 1.368 . S
H1083 C1091 0.950 . S
H1084 C1089 0.950 . S
H1085 C1090 0.949 . S
H1086 C1092 0.950 . S
H1087 C1093 0.950 . S
H1088 C1094 0.949 . S
C1089 H1084 0.950 . S
C1089 C1091 1.327 1_556 S
C1089 C1095 1.429 . S
C1090 C1082 1.574 . S
C1090 H1085 0.949 . S
C1090 C1096 1.368 . S
C1091 C1075 1.349 . S
C1091 H1083 0.950 . S
C1091 C1089 1.327 1_554 S
C1092 C1080 1.349 . S
C1092 H1086 0.950 . S
C1092 C1093 1.327 . S
C1093 H1087 0.950 . S
C1093 C1092 1.327 . S
C1093 C1097 1.429 . S
C1094 C1077 1.574 . S
C1094 H1088 0.949 . S
C1094 C1098 1.368 . S
C1095 C1076 1.429 1_556 S
C1095 C1089 1.429 . S
C1095 C1096 1.523 . S
C1096 C1077 1.368 . S
C1096 C1090 1.368 . S
C1096 C1095 1.523 . S
C1097 C1081 1.429 . S
C1097 C1093 1.429 . S
C1097 C1098 1.523 . S
C1098 C1082 1.368 . S
C1098 C1094 1.368 . S
C1098 C1097 1.523 . S
H1099 C1074 0.950 . S
H1100 C1076 0.950 . S
H1101 C1077 0.949 . S
H1102 C1079 0.950 . S
H1103 C1081 0.950 . S
C1104 C1105 1.349 . S
C1104 C1106 1.327 1_554 S
C1104 H1129 0.950 . S
C1105 C1104 1.349 . S
C1105 C1121 1.349 . S
C1106 C1104 1.327 1_556 S
C1106 C1125 1.429 . S
C1106 H1130 0.950 . S
C1107 C1124 1.574 . S
C1107 C1126 1.368 . S
C1107 H1131 0.949 . S
H1108 C1112 0.949 . S
C1109 C1110 1.349 . S
C1109 C1111 1.327 . S
C1109 H1132 0.950 . S
C1110 C1109 1.349 . S
C1110 C1122 1.349 . S
C1111 C1109 1.327 . S
C1111 C1127 1.429 . S
C1111 H1133 0.950 . S
C1112 H1108 0.949 . S
C1112 C1120 1.574 . S
C1112 C1128 1.368 . S
H1113 C1121 0.950 . S
H1114 C1119 0.950 . S
H1115 C1120 0.949 . S
H1116 C1122 0.950 . S
H1117 C1123 0.950 . S
H1118 C1124 0.949 . S
C1119 H1114 0.950 . S
C1119 C1121 1.327 . S
C1119 C1125 1.429 1_554 S
C1120 C1112 1.574 . S
C1120 H1115 0.949 . S
C1120 C1126 1.368 . S
C1121 C1105 1.349 . S
C1121 H1113 0.950 . S
C1121 C1119 1.327 . S
C1122 C1110 1.349 . S
C1122 H1116 0.950 . S
C1122 C1123 1.327 . S
C1123 H1117 0.950 . S
C1123 C1122 1.327 . S
C1123 C1127 1.429 . S
C1124 C1107 1.574 . S
C1124 H1118 0.949 . S
C1124 C1128 1.368 . S
C1125 C1106 1.429 . S
C1125 C1119 1.429 1_556 S
C1125 C1126 1.523 . S
C1126 C1107 1.368 . S
C1126 C1120 1.368 . S
C1126 C1125 1.523 . S
C1127 C1111 1.429 . S
C1127 C1123 1.429 . S
C1127 C1128 1.523 . S
C1128 C1112 1.368 . S
C1128 C1124 1.368 . S
C1128 C1127 1.523 . S
H1129 C1104 0.950 . S
H1130 C1106 0.950 . S
H1131 C1107 0.949 . S
H1132 C1109 0.950 . S
H1133 C1111 0.950 . S
C1134 C1135 1.349 . S
C1134 C1136 1.327 . S
C1134 H1159 0.950 . S
C1135 C1134 1.349 . S
C1135 C1151 1.349 . S
C1136 C1134 1.327 . S
C1136 C1155 1.429 . S
C1136 H1160 0.950 . S
C1137 C1154 1.574 . S
C1137 C1156 1.368 . S
C1137 H1161 0.949 . S
H1138 C1142 0.949 . S
C1139 C1140 1.349 . S
C1139 C1141 1.327 . S
C1139 H1162 0.950 . S
C1140 C1139 1.349 . S
C1140 C1152 1.349 . S
C1141 C1139 1.327 . S
C1141 C1157 1.429 . S
C1141 H1163 0.950 . S
C1142 H1138 0.949 . S
C1142 C1150 1.574 . S
C1142 C1158 1.368 . S
H1143 C1151 0.950 . S
H1144 C1149 0.950 . S
H1145 C1150 0.949 . S
H1146 C1152 0.950 . S
H1147 C1153 0.950 . S
H1148 C1154 0.949 . S
C1149 H1144 0.950 . S
C1149 C1151 1.327 . S
C1149 C1155 1.429 . S
C1150 C1142 1.574 . S
C1150 H1145 0.949 . S
C1150 C1156 1.368 . S
C1151 C1135 1.349 . S
C1151 H1143 0.950 . S
C1151 C1149 1.327 . S
C1152 C1140 1.349 . S
C1152 H1146 0.950 . S
C1152 C1153 1.327 . S
C1153 H1147 0.950 . S
C1153 C1152 1.327 . S
C1153 C1157 1.429 . S
C1154 C1137 1.574 . S
C1154 H1148 0.949 . S
C1154 C1158 1.368 . S
C1155 C1136 1.429 . S
C1155 C1149 1.429 . S
C1155 C1156 1.523 . S
C1156 C1137 1.368 . S
C1156 C1150 1.368 . S
C1156 C1155 1.523 . S
C1157 C1141 1.429 . S
C1157 C1153 1.429 . S
C1157 C1158 1.523 . S
C1158 C1142 1.368 . S
C1158 C1154 1.368 . S
C1158 C1157 1.523 . S
H1159 C1134 0.950 . S
H1160 C1136 0.950 . S
H1161 C1137 0.949 . S
H1162 C1139 0.950 . S
H1163 C1141 0.950 . S
C1164 C1165 1.349 . S
C1164 C1166 1.327 . S
C1164 H1189 0.950 . S
C1165 C1164 1.349 . S
C1165 C1181 1.349 . S
C1166 C1164 1.327 . S
C1166 C1185 1.429 . S
C1166 H1190 0.950 . S
C1167 C1184 1.574 . S
C1167 C1186 1.368 . S
C1167 H1191 0.949 . S
H1168 C1172 0.949 . S
C1169 C1170 1.349 . S
C1169 C1171 1.327 . S
C1169 H1192 0.950 . S
C1170 C1169 1.349 . S
C1170 C1182 1.349 . S
C1171 C1169 1.327 . S
C1171 C1187 1.429 . S
C1171 H1193 0.950 . S
C1172 H1168 0.949 . S
C1172 C1180 1.574 . S
C1172 C1188 1.368 . S
H1173 C1181 0.950 . S
H1174 C1179 0.950 . S
H1175 C1180 0.949 . S
H1176 C1182 0.950 . S
H1177 C1183 0.950 . S
H1178 C1184 0.949 . S
C1179 H1174 0.950 . S
C1179 C1181 1.327 . S
C1179 C1185 1.429 . S
C1180 C1172 1.574 . S
C1180 H1175 0.949 . S
C1180 C1186 1.368 . S
C1181 C1165 1.349 . S
C1181 H1173 0.950 . S
C1181 C1179 1.327 . S
C1182 C1170 1.349 . S
C1182 H1176 0.950 . S
C1182 C1183 1.327 . S
C1183 H1177 0.950 . S
C1183 C1182 1.327 . S
C1183 C1187 1.429 . S
C1184 C1167 1.574 . S
C1184 H1178 0.949 . S
C1184 C1188 1.368 . S
C1185 C1166 1.429 . S
C1185 C1179 1.429 . S
C1185 C1186 1.523 . S
C1186 C1167 1.368 . S
C1186 C1180 1.368 . S
C1186 C1185 1.523 . S
C1187 C1171 1.429 . S
C1187 C1183 1.429 . S
C1187 C1188 1.523 . S
C1188 C1172 1.368 . S
C1188 C1184 1.368 . S
C1188 C1187 1.523 . S
H1189 C1164 0.950 . S
H1190 C1166 0.950 . S
H1191 C1167 0.949 . S
H1192 C1169 0.950 . S
H1193 C1171 0.950 . S
C1194 C1195 1.349 . S
C1194 C1196 1.327 . S
C1194 H1219 0.950 . S
C1195 C1194 1.349 . S
C1195 C1211 1.349 . S
C1196 C1194 1.327 . S
C1196 C1215 1.429 . S
C1196 H1220 0.950 . S
C1197 C1214 1.574 . S
C1197 C1216 1.368 . S
C1197 H1221 0.949 . S
H1198 C1202 0.949 . S
C1199 C1200 1.349 . S
C1199 C1201 1.327 . S
C1199 H1222 0.950 . S
C1200 C1199 1.349 . S
C1200 C1212 1.349 . S
C1201 C1199 1.327 . S
C1201 C1217 1.429 . S
C1201 H1223 0.950 . S
C1202 H1198 0.949 . S
C1202 C1210 1.574 . S
C1202 C1218 1.368 . S
H1203 C1211 0.950 . S
H1204 C1209 0.950 . S
H1205 C1210 0.949 . S
H1206 C1212 0.950 . S
H1207 C1213 0.950 . S
H1208 C1214 0.949 . S
C1209 H1204 0.950 . S
C1209 C1211 1.327 . S
C1209 C1215 1.429 . S
C1210 C1202 1.574 . S
C1210 H1205 0.949 . S
C1210 C1216 1.368 . S
C1211 C1195 1.349 . S
C1211 H1203 0.950 . S
C1211 C1209 1.327 . S
C1212 C1200 1.349 . S
C1212 H1206 0.950 . S
C1212 C1213 1.327 . S
C1213 H1207 0.950 . S
C1213 C1212 1.327 . S
C1213 C1217 1.429 . S
C1214 C1197 1.574 . S
C1214 H1208 0.949 . S
C1214 C1218 1.368 . S
C1215 C1196 1.429 . S
C1215 C1209 1.429 . S
C1215 C1216 1.523 . S
C1216 C1197 1.368 . S
C1216 C1210 1.368 . S
C1216 C1215 1.523 . S
C1217 C1201 1.429 . S
C1217 C1213 1.429 . S
C1217 C1218 1.523 . S
C1218 C1202 1.368 . S
C1218 C1214 1.368 . S
C1218 C1217 1.523 . S
H1219 C1194 0.950 . S
H1220 C1196 0.950 . S
H1221 C1197 0.949 . S
H1222 C1199 0.950 . S
H1223 C1201 0.950 . S
C1224 C1225 1.349 . S
C1224 C1226 1.327 . S
C1224 H1249 0.950 . S
C1225 C1224 1.349 . S
C1225 C1241 1.349 . S
C1226 C1224 1.327 . S
C1226 C1245 1.429 1_556 S
C1226 H1250 0.950 . S
C1227 C1244 1.574 . S
C1227 C1246 1.368 . S
C1227 H1251 0.949 . S
H1228 C1232 0.949 . S
C1229 C1230 1.349 . S
C1229 C1231 1.327 . S
C1229 H1252 0.950 . S
C1230 C1229 1.349 . S
C1230 C1242 1.349 . S
C1231 C1229 1.327 . S
C1231 C1247 1.429 . S
C1231 H1253 0.950 . S
C1232 H1228 0.949 . S
C1232 C1240 1.574 . S
C1232 C1248 1.368 . S
H1233 C1241 0.950 . S
H1234 C1239 0.950 . S
H1235 C1240 0.949 . S
H1236 C1242 0.950 . S
H1237 C1243 0.950 . S
H1238 C1244 0.949 . S
C1239 H1234 0.950 . S
C1239 C1241 1.327 1_554 S
C1239 C1245 1.429 . S
C1240 C1232 1.574 . S
C1240 H1235 0.949 . S
C1240 C1246 1.368 . S
C1241 C1225 1.349 . S
C1241 H1233 0.950 . S
C1241 C1239 1.327 1_556 S
C1242 C1230 1.349 . S
C1242 H1236 0.950 . S
C1242 C1243 1.327 . S
C1243 H1237 0.950 . S
C1243 C1242 1.327 . S
C1243 C1247 1.429 . S
C1244 C1227 1.574 . S
C1244 H1238 0.949 . S
C1244 C1248 1.368 . S
C1245 C1226 1.429 1_554 S
C1245 C1239 1.429 . S
C1245 C1246 1.523 . S
C1246 C1227 1.368 . S
C1246 C1240 1.368 . S
C1246 C1245 1.523 . S
C1247 C1231 1.429 . S
C1247 C1243 1.429 . S
C1247 C1248 1.523 . S
C1248 C1232 1.368 . S
C1248 C1244 1.368 . S
C1248 C1247 1.523 . S
H1249 C1224 0.950 . S
H1250 C1226 0.950 . S
H1251 C1227 0.949 . S
H1252 C1229 0.950 . S
H1253 C1231 0.950 . S
C1254 C1255 1.349 . S
C1254 C1256 1.327 . S
C1254 H1279 0.950 . S
C1255 C1254 1.349 . S
C1255 C1271 1.349 . S
C1256 C1254 1.327 . S
C1256 C1275 1.429 1_556 S
C1256 H1280 0.950 . S
C1257 C1274 1.574 . S
C1257 C1276 1.368 . S
C1257 H1281 0.949 . S
H1258 C1262 0.949 . S
C1259 C1260 1.349 . S
C1259 C1261 1.327 . S
C1259 H1282 0.950 . S
C1260 C1259 1.349 . S
C1260 C1272 1.349 . S
C1261 C1259 1.327 . S
C1261 C1277 1.429 . S
C1261 H1283 0.950 . S
C1262 H1258 0.949 . S
C1262 C1270 1.574 . S
C1262 C1278 1.368 . S
H1263 C1271 0.953 . S
H1264 C1269 0.950 . S
H1265 C1270 0.949 . S
H1266 C1272 0.950 . S
H1267 C1273 0.950 . S
H1268 C1274 0.949 . S
C1269 H1264 0.950 . S
C1269 C1271 1.327 1_554 S
C1269 C1275 1.429 . S
C1270 C1262 1.574 . S
C1270 H1265 0.949 . S
C1270 C1276 1.368 . S
C1271 C1255 1.349 . S
C1271 H1263 0.953 . S
C1271 C1269 1.327 1_556 S
C1272 C1260 1.349 . S
C1272 H1266 0.950 . S
C1272 C1273 1.327 . S
C1273 H1267 0.950 . S
C1273 C1272 1.327 . S
C1273 C1277 1.429 . S
C1274 C1257 1.574 . S
C1274 H1268 0.949 . S
C1274 C1278 1.368 . S
C1275 C1256 1.429 1_554 S
C1275 C1269 1.429 . S
C1275 C1276 1.523 . S
C1276 C1257 1.368 . S
C1276 C1270 1.368 . S
C1276 C1275 1.523 . S
C1277 C1261 1.429 . S
C1277 C1273 1.429 . S
C1277 C1278 1.523 . S
C1278 C1262 1.368 . S
C1278 C1274 1.368 . S
C1278 C1277 1.523 . S
H1279 C1254 0.950 . S
H1280 C1256 0.950 . S
H1281 C1257 0.949 . S
H1282 C1259 0.950 . S
H1283 C1261 0.950 . S
C1284 C1285 1.349 . S
C1284 C1286 1.327 . S
C1284 H1309 0.950 . S
C1285 C1284 1.349 . S
C1285 C1301 1.349 . S
C1286 C1284 1.327 . S
C1286 C1305 1.429 . S
C1286 H1310 0.950 . S
C1287 C1304 1.574 . S
C1287 C1306 1.368 . S
C1287 H1311 0.949 . S
H1288 C1292 0.949 . S
C1289 C1290 1.349 . S
C1289 C1291 1.327 1_556 S
C1289 H1312 0.950 . S
C1290 C1289 1.349 . S
C1290 C1302 1.349 . S
C1291 C1289 1.327 1_554 S
C1291 C1307 1.429 . S
C1291 H1313 0.950 . S
C1292 H1288 0.949 . S
C1292 C1300 1.574 . S
C1292 C1308 1.368 . S
H1293 C1301 0.950 . S
H1294 C1299 0.950 . S
H1295 C1300 0.949 . S
H1296 C1302 0.950 . S
H1297 C1303 0.950 . S
H1298 C1304 0.949 . S
C1299 H1294 0.950 . S
C1299 C1301 1.327 . S
C1299 C1305 1.429 . S
C1300 C1292 1.574 . S
C1300 H1295 0.949 . S
C1300 C1306 1.368 . S
C1301 C1285 1.349 . S
C1301 H1293 0.950 . S
C1301 C1299 1.327 . S
C1302 C1290 1.349 . S
C1302 H1296 0.950 . S
C1302 C1303 1.327 . S
C1303 H1297 0.950 . S
C1303 C1302 1.327 . S
C1303 C1307 1.429 1_556 S
C1304 C1287 1.574 . S
C1304 H1298 0.949 . S
C1304 C1308 1.368 . S
C1305 C1286 1.429 . S
C1305 C1299 1.429 . S
C1305 C1306 1.523 . S
C1306 C1287 1.368 . S
C1306 C1300 1.368 . S
C1306 C1305 1.523 . S
C1307 C1291 1.429 . S
C1307 C1303 1.429 1_554 S
C1307 C1308 1.523 . S
C1308 C1292 1.368 . S
C1308 C1304 1.368 . S
C1308 C1307 1.523 . S
H1309 C1284 0.950 . S
H1310 C1286 0.950 . S
H1311 C1287 0.949 . S
H1312 C1289 0.950 . S
H1313 C1291 0.950 . S
C1314 C1315 1.349 . S
C1314 C1316 1.327 . S
C1314 H1339 0.950 . S
C1315 C1314 1.349 . S
C1315 C1331 1.349 . S
C1316 C1314 1.327 . S
C1316 C1335 1.429 . S
C1316 H1340 0.950 . S
C1317 C1334 1.574 . S
C1317 C1336 1.368 . S
C1317 H1341 0.949 . S
H1318 C1322 0.949 . S
C1319 C1320 1.349 . S
C1319 C1321 1.327 . S
C1319 H1342 0.950 . S
C1320 C1319 1.349 . S
C1320 C1332 1.349 . S
C1321 C1319 1.327 . S
C1321 C1337 1.429 . S
C1321 H1343 0.950 . S
C1322 H1318 0.949 . S
C1322 C1330 1.574 . S
C1322 C1338 1.368 . S
H1323 C1331 0.950 . S
H1324 C1329 0.950 . S
H1325 C1330 0.949 . S
H1326 C1332 0.950 . S
H1327 C1333 0.950 . S
H1328 C1334 0.949 . S
C1329 H1324 0.950 . S
C1329 C1331 1.327 . S
C1329 C1335 1.429 . S
C1330 C1322 1.574 . S
C1330 H1325 0.949 . S
C1330 C1336 1.368 . S
C1331 C1315 1.349 . S
C1331 H1323 0.950 . S
C1331 C1329 1.327 . S
C1332 C1320 1.349 . S
C1332 H1326 0.950 . S
C1332 C1333 1.327 . S
C1333 H1327 0.950 . S
C1333 C1332 1.327 . S
C1333 C1337 1.429 . S
C1334 C1317 1.574 . S
C1334 H1328 0.949 . S
C1334 C1338 1.368 . S
C1335 C1316 1.429 . S
C1335 C1329 1.429 . S
C1335 C1336 1.523 . S
C1336 C1317 1.368 . S
C1336 C1330 1.368 . S
C1336 C1335 1.523 . S
C1337 C1321 1.429 . S
C1337 C1333 1.429 . S
C1337 C1338 1.523 . S
C1338 C1322 1.368 . S
C1338 C1334 1.368 . S
C1338 C1337 1.523 . S
H1339 C1314 0.950 . S
H1340 C1316 0.950 . S
H1341 C1317 0.949 . S
H1342 C1319 0.950 . S
H1343 C1321 0.950 . S
C1344 C1345 1.349 . S
C1344 C1346 1.327 . S
C1344 H1369 0.950 . S
C1345 C1344 1.349 . S
C1345 C1361 1.349 . S
C1346 C1344 1.327 . S
C1346 C1365 1.429 . S
C1346 H1370 0.950 . S
C1347 C1364 1.574 . S
C1347 C1366 1.368 . S
C1347 H1371 0.949 . S
H1348 C1352 0.949 . S
C1349 C1350 1.349 . S
C1349 C1351 1.327 . S
C1349 H1372 0.950 . S
C1350 C1349 1.349 . S
C1350 C1362 1.349 . S
C1351 C1349 1.327 . S
C1351 C1367 1.429 . S
C1351 H1373 0.950 . S
C1352 H1348 0.949 . S
C1352 C1360 1.574 . S
C1352 C1368 1.368 . S
H1353 C1361 0.950 . S
H1354 C1359 0.950 . S
H1355 C1360 0.949 . S
H1356 C1362 0.950 . S
H1357 C1363 0.950 . S
H1358 C1364 0.949 . S
C1359 H1354 0.950 . S
C1359 C1361 1.327 . S
C1359 C1365 1.429 . S
C1360 C1352 1.574 . S
C1360 H1355 0.949 . S
C1360 C1366 1.368 . S
C1361 C1345 1.349 . S
C1361 H1353 0.950 . S
C1361 C1359 1.327 . S
C1362 C1350 1.349 . S
C1362 H1356 0.950 . S
C1362 C1363 1.327 . S
C1363 H1357 0.950 . S
C1363 C1362 1.327 . S
C1363 C1367 1.429 . S
C1364 C1347 1.574 . S
C1364 H1358 0.949 . S
C1364 C1368 1.368 . S
C1365 C1346 1.429 . S
C1365 C1359 1.429 . S
C1365 C1366 1.523 . S
C1366 C1347 1.368 . S
C1366 C1360 1.368 . S
C1366 C1365 1.523 . S
C1367 C1351 1.429 . S
C1367 C1363 1.429 . S
C1367 C1368 1.523 . S
C1368 C1352 1.368 . S
C1368 C1364 1.368 . S
C1368 C1367 1.523 . S
H1369 C1344 0.950 . S
H1370 C1346 0.950 . S
H1371 C1347 0.949 . S
H1372 C1349 0.950 . S
H1373 C1351 0.950 . S
C1374 C1375 1.349 . S
C1374 C1376 1.327 . S
C1374 H1399 0.950 . S
C1375 C1374 1.349 . S
C1375 C1391 1.349 . S
C1376 C1374 1.327 . S
C1376 C1395 1.429 . S
C1376 H1400 0.950 . S
C1377 C1394 1.574 . S
C1377 C1396 1.368 . S
C1377 H1401 0.949 . S
H1378 C1382 0.949 . S
C1379 C1380 1.349 . S
C1379 C1381 1.327 . S
C1379 H1402 0.950 . S
C1380 C1379 1.349 . S
C1380 C1392 1.349 . S
C1381 C1379 1.327 . S
C1381 C1397 1.429 . S
C1381 H1403 0.950 . S
C1382 H1378 0.949 . S
C1382 C1390 1.574 . S
C1382 C1398 1.368 . S
H1383 C1391 0.950 . S
H1384 C1389 0.950 . S
H1385 C1390 0.949 . S
H1386 C1392 0.950 . S
H1387 C1393 0.950 . S
H1388 C1394 0.949 . S
C1389 H1384 0.950 . S
C1389 C1391 1.327 . S
C1389 C1395 1.429 . S
C1390 C1382 1.574 . S
C1390 H1385 0.949 . S
C1390 C1396 1.368 . S
C1391 C1375 1.349 . S
C1391 H1383 0.950 . S
C1391 C1389 1.327 . S
C1392 C1380 1.349 . S
C1392 H1386 0.950 . S
C1392 C1393 1.327 . S
C1393 H1387 0.950 . S
C1393 C1392 1.327 . S
C1393 C1397 1.429 . S
C1394 C1377 1.574 . S
C1394 H1388 0.949 . S
C1394 C1398 1.368 . S
C1395 C1376 1.429 . S
C1395 C1389 1.429 . S
C1395 C1396 1.523 . S
C1396 C1377 1.368 . S
C1396 C1390 1.368 . S
C1396 C1395 1.523 . S
C1397 C1381 1.429 . S
C1397 C1393 1.429 . S
C1397 C1398 1.523 . S
C1398 C1382 1.368 . S
C1398 C1394 1.368 . S
C1398 C1397 1.523 . S
H1399 C1374 0.950 . S
H1400 C1376 0.950 . S
H1401 C1377 0.949 . S
H1402 C1379 0.950 . S
H1403 C1381 0.950 . S
C1404 C1405 1.349 . S
C1404 C1406 1.327 . S
C1404 H1429 0.950 . S
C1405 C1404 1.349 . S
C1405 C1421 1.349 . S
C1406 C1404 1.327 . S
C1406 C1425 1.429 . S
C1406 H1430 0.950 . S
C1407 C1424 1.574 . S
C1407 C1426 1.368 . S
C1407 H1431 0.949 . S
H1408 C1412 0.949 . S
C1409 C1410 1.349 . S
C1409 C1411 1.327 . S
C1409 H1432 0.950 . S
C1410 C1409 1.349 . S
C1410 C1422 1.349 . S
C1411 C1409 1.327 . S
C1411 C1427 1.429 . S
C1411 H1433 0.950 . S
C1412 H1408 0.949 . S
C1412 C1420 1.574 . S
C1412 C1428 1.368 . S
H1413 C1421 0.950 . S
H1414 C1419 0.950 . S
H1415 C1420 0.949 . S
H1416 C1422 0.950 . S
H1417 C1423 0.950 . S
H1418 C1424 0.949 . S
C1419 H1414 0.950 . S
C1419 C1421 1.327 . S
C1419 C1425 1.429 . S
C1420 C1412 1.574 . S
C1420 H1415 0.949 . S
C1420 C1426 1.368 . S
C1421 C1405 1.349 . S
C1421 H1413 0.950 . S
C1421 C1419 1.327 . S
C1422 C1410 1.349 . S
C1422 H1416 0.950 . S
C1422 C1423 1.327 . S
C1423 H1417 0.950 . S
C1423 C1422 1.327 . S
C1423 C1427 1.429 . S
C1424 C1407 1.574 . S
C1424 H1418 0.949 . S
C1424 C1428 1.368 . S
C1425 C1406 1.429 . S
C1425 C1419 1.429 . S
C1425 C1426 1.523 . S
C1426 C1407 1.368 . S
C1426 C1420 1.368 . S
C1426 C1425 1.523 . S
C1427 C1411 1.429 . S
C1427 C1423 1.429 . S
C1427 C1428 1.523 . S
C1428 C1412 1.368 . S
C1428 C1424 1.368 . S
C1428 C1427 1.523 . S
H1429 C1404 0.950 . S
H1430 C1406 0.950 . S
H1431 C1407 0.949 . S
H1432 C1409 0.950 . S
H1433 C1411 0.950 . S
C1434 C1435 1.349 . S
C1434 C1436 1.327 . S
C1434 H1459 0.950 . S
C1435 C1434 1.349 . S
C1435 C1451 1.349 . S
C1436 C1434 1.327 . S
C1436 C1455 1.429 . S
C1436 H1460 0.950 . S
C1437 C1454 1.574 . S
C1437 C1456 1.368 . S
C1437 H1461 0.949 . S
H1438 C1442 0.949 . S
C1439 C1440 1.349 . S
C1439 C1441 1.327 . S
C1439 H1462 0.950 . S
C1440 C1439 1.349 . S
C1440 C1452 1.349 . S
C1441 C1439 1.327 . S
C1441 C1457 1.429 . S
C1441 H1463 0.950 . S
C1442 H1438 0.949 . S
C1442 C1450 1.574 . S
C1442 C1458 1.368 . S
H1443 C1451 0.950 . S
H1444 C1449 0.950 . S
H1445 C1450 0.949 . S
H1446 C1452 0.950 . S
H1447 C1453 0.950 . S
H1448 C1454 0.949 . S
C1449 H1444 0.950 . S
C1449 C1451 1.327 . S
C1449 C1455 1.429 . S
C1450 C1442 1.574 . S
C1450 H1445 0.949 . S
C1450 C1456 1.368 . S
C1451 C1435 1.349 . S
C1451 H1443 0.950 . S
C1451 C1449 1.327 . S
C1452 C1440 1.349 . S
C1452 H1446 0.950 . S
C1452 C1453 1.327 . S
C1453 H1447 0.950 . S
C1453 C1452 1.327 . S
C1453 C1457 1.429 . S
C1454 C1437 1.574 . S
C1454 H1448 0.949 . S
C1454 C1458 1.368 . S
C1455 C1436 1.429 . S
C1455 C1449 1.429 . S
C1455 C1456 1.523 . S
C1456 C1437 1.368 . S
C1456 C1450 1.368 . S
C1456 C1455 1.523 . S
C1457 C1441 1.429 . S
C1457 C1453 1.429 . S
C1457 C1458 1.523 . S
C1458 C1442 1.368 . S
C1458 C1454 1.368 . S
C1458 C1457 1.523 . S
H1459 C1434 0.950 . S
H1460 C1436 0.950 . S
H1461 C1437 0.949 . S
H1462 C1439 0.950 . S
H1463 C1441 0.950 . S
C1464 C1465 1.349 . S
C1464 C1466 1.327 . S
C1464 H1489 0.950 . S
C1465 C1464 1.349 . S
C1465 C1481 1.349 . S
C1466 C1464 1.327 . S
C1466 C1485 1.429 . S
C1466 H1490 0.950 . S
C1467 C1484 1.574 . S
C1467 C1486 1.368 . S
C1467 H1491 0.949 . S
H1468 C1472 0.949 . S
C1469 C1470 1.349 . S
C1469 C1471 1.327 . S
C1469 H1492 0.950 . S
C1470 C1469 1.349 . S
C1470 C1482 1.349 . S
C1471 C1469 1.327 . S
C1471 C1487 1.429 . S
C1471 H1493 0.950 . S
C1472 H1468 0.949 . S
C1472 C1480 1.574 . S
C1472 C1488 1.368 . S
H1473 C1481 0.950 . S
H1474 C1479 0.950 . S
H1475 C1480 0.949 . S
H1476 C1482 0.950 . S
H1477 C1483 0.950 . S
H1478 C1484 0.949 . S
C1479 H1474 0.950 . S
C1479 C1481 1.327 . S
C1479 C1485 1.429 . S
C1480 C1472 1.574 . S
C1480 H1475 0.949 . S
C1480 C1486 1.368 . S
C1481 C1465 1.349 . S
C1481 H1473 0.950 . S
C1481 C1479 1.327 . S
C1482 C1470 1.349 . S
C1482 H1476 0.950 . S
C1482 C1483 1.327 . S
C1483 H1477 0.950 . S
C1483 C1482 1.327 . S
C1483 C1487 1.429 . S
C1484 C1467 1.574 . S
C1484 H1478 0.949 . S
C1484 C1488 1.368 . S
C1485 C1466 1.429 . S
C1485 C1479 1.429 . S
C1485 C1486 1.523 . S
C1486 C1467 1.368 . S
C1486 C1480 1.368 . S
C1486 C1485 1.523 . S
C1487 C1471 1.429 . S
C1487 C1483 1.429 . S
C1487 C1488 1.523 . S
C1488 C1472 1.368 . S
C1488 C1484 1.368 . S
C1488 C1487 1.523 . S
H1489 C1464 0.950 . S
H1490 C1466 0.950 . S
H1491 C1467 0.949 . S
H1492 C1469 0.950 . S
H1493 C1471 0.950 . S
C1494 C1495 1.349 . S
C1494 C1496 1.327 . S
C1494 H1519 0.950 . S
C1495 C1494 1.349 . S
C1495 C1511 1.349 . S
C1496 C1494 1.327 . S
C1496 C1515 1.429 . S
C1496 H1520 0.950 . S
C1497 C1514 1.574 . S
C1497 C1516 1.368 . S
C1497 H1521 0.949 . S
H1498 C1502 0.949 . S
C1499 C1500 1.349 . S
C1499 C1501 1.327 . S
C1499 H1522 0.950 . S
C1500 C1499 1.349 . S
C1500 C1512 1.349 . S
C1501 C1499 1.327 . S
C1501 C1517 1.429 . S
C1501 H1523 0.950 . S
C1502 H1498 0.949 . S
C1502 C1510 1.574 . S
C1502 C1518 1.368 . S
H1503 C1511 0.950 . S
H1504 C1509 0.950 . S
H1505 C1510 0.949 . S
H1506 C1512 0.950 . S
H1507 C1513 0.950 . S
H1508 C1514 0.949 . S
C1509 H1504 0.950 . S
C1509 C1511 1.327 . S
C1509 C1515 1.429 . S
C1510 C1502 1.574 . S
C1510 H1505 0.949 . S
C1510 C1516 1.368 . S
C1511 C1495 1.349 . S
C1511 H1503 0.950 . S
C1511 C1509 1.327 . S
C1512 C1500 1.349 . S
C1512 H1506 0.950 . S
C1512 C1513 1.327 . S
C1513 H1507 0.950 . S
C1513 C1512 1.327 . S
C1513 C1517 1.429 . S
C1514 C1497 1.574 . S
C1514 H1508 0.949 . S
C1514 C1518 1.368 . S
C1515 C1496 1.429 . S
C1515 C1509 1.429 . S
C1515 C1516 1.523 . S
C1516 C1497 1.368 . S
C1516 C1510 1.368 . S
C1516 C1515 1.523 . S
C1517 C1501 1.429 . S
C1517 C1513 1.429 . S
C1517 C1518 1.523 1_554 S
C1518 C1502 1.368 . S
C1518 C1514 1.368 . S
C1518 C1517 1.523 1_556 S
H1519 C1494 0.950 . S
H1520 C1496 0.950 . S
H1521 C1497 0.949 . S
H1522 C1499 0.950 . S
H1523 C1501 0.950 . S
C1524 C1525 1.349 . S
C1524 C1526 1.327 . S
C1524 H1549 0.950 . S
C1525 C1524 1.349 . S
C1525 C1541 1.349 . S
C1526 C1524 1.327 . S
C1526 C1545 1.429 . S
C1526 H1550 0.950 . S
C1527 C1544 1.574 . S
C1527 C1546 1.368 . S
C1527 H1551 0.949 . S
H1528 C1532 0.949 . S
C1529 C1530 1.349 . S
C1529 C1531 1.327 . S
C1529 H1552 0.950 . S
C1530 C1529 1.349 . S
C1530 C1542 1.349 . S
C1531 C1529 1.327 . S
C1531 C1547 1.429 . S
C1531 H1553 0.950 . S
C1532 H1528 0.949 . S
C1532 C1540 1.574 . S
C1532 C1548 1.368 . S
H1533 C1541 0.950 . S
H1534 C1539 0.950 1_556 S
H1535 C1540 0.949 . S
H1536 C1542 0.950 . S
H1537 C1543 0.950 . S
H1538 C1544 0.949 . S
C1539 H1534 0.950 1_554 S
C1539 C1541 1.327 . S
C1539 C1545 1.429 . S
C1540 C1532 1.574 . S
C1540 H1535 0.949 . S
C1540 C1546 1.368 . S
C1541 C1525 1.349 . S
C1541 H1533 0.950 . S
C1541 C1539 1.327 . S
C1542 C1530 1.349 . S
C1542 H1536 0.950 . S
C1542 C1543 1.327 . S
C1543 H1537 0.950 . S
C1543 C1542 1.327 . S
C1543 C1547 1.429 . S
C1544 C1527 1.574 . S
C1544 H1538 0.949 . S
C1544 C1548 1.368 . S
C1545 C1526 1.429 . S
C1545 C1539 1.429 . S
C1545 C1546 1.523 1_554 S
C1546 C1527 1.368 . S
C1546 C1540 1.368 . S
C1546 C1545 1.523 1_556 S
C1547 C1531 1.429 . S
C1547 C1543 1.429 . S
C1547 C1548 1.523 . S
C1548 C1532 1.368 . S
C1548 C1544 1.368 . S
C1548 C1547 1.523 . S
H1549 C1524 0.950 . S
H1550 C1526 0.950 . S
H1551 C1527 0.949 . S
H1552 C1529 0.950 . S
H1553 C1531 0.950 . S
C1554 C1555 1.349 . S
C1554 C1556 1.327 . S
C1554 H1579 0.950 . S
C1555 C1554 1.349 . S
C1555 C1571 1.349 . S
C1556 C1554 1.327 . S
C1556 C1575 1.429 . S
C1556 H1580 0.950 . S
C1557 C1574 1.574 . S
C1557 C1576 1.368 . S
C1557 H1581 0.949 . S
H1558 C1562 0.949 . S
C1559 C1560 1.349 . S
C1559 C1561 1.327 . S
C1559 H1582 0.950 . S
C1560 C1559 1.349 . S
C1560 C1572 1.349 . S
C1561 C1559 1.327 . S
C1561 C1577 1.429 . S
C1561 H1583 0.950 . S
C1562 H1558 0.949 . S
C1562 C1570 1.574 . S
C1562 C1578 1.368 . S
H1563 C1571 0.950 . S
H1564 C1569 0.950 . S
H1565 C1570 0.949 . S
H1566 C1572 0.950 . S
H1567 C1573 0.950 1_556 S
H1568 C1574 0.949 1_554 S
C1569 H1564 0.950 . S
C1569 C1571 1.327 . S
C1569 C1575 1.429 . S
C1570 C1562 1.574 . S
C1570 H1565 0.949 . S
C1570 C1576 1.368 . S
C1571 C1555 1.349 . S
C1571 H1563 0.950 . S
C1571 C1569 1.327 . S
C1572 C1560 1.349 . S
C1572 H1566 0.950 . S
C1572 C1573 1.327 . S
C1573 H1567 0.950 1_554 S
C1573 C1572 1.327 . S
C1573 C1577 1.429 . S
C1574 C1557 1.574 . S
C1574 H1568 0.949 1_556 S
C1574 C1578 1.368 . S
C1575 C1556 1.429 . S
C1575 C1569 1.429 . S
C1575 C1576 1.523 . S
C1576 C1557 1.368 . S
C1576 C1570 1.368 . S
C1576 C1575 1.523 . S
C1577 C1561 1.429 . S
C1577 C1573 1.429 . S
C1577 C1578 1.523 1_554 S
C1578 C1562 1.368 . S
C1578 C1574 1.368 . S
C1578 C1577 1.523 1_556 S
H1579 C1554 0.950 . S
H1580 C1556 0.950 . S
H1581 C1557 0.949 . S
H1582 C1559 0.950 . S
H1583 C1561 0.950 . S
C1584 C1585 1.349 . S
C1584 C1586 1.327 . S
C1584 H1609 0.950 . S
C1585 C1584 1.349 . S
C1585 C1601 1.349 . S
C1586 C1584 1.327 . S
C1586 C1605 1.429 . S
C1586 H1610 0.950 . S
C1587 C1604 1.574 . S
C1587 C1606 1.368 . S
C1587 H1611 0.949 . S
H1588 C1592 0.949 . S
C1589 C1590 1.349 . S
C1589 C1591 1.327 . S
C1589 H1612 0.950 . S
C1590 C1589 1.349 . S
C1590 C1602 1.349 . S
C1591 C1589 1.327 . S
C1591 C1607 1.429 . S
C1591 H1613 0.950 . S
C1592 H1588 0.949 . S
C1592 C1600 1.574 . S
C1592 C1608 1.368 . S
H1593 C1601 0.950 . S
H1594 C1599 0.950 . S
H1595 C1600 0.949 . S
H1596 C1602 0.950 . S
H1597 C1603 0.950 . S
H1598 C1604 0.949 . S
C1599 H1594 0.950 . S
C1599 C1601 1.327 . S
C1599 C1605 1.429 . S
C1600 C1592 1.574 . S
C1600 H1595 0.949 . S
C1600 C1606 1.368 . S
C1601 C1585 1.349 . S
C1601 H1593 0.950 . S
C1601 C1599 1.327 . S
C1602 C1590 1.349 . S
C1602 H1596 0.950 . S
C1602 C1603 1.327 . S
C1603 H1597 0.950 . S
C1603 C1602 1.327 . S
C1603 C1607 1.429 . S
C1604 C1587 1.574 . S
C1604 H1598 0.949 . S
C1604 C1608 1.368 . S
C1605 C1586 1.429 . S
C1605 C1599 1.429 . S
C1605 C1606 1.523 . S
C1606 C1587 1.368 . S
C1606 C1600 1.368 . S
C1606 C1605 1.523 . S
C1607 C1591 1.429 . S
C1607 C1603 1.429 . S
C1607 C1608 1.523 . S
C1608 C1592 1.368 . S
C1608 C1604 1.368 . S
C1608 C1607 1.523 . S
H1609 C1584 0.950 . S
H1610 C1586 0.950 . S
H1611 C1587 0.949 . S
H1612 C1589 0.950 . S
H1613 C1591 0.950 . S
C1614 C1615 1.349 . S
C1614 C1616 1.327 . S
C1614 H1639 0.950 . S
C1615 C1614 1.349 . S
C1615 C1631 1.349 . S
C1616 C1614 1.327 . S
C1616 C1635 1.429 . S
C1616 H1640 0.950 . S
C1617 C1634 1.574 . S
C1617 C1636 1.368 . S
C1617 H1641 0.949 . S
H1618 C1622 0.949 . S
C1619 C1620 1.349 . S
C1619 C1621 1.327 . S
C1619 H1642 0.950 . S
C1620 C1619 1.349 . S
C1620 C1632 1.349 . S
C1621 C1619 1.327 . S
C1621 C1637 1.429 . S
C1621 H1643 0.950 . S
C1622 H1618 0.949 . S
C1622 C1630 1.574 . S
C1622 C1638 1.368 . S
H1623 C1631 0.950 . S
H1624 C1629 0.950 . S
H1625 C1630 0.949 . S
H1626 C1632 0.950 . S
H1627 C1633 0.950 . S
H1628 C1634 0.949 . S
C1629 H1624 0.950 . S
C1629 C1631 1.327 . S
C1629 C1635 1.429 . S
C1630 C1622 1.574 . S
C1630 H1625 0.949 . S
C1630 C1636 1.368 . S
C1631 C1615 1.349 . S
C1631 H1623 0.950 . S
C1631 C1629 1.327 . S
C1632 C1620 1.349 . S
C1632 H1626 0.950 . S
C1632 C1633 1.327 . S
C1633 H1627 0.950 . S
C1633 C1632 1.327 . S
C1633 C1637 1.429 . S
C1634 C1617 1.574 . S
C1634 H1628 0.949 . S
C1634 C1638 1.368 . S
C1635 C1616 1.429 . S
C1635 C1629 1.429 . S
C1635 C1636 1.523 . S
C1636 C1617 1.368 . S
C1636 C1630 1.368 . S
C1636 C1635 1.523 . S
C1637 C1621 1.429 . S
C1637 C1633 1.429 . S
C1637 C1638 1.523 . S
C1638 C1622 1.368 . S
C1638 C1634 1.368 . S
C1638 C1637 1.523 . S
H1639 C1614 0.950 . S
H1640 C1616 0.950 . S
H1641 C1617 0.949 . S
H1642 C1619 0.950 . S
H1643 C1621 0.950 . S
C1644 C1645 1.349 . S
C1644 C1646 1.327 . S
C1644 H1669 0.950 . S
C1645 C1644 1.349 . S
C1645 C1661 1.349 . S
C1646 C1644 1.327 . S
C1646 C1665 1.429 . S
C1646 H1670 0.950 . S
C1647 C1664 1.574 . S
C1647 C1666 1.368 . S
C1647 H1671 0.949 . S
H1648 C1652 0.949 . S
C1649 C1650 1.349 . S
C1649 C1651 1.327 . S
C1649 H1672 0.950 . S
C1650 C1649 1.349 . S
C1650 C1662 1.349 . S
C1651 C1649 1.327 . S
C1651 C1667 1.429 . S
C1651 H1673 0.950 . S
C1652 H1648 0.949 . S
C1652 C1660 1.574 . S
C1652 C1668 1.368 . S
H1653 C1661 0.950 . S
H1654 C1659 0.950 . S
H1655 C1660 0.949 . S
H1656 C1662 0.950 . S
H1657 C1663 0.950 . S
H1658 C1664 0.949 . S
C1659 H1654 0.950 . S
C1659 C1661 1.327 . S
C1659 C1665 1.429 . S
C1660 C1652 1.574 . S
C1660 H1655 0.949 . S
C1660 C1666 1.368 . S
C1661 C1645 1.349 . S
C1661 H1653 0.950 . S
C1661 C1659 1.327 . S
C1662 C1650 1.349 . S
C1662 H1656 0.950 . S
C1662 C1663 1.327 . S
C1663 H1657 0.950 . S
C1663 C1662 1.327 . S
C1663 C1667 1.429 . S
C1664 C1647 1.574 . S
C1664 H1658 0.949 . S
C1664 C1668 1.368 . S
C1665 C1646 1.429 . S
C1665 C1659 1.429 . S
C1665 C1666 1.523 . S
C1666 C1647 1.368 . S
C1666 C1660 1.368 . S
C1666 C1665 1.523 . S
C1667 C1651 1.429 . S
C1667 C1663 1.429 . S
C1667 C1668 1.523 . S
C1668 C1652 1.368 . S
C1668 C1664 1.368 . S
C1668 C1667 1.523 . S
H1669 C1644 0.950 . S
H1670 C1646 0.950 . S
H1671 C1647 0.949 . S
H1672 C1649 0.950 . S
H1673 C1651 0.950 . S
C1674 C1675 1.349 . S
C1674 C1676 1.327 . S
C1674 H1699 0.950 . S
C1675 C1674 1.349 . S
C1675 C1691 1.349 . S
C1676 C1674 1.327 . S
C1676 C1695 1.429 . S
C1676 H1700 0.950 . S
C1677 C1694 1.574 . S
C1677 C1696 1.368 . S
C1677 H1701 0.949 . S
H1678 C1682 0.949 . S
C1679 C1680 1.349 . S
C1679 C1681 1.327 . S
C1679 H1702 0.950 . S
C1680 C1679 1.349 . S
C1680 C1692 1.349 . S
C1681 C1679 1.327 . S
C1681 C1697 1.429 . S
C1681 H1703 0.950 . S
C1682 H1678 0.949 . S
C1682 C1690 1.574 . S
C1682 C1698 1.368 . S
H1683 C1691 0.950 . S
H1684 C1689 0.950 . S
H1685 C1690 0.949 . S
H1686 C1692 0.950 . S
H1687 C1693 0.950 . S
H1688 C1694 0.949 . S
C1689 H1684 0.950 . S
C1689 C1691 1.327 . S
C1689 C1695 1.429 . S
C1690 C1682 1.574 . S
C1690 H1685 0.949 . S
C1690 C1696 1.368 . S
C1691 C1675 1.349 . S
C1691 H1683 0.950 . S
C1691 C1689 1.327 . S
C1692 C1680 1.349 . S
C1692 H1686 0.950 . S
C1692 C1693 1.327 . S
C1693 H1687 0.950 . S
C1693 C1692 1.327 . S
C1693 C1697 1.429 . S
C1694 C1677 1.574 . S
C1694 H1688 0.949 . S
C1694 C1698 1.368 . S
C1695 C1676 1.429 . S
C1695 C1689 1.429 . S
C1695 C1696 1.523 . S
C1696 C1677 1.368 . S
C1696 C1690 1.368 . S
C1696 C1695 1.523 . S
C1697 C1681 1.429 . S
C1697 C1693 1.429 . S
C1697 C1698 1.523 . S
C1698 C1682 1.368 . S
C1698 C1694 1.368 . S
C1698 C1697 1.523 . S
H1699 C1674 0.950 . S
H1700 C1676 0.950 . S
H1701 C1677 0.949 . S
H1702 C1679 0.950 . S
H1703 C1681 0.950 . S
C1704 C1705 1.349 . S
C1704 C1706 1.327 . S
C1704 H1729 0.950 . S
C1705 C1704 1.349 . S
C1705 C1721 1.349 . S
C1706 C1704 1.327 . S
C1706 C1725 1.429 . S
C1706 H1730 0.950 . S
C1707 C1724 1.574 . S
C1707 C1726 1.368 . S
C1707 H1731 0.949 . S
H1708 C1712 0.949 . S
C1709 C1710 1.349 . S
C1709 C1711 1.327 . S
C1709 H1732 0.950 . S
C1710 C1709 1.349 . S
C1710 C1722 1.349 . S
C1711 C1709 1.327 . S
C1711 C1727 1.429 . S
C1711 H1733 0.950 . S
C1712 H1708 0.949 . S
C1712 C1720 1.574 . S
C1712 C1728 1.368 . S
H1713 C1721 0.950 . S
H1714 C1719 0.950 . S
H1715 C1720 0.949 . S
H1716 C1722 0.950 . S
H1717 C1723 0.950 . S
H1718 C1724 0.949 . S
C1719 H1714 0.950 . S
C1719 C1721 1.327 . S
C1719 C1725 1.429 . S
C1720 C1712 1.574 . S
C1720 H1715 0.949 . S
C1720 C1726 1.368 . S
C1721 C1705 1.349 . S
C1721 H1713 0.950 . S
C1721 C1719 1.327 . S
C1722 C1710 1.349 . S
C1722 H1716 0.950 . S
C1722 C1723 1.327 . S
C1723 H1717 0.950 . S
C1723 C1722 1.327 . S
C1723 C1727 1.429 . S
C1724 C1707 1.574 . S
C1724 H1718 0.949 . S
C1724 C1728 1.368 . S
C1725 C1706 1.429 . S
C1725 C1719 1.429 . S
C1725 C1726 1.523 . S
C1726 C1707 1.368 . S
C1726 C1720 1.368 . S
C1726 C1725 1.523 . S
C1727 C1711 1.429 . S
C1727 C1723 1.429 . S
C1727 C1728 1.523 . S
C1728 C1712 1.368 . S
C1728 C1724 1.368 . S
C1728 C1727 1.523 . S
H1729 C1704 0.950 . S
H1730 C1706 0.950 . S
H1731 C1707 0.949 . S
H1732 C1709 0.950 . S
H1733 C1711 0.950 . S
C1734 C1735 1.349 . S
C1734 C1736 1.327 . S
C1734 H1759 0.950 . S
C1735 C1734 1.349 . S
C1735 C1751 1.349 . S
C1736 C1734 1.327 . S
C1736 C1755 1.429 . S
C1736 H1760 0.950 . S
C1737 C1754 1.574 . S
C1737 C1756 1.368 . S
C1737 H1761 0.949 . S
H1738 C1742 0.949 . S
C1739 C1740 1.349 . S
C1739 C1741 1.327 . S
C1739 H1762 0.950 . S
C1740 C1739 1.349 . S
C1740 C1752 1.349 . S
C1741 C1739 1.327 . S
C1741 C1757 1.429 . S
C1741 H1763 0.950 . S
C1742 H1738 0.949 . S
C1742 C1750 1.574 . S
C1742 C1758 1.368 . S
H1743 C1751 0.950 . S
H1744 C1749 0.950 . S
H1745 C1750 0.949 . S
H1746 C1752 0.950 . S
H1747 C1753 0.950 . S
H1748 C1754 0.949 . S
C1749 H1744 0.950 . S
C1749 C1751 1.327 . S
C1749 C1755 1.429 . S
C1750 C1742 1.574 . S
C1750 H1745 0.949 . S
C1750 C1756 1.368 . S
C1751 C1735 1.349 . S
C1751 H1743 0.950 . S
C1751 C1749 1.327 . S
C1752 C1740 1.349 . S
C1752 H1746 0.950 . S
C1752 C1753 1.327 . S
C1753 H1747 0.950 . S
C1753 C1752 1.327 . S
C1753 C1757 1.429 . S
C1754 C1737 1.574 . S
C1754 H1748 0.949 . S
C1754 C1758 1.368 . S
C1755 C1736 1.429 . S
C1755 C1749 1.429 . S
C1755 C1756 1.523 . S
C1756 C1737 1.368 . S
C1756 C1750 1.368 . S
C1756 C1755 1.523 . S
C1757 C1741 1.429 . S
C1757 C1753 1.429 . S
C1757 C1758 1.523 . S
C1758 C1742 1.368 . S
C1758 C1754 1.368 . S
C1758 C1757 1.523 . S
H1759 C1734 0.950 . S
H1760 C1736 0.950 . S
H1761 C1737 0.949 . S
H1762 C1739 0.950 . S
H1763 C1741 0.950 . S
C1764 C1765 1.349 . S
C1764 C1766 1.327 . S
C1764 H1789 0.950 . S
C1765 C1764 1.349 . S
C1765 C1781 1.349 . S
C1766 C1764 1.327 . S
C1766 C1785 1.429 . S
C1766 H1790 0.950 . S
C1767 C1784 1.574 . S
C1767 C1786 1.368 . S
C1767 H1791 0.949 . S
H1768 C1772 0.949 . S
C1769 C1770 1.349 . S
C1769 C1771 1.327 . S
C1769 H1792 0.950 . S
C1770 C1769 1.349 . S
C1770 C1782 1.349 . S
C1771 C1769 1.327 . S
C1771 C1787 1.429 . S
C1771 H1793 0.950 . S
C1772 H1768 0.949 . S
C1772 C1780 1.574 . S
C1772 C1788 1.368 . S
H1773 C1781 0.950 . S
H1774 C1779 0.950 . S
H1775 C1780 0.949 . S
H1776 C1782 0.950 . S
H1777 C1783 0.950 . S
H1778 C1784 0.949 . S
C1779 H1774 0.950 . S
C1779 C1781 1.327 . S
C1779 C1785 1.429 . S
C1780 C1772 1.574 . S
C1780 H1775 0.949 . S
C1780 C1786 1.368 . S
C1781 C1765 1.349 . S
C1781 H1773 0.950 . S
C1781 C1779 1.327 . S
C1782 C1770 1.349 . S
C1782 H1776 0.950 . S
C1782 C1783 1.327 . S
C1783 H1777 0.950 . S
C1783 C1782 1.327 . S
C1783 C1787 1.429 . S
C1784 C1767 1.574 . S
C1784 H1778 0.949 . S
C1784 C1788 1.368 . S
C1785 C1766 1.429 . S
C1785 C1779 1.429 . S
C1785 C1786 1.523 . S
C1786 C1767 1.368 . S
C1786 C1780 1.368 . S
C1786 C1785 1.523 . S
C1787 C1771 1.429 . S
C1787 C1783 1.429 . S
C1787 C1788 1.523 . S
C1788 C1772 1.368 . S
C1788 C1784 1.368 . S
C1788 C1787 1.523 . S
H1789 C1764 0.950 . S
H1790 C1766 0.950 . S
H1791 C1767 0.949 . S
H1792 C1769 0.950 . S
H1793 C1771 0.950 . S
C1794 C1795 1.349 . S
C1794 C1796 1.327 . S
C1794 H1819 0.950 . S
C1795 C1794 1.349 . S
C1795 C1811 1.349 . S
C1796 C1794 1.327 . S
C1796 C1815 1.429 . S
C1796 H1820 0.950 . S
C1797 C1814 1.574 . S
C1797 C1816 1.368 . S
C1797 H1821 0.949 . S
H1798 C1802 0.949 . S
C1799 C1800 1.349 . S
C1799 C1801 1.327 . S
C1799 H1822 0.950 . S
C1800 C1799 1.349 . S
C1800 C1812 1.349 . S
C1801 C1799 1.327 . S
C1801 C1817 1.429 . S
C1801 H1823 0.950 . S
C1802 H1798 0.949 . S
C1802 C1810 1.574 . S
C1802 C1818 1.368 . S
H1803 C1811 0.950 . S
H1804 C1809 0.950 . S
H1805 C1810 0.949 . S
H1806 C1812 0.950 . S
H1807 C1813 0.950 . S
H1808 C1814 0.949 . S
C1809 H1804 0.950 . S
C1809 C1811 1.327 . S
C1809 C1815 1.429 . S
C1810 C1802 1.574 . S
C1810 H1805 0.949 . S
C1810 C1816 1.368 . S
C1811 C1795 1.349 . S
C1811 H1803 0.950 . S
C1811 C1809 1.327 . S
C1812 C1800 1.349 . S
C1812 H1806 0.950 . S
C1812 C1813 1.327 . S
C1813 H1807 0.950 . S
C1813 C1812 1.327 . S
C1813 C1817 1.429 . S
C1814 C1797 1.574 . S
C1814 H1808 0.949 . S
C1814 C1818 1.368 . S
C1815 C1796 1.429 . S
C1815 C1809 1.429 . S
C1815 C1816 1.523 . S
C1816 C1797 1.368 . S
C1816 C1810 1.368 . S
C1816 C1815 1.523 . S
C1817 C1801 1.429 . S
C1817 C1813 1.429 . S
C1817 C1818 1.523 . S
C1818 C1802 1.368 . S
C1818 C1814 1.368 . S
C1818 C1817 1.523 . S
H1819 C1794 0.950 . S
H1820 C1796 0.950 . S
H1821 C1797 0.949 . S
H1822 C1799 0.950 . S
H1823 C1801 0.950 . S
C1824 C1825 1.349 . S
C1824 C1826 1.327 . S
C1824 H1849 0.950 . S
C1825 C1824 1.349 . S
C1825 C1841 1.349 . S
C1826 C1824 1.327 . S
C1826 C1845 1.429 . S
C1826 H1850 0.950 . S
C1827 C1844 1.574 . S
C1827 C1846 1.368 . S
C1827 H1851 0.949 . S
H1828 C1832 0.949 . S
C1829 C1830 1.349 . S
C1829 C1831 1.327 . S
C1829 H1852 0.950 . S
C1830 C1829 1.349 . S
C1830 C1842 1.349 . S
C1831 C1829 1.327 . S
C1831 C1847 1.429 . S
C1831 H1853 0.950 . S
C1832 H1828 0.949 . S
C1832 C1840 1.574 . S
C1832 C1848 1.368 . S
H1833 C1841 0.950 . S
H1834 C1839 0.950 . S
H1835 C1840 0.949 . S
H1836 C1842 0.950 . S
H1837 C1843 0.950 . S
H1838 C1844 0.949 . S
C1839 H1834 0.950 . S
C1839 C1841 1.327 . S
C1839 C1845 1.429 . S
C1840 C1832 1.574 . S
C1840 H1835 0.949 . S
C1840 C1846 1.368 . S
C1841 C1825 1.349 . S
C1841 H1833 0.950 . S
C1841 C1839 1.327 . S
C1842 C1830 1.349 . S
C1842 H1836 0.950 . S
C1842 C1843 1.327 . S
C1843 H1837 0.950 . S
C1843 C1842 1.327 . S
C1843 C1847 1.429 . S
C1844 C1827 1.574 . S
C1844 H1838 0.949 . S
C1844 C1848 1.368 . S
C1845 C1826 1.429 . S
C1845 C1839 1.429 . S
C1845 C1846 1.523 . S
C1846 C1827 1.368 . S
C1846 C1840 1.368 . S
C1846 C1845 1.523 . S
C1847 C1831 1.429 . S
C1847 C1843 1.429 . S
C1847 C1848 1.523 . S
C1848 C1832 1.368 . S
C1848 C1844 1.368 . S
C1848 C1847 1.523 . S
H1849 C1824 0.950 . S
H1850 C1826 0.950 . S
H1851 C1827 0.949 . S
H1852 C1829 0.950 . S
H1853 C1831 0.950 . S
C1854 C1855 1.349 . S
C1854 C1856 1.327 . S
C1854 H1879 0.950 . S
C1855 C1854 1.349 . S
C1855 C1871 1.349 . S
C1856 C1854 1.327 . S
C1856 C1875 1.429 . S
C1856 H1880 0.950 . S
C1857 C1874 1.574 . S
C1857 C1876 1.368 . S
C1857 H1881 0.949 . S
H1858 C1862 0.949 . S
C1859 C1860 1.349 . S
C1859 C1861 1.327 . S
C1859 H1882 0.950 . S
C1860 C1859 1.349 . S
C1860 C1872 1.349 . S
C1861 C1859 1.327 . S
C1861 C1877 1.429 . S
C1861 H1883 0.950 . S
C1862 H1858 0.949 . S
C1862 C1870 1.574 . S
C1862 C1878 1.368 . S
H1863 C1871 0.950 . S
H1864 C1869 0.950 . S
H1865 C1870 0.949 . S
H1866 C1872 0.950 . S
H1867 C1873 0.950 . S
H1868 C1874 0.949 . S
C1869 H1864 0.950 . S
C1869 C1871 1.327 . S
C1869 C1875 1.429 . S
C1870 C1862 1.574 . S
C1870 H1865 0.949 . S
C1870 C1876 1.368 . S
C1871 C1855 1.349 . S
C1871 H1863 0.950 . S
C1871 C1869 1.327 . S
C1872 C1860 1.349 . S
C1872 H1866 0.950 . S
C1872 C1873 1.327 . S
C1873 H1867 0.950 . S
C1873 C1872 1.327 . S
C1873 C1877 1.429 . S
C1874 C1857 1.574 . S
C1874 H1868 0.949 . S
C1874 C1878 1.368 . S
C1875 C1856 1.429 . S
C1875 C1869 1.429 . S
C1875 C1876 1.523 . S
C1876 C1857 1.368 . S
C1876 C1870 1.368 . S
C1876 C1875 1.523 . S
C1877 C1861 1.429 . S
C1877 C1873 1.429 . S
C1877 C1878 1.523 . S
C1878 C1862 1.368 . S
C1878 C1874 1.368 . S
C1878 C1877 1.523 . S
H1879 C1854 0.950 . S
H1880 C1856 0.950 . S
H1881 C1857 0.949 . S
H1882 C1859 0.950 . S
H1883 C1861 0.950 . S
C1884 C1885 1.349 . S
C1884 C1886 1.327 . S
C1884 H1909 0.950 . S
C1885 C1884 1.349 . S
C1885 C1901 1.349 . S
C1886 C1884 1.327 . S
C1886 C1905 1.429 . S
C1886 H1910 0.950 . S
C1887 C1904 1.574 . S
C1887 C1906 1.368 . S
C1887 H1911 0.949 . S
H1888 C1892 0.949 . S
C1889 C1890 1.349 . S
C1889 C1891 1.327 . S
C1889 H1912 0.950 . S
C1890 C1889 1.349 . S
C1890 C1902 1.349 . S
C1891 C1889 1.327 . S
C1891 C1907 1.429 . S
C1891 H1913 0.950 . S
C1892 H1888 0.949 . S
C1892 C1900 1.574 . S
C1892 C1908 1.368 . S
H1893 C1901 0.950 . S
H1894 C1899 0.950 . S
H1895 C1900 0.949 . S
H1896 C1902 0.950 . S
H1897 C1903 0.950 . S
H1898 C1904 0.949 . S
C1899 H1894 0.950 . S
C1899 C1901 1.327 . S
C1899 C1905 1.429 . S
C1900 C1892 1.574 . S
C1900 H1895 0.949 . S
C1900 C1906 1.368 . S
C1901 C1885 1.349 . S
C1901 H1893 0.950 . S
C1901 C1899 1.327 . S
C1902 C1890 1.349 . S
C1902 H1896 0.950 . S
C1902 C1903 1.327 . S
C1903 H1897 0.950 . S
C1903 C1902 1.327 . S
C1903 C1907 1.429 . S
C1904 C1887 1.574 . S
C1904 H1898 0.949 . S
C1904 C1908 1.368 . S
C1905 C1886 1.429 . S
C1905 C1899 1.429 . S
C1905 C1906 1.523 . S
C1906 C1887 1.368 . S
C1906 C1900 1.368 . S
C1906 C1905 1.523 . S
C1907 C1891 1.429 . S
C1907 C1903 1.429 . S
C1907 C1908 1.523 . S
C1908 C1892 1.368 . S
C1908 C1904 1.368 . S
C1908 C1907 1.523 . S
H1909 C1884 0.950 . S
H1910 C1886 0.950 . S
H1911 C1887 0.949 . S
H1912 C1889 0.950 . S
H1913 C1891 0.950 . S
C1914 C1915 1.349 . S
C1914 C1916 1.327 . S
C1914 H1939 0.950 . S
C1915 C1914 1.349 . S
C1915 C1931 1.349 . S
C1916 C1914 1.327 . S
C1916 C1935 1.429 . S
C1916 H1940 0.950 . S
C1917 C1934 1.574 . S
C1917 C1936 1.368 . S
C1917 H1941 0.949 . S
H1918 C1922 0.949 . S
C1919 C1920 1.349 . S
C1919 C1921 1.327 . S
C1919 H1942 0.950 . S
C1920 C1919 1.349 . S
C1920 C1932 1.349 . S
C1921 C1919 1.327 . S
C1921 C1937 1.429 . S
C1921 H1943 0.950 . S
C1922 H1918 0.949 . S
C1922 C1930 1.574 . S
C1922 C1938 1.368 . S
H1923 C1931 0.950 . S
H1924 C1929 0.950 . S
H1925 C1930 0.949 . S
H1926 C1932 0.950 . S
H1927 C1933 0.950 . S
H1928 C1934 0.949 . S
C1929 H1924 0.950 . S
C1929 C1931 1.327 . S
C1929 C1935 1.429 . S
C1930 C1922 1.574 . S
C1930 H1925 0.949 . S
C1930 C1936 1.368 . S
C1931 C1915 1.349 . S
C1931 H1923 0.950 . S
C1931 C1929 1.327 . S
C1932 C1920 1.349 . S
C1932 H1926 0.950 . S
C1932 C1933 1.327 . S
C1933 H1927 0.950 . S
C1933 C1932 1.327 . S
C1933 C1937 1.429 . S
C1934 C1917 1.574 . S
C1934 H1928 0.949 . S
C1934 C1938 1.368 . S
C1935 C1916 1.429 . S
C1935 C1929 1.429 . S
C1935 C1936 1.523 . S
C1936 C1917 1.368 . S
C1936 C1930 1.368 . S
C1936 C1935 1.523 . S
C1937 C1921 1.429 . S
C1937 C1933 1.429 . S
C1937 C1938 1.523 . S
C1938 C1922 1.368 . S
C1938 C1934 1.368 . S
C1938 C1937 1.523 . S
H1939 C1914 0.950 . S
H1940 C1916 0.950 . S
H1941 C1917 0.949 . S
H1942 C1919 0.950 . S
H1943 C1921 0.950 . S
C1944 C1945 1.349 . S
C1944 C1946 1.327 . S
C1944 H1969 0.950 . S
C1945 C1944 1.349 . S
C1945 C1961 1.349 . S
C1946 C1944 1.327 . S
C1946 C1965 1.429 . S
C1946 H1970 0.950 . S
C1947 C1964 1.574 . S
C1947 C1966 1.368 . S
C1947 H1971 0.949 . S
H1948 C1952 0.949 . S
C1949 C1950 1.349 . S
C1949 C1951 1.327 . S
C1949 H1972 0.950 . S
C1950 C1949 1.349 . S
C1950 C1962 1.349 . S
C1951 C1949 1.327 . S
C1951 C1967 1.429 . S
C1951 H1973 0.950 . S
C1952 H1948 0.949 . S
C1952 C1960 1.574 . S
C1952 C1968 1.368 . S
H1953 C1961 0.950 . S
H1954 C1959 0.950 . S
H1955 C1960 0.949 . S
H1956 C1962 0.950 . S
H1957 C1963 0.950 . S
H1958 C1964 0.949 . S
C1959 H1954 0.950 . S
C1959 C1961 1.327 . S
C1959 C1965 1.429 . S
C1960 C1952 1.574 . S
C1960 H1955 0.949 . S
C1960 C1966 1.368 . S
C1961 C1945 1.349 . S
C1961 H1953 0.950 . S
C1961 C1959 1.327 . S
C1962 C1950 1.349 . S
C1962 H1956 0.950 . S
C1962 C1963 1.327 . S
C1963 H1957 0.950 . S
C1963 C1962 1.327 . S
C1963 C1967 1.429 . S
C1964 C1947 1.574 . S
C1964 H1958 0.949 . S
C1964 C1968 1.368 . S
C1965 C1946 1.429 . S
C1965 C1959 1.429 . S
C1965 C1966 1.523 . S
C1966 C1947 1.368 . S
C1966 C1960 1.368 . S
C1966 C1965 1.523 . S
C1967 C1951 1.429 . S
C1967 C1963 1.429 . S
C1967 C1968 1.523 . S
C1968 C1952 1.368 . S
C1968 C1964 1.368 . S
C1968 C1967 1.523 . S
H1969 C1944 0.950 . S
H1970 C1946 0.950 . S
H1971 C1947 0.949 . S
H1972 C1949 0.950 . S
H1973 C1951 0.950 . S
C1974 C1975 1.349 . S
C1974 C1976 1.327 . S
C1974 H1999 0.950 . S
C1975 C1974 1.349 . S
C1975 C1991 1.349 . S
C1976 C1974 1.327 . S
C1976 C1995 1.429 . S
C1976 H2000 0.950 . S
C1977 C1994 1.574 . S
C1977 C1996 1.368 . S
C1977 H2001 0.949 . S
H1978 C1982 0.949 . S
C1979 C1980 1.349 . S
C1979 C1981 1.327 . S
C1979 H2002 0.950 . S
C1980 C1979 1.349 . S
C1980 C1992 1.349 . S
C1981 C1979 1.327 . S
C1981 C1997 1.429 . S
C1981 H2003 0.950 . S
C1982 H1978 0.949 . S
C1982 C1990 1.574 . S
C1982 C1998 1.368 . S
H1983 C1991 0.950 . S
H1984 C1989 0.950 . S
H1985 C1990 0.949 . S
H1986 C1992 0.950 . S
H1987 C1993 0.950 . S
H1988 C1994 0.949 . S
C1989 H1984 0.950 . S
C1989 C1991 1.327 . S
C1989 C1995 1.429 . S
C1990 C1982 1.574 . S
C1990 H1985 0.949 . S
C1990 C1996 1.368 . S
C1991 C1975 1.349 . S
C1991 H1983 0.950 . S
C1991 C1989 1.327 . S
C1992 C1980 1.349 . S
C1992 H1986 0.950 . S
C1992 C1993 1.327 . S
C1993 H1987 0.950 . S
C1993 C1992 1.327 . S
C1993 C1997 1.429 . S
C1994 C1977 1.574 . S
C1994 H1988 0.949 . S
C1994 C1998 1.368 . S
C1995 C1976 1.429 . S
C1995 C1989 1.429 . S
C1995 C1996 1.523 . S
C1996 C1977 1.368 . S
C1996 C1990 1.368 . S
C1996 C1995 1.523 . S
C1997 C1981 1.429 . S
C1997 C1993 1.429 . S
C1997 C1998 1.523 . S
C1998 C1982 1.368 . S
C1998 C1994 1.368 . S
C1998 C1997 1.523 . S
H1999 C1974 0.950 . S
H2000 C1976 0.950 . S
H2001 C1977 0.949 . S
H2002 C1979 0.950 . S
H2003 C1981 0.950 . S
C2004 C2005 1.349 . S
C2004 C2006 1.327 . S
C2004 H2029 0.950 . S
C2005 C2004 1.349 . S
C2005 C2021 1.349 . S
C2006 C2004 1.327 . S
C2006 C2025 1.429 . S
C2006 H2030 0.950 . S
C2007 C2024 1.574 . S
C2007 C2026 1.368 . S
C2007 H2031 0.949 . S
H2008 C2012 0.949 . S
C2009 C2010 1.349 . S
C2009 C2011 1.327 . S
C2009 H2032 0.950 . S
C2010 C2009 1.349 . S
C2010 C2022 1.349 . S
C2011 C2009 1.327 . S
C2011 C2027 1.429 . S
C2011 H2033 0.950 . S
C2012 H2008 0.949 . S
C2012 C2020 1.574 . S
C2012 C2028 1.368 . S
H2013 C2021 0.950 . S
H2014 C2019 0.950 . S
H2015 C2020 0.949 . S
H2016 C2022 0.950 . S
H2017 C2023 0.950 . S
H2018 C2024 0.949 . S
C2019 H2014 0.950 . S
C2019 C2021 1.327 . S
C2019 C2025 1.429 . S
C2020 C2012 1.574 . S
C2020 H2015 0.949 . S
C2020 C2026 1.368 . S
C2021 C2005 1.349 . S
C2021 H2013 0.950 . S
C2021 C2019 1.327 . S
C2022 C2010 1.349 . S
C2022 H2016 0.950 . S
C2022 C2023 1.327 . S
C2023 H2017 0.950 . S
C2023 C2022 1.327 . S
C2023 C2027 1.429 . S
C2024 C2007 1.574 . S
C2024 H2018 0.949 . S
C2024 C2028 1.368 . S
C2025 C2006 1.429 . S
C2025 C2019 1.429 . S
C2025 C2026 1.523 . S
C2026 C2007 1.368 . S
C2026 C2020 1.368 . S
C2026 C2025 1.523 . S
C2027 C2011 1.429 . S
C2027 C2023 1.429 . S
C2027 C2028 1.523 . S
C2028 C2012 1.368 . S
C2028 C2024 1.368 . S
C2028 C2027 1.523 . S
H2029 C2004 0.950 . S
H2030 C2006 0.950 . S
H2031 C2007 0.949 . S
H2032 C2009 0.950 . S
H2033 C2011 0.950 . S
C2034 C2035 1.349 . S
C2034 C2036 1.327 . S
C2034 H2059 0.950 . S
C2035 C2034 1.349 . S
C2035 C2051 1.349 . S
C2036 C2034 1.327 . S
C2036 C2055 1.429 . S
C2036 H2060 0.950 1_556 S
C2037 C2054 1.574 . S
C2037 C2056 1.368 . S
C2037 H2061 0.949 1_554 S
H2038 C2042 0.949 . S
C2039 C2040 1.349 . S
C2039 C2041 1.327 . S
C2039 H2062 0.950 . S
C2040 C2039 1.349 . S
C2040 C2052 1.349 . S
C2041 C2039 1.327 . S
C2041 C2057 1.429 . S
C2041 H2063 0.950 . S
C2042 H2038 0.949 . S
C2042 C2050 1.574 . S
C2042 C2058 1.368 . S
H2043 C2051 0.950 . S
H2044 C2049 0.950 . S
H2045 C2050 0.949 . S
H2046 C2052 0.950 . S
H2047 C2053 0.950 . S
H2048 C2054 0.949 . S
C2049 H2044 0.950 . S
C2049 C2051 1.327 . S
C2049 C2055 1.429 . S
C2050 C2042 1.574 . S
C2050 H2045 0.949 . S
C2050 C2056 1.368 . S
C2051 C2035 1.349 . S
C2051 H2043 0.950 . S
C2051 C2049 1.327 . S
C2052 C2040 1.349 . S
C2052 H2046 0.950 . S
C2052 C2053 1.327 . S
C2053 H2047 0.950 . S
C2053 C2052 1.327 . S
C2053 C2057 1.429 . S
C2054 C2037 1.574 . S
C2054 H2048 0.949 . S
C2054 C2058 1.368 . S
C2055 C2036 1.429 . S
C2055 C2049 1.429 . S
C2055 C2056 1.523 1_556 S
C2056 C2037 1.368 . S
C2056 C2050 1.368 . S
C2056 C2055 1.523 1_554 S
C2057 C2041 1.429 . S
C2057 C2053 1.429 . S
C2057 C2058 1.523 . S
C2058 C2042 1.368 . S
C2058 C2054 1.368 . S
C2058 C2057 1.523 . S
H2059 C2034 0.950 . S
H2060 C2036 0.950 1_554 S
H2061 C2037 0.949 1_556 S
H2062 C2039 0.950 . S
H2063 C2041 0.950 . S
C2064 C2065 1.349 . S
C2064 C2066 1.327 . S
C2064 H2089 0.950 . S
C2065 C2064 1.349 . S
C2065 C2081 1.349 . S
C2066 C2064 1.327 . S
C2066 C2085 1.429 . S
C2066 H2090 0.950 . S
C2067 C2084 1.574 . S
C2067 C2086 1.368 . S
C2067 H2091 0.949 . S
H2068 C2072 0.949 . S
C2069 C2070 1.349 . S
C2069 C2071 1.327 . S
C2069 H2092 0.950 . S
C2070 C2069 1.349 . S
C2070 C2082 1.349 . S
C2071 C2069 1.327 . S
C2071 C2087 1.429 . S
C2071 H2093 0.950 . S
C2072 H2068 0.949 . S
C2072 C2080 1.574 . S
C2072 C2088 1.368 . S
H2073 C2081 0.950 . S
H2074 C2079 0.950 . S
H2075 C2080 0.949 . S
H2076 C2082 0.950 . S
H2077 C2083 0.950 . S
H2078 C2084 0.949 . S
C2079 H2074 0.950 . S
C2079 C2081 1.327 . S
C2079 C2085 1.429 . S
C2080 C2072 1.574 . S
C2080 H2075 0.949 . S
C2080 C2086 1.368 . S
C2081 C2065 1.349 . S
C2081 H2073 0.950 . S
C2081 C2079 1.327 . S
C2082 C2070 1.349 . S
C2082 H2076 0.950 . S
C2082 C2083 1.327 . S
C2083 H2077 0.950 . S
C2083 C2082 1.327 . S
C2083 C2087 1.429 . S
C2084 C2067 1.574 . S
C2084 H2078 0.949 . S
C2084 C2088 1.368 . S
C2085 C2066 1.429 . S
C2085 C2079 1.429 . S
C2085 C2086 1.523 1_556 S
C2086 C2067 1.368 . S
C2086 C2080 1.368 . S
C2086 C2085 1.523 1_554 S
C2087 C2071 1.429 . S
C2087 C2083 1.429 . S
C2087 C2088 1.523 . S
C2088 C2072 1.368 . S
C2088 C2084 1.368 . S
C2088 C2087 1.523 . S
H2089 C2064 0.950 . S
H2090 C2066 0.950 . S
H2091 C2067 0.949 . S
H2092 C2069 0.950 . S
H2093 C2071 0.950 . S
C2094 C2095 1.349 . S
C2094 C2096 1.327 . S
C2094 H2119 0.950 . S
C2095 C2094 1.349 . S
C2095 C2111 1.349 . S
C2096 C2094 1.327 . S
C2096 C2115 1.429 . S
C2096 H2120 0.950 . S
C2097 C2114 1.574 . S
C2097 C2116 1.368 . S
C2097 H2121 0.949 . S
H2098 C2102 0.949 . S
C2099 C2100 1.349 . S
C2099 C2101 1.327 . S
C2099 H2122 0.950 . S
C2100 C2099 1.349 . S
C2100 C2112 1.349 . S
C2101 C2099 1.327 . S
C2101 C2117 1.429 . S
C2101 H2123 0.950 . S
C2102 H2098 0.949 . S
C2102 C2110 1.574 . S
C2102 C2118 1.368 . S
H2103 C2111 0.950 . S
H2104 C2109 0.950 1_554 S
H2105 C2110 0.949 . S
H2106 C2112 0.950 . S
H2107 C2113 0.950 . S
H2108 C2114 0.949 . S
C2109 H2104 0.950 1_556 S
C2109 C2111 1.327 . S
C2109 C2115 1.429 . S
C2110 C2102 1.574 . S
C2110 H2105 0.949 . S
C2110 C2116 1.368 . S
C2111 C2095 1.349 . S
C2111 H2103 0.950 . S
C2111 C2109 1.327 . S
C2112 C2100 1.349 . S
C2112 H2106 0.950 . S
C2112 C2113 1.327 . S
C2113 H2107 0.950 . S
C2113 C2112 1.327 . S
C2113 C2117 1.429 . S
C2114 C2097 1.574 . S
C2114 H2108 0.949 . S
C2114 C2118 1.368 . S
C2115 C2096 1.429 . S
C2115 C2109 1.429 . S
C2115 C2116 1.523 1_556 S
C2116 C2097 1.368 . S
C2116 C2110 1.368 . S
C2116 C2115 1.523 1_554 S
C2117 C2101 1.429 . S
C2117 C2113 1.429 . S
C2117 C2118 1.523 . S
C2118 C2102 1.368 . S
C2118 C2114 1.368 . S
C2118 C2117 1.523 . S
H2119 C2094 0.950 . S
H2120 C2096 0.950 . S
H2121 C2097 0.949 . S
H2122 C2099 0.950 . S
H2123 C2101 0.950 . S
C2124 C2125 1.349 . S
C2124 C2126 1.327 . S
C2124 H2149 0.950 1_554 S
C2125 C2124 1.349 . S
C2125 C2141 1.349 . S
C2126 C2124 1.327 . S
C2126 C2145 1.429 . S
C2126 H2150 0.950 1_554 S
C2127 C2144 1.574 . S
C2127 C2146 1.368 . S
C2127 H2151 0.949 . S
H2128 C2132 0.949 . S
C2129 C2130 1.349 . S
C2129 C2131 1.327 . S
C2129 H2152 0.950 . S
C2130 C2129 1.349 . S
C2130 C2142 1.349 . S
C2131 C2129 1.327 . S
C2131 C2147 1.429 . S
C2131 H2153 0.950 . S
C2132 H2128 0.949 . S
C2132 C2140 1.574 . S
C2132 C2148 1.368 . S
H2133 C2141 0.950 . S
H2134 C2139 0.950 . S
H2135 C2140 0.949 . S
H2136 C2142 0.950 . S
H2137 C2143 0.950 . S
H2138 C2144 0.949 . S
C2139 H2134 0.950 . S
C2139 C2141 1.327 . S
C2139 C2145 1.429 . S
C2140 C2132 1.574 . S
C2140 H2135 0.949 . S
C2140 C2146 1.368 . S
C2141 C2125 1.349 . S
C2141 H2133 0.950 . S
C2141 C2139 1.327 . S
C2142 C2130 1.349 . S
C2142 H2136 0.950 . S
C2142 C2143 1.327 . S
C2143 H2137 0.950 . S
C2143 C2142 1.327 . S
C2143 C2147 1.429 . S
C2144 C2127 1.574 . S
C2144 H2138 0.949 . S
C2144 C2148 1.368 . S
C2145 C2126 1.429 . S
C2145 C2139 1.429 . S
C2145 C2146 1.523 . S
C2146 C2127 1.368 . S
C2146 C2140 1.368 . S
C2146 C2145 1.523 . S
C2147 C2131 1.429 . S
C2147 C2143 1.429 . S
C2147 C2148 1.523 . S
C2148 C2132 1.368 . S
C2148 C2144 1.368 . S
C2148 C2147 1.523 . S
H2149 C2124 0.950 1_556 S
H2150 C2126 0.950 1_556 S
H2151 C2127 0.949 . S
H2152 C2129 0.950 . S
H2153 C2131 0.950 . S
C2154 C2155 1.349 . S
C2154 C2156 1.327 . S
C2154 H2179 0.950 . S
C2155 C2154 1.349 . S
C2155 C2171 1.349 . S
C2156 C2154 1.327 . S
C2156 C2175 1.429 . S
C2156 H2180 0.950 . S
C2157 C2174 1.574 . S
C2157 C2176 1.368 . S
C2157 H2181 0.949 . S
H2158 C2162 0.949 . S
C2159 C2160 1.349 . S
C2159 C2161 1.327 . S
C2159 H2182 0.950 . S
C2160 C2159 1.349 . S
C2160 C2172 1.349 . S
C2161 C2159 1.327 . S
C2161 C2177 1.429 . S
C2161 H2183 0.950 . S
C2162 H2158 0.949 . S
C2162 C2170 1.574 . S
C2162 C2178 1.368 . S
H2163 C2171 0.950 . S
H2164 C2169 0.950 . S
H2165 C2170 0.949 . S
H2166 C2172 0.950 1_556 S
H2167 C2173 0.950 1_556 S
H2168 C2174 0.949 . S
C2169 H2164 0.950 . S
C2169 C2171 1.327 . S
C2169 C2175 1.429 . S
C2170 C2162 1.574 . S
C2170 H2165 0.949 . S
C2170 C2176 1.368 . S
C2171 C2155 1.349 . S
C2171 H2163 0.950 . S
C2171 C2169 1.327 . S
C2172 C2160 1.349 . S
C2172 H2166 0.950 1_554 S
C2172 C2173 1.327 . S
C2173 H2167 0.950 1_554 S
C2173 C2172 1.327 . S
C2173 C2177 1.429 . S
C2174 C2157 1.574 . S
C2174 H2168 0.949 . S
C2174 C2178 1.368 . S
C2175 C2156 1.429 . S
C2175 C2169 1.429 . S
C2175 C2176 1.523 . S
C2176 C2157 1.368 . S
C2176 C2170 1.368 . S
C2176 C2175 1.523 . S
C2177 C2161 1.429 . S
C2177 C2173 1.429 . S
C2177 C2178 1.523 . S
C2178 C2162 1.368 . S
C2178 C2174 1.368 . S
C2178 C2177 1.523 . S
H2179 C2154 0.950 . S
H2180 C2156 0.950 . S
H2181 C2157 0.949 . S
H2182 C2159 0.950 . S
H2183 C2161 0.950 . S
C2184 C2185 1.349 . S
C2184 C2186 1.327 . S
C2184 H2209 0.950 1_554 S
C2185 C2184 1.349 . S
C2185 C2201 1.349 . S
C2186 C2184 1.327 . S
C2186 C2205 1.429 . S
C2186 H2210 0.950 1_554 S
C2187 C2204 1.574 . S
C2187 C2206 1.368 . S
C2187 H2211 0.949 . S
H2188 C2192 0.949 . S
C2189 C2190 1.349 . S
C2189 C2191 1.327 . S
C2189 H2212 0.950 . S
C2190 C2189 1.349 . S
C2190 C2202 1.349 . S
C2191 C2189 1.327 . S
C2191 C2207 1.429 . S
C2191 H2213 0.950 . S
C2192 H2188 0.949 . S
C2192 C2200 1.574 . S
C2192 C2208 1.368 . S
H2193 C2201 0.950 . S
H2194 C2199 0.950 . S
H2195 C2200 0.949 . S
H2196 C2202 0.950 . S
H2197 C2203 0.950 . S
H2198 C2204 0.949 . S
C2199 H2194 0.950 . S
C2199 C2201 1.327 . S
C2199 C2205 1.429 . S
C2200 C2192 1.574 . S
C2200 H2195 0.949 . S
C2200 C2206 1.368 . S
C2201 C2185 1.349 . S
C2201 H2193 0.950 . S
C2201 C2199 1.327 . S
C2202 C2190 1.349 . S
C2202 H2196 0.950 . S
C2202 C2203 1.327 . S
C2203 H2197 0.950 . S
C2203 C2202 1.327 . S
C2203 C2207 1.429 . S
C2204 C2187 1.574 . S
C2204 H2198 0.949 . S
C2204 C2208 1.368 . S
C2205 C2186 1.429 . S
C2205 C2199 1.429 . S
C2205 C2206 1.523 . S
C2206 C2187 1.368 . S
C2206 C2200 1.368 . S
C2206 C2205 1.523 . S
C2207 C2191 1.429 . S
C2207 C2203 1.429 . S
C2207 C2208 1.523 . S
C2208 C2192 1.368 . S
C2208 C2204 1.368 . S
C2208 C2207 1.523 . S
H2209 C2184 0.950 1_556 S
H2210 C2186 0.950 1_556 S
H2211 C2187 0.949 . S
H2212 C2189 0.950 . S
H2213 C2191 0.950 . S
C2214 C2215 1.349 . S
C2214 C2216 1.327 . S
C2214 H2239 0.950 . S
C2215 C2214 1.349 . S
C2215 C2231 1.349 . S
C2216 C2214 1.327 . S
C2216 C2235 1.429 . S
C2216 H2240 0.950 . S
C2217 C2234 1.574 . S
C2217 C2236 1.368 . S
C2217 H2241 0.949 . S
H2218 C2222 0.949 . S
C2219 C2220 1.349 . S
C2219 C2221 1.327 . S
C2219 H2242 0.950 . S
C2220 C2219 1.349 . S
C2220 C2232 1.349 . S
C2221 C2219 1.327 . S
C2221 C2237 1.429 . S
C2221 H2243 0.950 . S
C2222 H2218 0.949 . S
C2222 C2230 1.574 . S
C2222 C2238 1.368 . S
H2223 C2231 0.950 . S
H2224 C2229 0.950 . S
H2225 C2230 0.949 . S
H2226 C2232 0.950 . S
H2227 C2233 0.950 . S
H2228 C2234 0.949 . S
C2229 H2224 0.950 . S
C2229 C2231 1.327 . S
C2229 C2235 1.429 . S
C2230 C2222 1.574 . S
C2230 H2225 0.949 . S
C2230 C2236 1.368 . S
C2231 C2215 1.349 . S
C2231 H2223 0.950 . S
C2231 C2229 1.327 . S
C2232 C2220 1.349 . S
C2232 H2226 0.950 . S
C2232 C2233 1.327 . S
C2233 H2227 0.950 . S
C2233 C2232 1.327 . S
C2233 C2237 1.429 . S
C2234 C2217 1.574 . S
C2234 H2228 0.949 . S
C2234 C2238 1.368 . S
C2235 C2216 1.429 . S
C2235 C2229 1.429 . S
C2235 C2236 1.523 . S
C2236 C2217 1.368 . S
C2236 C2230 1.368 . S
C2236 C2235 1.523 . S
C2237 C2221 1.429 . S
C2237 C2233 1.429 . S
C2237 C2238 1.523 . S
C2238 C2222 1.368 . S
C2238 C2234 1.368 . S
C2238 C2237 1.523 . S
H2239 C2214 0.950 . S
H2240 C2216 0.950 . S
H2241 C2217 0.949 . S
H2242 C2219 0.950 . S
H2243 C2221 0.950 . S
C2244 C2245 1.349 . S
C2244 C2246 1.327 . S
C2244 H2269 0.950 . S
C2245 C2244 1.349 . S
C2245 C2261 1.349 . S
C2246 C2244 1.327 . S
C2246 C2265 1.429 . S
C2246 H2270 0.950 . S
C2247 C2264 1.574 . S
C2247 C2266 1.368 . S
C2247 H2271 0.949 . S
H2248 C2252 0.949 . S
C2249 C2250 1.349 . S
C2249 C2251 1.327 . S
C2249 H2272 0.950 . S
C2250 C2249 1.349 . S
C2250 C2262 1.349 . S
C2251 C2249 1.327 . S
C2251 C2267 1.429 . S
C2251 H2273 0.950 . S
C2252 H2248 0.949 . S
C2252 C2260 1.574 . S
C2252 C2268 1.368 . S
H2253 C2261 0.950 . S
H2254 C2259 0.950 . S
H2255 C2260 0.949 . S
H2256 C2262 0.950 . S
H2257 C2263 0.950 . S
H2258 C2264 0.949 . S
C2259 H2254 0.950 . S
C2259 C2261 1.327 . S
C2259 C2265 1.429 . S
C2260 C2252 1.574 . S
C2260 H2255 0.949 . S
C2260 C2266 1.368 . S
C2261 C2245 1.349 . S
C2261 H2253 0.950 . S
C2261 C2259 1.327 . S
C2262 C2250 1.349 . S
C2262 H2256 0.950 . S
C2262 C2263 1.327 . S
C2263 H2257 0.950 . S
C2263 C2262 1.327 . S
C2263 C2267 1.429 . S
C2264 C2247 1.574 . S
C2264 H2258 0.949 . S
C2264 C2268 1.368 . S
C2265 C2246 1.429 . S
C2265 C2259 1.429 . S
C2265 C2266 1.523 . S
C2266 C2247 1.368 . S
C2266 C2260 1.368 . S
C2266 C2265 1.523 . S
C2267 C2251 1.429 . S
C2267 C2263 1.429 . S
C2267 C2268 1.523 . S
C2268 C2252 1.368 . S
C2268 C2264 1.368 . S
C2268 C2267 1.523 . S
H2269 C2244 0.950 . S
H2270 C2246 0.950 . S
H2271 C2247 0.949 . S
H2272 C2249 0.950 . S
H2273 C2251 0.950 . S
C2274 C2275 1.349 . S
C2274 C2276 1.327 . S
C2274 H2299 0.950 . S
C2275 C2274 1.349 . S
C2275 C2291 1.349 . S
C2276 C2274 1.327 . S
C2276 C2295 1.429 . S
C2276 H2300 0.950 . S
C2277 C2294 1.574 . S
C2277 C2296 1.368 . S
C2277 H2301 0.949 . S
H2278 C2282 0.949 . S
C2279 C2280 1.349 . S
C2279 C2281 1.327 . S
C2279 H2302 0.950 . S
C2280 C2279 1.349 . S
C2280 C2292 1.349 . S
C2281 C2279 1.327 . S
C2281 C2297 1.429 . S
C2281 H2303 0.950 . S
C2282 H2278 0.949 . S
C2282 C2290 1.574 . S
C2282 C2298 1.368 . S
H2283 C2291 0.950 . S
H2284 C2289 0.950 . S
H2285 C2290 0.949 . S
H2286 C2292 0.950 . S
H2287 C2293 0.950 . S
H2288 C2294 0.949 . S
C2289 H2284 0.950 . S
C2289 C2291 1.327 . S
C2289 C2295 1.429 . S
C2290 C2282 1.574 . S
C2290 H2285 0.949 . S
C2290 C2296 1.368 . S
C2291 C2275 1.349 . S
C2291 H2283 0.950 . S
C2291 C2289 1.327 . S
C2292 C2280 1.349 . S
C2292 H2286 0.950 . S
C2292 C2293 1.327 . S
C2293 H2287 0.950 . S
C2293 C2292 1.327 . S
C2293 C2297 1.429 . S
C2294 C2277 1.574 . S
C2294 H2288 0.949 . S
C2294 C2298 1.368 . S
C2295 C2276 1.429 . S
C2295 C2289 1.429 . S
C2295 C2296 1.523 . S
C2296 C2277 1.368 . S
C2296 C2290 1.368 . S
C2296 C2295 1.523 . S
C2297 C2281 1.429 . S
C2297 C2293 1.429 . S
C2297 C2298 1.523 . S
C2298 C2282 1.368 . S
C2298 C2294 1.368 . S
C2298 C2297 1.523 . S
H2299 C2274 0.950 . S
H2300 C2276 0.950 . S
H2301 C2277 0.949 . S
H2302 C2279 0.950 . S
H2303 C2281 0.950 . S
C2304 C2305 1.349 . S
C2304 C2306 1.327 . S
C2304 H2329 0.950 . S
C2305 C2304 1.349 . S
C2305 C2321 1.349 . S
C2306 C2304 1.327 . S
C2306 C2325 1.429 . S
C2306 H2330 0.950 . S
C2307 C2324 1.574 . S
C2307 C2326 1.368 . S
C2307 H2331 0.949 . S
H2308 C2312 0.949 . S
C2309 C2310 1.349 . S
C2309 C2311 1.327 . S
C2309 H2332 0.950 . S
C2310 C2309 1.349 . S
C2310 C2322 1.349 . S
C2311 C2309 1.327 . S
C2311 C2327 1.429 . S
C2311 H2333 0.950 . S
C2312 H2308 0.949 . S
C2312 C2320 1.574 . S
C2312 C2328 1.368 . S
H2313 C2321 0.950 . S
H2314 C2319 0.950 . S
H2315 C2320 0.949 . S
H2316 C2322 0.950 1_554 S
H2317 C2323 0.950 1_554 S
H2318 C2324 0.949 . S
C2319 H2314 0.950 . S
C2319 C2321 1.327 . S
C2319 C2325 1.429 . S
C2320 C2312 1.574 . S
C2320 H2315 0.949 . S
C2320 C2326 1.368 . S
C2321 C2305 1.349 . S
C2321 H2313 0.950 . S
C2321 C2319 1.327 . S
C2322 C2310 1.349 . S
C2322 H2316 0.950 1_556 S
C2322 C2323 1.327 . S
C2323 H2317 0.950 1_556 S
C2323 C2322 1.327 . S
C2323 C2327 1.429 . S
C2324 C2307 1.574 . S
C2324 H2318 0.949 . S
C2324 C2328 1.368 . S
C2325 C2306 1.429 . S
C2325 C2319 1.429 . S
C2325 C2326 1.523 . S
C2326 C2307 1.368 . S
C2326 C2320 1.368 . S
C2326 C2325 1.523 . S
C2327 C2311 1.429 . S
C2327 C2323 1.429 . S
C2327 C2328 1.523 . S
C2328 C2312 1.368 . S
C2328 C2324 1.368 . S
C2328 C2327 1.523 . S
H2329 C2304 0.950 . S
H2330 C2306 0.950 . S
H2331 C2307 0.949 . S
H2332 C2309 0.950 . S
H2333 C2311 0.950 . S
C2334 C2335 1.349 . S
C2334 C2336 1.327 . S
C2334 H2359 0.950 1_556 S
C2335 C2334 1.349 . S
C2335 C2351 1.349 . S
C2336 C2334 1.327 . S
C2336 C2355 1.429 . S
C2336 H2360 0.950 1_556 S
C2337 C2354 1.574 . S
C2337 C2356 1.368 . S
C2337 H2361 0.949 . S
H2338 C2342 0.949 . S
C2339 C2340 1.349 . S
C2339 C2341 1.327 . S
C2339 H2362 0.950 . S
C2340 C2339 1.349 . S
C2340 C2352 1.349 . S
C2341 C2339 1.327 . S
C2341 C2357 1.429 . S
C2341 H2363 0.950 . S
C2342 H2338 0.949 . S
C2342 C2350 1.574 . S
C2342 C2358 1.368 . S
H2343 C2351 0.950 . S
H2344 C2349 0.950 . S
H2345 C2350 0.949 . S
H2346 C2352 0.950 . S
H2347 C2353 0.950 . S
H2348 C2354 0.949 . S
C2349 H2344 0.950 . S
C2349 C2351 1.327 . S
C2349 C2355 1.429 . S
C2350 C2342 1.574 . S
C2350 H2345 0.949 . S
C2350 C2356 1.368 . S
C2351 C2335 1.349 . S
C2351 H2343 0.950 . S
C2351 C2349 1.327 . S
C2352 C2340 1.349 . S
C2352 H2346 0.950 . S
C2352 C2353 1.327 . S
C2353 H2347 0.950 . S
C2353 C2352 1.327 . S
C2353 C2357 1.429 . S
C2354 C2337 1.574 . S
C2354 H2348 0.949 . S
C2354 C2358 1.368 . S
C2355 C2336 1.429 . S
C2355 C2349 1.429 . S
C2355 C2356 1.523 . S
C2356 C2337 1.368 . S
C2356 C2350 1.368 . S
C2356 C2355 1.523 . S
C2357 C2341 1.429 . S
C2357 C2353 1.429 . S
C2357 C2358 1.523 . S
C2358 C2342 1.368 . S
C2358 C2354 1.368 . S
C2358 C2357 1.523 . S
H2359 C2334 0.950 1_554 S
H2360 C2336 0.950 1_554 S
H2361 C2337 0.949 . S
H2362 C2339 0.950 . S
H2363 C2341 0.950 . S
C2364 C2365 1.349 . S
C2364 C2366 1.327 . S
C2364 H2389 0.950 . S
C2365 C2364 1.349 . S
C2365 C2381 1.349 . S
C2366 C2364 1.327 . S
C2366 C2385 1.429 . S
C2366 H2390 0.950 . S
C2367 C2384 1.574 . S
C2367 C2386 1.368 . S
C2367 H2391 0.949 . S
H2368 C2372 0.949 . S
C2369 C2370 1.349 . S
C2369 C2371 1.327 . S
C2369 H2392 0.950 . S
C2370 C2369 1.349 . S
C2370 C2382 1.349 . S
C2371 C2369 1.327 . S
C2371 C2387 1.429 . S
C2371 H2393 0.950 . S
C2372 H2368 0.949 . S
C2372 C2380 1.574 . S
C2372 C2388 1.368 . S
H2373 C2381 0.950 . S
H2374 C2379 0.950 . S
H2375 C2380 0.949 . S
H2376 C2382 0.950 1_554 S
H2377 C2383 0.950 1_554 S
H2378 C2384 0.949 . S
C2379 H2374 0.950 . S
C2379 C2381 1.327 . S
C2379 C2385 1.429 . S
C2380 C2372 1.574 . S
C2380 H2375 0.949 . S
C2380 C2386 1.368 . S
C2381 C2365 1.349 . S
C2381 H2373 0.950 . S
C2381 C2379 1.327 . S
C2382 C2370 1.349 . S
C2382 H2376 0.950 1_556 S
C2382 C2383 1.327 . S
C2383 H2377 0.950 1_556 S
C2383 C2382 1.327 . S
C2383 C2387 1.429 . S
C2384 C2367 1.574 . S
C2384 H2378 0.949 . S
C2384 C2388 1.368 . S
C2385 C2366 1.429 . S
C2385 C2379 1.429 . S
C2385 C2386 1.523 . S
C2386 C2367 1.368 . S
C2386 C2380 1.368 . S
C2386 C2385 1.523 . S
C2387 C2371 1.429 . S
C2387 C2383 1.429 . S
C2387 C2388 1.523 . S
C2388 C2372 1.368 . S
C2388 C2384 1.368 . S
C2388 C2387 1.523 . S
H2389 C2364 0.950 . S
H2390 C2366 0.950 . S
H2391 C2367 0.949 . S
H2392 C2369 0.950 . S
H2393 C2371 0.950 . S
C2394 C2395 1.349 . S
C2394 C2396 1.327 . S
C2394 H2419 0.950 . S
C2395 C2394 1.349 . S
C2395 C2411 1.349 . S
C2396 C2394 1.327 . S
C2396 C2415 1.429 . S
C2396 H2420 0.950 . S
C2397 C2414 1.574 . S
C2397 C2416 1.368 . S
C2397 H2421 0.949 . S
H2398 C2402 0.949 . S
C2399 C2400 1.349 . S
C2399 C2401 1.327 . S
C2399 H2422 0.950 . S
C2400 C2399 1.349 . S
C2400 C2412 1.349 . S
C2401 C2399 1.327 . S
C2401 C2417 1.429 . S
C2401 H2423 0.950 . S
C2402 H2398 0.949 . S
C2402 C2410 1.574 . S
C2402 C2418 1.368 . S
H2403 C2411 0.950 . S
H2404 C2409 0.950 . S
H2405 C2410 0.949 . S
H2406 C2412 0.950 . S
H2407 C2413 0.950 . S
H2408 C2414 0.949 . S
C2409 H2404 0.950 . S
C2409 C2411 1.327 . S
C2409 C2415 1.429 . S
C2410 C2402 1.574 . S
C2410 H2405 0.949 . S
C2410 C2416 1.368 . S
C2411 C2395 1.349 . S
C2411 H2403 0.950 . S
C2411 C2409 1.327 . S
C2412 C2400 1.349 . S
C2412 H2406 0.950 . S
C2412 C2413 1.327 . S
C2413 H2407 0.950 . S
C2413 C2412 1.327 . S
C2413 C2417 1.429 . S
C2414 C2397 1.574 . S
C2414 H2408 0.949 . S
C2414 C2418 1.368 . S
C2415 C2396 1.429 . S
C2415 C2409 1.429 . S
C2415 C2416 1.523 . S
C2416 C2397 1.368 . S
C2416 C2410 1.368 . S
C2416 C2415 1.523 . S
C2417 C2401 1.429 . S
C2417 C2413 1.429 . S
C2417 C2418 1.523 . S
C2418 C2402 1.368 . S
C2418 C2414 1.368 . S
C2418 C2417 1.523 . S
H2419 C2394 0.950 . S
H2420 C2396 0.950 . S
H2421 C2397 0.949 . S
H2422 C2399 0.950 . S
H2423 C2401 0.950 . S
C2424 C2425 1.349 . S
C2424 C2426 1.327 . S
C2424 H2449 0.950 . S
C2425 C2424 1.349 . S
C2425 C2441 1.349 . S
C2426 C2424 1.327 . S
C2426 C2445 1.429 . S
C2426 H2450 0.950 . S
C2427 C2444 1.574 . S
C2427 C2446 1.368 . S
C2427 H2451 0.949 . S
H2428 C2432 0.949 . S
C2429 C2430 1.349 . S
C2429 C2431 1.327 . S
C2429 H2452 0.950 . S
C2430 C2429 1.349 . S
C2430 C2442 1.349 . S
C2431 C2429 1.327 . S
C2431 C2447 1.429 . S
C2431 H2453 0.950 . S
C2432 H2428 0.949 . S
C2432 C2440 1.574 . S
C2432 C2448 1.368 . S
H2433 C2441 0.950 . S
H2434 C2439 0.950 . S
H2435 C2440 0.949 . S
H2436 C2442 0.950 . S
H2437 C2443 0.950 . S
H2438 C2444 0.949 . S
C2439 H2434 0.950 . S
C2439 C2441 1.327 . S
C2439 C2445 1.429 . S
C2440 C2432 1.574 . S
C2440 H2435 0.949 . S
C2440 C2446 1.368 . S
C2441 C2425 1.349 . S
C2441 H2433 0.950 . S
C2441 C2439 1.327 . S
C2442 C2430 1.349 . S
C2442 H2436 0.950 . S
C2442 C2443 1.327 . S
C2443 H2437 0.950 . S
C2443 C2442 1.327 . S
C2443 C2447 1.429 . S
C2444 C2427 1.574 . S
C2444 H2438 0.949 . S
C2444 C2448 1.368 . S
C2445 C2426 1.429 . S
C2445 C2439 1.429 . S
C2445 C2446 1.523 . S
C2446 C2427 1.368 . S
C2446 C2440 1.368 . S
C2446 C2445 1.523 . S
C2447 C2431 1.429 . S
C2447 C2443 1.429 . S
C2447 C2448 1.523 . S
C2448 C2432 1.368 . S
C2448 C2444 1.368 . S
C2448 C2447 1.523 . S
H2449 C2424 0.950 . S
H2450 C2426 0.950 . S
H2451 C2427 0.949 . S
H2452 C2429 0.950 . S
H2453 C2431 0.950 . S
C2454 C2455 1.349 . S
C2454 C2456 1.327 . S
C2454 H2479 0.950 . S
C2455 C2454 1.349 . S
C2455 C2471 1.349 . S
C2456 C2454 1.327 . S
C2456 C2475 1.429 . S
C2456 H2480 0.950 . S
C2457 C2474 1.574 . S
C2457 C2476 1.368 . S
C2457 H2481 0.949 . S
H2458 C2462 0.949 . S
C2459 C2460 1.349 . S
C2459 C2461 1.327 . S
C2459 H2482 0.950 . S
C2460 C2459 1.349 . S
C2460 C2472 1.349 . S
C2461 C2459 1.327 . S
C2461 C2477 1.429 . S
C2461 H2483 0.950 . S
C2462 H2458 0.949 . S
C2462 C2470 1.574 . S
C2462 C2478 1.368 . S
H2463 C2471 0.950 . S
H2464 C2469 0.950 . S
H2465 C2470 0.949 . S
H2466 C2472 0.950 . S
H2467 C2473 0.950 . S
H2468 C2474 0.949 . S
C2469 H2464 0.950 . S
C2469 C2471 1.327 . S
C2469 C2475 1.429 . S
C2470 C2462 1.574 . S
C2470 H2465 0.949 . S
C2470 C2476 1.368 . S
C2471 C2455 1.349 . S
C2471 H2463 0.950 . S
C2471 C2469 1.327 . S
C2472 C2460 1.349 . S
C2472 H2466 0.950 . S
C2472 C2473 1.327 . S
C2473 H2467 0.950 . S
C2473 C2472 1.327 . S
C2473 C2477 1.429 . S
C2474 C2457 1.574 . S
C2474 H2468 0.949 . S
C2474 C2478 1.368 . S
C2475 C2456 1.429 . S
C2475 C2469 1.429 . S
C2475 C2476 1.523 . S
C2476 C2457 1.368 . S
C2476 C2470 1.368 . S
C2476 C2475 1.523 . S
C2477 C2461 1.429 . S
C2477 C2473 1.429 . S
C2477 C2478 1.523 . S
C2478 C2462 1.368 . S
C2478 C2474 1.368 . S
C2478 C2477 1.523 . S
H2479 C2454 0.950 . S
H2480 C2456 0.950 . S
H2481 C2457 0.949 . S
H2482 C2459 0.950 . S
H2483 C2461 0.950 . S
C2484 C2485 1.349 . S
C2484 C2486 1.327 . S
C2484 H2509 0.950 . S
C2485 C2484 1.349 . S
C2485 C2501 1.349 . S
C2486 C2484 1.327 . S
C2486 C2505 1.429 . S
C2486 H2510 0.950 . S
C2487 C2504 1.574 1_455 S
C2487 C2506 1.368 . S
C2487 H2511 0.949 . S
H2488 C2492 0.949 . S
C2489 C2490 1.349 . S
C2489 C2491 1.327 . S
C2489 H2512 0.950 . S
C2490 C2489 1.349 . S
C2490 C2502 1.349 . S
C2491 C2489 1.327 . S
C2491 C2507 1.429 . S
C2491 H2513 0.950 . S
C2492 H2488 0.949 . S
C2492 C2500 1.574 1_655 S
C2492 C2508 1.368 . S
H2493 C2501 0.950 . S
H2494 C2499 0.950 . S
H2495 C2500 0.949 . S
H2496 C2502 0.950 . S
H2497 C2503 0.950 . S
H2498 C2504 0.949 . S
C2499 H2494 0.950 . S
C2499 C2501 1.327 . S
C2499 C2505 1.429 . S
C2500 C2492 1.574 1_455 S
C2500 H2495 0.949 . S
C2500 C2506 1.368 . S
C2501 C2485 1.349 . S
C2501 H2493 0.950 . S
C2501 C2499 1.327 . S
C2502 C2490 1.349 . S
C2502 H2496 0.950 . S
C2502 C2503 1.327 . S
C2503 H2497 0.950 . S
C2503 C2502 1.327 . S
C2503 C2507 1.429 . S
C2504 C2487 1.574 1_655 S
C2504 H2498 0.949 . S
C2504 C2508 1.368 . S
C2505 C2486 1.429 . S
C2505 C2499 1.429 . S
C2505 C2506 1.523 . S
C2506 C2487 1.368 . S
C2506 C2500 1.368 . S
C2506 C2505 1.523 . S
C2507 C2491 1.429 . S
C2507 C2503 1.429 . S
C2507 C2508 1.523 . S
C2508 C2492 1.368 . S
C2508 C2504 1.368 . S
C2508 C2507 1.523 . S
H2509 C2484 0.950 . S
H2510 C2486 0.950 . S
H2511 C2487 0.949 . S
H2512 C2489 0.950 . S
H2513 C2491 0.950 . S
C2514 C2515 1.349 . S
C2514 C2516 1.327 . S
C2514 H2539 0.950 . S
C2515 C2514 1.349 . S
C2515 C2531 1.349 . S
C2516 C2514 1.327 . S
C2516 C2535 1.429 . S
C2516 H2540 0.950 . S
C2517 C2534 1.574 . S
C2517 C2536 1.368 . S
C2517 H2541 0.949 . S
H2518 C2522 0.949 . S
C2519 C2520 1.349 . S
C2519 C2521 1.327 . S
C2519 H2542 0.950 . S
C2520 C2519 1.349 . S
C2520 C2532 1.349 . S
C2521 C2519 1.327 . S
C2521 C2537 1.429 . S
C2521 H2543 0.950 . S
C2522 H2518 0.949 . S
C2522 C2530 1.574 . S
C2522 C2538 1.368 . S
H2523 C2531 0.950 . S
H2524 C2529 0.950 . S
H2525 C2530 0.949 . S
H2526 C2532 0.950 . S
H2527 C2533 0.950 . S
H2528 C2534 0.949 . S
C2529 H2524 0.950 . S
C2529 C2531 1.327 . S
C2529 C2535 1.429 . S
C2530 C2522 1.574 . S
C2530 H2525 0.949 . S
C2530 C2536 1.368 . S
C2531 C2515 1.349 . S
C2531 H2523 0.950 . S
C2531 C2529 1.327 . S
C2532 C2520 1.349 . S
C2532 H2526 0.950 . S
C2532 C2533 1.327 . S
C2533 H2527 0.950 . S
C2533 C2532 1.327 . S
C2533 C2537 1.429 . S
C2534 C2517 1.574 . S
C2534 H2528 0.949 . S
C2534 C2538 1.368 . S
C2535 C2516 1.429 . S
C2535 C2529 1.429 . S
C2535 C2536 1.523 . S
C2536 C2517 1.368 . S
C2536 C2530 1.368 . S
C2536 C2535 1.523 . S
C2537 C2521 1.429 . S
C2537 C2533 1.429 . S
C2537 C2538 1.523 . S
C2538 C2522 1.368 . S
C2538 C2534 1.368 . S
C2538 C2537 1.523 . S
H2539 C2514 0.950 . S
H2540 C2516 0.950 . S
H2541 C2517 0.949 . S
H2542 C2519 0.950 . S
H2543 C2521 0.950 . S
C2544 C2545 1.349 . S
C2544 C2546 1.327 . S
C2544 H2569 0.950 . S
C2545 C2544 1.349 . S
C2545 C2561 1.349 . S
C2546 C2544 1.327 . S
C2546 C2565 1.429 . S
C2546 H2570 0.950 . S
C2547 C2564 1.574 1_565 S
C2547 C2566 1.368 . S
C2547 H2571 0.949 . S
H2548 C2552 0.949 . S
C2549 C2550 1.349 . S
C2549 C2551 1.327 . S
C2549 H2572 0.950 . S
C2550 C2549 1.349 . S
C2550 C2562 1.349 . S
C2551 C2549 1.327 . S
C2551 C2567 1.429 . S
C2551 H2573 0.950 . S
C2552 H2548 0.949 . S
C2552 C2560 1.574 1_545 S
C2552 C2568 1.368 . S
H2553 C2561 0.950 . S
H2554 C2559 0.950 . S
H2555 C2560 0.949 . S
H2556 C2562 0.950 . S
H2557 C2563 0.950 . S
H2558 C2564 0.949 . S
C2559 H2554 0.950 . S
C2559 C2561 1.327 . S
C2559 C2565 1.429 . S
C2560 C2552 1.574 1_565 S
C2560 H2555 0.949 . S
C2560 C2566 1.368 . S
C2561 C2545 1.349 . S
C2561 H2553 0.950 . S
C2561 C2559 1.327 . S
C2562 C2550 1.349 . S
C2562 H2556 0.950 . S
C2562 C2563 1.327 . S
C2563 H2557 0.950 . S
C2563 C2562 1.327 . S
C2563 C2567 1.429 . S
C2564 C2547 1.574 1_545 S
C2564 H2558 0.949 . S
C2564 C2568 1.368 . S
C2565 C2546 1.429 . S
C2565 C2559 1.429 . S
C2565 C2566 1.523 . S
C2566 C2547 1.368 . S
C2566 C2560 1.368 . S
C2566 C2565 1.523 . S
C2567 C2551 1.429 . S
C2567 C2563 1.429 . S
C2567 C2568 1.523 . S
C2568 C2552 1.368 . S
C2568 C2564 1.368 . S
C2568 C2567 1.523 . S
H2569 C2544 0.950 . S
H2570 C2546 0.950 . S
H2571 C2547 0.949 . S
H2572 C2549 0.950 . S
H2573 C2551 0.950 . S
C2574 C2575 1.349 . S
C2574 C2576 1.327 . S
C2574 H2599 0.950 . S
C2575 C2574 1.349 . S
C2575 C2591 1.349 . S
C2576 C2574 1.327 . S
C2576 C2595 1.429 . S
C2576 H2600 0.950 . S
C2577 C2594 1.574 1_545 S
C2577 C2596 1.368 . S
C2577 H2601 0.949 . S
H2578 C2582 0.949 . S
C2579 C2580 1.349 . S
C2579 C2581 1.327 . S
C2579 H2602 0.950 . S
C2580 C2579 1.349 . S
C2580 C2592 1.349 . S
C2581 C2579 1.327 . S
C2581 C2597 1.429 . S
C2581 H2603 0.950 . S
C2582 H2578 0.949 . S
C2582 C2590 1.574 1_565 S
C2582 C2598 1.368 . S
H2583 C2591 0.950 . S
H2584 C2589 0.950 . S
H2585 C2590 0.949 . S
H2586 C2592 0.950 . S
H2587 C2593 0.950 . S
H2588 C2594 0.949 . S
C2589 H2584 0.950 . S
C2589 C2591 1.327 . S
C2589 C2595 1.429 . S
C2590 C2582 1.574 1_545 S
C2590 H2585 0.949 . S
C2590 C2596 1.368 . S
C2591 C2575 1.349 . S
C2591 H2583 0.950 . S
C2591 C2589 1.327 . S
C2592 C2580 1.349 . S
C2592 H2586 0.950 . S
C2592 C2593 1.327 . S
C2593 H2587 0.950 . S
C2593 C2592 1.327 . S
C2593 C2597 1.429 . S
C2594 C2577 1.574 1_565 S
C2594 H2588 0.949 . S
C2594 C2598 1.368 . S
C2595 C2576 1.429 . S
C2595 C2589 1.429 . S
C2595 C2596 1.523 . S
C2596 C2577 1.368 . S
C2596 C2590 1.368 . S
C2596 C2595 1.523 . S
C2597 C2581 1.429 . S
C2597 C2593 1.429 . S
C2597 C2598 1.523 . S
C2598 C2582 1.368 . S
C2598 C2594 1.368 . S
C2598 C2597 1.523 . S
H2599 C2574 0.950 . S
H2600 C2576 0.950 . S
H2601 C2577 0.949 . S
H2602 C2579 0.950 . S
H2603 C2581 0.950 . S
C2604 C2605 1.349 . S
C2604 C2606 1.327 . S
C2604 H2629 0.950 . S
C2605 C2604 1.349 . S
C2605 C2621 1.349 . S
C2606 C2604 1.327 . S
C2606 C2625 1.429 . S
C2606 H2630 0.950 . S
C2607 C2624 1.574 1_455 S
C2607 C2626 1.368 . S
C2607 H2631 0.949 . S
H2608 C2612 0.949 . S
C2609 C2610 1.349 . S
C2609 C2611 1.327 . S
C2609 H2632 0.950 . S
C2610 C2609 1.349 . S
C2610 C2622 1.349 . S
C2611 C2609 1.327 . S
C2611 C2627 1.429 . S
C2611 H2633 0.950 . S
C2612 H2608 0.949 . S
C2612 C2620 1.574 1_655 S
C2612 C2628 1.368 . S
H2613 C2621 0.950 . S
H2614 C2619 0.950 . S
H2615 C2620 0.949 . S
H2616 C2622 0.950 . S
H2617 C2623 0.950 . S
H2618 C2624 0.949 . S
C2619 H2614 0.950 . S
C2619 C2621 1.327 . S
C2619 C2625 1.429 . S
C2620 C2612 1.574 1_455 S
C2620 H2615 0.949 . S
C2620 C2626 1.368 . S
C2621 C2605 1.349 . S
C2621 H2613 0.950 . S
C2621 C2619 1.327 . S
C2622 C2610 1.349 . S
C2622 H2616 0.950 . S
C2622 C2623 1.327 . S
C2623 H2617 0.950 . S
C2623 C2622 1.327 . S
C2623 C2627 1.429 . S
C2624 C2607 1.574 1_655 S
C2624 H2618 0.949 . S
C2624 C2628 1.368 . S
C2625 C2606 1.429 . S
C2625 C2619 1.429 . S
C2625 C2626 1.523 . S
C2626 C2607 1.368 . S
C2626 C2620 1.368 . S
C2626 C2625 1.523 . S
C2627 C2611 1.429 . S
C2627 C2623 1.429 . S
C2627 C2628 1.523 . S
C2628 C2612 1.368 . S
C2628 C2624 1.368 . S
C2628 C2627 1.523 . S
H2629 C2604 0.950 . S
H2630 C2606 0.950 . S
H2631 C2607 0.949 . S
H2632 C2609 0.950 . S
H2633 C2611 0.950 . S
C2634 C2635 1.349 . S
C2634 C2636 1.327 . S
C2634 H2659 0.950 . S
C2635 C2634 1.349 . S
C2635 C2651 1.349 . S
C2636 C2634 1.327 . S
C2636 C2655 1.429 . S
C2636 H2660 0.950 . S
C2637 C2654 1.574 . S
C2637 C2656 1.368 . S
C2637 H2661 0.949 . S
H2638 C2642 0.949 . S
C2639 C2640 1.349 . S
C2639 C2641 1.327 . S
C2639 H2662 0.950 . S
C2640 C2639 1.349 . S
C2640 C2652 1.349 . S
C2641 C2639 1.327 . S
C2641 C2657 1.429 . S
C2641 H2663 0.950 . S
C2642 H2638 0.949 . S
C2642 C2650 1.574 . S
C2642 C2658 1.368 . S
H2643 C2651 0.950 . S
H2644 C2649 0.950 . S
H2645 C2650 0.949 . S
H2646 C2652 0.950 . S
H2647 C2653 0.950 . S
H2648 C2654 0.949 . S
C2649 H2644 0.950 . S
C2649 C2651 1.327 . S
C2649 C2655 1.429 . S
C2650 C2642 1.574 . S
C2650 H2645 0.949 . S
C2650 C2656 1.368 . S
C2651 C2635 1.349 . S
C2651 H2643 0.950 . S
C2651 C2649 1.327 . S
C2652 C2640 1.349 . S
C2652 H2646 0.950 . S
C2652 C2653 1.327 . S
C2653 H2647 0.950 . S
C2653 C2652 1.327 . S
C2653 C2657 1.429 . S
C2654 C2637 1.574 . S
C2654 H2648 0.949 . S
C2654 C2658 1.368 . S
C2655 C2636 1.429 . S
C2655 C2649 1.429 . S
C2655 C2656 1.523 . S
C2656 C2637 1.368 . S
C2656 C2650 1.368 . S
C2656 C2655 1.523 . S
C2657 C2641 1.429 . S
C2657 C2653 1.429 . S
C2657 C2658 1.523 . S
C2658 C2642 1.368 . S
C2658 C2654 1.368 . S
C2658 C2657 1.523 . S
H2659 C2634 0.950 . S
H2660 C2636 0.950 . S
H2661 C2637 0.949 . S
H2662 C2639 0.950 . S
H2663 C2641 0.950 . S
C505 C50 1.008 . S
C510 C8 1.008 . S
C535 C64 1.008 . S
C540 C22 1.008 . S
C565 C78 1.008 . S
C570 C36 1.008 . S
C595 C92 1.008 . S
C600 C134 1.008 . S
C625 C106 1.008 . S
C630 C148 1.008 . S
C655 C162 1.008 . S
C660 C120 1.008 . S
C685 C176 0.995 . S
C690 C218 0.995 . S
C715 C190 0.995 . S
C720 C232 0.995 . S
C745 C204 0.995 . S
C750 C246 0.995 . S
C775 C260 0.992 . S
C780 C302 0.991 . S
C805 C316 0.992 . S
C810 C274 0.991 . S
C835 C288 0.992 . S
C840 C330 0.991 . S
C865 C344 0.992 . S
C870 C386 0.991 . S
C895 C358 0.992 . S
C900 C400 0.991 . S
C925 C414 0.992 . S
C930 C372 0.991 . S
C955 C470 0.995 . S
C960 C428 0.995 . S
C985 C484 0.995 . S
C990 C442 0.995 . S
C1015 C498 0.995 . S
C1020 C456 0.995 . S
C1045 C161 1.482 . S
C1050 C9 1.516 . S
C1075 C23 1.516 . S
C1080 C133 1.482 . S
C1105 C37 1.516 . S
C1110 C147 1.482 . S
C1135 C105 1.494 . S
C1140 C51 1.530 . S
C1165 C65 1.529 . S
C1170 C119 1.494 . S
C1195 C91 1.494 . S
C1200 C79 1.529 . S
C1225 C93 1.516 . S
C1230 C77 1.482 . S
C1255 C107 1.516 . S
C1260 C49 1.482 . S
C1285 C63 1.482 . S
C1290 C121 1.516 . S
C1315 C21 1.494 . S
C1320 C135 1.530 . S
C1345 C35 1.494 . S
C1350 C149 1.529 . S
C1375 C163 1.529 . S
C1380 C7 1.494 . S
C1405 C177 1.483 . S
C1410 C329 1.444 . S
C1435 C301 1.446 . S
C1440 C191 1.480 . S
C1465 C315 1.446 . S
C1470 C205 1.480 . S
C1495 C219 1.519 . S
C1500 C273 1.479 . S
C1525 C287 1.479 . S
C1530 C233 1.519 . S
C1555 C247 1.519 . S
C1560 C259 1.479 . S
C1585 C261 1.514 . S
C1590 C245 1.474 . S
C1615 C275 1.514 . S
C1620 C217 1.474 . S
C1645 C231 1.474 . S
C1650 C289 1.514 . S
C1675 C189 1.511 . S
C1680 C303 1.552 . S
C1705 C203 1.511 . S
C1710 C317 1.552 . S
C1735 C331 1.549 . S
C1740 C175 1.514 . S
C1765 C497 1.474 . S
C1770 C345 1.514 . S
C1795 C359 1.514 . S
C1800 C469 1.474 . S
C1825 C373 1.514 . S
C1830 C483 1.474 . S
C1855 C387 1.550 . S
C1860 C441 1.514 . S
C1885 C455 1.511 . S
C1890 C401 1.552 . S
C1915 C415 1.549 . S
C1920 C427 1.514 . S
C1945 C413 1.447 . S
C1950 C429 1.480 . S
C1975 C385 1.446 . S
C1980 C443 1.480 . S
C2005 C399 1.446 . S
C2010 C457 1.480 . S
C2035 C357 1.479 . S
C2040 C471 1.519 . S
C2065 C371 1.479 . S
C2070 C485 1.519 . S
C2095 C343 1.479 . S
C2100 C499 1.519 . S
C2125 C409 1.301 . S
C2130 C3 1.302 . S
C2155 C17 1.301 . S
C2160 C381 1.302 . S
C2185 C395 1.301 . S
C2190 C31 1.302 . S
C2215 C45 1.303 . S
C2220 C185 1.303 . S
C2245 C199 1.303 . S
C2250 C59 1.303 . S
C2275 C73 1.303 . S
C2280 C171 1.303 . S
C2305 C87 1.301 . S
C2310 C325 1.302 . S
C2335 C297 1.301 . S
C2340 C101 1.302 . S
C2365 C115 1.301 . S
C2370 C311 1.302 . S
C2395 C129 1.303 . S
C2400 C437 1.303 . S
C2425 C143 1.303 . S
C2430 C451 1.303 . S
C2455 C423 1.303 . S
C2460 C157 1.303 . S
C2485 C353 1.304 . S
C2490 C213 1.304 . S
C2515 C367 1.304 . S
C2520 C227 1.303 . S
C2545 C339 1.304 . S
C2550 C241 1.304 . S
C2575 C255 1.304 . S
C2580 C493 1.304 . S
C2605 C465 1.304 . S
C2610 C269 1.304 . S
C2635 C283 1.303 . S
C2640 C479 1.303 . S
